# CIF file generated by openbabel 3.1.0, see https://openbabel.org
data_I
_chemical_name_common 'image0'
_cell_length_a 26.082
_cell_length_b 26.082
_cell_length_c 5.053
_cell_angle_alpha 90
_cell_angle_beta 90
_cell_angle_gamma 90
_space_group_name_H-M_alt 'P 1'
_space_group_name_Hall 'P 1'
loop_
    _symmetry_equiv_pos_as_xyz
    x,y,z
loop_
    _atom_site_label
    _atom_site_type_symbol
    _atom_site_fract_x
    _atom_site_fract_y
    _atom_site_fract_z
    _atom_site_occupancy
    Zn1      Zn       0.27581    0.21562    0.84260    1.000
    O1       O        0.21860    0.25090    0.01100    1.000
    H1       H        0.19750    0.26210    0.89640    1.000
    N1       N        0.26070    0.14600    0.86200    1.000
    C1       C        0.27150    0.10650    0.01100    1.000
    H2       H        0.29810    0.10890    0.13260    1.000
    N2       N        0.24460    0.06200    0.99300    1.000
    C2       C        0.21540    0.11980    0.71100    1.000
    O2       O        0.27440    0.83670    0.45100    1.000
    C3       C        0.18560    0.14160    0.51500    1.000
    H3       H        0.19140    0.17510    0.46030    1.000
    O3       O        0.32680    0.88220    0.67200    1.000
    C4       C        0.14690    0.11260    0.40200    1.000
    C5       C        0.11720    0.13460    0.20700    1.000
    H4       H        0.12410    0.16820    0.15580    1.000
    C6       C        0.07760    0.10850    0.08300    1.000
    H5       H        0.05750    0.12320    0.95110    1.000
    C7       C        0.07030    0.05860    0.17100    1.000
    H6       H        0.04430    0.03920    0.09450    1.000
    C8       C        0.09980    0.03640    0.36800    1.000
    H7       H        0.09280    0.00290    0.41910    1.000
    C9       C        0.13950    0.06260    0.49100    1.000
    C10      C        0.16920    0.04070    0.68700    1.000
    H8       H        0.16260    0.00760    0.74740    1.000
    C11      C        0.20910    0.06930    0.79100    1.000
    C12      C        0.25320    0.01450    0.11100    1.000
    C13      C        0.27750    0.93030    0.40500    1.000
    C14      C        0.27880    0.01990    0.34900    1.000
    H9       H        0.28770    0.05250    0.40730    1.000
    C15      C        0.29140    0.97790    0.50000    1.000
    H10      H        0.30850    0.98150    0.66050    1.000
    C16      C        0.25180    0.92330    0.17000    1.000
    H11      H        0.24270    0.89070    0.11150    1.000
    C17      C        0.24010    0.96630    0.02400    1.000
    H12      H        0.22300    0.96270    0.86360    1.000
    C18      C        0.28640    0.87860    0.53200    1.000
    O4       O        0.30700    0.87500    0.86000    1.000
    C19      C        0.30090    0.01100    0.22400    1.000
    H13      H        0.32440    0.03740    0.19960    1.000
    C20      C        0.31480    0.96840    0.37600    1.000
    H14      H        0.34700    0.96560    0.45340    1.000
    C21      C        0.22830    0.93010    0.29700    1.000
    H15      H        0.20480    0.90370    0.32020    1.000
    C22      C        0.21860    0.97440    0.15000    1.000
    H16      H        0.18640    0.97750    0.07230    1.000
    Zn2      Zn       0.77581    0.71562    0.34260    1.000
    O5       O        0.71860    0.75090    0.51100    1.000
    H17      H        0.69750    0.76210    0.39640    1.000
    N3       N        0.76070    0.64600    0.36200    1.000
    C23      C        0.77150    0.60650    0.51100    1.000
    H18      H        0.79810    0.60890    0.63260    1.000
    N4       N        0.74460    0.56200    0.49300    1.000
    C24      C        0.71540    0.61980    0.21100    1.000
    O6       O        0.77440    0.33670    0.95100    1.000
    C25      C        0.68560    0.64160    0.01500    1.000
    H19      H        0.69140    0.67510    0.96030    1.000
    O7       O        0.82680    0.38220    0.17200    1.000
    C26      C        0.64690    0.61260    0.90200    1.000
    C27      C        0.61720    0.63460    0.70700    1.000
    H20      H        0.62410    0.66820    0.65580    1.000
    C28      C        0.57760    0.60850    0.58300    1.000
    H21      H        0.55750    0.62320    0.45110    1.000
    C29      C        0.57030    0.55860    0.67100    1.000
    H22      H        0.54430    0.53920    0.59450    1.000
    C30      C        0.59980    0.53640    0.86800    1.000
    H23      H        0.59280    0.50290    0.91910    1.000
    C31      C        0.63950    0.56260    0.99100    1.000
    C32      C        0.66920    0.54070    0.18700    1.000
    H24      H        0.66260    0.50760    0.24740    1.000
    C33      C        0.70910    0.56930    0.29100    1.000
    C34      C        0.75320    0.51450    0.61100    1.000
    C35      C        0.77750    0.43030    0.90500    1.000
    C36      C        0.77880    0.51990    0.84900    1.000
    H25      H        0.78770    0.55250    0.90730    1.000
    C37      C        0.79140    0.47790    0.00000    1.000
    H26      H        0.80850    0.48150    0.16050    1.000
    C38      C        0.75180    0.42330    0.67000    1.000
    H27      H        0.74270    0.39070    0.61150    1.000
    C39      C        0.74010    0.46630    0.52400    1.000
    H28      H        0.72300    0.46270    0.36360    1.000
    C40      C        0.78640    0.37860    0.03200    1.000
    O8       O        0.80700    0.37500    0.36000    1.000
    C41      C        0.80090    0.51100    0.72400    1.000
    H29      H        0.82440    0.53740    0.69960    1.000
    C42      C        0.81480    0.46840    0.87600    1.000
    H30      H        0.84700    0.46560    0.95340    1.000
    C43      C        0.72830    0.43010    0.79700    1.000
    H31      H        0.70480    0.40370    0.82020    1.000
    C44      C        0.71860    0.47440    0.65000    1.000
    H32      H        0.68640    0.47750    0.57230    1.000
    Zn3      Zn       0.72419    0.78438    0.84260    1.000
    O9       O        0.78140    0.74910    0.01100    1.000
    H33      H        0.80250    0.73790    0.89640    1.000
    N5       N        0.73930    0.85400    0.86200    1.000
    C45      C        0.72850    0.89350    0.01100    1.000
    H34      H        0.70190    0.89110    0.13260    1.000
    N6       N        0.75540    0.93800    0.99300    1.000
    C46      C        0.78460    0.88020    0.71100    1.000
    O10      O        0.72560    0.16330    0.45100    1.000
    C47      C        0.81440    0.85840    0.51500    1.000
    H35      H        0.80860    0.82490    0.46030    1.000
    O11      O        0.67320    0.11780    0.67200    1.000
    C48      C        0.85310    0.88740    0.40200    1.000
    C49      C        0.88280    0.86540    0.20700    1.000
    H36      H        0.87590    0.83180    0.15580    1.000
    C50      C        0.92240    0.89150    0.08300    1.000
    H37      H        0.94250    0.87680    0.95110    1.000
    C51      C        0.92970    0.94140    0.17100    1.000
    H38      H        0.95570    0.96080    0.09450    1.000
    C52      C        0.90020    0.96360    0.36800    1.000
    H39      H        0.90720    0.99710    0.41910    1.000
    C53      C        0.86050    0.93740    0.49100    1.000
    C54      C        0.83080    0.95930    0.68700    1.000
    H40      H        0.83740    0.99240    0.74740    1.000
    C55      C        0.79090    0.93070    0.79100    1.000
    C56      C        0.74680    0.98550    0.11100    1.000
    C57      C        0.72250    0.06970    0.40500    1.000
    C58      C        0.72120    0.98010    0.34900    1.000
    H41      H        0.71230    0.94750    0.40730    1.000
    C59      C        0.70860    0.02210    0.50000    1.000
    H42      H        0.69150    0.01850    0.66050    1.000
    C60      C        0.74820    0.07670    0.17000    1.000
    H43      H        0.75730    0.10930    0.11150    1.000
    C61      C        0.75990    0.03370    0.02400    1.000
    H44      H        0.77700    0.03730    0.86360    1.000
    C62      C        0.71360    0.12140    0.53200    1.000
    O12      O        0.69300    0.12500    0.86000    1.000
    C63      C        0.69910    0.98900    0.22400    1.000
    H45      H        0.67560    0.96260    0.19960    1.000
    C64      C        0.68520    0.03160    0.37600    1.000
    H46      H        0.65300    0.03440    0.45340    1.000
    C65      C        0.77170    0.06990    0.29700    1.000
    H47      H        0.79520    0.09630    0.32020    1.000
    C66      C        0.78140    0.02560    0.15000    1.000
    H48      H        0.81360    0.02250    0.07230    1.000
    Zn4      Zn       0.22419    0.28438    0.34260    1.000
    O13      O        0.28140    0.24910    0.51100    1.000
    H49      H        0.30250    0.23790    0.39640    1.000
    N7       N        0.23930    0.35400    0.36200    1.000
    C67      C        0.22850    0.39350    0.51100    1.000
    H50      H        0.20190    0.39110    0.63260    1.000
    N8       N        0.25540    0.43800    0.49300    1.000
    C68      C        0.28460    0.38020    0.21100    1.000
    O14      O        0.22560    0.66330    0.95100    1.000
    C69      C        0.31440    0.35840    0.01500    1.000
    H51      H        0.30860    0.32490    0.96030    1.000
    O15      O        0.17320    0.61780    0.17200    1.000
    C70      C        0.35310    0.38740    0.90200    1.000
    C71      C        0.38280    0.36540    0.70700    1.000
    H52      H        0.37590    0.33180    0.65580    1.000
    C72      C        0.42240    0.39150    0.58300    1.000
    H53      H        0.44250    0.37680    0.45110    1.000
    C73      C        0.42970    0.44140    0.67100    1.000
    H54      H        0.45570    0.46080    0.59450    1.000
    C74      C        0.40020    0.46360    0.86800    1.000
    H55      H        0.40720    0.49710    0.91910    1.000
    C75      C        0.36050    0.43740    0.99100    1.000
    C76      C        0.33080    0.45930    0.18700    1.000
    H56      H        0.33740    0.49240    0.24740    1.000
    C77      C        0.29090    0.43070    0.29100    1.000
    C78      C        0.24680    0.48550    0.61100    1.000
    C79      C        0.22250    0.56970    0.90500    1.000
    C80      C        0.22120    0.48010    0.84900    1.000
    H57      H        0.21230    0.44750    0.90730    1.000
    C81      C        0.20860    0.52210    0.00000    1.000
    H58      H        0.19150    0.51850    0.16050    1.000
    C82      C        0.24820    0.57670    0.67000    1.000
    H59      H        0.25730    0.60930    0.61150    1.000
    C83      C        0.25990    0.53370    0.52400    1.000
    H60      H        0.27700    0.53730    0.36360    1.000
    C84      C        0.21360    0.62140    0.03200    1.000
    O16      O        0.19300    0.62500    0.36000    1.000
    C85      C        0.19910    0.48900    0.72400    1.000
    H61      H        0.17560    0.46260    0.69960    1.000
    C86      C        0.18520    0.53160    0.87600    1.000
    H62      H        0.15300    0.53440    0.95340    1.000
    C87      C        0.27170    0.56990    0.79700    1.000
    H63      H        0.29520    0.59630    0.82020    1.000
    C88      C        0.28140    0.52560    0.65000    1.000
    H64      H        0.31360    0.52250    0.57230    1.000
    Zn5      Zn       0.21562    0.72419    0.15740    1.000
    O17      O        0.25090    0.78140    0.98900    1.000
    H65      H        0.26210    0.80250    0.10360    1.000
    N9       N        0.14600    0.73930    0.13800    1.000
    C89      C        0.10650    0.72850    0.98900    1.000
    H66      H        0.10890    0.70190    0.86740    1.000
    N10      N        0.06200    0.75540    0.00700    1.000
    C90      C        0.11980    0.78460    0.28900    1.000
    O18      O        0.83670    0.72560    0.54900    1.000
    C91      C        0.14160    0.81440    0.48500    1.000
    H67      H        0.17510    0.80860    0.53970    1.000
    O19      O        0.88220    0.67320    0.32800    1.000
    C92      C        0.11260    0.85310    0.59800    1.000
    C93      C        0.13460    0.88280    0.79300    1.000
    H68      H        0.16820    0.87590    0.84420    1.000
    C94      C        0.10850    0.92240    0.91700    1.000
    H69      H        0.12320    0.94250    0.04890    1.000
    C95      C        0.05860    0.92970    0.82900    1.000
    H70      H        0.03920    0.95570    0.90550    1.000
    C96      C        0.03640    0.90020    0.63200    1.000
    H71      H        0.00290    0.90720    0.58090    1.000
    C97      C        0.06260    0.86050    0.50900    1.000
    C98      C        0.04070    0.83080    0.31300    1.000
    H72      H        0.00760    0.83740    0.25260    1.000
    C99      C        0.06930    0.79090    0.20900    1.000
    C100     C        0.01450    0.74680    0.88900    1.000
    C101     C        0.93030    0.72250    0.59500    1.000
    C102     C        0.01990    0.72120    0.65100    1.000
    H73      H        0.05250    0.71230    0.59270    1.000
    C103     C        0.97790    0.70860    0.50000    1.000
    H74      H        0.98150    0.69150    0.33950    1.000
    C104     C        0.92330    0.74820    0.83000    1.000
    H75      H        0.89070    0.75730    0.88850    1.000
    C105     C        0.96630    0.75990    0.97600    1.000
    H76      H        0.96270    0.77700    0.13640    1.000
    C106     C        0.87860    0.71360    0.46800    1.000
    O20      O        0.87500    0.69300    0.14000    1.000
    C107     C        0.01100    0.69910    0.77600    1.000
    H77      H        0.03740    0.67560    0.80040    1.000
    C108     C        0.96840    0.68520    0.62400    1.000
    H78      H        0.96560    0.65300    0.54660    1.000
    C109     C        0.93010    0.77170    0.70300    1.000
    H79      H        0.90370    0.79520    0.67980    1.000
    C110     C        0.97440    0.78140    0.85000    1.000
    H80      H        0.97750    0.81360    0.92770    1.000
    Zn6      Zn       0.71562    0.22419    0.65740    1.000
    O21      O        0.75090    0.28140    0.48900    1.000
    H81      H        0.76210    0.30250    0.60360    1.000
    N11      N        0.64600    0.23930    0.63800    1.000
    C111     C        0.60650    0.22850    0.48900    1.000
    H82      H        0.60890    0.20190    0.36740    1.000
    N12      N        0.56200    0.25540    0.50700    1.000
    C112     C        0.61980    0.28460    0.78900    1.000
    O22      O        0.33670    0.22560    0.04900    1.000
    C113     C        0.64160    0.31440    0.98500    1.000
    H83      H        0.67510    0.30860    0.03970    1.000
    O23      O        0.38220    0.17320    0.82800    1.000
    C114     C        0.61260    0.35310    0.09800    1.000
    C115     C        0.63460    0.38280    0.29300    1.000
    H84      H        0.66820    0.37590    0.34420    1.000
    C116     C        0.60850    0.42240    0.41700    1.000
    H85      H        0.62320    0.44250    0.54890    1.000
    C117     C        0.55860    0.42970    0.32900    1.000
    H86      H        0.53920    0.45570    0.40550    1.000
    C118     C        0.53640    0.40020    0.13200    1.000
    H87      H        0.50290    0.40720    0.08090    1.000
    C119     C        0.56260    0.36050    0.00900    1.000
    C120     C        0.54070    0.33080    0.81300    1.000
    H88      H        0.50760    0.33740    0.75260    1.000
    C121     C        0.56930    0.29090    0.70900    1.000
    C122     C        0.51450    0.24680    0.38900    1.000
    C123     C        0.43030    0.22250    0.09500    1.000
    C124     C        0.51990    0.22120    0.15100    1.000
    H89      H        0.55250    0.21230    0.09270    1.000
    C125     C        0.47790    0.20860    0.00000    1.000
    H90      H        0.48150    0.19150    0.83950    1.000
    C126     C        0.42330    0.24820    0.33000    1.000
    H91      H        0.39070    0.25730    0.38850    1.000
    C127     C        0.46630    0.25990    0.47600    1.000
    H92      H        0.46270    0.27700    0.63640    1.000
    C128     C        0.37860    0.21360    0.96800    1.000
    O24      O        0.37500    0.19300    0.64000    1.000
    C129     C        0.51100    0.19910    0.27600    1.000
    H93      H        0.53740    0.17560    0.30040    1.000
    C130     C        0.46840    0.18520    0.12400    1.000
    H94      H        0.46560    0.15300    0.04660    1.000
    C131     C        0.43010    0.27170    0.20300    1.000
    H95      H        0.40370    0.29520    0.17980    1.000
    C132     C        0.47440    0.28140    0.35000    1.000
    H96      H        0.47750    0.31360    0.42770    1.000
    Zn7      Zn       0.78438    0.27581    0.15740    1.000
    O25      O        0.74910    0.21860    0.98900    1.000
    H97      H        0.73790    0.19750    0.10360    1.000
    N13      N        0.85400    0.26070    0.13800    1.000
    C133     C        0.89350    0.27150    0.98900    1.000
    H98      H        0.89110    0.29810    0.86740    1.000
    N14      N        0.93800    0.24460    0.00700    1.000
    C134     C        0.88020    0.21540    0.28900    1.000
    O26      O        0.16330    0.27440    0.54900    1.000
    C135     C        0.85840    0.18560    0.48500    1.000
    H99      H        0.82490    0.19140    0.53970    1.000
    O27      O        0.11780    0.32680    0.32800    1.000
    C136     C        0.88740    0.14690    0.59800    1.000
    C137     C        0.86540    0.11720    0.79300    1.000
    H100     H        0.83180    0.12410    0.84420    1.000
    C138     C        0.89150    0.07760    0.91700    1.000
    H101     H        0.87680    0.05750    0.04890    1.000
    C139     C        0.94140    0.07030    0.82900    1.000
    H102     H        0.96080    0.04430    0.90550    1.000
    C140     C        0.96360    0.09980    0.63200    1.000
    H103     H        0.99710    0.09280    0.58090    1.000
    C141     C        0.93740    0.13950    0.50900    1.000
    C142     C        0.95930    0.16920    0.31300    1.000
    H104     H        0.99240    0.16260    0.25260    1.000
    C143     C        0.93070    0.20910    0.20900    1.000
    C144     C        0.98550    0.25320    0.88900    1.000
    C145     C        0.06970    0.27750    0.59500    1.000
    C146     C        0.98010    0.27880    0.65100    1.000
    H105     H        0.94750    0.28770    0.59270    1.000
    C147     C        0.02210    0.29140    0.50000    1.000
    H106     H        0.01850    0.30850    0.33950    1.000
    C148     C        0.07670    0.25180    0.83000    1.000
    H107     H        0.10930    0.24270    0.88850    1.000
    C149     C        0.03370    0.24010    0.97600    1.000
    H108     H        0.03730    0.22300    0.13640    1.000
    C150     C        0.12140    0.28640    0.46800    1.000
    O28      O        0.12500    0.30700    0.14000    1.000
    C151     C        0.98900    0.30090    0.77600    1.000
    H109     H        0.96260    0.32440    0.80040    1.000
    C152     C        0.03160    0.31480    0.62400    1.000
    H110     H        0.03440    0.34700    0.54660    1.000
    C153     C        0.06990    0.22830    0.70300    1.000
    H111     H        0.09630    0.20480    0.67980    1.000
    C154     C        0.02560    0.21860    0.85000    1.000
    H112     H        0.02250    0.18640    0.92770    1.000
    Zn8      Zn       0.28438    0.77581    0.65740    1.000
    O29      O        0.24910    0.71860    0.48900    1.000
    H113     H        0.23790    0.69750    0.60360    1.000
    N15      N        0.35400    0.76070    0.63800    1.000
    C155     C        0.39350    0.77150    0.48900    1.000
    H114     H        0.39110    0.79810    0.36740    1.000
    N16      N        0.43800    0.74460    0.50700    1.000
    C156     C        0.38020    0.71540    0.78900    1.000
    O30      O        0.66330    0.77440    0.04900    1.000
    C157     C        0.35840    0.68560    0.98500    1.000
    H115     H        0.32490    0.69140    0.03970    1.000
    O31      O        0.61780    0.82680    0.82800    1.000
    C158     C        0.38740    0.64690    0.09800    1.000
    C159     C        0.36540    0.61720    0.29300    1.000
    H116     H        0.33180    0.62410    0.34420    1.000
    C160     C        0.39150    0.57760    0.41700    1.000
    H117     H        0.37680    0.55750    0.54890    1.000
    C161     C        0.44140    0.57030    0.32900    1.000
    H118     H        0.46080    0.54430    0.40550    1.000
    C162     C        0.46360    0.59980    0.13200    1.000
    H119     H        0.49710    0.59280    0.08090    1.000
    C163     C        0.43740    0.63950    0.00900    1.000
    C164     C        0.45930    0.66920    0.81300    1.000
    H120     H        0.49240    0.66260    0.75260    1.000
    C165     C        0.43070    0.70910    0.70900    1.000
    C166     C        0.48550    0.75320    0.38900    1.000
    C167     C        0.56970    0.77750    0.09500    1.000
    C168     C        0.48010    0.77880    0.15100    1.000
    H121     H        0.44750    0.78770    0.09270    1.000
    C169     C        0.52210    0.79140    0.00000    1.000
    H122     H        0.51850    0.80850    0.83950    1.000
    C170     C        0.57670    0.75180    0.33000    1.000
    H123     H        0.60930    0.74270    0.38850    1.000
    C171     C        0.53370    0.74010    0.47600    1.000
    H124     H        0.53730    0.72300    0.63640    1.000
    C172     C        0.62140    0.78640    0.96800    1.000
    O32      O        0.62500    0.80700    0.64000    1.000
    C173     C        0.48900    0.80090    0.27600    1.000
    H125     H        0.46260    0.82440    0.30040    1.000
    C174     C        0.53160    0.81480    0.12400    1.000
    H126     H        0.53440    0.84700    0.04660    1.000
    C175     C        0.56990    0.72830    0.20300    1.000
    H127     H        0.59630    0.70480    0.17980    1.000
    C176     C        0.52560    0.71860    0.35000    1.000
    H128     H        0.52250    0.68640    0.42770    1.000
