# CIF file generated by openbabel 3.1.0, see https://openbabel.org
data_I
_chemical_name_common 'MAYPIM_clean'
_cell_length_a 6.8727
_cell_length_b 11.462
_cell_length_c 24.986
_cell_angle_alpha 98.79
_cell_angle_beta 90
_cell_angle_gamma 90
_space_group_name_H-M_alt 'P 1'
_space_group_name_Hall 'P 1'
loop_
    _symmetry_equiv_pos_as_xyz
    x,y,z
loop_
    _atom_site_label
    _atom_site_type_symbol
    _atom_site_fract_x
    _atom_site_fract_y
    _atom_site_fract_z
    _atom_site_occupancy
    Ag1      Ag       0.13626    0.91774    0.45180    1.000
    Ag2      Ag       0.50473    0.82281    0.55133    1.000
    Ag3      Ag       0.13626    0.08226    0.04820    1.000
    Ag4      Ag       0.50473    0.17719    0.94867    1.000
    Ag5      Ag       0.86374    0.08226    0.54820    1.000
    Ag6      Ag       0.49527    0.17719    0.44867    1.000
    Ag7      Ag       0.86374    0.91774    0.95180    1.000
    Ag8      Ag       0.49527    0.82281    0.05133    1.000
    H1       H        0.28540    0.13920    0.68340    1.000
    H2       H        0.05690    0.25530    0.73520    1.000
    H3       H        0.10600    0.27200    0.55030    1.000
    H4       H        0.86650    0.38180    0.60200    1.000
    H5       H        0.01010    0.54610    0.72900    1.000
    H6       H        0.75610    0.53590    0.65720    1.000
    H7       H        0.59100    0.43610    0.65230    1.000
    H8       H        0.75030    0.29510    0.76480    1.000
    H9       H        0.58510    0.28950    0.71930    1.000
    H10      H        0.33010    0.55360    0.77460    1.000
    H11      H        0.47360    0.80850    0.71450    1.000
    H12      H        0.28320    0.49090    0.64060    1.000
    H13      H        0.25830    0.90170    0.66360    1.000
    H14      H        0.06610    0.58350    0.58950    1.000
    H15      H        0.28540    0.86080    0.81660    1.000
    H16      H        0.05690    0.74470    0.76480    1.000
    H17      H        0.10600    0.72800    0.94970    1.000
    H18      H        0.86650    0.61820    0.89800    1.000
    H19      H        0.01010    0.45390    0.77100    1.000
    H20      H        0.75610    0.46410    0.84280    1.000
    H21      H        0.59100    0.56390    0.84770    1.000
    H22      H        0.75030    0.70490    0.73520    1.000
    H23      H        0.58510    0.71050    0.78070    1.000
    H24      H        0.33010    0.44640    0.72540    1.000
    H25      H        0.47360    0.19150    0.78550    1.000
    H26      H        0.28320    0.50910    0.85940    1.000
    H27      H        0.25830    0.09830    0.83640    1.000
    H28      H        0.06610    0.41650    0.91050    1.000
    H29      H        0.71460    0.86080    0.31660    1.000
    H30      H        0.94310    0.74470    0.26480    1.000
    H31      H        0.89400    0.72800    0.44970    1.000
    H32      H        0.13350    0.61820    0.39800    1.000
    H33      H        0.98990    0.45390    0.27100    1.000
    H34      H        0.24390    0.46410    0.34280    1.000
    H35      H        0.40900    0.56390    0.34770    1.000
    H36      H        0.24970    0.70490    0.23520    1.000
    H37      H        0.41490    0.71050    0.28070    1.000
    H38      H        0.66990    0.44640    0.22540    1.000
    H39      H        0.52640    0.19150    0.28550    1.000
    H40      H        0.71680    0.50910    0.35940    1.000
    H41      H        0.74170    0.09830    0.33640    1.000
    H42      H        0.93390    0.41650    0.41050    1.000
    H43      H        0.71460    0.13920    0.18340    1.000
    H44      H        0.94310    0.25530    0.23520    1.000
    H45      H        0.89400    0.27200    0.05030    1.000
    H46      H        0.13350    0.38180    0.10200    1.000
    H47      H        0.98990    0.54610    0.22900    1.000
    H48      H        0.24390    0.53590    0.15720    1.000
    H49      H        0.40900    0.43610    0.15230    1.000
    H50      H        0.24970    0.29510    0.26480    1.000
    H51      H        0.41490    0.28950    0.21930    1.000
    H52      H        0.66990    0.55360    0.27460    1.000
    H53      H        0.52640    0.80850    0.21450    1.000
    H54      H        0.71680    0.49090    0.14060    1.000
    H55      H        0.74170    0.90170    0.16360    1.000
    H56      H        0.93390    0.58350    0.08950    1.000
    C1       C        0.21890    0.19540    0.61190    1.000
    C2       C        0.20270    0.18980    0.66690    1.000
    C3       C        0.06530    0.25860    0.69750    1.000
    C4       C        0.09480    0.26790    0.58780    1.000
    C5       C        0.93780    0.33300    0.67460    1.000
    C6       C        0.95360    0.33450    0.61890    1.000
    C7       C        0.67220    0.48910    0.67820    1.000
    C8       C        0.80050    0.41490    0.71080    1.000
    C9       C        0.53940    0.57330    0.71650    1.000
    C10      C        0.66850    0.34350    0.74410    1.000
    C11      C        0.40330    0.63950    0.68330    1.000
    C12      C        0.39160    0.76220    0.68900    1.000
    C13      C        0.27890    0.57470    0.64530    1.000
    C14      C        0.26410    0.81800    0.65860    1.000
    C15      C        0.14390    0.75160    0.62070    1.000
    C16      C        0.15000    0.62940    0.61460    1.000
    C17      C        0.21890    0.80460    0.88810    1.000
    C18      C        0.20270    0.81020    0.83310    1.000
    C19      C        0.06530    0.74140    0.80250    1.000
    C20      C        0.09480    0.73210    0.91220    1.000
    C21      C        0.93780    0.66700    0.82540    1.000
    C22      C        0.95360    0.66550    0.88110    1.000
    C23      C        0.67220    0.51090    0.82180    1.000
    C24      C        0.80050    0.58510    0.78920    1.000
    C25      C        0.53940    0.42670    0.78350    1.000
    C26      C        0.66850    0.65650    0.75590    1.000
    C27      C        0.40330    0.36050    0.81670    1.000
    C28      C        0.39160    0.23780    0.81100    1.000
    C29      C        0.27890    0.42530    0.85470    1.000
    C30      C        0.26410    0.18200    0.84140    1.000
    C31      C        0.14390    0.24840    0.87930    1.000
    C32      C        0.15000    0.37060    0.88540    1.000
    C33      C        0.78110    0.80460    0.38810    1.000
    C34      C        0.79730    0.81020    0.33310    1.000
    C35      C        0.93470    0.74140    0.30250    1.000
    C36      C        0.90520    0.73210    0.41220    1.000
    C37      C        0.06220    0.66700    0.32540    1.000
    C38      C        0.04640    0.66550    0.38110    1.000
    C39      C        0.32780    0.51090    0.32180    1.000
    C40      C        0.19950    0.58510    0.28920    1.000
    C41      C        0.46060    0.42670    0.28350    1.000
    C42      C        0.33150    0.65650    0.25590    1.000
    C43      C        0.59670    0.36050    0.31670    1.000
    C44      C        0.60840    0.23780    0.31100    1.000
    C45      C        0.72110    0.42530    0.35470    1.000
    C46      C        0.73590    0.18200    0.34140    1.000
    C47      C        0.85610    0.24840    0.37930    1.000
    C48      C        0.85000    0.37060    0.38540    1.000
    C49      C        0.78110    0.19540    0.11190    1.000
    C50      C        0.79730    0.18980    0.16690    1.000
    C51      C        0.93470    0.25860    0.19750    1.000
    C52      C        0.90520    0.26790    0.08780    1.000
    C53      C        0.06220    0.33300    0.17460    1.000
    C54      C        0.04640    0.33450    0.11890    1.000
    C55      C        0.32780    0.48910    0.17820    1.000
    C56      C        0.19950    0.41490    0.21080    1.000
    C57      C        0.46060    0.57330    0.21650    1.000
    C58      C        0.33150    0.34350    0.24410    1.000
    C59      C        0.59670    0.63950    0.18330    1.000
    C60      C        0.60840    0.76220    0.18900    1.000
    C61      C        0.72110    0.57470    0.14530    1.000
    C62      C        0.73590    0.81800    0.15860    1.000
    C63      C        0.85610    0.75160    0.12070    1.000
    C64      C        0.85000    0.62940    0.11460    1.000
    C65      C        0.92530    0.50000    0.75000    1.000
    C66      C        0.41490    0.50000    0.75000    1.000
    C67      C        0.07470    0.50000    0.25000    1.000
    C68      C        0.58510    0.50000    0.25000    1.000
    S1       S        0.39650    0.11293    0.57116    1.000
    S2       S        0.99920    0.81822    0.57529    1.000
    S3       S        0.39650    0.88707    0.92884    1.000
    S4       S        0.99920    0.18178    0.92471    1.000
    S5       S        0.60350    0.88707    0.42884    1.000
    S6       S        0.00080    0.18178    0.42471    1.000
    S7       S        0.60350    0.11293    0.07116    1.000
    S8       S        0.00080    0.81822    0.07529    1.000
    O1       O        0.45270    0.01500    0.59896    1.000
    O2       O        0.30500    0.07570    0.51933    1.000
    O3       O        0.55880    0.19220    0.56710    1.000
    O4       O        0.96540    0.94030    0.59920    1.000
    O5       O        0.12300    0.80990    0.52720    1.000
    O6       O        0.82530    0.74830    0.56560    1.000
    O7       O        0.45270    0.98500    0.90104    1.000
    O8       O        0.30500    0.92430    0.98067    1.000
    O9       O        0.55880    0.80780    0.93290    1.000
    O10      O        0.96540    0.05970    0.90080    1.000
    O11      O        0.12300    0.19010    0.97280    1.000
    O12      O        0.82530    0.25170    0.93440    1.000
    O13      O        0.54730    0.98500    0.40104    1.000
    O14      O        0.69500    0.92430    0.48067    1.000
    O15      O        0.44120    0.80780    0.43290    1.000
    O16      O        0.03460    0.05970    0.40080    1.000
    O17      O        0.87700    0.19010    0.47280    1.000
    O18      O        0.17470    0.25170    0.43440    1.000
    O19      O        0.54730    0.01500    0.09896    1.000
    O20      O        0.69500    0.07570    0.01933    1.000
    O21      O        0.44120    0.19220    0.06710    1.000
    O22      O        0.03460    0.94030    0.09920    1.000
    O23      O        0.87700    0.80990    0.02720    1.000
    O24      O        0.17470    0.74830    0.06560    1.000
