data_functionalizedCrystal
_audit_creation_method	'EQeq! by Chris Wilmer'
_symmetry_space_group_name_H-M	'P1'
_symmetry_Int_Tables_number	1
_symmetry_cell_setting	triclinic
loop_
_symmetry_equiv_pos_as_xyz
  x,y,z
_cell_length_a	26.3336
_cell_length_b	26.3336
_cell_length_c	26.3336
_cell_angle_alpha	90
_cell_angle_beta	90
_cell_angle_gamma	90
loop_
_atom_site_label
_atom_site_type_symbol
_atom_site_fract_x
_atom_site_fract_y
_atom_site_fract_z
_atom_site_charge
Mof_O 	O 	0.3166	0.9477	0.2431	-0.458
Mof_H 	H 	0.2434	0.8761	0.0839	-0.062
Mof_O 	O 	0.3166	0.4477	0.7431	-0.485
Mof_H 	H 	0.2434	0.3761	0.5839	-0.059
Mof_O 	O 	0.8166	0.9477	0.7431	-0.453
Mof_H 	H 	0.7434	0.8761	0.5839	-0.051
Mof_O 	O 	0.8166	0.4477	0.2431	-0.484
Mof_H 	H 	0.7434	0.3761	0.0839	-0.063
Mof_O 	O 	0.6834	0.0523	0.2431	-0.501
Mof_H 	H 	0.7566	0.1239	0.0839	-0.068
Mof_O 	O 	0.6834	0.5523	0.7431	-0.485
Mof_H 	H 	0.7566	0.6239	0.5839	-0.056
Mof_O 	O 	0.1834	0.0523	0.7431	-0.501
Mof_H 	H 	0.2566	0.1239	0.5839	-0.064
Mof_O 	O 	0.1834	0.5523	0.2431	-0.489
Mof_H 	H 	0.2566	0.6239	0.0839	-0.066
Mof_O 	O 	0.6834	0.9477	0.7569	-0.457
Mof_H 	H 	0.7566	0.8761	0.9161	-0.044
Mof_O 	O 	0.6834	0.4477	0.2569	-0.487
Mof_H 	H 	0.7566	0.3761	0.4161	-0.056
Mof_O 	O 	0.1834	0.9477	0.2569	-0.461
Mof_H 	H 	0.2566	0.8761	0.4161	-0.056
Mof_O 	O 	0.1834	0.4477	0.7569	-0.489
Mof_H 	H 	0.2566	0.3761	0.9161	-0.052
Mof_O 	O 	0.3166	0.0523	0.7569	-0.501
Mof_H 	H 	0.2434	0.1239	0.9161	-0.056
Mof_O 	O 	0.3166	0.5523	0.2569	-0.488
Mof_H 	H 	0.2434	0.6239	0.4161	-0.06
Mof_O 	O 	0.8166	0.0523	0.2569	-0.499
Mof_H 	H 	0.7434	0.1239	0.4161	-0.061
Mof_O 	O 	0.8166	0.5523	0.7569	-0.484
Mof_H 	H 	0.7434	0.6239	0.9161	-0.049
Mof_O 	O 	0.2431	0.3166	0.9477	-0.459
Mof_H 	H 	0.0839	0.2434	0.8761	-0.063
Mof_O 	O 	0.2431	0.8166	0.4477	-0.485
Mof_H 	H 	0.0839	0.7434	0.3761	-0.064
Mof_O 	O 	0.7431	0.3166	0.4477	-0.486
Mof_H 	H 	0.5839	0.2434	0.3761	-0.06
Mof_O 	O 	0.7431	0.8166	0.9477	-0.454
Mof_H 	H 	0.5839	0.7434	0.8761	-0.052
Mof_O 	O 	0.2431	0.6834	0.0523	-0.502
Mof_H 	H 	0.0839	0.7566	0.1239	-0.069
Mof_O 	O 	0.2431	0.1834	0.5523	-0.49
Mof_H 	H 	0.0839	0.2566	0.6239	-0.067
Mof_O 	O 	0.7431	0.6834	0.5523	-0.486
Mof_H 	H 	0.5839	0.7566	0.6239	-0.057
Mof_O 	O 	0.7431	0.1834	0.0523	-0.502
Mof_H 	H 	0.5839	0.2566	0.1239	-0.065
Mof_O 	O 	0.7569	0.6834	0.9477	-0.458
Mof_H 	H 	0.9161	0.7566	0.8761	-0.045
Mof_O 	O 	0.7569	0.1834	0.4477	-0.489
Mof_H 	H 	0.9161	0.2566	0.3761	-0.052
Mof_O 	O 	0.2569	0.6834	0.4477	-0.488
Mof_H 	H 	0.4161	0.7566	0.3761	-0.057
Mof_O 	O 	0.2569	0.1834	0.9477	-0.462
Mof_H 	H 	0.4161	0.2566	0.8761	-0.056
Mof_O 	O 	0.7569	0.3166	0.0523	-0.501
Mof_H 	H 	0.9161	0.2434	0.1239	-0.056
Mof_O 	O 	0.7569	0.8166	0.5523	-0.484
Mof_H 	H 	0.9161	0.7434	0.6239	-0.049
Mof_O 	O 	0.2569	0.3166	0.5523	-0.488
Mof_H 	H 	0.4161	0.2434	0.6239	-0.06
Mof_O 	O 	0.2569	0.8166	0.0523	-0.499
Mof_H 	H 	0.4161	0.7434	0.1239	-0.061
Mof_O 	O 	0.9477	0.2431	0.3166	-0.459
Mof_H 	H 	0.8761	0.0839	0.2434	-0.063
Mof_O 	O 	0.9477	0.7431	0.8166	-0.454
Mof_H 	H 	0.8761	0.5839	0.7434	-0.052
Mof_O 	O 	0.4477	0.2431	0.8166	-0.485
Mof_H 	H 	0.3761	0.0839	0.7434	-0.064
Mof_O 	O 	0.4477	0.7431	0.3166	-0.486
Mof_H 	H 	0.3761	0.5839	0.2434	-0.06
Mof_O 	O 	0.0523	0.2431	0.6834	-0.502
Mof_H 	H 	0.1239	0.0839	0.7566	-0.069
Mof_O 	O 	0.0523	0.7431	0.1834	-0.502
Mof_H 	H 	0.1239	0.5839	0.2566	-0.065
Mof_O 	O 	0.5523	0.2431	0.1834	-0.49
Mof_H 	H 	0.6239	0.0839	0.2566	-0.067
Mof_O 	O 	0.5523	0.7431	0.6834	-0.486
Mof_H 	H 	0.6239	0.5839	0.7566	-0.057
Mof_O 	O 	0.9477	0.7569	0.6834	-0.458
Mof_H 	H 	0.8761	0.9161	0.7566	-0.045
Mof_O 	O 	0.9477	0.2569	0.1834	-0.462
Mof_H 	H 	0.8761	0.4161	0.2566	-0.056
Mof_O 	O 	0.4477	0.7569	0.1834	-0.489
Mof_H 	H 	0.3761	0.9161	0.2566	-0.052
Mof_O 	O 	0.4477	0.2569	0.6834	-0.488
Mof_H 	H 	0.3761	0.4161	0.7566	-0.057
Mof_O 	O 	0.0523	0.7569	0.3166	-0.501
Mof_H 	H 	0.1239	0.9161	0.2434	-0.056
Mof_O 	O 	0.0523	0.2569	0.8166	-0.499
Mof_H 	H 	0.1239	0.4161	0.7434	-0.061
Mof_O 	O 	0.5523	0.7569	0.8166	-0.484
Mof_H 	H 	0.6239	0.9161	0.7434	-0.049
Mof_O 	O 	0.5523	0.2569	0.3166	-0.488
Mof_H 	H 	0.6239	0.4161	0.2434	-0.06
Mof_O 	O 	0.9477	0.3166	0.7569	-0.458
Mof_H 	H 	0.8761	0.2434	0.9161	-0.048
Mof_O 	O 	0.9477	0.8166	0.2569	-0.456
Mof_H 	H 	0.8761	0.7434	0.4161	-0.053
Mof_O 	O 	0.4477	0.3166	0.2569	-0.488
Mof_H 	H 	0.3761	0.2434	0.4161	-0.06
Mof_O 	O 	0.4477	0.8166	0.7569	-0.484
Mof_H 	H 	0.3761	0.7434	0.9161	-0.049
Mof_O 	O 	0.0523	0.6834	0.7569	-0.501
Mof_H 	H 	0.1239	0.7566	0.9161	-0.054
Mof_O 	O 	0.0523	0.1834	0.2569	-0.505
Mof_H 	H 	0.1239	0.2566	0.4161	-0.065
Mof_O 	O 	0.5523	0.6834	0.2569	-0.488
Mof_H 	H 	0.6239	0.7566	0.4161	-0.057
Mof_O 	O 	0.5523	0.1834	0.7569	-0.489
Mof_H 	H 	0.6239	0.2566	0.9161	-0.052
Mof_O 	O 	0.9477	0.6834	0.2431	-0.459
Mof_H 	H 	0.8761	0.7566	0.0839	-0.06
Mof_O 	O 	0.9477	0.1834	0.7431	-0.46
Mof_H 	H 	0.8761	0.2566	0.5839	-0.056
Mof_O 	O 	0.4477	0.6834	0.7431	-0.486
Mof_H 	H 	0.3761	0.7566	0.5839	-0.057
Mof_O 	O 	0.4477	0.1834	0.2431	-0.49
Mof_H 	H 	0.3761	0.2566	0.0839	-0.068
Mof_O 	O 	0.0523	0.3166	0.2431	-0.501
Mof_H 	H 	0.1239	0.2434	0.0839	-0.071
Mof_O 	O 	0.0523	0.8166	0.7431	-0.497
Mof_H 	H 	0.1239	0.7434	0.5839	-0.061
Mof_O 	O 	0.5523	0.3166	0.7431	-0.486
Mof_H 	H 	0.6239	0.2434	0.5839	-0.06
Mof_O 	O 	0.5523	0.8166	0.2431	-0.485
Mof_H 	H 	0.6239	0.7434	0.0839	-0.064
Mof_O 	O 	0.3166	0.2431	0.0523	-0.501
Mof_H 	H 	0.2434	0.0839	0.1239	-0.071
Mof_O 	O 	0.3166	0.7431	0.5523	-0.486
Mof_H 	H 	0.2434	0.5839	0.6239	-0.06
Mof_O 	O 	0.8166	0.2431	0.5523	-0.485
Mof_H 	H 	0.7434	0.0839	0.6239	-0.064
Mof_O 	O 	0.8166	0.7431	0.0523	-0.497
Mof_H 	H 	0.7434	0.5839	0.1239	-0.061
Mof_O 	O 	0.6834	0.2431	0.9477	-0.459
Mof_H 	H 	0.7566	0.0839	0.8761	-0.06
Mof_O 	O 	0.6834	0.7431	0.4477	-0.486
Mof_H 	H 	0.7566	0.5839	0.3761	-0.057
Mof_O 	O 	0.1834	0.2431	0.4477	-0.49
Mof_H 	H 	0.2566	0.0839	0.3761	-0.068
Mof_O 	O 	0.1834	0.7431	0.9477	-0.46
Mof_H 	H 	0.2566	0.5839	0.8761	-0.056
Mof_O 	O 	0.6834	0.7569	0.0523	-0.501
Mof_H 	H 	0.7566	0.9161	0.1239	-0.054
Mof_O 	O 	0.6834	0.2569	0.5523	-0.488
Mof_H 	H 	0.7566	0.4161	0.6239	-0.057
Mof_O 	O 	0.1834	0.7569	0.5523	-0.489
Mof_H 	H 	0.2566	0.9161	0.6239	-0.052
Mof_O 	O 	0.1834	0.2569	0.0523	-0.505
Mof_H 	H 	0.2566	0.4161	0.1239	-0.065
Mof_O 	O 	0.3166	0.7569	0.9477	-0.458
Mof_H 	H 	0.2434	0.9161	0.8761	-0.048
Mof_O 	O 	0.3166	0.2569	0.4477	-0.488
Mof_H 	H 	0.2434	0.4161	0.3761	-0.06
Mof_O 	O 	0.8166	0.7569	0.4477	-0.484
Mof_H 	H 	0.7434	0.9161	0.3761	-0.049
Mof_O 	O 	0.8166	0.2569	0.9477	-0.456
Mof_H 	H 	0.7434	0.4161	0.8761	-0.053
Mof_O 	O 	0.2431	0.9477	0.6834	-0.459
Mof_H 	H 	0.0839	0.8761	0.7566	-0.06
Mof_O 	O 	0.2431	0.4477	0.1834	-0.49
Mof_H 	H 	0.0839	0.3761	0.2566	-0.068
Mof_O 	O 	0.7431	0.9477	0.1834	-0.46
Mof_H 	H 	0.5839	0.8761	0.2566	-0.056
Mof_O 	O 	0.7431	0.4477	0.6834	-0.486
Mof_H 	H 	0.5839	0.3761	0.7566	-0.057
Mof_O 	O 	0.2431	0.0523	0.3166	-0.501
Mof_H 	H 	0.0839	0.1239	0.2434	-0.071
Mof_O 	O 	0.2431	0.5523	0.8166	-0.485
Mof_H 	H 	0.0839	0.6239	0.7434	-0.064
Mof_O 	O 	0.7431	0.0523	0.8166	-0.497
Mof_H 	H 	0.5839	0.1239	0.7434	-0.061
Mof_O 	O 	0.7431	0.5523	0.3166	-0.486
Mof_H 	H 	0.5839	0.6239	0.2434	-0.06
Mof_O 	O 	0.7569	0.9477	0.3166	-0.458
Mof_H 	H 	0.9161	0.8761	0.2434	-0.048
Mof_O 	O 	0.7569	0.4477	0.8166	-0.484
Mof_H 	H 	0.9161	0.3761	0.7434	-0.049
Mof_O 	O 	0.2569	0.9477	0.8166	-0.456
Mof_H 	H 	0.4161	0.8761	0.7434	-0.053
Mof_O 	O 	0.2569	0.4477	0.3166	-0.488
Mof_H 	H 	0.4161	0.3761	0.2434	-0.06
Mof_O 	O 	0.7569	0.0523	0.6834	-0.501
Mof_H 	H 	0.9161	0.1239	0.7566	-0.054
Mof_O 	O 	0.7569	0.5523	0.1834	-0.489
Mof_H 	H 	0.9161	0.6239	0.2566	-0.052
Mof_O 	O 	0.2569	0.0523	0.1834	-0.505
Mof_H 	H 	0.4161	0.1239	0.2566	-0.065
Mof_O 	O 	0.2569	0.5523	0.6834	-0.488
Mof_H 	H 	0.4161	0.6239	0.7566	-0.057
Mof_O 	O 	0.6834	0.0523	0.7569	-0.501
Mof_H 	H 	0.7566	0.1239	0.9161	-0.054
Mof_O 	O 	0.6834	0.5523	0.2569	-0.488
Mof_H 	H 	0.7566	0.6239	0.4161	-0.057
Mof_O 	O 	0.1834	0.0523	0.2569	-0.505
Mof_H 	H 	0.2566	0.1239	0.4161	-0.065
Mof_O 	O 	0.1834	0.5523	0.7569	-0.489
Mof_H 	H 	0.2566	0.6239	0.9161	-0.052
Mof_O 	O 	0.3166	0.9477	0.7569	-0.458
Mof_H 	H 	0.2434	0.8761	0.9161	-0.048
Mof_O 	O 	0.3166	0.4477	0.2569	-0.488
Mof_H 	H 	0.2434	0.3761	0.4161	-0.06
Mof_O 	O 	0.8166	0.9477	0.2569	-0.456
Mof_H 	H 	0.7434	0.8761	0.4161	-0.053
Mof_O 	O 	0.8166	0.4477	0.7569	-0.484
Mof_H 	H 	0.7434	0.3761	0.9161	-0.049
Mof_O 	O 	0.3166	0.0523	0.2431	-0.501
Mof_H 	H 	0.2434	0.1239	0.0839	-0.071
Mof_O 	O 	0.3166	0.5523	0.7431	-0.486
Mof_H 	H 	0.2434	0.6239	0.5839	-0.06
Mof_O 	O 	0.8166	0.0523	0.7431	-0.497
Mof_H 	H 	0.7434	0.1239	0.5839	-0.061
Mof_O 	O 	0.8166	0.5523	0.2431	-0.485
Mof_H 	H 	0.7434	0.6239	0.0839	-0.064
Mof_O 	O 	0.6834	0.9477	0.2431	-0.459
Mof_H 	H 	0.7566	0.8761	0.0839	-0.06
Mof_O 	O 	0.6834	0.4477	0.7431	-0.486
Mof_H 	H 	0.7566	0.3761	0.5839	-0.057
Mof_O 	O 	0.1834	0.9477	0.7431	-0.46
Mof_H 	H 	0.2566	0.8761	0.5839	-0.056
Mof_O 	O 	0.1834	0.4477	0.2431	-0.49
Mof_H 	H 	0.2566	0.3761	0.0839	-0.068
Mof_O 	O 	0.7569	0.6834	0.0523	-0.501
Mof_H 	H 	0.9161	0.7566	0.1239	-0.054
Mof_O 	O 	0.7569	0.1834	0.5523	-0.489
Mof_H 	H 	0.9161	0.2566	0.6239	-0.052
Mof_O 	O 	0.2569	0.6834	0.5523	-0.488
Mof_H 	H 	0.4161	0.7566	0.6239	-0.057
Mof_O 	O 	0.2569	0.1834	0.0523	-0.505
Mof_H 	H 	0.4161	0.2566	0.1239	-0.065
Mof_O 	O 	0.7569	0.3166	0.9477	-0.458
Mof_H 	H 	0.9161	0.2434	0.8761	-0.048
Mof_O 	O 	0.7569	0.8166	0.4477	-0.484
Mof_H 	H 	0.9161	0.7434	0.3761	-0.049
Mof_O 	O 	0.2569	0.3166	0.4477	-0.488
Mof_H 	H 	0.4161	0.2434	0.3761	-0.06
Mof_O 	O 	0.2569	0.8166	0.9477	-0.456
Mof_H 	H 	0.4161	0.7434	0.8761	-0.053
Mof_O 	O 	0.2431	0.3166	0.0523	-0.501
Mof_H 	H 	0.0839	0.2434	0.1239	-0.071
Mof_O 	O 	0.2431	0.8166	0.5523	-0.485
Mof_H 	H 	0.0839	0.7434	0.6239	-0.064
Mof_O 	O 	0.7431	0.3166	0.5523	-0.486
Mof_H 	H 	0.5839	0.2434	0.6239	-0.06
Mof_O 	O 	0.7431	0.8166	0.0523	-0.497
Mof_H 	H 	0.5839	0.7434	0.1239	-0.061
Mof_O 	O 	0.2431	0.6834	0.9477	-0.459
Mof_H 	H 	0.0839	0.7566	0.8761	-0.06
Mof_O 	O 	0.2431	0.1834	0.4477	-0.49
Mof_H 	H 	0.0839	0.2566	0.3761	-0.068
Mof_O 	O 	0.7431	0.6834	0.4477	-0.486
Mof_H 	H 	0.5839	0.7566	0.3761	-0.057
Mof_O 	O 	0.7431	0.1834	0.9477	-0.46
Mof_H 	H 	0.5839	0.2566	0.8761	-0.056
Mof_O 	O 	0.0523	0.7569	0.6834	-0.501
Mof_H 	H 	0.1239	0.9161	0.7566	-0.054
Mof_O 	O 	0.0523	0.2569	0.1834	-0.505
Mof_H 	H 	0.1239	0.4161	0.2566	-0.065
Mof_O 	O 	0.5523	0.7569	0.1834	-0.489
Mof_H 	H 	0.6239	0.9161	0.2566	-0.052
Mof_O 	O 	0.5523	0.2569	0.6834	-0.488
Mof_H 	H 	0.6239	0.4161	0.7566	-0.057
Mof_O 	O 	0.9477	0.7569	0.3166	-0.458
Mof_H 	H 	0.8761	0.9161	0.2434	-0.048
Mof_O 	O 	0.9477	0.2569	0.8166	-0.456
Mof_H 	H 	0.8761	0.4161	0.7434	-0.053
Mof_O 	O 	0.4477	0.7569	0.8166	-0.484
Mof_H 	H 	0.3761	0.9161	0.7434	-0.049
Mof_O 	O 	0.4477	0.2569	0.3166	-0.488
Mof_H 	H 	0.3761	0.4161	0.2434	-0.06
Mof_O 	O 	0.0523	0.2431	0.3166	-0.501
Mof_H 	H 	0.1239	0.0839	0.2434	-0.071
Mof_O 	O 	0.0523	0.7431	0.8166	-0.497
Mof_H 	H 	0.1239	0.5839	0.7434	-0.061
Mof_O 	O 	0.5523	0.2431	0.8166	-0.485
Mof_H 	H 	0.6239	0.0839	0.7434	-0.064
Mof_O 	O 	0.5523	0.7431	0.3166	-0.486
Mof_H 	H 	0.6239	0.5839	0.2434	-0.06
Mof_O 	O 	0.9477	0.2431	0.6834	-0.459
Mof_H 	H 	0.8761	0.0839	0.7566	-0.06
Mof_O 	O 	0.9477	0.7431	0.1834	-0.46
Mof_H 	H 	0.8761	0.5839	0.2566	-0.056
Mof_O 	O 	0.4477	0.2431	0.1834	-0.49
Mof_H 	H 	0.3761	0.0839	0.2566	-0.068
Mof_O 	O 	0.4477	0.7431	0.6834	-0.486
Mof_H 	H 	0.3761	0.5839	0.7566	-0.057
Mof_O 	O 	0.0523	0.6834	0.2431	-0.502
Mof_H 	H 	0.1239	0.7566	0.0839	-0.069
Mof_O 	O 	0.0523	0.1834	0.7431	-0.502
Mof_H 	H 	0.1239	0.2566	0.5839	-0.065
Mof_O 	O 	0.5523	0.6834	0.7431	-0.486
Mof_H 	H 	0.6239	0.7566	0.5839	-0.057
Mof_O 	O 	0.5523	0.1834	0.2431	-0.49
Mof_H 	H 	0.6239	0.2566	0.0839	-0.067
Mof_O 	O 	0.9477	0.3166	0.2431	-0.459
Mof_H 	H 	0.8761	0.2434	0.0839	-0.063
Mof_O 	O 	0.9477	0.8166	0.7431	-0.454
Mof_H 	H 	0.8761	0.7434	0.5839	-0.052
Mof_O 	O 	0.4477	0.3166	0.7431	-0.486
Mof_H 	H 	0.3761	0.2434	0.5839	-0.06
Mof_O 	O 	0.4477	0.8166	0.2431	-0.485
Mof_H 	H 	0.3761	0.7434	0.0839	-0.064
Mof_O 	O 	0.0523	0.3166	0.7569	-0.501
Mof_H 	H 	0.1239	0.2434	0.9161	-0.056
Mof_O 	O 	0.0523	0.8166	0.2569	-0.499
Mof_H 	H 	0.1239	0.7434	0.4161	-0.061
Mof_O 	O 	0.5523	0.3166	0.2569	-0.488
Mof_H 	H 	0.6239	0.2434	0.4161	-0.06
Mof_O 	O 	0.5523	0.8166	0.7569	-0.484
Mof_H 	H 	0.6239	0.7434	0.9161	-0.049
Mof_O 	O 	0.9477	0.6834	0.7569	-0.458
Mof_H 	H 	0.8761	0.7566	0.9161	-0.045
Mof_O 	O 	0.9477	0.1834	0.2569	-0.462
Mof_H 	H 	0.8761	0.2566	0.4161	-0.056
Mof_O 	O 	0.4477	0.6834	0.2569	-0.488
Mof_H 	H 	0.3761	0.7566	0.4161	-0.057
Mof_O 	O 	0.4477	0.1834	0.7569	-0.489
Mof_H 	H 	0.3761	0.2566	0.9161	-0.052
Mof_O 	O 	0.6834	0.7569	0.9477	-0.458
Mof_H 	H 	0.7566	0.9161	0.8761	-0.045
Mof_O 	O 	0.6834	0.2569	0.4477	-0.488
Mof_H 	H 	0.7566	0.4161	0.3761	-0.057
Mof_O 	O 	0.1834	0.7569	0.4477	-0.489
Mof_H 	H 	0.2566	0.9161	0.3761	-0.052
Mof_O 	O 	0.1834	0.2569	0.9477	-0.462
Mof_H 	H 	0.2566	0.4161	0.8761	-0.056
Mof_O 	O 	0.3166	0.7569	0.0523	-0.501
Mof_H 	H 	0.2434	0.9161	0.1239	-0.056
Mof_O 	O 	0.3166	0.2569	0.5523	-0.488
Mof_H 	H 	0.2434	0.4161	0.6239	-0.06
Mof_O 	O 	0.8166	0.7569	0.5523	-0.484
Mof_H 	H 	0.7434	0.9161	0.6239	-0.049
Mof_O 	O 	0.8166	0.2569	0.0523	-0.499
Mof_H 	H 	0.7434	0.4161	0.1239	-0.061
Mof_O 	O 	0.3166	0.2431	0.9477	-0.459
Mof_H 	H 	0.2434	0.0839	0.8761	-0.063
Mof_O 	O 	0.3166	0.7431	0.4477	-0.486
Mof_H 	H 	0.2434	0.5839	0.3761	-0.06
Mof_O 	O 	0.8166	0.2431	0.4477	-0.485
Mof_H 	H 	0.7434	0.0839	0.3761	-0.064
Mof_O 	O 	0.8166	0.7431	0.9477	-0.454
Mof_H 	H 	0.7434	0.5839	0.8761	-0.052
Mof_O 	O 	0.6834	0.2431	0.0523	-0.502
Mof_H 	H 	0.7566	0.0839	0.1239	-0.069
Mof_O 	O 	0.6834	0.7431	0.5523	-0.486
Mof_H 	H 	0.7566	0.5839	0.6239	-0.057
Mof_O 	O 	0.1834	0.2431	0.5523	-0.49
Mof_H 	H 	0.2566	0.0839	0.6239	-0.067
Mof_O 	O 	0.1834	0.7431	0.0523	-0.502
Mof_H 	H 	0.2566	0.5839	0.1239	-0.065
Mof_O 	O 	0.7569	0.0523	0.3166	-0.501
Mof_H 	H 	0.9161	0.1239	0.2434	-0.056
Mof_O 	O 	0.7569	0.5523	0.8166	-0.484
Mof_H 	H 	0.9161	0.6239	0.7434	-0.049
Mof_O 	O 	0.2569	0.0523	0.8166	-0.499
Mof_H 	H 	0.4161	0.1239	0.7434	-0.061
Mof_O 	O 	0.2569	0.5523	0.3166	-0.488
Mof_H 	H 	0.4161	0.6239	0.2434	-0.06
Mof_O 	O 	0.7569	0.9477	0.6834	-0.458
Mof_H 	H 	0.9161	0.8761	0.7566	-0.045
Mof_O 	O 	0.7569	0.4477	0.1834	-0.489
Mof_H 	H 	0.9161	0.3761	0.2566	-0.052
Mof_O 	O 	0.2569	0.9477	0.1834	-0.462
Mof_H 	H 	0.4161	0.8761	0.2566	-0.056
Mof_O 	O 	0.2569	0.4477	0.6834	-0.488
Mof_H 	H 	0.4161	0.3761	0.7566	-0.057
Mof_O 	O 	0.2431	0.0523	0.6834	-0.502
Mof_H 	H 	0.0839	0.1239	0.7566	-0.069
Mof_O 	O 	0.2431	0.5523	0.1834	-0.49
Mof_H 	H 	0.0839	0.6239	0.2566	-0.067
Mof_O 	O 	0.7431	0.0523	0.1834	-0.502
Mof_H 	H 	0.5839	0.1239	0.2566	-0.065
Mof_O 	O 	0.7431	0.5523	0.6834	-0.486
Mof_H 	H 	0.5839	0.6239	0.7566	-0.057
Mof_O 	O 	0.2431	0.9477	0.3166	-0.459
Mof_H 	H 	0.0839	0.8761	0.2434	-0.063
Mof_O 	O 	0.2431	0.4477	0.8166	-0.485
Mof_H 	H 	0.0839	0.3761	0.7434	-0.064
Mof_O 	O 	0.7431	0.9477	0.8166	-0.454
Mof_H 	H 	0.5839	0.8761	0.7434	-0.052
Mof_O 	O 	0.7431	0.4477	0.3166	-0.486
Mof_H 	H 	0.5839	0.3761	0.2434	-0.06
Mof_Cu	Cu	0.2853	0	0.2853	0.886
Mof_Cu	Cu	0.2853	0.5	0.7853	0.916
Mof_Cu	Cu	0.7853	5.52942e-33	0.7853	0.889
Mof_Cu	Cu	0.7853	0.5	0.2853	0.916
Mof_Cu	Cu	0.7147	0	0.2853	0.886
Mof_Cu	Cu	0.7147	0.5	0.7853	0.916
Mof_Cu	Cu	0.2147	5.52942e-33	0.7853	0.886
Mof_Cu	Cu	0.2147	0.5	0.2853	0.913
Mof_Cu	Cu	0.7147	5.52942e-33	0.7147	0.886
Mof_Cu	Cu	0.7147	0.5	0.2147	0.914
Mof_Cu	Cu	0.2147	2.76471e-33	0.2147	0.883
Mof_Cu	Cu	0.2147	0.5	0.7147	0.914
Mof_Cu	Cu	0.2853	5.52942e-33	0.7147	0.886
Mof_Cu	Cu	0.2853	0.5	0.2147	0.913
Mof_Cu	Cu	0.7853	2.76471e-33	0.2147	0.886
Mof_Cu	Cu	0.7853	0.5	0.7147	0.916
Mof_Cu	Cu	0.2853	0.2853	-0	0.886
Mof_Cu	Cu	0.2853	0.7853	0.5	0.916
Mof_Cu	Cu	0.7853	0.2853	0.5	0.916
Mof_Cu	Cu	0.7853	0.7853	-0	0.889
Mof_Cu	Cu	0.2853	0.7147	-0	0.886
Mof_Cu	Cu	0.2853	0.2147	0.5	0.913
Mof_Cu	Cu	0.7853	0.7147	0.5	0.916
Mof_Cu	Cu	0.7853	0.2147	-0	0.886
Mof_Cu	Cu	0.7147	0.7147	-0	0.886
Mof_Cu	Cu	0.7147	0.2147	0.5	0.914
Mof_Cu	Cu	0.2147	0.7147	0.5	0.914
Mof_Cu	Cu	0.2147	0.2147	-0	0.883
Mof_Cu	Cu	0.7147	0.2853	-0	0.886
Mof_Cu	Cu	0.7147	0.7853	0.5	0.916
Mof_Cu	Cu	0.2147	0.2853	0.5	0.913
Mof_Cu	Cu	0.2147	0.7853	-0	0.886
Mof_Cu	Cu	-1.69501e-33	0.2853	0.2853	0.886
Mof_Cu	Cu	1.40032e-32	0.7853	0.7853	0.889
Mof_Cu	Cu	0.5	0.2853	0.7853	0.916
Mof_Cu	Cu	0.5	0.7853	0.2853	0.916
Mof_Cu	Cu	1.37385e-32	0.2853	0.7147	0.886
Mof_Cu	Cu	1.18638e-32	0.7853	0.2147	0.886
Mof_Cu	Cu	0.5	0.2853	0.2147	0.913
Mof_Cu	Cu	0.5	0.7853	0.7147	0.916
Mof_Cu	Cu	1.37385e-32	0.7147	0.7147	0.886
Mof_Cu	Cu	6.33442e-33	0.2147	0.2147	0.883
Mof_Cu	Cu	0.5	0.7147	0.2147	0.914
Mof_Cu	Cu	0.5	0.2147	0.7147	0.914
Mof_Cu	Cu	1.21285e-32	0.7147	0.2853	0.886
Mof_Cu	Cu	8.47382e-33	0.2147	0.7853	0.886
Mof_Cu	Cu	0.5	0.7147	0.7853	0.916
Mof_Cu	Cu	0.5	0.2147	0.2853	0.913
Mof_C 	C 	0.2968	0.9308	0.2032	0.657
Mof_C 	C 	0.3226	0.8878	0.1774	-0.884
Mof_C 	C 	0.2968	0.4308	0.7032	0.661
Mof_C 	C 	0.3226	0.3878	0.6774	-0.886
Mof_C 	C 	0.7032	0.0692	0.2032	0.658
Mof_C 	C 	0.6774	0.1122	0.1774	-0.888
Mof_C 	C 	0.7032	0.5692	0.7032	0.661
Mof_C 	C 	0.6774	0.6122	0.6774	-0.888
Mof_C 	C 	0.2032	0.5692	0.2032	0.659
Mof_C 	C 	0.1774	0.6122	0.1774	-0.886
Mof_C 	C 	0.7032	0.9308	0.7968	0.659
Mof_C 	C 	0.6774	0.8878	0.8226	-0.885
Mof_C 	C 	0.7032	0.4308	0.2968	0.661
Mof_C 	C 	0.6774	0.3878	0.3226	-0.886
Mof_C 	C 	0.2032	0.9308	0.2968	0.657
Mof_C 	C 	0.1774	0.8878	0.3226	-0.884
Mof_C 	C 	0.2968	0.0692	0.7968	0.661
Mof_C 	C 	0.3226	0.1122	0.8226	-0.887
Mof_C 	C 	0.2968	0.5692	0.2968	0.661
Mof_C 	C 	0.3226	0.6122	0.3226	-0.885
Mof_C 	C 	0.2032	0.2968	0.9308	0.657
Mof_C 	C 	0.1774	0.3226	0.8878	-0.884
Mof_C 	C 	0.2032	0.7968	0.4308	0.661
Mof_C 	C 	0.1774	0.8226	0.3878	-0.886
Mof_C 	C 	0.2032	0.7032	0.0692	0.658
Mof_C 	C 	0.1774	0.6774	0.1122	-0.888
Mof_C 	C 	0.2032	0.2032	0.5692	0.659
Mof_C 	C 	0.1774	0.1774	0.6122	-0.886
Mof_C 	C 	0.7968	0.7032	0.9308	0.659
Mof_C 	C 	0.8226	0.6774	0.8878	-0.885
Mof_C 	C 	0.7968	0.2032	0.4308	0.661
Mof_C 	C 	0.8226	0.1774	0.3878	-0.886
Mof_C 	C 	0.2968	0.2032	0.9308	0.657
Mof_C 	C 	0.3226	0.1774	0.8878	-0.884
Mof_C 	C 	0.7968	0.2968	0.0692	0.661
Mof_C 	C 	0.8226	0.3226	0.1122	-0.887
Mof_C 	C 	0.7968	0.7968	0.5692	0.663
Mof_C 	C 	0.8226	0.8226	0.6122	-0.887
Mof_C 	C 	0.2968	0.2968	0.5692	0.661
Mof_C 	C 	0.3226	0.3226	0.6122	-0.885
Mof_C 	C 	0.9308	0.2032	0.2968	0.657
Mof_C 	C 	0.8878	0.1774	0.3226	-0.884
Mof_C 	C 	0.4308	0.2032	0.7968	0.661
Mof_C 	C 	0.3878	0.1774	0.8226	-0.886
Mof_C 	C 	0.0692	0.2032	0.7032	0.658
Mof_C 	C 	0.1122	0.1774	0.6774	-0.888
Mof_C 	C 	0.5692	0.2032	0.2032	0.659
Mof_C 	C 	0.6122	0.1774	0.1774	-0.886
Mof_C 	C 	0.9308	0.7968	0.7032	0.659
Mof_C 	C 	0.8878	0.8226	0.6774	-0.885
Mof_C 	C 	0.9308	0.2968	0.2032	0.657
Mof_C 	C 	0.8878	0.3226	0.1774	-0.884
Mof_C 	C 	0.4308	0.7968	0.2032	0.661
Mof_C 	C 	0.3878	0.8226	0.1774	-0.886
Mof_C 	C 	0.0692	0.7968	0.2968	0.661
Mof_C 	C 	0.1122	0.8226	0.3226	-0.887
Mof_C 	C 	0.5692	0.7968	0.7968	0.663
Mof_C 	C 	0.6122	0.8226	0.8226	-0.887
Mof_C 	C 	0.5692	0.2968	0.2968	0.661
Mof_C 	C 	0.6122	0.3226	0.3226	-0.885
Mof_C 	C 	0.9308	0.2968	0.7968	0.659
Mof_C 	C 	0.8878	0.3226	0.8226	-0.884
Mof_C 	C 	0.4308	0.2968	0.2968	0.661
Mof_C 	C 	0.3878	0.3226	0.3226	-0.885
Mof_C 	C 	0.0692	0.7032	0.7968	0.66
Mof_C 	C 	0.1122	0.6774	0.8226	-0.888
Mof_C 	C 	0.0692	0.2032	0.2968	0.658
Mof_C 	C 	0.1122	0.1774	0.3226	-0.887
Mof_C 	C 	0.5692	0.7032	0.2968	0.661
Mof_C 	C 	0.6122	0.6774	0.3226	-0.886
Mof_C 	C 	0.9308	0.7032	0.2032	0.657
Mof_C 	C 	0.8878	0.6774	0.1774	-0.885
Mof_C 	C 	0.4308	0.7032	0.7032	0.661
Mof_C 	C 	0.3878	0.6774	0.6774	-0.887
Mof_C 	C 	0.4308	0.2032	0.2032	0.659
Mof_C 	C 	0.3878	0.1774	0.1774	-0.886
Mof_C 	C 	0.0692	0.2968	0.2032	0.658
Mof_C 	C 	0.1122	0.3226	0.1774	-0.887
Mof_C 	C 	0.5692	0.2968	0.7032	0.661
Mof_C 	C 	0.6122	0.3226	0.6774	-0.886
Mof_C 	C 	0.2968	0.2032	0.0692	0.658
Mof_C 	C 	0.3226	0.1774	0.1122	-0.887
Mof_C 	C 	0.2968	0.7032	0.5692	0.661
Mof_C 	C 	0.3226	0.6774	0.6122	-0.886
Mof_C 	C 	0.7032	0.2032	0.9308	0.657
Mof_C 	C 	0.6774	0.1774	0.8878	-0.885
Mof_C 	C 	0.7032	0.7032	0.4308	0.661
Mof_C 	C 	0.6774	0.6774	0.3878	-0.887
Mof_C 	C 	0.2032	0.2032	0.4308	0.659
Mof_C 	C 	0.1774	0.1774	0.3878	-0.886
Mof_C 	C 	0.7032	0.7968	0.0692	0.66
Mof_C 	C 	0.6774	0.8226	0.1122	-0.888
Mof_C 	C 	0.7032	0.2968	0.5692	0.661
Mof_C 	C 	0.6774	0.3226	0.6122	-0.886
Mof_C 	C 	0.2032	0.2968	0.0692	0.658
Mof_C 	C 	0.1774	0.3226	0.1122	-0.887
Mof_C 	C 	0.2968	0.7968	0.9308	0.659
Mof_C 	C 	0.3226	0.8226	0.8878	-0.884
Mof_C 	C 	0.2968	0.2968	0.4308	0.661
Mof_C 	C 	0.3226	0.3226	0.3878	-0.885
Mof_C 	C 	0.2032	0.9308	0.7032	0.657
Mof_C 	C 	0.1774	0.8878	0.6774	-0.885
Mof_C 	C 	0.2032	0.4308	0.2032	0.659
Mof_C 	C 	0.1774	0.3878	0.1774	-0.886
Mof_C 	C 	0.2032	0.0692	0.2968	0.658
Mof_C 	C 	0.1774	0.1122	0.3226	-0.887
Mof_C 	C 	0.2032	0.5692	0.7968	0.661
Mof_C 	C 	0.1774	0.6122	0.8226	-0.887
Mof_C 	C 	0.7968	0.9308	0.2968	0.659
Mof_C 	C 	0.8226	0.8878	0.3226	-0.884
Mof_C 	C 	0.7968	0.4308	0.7968	0.663
Mof_C 	C 	0.8226	0.3878	0.8226	-0.887
Mof_C 	C 	0.2968	0.4308	0.2968	0.661
Mof_C 	C 	0.3226	0.3878	0.3226	-0.885
Mof_C 	C 	0.7968	0.0692	0.7032	0.66
Mof_C 	C 	0.8226	0.1122	0.6774	-0.888
Mof_C 	C 	0.7968	0.5692	0.2032	0.661
Mof_C 	C 	0.8226	0.6122	0.1774	-0.887
Mof_C 	C 	0.2968	0.0692	0.2032	0.658
Mof_C 	C 	0.3226	0.1122	0.1774	-0.887
Mof_C 	C 	0.7032	0.0692	0.7968	0.66
Mof_C 	C 	0.6774	0.1122	0.8226	-0.888
Mof_C 	C 	0.7032	0.5692	0.2968	0.661
Mof_C 	C 	0.6774	0.6122	0.3226	-0.886
Mof_C 	C 	0.2968	0.9308	0.7968	0.659
Mof_C 	C 	0.3226	0.8878	0.8226	-0.884
Mof_C 	C 	0.2968	0.5692	0.7032	0.661
Mof_C 	C 	0.3226	0.6122	0.6774	-0.886
Mof_C 	C 	0.7032	0.9308	0.2032	0.657
Mof_C 	C 	0.6774	0.8878	0.1774	-0.885
Mof_C 	C 	0.7032	0.4308	0.7032	0.661
Mof_C 	C 	0.6774	0.3878	0.6774	-0.887
Mof_C 	C 	0.7968	0.7032	0.0692	0.66
Mof_C 	C 	0.8226	0.6774	0.1122	-0.888
Mof_C 	C 	0.7968	0.2032	0.5692	0.661
Mof_C 	C 	0.8226	0.1774	0.6122	-0.887
Mof_C 	C 	0.7968	0.2968	0.9308	0.659
Mof_C 	C 	0.8226	0.3226	0.8878	-0.884
Mof_C 	C 	0.7968	0.7968	0.4308	0.663
Mof_C 	C 	0.8226	0.8226	0.3878	-0.887
Mof_C 	C 	0.2032	0.7968	0.5692	0.661
Mof_C 	C 	0.1774	0.8226	0.6122	-0.887
Mof_C 	C 	0.2032	0.7032	0.9308	0.657
Mof_C 	C 	0.1774	0.6774	0.8878	-0.885
Mof_C 	C 	0.0692	0.7968	0.7032	0.66
Mof_C 	C 	0.1122	0.8226	0.6774	-0.888
Mof_C 	C 	0.5692	0.7968	0.2032	0.661
Mof_C 	C 	0.6122	0.8226	0.1774	-0.887
Mof_C 	C 	0.9308	0.7968	0.2968	0.659
Mof_C 	C 	0.8878	0.8226	0.3226	-0.884
Mof_C 	C 	0.4308	0.7968	0.7968	0.663
Mof_C 	C 	0.3878	0.8226	0.8226	-0.887
Mof_C 	C 	0.5692	0.2032	0.7968	0.661
Mof_C 	C 	0.6122	0.1774	0.8226	-0.887
Mof_C 	C 	0.9308	0.2032	0.7032	0.657
Mof_C 	C 	0.8878	0.1774	0.6774	-0.885
Mof_C 	C 	0.0692	0.7032	0.2032	0.658
Mof_C 	C 	0.1122	0.6774	0.1774	-0.888
Mof_C 	C 	0.5692	0.7032	0.7032	0.661
Mof_C 	C 	0.6122	0.6774	0.6774	-0.888
Mof_C 	C 	0.4308	0.2968	0.7032	0.661
Mof_C 	C 	0.3878	0.3226	0.6774	-0.886
Mof_C 	C 	0.0692	0.2968	0.7968	0.661
Mof_C 	C 	0.1122	0.3226	0.8226	-0.887
Mof_C 	C 	0.9308	0.7032	0.7968	0.659
Mof_C 	C 	0.8878	0.6774	0.8226	-0.885
Mof_C 	C 	0.4308	0.7032	0.2968	0.661
Mof_C 	C 	0.3878	0.6774	0.3226	-0.886
Mof_C 	C 	0.7032	0.7968	0.9308	0.659
Mof_C 	C 	0.6774	0.8226	0.8878	-0.885
Mof_C 	C 	0.7032	0.2968	0.4308	0.661
Mof_C 	C 	0.6774	0.3226	0.3878	-0.886
Mof_C 	C 	0.2968	0.7968	0.0692	0.661
Mof_C 	C 	0.3226	0.8226	0.1122	-0.887
Mof_C 	C 	0.2968	0.7032	0.4308	0.661
Mof_C 	C 	0.3226	0.6774	0.3878	-0.886
Mof_C 	C 	0.7032	0.2032	0.0692	0.658
Mof_C 	C 	0.6774	0.1774	0.1122	-0.888
Mof_C 	C 	0.7032	0.7032	0.5692	0.661
Mof_C 	C 	0.6774	0.6774	0.6122	-0.888
Mof_C 	C 	0.7968	0.0692	0.2968	0.661
Mof_C 	C 	0.8226	0.1122	0.3226	-0.887
Mof_C 	C 	0.7968	0.5692	0.7968	0.663
Mof_C 	C 	0.8226	0.6122	0.8226	-0.887
Mof_C 	C 	0.7968	0.9308	0.7032	0.659
Mof_C 	C 	0.8226	0.8878	0.6774	-0.885
Mof_C 	C 	0.7968	0.4308	0.2032	0.661
Mof_C 	C 	0.8226	0.3878	0.1774	-0.886
Mof_C 	C 	0.2032	0.0692	0.7032	0.658
Mof_C 	C 	0.1774	0.1122	0.6774	-0.888
Mof_C 	C 	0.2032	0.4308	0.7968	0.661
Mof_C 	C 	0.1774	0.3878	0.8226	-0.886
Mof_C 	C 	0.3013	0.8665	0.1335	1.104
Mof_H 	H 	0.2731	0.8815	0.1185	-0.808
Mof_N 	N 	0.2577	0.8909	0.1091	0.562
Mof_C 	C 	0.3013	0.3665	0.6335	1.103
Mof_H 	H 	0.2731	0.3815	0.6185	-0.806
Mof_N 	N 	0.2577	0.3909	0.6091	0.561
Mof_C 	C 	0.8013	0.8665	0.6335	1.114
Mof_H 	H 	0.7731	0.8815	0.6185	-0.812
Mof_N 	N 	0.7577	0.8909	0.6091	0.564
Mof_C 	C 	0.8013	0.3665	0.1335	1.098
Mof_H 	H 	0.7731	0.3815	0.1185	-0.801
Mof_N 	N 	0.7577	0.3909	0.1091	0.556
Mof_C 	C 	0.6987	0.1335	0.1335	1.092
Mof_H 	H 	0.7269	0.1185	0.1185	-0.802
Mof_N 	N 	0.7423	0.1091	0.1091	0.557
Mof_C 	C 	0.6987	0.6335	0.6335	1.107
Mof_H 	H 	0.7269	0.6185	0.6185	-0.81
Mof_N 	N 	0.7423	0.6091	0.6091	0.564
Mof_C 	C 	0.1987	0.1335	0.6335	1.096
Mof_H 	H 	0.2269	0.1185	0.6185	-0.806
Mof_N 	N 	0.2423	0.1091	0.6091	0.561
Mof_C 	C 	0.1987	0.6335	0.1335	1.096
Mof_H 	H 	0.2269	0.6185	0.1185	-0.806
Mof_N 	N 	0.2423	0.6091	0.1091	0.561
Mof_C 	C 	0.6987	0.8665	0.8665	1.124
Mof_H 	H 	0.7269	0.8815	0.8815	-0.823
Mof_N 	N 	0.7423	0.8909	0.8909	0.575
Mof_C 	C 	0.6987	0.3665	0.3665	1.107
Mof_H 	H 	0.7269	0.3815	0.3815	-0.812
Mof_N 	N 	0.7423	0.3909	0.3909	0.566
Mof_C 	C 	0.1987	0.8665	0.3665	1.112
Mof_H 	H 	0.2269	0.8815	0.3815	-0.817
Mof_N 	N 	0.2423	0.8909	0.3909	0.572
Mof_C 	C 	0.1987	0.3665	0.8665	1.112
Mof_H 	H 	0.2269	0.3815	0.8815	-0.817
Mof_N 	N 	0.2423	0.3909	0.8909	0.572
Mof_C 	C 	0.3013	0.1335	0.8665	1.104
Mof_H 	H 	0.2731	0.1185	0.8815	-0.808
Mof_N 	N 	0.2577	0.1091	0.8909	0.562
Mof_C 	C 	0.3013	0.6335	0.3665	1.103
Mof_H 	H 	0.2731	0.6185	0.3815	-0.806
Mof_N 	N 	0.2577	0.6091	0.3909	0.561
Mof_C 	C 	0.8013	0.1335	0.3665	1.098
Mof_H 	H 	0.7731	0.1185	0.3815	-0.801
Mof_N 	N 	0.7577	0.1091	0.3909	0.556
Mof_C 	C 	0.8013	0.6335	0.8665	1.114
Mof_H 	H 	0.7731	0.6185	0.8815	-0.812
Mof_N 	N 	0.7577	0.6091	0.8909	0.564
Mof_C 	C 	0.1335	0.3013	0.8665	1.104
Mof_H 	H 	0.1185	0.2731	0.8815	-0.808
Mof_N 	N 	0.1091	0.2577	0.8909	0.562
Mof_C 	C 	0.1335	0.8013	0.3665	1.098
Mof_H 	H 	0.1185	0.7731	0.3815	-0.801
Mof_N 	N 	0.1091	0.7577	0.3909	0.556
Mof_C 	C 	0.6335	0.3013	0.3665	1.103
Mof_H 	H 	0.6185	0.2731	0.3815	-0.806
Mof_N 	N 	0.6091	0.2577	0.3909	0.561
Mof_C 	C 	0.6335	0.8013	0.8665	1.114
Mof_H 	H 	0.6185	0.7731	0.8815	-0.812
Mof_N 	N 	0.6091	0.7577	0.8909	0.564
Mof_C 	C 	0.1335	0.6987	0.1335	1.092
Mof_H 	H 	0.1185	0.7269	0.1185	-0.802
Mof_N 	N 	0.1091	0.7423	0.1091	0.557
Mof_C 	C 	0.1335	0.1987	0.6335	1.096
Mof_H 	H 	0.1185	0.2269	0.6185	-0.806
Mof_N 	N 	0.1091	0.2423	0.6091	0.561
Mof_C 	C 	0.6335	0.6987	0.6335	1.107
Mof_H 	H 	0.6185	0.7269	0.6185	-0.81
Mof_N 	N 	0.6091	0.7423	0.6091	0.564
Mof_C 	C 	0.6335	0.1987	0.1335	1.096
Mof_H 	H 	0.6185	0.2269	0.1185	-0.806
Mof_N 	N 	0.6091	0.2423	0.1091	0.561
Mof_C 	C 	0.8665	0.6987	0.8665	1.124
Mof_H 	H 	0.8815	0.7269	0.8815	-0.823
Mof_N 	N 	0.8909	0.7423	0.8909	0.575
Mof_C 	C 	0.8665	0.1987	0.3665	1.112
Mof_H 	H 	0.8815	0.2269	0.3815	-0.817
Mof_N 	N 	0.8909	0.2423	0.3909	0.572
Mof_C 	C 	0.3665	0.6987	0.3665	1.107
Mof_H 	H 	0.3815	0.7269	0.3815	-0.812
Mof_N 	N 	0.3909	0.7423	0.3909	0.566
Mof_C 	C 	0.3665	0.1987	0.8665	1.112
Mof_H 	H 	0.3815	0.2269	0.8815	-0.817
Mof_N 	N 	0.3909	0.2423	0.8909	0.572
Mof_C 	C 	0.8665	0.3013	0.1335	1.104
Mof_H 	H 	0.8815	0.2731	0.1185	-0.808
Mof_N 	N 	0.8909	0.2577	0.1091	0.562
Mof_C 	C 	0.8665	0.8013	0.6335	1.114
Mof_H 	H 	0.8815	0.7731	0.6185	-0.812
Mof_N 	N 	0.8909	0.7577	0.6091	0.564
Mof_C 	C 	0.3665	0.3013	0.6335	1.103
Mof_H 	H 	0.3815	0.2731	0.6185	-0.806
Mof_N 	N 	0.3909	0.2577	0.6091	0.561
Mof_C 	C 	0.3665	0.8013	0.1335	1.098
Mof_H 	H 	0.3815	0.7731	0.1185	-0.801
Mof_N 	N 	0.3909	0.7577	0.1091	0.556
Mof_C 	C 	0.8665	0.1335	0.3013	1.104
Mof_H 	H 	0.8815	0.1185	0.2731	-0.808
Mof_N 	N 	0.8909	0.1091	0.2577	0.562
Mof_C 	C 	0.8665	0.6335	0.8013	1.114
Mof_H 	H 	0.8815	0.6185	0.7731	-0.812
Mof_N 	N 	0.8909	0.6091	0.7577	0.564
Mof_C 	C 	0.3665	0.1335	0.8013	1.098
Mof_H 	H 	0.3815	0.1185	0.7731	-0.801
Mof_N 	N 	0.3909	0.1091	0.7577	0.556
Mof_C 	C 	0.3665	0.6335	0.3013	1.103
Mof_H 	H 	0.3815	0.6185	0.2731	-0.806
Mof_N 	N 	0.3909	0.6091	0.2577	0.561
Mof_C 	C 	0.1335	0.1335	0.6987	1.092
Mof_H 	H 	0.1185	0.1185	0.7269	-0.802
Mof_N 	N 	0.1091	0.1091	0.7423	0.557
Mof_C 	C 	0.1335	0.6335	0.1987	1.096
Mof_H 	H 	0.1185	0.6185	0.2269	-0.806
Mof_N 	N 	0.1091	0.6091	0.2423	0.561
Mof_C 	C 	0.6335	0.1335	0.1987	1.096
Mof_H 	H 	0.6185	0.1185	0.2269	-0.806
Mof_N 	N 	0.6091	0.1091	0.2423	0.561
Mof_C 	C 	0.6335	0.6335	0.6987	1.107
Mof_H 	H 	0.6185	0.6185	0.7269	-0.81
Mof_N 	N 	0.6091	0.6091	0.7423	0.564
Mof_C 	C 	0.8665	0.8665	0.6987	1.124
Mof_H 	H 	0.8815	0.8815	0.7269	-0.823
Mof_N 	N 	0.8909	0.8909	0.7423	0.575
Mof_C 	C 	0.8665	0.3665	0.1987	1.112
Mof_H 	H 	0.8815	0.3815	0.2269	-0.817
Mof_N 	N 	0.8909	0.3909	0.2423	0.572
Mof_C 	C 	0.3665	0.8665	0.1987	1.112
Mof_H 	H 	0.3815	0.8815	0.2269	-0.817
Mof_N 	N 	0.3909	0.8909	0.2423	0.572
Mof_C 	C 	0.3665	0.3665	0.6987	1.107
Mof_H 	H 	0.3815	0.3815	0.7269	-0.812
Mof_N 	N 	0.3909	0.3909	0.7423	0.566
Mof_C 	C 	0.1335	0.8665	0.3013	1.104
Mof_H 	H 	0.1185	0.8815	0.2731	-0.808
Mof_N 	N 	0.1091	0.8909	0.2577	0.562
Mof_C 	C 	0.1335	0.3665	0.8013	1.098
Mof_H 	H 	0.1185	0.3815	0.7731	-0.801
Mof_N 	N 	0.1091	0.3909	0.7577	0.556
Mof_C 	C 	0.6335	0.8665	0.8013	1.114
Mof_H 	H 	0.6185	0.8815	0.7731	-0.812
Mof_N 	N 	0.6091	0.8909	0.7577	0.564
Mof_C 	C 	0.6335	0.3665	0.3013	1.103
Mof_H 	H 	0.6185	0.3815	0.2731	-0.806
Mof_N 	N 	0.6091	0.3909	0.2577	0.561
Mof_C 	C 	0.8665	0.3013	0.8665	1.12
Mof_H 	H 	0.8815	0.2731	0.8815	-0.818
Mof_N 	N 	0.8909	0.2577	0.8909	0.571
Mof_C 	C 	0.8665	0.8013	0.3665	1.114
Mof_H 	H 	0.8815	0.7731	0.3815	-0.812
Mof_N 	N 	0.8909	0.7577	0.3909	0.565
Mof_C 	C 	0.3665	0.3013	0.3665	1.103
Mof_H 	H 	0.3815	0.2731	0.3815	-0.807
Mof_N 	N 	0.3909	0.2577	0.3909	0.562
Mof_C 	C 	0.3665	0.8013	0.8665	1.114
Mof_H 	H 	0.3815	0.7731	0.8815	-0.812
Mof_N 	N 	0.3909	0.7577	0.8909	0.565
Mof_C 	C 	0.1335	0.6987	0.8665	1.108
Mof_H 	H 	0.1185	0.7269	0.8815	-0.813
Mof_N 	N 	0.1091	0.7423	0.8909	0.566
Mof_C 	C 	0.1335	0.1987	0.3665	1.096
Mof_H 	H 	0.1185	0.2269	0.3815	-0.807
Mof_N 	N 	0.1091	0.2423	0.3909	0.562
Mof_C 	C 	0.6335	0.6987	0.3665	1.107
Mof_H 	H 	0.6185	0.7269	0.3815	-0.811
Mof_N 	N 	0.6091	0.7423	0.3909	0.565
Mof_C 	C 	0.6335	0.1987	0.8665	1.112
Mof_H 	H 	0.6185	0.2269	0.8815	-0.817
Mof_N 	N 	0.6091	0.2423	0.8909	0.571
Mof_C 	C 	0.8665	0.6987	0.1335	1.108
Mof_H 	H 	0.8815	0.7269	0.1185	-0.813
Mof_N 	N 	0.8909	0.7423	0.1091	0.566
Mof_C 	C 	0.8665	0.1987	0.6335	1.112
Mof_H 	H 	0.8815	0.2269	0.6185	-0.817
Mof_N 	N 	0.8909	0.2423	0.6091	0.571
Mof_C 	C 	0.3665	0.6987	0.6335	1.107
Mof_H 	H 	0.3815	0.7269	0.6185	-0.811
Mof_N 	N 	0.3909	0.7423	0.6091	0.565
Mof_C 	C 	0.3665	0.1987	0.1335	1.096
Mof_H 	H 	0.3815	0.2269	0.1185	-0.807
Mof_N 	N 	0.3909	0.2423	0.1091	0.562
Mof_C 	C 	0.1335	0.3013	0.1335	1.087
Mof_H 	H 	0.1185	0.2731	0.1185	-0.797
Mof_N 	N 	0.1091	0.2577	0.1091	0.553
Mof_C 	C 	0.1335	0.8013	0.6335	1.098
Mof_H 	H 	0.1185	0.7731	0.6185	-0.801
Mof_N 	N 	0.1091	0.7577	0.6091	0.555
Mof_C 	C 	0.6335	0.3013	0.6335	1.102
Mof_H 	H 	0.6185	0.2731	0.6185	-0.805
Mof_N 	N 	0.6091	0.2577	0.6091	0.56
Mof_C 	C 	0.6335	0.8013	0.1335	1.098
Mof_H 	H 	0.6185	0.7731	0.1185	-0.801
Mof_N 	N 	0.6091	0.7577	0.1091	0.555
Mof_C 	C 	0.3013	0.1335	0.1335	1.087
Mof_H 	H 	0.2731	0.1185	0.1185	-0.797
Mof_N 	N 	0.2577	0.1091	0.1091	0.553
Mof_C 	C 	0.3013	0.6335	0.6335	1.102
Mof_H 	H 	0.2731	0.6185	0.6185	-0.805
Mof_N 	N 	0.2577	0.6091	0.6091	0.56
Mof_C 	C 	0.8013	0.1335	0.6335	1.098
Mof_H 	H 	0.7731	0.1185	0.6185	-0.801
Mof_N 	N 	0.7577	0.1091	0.6091	0.555
Mof_C 	C 	0.8013	0.6335	0.1335	1.098
Mof_H 	H 	0.7731	0.6185	0.1185	-0.801
Mof_N 	N 	0.7577	0.6091	0.1091	0.555
Mof_C 	C 	0.6987	0.1335	0.8665	1.108
Mof_H 	H 	0.7269	0.1185	0.8815	-0.813
Mof_N 	N 	0.7423	0.1091	0.8909	0.566
Mof_C 	C 	0.6987	0.6335	0.3665	1.107
Mof_H 	H 	0.7269	0.6185	0.3815	-0.811
Mof_N 	N 	0.7423	0.6091	0.3909	0.565
Mof_C 	C 	0.1987	0.1335	0.3665	1.096
Mof_H 	H 	0.2269	0.1185	0.3815	-0.807
Mof_N 	N 	0.2423	0.1091	0.3909	0.562
Mof_C 	C 	0.1987	0.6335	0.8665	1.112
Mof_H 	H 	0.2269	0.6185	0.8815	-0.817
Mof_N 	N 	0.2423	0.6091	0.8909	0.571
Mof_C 	C 	0.6987	0.8665	0.1335	1.108
Mof_H 	H 	0.7269	0.8815	0.1185	-0.813
Mof_N 	N 	0.7423	0.8909	0.1091	0.566
Mof_C 	C 	0.6987	0.3665	0.6335	1.107
Mof_H 	H 	0.7269	0.3815	0.6185	-0.811
Mof_N 	N 	0.7423	0.3909	0.6091	0.565
Mof_C 	C 	0.1987	0.8665	0.6335	1.112
Mof_H 	H 	0.2269	0.8815	0.6185	-0.817
Mof_N 	N 	0.2423	0.8909	0.6091	0.571
Mof_C 	C 	0.1987	0.3665	0.1335	1.096
Mof_H 	H 	0.2269	0.3815	0.1185	-0.807
Mof_N 	N 	0.2423	0.3909	0.1091	0.562
Mof_C 	C 	0.3013	0.8665	0.8665	1.12
Mof_H 	H 	0.2731	0.8815	0.8815	-0.818
Mof_N 	N 	0.2577	0.8909	0.8909	0.571
Mof_C 	C 	0.3013	0.3665	0.3665	1.103
Mof_H 	H 	0.2731	0.3815	0.3815	-0.807
Mof_N 	N 	0.2577	0.3909	0.3909	0.562
Mof_C 	C 	0.8013	0.8665	0.3665	1.114
Mof_H 	H 	0.7731	0.8815	0.3815	-0.812
Mof_N 	N 	0.7577	0.8909	0.3909	0.565
Mof_C 	C 	0.8013	0.3665	0.8665	1.114
Mof_H 	H 	0.7731	0.3815	0.8815	-0.812
Mof_N 	N 	0.7577	0.3909	0.8909	0.565
Mof_C 	C 	0.1335	0.8665	0.6987	1.108
Mof_H 	H 	0.1185	0.8815	0.7269	-0.813
Mof_N 	N 	0.1091	0.8909	0.7423	0.566
Mof_C 	C 	0.1335	0.3665	0.1987	1.096
Mof_H 	H 	0.1185	0.3815	0.2269	-0.807
Mof_N 	N 	0.1091	0.3909	0.2423	0.562
Mof_C 	C 	0.6335	0.8665	0.1987	1.112
Mof_H 	H 	0.6185	0.8815	0.2269	-0.817
Mof_N 	N 	0.6091	0.8909	0.2423	0.571
Mof_C 	C 	0.6335	0.3665	0.6987	1.107
Mof_H 	H 	0.6185	0.3815	0.7269	-0.811
Mof_N 	N 	0.6091	0.3909	0.7423	0.565
Mof_C 	C 	0.1335	0.1335	0.3013	1.087
Mof_H 	H 	0.1185	0.1185	0.2731	-0.797
Mof_N 	N 	0.1091	0.1091	0.2577	0.553
Mof_C 	C 	0.1335	0.6335	0.8013	1.098
Mof_H 	H 	0.1185	0.6185	0.7731	-0.801
Mof_N 	N 	0.1091	0.6091	0.7577	0.555
Mof_C 	C 	0.6335	0.1335	0.8013	1.098
Mof_H 	H 	0.6185	0.1185	0.7731	-0.801
Mof_N 	N 	0.6091	0.1091	0.7577	0.555
Mof_C 	C 	0.6335	0.6335	0.3013	1.102
Mof_H 	H 	0.6185	0.6185	0.2731	-0.805
Mof_N 	N 	0.6091	0.6091	0.2577	0.56
Mof_C 	C 	0.8665	0.8665	0.3013	1.12
Mof_H 	H 	0.8815	0.8815	0.2731	-0.818
Mof_N 	N 	0.8909	0.8909	0.2577	0.571
Mof_C 	C 	0.8665	0.3665	0.8013	1.114
Mof_H 	H 	0.8815	0.3815	0.7731	-0.812
Mof_N 	N 	0.8909	0.3909	0.7577	0.565
Mof_C 	C 	0.3665	0.8665	0.8013	1.114
Mof_H 	H 	0.3815	0.8815	0.7731	-0.812
Mof_N 	N 	0.3909	0.8909	0.7577	0.565
Mof_C 	C 	0.3665	0.3665	0.3013	1.103
Mof_H 	H 	0.3815	0.3815	0.2731	-0.807
Mof_N 	N 	0.3909	0.3909	0.2577	0.562
Mof_C 	C 	0.8665	0.1335	0.6987	1.108
Mof_H 	H 	0.8815	0.1185	0.7269	-0.813
Mof_N 	N 	0.8909	0.1091	0.7423	0.566
Mof_C 	C 	0.8665	0.6335	0.1987	1.112
Mof_H 	H 	0.8815	0.6185	0.2269	-0.817
Mof_N 	N 	0.8909	0.6091	0.2423	0.571
Mof_C 	C 	0.3665	0.1335	0.1987	1.096
Mof_H 	H 	0.3815	0.1185	0.2269	-0.807
Mof_N 	N 	0.3909	0.1091	0.2423	0.562
Mof_C 	C 	0.3665	0.6335	0.6987	1.107
Mof_H 	H 	0.3815	0.6185	0.7269	-0.811
Mof_N 	N 	0.3909	0.6091	0.7423	0.565
_end
