# CIF file generated by openbabel 3.1.0, see https://openbabel.org
data_I
_chemical_name_common 'image0'
_cell_length_a 23.911
_cell_length_b 11.8685
_cell_length_c 9.2063
_cell_angle_alpha 90
_cell_angle_beta 90.35
_cell_angle_gamma 90
_space_group_name_H-M_alt 'P 1'
_space_group_name_Hall 'P 1'
loop_
    _symmetry_equiv_pos_as_xyz
    x,y,z
loop_
    _atom_site_label
    _atom_site_type_symbol
    _atom_site_fract_x
    _atom_site_fract_y
    _atom_site_fract_z
    _atom_site_occupancy
    Cu1      Cu       0.20499    0.22769    0.42146    1.000
    N1       N        0.13981    0.16690    0.27590    1.000
    O1       O        0.23488    0.07520    0.45430    1.000
    O2       O        0.31199    0.11050    0.58470    1.000
    O3       O        0.33586    0.72610    0.89240    1.000
    O4       O        0.25811    0.75050    0.76130    1.000
    C1       C        0.27874    0.04490    0.52060    1.000
    C2       C        0.28970    0.92020    0.52470    1.000
    H1       H        0.28930    0.89150    0.42380    1.000
    H2       H        0.25850    0.88340    0.57670    1.000
    C3       C        0.34443    0.88410    0.59650    1.000
    H3       H        0.35090    0.93030    0.68450    1.000
    H4       H        0.37560    0.89840    0.52880    1.000
    C4       C        0.34438    0.75820    0.63930    1.000
    H5       H        0.32840    0.71270    0.55900    1.000
    H6       H        0.38320    0.73250    0.65710    1.000
    C5       C        0.31021    0.74230    0.77400    1.000
    C6       C        0.14393    0.06410    0.21760    1.000
    H7       H        0.17390    0.01700    0.24790    1.000
    C7       C        0.10673    0.02320    0.11570    1.000
    H8       H        0.11190    0.95030    0.07550    1.000
    C8       C        0.06149    0.08920    0.07180    1.000
    C9       C        0.05680    0.19480    0.13240    1.000
    H9       H        0.02670    0.24290    0.10540    1.000
    C10      C        0.09615    0.23030    0.23300    1.000
    H10      H        0.09210    0.30330    0.27390    1.000
    C11      C        0.01901    0.04440    0.96490    1.000
    H11      H        0.03860    0.01040    0.88130    1.000
    H12      H        0.99580    0.10750    0.92810    1.000
    Cu2      Cu       0.70499    0.72769    0.42146    1.000
    N2       N        0.63981    0.66690    0.27590    1.000
    O5       O        0.73488    0.57520    0.45430    1.000
    O6       O        0.81199    0.61050    0.58470    1.000
    O7       O        0.83586    0.22610    0.89240    1.000
    O8       O        0.75811    0.25050    0.76130    1.000
    C12      C        0.77874    0.54490    0.52060    1.000
    C13      C        0.78970    0.42020    0.52470    1.000
    H13      H        0.78930    0.39150    0.42380    1.000
    H14      H        0.75850    0.38340    0.57670    1.000
    C14      C        0.84443    0.38410    0.59650    1.000
    H15      H        0.85090    0.43030    0.68450    1.000
    H16      H        0.87560    0.39840    0.52880    1.000
    C15      C        0.84438    0.25820    0.63930    1.000
    H17      H        0.82840    0.21270    0.55900    1.000
    H18      H        0.88320    0.23250    0.65710    1.000
    C16      C        0.81021    0.24230    0.77400    1.000
    C17      C        0.64393    0.56410    0.21760    1.000
    H19      H        0.67390    0.51700    0.24790    1.000
    C18      C        0.60673    0.52320    0.11570    1.000
    H20      H        0.61190    0.45030    0.07550    1.000
    C19      C        0.56149    0.58920    0.07180    1.000
    C20      C        0.55680    0.69480    0.13240    1.000
    H21      H        0.52670    0.74290    0.10540    1.000
    C21      C        0.59615    0.73030    0.23300    1.000
    H22      H        0.59210    0.80330    0.27390    1.000
    C22      C        0.51901    0.54440    0.96490    1.000
    H23      H        0.53860    0.51040    0.88130    1.000
    H24      H        0.49580    0.60750    0.92810    1.000
    Cu3      Cu       0.79501    0.22769    0.07854    1.000
    N3       N        0.86019    0.16690    0.22410    1.000
    O9       O        0.76512    0.07520    0.04570    1.000
    O10      O        0.68801    0.11050    0.91530    1.000
    O11      O        0.66414    0.72610    0.60760    1.000
    O12      O        0.74189    0.75050    0.73870    1.000
    C23      C        0.72126    0.04490    0.97940    1.000
    C24      C        0.71030    0.92020    0.97530    1.000
    H25      H        0.71070    0.89150    0.07620    1.000
    H26      H        0.74150    0.88340    0.92330    1.000
    C25      C        0.65557    0.88410    0.90350    1.000
    H27      H        0.64910    0.93030    0.81550    1.000
    H28      H        0.62440    0.89840    0.97120    1.000
    C26      C        0.65562    0.75820    0.86070    1.000
    H29      H        0.67160    0.71270    0.94100    1.000
    H30      H        0.61680    0.73250    0.84290    1.000
    C27      C        0.68979    0.74230    0.72600    1.000
    C28      C        0.85607    0.06410    0.28240    1.000
    H31      H        0.82610    0.01700    0.25210    1.000
    C29      C        0.89327    0.02320    0.38430    1.000
    H32      H        0.88810    0.95030    0.42450    1.000
    C30      C        0.93851    0.08920    0.42820    1.000
    C31      C        0.94320    0.19480    0.36760    1.000
    H33      H        0.97330    0.24290    0.39460    1.000
    C32      C        0.90385    0.23030    0.26700    1.000
    H34      H        0.90790    0.30330    0.22610    1.000
    C33      C        0.98099    0.04440    0.53510    1.000
    H35      H        0.96140    0.01040    0.61870    1.000
    H36      H        0.00420    0.10750    0.57190    1.000
    Cu4      Cu       0.29501    0.72769    0.07854    1.000
    N4       N        0.36019    0.66690    0.22410    1.000
    O13      O        0.26512    0.57520    0.04570    1.000
    O14      O        0.18801    0.61050    0.91530    1.000
    O15      O        0.16414    0.22610    0.60760    1.000
    O16      O        0.24189    0.25050    0.73870    1.000
    C34      C        0.22126    0.54490    0.97940    1.000
    C35      C        0.21030    0.42020    0.97530    1.000
    H37      H        0.21070    0.39150    0.07620    1.000
    H38      H        0.24150    0.38340    0.92330    1.000
    C36      C        0.15557    0.38410    0.90350    1.000
    H39      H        0.14910    0.43030    0.81550    1.000
    H40      H        0.12440    0.39840    0.97120    1.000
    C37      C        0.15562    0.25820    0.86070    1.000
    H41      H        0.17160    0.21270    0.94100    1.000
    H42      H        0.11680    0.23250    0.84290    1.000
    C38      C        0.18979    0.24230    0.72600    1.000
    C39      C        0.35607    0.56410    0.28240    1.000
    H43      H        0.32610    0.51700    0.25210    1.000
    C40      C        0.39327    0.52320    0.38430    1.000
    H44      H        0.38810    0.45030    0.42450    1.000
    C41      C        0.43851    0.58920    0.42820    1.000
    C42      C        0.44320    0.69480    0.36760    1.000
    H45      H        0.47330    0.74290    0.39460    1.000
    C43      C        0.40385    0.73030    0.26700    1.000
    H46      H        0.40790    0.80330    0.22610    1.000
    C44      C        0.48099    0.54440    0.53510    1.000
    H47      H        0.46140    0.51040    0.61870    1.000
    H48      H        0.50420    0.60750    0.57190    1.000
    Cu5      Cu       0.79501    0.77231    0.57854    1.000
    N5       N        0.86019    0.83310    0.72410    1.000
    O17      O        0.76512    0.92480    0.54570    1.000
    O18      O        0.68801    0.88950    0.41530    1.000
    O19      O        0.66414    0.27390    0.10760    1.000
    O20      O        0.74189    0.24950    0.23870    1.000
    C45      C        0.72126    0.95510    0.47940    1.000
    C46      C        0.71030    0.07980    0.47530    1.000
    H49      H        0.71070    0.10850    0.57620    1.000
    H50      H        0.74150    0.11660    0.42330    1.000
    C47      C        0.65557    0.11590    0.40350    1.000
    H51      H        0.64910    0.06970    0.31550    1.000
    H52      H        0.62440    0.10160    0.47120    1.000
    C48      C        0.65562    0.24180    0.36070    1.000
    H53      H        0.67160    0.28730    0.44100    1.000
    H54      H        0.61680    0.26750    0.34290    1.000
    C49      C        0.68979    0.25770    0.22600    1.000
    C50      C        0.85607    0.93590    0.78240    1.000
    H55      H        0.82610    0.98300    0.75210    1.000
    C51      C        0.89327    0.97680    0.88430    1.000
    H56      H        0.88810    0.04970    0.92450    1.000
    C52      C        0.93851    0.91080    0.92820    1.000
    C53      C        0.94320    0.80520    0.86760    1.000
    H57      H        0.97330    0.75710    0.89460    1.000
    C54      C        0.90385    0.76970    0.76700    1.000
    H58      H        0.90790    0.69670    0.72610    1.000
    C55      C        0.98099    0.95560    0.03510    1.000
    H59      H        0.96140    0.98960    0.11870    1.000
    H60      H        0.00420    0.89250    0.07190    1.000
    Cu6      Cu       0.29501    0.27231    0.57854    1.000
    N6       N        0.36019    0.33310    0.72410    1.000
    O21      O        0.26512    0.42480    0.54570    1.000
    O22      O        0.18801    0.38950    0.41530    1.000
    O23      O        0.16414    0.77390    0.10760    1.000
    O24      O        0.24189    0.74950    0.23870    1.000
    C56      C        0.22126    0.45510    0.47940    1.000
    C57      C        0.21030    0.57980    0.47530    1.000
    H61      H        0.21070    0.60850    0.57620    1.000
    H62      H        0.24150    0.61660    0.42330    1.000
    C58      C        0.15557    0.61590    0.40350    1.000
    H63      H        0.14910    0.56970    0.31550    1.000
    H64      H        0.12440    0.60160    0.47120    1.000
    C59      C        0.15562    0.74180    0.36070    1.000
    H65      H        0.17160    0.78730    0.44100    1.000
    H66      H        0.11680    0.76750    0.34290    1.000
    C60      C        0.18979    0.75770    0.22600    1.000
    C61      C        0.35607    0.43590    0.78240    1.000
    H67      H        0.32610    0.48300    0.75210    1.000
    C62      C        0.39327    0.47680    0.88430    1.000
    H68      H        0.38810    0.54970    0.92450    1.000
    C63      C        0.43851    0.41080    0.92820    1.000
    C64      C        0.44320    0.30520    0.86760    1.000
    H69      H        0.47330    0.25710    0.89460    1.000
    C65      C        0.40385    0.26970    0.76700    1.000
    H70      H        0.40790    0.19670    0.72610    1.000
    C66      C        0.48099    0.45560    0.03510    1.000
    H71      H        0.46140    0.48960    0.11870    1.000
    H72      H        0.50420    0.39250    0.07190    1.000
    Cu7      Cu       0.20499    0.77231    0.92146    1.000
    N7       N        0.13981    0.83310    0.77590    1.000
    O25      O        0.23488    0.92480    0.95430    1.000
    O26      O        0.31199    0.88950    0.08470    1.000
    O27      O        0.33586    0.27390    0.39240    1.000
    O28      O        0.25811    0.24950    0.26130    1.000
    C67      C        0.27874    0.95510    0.02060    1.000
    C68      C        0.28970    0.07980    0.02470    1.000
    H73      H        0.28930    0.10850    0.92380    1.000
    H74      H        0.25850    0.11660    0.07670    1.000
    C69      C        0.34443    0.11590    0.09650    1.000
    H75      H        0.35090    0.06970    0.18450    1.000
    H76      H        0.37560    0.10160    0.02880    1.000
    C70      C        0.34438    0.24180    0.13930    1.000
    H77      H        0.32840    0.28730    0.05900    1.000
    H78      H        0.38320    0.26750    0.15710    1.000
    C71      C        0.31021    0.25770    0.27400    1.000
    C72      C        0.14393    0.93590    0.71760    1.000
    H79      H        0.17390    0.98300    0.74790    1.000
    C73      C        0.10673    0.97680    0.61570    1.000
    H80      H        0.11190    0.04970    0.57550    1.000
    C74      C        0.06149    0.91080    0.57180    1.000
    C75      C        0.05680    0.80520    0.63240    1.000
    H81      H        0.02670    0.75710    0.60540    1.000
    C76      C        0.09615    0.76970    0.73300    1.000
    H82      H        0.09210    0.69670    0.77390    1.000
    C77      C        0.01901    0.95560    0.46490    1.000
    H83      H        0.03860    0.98960    0.38130    1.000
    H84      H        0.99580    0.89250    0.42810    1.000
    Cu8      Cu       0.70499    0.27231    0.92146    1.000
    N8       N        0.63981    0.33310    0.77590    1.000
    O29      O        0.73488    0.42480    0.95430    1.000
    O30      O        0.81199    0.38950    0.08470    1.000
    O31      O        0.83586    0.77390    0.39240    1.000
    O32      O        0.75811    0.74950    0.26130    1.000
    C78      C        0.77874    0.45510    0.02060    1.000
    C79      C        0.78970    0.57980    0.02470    1.000
    H85      H        0.78930    0.60850    0.92380    1.000
    H86      H        0.75850    0.61660    0.07670    1.000
    C80      C        0.84443    0.61590    0.09650    1.000
    H87      H        0.85090    0.56970    0.18450    1.000
    H88      H        0.87560    0.60160    0.02880    1.000
    C81      C        0.84438    0.74180    0.13930    1.000
    H89      H        0.82840    0.78730    0.05900    1.000
    H90      H        0.88320    0.76750    0.15710    1.000
    C82      C        0.81021    0.75770    0.27400    1.000
    C83      C        0.64393    0.43590    0.71760    1.000
    H91      H        0.67390    0.48300    0.74790    1.000
    C84      C        0.60673    0.47680    0.61570    1.000
    H92      H        0.61190    0.54970    0.57550    1.000
    C85      C        0.56149    0.41080    0.57180    1.000
    C86      C        0.55680    0.30520    0.63240    1.000
    H93      H        0.52670    0.25710    0.60540    1.000
    C87      C        0.59615    0.26970    0.73300    1.000
    H94      H        0.59210    0.19670    0.77390    1.000
    C88      C        0.51901    0.45560    0.46490    1.000
    H95      H        0.53860    0.48960    0.38130    1.000
    H96      H        0.49580    0.39250    0.42810    1.000
