# CIF file generated by openbabel 3.1.0, see https://openbabel.org
data_I
_chemical_name_common 'image0'
_cell_length_a 15.4272
_cell_length_b 29.416
_cell_length_c 16.356
_cell_angle_alpha 90
_cell_angle_beta 94.595
_cell_angle_gamma 90
_space_group_name_H-M_alt 'P 1'
_space_group_name_Hall 'P 1'
loop_
    _symmetry_equiv_pos_as_xyz
    x,y,z
loop_
    _atom_site_label
    _atom_site_type_symbol
    _atom_site_fract_x
    _atom_site_fract_y
    _atom_site_fract_z
    _atom_site_occupancy
    Zn1      Zn       0.28095    0.15656    0.32783    1.000
    Zn2      Zn       0.27459    0.48553    0.79747    1.000
    O1       O        0.45480    0.20908    0.32010    1.000
    O2       O        0.31824    0.21801    0.35085    1.000
    O3       O        0.66030    0.33478    0.35250    1.000
    O4       O        0.60820    0.40551    0.34690    1.000
    O5       O        0.22792    0.36718    0.28459    1.000
    O6       O        0.10714    0.34235    0.33872    1.000
    O7       O        0.36760    0.47806    0.64480    1.000
    O8       O        0.25640    0.44726    0.70260    1.000
    O9       O        0.86780    0.42186    0.63580    1.000
    O10      O        0.83220    0.49431    0.65300    1.000
    O11      O        0.05440    0.60786    0.68530    1.000
    O12      O        0.16978    0.60370    0.61148    1.000
    O13      O        0.29390    0.54884    0.75660    1.000
    O14      O        0.36150    0.45910    0.87360    1.000
    C1       C        0.39370    0.23223    0.34240    1.000
    C2       C        0.49410    0.29915    0.35140    1.000
    H1       H        0.53770    0.28050    0.33070    1.000
    C3       C        0.51140    0.34428    0.36940    1.000
    C4       C        0.59980    0.36369    0.35550    1.000
    C5       C        0.44790    0.37196    0.39970    1.000
    H2       H        0.46000    0.40310    0.41100    1.000
    C6       C        0.36700    0.35407    0.41350    1.000
    C7       C        0.34880    0.30846    0.39360    1.000
    H3       H        0.29290    0.29620    0.40080    1.000
    C8       C        0.41290    0.28106    0.36340    1.000
    C9       C        0.30070    0.38205    0.45090    1.000
    C10      C        0.21290    0.38270    0.42320    1.000
    C11      C        0.17860    0.36170    0.34340    1.000
    C12      C        0.15370    0.40792    0.46490    1.000
    H4       H        0.09390    0.40720    0.44570    1.000
    C13      C        0.17910    0.43386    0.53330    1.000
    C14      C        0.26720    0.43243    0.56290    1.000
    C15      C        0.32630    0.40701    0.52170    1.000
    H5       H        0.38570    0.40660    0.54230    1.000
    C16      C        0.29990    0.45458    0.64200    1.000
    C17      C        0.11640    0.46434    0.57020    1.000
    C18      C        0.03430    0.44870    0.58750    1.000
    H6       H        0.01780    0.41820    0.57510    1.000
    C19      C        0.97630    0.47795    0.62300    1.000
    C20      C        0.88630    0.46328    0.63840    1.000
    C21      C        0.99970    0.52251    0.64080    1.000
    H7       H        0.96070    0.54200    0.66620    1.000
    C22      C        0.08040    0.53884    0.62160    1.000
    C23      C        0.10280    0.58700    0.64020    1.000
    C24      C        0.13810    0.51021    0.58550    1.000
    H8       H        0.19240    0.52170    0.57110    1.000
    H9       H        0.35140    0.55350    0.77790    1.000
    H10      H        0.27630    0.57790    0.76040    1.000
    Zn3      Zn       0.38035    0.49318    0.77167    1.000
    O15      O        0.39360    0.48500    0.85020    1.000
    Zn4      Zn       0.78095    0.65656    0.82783    1.000
    Zn5      Zn       0.77459    0.98553    0.29747    1.000
    O16      O        0.95480    0.70908    0.82010    1.000
    O17      O        0.81824    0.71801    0.85085    1.000
    O18      O        0.16030    0.83478    0.85250    1.000
    O19      O        0.10820    0.90551    0.84690    1.000
    O20      O        0.72792    0.86718    0.78459    1.000
    O21      O        0.60714    0.84235    0.83872    1.000
    O22      O        0.86760    0.97806    0.14480    1.000
    O23      O        0.75640    0.94726    0.20260    1.000
    O24      O        0.36780    0.92186    0.13580    1.000
    O25      O        0.33220    0.99431    0.15300    1.000
    O26      O        0.55440    0.10786    0.18530    1.000
    O27      O        0.66978    0.10370    0.11148    1.000
    O28      O        0.79390    0.04884    0.25660    1.000
    O29      O        0.86150    0.95910    0.37360    1.000
    C25      C        0.89370    0.73223    0.84240    1.000
    C26      C        0.99410    0.79915    0.85140    1.000
    H11      H        0.03770    0.78050    0.83070    1.000
    C27      C        0.01140    0.84428    0.86940    1.000
    C28      C        0.09980    0.86369    0.85550    1.000
    C29      C        0.94790    0.87196    0.89970    1.000
    H12      H        0.96000    0.90310    0.91100    1.000
    C30      C        0.86700    0.85407    0.91350    1.000
    C31      C        0.84880    0.80846    0.89360    1.000
    H13      H        0.79290    0.79620    0.90080    1.000
    C32      C        0.91290    0.78106    0.86340    1.000
    C33      C        0.80070    0.88205    0.95090    1.000
    C34      C        0.71290    0.88270    0.92320    1.000
    C35      C        0.67860    0.86170    0.84340    1.000
    C36      C        0.65370    0.90792    0.96490    1.000
    H14      H        0.59390    0.90720    0.94570    1.000
    C37      C        0.67910    0.93386    0.03330    1.000
    C38      C        0.76720    0.93243    0.06290    1.000
    C39      C        0.82630    0.90701    0.02170    1.000
    H15      H        0.88570    0.90660    0.04230    1.000
    C40      C        0.79990    0.95458    0.14200    1.000
    C41      C        0.61640    0.96434    0.07020    1.000
    C42      C        0.53430    0.94870    0.08750    1.000
    H16      H        0.51780    0.91820    0.07510    1.000
    C43      C        0.47630    0.97795    0.12300    1.000
    C44      C        0.38630    0.96328    0.13840    1.000
    C45      C        0.49970    0.02251    0.14080    1.000
    H17      H        0.46070    0.04200    0.16620    1.000
    C46      C        0.58040    0.03884    0.12160    1.000
    C47      C        0.60280    0.08700    0.14020    1.000
    C48      C        0.63810    0.01021    0.08550    1.000
    H18      H        0.69240    0.02170    0.07110    1.000
    H19      H        0.85140    0.05350    0.27790    1.000
    H20      H        0.77630    0.07790    0.26040    1.000
    Zn6      Zn       0.88035    0.99318    0.27167    1.000
    O30      O        0.89360    0.98500    0.35020    1.000
    Zn7      Zn       0.71905    0.15656    0.17217    1.000
    Zn8      Zn       0.72541    0.48553    0.70253    1.000
    O31      O        0.54520    0.20908    0.17990    1.000
    O32      O        0.68176    0.21801    0.14915    1.000
    O33      O        0.33970    0.33478    0.14750    1.000
    O34      O        0.39180    0.40551    0.15310    1.000
    O35      O        0.77208    0.36718    0.21541    1.000
    O36      O        0.89286    0.34235    0.16128    1.000
    O37      O        0.63240    0.47806    0.85520    1.000
    O38      O        0.74360    0.44726    0.79740    1.000
    O39      O        0.13220    0.42186    0.86420    1.000
    O40      O        0.16780    0.49431    0.84700    1.000
    O41      O        0.94560    0.60786    0.81470    1.000
    O42      O        0.83022    0.60370    0.88852    1.000
    O43      O        0.70610    0.54884    0.74340    1.000
    O44      O        0.63850    0.45910    0.62640    1.000
    C49      C        0.60630    0.23223    0.15760    1.000
    C50      C        0.50590    0.29915    0.14860    1.000
    H21      H        0.46230    0.28050    0.16930    1.000
    C51      C        0.48860    0.34428    0.13060    1.000
    C52      C        0.40020    0.36369    0.14450    1.000
    C53      C        0.55210    0.37196    0.10030    1.000
    H22      H        0.54000    0.40310    0.08900    1.000
    C54      C        0.63300    0.35407    0.08650    1.000
    C55      C        0.65120    0.30846    0.10640    1.000
    H23      H        0.70710    0.29620    0.09920    1.000
    C56      C        0.58710    0.28106    0.13660    1.000
    C57      C        0.69930    0.38205    0.04910    1.000
    C58      C        0.78710    0.38270    0.07680    1.000
    C59      C        0.82140    0.36170    0.15660    1.000
    C60      C        0.84630    0.40792    0.03510    1.000
    H24      H        0.90610    0.40720    0.05430    1.000
    C61      C        0.82090    0.43386    0.96670    1.000
    C62      C        0.73280    0.43243    0.93710    1.000
    C63      C        0.67370    0.40701    0.97830    1.000
    H25      H        0.61430    0.40660    0.95770    1.000
    C64      C        0.70010    0.45458    0.85800    1.000
    C65      C        0.88360    0.46434    0.92980    1.000
    C66      C        0.96570    0.44870    0.91250    1.000
    H26      H        0.98220    0.41820    0.92490    1.000
    C67      C        0.02370    0.47795    0.87700    1.000
    C68      C        0.11370    0.46328    0.86160    1.000
    C69      C        0.00030    0.52251    0.85920    1.000
    H27      H        0.03930    0.54200    0.83380    1.000
    C70      C        0.91960    0.53884    0.87840    1.000
    C71      C        0.89720    0.58700    0.85980    1.000
    C72      C        0.86190    0.51021    0.91450    1.000
    H28      H        0.80760    0.52170    0.92890    1.000
    H29      H        0.64860    0.55350    0.72210    1.000
    H30      H        0.72370    0.57790    0.73960    1.000
    Zn9      Zn       0.61965    0.49318    0.72833    1.000
    O45      O        0.60640    0.48500    0.64980    1.000
    Zn10     Zn       0.21905    0.65656    0.67217    1.000
    Zn11     Zn       0.22541    0.98553    0.20253    1.000
    O46      O        0.04520    0.70908    0.67990    1.000
    O47      O        0.18176    0.71801    0.64915    1.000
    O48      O        0.83970    0.83478    0.64750    1.000
    O49      O        0.89180    0.90551    0.65310    1.000
    O50      O        0.27208    0.86718    0.71541    1.000
    O51      O        0.39286    0.84235    0.66128    1.000
    O52      O        0.13240    0.97806    0.35520    1.000
    O53      O        0.24360    0.94726    0.29740    1.000
    O54      O        0.63220    0.92186    0.36420    1.000
    O55      O        0.66780    0.99431    0.34700    1.000
    O56      O        0.44560    0.10786    0.31470    1.000
    O57      O        0.33022    0.10370    0.38852    1.000
    O58      O        0.20610    0.04884    0.24340    1.000
    O59      O        0.13850    0.95910    0.12640    1.000
    C73      C        0.10630    0.73223    0.65760    1.000
    C74      C        0.00590    0.79915    0.64860    1.000
    H31      H        0.96230    0.78050    0.66930    1.000
    C75      C        0.98860    0.84428    0.63060    1.000
    C76      C        0.90020    0.86369    0.64450    1.000
    C77      C        0.05210    0.87196    0.60030    1.000
    H32      H        0.04000    0.90310    0.58900    1.000
    C78      C        0.13300    0.85407    0.58650    1.000
    C79      C        0.15120    0.80846    0.60640    1.000
    H33      H        0.20710    0.79620    0.59920    1.000
    C80      C        0.08710    0.78106    0.63660    1.000
    C81      C        0.19930    0.88205    0.54910    1.000
    C82      C        0.28710    0.88270    0.57680    1.000
    C83      C        0.32140    0.86170    0.65660    1.000
    C84      C        0.34630    0.90792    0.53510    1.000
    H34      H        0.40610    0.90720    0.55430    1.000
    C85      C        0.32090    0.93386    0.46670    1.000
    C86      C        0.23280    0.93243    0.43710    1.000
    C87      C        0.17370    0.90701    0.47830    1.000
    H35      H        0.11430    0.90660    0.45770    1.000
    C88      C        0.20010    0.95458    0.35800    1.000
    C89      C        0.38360    0.96434    0.42980    1.000
    C90      C        0.46570    0.94870    0.41250    1.000
    H36      H        0.48220    0.91820    0.42490    1.000
    C91      C        0.52370    0.97795    0.37700    1.000
    C92      C        0.61370    0.96328    0.36160    1.000
    C93      C        0.50030    0.02251    0.35920    1.000
    H37      H        0.53930    0.04200    0.33380    1.000
    C94      C        0.41960    0.03884    0.37840    1.000
    C95      C        0.39720    0.08700    0.35980    1.000
    C96      C        0.36190    0.01021    0.41450    1.000
    H38      H        0.30760    0.02170    0.42890    1.000
    H39      H        0.14860    0.05350    0.22210    1.000
    H40      H        0.22370    0.07790    0.23960    1.000
    Zn12     Zn       0.11965    0.99318    0.22833    1.000
    O60      O        0.10640    0.98500    0.14980    1.000
    Zn13     Zn       0.71905    0.84344    0.67217    1.000
    Zn14     Zn       0.72541    0.51447    0.20253    1.000
    O61      O        0.54520    0.79092    0.67990    1.000
    O62      O        0.68176    0.78199    0.64915    1.000
    O63      O        0.33970    0.66522    0.64750    1.000
    O64      O        0.39180    0.59449    0.65310    1.000
    O65      O        0.77208    0.63282    0.71541    1.000
    O66      O        0.89286    0.65765    0.66128    1.000
    O67      O        0.63240    0.52194    0.35520    1.000
    O68      O        0.74360    0.55274    0.29740    1.000
    O69      O        0.13220    0.57814    0.36420    1.000
    O70      O        0.16780    0.50569    0.34700    1.000
    O71      O        0.94560    0.39214    0.31470    1.000
    O72      O        0.83022    0.39630    0.38852    1.000
    O73      O        0.70610    0.45116    0.24340    1.000
    O74      O        0.63850    0.54090    0.12640    1.000
    C97      C        0.60630    0.76777    0.65760    1.000
    C98      C        0.50590    0.70085    0.64860    1.000
    H41      H        0.46230    0.71950    0.66930    1.000
    C99      C        0.48860    0.65572    0.63060    1.000
    C100     C        0.40020    0.63631    0.64450    1.000
    C101     C        0.55210    0.62804    0.60030    1.000
    H42      H        0.54000    0.59690    0.58900    1.000
    C102     C        0.63300    0.64593    0.58650    1.000
    C103     C        0.65120    0.69154    0.60640    1.000
    H43      H        0.70710    0.70380    0.59920    1.000
    C104     C        0.58710    0.71894    0.63660    1.000
    C105     C        0.69930    0.61795    0.54910    1.000
    C106     C        0.78710    0.61730    0.57680    1.000
    C107     C        0.82140    0.63830    0.65660    1.000
    C108     C        0.84630    0.59208    0.53510    1.000
    H44      H        0.90610    0.59280    0.55430    1.000
    C109     C        0.82090    0.56614    0.46670    1.000
    C110     C        0.73280    0.56757    0.43710    1.000
    C111     C        0.67370    0.59299    0.47830    1.000
    H45      H        0.61430    0.59340    0.45770    1.000
    C112     C        0.70010    0.54542    0.35800    1.000
    C113     C        0.88360    0.53566    0.42980    1.000
    C114     C        0.96570    0.55130    0.41250    1.000
    H46      H        0.98220    0.58180    0.42490    1.000
    C115     C        0.02370    0.52205    0.37700    1.000
    C116     C        0.11370    0.53672    0.36160    1.000
    C117     C        0.00030    0.47749    0.35920    1.000
    H47      H        0.03930    0.45800    0.33380    1.000
    C118     C        0.91960    0.46116    0.37840    1.000
    C119     C        0.89720    0.41300    0.35980    1.000
    C120     C        0.86190    0.48979    0.41450    1.000
    H48      H        0.80760    0.47830    0.42890    1.000
    H49      H        0.64860    0.44650    0.22210    1.000
    H50      H        0.72370    0.42210    0.23960    1.000
    Zn15     Zn       0.61965    0.50682    0.22833    1.000
    O75      O        0.60640    0.51500    0.14980    1.000
    Zn16     Zn       0.21905    0.34344    0.17217    1.000
    Zn17     Zn       0.22541    0.01447    0.70253    1.000
    O76      O        0.04520    0.29092    0.17990    1.000
    O77      O        0.18176    0.28199    0.14915    1.000
    O78      O        0.83970    0.16522    0.14750    1.000
    O79      O        0.89180    0.09449    0.15310    1.000
    O80      O        0.27208    0.13282    0.21541    1.000
    O81      O        0.39286    0.15765    0.16128    1.000
    O82      O        0.13240    0.02194    0.85520    1.000
    O83      O        0.24360    0.05274    0.79740    1.000
    O84      O        0.63220    0.07814    0.86420    1.000
    O85      O        0.66780    0.00569    0.84700    1.000
    O86      O        0.44560    0.89214    0.81470    1.000
    O87      O        0.33022    0.89630    0.88852    1.000
    O88      O        0.20610    0.95116    0.74340    1.000
    O89      O        0.13850    0.04090    0.62640    1.000
    C121     C        0.10630    0.26777    0.15760    1.000
    C122     C        0.00590    0.20085    0.14860    1.000
    H51      H        0.96230    0.21950    0.16930    1.000
    C123     C        0.98860    0.15572    0.13060    1.000
    C124     C        0.90020    0.13631    0.14450    1.000
    C125     C        0.05210    0.12804    0.10030    1.000
    H52      H        0.04000    0.09690    0.08900    1.000
    C126     C        0.13300    0.14593    0.08650    1.000
    C127     C        0.15120    0.19154    0.10640    1.000
    H53      H        0.20710    0.20380    0.09920    1.000
    C128     C        0.08710    0.21894    0.13660    1.000
    C129     C        0.19930    0.11795    0.04910    1.000
    C130     C        0.28710    0.11730    0.07680    1.000
    C131     C        0.32140    0.13830    0.15660    1.000
    C132     C        0.34630    0.09208    0.03510    1.000
    H54      H        0.40610    0.09280    0.05430    1.000
    C133     C        0.32090    0.06614    0.96670    1.000
    C134     C        0.23280    0.06757    0.93710    1.000
    C135     C        0.17370    0.09299    0.97830    1.000
    H55      H        0.11430    0.09340    0.95770    1.000
    C136     C        0.20010    0.04542    0.85800    1.000
    C137     C        0.38360    0.03566    0.92980    1.000
    C138     C        0.46570    0.05130    0.91250    1.000
    H56      H        0.48220    0.08180    0.92490    1.000
    C139     C        0.52370    0.02205    0.87700    1.000
    C140     C        0.61370    0.03672    0.86160    1.000
    C141     C        0.50030    0.97749    0.85920    1.000
    H57      H        0.53930    0.95800    0.83380    1.000
    C142     C        0.41960    0.96116    0.87840    1.000
    C143     C        0.39720    0.91300    0.85980    1.000
    C144     C        0.36190    0.98979    0.91450    1.000
    H58      H        0.30760    0.97830    0.92890    1.000
    H59      H        0.14860    0.94650    0.72210    1.000
    H60      H        0.22370    0.92210    0.73960    1.000
    Zn18     Zn       0.11965    0.00682    0.72833    1.000
    O90      O        0.10640    0.01500    0.64980    1.000
    Zn19     Zn       0.28095    0.84344    0.82783    1.000
    Zn20     Zn       0.27459    0.51447    0.29747    1.000
    O91      O        0.45480    0.79092    0.82010    1.000
    O92      O        0.31824    0.78199    0.85085    1.000
    O93      O        0.66030    0.66522    0.85250    1.000
    O94      O        0.60820    0.59449    0.84690    1.000
    O95      O        0.22792    0.63282    0.78459    1.000
    O96      O        0.10714    0.65765    0.83872    1.000
    O97      O        0.36760    0.52194    0.14480    1.000
    O98      O        0.25640    0.55274    0.20260    1.000
    O99      O        0.86780    0.57814    0.13580    1.000
    O100     O        0.83220    0.50569    0.15300    1.000
    O101     O        0.05440    0.39214    0.18530    1.000
    O102     O        0.16978    0.39630    0.11148    1.000
    O103     O        0.29390    0.45116    0.25660    1.000
    O104     O        0.36150    0.54090    0.37360    1.000
    C145     C        0.39370    0.76777    0.84240    1.000
    C146     C        0.49410    0.70085    0.85140    1.000
    H61      H        0.53770    0.71950    0.83070    1.000
    C147     C        0.51140    0.65572    0.86940    1.000
    C148     C        0.59980    0.63631    0.85550    1.000
    C149     C        0.44790    0.62804    0.89970    1.000
    H62      H        0.46000    0.59690    0.91100    1.000
    C150     C        0.36700    0.64593    0.91350    1.000
    C151     C        0.34880    0.69154    0.89360    1.000
    H63      H        0.29290    0.70380    0.90080    1.000
    C152     C        0.41290    0.71894    0.86340    1.000
    C153     C        0.30070    0.61795    0.95090    1.000
    C154     C        0.21290    0.61730    0.92320    1.000
    C155     C        0.17860    0.63830    0.84340    1.000
    C156     C        0.15370    0.59208    0.96490    1.000
    H64      H        0.09390    0.59280    0.94570    1.000
    C157     C        0.17910    0.56614    0.03330    1.000
    C158     C        0.26720    0.56757    0.06290    1.000
    C159     C        0.32630    0.59299    0.02170    1.000
    H65      H        0.38570    0.59340    0.04230    1.000
    C160     C        0.29990    0.54542    0.14200    1.000
    C161     C        0.11640    0.53566    0.07020    1.000
    C162     C        0.03430    0.55130    0.08750    1.000
    H66      H        0.01780    0.58180    0.07510    1.000
    C163     C        0.97630    0.52205    0.12300    1.000
    C164     C        0.88630    0.53672    0.13840    1.000
    C165     C        0.99970    0.47749    0.14080    1.000
    H67      H        0.96070    0.45800    0.16620    1.000
    C166     C        0.08040    0.46116    0.12160    1.000
    C167     C        0.10280    0.41300    0.14020    1.000
    C168     C        0.13810    0.48979    0.08550    1.000
    H68      H        0.19240    0.47830    0.07110    1.000
    H69      H        0.35140    0.44650    0.27790    1.000
    H70      H        0.27630    0.42210    0.26040    1.000
    Zn21     Zn       0.38035    0.50682    0.27167    1.000
    O105     O        0.39360    0.51500    0.35020    1.000
    Zn22     Zn       0.78095    0.34344    0.32783    1.000
    Zn23     Zn       0.77459    0.01447    0.79747    1.000
    O106     O        0.95480    0.29092    0.32010    1.000
    O107     O        0.81824    0.28199    0.35085    1.000
    O108     O        0.16030    0.16522    0.35250    1.000
    O109     O        0.10820    0.09449    0.34690    1.000
    O110     O        0.72792    0.13282    0.28459    1.000
    O111     O        0.60714    0.15765    0.33872    1.000
    O112     O        0.86760    0.02194    0.64480    1.000
    O113     O        0.75640    0.05274    0.70260    1.000
    O114     O        0.36780    0.07814    0.63580    1.000
    O115     O        0.33220    0.00569    0.65300    1.000
    O116     O        0.55440    0.89214    0.68530    1.000
    O117     O        0.66978    0.89630    0.61148    1.000
    O118     O        0.79390    0.95116    0.75660    1.000
    O119     O        0.86150    0.04090    0.87360    1.000
    C169     C        0.89370    0.26777    0.34240    1.000
    C170     C        0.99410    0.20085    0.35140    1.000
    H71      H        0.03770    0.21950    0.33070    1.000
    C171     C        0.01140    0.15572    0.36940    1.000
    C172     C        0.09980    0.13631    0.35550    1.000
    C173     C        0.94790    0.12804    0.39970    1.000
    H72      H        0.96000    0.09690    0.41100    1.000
    C174     C        0.86700    0.14593    0.41350    1.000
    C175     C        0.84880    0.19154    0.39360    1.000
    H73      H        0.79290    0.20380    0.40080    1.000
    C176     C        0.91290    0.21894    0.36340    1.000
    C177     C        0.80070    0.11795    0.45090    1.000
    C178     C        0.71290    0.11730    0.42320    1.000
    C179     C        0.67860    0.13830    0.34340    1.000
    C180     C        0.65370    0.09208    0.46490    1.000
    H74      H        0.59390    0.09280    0.44570    1.000
    C181     C        0.67910    0.06614    0.53330    1.000
    C182     C        0.76720    0.06757    0.56290    1.000
    C183     C        0.82630    0.09299    0.52170    1.000
    H75      H        0.88570    0.09340    0.54230    1.000
    C184     C        0.79990    0.04542    0.64200    1.000
    C185     C        0.61640    0.03566    0.57020    1.000
    C186     C        0.53430    0.05130    0.58750    1.000
    H76      H        0.51780    0.08180    0.57510    1.000
    C187     C        0.47630    0.02205    0.62300    1.000
    C188     C        0.38630    0.03672    0.63840    1.000
    C189     C        0.49970    0.97749    0.64080    1.000
    H77      H        0.46070    0.95800    0.66620    1.000
    C190     C        0.58040    0.96116    0.62160    1.000
    C191     C        0.60280    0.91300    0.64020    1.000
    C192     C        0.63810    0.98979    0.58550    1.000
    H78      H        0.69240    0.97830    0.57110    1.000
    H79      H        0.85140    0.94650    0.77790    1.000
    H80      H        0.77630    0.92210    0.76040    1.000
    Zn24     Zn       0.88035    0.00682    0.77167    1.000
    O120     O        0.89360    0.01500    0.85020    1.000
    Zn25     Zn       0.50000    0.15902    0.25000    1.000
    Zn26     Zn       0.00000    0.65902    0.75000    1.000
    Zn27     Zn       0.50000    0.84098    0.75000    1.000
    Zn28     Zn       0.00000    0.34098    0.25000    1.000
