data_functionalizedCrystal
_audit_creation_method	'EQeq! by Chris Wilmer'
_symmetry_space_group_name_H-M	'P1'
_symmetry_Int_Tables_number	1
_symmetry_cell_setting	triclinic
loop_
_symmetry_equiv_pos_as_xyz
  x,y,z
_cell_length_a	7.6799
_cell_length_b	9.8742
_cell_length_c	14.893
_cell_angle_alpha	90
_cell_angle_beta	98.364
_cell_angle_gamma	90
loop_
_atom_site_label
_atom_site_type_symbol
_atom_site_fract_x
_atom_site_fract_y
_atom_site_fract_z
_atom_site_charge
Mof_Eu	Eu	0.85341	0.54448	0.13956	2.256
Mof_Eu	Eu	0.64659	0.04448	0.36044	2.262
Mof_Eu	Eu	0.14659	0.45552	0.86044	2.257
Mof_Eu	Eu	0.35341	0.95552	0.63956	2.263
Mof_H 	H 	0.884	0.3017	0.5153	-0.025
Mof_H 	H 	0.7017	0.6092	0.6358	-0.049
Mof_H 	H 	0.6727	0.6118	0.3653	-0.067
Mof_H 	H 	0.616	0.8017	0.9847	-0.018
Mof_H 	H 	0.7983	0.1092	0.8642	-0.042
Mof_H 	H 	0.8273	0.1118	0.1347	-0.051
Mof_H 	H 	0.116	0.6983	0.4847	-0.025
Mof_H 	H 	0.2983	0.3908	0.3642	-0.049
Mof_H 	H 	0.3273	0.3882	0.6347	-0.067
Mof_H 	H 	0.384	0.1983	0.0153	-0.018
Mof_H 	H 	0.2017	0.8908	0.1358	-0.042
Mof_H 	H 	0.1727	0.8882	0.8653	-0.051
Mof_C 	C 	0.8083	0.3632	0.3439	0.55
Mof_C 	C 	0.7799	0.4417	0.4266	-0.299
Mof_C 	C 	0.8304	0.3864	0.5119	0.173
Mof_C 	C 	0.7252	0.5677	0.5828	0.174
Mof_C 	C 	0.6745	0.6334	0.5013	-0.3
Mof_C 	C 	0.5888	0.7698	0.4992	0.604
Mof_C 	C 	0.7037	0.5696	0.4212	0.225
Mof_C 	C 	0.4564	0.4687	0.0391	0.273
Mof_C 	C 	0.6917	0.8632	0.1561	0.538
Mof_C 	C 	0.7201	0.9417	0.0734	-0.262
Mof_C 	C 	0.6696	0.8864	0.9881	0.151
Mof_C 	C 	0.7748	0.0677	0.9172	0.158
Mof_C 	C 	0.8255	0.1334	0.9987	-0.253
Mof_C 	C 	0.9112	0.2698	0.0008	0.564
Mof_C 	C 	0.7963	0.0696	0.0788	0.168
Mof_C 	C 	0.0436	0.9687	0.4609	0.269
Mof_C 	C 	0.1917	0.6368	0.6561	0.55
Mof_C 	C 	0.2201	0.5583	0.5734	-0.299
Mof_C 	C 	0.1696	0.6136	0.4881	0.173
Mof_C 	C 	0.2748	0.4323	0.4172	0.174
Mof_C 	C 	0.3255	0.3666	0.4987	-0.3
Mof_C 	C 	0.4112	0.2302	0.5008	0.604
Mof_C 	C 	0.2963	0.4304	0.5788	0.225
Mof_C 	C 	0.5436	0.5313	0.9609	0.273
Mof_C 	C 	0.3083	0.1368	0.8439	0.538
Mof_C 	C 	0.2799	0.0583	0.9266	-0.262
Mof_C 	C 	0.3304	0.1136	0.0119	0.151
Mof_C 	C 	0.2252	0.9323	0.0828	0.158
Mof_C 	C 	0.1745	0.8666	0.0013	-0.253
Mof_C 	C 	0.0888	0.7302	0.9992	0.564
Mof_C 	C 	0.2037	0.9304	0.9212	0.168
Mof_C 	C 	0.9564	0.0313	0.5391	0.269
Mof_N 	N 	0.8071	0.4466	0.5894	-0.198
Mof_N 	N 	0.6929	0.9466	0.9106	-0.192
Mof_N 	N 	0.1929	0.5534	0.4106	-0.198
Mof_N 	N 	0.3071	0.0534	0.0894	-0.192
Mof_O 	O 	0.805	0.4238	0.2702	-0.612
Mof_O 	O 	0.8348	0.2368	0.35386	-0.571
Mof_O 	O 	0.5876	0.8397	0.4285	-0.617
Mof_O 	O 	0.5234	0.8053	0.5676	-0.632
Mof_O 	O 	0.5531	0.4504	0.1132	-0.448
Mof_O 	O 	0.2971	0.438	0.02067	-0.444
Mof_O 	O 	0.695	0.9238	0.2298	-0.605
Mof_O 	O 	0.6652	0.7368	0.14614	-0.565
Mof_O 	O 	0.9124	0.3397	0.0715	-0.612
Mof_O 	O 	0.9766	0.3053	0.9324	-0.615
Mof_O 	O 	0.9469	0.9504	0.3868	-0.443
Mof_O 	O 	0.2029	0.938	0.47933	-0.446
Mof_O 	O 	0.195	0.5762	0.7298	-0.612
Mof_O 	O 	0.1652	0.7632	0.64614	-0.571
Mof_O 	O 	0.4124	0.1603	0.5715	-0.617
Mof_O 	O 	0.4766	0.1947	0.4324	-0.632
Mof_O 	O 	0.4469	0.5496	0.8868	-0.448
Mof_O 	O 	0.7029	0.562	0.97933	-0.444
Mof_O 	O 	0.305	0.0762	0.7702	-0.605
Mof_O 	O 	0.3348	0.2632	0.85386	-0.565
Mof_O 	O 	0.0876	0.6603	0.9285	-0.612
Mof_O 	O 	0.0234	0.6947	0.0676	-0.615
Mof_O 	O 	0.0531	0.0496	0.6132	-0.443
Mof_O 	O 	0.7971	0.062	0.52067	-0.446
_end
