data_functionalizedCrystal
_audit_creation_method	'EQeq! by Chris Wilmer'
_symmetry_space_group_name_H-M	'P1'
_symmetry_Int_Tables_number	1
_symmetry_cell_setting	triclinic
loop_
_symmetry_equiv_pos_as_xyz
  x,y,z
_cell_length_a	15.374
_cell_length_b	15.374
_cell_length_c	15.374
_cell_angle_alpha	74.8415
_cell_angle_beta	74.8415
_cell_angle_gamma	74.8415
loop_
_atom_site_label
_atom_site_type_symbol
_atom_site_fract_x
_atom_site_fract_y
_atom_site_fract_z
_atom_site_charge
Mof_Cu	Cu	0.99022	0.99022	0.42007	0.9
Mof_Cu	Cu	0.42007	0.99022	0.99022	0.9
Mof_Cu	Cu	0.99022	0.42007	0.99022	0.9
Mof_Cu	Cu	0.00978	0.00978	0.57993	0.9
Mof_Cu	Cu	0.00978	0.57993	0.00978	0.9
Mof_Cu	Cu	0.57993	0.00978	0.00978	0.9
Mof_H 	H 	0.9889	0.303	0.5164	0.065
Mof_H 	H 	0.5164	0.9889	0.303	0.065
Mof_H 	H 	0.303	0.5164	0.9889	0.065
Mof_H 	H 	0.697	0.0111	0.4836	0.065
Mof_H 	H 	0.0111	0.4836	0.697	0.065
Mof_H 	H 	0.4836	0.697	0.0111	0.065
Mof_H 	H 	0.0111	0.697	0.4836	0.065
Mof_H 	H 	0.4836	0.0111	0.697	0.065
Mof_H 	H 	0.697	0.4836	0.0111	0.065
Mof_H 	H 	0.303	0.9889	0.5164	0.065
Mof_H 	H 	0.9889	0.5164	0.303	0.065
Mof_H 	H 	0.5164	0.303	0.9889	0.065
Mof_H 	H 	0.9741	0.271	0.271	0.062
Mof_H 	H 	0.271	0.9741	0.271	0.062
Mof_H 	H 	0.271	0.271	0.9741	0.062
Mof_H 	H 	0.729	0.0259	0.729	0.062
Mof_H 	H 	0.0259	0.729	0.729	0.062
Mof_H 	H 	0.729	0.729	0.0259	0.062
Mof_C 	C 	0.98156	0.27146	0.40096	-0.06
Mof_C 	C 	0.98723	0.32723	0.45463	-0.04
Mof_C 	C 	0.98363	0.17073	0.43863	0.341
Mof_C 	C 	0.40096	0.98156	0.27146	-0.06
Mof_C 	C 	0.45463	0.98723	0.32723	-0.04
Mof_C 	C 	0.43863	0.98363	0.17073	0.341
Mof_C 	C 	0.27146	0.40096	0.98156	-0.06
Mof_C 	C 	0.32723	0.45463	0.98723	-0.04
Mof_C 	C 	0.17073	0.43863	0.98363	0.341
Mof_C 	C 	0.72854	0.01844	0.59904	-0.06
Mof_C 	C 	0.67277	0.01277	0.54537	-0.04
Mof_C 	C 	0.82927	0.01637	0.56137	0.341
Mof_C 	C 	0.01844	0.59904	0.72854	-0.06
Mof_C 	C 	0.01277	0.54537	0.67277	-0.04
Mof_C 	C 	0.01637	0.56137	0.82927	0.341
Mof_C 	C 	0.59904	0.72854	0.01844	-0.06
Mof_C 	C 	0.54537	0.67277	0.01277	-0.04
Mof_C 	C 	0.56137	0.82927	0.01637	0.341
Mof_C 	C 	0.01844	0.72854	0.59904	-0.06
Mof_C 	C 	0.01277	0.67277	0.54537	-0.04
Mof_C 	C 	0.01637	0.82927	0.56137	0.341
Mof_C 	C 	0.59904	0.01844	0.72854	-0.06
Mof_C 	C 	0.54537	0.01277	0.67277	-0.04
Mof_C 	C 	0.56137	0.01637	0.82927	0.341
Mof_C 	C 	0.72854	0.59904	0.01844	-0.06
Mof_C 	C 	0.67277	0.54537	0.01277	-0.04
Mof_C 	C 	0.82927	0.56137	0.01637	0.341
Mof_C 	C 	0.27146	0.98156	0.40096	-0.06
Mof_C 	C 	0.32723	0.98723	0.45463	-0.04
Mof_C 	C 	0.17073	0.98363	0.43863	0.341
Mof_C 	C 	0.98156	0.40096	0.27146	-0.06
Mof_C 	C 	0.98723	0.45463	0.32723	-0.04
Mof_C 	C 	0.98363	0.43863	0.17073	0.341
Mof_C 	C 	0.40096	0.27146	0.98156	-0.06
Mof_C 	C 	0.45463	0.32723	0.98723	-0.04
Mof_C 	C 	0.43863	0.17073	0.98363	0.341
Mof_C 	C 	0.9904	0.41915	0.41915	0.028
Mof_C 	C 	0.99622	0.47687	0.47687	-0.015
Mof_C 	C 	0.97836	0.30811	0.30811	0.005
Mof_C 	C 	0.41915	0.9904	0.41915	0.028
Mof_C 	C 	0.47687	0.99622	0.47687	-0.015
Mof_C 	C 	0.30811	0.97836	0.30811	0.005
Mof_C 	C 	0.41915	0.41915	0.9904	0.028
Mof_C 	C 	0.47687	0.47687	0.99622	-0.015
Mof_C 	C 	0.30811	0.30811	0.97836	0.005
Mof_C 	C 	0.58085	0.0096	0.58085	0.028
Mof_C 	C 	0.52313	0.00378	0.52313	-0.015
Mof_C 	C 	0.69189	0.02164	0.69189	0.005
Mof_C 	C 	0.0096	0.58085	0.58085	0.028
Mof_C 	C 	0.00378	0.52313	0.52313	-0.015
Mof_C 	C 	0.02164	0.69189	0.69189	0.005
Mof_C 	C 	0.58085	0.58085	0.0096	0.028
Mof_C 	C 	0.52313	0.52313	0.00378	-0.015
Mof_C 	C 	0.69189	0.69189	0.02164	0.005
Mof_O 	O 	0.9789	0.12429	0.38402	-0.396
Mof_O 	O 	0.99391	0.14021	0.52097	-0.4
Mof_O 	O 	0.38402	0.9789	0.12429	-0.396
Mof_O 	O 	0.52097	0.99391	0.14021	-0.4
Mof_O 	O 	0.12429	0.38402	0.9789	-0.396
Mof_O 	O 	0.14021	0.52097	0.99391	-0.4
Mof_O 	O 	0.87571	0.0211	0.61598	-0.396
Mof_O 	O 	0.85979	0.00609	0.47903	-0.4
Mof_O 	O 	0.0211	0.61598	0.87571	-0.396
Mof_O 	O 	0.00609	0.47903	0.85979	-0.4
Mof_O 	O 	0.61598	0.87571	0.0211	-0.396
Mof_O 	O 	0.47903	0.85979	0.00609	-0.4
Mof_O 	O 	0.0211	0.87571	0.61598	-0.396
Mof_O 	O 	0.00609	0.85979	0.47903	-0.4
Mof_O 	O 	0.61598	0.0211	0.87571	-0.396
Mof_O 	O 	0.47903	0.00609	0.85979	-0.4
Mof_O 	O 	0.87571	0.61598	0.0211	-0.396
Mof_O 	O 	0.85979	0.47903	0.00609	-0.4
Mof_O 	O 	0.12429	0.9789	0.38402	-0.396
Mof_O 	O 	0.14021	0.99391	0.52097	-0.4
Mof_O 	O 	0.9789	0.38402	0.12429	-0.396
Mof_O 	O 	0.99391	0.52097	0.14021	-0.4
Mof_O 	O 	0.38402	0.12429	0.9789	-0.396
Mof_O 	O 	0.52097	0.14021	0.99391	-0.4
_end
