# CIF file generated by openbabel 3.1.0, see https://openbabel.org
data_I
_chemical_name_common 'image0'
_cell_length_a 10.192
_cell_length_b 11.611
_cell_length_c 16.848
_cell_angle_alpha 110.04
_cell_angle_beta 97.66
_cell_angle_gamma 92.04
_space_group_name_H-M_alt 'P 1'
_space_group_name_Hall 'P 1'
loop_
    _symmetry_equiv_pos_as_xyz
    x,y,z
loop_
    _atom_site_label
    _atom_site_type_symbol
    _atom_site_fract_x
    _atom_site_fract_y
    _atom_site_fract_z
    _atom_site_occupancy
    Cd1      Cd       0.47790    0.52750    0.86884    1.000
    Cd2      Cd       0.55435    0.96901    0.25420    1.000
    Cd3      Cd       0.44790    0.43226    0.58961    1.000
    C1       C        0.81000    0.44830    0.72050    1.000
    C2       C        0.83500    0.36070    0.64500    1.000
    H1       H        0.76340    0.30530    0.61170    1.000
    C3       C        0.95100    0.34850    0.61550    1.000
    H2       H        0.96050    0.28560    0.56510    1.000
    C4       C        0.06600    0.43950    0.66660    1.000
    C5       C        0.04600    0.53110    0.74020    1.000
    H3       H        0.11530    0.59020    0.77220    1.000
    C6       C        0.92400    0.53500    0.76620    1.000
    H4       H        0.91370    0.59740    0.81660    1.000
    C7       C        0.68000    0.45500    0.75090    1.000
    C8       C        0.19700    0.42800    0.64140    1.000
    C9       C        0.11300    0.33560    0.86390    1.000
    C10      C        0.04900    0.35300    0.93500    1.000
    H5       H        0.08220    0.41450    0.98670    1.000
    C11      C        0.93900    0.28030    0.92880    1.000
    H6       H        0.90300    0.29130    0.97850    1.000
    C12      C        0.87700    0.19280    0.85620    1.000
    C13      C        0.94600    0.18070    0.78080    1.000
    H7       H        0.90720    0.12580    0.72750    1.000
    C14      C        0.06100    0.24480    0.78610    1.000
    H8       H        0.10510    0.22890    0.73900    1.000
    C15      C        0.24500    0.41240    0.86610    1.000
    C16      C        0.75800    0.12400    0.84810    1.000
    C17      C        0.98050    0.15610    0.29500    1.000
    C18      C        0.08690    0.14440    0.24990    1.000
    H9       H        0.08110    0.08390    0.19610    1.000
    C19      C        0.20210    0.22320    0.28520    1.000
    H10      H        0.27330    0.21540    0.25500    1.000
    C20      C        0.21080    0.31370    0.36560    1.000
    C21      C        0.10430    0.32540    0.41070    1.000
    H11      H        0.11020    0.38590    0.46450    1.000
    C22      C        0.98920    0.24660    0.37540    1.000
    H12      H        0.91800    0.25440    0.40560    1.000
    C23      C        0.83300    0.07830    0.25350    1.000
    C24      C        0.33000    0.40690    0.40070    1.000
    C25      C        0.65200    0.77830    0.99750    1.000
    C26      C        0.51000    0.71930    0.07030    1.000
    C27      C        0.54900    0.20110    0.43630    1.000
    C28      C        0.39800    0.05340    0.42590    1.000
    O1       O        0.67800    0.53200    0.82520    1.000
    O2       O        0.57900    0.38540    0.70580    1.000
    O3       O        0.28100    0.52470    0.66010    1.000
    O4       O        0.22700    0.32390    0.59560    1.000
    O5       O        0.28300    0.50190    0.93260    1.000
    O6       O        0.30100    0.38670    0.80170    1.000
    O7       O        0.65880    0.11320    0.77970    1.000
    O8       O        0.74400    0.07750    0.90140    1.000
    O9       O        0.77100    0.06160    0.29910    1.000
    O10      O        0.83600    0.04300    0.17020    1.000
    O11      O        0.41400    0.39530    0.35320    1.000
    O12      O        0.34180    0.48150    0.47300    1.000
    N1       N        0.58300    0.82290    0.12280    1.000
    N2       N        0.66600    0.85640    0.07360    1.000
    H13      H        0.72000    0.92190    0.09220    1.000
    N3       N        0.55900    0.68610    0.98950    1.000
    N4       N        0.71800    0.78340    0.93490    1.000
    H14      H        0.77690    0.84370    0.94430    1.000
    H15      H        0.70250    0.72630    0.88530    1.000
    N5       N        0.42900    0.64810    0.08960    1.000
    H16      H        0.41700    0.66490    0.14180    1.000
    H17      H        0.38710    0.58400    0.05020    1.000
    N6       N        0.47800    0.24570    0.50300    1.000
    N7       N        0.38800    0.14640    0.49110    1.000
    H18      H        0.33120    0.14780    0.52480    1.000
    N8       N        0.50000    0.08180    0.38550    1.000
    N9       N        0.65100    0.26050    0.42300    1.000
    H19      H        0.67920    0.33350    0.45760    1.000
    H20      H        0.69030    0.22620    0.37960    1.000
    N10      N        0.32800    0.94640    0.40300    1.000
    H21      H        0.27050    0.93550    0.43330    1.000
    H22      H        0.34020    0.88730    0.35780    1.000
    Cd4      Cd       0.52210    0.47250    0.13116    1.000
    Cd5      Cd       0.44565    0.03099    0.74580    1.000
    Cd6      Cd       0.55210    0.56774    0.41039    1.000
    C29      C        0.19000    0.55170    0.27950    1.000
    C30      C        0.16500    0.63930    0.35500    1.000
    H23      H        0.23660    0.69470    0.38830    1.000
    C31      C        0.04900    0.65150    0.38450    1.000
    H24      H        0.03950    0.71440    0.43490    1.000
    C32      C        0.93400    0.56050    0.33340    1.000
    C33      C        0.95400    0.46890    0.25980    1.000
    H25      H        0.88470    0.40980    0.22780    1.000
    C34      C        0.07600    0.46500    0.23380    1.000
    H26      H        0.08630    0.40260    0.18340    1.000
    C35      C        0.32000    0.54500    0.24910    1.000
    C36      C        0.80300    0.57200    0.35860    1.000
    C37      C        0.88700    0.66440    0.13610    1.000
    C38      C        0.95100    0.64700    0.06500    1.000
    H27      H        0.91780    0.58550    0.01330    1.000
    C39      C        0.06100    0.71970    0.07120    1.000
    H28      H        0.09700    0.70870    0.02150    1.000
    C40      C        0.12300    0.80720    0.14380    1.000
    C41      C        0.05400    0.81930    0.21920    1.000
    H29      H        0.09280    0.87420    0.27250    1.000
    C42      C        0.93900    0.75520    0.21390    1.000
    H30      H        0.89490    0.77110    0.26100    1.000
    C43      C        0.75500    0.58760    0.13390    1.000
    C44      C        0.24200    0.87600    0.15190    1.000
    C45      C        0.01950    0.84390    0.70500    1.000
    C46      C        0.91310    0.85560    0.75010    1.000
    H31      H        0.91890    0.91610    0.80390    1.000
    C47      C        0.79790    0.77680    0.71480    1.000
    H32      H        0.72670    0.78460    0.74500    1.000
    C48      C        0.78920    0.68630    0.63440    1.000
    C49      C        0.89570    0.67460    0.58930    1.000
    H33      H        0.88980    0.61410    0.53550    1.000
    C50      C        0.01080    0.75340    0.62460    1.000
    H34      H        0.08200    0.74560    0.59440    1.000
    C51      C        0.16700    0.92170    0.74650    1.000
    C52      C        0.67000    0.59310    0.59930    1.000
    C53      C        0.34800    0.22170    0.00250    1.000
    C54      C        0.49000    0.28070    0.92970    1.000
    C55      C        0.45100    0.79890    0.56370    1.000
    C56      C        0.60200    0.94660    0.57410    1.000
    O13      O        0.32200    0.46800    0.17480    1.000
    O14      O        0.42100    0.61460    0.29420    1.000
    O15      O        0.71900    0.47530    0.33990    1.000
    O16      O        0.77300    0.67610    0.40440    1.000
    O17      O        0.71700    0.49810    0.06740    1.000
    O18      O        0.69900    0.61330    0.19830    1.000
    O19      O        0.34120    0.88680    0.22030    1.000
    O20      O        0.25600    0.92250    0.09860    1.000
    O21      O        0.22900    0.93840    0.70090    1.000
    O22      O        0.16400    0.95700    0.82980    1.000
    O23      O        0.58600    0.60470    0.64680    1.000
    O24      O        0.65820    0.51850    0.52700    1.000
    N11      N        0.41700    0.17710    0.87720    1.000
    N12      N        0.33400    0.14360    0.92640    1.000
    H35      H        0.28000    0.07810    0.90780    1.000
    N13      N        0.44100    0.31390    0.01050    1.000
    N14      N        0.28200    0.21660    0.06510    1.000
    H36      H        0.22310    0.15630    0.05570    1.000
    H37      H        0.29750    0.27370    0.11470    1.000
    N15      N        0.57100    0.35190    0.91040    1.000
    H38      H        0.58300    0.33510    0.85820    1.000
    H39      H        0.61290    0.41600    0.94980    1.000
    N16      N        0.52200    0.75430    0.49700    1.000
    N17      N        0.61200    0.85360    0.50890    1.000
    H40      H        0.66880    0.85220    0.47520    1.000
    N18      N        0.50000    0.91820    0.61450    1.000
    N19      N        0.34900    0.73950    0.57700    1.000
    H41      H        0.32080    0.66650    0.54240    1.000
    H42      H        0.30970    0.77380    0.62040    1.000
    N20      N        0.67200    0.05360    0.59700    1.000
    H43      H        0.72950    0.06450    0.56670    1.000
    H44      H        0.65980    0.11270    0.64220    1.000
