# CIF file generated by openbabel 3.1.0, see https://openbabel.org
data_I
_chemical_name_common 'image0'
_cell_length_a 7.7738
_cell_length_b 9.484
_cell_length_c 11.9243
_cell_angle_alpha 78.102
_cell_angle_beta 78.574
_cell_angle_gamma 86.183
_space_group_name_H-M_alt 'P 1'
_space_group_name_Hall 'P 1'
loop_
    _symmetry_equiv_pos_as_xyz
    x,y,z
loop_
    _atom_site_label
    _atom_site_type_symbol
    _atom_site_fract_x
    _atom_site_fract_y
    _atom_site_fract_z
    _atom_site_occupancy
    Mg1      Mg       0.99660    0.58361    0.18645    1.000
    Mg2      Mg       0.31510    0.47640    0.99669    1.000
    Mg3      Mg       0.12550    0.02620    0.39627    1.000
    Mg4      Mg       0.21590    0.04510    0.77128    1.000
    P1       P        0.61886    0.50132    0.15414    1.000
    P2       P        0.43332    0.14659    0.49998    1.000
    P3       P        0.94541    0.88414    0.67153    1.000
    O1       O        0.52020    0.52700    0.05490    1.000
    O2       O        0.80250    0.55130    0.11410    1.000
    O3       O        0.52950    0.59440    0.24800    1.000
    H1       H        0.42340    0.58190    0.26380    1.000
    O4       O        0.60970    0.34190    0.21750    1.000
    H2       H        0.54660    0.33570    0.28210    1.000
    O5       O        0.35880    0.04730    0.43940    1.000
    O6       O        0.32980    0.15300    0.61800    1.000
    O7       O        0.47350    0.29530    0.42620    1.000
    O8       O        0.62210    0.07350    0.52180    1.000
    H3       H        0.69450    0.13660    0.50930    1.000
    O9       O        0.03210    0.89460    0.54710    1.000
    O10      O        0.98810    0.00160    0.72750    1.000
    O11      O        0.73960    0.87490    0.68820    1.000
    H4       H        0.69810    0.95400    0.66280    1.000
    O12      O        0.99510    0.73500    0.74210    1.000
    H5       H        0.90540    0.69390    0.77850    1.000
    O13      O        0.87900    0.77120    0.23590    1.000
    O14      O        0.92730    0.95420    0.31630    1.000
    O15      O        0.18800    0.65490    0.26570    1.000
    O16      O        0.25300    0.84740    0.32790    1.000
    O17      O        0.16030    0.40570    0.15800    1.000
    O18      O        0.19950    0.17290    0.23570    1.000
    O19      O        0.91680    0.43410    0.34300    1.000
    O20      O        0.96060    0.20360    0.42450    1.000
    O21      O        0.35050    0.85070    0.75260    1.000
    O22      O        0.39130    0.62510    0.84160    1.000
    O23      O        0.12700    0.89880    0.94400    1.000
    O24      O        0.15720    0.66570    0.02640    1.000
    O25      O        0.07780    0.21770    0.83670    1.000
    O26      O        0.11820    0.39970    0.92240    1.000
    O27      O        0.39870    0.11780    0.85490    1.000
    O28      O        0.44070    0.29530    0.94230    1.000
    C1       C        0.96860    0.84110    0.28100    1.000
    C2       C        0.15370    0.77560    0.29300    1.000
    C3       C        0.13080    0.29350    0.23740    1.000
    C4       C        0.98750    0.31320    0.34550    1.000
    C5       C        0.32220    0.74780    0.83640    1.000
    C6       C        0.18860    0.77520    0.94600    1.000
    C7       C        0.16500    0.28840    0.88280    1.000
    C8       C        0.35210    0.22740    0.89400    1.000
