# CIF file generated by openbabel 3.1.0, see https://openbabel.org
data_I
_chemical_name_common 'image0'
_cell_length_a 7.5698
_cell_length_b 8.605
_cell_length_c 9.84
_cell_angle_alpha 87.1
_cell_angle_beta 89.92
_cell_angle_gamma 85.22
_space_group_name_H-M_alt 'P 1'
_space_group_name_Hall 'P 1'
loop_
    _symmetry_equiv_pos_as_xyz
    x,y,z
loop_
    _atom_site_label
    _atom_site_type_symbol
    _atom_site_fract_x
    _atom_site_fract_y
    _atom_site_fract_z
    _atom_site_occupancy
    Tb1      Tb       0.43498    0.11530    0.16673    1.000
    O1       O        0.13490    0.23890    0.13340    1.000
    N1       N        0.43310    0.45650    0.62740    1.000
    C1       C        0.12480    0.51220    0.11050    1.000
    H1       H        0.10140    0.51880    0.20910    1.000
    H2       H        0.25390    0.51690    0.09680    1.000
    O2       O        0.71650    0.23860    0.11940    1.000
    N2       N        0.96940    0.35000    0.96250    1.000
    C2       C        0.07440    0.35740    0.06710    1.000
    O3       O        0.68990    0.02880    0.00780    1.000
    C3       C        0.90990    0.20080    0.92830    1.000
    H3       H        0.01110    0.12010    0.93330    1.000
    H4       H        0.86340    0.20850    0.83390    1.000
    O4       O        0.57030    0.64490    0.72450    1.000
    C4       C        0.76430    0.15330    0.02660    1.000
    O5       O        0.50050    0.16150    0.77240    1.000
    C5       C        0.53490    0.57450    0.62310    1.000
    O6       O        0.41070    0.27880    0.96200    1.000
    C6       C        0.39050    0.37250    0.50970    1.000
    H5       H        0.25980    0.37870    0.50070    1.000
    H6       H        0.43180    0.26110    0.52760    1.000
    C7       C        0.33970    0.41520    0.75560    1.000
    H7       H        0.21620    0.39590    0.73320    1.000
    H8       H        0.33500    0.50550    0.81430    1.000
    C8       C        0.42560    0.27280    0.83500    1.000
    Tb2      Tb       0.56502    0.88470    0.83327    1.000
    O7       O        0.86510    0.76110    0.86660    1.000
    N3       N        0.56690    0.54350    0.37260    1.000
    C9       C        0.87520    0.48780    0.88950    1.000
    H9       H        0.89860    0.48120    0.79090    1.000
    H10      H        0.74610    0.48310    0.90320    1.000
    O8       O        0.28350    0.76140    0.88060    1.000
    N4       N        0.03060    0.65000    0.03750    1.000
    C10      C        0.92560    0.64260    0.93290    1.000
    O9       O        0.31010    0.97120    0.99220    1.000
    C11      C        0.09010    0.79920    0.07170    1.000
    H11      H        0.98890    0.87990    0.06670    1.000
    H12      H        0.13660    0.79150    0.16610    1.000
    O10      O        0.42970    0.35510    0.27550    1.000
    C12      C        0.23570    0.84670    0.97340    1.000
    O11      O        0.49950    0.83850    0.22760    1.000
    C13      C        0.46510    0.42550    0.37690    1.000
    O12      O        0.58930    0.72120    0.03800    1.000
    C14      C        0.60950    0.62750    0.49030    1.000
    H13      H        0.74020    0.62130    0.49930    1.000
    H14      H        0.56820    0.73890    0.47240    1.000
    C15      C        0.66030    0.58480    0.24440    1.000
    H15      H        0.78380    0.60410    0.26680    1.000
    H16      H        0.66500    0.49450    0.18570    1.000
    C16      C        0.57440    0.72720    0.16500    1.000
