data_functionalizedCrystal
_audit_creation_method	'EQeq! by Chris Wilmer'
_symmetry_space_group_name_H-M	'P1'
_symmetry_Int_Tables_number	1
_symmetry_cell_setting	triclinic
loop_
_symmetry_equiv_pos_as_xyz
  x,y,z
_cell_length_a	19.634
_cell_length_b	19.634
_cell_length_c	19.634
_cell_angle_alpha	90
_cell_angle_beta	90
_cell_angle_gamma	90
loop_
_atom_site_label
_atom_site_type_symbol
_atom_site_fract_x
_atom_site_fract_y
_atom_site_fract_z
_atom_site_charge
Mof_Re	Re	0.18679	0.28179	0.18679	0.288
Mof_C 	C 	0.1152	0.3157	0.1152	-0.069
Mof_N 	N 	0.0753	0.3342	0.0753	-0.285
Mof_Re	Re	0.68679	0.78179	0.68679	0.277
Mof_C 	C 	0.6152	0.8157	0.6152	-0.028
Mof_N 	N 	0.5753	0.8342	0.5753	-0.246
Mof_Re	Re	0.81321	0.71821	0.18679	0.281
Mof_C 	C 	0.8848	0.6843	0.1152	-0.034
Mof_N 	N 	0.9247	0.6658	0.0753	-0.238
Mof_Re	Re	0.31321	0.21821	0.68679	0.285
Mof_C 	C 	0.3848	0.1843	0.6152	-0.045
Mof_N 	N 	0.4247	0.1658	0.5753	-0.26
Mof_Re	Re	0.81321	0.28179	0.81321	0.282
Mof_C 	C 	0.8848	0.3157	0.8848	-0.007
Mof_N 	N 	0.9247	0.3342	0.9247	-0.196
Mof_Re	Re	0.31321	0.78179	0.31321	0.281
Mof_C 	C 	0.3848	0.8157	0.3848	-0.028
Mof_N 	N 	0.4247	0.8342	0.4247	-0.246
Mof_Re	Re	0.18679	0.71821	0.81321	0.281
Mof_C 	C 	0.1152	0.6843	0.8848	-0.034
Mof_N 	N 	0.0753	0.6658	0.9247	-0.238
Mof_Re	Re	0.68679	0.21821	0.31321	0.285
Mof_C 	C 	0.6152	0.1843	0.3848	-0.045
Mof_N 	N 	0.5753	0.1658	0.4247	-0.26
Mof_Re	Re	0.18679	0.18679	0.28179	0.289
Mof_C 	C 	0.1152	0.1152	0.3157	-0.069
Mof_N 	N 	0.0753	0.0753	0.3342	-0.285
Mof_Re	Re	0.68679	0.68679	0.78179	0.277
Mof_C 	C 	0.6152	0.6152	0.8157	-0.028
Mof_N 	N 	0.5753	0.5753	0.8342	-0.246
Mof_Re	Re	0.18679	0.81321	0.71821	0.281
Mof_C 	C 	0.1152	0.8848	0.6843	-0.034
Mof_N 	N 	0.0753	0.9247	0.6658	-0.238
Mof_Re	Re	0.68679	0.31321	0.21821	0.285
Mof_C 	C 	0.6152	0.3848	0.1843	-0.045
Mof_N 	N 	0.5753	0.4247	0.1658	-0.26
Mof_Re	Re	0.81321	0.81321	0.28179	0.282
Mof_C 	C 	0.8848	0.8848	0.3157	-0.007
Mof_N 	N 	0.9247	0.9247	0.3342	-0.196
Mof_Re	Re	0.31321	0.31321	0.78179	0.281
Mof_C 	C 	0.3848	0.3848	0.8157	-0.028
Mof_N 	N 	0.4247	0.4247	0.8342	-0.246
Mof_Re	Re	0.81321	0.18679	0.71821	0.281
Mof_C 	C 	0.8848	0.1152	0.6843	-0.034
Mof_N 	N 	0.9247	0.0753	0.6658	-0.238
Mof_Re	Re	0.31321	0.68679	0.21821	0.285
Mof_C 	C 	0.3848	0.6152	0.1843	-0.045
Mof_N 	N 	0.4247	0.5753	0.1658	-0.26
Mof_Re	Re	0.28179	0.18679	0.18679	0.289
Mof_C 	C 	0.3157	0.1152	0.1152	-0.069
Mof_N 	N 	0.3342	0.0753	0.0753	-0.285
Mof_Re	Re	0.78179	0.68679	0.68679	0.277
Mof_C 	C 	0.8157	0.6152	0.6152	-0.028
Mof_N 	N 	0.8342	0.5753	0.5753	-0.246
Mof_Re	Re	0.71821	0.18679	0.81321	0.281
Mof_C 	C 	0.6843	0.1152	0.8848	-0.034
Mof_N 	N 	0.6658	0.0753	0.9247	-0.238
Mof_Re	Re	0.21821	0.68679	0.31321	0.285
Mof_C 	C 	0.1843	0.6152	0.3848	-0.045
Mof_N 	N 	0.1658	0.5753	0.4247	-0.26
Mof_Re	Re	0.28179	0.81321	0.81321	0.282
Mof_C 	C 	0.3157	0.8848	0.8848	-0.007
Mof_N 	N 	0.3342	0.9247	0.9247	-0.196
Mof_Re	Re	0.78179	0.31321	0.31321	0.281
Mof_C 	C 	0.8157	0.3848	0.3848	-0.028
Mof_N 	N 	0.8342	0.4247	0.4247	-0.246
Mof_Re	Re	0.71821	0.81321	0.18679	0.281
Mof_C 	C 	0.6843	0.8848	0.1152	-0.034
Mof_N 	N 	0.6658	0.9247	0.0753	-0.238
Mof_Re	Re	0.21821	0.31321	0.68679	0.285
Mof_C 	C 	0.1843	0.3848	0.6152	-0.045
Mof_N 	N 	0.1658	0.4247	0.5753	-0.26
Mof_Re	Re	0.28179	0.18679	0.81321	0.285
Mof_C 	C 	0.3157	0.1152	0.8848	-0.037
Mof_N 	N 	0.3342	0.0753	0.9247	-0.239
Mof_Re	Re	0.78179	0.68679	0.31321	0.279
Mof_C 	C 	0.8157	0.6152	0.3848	-0.028
Mof_N 	N 	0.8342	0.5753	0.4247	-0.246
Mof_Re	Re	0.71821	0.81321	0.81321	0.277
Mof_C 	C 	0.6843	0.8848	0.8848	-0.005
Mof_N 	N 	0.6658	0.9247	0.9247	-0.196
Mof_Re	Re	0.21821	0.31321	0.31321	0.288
Mof_C 	C 	0.1843	0.3848	0.3848	-0.046
Mof_N 	N 	0.1658	0.4247	0.4247	-0.26
Mof_Re	Re	0.28179	0.81321	0.18679	0.285
Mof_C 	C 	0.3157	0.8848	0.1152	-0.037
Mof_N 	N 	0.3342	0.9247	0.0753	-0.239
Mof_Re	Re	0.78179	0.31321	0.68679	0.279
Mof_C 	C 	0.8157	0.3848	0.6152	-0.028
Mof_N 	N 	0.8342	0.4247	0.5753	-0.246
Mof_Re	Re	0.71821	0.18679	0.18679	0.284
Mof_C 	C 	0.6843	0.1152	0.1152	-0.066
Mof_N 	N 	0.6658	0.0753	0.0753	-0.284
Mof_Re	Re	0.21821	0.68679	0.68679	0.283
Mof_C 	C 	0.1843	0.6152	0.6152	-0.045
Mof_N 	N 	0.1658	0.5753	0.5753	-0.26
Mof_Re	Re	0.18679	0.18679	0.71821	0.284
Mof_C 	C 	0.1152	0.1152	0.6843	-0.066
Mof_N 	N 	0.0753	0.0753	0.6658	-0.284
Mof_Re	Re	0.68679	0.68679	0.21821	0.283
Mof_C 	C 	0.6152	0.6152	0.1843	-0.045
Mof_N 	N 	0.5753	0.5753	0.1658	-0.26
Mof_Re	Re	0.81321	0.18679	0.28179	0.285
Mof_C 	C 	0.8848	0.1152	0.3157	-0.037
Mof_N 	N 	0.9247	0.0753	0.3342	-0.239
Mof_Re	Re	0.31321	0.68679	0.78179	0.279
Mof_C 	C 	0.3848	0.6152	0.8157	-0.028
Mof_N 	N 	0.4247	0.5753	0.8342	-0.246
Mof_Re	Re	0.81321	0.81321	0.71821	0.277
Mof_C 	C 	0.8848	0.8848	0.6843	-0.005
Mof_N 	N 	0.9247	0.9247	0.6658	-0.196
Mof_Re	Re	0.31321	0.31321	0.21821	0.288
Mof_C 	C 	0.3848	0.3848	0.1843	-0.046
Mof_N 	N 	0.4247	0.4247	0.1658	-0.26
Mof_Re	Re	0.18679	0.81321	0.28179	0.285
Mof_C 	C 	0.1152	0.8848	0.3157	-0.037
Mof_N 	N 	0.0753	0.9247	0.3342	-0.239
Mof_Re	Re	0.68679	0.31321	0.78179	0.279
Mof_C 	C 	0.6152	0.3848	0.8157	-0.028
Mof_N 	N 	0.5753	0.4247	0.8342	-0.246
Mof_Re	Re	0.18679	0.28179	0.81321	0.285
Mof_C 	C 	0.1152	0.3157	0.8848	-0.037
Mof_N 	N 	0.0753	0.3342	0.9247	-0.239
Mof_Re	Re	0.68679	0.78179	0.31321	0.279
Mof_C 	C 	0.6152	0.8157	0.3848	-0.028
Mof_N 	N 	0.5753	0.8342	0.4247	-0.246
Mof_Re	Re	0.18679	0.71821	0.18679	0.284
Mof_C 	C 	0.1152	0.6843	0.1152	-0.066
Mof_N 	N 	0.0753	0.6658	0.0753	-0.284
Mof_Re	Re	0.68679	0.21821	0.68679	0.283
Mof_C 	C 	0.6152	0.1843	0.6152	-0.045
Mof_N 	N 	0.5753	0.1658	0.5753	-0.26
Mof_Re	Re	0.81321	0.28179	0.18679	0.285
Mof_C 	C 	0.8848	0.3157	0.1152	-0.037
Mof_N 	N 	0.9247	0.3342	0.0753	-0.239
Mof_Re	Re	0.31321	0.78179	0.68679	0.279
Mof_C 	C 	0.3848	0.8157	0.6152	-0.028
Mof_N 	N 	0.4247	0.8342	0.5753	-0.246
Mof_Re	Re	0.81321	0.71821	0.81321	0.277
Mof_C 	C 	0.8848	0.6843	0.8848	-0.005
Mof_N 	N 	0.9247	0.6658	0.9247	-0.196
Mof_Re	Re	0.31321	0.21821	0.31321	0.288
Mof_C 	C 	0.3848	0.1843	0.3848	-0.046
Mof_N 	N 	0.4247	0.1658	0.4247	-0.26
Mof_Se	Se	0.28007	0.28007	0.0983	-0.247
Mof_Se	Se	0.78007	0.78007	0.5983	-0.167
Mof_Se	Se	0.71993	0.71993	0.0983	-0.234
Mof_Se	Se	0.21993	0.21993	0.5983	-0.21
Mof_Se	Se	0.71993	0.28007	0.9017	-0.135
Mof_Se	Se	0.21993	0.78007	0.4017	-0.189
Mof_Se	Se	0.28007	0.71993	0.9017	-0.135
Mof_Se	Se	0.78007	0.21993	0.4017	-0.189
Mof_Se	Se	0.0983	0.28007	0.28007	-0.247
Mof_Se	Se	0.5983	0.78007	0.78007	-0.167
Mof_Se	Se	0.0983	0.71993	0.71993	-0.234
Mof_Se	Se	0.5983	0.21993	0.21993	-0.21
Mof_Se	Se	0.9017	0.71993	0.28007	-0.135
Mof_Se	Se	0.4017	0.21993	0.78007	-0.189
Mof_Se	Se	0.9017	0.28007	0.71993	-0.135
Mof_Se	Se	0.4017	0.78007	0.21993	-0.189
Mof_Se	Se	0.28007	0.0983	0.28007	-0.247
Mof_Se	Se	0.78007	0.5983	0.78007	-0.167
Mof_Se	Se	0.71993	0.0983	0.71993	-0.234
Mof_Se	Se	0.21993	0.5983	0.21993	-0.21
Mof_Se	Se	0.28007	0.9017	0.71993	-0.135
Mof_Se	Se	0.78007	0.4017	0.21993	-0.189
Mof_Se	Se	0.71993	0.9017	0.28007	-0.135
Mof_Se	Se	0.21993	0.4017	0.78007	-0.189
Mof_Se	Se	0.28007	0.28007	0.9017	-0.139
Mof_Se	Se	0.78007	0.78007	0.4017	-0.167
Mof_Se	Se	0.71993	0.71993	0.9017	-0.13
Mof_Se	Se	0.21993	0.21993	0.4017	-0.211
Mof_Se	Se	0.28007	0.71993	0.0983	-0.241
Mof_Se	Se	0.78007	0.21993	0.5983	-0.188
Mof_Se	Se	0.71993	0.28007	0.0983	-0.241
Mof_Se	Se	0.21993	0.78007	0.5983	-0.188
Mof_Se	Se	0.28007	0.0983	0.71993	-0.241
Mof_Se	Se	0.78007	0.5983	0.21993	-0.188
Mof_Se	Se	0.71993	0.0983	0.28007	-0.241
Mof_Se	Se	0.21993	0.5983	0.78007	-0.188
Mof_Se	Se	0.71993	0.9017	0.71993	-0.13
Mof_Se	Se	0.21993	0.4017	0.21993	-0.211
Mof_Se	Se	0.28007	0.9017	0.28007	-0.139
Mof_Se	Se	0.78007	0.4017	0.78007	-0.167
Mof_Se	Se	0.0983	0.28007	0.71993	-0.241
Mof_Se	Se	0.5983	0.78007	0.21993	-0.188
Mof_Se	Se	0.0983	0.71993	0.28007	-0.241
Mof_Se	Se	0.5983	0.21993	0.78007	-0.188
Mof_Se	Se	0.9017	0.28007	0.28007	-0.139
Mof_Se	Se	0.4017	0.78007	0.78007	-0.167
Mof_Se	Se	0.9017	0.71993	0.71993	-0.13
Mof_Se	Se	0.4017	0.21993	0.21993	-0.211
Mof_Se	Se	0.15935	0.15935	0.15935	-0.282
Mof_Se	Se	0.65935	0.65935	0.65935	-0.208
Mof_Se	Se	0.84065	0.84065	0.15935	-0.176
Mof_Se	Se	0.34065	0.34065	0.65935	-0.208
Mof_Se	Se	0.84065	0.15935	0.84065	-0.176
Mof_Se	Se	0.34065	0.65935	0.34065	-0.208
Mof_Se	Se	0.15935	0.84065	0.84065	-0.176
Mof_Se	Se	0.65935	0.34065	0.34065	-0.208
Mof_Se	Se	0.15935	0.15935	0.84065	-0.228
Mof_Se	Se	0.65935	0.65935	0.34065	-0.208
Mof_Se	Se	0.84065	0.84065	0.84065	-0.126
Mof_Se	Se	0.34065	0.34065	0.34065	-0.208
Mof_Se	Se	0.15935	0.84065	0.15935	-0.228
Mof_Se	Se	0.65935	0.34065	0.65935	-0.208
Mof_Se	Se	0.84065	0.15935	0.15935	-0.228
Mof_Se	Se	0.34065	0.65935	0.65935	-0.208
Mof_Co	Co	-0	0.3419	-0	0.984
Mof_Co	Co	0.5	0.8419	0.5	1.076
Mof_Co	Co	-0	0.6581	-0	0.987
Mof_Co	Co	0.5	0.1581	0.5	1.059
Mof_Co	Co	1.28192e-33	0	0.3419	0.984
Mof_Co	Co	0.5	0.5	0.8419	1.076
Mof_Co	Co	2.46748e-33	0	0.6581	0.987
Mof_Co	Co	0.5	0.5	0.1581	1.059
Mof_Co	Co	0.3419	0	-0	0.984
Mof_Co	Co	0.8419	0.5	0.5	1.076
Mof_Co	Co	0.6581	0	-0	0.987
Mof_Co	Co	0.1581	0.5	0.5	1.059
_end
