data_functionalizedCrystal
_audit_creation_method	'EQeq! by Chris Wilmer'
_symmetry_space_group_name_H-M	'P1'
_symmetry_Int_Tables_number	1
_symmetry_cell_setting	triclinic
loop_
_symmetry_equiv_pos_as_xyz
  x,y,z
_cell_length_a	7.2556
_cell_length_b	10.7639
_cell_length_c	11.5747
_cell_angle_alpha	90
_cell_angle_beta	90
_cell_angle_gamma	90
loop_
_atom_site_label
_atom_site_type_symbol
_atom_site_fract_x
_atom_site_fract_y
_atom_site_fract_z
_atom_site_charge
Mof_Cd	Cd	0.3606	0.68364	0.20906	0.435
Mof_Cd	Cd	0.8606	0.31636	0.29094	0.435
Mof_Cd	Cd	0.1394	0.18364	0.79094	0.435
Mof_Cd	Cd	0.6394	0.81636	0.70906	0.435
Mof_H 	H 	0.394	0.477	0.479	0.078
Mof_H 	H 	0.121	0.503	0.568	0.033
Mof_H 	H 	0.244	0.617	0.592	0.033
Mof_H 	H 	0.977	0.635	0.416	0.138
Mof_H 	H 	0.097	0.749	0.441	0.131
Mof_H 	H 	0.539	0.607	0.389	0.196
Mof_H 	H 	0.459	0.689	0.443	0.151
Mof_H 	H 	0.894	0.523	0.021	0.076
Mof_H 	H 	0.621	0.497	0.932	0.033
Mof_H 	H 	0.744	0.383	0.908	0.034
Mof_H 	H 	0.477	0.365	0.084	0.138
Mof_H 	H 	0.597	0.251	0.059	0.131
Mof_H 	H 	0.039	0.393	0.111	0.199
Mof_H 	H 	0.959	0.311	0.057	0.151
Mof_H 	H 	0.106	0.977	0.521	0.075
Mof_H 	H 	0.379	0.003	0.432	0.033
Mof_H 	H 	0.256	0.117	0.408	0.034
Mof_H 	H 	0.523	0.135	0.584	0.138
Mof_H 	H 	0.403	0.249	0.559	0.131
Mof_H 	H 	0.961	0.107	0.611	0.196
Mof_H 	H 	0.041	0.189	0.557	0.151
Mof_H 	H 	0.606	0.023	0.979	0.074
Mof_H 	H 	0.879	0.997	0.068	0.034
Mof_H 	H 	0.756	0.883	0.092	0.035
Mof_H 	H 	0.023	0.865	0.916	0.136
Mof_H 	H 	0.903	0.751	0.941	0.13
Mof_H 	H 	0.461	0.893	0.889	0.197
Mof_H 	H 	0.541	0.811	0.943	0.151
Mof_C 	C 	0.2144	0.4621	0.3501	0.318
Mof_C 	C 	0.3212	0.5327	0.4432	-0.107
Mof_C 	C 	0.1858	0.5856	0.5319	0.038
Mof_C 	C 	0.0464	0.6748	0.4803	-0.312
Mof_C 	C 	0.9128	0.7278	0.5689	0.359
Mof_C 	C 	0.7144	0.5379	0.1499	0.317
Mof_C 	C 	0.8212	0.4673	0.0568	-0.105
Mof_C 	C 	0.6858	0.4144	0.9681	0.035
Mof_C 	C 	0.5464	0.3252	0.0197	-0.31
Mof_C 	C 	0.4128	0.2722	0.9311	0.358
Mof_C 	C 	0.2856	0.9621	0.6499	0.317
Mof_C 	C 	0.1788	0.0327	0.5568	-0.104
Mof_C 	C 	0.3142	0.0856	0.4681	0.036
Mof_C 	C 	0.4536	0.1748	0.5197	-0.312
Mof_C 	C 	0.5872	0.2278	0.4311	0.359
Mof_C 	C 	0.7856	0.0379	0.8501	0.316
Mof_C 	C 	0.6788	0.9673	0.9432	-0.102
Mof_C 	C 	0.8142	0.9144	0.0319	0.032
Mof_C 	C 	0.9536	0.8252	0.9803	-0.307
Mof_C 	C 	0.0872	0.7722	0.0689	0.358
Mof_N 	N 	0.4395	0.63	0.394	-0.325
Mof_N 	N 	0.9395	0.37	0.106	-0.327
Mof_N 	N 	0.0605	0.13	0.606	-0.325
Mof_N 	N 	0.5605	0.87	0.894	-0.326
Mof_O 	O 	0.2222	0.4976	0.2466	-0.286
Mof_O 	O 	0.1192	0.3725	0.3853	-0.292
Mof_O 	O 	0.7756	0.7885	0.5312	-0.297
Mof_O 	O 	0.935	0.7128	0.6749	-0.29
Mof_O 	O 	0.7222	0.5024	0.2534	-0.286
Mof_O 	O 	0.6192	0.6275	0.1147	-0.292
Mof_O 	O 	0.2756	0.2115	0.9688	-0.297
Mof_O 	O 	0.435	0.2872	0.8251	-0.29
Mof_O 	O 	0.2778	0.9976	0.7534	-0.286
Mof_O 	O 	0.3808	0.8725	0.6147	-0.292
Mof_O 	O 	0.7244	0.2885	0.4688	-0.297
Mof_O 	O 	0.565	0.2128	0.3251	-0.29
Mof_O 	O 	0.7778	0.0024	0.7466	-0.286
Mof_O 	O 	0.8808	0.1275	0.8853	-0.292
Mof_O 	O 	0.2244	0.7115	0.0312	-0.296
Mof_O 	O 	0.065	0.7872	0.1749	-0.289
_end
