data_functionalizedCrystal
_audit_creation_method	'EQeq! by Chris Wilmer'
_symmetry_space_group_name_H-M	'P1'
_symmetry_Int_Tables_number	1
_symmetry_cell_setting	triclinic
loop_
_symmetry_equiv_pos_as_xyz
  x,y,z
_cell_length_a	9.81
_cell_length_b	12.753
_cell_length_c	10.917
_cell_angle_alpha	90
_cell_angle_beta	100.63
_cell_angle_gamma	90
loop_
_atom_site_label
_atom_site_type_symbol
_atom_site_fract_x
_atom_site_fract_y
_atom_site_fract_z
_atom_site_charge
Mof_C 	C 	0.136	0.5148	0.6775	0.032
Mof_H 	H 	0.1326	0.5238	0.7614	0.024
Mof_N 	N 	0.1395	0.4168	0.6326	-0.203
Mof_C 	C 	0.1458	0.4044	0.5141	0.043
Mof_H 	H 	0.1468	0.3368	0.4822	0.019
Mof_O 	O 	0.2665	0.6926	0.3571	-0.4
Mof_N 	N 	0.6412	0.4241	0.646	-0.212
Mof_C 	C 	0.5299	0.4842	0.6086	0.057
Mof_H 	H 	0.4474	0.4665	0.634	0.015
Mof_O 	O 	0.0183	0.3751	0.8557	-0.433
Mof_O 	O 	0.812	0.3164	0.8775	-0.431
Mof_N 	N 	0.6112	0.1437	0.8533	-0.203
Mof_Co	Co	0.37664	0.78334	0.24877	1.186
Mof_Co	Co	0.87266	0.78184	0.25041	1.188
Mof_O 	O 	0.7686	0.6885	0.3564	-0.4
Mof_O 	O 	0.4788	0.8692	0.1339	-0.445
Mof_O 	O 	0.0498	0.7458	0.3769	-0.404
Mof_C 	C 	0.1536	0.6822	0.3979	0.343
Mof_C 	C 	0.6587	0.6829	0.4044	0.322
Mof_O 	O 	0.5546	0.7487	0.378	-0.393
Mof_C 	C 	0.5991	0.97	0.0088	-0.071
Mof_C 	C 	0.6548	0.5965	0.4926	-0.038
Mof_C 	C 	0.1478	0.5902	0.4789	-0.059
Mof_O 	O 	0.6943	0.8267	0.1259	-0.456
Mof_C 	C 	0.4814	0.0283	0.9629	-0.041
Mof_H 	H 	0.3969	0.0101	0.984	0.064
Mof_C 	C 	0.7219	0.998	0.9733	-0.034
Mof_H 	H 	0.8021	0.9592	-0	0.061
Mof_N 	N 	0.8849	0.6474	0.1356	-0.201
Mof_C 	C 	0.724	0.0851	0.8971	0.03
Mof_H 	H 	0.8079	0.104	0.8751	0.026
Mof_C 	C 	0.89	0.5478	0.1794	0.025
Mof_H 	H 	0.8899	0.5373	0.2637	0.024
Mof_C 	C 	0.8915	0.5746	0.9315	-0.04
Mof_H 	H 	0.8933	0.5858	0.8476	0.049
Mof_C 	C 	0.1372	0.6022	0.6037	-0.052
Mof_H 	H 	0.131	0.6688	0.6369	0.056
Mof_C 	C 	0.8849	0.6583	0.0113	0.021
Mof_H 	H 	0.8802	0.7257	0.9782	0.028
Mof_C 	C 	0.151	0.4894	0.4348	-0.055
Mof_H 	H 	0.1566	0.4779	0.3518	0.054
Mof_C 	C 	0.7702	0.5353	0.5347	-0.069
Mof_H 	H 	0.8547	0.5508	0.5118	0.071
Mof_C 	C 	0.7583	0.4499	0.6122	0.054
Mof_H 	H 	0.8367	0.4097	0.641	0.012
Mof_C 	C 	0.8953	0.4604	0.1037	-0.047
Mof_H 	H 	0.8988	0.3935	0.1379	0.051
Mof_C 	C 	0.8954	0.4731	0.9799	-0.063
Mof_C 	C 	0.4892	0.1129	0.8866	0.03
Mof_H 	H 	0.4088	0.1507	0.8565	0.021
Mof_C 	C 	0.5314	0.5717	0.5337	-0.074
Mof_H 	H 	0.4526	0.613	0.5113	0.077
Mof_C 	C 	0.9081	0.3768	0.8946	0.408
Mof_C 	C 	0.5914	0.8784	0.1004	0.439
Mof_C 	C 	0.864	0.0148	0.3225	0.023
Mof_H 	H 	0.8674	0.0238	0.2386	0.023
Mof_N 	N 	0.8605	0.9168	0.3674	-0.2
Mof_C 	C 	0.8542	0.9044	0.4859	0.039
Mof_H 	H 	0.8532	0.8368	0.5178	0.02
Mof_O 	O 	0.7335	0.1926	0.6429	-0.401
Mof_N 	N 	0.3588	0.9241	0.354	-0.215
Mof_C 	C 	0.4701	0.9842	0.3914	0.068
Mof_H 	H 	0.5526	0.9665	0.366	0.012
Mof_O 	O 	0.9817	0.8751	0.1443	-0.434
Mof_O 	O 	0.188	0.8164	0.1225	-0.432
Mof_N 	N 	0.3888	0.6437	0.1467	-0.207
Mof_Co	Co	0.62336	0.28334	0.75123	1.186
Mof_Co	Co	0.12734	0.28184	0.74959	1.188
Mof_O 	O 	0.2314	0.1885	0.6436	-0.399
Mof_O 	O 	0.5212	0.3692	0.8661	-0.442
Mof_O 	O 	0.9502	0.2458	0.6231	-0.406
Mof_C 	C 	0.8464	0.1822	0.6021	0.346
Mof_C 	C 	0.3413	0.1829	0.5956	0.319
Mof_O 	O 	0.4454	0.2487	0.622	-0.392
Mof_C 	C 	0.4009	0.47	0.9912	-0.049
Mof_C 	C 	0.3452	0.0965	0.5074	-0.03
Mof_C 	C 	0.8522	0.0902	0.5211	-0.068
Mof_O 	O 	0.3057	0.3267	0.8741	-0.453
Mof_C 	C 	0.5186	0.5283	0.0371	-0.058
Mof_H 	H 	0.6031	0.5101	0.016	0.069
Mof_C 	C 	0.2781	0.498	0.0267	-0.067
Mof_H 	H 	0.1979	0.4592	-0	0.072
Mof_N 	N 	0.1151	0.1474	0.8644	-0.204
Mof_C 	C 	0.276	0.5851	0.1029	0.048
Mof_H 	H 	0.1921	0.604	0.1249	0.02
Mof_C 	C 	0.11	0.0478	0.8206	0.018
Mof_H 	H 	0.1101	0.0373	0.7363	0.025
Mof_C 	C 	0.1085	0.0746	0.0685	-0.063
Mof_H 	H 	0.1067	0.0858	0.1524	0.055
Mof_C 	C 	0.8628	0.1022	0.3963	-0.046
Mof_H 	H 	0.869	0.1688	0.3631	0.052
Mof_C 	C 	0.1151	0.1583	0.9887	0.046
Mof_H 	H 	0.1198	0.2257	0.0218	0.014
Mof_C 	C 	0.849	0.9894	0.5652	-0.045
Mof_H 	H 	0.8434	0.9779	0.6482	0.052
Mof_C 	C 	0.2298	0.0353	0.4653	-0.082
Mof_H 	H 	0.1453	0.0508	0.4882	0.075
Mof_C 	C 	0.2417	0.9499	0.3878	0.065
Mof_H 	H 	0.1633	0.9097	0.359	0.009
Mof_C 	C 	0.1047	0.9604	0.8963	-0.035
Mof_H 	H 	0.1012	0.8935	0.8621	0.049
Mof_C 	C 	0.1046	0.9731	0.0201	-0.061
Mof_C 	C 	0.5108	0.6129	0.1134	0.039
Mof_H 	H 	0.5912	0.6507	0.1435	0.018
Mof_C 	C 	0.4686	0.0717	0.4663	-0.087
Mof_H 	H 	0.5474	0.113	0.4887	0.081
Mof_C 	C 	0.0919	0.8768	0.1054	0.408
Mof_C 	C 	0.4086	0.3784	0.8996	0.431
_end
