# CIF file generated by openbabel 3.1.0, see https://openbabel.org
data_I
_chemical_name_common 'XUWVUG_clean_h'
_cell_length_a 3.689
_cell_length_b 17.64
_cell_length_c 12.385
_cell_angle_alpha 91.247
_cell_angle_beta 90
_cell_angle_gamma 90
_space_group_name_H-M_alt 'P 1'
_space_group_name_Hall 'P 1'
loop_
    _symmetry_equiv_pos_as_xyz
    x,y,z
loop_
    _atom_site_label
    _atom_site_type_symbol
    _atom_site_fract_x
    _atom_site_fract_y
    _atom_site_fract_z
    _atom_site_occupancy
    Eu1      Eu       0.75000    0.90510    0.44850    1.000
    Eu2      Eu       0.25000    0.73270    0.29050    1.000
    Eu3      Eu       0.75000    0.54080    0.36880    1.000
    Eu4      Eu       0.25000    0.09490    0.55150    1.000
    Eu5      Eu       0.75000    0.26730    0.70950    1.000
    Eu6      Eu       0.25000    0.45920    0.63120    1.000
    C1       C        0.64000    0.72600    0.71800    1.000
    C2       C        0.54500    0.58800    0.73300    1.000
    C3       C        0.77000    0.86200    0.69700    1.000
    C4       C        0.83000    0.72600    0.94100    1.000
    C5       C        0.73000    0.66300    0.88600    1.000
    C6       C        0.87000    0.79500    0.87000    1.000
    C7       C        0.85400    0.78700    0.75900    1.000
    C8       C        0.58500    0.66400    0.78100    1.000
    C9       C        0.98000    0.73800    0.04100    1.000
    C10      C        0.14000    0.27400    0.28200    1.000
    C11      C        0.04500    0.41200    0.26700    1.000
    C12      C        0.27000    0.13800    0.30300    1.000
    C13      C        0.33000    0.27400    0.05900    1.000
    C14      C        0.23000    0.33700    0.11400    1.000
    C15      C        0.37000    0.20500    0.13000    1.000
    C16      C        0.35400    0.21300    0.24100    1.000
    C17      C        0.08500    0.33600    0.21900    1.000
    C18      C        0.48000    0.26200    0.95900    1.000
    O1       O        0.73500    0.04800    0.44600    1.000
    O2       O        0.25000    0.59600    0.28100    1.000
    O3       O        0.75500    0.82900    0.28400    1.000
    O4       O        0.23500    0.81300    0.45600    1.000
    O5       O        0.75500    0.68500    0.39400    1.000
    O6       O        0.80500    0.54300    0.70100    1.000
    O7       O        0.24000    0.94900    0.32200    1.000
    O8       O        0.19000    0.79400    0.07500    1.000
    O9       O        0.66000    0.84900    0.60900    1.000
    O10      O        0.28000    0.55300    0.77900    1.000
    O11      O        0.25000    0.56100    0.49600    1.000
    O12      O        0.79500    0.71400    0.13000    1.000
    O13      O        0.60500    0.91200    0.76000    1.000
    O14      O        0.23500    0.95200    0.55400    1.000
    O15      O        0.75000    0.40400    0.71900    1.000
    O16      O        0.25500    0.17100    0.71600    1.000
    O17      O        0.73500    0.18700    0.54400    1.000
    O18      O        0.25500    0.31500    0.60600    1.000
    O19      O        0.30500    0.45700    0.29900    1.000
    O20      O        0.74000    0.05100    0.67800    1.000
    O21      O        0.69000    0.20600    0.92500    1.000
    O22      O        0.16000    0.15100    0.39100    1.000
    O23      O        0.78000    0.44700    0.22100    1.000
    O24      O        0.75000    0.43900    0.50400    1.000
    O25      O        0.29500    0.28600    0.87000    1.000
    O26      O        0.10500    0.08800    0.24000    1.000
    H1       H        0.51656    0.72895    0.63381    1.000
    H2       H        0.76107    0.60516    0.92425    1.000
    H3       H        0.91337    0.85358    0.90853    1.000
    H4       H        0.01656    0.27105    0.36619    1.000
    H5       H        0.26107    0.39484    0.07575    1.000
    H6       H        0.41337    0.14642    0.09147    1.000
