data_functionalizedCrystal
_audit_creation_method	'EQeq! by Chris Wilmer'
_symmetry_space_group_name_H-M	'P1'
_symmetry_Int_Tables_number	1
_symmetry_cell_setting	triclinic
loop_
_symmetry_equiv_pos_as_xyz
  x,y,z
_cell_length_a	15.0441
_cell_length_b	26.821
_cell_length_c	31.4116
_cell_angle_alpha	90
_cell_angle_beta	90
_cell_angle_gamma	90
loop_
_atom_site_label
_atom_site_type_symbol
_atom_site_fract_x
_atom_site_fract_y
_atom_site_fract_z
_atom_site_charge
Mof_O 	O 	0.6047	0.5656	0.3714	-0.499
Mof_O 	O 	0.74	0.5894	0.3575	-0.498
Mof_O 	O 	0.896	0.4353	0.5227	-0.568
Mof_O 	O 	0.7603	0.4127	0.5354	-0.507
Mof_C 	C 	0.6862	0.5633	0.3784	0.301
Mof_C 	C 	0.815	0.4387	0.5143	0.371
Mof_N 	N 	0.923	0.5212	0.4786	-0.218
Mof_H 	H 	0.9457	0.5036	0.4987	0.117
Mof_H 	H 	0.9525	0.5453	0.4675	0.126
Mof_C 	C 	0.802	0.5397	0.4306	-0.124
Mof_H 	H 	0.8366	0.5654	0.4196	0.09
Mof_C 	C 	0.8346	0.5102	0.4635	-0.021
Mof_C 	C 	0.7828	0.4719	0.48	-0.15
Mof_C 	C 	0.6985	0.4629	0.4635	0.031
Mof_H 	H 	0.6639	0.4373	0.4745	0.019
Mof_C 	C 	0.666	0.4924	0.4306	-0.019
Mof_H 	H 	0.6096	0.4864	0.4196	0.032
Mof_C 	C 	0.7178	0.5307	0.4141	-0.013
Mof_N 	N 	0.934	0.4877	0.4555	-0.259
Mof_H 	H 	0.9576	0.4715	0.4763	0.142
Mof_H 	H 	0.9679	0.5013	0.4366	0.129
Mof_C 	C 	0.806	0.5215	0.4177	0.002
Mof_H 	H 	0.8452	0.5344	0.3977	0.034
Mof_C 	C 	0.839	0.4919	0.4521	0.191
Mof_C 	C 	0.692	0.478	0.4725	-0.017
Mof_H 	H 	0.6523	0.4621	0.4907	0.041
Mof_C 	C 	0.6579	0.5061	0.4398	-0.044
Mof_H 	H 	0.597	0.5083	0.4352	0.051
Mof_O 	O 	0.6047	0.0656	0.8714	-0.5
Mof_O 	O 	0.74	0.0894	0.8575	-0.499
Mof_O 	O 	0.896	0.9353	0.0227	-0.568
Mof_O 	O 	0.7603	0.9127	0.0354	-0.508
Mof_C 	C 	0.6862	0.0633	0.8784	0.3
Mof_C 	C 	0.815	0.9387	0.0143	0.37
Mof_N 	N 	0.923	0.0212	0.9786	-0.223
Mof_H 	H 	0.9457	0.0036	0.9987	0.117
Mof_H 	H 	0.9525	0.0453	0.9675	0.126
Mof_C 	C 	0.802	0.0397	0.9306	-0.11
Mof_H 	H 	0.8366	0.0654	0.9196	0.084
Mof_C 	C 	0.8346	0.0102	0.9635	0.002
Mof_C 	C 	0.7828	0.9719	0.98	-0.149
Mof_C 	C 	0.6985	0.9629	0.9635	0.028
Mof_H 	H 	0.6639	0.9373	0.9745	0.02
Mof_C 	C 	0.666	0.9924	0.9306	-0.022
Mof_H 	H 	0.6096	0.9864	0.9196	0.033
Mof_C 	C 	0.7178	0.0307	0.9141	-0.012
Mof_N 	N 	0.934	0.9877	0.9555	-0.254
Mof_H 	H 	0.9576	0.9715	0.9763	0.141
Mof_H 	H 	0.9679	0.0013	0.9366	0.128
Mof_C 	C 	0.806	0.0215	0.9177	-0.014
Mof_H 	H 	0.8452	0.0344	0.8977	0.039
Mof_C 	C 	0.839	0.9919	0.9521	0.167
Mof_C 	C 	0.692	0.978	0.9725	-0.014
Mof_H 	H 	0.6523	0.9621	0.9907	0.04
Mof_C 	C 	0.6579	0.0061	0.9398	-0.041
Mof_H 	H 	0.597	0.0083	0.9352	0.049
Mof_O 	O 	0.1047	0.5656	0.8714	-0.5
Mof_O 	O 	0.24	0.5894	0.8575	-0.499
Mof_O 	O 	0.396	0.4353	0.0227	-0.569
Mof_O 	O 	0.2603	0.4127	0.0354	-0.508
Mof_C 	C 	0.1862	0.5633	0.8784	0.3
Mof_C 	C 	0.315	0.4387	0.0143	0.37
Mof_N 	N 	0.423	0.5212	0.9786	-0.219
Mof_H 	H 	0.4457	0.5036	0.9987	0.116
Mof_H 	H 	0.4525	0.5453	0.9675	0.125
Mof_C 	C 	0.302	0.5397	0.9306	-0.124
Mof_H 	H 	0.3366	0.5654	0.9196	0.089
Mof_C 	C 	0.3346	0.5102	0.9635	-0.02
Mof_C 	C 	0.2828	0.4719	0.98	-0.15
Mof_C 	C 	0.1985	0.4629	0.9635	0.031
Mof_H 	H 	0.1639	0.4373	0.9745	0.019
Mof_C 	C 	0.166	0.4924	0.9306	-0.019
Mof_H 	H 	0.1096	0.4864	0.9196	0.032
Mof_C 	C 	0.2178	0.5307	0.9141	-0.013
Mof_N 	N 	0.434	0.4877	0.9555	-0.259
Mof_H 	H 	0.4576	0.4715	0.9763	0.142
Mof_H 	H 	0.4679	0.5013	0.9366	0.129
Mof_C 	C 	0.306	0.5215	0.9177	0.001
Mof_H 	H 	0.3452	0.5344	0.8977	0.034
Mof_C 	C 	0.339	0.4919	0.9521	0.19
Mof_C 	C 	0.192	0.478	0.9725	-0.017
Mof_H 	H 	0.1523	0.4621	0.9907	0.041
Mof_C 	C 	0.1579	0.5061	0.9398	-0.044
Mof_H 	H 	0.097	0.5083	0.9352	0.05
Mof_O 	O 	0.1047	0.0656	0.3714	-0.5
Mof_O 	O 	0.24	0.0894	0.3575	-0.499
Mof_O 	O 	0.396	0.9353	0.5227	-0.569
Mof_O 	O 	0.2603	0.9127	0.5354	-0.508
Mof_C 	C 	0.1862	0.0633	0.3784	0.3
Mof_C 	C 	0.315	0.9387	0.5143	0.37
Mof_N 	N 	0.423	0.0212	0.4786	-0.217
Mof_H 	H 	0.4457	0.0036	0.4987	0.116
Mof_H 	H 	0.4525	0.0453	0.4675	0.124
Mof_C 	C 	0.302	0.0397	0.4306	-0.132
Mof_H 	H 	0.3366	0.0654	0.4196	0.092
Mof_C 	C 	0.3346	0.0102	0.4635	-0.033
Mof_C 	C 	0.2828	0.9719	0.48	-0.151
Mof_C 	C 	0.1985	0.9629	0.4635	0.032
Mof_H 	H 	0.1639	0.9373	0.4745	0.018
Mof_C 	C 	0.166	0.9924	0.4306	-0.017
Mof_H 	H 	0.1096	0.9864	0.4196	0.031
Mof_C 	C 	0.2178	0.0307	0.4141	-0.013
Mof_N 	N 	0.434	0.9877	0.4555	-0.261
Mof_H 	H 	0.4576	0.9715	0.4763	0.142
Mof_H 	H 	0.4679	0.0013	0.4366	0.129
Mof_C 	C 	0.306	0.0215	0.4177	0.009
Mof_H 	H 	0.3452	0.0344	0.3977	0.031
Mof_C 	C 	0.339	0.9919	0.4521	0.203
Mof_C 	C 	0.192	0.978	0.4725	-0.018
Mof_H 	H 	0.1523	0.9621	0.4907	0.041
Mof_C 	C 	0.1579	0.0061	0.4398	-0.046
Mof_H 	H 	0.097	0.0083	0.4352	0.052
Mof_O 	O 	0.1453	0.1844	0.3714	-0.5
Mof_O 	O 	0.01	0.1606	0.3575	-0.499
Mof_O 	O 	0.854	0.3147	0.5227	-0.569
Mof_O 	O 	0.9897	0.3373	0.5354	-0.508
Mof_C 	C 	0.0638	0.1867	0.3784	0.3
Mof_C 	C 	0.935	0.3113	0.5143	0.37
Mof_N 	N 	0.827	0.2288	0.4786	-0.219
Mof_H 	H 	0.8043	0.2464	0.4987	0.116
Mof_H 	H 	0.7975	0.2047	0.4675	0.125
Mof_C 	C 	0.948	0.2103	0.4306	-0.124
Mof_H 	H 	0.9134	0.1846	0.4196	0.089
Mof_C 	C 	0.9154	0.2398	0.4635	-0.02
Mof_C 	C 	0.9672	0.2781	0.48	-0.151
Mof_C 	C 	0.0515	0.2871	0.4635	0.031
Mof_H 	H 	0.0861	0.3127	0.4745	0.019
Mof_C 	C 	0.084	0.2576	0.4306	-0.019
Mof_H 	H 	0.1404	0.2636	0.4196	0.032
Mof_C 	C 	0.0322	0.2193	0.4141	-0.013
Mof_N 	N 	0.816	0.2623	0.4555	-0.259
Mof_H 	H 	0.7924	0.2785	0.4763	0.142
Mof_H 	H 	0.7821	0.2487	0.4366	0.129
Mof_C 	C 	0.944	0.2285	0.4177	0
Mof_H 	H 	0.9048	0.2156	0.3977	0.034
Mof_C 	C 	0.911	0.2581	0.4521	0.19
Mof_C 	C 	0.058	0.272	0.4725	-0.017
Mof_H 	H 	0.0977	0.2879	0.4907	0.041
Mof_C 	C 	0.0921	0.2439	0.4398	-0.044
Mof_H 	H 	0.153	0.2417	0.4352	0.051
Mof_O 	O 	0.1453	0.6844	0.8714	-0.5
Mof_O 	O 	0.01	0.6606	0.8575	-0.499
Mof_O 	O 	0.854	0.8147	0.0227	-0.569
Mof_O 	O 	0.9897	0.8373	0.0354	-0.508
Mof_C 	C 	0.0638	0.6867	0.8784	0.3
Mof_C 	C 	0.935	0.8113	0.0143	0.37
Mof_N 	N 	0.827	0.7288	0.9786	-0.22
Mof_H 	H 	0.8043	0.7464	0.9987	0.117
Mof_H 	H 	0.7975	0.7047	0.9675	0.125
Mof_C 	C 	0.948	0.7103	0.9306	-0.121
Mof_H 	H 	0.9134	0.6846	0.9196	0.088
Mof_C 	C 	0.9154	0.7398	0.9635	-0.015
Mof_C 	C 	0.9672	0.7781	0.98	-0.15
Mof_C 	C 	0.0515	0.7871	0.9635	0.03
Mof_H 	H 	0.0861	0.8127	0.9745	0.019
Mof_C 	C 	0.084	0.7576	0.9306	-0.019
Mof_H 	H 	0.1404	0.7636	0.9196	0.032
Mof_C 	C 	0.0322	0.7193	0.9141	-0.013
Mof_N 	N 	0.816	0.7623	0.9555	-0.258
Mof_H 	H 	0.7924	0.7785	0.9763	0.142
Mof_H 	H 	0.7821	0.7487	0.9366	0.129
Mof_C 	C 	0.944	0.7285	0.9177	-0.003
Mof_H 	H 	0.9048	0.7156	0.8977	0.035
Mof_C 	C 	0.911	0.7581	0.9521	0.184
Mof_C 	C 	0.058	0.772	0.9725	-0.016
Mof_H 	H 	0.0977	0.7879	0.9907	0.04
Mof_C 	C 	0.0921	0.7439	0.9398	-0.044
Mof_H 	H 	0.153	0.7417	0.9352	0.05
Mof_O 	O 	0.6453	0.1844	0.8714	-0.5
Mof_O 	O 	0.51	0.1606	0.8575	-0.499
Mof_O 	O 	0.354	0.3147	0.0227	-0.569
Mof_O 	O 	0.4897	0.3373	0.0354	-0.508
Mof_C 	C 	0.5638	0.1867	0.8784	0.3
Mof_C 	C 	0.435	0.3113	0.0143	0.37
Mof_N 	N 	0.327	0.2288	0.9786	-0.219
Mof_H 	H 	0.3043	0.2464	0.9987	0.116
Mof_H 	H 	0.2975	0.2047	0.9675	0.125
Mof_C 	C 	0.448	0.2103	0.9306	-0.124
Mof_H 	H 	0.4134	0.1846	0.9196	0.089
Mof_C 	C 	0.4154	0.2398	0.9635	-0.021
Mof_C 	C 	0.4672	0.2781	0.98	-0.15
Mof_C 	C 	0.5515	0.2871	0.9635	0.031
Mof_H 	H 	0.5861	0.3127	0.9745	0.019
Mof_C 	C 	0.584	0.2576	0.9306	-0.019
Mof_H 	H 	0.6404	0.2636	0.9196	0.032
Mof_C 	C 	0.5322	0.2193	0.9141	-0.013
Mof_N 	N 	0.316	0.2623	0.9555	-0.259
Mof_H 	H 	0.2924	0.2785	0.9763	0.142
Mof_H 	H 	0.2821	0.2487	0.9366	0.129
Mof_C 	C 	0.444	0.2285	0.9177	0.001
Mof_H 	H 	0.4048	0.2156	0.8977	0.034
Mof_C 	C 	0.411	0.2581	0.9521	0.19
Mof_C 	C 	0.558	0.272	0.9725	-0.017
Mof_H 	H 	0.5977	0.2879	0.9907	0.041
Mof_C 	C 	0.5921	0.2439	0.9398	-0.044
Mof_H 	H 	0.653	0.2417	0.9352	0.05
Mof_O 	O 	0.6453	0.6844	0.3714	-0.5
Mof_O 	O 	0.51	0.6606	0.3575	-0.499
Mof_O 	O 	0.354	0.8147	0.5227	-0.569
Mof_O 	O 	0.4897	0.8373	0.5354	-0.508
Mof_C 	C 	0.5638	0.6867	0.3784	0.3
Mof_C 	C 	0.435	0.8113	0.5143	0.37
Mof_N 	N 	0.327	0.7288	0.4786	-0.218
Mof_H 	H 	0.3043	0.7464	0.4987	0.116
Mof_H 	H 	0.2975	0.7047	0.4675	0.125
Mof_C 	C 	0.448	0.7103	0.4306	-0.127
Mof_H 	H 	0.4134	0.6846	0.4196	0.09
Mof_C 	C 	0.4154	0.7398	0.4635	-0.024
Mof_C 	C 	0.4672	0.7781	0.48	-0.151
Mof_C 	C 	0.5515	0.7871	0.4635	0.031
Mof_H 	H 	0.5861	0.8127	0.4745	0.019
Mof_C 	C 	0.584	0.7576	0.4306	-0.018
Mof_H 	H 	0.6404	0.7636	0.4196	0.032
Mof_C 	C 	0.5322	0.7193	0.4141	-0.013
Mof_N 	N 	0.316	0.7623	0.4555	-0.259
Mof_H 	H 	0.2924	0.7785	0.4763	0.142
Mof_H 	H 	0.2821	0.7487	0.4366	0.129
Mof_C 	C 	0.444	0.7285	0.4177	0.003
Mof_H 	H 	0.4048	0.7156	0.3977	0.033
Mof_C 	C 	0.411	0.7581	0.4521	0.194
Mof_C 	C 	0.558	0.772	0.4725	-0.017
Mof_H 	H 	0.5977	0.7879	0.4907	0.041
Mof_C 	C 	0.5921	0.7439	0.4398	-0.045
Mof_H 	H 	0.653	0.7417	0.4352	0.051
Mof_O 	O 	0.8547	0.4344	0.6214	-0.5
Mof_O 	O 	0.99	0.4106	0.6075	-0.499
Mof_O 	O 	0.146	0.5647	0.7727	-0.569
Mof_O 	O 	0.0103	0.5873	0.7854	-0.508
Mof_C 	C 	0.9362	0.4367	0.6284	0.3
Mof_C 	C 	0.065	0.5613	0.7643	0.37
Mof_N 	N 	0.173	0.4788	0.7286	-0.219
Mof_H 	H 	0.1957	0.4964	0.7487	0.116
Mof_H 	H 	0.2025	0.4547	0.7175	0.125
Mof_C 	C 	0.052	0.4603	0.6806	-0.125
Mof_H 	H 	0.0866	0.4346	0.6696	0.089
Mof_C 	C 	0.0846	0.4898	0.7135	-0.021
Mof_C 	C 	0.0328	0.5281	0.73	-0.151
Mof_C 	C 	0.9485	0.5371	0.7135	0.031
Mof_H 	H 	0.9139	0.5627	0.7245	0.019
Mof_C 	C 	0.916	0.5076	0.6806	-0.019
Mof_H 	H 	0.8596	0.5136	0.6696	0.032
Mof_C 	C 	0.9678	0.4693	0.6641	-0.013
Mof_N 	N 	0.184	0.5123	0.7055	-0.259
Mof_H 	H 	0.2076	0.5285	0.7263	0.142
Mof_H 	H 	0.2179	0.4987	0.6866	0.129
Mof_C 	C 	0.056	0.4785	0.6677	0.001
Mof_H 	H 	0.0952	0.4656	0.6477	0.034
Mof_C 	C 	0.089	0.5081	0.7021	0.191
Mof_C 	C 	0.942	0.522	0.7225	-0.017
Mof_H 	H 	0.9023	0.5379	0.7407	0.041
Mof_C 	C 	0.9079	0.4939	0.6898	-0.044
Mof_H 	H 	0.847	0.4917	0.6852	0.05
Mof_O 	O 	0.8547	0.9344	0.1214	-0.5
Mof_O 	O 	0.99	0.9106	0.1075	-0.498
Mof_O 	O 	0.146	0.0647	0.2727	-0.568
Mof_O 	O 	0.0103	0.0873	0.2854	-0.508
Mof_C 	C 	0.9362	0.9367	0.1284	0.3
Mof_C 	C 	0.065	0.0613	0.2643	0.369
Mof_N 	N 	0.173	0.9788	0.2286	-0.224
Mof_H 	H 	0.1957	0.9964	0.2487	0.118
Mof_H 	H 	0.2025	0.9547	0.2175	0.126
Mof_C 	C 	0.052	0.9603	0.1806	-0.108
Mof_H 	H 	0.0866	0.9346	0.1696	0.083
Mof_C 	C 	0.0846	0.9898	0.2135	0.006
Mof_C 	C 	0.0328	0.0281	0.23	-0.148
Mof_C 	C 	0.9485	0.0371	0.2135	0.028
Mof_H 	H 	0.9139	0.0627	0.2245	0.02
Mof_C 	C 	0.916	0.0076	0.1806	-0.02
Mof_H 	H 	0.8596	0.0136	0.1696	0.032
Mof_C 	C 	0.9678	0.9693	0.1641	-0.012
Mof_N 	N 	0.184	0.0123	0.2055	-0.254
Mof_H 	H 	0.2076	0.0285	0.2263	0.141
Mof_H 	H 	0.2179	0.9987	0.1866	0.128
Mof_C 	C 	0.056	0.9785	0.1677	-0.017
Mof_H 	H 	0.0952	0.9656	0.1477	0.039
Mof_C 	C 	0.089	0.0081	0.2021	0.163
Mof_C 	C 	0.942	0.022	0.2225	-0.015
Mof_H 	H 	0.9023	0.0379	0.2407	0.04
Mof_C 	C 	0.9079	0.9939	0.1898	-0.043
Mof_H 	H 	0.847	0.9917	0.1852	0.05
Mof_O 	O 	0.3547	0.4344	0.1214	-0.5
Mof_O 	O 	0.49	0.4106	0.1075	-0.499
Mof_O 	O 	0.646	0.5647	0.2727	-0.569
Mof_O 	O 	0.5103	0.5873	0.2854	-0.508
Mof_C 	C 	0.4362	0.4367	0.1284	0.3
Mof_C 	C 	0.565	0.5613	0.2643	0.37
Mof_N 	N 	0.673	0.4788	0.2286	-0.219
Mof_H 	H 	0.6957	0.4964	0.2487	0.116
Mof_H 	H 	0.7025	0.4547	0.2175	0.125
Mof_C 	C 	0.552	0.4603	0.1806	-0.125
Mof_H 	H 	0.5866	0.4346	0.1696	0.089
Mof_C 	C 	0.5846	0.4898	0.2135	-0.021
Mof_C 	C 	0.5328	0.5281	0.23	-0.15
Mof_C 	C 	0.4485	0.5371	0.2135	0.031
Mof_H 	H 	0.4139	0.5627	0.2245	0.019
Mof_C 	C 	0.416	0.5076	0.1806	-0.019
Mof_H 	H 	0.3596	0.5136	0.1696	0.032
Mof_C 	C 	0.4678	0.4693	0.1641	-0.013
Mof_N 	N 	0.684	0.5123	0.2055	-0.259
Mof_H 	H 	0.7076	0.5285	0.2263	0.142
Mof_H 	H 	0.7179	0.4987	0.1866	0.129
Mof_C 	C 	0.556	0.4785	0.1677	0.001
Mof_H 	H 	0.5952	0.4656	0.1477	0.034
Mof_C 	C 	0.589	0.5081	0.2021	0.191
Mof_C 	C 	0.442	0.522	0.2225	-0.017
Mof_H 	H 	0.4023	0.5379	0.2407	0.041
Mof_C 	C 	0.4079	0.4939	0.1898	-0.044
Mof_H 	H 	0.347	0.4917	0.1852	0.05
Mof_O 	O 	0.3547	0.9344	0.6214	-0.5
Mof_O 	O 	0.49	0.9106	0.6075	-0.498
Mof_O 	O 	0.646	0.0647	0.7727	-0.569
Mof_O 	O 	0.5103	0.0873	0.7854	-0.508
Mof_C 	C 	0.4362	0.9367	0.6284	0.3
Mof_C 	C 	0.565	0.0613	0.7643	0.37
Mof_N 	N 	0.673	0.9788	0.7286	-0.217
Mof_H 	H 	0.6957	0.9964	0.7487	0.116
Mof_H 	H 	0.7025	0.9547	0.7175	0.125
Mof_C 	C 	0.552	0.9603	0.6806	-0.131
Mof_H 	H 	0.5866	0.9346	0.6696	0.091
Mof_C 	C 	0.5846	0.9898	0.7135	-0.03
Mof_C 	C 	0.5328	0.0281	0.73	-0.151
Mof_C 	C 	0.4485	0.0371	0.7135	0.032
Mof_H 	H 	0.4139	0.0627	0.7245	0.018
Mof_C 	C 	0.416	0.0076	0.6806	-0.018
Mof_H 	H 	0.3596	0.0136	0.6696	0.032
Mof_C 	C 	0.4678	0.9693	0.6641	-0.013
Mof_N 	N 	0.684	0.0123	0.7055	-0.261
Mof_H 	H 	0.7076	0.0285	0.7263	0.142
Mof_H 	H 	0.7179	0.9987	0.6866	0.129
Mof_C 	C 	0.556	0.9785	0.6677	0.007
Mof_H 	H 	0.5952	0.9656	0.6477	0.032
Mof_C 	C 	0.589	0.0081	0.7021	0.2
Mof_C 	C 	0.442	0.022	0.7225	-0.018
Mof_H 	H 	0.4023	0.0379	0.7407	0.041
Mof_C 	C 	0.4079	0.9939	0.6898	-0.045
Mof_H 	H 	0.347	0.9917	0.6852	0.051
Mof_O 	O 	0.3953	0.8156	0.6214	-0.5
Mof_O 	O 	0.26	0.8394	0.6075	-0.499
Mof_O 	O 	0.104	0.6853	0.7727	-0.569
Mof_O 	O 	0.2397	0.6627	0.7854	-0.508
Mof_C 	C 	0.3138	0.8133	0.6284	0.3
Mof_C 	C 	0.185	0.6887	0.7643	0.37
Mof_N 	N 	0.077	0.7712	0.7286	-0.219
Mof_H 	H 	0.0543	0.7536	0.7487	0.116
Mof_H 	H 	0.0475	0.7953	0.7175	0.125
Mof_C 	C 	0.198	0.7897	0.6806	-0.125
Mof_H 	H 	0.1634	0.8154	0.6696	0.089
Mof_C 	C 	0.1654	0.7602	0.7135	-0.022
Mof_C 	C 	0.2172	0.7219	0.73	-0.15
Mof_C 	C 	0.3015	0.7129	0.7135	0.031
Mof_H 	H 	0.3361	0.6873	0.7245	0.019
Mof_C 	C 	0.334	0.7424	0.6806	-0.019
Mof_H 	H 	0.3904	0.7364	0.6696	0.032
Mof_C 	C 	0.2822	0.7807	0.6641	-0.013
Mof_N 	N 	0.066	0.7377	0.7055	-0.259
Mof_H 	H 	0.0424	0.7215	0.7263	0.142
Mof_H 	H 	0.0321	0.7513	0.6866	0.129
Mof_C 	C 	0.194	0.7715	0.6677	0.002
Mof_H 	H 	0.1548	0.7844	0.6477	0.033
Mof_C 	C 	0.161	0.7419	0.7021	0.192
Mof_C 	C 	0.308	0.728	0.7225	-0.017
Mof_H 	H 	0.3477	0.7121	0.7407	0.041
Mof_C 	C 	0.3421	0.7561	0.6898	-0.044
Mof_H 	H 	0.403	0.7583	0.6852	0.051
Mof_O 	O 	0.3953	0.3156	0.1214	-0.5
Mof_O 	O 	0.26	0.3394	0.1075	-0.499
Mof_O 	O 	0.104	0.1853	0.2727	-0.569
Mof_O 	O 	0.2397	0.1627	0.2854	-0.508
Mof_C 	C 	0.3138	0.3133	0.1284	0.3
Mof_C 	C 	0.185	0.1887	0.2643	0.37
Mof_N 	N 	0.077	0.2712	0.2286	-0.22
Mof_H 	H 	0.0543	0.2536	0.2487	0.117
Mof_H 	H 	0.0475	0.2953	0.2175	0.125
Mof_C 	C 	0.198	0.2897	0.1806	-0.121
Mof_H 	H 	0.1634	0.3154	0.1696	0.088
Mof_C 	C 	0.1654	0.2602	0.2135	-0.016
Mof_C 	C 	0.2172	0.2219	0.23	-0.15
Mof_C 	C 	0.3015	0.2129	0.2135	0.03
Mof_H 	H 	0.3361	0.1873	0.2245	0.019
Mof_C 	C 	0.334	0.2424	0.1806	-0.019
Mof_H 	H 	0.3904	0.2364	0.1696	0.032
Mof_C 	C 	0.2822	0.2807	0.1641	-0.013
Mof_N 	N 	0.066	0.2377	0.2055	-0.258
Mof_H 	H 	0.0424	0.2215	0.2263	0.142
Mof_H 	H 	0.0321	0.2513	0.1866	0.129
Mof_C 	C 	0.194	0.2715	0.1677	-0.002
Mof_H 	H 	0.1548	0.2844	0.1477	0.035
Mof_C 	C 	0.161	0.2419	0.2021	0.186
Mof_C 	C 	0.308	0.228	0.2225	-0.016
Mof_H 	H 	0.3477	0.2121	0.2407	0.04
Mof_C 	C 	0.3421	0.2561	0.1898	-0.044
Mof_H 	H 	0.403	0.2583	0.1852	0.05
Mof_O 	O 	0.8953	0.8156	0.1214	-0.5
Mof_O 	O 	0.76	0.8394	0.1075	-0.499
Mof_O 	O 	0.604	0.6853	0.2727	-0.569
Mof_O 	O 	0.7397	0.6627	0.2854	-0.508
Mof_C 	C 	0.8138	0.8133	0.1284	0.3
Mof_C 	C 	0.685	0.6887	0.2643	0.37
Mof_N 	N 	0.577	0.7712	0.2286	-0.219
Mof_H 	H 	0.5543	0.7536	0.2487	0.116
Mof_H 	H 	0.5475	0.7953	0.2175	0.125
Mof_C 	C 	0.698	0.7897	0.1806	-0.124
Mof_H 	H 	0.6634	0.8154	0.1696	0.089
Mof_C 	C 	0.6654	0.7602	0.2135	-0.02
Mof_C 	C 	0.7172	0.7219	0.23	-0.15
Mof_C 	C 	0.8015	0.7129	0.2135	0.031
Mof_H 	H 	0.8361	0.6873	0.2245	0.019
Mof_C 	C 	0.834	0.7424	0.1806	-0.019
Mof_H 	H 	0.8904	0.7364	0.1696	0.032
Mof_C 	C 	0.7822	0.7807	0.1641	-0.013
Mof_N 	N 	0.566	0.7377	0.2055	-0.259
Mof_H 	H 	0.5424	0.7215	0.2263	0.142
Mof_H 	H 	0.5321	0.7513	0.1866	0.129
Mof_C 	C 	0.694	0.7715	0.1677	0
Mof_H 	H 	0.6548	0.7844	0.1477	0.034
Mof_C 	C 	0.661	0.7419	0.2021	0.19
Mof_C 	C 	0.808	0.728	0.2225	-0.017
Mof_H 	H 	0.8477	0.7121	0.2407	0.041
Mof_C 	C 	0.8421	0.7561	0.1898	-0.044
Mof_H 	H 	0.903	0.7583	0.1852	0.05
Mof_O 	O 	0.8953	0.3156	0.6214	-0.5
Mof_O 	O 	0.76	0.3394	0.6075	-0.499
Mof_O 	O 	0.604	0.1853	0.7727	-0.569
Mof_O 	O 	0.7397	0.1627	0.7854	-0.508
Mof_C 	C 	0.8138	0.3133	0.6284	0.3
Mof_C 	C 	0.685	0.1887	0.7643	0.37
Mof_N 	N 	0.577	0.2712	0.7286	-0.218
Mof_H 	H 	0.5543	0.2536	0.7487	0.116
Mof_H 	H 	0.5475	0.2953	0.7175	0.125
Mof_C 	C 	0.698	0.2897	0.6806	-0.126
Mof_H 	H 	0.6634	0.3154	0.6696	0.09
Mof_C 	C 	0.6654	0.2602	0.7135	-0.024
Mof_C 	C 	0.7172	0.2219	0.73	-0.151
Mof_C 	C 	0.8015	0.2129	0.7135	0.031
Mof_H 	H 	0.8361	0.1873	0.7245	0.019
Mof_C 	C 	0.834	0.2424	0.6806	-0.018
Mof_H 	H 	0.8904	0.2364	0.6696	0.032
Mof_C 	C 	0.7822	0.2807	0.6641	-0.013
Mof_N 	N 	0.566	0.2377	0.7055	-0.259
Mof_H 	H 	0.5424	0.2215	0.7263	0.142
Mof_H 	H 	0.5321	0.2513	0.6866	0.129
Mof_C 	C 	0.694	0.2715	0.6677	0.003
Mof_H 	H 	0.6548	0.2844	0.6477	0.033
Mof_C 	C 	0.661	0.2419	0.7021	0.193
Mof_C 	C 	0.808	0.228	0.7225	-0.017
Mof_H 	H 	0.8477	0.2121	0.7407	0.041
Mof_C 	C 	0.8421	0.2561	0.6898	-0.045
Mof_H 	H 	0.903	0.2583	0.6852	0.051
Mof_In	In	0.625	0.625	0.32068	2.545
Mof_In	In	0.625	0.125	0.82068	2.544
Mof_In	In	0.125	0.125	0.32068	2.545
Mof_In	In	0.125	0.625	0.82068	2.544
Mof_In	In	0.875	0.375	0.57068	2.544
Mof_In	In	0.875	0.875	0.07068	2.544
Mof_In	In	0.375	0.875	0.57068	2.545
Mof_In	In	0.375	0.375	0.07068	2.544
Mof_O 	O 	0.1453	0.5656	0.3786	-0.5
Mof_O 	O 	0.01	0.5894	0.3925	-0.499
Mof_O 	O 	0.854	0.4353	0.2273	-0.569
Mof_O 	O 	0.9897	0.4127	0.2146	-0.508
Mof_C 	C 	0.0638	0.5633	0.3716	0.3
Mof_C 	C 	0.935	0.4387	0.2357	0.37
Mof_N 	N 	0.827	0.5212	0.2714	-0.219
Mof_H 	H 	0.8043	0.5036	0.2513	0.116
Mof_H 	H 	0.7975	0.5453	0.2825	0.125
Mof_C 	C 	0.948	0.5397	0.3194	-0.125
Mof_H 	H 	0.9134	0.5654	0.3304	0.089
Mof_C 	C 	0.9154	0.5102	0.2865	-0.021
Mof_C 	C 	0.9672	0.4719	0.27	-0.151
Mof_C 	C 	0.0515	0.4629	0.2865	0.031
Mof_H 	H 	0.0861	0.4373	0.2755	0.019
Mof_C 	C 	0.084	0.4924	0.3194	-0.019
Mof_H 	H 	0.1404	0.4864	0.3304	0.032
Mof_C 	C 	0.0322	0.5307	0.3359	-0.013
Mof_N 	N 	0.816	0.4877	0.2945	-0.259
Mof_H 	H 	0.7924	0.4715	0.2737	0.142
Mof_H 	H 	0.7821	0.5013	0.3134	0.129
Mof_C 	C 	0.944	0.5215	0.3323	0.001
Mof_H 	H 	0.9048	0.5344	0.3523	0.034
Mof_C 	C 	0.911	0.4919	0.2979	0.191
Mof_C 	C 	0.058	0.478	0.2775	-0.017
Mof_H 	H 	0.0977	0.4621	0.2593	0.041
Mof_C 	C 	0.0921	0.5061	0.3102	-0.044
Mof_H 	H 	0.153	0.5083	0.3148	0.05
Mof_O 	O 	0.1453	0.0656	0.8786	-0.5
Mof_O 	O 	0.01	0.0894	0.8925	-0.498
Mof_O 	O 	0.854	0.9353	0.7273	-0.568
Mof_O 	O 	0.9897	0.9127	0.7146	-0.508
Mof_C 	C 	0.0638	0.0633	0.8716	0.3
Mof_C 	C 	0.935	0.9387	0.7357	0.369
Mof_N 	N 	0.827	0.0212	0.7714	-0.224
Mof_H 	H 	0.8043	0.0036	0.7513	0.118
Mof_H 	H 	0.7975	0.0453	0.7825	0.126
Mof_C 	C 	0.948	0.0397	0.8194	-0.108
Mof_H 	H 	0.9134	0.0654	0.8304	0.083
Mof_C 	C 	0.9154	0.0102	0.7865	0.006
Mof_C 	C 	0.9672	0.9719	0.77	-0.148
Mof_C 	C 	0.0515	0.9629	0.7865	0.028
Mof_H 	H 	0.0861	0.9373	0.7755	0.02
Mof_C 	C 	0.084	0.9924	0.8194	-0.02
Mof_H 	H 	0.1404	0.9864	0.8304	0.032
Mof_C 	C 	0.0322	0.0307	0.8359	-0.012
Mof_N 	N 	0.816	0.9877	0.7945	-0.254
Mof_H 	H 	0.7924	0.9715	0.7737	0.141
Mof_H 	H 	0.7821	0.0013	0.8134	0.128
Mof_C 	C 	0.944	0.0215	0.8323	-0.017
Mof_H 	H 	0.9048	0.0344	0.8523	0.039
Mof_C 	C 	0.911	0.9919	0.7979	0.163
Mof_C 	C 	0.058	0.978	0.7775	-0.015
Mof_H 	H 	0.0977	0.9621	0.7593	0.04
Mof_C 	C 	0.0921	0.0061	0.8102	-0.043
Mof_H 	H 	0.153	0.0083	0.8148	0.05
Mof_O 	O 	0.6453	0.5656	0.8786	-0.5
Mof_O 	O 	0.51	0.5894	0.8925	-0.499
Mof_O 	O 	0.354	0.4353	0.7273	-0.569
Mof_O 	O 	0.4897	0.4127	0.7146	-0.508
Mof_C 	C 	0.5638	0.5633	0.8716	0.3
Mof_C 	C 	0.435	0.4387	0.7357	0.37
Mof_N 	N 	0.327	0.5212	0.7714	-0.219
Mof_H 	H 	0.3043	0.5036	0.7513	0.116
Mof_H 	H 	0.2975	0.5453	0.7825	0.125
Mof_C 	C 	0.448	0.5397	0.8194	-0.125
Mof_H 	H 	0.4134	0.5654	0.8304	0.089
Mof_C 	C 	0.4154	0.5102	0.7865	-0.021
Mof_C 	C 	0.4672	0.4719	0.77	-0.15
Mof_C 	C 	0.5515	0.4629	0.7865	0.031
Mof_H 	H 	0.5861	0.4373	0.7755	0.019
Mof_C 	C 	0.584	0.4924	0.8194	-0.019
Mof_H 	H 	0.6404	0.4864	0.8304	0.032
Mof_C 	C 	0.5322	0.5307	0.8359	-0.013
Mof_N 	N 	0.316	0.4877	0.7945	-0.259
Mof_H 	H 	0.2924	0.4715	0.7737	0.142
Mof_H 	H 	0.2821	0.5013	0.8134	0.129
Mof_C 	C 	0.444	0.5215	0.8323	0.001
Mof_H 	H 	0.4048	0.5344	0.8523	0.034
Mof_C 	C 	0.411	0.4919	0.7979	0.191
Mof_C 	C 	0.558	0.478	0.7775	-0.017
Mof_H 	H 	0.5977	0.4621	0.7593	0.041
Mof_C 	C 	0.5921	0.5061	0.8102	-0.044
Mof_H 	H 	0.653	0.5083	0.8148	0.05
Mof_O 	O 	0.6453	0.0656	0.3786	-0.5
Mof_O 	O 	0.51	0.0894	0.3925	-0.498
Mof_O 	O 	0.354	0.9353	0.2273	-0.569
Mof_O 	O 	0.4897	0.9127	0.2146	-0.508
Mof_C 	C 	0.5638	0.0633	0.3716	0.3
Mof_C 	C 	0.435	0.9387	0.2357	0.37
Mof_N 	N 	0.327	0.0212	0.2714	-0.217
Mof_H 	H 	0.3043	0.0036	0.2513	0.116
Mof_H 	H 	0.2975	0.0453	0.2825	0.125
Mof_C 	C 	0.448	0.0397	0.3194	-0.131
Mof_H 	H 	0.4134	0.0654	0.3304	0.091
Mof_C 	C 	0.4154	0.0102	0.2865	-0.03
Mof_C 	C 	0.4672	0.9719	0.27	-0.151
Mof_C 	C 	0.5515	0.9629	0.2865	0.032
Mof_H 	H 	0.5861	0.9373	0.2755	0.018
Mof_C 	C 	0.584	0.9924	0.3194	-0.018
Mof_H 	H 	0.6404	0.9864	0.3304	0.032
Mof_C 	C 	0.5322	0.0307	0.3359	-0.013
Mof_N 	N 	0.316	0.9877	0.2945	-0.261
Mof_H 	H 	0.2924	0.9715	0.2737	0.142
Mof_H 	H 	0.2821	0.0013	0.3134	0.129
Mof_C 	C 	0.444	0.0215	0.3323	0.007
Mof_H 	H 	0.4048	0.0344	0.3523	0.032
Mof_C 	C 	0.411	0.9919	0.2979	0.2
Mof_C 	C 	0.558	0.978	0.2775	-0.018
Mof_H 	H 	0.5977	0.9621	0.2593	0.041
Mof_C 	C 	0.5921	0.0061	0.3102	-0.045
Mof_H 	H 	0.653	0.0083	0.3148	0.051
Mof_O 	O 	0.6047	0.1844	0.3786	-0.5
Mof_O 	O 	0.74	0.1606	0.3925	-0.499
Mof_O 	O 	0.896	0.3147	0.2273	-0.569
Mof_O 	O 	0.7603	0.3373	0.2146	-0.508
Mof_C 	C 	0.6862	0.1867	0.3716	0.3
Mof_C 	C 	0.815	0.3113	0.2357	0.37
Mof_N 	N 	0.923	0.2288	0.2714	-0.219
Mof_H 	H 	0.9457	0.2464	0.2513	0.116
Mof_H 	H 	0.9525	0.2047	0.2825	0.125
Mof_C 	C 	0.802	0.2103	0.3194	-0.125
Mof_H 	H 	0.8366	0.1846	0.3304	0.089
Mof_C 	C 	0.8346	0.2398	0.2865	-0.022
Mof_C 	C 	0.7828	0.2781	0.27	-0.15
Mof_C 	C 	0.6985	0.2871	0.2865	0.031
Mof_H 	H 	0.6639	0.3127	0.2755	0.019
Mof_C 	C 	0.666	0.2576	0.3194	-0.019
Mof_H 	H 	0.6096	0.2636	0.3304	0.032
Mof_C 	C 	0.7178	0.2193	0.3359	-0.013
Mof_N 	N 	0.934	0.2623	0.2945	-0.259
Mof_H 	H 	0.9576	0.2785	0.2737	0.142
Mof_H 	H 	0.9679	0.2487	0.3134	0.129
Mof_C 	C 	0.806	0.2285	0.3323	0.002
Mof_H 	H 	0.8452	0.2156	0.3523	0.033
Mof_C 	C 	0.839	0.2581	0.2979	0.192
Mof_C 	C 	0.692	0.272	0.2775	-0.017
Mof_H 	H 	0.6523	0.2879	0.2593	0.041
Mof_C 	C 	0.6579	0.2439	0.3102	-0.044
Mof_H 	H 	0.597	0.2417	0.3148	0.051
Mof_O 	O 	0.6047	0.6844	0.8786	-0.5
Mof_O 	O 	0.74	0.6606	0.8925	-0.499
Mof_O 	O 	0.896	0.8147	0.7273	-0.569
Mof_O 	O 	0.7603	0.8373	0.7146	-0.508
Mof_C 	C 	0.6862	0.6867	0.8716	0.3
Mof_C 	C 	0.815	0.8113	0.7357	0.37
Mof_N 	N 	0.923	0.7288	0.7714	-0.22
Mof_H 	H 	0.9457	0.7464	0.7513	0.117
Mof_H 	H 	0.9525	0.7047	0.7825	0.125
Mof_C 	C 	0.802	0.7103	0.8194	-0.121
Mof_H 	H 	0.8366	0.6846	0.8304	0.088
Mof_C 	C 	0.8346	0.7398	0.7865	-0.016
Mof_C 	C 	0.7828	0.7781	0.77	-0.15
Mof_C 	C 	0.6985	0.7871	0.7865	0.03
Mof_H 	H 	0.6639	0.8127	0.7755	0.019
Mof_C 	C 	0.666	0.7576	0.8194	-0.019
Mof_H 	H 	0.6096	0.7636	0.8304	0.032
Mof_C 	C 	0.7178	0.7193	0.8359	-0.013
Mof_N 	N 	0.934	0.7623	0.7945	-0.258
Mof_H 	H 	0.9576	0.7785	0.7737	0.142
Mof_H 	H 	0.9679	0.7487	0.8134	0.129
Mof_C 	C 	0.806	0.7285	0.8323	-0.002
Mof_H 	H 	0.8452	0.7156	0.8523	0.035
Mof_C 	C 	0.839	0.7581	0.7979	0.186
Mof_C 	C 	0.692	0.772	0.7775	-0.016
Mof_H 	H 	0.6523	0.7879	0.7593	0.04
Mof_C 	C 	0.6579	0.7439	0.8102	-0.044
Mof_H 	H 	0.597	0.7417	0.8148	0.05
Mof_O 	O 	0.1047	0.1844	0.8786	-0.5
Mof_O 	O 	0.24	0.1606	0.8925	-0.499
Mof_O 	O 	0.396	0.3147	0.7273	-0.569
Mof_O 	O 	0.2603	0.3373	0.7146	-0.508
Mof_C 	C 	0.1862	0.1867	0.8716	0.3
Mof_C 	C 	0.315	0.3113	0.7357	0.37
Mof_N 	N 	0.423	0.2288	0.7714	-0.219
Mof_H 	H 	0.4457	0.2464	0.7513	0.116
Mof_H 	H 	0.4525	0.2047	0.7825	0.125
Mof_C 	C 	0.302	0.2103	0.8194	-0.124
Mof_H 	H 	0.3366	0.1846	0.8304	0.089
Mof_C 	C 	0.3346	0.2398	0.7865	-0.02
Mof_C 	C 	0.2828	0.2781	0.77	-0.15
Mof_C 	C 	0.1985	0.2871	0.7865	0.031
Mof_H 	H 	0.1639	0.3127	0.7755	0.019
Mof_C 	C 	0.166	0.2576	0.8194	-0.019
Mof_H 	H 	0.1096	0.2636	0.8304	0.032
Mof_C 	C 	0.2178	0.2193	0.8359	-0.013
Mof_N 	N 	0.434	0.2623	0.7945	-0.259
Mof_H 	H 	0.4576	0.2785	0.7737	0.142
Mof_H 	H 	0.4679	0.2487	0.8134	0.129
Mof_C 	C 	0.306	0.2285	0.8323	0
Mof_H 	H 	0.3452	0.2156	0.8523	0.034
Mof_C 	C 	0.339	0.2581	0.7979	0.19
Mof_C 	C 	0.192	0.272	0.7775	-0.017
Mof_H 	H 	0.1523	0.2879	0.7593	0.041
Mof_C 	C 	0.1579	0.2439	0.8102	-0.044
Mof_H 	H 	0.097	0.2417	0.8148	0.05
Mof_O 	O 	0.1047	0.6844	0.3786	-0.5
Mof_O 	O 	0.24	0.6606	0.3925	-0.499
Mof_O 	O 	0.396	0.8147	0.2273	-0.569
Mof_O 	O 	0.2603	0.8373	0.2146	-0.508
Mof_C 	C 	0.1862	0.6867	0.3716	0.3
Mof_C 	C 	0.315	0.8113	0.2357	0.37
Mof_N 	N 	0.423	0.7288	0.2714	-0.218
Mof_H 	H 	0.4457	0.7464	0.2513	0.116
Mof_H 	H 	0.4525	0.7047	0.2825	0.125
Mof_C 	C 	0.302	0.7103	0.3194	-0.126
Mof_H 	H 	0.3366	0.6846	0.3304	0.09
Mof_C 	C 	0.3346	0.7398	0.2865	-0.024
Mof_C 	C 	0.2828	0.7781	0.27	-0.151
Mof_C 	C 	0.1985	0.7871	0.2865	0.031
Mof_H 	H 	0.1639	0.8127	0.2755	0.019
Mof_C 	C 	0.166	0.7576	0.3194	-0.018
Mof_H 	H 	0.1096	0.7636	0.3304	0.032
Mof_C 	C 	0.2178	0.7193	0.3359	-0.013
Mof_N 	N 	0.434	0.7623	0.2945	-0.259
Mof_H 	H 	0.4576	0.7785	0.2737	0.142
Mof_H 	H 	0.4679	0.7487	0.3134	0.129
Mof_C 	C 	0.306	0.7285	0.3323	0.003
Mof_H 	H 	0.3452	0.7156	0.3523	0.033
Mof_C 	C 	0.339	0.7581	0.2979	0.193
Mof_C 	C 	0.192	0.772	0.2775	-0.017
Mof_H 	H 	0.1523	0.7879	0.2593	0.041
Mof_C 	C 	0.1579	0.7439	0.3102	-0.045
Mof_H 	H 	0.097	0.7417	0.3148	0.051
Mof_O 	O 	0.3953	0.4344	0.6286	-0.5
Mof_O 	O 	0.26	0.4106	0.6425	-0.499
Mof_O 	O 	0.104	0.5647	0.4773	-0.569
Mof_O 	O 	0.2397	0.5873	0.4646	-0.508
Mof_C 	C 	0.3138	0.4367	0.6216	0.3
Mof_C 	C 	0.185	0.5613	0.4857	0.37
Mof_N 	N 	0.077	0.4788	0.5214	-0.219
Mof_H 	H 	0.0543	0.4964	0.5013	0.116
Mof_H 	H 	0.0475	0.4547	0.5325	0.125
Mof_C 	C 	0.198	0.4603	0.5694	-0.125
Mof_H 	H 	0.1634	0.4346	0.5804	0.089
Mof_C 	C 	0.1654	0.4898	0.5365	-0.022
Mof_C 	C 	0.2172	0.5281	0.52	-0.15
Mof_C 	C 	0.3015	0.5371	0.5365	0.031
Mof_H 	H 	0.3361	0.5627	0.5255	0.019
Mof_C 	C 	0.334	0.5076	0.5694	-0.019
Mof_H 	H 	0.3904	0.5136	0.5804	0.032
Mof_C 	C 	0.2822	0.4693	0.5859	-0.013
Mof_N 	N 	0.066	0.5123	0.5445	-0.259
Mof_H 	H 	0.0424	0.5285	0.5237	0.142
Mof_H 	H 	0.0321	0.4987	0.5634	0.129
Mof_C 	C 	0.194	0.4785	0.5823	0.002
Mof_H 	H 	0.1548	0.4656	0.6023	0.034
Mof_C 	C 	0.161	0.5081	0.5479	0.191
Mof_C 	C 	0.308	0.522	0.5275	-0.017
Mof_H 	H 	0.3477	0.5379	0.5093	0.041
Mof_C 	C 	0.3421	0.4939	0.5602	-0.044
Mof_H 	H 	0.403	0.4917	0.5648	0.051
Mof_O 	O 	0.3953	0.9344	0.1286	-0.5
Mof_O 	O 	0.26	0.9106	0.1425	-0.499
Mof_O 	O 	0.104	0.0647	0.9773	-0.568
Mof_O 	O 	0.2397	0.0873	0.9646	-0.508
Mof_C 	C 	0.3138	0.9367	0.1216	0.3
Mof_C 	C 	0.185	0.0613	0.9857	0.37
Mof_N 	N 	0.077	0.9788	0.0214	-0.223
Mof_H 	H 	0.0543	0.9964	0.0013	0.117
Mof_H 	H 	0.0475	0.9547	0.0325	0.126
Mof_C 	C 	0.198	0.9603	0.0694	-0.11
Mof_H 	H 	0.1634	0.9346	0.0804	0.084
Mof_C 	C 	0.1654	0.9898	0.0365	0.002
Mof_C 	C 	0.2172	0.0281	0.02	-0.149
Mof_C 	C 	0.3015	0.0371	0.0365	0.028
Mof_H 	H 	0.3361	0.0627	0.0255	0.02
Mof_C 	C 	0.334	0.0076	0.0694	-0.022
Mof_H 	H 	0.3904	0.0136	0.0804	0.033
Mof_C 	C 	0.2822	0.9693	0.0859	-0.012
Mof_N 	N 	0.066	0.0123	0.0445	-0.254
Mof_H 	H 	0.0424	0.0285	0.0237	0.141
Mof_H 	H 	0.0321	0.9987	0.0634	0.128
Mof_C 	C 	0.194	0.9785	0.0823	-0.014
Mof_H 	H 	0.1548	0.9656	0.1023	0.039
Mof_C 	C 	0.161	0.0081	0.0479	0.167
Mof_C 	C 	0.308	0.022	0.0275	-0.014
Mof_H 	H 	0.3477	0.0379	0.0093	0.04
Mof_C 	C 	0.3421	0.9939	0.0602	-0.041
Mof_H 	H 	0.403	0.9917	0.0648	0.049
Mof_O 	O 	0.8953	0.4344	0.1286	-0.5
Mof_O 	O 	0.76	0.4106	0.1425	-0.499
Mof_O 	O 	0.604	0.5647	0.9773	-0.569
Mof_O 	O 	0.7397	0.5873	0.9646	-0.508
Mof_C 	C 	0.8138	0.4367	0.1216	0.3
Mof_C 	C 	0.685	0.5613	0.9857	0.37
Mof_N 	N 	0.577	0.4788	0.0214	-0.219
Mof_H 	H 	0.5543	0.4964	0.0013	0.116
Mof_H 	H 	0.5475	0.4547	0.0325	0.125
Mof_C 	C 	0.698	0.4603	0.0694	-0.124
Mof_H 	H 	0.6634	0.4346	0.0804	0.089
Mof_C 	C 	0.6654	0.4898	0.0365	-0.02
Mof_C 	C 	0.7172	0.5281	0.02	-0.15
Mof_C 	C 	0.8015	0.5371	0.0365	0.031
Mof_H 	H 	0.8361	0.5627	0.0255	0.019
Mof_C 	C 	0.834	0.5076	0.0694	-0.019
Mof_H 	H 	0.8904	0.5136	0.0804	0.032
Mof_C 	C 	0.7822	0.4693	0.0859	-0.013
Mof_N 	N 	0.566	0.5123	0.0445	-0.259
Mof_H 	H 	0.5424	0.5285	0.0237	0.142
Mof_H 	H 	0.5321	0.4987	0.0634	0.129
Mof_C 	C 	0.694	0.4785	0.0823	0.001
Mof_H 	H 	0.6548	0.4656	0.1023	0.034
Mof_C 	C 	0.661	0.5081	0.0479	0.19
Mof_C 	C 	0.808	0.522	0.0275	-0.017
Mof_H 	H 	0.8477	0.5379	0.0093	0.041
Mof_C 	C 	0.8421	0.4939	0.0602	-0.044
Mof_H 	H 	0.903	0.4917	0.0648	0.05
Mof_O 	O 	0.8953	0.9344	0.6286	-0.5
Mof_O 	O 	0.76	0.9106	0.6425	-0.499
Mof_O 	O 	0.604	0.0647	0.4773	-0.569
Mof_O 	O 	0.7397	0.0873	0.4646	-0.508
Mof_C 	C 	0.8138	0.9367	0.6216	0.3
Mof_C 	C 	0.685	0.0613	0.4857	0.37
Mof_N 	N 	0.577	0.9788	0.5214	-0.217
Mof_H 	H 	0.5543	0.9964	0.5013	0.116
Mof_H 	H 	0.5475	0.9547	0.5325	0.124
Mof_C 	C 	0.698	0.9603	0.5694	-0.132
Mof_H 	H 	0.6634	0.9346	0.5804	0.092
Mof_C 	C 	0.6654	0.9898	0.5365	-0.033
Mof_C 	C 	0.7172	0.0281	0.52	-0.151
Mof_C 	C 	0.8015	0.0371	0.5365	0.032
Mof_H 	H 	0.8361	0.0627	0.5255	0.018
Mof_C 	C 	0.834	0.0076	0.5694	-0.017
Mof_H 	H 	0.8904	0.0136	0.5804	0.031
Mof_C 	C 	0.7822	0.9693	0.5859	-0.013
Mof_N 	N 	0.566	0.0123	0.5445	-0.261
Mof_H 	H 	0.5424	0.0285	0.5237	0.142
Mof_H 	H 	0.5321	0.9987	0.5634	0.129
Mof_C 	C 	0.694	0.9785	0.5823	0.009
Mof_H 	H 	0.6548	0.9656	0.6023	0.031
Mof_C 	C 	0.661	0.0081	0.5479	0.203
Mof_C 	C 	0.808	0.022	0.5275	-0.018
Mof_H 	H 	0.8477	0.0379	0.5093	0.041
Mof_C 	C 	0.8421	0.9939	0.5602	-0.046
Mof_H 	H 	0.903	0.9917	0.5648	0.052
Mof_O 	O 	0.8547	0.8156	0.6286	-0.5
Mof_O 	O 	0.99	0.8394	0.6425	-0.499
Mof_O 	O 	0.146	0.6853	0.4773	-0.569
Mof_O 	O 	0.0103	0.6627	0.4646	-0.508
Mof_C 	C 	0.9362	0.8133	0.6216	0.3
Mof_C 	C 	0.065	0.6887	0.4857	0.37
Mof_N 	N 	0.173	0.7712	0.5214	-0.219
Mof_H 	H 	0.1957	0.7536	0.5013	0.116
Mof_H 	H 	0.2025	0.7953	0.5325	0.125
Mof_C 	C 	0.052	0.7897	0.5694	-0.124
Mof_H 	H 	0.0866	0.8154	0.5804	0.089
Mof_C 	C 	0.0846	0.7602	0.5365	-0.02
Mof_C 	C 	0.0328	0.7219	0.52	-0.151
Mof_C 	C 	0.9485	0.7129	0.5365	0.031
Mof_H 	H 	0.9139	0.6873	0.5255	0.019
Mof_C 	C 	0.916	0.7424	0.5694	-0.019
Mof_H 	H 	0.8596	0.7364	0.5804	0.032
Mof_C 	C 	0.9678	0.7807	0.5859	-0.013
Mof_N 	N 	0.184	0.7377	0.5445	-0.259
Mof_H 	H 	0.2076	0.7215	0.5237	0.142
Mof_H 	H 	0.2179	0.7513	0.5634	0.129
Mof_C 	C 	0.056	0.7715	0.5823	0
Mof_H 	H 	0.0952	0.7844	0.6023	0.034
Mof_C 	C 	0.089	0.7419	0.5479	0.19
Mof_C 	C 	0.942	0.728	0.5275	-0.017
Mof_H 	H 	0.9023	0.7121	0.5093	0.041
Mof_C 	C 	0.9079	0.7561	0.5602	-0.044
Mof_H 	H 	0.847	0.7583	0.5648	0.051
Mof_O 	O 	0.8547	0.3156	0.1286	-0.5
Mof_O 	O 	0.99	0.3394	0.1425	-0.499
Mof_O 	O 	0.146	0.1853	0.9773	-0.569
Mof_O 	O 	0.0103	0.1627	0.9646	-0.508
Mof_C 	C 	0.9362	0.3133	0.1216	0.3
Mof_C 	C 	0.065	0.1887	0.9857	0.37
Mof_N 	N 	0.173	0.2712	0.0214	-0.22
Mof_H 	H 	0.1957	0.2536	0.0013	0.117
Mof_H 	H 	0.2025	0.2953	0.0325	0.125
Mof_C 	C 	0.052	0.2897	0.0694	-0.121
Mof_H 	H 	0.0866	0.3154	0.0804	0.088
Mof_C 	C 	0.0846	0.2602	0.0365	-0.015
Mof_C 	C 	0.0328	0.2219	0.02	-0.15
Mof_C 	C 	0.9485	0.2129	0.0365	0.03
Mof_H 	H 	0.9139	0.1873	0.0255	0.019
Mof_C 	C 	0.916	0.2424	0.0694	-0.019
Mof_H 	H 	0.8596	0.2364	0.0804	0.032
Mof_C 	C 	0.9678	0.2807	0.0859	-0.013
Mof_N 	N 	0.184	0.2377	0.0445	-0.258
Mof_H 	H 	0.2076	0.2215	0.0237	0.142
Mof_H 	H 	0.2179	0.2513	0.0634	0.129
Mof_C 	C 	0.056	0.2715	0.0823	-0.003
Mof_H 	H 	0.0952	0.2844	0.1023	0.035
Mof_C 	C 	0.089	0.2419	0.0479	0.184
Mof_C 	C 	0.942	0.228	0.0275	-0.016
Mof_H 	H 	0.9023	0.2121	0.0093	0.04
Mof_C 	C 	0.9079	0.2561	0.0602	-0.044
Mof_H 	H 	0.847	0.2583	0.0648	0.05
Mof_O 	O 	0.3547	0.8156	0.1286	-0.5
Mof_O 	O 	0.49	0.8394	0.1425	-0.499
Mof_O 	O 	0.646	0.6853	0.9773	-0.569
Mof_O 	O 	0.5103	0.6627	0.9646	-0.508
Mof_C 	C 	0.4362	0.8133	0.1216	0.3
Mof_C 	C 	0.565	0.6887	0.9857	0.37
Mof_N 	N 	0.673	0.7712	0.0214	-0.219
Mof_H 	H 	0.6957	0.7536	0.0013	0.116
Mof_H 	H 	0.7025	0.7953	0.0325	0.125
Mof_C 	C 	0.552	0.7897	0.0694	-0.124
Mof_H 	H 	0.5866	0.8154	0.0804	0.089
Mof_C 	C 	0.5846	0.7602	0.0365	-0.021
Mof_C 	C 	0.5328	0.7219	0.02	-0.15
Mof_C 	C 	0.4485	0.7129	0.0365	0.031
Mof_H 	H 	0.4139	0.6873	0.0255	0.019
Mof_C 	C 	0.416	0.7424	0.0694	-0.019
Mof_H 	H 	0.3596	0.7364	0.0804	0.032
Mof_C 	C 	0.4678	0.7807	0.0859	-0.013
Mof_N 	N 	0.684	0.7377	0.0445	-0.259
Mof_H 	H 	0.7076	0.7215	0.0237	0.142
Mof_H 	H 	0.7179	0.7513	0.0634	0.129
Mof_C 	C 	0.556	0.7715	0.0823	0.001
Mof_H 	H 	0.5952	0.7844	0.1023	0.034
Mof_C 	C 	0.589	0.7419	0.0479	0.19
Mof_C 	C 	0.442	0.728	0.0275	-0.017
Mof_H 	H 	0.4023	0.7121	0.0093	0.041
Mof_C 	C 	0.4079	0.7561	0.0602	-0.044
Mof_H 	H 	0.347	0.7583	0.0648	0.05
Mof_O 	O 	0.3547	0.3156	0.6286	-0.5
Mof_O 	O 	0.49	0.3394	0.6425	-0.499
Mof_O 	O 	0.646	0.1853	0.4773	-0.569
Mof_O 	O 	0.5103	0.1627	0.4646	-0.508
Mof_C 	C 	0.4362	0.3133	0.6216	0.3
Mof_C 	C 	0.565	0.1887	0.4857	0.37
Mof_N 	N 	0.673	0.2712	0.5214	-0.218
Mof_H 	H 	0.6957	0.2536	0.5013	0.116
Mof_H 	H 	0.7025	0.2953	0.5325	0.125
Mof_C 	C 	0.552	0.2897	0.5694	-0.127
Mof_H 	H 	0.5866	0.3154	0.5804	0.09
Mof_C 	C 	0.5846	0.2602	0.5365	-0.024
Mof_C 	C 	0.5328	0.2219	0.52	-0.151
Mof_C 	C 	0.4485	0.2129	0.5365	0.031
Mof_H 	H 	0.4139	0.1873	0.5255	0.019
Mof_C 	C 	0.416	0.2424	0.5694	-0.018
Mof_H 	H 	0.3596	0.2364	0.5804	0.032
Mof_C 	C 	0.4678	0.2807	0.5859	-0.013
Mof_N 	N 	0.684	0.2377	0.5445	-0.259
Mof_H 	H 	0.7076	0.2215	0.5237	0.142
Mof_H 	H 	0.7179	0.2513	0.5634	0.129
Mof_C 	C 	0.556	0.2715	0.5823	0.003
Mof_H 	H 	0.5952	0.2844	0.6023	0.033
Mof_C 	C 	0.589	0.2419	0.5479	0.194
Mof_C 	C 	0.442	0.228	0.5275	-0.017
Mof_H 	H 	0.4023	0.2121	0.5093	0.041
Mof_C 	C 	0.4079	0.2561	0.5602	-0.045
Mof_H 	H 	0.347	0.2583	0.5648	0.051
Mof_In	In	0.125	0.625	0.42932	2.544
Mof_In	In	0.125	0.125	0.92932	2.544
Mof_In	In	0.625	0.625	0.92932	2.544
Mof_In	In	0.625	0.125	0.42932	2.545
Mof_In	In	0.375	0.375	0.67932	2.545
Mof_In	In	0.375	0.875	0.17932	2.544
Mof_In	In	0.875	0.875	0.67932	2.545
Mof_In	In	0.875	0.375	0.17932	2.544
_end
