data_functionalizedCrystal
_audit_creation_method	'EQeq! by Chris Wilmer'
_symmetry_space_group_name_H-M	'P1'
_symmetry_Int_Tables_number	1
_symmetry_cell_setting	triclinic
loop_
_symmetry_equiv_pos_as_xyz
  x,y,z
_cell_length_a	9.9638
_cell_length_b	18.082
_cell_length_c	18.45
_cell_angle_alpha	90
_cell_angle_beta	90
_cell_angle_gamma	90
loop_
_atom_site_label
_atom_site_type_symbol
_atom_site_fract_x
_atom_site_fract_y
_atom_site_fract_z
_atom_site_charge
Mof_Mg	Mg	0.42491	0.94144	0.82153	1.48
Mof_Mg	Mg	0.61579	0.03518	0.71717	1.479
Mof_Mg	Mg	0.07509	0.44144	0.67847	1.461
Mof_Mg	Mg	0.88421	0.53518	0.78283	1.487
Mof_Mg	Mg	0.57509	0.55856	0.82153	1.478
Mof_Mg	Mg	0.38421	0.46482	0.71717	1.481
Mof_Mg	Mg	0.92491	0.05856	0.67847	1.492
Mof_Mg	Mg	0.11579	0.96482	0.78283	1.478
Mof_Mg	Mg	0.57509	0.05856	0.17847	1.476
Mof_Mg	Mg	0.38421	0.96482	0.28283	1.484
Mof_Mg	Mg	0.92491	0.55856	0.32153	1.494
Mof_Mg	Mg	0.11579	0.46482	0.21717	1.475
Mof_Mg	Mg	0.42491	0.44144	0.17847	1.478
Mof_Mg	Mg	0.61579	0.53518	0.28283	1.481
Mof_Mg	Mg	0.07509	0.94144	0.32153	1.464
Mof_Mg	Mg	0.88421	0.03518	0.21717	1.484
Mof_Mg	Mg	0.5	0	-0	1.466
Mof_Mg	Mg	1.10656e-32	0.5	0.5	1.467
Mof_Mg	Mg	0.5	0.5	-0	1.473
Mof_Mg	Mg	3.47139e-33	0	0.5	1.46
Mof_Mg	Mg	0.5	0.75	0.81559	1.483
Mof_Mg	Mg	-1.04367e-32	0.25	0.68441	1.467
Mof_Mg	Mg	0.5	0.25	0.18441	1.483
Mof_Mg	Mg	9.78528e-33	0.75	0.31559	1.467
Mof_H 	H 	0.2673	0.0044	0.6383	-0.135
Mof_H 	H 	0.1283	0.993	0.9477	-0.15
Mof_H 	H 	0.2096	0.7646	0.8174	-0.169
Mof_H 	H 	0.6968	0.8742	0.6852	-0.123
Mof_H 	H 	0.5385	0.144	0.8486	-0.13
Mof_H 	H 	0.6537	0.8652	0.9703	-0.071
Mof_H 	H 	0.2327	0.5044	0.8617	-0.151
Mof_H 	H 	0.3717	0.493	0.5523	-0.158
Mof_H 	H 	0.2904	0.2646	0.6826	-0.153
Mof_H 	H 	0.8032	0.3742	0.8148	-0.138
Mof_H 	H 	0.9615	0.644	0.6514	-0.092
Mof_H 	H 	0.8463	0.3652	0.5297	-0.103
Mof_H 	H 	0.7327	0.4956	0.6383	-0.147
Mof_H 	H 	0.8717	0.507	0.9477	-0.066
Mof_H 	H 	0.7904	0.7354	0.8174	-0.102
Mof_H 	H 	0.3032	0.6258	0.6852	-0.192
Mof_H 	H 	0.4615	0.356	0.8486	-0.132
Mof_H 	H 	0.3463	0.6348	0.9703	-0.11
Mof_H 	H 	0.7673	0.9956	0.8617	-0.127
Mof_H 	H 	0.6283	0.007	0.5523	-0.18
Mof_H 	H 	0.7096	0.2354	0.6826	-0.129
Mof_H 	H 	0.1968	0.1258	0.8148	-0.195
Mof_H 	H 	0.0385	0.856	0.6514	-0.193
Mof_H 	H 	0.1537	0.1348	0.5297	-0.185
Mof_H 	H 	0.7327	0.9956	0.3617	-0.162
Mof_H 	H 	0.8717	0.007	0.0523	-0.162
Mof_H 	H 	0.7904	0.2354	0.1826	-0.113
Mof_H 	H 	0.3032	0.1258	0.3148	-0.211
Mof_H 	H 	0.4615	0.856	0.1514	-0.161
Mof_H 	H 	0.3463	0.1348	0.0297	-0.205
Mof_H 	H 	0.7673	0.4956	0.1383	-0.146
Mof_H 	H 	0.6283	0.507	0.4477	-0.153
Mof_H 	H 	0.7096	0.7354	0.3174	-0.127
Mof_H 	H 	0.1968	0.6258	0.1852	-0.195
Mof_H 	H 	0.0385	0.356	0.3486	-0.2
Mof_H 	H 	0.1537	0.6348	0.4703	-0.171
Mof_H 	H 	0.2673	0.5044	0.3617	-0.149
Mof_H 	H 	0.1283	0.493	0.0523	-0.245
Mof_H 	H 	0.2096	0.2646	0.1826	-0.18
Mof_H 	H 	0.6968	0.3742	0.3148	-0.143
Mof_H 	H 	0.5385	0.644	0.1514	-0.16
Mof_H 	H 	0.6537	0.3652	0.0297	-0.166
Mof_H 	H 	0.2327	0.0044	0.1383	-0.169
Mof_H 	H 	0.3717	0.993	0.4477	-0.13
Mof_H 	H 	0.2904	0.7646	0.3174	-0.152
Mof_H 	H 	0.8032	0.8742	0.1852	-0.137
Mof_H 	H 	0.9615	0.144	0.3486	-0.099
Mof_H 	H 	0.8463	0.8652	0.4703	-0.088
Mof_C 	C 	0.3343	0.0011	0.6733	0.464
Mof_C 	C 	0.2191	0.9883	0.9368	0.634
Mof_C 	C 	0.2281	0.8147	0.8116	0.63
Mof_C 	C 	0.632	0.867	0.7208	0.615
Mof_C 	C 	0.5194	0.0959	0.8631	0.607
Mof_C 	C 	0.5998	0.8639	0.9292	0.571
Mof_C 	C 	0.1657	0.5011	0.8267	0.605
Mof_C 	C 	0.2809	0.4883	0.5632	0.655
Mof_C 	C 	0.2719	0.3147	0.6884	0.63
Mof_C 	C 	0.868	0.367	0.7792	0.616
Mof_C 	C 	0.9806	0.5959	0.6369	0.582
Mof_C 	C 	0.9002	0.3639	0.5708	0.578
Mof_C 	C 	0.6657	0.4989	0.6733	0.59
Mof_C 	C 	0.7809	0.5117	0.9368	0.61
Mof_C 	C 	0.7719	0.6853	0.8116	0.586
Mof_C 	C 	0.368	0.633	0.7208	0.642
Mof_C 	C 	0.4806	0.4041	0.8631	0.601
Mof_C 	C 	0.4002	0.6361	0.9292	0.59
Mof_C 	C 	0.8343	0.9989	0.8267	0.695
Mof_C 	C 	0.7191	0.0117	0.5632	0.662
Mof_C 	C 	0.7281	0.1853	0.6884	0.586
Mof_C 	C 	0.132	0.133	0.7792	0.661
Mof_C 	C 	0.0194	0.9041	0.6369	0.643
Mof_C 	C 	0.0998	0.1361	0.5708	0.619
Mof_C 	C 	0.6657	0.9989	0.3267	0.723
Mof_C 	C 	0.7809	0.0117	0.0632	0.671
Mof_C 	C 	0.7719	0.1853	0.1884	0.585
Mof_C 	C 	0.368	0.133	0.2792	0.654
Mof_C 	C 	0.4806	0.9041	0.1369	0.625
Mof_C 	C 	0.4002	0.1361	0.0708	0.619
Mof_C 	C 	0.8343	0.4989	0.1733	0.576
Mof_C 	C 	0.7191	0.5117	0.4368	0.65
Mof_C 	C 	0.7281	0.6853	0.3116	0.582
Mof_C 	C 	0.132	0.633	0.2208	0.651
Mof_C 	C 	0.0194	0.4041	0.3631	0.652
Mof_C 	C 	0.0998	0.6361	0.4292	0.609
Mof_C 	C 	0.3343	0.5011	0.3267	0.591
Mof_C 	C 	0.2191	0.4883	0.0632	0.695
Mof_C 	C 	0.2281	0.3147	0.1884	0.628
Mof_C 	C 	0.632	0.367	0.2792	0.628
Mof_C 	C 	0.5194	0.5959	0.1369	0.634
Mof_C 	C 	0.5998	0.3639	0.0708	0.601
Mof_C 	C 	0.1657	0.0011	0.1733	0.483
Mof_C 	C 	0.2809	0.9883	0.4368	0.642
Mof_C 	C 	0.2719	0.8147	0.3116	0.626
Mof_C 	C 	0.868	0.867	0.2208	0.605
Mof_C 	C 	0.9806	0.0959	0.3631	0.59
Mof_C 	C 	0.9002	0.8639	0.4292	0.567
Mof_O 	O 	0.3036	0.97043	0.73273	-0.592
Mof_O 	O 	0.4456	0.0272	0.65762	-0.505
Mof_O 	O 	0.3495	0.83369	0.81657	-0.68
Mof_O 	O 	0.1322	0.8551	0.8	-0.581
Mof_O 	O 	0.5138	0.04688	0.81404	-0.708
Mof_O 	O 	0.5824	0.92415	0.74863	-0.648
Mof_O 	O 	0.5286	0.92084	0.91618	-0.612
Mof_O 	O 	0.2482	0.97962	0.87154	-0.673
Mof_O 	O 	0.6042	0.8027	0.73542	-0.511
Mof_O 	O 	0.6038	0.8073	0.89227	-0.495
Mof_O 	O 	0.2961	0.9911	0.98753	-0.449
Mof_O 	O 	0.5015	0.0851	0.92807	-0.501
Mof_O 	O 	0.1964	0.47043	0.76727	-0.721
Mof_O 	O 	0.0544	0.5272	0.84238	-0.612
Mof_O 	O 	0.1505	0.33369	0.68343	-0.742
Mof_O 	O 	0.3678	0.3551	0.7	-0.54
Mof_O 	O 	0.9862	0.54688	0.68596	-0.6
Mof_O 	O 	0.9176	0.42415	0.75137	-0.624
Mof_O 	O 	0.9714	0.42084	0.58382	-0.58
Mof_O 	O 	0.2518	0.47962	0.62846	-0.73
Mof_O 	O 	0.8958	0.3027	0.76458	-0.452
Mof_O 	O 	0.8962	0.3073	0.60773	-0.464
Mof_O 	O 	0.2039	0.4911	0.51247	-0.576
Mof_O 	O 	0.9985	0.5851	0.57193	-0.428
Mof_O 	O 	0.6964	0.52957	0.73273	-0.674
Mof_O 	O 	0.5544	0.4728	0.65762	-0.514
Mof_O 	O 	0.6505	0.66631	0.81657	-0.658
Mof_O 	O 	0.8678	0.6449	0.8	-0.466
Mof_O 	O 	0.4862	0.45312	0.81404	-0.671
Mof_O 	O 	0.4176	0.57585	0.74863	-0.697
Mof_O 	O 	0.4714	0.57916	0.91618	-0.641
Mof_O 	O 	0.7518	0.52038	0.87154	-0.651
Mof_O 	O 	0.3958	0.6973	0.73542	-0.538
Mof_O 	O 	0.3962	0.6927	0.89227	-0.521
Mof_O 	O 	0.7039	0.5089	0.98753	-0.449
Mof_O 	O 	0.4985	0.4149	0.92807	-0.481
Mof_O 	O 	0.8036	0.02957	0.76727	-0.711
Mof_O 	O 	0.9456	0.9728	0.84238	-0.399
Mof_O 	O 	0.8495	0.16631	0.68343	-0.598
Mof_O 	O 	0.6322	0.1449	0.7	-0.52
Mof_O 	O 	0.0138	0.95312	0.68596	-0.717
Mof_O 	O 	0.0824	0.07585	0.75137	-0.786
Mof_O 	O 	0.0286	0.07916	0.58382	-0.773
Mof_O 	O 	0.7482	0.02038	0.62846	-0.679
Mof_O 	O 	0.1042	0.1973	0.76458	-0.59
Mof_O 	O 	0.1038	0.1927	0.60773	-0.589
Mof_O 	O 	0.7961	0.0089	0.51247	-0.533
Mof_O 	O 	0.0015	0.9149	0.57193	-0.599
Mof_O 	O 	0.6964	0.02957	0.26727	-0.765
Mof_O 	O 	0.5544	0.9728	0.34238	-0.524
Mof_O 	O 	0.6505	0.16631	0.18343	-0.666
Mof_O 	O 	0.8678	0.1449	0.2	-0.479
Mof_O 	O 	0.4862	0.95312	0.18596	-0.646
Mof_O 	O 	0.4176	0.07585	0.25137	-0.734
Mof_O 	O 	0.4714	0.07916	0.08382	-0.72
Mof_O 	O 	0.7518	0.02038	0.12846	-0.708
Mof_O 	O 	0.3958	0.1973	0.26458	-0.547
Mof_O 	O 	0.3962	0.1927	0.10773	-0.559
Mof_O 	O 	0.7039	0.0089	0.01247	-0.62
Mof_O 	O 	0.4985	0.9149	0.07193	-0.551
Mof_O 	O 	0.8036	0.52957	0.23273	-0.632
Mof_O 	O 	0.9456	0.4728	0.15762	-0.417
Mof_O 	O 	0.8495	0.66631	0.31657	-0.598
Mof_O 	O 	0.6322	0.6449	0.3	-0.519
Mof_O 	O 	0.0138	0.45312	0.31404	-0.757
Mof_O 	O 	0.0824	0.57585	0.24863	-0.757
Mof_O 	O 	0.0286	0.57916	0.41618	-0.75
Mof_O 	O 	0.7482	0.52038	0.37154	-0.65
Mof_O 	O 	0.1042	0.6973	0.23542	-0.6
Mof_O 	O 	0.1038	0.6927	0.39227	-0.584
Mof_O 	O 	0.7961	0.5089	0.48753	-0.491
Mof_O 	O 	0.0015	0.4149	0.42807	-0.628
Mof_O 	O 	0.3036	0.47043	0.26727	-0.679
Mof_O 	O 	0.4456	0.5272	0.34238	-0.515
Mof_O 	O 	0.3495	0.33369	0.18343	-0.688
Mof_O 	O 	0.1322	0.3551	0.2	-0.595
Mof_O 	O 	0.5138	0.54688	0.18596	-0.686
Mof_O 	O 	0.5824	0.42415	0.25137	-0.685
Mof_O 	O 	0.5286	0.42084	0.08382	-0.692
Mof_O 	O 	0.2482	0.47962	0.12846	-0.73
Mof_O 	O 	0.6042	0.3027	0.26458	-0.519
Mof_O 	O 	0.6038	0.3073	0.10773	-0.534
Mof_O 	O 	0.2961	0.4911	0.01247	-0.62
Mof_O 	O 	0.5015	0.5851	0.07193	-0.578
Mof_O 	O 	0.1964	0.97043	0.23273	-0.639
Mof_O 	O 	0.0544	0.0272	0.15762	-0.628
Mof_O 	O 	0.1505	0.83369	0.31657	-0.743
Mof_O 	O 	0.3678	0.8551	0.3	-0.539
Mof_O 	O 	0.9862	0.04688	0.31404	-0.641
Mof_O 	O 	0.9176	0.92415	0.24863	-0.592
Mof_O 	O 	0.9714	0.92084	0.41618	-0.553
Mof_O 	O 	0.2518	0.97962	0.37154	-0.7
Mof_O 	O 	0.8958	0.8027	0.23542	-0.46
Mof_O 	O 	0.8962	0.8073	0.39227	-0.458
Mof_O 	O 	0.2039	0.9911	0.48753	-0.531
Mof_O 	O 	0.9985	0.0851	0.42807	-0.456
_end
