# CIF file generated by openbabel 3.1.0, see https://openbabel.org
data_I
_chemical_name_common 'image0'
_cell_length_a 18.072
_cell_length_b 21.785
_cell_length_c 12.6732
_cell_angle_alpha 90
_cell_angle_beta 90
_cell_angle_gamma 90
_space_group_name_H-M_alt 'P 1'
_space_group_name_Hall 'P 1'
loop_
    _symmetry_equiv_pos_as_xyz
    x,y,z
loop_
    _atom_site_label
    _atom_site_type_symbol
    _atom_site_fract_x
    _atom_site_fract_y
    _atom_site_fract_z
    _atom_site_occupancy
    Co1      Co       0.33838    0.72868    0.03295    1.000
    Co2      Co       0.17469    0.72211    0.02650    1.000
    S1       S        0.24530    0.60635    0.39340    1.000
    S2       S        0.20862    0.83997    0.67660    1.000
    N1       N        0.44380    0.75810    0.05290    1.000
    N2       N        0.56290    0.79020    0.04180    1.000
    N3       N        0.46040    0.79840    0.13570    1.000
    N4       N        0.51450    0.72810    0.90450    1.000
    H1       H        0.47790    0.70840    0.87730    1.000
    H2       H        0.55630    0.72930    0.87230    1.000
    N5       N        0.56530    0.85140    0.19690    1.000
    H3       H        0.54170    0.86640    0.24990    1.000
    H4       H        0.61130    0.86020    0.18780    1.000
    O1       O        0.21060    0.30930    0.50280    1.000
    O2       O        0.17890    0.14090    0.57420    1.000
    O3       O        0.34490    0.70410    0.87680    1.000
    O4       O        0.31930    0.75200    0.19370    1.000
    O5       O        0.22270    0.69500    0.89370    1.000
    O6       O        0.19520    0.74670    0.17510    1.000
    O7       O        0.33170    0.31050    0.47220    1.000
    O8       O        0.30260    0.13210    0.57960    1.000
    O9       O        0.17180    0.62120    0.35980    1.000
    O10      O        0.30620    0.62630    0.33130    1.000
    O11      O        0.13340    0.82650    0.70880    1.000
    O12      O        0.26940    0.81990    0.74030    1.000
    C1       C        0.28080    0.69260    0.84120    1.000
    C2       C        0.27340    0.67470    0.72800    1.000
    C3       C        0.20390    0.66070    0.68880    1.000
    H5       H        0.16260    0.66430    0.73200    1.000
    C4       C        0.19570    0.64130    0.58490    1.000
    H6       H        0.14920    0.63220    0.55790    1.000
    C5       C        0.25640    0.63590    0.52430    1.000
    C6       C        0.32560    0.64990    0.55810    1.000
    H7       H        0.36610    0.64670    0.51310    1.000
    C7       C        0.33430    0.66970    0.66360    1.000
    H8       H        0.38110    0.67920    0.68930    1.000
    C8       C        0.25240    0.52440    0.41040    1.000
    C9       C        0.19060    0.49360    0.43850    1.000
    H9       H        0.14570    0.51410    0.44520    1.000
    C10      C        0.19530    0.43160    0.45680    1.000
    H10      H        0.15310    0.40940    0.47450    1.000
    C11      C        0.26290    0.40210    0.44910    1.000
    C12      C        0.32510    0.43580    0.41900    1.000
    H11      H        0.37040    0.41620    0.41130    1.000
    C13      C        0.31990    0.49770    0.40060    1.000
    H12      H        0.36130    0.52060    0.38200    1.000
    C14      C        0.26920    0.33590    0.47600    1.000
    C15      C        0.25340    0.75570    0.22760    1.000
    C16      C        0.24120    0.77550    0.34190    1.000
    C17      C        0.30110    0.79180    0.40340    1.000
    H13      H        0.34840    0.79140    0.37450    1.000
    C18      C        0.29180    0.80850    0.50590    1.000
    H14      H        0.33250    0.81780    0.54780    1.000
    C19      C        0.22110    0.81160    0.54700    1.000
    C20      C        0.16030    0.79550    0.48520    1.000
    H15      H        0.11270    0.79820    0.51270    1.000
    C21      C        0.17090    0.77540    0.38300    1.000
    H16      H        0.13110    0.76210    0.34250    1.000
    C22      C        0.21600    0.92040    0.65660    1.000
    C23      C        0.28430    0.94810    0.66800    1.000
    H17      H        0.32520    0.92530    0.68930    1.000
    C24      C        0.29090    0.01030    0.64710    1.000
    H18      H        0.33650    0.02950    0.65510    1.000
    C25      C        0.23110    0.04370    0.61500    1.000
    C26      C        0.16210    0.01610    0.60670    1.000
    H19      H        0.12050    0.03870    0.58800    1.000
    C27      C        0.15730    0.95290    0.62750    1.000
    H20      H        0.11180    0.93330    0.62070    1.000
    C28      C        0.23770    0.11180    0.58890    1.000
    C29      C        0.50610    0.75740    0.99800    1.000
    C30      C        0.53080    0.81470    0.12900    1.000
    Co3      Co       0.66162    0.27132    0.53295    1.000
    Co4      Co       0.82531    0.27789    0.52650    1.000
    S3       S        0.75470    0.39365    0.89340    1.000
    S4       S        0.79138    0.16003    0.17660    1.000
    N6       N        0.55620    0.24190    0.55290    1.000
    N7       N        0.43710    0.20980    0.54180    1.000
    N8       N        0.53960    0.20160    0.63570    1.000
    N9       N        0.48550    0.27190    0.40450    1.000
    H21      H        0.52210    0.29160    0.37730    1.000
    H22      H        0.44370    0.27070    0.37230    1.000
    N10      N        0.43470    0.14860    0.69690    1.000
    H23      H        0.45830    0.13360    0.74990    1.000
    H24      H        0.38870    0.13980    0.68780    1.000
    O13      O        0.78940    0.69070    0.00280    1.000
    O14      O        0.82110    0.85910    0.07420    1.000
    O15      O        0.65510    0.29590    0.37680    1.000
    O16      O        0.68070    0.24800    0.69370    1.000
    O17      O        0.77730    0.30500    0.39370    1.000
    O18      O        0.80480    0.25330    0.67510    1.000
    O19      O        0.66830    0.68950    0.97220    1.000
    O20      O        0.69740    0.86790    0.07960    1.000
    O21      O        0.82820    0.37880    0.85980    1.000
    O22      O        0.69380    0.37370    0.83130    1.000
    O23      O        0.86660    0.17350    0.20880    1.000
    O24      O        0.73060    0.18010    0.24030    1.000
    C31      C        0.71920    0.30740    0.34120    1.000
    C32      C        0.72660    0.32530    0.22800    1.000
    C33      C        0.79610    0.33930    0.18880    1.000
    H25      H        0.83740    0.33570    0.23200    1.000
    C34      C        0.80430    0.35870    0.08490    1.000
    H26      H        0.85080    0.36780    0.05790    1.000
    C35      C        0.74360    0.36410    0.02430    1.000
    C36      C        0.67440    0.35010    0.05810    1.000
    H27      H        0.63390    0.35330    0.01310    1.000
    C37      C        0.66570    0.33030    0.16360    1.000
    H28      H        0.61890    0.32080    0.18930    1.000
    C38      C        0.74760    0.47560    0.91040    1.000
    C39      C        0.80940    0.50640    0.93850    1.000
    H29      H        0.85430    0.48590    0.94520    1.000
    C40      C        0.80470    0.56840    0.95680    1.000
    H30      H        0.84690    0.59060    0.97450    1.000
    C41      C        0.73710    0.59790    0.94910    1.000
    C42      C        0.67490    0.56420    0.91900    1.000
    H31      H        0.62960    0.58380    0.91130    1.000
    C43      C        0.68010    0.50230    0.90060    1.000
    H32      H        0.63870    0.47940    0.88200    1.000
    C44      C        0.73080    0.66410    0.97600    1.000
    C45      C        0.74660    0.24430    0.72760    1.000
    C46      C        0.75880    0.22450    0.84190    1.000
    C47      C        0.69890    0.20820    0.90340    1.000
    H33      H        0.65160    0.20860    0.87450    1.000
    C48      C        0.70820    0.19150    0.00590    1.000
    H34      H        0.66750    0.18220    0.04780    1.000
    C49      C        0.77890    0.18840    0.04700    1.000
    C50      C        0.83970    0.20450    0.98520    1.000
    H35      H        0.88730    0.20180    0.01270    1.000
    C51      C        0.82910    0.22460    0.88300    1.000
    H36      H        0.86890    0.23790    0.84250    1.000
    C52      C        0.78400    0.07960    0.15660    1.000
    C53      C        0.71570    0.05190    0.16800    1.000
    H37      H        0.67480    0.07470    0.18930    1.000
    C54      C        0.70910    0.98970    0.14710    1.000
    H38      H        0.66350    0.97050    0.15510    1.000
    C55      C        0.76890    0.95630    0.11500    1.000
    C56      C        0.83790    0.98390    0.10670    1.000
    H39      H        0.87950    0.96130    0.08800    1.000
    C57      C        0.84270    0.04710    0.12750    1.000
    H40      H        0.88820    0.06670    0.12070    1.000
    C58      C        0.76230    0.88820    0.08890    1.000
    C59      C        0.49390    0.24260    0.49800    1.000
    C60      C        0.46920    0.18530    0.62900    1.000
    Co5      Co       0.83838    0.77132    0.03295    1.000
    Co6      Co       0.67469    0.77789    0.02650    1.000
    S5       S        0.74530    0.89365    0.39340    1.000
    S6       S        0.70862    0.66003    0.67660    1.000
    N11      N        0.94380    0.74190    0.05290    1.000
    N12      N        0.06290    0.70980    0.04180    1.000
    N13      N        0.96040    0.70160    0.13570    1.000
    N14      N        0.01450    0.77190    0.90450    1.000
    H41      H        0.97790    0.79160    0.87730    1.000
    H42      H        0.05630    0.77070    0.87230    1.000
    N15      N        0.06530    0.64860    0.19690    1.000
    H43      H        0.04170    0.63360    0.24990    1.000
    H44      H        0.11130    0.63980    0.18780    1.000
    O25      O        0.71060    0.19070    0.50280    1.000
    O26      O        0.67890    0.35910    0.57420    1.000
    O27      O        0.84490    0.79590    0.87680    1.000
    O28      O        0.81930    0.74800    0.19370    1.000
    O29      O        0.72270    0.80500    0.89370    1.000
    O30      O        0.69520    0.75330    0.17510    1.000
    O31      O        0.83170    0.18950    0.47220    1.000
    O32      O        0.80260    0.36790    0.57960    1.000
    O33      O        0.67180    0.87880    0.35980    1.000
    O34      O        0.80620    0.87370    0.33130    1.000
    O35      O        0.63340    0.67350    0.70880    1.000
    O36      O        0.76940    0.68010    0.74030    1.000
    C61      C        0.78080    0.80740    0.84120    1.000
    C62      C        0.77340    0.82530    0.72800    1.000
    C63      C        0.70390    0.83930    0.68880    1.000
    H45      H        0.66260    0.83570    0.73200    1.000
    C64      C        0.69570    0.85870    0.58490    1.000
    H46      H        0.64920    0.86780    0.55790    1.000
    C65      C        0.75640    0.86410    0.52430    1.000
    C66      C        0.82560    0.85010    0.55810    1.000
    H47      H        0.86610    0.85330    0.51310    1.000
    C67      C        0.83430    0.83030    0.66360    1.000
    H48      H        0.88110    0.82080    0.68930    1.000
    C68      C        0.75240    0.97560    0.41040    1.000
    C69      C        0.69060    0.00640    0.43850    1.000
    H49      H        0.64570    0.98590    0.44520    1.000
    C70      C        0.69530    0.06840    0.45680    1.000
    H50      H        0.65310    0.09060    0.47450    1.000
    C71      C        0.76290    0.09790    0.44910    1.000
    C72      C        0.82510    0.06420    0.41900    1.000
    H51      H        0.87040    0.08380    0.41130    1.000
    C73      C        0.81990    0.00230    0.40060    1.000
    H52      H        0.86130    0.97940    0.38200    1.000
    C74      C        0.76920    0.16410    0.47600    1.000
    C75      C        0.75340    0.74430    0.22760    1.000
    C76      C        0.74120    0.72450    0.34190    1.000
    C77      C        0.80110    0.70820    0.40340    1.000
    H53      H        0.84840    0.70860    0.37450    1.000
    C78      C        0.79180    0.69150    0.50590    1.000
    H54      H        0.83250    0.68220    0.54780    1.000
    C79      C        0.72110    0.68840    0.54700    1.000
    C80      C        0.66030    0.70450    0.48520    1.000
    H55      H        0.61270    0.70180    0.51270    1.000
    C81      C        0.67090    0.72460    0.38300    1.000
    H56      H        0.63110    0.73790    0.34250    1.000
    C82      C        0.71600    0.57960    0.65660    1.000
    C83      C        0.78430    0.55190    0.66800    1.000
    H57      H        0.82520    0.57470    0.68930    1.000
    C84      C        0.79090    0.48970    0.64710    1.000
    H58      H        0.83650    0.47050    0.65510    1.000
    C85      C        0.73110    0.45630    0.61500    1.000
    C86      C        0.66210    0.48390    0.60670    1.000
    H59      H        0.62050    0.46130    0.58800    1.000
    C87      C        0.65730    0.54710    0.62750    1.000
    H60      H        0.61180    0.56670    0.62070    1.000
    C88      C        0.73770    0.38820    0.58890    1.000
    C89      C        0.00610    0.74260    0.99800    1.000
    C90      C        0.03080    0.68530    0.12900    1.000
    Co7      Co       0.16162    0.22868    0.53295    1.000
    Co8      Co       0.32531    0.22211    0.52650    1.000
    S7       S        0.25470    0.10635    0.89340    1.000
    S8       S        0.29138    0.33997    0.17660    1.000
    N16      N        0.05620    0.25810    0.55290    1.000
    N17      N        0.93710    0.29020    0.54180    1.000
    N18      N        0.03960    0.29840    0.63570    1.000
    N19      N        0.98550    0.22810    0.40450    1.000
    H61      H        0.02210    0.20840    0.37730    1.000
    H62      H        0.94370    0.22930    0.37230    1.000
    N20      N        0.93470    0.35140    0.69690    1.000
    H63      H        0.95830    0.36640    0.74990    1.000
    H64      H        0.88870    0.36020    0.68780    1.000
    O37      O        0.28940    0.80930    0.00280    1.000
    O38      O        0.32110    0.64090    0.07420    1.000
    O39      O        0.15510    0.20410    0.37680    1.000
    O40      O        0.18070    0.25200    0.69370    1.000
    O41      O        0.27730    0.19500    0.39370    1.000
    O42      O        0.30480    0.24670    0.67510    1.000
    O43      O        0.16830    0.81050    0.97220    1.000
    O44      O        0.19740    0.63210    0.07960    1.000
    O45      O        0.32820    0.12120    0.85980    1.000
    O46      O        0.19380    0.12630    0.83130    1.000
    O47      O        0.36660    0.32650    0.20880    1.000
    O48      O        0.23060    0.31990    0.24030    1.000
    C91      C        0.21920    0.19260    0.34120    1.000
    C92      C        0.22660    0.17470    0.22800    1.000
    C93      C        0.29610    0.16070    0.18880    1.000
    H65      H        0.33740    0.16430    0.23200    1.000
    C94      C        0.30430    0.14130    0.08490    1.000
    H66      H        0.35080    0.13220    0.05790    1.000
    C95      C        0.24360    0.13590    0.02430    1.000
    C96      C        0.17440    0.14990    0.05810    1.000
    H67      H        0.13390    0.14670    0.01310    1.000
    C97      C        0.16570    0.16970    0.16360    1.000
    H68      H        0.11890    0.17920    0.18930    1.000
    C98      C        0.24760    0.02440    0.91040    1.000
    C99      C        0.30940    0.99360    0.93850    1.000
    H69      H        0.35430    0.01410    0.94520    1.000
    C100     C        0.30470    0.93160    0.95680    1.000
    H70      H        0.34690    0.90940    0.97450    1.000
    C101     C        0.23710    0.90210    0.94910    1.000
    C102     C        0.17490    0.93580    0.91900    1.000
    H71      H        0.12960    0.91620    0.91130    1.000
    C103     C        0.18010    0.99770    0.90060    1.000
    H72      H        0.13870    0.02060    0.88200    1.000
    C104     C        0.23080    0.83590    0.97600    1.000
    C105     C        0.24660    0.25570    0.72760    1.000
    C106     C        0.25880    0.27550    0.84190    1.000
    C107     C        0.19890    0.29180    0.90340    1.000
    H73      H        0.15160    0.29140    0.87450    1.000
    C108     C        0.20820    0.30850    0.00590    1.000
    H74      H        0.16750    0.31780    0.04780    1.000
    C109     C        0.27890    0.31160    0.04700    1.000
    C110     C        0.33970    0.29550    0.98520    1.000
    H75      H        0.38730    0.29820    0.01270    1.000
    C111     C        0.32910    0.27540    0.88300    1.000
    H76      H        0.36890    0.26210    0.84250    1.000
    C112     C        0.28400    0.42040    0.15660    1.000
    C113     C        0.21570    0.44810    0.16800    1.000
    H77      H        0.17480    0.42530    0.18930    1.000
    C114     C        0.20910    0.51030    0.14710    1.000
    H78      H        0.16350    0.52950    0.15510    1.000
    C115     C        0.26890    0.54370    0.11500    1.000
    C116     C        0.33790    0.51610    0.10670    1.000
    H79      H        0.37950    0.53870    0.08800    1.000
    C117     C        0.34270    0.45290    0.12750    1.000
    H80      H        0.38820    0.43330    0.12070    1.000
    C118     C        0.26230    0.61180    0.08890    1.000
    C119     C        0.99390    0.25740    0.49800    1.000
    C120     C        0.96920    0.31470    0.62900    1.000
