# CIF file generated by openbabel 3.1.0, see https://openbabel.org
data_I
_chemical_name_common 'image0'
_cell_length_a 32.301
_cell_length_b 28.825
_cell_length_c 18.692
_cell_angle_alpha 90
_cell_angle_beta 104.24
_cell_angle_gamma 90
_space_group_name_H-M_alt 'P 1'
_space_group_name_Hall 'P 1'
loop_
    _symmetry_equiv_pos_as_xyz
    x,y,z
loop_
    _atom_site_label
    _atom_site_type_symbol
    _atom_site_fract_x
    _atom_site_fract_y
    _atom_site_fract_z
    _atom_site_occupancy
    Lu1      Lu       0.01456    0.22588    0.54907    1.000
    O1       O        0.03834    0.20350    0.66460    1.000
    O2       O        0.04538    0.24440    0.76670    1.000
    O3       O        0.46058    0.18520    0.13910    1.000
    O4       O        0.45376    0.23570    0.04740    1.000
    O5       O        0.08510    0.78060    0.03280    1.000
    O6       O        0.04720    0.84270    0.02010    1.000
    O7       O        0.45369    0.79143    0.91170    1.000
    O8       O        0.44677    0.82550    0.80200    1.000
    C1       C        0.24788    0.04070    0.89860    1.000
    C2       C        0.21077    0.06450    0.86580    1.000
    H1       H        0.18630    0.04800    0.84290    1.000
    C3       C        0.20980    0.11190    0.86660    1.000
    C4       C        0.24616    0.13550    0.89950    1.000
    H2       H        0.24570    0.16770    0.89900    1.000
    C5       C        0.28380    0.11280    0.93380    1.000
    C6       C        0.28369    0.06610    0.93200    1.000
    H3       H        0.30870    0.05040    0.95410    1.000
    C7       C        0.16924    0.13750    0.82930    1.000
    C8       C        0.15640    0.17330    0.86500    1.000
    H4       H        0.17310    0.18200    0.91090    1.000
    C9       C        0.11880    0.19760    0.83530    1.000
    H5       H        0.10920    0.22040    0.86260    1.000
    C10      C        0.09570    0.18690    0.76280    1.000
    C11      C        0.10790    0.14970    0.72590    1.000
    H6       H        0.09220    0.14120    0.67910    1.000
    C12      C        0.14500    0.12480    0.76160    1.000
    H7       H        0.15320    0.09910    0.73830    1.000
    C13      C        0.05630    0.21370    0.73040    1.000
    C14      C        0.32306    0.13800    0.97110    1.000
    C15      C        0.34870    0.12130    0.03790    1.000
    H8       H        0.34080    0.09450    0.05900    1.000
    C16      C        0.38570    0.14470    0.07260    1.000
    H9       H        0.40170    0.13370    0.11780    1.000
    C17      C        0.39908    0.18200    0.04360    1.000
    C18      C        0.37380    0.19990    0.97850    1.000
    H10      H        0.38190    0.22730    0.95950    1.000
    C19      C        0.33610    0.17720    0.94050    1.000
    H11      H        0.32030    0.18850    0.89550    1.000
    C20      C        0.44023    0.20370    0.07910    1.000
    C21      C        0.24915    0.98970    0.90220    1.000
    C22      C        0.28524    0.96630    0.89460    1.000
    H12      H        0.30790    0.98280    0.88480    1.000
    C23      C        0.28785    0.91880    0.90160    1.000
    C24      C        0.25401    0.89560    0.92060    1.000
    H13      H        0.25570    0.86360    0.92710    1.000
    C25      C        0.21781    0.91900    0.93000    1.000
    C26      C        0.21516    0.96550    0.91970    1.000
    H14      H        0.19090    0.98140    0.92430    1.000
    C27      C        0.18210    0.89350    0.95360    1.000
    C28      C        0.17510    0.84890    0.93650    1.000
    H15      H        0.19240    0.83360    0.91110    1.000
    C29      C        0.14150    0.82450    0.95650    1.000
    H16      H        0.13690    0.79320    0.94470    1.000
    C30      C        0.11970    0.89220    0.99930    1.000
    H17      H        0.09850    0.90880    0.01380    1.000
    C31      C        0.15400    0.91660    0.98500    1.000
    H18      H        0.15770    0.94790    0.99650    1.000
    C32      C        0.11590    0.84770    0.99350    1.000
    C33      C        0.07950    0.82060    0.01490    1.000
    C34      C        0.32630    0.89440    0.89340    1.000
    C35      C        0.34210    0.85670    0.93820    1.000
    H19      H        0.32830    0.84710    0.97380    1.000
    C36      C        0.37920    0.83250    0.93060    1.000
    H20      H        0.39010    0.80790    0.96180    1.000
    C37      C        0.39883    0.84600    0.87660    1.000
    C38      C        0.38350    0.88260    0.83010    1.000
    H21      H        0.39660    0.89110    0.79300    1.000
    C39      C        0.34770    0.90680    0.84020    1.000
    H22      H        0.33780    0.93210    0.81010    1.000
    C40      C        0.43600    0.81770    0.86510    1.000
    C41      C        0.19040    0.85600    0.00100    1.000
    H23      H        0.21860    0.84860    0.02390    1.000
    C42      C        0.15820    0.82920    0.01510    1.000
    H24      H        0.16360    0.80030    0.03780    1.000
    C43      C        0.10540    0.88510    0.94210    1.000
    H25      H        0.07740    0.89400    0.92140    1.000
    C44      C        0.14000    0.90720    0.92510    1.000
    H26      H        0.13470    0.93230    0.89300    1.000
    Lu2      Lu       0.51456    0.72588    0.54907    1.000
    O9       O        0.53834    0.70350    0.66460    1.000
    O10      O        0.54538    0.74440    0.76670    1.000
    O11      O        0.96058    0.68520    0.13910    1.000
    O12      O        0.95376    0.73570    0.04740    1.000
    O13      O        0.58510    0.28060    0.03280    1.000
    O14      O        0.54720    0.34270    0.02010    1.000
    O15      O        0.95369    0.29143    0.91170    1.000
    O16      O        0.94677    0.32550    0.80200    1.000
    C45      C        0.74788    0.54070    0.89860    1.000
    C46      C        0.71077    0.56450    0.86580    1.000
    H27      H        0.68630    0.54800    0.84290    1.000
    C47      C        0.70980    0.61190    0.86660    1.000
    C48      C        0.74616    0.63550    0.89950    1.000
    H28      H        0.74570    0.66770    0.89900    1.000
    C49      C        0.78380    0.61280    0.93380    1.000
    C50      C        0.78369    0.56610    0.93200    1.000
    H29      H        0.80870    0.55040    0.95410    1.000
    C51      C        0.66924    0.63750    0.82930    1.000
    C52      C        0.65640    0.67330    0.86500    1.000
    H30      H        0.67310    0.68200    0.91090    1.000
    C53      C        0.61880    0.69760    0.83530    1.000
    H31      H        0.60920    0.72040    0.86260    1.000
    C54      C        0.59570    0.68690    0.76280    1.000
    C55      C        0.60790    0.64970    0.72590    1.000
    H32      H        0.59220    0.64120    0.67910    1.000
    C56      C        0.64500    0.62480    0.76160    1.000
    H33      H        0.65320    0.59910    0.73830    1.000
    C57      C        0.55630    0.71370    0.73040    1.000
    C58      C        0.82306    0.63800    0.97110    1.000
    C59      C        0.84870    0.62130    0.03790    1.000
    H34      H        0.84080    0.59450    0.05900    1.000
    C60      C        0.88570    0.64470    0.07260    1.000
    H35      H        0.90170    0.63370    0.11780    1.000
    C61      C        0.89908    0.68200    0.04360    1.000
    C62      C        0.87380    0.69990    0.97850    1.000
    H36      H        0.88190    0.72730    0.95950    1.000
    C63      C        0.83610    0.67720    0.94050    1.000
    H37      H        0.82030    0.68850    0.89550    1.000
    C64      C        0.94023    0.70370    0.07910    1.000
    C65      C        0.74915    0.48970    0.90220    1.000
    C66      C        0.78524    0.46630    0.89460    1.000
    H38      H        0.80790    0.48280    0.88480    1.000
    C67      C        0.78785    0.41880    0.90160    1.000
    C68      C        0.75401    0.39560    0.92060    1.000
    H39      H        0.75570    0.36360    0.92710    1.000
    C69      C        0.71781    0.41900    0.93000    1.000
    C70      C        0.71516    0.46550    0.91970    1.000
    H40      H        0.69090    0.48140    0.92430    1.000
    C71      C        0.68210    0.39350    0.95360    1.000
    C72      C        0.67510    0.34890    0.93650    1.000
    H41      H        0.69240    0.33360    0.91110    1.000
    C73      C        0.64150    0.32450    0.95650    1.000
    H42      H        0.63690    0.29320    0.94470    1.000
    C74      C        0.61970    0.39220    0.99930    1.000
    H43      H        0.59850    0.40880    0.01380    1.000
    C75      C        0.65400    0.41660    0.98500    1.000
    H44      H        0.65770    0.44790    0.99650    1.000
    C76      C        0.61590    0.34770    0.99350    1.000
    C77      C        0.57950    0.32060    0.01490    1.000
    C78      C        0.82630    0.39440    0.89340    1.000
    C79      C        0.84210    0.35670    0.93820    1.000
    H45      H        0.82830    0.34710    0.97380    1.000
    C80      C        0.87920    0.33250    0.93060    1.000
    H46      H        0.89010    0.30790    0.96180    1.000
    C81      C        0.89883    0.34600    0.87660    1.000
    C82      C        0.88350    0.38260    0.83010    1.000
    H47      H        0.89660    0.39110    0.79300    1.000
    C83      C        0.84770    0.40680    0.84020    1.000
    H48      H        0.83780    0.43210    0.81010    1.000
    C84      C        0.93600    0.31770    0.86510    1.000
    C85      C        0.69040    0.35600    0.00100    1.000
    H49      H        0.71860    0.34860    0.02390    1.000
    C86      C        0.65820    0.32920    0.01510    1.000
    H50      H        0.66360    0.30030    0.03780    1.000
    C87      C        0.60540    0.38510    0.94210    1.000
    H51      H        0.57740    0.39400    0.92140    1.000
    C88      C        0.64000    0.40720    0.92510    1.000
    H52      H        0.63470    0.43230    0.89300    1.000
    Lu3      Lu       0.98544    0.22588    0.95093    1.000
    O17      O        0.96166    0.20350    0.83540    1.000
    O18      O        0.95462    0.24440    0.73330    1.000
    O19      O        0.53942    0.18520    0.36090    1.000
    O20      O        0.54624    0.23570    0.45260    1.000
    O21      O        0.91490    0.78060    0.46720    1.000
    O22      O        0.95280    0.84270    0.47990    1.000
    O23      O        0.54631    0.79143    0.58830    1.000
    O24      O        0.55323    0.82550    0.69800    1.000
    C89      C        0.75212    0.04070    0.60140    1.000
    C90      C        0.78923    0.06450    0.63420    1.000
    H53      H        0.81370    0.04800    0.65710    1.000
    C91      C        0.79020    0.11190    0.63340    1.000
    C92      C        0.75384    0.13550    0.60050    1.000
    H54      H        0.75430    0.16770    0.60100    1.000
    C93      C        0.71620    0.11280    0.56620    1.000
    C94      C        0.71631    0.06610    0.56800    1.000
    H55      H        0.69130    0.05040    0.54590    1.000
    C95      C        0.83076    0.13750    0.67070    1.000
    C96      C        0.84360    0.17330    0.63500    1.000
    H56      H        0.82690    0.18200    0.58910    1.000
    C97      C        0.88120    0.19760    0.66470    1.000
    H57      H        0.89080    0.22040    0.63740    1.000
    C98      C        0.90430    0.18690    0.73720    1.000
    C99      C        0.89210    0.14970    0.77410    1.000
    H58      H        0.90780    0.14120    0.82090    1.000
    C100     C        0.85500    0.12480    0.73840    1.000
    H59      H        0.84680    0.09910    0.76170    1.000
    C101     C        0.94370    0.21370    0.76960    1.000
    C102     C        0.67694    0.13800    0.52890    1.000
    C103     C        0.65130    0.12130    0.46210    1.000
    H60      H        0.65920    0.09450    0.44100    1.000
    C104     C        0.61430    0.14470    0.42740    1.000
    H61      H        0.59830    0.13370    0.38220    1.000
    C105     C        0.60092    0.18200    0.45640    1.000
    C106     C        0.62620    0.19990    0.52150    1.000
    H62      H        0.61810    0.22730    0.54050    1.000
    C107     C        0.66390    0.17720    0.55950    1.000
    H63      H        0.67970    0.18850    0.60450    1.000
    C108     C        0.55977    0.20370    0.42090    1.000
    C109     C        0.75085    0.98970    0.59780    1.000
    C110     C        0.71476    0.96630    0.60540    1.000
    H64      H        0.69210    0.98280    0.61520    1.000
    C111     C        0.71215    0.91880    0.59840    1.000
    C112     C        0.74599    0.89560    0.57940    1.000
    H65      H        0.74430    0.86360    0.57290    1.000
    C113     C        0.78219    0.91900    0.57000    1.000
    C114     C        0.78484    0.96550    0.58030    1.000
    H66      H        0.80910    0.98140    0.57570    1.000
    C115     C        0.81790    0.89350    0.54640    1.000
    C116     C        0.82490    0.84890    0.56350    1.000
    H67      H        0.80760    0.83360    0.58890    1.000
    C117     C        0.85850    0.82450    0.54350    1.000
    H68      H        0.86310    0.79320    0.55530    1.000
    C118     C        0.88030    0.89220    0.50070    1.000
    H69      H        0.90150    0.90880    0.48620    1.000
    C119     C        0.84600    0.91660    0.51500    1.000
    H70      H        0.84230    0.94790    0.50350    1.000
    C120     C        0.88410    0.84770    0.50650    1.000
    C121     C        0.92050    0.82060    0.48510    1.000
    C122     C        0.67370    0.89440    0.60660    1.000
    C123     C        0.65790    0.85670    0.56180    1.000
    H71      H        0.67170    0.84710    0.52620    1.000
    C124     C        0.62080    0.83250    0.56940    1.000
    H72      H        0.60990    0.80790    0.53820    1.000
    C125     C        0.60117    0.84600    0.62340    1.000
    C126     C        0.61650    0.88260    0.66990    1.000
    H73      H        0.60340    0.89110    0.70700    1.000
    C127     C        0.65230    0.90680    0.65980    1.000
    H74      H        0.66220    0.93210    0.68990    1.000
    C128     C        0.56400    0.81770    0.63490    1.000
    C129     C        0.80960    0.85600    0.49900    1.000
    H75      H        0.78140    0.84860    0.47610    1.000
    C130     C        0.84180    0.82920    0.48490    1.000
    H76      H        0.83640    0.80030    0.46220    1.000
    C131     C        0.89460    0.88510    0.55790    1.000
    H77      H        0.92260    0.89400    0.57860    1.000
    C132     C        0.86000    0.90720    0.57490    1.000
    H78      H        0.86530    0.93230    0.60700    1.000
    Lu4      Lu       0.48544    0.72588    0.95093    1.000
    O25      O        0.46166    0.70350    0.83540    1.000
    O26      O        0.45462    0.74440    0.73330    1.000
    O27      O        0.03942    0.68520    0.36090    1.000
    O28      O        0.04624    0.73570    0.45260    1.000
    O29      O        0.41490    0.28060    0.46720    1.000
    O30      O        0.45280    0.34270    0.47990    1.000
    O31      O        0.04631    0.29143    0.58830    1.000
    O32      O        0.05323    0.32550    0.69800    1.000
    C133     C        0.25212    0.54070    0.60140    1.000
    C134     C        0.28923    0.56450    0.63420    1.000
    H79      H        0.31370    0.54800    0.65710    1.000
    C135     C        0.29020    0.61190    0.63340    1.000
    C136     C        0.25384    0.63550    0.60050    1.000
    H80      H        0.25430    0.66770    0.60100    1.000
    C137     C        0.21620    0.61280    0.56620    1.000
    C138     C        0.21631    0.56610    0.56800    1.000
    H81      H        0.19130    0.55040    0.54590    1.000
    C139     C        0.33076    0.63750    0.67070    1.000
    C140     C        0.34360    0.67330    0.63500    1.000
    H82      H        0.32690    0.68200    0.58910    1.000
    C141     C        0.38120    0.69760    0.66470    1.000
    H83      H        0.39080    0.72040    0.63740    1.000
    C142     C        0.40430    0.68690    0.73720    1.000
    C143     C        0.39210    0.64970    0.77410    1.000
    H84      H        0.40780    0.64120    0.82090    1.000
    C144     C        0.35500    0.62480    0.73840    1.000
    H85      H        0.34680    0.59910    0.76170    1.000
    C145     C        0.44370    0.71370    0.76960    1.000
    C146     C        0.17694    0.63800    0.52890    1.000
    C147     C        0.15130    0.62130    0.46210    1.000
    H86      H        0.15920    0.59450    0.44100    1.000
    C148     C        0.11430    0.64470    0.42740    1.000
    H87      H        0.09830    0.63370    0.38220    1.000
    C149     C        0.10092    0.68200    0.45640    1.000
    C150     C        0.12620    0.69990    0.52150    1.000
    H88      H        0.11810    0.72730    0.54050    1.000
    C151     C        0.16390    0.67720    0.55950    1.000
    H89      H        0.17970    0.68850    0.60450    1.000
    C152     C        0.05977    0.70370    0.42090    1.000
    C153     C        0.25085    0.48970    0.59780    1.000
    C154     C        0.21476    0.46630    0.60540    1.000
    H90      H        0.19210    0.48280    0.61520    1.000
    C155     C        0.21215    0.41880    0.59840    1.000
    C156     C        0.24599    0.39560    0.57940    1.000
    H91      H        0.24430    0.36360    0.57290    1.000
    C157     C        0.28219    0.41900    0.57000    1.000
    C158     C        0.28484    0.46550    0.58030    1.000
    H92      H        0.30910    0.48140    0.57570    1.000
    C159     C        0.31790    0.39350    0.54640    1.000
    C160     C        0.32490    0.34890    0.56350    1.000
    H93      H        0.30760    0.33360    0.58890    1.000
    C161     C        0.35850    0.32450    0.54350    1.000
    H94      H        0.36310    0.29320    0.55530    1.000
    C162     C        0.38030    0.39220    0.50070    1.000
    H95      H        0.40150    0.40880    0.48620    1.000
    C163     C        0.34600    0.41660    0.51500    1.000
    H96      H        0.34230    0.44790    0.50350    1.000
    C164     C        0.38410    0.34770    0.50650    1.000
    C165     C        0.42050    0.32060    0.48510    1.000
    C166     C        0.17370    0.39440    0.60660    1.000
    C167     C        0.15790    0.35670    0.56180    1.000
    H97      H        0.17170    0.34710    0.52620    1.000
    C168     C        0.12080    0.33250    0.56940    1.000
    H98      H        0.10990    0.30790    0.53820    1.000
    C169     C        0.10117    0.34600    0.62340    1.000
    C170     C        0.11650    0.38260    0.66990    1.000
    H99      H        0.10340    0.39110    0.70700    1.000
    C171     C        0.15230    0.40680    0.65980    1.000
    H100     H        0.16220    0.43210    0.68990    1.000
    C172     C        0.06400    0.31770    0.63490    1.000
    C173     C        0.30960    0.35600    0.49900    1.000
    H101     H        0.28140    0.34860    0.47610    1.000
    C174     C        0.34180    0.32920    0.48490    1.000
    H102     H        0.33640    0.30030    0.46220    1.000
    C175     C        0.39460    0.38510    0.55790    1.000
    H103     H        0.42260    0.39400    0.57860    1.000
    C176     C        0.36000    0.40720    0.57490    1.000
    H104     H        0.36530    0.43230    0.60700    1.000
    Lu5      Lu       0.98544    0.77412    0.45093    1.000
    O33      O        0.96166    0.79650    0.33540    1.000
    O34      O        0.95462    0.75560    0.23330    1.000
    O35      O        0.53942    0.81480    0.86090    1.000
    O36      O        0.54624    0.76430    0.95260    1.000
    O37      O        0.91490    0.21940    0.96720    1.000
    O38      O        0.95280    0.15730    0.97990    1.000
    O39      O        0.54631    0.20857    0.08830    1.000
    O40      O        0.55323    0.17450    0.19800    1.000
    C177     C        0.75212    0.95930    0.10140    1.000
    C178     C        0.78923    0.93550    0.13420    1.000
    H105     H        0.81370    0.95200    0.15710    1.000
    C179     C        0.79020    0.88810    0.13340    1.000
    C180     C        0.75384    0.86450    0.10050    1.000
    H106     H        0.75430    0.83230    0.10100    1.000
    C181     C        0.71620    0.88720    0.06620    1.000
    C182     C        0.71631    0.93390    0.06800    1.000
    H107     H        0.69130    0.94960    0.04590    1.000
    C183     C        0.83076    0.86250    0.17070    1.000
    C184     C        0.84360    0.82670    0.13500    1.000
    H108     H        0.82690    0.81800    0.08910    1.000
    C185     C        0.88120    0.80240    0.16470    1.000
    H109     H        0.89080    0.77960    0.13740    1.000
    C186     C        0.90430    0.81310    0.23720    1.000
    C187     C        0.89210    0.85030    0.27410    1.000
    H110     H        0.90780    0.85880    0.32090    1.000
    C188     C        0.85500    0.87520    0.23840    1.000
    H111     H        0.84680    0.90090    0.26170    1.000
    C189     C        0.94370    0.78630    0.26960    1.000
    C190     C        0.67694    0.86200    0.02890    1.000
    C191     C        0.65130    0.87870    0.96210    1.000
    H112     H        0.65920    0.90550    0.94100    1.000
    C192     C        0.61430    0.85530    0.92740    1.000
    H113     H        0.59830    0.86630    0.88220    1.000
    C193     C        0.60092    0.81800    0.95640    1.000
    C194     C        0.62620    0.80010    0.02150    1.000
    H114     H        0.61810    0.77270    0.04050    1.000
    C195     C        0.66390    0.82280    0.05950    1.000
    H115     H        0.67970    0.81150    0.10450    1.000
    C196     C        0.55977    0.79630    0.92090    1.000
    C197     C        0.75085    0.01030    0.09780    1.000
    C198     C        0.71476    0.03370    0.10540    1.000
    H116     H        0.69210    0.01720    0.11520    1.000
    C199     C        0.71215    0.08120    0.09840    1.000
    C200     C        0.74599    0.10440    0.07940    1.000
    H117     H        0.74430    0.13640    0.07290    1.000
    C201     C        0.78219    0.08100    0.07000    1.000
    C202     C        0.78484    0.03450    0.08030    1.000
    H118     H        0.80910    0.01860    0.07570    1.000
    C203     C        0.81790    0.10650    0.04640    1.000
    C204     C        0.82490    0.15110    0.06350    1.000
    H119     H        0.80760    0.16640    0.08890    1.000
    C205     C        0.85850    0.17550    0.04350    1.000
    H120     H        0.86310    0.20680    0.05530    1.000
    C206     C        0.88030    0.10780    0.00070    1.000
    H121     H        0.90150    0.09120    0.98620    1.000
    C207     C        0.84600    0.08340    0.01500    1.000
    H122     H        0.84230    0.05210    0.00350    1.000
    C208     C        0.88410    0.15230    0.00650    1.000
    C209     C        0.92050    0.17940    0.98510    1.000
    C210     C        0.67370    0.10560    0.10660    1.000
    C211     C        0.65790    0.14330    0.06180    1.000
    H123     H        0.67170    0.15290    0.02620    1.000
    C212     C        0.62080    0.16750    0.06940    1.000
    H124     H        0.60990    0.19210    0.03820    1.000
    C213     C        0.60117    0.15400    0.12340    1.000
    C214     C        0.61650    0.11740    0.16990    1.000
    H125     H        0.60340    0.10890    0.20700    1.000
    C215     C        0.65230    0.09320    0.15980    1.000
    H126     H        0.66220    0.06790    0.18990    1.000
    C216     C        0.56400    0.18230    0.13490    1.000
    C217     C        0.80960    0.14400    0.99900    1.000
    H127     H        0.78140    0.15140    0.97610    1.000
    C218     C        0.84180    0.17080    0.98490    1.000
    H128     H        0.83640    0.19970    0.96220    1.000
    C219     C        0.89460    0.11490    0.05790    1.000
    H129     H        0.92260    0.10600    0.07860    1.000
    C220     C        0.86000    0.09280    0.07490    1.000
    H130     H        0.86530    0.06770    0.10700    1.000
    Lu6      Lu       0.48544    0.27412    0.45093    1.000
    O41      O        0.46166    0.29650    0.33540    1.000
    O42      O        0.45462    0.25560    0.23330    1.000
    O43      O        0.03942    0.31480    0.86090    1.000
    O44      O        0.04624    0.26430    0.95260    1.000
    O45      O        0.41490    0.71940    0.96720    1.000
    O46      O        0.45280    0.65730    0.97990    1.000
    O47      O        0.04631    0.70857    0.08830    1.000
    O48      O        0.05323    0.67450    0.19800    1.000
    C221     C        0.25212    0.45930    0.10140    1.000
    C222     C        0.28923    0.43550    0.13420    1.000
    H131     H        0.31370    0.45200    0.15710    1.000
    C223     C        0.29020    0.38810    0.13340    1.000
    C224     C        0.25384    0.36450    0.10050    1.000
    H132     H        0.25430    0.33230    0.10100    1.000
    C225     C        0.21620    0.38720    0.06620    1.000
    C226     C        0.21631    0.43390    0.06800    1.000
    H133     H        0.19130    0.44960    0.04590    1.000
    C227     C        0.33076    0.36250    0.17070    1.000
    C228     C        0.34360    0.32670    0.13500    1.000
    H134     H        0.32690    0.31800    0.08910    1.000
    C229     C        0.38120    0.30240    0.16470    1.000
    H135     H        0.39080    0.27960    0.13740    1.000
    C230     C        0.40430    0.31310    0.23720    1.000
    C231     C        0.39210    0.35030    0.27410    1.000
    H136     H        0.40780    0.35880    0.32090    1.000
    C232     C        0.35500    0.37520    0.23840    1.000
    H137     H        0.34680    0.40090    0.26170    1.000
    C233     C        0.44370    0.28630    0.26960    1.000
    C234     C        0.17694    0.36200    0.02890    1.000
    C235     C        0.15130    0.37870    0.96210    1.000
    H138     H        0.15920    0.40550    0.94100    1.000
    C236     C        0.11430    0.35530    0.92740    1.000
    H139     H        0.09830    0.36630    0.88220    1.000
    C237     C        0.10092    0.31800    0.95640    1.000
    C238     C        0.12620    0.30010    0.02150    1.000
    H140     H        0.11810    0.27270    0.04050    1.000
    C239     C        0.16390    0.32280    0.05950    1.000
    H141     H        0.17970    0.31150    0.10450    1.000
    C240     C        0.05977    0.29630    0.92090    1.000
    C241     C        0.25085    0.51030    0.09780    1.000
    C242     C        0.21476    0.53370    0.10540    1.000
    H142     H        0.19210    0.51720    0.11520    1.000
    C243     C        0.21215    0.58120    0.09840    1.000
    C244     C        0.24599    0.60440    0.07940    1.000
    H143     H        0.24430    0.63640    0.07290    1.000
    C245     C        0.28219    0.58100    0.07000    1.000
    C246     C        0.28484    0.53450    0.08030    1.000
    H144     H        0.30910    0.51860    0.07570    1.000
    C247     C        0.31790    0.60650    0.04640    1.000
    C248     C        0.32490    0.65110    0.06350    1.000
    H145     H        0.30760    0.66640    0.08890    1.000
    C249     C        0.35850    0.67550    0.04350    1.000
    H146     H        0.36310    0.70680    0.05530    1.000
    C250     C        0.38030    0.60780    0.00070    1.000
    H147     H        0.40150    0.59120    0.98620    1.000
    C251     C        0.34600    0.58340    0.01500    1.000
    H148     H        0.34230    0.55210    0.00350    1.000
    C252     C        0.38410    0.65230    0.00650    1.000
    C253     C        0.42050    0.67940    0.98510    1.000
    C254     C        0.17370    0.60560    0.10660    1.000
    C255     C        0.15790    0.64330    0.06180    1.000
    H149     H        0.17170    0.65290    0.02620    1.000
    C256     C        0.12080    0.66750    0.06940    1.000
    H150     H        0.10990    0.69210    0.03820    1.000
    C257     C        0.10117    0.65400    0.12340    1.000
    C258     C        0.11650    0.61740    0.16990    1.000
    H151     H        0.10340    0.60890    0.20700    1.000
    C259     C        0.15230    0.59320    0.15980    1.000
    H152     H        0.16220    0.56790    0.18990    1.000
    C260     C        0.06400    0.68230    0.13490    1.000
    C261     C        0.30960    0.64400    0.99900    1.000
    H153     H        0.28140    0.65140    0.97610    1.000
    C262     C        0.34180    0.67080    0.98490    1.000
    H154     H        0.33640    0.69970    0.96220    1.000
    C263     C        0.39460    0.61490    0.05790    1.000
    H155     H        0.42260    0.60600    0.07860    1.000
    C264     C        0.36000    0.59280    0.07490    1.000
    H156     H        0.36530    0.56770    0.10700    1.000
    Lu7      Lu       0.01456    0.77412    0.04907    1.000
    O49      O        0.03834    0.79650    0.16460    1.000
    O50      O        0.04538    0.75560    0.26670    1.000
    O51      O        0.46058    0.81480    0.63910    1.000
    O52      O        0.45376    0.76430    0.54740    1.000
    O53      O        0.08510    0.21940    0.53280    1.000
    O54      O        0.04720    0.15730    0.52010    1.000
    O55      O        0.45369    0.20857    0.41170    1.000
    O56      O        0.44677    0.17450    0.30200    1.000
    C265     C        0.24788    0.95930    0.39860    1.000
    C266     C        0.21077    0.93550    0.36580    1.000
    H157     H        0.18630    0.95200    0.34290    1.000
    C267     C        0.20980    0.88810    0.36660    1.000
    C268     C        0.24616    0.86450    0.39950    1.000
    H158     H        0.24570    0.83230    0.39900    1.000
    C269     C        0.28380    0.88720    0.43380    1.000
    C270     C        0.28369    0.93390    0.43200    1.000
    H159     H        0.30870    0.94960    0.45410    1.000
    C271     C        0.16924    0.86250    0.32930    1.000
    C272     C        0.15640    0.82670    0.36500    1.000
    H160     H        0.17310    0.81800    0.41090    1.000
    C273     C        0.11880    0.80240    0.33530    1.000
    H161     H        0.10920    0.77960    0.36260    1.000
    C274     C        0.09570    0.81310    0.26280    1.000
    C275     C        0.10790    0.85030    0.22590    1.000
    H162     H        0.09220    0.85880    0.17910    1.000
    C276     C        0.14500    0.87520    0.26160    1.000
    H163     H        0.15320    0.90090    0.23830    1.000
    C277     C        0.05630    0.78630    0.23040    1.000
    C278     C        0.32306    0.86200    0.47110    1.000
    C279     C        0.34870    0.87870    0.53790    1.000
    H164     H        0.34080    0.90550    0.55900    1.000
    C280     C        0.38570    0.85530    0.57260    1.000
    H165     H        0.40170    0.86630    0.61780    1.000
    C281     C        0.39908    0.81800    0.54360    1.000
    C282     C        0.37380    0.80010    0.47850    1.000
    H166     H        0.38190    0.77270    0.45950    1.000
    C283     C        0.33610    0.82280    0.44050    1.000
    H167     H        0.32030    0.81150    0.39550    1.000
    C284     C        0.44023    0.79630    0.57910    1.000
    C285     C        0.24915    0.01030    0.40220    1.000
    C286     C        0.28524    0.03370    0.39460    1.000
    H168     H        0.30790    0.01720    0.38480    1.000
    C287     C        0.28785    0.08120    0.40160    1.000
    C288     C        0.25401    0.10440    0.42060    1.000
    H169     H        0.25570    0.13640    0.42710    1.000
    C289     C        0.21781    0.08100    0.43000    1.000
    C290     C        0.21516    0.03450    0.41970    1.000
    H170     H        0.19090    0.01860    0.42430    1.000
    C291     C        0.18210    0.10650    0.45360    1.000
    C292     C        0.17510    0.15110    0.43650    1.000
    H171     H        0.19240    0.16640    0.41110    1.000
    C293     C        0.14150    0.17550    0.45650    1.000
    H172     H        0.13690    0.20680    0.44470    1.000
    C294     C        0.11970    0.10780    0.49930    1.000
    H173     H        0.09850    0.09120    0.51380    1.000
    C295     C        0.15400    0.08340    0.48500    1.000
    H174     H        0.15770    0.05210    0.49650    1.000
    C296     C        0.11590    0.15230    0.49350    1.000
    C297     C        0.07950    0.17940    0.51490    1.000
    C298     C        0.32630    0.10560    0.39340    1.000
    C299     C        0.34210    0.14330    0.43820    1.000
    H175     H        0.32830    0.15290    0.47380    1.000
    C300     C        0.37920    0.16750    0.43060    1.000
    H176     H        0.39010    0.19210    0.46180    1.000
    C301     C        0.39883    0.15400    0.37660    1.000
    C302     C        0.38350    0.11740    0.33010    1.000
    H177     H        0.39660    0.10890    0.29300    1.000
    C303     C        0.34770    0.09320    0.34020    1.000
    H178     H        0.33780    0.06790    0.31010    1.000
    C304     C        0.43600    0.18230    0.36510    1.000
    C305     C        0.19040    0.14400    0.50100    1.000
    H179     H        0.21860    0.15140    0.52390    1.000
    C306     C        0.15820    0.17080    0.51510    1.000
    H180     H        0.16360    0.19970    0.53780    1.000
    C307     C        0.10540    0.11490    0.44210    1.000
    H181     H        0.07740    0.10600    0.42140    1.000
    C308     C        0.14000    0.09280    0.42510    1.000
    H182     H        0.13470    0.06770    0.39300    1.000
    Lu8      Lu       0.51456    0.27412    0.04907    1.000
    O57      O        0.53834    0.29650    0.16460    1.000
    O58      O        0.54538    0.25560    0.26670    1.000
    O59      O        0.96058    0.31480    0.63910    1.000
    O60      O        0.95376    0.26430    0.54740    1.000
    O61      O        0.58510    0.71940    0.53280    1.000
    O62      O        0.54720    0.65730    0.52010    1.000
    O63      O        0.95369    0.70857    0.41170    1.000
    O64      O        0.94677    0.67450    0.30200    1.000
    C309     C        0.74788    0.45930    0.39860    1.000
    C310     C        0.71077    0.43550    0.36580    1.000
    H183     H        0.68630    0.45200    0.34290    1.000
    C311     C        0.70980    0.38810    0.36660    1.000
    C312     C        0.74616    0.36450    0.39950    1.000
    H184     H        0.74570    0.33230    0.39900    1.000
    C313     C        0.78380    0.38720    0.43380    1.000
    C314     C        0.78369    0.43390    0.43200    1.000
    H185     H        0.80870    0.44960    0.45410    1.000
    C315     C        0.66924    0.36250    0.32930    1.000
    C316     C        0.65640    0.32670    0.36500    1.000
    H186     H        0.67310    0.31800    0.41090    1.000
    C317     C        0.61880    0.30240    0.33530    1.000
    H187     H        0.60920    0.27960    0.36260    1.000
    C318     C        0.59570    0.31310    0.26280    1.000
    C319     C        0.60790    0.35030    0.22590    1.000
    H188     H        0.59220    0.35880    0.17910    1.000
    C320     C        0.64500    0.37520    0.26160    1.000
    H189     H        0.65320    0.40090    0.23830    1.000
    C321     C        0.55630    0.28630    0.23040    1.000
    C322     C        0.82306    0.36200    0.47110    1.000
    C323     C        0.84870    0.37870    0.53790    1.000
    H190     H        0.84080    0.40550    0.55900    1.000
    C324     C        0.88570    0.35530    0.57260    1.000
    H191     H        0.90170    0.36630    0.61780    1.000
    C325     C        0.89908    0.31800    0.54360    1.000
    C326     C        0.87380    0.30010    0.47850    1.000
    H192     H        0.88190    0.27270    0.45950    1.000
    C327     C        0.83610    0.32280    0.44050    1.000
    H193     H        0.82030    0.31150    0.39550    1.000
    C328     C        0.94023    0.29630    0.57910    1.000
    C329     C        0.74915    0.51030    0.40220    1.000
    C330     C        0.78524    0.53370    0.39460    1.000
    H194     H        0.80790    0.51720    0.38480    1.000
    C331     C        0.78785    0.58120    0.40160    1.000
    C332     C        0.75401    0.60440    0.42060    1.000
    H195     H        0.75570    0.63640    0.42710    1.000
    C333     C        0.71781    0.58100    0.43000    1.000
    C334     C        0.71516    0.53450    0.41970    1.000
    H196     H        0.69090    0.51860    0.42430    1.000
    C335     C        0.68210    0.60650    0.45360    1.000
    C336     C        0.67510    0.65110    0.43650    1.000
    H197     H        0.69240    0.66640    0.41110    1.000
    C337     C        0.64150    0.67550    0.45650    1.000
    H198     H        0.63690    0.70680    0.44470    1.000
    C338     C        0.61970    0.60780    0.49930    1.000
    H199     H        0.59850    0.59120    0.51380    1.000
    C339     C        0.65400    0.58340    0.48500    1.000
    H200     H        0.65770    0.55210    0.49650    1.000
    C340     C        0.61590    0.65230    0.49350    1.000
    C341     C        0.57950    0.67940    0.51490    1.000
    C342     C        0.82630    0.60560    0.39340    1.000
    C343     C        0.84210    0.64330    0.43820    1.000
    H201     H        0.82830    0.65290    0.47380    1.000
    C344     C        0.87920    0.66750    0.43060    1.000
    H202     H        0.89010    0.69210    0.46180    1.000
    C345     C        0.89883    0.65400    0.37660    1.000
    C346     C        0.88350    0.61740    0.33010    1.000
    H203     H        0.89660    0.60890    0.29300    1.000
    C347     C        0.84770    0.59320    0.34020    1.000
    H204     H        0.83780    0.56790    0.31010    1.000
    C348     C        0.93600    0.68230    0.36510    1.000
    C349     C        0.69040    0.64400    0.50100    1.000
    H205     H        0.71860    0.65140    0.52390    1.000
    C350     C        0.65820    0.67080    0.51510    1.000
    H206     H        0.66360    0.69970    0.53780    1.000
    C351     C        0.60540    0.61490    0.44210    1.000
    H207     H        0.57740    0.60600    0.42140    1.000
    C352     C        0.64000    0.59280    0.42510    1.000
    H208     H        0.63470    0.56770    0.39300    1.000
    Lu9      Lu       0.00000    0.30355    0.75000    1.000
    Lu10     Lu       0.50000    0.80355    0.75000    1.000
    Lu11     Lu       0.00000    0.69645    0.25000    1.000
    Lu12     Lu       0.50000    0.19645    0.25000    1.000
