data_functionalizedCrystal
_audit_creation_method	'EQeq! by Chris Wilmer'
_symmetry_space_group_name_H-M	'P1'
_symmetry_Int_Tables_number	1
_symmetry_cell_setting	triclinic
loop_
_symmetry_equiv_pos_as_xyz
  x,y,z
_cell_length_a	9.574
_cell_length_b	22.547
_cell_length_c	10.122
_cell_angle_alpha	90
_cell_angle_beta	102.04
_cell_angle_gamma	90
loop_
_atom_site_label
_atom_site_type_symbol
_atom_site_fract_x
_atom_site_fract_y
_atom_site_fract_z
_atom_site_charge
Mof_Eu	Eu	0.74915	0.72216	0.95684	2.052
Mof_Eu	Eu	0.28188	0.56499	0.14376	2.279
Mof_N 	N 	0.2272	0.49221	0.3582	-0.214
Mof_N 	N 	0.4018	0.58492	0.3786	-0.263
Mof_N 	N 	0.4654	0.58658	0.6003	-0.2
Mof_H 	H 	0.47554	0.57161	0.67975	0.151
Mof_O 	O 	0.9325	0.66083	0.8945	-0.462
Mof_O 	O 	0.9653	0.71058	0.1391	-0.454
Mof_O 	O 	0.1679	0.65797	0.2095	-0.429
Mof_O 	O 	0.1511	0.62078	0.9527	-0.444
Mof_O 	O 	0.3995	0.5639	0.9512	-0.438
Mof_O 	O 	0.5299	0.50961	0.8354	-0.466
Mof_O 	O 	0.1783	0.48098	0.0037	-0.46
Mof_O 	O 	0.9757	0.44898	0.8674	-0.463
Mof_O 	O 	0.4782	0.6399	0.1819	-0.5
Mof_O 	O 	0.6238	0.704	0.3117	-0.562
Mof_O 	O 	0.7205	0.70621	0.6139	-0.593
Mof_O 	O 	0.6329	0.66118	0.7754	-0.528
Mof_C 	C 	0.0478	0.65027	0.975	0.275
Mof_C 	C 	0.0627	0.67565	0.122	0.243
Mof_C 	C 	0.0438	0.47986	0.9618	0.271
Mof_C 	C 	0.4786	0.52144	0.9387	0.266
Mof_C 	C 	0.5395	0.66089	0.2976	0.41
Mof_C 	C 	0.6408	0.6691	0.6541	0.446
Mof_C 	C 	0.5023	0.62899	0.4142	-0.068
Mof_C 	C 	0.544	0.63103	0.5542	-0.044
Mof_C 	C 	0.3822	0.56007	0.4925	0.113
Mof_C 	C 	0.2785	0.51114	0.4873	0.034
Mof_C 	C 	0.2373	0.4871	0.5995	-0.101
Mof_H 	H 	0.27315	0.50214	0.68772	0.074
Mof_C 	C 	0.1403	0.4395	0.5772	0.024
Mof_H 	H 	0.10811	0.42161	0.65042	0.015
Mof_C 	C 	0.0921	0.419	0.4454	-0.122
Mof_H 	H 	0.02983	0.38576	0.42861	0.062
Mof_C 	C 	0.1346	0.4468	0.3409	0.091
Mof_H 	H 	0.097	0.43336	0.25154	0.001
Mof_Eu	Eu	0.25085	0.22216	0.54316	2.06
Mof_Eu	Eu	0.71812	0.06499	0.35624	2.275
Mof_N 	N 	0.7728	0.99221	0.1418	-0.21
Mof_N 	N 	0.5982	0.08492	0.1214	-0.262
Mof_N 	N 	0.5346	0.08658	0.8997	-0.199
Mof_H 	H 	0.52446	0.07161	0.82025	0.151
Mof_O 	O 	0.0675	0.16083	0.6055	-0.458
Mof_O 	O 	0.0347	0.21058	0.3609	-0.46
Mof_O 	O 	0.8321	0.15797	0.2905	-0.43
Mof_O 	O 	0.8489	0.12078	0.5473	-0.443
Mof_O 	O 	0.6005	0.0639	0.5488	-0.438
Mof_O 	O 	0.4701	0.00961	0.6646	-0.465
Mof_O 	O 	0.8217	0.98098	0.4963	-0.456
Mof_O 	O 	0.0243	0.94898	0.6326	-0.461
Mof_O 	O 	0.5218	0.1399	0.3181	-0.5
Mof_O 	O 	0.3762	0.204	0.1883	-0.563
Mof_O 	O 	0.2795	0.20621	0.8861	-0.589
Mof_O 	O 	0.3671	0.16118	0.7246	-0.528
Mof_C 	C 	0.9522	0.15027	0.525	0.266
Mof_C 	C 	0.9373	0.17565	0.378	0.25
Mof_C 	C 	0.9562	0.97986	0.5382	0.266
Mof_C 	C 	0.5214	0.02144	0.5613	0.265
Mof_C 	C 	0.4605	0.16089	0.2024	0.411
Mof_C 	C 	0.3592	0.1691	0.8459	0.444
Mof_C 	C 	0.4977	0.12899	0.0858	-0.072
Mof_C 	C 	0.456	0.13103	0.9458	-0.039
Mof_C 	C 	0.6178	0.06007	0.0075	0.111
Mof_C 	C 	0.7215	0.01114	0.0127	0.031
Mof_C 	C 	0.7627	0.9871	0.9005	-0.097
Mof_H 	H 	0.72685	0.00214	0.81228	0.073
Mof_C 	C 	0.8597	0.9395	0.9228	0.01
Mof_H 	H 	0.89189	0.92161	0.84958	0.018
Mof_C 	C 	0.9079	0.919	0.0546	-0.107
Mof_H 	H 	0.97017	0.88576	0.07139	0.06
Mof_C 	C 	0.8654	0.9468	0.1591	0.086
Mof_H 	H 	0.903	0.93336	0.24846	0.004
Mof_Eu	Eu	0.25085	0.27784	0.04316	2.052
Mof_Eu	Eu	0.71812	0.43501	0.85624	2.279
Mof_N 	N 	0.7728	0.50779	0.6418	-0.214
Mof_N 	N 	0.5982	0.41508	0.6214	-0.263
Mof_N 	N 	0.5346	0.41342	0.3997	-0.2
Mof_H 	H 	0.52446	0.42839	0.32025	0.151
Mof_O 	O 	0.0675	0.33917	0.1055	-0.462
Mof_O 	O 	0.0347	0.28942	0.8609	-0.454
Mof_O 	O 	0.8321	0.34203	0.7905	-0.429
Mof_O 	O 	0.8489	0.37922	0.0473	-0.444
Mof_O 	O 	0.6005	0.4361	0.0488	-0.438
Mof_O 	O 	0.4701	0.49039	0.1646	-0.466
Mof_O 	O 	0.8217	0.51902	0.9963	-0.46
Mof_O 	O 	0.0243	0.55102	0.1326	-0.463
Mof_O 	O 	0.5218	0.3601	0.8181	-0.5
Mof_O 	O 	0.3762	0.296	0.6883	-0.562
Mof_O 	O 	0.2795	0.29379	0.3861	-0.593
Mof_O 	O 	0.3671	0.33882	0.2246	-0.528
Mof_C 	C 	0.9522	0.34973	0.025	0.275
Mof_C 	C 	0.9373	0.32435	0.878	0.243
Mof_C 	C 	0.9562	0.52014	0.0382	0.271
Mof_C 	C 	0.5214	0.47856	0.0613	0.266
Mof_C 	C 	0.4605	0.33911	0.7024	0.41
Mof_C 	C 	0.3592	0.3309	0.3459	0.446
Mof_C 	C 	0.4977	0.37101	0.5858	-0.068
Mof_C 	C 	0.456	0.36897	0.4458	-0.044
Mof_C 	C 	0.6178	0.43993	0.5075	0.113
Mof_C 	C 	0.7215	0.48886	0.5127	0.034
Mof_C 	C 	0.7627	0.5129	0.4005	-0.101
Mof_H 	H 	0.72685	0.49786	0.31228	0.074
Mof_C 	C 	0.8597	0.5605	0.4228	0.024
Mof_H 	H 	0.89189	0.57839	0.34958	0.015
Mof_C 	C 	0.9079	0.581	0.5546	-0.122
Mof_H 	H 	0.97017	0.61424	0.57139	0.062
Mof_C 	C 	0.8654	0.5532	0.6591	0.091
Mof_H 	H 	0.903	0.56664	0.74846	0.001
Mof_Eu	Eu	0.74915	0.77784	0.45684	2.06
Mof_Eu	Eu	0.28188	0.93501	0.64376	2.275
Mof_N 	N 	0.2272	0.00779	0.8582	-0.21
Mof_N 	N 	0.4018	0.91508	0.8786	-0.262
Mof_N 	N 	0.4654	0.91342	0.1003	-0.199
Mof_H 	H 	0.47554	0.92839	0.17975	0.151
Mof_O 	O 	0.9325	0.83917	0.3945	-0.458
Mof_O 	O 	0.9653	0.78942	0.6391	-0.46
Mof_O 	O 	0.1679	0.84203	0.7095	-0.43
Mof_O 	O 	0.1511	0.87922	0.4527	-0.443
Mof_O 	O 	0.3995	0.9361	0.4512	-0.438
Mof_O 	O 	0.5299	0.99039	0.3354	-0.465
Mof_O 	O 	0.1783	0.01902	0.5037	-0.456
Mof_O 	O 	0.9757	0.05102	0.3674	-0.461
Mof_O 	O 	0.4782	0.8601	0.6819	-0.5
Mof_O 	O 	0.6238	0.796	0.8117	-0.563
Mof_O 	O 	0.7205	0.79379	0.1139	-0.589
Mof_O 	O 	0.6329	0.83882	0.2754	-0.528
Mof_C 	C 	0.0478	0.84973	0.475	0.266
Mof_C 	C 	0.0627	0.82435	0.622	0.25
Mof_C 	C 	0.0438	0.02014	0.4618	0.266
Mof_C 	C 	0.4786	0.97856	0.4387	0.265
Mof_C 	C 	0.5395	0.83911	0.7976	0.411
Mof_C 	C 	0.6408	0.8309	0.1541	0.444
Mof_C 	C 	0.5023	0.87101	0.9142	-0.072
Mof_C 	C 	0.544	0.86897	0.0542	-0.039
Mof_C 	C 	0.3822	0.93993	0.9925	0.111
Mof_C 	C 	0.2785	0.98886	0.9873	0.031
Mof_C 	C 	0.2373	0.0129	0.0995	-0.097
Mof_H 	H 	0.27315	0.99786	0.18772	0.073
Mof_C 	C 	0.1403	0.0605	0.0772	0.01
Mof_H 	H 	0.10811	0.07839	0.15042	0.018
Mof_C 	C 	0.0921	0.081	0.9454	-0.107
Mof_H 	H 	0.02983	0.11424	0.92861	0.06
Mof_C 	C 	0.1346	0.0532	0.8409	0.086
Mof_H 	H 	0.097	0.06664	0.75154	0.004
_end
