# CIF file generated by openbabel 3.1.0, see https://openbabel.org
data_I
_chemical_name_common 'image0'
_cell_length_a 20.92
_cell_length_b 9.4373
_cell_length_c 22.981
_cell_angle_alpha 90
_cell_angle_beta 108.736
_cell_angle_gamma 90
_space_group_name_H-M_alt 'P 1'
_space_group_name_Hall 'P 1'
loop_
    _symmetry_equiv_pos_as_xyz
    x,y,z
loop_
    _atom_site_label
    _atom_site_type_symbol
    _atom_site_fract_x
    _atom_site_fract_y
    _atom_site_fract_z
    _atom_site_occupancy
    Zn1      Zn       0.71273    0.64295    0.76117    1.000
    C1       C        0.82860    0.75860    0.66650    1.000
    C2       C        0.83690    0.62460    0.69300    1.000
    C3       C        0.83020    0.50670    0.65660    1.000
    C4       C        0.81660    0.51990    0.59490    1.000
    H1       H        0.81330    0.43950    0.57070    1.000
    C5       C        0.80780    0.65210    0.56810    1.000
    H2       H        0.79870    0.66100    0.52590    1.000
    C6       C        0.81250    0.76970    0.60360    1.000
    H3       H        0.80480    0.85860    0.58520    1.000
    C7       C        0.83900    0.89160    0.70470    1.000
    C8       C        0.85530    0.61200    0.76360    1.000
    C9       C        0.83210    0.35700    0.68200    1.000
    C10      C        0.65650    0.49320    0.64350    1.000
    H4       H        0.66900    0.41220    0.66750    1.000
    C11      C        0.62630    0.47940    0.58110    1.000
    H5       H        0.61940    0.38930    0.56390    1.000
    C12      C        0.60630    0.59460    0.54390    1.000
    C13      C        0.61830    0.72670    0.57310    1.000
    H6       H        0.60600    0.80910    0.55000    1.000
    C14      C        0.64800    0.73510    0.63510    1.000
    H7       H        0.65450    0.82390    0.65360    1.000
    C15      C        0.51030    0.68330    0.37980    1.000
    H8       H        0.48280    0.75620    0.35840    1.000
    C16      C        0.53430    0.69090    0.44230    1.000
    H9       H        0.52340    0.76840    0.46230    1.000
    C17      C        0.57430    0.58570    0.47600    1.000
    C18      C        0.58780    0.47510    0.44520    1.000
    H10      H        0.61470    0.40070    0.46610    1.000
    C19      C        0.56020    0.47400    0.38000    1.000
    H11      H        0.56850    0.39510    0.35920    1.000
    N1       N        0.66830    0.62020    0.67040    1.000
    N2       N        0.52430    0.57550    0.34770    1.000
    O1       O        0.89470    0.91600    0.74390    1.000
    O2       O        0.78930    0.97200    0.69240    1.000
    O3       O        0.81250    0.65570    0.78740    1.000
    O4       O        0.91070    0.56450    0.79270    1.000
    O5       O        0.80710    0.33860    0.72230    1.000
    O6       O        0.87600    0.27300    0.67000    1.000
    O7       O        0.32900    0.24300    0.14740    1.000
    Zn2      Zn       0.21273    0.14295    0.76117    1.000
    C20      C        0.32860    0.25860    0.66650    1.000
    C21      C        0.33690    0.12460    0.69300    1.000
    C22      C        0.33020    0.00670    0.65660    1.000
    C23      C        0.31660    0.01990    0.59490    1.000
    H12      H        0.31330    0.93950    0.57070    1.000
    C24      C        0.30780    0.15210    0.56810    1.000
    H13      H        0.29870    0.16100    0.52590    1.000
    C25      C        0.31250    0.26970    0.60360    1.000
    H14      H        0.30480    0.35860    0.58520    1.000
    C26      C        0.33900    0.39160    0.70470    1.000
    C27      C        0.35530    0.11200    0.76360    1.000
    C28      C        0.33210    0.85700    0.68200    1.000
    C29      C        0.15650    0.99320    0.64350    1.000
    H15      H        0.16900    0.91220    0.66750    1.000
    C30      C        0.12630    0.97940    0.58110    1.000
    H16      H        0.11940    0.88930    0.56390    1.000
    C31      C        0.10630    0.09460    0.54390    1.000
    C32      C        0.11830    0.22670    0.57310    1.000
    H17      H        0.10600    0.30910    0.55000    1.000
    C33      C        0.14800    0.23510    0.63510    1.000
    H18      H        0.15450    0.32390    0.65360    1.000
    C34      C        0.01030    0.18330    0.37980    1.000
    H19      H        0.98280    0.25620    0.35840    1.000
    C35      C        0.03430    0.19090    0.44230    1.000
    H20      H        0.02340    0.26840    0.46230    1.000
    C36      C        0.07430    0.08570    0.47600    1.000
    C37      C        0.08780    0.97510    0.44520    1.000
    H21      H        0.11470    0.90070    0.46610    1.000
    C38      C        0.06020    0.97400    0.38000    1.000
    H22      H        0.06850    0.89510    0.35920    1.000
    N3       N        0.16830    0.12020    0.67040    1.000
    N4       N        0.02430    0.07550    0.34770    1.000
    O8       O        0.39470    0.41600    0.74390    1.000
    O9       O        0.28930    0.47200    0.69240    1.000
    O10      O        0.31250    0.15570    0.78740    1.000
    O11      O        0.41070    0.06450    0.79270    1.000
    O12      O        0.30710    0.83860    0.72230    1.000
    O13      O        0.37600    0.77300    0.67000    1.000
    O14      O        0.82900    0.74300    0.14740    1.000
    Zn3      Zn       0.28727    0.64295    0.73883    1.000
    C39      C        0.17140    0.75860    0.83350    1.000
    C40      C        0.16310    0.62460    0.80700    1.000
    C41      C        0.16980    0.50670    0.84340    1.000
    C42      C        0.18340    0.51990    0.90510    1.000
    H23      H        0.18670    0.43950    0.92930    1.000
    C43      C        0.19220    0.65210    0.93190    1.000
    H24      H        0.20130    0.66100    0.97410    1.000
    C44      C        0.18750    0.76970    0.89640    1.000
    H25      H        0.19520    0.85860    0.91480    1.000
    C45      C        0.16100    0.89160    0.79530    1.000
    C46      C        0.14470    0.61200    0.73640    1.000
    C47      C        0.16790    0.35700    0.81800    1.000
    C48      C        0.34350    0.49320    0.85650    1.000
    H26      H        0.33100    0.41220    0.83250    1.000
    C49      C        0.37370    0.47940    0.91890    1.000
    H27      H        0.38060    0.38930    0.93610    1.000
    C50      C        0.39370    0.59460    0.95610    1.000
    C51      C        0.38170    0.72670    0.92690    1.000
    H28      H        0.39400    0.80910    0.95000    1.000
    C52      C        0.35200    0.73510    0.86490    1.000
    H29      H        0.34550    0.82390    0.84640    1.000
    C53      C        0.48970    0.68330    0.12020    1.000
    H30      H        0.51720    0.75620    0.14160    1.000
    C54      C        0.46570    0.69090    0.05770    1.000
    H31      H        0.47660    0.76840    0.03770    1.000
    C55      C        0.42570    0.58570    0.02400    1.000
    C56      C        0.41220    0.47510    0.05480    1.000
    H32      H        0.38530    0.40070    0.03390    1.000
    C57      C        0.43980    0.47400    0.12000    1.000
    H33      H        0.43150    0.39510    0.14080    1.000
    N5       N        0.33170    0.62020    0.82960    1.000
    N6       N        0.47570    0.57550    0.15230    1.000
    O15      O        0.10530    0.91600    0.75610    1.000
    O16      O        0.21070    0.97200    0.80760    1.000
    O17      O        0.18750    0.65570    0.71260    1.000
    O18      O        0.08930    0.56450    0.70730    1.000
    O19      O        0.19290    0.33860    0.77770    1.000
    O20      O        0.12400    0.27300    0.83000    1.000
    O21      O        0.67100    0.24300    0.35260    1.000
    Zn4      Zn       0.78727    0.14295    0.73883    1.000
    C58      C        0.67140    0.25860    0.83350    1.000
    C59      C        0.66310    0.12460    0.80700    1.000
    C60      C        0.66980    0.00670    0.84340    1.000
    C61      C        0.68340    0.01990    0.90510    1.000
    H34      H        0.68670    0.93950    0.92930    1.000
    C62      C        0.69220    0.15210    0.93190    1.000
    H35      H        0.70130    0.16100    0.97410    1.000
    C63      C        0.68750    0.26970    0.89640    1.000
    H36      H        0.69520    0.35860    0.91480    1.000
    C64      C        0.66100    0.39160    0.79530    1.000
    C65      C        0.64470    0.11200    0.73640    1.000
    C66      C        0.66790    0.85700    0.81800    1.000
    C67      C        0.84350    0.99320    0.85650    1.000
    H37      H        0.83100    0.91220    0.83250    1.000
    C68      C        0.87370    0.97940    0.91890    1.000
    H38      H        0.88060    0.88930    0.93610    1.000
    C69      C        0.89370    0.09460    0.95610    1.000
    C70      C        0.88170    0.22670    0.92690    1.000
    H39      H        0.89400    0.30910    0.95000    1.000
    C71      C        0.85200    0.23510    0.86490    1.000
    H40      H        0.84550    0.32390    0.84640    1.000
    C72      C        0.98970    0.18330    0.12020    1.000
    H41      H        0.01720    0.25620    0.14160    1.000
    C73      C        0.96570    0.19090    0.05770    1.000
    H42      H        0.97660    0.26840    0.03770    1.000
    C74      C        0.92570    0.08570    0.02400    1.000
    C75      C        0.91220    0.97510    0.05480    1.000
    H43      H        0.88530    0.90070    0.03390    1.000
    C76      C        0.93980    0.97400    0.12000    1.000
    H44      H        0.93150    0.89510    0.14080    1.000
    N7       N        0.83170    0.12020    0.82960    1.000
    N8       N        0.97570    0.07550    0.15230    1.000
    O22      O        0.60530    0.41600    0.75610    1.000
    O23      O        0.71070    0.47200    0.80760    1.000
    O24      O        0.68750    0.15570    0.71260    1.000
    O25      O        0.58930    0.06450    0.70730    1.000
    O26      O        0.69290    0.83860    0.77770    1.000
    O27      O        0.62400    0.77300    0.83000    1.000
    O28      O        0.17100    0.74300    0.35260    1.000
    Zn5      Zn       0.28727    0.35705    0.23883    1.000
    C77      C        0.17140    0.24140    0.33350    1.000
    C78      C        0.16310    0.37540    0.30700    1.000
    C79      C        0.16980    0.49330    0.34340    1.000
    C80      C        0.18340    0.48010    0.40510    1.000
    H45      H        0.18670    0.56050    0.42930    1.000
    C81      C        0.19220    0.34790    0.43190    1.000
    H46      H        0.20130    0.33900    0.47410    1.000
    C82      C        0.18750    0.23030    0.39640    1.000
    H47      H        0.19520    0.14140    0.41480    1.000
    C83      C        0.16100    0.10840    0.29530    1.000
    C84      C        0.14470    0.38800    0.23640    1.000
    C85      C        0.16790    0.64300    0.31800    1.000
    C86      C        0.34350    0.50680    0.35650    1.000
    H48      H        0.33100    0.58780    0.33250    1.000
    C87      C        0.37370    0.52060    0.41890    1.000
    H49      H        0.38060    0.61070    0.43610    1.000
    C88      C        0.39370    0.40540    0.45610    1.000
    C89      C        0.38170    0.27330    0.42690    1.000
    H50      H        0.39400    0.19090    0.45000    1.000
    C90      C        0.35200    0.26490    0.36490    1.000
    H51      H        0.34550    0.17610    0.34640    1.000
    C91      C        0.48970    0.31670    0.62020    1.000
    H52      H        0.51720    0.24380    0.64160    1.000
    C92      C        0.46570    0.30910    0.55770    1.000
    H53      H        0.47660    0.23160    0.53770    1.000
    C93      C        0.42570    0.41430    0.52400    1.000
    C94      C        0.41220    0.52490    0.55480    1.000
    H54      H        0.38530    0.59930    0.53390    1.000
    C95      C        0.43980    0.52600    0.62000    1.000
    H55      H        0.43150    0.60490    0.64080    1.000
    N9       N        0.33170    0.37980    0.32960    1.000
    N10      N        0.47570    0.42450    0.65230    1.000
    O29      O        0.10530    0.08400    0.25610    1.000
    O30      O        0.21070    0.02800    0.30760    1.000
    O31      O        0.18750    0.34430    0.21260    1.000
    O32      O        0.08930    0.43550    0.20730    1.000
    O33      O        0.19290    0.66140    0.27770    1.000
    O34      O        0.12400    0.72700    0.33000    1.000
    O35      O        0.67100    0.75700    0.85260    1.000
    Zn6      Zn       0.78727    0.85705    0.23883    1.000
    C96      C        0.67140    0.74140    0.33350    1.000
    C97      C        0.66310    0.87540    0.30700    1.000
    C98      C        0.66980    0.99330    0.34340    1.000
    C99      C        0.68340    0.98010    0.40510    1.000
    H56      H        0.68670    0.06050    0.42930    1.000
    C100     C        0.69220    0.84790    0.43190    1.000
    H57      H        0.70130    0.83900    0.47410    1.000
    C101     C        0.68750    0.73030    0.39640    1.000
    H58      H        0.69520    0.64140    0.41480    1.000
    C102     C        0.66100    0.60840    0.29530    1.000
    C103     C        0.64470    0.88800    0.23640    1.000
    C104     C        0.66790    0.14300    0.31800    1.000
    C105     C        0.84350    0.00680    0.35650    1.000
    H59      H        0.83100    0.08780    0.33250    1.000
    C106     C        0.87370    0.02060    0.41890    1.000
    H60      H        0.88060    0.11070    0.43610    1.000
    C107     C        0.89370    0.90540    0.45610    1.000
    C108     C        0.88170    0.77330    0.42690    1.000
    H61      H        0.89400    0.69090    0.45000    1.000
    C109     C        0.85200    0.76490    0.36490    1.000
    H62      H        0.84550    0.67610    0.34640    1.000
    C110     C        0.98970    0.81670    0.62020    1.000
    H63      H        0.01720    0.74380    0.64160    1.000
    C111     C        0.96570    0.80910    0.55770    1.000
    H64      H        0.97660    0.73160    0.53770    1.000
    C112     C        0.92570    0.91430    0.52400    1.000
    C113     C        0.91220    0.02490    0.55480    1.000
    H65      H        0.88530    0.09930    0.53390    1.000
    C114     C        0.93980    0.02600    0.62000    1.000
    H66      H        0.93150    0.10490    0.64080    1.000
    N11      N        0.83170    0.87980    0.32960    1.000
    N12      N        0.97570    0.92450    0.65230    1.000
    O36      O        0.60530    0.58400    0.25610    1.000
    O37      O        0.71070    0.52800    0.30760    1.000
    O38      O        0.68750    0.84430    0.21260    1.000
    O39      O        0.58930    0.93550    0.20730    1.000
    O40      O        0.69290    0.16140    0.27770    1.000
    O41      O        0.62400    0.22700    0.33000    1.000
    O42      O        0.17100    0.25700    0.85260    1.000
    Zn7      Zn       0.71273    0.35705    0.26117    1.000
    C115     C        0.82860    0.24140    0.16650    1.000
    C116     C        0.83690    0.37540    0.19300    1.000
    C117     C        0.83020    0.49330    0.15660    1.000
    C118     C        0.81660    0.48010    0.09490    1.000
    H67      H        0.81330    0.56050    0.07070    1.000
    C119     C        0.80780    0.34790    0.06810    1.000
    H68      H        0.79870    0.33900    0.02590    1.000
    C120     C        0.81250    0.23030    0.10360    1.000
    H69      H        0.80480    0.14140    0.08520    1.000
    C121     C        0.83900    0.10840    0.20470    1.000
    C122     C        0.85530    0.38800    0.26360    1.000
    C123     C        0.83210    0.64300    0.18200    1.000
    C124     C        0.65650    0.50680    0.14350    1.000
    H70      H        0.66900    0.58780    0.16750    1.000
    C125     C        0.62630    0.52060    0.08110    1.000
    H71      H        0.61940    0.61070    0.06390    1.000
    C126     C        0.60630    0.40540    0.04390    1.000
    C127     C        0.61830    0.27330    0.07310    1.000
    H72      H        0.60600    0.19090    0.05000    1.000
    C128     C        0.64800    0.26490    0.13510    1.000
    H73      H        0.65450    0.17610    0.15360    1.000
    C129     C        0.51030    0.31670    0.87980    1.000
    H74      H        0.48280    0.24380    0.85840    1.000
    C130     C        0.53430    0.30910    0.94230    1.000
    H75      H        0.52340    0.23160    0.96230    1.000
    C131     C        0.57430    0.41430    0.97600    1.000
    C132     C        0.58780    0.52490    0.94520    1.000
    H76      H        0.61470    0.59930    0.96610    1.000
    C133     C        0.56020    0.52600    0.88000    1.000
    H77      H        0.56850    0.60490    0.85920    1.000
    N13      N        0.66830    0.37980    0.17040    1.000
    N14      N        0.52430    0.42450    0.84770    1.000
    O43      O        0.89470    0.08400    0.24390    1.000
    O44      O        0.78930    0.02800    0.19240    1.000
    O45      O        0.81250    0.34430    0.28740    1.000
    O46      O        0.91070    0.43550    0.29270    1.000
    O47      O        0.80710    0.66140    0.22230    1.000
    O48      O        0.87600    0.72700    0.17000    1.000
    O49      O        0.32900    0.75700    0.64740    1.000
    Zn8      Zn       0.21273    0.85705    0.26117    1.000
    C134     C        0.32860    0.74140    0.16650    1.000
    C135     C        0.33690    0.87540    0.19300    1.000
    C136     C        0.33020    0.99330    0.15660    1.000
    C137     C        0.31660    0.98010    0.09490    1.000
    H78      H        0.31330    0.06050    0.07070    1.000
    C138     C        0.30780    0.84790    0.06810    1.000
    H79      H        0.29870    0.83900    0.02590    1.000
    C139     C        0.31250    0.73030    0.10360    1.000
    H80      H        0.30480    0.64140    0.08520    1.000
    C140     C        0.33900    0.60840    0.20470    1.000
    C141     C        0.35530    0.88800    0.26360    1.000
    C142     C        0.33210    0.14300    0.18200    1.000
    C143     C        0.15650    0.00680    0.14350    1.000
    H81      H        0.16900    0.08780    0.16750    1.000
    C144     C        0.12630    0.02060    0.08110    1.000
    H82      H        0.11940    0.11070    0.06390    1.000
    C145     C        0.10630    0.90540    0.04390    1.000
    C146     C        0.11830    0.77330    0.07310    1.000
    H83      H        0.10600    0.69090    0.05000    1.000
    C147     C        0.14800    0.76490    0.13510    1.000
    H84      H        0.15450    0.67610    0.15360    1.000
    C148     C        0.01030    0.81670    0.87980    1.000
    H85      H        0.98280    0.74380    0.85840    1.000
    C149     C        0.03430    0.80910    0.94230    1.000
    H86      H        0.02340    0.73160    0.96230    1.000
    C150     C        0.07430    0.91430    0.97600    1.000
    C151     C        0.08780    0.02490    0.94520    1.000
    H87      H        0.11470    0.09930    0.96610    1.000
    C152     C        0.06020    0.02600    0.88000    1.000
    H88      H        0.06850    0.10490    0.85920    1.000
    N15      N        0.16830    0.87980    0.17040    1.000
    N16      N        0.02430    0.92450    0.84770    1.000
    O50      O        0.39470    0.58400    0.24390    1.000
    O51      O        0.28930    0.52800    0.19240    1.000
    O52      O        0.31250    0.84430    0.28740    1.000
    O53      O        0.41070    0.93550    0.29270    1.000
    O54      O        0.30710    0.16140    0.22230    1.000
    O55      O        0.37600    0.22700    0.17000    1.000
    O56      O        0.82900    0.25700    0.64740    1.000
    Zn9      Zn       0.00000    0.91529    0.75000    1.000
    Zn10     Zn       0.50000    0.41529    0.75000    1.000
    Zn11     Zn       0.00000    0.08471    0.25000    1.000
    Zn12     Zn       0.50000    0.58471    0.25000    1.000
