# CIF file generated by openbabel 3.1.0, see https://openbabel.org
data_I
_chemical_name_common 'CDLGLU11_clean'
_cell_length_a 7.286
_cell_length_b 10.79
_cell_length_c 11.61
_cell_angle_alpha 90
_cell_angle_beta 90
_cell_angle_gamma 90
_space_group_name_H-M_alt 'P 1'
_space_group_name_Hall 'P 1'
loop_
    _symmetry_equiv_pos_as_xyz
    x,y,z
loop_
    _atom_site_label
    _atom_site_type_symbol
    _atom_site_fract_x
    _atom_site_fract_y
    _atom_site_fract_z
    _atom_site_occupancy
    Cd1      Cd       0.63800    0.81730    0.70930    1.000
    Cd2      Cd       0.13800    0.18270    0.79070    1.000
    Cd3      Cd       0.86200    0.31730    0.29070    1.000
    Cd4      Cd       0.36200    0.68270    0.20930    1.000
    H1       H        0.04600    0.20000    0.54900    1.000
    H2       H        0.94100    0.09500    0.62500    1.000
    H3       H        0.09700    0.96200    0.51100    1.000
    H4       H        0.39000    0.00500    0.43200    1.000
    H5       H        0.23500    0.13800    0.40300    1.000
    H6       H        0.38800    0.24700    0.55900    1.000
    H7       H        0.53800    0.12500    0.58700    1.000
    H8       H        0.54600    0.80000    0.95100    1.000
    H9       H        0.44100    0.90500    0.87500    1.000
    H10      H        0.59700    0.03800    0.98900    1.000
    H11      H        0.89000    0.99500    0.06800    1.000
    H12      H        0.73500    0.86200    0.09700    1.000
    H13      H        0.88800    0.75300    0.94100    1.000
    H14      H        0.03800    0.87500    0.91300    1.000
    H15      H        0.45400    0.70000    0.45100    1.000
    H16      H        0.55900    0.59500    0.37500    1.000
    H17      H        0.40300    0.46200    0.48900    1.000
    H18      H        0.11000    0.50500    0.56800    1.000
    H19      H        0.26500    0.63800    0.59700    1.000
    H20      H        0.11200    0.74700    0.44100    1.000
    H21      H        0.96200    0.62500    0.41300    1.000
    H22      H        0.95400    0.30000    0.04900    1.000
    H23      H        0.05900    0.40500    0.12500    1.000
    H24      H        0.90300    0.53800    0.01100    1.000
    H25      H        0.61000    0.49500    0.93200    1.000
    H26      H        0.76500    0.36200    0.90300    1.000
    H27      H        0.61200    0.25300    0.05900    1.000
    H28      H        0.46200    0.37500    0.08700    1.000
    C1       C        0.17860    0.03230    0.55680    1.000
    C2       C        0.28740    0.96330    0.65020    1.000
    C3       C        0.31330    0.08650    0.46820    1.000
    C4       C        0.45800    0.17480    0.51910    1.000
    C5       C        0.58700    0.22870    0.43140    1.000
    C6       C        0.67860    0.96770    0.94320    1.000
    C7       C        0.78740    0.03670    0.84980    1.000
    C8       C        0.81330    0.91350    0.03180    1.000
    C9       C        0.95800    0.82520    0.98090    1.000
    C10      C        0.08700    0.77130    0.06860    1.000
    C11      C        0.32140    0.53230    0.44320    1.000
    C12      C        0.21260    0.46330    0.34980    1.000
    C13      C        0.18670    0.58650    0.53180    1.000
    C14      C        0.04200    0.67480    0.48090    1.000
    C15      C        0.91300    0.72870    0.56860    1.000
    C16      C        0.82140    0.46770    0.05680    1.000
    C17      C        0.71260    0.53670    0.15020    1.000
    C18      C        0.68670    0.41350    0.96820    1.000
    C19      C        0.54200    0.32520    0.01910    1.000
    C20      C        0.41300    0.27130    0.93140    1.000
    N1       N        0.05900    0.13050    0.60670    1.000
    N2       N        0.55900    0.86950    0.89330    1.000
    N3       N        0.44100    0.63050    0.39330    1.000
    N4       N        0.94100    0.36950    0.10670    1.000
    O1       O        0.27620    0.99600    0.75290    1.000
    O2       O        0.38240    0.87530    0.61450    1.000
    O3       O        0.72540    0.28700    0.46940    1.000
    O4       O        0.56520    0.21210    0.32500    1.000
    O5       O        0.77620    0.00400    0.74710    1.000
    O6       O        0.88240    0.12470    0.88550    1.000
    O7       O        0.22540    0.71300    0.03060    1.000
    O8       O        0.06520    0.78790    0.17500    1.000
    O9       O        0.22380    0.49600    0.24710    1.000
    O10      O        0.11760    0.37530    0.38550    1.000
    O11      O        0.77460    0.78700    0.53060    1.000
    O12      O        0.93480    0.71210    0.67500    1.000
    O13      O        0.72380    0.50400    0.25290    1.000
    O14      O        0.61760    0.62470    0.11450    1.000
    O15      O        0.27460    0.21300    0.96940    1.000
    O16      O        0.43480    0.28790    0.82500    1.000
