data_functionalizedCrystal
_audit_creation_method	'EQeq! by Chris Wilmer'
_symmetry_space_group_name_H-M	'P1'
_symmetry_Int_Tables_number	1
_symmetry_cell_setting	triclinic
loop_
_symmetry_equiv_pos_as_xyz
  x,y,z
_cell_length_a	8.5707
_cell_length_b	9.8985
_cell_length_c	14.2812
_cell_angle_alpha	104.986
_cell_angle_beta	102.291
_cell_angle_gamma	91.286
loop_
_atom_site_label
_atom_site_type_symbol
_atom_site_fract_x
_atom_site_fract_y
_atom_site_fract_z
_atom_site_charge
Mof_Zn	Zn	0.33695	0.63936	0.66121	1.217
Mof_Zn	Zn	0.66305	0.36064	0.33879	1.217
Mof_Zn	Zn	0.3322	0.41613	0.46172	1.222
Mof_Zn	Zn	0.6678	0.58387	0.53828	1.222
Mof_H 	H 	0.8882	0.7647	0.3142	0.109
Mof_H 	H 	0.981	0.3418	0.7019	0.125
Mof_H 	H 	0.019	0.6582	0.2981	0.125
Mof_H 	H 	0.8017	0.5643	0.7523	-0.01
Mof_H 	H 	0.1086	0.1516	0.3779	-0.011
Mof_H 	H 	0.3176	0.9376	0.1218	0.119
Mof_H 	H 	0.1983	0.4357	0.2477	-0.01
Mof_H 	H 	0.986	0.1462	0.5184	0.117
Mof_H 	H 	0.014	0.8538	0.4816	0.117
Mof_H 	H 	0.6335	0.7701	0.0137	0.119
Mof_H 	H 	0.1409	0.861	0.418	0.106
Mof_H 	H 	0.5877	0.0389	0.599	0.111
Mof_H 	H 	0.5032	0.9283	0.7386	-0.032
Mof_H 	H 	0.8591	0.139	0.582	0.106
Mof_H 	H 	0.6824	0.0624	0.8782	0.119
Mof_H 	H 	0.4123	0.9611	0.401	0.111
Mof_H 	H 	0.975	0.6819	0.8977	0.112
Mof_H 	H 	0.4968	0.0717	0.2614	-0.032
Mof_H 	H 	0.4541	0.6416	0.8728	-0.025
Mof_H 	H 	0.9239	0.0292	0.2331	0.112
Mof_H 	H 	0.5459	0.3584	0.1272	-0.025
Mof_H 	H 	0.025	0.3181	0.1023	0.112
Mof_H 	H 	0.0761	0.9708	0.7669	0.112
Mof_H 	H 	0.5977	0.9988	0.4326	0.109
Mof_H 	H 	0.8914	0.8484	0.6221	-0.011
Mof_H 	H 	0.3665	0.2299	0.9863	0.119
Mof_H 	H 	0.4023	0.0012	0.5674	0.109
Mof_H 	H 	0.1118	0.2353	0.6858	0.109
Mof_C 	C 	0.0745	0.7976	0.4378	-0.249
Mof_C 	C 	0.1438	0.3519	0.2448	0.118
Mof_C 	C 	0.9805	0.1112	0.2346	-0.213
Mof_C 	C 	0.5299	0.8946	0.7945	0.134
Mof_C 	C 	0.6371	0.9762	0.8784	-0.224
Mof_C 	C 	0.9577	0.1604	0.1528	0.18
Mof_C 	C 	0.3918	0.1954	0.0419	-0.232
Mof_C 	C 	0.9255	0.2024	0.5622	-0.249
Mof_C 	C 	0.6082	0.8046	0.9581	-0.232
Mof_C 	C 	0.8203	0.2895	0.5071	0.438
Mof_C 	C 	0.0195	0.8888	0.7654	-0.213
Mof_C 	C 	0.5083	0.957	0.4501	-0.231
Mof_C 	C 	0.6745	0.9288	0.9604	0.203
Mof_C 	C 	0.9586	0.7056	0.3454	-0.248
Mof_C 	C 	0.5347	0.8042	0.4438	0.375
Mof_C 	C 	0.0423	0.8396	0.8472	0.18
Mof_C 	C 	0.9087	0.8138	0.6778	0.115
Mof_C 	C 	0.3629	0.0238	0.1216	-0.224
Mof_C 	C 	0.4653	0.1958	0.5562	0.375
Mof_C 	C 	0.8562	0.6481	0.7552	0.118
Mof_C 	C 	0.141	0.4019	0.63	0.427
Mof_C 	C 	0.5014	0.7271	0.8728	0.135
Mof_C 	C 	0.0396	0.2824	0.1575	-0.209
Mof_C 	C 	0.9604	0.7176	0.8425	-0.209
Mof_C 	C 	0.4986	0.2729	0.1272	0.135
Mof_C 	C 	0.0414	0.2944	0.6546	-0.248
Mof_C 	C 	0.3255	0.0712	0.0396	0.203
Mof_C 	C 	0.0913	0.1862	0.3222	0.115
Mof_C 	C 	0.859	0.5981	0.37	0.427
Mof_C 	C 	0.4917	0.043	0.5499	-0.231
Mof_C 	C 	0.1797	0.7105	0.4929	0.438
Mof_C 	C 	0.4701	0.1054	0.2055	0.134
Mof_N 	N 	0.1709	0.3046	0.3264	-0.248
Mof_N 	N 	0.8477	0.096	0.0542	-0.095
Mof_N 	N 	0.2119	0.0031	0.9404	-0.099
Mof_N 	N 	0.4647	0.771	0.7912	-0.285
Mof_N 	N 	0.5353	0.229	0.2088	-0.285
Mof_N 	N 	0.8291	0.6954	0.6736	-0.248
Mof_N 	N 	0.7881	0.9969	0.0596	-0.099
Mof_N 	N 	0.1523	0.904	0.9458	-0.095
Mof_O 	O 	0.5058	0.7191	0.3593	-0.29
Mof_O 	O 	0.4942	0.2809	0.6407	-0.29
Mof_O 	O 	0.8455	0.6155	0.456	-0.468
Mof_O 	O 	0.1545	0.3845	0.544	-0.468
Mof_O 	O 	0.7767	0.2413	0.4132	-0.505
Mof_O 	O 	0.5849	0.7728	0.5243	-0.451
Mof_O 	O 	0.5117	0.4709	0.4006	-0.636
Mof_O 	O 	0.7932	0.4919	0.2977	-0.471
Mof_O 	O 	0.2181	0.5987	0.4436	-0.471
Mof_O 	O 	0.7819	0.4013	0.5564	-0.471
Mof_O 	O 	0.4151	0.2272	0.4757	-0.451
Mof_O 	O 	0.4883	0.5291	0.5994	-0.636
Mof_O 	O 	0.2068	0.5081	0.7023	-0.471
Mof_O 	O 	0.2233	0.7587	0.5868	-0.505
_end
