data_functionalizedCrystal
_audit_creation_method	'EQeq! by Chris Wilmer'
_symmetry_space_group_name_H-M	'P1'
_symmetry_Int_Tables_number	1
_symmetry_cell_setting	triclinic
loop_
_symmetry_equiv_pos_as_xyz
  x,y,z
_cell_length_a	13.0696
_cell_length_b	13.0696
_cell_length_c	11.2867
_cell_angle_alpha	90
_cell_angle_beta	90
_cell_angle_gamma	90
loop_
_atom_site_label
_atom_site_type_symbol
_atom_site_fract_x
_atom_site_fract_y
_atom_site_fract_z
_atom_site_charge
Mof_Mn	Mn	0.74303	0.98963	0.10474	0.988
Mof_Mn	Mn	0.74994	0.21927	0.9579	0.834
Mof_O 	O 	0.7601	0.0565	0.9193	-0.463
Mof_O 	O 	0.8724	0.1354	0.8073	-0.409
Mof_O 	O 	0.0875	0.7721	0.5309	-0.434
Mof_O 	O 	0.1403	0.9037	0.6384	-0.415
Mof_O 	O 	0.643	0.7592	0.1222	-0.417
Mof_O 	O 	0.6228	0.9049	0.0256	-0.387
Mof_O 	O 	0.3218	0.75	0.6161	-0.402
Mof_O 	O 	0.3676	0.9052	0.6788	-0.385
Mof_C 	C 	0.8276	0.0552	0.8387	0.394
Mof_C 	C 	0.0725	0.8411	0.6091	0.416
Mof_C 	C 	0.6026	0.8134	0.0429	0.42
Mof_C 	C 	0.3649	0.8102	0.6874	0.39
Mof_C 	C 	0.8519	0.9546	0.7816	-0.166
Mof_C 	C 	0.9446	0.9433	0.7208	0.102
Mof_H 	H 	0.989	0.9986	0.7144	0.006
Mof_C 	C 	0.9712	0.8492	0.6696	-0.173
Mof_C 	C 	0.9054	0.768	0.6796	0.094
Mof_H 	H 	0.9226	0.7051	0.6464	0.011
Mof_C 	C 	0.8122	0.7795	0.7398	-0.157
Mof_H 	H 	0.7673	0.7246	0.7451	0.091
Mof_C 	C 	0.7866	0.8722	0.7913	0.091
Mof_H 	H 	0.7254	0.8788	0.8325	0.008
Mof_C 	C 	0.5252	0.7608	0.9633	-0.143
Mof_C 	C 	0.4825	0.8111	0.8666	0.059
Mof_H 	H 	0.4993	0.879	0.8513	0.029
Mof_C 	C 	0.4144	0.759	0.7925	-0.13
Mof_C 	C 	0.3888	0.6582	0.8184	0.03
Mof_H 	H 	0.3428	0.6238	0.7698	0.032
Mof_C 	C 	0.4299	0.6086	0.9139	-0.092
Mof_H 	H 	0.4117	0.5412	0.93	0.058
Mof_C 	C 	0.4996	0.6596	0.9872	-0.013
Mof_H 	H 	0.5286	0.626	0.0516	0.063
Mof_Mn	Mn	0.25697	0.01037	0.60474	0.975
Mof_Mn	Mn	0.25006	0.78073	0.4579	0.877
Mof_O 	O 	0.2399	0.9435	0.4193	-0.449
Mof_O 	O 	0.1276	0.8646	0.3073	-0.407
Mof_O 	O 	0.9125	0.2279	0.0309	-0.408
Mof_O 	O 	0.8597	0.0963	0.1384	-0.407
Mof_O 	O 	0.357	0.2408	0.6222	-0.419
Mof_O 	O 	0.3772	0.0951	0.5256	-0.393
Mof_O 	O 	0.6782	0.25	0.1161	-0.384
Mof_O 	O 	0.6324	0.0948	0.1788	-0.379
Mof_C 	C 	0.1724	0.9448	0.3387	0.395
Mof_C 	C 	0.9275	0.1589	0.1091	0.419
Mof_C 	C 	0.3974	0.1866	0.5429	0.403
Mof_C 	C 	0.6351	0.1898	0.1874	0.391
Mof_C 	C 	0.1481	0.0454	0.2816	-0.161
Mof_C 	C 	0.0554	0.0567	0.2208	0.105
Mof_H 	H 	0.011	0.0014	0.2144	0.007
Mof_C 	C 	0.0288	0.1508	0.1696	-0.169
Mof_C 	C 	0.0946	0.232	0.1796	0.096
Mof_H 	H 	0.0774	0.2949	0.1464	0.016
Mof_C 	C 	0.1878	0.2205	0.2398	-0.15
Mof_H 	H 	0.2327	0.2754	0.2451	0.092
Mof_C 	C 	0.2134	0.1278	0.2913	0.092
Mof_H 	H 	0.2746	0.1212	0.3325	0.015
Mof_C 	C 	0.4748	0.2392	0.4633	-0.144
Mof_C 	C 	0.5175	0.1889	0.3666	0.068
Mof_H 	H 	0.5007	0.121	0.3513	0.031
Mof_C 	C 	0.5856	0.241	0.2925	-0.139
Mof_C 	C 	0.6112	0.3418	0.3184	0.057
Mof_H 	H 	0.6572	0.3762	0.2698	0.026
Mof_C 	C 	0.5701	0.3914	0.4139	-0.133
Mof_H 	H 	0.5883	0.4588	0.43	0.082
Mof_C 	C 	0.5004	0.3404	0.4872	0.058
Mof_H 	H 	0.4714	0.374	0.5516	0.02
Mof_Mn	Mn	0.01037	0.74303	0.35474	0.974
Mof_Mn	Mn	0.78073	0.74994	0.2079	0.882
Mof_O 	O 	0.9435	0.7601	0.1693	-0.448
Mof_O 	O 	0.8646	0.8724	0.0573	-0.401
Mof_O 	O 	0.2279	0.0875	0.7809	-0.434
Mof_O 	O 	0.0963	0.1403	0.8884	-0.418
Mof_O 	O 	0.2408	0.643	0.3722	-0.416
Mof_O 	O 	0.0951	0.6228	0.2756	-0.391
Mof_O 	O 	0.25	0.3218	0.8661	-0.401
Mof_O 	O 	0.0948	0.3676	0.9288	-0.386
Mof_C 	C 	0.9448	0.8276	0.0887	0.402
Mof_C 	C 	0.1589	0.0725	0.8591	0.411
Mof_C 	C 	0.1866	0.6026	0.2929	0.399
Mof_C 	C 	0.1898	0.3649	0.9374	0.359
Mof_C 	C 	0.0454	0.8519	0.0316	-0.159
Mof_C 	C 	0.0567	0.9446	0.9708	0.083
Mof_H 	H 	0.0014	0.989	0.9644	0.006
Mof_C 	C 	0.1508	0.9712	0.9196	-0.174
Mof_C 	C 	0.232	0.9054	0.9296	0.11
Mof_H 	H 	0.2949	0.9226	0.8964	0.005
Mof_C 	C 	0.2205	0.8122	0.9898	-0.201
Mof_H 	H 	0.2754	0.7673	0.9951	0.102
Mof_C 	C 	0.1278	0.7866	0.0413	0.135
Mof_H 	H 	0.1212	0.7254	0.0825	0.002
Mof_C 	C 	0.2392	0.5252	0.2133	-0.129
Mof_C 	C 	0.1889	0.4825	0.1166	0.047
Mof_H 	H 	0.121	0.4993	0.1013	0.043
Mof_C 	C 	0.241	0.4144	0.0425	-0.098
Mof_C 	C 	0.3418	0.3888	0.0684	0.033
Mof_H 	H 	0.3762	0.3428	0.0198	0.043
Mof_C 	C 	0.3914	0.4299	0.1639	-0.11
Mof_H 	H 	0.4588	0.4117	0.18	0.076
Mof_C 	C 	0.3404	0.4996	0.2372	0.043
Mof_H 	H 	0.374	0.5286	0.3016	0.026
Mof_Mn	Mn	0.98963	0.25697	0.85474	0.957
Mof_Mn	Mn	0.21927	0.25006	0.7079	0.873
Mof_O 	O 	0.0565	0.2399	0.6693	-0.447
Mof_O 	O 	0.1354	0.1276	0.5573	-0.408
Mof_O 	O 	0.7721	0.9125	0.2809	-0.435
Mof_O 	O 	0.9037	0.8597	0.3884	-0.414
Mof_O 	O 	0.7592	0.357	0.8722	-0.42
Mof_O 	O 	0.9049	0.3772	0.7756	-0.394
Mof_O 	O 	0.75	0.6782	0.3661	-0.403
Mof_O 	O 	0.9052	0.6324	0.4288	-0.385
Mof_C 	C 	0.0552	0.1724	0.5887	0.395
Mof_C 	C 	0.8411	0.9275	0.3591	0.415
Mof_C 	C 	0.8134	0.3974	0.7929	0.401
Mof_C 	C 	0.8102	0.6351	0.4374	0.396
Mof_C 	C 	0.9546	0.1481	0.5316	-0.163
Mof_C 	C 	0.9433	0.0554	0.4708	0.102
Mof_H 	H 	0.9986	0.011	0.4644	0.007
Mof_C 	C 	0.8492	0.0288	0.4196	-0.169
Mof_C 	C 	0.768	0.0946	0.4296	0.093
Mof_H 	H 	0.7051	0.0774	0.3964	0.013
Mof_C 	C 	0.7795	0.1878	0.4898	-0.152
Mof_H 	H 	0.7246	0.2327	0.4951	0.092
Mof_C 	C 	0.8722	0.2134	0.5413	0.091
Mof_H 	H 	0.8788	0.2746	0.5825	0.014
Mof_C 	C 	0.7608	0.4748	0.7133	-0.148
Mof_C 	C 	0.8111	0.5175	0.6166	0.071
Mof_H 	H 	0.879	0.5007	0.6013	0.029
Mof_C 	C 	0.759	0.5856	0.5425	-0.145
Mof_C 	C 	0.6582	0.6112	0.5684	0.061
Mof_H 	H 	0.6238	0.6572	0.5198	0.023
Mof_C 	C 	0.6086	0.5701	0.6639	-0.138
Mof_H 	H 	0.5412	0.5883	0.68	0.083
Mof_C 	C 	0.6596	0.5004	0.7372	0.061
Mof_H 	H 	0.626	0.4714	0.8016	0.016
_end
