data_functionalizedCrystal
_audit_creation_method	'EQeq! by Chris Wilmer'
_symmetry_space_group_name_H-M	'P1'
_symmetry_Int_Tables_number	1
_symmetry_cell_setting	triclinic
loop_
_symmetry_equiv_pos_as_xyz
  x,y,z
_cell_length_a	20.6362
_cell_length_b	20.6362
_cell_length_c	20.6362
_cell_angle_alpha	120
_cell_angle_beta	120
_cell_angle_gamma	60
loop_
_atom_site_label
_atom_site_type_symbol
_atom_site_fract_x
_atom_site_fract_y
_atom_site_fract_z
_atom_site_charge
Mof_Zn	Zn	0.21161	0.2116	0.78839	1.209
Mof_Zn	Zn	0.21161	0.36517	0.78839	1.209
Mof_Zn	Zn	0.21161	0.2116	0.63482	1.209
Mof_Zn	Zn	0.36518	0.2116	0.78839	1.209
Mof_H 	H 	0.5374	0.3486	0.943	0.045
Mof_H 	H 	0.057	0.057	0.6514	0.047
Mof_H 	H 	0.3486	0.057	0.4626	0.047
Mof_H 	H 	0.057	0.5374	0.943	0.048
Mof_H 	H 	0.5374	0.057	0.943	0.048
Mof_H 	H 	0.057	0.5374	0.6514	0.046
Mof_S 	S 	0.0474	0.0474	0.496	0.077
Mof_C 	C 	0.504	0.4012	0.9526	-0.004
Mof_C 	C 	0.0474	0.0474	0.5988	-0.003
Mof_S 	S 	0.4012	0.504	0.9526	0.069
Mof_S 	S 	0.504	0.0474	0.5988	0.077
Mof_S 	S 	0.0474	0.4012	0.9526	0.069
Mof_C 	C 	0.4012	0.0474	0.496	-0
Mof_C 	C 	0.0474	0.504	0.9526	-0.008
Mof_S 	S 	0.4012	0.0474	0.9526	0.069
Mof_S 	S 	0.0474	0.4012	0.496	0.078
Mof_C 	C 	0.504	0.0474	0.9526	-0.008
Mof_C 	C 	0.0474	0.504	0.5988	-0
Mof_C 	C 	0.12824	0.12824	0.62824	0.365
Mof_C 	C 	0.07711	0.07711	0.57711	-0.116
Mof_C 	C 	0.37176	0.37176	0.87176	0.364
Mof_C 	C 	0.42289	0.42289	0.92289	-0.115
Mof_C 	C 	0.37176	0.12824	0.62824	0.366
Mof_C 	C 	0.42289	0.07711	0.57711	-0.118
Mof_C 	C 	0.12824	0.37176	0.87176	0.364
Mof_C 	C 	0.07711	0.42289	0.92289	-0.113
Mof_C 	C 	0.37176	0.12824	0.87176	0.364
Mof_C 	C 	0.42289	0.07711	0.92289	-0.113
Mof_C 	C 	0.12824	0.37176	0.62824	0.366
Mof_C 	C 	0.07711	0.42289	0.57711	-0.118
Mof_C 	C 	1.82952e-17	1.82952e-17	0.46688	-0.021
Mof_C 	C 	0.53312	0.46688	-0	-0.025
Mof_C 	C 	0.53312	3.65903e-17	0.53312	-0.025
Mof_C 	C 	-3.65903e-17	0.46688	-0	-0.019
Mof_C 	C 	0.46688	0	-0	-0.019
Mof_C 	C 	-1.82952e-17	0.46688	0.46688	-0.025
Mof_O 	O 	0.25	0.25	0.75	-0.972
Mof_O 	O 	0.14684	0.14684	0.70284	-0.493
Mof_O 	O 	0.29716	0.40916	0.85316	-0.493
Mof_O 	O 	0.14684	0.14684	0.59084	-0.492
Mof_O 	O 	0.40916	0.29716	0.85316	-0.493
Mof_O 	O 	0.29716	0.14684	0.59084	-0.493
Mof_O 	O 	0.14684	0.40916	0.85316	-0.493
Mof_O 	O 	0.40916	0.14684	0.70284	-0.493
Mof_O 	O 	0.14684	0.29716	0.85316	-0.492
Mof_O 	O 	0.40916	0.14684	0.85316	-0.493
Mof_O 	O 	0.14684	0.40916	0.70284	-0.493
Mof_O 	O 	0.29716	0.14684	0.85316	-0.492
Mof_O 	O 	0.14684	0.29716	0.59084	-0.492
Mof_Zn	Zn	0.78839	0.7884	0.21161	1.21
Mof_Zn	Zn	0.78839	0.63483	0.21161	1.21
Mof_Zn	Zn	0.78839	0.7884	0.36518	1.21
Mof_Zn	Zn	0.63482	0.7884	0.21161	1.21
Mof_H 	H 	0.4626	0.6514	0.057	0.046
Mof_H 	H 	0.943	0.943	0.3486	0.048
Mof_H 	H 	0.6514	0.943	0.5374	0.046
Mof_H 	H 	0.943	0.4626	0.057	0.048
Mof_H 	H 	0.4626	0.943	0.057	0.048
Mof_H 	H 	0.943	0.4626	0.3486	0.046
Mof_S 	S 	0.9526	0.9526	0.504	0.061
Mof_C 	C 	0.496	0.5988	0.0474	-0
Mof_C 	C 	0.9526	0.9526	0.4012	-0.011
Mof_S 	S 	0.5988	0.496	0.0474	0.077
Mof_S 	S 	0.496	0.9526	0.4012	0.07
Mof_S 	S 	0.9526	0.5988	0.0474	0.068
Mof_C 	C 	0.5988	0.9526	0.504	-0.004
Mof_C 	C 	0.9526	0.496	0.0474	-0.008
Mof_S 	S 	0.5988	0.9526	0.0474	0.068
Mof_S 	S 	0.9526	0.5988	0.504	0.069
Mof_C 	C 	0.496	0.9526	0.0474	-0.008
Mof_C 	C 	0.9526	0.496	0.4012	-0.004
Mof_C 	C 	0.87176	0.87176	0.37176	0.362
Mof_C 	C 	0.92289	0.92289	0.42289	-0.11
Mof_C 	C 	0.62824	0.62824	0.12824	0.366
Mof_C 	C 	0.57711	0.57711	0.07711	-0.118
Mof_C 	C 	0.62824	0.87176	0.37176	0.364
Mof_C 	C 	0.57711	0.92289	0.42289	-0.115
Mof_C 	C 	0.87176	0.62824	0.12824	0.364
Mof_C 	C 	0.92289	0.57711	0.07711	-0.112
Mof_C 	C 	0.62824	0.87176	0.12824	0.364
Mof_C 	C 	0.57711	0.92289	0.07711	-0.112
Mof_C 	C 	0.87176	0.62824	0.37176	0.364
Mof_C 	C 	0.92289	0.57711	0.42289	-0.115
Mof_C 	C 	-0	3.65903e-17	0.53312	-0.017
Mof_C 	C 	0.46688	0.53312	-0	-0.023
Mof_C 	C 	0.46688	1.82952e-17	0.46688	-0.023
Mof_C 	C 	3.65903e-17	0.53312	-0	-0.019
Mof_C 	C 	0.53312	0	-0	-0.019
Mof_C 	C 	3.65903e-17	0.53312	0.53312	-0.023
Mof_O 	O 	0.75	0.75	0.25	-0.973
Mof_O 	O 	0.85316	0.85316	0.29716	-0.493
Mof_O 	O 	0.70284	0.59084	0.14684	-0.493
Mof_O 	O 	0.85316	0.85316	0.40916	-0.493
Mof_O 	O 	0.59084	0.70284	0.14684	-0.493
Mof_O 	O 	0.70284	0.85316	0.40916	-0.494
Mof_O 	O 	0.85316	0.59084	0.14684	-0.493
Mof_O 	O 	0.59084	0.85316	0.29716	-0.493
Mof_O 	O 	0.85316	0.70284	0.14684	-0.492
Mof_O 	O 	0.59084	0.85316	0.14684	-0.493
Mof_O 	O 	0.85316	0.59084	0.29716	-0.493
Mof_O 	O 	0.70284	0.85316	0.14684	-0.493
Mof_O 	O 	0.85316	0.70284	0.40916	-0.493
_end
