data_functionalizedCrystal
_audit_creation_method	'EQeq! by Chris Wilmer'
_symmetry_space_group_name_H-M	'P1'
_symmetry_Int_Tables_number	1
_symmetry_cell_setting	triclinic
loop_
_symmetry_equiv_pos_as_xyz
  x,y,z
_cell_length_a	14.2327
_cell_length_b	23.828
_cell_length_c	30.749
_cell_angle_alpha	90
_cell_angle_beta	90
_cell_angle_gamma	90
loop_
_atom_site_label
_atom_site_type_symbol
_atom_site_fract_x
_atom_site_fract_y
_atom_site_fract_z
_atom_site_charge
Mof_O 	O 	0.2824	0.9095	0.9497	-0.383
Mof_Ag	Ag	0.3004	0.93458	0.01933	0.575
Mof_N 	N 	0.2422	0.8731	0.0718	-0.162
Mof_O 	O 	0.3472	0.0042	0.0684	-0.403
Mof_C 	C 	0.2687	0.8874	0.1122	0.012
Mof_C 	C 	0.1939	0.8263	0.0691	0.016
Mof_C 	C 	0.2423	0.8575	0.1488	0.002
Mof_H 	H 	0.3075	0.9195	0.1159	0.027
Mof_C 	C 	0.1663	0.7962	0.1047	0.013
Mof_H 	H 	0.1774	0.8127	0.0411	0.015
Mof_N 	N 	0.1896	0.8099	0.1444	-0.155
Mof_H 	H 	0.2607	0.8701	0.1768	0.031
Mof_H 	H 	0.1284	0.7638	0.1004	0.029
Mof_Ag	Ag	0.14867	0.76627	0.21115	0.558
Mof_O 	O 	0.0702	0.6953	0.1838	-0.382
Mof_O 	O 	0.2241	0.8266	0.2534	-0.398
Mof_C 	C 	0.0283	0.6586	0.2055	0.346
Mof_C 	C 	0.2083	0.8297	0.2935	0.327
Mof_O 	O 	0.019	0.6581	0.2458	-0.391
Mof_C 	C 	0.9856	0.6127	0.1794	-0.139
Mof_O 	O 	0.1593	0.7971	0.3162	-0.365
Mof_C 	C 	0.2594	0.8791	0.3166	-0.117
Mof_Ag	Ag	0.08686	0.72192	0.28924	0.548
Mof_C 	C 	0.9272	0.5714	0.1998	0.042
Mof_C 	C 	0.9953	0.6107	0.1345	0.063
Mof_C 	C 	0.3145	0.9136	0.2938	0.029
Mof_C 	C 	0.2431	0.886	0.3608	0.037
Mof_N 	N 	0.0457	0.6831	0.3561	-0.155
Mof_H 	H 	0.9172	0.5718	0.2304	0.024
Mof_C 	C 	0.8854	0.5306	0.1736	-0.118
Mof_H 	H 	0.032	0.6384	0.1202	0.028
Mof_C 	C 	0.9531	0.5694	0.1103	-0.134
Mof_C 	C 	0.3634	0.9575	0.3136	-0.098
Mof_H 	H 	0.3205	0.9082	0.2633	0.027
Mof_H 	H 	0.2024	0.8614	0.3761	0.036
Mof_C 	C 	0.2888	0.9308	0.3822	-0.112
Mof_Ag	Ag	0.97728	0.55544	0.48556	0.583
Mof_C 	C 	0.9873	0.6397	0.3567	0.016
Mof_C 	C 	0.0832	0.6984	0.3958	0
Mof_C 	C 	0.8956	0.5293	0.1301	0.052
Mof_H 	H 	0.8481	0.5025	0.1871	0.071
Mof_C 	C 	0.9689	0.5663	0.0628	0.315
Mof_H 	H 	0.4045	0.9811	0.2976	0.064
Mof_C 	C 	0.3489	0.9652	0.3592	0.027
Mof_C 	C 	0.272	0.9414	0.4298	0.334
Mof_O 	O 	0.9914	0.584	0.5528	-0.372
Mof_H 	H 	0.9621	0.6269	0.3299	0.028
Mof_C 	C 	0.961	0.6119	0.3946	0.001
Mof_H 	H 	0.1252	0.7293	0.3973	0.034
Mof_C 	C 	0.0608	0.6697	0.433	0.015
Mof_H 	H 	0.8644	0.5017	0.1131	0.008
Mof_O 	O 	0.9284	0.5293	0.0393	-0.43
Mof_O 	O 	0.0257	0.6028	0.0442	-0.345
Mof_H 	H 	0.3811	0.9946	0.3739	0.03
Mof_O 	O 	0.3163	0.9835	0.4458	-0.387
Mof_C 	C 	0.0395	0.551	0.5768	0.346
Mof_N 	N 	0.0022	0.6257	0.4322	-0.157
Mof_H 	H 	0.9142	0.5835	0.3937	0.035
Mof_H 	H 	0.0873	0.6813	0.4599	0.015
Mof_Ag	Ag	0.99913	0.43976	0.02926	0.612
Mof_Ag	Ag	0.25171	0.04849	0.49359	0.551
Mof_O 	O 	0.0742	0.5063	0.5623	-0.401
Mof_C 	C 	0.0473	0.5635	0.625	-0.127
Mof_N 	N 	0.9841	0.6268	0.9195	-0.175
Mof_C 	C 	0.0998	0.5283	0.6514	0.044
Mof_C 	C 	0.0025	0.6086	0.6428	0.057
Mof_C 	C 	0.9354	0.674	0.925	0.02
Mof_C 	C 	0.0062	0.6131	0.8796	0.021
Mof_C 	C 	0.1055	0.5373	0.6954	-0.115
Mof_H 	H 	0.1323	0.4975	0.6389	0.023
Mof_H 	H 	0.9679	0.6333	0.6245	0.032
Mof_C 	C 	0.0067	0.6189	0.6871	-0.129
Mof_C 	C 	0.9065	0.7066	0.8895	0.002
Mof_H 	H 	0.9199	0.6858	0.9536	0.011
Mof_C 	C 	0.9847	0.6475	0.8443	0.013
Mof_H 	H 	0.0378	0.5786	0.8746	0.014
Mof_H 	H 	0.1409	0.5124	0.7131	0.069
Mof_C 	C 	0.0605	0.5819	0.7136	0.04
Mof_C 	C 	0.9568	0.6692	0.7059	0.334
Mof_N 	N 	0.9358	0.6933	0.8485	-0.154
Mof_H 	H 	0.8665	0.7379	0.894	0.029
Mof_H 	H 	0.0067	0.6371	0.8162	0.034
Mof_H 	H 	0.065	0.5883	0.7441	0.023
Mof_O 	O 	0.9153	0.7003	0.6799	-0.375
Mof_O 	O 	0.9652	0.6765	0.747	-0.398
Mof_Ag	Ag	0.88801	0.73915	0.7833	0.559
Mof_Ag	Ag	0.84152	0.77754	0.70019	0.53
Mof_O 	O 	0.8139	0.8115	0.8055	-0.383
Mof_O 	O 	0.7731	0.8445	0.7393	-0.377
Mof_N 	N 	0.797	0.816	0.6324	-0.149
Mof_C 	C 	0.774	0.8466	0.78	0.316
Mof_C 	C 	0.8269	0.8005	0.5931	0.008
Mof_C 	C 	0.7421	0.8637	0.6341	-0.001
Mof_C 	C 	0.7259	0.8969	0.8016	-0.111
Mof_H 	H 	0.8615	0.7666	0.5906	0.03
Mof_C 	C 	0.8104	0.8309	0.5566	0.014
Mof_H 	H 	0.7168	0.8764	0.6609	0.039
Mof_C 	C 	0.7248	0.8923	0.5967	0.016
Mof_C 	C 	0.7339	0.9026	0.8458	0.042
Mof_C 	C 	0.677	0.934	0.7774	0.031
Mof_N 	N 	0.758	0.8773	0.5579	-0.16
Mof_H 	H 	0.8364	0.819	0.5297	0.015
Mof_H 	H 	0.6867	0.9249	0.5983	0.027
Mof_H 	H 	0.7698	0.8763	0.8621	0.035
Mof_C 	C 	0.6893	0.9471	0.8671	-0.115
Mof_H 	H 	0.6751	0.9303	0.7466	0.029
Mof_C 	C 	0.6286	0.9783	0.7979	-0.103
Mof_C 	C 	0.6994	0.9569	0.9152	0.333
Mof_C 	C 	0.6356	0.984	0.8417	0.031
Mof_H 	H 	0.5918	0.0037	0.7814	0.064
Mof_O 	O 	0.7549	0.9201	0.4367	-0.361
Mof_H 	H 	0.6031	0.0139	0.8555	0.028
Mof_O 	O 	0.2176	0.5905	0.9497	-0.383
Mof_Ag	Ag	0.1996	0.56542	0.01933	0.576
Mof_N 	N 	0.2578	0.6269	0.0718	-0.162
Mof_O 	O 	0.1528	0.4958	0.0684	-0.403
Mof_C 	C 	0.2313	0.6126	0.1122	0.012
Mof_C 	C 	0.3061	0.6737	0.0691	0.016
Mof_C 	C 	0.2577	0.6425	0.1488	0.002
Mof_H 	H 	0.1925	0.5805	0.1159	0.027
Mof_C 	C 	0.3337	0.7038	0.1047	0.013
Mof_H 	H 	0.3226	0.6873	0.0411	0.015
Mof_N 	N 	0.3104	0.6901	0.1444	-0.155
Mof_H 	H 	0.2393	0.6299	0.1768	0.031
Mof_H 	H 	0.3716	0.7362	0.1004	0.029
Mof_Ag	Ag	0.35133	0.73373	0.21115	0.558
Mof_O 	O 	0.4298	0.8047	0.1838	-0.381
Mof_O 	O 	0.2759	0.6734	0.2534	-0.398
Mof_C 	C 	0.4717	0.8414	0.2055	0.346
Mof_C 	C 	0.2917	0.6703	0.2935	0.327
Mof_O 	O 	0.481	0.8419	0.2458	-0.391
Mof_C 	C 	0.5144	0.8873	0.1794	-0.139
Mof_O 	O 	0.3407	0.7029	0.3162	-0.365
Mof_C 	C 	0.2406	0.6209	0.3166	-0.117
Mof_Ag	Ag	0.41314	0.77808	0.28924	0.548
Mof_C 	C 	0.5728	0.9286	0.1998	0.041
Mof_C 	C 	0.5047	0.8893	0.1345	0.063
Mof_C 	C 	0.1855	0.5864	0.2938	0.029
Mof_C 	C 	0.2569	0.614	0.3608	0.037
Mof_N 	N 	0.4543	0.8169	0.3561	-0.155
Mof_H 	H 	0.5828	0.9282	0.2304	0.024
Mof_C 	C 	0.6146	0.9694	0.1736	-0.118
Mof_H 	H 	0.468	0.8616	0.1202	0.028
Mof_C 	C 	0.5469	0.9306	0.1103	-0.134
Mof_C 	C 	0.1366	0.5425	0.3136	-0.098
Mof_H 	H 	0.1795	0.5918	0.2633	0.027
Mof_H 	H 	0.2976	0.6386	0.3761	0.036
Mof_C 	C 	0.2112	0.5692	0.3822	-0.112
Mof_Ag	Ag	0.52272	0.94456	0.48556	0.583
Mof_C 	C 	0.5127	0.8603	0.3567	0.016
Mof_C 	C 	0.4168	0.8016	0.3958	0
Mof_C 	C 	0.6044	0.9707	0.1301	0.052
Mof_H 	H 	0.6519	0.9975	0.1871	0.071
Mof_C 	C 	0.5311	0.9337	0.0628	0.315
Mof_H 	H 	0.0955	0.5189	0.2976	0.064
Mof_C 	C 	0.1511	0.5348	0.3592	0.027
Mof_C 	C 	0.228	0.5586	0.4298	0.334
Mof_O 	O 	0.5086	0.916	0.5528	-0.372
Mof_H 	H 	0.5379	0.8731	0.3299	0.028
Mof_C 	C 	0.539	0.8881	0.3946	0.001
Mof_H 	H 	0.3748	0.7707	0.3973	0.034
Mof_C 	C 	0.4392	0.8303	0.433	0.015
Mof_H 	H 	0.6356	0.9983	0.1131	0.008
Mof_O 	O 	0.5716	0.9707	0.0393	-0.43
Mof_O 	O 	0.4743	0.8972	0.0442	-0.344
Mof_H 	H 	0.1189	0.5054	0.3739	0.03
Mof_O 	O 	0.1837	0.5165	0.4458	-0.387
Mof_C 	C 	0.4605	0.949	0.5768	0.346
Mof_N 	N 	0.4978	0.8743	0.4322	-0.157
Mof_H 	H 	0.5858	0.9165	0.3937	0.035
Mof_H 	H 	0.4127	0.8187	0.4599	0.015
Mof_Ag	Ag	0.50087	0.06024	0.02926	0.612
Mof_Ag	Ag	0.24829	0.45151	0.49359	0.551
Mof_O 	O 	0.4258	0.9937	0.5623	-0.402
Mof_C 	C 	0.4527	0.9365	0.625	-0.127
Mof_N 	N 	0.5159	0.8732	0.9195	-0.175
Mof_C 	C 	0.4002	0.9717	0.6514	0.044
Mof_C 	C 	0.4975	0.8914	0.6428	0.057
Mof_C 	C 	0.5646	0.826	0.925	0.02
Mof_C 	C 	0.4938	0.8869	0.8796	0.021
Mof_C 	C 	0.3945	0.9627	0.6954	-0.115
Mof_H 	H 	0.3677	0.0025	0.6389	0.023
Mof_H 	H 	0.5321	0.8667	0.6245	0.032
Mof_C 	C 	0.4933	0.8811	0.6871	-0.129
Mof_C 	C 	0.5935	0.7934	0.8895	0.002
Mof_H 	H 	0.5801	0.8142	0.9536	0.011
Mof_C 	C 	0.5153	0.8525	0.8443	0.013
Mof_H 	H 	0.4622	0.9214	0.8746	0.014
Mof_H 	H 	0.3591	0.9876	0.7131	0.069
Mof_C 	C 	0.4395	0.9181	0.7136	0.04
Mof_C 	C 	0.5432	0.8308	0.7059	0.334
Mof_N 	N 	0.5642	0.8067	0.8485	-0.154
Mof_H 	H 	0.6335	0.7621	0.894	0.029
Mof_H 	H 	0.4933	0.8629	0.8162	0.034
Mof_H 	H 	0.435	0.9117	0.7441	0.023
Mof_O 	O 	0.5847	0.7997	0.6799	-0.375
Mof_O 	O 	0.5348	0.8235	0.747	-0.398
Mof_Ag	Ag	0.61199	0.76085	0.7833	0.559
Mof_Ag	Ag	0.65848	0.72246	0.70019	0.53
Mof_O 	O 	0.6861	0.6885	0.8055	-0.383
Mof_O 	O 	0.7269	0.6555	0.7393	-0.377
Mof_N 	N 	0.703	0.684	0.6324	-0.149
Mof_C 	C 	0.726	0.6534	0.78	0.316
Mof_C 	C 	0.6731	0.6995	0.5931	0.008
Mof_C 	C 	0.7579	0.6363	0.6341	-0.001
Mof_C 	C 	0.7741	0.6031	0.8016	-0.112
Mof_H 	H 	0.6385	0.7334	0.5906	0.03
Mof_C 	C 	0.6896	0.6691	0.5566	0.014
Mof_H 	H 	0.7832	0.6236	0.6609	0.039
Mof_C 	C 	0.7752	0.6077	0.5967	0.016
Mof_C 	C 	0.7661	0.5974	0.8458	0.042
Mof_C 	C 	0.823	0.566	0.7774	0.031
Mof_N 	N 	0.742	0.6227	0.5579	-0.16
Mof_H 	H 	0.6636	0.681	0.5297	0.015
Mof_H 	H 	0.8133	0.5751	0.5983	0.027
Mof_H 	H 	0.7302	0.6237	0.8621	0.035
Mof_C 	C 	0.8107	0.5529	0.8671	-0.115
Mof_H 	H 	0.8249	0.5697	0.7466	0.029
Mof_C 	C 	0.8714	0.5217	0.7979	-0.103
Mof_C 	C 	0.8006	0.5431	0.9152	0.333
Mof_C 	C 	0.8644	0.516	0.8417	0.031
Mof_H 	H 	0.9082	0.4963	0.7814	0.065
Mof_O 	O 	0.7451	0.5799	0.4367	-0.361
Mof_H 	H 	0.8969	0.4861	0.8555	0.028
Mof_O 	O 	0.7176	0.4095	0.5503	-0.383
Mof_Ag	Ag	0.6996	0.43458	0.48067	0.575
Mof_N 	N 	0.7578	0.3731	0.4282	-0.162
Mof_O 	O 	0.6528	0.5042	0.4316	-0.402
Mof_C 	C 	0.7313	0.3874	0.3878	0.012
Mof_C 	C 	0.8061	0.3263	0.4309	0.016
Mof_C 	C 	0.7577	0.3575	0.3512	0.002
Mof_H 	H 	0.6925	0.4195	0.3841	0.027
Mof_C 	C 	0.8337	0.2962	0.3953	0.013
Mof_H 	H 	0.8226	0.3127	0.4589	0.015
Mof_N 	N 	0.8104	0.3099	0.3556	-0.155
Mof_H 	H 	0.7393	0.3701	0.3232	0.031
Mof_H 	H 	0.8716	0.2638	0.3996	0.029
Mof_Ag	Ag	0.85133	0.26627	0.28885	0.558
Mof_O 	O 	0.9298	0.1953	0.3162	-0.382
Mof_O 	O 	0.7759	0.3266	0.2466	-0.398
Mof_C 	C 	0.9717	0.1586	0.2945	0.346
Mof_C 	C 	0.7917	0.3297	0.2065	0.327
Mof_O 	O 	0.981	0.1581	0.2542	-0.391
Mof_C 	C 	0.0144	0.1127	0.3206	-0.139
Mof_O 	O 	0.8407	0.2971	0.1838	-0.365
Mof_C 	C 	0.7406	0.3791	0.1834	-0.117
Mof_Ag	Ag	0.91314	0.22192	0.21076	0.548
Mof_C 	C 	0.0728	0.0714	0.3002	0.042
Mof_C 	C 	0.0047	0.1107	0.3655	0.064
Mof_C 	C 	0.6855	0.4136	0.2062	0.029
Mof_C 	C 	0.7569	0.386	0.1392	0.037
Mof_N 	N 	0.9543	0.1831	0.1439	-0.155
Mof_H 	H 	0.0828	0.0718	0.2696	0.024
Mof_C 	C 	0.1146	0.0306	0.3264	-0.118
Mof_H 	H 	0.968	0.1384	0.3798	0.028
Mof_C 	C 	0.0469	0.0694	0.3897	-0.134
Mof_C 	C 	0.6366	0.4575	0.1864	-0.098
Mof_H 	H 	0.6795	0.4082	0.2367	0.027
Mof_H 	H 	0.7976	0.3614	0.1239	0.036
Mof_C 	C 	0.7112	0.4308	0.1178	-0.112
Mof_Ag	Ag	0.02272	0.05544	0.01444	0.584
Mof_C 	C 	0.0127	0.1397	0.1433	0.016
Mof_C 	C 	0.9168	0.1984	0.1042	0
Mof_C 	C 	0.1044	0.0293	0.3699	0.052
Mof_H 	H 	0.1519	0.0025	0.3129	0.071
Mof_C 	C 	0.0311	0.0663	0.4372	0.315
Mof_H 	H 	0.5955	0.4811	0.2024	0.064
Mof_C 	C 	0.6511	0.4652	0.1408	0.027
Mof_C 	C 	0.728	0.4414	0.0702	0.334
Mof_O 	O 	0.0086	0.084	0.9472	-0.372
Mof_H 	H 	0.0379	0.1269	0.1701	0.028
Mof_C 	C 	0.039	0.1119	0.1054	0.001
Mof_H 	H 	0.8748	0.2293	0.1027	0.034
Mof_C 	C 	0.9392	0.1697	0.067	0.015
Mof_H 	H 	0.1356	0.0017	0.3869	0.008
Mof_O 	O 	0.0716	0.0293	0.4607	-0.43
Mof_O 	O 	0.9743	0.1028	0.4558	-0.345
Mof_H 	H 	0.6189	0.4946	0.1261	0.03
Mof_O 	O 	0.6837	0.4835	0.0542	-0.387
Mof_C 	C 	0.9605	0.051	0.9232	0.346
Mof_N 	N 	0.9978	0.1257	0.0678	-0.158
Mof_H 	H 	0.0858	0.0835	0.1063	0.035
Mof_H 	H 	0.9127	0.1813	0.0401	0.015
Mof_Ag	Ag	0.00087	0.93976	0.47074	0.611
Mof_Ag	Ag	0.74829	0.54849	0.00641	0.552
Mof_O 	O 	0.9258	0.0063	0.9377	-0.402
Mof_C 	C 	0.9527	0.0635	0.875	-0.126
Mof_N 	N 	0.0159	0.1268	0.5805	-0.174
Mof_C 	C 	0.9002	0.0283	0.8486	0.043
Mof_C 	C 	0.9975	0.1086	0.8572	0.056
Mof_C 	C 	0.0646	0.174	0.575	0.02
Mof_C 	C 	0.9938	0.1131	0.6204	0.02
Mof_C 	C 	0.8945	0.0373	0.8046	-0.114
Mof_H 	H 	0.8677	0.9975	0.8611	0.023
Mof_H 	H 	0.0321	0.1333	0.8755	0.032
Mof_C 	C 	0.9933	0.1189	0.8129	-0.129
Mof_C 	C 	0.0935	0.2066	0.6105	0.002
Mof_H 	H 	0.0801	0.1858	0.5464	0.011
Mof_C 	C 	0.0153	0.1475	0.6557	0.015
Mof_H 	H 	0.9622	0.0786	0.6254	0.014
Mof_H 	H 	0.8591	0.0124	0.7869	0.069
Mof_C 	C 	0.9395	0.0819	0.7864	0.04
Mof_C 	C 	0.0432	0.1692	0.7941	0.334
Mof_N 	N 	0.0642	0.1933	0.6515	-0.154
Mof_H 	H 	0.1335	0.2379	0.606	0.029
Mof_H 	H 	0.9933	0.1371	0.6838	0.033
Mof_H 	H 	0.935	0.0883	0.7559	0.023
Mof_O 	O 	0.0847	0.2003	0.8201	-0.375
Mof_O 	O 	0.0348	0.1765	0.753	-0.398
Mof_Ag	Ag	0.11199	0.23915	0.7167	0.559
Mof_Ag	Ag	0.15848	0.27754	0.79981	0.53
Mof_O 	O 	0.1861	0.3115	0.6945	-0.383
Mof_O 	O 	0.2269	0.3445	0.7607	-0.377
Mof_N 	N 	0.203	0.316	0.8676	-0.149
Mof_C 	C 	0.226	0.3466	0.72	0.316
Mof_C 	C 	0.1731	0.3005	0.9069	0.008
Mof_C 	C 	0.2579	0.3637	0.8659	-0.001
Mof_C 	C 	0.2741	0.3969	0.6984	-0.112
Mof_H 	H 	0.1385	0.2666	0.9094	0.03
Mof_C 	C 	0.1896	0.3309	0.9434	0.014
Mof_H 	H 	0.2832	0.3764	0.8391	0.039
Mof_C 	C 	0.2752	0.3923	0.9033	0.016
Mof_C 	C 	0.2661	0.4026	0.6542	0.042
Mof_C 	C 	0.323	0.434	0.7226	0.031
Mof_N 	N 	0.242	0.3773	0.9421	-0.16
Mof_H 	H 	0.1636	0.319	0.9703	0.015
Mof_H 	H 	0.3133	0.4249	0.9017	0.027
Mof_H 	H 	0.2302	0.3763	0.6379	0.035
Mof_C 	C 	0.3107	0.4471	0.6329	-0.115
Mof_H 	H 	0.3249	0.4303	0.7534	0.029
Mof_C 	C 	0.3714	0.4783	0.7021	-0.103
Mof_C 	C 	0.3006	0.4569	0.5848	0.333
Mof_C 	C 	0.3644	0.484	0.6583	0.031
Mof_H 	H 	0.4082	0.5037	0.7186	0.065
Mof_O 	O 	0.2451	0.4201	0.0633	-0.361
Mof_H 	H 	0.3969	0.5139	0.6445	0.028
Mof_O 	O 	0.7824	0.0905	0.5503	-0.383
Mof_Ag	Ag	0.8004	0.06542	0.48067	0.575
Mof_N 	N 	0.7422	0.1269	0.4282	-0.162
Mof_O 	O 	0.8472	0.9958	0.4316	-0.402
Mof_C 	C 	0.7687	0.1126	0.3878	0.012
Mof_C 	C 	0.6939	0.1737	0.4309	0.016
Mof_C 	C 	0.7423	0.1425	0.3512	0.002
Mof_H 	H 	0.8075	0.0805	0.3841	0.027
Mof_C 	C 	0.6663	0.2038	0.3953	0.013
Mof_H 	H 	0.6774	0.1873	0.4589	0.015
Mof_N 	N 	0.6896	0.1901	0.3556	-0.155
Mof_H 	H 	0.7607	0.1299	0.3232	0.031
Mof_H 	H 	0.6284	0.2362	0.3996	0.029
Mof_Ag	Ag	0.64867	0.23373	0.28885	0.558
Mof_O 	O 	0.5702	0.3047	0.3162	-0.382
Mof_O 	O 	0.7241	0.1734	0.2466	-0.398
Mof_C 	C 	0.5283	0.3414	0.2945	0.346
Mof_C 	C 	0.7083	0.1703	0.2065	0.327
Mof_O 	O 	0.519	0.3419	0.2542	-0.391
Mof_C 	C 	0.4856	0.3873	0.3206	-0.139
Mof_O 	O 	0.6593	0.2029	0.1838	-0.365
Mof_C 	C 	0.7594	0.1209	0.1834	-0.117
Mof_Ag	Ag	0.58686	0.27808	0.21076	0.548
Mof_C 	C 	0.4272	0.4286	0.3002	0.041
Mof_C 	C 	0.4953	0.3893	0.3655	0.063
Mof_C 	C 	0.8145	0.0864	0.2062	0.029
Mof_C 	C 	0.7431	0.114	0.1392	0.037
Mof_N 	N 	0.5457	0.3169	0.1439	-0.155
Mof_H 	H 	0.4172	0.4282	0.2696	0.024
Mof_C 	C 	0.3854	0.4694	0.3264	-0.118
Mof_H 	H 	0.532	0.3616	0.3798	0.028
Mof_C 	C 	0.4531	0.4306	0.3897	-0.134
Mof_C 	C 	0.8634	0.0425	0.1864	-0.098
Mof_H 	H 	0.8205	0.0918	0.2367	0.027
Mof_H 	H 	0.7024	0.1386	0.1239	0.036
Mof_C 	C 	0.7888	0.0692	0.1178	-0.112
Mof_Ag	Ag	0.47728	0.44456	0.01444	0.584
Mof_C 	C 	0.4873	0.3603	0.1433	0.016
Mof_C 	C 	0.5832	0.3016	0.1042	0
Mof_C 	C 	0.3956	0.4707	0.3699	0.052
Mof_H 	H 	0.3481	0.4975	0.3129	0.071
Mof_C 	C 	0.4689	0.4337	0.4372	0.315
Mof_H 	H 	0.9045	0.0189	0.2024	0.064
Mof_C 	C 	0.8489	0.0348	0.1408	0.027
Mof_C 	C 	0.772	0.0586	0.0702	0.334
Mof_O 	O 	0.4914	0.416	0.9472	-0.372
Mof_H 	H 	0.4621	0.3731	0.1701	0.028
Mof_C 	C 	0.461	0.3881	0.1054	0.001
Mof_H 	H 	0.6252	0.2707	0.1027	0.034
Mof_C 	C 	0.5608	0.3303	0.067	0.015
Mof_H 	H 	0.3644	0.4983	0.3869	0.008
Mof_O 	O 	0.4284	0.4707	0.4607	-0.43
Mof_O 	O 	0.5257	0.3972	0.4558	-0.344
Mof_H 	H 	0.8811	0.0054	0.1261	0.03
Mof_O 	O 	0.8163	0.0165	0.0542	-0.387
Mof_C 	C 	0.5395	0.449	0.9232	0.346
Mof_N 	N 	0.5022	0.3743	0.0678	-0.157
Mof_H 	H 	0.4142	0.4165	0.1063	0.035
Mof_H 	H 	0.5873	0.3187	0.0401	0.015
Mof_Ag	Ag	0.49913	0.56024	0.47074	0.612
Mof_Ag	Ag	0.75171	0.95151	0.00641	0.552
Mof_O 	O 	0.5742	0.4937	0.9377	-0.401
Mof_C 	C 	0.5473	0.4365	0.875	-0.127
Mof_N 	N 	0.4841	0.3732	0.5805	-0.175
Mof_C 	C 	0.5998	0.4717	0.8486	0.045
Mof_C 	C 	0.5025	0.3914	0.8572	0.058
Mof_C 	C 	0.4354	0.326	0.575	0.02
Mof_C 	C 	0.5062	0.3869	0.6204	0.021
Mof_C 	C 	0.6055	0.4627	0.8046	-0.115
Mof_H 	H 	0.6323	0.5025	0.8611	0.023
Mof_H 	H 	0.4679	0.3667	0.8755	0.032
Mof_C 	C 	0.5067	0.3811	0.8129	-0.129
Mof_C 	C 	0.4065	0.2934	0.6105	0.002
Mof_H 	H 	0.4199	0.3142	0.5464	0.01
Mof_C 	C 	0.4847	0.3525	0.6557	0.013
Mof_H 	H 	0.5378	0.4214	0.6254	0.014
Mof_H 	H 	0.6409	0.4876	0.7869	0.069
Mof_C 	C 	0.5605	0.4181	0.7864	0.04
Mof_C 	C 	0.4568	0.3308	0.7941	0.334
Mof_N 	N 	0.4358	0.3067	0.6515	-0.154
Mof_H 	H 	0.3665	0.2621	0.606	0.029
Mof_H 	H 	0.5067	0.3629	0.6838	0.034
Mof_H 	H 	0.565	0.4117	0.7559	0.023
Mof_O 	O 	0.4153	0.2997	0.8201	-0.375
Mof_O 	O 	0.4652	0.3235	0.753	-0.398
Mof_Ag	Ag	0.38801	0.26085	0.7167	0.559
Mof_Ag	Ag	0.34152	0.22246	0.79981	0.53
Mof_O 	O 	0.3139	0.1885	0.6945	-0.383
Mof_O 	O 	0.2731	0.1555	0.7607	-0.377
Mof_N 	N 	0.297	0.184	0.8676	-0.149
Mof_C 	C 	0.274	0.1534	0.72	0.316
Mof_C 	C 	0.3269	0.1995	0.9069	0.008
Mof_C 	C 	0.2421	0.1363	0.8659	-0.001
Mof_C 	C 	0.2259	0.1031	0.6984	-0.111
Mof_H 	H 	0.3615	0.2334	0.9094	0.03
Mof_C 	C 	0.3104	0.1691	0.9434	0.014
Mof_H 	H 	0.2168	0.1236	0.8391	0.039
Mof_C 	C 	0.2248	0.1077	0.9033	0.016
Mof_C 	C 	0.2339	0.0974	0.6542	0.042
Mof_C 	C 	0.177	0.066	0.7226	0.031
Mof_N 	N 	0.258	0.1227	0.9421	-0.16
Mof_H 	H 	0.3364	0.181	0.9703	0.015
Mof_H 	H 	0.1867	0.0751	0.9017	0.027
Mof_H 	H 	0.2698	0.1237	0.6379	0.035
Mof_C 	C 	0.1893	0.0529	0.6329	-0.115
Mof_H 	H 	0.1751	0.0697	0.7534	0.029
Mof_C 	C 	0.1286	0.0217	0.7021	-0.102
Mof_C 	C 	0.1994	0.0431	0.5848	0.333
Mof_C 	C 	0.1356	0.016	0.6583	0.031
Mof_H 	H 	0.0918	0.9963	0.7186	0.064
Mof_O 	O 	0.2549	0.0799	0.0633	-0.361
Mof_H 	H 	0.1031	0.9861	0.6445	0.028
Mof_O 	O 	0.7176	0.0905	0.0503	-0.383
Mof_Ag	Ag	0.6996	0.06542	0.98067	0.575
Mof_N 	N 	0.7578	0.1269	0.9282	-0.162
Mof_O 	O 	0.6528	0.9958	0.9316	-0.403
Mof_C 	C 	0.7313	0.1126	0.8878	0.012
Mof_C 	C 	0.8061	0.1737	0.9309	0.016
Mof_C 	C 	0.7577	0.1425	0.8512	0.002
Mof_H 	H 	0.6925	0.0805	0.8841	0.027
Mof_C 	C 	0.8337	0.2038	0.8953	0.013
Mof_H 	H 	0.8226	0.1873	0.9589	0.015
Mof_N 	N 	0.8104	0.1901	0.8556	-0.155
Mof_H 	H 	0.7393	0.1299	0.8232	0.031
Mof_H 	H 	0.8716	0.2362	0.8996	0.029
Mof_Ag	Ag	0.85133	0.23373	0.78885	0.558
Mof_O 	O 	0.9298	0.3047	0.8162	-0.382
Mof_O 	O 	0.7759	0.1734	0.7466	-0.398
Mof_C 	C 	0.9717	0.3414	0.7945	0.346
Mof_C 	C 	0.7917	0.1703	0.7065	0.327
Mof_O 	O 	0.981	0.3419	0.7542	-0.391
Mof_C 	C 	0.0144	0.3873	0.8206	-0.139
Mof_O 	O 	0.8407	0.2029	0.6838	-0.365
Mof_C 	C 	0.7406	0.1209	0.6834	-0.117
Mof_Ag	Ag	0.91314	0.27808	0.71076	0.548
Mof_C 	C 	0.0728	0.4286	0.8002	0.042
Mof_C 	C 	0.0047	0.3893	0.8655	0.063
Mof_C 	C 	0.6855	0.0864	0.7062	0.029
Mof_C 	C 	0.7569	0.114	0.6392	0.037
Mof_N 	N 	0.9543	0.3169	0.6439	-0.155
Mof_H 	H 	0.0828	0.4282	0.7696	0.024
Mof_C 	C 	0.1146	0.4694	0.8264	-0.118
Mof_H 	H 	0.968	0.3616	0.8798	0.028
Mof_C 	C 	0.0469	0.4306	0.8897	-0.134
Mof_C 	C 	0.6366	0.0425	0.6864	-0.098
Mof_H 	H 	0.6795	0.0918	0.7367	0.027
Mof_H 	H 	0.7976	0.1386	0.6239	0.036
Mof_C 	C 	0.7112	0.0692	0.6178	-0.112
Mof_Ag	Ag	0.02272	0.44456	0.51444	0.583
Mof_C 	C 	0.0127	0.3603	0.6433	0.016
Mof_C 	C 	0.9168	0.3016	0.6042	0
Mof_C 	C 	0.1044	0.4707	0.8699	0.052
Mof_H 	H 	0.1519	0.4975	0.8129	0.071
Mof_C 	C 	0.0311	0.4337	0.9372	0.315
Mof_H 	H 	0.5955	0.0189	0.7024	0.064
Mof_C 	C 	0.6511	0.0348	0.6408	0.027
Mof_C 	C 	0.728	0.0586	0.5702	0.334
Mof_O 	O 	0.0086	0.416	0.4472	-0.372
Mof_H 	H 	0.0379	0.3731	0.6701	0.028
Mof_C 	C 	0.039	0.3881	0.6054	0.001
Mof_H 	H 	0.8748	0.2707	0.6027	0.034
Mof_C 	C 	0.9392	0.3303	0.567	0.015
Mof_H 	H 	0.1356	0.4983	0.8869	0.008
Mof_O 	O 	0.0716	0.4707	0.9607	-0.43
Mof_O 	O 	0.9743	0.3972	0.9558	-0.345
Mof_H 	H 	0.6189	0.0054	0.6261	0.03
Mof_O 	O 	0.6837	0.0165	0.5542	-0.387
Mof_C 	C 	0.9605	0.449	0.4232	0.346
Mof_N 	N 	0.9978	0.3743	0.5678	-0.157
Mof_H 	H 	0.0858	0.4165	0.6063	0.035
Mof_H 	H 	0.9127	0.3187	0.5401	0.015
Mof_Ag	Ag	0.00087	0.56024	0.97074	0.612
Mof_Ag	Ag	0.74829	0.95151	0.50641	0.551
Mof_O 	O 	0.9258	0.4937	0.4377	-0.401
Mof_C 	C 	0.9527	0.4365	0.375	-0.127
Mof_N 	N 	0.0159	0.3732	0.0805	-0.175
Mof_C 	C 	0.9002	0.4717	0.3486	0.044
Mof_C 	C 	0.9975	0.3914	0.3572	0.057
Mof_C 	C 	0.0646	0.326	0.075	0.02
Mof_C 	C 	0.9938	0.3869	0.1204	0.021
Mof_C 	C 	0.8945	0.4627	0.3046	-0.115
Mof_H 	H 	0.8677	0.5025	0.3611	0.023
Mof_H 	H 	0.0321	0.3667	0.3755	0.032
Mof_C 	C 	0.9933	0.3811	0.3129	-0.129
Mof_C 	C 	0.0935	0.2934	0.1105	0.002
Mof_H 	H 	0.0801	0.3142	0.0464	0.011
Mof_C 	C 	0.0153	0.3525	0.1557	0.013
Mof_H 	H 	0.9622	0.4214	0.1254	0.014
Mof_H 	H 	0.8591	0.4876	0.2869	0.069
Mof_C 	C 	0.9395	0.4181	0.2864	0.04
Mof_C 	C 	0.0432	0.3308	0.2941	0.334
Mof_N 	N 	0.0642	0.3067	0.1515	-0.154
Mof_H 	H 	0.1335	0.2621	0.106	0.029
Mof_H 	H 	0.9933	0.3629	0.1838	0.034
Mof_H 	H 	0.935	0.4117	0.2559	0.023
Mof_O 	O 	0.0847	0.2997	0.3201	-0.375
Mof_O 	O 	0.0348	0.3235	0.253	-0.398
Mof_Ag	Ag	0.11199	0.26085	0.2167	0.559
Mof_Ag	Ag	0.15848	0.22246	0.29981	0.53
Mof_O 	O 	0.1861	0.1885	0.1945	-0.383
Mof_O 	O 	0.2269	0.1555	0.2607	-0.377
Mof_N 	N 	0.203	0.184	0.3676	-0.149
Mof_C 	C 	0.226	0.1534	0.22	0.316
Mof_C 	C 	0.1731	0.1995	0.4069	0.008
Mof_C 	C 	0.2579	0.1363	0.3659	-0.001
Mof_C 	C 	0.2741	0.1031	0.1984	-0.111
Mof_H 	H 	0.1385	0.2334	0.4094	0.03
Mof_C 	C 	0.1896	0.1691	0.4434	0.014
Mof_H 	H 	0.2832	0.1236	0.3391	0.039
Mof_C 	C 	0.2752	0.1077	0.4033	0.016
Mof_C 	C 	0.2661	0.0974	0.1542	0.042
Mof_C 	C 	0.323	0.066	0.2226	0.031
Mof_N 	N 	0.242	0.1227	0.4421	-0.16
Mof_H 	H 	0.1636	0.181	0.4703	0.015
Mof_H 	H 	0.3133	0.0751	0.4017	0.027
Mof_H 	H 	0.2302	0.1237	0.1379	0.035
Mof_C 	C 	0.3107	0.0529	0.1329	-0.115
Mof_H 	H 	0.3249	0.0697	0.2534	0.029
Mof_C 	C 	0.3714	0.0217	0.2021	-0.103
Mof_C 	C 	0.3006	0.0431	0.0848	0.333
Mof_C 	C 	0.3644	0.016	0.1583	0.031
Mof_H 	H 	0.4082	0.9963	0.2186	0.064
Mof_O 	O 	0.2451	0.0799	0.5633	-0.361
Mof_H 	H 	0.3969	0.9861	0.1445	0.028
Mof_O 	O 	0.7824	0.4095	0.0503	-0.383
Mof_Ag	Ag	0.8004	0.43458	0.98067	0.576
Mof_N 	N 	0.7422	0.3731	0.9282	-0.162
Mof_O 	O 	0.8472	0.5042	0.9316	-0.403
Mof_C 	C 	0.7687	0.3874	0.8878	0.012
Mof_C 	C 	0.6939	0.3263	0.9309	0.016
Mof_C 	C 	0.7423	0.3575	0.8512	0.002
Mof_H 	H 	0.8075	0.4195	0.8841	0.027
Mof_C 	C 	0.6663	0.2962	0.8953	0.013
Mof_H 	H 	0.6774	0.3127	0.9589	0.015
Mof_N 	N 	0.6896	0.3099	0.8556	-0.155
Mof_H 	H 	0.7607	0.3701	0.8232	0.031
Mof_H 	H 	0.6284	0.2638	0.8996	0.029
Mof_Ag	Ag	0.64867	0.26627	0.78885	0.558
Mof_O 	O 	0.5702	0.1953	0.8162	-0.381
Mof_O 	O 	0.7241	0.3266	0.7466	-0.398
Mof_C 	C 	0.5283	0.1586	0.7945	0.346
Mof_C 	C 	0.7083	0.3297	0.7065	0.327
Mof_O 	O 	0.519	0.1581	0.7542	-0.391
Mof_C 	C 	0.4856	0.1127	0.8206	-0.139
Mof_O 	O 	0.6593	0.2971	0.6838	-0.365
Mof_C 	C 	0.7594	0.3791	0.6834	-0.117
Mof_Ag	Ag	0.58686	0.22192	0.71076	0.548
Mof_C 	C 	0.4272	0.0714	0.8002	0.041
Mof_C 	C 	0.4953	0.1107	0.8655	0.063
Mof_C 	C 	0.8145	0.4136	0.7062	0.029
Mof_C 	C 	0.7431	0.386	0.6392	0.037
Mof_N 	N 	0.5457	0.1831	0.6439	-0.155
Mof_H 	H 	0.4172	0.0718	0.7696	0.024
Mof_C 	C 	0.3854	0.0306	0.8264	-0.118
Mof_H 	H 	0.532	0.1384	0.8798	0.028
Mof_C 	C 	0.4531	0.0694	0.8897	-0.134
Mof_C 	C 	0.8634	0.4575	0.6864	-0.098
Mof_H 	H 	0.8205	0.4082	0.7367	0.027
Mof_H 	H 	0.7024	0.3614	0.6239	0.036
Mof_C 	C 	0.7888	0.4308	0.6178	-0.112
Mof_Ag	Ag	0.47728	0.05544	0.51444	0.583
Mof_C 	C 	0.4873	0.1397	0.6433	0.016
Mof_C 	C 	0.5832	0.1984	0.6042	0
Mof_C 	C 	0.3956	0.0293	0.8699	0.052
Mof_H 	H 	0.3481	0.0025	0.8129	0.071
Mof_C 	C 	0.4689	0.0663	0.9372	0.315
Mof_H 	H 	0.9045	0.4811	0.7024	0.064
Mof_C 	C 	0.8489	0.4652	0.6408	0.027
Mof_C 	C 	0.772	0.4414	0.5702	0.334
Mof_O 	O 	0.4914	0.084	0.4472	-0.372
Mof_H 	H 	0.4621	0.1269	0.6701	0.028
Mof_C 	C 	0.461	0.1119	0.6054	0.001
Mof_H 	H 	0.6252	0.2293	0.6027	0.034
Mof_C 	C 	0.5608	0.1697	0.567	0.015
Mof_H 	H 	0.3644	0.0017	0.8869	0.008
Mof_O 	O 	0.4284	0.0293	0.9607	-0.43
Mof_O 	O 	0.5257	0.1028	0.9558	-0.344
Mof_H 	H 	0.8811	0.4946	0.6261	0.03
Mof_O 	O 	0.8163	0.4835	0.5542	-0.387
Mof_C 	C 	0.5395	0.051	0.4232	0.346
Mof_N 	N 	0.5022	0.1257	0.5678	-0.157
Mof_H 	H 	0.4142	0.0835	0.6063	0.035
Mof_H 	H 	0.5873	0.1813	0.5401	0.015
Mof_Ag	Ag	0.49913	0.93976	0.97074	0.612
Mof_Ag	Ag	0.75171	0.54849	0.50641	0.551
Mof_O 	O 	0.5742	0.0063	0.4377	-0.402
Mof_C 	C 	0.5473	0.0635	0.375	-0.127
Mof_N 	N 	0.4841	0.1268	0.0805	-0.175
Mof_C 	C 	0.5998	0.0283	0.3486	0.044
Mof_C 	C 	0.5025	0.1086	0.3572	0.057
Mof_C 	C 	0.4354	0.174	0.075	0.02
Mof_C 	C 	0.5062	0.1131	0.1204	0.021
Mof_C 	C 	0.6055	0.0373	0.3046	-0.115
Mof_H 	H 	0.6323	0.9975	0.3611	0.023
Mof_H 	H 	0.4679	0.1333	0.3755	0.032
Mof_C 	C 	0.5067	0.1189	0.3129	-0.129
Mof_C 	C 	0.4065	0.2066	0.1105	0.002
Mof_H 	H 	0.4199	0.1858	0.0464	0.011
Mof_C 	C 	0.4847	0.1475	0.1557	0.013
Mof_H 	H 	0.5378	0.0786	0.1254	0.014
Mof_H 	H 	0.6409	0.0124	0.2869	0.069
Mof_C 	C 	0.5605	0.0819	0.2864	0.04
Mof_C 	C 	0.4568	0.1692	0.2941	0.334
Mof_N 	N 	0.4358	0.1933	0.1515	-0.154
Mof_H 	H 	0.3665	0.2379	0.106	0.029
Mof_H 	H 	0.5067	0.1371	0.1838	0.034
Mof_H 	H 	0.565	0.0883	0.2559	0.023
Mof_O 	O 	0.4153	0.2003	0.3201	-0.375
Mof_O 	O 	0.4652	0.1765	0.253	-0.398
Mof_Ag	Ag	0.38801	0.23915	0.2167	0.559
Mof_Ag	Ag	0.34152	0.27754	0.29981	0.53
Mof_O 	O 	0.3139	0.3115	0.1945	-0.383
Mof_O 	O 	0.2731	0.3445	0.2607	-0.377
Mof_N 	N 	0.297	0.316	0.3676	-0.149
Mof_C 	C 	0.274	0.3466	0.22	0.316
Mof_C 	C 	0.3269	0.3005	0.4069	0.008
Mof_C 	C 	0.2421	0.3637	0.3659	-0.001
Mof_C 	C 	0.2259	0.3969	0.1984	-0.112
Mof_H 	H 	0.3615	0.2666	0.4094	0.03
Mof_C 	C 	0.3104	0.3309	0.4434	0.014
Mof_H 	H 	0.2168	0.3764	0.3391	0.039
Mof_C 	C 	0.2248	0.3923	0.4033	0.016
Mof_C 	C 	0.2339	0.4026	0.1542	0.042
Mof_C 	C 	0.177	0.434	0.2226	0.031
Mof_N 	N 	0.258	0.3773	0.4421	-0.16
Mof_H 	H 	0.3364	0.319	0.4703	0.015
Mof_H 	H 	0.1867	0.4249	0.4017	0.027
Mof_H 	H 	0.2698	0.3763	0.1379	0.035
Mof_C 	C 	0.1893	0.4471	0.1329	-0.115
Mof_H 	H 	0.1751	0.4303	0.2534	0.029
Mof_C 	C 	0.1286	0.4783	0.2021	-0.103
Mof_C 	C 	0.1994	0.4569	0.0848	0.333
Mof_C 	C 	0.1356	0.484	0.1583	0.031
Mof_H 	H 	0.0918	0.5037	0.2186	0.065
Mof_O 	O 	0.2549	0.4201	0.5633	-0.361
Mof_H 	H 	0.1031	0.5139	0.1445	0.028
Mof_O 	O 	0.2824	0.5905	0.4497	-0.383
Mof_Ag	Ag	0.3004	0.56542	0.51933	0.575
Mof_N 	N 	0.2422	0.6269	0.5718	-0.162
Mof_O 	O 	0.3472	0.4958	0.5684	-0.402
Mof_C 	C 	0.2687	0.6126	0.6122	0.012
Mof_C 	C 	0.1939	0.6737	0.5691	0.016
Mof_C 	C 	0.2423	0.6425	0.6488	0.002
Mof_H 	H 	0.3075	0.5805	0.6159	0.027
Mof_C 	C 	0.1663	0.7038	0.6047	0.013
Mof_H 	H 	0.1774	0.6873	0.5411	0.015
Mof_N 	N 	0.1896	0.6901	0.6444	-0.155
Mof_H 	H 	0.2607	0.6299	0.6768	0.031
Mof_H 	H 	0.1284	0.7362	0.6004	0.029
Mof_Ag	Ag	0.14867	0.73373	0.71115	0.558
Mof_O 	O 	0.0702	0.8047	0.6838	-0.382
Mof_O 	O 	0.2241	0.6734	0.7534	-0.398
Mof_C 	C 	0.0283	0.8414	0.7055	0.346
Mof_C 	C 	0.2083	0.6703	0.7935	0.327
Mof_O 	O 	0.019	0.8419	0.7458	-0.391
Mof_C 	C 	0.9856	0.8873	0.6794	-0.139
Mof_O 	O 	0.1593	0.7029	0.8162	-0.365
Mof_C 	C 	0.2594	0.6209	0.8166	-0.117
Mof_Ag	Ag	0.08686	0.77808	0.78924	0.548
Mof_C 	C 	0.9272	0.9286	0.6998	0.042
Mof_C 	C 	0.9953	0.8893	0.6345	0.064
Mof_C 	C 	0.3145	0.5864	0.7938	0.029
Mof_C 	C 	0.2431	0.614	0.8608	0.037
Mof_N 	N 	0.0457	0.8169	0.8561	-0.155
Mof_H 	H 	0.9172	0.9282	0.7304	0.024
Mof_C 	C 	0.8854	0.9694	0.6736	-0.118
Mof_H 	H 	0.032	0.8616	0.6202	0.028
Mof_C 	C 	0.9531	0.9306	0.6103	-0.134
Mof_C 	C 	0.3634	0.5425	0.8136	-0.098
Mof_H 	H 	0.3205	0.5918	0.7633	0.027
Mof_H 	H 	0.2024	0.6386	0.8761	0.036
Mof_C 	C 	0.2888	0.5692	0.8822	-0.112
Mof_Ag	Ag	0.97728	0.94456	0.98556	0.584
Mof_C 	C 	0.9873	0.8603	0.8567	0.016
Mof_C 	C 	0.0832	0.8016	0.8958	0
Mof_C 	C 	0.8956	0.9707	0.6301	0.052
Mof_H 	H 	0.8481	0.9975	0.6871	0.071
Mof_C 	C 	0.9689	0.9337	0.5628	0.315
Mof_H 	H 	0.4045	0.5189	0.7976	0.064
Mof_C 	C 	0.3489	0.5348	0.8592	0.027
Mof_C 	C 	0.272	0.5586	0.9298	0.334
Mof_O 	O 	0.9914	0.916	0.0528	-0.372
Mof_H 	H 	0.9621	0.8731	0.8299	0.028
Mof_C 	C 	0.961	0.8881	0.8946	0.001
Mof_H 	H 	0.1252	0.7707	0.8973	0.034
Mof_C 	C 	0.0608	0.8303	0.933	0.015
Mof_H 	H 	0.8644	0.9983	0.6131	0.008
Mof_O 	O 	0.9284	0.9707	0.5393	-0.43
Mof_O 	O 	0.0257	0.8972	0.5442	-0.345
Mof_H 	H 	0.3811	0.5054	0.8739	0.03
Mof_O 	O 	0.3163	0.5165	0.9458	-0.387
Mof_C 	C 	0.0395	0.949	0.0768	0.346
Mof_N 	N 	0.0022	0.8743	0.9322	-0.158
Mof_H 	H 	0.9142	0.9165	0.8937	0.035
Mof_H 	H 	0.0873	0.8187	0.9599	0.015
Mof_Ag	Ag	0.99913	0.06024	0.52926	0.611
Mof_Ag	Ag	0.25171	0.45151	0.99359	0.552
Mof_O 	O 	0.0742	0.9937	0.0623	-0.402
Mof_C 	C 	0.0473	0.9365	0.125	-0.126
Mof_N 	N 	0.9841	0.8732	0.4195	-0.174
Mof_C 	C 	0.0998	0.9717	0.1514	0.043
Mof_C 	C 	0.0025	0.8914	0.1428	0.056
Mof_C 	C 	0.9354	0.826	0.425	0.02
Mof_C 	C 	0.0062	0.8869	0.3796	0.02
Mof_C 	C 	0.1055	0.9627	0.1954	-0.114
Mof_H 	H 	0.1323	0.0025	0.1389	0.023
Mof_H 	H 	0.9679	0.8667	0.1245	0.032
Mof_C 	C 	0.0067	0.8811	0.1871	-0.129
Mof_C 	C 	0.9065	0.7934	0.3895	0.002
Mof_H 	H 	0.9199	0.8142	0.4536	0.011
Mof_C 	C 	0.9847	0.8525	0.3443	0.015
Mof_H 	H 	0.0378	0.9214	0.3746	0.014
Mof_H 	H 	0.1409	0.9876	0.2131	0.069
Mof_C 	C 	0.0605	0.9181	0.2136	0.04
Mof_C 	C 	0.9568	0.8308	0.2059	0.334
Mof_N 	N 	0.9358	0.8067	0.3485	-0.154
Mof_H 	H 	0.8665	0.7621	0.394	0.029
Mof_H 	H 	0.0067	0.8629	0.3162	0.033
Mof_H 	H 	0.065	0.9117	0.2441	0.023
Mof_O 	O 	0.9153	0.7997	0.1799	-0.375
Mof_O 	O 	0.9652	0.8235	0.247	-0.398
Mof_Ag	Ag	0.88801	0.76085	0.2833	0.559
Mof_Ag	Ag	0.84152	0.72246	0.20019	0.53
Mof_O 	O 	0.8139	0.6885	0.3055	-0.383
Mof_O 	O 	0.7731	0.6555	0.2393	-0.377
Mof_N 	N 	0.797	0.684	0.1324	-0.149
Mof_C 	C 	0.774	0.6534	0.28	0.316
Mof_C 	C 	0.8269	0.6995	0.0931	0.008
Mof_C 	C 	0.7421	0.6363	0.1341	-0.001
Mof_C 	C 	0.7259	0.6031	0.3016	-0.112
Mof_H 	H 	0.8615	0.7334	0.0906	0.03
Mof_C 	C 	0.8104	0.6691	0.0566	0.014
Mof_H 	H 	0.7168	0.6236	0.1609	0.039
Mof_C 	C 	0.7248	0.6077	0.0967	0.016
Mof_C 	C 	0.7339	0.5974	0.3458	0.042
Mof_C 	C 	0.677	0.566	0.2774	0.031
Mof_N 	N 	0.758	0.6227	0.0579	-0.16
Mof_H 	H 	0.8364	0.681	0.0297	0.015
Mof_H 	H 	0.6867	0.5751	0.0983	0.027
Mof_H 	H 	0.7698	0.6237	0.3621	0.035
Mof_C 	C 	0.6893	0.5529	0.3671	-0.115
Mof_H 	H 	0.6751	0.5697	0.2466	0.029
Mof_C 	C 	0.6286	0.5217	0.2979	-0.103
Mof_C 	C 	0.6994	0.5431	0.4152	0.333
Mof_C 	C 	0.6356	0.516	0.3417	0.031
Mof_H 	H 	0.5918	0.4963	0.2814	0.065
Mof_O 	O 	0.7549	0.5799	0.9367	-0.361
Mof_H 	H 	0.6031	0.4861	0.3555	0.028
Mof_O 	O 	0.2176	0.9095	0.4497	-0.383
Mof_Ag	Ag	0.1996	0.93458	0.51933	0.575
Mof_N 	N 	0.2578	0.8731	0.5718	-0.162
Mof_O 	O 	0.1528	0.0042	0.5684	-0.402
Mof_C 	C 	0.2313	0.8874	0.6122	0.012
Mof_C 	C 	0.3061	0.8263	0.5691	0.016
Mof_C 	C 	0.2577	0.8575	0.6488	0.002
Mof_H 	H 	0.1925	0.9195	0.6159	0.027
Mof_C 	C 	0.3337	0.7962	0.6047	0.013
Mof_H 	H 	0.3226	0.8127	0.5411	0.015
Mof_N 	N 	0.3104	0.8099	0.6444	-0.155
Mof_H 	H 	0.2393	0.8701	0.6768	0.031
Mof_H 	H 	0.3716	0.7638	0.6004	0.029
Mof_Ag	Ag	0.35133	0.76627	0.71115	0.558
Mof_O 	O 	0.4298	0.6953	0.6838	-0.382
Mof_O 	O 	0.2759	0.8266	0.7534	-0.398
Mof_C 	C 	0.4717	0.6586	0.7055	0.346
Mof_C 	C 	0.2917	0.8297	0.7935	0.327
Mof_O 	O 	0.481	0.6581	0.7458	-0.391
Mof_C 	C 	0.5144	0.6127	0.6794	-0.139
Mof_O 	O 	0.3407	0.7971	0.8162	-0.365
Mof_C 	C 	0.2406	0.8791	0.8166	-0.117
Mof_Ag	Ag	0.41314	0.72192	0.78924	0.548
Mof_C 	C 	0.5728	0.5714	0.6998	0.041
Mof_C 	C 	0.5047	0.6107	0.6345	0.063
Mof_C 	C 	0.1855	0.9136	0.7938	0.029
Mof_C 	C 	0.2569	0.886	0.8608	0.037
Mof_N 	N 	0.4543	0.6831	0.8561	-0.155
Mof_H 	H 	0.5828	0.5718	0.7304	0.024
Mof_C 	C 	0.6146	0.5306	0.6736	-0.118
Mof_H 	H 	0.468	0.6384	0.6202	0.028
Mof_C 	C 	0.5469	0.5694	0.6103	-0.134
Mof_C 	C 	0.1366	0.9575	0.8136	-0.098
Mof_H 	H 	0.1795	0.9082	0.7633	0.027
Mof_H 	H 	0.2976	0.8614	0.8761	0.036
Mof_C 	C 	0.2112	0.9308	0.8822	-0.112
Mof_Ag	Ag	0.52272	0.55544	0.98556	0.584
Mof_C 	C 	0.5127	0.6397	0.8567	0.016
Mof_C 	C 	0.4168	0.6984	0.8958	0
Mof_C 	C 	0.6044	0.5293	0.6301	0.052
Mof_H 	H 	0.6519	0.5025	0.6871	0.071
Mof_C 	C 	0.5311	0.5663	0.5628	0.315
Mof_H 	H 	0.0955	0.9811	0.7976	0.064
Mof_C 	C 	0.1511	0.9652	0.8592	0.027
Mof_C 	C 	0.228	0.9414	0.9298	0.334
Mof_O 	O 	0.5086	0.584	0.0528	-0.372
Mof_H 	H 	0.5379	0.6269	0.8299	0.028
Mof_C 	C 	0.539	0.6119	0.8946	0.001
Mof_H 	H 	0.3748	0.7293	0.8973	0.034
Mof_C 	C 	0.4392	0.6697	0.933	0.015
Mof_H 	H 	0.6356	0.5017	0.6131	0.008
Mof_O 	O 	0.5716	0.5293	0.5393	-0.43
Mof_O 	O 	0.4743	0.6028	0.5442	-0.344
Mof_H 	H 	0.1189	0.9946	0.8739	0.03
Mof_O 	O 	0.1837	0.9835	0.9458	-0.387
Mof_C 	C 	0.4605	0.551	0.0768	0.346
Mof_N 	N 	0.4978	0.6257	0.9322	-0.157
Mof_H 	H 	0.5858	0.5835	0.8937	0.035
Mof_H 	H 	0.4127	0.6813	0.9599	0.015
Mof_Ag	Ag	0.50087	0.43976	0.52926	0.612
Mof_Ag	Ag	0.24829	0.04849	0.99359	0.552
Mof_O 	O 	0.4258	0.5063	0.0623	-0.401
Mof_C 	C 	0.4527	0.5635	0.125	-0.127
Mof_N 	N 	0.5159	0.6268	0.4195	-0.175
Mof_C 	C 	0.4002	0.5283	0.1514	0.045
Mof_C 	C 	0.4975	0.6086	0.1428	0.058
Mof_C 	C 	0.5646	0.674	0.425	0.02
Mof_C 	C 	0.4938	0.6131	0.3796	0.021
Mof_C 	C 	0.3945	0.5373	0.1954	-0.115
Mof_H 	H 	0.3677	0.4975	0.1389	0.023
Mof_H 	H 	0.5321	0.6333	0.1245	0.032
Mof_C 	C 	0.4933	0.6189	0.1871	-0.129
Mof_C 	C 	0.5935	0.7066	0.3895	0.002
Mof_H 	H 	0.5801	0.6858	0.4536	0.01
Mof_C 	C 	0.5153	0.6475	0.3443	0.013
Mof_H 	H 	0.4622	0.5786	0.3746	0.014
Mof_H 	H 	0.3591	0.5124	0.2131	0.069
Mof_C 	C 	0.4395	0.5819	0.2136	0.04
Mof_C 	C 	0.5432	0.6692	0.2059	0.334
Mof_N 	N 	0.5642	0.6933	0.3485	-0.154
Mof_H 	H 	0.6335	0.7379	0.394	0.029
Mof_H 	H 	0.4933	0.6371	0.3162	0.034
Mof_H 	H 	0.435	0.5883	0.2441	0.023
Mof_O 	O 	0.5847	0.7003	0.1799	-0.375
Mof_O 	O 	0.5348	0.6765	0.247	-0.398
Mof_Ag	Ag	0.61199	0.73915	0.2833	0.559
Mof_Ag	Ag	0.65848	0.77754	0.20019	0.53
Mof_O 	O 	0.6861	0.8115	0.3055	-0.383
Mof_O 	O 	0.7269	0.8445	0.2393	-0.377
Mof_N 	N 	0.703	0.816	0.1324	-0.149
Mof_C 	C 	0.726	0.8466	0.28	0.316
Mof_C 	C 	0.6731	0.8005	0.0931	0.008
Mof_C 	C 	0.7579	0.8637	0.1341	-0.001
Mof_C 	C 	0.7741	0.8969	0.3016	-0.111
Mof_H 	H 	0.6385	0.7666	0.0906	0.03
Mof_C 	C 	0.6896	0.8309	0.0566	0.014
Mof_H 	H 	0.7832	0.8764	0.1609	0.039
Mof_C 	C 	0.7752	0.8923	0.0967	0.016
Mof_C 	C 	0.7661	0.9026	0.3458	0.042
Mof_C 	C 	0.823	0.934	0.2774	0.031
Mof_N 	N 	0.742	0.8773	0.0579	-0.16
Mof_H 	H 	0.6636	0.819	0.0297	0.015
Mof_H 	H 	0.8133	0.9249	0.0983	0.027
Mof_H 	H 	0.7302	0.8763	0.3621	0.035
Mof_C 	C 	0.8107	0.9471	0.3671	-0.115
Mof_H 	H 	0.8249	0.9303	0.2466	0.029
Mof_C 	C 	0.8714	0.9783	0.2979	-0.102
Mof_C 	C 	0.8006	0.9569	0.4152	0.333
Mof_C 	C 	0.8644	0.984	0.3417	0.031
Mof_H 	H 	0.9082	0.0037	0.2814	0.064
Mof_O 	O 	0.7451	0.9201	0.9367	-0.361
Mof_H 	H 	0.8969	0.0139	0.3555	0.028
_end
