data_functionalizedCrystal
_audit_creation_method	'EQeq! by Chris Wilmer'
_symmetry_space_group_name_H-M	'P1'
_symmetry_Int_Tables_number	1
_symmetry_cell_setting	triclinic
loop_
_symmetry_equiv_pos_as_xyz
  x,y,z
_cell_length_a	10.0149
_cell_length_b	10.1872
_cell_length_c	11.8347
_cell_angle_alpha	67.77
_cell_angle_beta	72.895
_cell_angle_gamma	64.328
loop_
_atom_site_label
_atom_site_type_symbol
_atom_site_fract_x
_atom_site_fract_y
_atom_site_fract_z
_atom_site_charge
Mof_Y 	Y 	0.95287	0.23054	0.80247	1.35
Mof_Y 	Y 	0.04713	0.76946	0.19753	1.35
Mof_H 	H 	0.4406	0.4941	0.7043	0.049
Mof_H 	H 	0.7461	0.4081	0.4111	0.051
Mof_H 	H 	0.321	0.8935	0.5472	0.056
Mof_H 	H 	0.4479	0.2101	0.5613	0.055
Mof_H 	H 	0.6249	0.8572	0.1691	0.041
Mof_H 	H 	0.6239	0.1077	0.8144	0.043
Mof_H 	H 	0.5594	0.5059	0.2957	0.049
Mof_H 	H 	0.2539	0.5919	0.5889	0.051
Mof_H 	H 	0.679	0.1065	0.4528	0.056
Mof_H 	H 	0.5521	0.7899	0.4387	0.055
Mof_H 	H 	0.3751	0.1428	0.8309	0.041
Mof_H 	H 	0.3761	0.8923	0.1856	0.043
Mof_C 	C 	0.614	0.4391	0.5709	-0.063
Mof_C 	C 	0.4652	0.496	0.6217	-0.026
Mof_C 	C 	0.6467	0.4449	0.4476	-0.024
Mof_C 	C 	0.7364	0.3723	0.6466	0.314
Mof_C 	C 	0.3584	0.0643	0.5649	-0.055
Mof_C 	C 	0.3928	0.9367	0.528	-0.028
Mof_C 	C 	0.4684	0.126	0.5365	-0.026
Mof_C 	C 	0.2117	0.1265	0.6412	0.304
Mof_C 	C 	0.6485	0.9804	0.9903	-0.121
Mof_C 	C 	0.5751	0.9148	0.1012	-0.003
Mof_C 	C 	0.5738	0.0646	0.8893	-0.006
Mof_C 	C 	0.8074	0.9648	0.9811	0.408
Mof_C 	C 	0.386	0.5609	0.4291	-0.063
Mof_C 	C 	0.5348	0.504	0.3783	-0.026
Mof_C 	C 	0.3533	0.5551	0.5524	-0.024
Mof_C 	C 	0.2636	0.6277	0.3534	0.314
Mof_C 	C 	0.6416	0.9357	0.4351	-0.055
Mof_C 	C 	0.6072	0.0633	0.472	-0.028
Mof_C 	C 	0.5316	0.874	0.4635	-0.026
Mof_C 	C 	0.7883	0.8735	0.3588	0.304
Mof_C 	C 	0.3515	0.0196	0.0097	-0.121
Mof_C 	C 	0.4249	0.0852	0.8988	-0.003
Mof_C 	C 	0.4262	0.9354	0.1107	-0.006
Mof_C 	C 	0.1926	0.0352	0.0189	0.408
Mof_O 	O 	0.7034	0.3862	0.7534	-0.388
Mof_O 	O 	0.8687	0.3034	0.6057	-0.35
Mof_O 	O 	0.1357	0.0426	0.7001	-0.333
Mof_O 	O 	0.1694	0.2583	0.6494	-0.359
Mof_O 	O 	0.8662	0.0379	0.8814	-0.437
Mof_O 	O 	0.8711	0.8822	0.0731	-0.452
Mof_O 	O 	0.2966	0.6138	0.2466	-0.388
Mof_O 	O 	0.1313	0.6966	0.3943	-0.35
Mof_O 	O 	0.8643	0.9574	0.2999	-0.333
Mof_O 	O 	0.8306	0.7417	0.3506	-0.359
Mof_O 	O 	0.1338	0.9621	0.1186	-0.437
Mof_O 	O 	0.1289	0.1178	0.9269	-0.452
_end
