data_functionalizedCrystal
_audit_creation_method	'EQeq! by Chris Wilmer'
_symmetry_space_group_name_H-M	'P1'
_symmetry_Int_Tables_number	1
_symmetry_cell_setting	triclinic
loop_
_symmetry_equiv_pos_as_xyz
  x,y,z
_cell_length_a	24.0448
_cell_length_b	5.2432
_cell_length_c	16.9833
_cell_angle_alpha	90
_cell_angle_beta	103.366
_cell_angle_gamma	90
loop_
_atom_site_label
_atom_site_type_symbol
_atom_site_fract_x
_atom_site_fract_y
_atom_site_fract_z
_atom_site_charge
Mof_Na	Na	0.04619	0.9689	0.0359	1.888
Mof_Na	Na	0.9188	0.0093	0.0915	2.128
Mof_Na	Na	0.45303	0.4263	0.9592	2.294
Mof_Na	Na	0.80617	0.4337	0.9661	2.597
Mof_Na	Na	0.5833	0.4669	0.9161	1.731
Mof_Na	Na	0.6943	0.9155	0.0344	2.48
Mof_Na	Na	0.837	0.1047	0.2339	2.707
Mof_Na	Na	0.6648	0.5342	0.7695	4.098
Mof_O 	O 	0.8817	0.1706	0.9625	-1.337
Mof_O 	O 	0.501	0.7315	0.9099	-1.21
Mof_O 	O 	0.8754	0.7501	0.9598	-1.205
Mof_O 	O 	0.6222	0.6391	0.0472	-1.284
Mof_O 	O 	0.8619	0.7592	0.1625	-1.103
Mof_O 	O 	0.9909	0.6916	0.1008	-1.109
Mof_O 	O 	0.7617	0.5753	0.0679	-1.155
Mof_H 	H 	0.792	0.6298	0.1149	0.117
Mof_H 	H 	0.7419	0.4278	0.0856	0.086
Mof_O 	O 	0.6392	0.219	0.8457	-1.267
Mof_O 	O 	0.6234	0.2184	0.0433	-1.17
Mof_O 	O 	0.0032	0.2744	0.0961	-1.122
Mof_O 	O 	0.8856	0.3495	0.1587	-1.11
Mof_O 	O 	0.7416	0.0726	0.9361	-1.068
Mof_H 	H 	0.7117	0.1176	0.8875	0.124
Mof_H 	H 	0.7636	0.9289	0.9206	0.03
Mof_O 	O 	0.5117	0.1493	0.9012	-1.05
Mof_O 	O 	0.7417	0.1281	0.1532	-0.983
Mof_O 	O 	0.5807	0.4522	0.6651	-0.754
Mof_O 	O 	0.761	0.6248	0.844	-1.134
Mof_O 	O 	0.9221	0.0041	0.3375	-0.6
Mof_O 	O 	0.6199	0.8011	0.8449	-1.298
Mof_O 	O 	0.7492	0.937	0.2721	-0.656
Mof_N 	N 	0.9471	0.592	0.3254	-0.27
Mof_H 	H 	0.9558	0.4446	0.3496	0.092
Mof_N 	N 	0.5573	0.039	0.6792	-0.232
Mof_H 	H 	0.5495	0.8897	0.6555	0.064
Mof_N 	N 	0.6529	0.181	0.2958	-0.243
Mof_H 	H 	0.6733	0.2908	0.3296	0.102
Mof_C 	C 	0.8713	0.962	0.9251	0.677
Mof_N 	N 	0.8522	0.762	0.7071	-0.251
Mof_H 	H 	0.8477	0.9127	0.6839	0.127
Mof_C 	C 	0.9985	0.476	0.1332	0.645
Mof_O 	O 	0.5902	0.858	0.2811	-0.349
Mof_C 	C 	0.6309	0.423	0.0805	0.683
Mof_C 	C 	0.5053	0.926	0.8715	0.592
Mof_C 	C 	0.5745	0.232	0.639	0.321
Mof_C 	C 	0.9527	0.627	0.2431	-0.084
Mof_H 	H 	0.9631	0.8091	0.237	-0.104
Mof_C 	C 	0.9284	0.786	0.3655	0.21
Mof_C 	C 	0.5821	0.173	0.556	-0.07
Mof_C 	C 	0.6486	0.428	0.1727	-0.45
Mof_H 	H 	0.6179	0.5118	0.1932	0.094
Mof_H 	H 	0.6833	0.5348	0.1889	0.051
Mof_C 	C 	0.5514	0.075	0.7623	-0.107
Mof_H 	H 	0.5408	0.2574	0.7687	-0.079
Mof_C 	C 	0.0009	0.46	0.2238	-0.396
Mof_H 	H 	0.0385	0.522	0.255	0.119
Mof_H 	H 	0.9962	0.2813	0.2394	0.061
Mof_C 	C 	0.6612	0.166	0.2152	0.08
Mof_H 	H 	0.6333	0.0391	0.1845	-0.092
Mof_C 	C 	0.5043	0.906	0.7808	-0.384
Mof_H 	H 	0.5105	0.7267	0.7667	0.042
Mof_H 	H 	0.4666	0.9614	0.7483	0.097
Mof_O 	O 	0.8711	0.348	0.6937	-0.269
Mof_C 	C 	0.6084	0.022	0.8222	0.697
Mof_C 	C 	0.9165	0.724	0.4446	-0.126
Mof_C 	C 	0.5598	0.967	0.5094	-0.038
Mof_H 	H 	0.5368	0.8486	0.53	0.031
Mof_C 	C 	0.8533	0.978	0.834	-0.627
Mof_H 	H 	0.8839	0.0678	0.815	0.168
Mof_H 	H 	0.8188	0.0877	0.8201	0.151
Mof_C 	C 	0.615	0.033	0.3219	0.264
Mof_C 	C 	0.8401	0.733	0.7861	0.13
Mof_H 	H 	0.8651	0.5952	0.8158	-0.117
Mof_C 	C 	0.7223	0.074	0.2141	0.279
Mof_C 	C 	0.6055	0.087	0.4047	-0.01
Mof_C 	C 	0.879	0.892	0.4715	-0.049
Mof_H 	H 	0.8639	0.0356	0.4394	-0.018
Mof_C 	C 	0.886	0.638	0.5895	-0.049
Mof_O 	O 	0.7412	0.693	0.7092	-0.47
Mof_C 	C 	0.8955	0.578	0.184	0.445
Mof_C 	C 	0.9381	0.519	0.4912	-0.005
Mof_H 	H 	0.9638	0.4066	0.4735	0.026
Mof_C 	C 	0.5699	0.927	0.4334	-0.097
Mof_H 	H 	0.552	0.7879	0.4012	0.067
Mof_C 	C 	0.6254	0.301	0.4495	-0.078
Mof_H 	H 	0.6468	0.4228	0.4273	0.036
Mof_C 	C 	0.6157	0.346	0.5236	0.019
Mof_H 	H 	0.6314	0.4926	0.5535	-0.027
Mof_C 	C 	0.9232	0.471	0.5628	-0.059
Mof_H 	H 	0.9382	0.3265	0.5942	0.061
Mof_C 	C 	0.8637	0.849	0.5445	-0.056
Mof_H 	H 	0.8386	0.962	0.563	0.024
Mof_C 	C 	0.8696	0.572	0.6688	0.219
Mof_C 	C 	0.7759	0.66	0.7815	0.516
Mof_O 	O 	0.7045	0.189	0.6987	-1.425
Mof_H 	H 	0.7171	0.2119	0.6571	0.589
Mof_C 	C 	0.6911	0.968	0.702	1.747
Mof_H 	H 	0.7011	0.9116	0.759	-0.856
Mof_H 	H 	0.6498	0.9498	0.6811	-0.72
Mof_O 	O 	0.7591	0.445	0.734	-0.405
Mof_H 	H 	0.7115	0.8635	0.6704	-0.492
Mof_Na	Na	0.95381	0.4689	0.9641	1.965
Mof_Na	Na	0.0812	0.5093	0.9085	1.926
Mof_Na	Na	0.54697	0.9263	0.0408	2.057
Mof_Na	Na	0.19383	0.9337	0.0339	2.499
Mof_Na	Na	0.4167	0.9669	0.0839	1.527
Mof_Na	Na	0.3057	0.4155	0.9656	2.653
Mof_Na	Na	0.163	0.6047	0.7661	2.603
Mof_Na	Na	0.3352	0.0342	0.2305	4.383
Mof_O 	O 	0.1183	0.6706	0.0375	-1.303
Mof_O 	O 	0.499	0.2315	0.0901	-1.146
Mof_O 	O 	0.1246	0.2501	0.0402	-1.127
Mof_O 	O 	0.3778	0.1391	0.9528	-1.284
Mof_O 	O 	0.1381	0.2592	0.8375	-1.058
Mof_O 	O 	0.0091	0.1916	0.8992	-1.05
Mof_O 	O 	0.2383	0.0753	0.9321	-1.112
Mof_H 	H 	0.208	0.1298	0.8851	0.124
Mof_H 	H 	0.2581	0.9278	0.9144	0.035
Mof_O 	O 	0.3608	0.719	0.1543	-1.285
Mof_O 	O 	0.3766	0.7184	0.9567	-1.244
Mof_O 	O 	0.9968	0.7744	0.9039	-1.123
Mof_O 	O 	0.1144	0.8495	0.8413	-1.115
Mof_O 	O 	0.2584	0.5726	0.0639	-1.121
Mof_H 	H 	0.2883	0.6176	0.1125	0.116
Mof_H 	H 	0.2364	0.4289	0.0794	0.08
Mof_O 	O 	0.4883	0.6493	0.0988	-1.062
Mof_O 	O 	0.2583	0.6281	0.8468	-0.991
Mof_O 	O 	0.4193	0.9522	0.3349	-0.807
Mof_O 	O 	0.239	0.1248	0.156	-1.134
Mof_O 	O 	0.0779	0.5041	0.6625	-0.634
Mof_O 	O 	0.3801	0.3011	0.1551	-1.244
Mof_O 	O 	0.2508	0.437	0.7279	-0.588
Mof_N 	N 	0.0529	0.092	0.6746	-0.259
Mof_H 	H 	0.0442	0.9446	0.6504	0.066
Mof_N 	N 	0.4427	0.539	0.3208	-0.279
Mof_H 	H 	0.4505	0.3897	0.3445	0.112
Mof_N 	N 	0.3471	0.681	0.7042	-0.255
Mof_H 	H 	0.3267	0.7908	0.6704	0.093
Mof_C 	C 	0.1287	0.462	0.0749	0.657
Mof_N 	N 	0.1478	0.262	0.2929	-0.235
Mof_H 	H 	0.1523	0.4127	0.3161	0.136
Mof_C 	C 	0.0015	0.976	0.8668	0.608
Mof_O 	O 	0.4098	0.358	0.7189	-0.298
Mof_C 	C 	0.3691	0.923	0.9195	0.712
Mof_C 	C 	0.4947	0.426	0.1285	0.629
Mof_C 	C 	0.4255	0.732	0.361	0.351
Mof_C 	C 	0.0473	0.127	0.7569	-0.029
Mof_H 	H 	0.0369	0.3091	0.763	-0.098
Mof_C 	C 	0.0716	0.286	0.6345	0.3
Mof_C 	C 	0.4179	0.673	0.444	-0.143
Mof_C 	C 	0.3514	0.928	0.8273	-0.694
Mof_H 	H 	0.3821	0.0118	0.8068	0.199
Mof_H 	H 	0.3167	0.0348	0.8111	0.158
Mof_C 	C 	0.4486	0.575	0.2377	-0.137
Mof_H 	H 	0.4592	0.7574	0.2313	-0.076
Mof_C 	C 	0.9991	0.96	0.7762	-0.498
Mof_H 	H 	0.9615	0.022	0.745	0.176
Mof_H 	H 	0.0038	0.7813	0.7606	0.086
Mof_C 	C 	0.3388	0.666	0.7848	0.162
Mof_H 	H 	0.3667	0.5391	0.8155	-0.146
Mof_C 	C 	0.4957	0.406	0.2192	-0.339
Mof_H 	H 	0.4895	0.2267	0.2333	0.05
Mof_H 	H 	0.5334	0.4614	0.2517	0.11
Mof_O 	O 	0.1289	0.848	0.3063	-0.295
Mof_C 	C 	0.3916	0.522	0.1778	0.638
Mof_C 	C 	0.0835	0.224	0.5554	-0.277
Mof_C 	C 	0.4402	0.467	0.4906	0.036
Mof_H 	H 	0.4632	0.3486	0.47	0.02
Mof_C 	C 	0.1467	0.478	0.166	-0.44
Mof_H 	H 	0.1161	0.5678	0.185	0.087
Mof_H 	H 	0.1812	0.5877	0.1799	0.068
Mof_C 	C 	0.385	0.533	0.6781	0.211
Mof_C 	C 	0.1599	0.233	0.2139	0.077
Mof_H 	H 	0.1349	0.0952	0.1842	-0.083
Mof_C 	C 	0.2777	0.574	0.7859	0.197
Mof_C 	C 	0.3945	0.587	0.5953	-0.026
Mof_C 	C 	0.121	0.392	0.5285	0.139
Mof_H 	H 	0.1361	0.5356	0.5606	-0.1
Mof_C 	C 	0.114	0.138	0.4105	0.094
Mof_O 	O 	0.2588	0.193	0.2908	-0.457
Mof_C 	C 	0.1045	0.078	0.816	0.485
Mof_C 	C 	0.0619	0.019	0.5088	0.249
Mof_H 	H 	0.0362	0.9066	0.5265	-0.081
Mof_C 	C 	0.4301	0.427	0.5666	-0.08
Mof_H 	H 	0.448	0.2879	0.5988	0.075
Mof_C 	C 	0.3746	0.801	0.5505	-0.102
Mof_H 	H 	0.3532	0.9228	0.5727	0.034
Mof_C 	C 	0.3843	0.846	0.4764	0.047
Mof_H 	H 	0.3686	0.9926	0.4465	-0.048
Mof_C 	C 	0.0768	0.971	0.4372	-0.298
Mof_H 	H 	0.0618	0.8265	0.4058	0.129
Mof_C 	C 	0.1363	0.349	0.4555	-0.199
Mof_H 	H 	0.1614	0.462	0.437	0.084
Mof_C 	C 	0.1304	0.072	0.3312	0.215
Mof_C 	C 	0.2241	0.16	0.2185	0.555
Mof_O 	O 	0.2955	0.689	0.3013	-1.609
Mof_H 	H 	0.2829	0.7119	0.3429	0.639
Mof_C 	C 	0.3089	0.468	0.298	2.076
Mof_H 	H 	0.2989	0.4116	0.241	-0.961
Mof_H 	H 	0.3502	0.4498	0.3189	-0.808
Mof_O 	O 	0.2409	0.945	0.266	-0.451
Mof_H 	H 	0.2885	0.3635	0.3296	-0.586
_end
