data_functionalizedCrystal
_audit_creation_method	'EQeq! by Chris Wilmer'
_symmetry_space_group_name_H-M	'P1'
_symmetry_Int_Tables_number	1
_symmetry_cell_setting	triclinic
loop_
_symmetry_equiv_pos_as_xyz
  x,y,z
_cell_length_a	7.7834
_cell_length_b	10.1301
_cell_length_c	10.3277
_cell_angle_alpha	103.873
_cell_angle_beta	91.797
_cell_angle_gamma	90.935
loop_
_atom_site_label
_atom_site_type_symbol
_atom_site_fract_x
_atom_site_fract_y
_atom_site_fract_z
_atom_site_charge
Mof_Br	Br	0.00374	0.21483	0.09376	-0.212
Mof_O 	O 	0.0107	0.4873	0.3542	-0.503
Mof_O 	O 	0.2692	0.5465	0.3064	-0.398
Mof_C 	C 	0.9971	0.3828	0.0436	0.122
Mof_C 	C 	0.0578	0.5006	0.1299	-0.111
Mof_C 	C 	0.1165	0.5108	0.2729	0.4
Mof_C 	C 	0.9396	0.3808	0.9147	-0.062
Mof_H 	H 	0.8992	0.2998	0.858	0.091
Mof_Br	Br	0.17285	0.98647	0.29075	-0.215
Mof_C 	C 	0.4371	0.1228	0.4776	-0.108
Mof_O 	O 	0.4844	0.347	0.4514	-0.499
Mof_C 	C 	0.4218	0.8779	0.4356	-0.068
Mof_H 	H 	0.3681	0.7961	0.3913	0.065
Mof_O 	O 	0.2189	0.2843	0.4819	-0.381
Mof_C 	C 	0.3744	0.2604	0.4672	0.391
Mof_C 	C 	0.361	0.9988	0.4149	0.143
Mof_Ca	Ca	0.25016	0.53263	0.54032	1.346
Mof_Br	Br	0.99626	0.78517	0.90624	-0.213
Mof_O 	O 	0.9893	0.5127	0.6458	-0.504
Mof_O 	O 	0.7308	0.4535	0.6936	-0.398
Mof_C 	C 	0.0029	0.6172	0.9564	0.122
Mof_C 	C 	0.9422	0.4994	0.8701	-0.111
Mof_C 	C 	0.8835	0.4892	0.7271	0.4
Mof_C 	C 	0.0604	0.6192	0.0853	-0.062
Mof_H 	H 	0.1008	0.7002	0.142	0.091
Mof_Br	Br	0.82715	0.01353	0.70925	-0.215
Mof_C 	C 	0.5629	0.8772	0.5224	-0.108
Mof_O 	O 	0.5156	0.653	0.5486	-0.499
Mof_C 	C 	0.5782	0.1221	0.5644	-0.068
Mof_H 	H 	0.6319	0.2039	0.6087	0.065
Mof_O 	O 	0.7811	0.7157	0.5181	-0.381
Mof_C 	C 	0.6256	0.7396	0.5328	0.391
Mof_C 	C 	0.639	0.0012	0.5851	0.143
Mof_Ca	Ca	0.74984	0.46737	0.45968	1.346
_end
