# CIF file generated by openbabel 3.1.0, see https://openbabel.org
data_I
_chemical_name_common 'ICOYIK_clean'
_cell_length_a 10.4588
_cell_length_b 14.995
_cell_length_c 16.699
_cell_angle_alpha 65.446
_cell_angle_beta 83.487
_cell_angle_gamma 73.305
_space_group_name_H-M_alt 'P 1'
_space_group_name_Hall 'P 1'
loop_
    _symmetry_equiv_pos_as_xyz
    x,y,z
loop_
    _atom_site_label
    _atom_site_type_symbol
    _atom_site_fract_x
    _atom_site_fract_y
    _atom_site_fract_z
    _atom_site_occupancy
    La1      La       0.20832    0.74396    0.29051    1.000
    La2      La       0.27910    0.49318    0.87103    1.000
    La3      La       0.79168    0.25604    0.70949    1.000
    La4      La       0.72090    0.50682    0.12897    1.000
    H1       H        0.52120    0.06030    0.68580    1.000
    H2       H        0.67610    0.03360    0.79500    1.000
    H3       H        0.80110    0.03690    0.66580    1.000
    H4       H        0.43450    0.75520    0.83710    1.000
    H5       H        0.63910    0.75930    0.62000    1.000
    H6       H        0.36620    0.01740    0.78550    1.000
    H7       H        0.30850    0.92420    0.84070    1.000
    H8       H        0.69020    0.86060    0.08210    1.000
    H9       H        0.38260    0.82370    0.98820    1.000
    H10      H        0.74660    0.06120    0.90200    1.000
    H11      H        0.80350    0.98180    0.99520    1.000
    H12      H        0.17370    0.80680    0.79680    1.000
    H13      H        0.96430    0.82110    0.00830    1.000
    H14      H        0.00900    0.04970    0.64640    1.000
    H15      H        0.14430    0.96540    0.66090    1.000
    H16      H        0.85550    0.81480    0.50660    1.000
    H17      H        0.16640    0.83530    0.60950    1.000
    H18      H        0.64000    0.92820    0.49900    1.000
    H19      H        0.62300    0.01990    0.52540    1.000
    H20      H        0.47880    0.93970    0.31420    1.000
    H21      H        0.32390    0.96640    0.20500    1.000
    H22      H        0.19890    0.96310    0.33420    1.000
    H23      H        0.56550    0.24480    0.16290    1.000
    H24      H        0.36090    0.24070    0.38000    1.000
    H25      H        0.63380    0.98260    0.21450    1.000
    H26      H        0.69150    0.07580    0.15930    1.000
    H27      H        0.30980    0.13940    0.91790    1.000
    H28      H        0.61740    0.17630    0.01180    1.000
    H29      H        0.25340    0.93880    0.09800    1.000
    H30      H        0.19650    0.01820    0.00480    1.000
    H31      H        0.82630    0.19320    0.20320    1.000
    H32      H        0.03570    0.17890    0.99170    1.000
    H33      H        0.99100    0.95030    0.35360    1.000
    H34      H        0.85570    0.03460    0.33910    1.000
    H35      H        0.14450    0.18520    0.49340    1.000
    H36      H        0.83360    0.16470    0.39050    1.000
    H37      H        0.36000    0.07180    0.50100    1.000
    H38      H        0.37700    0.98010    0.47460    1.000
    C1       C        0.53630    0.74350    0.73150    1.000
    C2       C        0.47070    0.79150    0.78410    1.000
    C3       C        0.45810    0.89310    0.75880    1.000
    C4       C        0.51320    0.94460    0.67860    1.000
    C5       C        0.58470    0.89560    0.62720    1.000
    C6       C        0.59380    0.79380    0.65430    1.000
    C7       C        0.39020    0.94440    0.81880    1.000
    C8       C        0.53490    0.83060    0.04690    1.000
    C9       C        0.63750    0.87550    0.03450    1.000
    C10      C        0.66220    0.94240    0.95210    1.000
    C11      C        0.58210    0.96270    0.88290    1.000
    C12      C        0.47640    0.91830    0.89520    1.000
    C13      C        0.45330    0.85300    0.97820    1.000
    C14      C        0.77630    0.98910    0.93870    1.000
    C15      C        0.08030    0.79810    0.91060    1.000
    C16      C        0.10330    0.84100    0.82150    1.000
    C17      C        0.02330    0.93400    0.76830    1.000
    C18      C        0.91640    0.98440    0.80570    1.000
    C19      C        0.89410    0.94090    0.89640    1.000
    C20      C        0.97750    0.84910    0.94780    1.000
    C21      C        0.04880    0.97690    0.67060    1.000
    C22      C        0.02350    0.81370    0.55500    1.000
    C23      C        0.88930    0.84400    0.53600    1.000
    C24      C        0.80520    0.91730    0.56040    1.000
    C25      C        0.85810    0.96050    0.60380    1.000
    C26      C        0.99370    0.93080    0.62210    1.000
    C27      C        0.07530    0.85650    0.59740    1.000
    C28      C        0.65720    0.94670    0.54520    1.000
    C29      C        0.46370    0.25650    0.26850    1.000
    C30      C        0.52930    0.20850    0.21590    1.000
    C31      C        0.54190    0.10690    0.24120    1.000
    C32      C        0.48680    0.05540    0.32140    1.000
    C33      C        0.41530    0.10440    0.37280    1.000
    C34      C        0.40620    0.20620    0.34570    1.000
    C35      C        0.60980    0.05560    0.18120    1.000
    C36      C        0.46510    0.16940    0.95310    1.000
    C37      C        0.36250    0.12450    0.96550    1.000
    C38      C        0.33780    0.05760    0.04790    1.000
    C39      C        0.41790    0.03730    0.11710    1.000
    C40      C        0.52360    0.08170    0.10480    1.000
    C41      C        0.54670    0.14700    0.02180    1.000
    C42      C        0.22370    0.01090    0.06130    1.000
    C43      C        0.91970    0.20190    0.08940    1.000
    C44      C        0.89670    0.15900    0.17850    1.000
    C45      C        0.97670    0.06600    0.23170    1.000
    C46      C        0.08360    0.01560    0.19430    1.000
    C47      C        0.10590    0.05910    0.10360    1.000
    C48      C        0.02250    0.15090    0.05220    1.000
    C49      C        0.95120    0.02310    0.32940    1.000
    C50      C        0.97650    0.18630    0.44500    1.000
    C51      C        0.11070    0.15600    0.46400    1.000
    C52      C        0.19480    0.08270    0.43960    1.000
    C53      C        0.14190    0.03950    0.39620    1.000
    C54      C        0.00630    0.06920    0.37790    1.000
    C55      C        0.92470    0.14350    0.40260    1.000
    C56      C        0.34280    0.05330    0.45480    1.000
    S1       S        0.55077    0.61298    0.76758    1.000
    S2       S        0.51065    0.74160    0.15116    1.000
    S3       S        0.17757    0.67925    0.97846    1.000
    S4       S        0.12564    0.71919    0.52412    1.000
    S5       S        0.44923    0.38702    0.23242    1.000
    S6       S        0.48935    0.25840    0.84884    1.000
    S7       S        0.82243    0.32075    0.02154    1.000
    S8       S        0.87436    0.28081    0.47588    1.000
    N1       N        0.94680    0.84490    0.19610    1.000
    N2       N        0.05320    0.15510    0.80390    1.000
    O1       O        0.62210    0.56370    0.85040    1.000
    O2       O        0.62420    0.58130    0.70320    1.000
    O3       O        0.41940    0.60120    0.77880    1.000
    O4       O        0.49450    0.04730    0.64860    1.000
    O5       O        0.59350    0.74310    0.21250    1.000
    O6       O        0.54370    0.64450    0.14430    1.000
    O7       O        0.36950    0.76980    0.17020    1.000
    O8       O        0.60050    0.02620    0.79970    1.000
    O9       O        0.08760    0.62500    0.03670    1.000
    O10      O        0.24540    0.63020    0.92100    1.000
    O11      O        0.27170    0.69220    0.02480    1.000
    O12      O        0.83180    0.07180    0.75460    1.000
    O13      O        0.24910    0.68220    0.57220    1.000
    O14      O        0.05660    0.64180    0.54550    1.000
    O15      O        0.14640    0.76520    0.43010    1.000
    O16      O        0.77050    0.03170    0.62540    1.000
    O17      O        0.83890    0.87970    0.16240    1.000
    O18      O        0.95650    0.81310    0.27890    1.000
    O19      O        0.05210    0.83730    0.15410    1.000
    O20      O        0.37790    0.43630    0.14960    1.000
    O21      O        0.37580    0.41870    0.29680    1.000
    O22      O        0.58060    0.39880    0.22120    1.000
    O23      O        0.50550    0.95270    0.35140    1.000
    O24      O        0.40650    0.25690    0.78750    1.000
    O25      O        0.45630    0.35550    0.85570    1.000
    O26      O        0.63050    0.23020    0.82980    1.000
    O27      O        0.39950    0.97380    0.20030    1.000
    O28      O        0.91240    0.37500    0.96330    1.000
    O29      O        0.75460    0.36980    0.07900    1.000
    O30      O        0.72830    0.30780    0.97520    1.000
    O31      O        0.16820    0.92820    0.24540    1.000
    O32      O        0.75090    0.31780    0.42780    1.000
    O33      O        0.94340    0.35820    0.45450    1.000
    O34      O        0.85360    0.23480    0.56990    1.000
    O35      O        0.22950    0.96830    0.37460    1.000
    O36      O        0.16110    0.12030    0.83760    1.000
    O37      O        0.04350    0.18690    0.72110    1.000
    O38      O        0.94790    0.16270    0.84590    1.000
