# CIF file generated by openbabel 3.1.0, see https://openbabel.org
data_I
_chemical_name_common 'DACXOV_clean'
_cell_length_a 10.7822
_cell_length_b 12.1806
_cell_length_c 12.3369
_cell_angle_alpha 94.2028
_cell_angle_beta 106.305
_cell_angle_gamma 100.919
_space_group_name_H-M_alt 'P 1'
_space_group_name_Hall 'P 1'
loop_
    _symmetry_equiv_pos_as_xyz
    x,y,z
loop_
    _atom_site_label
    _atom_site_type_symbol
    _atom_site_fract_x
    _atom_site_fract_y
    _atom_site_fract_z
    _atom_site_occupancy
    Tb1      Tb       0.91283    0.19031    0.00122    1.000
    Tb2      Tb       0.08717    0.80969    0.99878    1.000
    H1       H        0.70660    0.93260    0.97310    1.000
    H2       H        0.49130    0.83030    0.90090    1.000
    H3       H        0.32860    0.91320    0.80070    1.000
    H4       H        0.26710    0.08580    0.71350    1.000
    H5       H        0.32900    0.26800    0.68650    1.000
    H6       H        0.51060    0.44070    0.70870    1.000
    H7       H        0.72980    0.52730    0.78010    1.000
    H8       H        0.87830    0.43250    0.88520    1.000
    H9       H        0.74190    0.30200    0.31970    1.000
    H10      H        0.76240    0.39040    0.49390    1.000
    H11      H        0.10380    0.47080    0.33400    1.000
    H12      H        0.17700    0.45740    0.83210    1.000
    H13      H        0.35980    0.58980    0.83260    1.000
    H14      H        0.39750    0.32550    0.08710    1.000
    H15      H        0.96940    0.18280    0.71140    1.000
    H16      H        0.97320    0.20970    0.53030    1.000
    H17      H        0.01630    0.86630    0.66010    1.000
    H18      H        0.29340    0.06740    0.02690    1.000
    H19      H        0.50870    0.16970    0.09910    1.000
    H20      H        0.67140    0.08680    0.19930    1.000
    H21      H        0.73290    0.91420    0.28650    1.000
    H22      H        0.67100    0.73200    0.31350    1.000
    H23      H        0.48940    0.55930    0.29130    1.000
    H24      H        0.27020    0.47270    0.21990    1.000
    H25      H        0.12170    0.56750    0.11480    1.000
    H26      H        0.25810    0.69800    0.68030    1.000
    H27      H        0.23760    0.60960    0.50610    1.000
    H28      H        0.89620    0.52920    0.66600    1.000
    H29      H        0.82300    0.54260    0.16790    1.000
    H30      H        0.64020    0.41020    0.16740    1.000
    H31      H        0.60250    0.67450    0.91290    1.000
    H32      H        0.03060    0.81720    0.28860    1.000
    H33      H        0.02680    0.79030    0.46970    1.000
    H34      H        0.98370    0.13370    0.33990    1.000
    C1       C        0.64230    0.96750    0.93190    1.000
    C2       C        0.51210    0.90510    0.88860    1.000
    C3       C        0.41590    0.95370    0.82850    1.000
    C4       C        0.45010    0.06710    0.80870    1.000
    C5       C        0.35520    0.12380    0.74420    1.000
    C6       C        0.39240    0.23210    0.72730    1.000
    C7       C        0.52680    0.29210    0.77110    1.000
    C8       C        0.57070    0.40280    0.75110    1.000
    C9       C        0.70020    0.45420    0.79330    1.000
    C10      C        0.78940    0.39620    0.85700    1.000
    C11      C        0.62240    0.23970    0.83600    1.000
    C12      C        0.58240    0.12360    0.85540    1.000
    C13      C        0.90810    0.32070    0.19320    1.000
    C14      C        0.92220    0.37780    0.30910    1.000
    C15      C        0.81930    0.35450    0.35880    1.000
    C16      C        0.83150    0.40720    0.46240    1.000
    C17      C        0.03570    0.45520    0.36690    1.000
    C18      C        0.94840    0.48800    0.52440    1.000
    C19      C        0.14750    0.30390    0.96960    1.000
    C20      C        0.27110    0.38120    0.96360    1.000
    C21      C        0.25890    0.45920    0.88420    1.000
    C22      C        0.36830    0.53750    0.88400    1.000
    C23      C        0.39080    0.37950    0.03740    1.000
    C24      C        0.49400    0.53970    0.96110    1.000
    C25      C        0.98980    0.00430    0.82190    1.000
    C26      C        0.99310    0.02030    0.70260    1.000
    C27      C        0.97950    0.12470    0.66350    1.000
    C28      C        0.98090    0.14030    0.55510    1.000
    C29      C        0.00660    0.93440    0.63290    1.000
    C30      C        0.99390    0.05300    0.48100    1.000
    C31      C        0.35770    0.03250    0.06810    1.000
    C32      C        0.48790    0.09490    0.11140    1.000
    C33      C        0.58410    0.04630    0.17150    1.000
    C34      C        0.54990    0.93290    0.19130    1.000
    C35      C        0.64480    0.87620    0.25580    1.000
    C36      C        0.60760    0.76790    0.27270    1.000
    C37      C        0.47320    0.70790    0.22890    1.000
    C38      C        0.42930    0.59720    0.24890    1.000
    C39      C        0.29980    0.54580    0.20670    1.000
    C40      C        0.21060    0.60380    0.14300    1.000
    C41      C        0.37760    0.76030    0.16400    1.000
    C42      C        0.41760    0.87640    0.14460    1.000
    C43      C        0.09190    0.67930    0.80680    1.000
    C44      C        0.07780    0.62220    0.69090    1.000
    C45      C        0.18070    0.64550    0.64120    1.000
    C46      C        0.16850    0.59280    0.53760    1.000
    C47      C        0.96430    0.54480    0.63310    1.000
    C48      C        0.05160    0.51200    0.47560    1.000
    C49      C        0.85250    0.69610    0.03040    1.000
    C50      C        0.72890    0.61880    0.03640    1.000
    C51      C        0.74110    0.54080    0.11580    1.000
    C52      C        0.63170    0.46250    0.11600    1.000
    C53      C        0.60920    0.62050    0.96260    1.000
    C54      C        0.50600    0.46030    0.03890    1.000
    C55      C        0.01020    0.99570    0.17810    1.000
    C56      C        0.00690    0.97970    0.29740    1.000
    C57      C        0.02050    0.87530    0.33650    1.000
    C58      C        0.01910    0.85970    0.44490    1.000
    C59      C        0.99340    0.06560    0.36710    1.000
    C60      C        0.00610    0.94700    0.51900    1.000
    N1       N        0.67830    0.07430    0.91700    1.000
    N2       N        0.75300    0.29140    0.87920    1.000
    N3       N        0.32170    0.92570    0.08300    1.000
    N4       N        0.24700    0.70860    0.12080    1.000
    O1       O        0.80470    0.24920    0.13910    1.000
    O2       O        0.00310    0.34420    0.15130    1.000
    O3       O        0.03700    0.31610    0.91030    1.000
    O4       O        0.15580    0.22950    0.03700    1.000
    O5       O        0.92860    0.06320    0.86530    1.000
    O6       O        0.04920    0.93370    0.87080    1.000
    O7       O        0.19530    0.75080    0.86090    1.000
    O8       O        0.99690    0.65580    0.84870    1.000
    O9       O        0.96300    0.68390    0.08970    1.000
    O10      O        0.84420    0.77050    0.96300    1.000
    O11      O        0.07140    0.93680    0.13470    1.000
    O12      O        0.95080    0.06630    0.12920    1.000
