data_functionalizedCrystal
_audit_creation_method	'EQeq! by Chris Wilmer'
_symmetry_space_group_name_H-M	'P1'
_symmetry_Int_Tables_number	1
_symmetry_cell_setting	triclinic
loop_
_symmetry_equiv_pos_as_xyz
  x,y,z
_cell_length_a	11.297
_cell_length_b	18.495
_cell_length_c	24.215
_cell_angle_alpha	90
_cell_angle_beta	90
_cell_angle_gamma	90
loop_
_atom_site_label
_atom_site_type_symbol
_atom_site_fract_x
_atom_site_fract_y
_atom_site_fract_z
_atom_site_charge
Mof_Ni	Ni	0.53293	0.30103	0.52209	1.094
Mof_Ni	Ni	0.53293	0.69897	0.47791	1.094
Mof_Ni	Ni	0.46707	0.19897	0.02209	1.091
Mof_Ni	Ni	0.46707	0.80103	0.97791	1.097
Mof_Ni	Ni	0.53493	0.5	0.5	1.11
Mof_Ni	Ni	0.46507	0	-0	1.1
Mof_H 	H 	0.5748	0.479	0.645	0.027
Mof_H 	H 	0.3649	0.4086	0.682	0.195
Mof_H 	H 	0.4032	0.4887	0.6967	0.187
Mof_H 	H 	0.3633	0.4693	0.6358	0.189
Mof_H 	H 	0.913	0.3942	0.7543	0.036
Mof_H 	H 	0.8751	0.223	0.8554	0.047
Mof_H 	H 	0.6113	0.2771	0.7507	0.044
Mof_H 	H 	0.2444	0.4731	0.7766	0.171
Mof_H 	H 	0.1944	0.4831	0.8372	0.178
Mof_H 	H 	0.3313	0.4693	0.8279	0.175
Mof_H 	H 	0.2404	0.3612	0.8581	0.025
Mof_H 	H 	0.308	0.1957	0.8475	0.198
Mof_H 	H 	0.3302	0.1531	0.7917	0.195
Mof_H 	H 	0.2833	0.1115	0.8445	0.186
Mof_H 	H 	0.4873	0.0891	0.8325	0.015
Mof_H 	H 	0.1238	0.2433	0.4507	0.088
Mof_H 	H 	0.3272	0.2494	0.4524	0.009
Mof_H 	H 	0.3228	0.3412	0.598	0.003
Mof_H 	H 	0.1218	0.3412	0.5994	0.078
Mof_H 	H 	0.9404	0.2751	0.6057	0.077
Mof_H 	H 	0.7363	0.2781	0.6021	0.012
Mof_H 	H 	0.7439	0.3244	0.4446	-0.002
Mof_H 	H 	0.9467	0.318	0.4424	0.086
Mof_H 	H 	0.4941	0.1673	0.5899	0.001
Mof_H 	H 	0.5061	0.0429	0.5837	0.059
Mof_H 	H 	0.6055	0.065	0.4257	0.061
Mof_H 	H 	0.5932	0.1893	0.4361	0.015
Mof_H 	H 	0.7402	0.4848	0.5798	0.017
Mof_H 	H 	0.9429	0.486	0.5826	0.081
Mof_H 	H 	0.1244	0.5604	0.5691	0.077
Mof_H 	H 	0.3278	0.5598	0.5667	0.019
Mof_H 	H 	0.5461	0.3819	0.7266	0.151
Mof_H 	H 	0.0864	0.3753	0.7696	0.131
Mof_H 	H 	0.5092	0.233	0.8175	0.155
Mof_H 	H 	0.5748	0.521	0.355	0.027
Mof_H 	H 	0.3649	0.5914	0.318	0.195
Mof_H 	H 	0.4032	0.5113	0.3033	0.187
Mof_H 	H 	0.3633	0.5307	0.3642	0.189
Mof_H 	H 	0.913	0.6058	0.2457	0.035
Mof_H 	H 	0.8751	0.777	0.1446	0.048
Mof_H 	H 	0.6113	0.7229	0.2493	0.046
Mof_H 	H 	0.2444	0.5269	0.2234	0.17
Mof_H 	H 	0.1944	0.5169	0.1628	0.176
Mof_H 	H 	0.3313	0.5307	0.1721	0.173
Mof_H 	H 	0.2404	0.6388	0.1419	0.024
Mof_H 	H 	0.308	0.8043	0.1525	0.203
Mof_H 	H 	0.3302	0.8469	0.2083	0.204
Mof_H 	H 	0.2833	0.8885	0.1555	0.198
Mof_H 	H 	0.4873	0.9109	0.1675	0.024
Mof_H 	H 	0.1238	0.7567	0.5493	0.089
Mof_H 	H 	0.3272	0.7506	0.5476	0.009
Mof_H 	H 	0.3228	0.6588	0.402	0.003
Mof_H 	H 	0.1218	0.6588	0.4006	0.079
Mof_H 	H 	0.9404	0.7249	0.3943	0.079
Mof_H 	H 	0.7363	0.7219	0.3979	0.013
Mof_H 	H 	0.7439	0.6756	0.5554	-0.002
Mof_H 	H 	0.9467	0.682	0.5576	0.086
Mof_H 	H 	0.4941	0.8327	0.4101	-0.004
Mof_H 	H 	0.5061	0.9571	0.4163	0.085
Mof_H 	H 	0.6055	0.935	0.5743	0.081
Mof_H 	H 	0.5932	0.8107	0.5639	0.008
Mof_H 	H 	0.7402	0.5152	0.4202	0.017
Mof_H 	H 	0.9429	0.514	0.4174	0.081
Mof_H 	H 	0.1244	0.4396	0.4309	0.077
Mof_H 	H 	0.3278	0.4402	0.4333	0.02
Mof_H 	H 	0.5461	0.6181	0.2734	0.151
Mof_H 	H 	0.0864	0.6247	0.2304	0.132
Mof_H 	H 	0.5092	0.767	0.1825	0.155
Mof_H 	H 	0.4252	0.021	0.145	0.023
Mof_H 	H 	0.6351	0.0914	0.182	0.191
Mof_H 	H 	0.5968	0.0113	0.1967	0.179
Mof_H 	H 	0.6367	0.0307	0.1358	0.181
Mof_H 	H 	0.087	0.1058	0.2543	0.034
Mof_H 	H 	0.1249	0.277	0.3554	0.047
Mof_H 	H 	0.3887	0.2229	0.2507	0.045
Mof_H 	H 	0.7556	0.0269	0.2766	0.164
Mof_H 	H 	0.8056	0.0169	0.3372	0.169
Mof_H 	H 	0.6687	0.0307	0.3279	0.167
Mof_H 	H 	0.7596	0.1388	0.3581	0.026
Mof_H 	H 	0.692	0.3043	0.3475	0.2
Mof_H 	H 	0.6698	0.3469	0.2917	0.199
Mof_H 	H 	0.7167	0.3885	0.3445	0.191
Mof_H 	H 	0.5127	0.4109	0.3325	0.02
Mof_H 	H 	0.8762	0.2567	0.9507	0.086
Mof_H 	H 	0.6728	0.2506	0.9524	0.008
Mof_H 	H 	0.6772	0.1588	0.098	0.003
Mof_H 	H 	0.8782	0.1588	0.0994	0.076
Mof_H 	H 	0.0596	0.2249	0.1057	0.076
Mof_H 	H 	0.2637	0.2219	0.1021	0.013
Mof_H 	H 	0.2561	0.1756	0.9446	-0.004
Mof_H 	H 	0.0533	0.182	0.9424	0.082
Mof_H 	H 	0.5059	0.3327	0.0899	0.003
Mof_H 	H 	0.4939	0.4571	0.0837	0.063
Mof_H 	H 	0.3945	0.435	0.9257	0.061
Mof_H 	H 	0.4068	0.3107	0.9361	0.013
Mof_H 	H 	0.2598	0.0152	0.0798	0.016
Mof_H 	H 	0.0571	0.014	0.0826	0.075
Mof_H 	H 	0.8756	0.9396	0.0691	0.074
Mof_H 	H 	0.6722	0.9402	0.0667	0.02
Mof_H 	H 	0.4539	0.1181	0.2266	0.15
Mof_H 	H 	0.9136	0.1247	0.2696	0.13
Mof_H 	H 	0.4908	0.267	0.3175	0.155
Mof_H 	H 	0.4252	0.979	0.855	0.03
Mof_H 	H 	0.6351	0.9086	0.818	0.199
Mof_H 	H 	0.5968	0.9887	0.8033	0.195
Mof_H 	H 	0.6367	0.9693	0.8642	0.198
Mof_H 	H 	0.087	0.8942	0.7457	0.037
Mof_H 	H 	0.1249	0.723	0.6446	0.048
Mof_H 	H 	0.3887	0.7771	0.7493	0.045
Mof_H 	H 	0.7556	0.9731	0.7234	0.177
Mof_H 	H 	0.8056	0.9831	0.6628	0.185
Mof_H 	H 	0.6687	0.9693	0.6721	0.181
Mof_H 	H 	0.7596	0.8612	0.6419	0.024
Mof_H 	H 	0.692	0.6957	0.6525	0.2
Mof_H 	H 	0.6698	0.6531	0.7083	0.199
Mof_H 	H 	0.7167	0.6115	0.6555	0.192
Mof_H 	H 	0.5127	0.5891	0.6675	0.02
Mof_H 	H 	0.8762	0.7433	0.0493	0.091
Mof_H 	H 	0.6728	0.7494	0.0476	0.009
Mof_H 	H 	0.6772	0.8412	0.902	0.002
Mof_H 	H 	0.8782	0.8412	0.9006	0.081
Mof_H 	H 	0.0596	0.7751	0.8943	0.079
Mof_H 	H 	0.2637	0.7781	0.8979	0.011
Mof_H 	H 	0.2561	0.8244	0.0554	-0
Mof_H 	H 	0.0533	0.818	0.0576	0.09
Mof_H 	H 	0.5059	0.6673	0.9101	-0.006
Mof_H 	H 	0.4939	0.5429	0.9163	0.081
Mof_H 	H 	0.3945	0.565	0.0743	0.082
Mof_H 	H 	0.4068	0.6893	0.0639	0.009
Mof_H 	H 	0.2598	0.9848	0.9202	0.015
Mof_H 	H 	0.0571	0.986	0.9174	0.077
Mof_H 	H 	0.8756	0.0604	0.9309	0.07
Mof_H 	H 	0.6722	0.0598	0.9333	0.018
Mof_H 	H 	0.4539	0.8819	0.7734	0.151
Mof_H 	H 	0.9136	0.8753	0.7304	0.133
Mof_H 	H 	0.4908	0.733	0.6825	0.155
Mof_C 	C 	0.53561	0.38441	0.60271	0.287
Mof_C 	C 	0.53211	0.43358	0.6535	0.085
Mof_C 	C 	0.40427	0.4517	0.66835	-0.521
Mof_C 	C 	0.70855	0.39146	0.70176	0.221
Mof_C 	C 	0.75356	0.34331	0.7467	-0.058
Mof_C 	C 	0.86749	0.35544	0.76767	-0.005
Mof_C 	C 	0.91311	0.31028	0.80817	-0.063
Mof_C 	C 	0.8442	0.25381	0.82815	-0.001
Mof_C 	C 	0.72977	0.2422	0.80835	-0.063
Mof_C 	C 	0.68628	0.2863	0.76601	-0.007
Mof_C 	C 	0.0355	0.32129	0.83205	0.228
Mof_C 	C 	0.2523	0.45791	0.81476	-0.494
Mof_C 	C 	0.23142	0.37572	0.81894	0.085
Mof_C 	C 	0.3226	0.33405	0.78446	0.232
Mof_C 	C 	0.65686	0.18321	0.83177	0.225
Mof_C 	C 	0.33412	0.15024	0.83164	-0.527
Mof_C 	C 	0.46138	0.1352	0.84931	0.085
Mof_C 	C 	0.46631	0.1278	0.9123	0.321
Mof_C 	C 	0.16275	0.26478	0.48084	-0.132
Mof_C 	C 	0.28483	0.26816	0.48258	0.077
Mof_C 	C 	0.2822	0.32216	0.56739	0.079
Mof_C 	C 	0.16199	0.3221	0.56871	-0.132
Mof_C 	C 	0.09862	0.29366	0.52449	0.06
Mof_C 	C 	0.96762	0.29543	0.5241	0.055
Mof_C 	C 	0.90191	0.28436	0.57201	-0.122
Mof_C 	C 	0.77953	0.28705	0.56965	0.074
Mof_C 	C 	0.78438	0.31344	0.47748	0.081
Mof_C 	C 	0.90599	0.31026	0.47575	-0.125
Mof_C 	C 	0.5167	0.14646	0.55612	0.061
Mof_C 	C 	0.523	0.07168	0.55268	-0.11
Mof_C 	C 	0.55403	0.04034	0.50351	0.02
Mof_C 	C 	0.5818	0.08491	0.45972	-0.104
Mof_C 	C 	0.5744	0.15943	0.46622	0.06
Mof_C 	C 	0.78198	0.49133	0.54665	0.073
Mof_C 	C 	0.90348	0.49152	0.5487	-0.124
Mof_C 	C 	0.16374	0.5357	0.54063	-0.113
Mof_C 	C 	0.28614	0.53478	0.53906	0.056
Mof_C 	C 	0.53561	0.61559	0.39729	0.286
Mof_C 	C 	0.53211	0.56642	0.3465	0.085
Mof_C 	C 	0.40427	0.5483	0.33165	-0.522
Mof_C 	C 	0.70855	0.60854	0.29824	0.221
Mof_C 	C 	0.75356	0.65669	0.2533	-0.057
Mof_C 	C 	0.86749	0.64456	0.23233	-0.005
Mof_C 	C 	0.91311	0.68972	0.19183	-0.063
Mof_C 	C 	0.8442	0.74619	0.17185	-0.001
Mof_C 	C 	0.72977	0.7578	0.19165	-0.061
Mof_C 	C 	0.68628	0.7137	0.23399	-0.007
Mof_C 	C 	0.0355	0.67871	0.16795	0.229
Mof_C 	C 	0.2523	0.54209	0.18524	-0.492
Mof_C 	C 	0.23142	0.62428	0.18106	0.085
Mof_C 	C 	0.3226	0.66595	0.21554	0.232
Mof_C 	C 	0.65686	0.81679	0.16823	0.225
Mof_C 	C 	0.33412	0.84976	0.16836	-0.539
Mof_C 	C 	0.46138	0.8648	0.15069	0.089
Mof_C 	C 	0.46631	0.8722	0.0877	0.32
Mof_C 	C 	0.16275	0.73522	0.51916	-0.132
Mof_C 	C 	0.28483	0.73184	0.51742	0.078
Mof_C 	C 	0.2822	0.67784	0.43261	0.08
Mof_C 	C 	0.16199	0.6779	0.43129	-0.132
Mof_C 	C 	0.09862	0.70634	0.47551	0.061
Mof_C 	C 	0.96762	0.70457	0.4759	0.056
Mof_C 	C 	0.90191	0.71564	0.42799	-0.121
Mof_C 	C 	0.77953	0.71295	0.43035	0.075
Mof_C 	C 	0.78438	0.68656	0.52252	0.082
Mof_C 	C 	0.90599	0.68974	0.52425	-0.125
Mof_C 	C 	0.5167	0.85354	0.44388	0.084
Mof_C 	C 	0.523	0.92832	0.44732	-0.146
Mof_C 	C 	0.55403	0.95966	0.49649	0.089
Mof_C 	C 	0.5818	0.91509	0.54028	-0.139
Mof_C 	C 	0.5744	0.84057	0.53378	0.082
Mof_C 	C 	0.78198	0.50867	0.45335	0.073
Mof_C 	C 	0.90348	0.50848	0.4513	-0.124
Mof_C 	C 	0.16374	0.4643	0.45937	-0.113
Mof_C 	C 	0.28614	0.46522	0.46094	0.056
Mof_C 	C 	0.46439	0.11559	0.10271	0.287
Mof_C 	C 	0.46789	0.06642	0.1535	0.081
Mof_C 	C 	0.59573	0.0483	0.16835	-0.511
Mof_C 	C 	0.29145	0.10854	0.20176	0.221
Mof_C 	C 	0.24644	0.15669	0.2467	-0.059
Mof_C 	C 	0.13251	0.14456	0.26767	-0.005
Mof_C 	C 	0.08689	0.18972	0.30817	-0.064
Mof_C 	C 	0.1558	0.24619	0.32815	-0.001
Mof_C 	C 	0.27023	0.2578	0.30835	-0.063
Mof_C 	C 	0.31372	0.2137	0.26601	-0.007
Mof_C 	C 	0.9645	0.17871	0.33205	0.228
Mof_C 	C 	0.7477	0.04209	0.31476	-0.48
Mof_C 	C 	0.76858	0.12428	0.31894	0.08
Mof_C 	C 	0.6774	0.16595	0.28446	0.234
Mof_C 	C 	0.34314	0.31679	0.33177	0.225
Mof_C 	C 	0.66588	0.34976	0.33164	-0.531
Mof_C 	C 	0.53862	0.3648	0.34931	0.086
Mof_C 	C 	0.53369	0.3722	0.4123	0.322
Mof_C 	C 	0.83725	0.23522	0.98084	-0.118
Mof_C 	C 	0.71517	0.23184	0.98258	0.086
Mof_C 	C 	0.7178	0.17784	0.06739	0.074
Mof_C 	C 	0.83801	0.1779	0.06871	-0.129
Mof_C 	C 	0.90138	0.20634	0.02449	0.049
Mof_C 	C 	0.03238	0.20457	0.0241	0.045
Mof_C 	C 	0.09809	0.21564	0.07201	-0.119
Mof_C 	C 	0.22047	0.21295	0.06965	0.071
Mof_C 	C 	0.21562	0.18656	0.97748	0.09
Mof_C 	C 	0.09401	0.18974	0.97575	-0.111
Mof_C 	C 	0.4833	0.35354	0.05612	0.059
Mof_C 	C 	0.477	0.42832	0.05268	-0.106
Mof_C 	C 	0.44597	0.45966	0.00351	0.011
Mof_C 	C 	0.4182	0.41509	0.95972	-0.09
Mof_C 	C 	0.4256	0.34057	0.96622	0.069
Mof_C 	C 	0.21802	0.00867	0.04665	0.062
Mof_C 	C 	0.09652	0.00848	0.0487	-0.119
Mof_C 	C 	0.83626	0.9643	0.04063	-0.088
Mof_C 	C 	0.71386	0.96522	0.03906	0.065
Mof_C 	C 	0.46439	0.88441	0.89729	0.284
Mof_C 	C 	0.46789	0.93358	0.8465	0.09
Mof_C 	C 	0.59573	0.9517	0.83165	-0.533
Mof_C 	C 	0.29145	0.89146	0.79824	0.222
Mof_C 	C 	0.24644	0.84331	0.7533	-0.057
Mof_C 	C 	0.13251	0.85544	0.73233	-0.004
Mof_C 	C 	0.08689	0.81028	0.69183	-0.062
Mof_C 	C 	0.1558	0.75381	0.67185	-0.001
Mof_C 	C 	0.27023	0.7422	0.69165	-0.062
Mof_C 	C 	0.31372	0.7863	0.73399	-0.007
Mof_C 	C 	0.9645	0.82129	0.66795	0.229
Mof_C 	C 	0.7477	0.95791	0.68524	-0.506
Mof_C 	C 	0.76858	0.87572	0.68106	0.09
Mof_C 	C 	0.6774	0.83405	0.71554	0.23
Mof_C 	C 	0.34314	0.68321	0.66823	0.225
Mof_C 	C 	0.66588	0.65024	0.66836	-0.532
Mof_C 	C 	0.53862	0.6352	0.65069	0.086
Mof_C 	C 	0.53369	0.6278	0.5877	0.322
Mof_C 	C 	0.83725	0.76478	0.01916	-0.143
Mof_C 	C 	0.71517	0.76816	0.01742	0.072
Mof_C 	C 	0.7178	0.82216	0.93261	0.084
Mof_C 	C 	0.83801	0.8221	0.93129	-0.135
Mof_C 	C 	0.90138	0.79366	0.97551	0.072
Mof_C 	C 	0.03238	0.79543	0.9759	0.066
Mof_C 	C 	0.09809	0.78436	0.92799	-0.124
Mof_C 	C 	0.22047	0.78705	0.93035	0.078
Mof_C 	C 	0.21562	0.81344	0.02252	0.076
Mof_C 	C 	0.09401	0.81026	0.02425	-0.135
Mof_C 	C 	0.4833	0.64646	0.94388	0.087
Mof_C 	C 	0.477	0.57168	0.94732	-0.151
Mof_C 	C 	0.44597	0.54034	0.99649	0.098
Mof_C 	C 	0.4182	0.58491	0.04028	-0.154
Mof_C 	C 	0.4256	0.65943	0.03378	0.075
Mof_C 	C 	0.21802	0.99133	0.95335	0.092
Mof_C 	C 	0.09652	0.99152	0.9513	-0.094
Mof_C 	C 	0.83626	0.0357	0.95937	-0.095
Mof_C 	C 	0.71386	0.03478	0.96094	0.057
Mof_C 	C 	0.968	0.5	0.5	0.055
Mof_C 	C 	0.0984	0.5	0.5	0.044
Mof_C 	C 	0.032	0	-0	0.029
Mof_C 	C 	0.9016	0	-0	0.013
Mof_N 	N 	0.58904	0.39865	0.69966	-0.229
Mof_N 	N 	0.11039	0.35932	0.80152	-0.231
Mof_N 	N 	0.53885	0.19279	0.83005	-0.234
Mof_N 	N 	0.34712	0.29654	0.52472	-0.227
Mof_N 	N 	0.71991	0.30184	0.52315	-0.226
Mof_N 	N 	0.54131	0.19019	0.51393	-0.23
Mof_N 	N 	0.58904	0.60135	0.30034	-0.229
Mof_N 	N 	0.11039	0.64068	0.19848	-0.231
Mof_N 	N 	0.53885	0.80721	0.16995	-0.233
Mof_N 	N 	0.34712	0.70346	0.47528	-0.227
Mof_N 	N 	0.71991	0.69816	0.47685	-0.226
Mof_N 	N 	0.54131	0.80981	0.48607	-0.238
Mof_N 	N 	0.41096	0.10135	0.19966	-0.229
Mof_N 	N 	0.88961	0.14068	0.30152	-0.23
Mof_N 	N 	0.46115	0.30721	0.33005	-0.233
Mof_N 	N 	0.65288	0.20346	0.02472	-0.233
Mof_N 	N 	0.28009	0.19816	0.02315	-0.232
Mof_N 	N 	0.45869	0.30981	0.01393	-0.236
Mof_N 	N 	0.41096	0.89865	0.80034	-0.23
Mof_N 	N 	0.88961	0.85932	0.69848	-0.231
Mof_N 	N 	0.46115	0.69279	0.66995	-0.233
Mof_N 	N 	0.65288	0.79654	0.97528	-0.222
Mof_N 	N 	0.28009	0.80184	0.97685	-0.221
Mof_N 	N 	0.45869	0.69019	0.98607	-0.233
Mof_N 	N 	0.71965	0.5	0.5	-0.223
Mof_N 	N 	0.3485	0.5	0.5	-0.219
Mof_N 	N 	0.28035	0	-0	-0.239
Mof_N 	N 	0.6515	0	-0	-0.236
Mof_O 	O 	0.53084	0.40971	0.55402	-0.488
Mof_O 	O 	0.53762	0.31694	0.609	-0.367
Mof_O 	O 	0.77452	0.42033	0.66741	-0.238
Mof_O 	O 	0.28785	0.29803	0.7442	-0.239
Mof_O 	O 	0.42936	0.34009	0.79877	-0.251
Mof_O 	O 	0.06073	0.29475	0.87695	-0.241
Mof_O 	O 	0.47452	0.18482	0.94024	-0.414
Mof_O 	O 	0.458	0.06421	0.93116	-0.418
Mof_O 	O 	0.70274	0.12835	0.85204	-0.249
Mof_O 	O 	0.53084	0.59029	0.44598	-0.488
Mof_O 	O 	0.53762	0.68306	0.391	-0.366
Mof_O 	O 	0.77452	0.57967	0.33259	-0.238
Mof_O 	O 	0.28785	0.70197	0.2558	-0.237
Mof_O 	O 	0.42936	0.65991	0.20123	-0.251
Mof_O 	O 	0.06073	0.70525	0.12305	-0.243
Mof_O 	O 	0.47452	0.81518	0.05976	-0.421
Mof_O 	O 	0.458	0.93579	0.06884	-0.408
Mof_O 	O 	0.70274	0.87165	0.14796	-0.241
Mof_O 	O 	0.46916	0.09029	0.05402	-0.492
Mof_O 	O 	0.46238	0.18306	0.109	-0.367
Mof_O 	O 	0.22548	0.07967	0.16741	-0.241
Mof_O 	O 	0.71215	0.20197	0.2442	-0.239
Mof_O 	O 	0.57064	0.15991	0.29877	-0.252
Mof_O 	O 	0.93927	0.20525	0.37695	-0.243
Mof_O 	O 	0.52548	0.31518	0.44024	-0.418
Mof_O 	O 	0.542	0.43579	0.43116	-0.418
Mof_O 	O 	0.29726	0.37165	0.35204	-0.245
Mof_O 	O 	0.46916	0.90971	0.94598	-0.478
Mof_O 	O 	0.46238	0.81694	0.891	-0.365
Mof_O 	O 	0.22548	0.92033	0.83259	-0.235
Mof_O 	O 	0.71215	0.79803	0.7558	-0.237
Mof_O 	O 	0.57064	0.84009	0.70123	-0.25
Mof_O 	O 	0.93927	0.79475	0.62305	-0.242
Mof_O 	O 	0.52548	0.68482	0.55976	-0.418
Mof_O 	O 	0.542	0.56421	0.56884	-0.418
Mof_O 	O 	0.29726	0.62835	0.64796	-0.245
_end
