data_functionalizedCrystal
_audit_creation_method	'EQeq! by Chris Wilmer'
_symmetry_space_group_name_H-M	'P1'
_symmetry_Int_Tables_number	1
_symmetry_cell_setting	triclinic
loop_
_symmetry_equiv_pos_as_xyz
  x,y,z
_cell_length_a	14.6595
_cell_length_b	14.5575
_cell_length_c	28.114
_cell_angle_alpha	90
_cell_angle_beta	90
_cell_angle_gamma	90
loop_
_atom_site_label
_atom_site_type_symbol
_atom_site_fract_x
_atom_site_fract_y
_atom_site_fract_z
_atom_site_charge
Mof_Zn	Zn	0.53194	0.02257	0.03437	1.231
Mof_Zn	Zn	0.48421	0.38625	0.0852	1.238
Mof_Zn	Zn	0.45438	0.51868	0.89354	1.241
Mof_Zn	Zn	0.59111	0.14623	0.83562	1.249
Mof_Zn	Zn	0.40005	0.00855	0.15009	1.24
Mof_Zn	Zn	0.49597	0.88809	0.84443	1.256
Mof_Zn	Zn	0.38527	0.64972	0.09104	1.247
Mof_Zn	Zn	0.41299	0.49594	0.27892	1.242
Mof_P 	P 	0.4687	0.84777	0.08804	0.55
Mof_P 	P 	0.43591	0.50717	0.17335	0.579
Mof_P 	P 	0.50738	0.34111	0.83935	0.554
Mof_P 	P 	0.44476	0.52128	0.00386	0.505
Mof_P 	P 	0.55263	0.00755	0.75653	0.519
Mof_P 	P 	0.5287	0.02242	0.92619	0.533
Mof_P 	P 	0.5397	0.67975	0.83673	0.558
Mof_P 	P 	0.43479	0.18209	0.08813	0.554
Mof_P 	P 	0.28351	0.47281	0.82866	0.552
Mof_P 	P 	0.7229	0.98027	0.08246	0.527
Mof_P 	P 	0.6918	0.44737	0.10321	0.551
Mof_P 	P 	0.78596	0.0457	0.8432	0.357
Mof_P 	P 	0.29242	0.9395	0.82563	0.221
Mof_O 	O 	0.6373	0.0363	0.07555	-0.422
Mof_O 	O 	0.4765	0.9039	0.13382	-0.434
Mof_O 	O 	0.3688	0.5032	0.21461	-0.399
Mof_O 	O 	0.591	0.2799	0.83958	-0.398
Mof_O 	O 	0.5841	0.0328	0.97155	-0.367
Mof_O 	O 	0.4646	0.9089	0.04433	-0.437
Mof_O 	O 	0.54	0.1059	0.77539	-0.399
Mof_O 	O 	0.5028	0.406	0.79617	-0.455
Mof_O 	O 	0.3884	0.782	0.08846	-0.405
Mof_O 	O 	0.3416	0.5388	0.85698	-0.405
Mof_O 	O 	0.6226	0.0018	0.71775	-0.396
Mof_O 	O 	0.4979	0.3946	0.88502	-0.433
Mof_O 	O 	0.3987	0.5238	0.95618	-0.357
Mof_O 	O 	0.4392	0.1309	0.13476	-0.447
Mof_O 	O 	0.5544	0.9313	0.90205	-0.395
Mof_O 	O 	0.4363	0.5973	0.1478	-0.452
Mof_O 	O 	0.4165	0.4351	0.0307	-0.43
Mof_O 	O 	0.5303	0.6223	0.88137	-0.443
Mof_O 	O 	0.4738	0.76	0.83547	-0.402
Mof_O 	O 	0.3398	0.234	0.08472	-0.409
Mof_H 	H 	0.3	0.189	0.086	0.269
Mof_O 	O 	0.5562	0.7864	0.08536	-0.401
Mof_H 	H 	0.607	0.821	0.089	0.261
Mof_O 	O 	0.5057	0.2569	0.08486	-0.43
Mof_O 	O 	0.4258	0.0161	0.94297	-0.186
Mof_O 	O 	0.2805	0.3782	0.85199	-0.291
Mof_O 	O 	0.4584	0.9795	0.73419	-0.212
Mof_O 	O 	0.7533	0.3682	0.0916	-0.425
Mof_O 	O 	0.4237	0.274	0.83359	-0.4
Mof_H 	H 	0.371	0.3	0.842	0.268
Mof_O 	O 	0.5767	0.9427	0.79703	-0.412
Mof_O 	O 	0.7383	0.5397	0.0869	-0.357
Mof_H 	H 	0.795	0.538	0.097	0.203
Mof_O 	O 	0.5496	0.5145	0.99278	-0.329
Mof_H 	H 	0.588	0.492	0.0147	0.2
Mof_O 	O 	0.7816	0.0202	0.12103	-0.402
Mof_O 	O 	0.7045	0.8791	0.0919	-0.296
Mof_O 	O 	0.5289	0.6226	0.79144	-0.428
Mof_O 	O 	0.417	0.4277	0.14002	-0.453
Mof_O 	O 	0.5378	0.1022	0.89351	-0.426
Mof_O 	O 	0.5312	0.4959	0.19779	-0.45
Mof_H 	H 	0.583	0.484	0.182	0.289
Mof_O 	O 	0.604	0.4438	0.07446	-0.439
Mof_O 	O 	0.4401	0.1157	0.04644	-0.443
Mof_O 	O 	0.7775	0.9848	0.03342	-0.21
Mof_O 	O 	0.674	0.4546	0.15607	-0.271
Mof_O 	O 	0.3297	0.4607	0.77743	-0.371
Mof_H 	H 	0.3894	0.455	0.78	0.235
Mof_O 	O 	0.6371	0.7251	0.83794	-0.397
Mof_H 	H 	0.686	0.689	0.844	0.263
Mof_O 	O 	0.1908	0.5129	0.81995	-0.422
Mof_O 	O 	0.4292	0.6079	0.03154	-0.446
Mof_O 	O 	0.7505	0.9544	0.8308	-0.181
Mof_O 	O 	0.7213	0.1245	0.8343	-0.41
Mof_O 	O 	0.8745	0.0626	0.8595	-0.25
Mof_O 	O 	0.3812	0.9438	0.8224	-0.256
Mof_O 	O 	0.8212	0.0717	0.7761	-0.112
Mof_O 	O 	0.2942	0.9575	0.8985	-0.107
Mof_Zn	Zn	0.46806	0.97743	0.53437	1.241
Mof_Zn	Zn	0.51579	0.61375	0.5852	1.24
Mof_Zn	Zn	0.54562	0.48132	0.39354	1.242
Mof_Zn	Zn	0.40889	0.85377	0.33562	1.249
Mof_Zn	Zn	0.59995	0.99145	0.65009	1.24
Mof_Zn	Zn	0.50403	0.11191	0.34443	1.255
Mof_Zn	Zn	0.61473	0.35028	0.59104	1.248
Mof_Zn	Zn	0.58701	0.50406	0.77892	1.242
Mof_P 	P 	0.5313	0.15223	0.58804	0.549
Mof_P 	P 	0.56409	0.49283	0.67335	0.578
Mof_P 	P 	0.49262	0.65889	0.33935	0.553
Mof_P 	P 	0.55524	0.47872	0.50386	0.58
Mof_P 	P 	0.44737	0.99245	0.25653	0.519
Mof_P 	P 	0.4713	0.97758	0.42619	0.534
Mof_P 	P 	0.4603	0.32025	0.33673	0.558
Mof_P 	P 	0.56521	0.81791	0.58813	0.554
Mof_P 	P 	0.71649	0.52719	0.32866	0.552
Mof_P 	P 	0.2771	0.01973	0.58246	0.527
Mof_P 	P 	0.3082	0.55263	0.60321	0.551
Mof_P 	P 	0.21404	0.9543	0.3432	0.356
Mof_P 	P 	0.70758	0.0605	0.32563	0.223
Mof_O 	O 	0.3627	0.9637	0.57555	-0.415
Mof_O 	O 	0.5235	0.0961	0.63382	-0.434
Mof_O 	O 	0.6312	0.4968	0.71461	-0.399
Mof_O 	O 	0.409	0.7201	0.33958	-0.401
Mof_O 	O 	0.4159	0.9672	0.47155	-0.394
Mof_O 	O 	0.5354	0.0911	0.54433	-0.424
Mof_O 	O 	0.46	0.8941	0.27539	-0.399
Mof_O 	O 	0.4972	0.594	0.29617	-0.455
Mof_O 	O 	0.6116	0.218	0.58846	-0.4
Mof_O 	O 	0.6584	0.4612	0.35698	-0.407
Mof_O 	O 	0.3774	0.9982	0.21775	-0.396
Mof_O 	O 	0.5021	0.6054	0.38502	-0.439
Mof_O 	O 	0.6013	0.4762	0.45618	-0.397
Mof_O 	O 	0.5608	0.8691	0.63476	-0.447
Mof_O 	O 	0.4456	0.0687	0.40205	-0.401
Mof_O 	O 	0.5637	0.4027	0.6478	-0.452
Mof_O 	O 	0.5835	0.5649	0.5307	-0.428
Mof_O 	O 	0.4697	0.3777	0.38137	-0.448
Mof_O 	O 	0.5262	0.24	0.33547	-0.404
Mof_O 	O 	0.6602	0.766	0.58472	-0.404
Mof_H 	H 	0.7	0.811	0.586	0.269
Mof_O 	O 	0.4438	0.2136	0.58536	-0.395
Mof_H 	H 	0.393	0.179	0.589	0.262
Mof_O 	O 	0.4943	0.7431	0.58486	-0.424
Mof_O 	O 	0.5742	0.9839	0.44297	-0.203
Mof_O 	O 	0.7195	0.6218	0.35199	-0.294
Mof_O 	O 	0.5416	0.0205	0.23419	-0.212
Mof_O 	O 	0.2467	0.6318	0.5916	-0.42
Mof_O 	O 	0.5763	0.726	0.33359	-0.402
Mof_H 	H 	0.629	0.7	0.342	0.267
Mof_O 	O 	0.4233	0.0573	0.29703	-0.412
Mof_O 	O 	0.2617	0.4603	0.5869	-0.353
Mof_H 	H 	0.205	0.462	0.597	0.202
Mof_O 	O 	0.4504	0.4855	0.49278	-0.422
Mof_H 	H 	0.412	0.508	0.5147	0.257
Mof_O 	O 	0.2184	0.9798	0.62103	-0.402
Mof_O 	O 	0.2955	0.1209	0.5919	-0.293
Mof_O 	O 	0.4711	0.3774	0.29144	-0.428
Mof_O 	O 	0.583	0.5723	0.64002	-0.453
Mof_O 	O 	0.4622	0.8978	0.39351	-0.431
Mof_O 	O 	0.4688	0.5041	0.69779	-0.45
Mof_H 	H 	0.417	0.516	0.682	0.289
Mof_O 	O 	0.396	0.5562	0.57446	-0.437
Mof_O 	O 	0.5599	0.8843	0.54644	-0.43
Mof_O 	O 	0.2225	0.0152	0.53342	-0.193
Mof_O 	O 	0.326	0.5454	0.65607	-0.271
Mof_O 	O 	0.6703	0.5393	0.27743	-0.371
Mof_H 	H 	0.6106	0.545	0.28	0.235
Mof_O 	O 	0.3629	0.2749	0.33794	-0.399
Mof_H 	H 	0.314	0.311	0.344	0.262
Mof_O 	O 	0.8092	0.4871	0.31995	-0.423
Mof_O 	O 	0.5708	0.3921	0.53154	-0.444
Mof_O 	O 	0.2495	0.0456	0.3308	-0.183
Mof_O 	O 	0.2787	0.8755	0.3343	-0.412
Mof_O 	O 	0.1255	0.9374	0.3595	-0.252
Mof_O 	O 	0.6188	0.0562	0.3224	-0.256
Mof_O 	O 	0.1788	0.9283	0.2761	-0.113
Mof_O 	O 	0.7058	0.0425	0.3985	-0.115
Mof_Zn	Zn	0.03194	0.97743	0.03437	1.232
Mof_Zn	Zn	0.98421	0.61375	0.0852	1.24
Mof_Zn	Zn	0.95438	0.48132	0.89354	1.242
Mof_Zn	Zn	0.09111	0.85377	0.83562	1.249
Mof_Zn	Zn	0.90005	0.99145	0.15009	1.241
Mof_Zn	Zn	0.99597	0.11191	0.84443	1.256
Mof_Zn	Zn	0.88527	0.35028	0.09104	1.247
Mof_Zn	Zn	0.91299	0.50406	0.27892	1.242
Mof_P 	P 	0.9687	0.15223	0.08804	0.55
Mof_P 	P 	0.93591	0.49283	0.17335	0.579
Mof_P 	P 	0.00738	0.65889	0.83935	0.551
Mof_P 	P 	0.94476	0.47872	0.00386	0.507
Mof_P 	P 	0.05263	0.99245	0.75653	0.517
Mof_P 	P 	0.0287	0.97758	0.92619	0.53
Mof_P 	P 	0.0397	0.32025	0.83673	0.558
Mof_P 	P 	0.93479	0.81791	0.08813	0.555
Mof_P 	P 	0.78351	0.52719	0.82866	0.552
Mof_P 	P 	0.2229	0.01973	0.08246	0.527
Mof_P 	P 	0.1918	0.55263	0.10321	0.551
Mof_P 	P 	0.28596	0.9543	0.8432	0.357
Mof_P 	P 	0.79242	0.0605	0.82563	0.221
Mof_O 	O 	0.1373	0.9637	0.07555	-0.423
Mof_O 	O 	0.9765	0.0961	0.13382	-0.434
Mof_O 	O 	0.8688	0.4968	0.21461	-0.399
Mof_O 	O 	0.091	0.7201	0.83958	-0.398
Mof_O 	O 	0.0841	0.9672	0.97155	-0.367
Mof_O 	O 	0.9646	0.0911	0.04433	-0.437
Mof_O 	O 	0.04	0.8941	0.77539	-0.4
Mof_O 	O 	0.0028	0.594	0.79617	-0.456
Mof_O 	O 	0.8884	0.218	0.08846	-0.405
Mof_O 	O 	0.8416	0.4612	0.85698	-0.404
Mof_O 	O 	0.1226	0.9982	0.71775	-0.396
Mof_O 	O 	0.9979	0.6054	0.88502	-0.431
Mof_O 	O 	0.8987	0.4762	0.95618	-0.357
Mof_O 	O 	0.9392	0.8691	0.13476	-0.446
Mof_O 	O 	0.0544	0.0687	0.90205	-0.394
Mof_O 	O 	0.9363	0.4027	0.1478	-0.452
Mof_O 	O 	0.9165	0.5649	0.0307	-0.43
Mof_O 	O 	0.0303	0.3777	0.88137	-0.443
Mof_O 	O 	0.9738	0.24	0.83547	-0.401
Mof_O 	O 	0.8398	0.766	0.08472	-0.409
Mof_H 	H 	0.8	0.811	0.086	0.269
Mof_O 	O 	0.0562	0.2136	0.08536	-0.4
Mof_H 	H 	0.107	0.179	0.089	0.261
Mof_O 	O 	0.0057	0.7431	0.08486	-0.431
Mof_O 	O 	0.9258	0.9839	0.94297	-0.184
Mof_O 	O 	0.7805	0.6218	0.85199	-0.291
Mof_O 	O 	0.9584	0.0205	0.73419	-0.211
Mof_O 	O 	0.2533	0.6318	0.0916	-0.425
Mof_O 	O 	0.9237	0.726	0.83359	-0.398
Mof_H 	H 	0.871	0.7	0.842	0.268
Mof_O 	O 	0.0767	0.0573	0.79703	-0.411
Mof_O 	O 	0.2383	0.4603	0.0869	-0.357
Mof_H 	H 	0.295	0.462	0.097	0.203
Mof_O 	O 	0.0496	0.4855	0.99278	-0.331
Mof_H 	H 	0.088	0.508	0.0147	0.201
Mof_O 	O 	0.2816	0.9798	0.12103	-0.402
Mof_O 	O 	0.2045	0.1209	0.0919	-0.296
Mof_O 	O 	0.0289	0.3774	0.79144	-0.428
Mof_O 	O 	0.917	0.5723	0.14002	-0.453
Mof_O 	O 	0.0378	0.8978	0.89351	-0.426
Mof_O 	O 	0.0312	0.5041	0.19779	-0.451
Mof_H 	H 	0.083	0.516	0.182	0.289
Mof_O 	O 	0.104	0.5562	0.07446	-0.439
Mof_O 	O 	0.9401	0.8843	0.04644	-0.442
Mof_O 	O 	0.2775	0.0152	0.03342	-0.21
Mof_O 	O 	0.174	0.5454	0.15607	-0.271
Mof_O 	O 	0.8297	0.5393	0.77743	-0.371
Mof_H 	H 	0.8894	0.545	0.78	0.235
Mof_O 	O 	0.1371	0.2749	0.83794	-0.397
Mof_H 	H 	0.186	0.311	0.844	0.263
Mof_O 	O 	0.6908	0.4871	0.81995	-0.422
Mof_O 	O 	0.9292	0.3921	0.03154	-0.446
Mof_O 	O 	0.2505	0.0456	0.8308	-0.182
Mof_O 	O 	0.2213	0.8755	0.8343	-0.41
Mof_O 	O 	0.3745	0.9374	0.8595	-0.25
Mof_O 	O 	0.8812	0.0562	0.8224	-0.256
Mof_O 	O 	0.3212	0.9283	0.7761	-0.112
Mof_O 	O 	0.7942	0.0425	0.8985	-0.107
Mof_Zn	Zn	0.96806	0.02257	0.53437	1.241
Mof_Zn	Zn	0.01579	0.38625	0.5852	1.24
Mof_Zn	Zn	0.04562	0.51868	0.39354	1.241
Mof_Zn	Zn	0.90889	0.14623	0.33562	1.249
Mof_Zn	Zn	0.09995	0.00855	0.65009	1.241
Mof_Zn	Zn	0.00403	0.88809	0.34443	1.255
Mof_Zn	Zn	0.11473	0.64972	0.59104	1.248
Mof_Zn	Zn	0.08701	0.49594	0.77892	1.242
Mof_P 	P 	0.0313	0.84777	0.58804	0.548
Mof_P 	P 	0.06409	0.50717	0.67335	0.577
Mof_P 	P 	0.99262	0.34111	0.33935	0.555
Mof_P 	P 	0.05524	0.52128	0.50386	0.579
Mof_P 	P 	0.94737	0.00755	0.25653	0.519
Mof_P 	P 	0.9713	0.02242	0.42619	0.533
Mof_P 	P 	0.9603	0.67975	0.33673	0.56
Mof_P 	P 	0.06521	0.18209	0.58813	0.553
Mof_P 	P 	0.21649	0.47281	0.32866	0.552
Mof_P 	P 	0.7771	0.98027	0.58246	0.528
Mof_P 	P 	0.8082	0.44737	0.60321	0.551
Mof_P 	P 	0.71404	0.0457	0.3432	0.356
Mof_P 	P 	0.20758	0.9395	0.32563	0.223
Mof_O 	O 	0.8627	0.0363	0.57555	-0.416
Mof_O 	O 	0.0235	0.9039	0.63382	-0.435
Mof_O 	O 	0.1312	0.5032	0.71461	-0.399
Mof_O 	O 	0.909	0.2799	0.33958	-0.4
Mof_O 	O 	0.9159	0.0328	0.47155	-0.393
Mof_O 	O 	0.0354	0.9089	0.54433	-0.425
Mof_O 	O 	0.96	0.1059	0.27539	-0.399
Mof_O 	O 	0.9972	0.406	0.29617	-0.455
Mof_O 	O 	0.1116	0.782	0.58846	-0.4
Mof_O 	O 	0.1584	0.5388	0.35698	-0.407
Mof_O 	O 	0.8774	0.0018	0.21775	-0.396
Mof_O 	O 	0.0021	0.3946	0.38502	-0.44
Mof_O 	O 	0.1013	0.5238	0.45618	-0.397
Mof_O 	O 	0.0608	0.1309	0.63476	-0.447
Mof_O 	O 	0.9456	0.9313	0.40205	-0.399
Mof_O 	O 	0.0637	0.5973	0.6478	-0.453
Mof_O 	O 	0.0835	0.4351	0.5307	-0.428
Mof_O 	O 	0.9697	0.6223	0.38137	-0.447
Mof_O 	O 	0.0262	0.76	0.33547	-0.406
Mof_O 	O 	0.1602	0.234	0.58472	-0.405
Mof_H 	H 	0.2	0.189	0.586	0.269
Mof_O 	O 	0.9438	0.7864	0.58536	-0.393
Mof_H 	H 	0.893	0.821	0.589	0.262
Mof_O 	O 	0.9943	0.2569	0.58486	-0.423
Mof_O 	O 	0.0742	0.0161	0.44297	-0.203
Mof_O 	O 	0.2195	0.3782	0.35199	-0.294
Mof_O 	O 	0.0416	0.9795	0.23419	-0.212
Mof_O 	O 	0.7467	0.3682	0.5916	-0.42
Mof_O 	O 	0.0763	0.274	0.33359	-0.402
Mof_H 	H 	0.129	0.3	0.342	0.267
Mof_O 	O 	0.9233	0.9427	0.29703	-0.41
Mof_O 	O 	0.7617	0.5397	0.5869	-0.352
Mof_H 	H 	0.705	0.538	0.597	0.202
Mof_O 	O 	0.9504	0.5145	0.49278	-0.42
Mof_H 	H 	0.912	0.492	0.5147	0.257
Mof_O 	O 	0.7184	0.0202	0.62103	-0.402
Mof_O 	O 	0.7955	0.8791	0.5919	-0.292
Mof_O 	O 	0.9711	0.6226	0.29144	-0.427
Mof_O 	O 	0.083	0.4277	0.64002	-0.453
Mof_O 	O 	0.9622	0.1022	0.39351	-0.43
Mof_O 	O 	0.9688	0.4959	0.69779	-0.448
Mof_H 	H 	0.917	0.484	0.682	0.289
Mof_O 	O 	0.896	0.4438	0.57446	-0.437
Mof_O 	O 	0.0599	0.1157	0.54644	-0.43
Mof_O 	O 	0.7225	0.9848	0.53342	-0.193
Mof_O 	O 	0.826	0.4546	0.65607	-0.271
Mof_O 	O 	0.1703	0.4607	0.27743	-0.371
Mof_H 	H 	0.1106	0.455	0.28	0.235
Mof_O 	O 	0.8629	0.7251	0.33794	-0.399
Mof_H 	H 	0.814	0.689	0.344	0.262
Mof_O 	O 	0.3092	0.5129	0.31995	-0.424
Mof_O 	O 	0.0708	0.6079	0.53154	-0.444
Mof_O 	O 	0.7495	0.9544	0.3308	-0.183
Mof_O 	O 	0.7787	0.1245	0.3343	-0.412
Mof_O 	O 	0.6255	0.0626	0.3595	-0.251
Mof_O 	O 	0.1188	0.9438	0.3224	-0.256
Mof_O 	O 	0.6788	0.0717	0.2761	-0.112
Mof_O 	O 	0.2058	0.9575	0.3985	-0.115
_end
