data_functionalizedCrystal
_audit_creation_method	'EQeq! by Chris Wilmer'
_symmetry_space_group_name_H-M	'P1'
_symmetry_Int_Tables_number	1
_symmetry_cell_setting	triclinic
loop_
_symmetry_equiv_pos_as_xyz
  x,y,z
_cell_length_a	10.59
_cell_length_b	11.333
_cell_length_c	12.464
_cell_angle_alpha	86.46
_cell_angle_beta	82.19
_cell_angle_gamma	89.17
loop_
_atom_site_label
_atom_site_type_symbol
_atom_site_fract_x
_atom_site_fract_y
_atom_site_fract_z
_atom_site_charge
Mof_Eu	Eu	0.07151	0.51475	0.23896	2.047
Mof_Zn	Zn	0.13215	0.83727	0.79891	1.211
Mof_O 	O 	0.996	0.6796	0.359	-0.404
Mof_O 	O 	0.0346	0.59	0.5936	-0.419
Mof_O 	O 	0.0538	0.6838	0.74	-0.562
Mof_O 	O 	0.2247	0.3588	0.2836	-0.415
Mof_O 	O 	0.3028	0.5018	0.1667	-0.41
Mof_O 	O 	0.7988	0.9976	0.1738	-0.403
Mof_O 	O 	0.858	0.8188	0.1212	-0.259
Mof_O 	O 	0.1066	0.6806	0.1238	-0.567
Mof_O 	O 	0.0839	0.751	0.9576	-0.479
Mof_N 	N 	0.1469	0.8759	0.6238	-0.218
Mof_N 	N 	0.6865	0.2435	0.205	-0.244
Mof_N 	N 	0.0396	0.066	0.164	-0.233
Mof_C 	C 	0.0669	0.6783	0.6373	0.306
Mof_C 	C 	0.117	0.7847	0.5689	-0.008
Mof_C 	C 	0.1296	0.789	0.4562	-0.061
Mof_C 	C 	0.1688	0.8959	0.4008	0.028
Mof_H 	H 	0.1775	0.9025	0.3254	0.03
Mof_C 	C 	0.1945	0.9906	0.4565	-0.113
Mof_H 	H 	0.2187	0.0624	0.42	0.078
Mof_C 	C 	0.1838	0.9774	0.5698	0.063
Mof_H 	H 	0.203	0.041	0.6083	0.015
Mof_C 	C 	0.5834	0.1944	0.2661	0.059
Mof_H 	H 	0.5936	0.1229	0.3047	0.002
Mof_C 	C 	0.4649	0.2447	0.274	-0.095
Mof_H 	H 	0.3968	0.2081	0.318	0.076
Mof_C 	C 	0.4465	0.3497	0.2165	0.004
Mof_C 	C 	0.5509	0.4001	0.1521	-0.107
Mof_H 	H 	0.542	0.4705	0.1112	0.079
Mof_C 	C 	0.6674	0.3456	0.1489	0.074
Mof_H 	H 	0.7368	0.3811	0.1057	-0.023
Mof_C 	C 	0.3175	0.407	0.2224	0.278
Mof_C 	C 	0.8812	0.9213	0.1421	0.295
Mof_C 	C 	0.0205	0.9582	0.1306	0.011
Mof_C 	C 	0.121	0.8862	0.0891	-0.166
Mof_C 	C 	0.0998	0.7637	0.0542	0.487
Mof_C 	C 	0.2436	0.9294	0.0821	0.09
Mof_H 	H 	0.3127	0.8838	0.0542	0.001
Mof_C 	C 	0.2631	0.04	0.1162	-0.153
Mof_H 	H 	0.3452	0.0699	0.1111	0.09
Mof_C 	C 	0.1597	0.1061	0.1582	0.099
Mof_H 	H 	0.1732	0.1799	0.1831	-0.015
Mof_C 	C 	0.1028	0.6869	0.3907	0.328
Mof_O 	O 	0.1928	0.6168	0.3618	-0.399
Mof_Eu	Eu	0.92849	0.48525	0.76104	2.048
Mof_Zn	Zn	0.86785	0.16273	0.20109	1.212
Mof_O 	O 	0.004	0.3204	0.641	-0.403
Mof_O 	O 	0.9654	0.41	0.4064	-0.418
Mof_O 	O 	0.9462	0.3162	0.26	-0.562
Mof_O 	O 	0.7753	0.6412	0.7164	-0.415
Mof_O 	O 	0.6972	0.4982	0.8333	-0.41
Mof_O 	O 	0.2012	0.0024	0.8262	-0.403
Mof_O 	O 	0.142	0.1812	0.8788	-0.259
Mof_O 	O 	0.8934	0.3194	0.8762	-0.567
Mof_O 	O 	0.9161	0.249	0.0424	-0.479
Mof_N 	N 	0.8531	0.1241	0.3762	-0.218
Mof_N 	N 	0.3135	0.7565	0.795	-0.244
Mof_N 	N 	0.9604	0.934	0.836	-0.233
Mof_C 	C 	0.9331	0.3217	0.3627	0.306
Mof_C 	C 	0.883	0.2153	0.4311	-0.008
Mof_C 	C 	0.8704	0.211	0.5438	-0.061
Mof_C 	C 	0.8312	0.1041	0.5992	0.028
Mof_H 	H 	0.8225	0.0975	0.6746	0.03
Mof_C 	C 	0.8055	0.0094	0.5435	-0.113
Mof_H 	H 	0.7813	0.9376	0.58	0.078
Mof_C 	C 	0.8162	0.0226	0.4302	0.063
Mof_H 	H 	0.797	0.959	0.3917	0.015
Mof_C 	C 	0.4166	0.8056	0.7339	0.059
Mof_H 	H 	0.4064	0.8771	0.6953	0.002
Mof_C 	C 	0.5351	0.7553	0.726	-0.095
Mof_H 	H 	0.6032	0.7919	0.682	0.076
Mof_C 	C 	0.5535	0.6503	0.7835	0.004
Mof_C 	C 	0.4491	0.5999	0.8479	-0.107
Mof_H 	H 	0.458	0.5295	0.8888	0.079
Mof_C 	C 	0.3326	0.6544	0.8511	0.074
Mof_H 	H 	0.2632	0.6189	0.8943	-0.023
Mof_C 	C 	0.6825	0.593	0.7776	0.278
Mof_C 	C 	0.1188	0.0787	0.8579	0.295
Mof_C 	C 	0.9795	0.0418	0.8694	0.011
Mof_C 	C 	0.879	0.1138	0.9109	-0.166
Mof_C 	C 	0.9002	0.2363	0.9458	0.487
Mof_C 	C 	0.7564	0.0706	0.9179	0.09
Mof_H 	H 	0.6873	0.1162	0.9458	0.001
Mof_C 	C 	0.7369	0.96	0.8838	-0.153
Mof_H 	H 	0.6548	0.9301	0.8889	0.09
Mof_C 	C 	0.8403	0.8939	0.8418	0.099
Mof_H 	H 	0.8268	0.8201	0.8169	-0.015
Mof_C 	C 	0.8972	0.3131	0.6093	0.328
Mof_O 	O 	0.8072	0.3832	0.6382	-0.399
_end
