data_functionalizedCrystal
_audit_creation_method	'EQeq! by Chris Wilmer'
_symmetry_space_group_name_H-M	'P1'
_symmetry_Int_Tables_number	1
_symmetry_cell_setting	triclinic
loop_
_symmetry_equiv_pos_as_xyz
  x,y,z
_cell_length_a	14.4066
_cell_length_b	21.333
_cell_length_c	20.632
_cell_angle_alpha	90
_cell_angle_beta	90
_cell_angle_gamma	90
loop_
_atom_site_label
_atom_site_type_symbol
_atom_site_fract_x
_atom_site_fract_y
_atom_site_fract_z
_atom_site_charge
Mof_Re	Re	0.90421	0.63882	0.44122	0.426
Mof_S 	S 	0.86964	0.73725	0.48888	-0.306
Mof_N 	N 	0.1485	0.8089	0.3195	-0.277
Mof_C 	C 	0.0961	0.7865	0.3547	-0.036
Mof_N 	N 	0.3521	0.8414	0.1535	-0.284
Mof_C 	C 	0.0955	0.6693	0.6142	-0.024
Mof_C 	C 	0.8881	0.5514	0.394	-0.067
Mof_C 	C 	0.7943	0.6045	0.4988	-0.061
Mof_C 	C 	0.7919	0.6592	0.3794	-0.069
Mof_N 	N 	0.881	0.5062	0.3651	-0.149
Mof_N 	N 	0.7352	0.5847	0.5293	-0.245
Mof_N 	N 	0.7311	0.6704	0.3459	-0.136
Mof_Re	Re	0.40421	0.13882	0.44122	0.449
Mof_S 	S 	0.36964	0.23725	0.48888	-0.299
Mof_N 	N 	0.6485	0.3089	0.3195	-0.274
Mof_C 	C 	0.5961	0.2865	0.3547	-0.046
Mof_N 	N 	0.8521	0.3414	0.1535	-0.281
Mof_C 	C 	0.5955	0.1693	0.6142	-0.035
Mof_C 	C 	0.3881	0.0514	0.394	-0.079
Mof_C 	C 	0.2943	0.1045	0.4988	-0.074
Mof_C 	C 	0.2919	0.1592	0.3794	-0.071
Mof_N 	N 	0.381	0.0062	0.3651	-0.18
Mof_N 	N 	0.2352	0.0847	0.5293	-0.251
Mof_N 	N 	0.2311	0.1704	0.3459	-0.136
Mof_Re	Re	0.09579	0.36118	0.94122	0.47
Mof_S 	S 	0.13036	0.26275	0.98888	-0.232
Mof_N 	N 	0.8515	0.1911	0.8195	-0.267
Mof_C 	C 	0.9039	0.2135	0.8547	-0.057
Mof_N 	N 	0.6479	0.1586	0.6535	-0.281
Mof_C 	C 	0.9045	0.3307	0.1142	-0.044
Mof_C 	C 	0.1119	0.4486	0.894	-0.048
Mof_C 	C 	0.2057	0.3955	0.9988	0.031
Mof_C 	C 	0.2081	0.3408	0.8794	-0.067
Mof_N 	N 	0.119	0.4938	0.8651	-0.142
Mof_N 	N 	0.2648	0.4153	0.0293	-0.293
Mof_N 	N 	0.2689	0.3296	0.8459	-0.127
Mof_Re	Re	0.59579	0.86118	0.94122	0.468
Mof_S 	S 	0.63036	0.76275	0.98888	-0.231
Mof_N 	N 	0.3515	0.6911	0.8195	-0.274
Mof_C 	C 	0.4039	0.7135	0.8547	-0.043
Mof_N 	N 	0.1479	0.6586	0.6535	-0.282
Mof_C 	C 	0.4045	0.8307	0.1142	-0.019
Mof_C 	C 	0.6119	0.9486	0.894	-0.023
Mof_C 	C 	0.7057	0.8955	0.9988	0.049
Mof_C 	C 	0.7081	0.8408	0.8794	-0.055
Mof_N 	N 	0.619	0.9938	0.8651	-0.104
Mof_N 	N 	0.7648	0.9153	0.0293	-0.242
Mof_N 	N 	0.7689	0.8296	0.8459	-0.12
Mof_Re	Re	0.09579	0.63882	0.05878	0.421
Mof_S 	S 	0.13036	0.73725	0.01112	-0.36
Mof_N 	N 	0.8515	0.8089	0.1805	-0.276
Mof_C 	C 	0.9039	0.7865	0.1453	-0.049
Mof_N 	N 	0.6479	0.8414	0.3465	-0.281
Mof_C 	C 	0.9045	0.6693	0.8858	-0.034
Mof_C 	C 	0.1119	0.5514	0.106	-0.065
Mof_C 	C 	0.2057	0.6045	0.0012	-0.148
Mof_C 	C 	0.2081	0.6592	0.1206	-0.066
Mof_N 	N 	0.119	0.5062	0.1349	-0.145
Mof_N 	N 	0.2648	0.5847	0.9707	-0.171
Mof_N 	N 	0.2689	0.6704	0.1541	-0.138
Mof_Re	Re	0.59579	0.13882	0.05878	0.424
Mof_S 	S 	0.63036	0.23725	0.01112	-0.362
Mof_N 	N 	0.3515	0.3089	0.1805	-0.276
Mof_C 	C 	0.4039	0.2865	0.1453	-0.045
Mof_N 	N 	0.1479	0.3414	0.3465	-0.281
Mof_C 	C 	0.4045	0.1693	0.8858	-0.03
Mof_C 	C 	0.6119	0.0514	0.106	-0.082
Mof_C 	C 	0.7057	0.1045	0.0012	-0.16
Mof_C 	C 	0.7081	0.1592	0.1206	-0.066
Mof_N 	N 	0.619	0.0062	0.1349	-0.178
Mof_N 	N 	0.7648	0.0847	0.9707	-0.159
Mof_N 	N 	0.7689	0.1704	0.1541	-0.139
Mof_Re	Re	0.90421	0.36118	0.55878	0.427
Mof_S 	S 	0.86964	0.26275	0.51112	-0.309
Mof_N 	N 	0.1485	0.1911	0.6805	-0.27
Mof_C 	C 	0.0961	0.2135	0.6453	-0.046
Mof_N 	N 	0.3521	0.1586	0.8465	-0.279
Mof_C 	C 	0.0955	0.3307	0.3858	-0.025
Mof_C 	C 	0.8881	0.4486	0.606	-0.067
Mof_C 	C 	0.7943	0.3955	0.5012	-0.061
Mof_C 	C 	0.7919	0.3408	0.6206	-0.068
Mof_N 	N 	0.881	0.4938	0.6349	-0.149
Mof_N 	N 	0.7352	0.4153	0.4707	-0.245
Mof_N 	N 	0.7311	0.3296	0.6541	-0.133
Mof_Re	Re	0.40421	0.86118	0.55878	0.444
Mof_S 	S 	0.36964	0.76275	0.51112	-0.299
Mof_N 	N 	0.6485	0.6911	0.6805	-0.275
Mof_C 	C 	0.5961	0.7135	0.6453	-0.046
Mof_N 	N 	0.8521	0.6586	0.8465	-0.277
Mof_C 	C 	0.5955	0.8307	0.3858	-0.015
Mof_C 	C 	0.3881	0.9486	0.606	-0.036
Mof_C 	C 	0.2943	0.8955	0.5012	-0.042
Mof_C 	C 	0.2919	0.8408	0.6206	-0.058
Mof_N 	N 	0.381	0.9938	0.6349	-0.108
Mof_N 	N 	0.2352	0.9153	0.4707	-0.212
Mof_N 	N 	0.2311	0.8296	0.6541	-0.124
Mof_Re	Re	0.09579	0.36118	0.55878	0.446
Mof_S 	S 	0.13036	0.26275	0.51112	-0.302
Mof_N 	N 	0.8515	0.1911	0.6805	-0.269
Mof_C 	C 	0.9039	0.2135	0.6453	-0.06
Mof_N 	N 	0.6479	0.1586	0.8465	-0.278
Mof_C 	C 	0.9045	0.3307	0.3858	-0.04
Mof_C 	C 	0.1119	0.4486	0.606	-0.059
Mof_C 	C 	0.2057	0.3955	0.5012	-0.061
Mof_C 	C 	0.2081	0.3408	0.6206	-0.068
Mof_N 	N 	0.119	0.4938	0.6349	-0.145
Mof_N 	N 	0.2648	0.4153	0.4707	-0.245
Mof_N 	N 	0.2689	0.3296	0.6541	-0.133
Mof_Re	Re	0.59579	0.86118	0.55878	0.444
Mof_S 	S 	0.63036	0.76275	0.51112	-0.299
Mof_N 	N 	0.3515	0.6911	0.6805	-0.276
Mof_C 	C 	0.4039	0.7135	0.6453	-0.046
Mof_N 	N 	0.1479	0.6586	0.8465	-0.278
Mof_C 	C 	0.4045	0.8307	0.3858	-0.015
Mof_C 	C 	0.6119	0.9486	0.606	-0.033
Mof_C 	C 	0.7057	0.8955	0.5012	-0.04
Mof_C 	C 	0.7081	0.8408	0.6206	-0.056
Mof_N 	N 	0.619	0.9938	0.6349	-0.106
Mof_N 	N 	0.7648	0.9153	0.4707	-0.196
Mof_N 	N 	0.7689	0.8296	0.6541	-0.125
Mof_Re	Re	0.90421	0.63882	0.05878	0.403
Mof_S 	S 	0.86964	0.73725	0.01112	-0.368
Mof_N 	N 	0.1485	0.8089	0.1805	-0.277
Mof_C 	C 	0.0961	0.7865	0.1453	-0.035
Mof_N 	N 	0.3521	0.8414	0.3465	-0.282
Mof_C 	C 	0.0955	0.6693	0.8858	-0.019
Mof_C 	C 	0.8881	0.5514	0.106	-0.073
Mof_C 	C 	0.7943	0.6045	0.0012	-0.148
Mof_C 	C 	0.7919	0.6592	0.1206	-0.065
Mof_N 	N 	0.881	0.5062	0.1349	-0.149
Mof_N 	N 	0.7352	0.5847	0.9707	-0.171
Mof_N 	N 	0.7311	0.6704	0.1541	-0.139
Mof_Re	Re	0.40421	0.13882	0.05878	0.423
Mof_S 	S 	0.36964	0.23725	0.01112	-0.363
Mof_N 	N 	0.6485	0.3089	0.1805	-0.275
Mof_C 	C 	0.5961	0.2865	0.1453	-0.045
Mof_N 	N 	0.8521	0.3414	0.3465	-0.279
Mof_C 	C 	0.5955	0.1693	0.8858	-0.03
Mof_C 	C 	0.3881	0.0514	0.106	-0.085
Mof_C 	C 	0.2943	0.1045	0.0012	-0.162
Mof_C 	C 	0.2919	0.1592	0.1206	-0.068
Mof_N 	N 	0.381	0.0062	0.1349	-0.18
Mof_N 	N 	0.2352	0.0847	0.9707	-0.175
Mof_N 	N 	0.2311	0.1704	0.1541	-0.138
Mof_Re	Re	0.90421	0.36118	0.94122	0.452
Mof_S 	S 	0.86964	0.26275	0.98888	-0.239
Mof_N 	N 	0.1485	0.1911	0.8195	-0.268
Mof_C 	C 	0.0961	0.2135	0.8547	-0.043
Mof_N 	N 	0.3521	0.1586	0.6535	-0.282
Mof_C 	C 	0.0955	0.3307	0.1142	-0.029
Mof_C 	C 	0.8881	0.4486	0.894	-0.055
Mof_C 	C 	0.7943	0.3955	0.9988	0.033
Mof_C 	C 	0.7919	0.3408	0.8794	-0.066
Mof_N 	N 	0.881	0.4938	0.8651	-0.146
Mof_N 	N 	0.7352	0.4153	0.0293	-0.293
Mof_N 	N 	0.7311	0.3296	0.8459	-0.128
Mof_Re	Re	0.40421	0.86118	0.94122	0.468
Mof_S 	S 	0.36964	0.76275	0.98888	-0.232
Mof_N 	N 	0.6485	0.6911	0.8195	-0.273
Mof_C 	C 	0.5961	0.7135	0.8547	-0.043
Mof_N 	N 	0.8521	0.6586	0.6535	-0.28
Mof_C 	C 	0.5955	0.8307	0.1142	-0.019
Mof_C 	C 	0.3881	0.9486	0.894	-0.026
Mof_C 	C 	0.2943	0.8955	0.9988	0.046
Mof_C 	C 	0.2919	0.8408	0.8794	-0.057
Mof_N 	N 	0.381	0.9938	0.8651	-0.106
Mof_N 	N 	0.2352	0.9153	0.0293	-0.258
Mof_N 	N 	0.2311	0.8296	0.8459	-0.119
Mof_Re	Re	0.09579	0.63882	0.44122	0.445
Mof_S 	S 	0.13036	0.73725	0.48888	-0.298
Mof_N 	N 	0.8515	0.8089	0.3195	-0.275
Mof_C 	C 	0.9039	0.7865	0.3547	-0.05
Mof_N 	N 	0.6479	0.8414	0.1535	-0.283
Mof_C 	C 	0.9045	0.6693	0.6142	-0.039
Mof_C 	C 	0.1119	0.5514	0.394	-0.059
Mof_C 	C 	0.2057	0.6045	0.4988	-0.062
Mof_C 	C 	0.2081	0.6592	0.3794	-0.069
Mof_N 	N 	0.119	0.5062	0.3651	-0.145
Mof_N 	N 	0.2648	0.5847	0.5293	-0.245
Mof_N 	N 	0.2689	0.6704	0.3459	-0.136
Mof_Re	Re	0.59579	0.13882	0.44122	0.449
Mof_S 	S 	0.63036	0.23725	0.48888	-0.298
Mof_N 	N 	0.3515	0.3089	0.3195	-0.275
Mof_C 	C 	0.4039	0.2865	0.3547	-0.046
Mof_N 	N 	0.1479	0.3414	0.1535	-0.283
Mof_C 	C 	0.4045	0.1693	0.6142	-0.036
Mof_C 	C 	0.6119	0.0514	0.394	-0.076
Mof_C 	C 	0.7057	0.1045	0.4988	-0.072
Mof_C 	C 	0.7081	0.1592	0.3794	-0.069
Mof_N 	N 	0.619	0.0062	0.3651	-0.178
Mof_N 	N 	0.7648	0.0847	0.5293	-0.234
Mof_N 	N 	0.7689	0.1704	0.3459	-0.137
Mof_Re	Re	2.25851e-33	0.74893	0.42061	0.448
Mof_Re	Re	-5.05502e-33	0.69402	0.54139	0.444
Mof_S 	S 	-1.00573e-32	0.66123	0.35119	-0.279
Mof_S 	S 	-5.18496e-33	0.58396	0.51719	-0.268
Mof_C 	C 	-1.34992e-32	0.8421	0.4516	-0.048
Mof_C 	C 	3.19545e-33	0.778	0.5951	-0.056
Mof_N 	N 	-1.25676e-32	0.823	0.6251	-0.139
Mof_N 	N 	-5.46466e-33	0.8946	0.4651	-0.331
Mof_Re	Re	0.5	0.24893	0.42061	0.433
Mof_Re	Re	0.5	0.19402	0.54139	0.433
Mof_S 	S 	0.5	0.16123	0.35119	-0.296
Mof_S 	S 	0.5	0.08396	0.51719	-0.333
Mof_C 	C 	0.5	0.3421	0.4516	-0.06
Mof_C 	C 	0.5	0.278	0.5951	-0.066
Mof_N 	N 	0.5	0.323	0.6251	-0.162
Mof_N 	N 	0.5	0.3946	0.4651	-0.4
Mof_Re	Re	4.9433e-33	0.25107	0.92061	0.451
Mof_Re	Re	7.19877e-34	0.30598	0.04139	0.362
Mof_S 	S 	4.57055e-33	0.33877	0.85119	-0.281
Mof_S 	S 	2.58045e-33	0.41604	0.01719	-0.341
Mof_C 	C 	-1.08144e-32	0.1579	0.9516	-0.043
Mof_C 	C 	5.10648e-34	0.222	0.0951	-0.075
Mof_N 	N 	4.65277e-33	0.177	0.1251	-0.159
Mof_N 	N 	2.11063e-32	0.1054	0.9651	-0.326
Mof_Re	Re	0.5	0.75107	0.92061	0.433
Mof_Re	Re	0.5	0.80598	0.04139	0.343
Mof_S 	S 	0.5	0.83877	0.85119	-0.287
Mof_S 	S 	0.5	0.91604	0.01719	-0.295
Mof_C 	C 	0.5	0.6579	0.9516	-0.045
Mof_C 	C 	0.5	0.722	0.0951	-0.083
Mof_N 	N 	0.5	0.677	0.1251	-0.164
Mof_N 	N 	0.5	0.6054	0.9651	-0.358
Mof_Re	Re	1.42155e-33	0.74893	0.07939	0.448
Mof_Re	Re	5.14735e-33	0.69402	0.95861	0.522
Mof_S 	S 	-7.16301e-33	0.66123	0.14881	-0.275
Mof_S 	S 	-1.06468e-32	0.58396	0.98281	-0.192
Mof_C 	C 	-3.72114e-33	0.8421	0.0484	-0.061
Mof_C 	C 	4.85895e-33	0.778	0.9049	-0.038
Mof_N 	N 	-1.12263e-32	0.823	0.8749	-0.129
Mof_N 	N 	-9.26755e-33	0.8946	0.0349	-0.316
Mof_Re	Re	0.5	0.24893	0.07939	0.432
Mof_Re	Re	0.5	0.19402	0.95861	0.516
Mof_S 	S 	0.5	0.16123	0.14881	-0.293
Mof_S 	S 	0.5	0.08396	0.98281	-0.252
Mof_C 	C 	0.5	0.3421	0.0484	-0.074
Mof_C 	C 	0.5	0.278	0.9049	-0.046
Mof_N 	N 	0.5	0.323	0.8749	-0.151
Mof_N 	N 	0.5	0.3946	0.0349	-0.386
Mof_Re	Re	3.11109e-33	0.25107	0.57939	0.449
Mof_Re	Re	-5.49951e-33	0.30598	0.45861	0.444
Mof_S 	S 	-4.47822e-33	0.33877	0.64881	-0.277
Mof_S 	S 	1.05546e-32	0.41604	0.48281	-0.267
Mof_C 	C 	-5.01738e-33	0.1579	0.5484	-0.058
Mof_C 	C 	-1.80688e-33	0.222	0.4049	-0.06
Mof_N 	N 	2.01306e-33	0.177	0.3749	-0.159
Mof_N 	N 	1.08343e-32	0.1054	0.5349	-0.368
Mof_Re	Re	0.5	0.75107	0.57939	0.431
Mof_Re	Re	0.5	0.80598	0.45861	0.423
Mof_S 	S 	0.5	0.83877	0.64881	-0.283
Mof_S 	S 	0.5	0.91604	0.48281	-0.223
Mof_C 	C 	0.5	0.6579	0.5484	-0.06
Mof_C 	C 	0.5	0.722	0.4049	-0.068
Mof_N 	N 	0.5	0.677	0.3749	-0.164
Mof_N 	N 	0.5	0.6054	0.5349	-0.4
Mof_Lu	Lu	0.26261	0.8573	0.25	1.571
Mof_Lu	Lu	0.76261	0.3573	0.25	1.454
Mof_Lu	Lu	0.73739	0.1427	0.75	1.404
Mof_Lu	Lu	0.23739	0.6427	0.75	1.483
Mof_Lu	Lu	0.73739	0.8573	0.25	1.564
Mof_Lu	Lu	0.23739	0.3573	0.25	1.468
Mof_Lu	Lu	0.26261	0.1427	0.75	1.409
Mof_Lu	Lu	0.76261	0.6427	0.75	1.47
Mof_K 	K 	0.58758	0.5	0.5	1.337
Mof_K 	K 	0.08758	3.98103e-33	0.5	1.276
Mof_K 	K 	0.41242	0.5	-0	1.217
Mof_K 	K 	0.91242	0	-0	0.876
Mof_K 	K 	0.41242	0.5	0.5	1.342
Mof_K 	K 	0.91242	3.98103e-33	0.5	0.999
Mof_K 	K 	0.58758	0.5	-0	1.212
Mof_K 	K 	0.08758	0	-0	1.152
_end
