data_functionalizedCrystal
_audit_creation_method	'EQeq! by Chris Wilmer'
_symmetry_space_group_name_H-M	'P1'
_symmetry_Int_Tables_number	1
_symmetry_cell_setting	triclinic
loop_
_symmetry_equiv_pos_as_xyz
  x,y,z
_cell_length_a	8.8645
_cell_length_b	8.8645
_cell_length_c	12.1191
_cell_angle_alpha	90
_cell_angle_beta	90
_cell_angle_gamma	90
loop_
_atom_site_label
_atom_site_type_symbol
_atom_site_fract_x
_atom_site_fract_y
_atom_site_fract_z
_atom_site_charge
Mof_C 	C 	0.7647	0.5449	0.1174	0.472
Mof_O 	O 	0.889	0.6081	0.1344	-0.28
Mof_O 	O 	0.6843	0.6023	0.0338	-0.346
Mof_O 	O 	0.7131	0.4417	0.1752	-0.29
Mof_C 	C 	0.2353	0.4551	0.1174	0.485
Mof_O 	O 	0.111	0.3919	0.1344	-0.423
Mof_O 	O 	0.3157	0.3977	0.0338	-0.4
Mof_O 	O 	0.2869	0.5583	0.1752	-0.308
Mof_C 	C 	0.5449	0.2353	0.8826	0.478
Mof_O 	O 	0.6081	0.111	0.8656	-0.359
Mof_O 	O 	0.6023	0.3157	0.9662	-0.275
Mof_O 	O 	0.4417	0.2869	0.8248	-0.285
Mof_C 	C 	0.4551	0.7647	0.8826	0.463
Mof_O 	O 	0.3919	0.889	0.8656	-0.265
Mof_O 	O 	0.3977	0.6843	0.9662	-0.265
Mof_O 	O 	0.5583	0.7131	0.8248	-0.234
Mof_C 	C 	0.2647	0.9551	0.6174	0.656
Mof_O 	O 	0.389	0.8919	0.6344	-0.341
Mof_O 	O 	0.1843	0.8977	0.5338	-0.341
Mof_O 	O 	0.2131	0.0583	0.6752	-0.451
Mof_C 	C 	0.7353	0.0449	0.6174	0.293
Mof_O 	O 	0.611	0.1081	0.6344	-0.32
Mof_O 	O 	0.8157	0.1023	0.5338	-0.269
Mof_O 	O 	0.7869	0.9417	0.6752	-0.086
Mof_C 	C 	0.0449	0.2647	0.3826	0.302
Mof_O 	O 	0.1081	0.389	0.3656	-0.336
Mof_O 	O 	0.1023	0.1843	0.4662	-0.353
Mof_O 	O 	0.9417	0.2131	0.3248	-0.167
Mof_C 	C 	0.9551	0.7353	0.3826	0.64
Mof_O 	O 	0.8919	0.611	0.3656	-0.327
Mof_O 	O 	0.8977	0.8157	0.4662	-0.262
Mof_O 	O 	0.0583	0.7869	0.3248	-0.394
Mof_Cu	Cu	-2.03196e-33	0.5	0.25	0.903
Mof_Cu	Cu	0.5	0	0.75	0.906
Mof_Cu	Cu	0.5	0.5	-0	0.928
Mof_Cu	Cu	-4.06392e-33	0	0.5	0.851
_end
