data_functionalizedCrystal
_audit_creation_method	'EQeq! by Chris Wilmer'
_symmetry_space_group_name_H-M	'P1'
_symmetry_Int_Tables_number	1
_symmetry_cell_setting	triclinic
loop_
_symmetry_equiv_pos_as_xyz
  x,y,z
_cell_length_a	8.6313
_cell_length_b	13.0527
_cell_length_c	13.7646
_cell_angle_alpha	118.303
_cell_angle_beta	91.2969
_cell_angle_gamma	90
loop_
_atom_site_label
_atom_site_type_symbol
_atom_site_fract_x
_atom_site_fract_y
_atom_site_fract_z
_atom_site_charge
Mof_Cu	Cu	0.55394	0.99905	0.5895	0.918
Mof_Cu	Cu	0.94606	0.40955	0.4105	0.918
Mof_Cu	Cu	0.44606	0.00095	0.4105	0.918
Mof_Cu	Cu	0.05394	0.59045	0.5895	0.918
Mof_H 	H 	0.2753	0.657	0.3946	0.183
Mof_H 	H 	0.371	0.6271	0.2866	0.171
Mof_H 	H 	0.5854	0.5726	0.3568	-0.044
Mof_H 	H 	0.5047	0.6161	0.4734	-0.024
Mof_H 	H 	0.4835	0.4104	0.3674	0.188
Mof_H 	H 	0.3952	0.4231	0.2702	0.173
Mof_H 	H 	0.7179	0.8292	0.6514	0.015
Mof_H 	H 	0.9074	0.8257	0.772	0.097
Mof_H 	H 	0.9	0.176	0.936	0.084
Mof_H 	H 	0.7121	0.1707	0.8116	0.005
Mof_H 	H 	0.1081	0.933	0.9162	0.076
Mof_H 	H 	0.1064	0.0724	0.9806	0.071
Mof_H 	H 	0.2247	0.2624	0.6054	0.185
Mof_H 	H 	0.129	0.3405	0.7134	0.173
Mof_H 	H 	0.9146	0.2158	0.6432	-0.047
Mof_H 	H 	0.9953	0.1427	0.5266	-0.028
Mof_H 	H 	0.0165	0.043	0.6326	0.191
Mof_H 	H 	0.1048	0.1529	0.7298	0.175
Mof_H 	H 	0.7821	0.1778	0.3486	0.014
Mof_H 	H 	0.5926	0.0537	0.228	0.098
Mof_H 	H 	0.6	0.24	0.064	0.085
Mof_H 	H 	0.7879	0.3591	0.1884	0.004
Mof_H 	H 	0.3919	0.0168	0.0838	0.081
Mof_H 	H 	0.3936	0.0918	0.0194	0.072
Mof_H 	H 	0.7247	0.343	0.6054	0.183
Mof_H 	H 	0.629	0.3729	0.7134	0.171
Mof_H 	H 	0.4146	0.4274	0.6432	-0.044
Mof_H 	H 	0.4953	0.3839	0.5266	-0.024
Mof_H 	H 	0.5165	0.5896	0.6326	0.188
Mof_H 	H 	0.6048	0.5769	0.7298	0.173
Mof_H 	H 	0.2821	0.1708	0.3486	0.015
Mof_H 	H 	0.0926	0.1743	0.228	0.097
Mof_H 	H 	0.1	0.824	0.064	0.084
Mof_H 	H 	0.2879	0.8293	0.1884	0.005
Mof_H 	H 	0.8919	0.067	0.0838	0.076
Mof_H 	H 	0.8936	0.9276	0.0194	0.071
Mof_H 	H 	0.7753	0.7376	0.3946	0.185
Mof_H 	H 	0.871	0.6595	0.2866	0.173
Mof_H 	H 	0.0854	0.7842	0.3568	-0.047
Mof_H 	H 	0.0047	0.8573	0.4734	-0.028
Mof_H 	H 	0.9835	0.957	0.3674	0.191
Mof_H 	H 	0.8952	0.8471	0.2702	0.175
Mof_H 	H 	0.2179	0.8222	0.6514	0.014
Mof_H 	H 	0.4074	0.9463	0.772	0.098
Mof_H 	H 	0.4	0.76	0.936	0.085
Mof_H 	H 	0.2121	0.6409	0.8116	0.004
Mof_H 	H 	0.6081	0.9832	0.9162	0.081
Mof_H 	H 	0.6064	0.9082	0.9806	0.072
Mof_C 	C 	0.4326	0.78462	0.41764	0.464
Mof_C 	C 	0.38	0.65918	0.36776	-0.476
Mof_C 	C 	0.4847	0.58034	0.39268	0.262
Mof_C 	C 	0.4113	0.45966	0.35132	-0.48
Mof_C 	C 	0.2574	0.46383	0.40406	0.467
Mof_C 	C 	0.7548	0.9007	0.7104	0.092
Mof_C 	C 	0.8682	0.89799	0.78218	-0.172
Mof_C 	C 	0.9238	0.00118	0.86856	0.127
Mof_C 	C 	0.864	0.10324	0.87828	-0.18
Mof_C 	C 	0.7516	0.09931	0.80382	0.087
Mof_C 	C 	0.0404	0.00152	0.95224	-0.152
Mof_C 	C 	0.0674	0.36698	0.58236	0.466
Mof_C 	C 	0.12	0.29142	0.63224	-0.48
Mof_C 	C 	0.0153	0.18766	0.60732	0.272
Mof_C 	C 	0.0887	0.10834	0.64868	-0.485
Mof_C 	C 	0.2426	0.05977	0.59594	0.469
Mof_C 	C 	0.7452	0.1903	0.2896	0.094
Mof_C 	C 	0.6318	0.11581	0.21782	-0.177
Mof_C 	C 	0.5762	0.13262	0.13144	0.133
Mof_C 	C 	0.636	0.22496	0.12172	-0.184
Mof_C 	C 	0.7484	0.29549	0.19618	0.089
Mof_C 	C 	0.4596	0.04928	0.04776	-0.161
Mof_C 	C 	0.5674	0.21538	0.58236	0.464
Mof_C 	C 	0.62	0.34082	0.63224	-0.476
Mof_C 	C 	0.5153	0.41966	0.60732	0.262
Mof_C 	C 	0.5887	0.54034	0.64868	-0.48
Mof_C 	C 	0.7426	0.53617	0.59594	0.467
Mof_C 	C 	0.2452	0.0993	0.2896	0.092
Mof_C 	C 	0.1318	0.10201	0.21782	-0.172
Mof_C 	C 	0.0762	0.99882	0.13144	0.127
Mof_C 	C 	0.136	0.89676	0.12172	-0.18
Mof_C 	C 	0.2484	0.90069	0.19618	0.087
Mof_C 	C 	0.9596	0.99848	0.04776	-0.152
Mof_C 	C 	0.9326	0.63302	0.41764	0.466
Mof_C 	C 	0.88	0.70858	0.36776	-0.48
Mof_C 	C 	0.9847	0.81234	0.39268	0.272
Mof_C 	C 	0.9113	0.89166	0.35132	-0.485
Mof_C 	C 	0.7574	0.94023	0.40406	0.469
Mof_C 	C 	0.2548	0.8097	0.7104	0.094
Mof_C 	C 	0.3682	0.88419	0.78218	-0.177
Mof_C 	C 	0.4238	0.86738	0.86856	0.133
Mof_C 	C 	0.364	0.77504	0.87828	-0.184
Mof_C 	C 	0.2516	0.70451	0.80382	0.089
Mof_C 	C 	0.5404	0.95072	0.95224	-0.161
Mof_N 	N 	0.6955	0.99986	0.72098	-0.199
Mof_N 	N 	0.8045	0.27888	0.27902	-0.2
Mof_N 	N 	0.3045	0.00014	0.27902	-0.199
Mof_N 	N 	0.1955	0.72112	0.72098	-0.2
Mof_O 	O 	0.4927	0.83308	0.51336	-0.434
Mof_O 	O 	0.4084	0.83471	0.36028	-0.442
Mof_O 	O 	0.1536	0.39001	0.34678	-0.434
Mof_O 	O 	0.2429	0.54084	0.5009	-0.445
Mof_O 	O 	0.0073	0.31972	0.48664	-0.434
Mof_O 	O 	0.0916	0.47443	0.63972	-0.442
Mof_O 	O 	0.3464	0.04323	0.65322	-0.434
Mof_O 	O 	0.2571	0.03994	0.4991	-0.445
Mof_O 	O 	0.5073	0.16692	0.48664	-0.434
Mof_O 	O 	0.5916	0.16529	0.63972	-0.442
Mof_O 	O 	0.8464	0.60999	0.65322	-0.434
Mof_O 	O 	0.7571	0.45916	0.4991	-0.445
Mof_O 	O 	0.9927	0.68028	0.51336	-0.434
Mof_O 	O 	0.9084	0.52557	0.36028	-0.442
Mof_O 	O 	0.6536	0.95677	0.34678	-0.434
Mof_O 	O 	0.7429	0.96006	0.5009	-0.445
_end
