# CIF file generated by openbabel 3.1.0, see https://openbabel.org
data_I
_chemical_name_common 'image0'
_cell_length_a 9.5261
_cell_length_b 22.4729
_cell_length_c 10.1216
_cell_angle_alpha 90
_cell_angle_beta 102.263
_cell_angle_gamma 90
_space_group_name_H-M_alt 'P 1'
_space_group_name_Hall 'P 1'
loop_
    _symmetry_equiv_pos_as_xyz
    x,y,z
loop_
    _atom_site_label
    _atom_site_type_symbol
    _atom_site_fract_x
    _atom_site_fract_y
    _atom_site_fract_z
    _atom_site_occupancy
    Gd1      Gd       0.71895    0.43454    0.85846    1.000
    Gd2      Gd       0.24923    0.27679    0.04843    1.000
    N1       N        0.59910    0.41480    0.62390    1.000
    N2       N        0.53340    0.41373    0.40390    1.000
    H1       H        0.49162    0.41047    0.31994    1.000
    N3       N        0.77450    0.50730    0.64540    1.000
    O1       O        0.06560    0.33787    0.11020    1.000
    O2       O        0.03170    0.28740    0.86720    1.000
    O3       O        0.83130    0.34137    0.79570    1.000
    O4       O        0.84940    0.38033    0.04940    1.000
    O5       O        0.52290    0.36023    0.81970    1.000
    O6       O        0.37970    0.29574    0.69200    1.000
    O7       O        0.27700    0.29424    0.39100    1.000
    O8       O        0.36750    0.33745    0.22980    1.000
    O9       O        0.60090    0.43641    0.05050    1.000
    O10      O        0.46880    0.49088    0.16320    1.000
    O11      O        0.97680    0.44861    0.86880    1.000
    O12      O        0.17820    0.48116    0.00320    1.000
    C1       C        0.45530    0.36923    0.44920    1.000
    C2       C        0.49880    0.37095    0.58840    1.000
    C3       C        0.61740    0.43997    0.51090    1.000
    C4       C        0.72190    0.48852    0.51690    1.000
    C5       C        0.76160    0.51290    0.40480    1.000
    H2       H        0.72376    0.49845    0.31851    1.000
    C6       C        0.86030    0.55980    0.42490    1.000
    H3       H        0.89043    0.57724    0.35241    1.000
    C7       C        0.91140    0.57940    0.55490    1.000
    H4       H        0.97565    0.61108    0.57093    1.000
    C8       C        0.86810    0.55240    0.66100    1.000
    H5       H        0.90559    0.56613    0.74800    1.000
    C9       C        0.35850    0.33058    0.35060    1.000
    C10      C        0.46280    0.33865    0.70540    1.000
    C11      C        0.51980    0.47909    0.06180    1.000
    C12      C        0.04460    0.47944    0.96230    1.000
    C13      C        0.95230    0.34939    0.02730    1.000
    C14      C        0.93590    0.32359    0.88390    1.000
    Gd3      Gd       0.28105    0.93454    0.64154    1.000
    Gd4      Gd       0.75077    0.77679    0.45157    1.000
    N4       N        0.40090    0.91480    0.87610    1.000
    N5       N        0.46660    0.91373    0.09610    1.000
    H6       H        0.50838    0.91047    0.18006    1.000
    N6       N        0.22550    0.00730    0.85460    1.000
    O13      O        0.93440    0.83787    0.38980    1.000
    O14      O        0.96830    0.78740    0.63280    1.000
    O15      O        0.16870    0.84137    0.70430    1.000
    O16      O        0.15060    0.88033    0.45060    1.000
    O17      O        0.47710    0.86023    0.68030    1.000
    O18      O        0.62030    0.79574    0.80800    1.000
    O19      O        0.72300    0.79424    0.10900    1.000
    O20      O        0.63250    0.83745    0.27020    1.000
    O21      O        0.39910    0.93641    0.44950    1.000
    O22      O        0.53120    0.99088    0.33680    1.000
    O23      O        0.02320    0.94861    0.63120    1.000
    O24      O        0.82180    0.98116    0.49680    1.000
    C15      C        0.54470    0.86923    0.05080    1.000
    C16      C        0.50120    0.87095    0.91160    1.000
    C17      C        0.38260    0.93997    0.98910    1.000
    C18      C        0.27810    0.98852    0.98310    1.000
    C19      C        0.23840    0.01290    0.09520    1.000
    H7       H        0.27624    0.99845    0.18149    1.000
    C20      C        0.13970    0.05980    0.07510    1.000
    H8       H        0.10957    0.07724    0.14759    1.000
    C21      C        0.08860    0.07940    0.94510    1.000
    H9       H        0.02435    0.11108    0.92907    1.000
    C22      C        0.13190    0.05240    0.83900    1.000
    H10      H        0.09441    0.06613    0.75200    1.000
    C23      C        0.64150    0.83058    0.14940    1.000
    C24      C        0.53720    0.83865    0.79460    1.000
    C25      C        0.48020    0.97909    0.43820    1.000
    C26      C        0.95540    0.97944    0.53770    1.000
    C27      C        0.04770    0.84939    0.47270    1.000
    C28      C        0.06410    0.82359    0.61610    1.000
    Gd5      Gd       0.28105    0.56546    0.14154    1.000
    Gd6      Gd       0.75077    0.72321    0.95157    1.000
    N7       N        0.40090    0.58520    0.37610    1.000
    N8       N        0.46660    0.58627    0.59610    1.000
    H11      H        0.50838    0.58953    0.68006    1.000
    N9       N        0.22550    0.49270    0.35460    1.000
    O25      O        0.93440    0.66213    0.88980    1.000
    O26      O        0.96830    0.71260    0.13280    1.000
    O27      O        0.16870    0.65863    0.20430    1.000
    O28      O        0.15060    0.61967    0.95060    1.000
    O29      O        0.47710    0.63977    0.18030    1.000
    O30      O        0.62030    0.70426    0.30800    1.000
    O31      O        0.72300    0.70576    0.60900    1.000
    O32      O        0.63250    0.66255    0.77020    1.000
    O33      O        0.39910    0.56359    0.94950    1.000
    O34      O        0.53120    0.50912    0.83680    1.000
    O35      O        0.02320    0.55139    0.13120    1.000
    O36      O        0.82180    0.51884    0.99680    1.000
    C29      C        0.54470    0.63077    0.55080    1.000
    C30      C        0.50120    0.62905    0.41160    1.000
    C31      C        0.38260    0.56003    0.48910    1.000
    C32      C        0.27810    0.51148    0.48310    1.000
    C33      C        0.23840    0.48710    0.59520    1.000
    H12      H        0.27624    0.50155    0.68149    1.000
    C34      C        0.13970    0.44020    0.57510    1.000
    H13      H        0.10957    0.42276    0.64759    1.000
    C35      C        0.08860    0.42060    0.44510    1.000
    H14      H        0.02435    0.38892    0.42907    1.000
    C36      C        0.13190    0.44760    0.33900    1.000
    H15      H        0.09441    0.43387    0.25200    1.000
    C37      C        0.64150    0.66942    0.64940    1.000
    C38      C        0.53720    0.66135    0.29460    1.000
    C39      C        0.48020    0.52091    0.93820    1.000
    C40      C        0.95540    0.52056    0.03770    1.000
    C41      C        0.04770    0.65061    0.97270    1.000
    C42      C        0.06410    0.67641    0.11610    1.000
    Gd7      Gd       0.71895    0.06546    0.35846    1.000
    Gd8      Gd       0.24923    0.22321    0.54843    1.000
    N10      N        0.59910    0.08520    0.12390    1.000
    N11      N        0.53340    0.08627    0.90390    1.000
    H16      H        0.49162    0.08953    0.81994    1.000
    N12      N        0.77450    0.99270    0.14540    1.000
    O37      O        0.06560    0.16213    0.61020    1.000
    O38      O        0.03170    0.21260    0.36720    1.000
    O39      O        0.83130    0.15863    0.29570    1.000
    O40      O        0.84940    0.11967    0.54940    1.000
    O41      O        0.52290    0.13977    0.31970    1.000
    O42      O        0.37970    0.20426    0.19200    1.000
    O43      O        0.27700    0.20576    0.89100    1.000
    O44      O        0.36750    0.16255    0.72980    1.000
    O45      O        0.60090    0.06359    0.55050    1.000
    O46      O        0.46880    0.00912    0.66320    1.000
    O47      O        0.97680    0.05139    0.36880    1.000
    O48      O        0.17820    0.01884    0.50320    1.000
    C43      C        0.45530    0.13077    0.94920    1.000
    C44      C        0.49880    0.12905    0.08840    1.000
    C45      C        0.61740    0.06003    0.01090    1.000
    C46      C        0.72190    0.01148    0.01690    1.000
    C47      C        0.76160    0.98710    0.90480    1.000
    H17      H        0.72376    0.00155    0.81851    1.000
    C48      C        0.86030    0.94020    0.92490    1.000
    H18      H        0.89043    0.92276    0.85241    1.000
    C49      C        0.91140    0.92060    0.05490    1.000
    H19      H        0.97565    0.88892    0.07093    1.000
    C50      C        0.86810    0.94760    0.16100    1.000
    H20      H        0.90559    0.93387    0.24800    1.000
    C51      C        0.35850    0.16942    0.85060    1.000
    C52      C        0.46280    0.16135    0.20540    1.000
    C53      C        0.51980    0.02091    0.56180    1.000
    C54      C        0.04460    0.02056    0.46230    1.000
    C55      C        0.95230    0.15061    0.52730    1.000
    C56      C        0.93590    0.17641    0.38390    1.000
