data_functionalizedCrystal
_audit_creation_method	'EQeq! by Chris Wilmer'
_symmetry_space_group_name_H-M	'P1'
_symmetry_Int_Tables_number	1
_symmetry_cell_setting	triclinic
loop_
_symmetry_equiv_pos_as_xyz
  x,y,z
_cell_length_a	16.2493
_cell_length_b	16.2493
_cell_length_c	22.99
_cell_angle_alpha	73.1216
_cell_angle_beta	73.1216
_cell_angle_gamma	66.2946
loop_
_atom_site_label
_atom_site_type_symbol
_atom_site_fract_x
_atom_site_fract_y
_atom_site_fract_z
_atom_site_charge
Mof_Zn	Zn	0.99381	0.59657	0.48728	1.22
Mof_Zn	Zn	0.40343	0.00619	0.01272	1.219
Mof_Zn	Zn	0.00619	0.40343	0.51272	1.22
Mof_Zn	Zn	0.59657	0.99381	0.98728	1.219
Mof_H 	H 	0.2238	0.5408	0.5693	-0.009
Mof_H 	H 	0.3389	0.5043	0.6208	0.144
Mof_H 	H 	0.3709	0.2355	0.6486	0.128
Mof_H 	H 	0.2476	0.2766	0.5985	-0.007
Mof_H 	H 	0.586	0.2536	0.7008	0.143
Mof_H 	H 	0.6085	0.1585	0.7993	-0.01
Mof_H 	H 	0.3389	0.2003	0.8484	-0.014
Mof_H 	H 	0.3174	0.3012	0.7528	0.139
Mof_H 	H 	0.0801	0.7319	0.408	-0.017
Mof_H 	H 	0.1003	0.8605	0.4077	0.099
Mof_H 	H 	0.9081	0.8847	0.5613	0.089
Mof_H 	H 	0.8884	0.7538	0.5544	-0.002
Mof_H 	H 	0.0367	0.0111	0.4412	0.055
Mof_H 	H 	0.4592	0.7762	0.9307	-0.01
Mof_H 	H 	0.4957	0.6611	0.8792	0.144
Mof_H 	H 	0.7645	0.6291	0.8514	0.128
Mof_H 	H 	0.7234	0.7524	0.9015	-0.007
Mof_H 	H 	0.7464	0.414	0.7992	0.143
Mof_H 	H 	0.8415	0.3915	0.7007	-0.011
Mof_H 	H 	0.7997	0.6611	0.6516	-0.015
Mof_H 	H 	0.6988	0.6826	0.7472	0.138
Mof_H 	H 	0.2681	0.9199	0.092	-0.018
Mof_H 	H 	0.1395	0.8997	0.0923	0.1
Mof_H 	H 	0.1153	0.0919	0.9387	0.09
Mof_H 	H 	0.2462	0.1116	0.9456	-0.003
Mof_H 	H 	0.9889	0.9633	0.0588	0.056
Mof_H 	H 	0.7762	0.4592	0.4307	-0.009
Mof_H 	H 	0.6611	0.4957	0.3792	0.144
Mof_H 	H 	0.6291	0.7645	0.3514	0.128
Mof_H 	H 	0.7524	0.7234	0.4015	-0.007
Mof_H 	H 	0.414	0.7464	0.2992	0.143
Mof_H 	H 	0.3915	0.8415	0.2007	-0.01
Mof_H 	H 	0.6611	0.7997	0.1516	-0.014
Mof_H 	H 	0.6826	0.6988	0.2472	0.139
Mof_H 	H 	0.9199	0.2681	0.592	-0.017
Mof_H 	H 	0.8997	0.1395	0.5923	0.099
Mof_H 	H 	0.0919	0.1153	0.4387	0.089
Mof_H 	H 	0.1116	0.2462	0.4456	-0.002
Mof_H 	H 	0.9633	0.9889	0.5588	0.055
Mof_H 	H 	0.5408	0.2238	0.0693	-0.01
Mof_H 	H 	0.5043	0.3389	0.1208	0.144
Mof_H 	H 	0.2355	0.3709	0.1486	0.128
Mof_H 	H 	0.2766	0.2476	0.0985	-0.007
Mof_H 	H 	0.2536	0.586	0.2008	0.143
Mof_H 	H 	0.1585	0.6085	0.2993	-0.011
Mof_H 	H 	0.2003	0.3389	0.3484	-0.015
Mof_H 	H 	0.3012	0.3174	0.2528	0.138
Mof_H 	H 	0.7319	0.0801	0.908	-0.018
Mof_H 	H 	0.8605	0.1003	0.9077	0.1
Mof_H 	H 	0.8847	0.9081	0.0613	0.09
Mof_H 	H 	0.7538	0.8884	0.0544	-0.003
Mof_H 	H 	0.0111	0.0367	0.9412	0.056
Mof_C 	C 	0.1429	0.4403	0.5497	0.441
Mof_C 	C 	0.2226	0.4122	0.5783	-0.221
Mof_C 	C 	0.2535	0.4781	0.586	0.174
Mof_C 	C 	0.3225	0.4573	0.6156	-0.291
Mof_C 	C 	0.3682	0.3668	0.6376	0.31
Mof_C 	C 	0.3403	0.2981	0.6322	-0.272
Mof_C 	C 	0.2665	0.3227	0.6021	0.162
Mof_C 	C 	0.4503	0.2841	0.7184	0.328
Mof_C 	C 	0.5351	0.2435	0.7311	-0.289
Mof_C 	C 	0.5491	0.1859	0.7896	0.172
Mof_C 	C 	0.4758	0.1706	0.8313	-0.217
Mof_C 	C 	0.3898	0.2116	0.8187	0.181
Mof_C 	C 	0.3773	0.2705	0.7615	-0.305
Mof_C 	C 	0.4895	0.1047	0.8931	0.428
Mof_C 	C 	0.0457	0.7619	0.4419	0.138
Mof_C 	C 	0.0563	0.8401	0.4396	-0.203
Mof_C 	C 	0.0033	0.8899	0.4836	0.135
Mof_C 	C 	0.9444	0.854	0.5281	-0.175
Mof_C 	C 	0.936	0.773	0.5261	0.098
Mof_C 	C 	0.0109	0.9821	0.4804	-0.078
Mof_C 	C 	0.5597	0.8571	0.9503	0.441
Mof_C 	C 	0.5878	0.7774	0.9217	-0.221
Mof_C 	C 	0.5219	0.7465	0.914	0.174
Mof_C 	C 	0.5427	0.6775	0.8844	-0.291
Mof_C 	C 	0.6332	0.6318	0.8624	0.311
Mof_C 	C 	0.7019	0.6597	0.8678	-0.272
Mof_C 	C 	0.6773	0.7335	0.8979	0.162
Mof_C 	C 	0.7159	0.5497	0.7816	0.328
Mof_C 	C 	0.7565	0.4649	0.7689	-0.289
Mof_C 	C 	0.8141	0.4509	0.7104	0.172
Mof_C 	C 	0.8294	0.5242	0.6687	-0.217
Mof_C 	C 	0.7884	0.6102	0.6813	0.181
Mof_C 	C 	0.7295	0.6227	0.7385	-0.305
Mof_C 	C 	0.8953	0.5105	0.6069	0.428
Mof_C 	C 	0.2381	0.9543	0.0581	0.142
Mof_C 	C 	0.1599	0.9437	0.0604	-0.206
Mof_C 	C 	0.1101	0.9967	0.0164	0.137
Mof_C 	C 	0.146	0.0556	0.9719	-0.176
Mof_C 	C 	0.227	0.064	0.9739	0.102
Mof_C 	C 	0.0179	0.9891	0.0196	-0.079
Mof_C 	C 	0.8571	0.5597	0.4503	0.441
Mof_C 	C 	0.7774	0.5878	0.4217	-0.221
Mof_C 	C 	0.7465	0.5219	0.414	0.174
Mof_C 	C 	0.6775	0.5427	0.3844	-0.291
Mof_C 	C 	0.6318	0.6332	0.3624	0.31
Mof_C 	C 	0.6597	0.7019	0.3678	-0.272
Mof_C 	C 	0.7335	0.6773	0.3979	0.162
Mof_C 	C 	0.5497	0.7159	0.2816	0.328
Mof_C 	C 	0.4649	0.7565	0.2689	-0.289
Mof_C 	C 	0.4509	0.8141	0.2104	0.172
Mof_C 	C 	0.5242	0.8294	0.1687	-0.217
Mof_C 	C 	0.6102	0.7884	0.1813	0.181
Mof_C 	C 	0.6227	0.7295	0.2385	-0.305
Mof_C 	C 	0.5105	0.8953	0.1069	0.428
Mof_C 	C 	0.9543	0.2381	0.5581	0.138
Mof_C 	C 	0.9437	0.1599	0.5604	-0.203
Mof_C 	C 	0.9967	0.1101	0.5164	0.135
Mof_C 	C 	0.0556	0.146	0.4719	-0.175
Mof_C 	C 	0.064	0.227	0.4739	0.098
Mof_C 	C 	0.9891	0.0179	0.5196	-0.078
Mof_C 	C 	0.4403	0.1429	0.0497	0.441
Mof_C 	C 	0.4122	0.2226	0.0783	-0.221
Mof_C 	C 	0.4781	0.2535	0.086	0.174
Mof_C 	C 	0.4573	0.3225	0.1156	-0.291
Mof_C 	C 	0.3668	0.3682	0.1376	0.311
Mof_C 	C 	0.2981	0.3403	0.1322	-0.272
Mof_C 	C 	0.3227	0.2665	0.1021	0.162
Mof_C 	C 	0.2841	0.4503	0.2184	0.328
Mof_C 	C 	0.2435	0.5351	0.2311	-0.289
Mof_C 	C 	0.1859	0.5491	0.2896	0.172
Mof_C 	C 	0.1706	0.4758	0.3313	-0.217
Mof_C 	C 	0.2116	0.3898	0.3187	0.181
Mof_C 	C 	0.2705	0.3773	0.2615	-0.305
Mof_C 	C 	0.1047	0.4895	0.3931	0.428
Mof_C 	C 	0.7619	0.0457	0.9419	0.142
Mof_C 	C 	0.8401	0.0563	0.9396	-0.206
Mof_C 	C 	0.8899	0.0033	0.9836	0.137
Mof_C 	C 	0.854	0.9444	0.0281	-0.176
Mof_C 	C 	0.773	0.936	0.0261	0.102
Mof_C 	C 	0.9821	0.0109	0.9804	-0.079
Mof_N 	N 	0.9941	0.7217	0.4847	-0.268
Mof_N 	N 	0.2783	0.0059	0.0153	-0.271
Mof_N 	N 	0.0059	0.2783	0.5153	-0.268
Mof_N 	N 	0.7217	0.9941	0.9847	-0.271
Mof_O 	O 	0.1051	0.5233	0.5287	-0.475
Mof_O 	O 	0.1162	0.3778	0.5489	-0.464
Mof_O 	O 	0.4425	0.3453	0.662	-0.322
Mof_O 	O 	0.5682	0.0752	0.9062	-0.466
Mof_O 	O 	0.4214	0.0868	0.9276	-0.477
Mof_O 	O 	0.4767	0.8949	0.9713	-0.476
Mof_O 	O 	0.6222	0.8838	0.9511	-0.464
Mof_O 	O 	0.6547	0.5575	0.838	-0.322
Mof_O 	O 	0.9248	0.4318	0.5938	-0.467
Mof_O 	O 	0.9132	0.5786	0.5724	-0.478
Mof_O 	O 	0.8949	0.4767	0.4713	-0.475
Mof_O 	O 	0.8838	0.6222	0.4511	-0.464
Mof_O 	O 	0.5575	0.6547	0.338	-0.322
Mof_O 	O 	0.4318	0.9248	0.0938	-0.466
Mof_O 	O 	0.5786	0.9132	0.0724	-0.477
Mof_O 	O 	0.5233	0.1051	0.0287	-0.476
Mof_O 	O 	0.3778	0.1162	0.0489	-0.464
Mof_O 	O 	0.3453	0.4425	0.162	-0.322
Mof_O 	O 	0.0752	0.5682	0.4062	-0.467
Mof_O 	O 	0.0868	0.4214	0.4276	-0.478
_end
