# CIF file generated by openbabel 3.1.0, see https://openbabel.org
data_I
_chemical_name_common 'image0'
_cell_length_a 28.7051
_cell_length_b 28.7051
_cell_length_c 35.1997
_cell_angle_alpha 90
_cell_angle_beta 90
_cell_angle_gamma 120
_space_group_name_H-M_alt 'P 1'
_space_group_name_Hall 'P 1'
loop_
    _symmetry_equiv_pos_as_xyz
    x,y,z
loop_
    _atom_site_label
    _atom_site_type_symbol
    _atom_site_fract_x
    _atom_site_fract_y
    _atom_site_fract_z
    _atom_site_occupancy
    Eu1      Eu       0.28334    0.45440    0.47450    1.000
    Eu2      Eu       0.14264    0.52303    0.37746    1.000
    Eu3      Eu       0.38416    0.49039    0.63594    1.000
    Eu4      Eu       0.14887    0.46341    0.20556    1.000
    O1       O        0.31693    0.47467    0.53936    1.000
    O2       O        0.32788    0.51428    0.59606    1.000
    O3       O        0.22194    0.47962    0.44556    1.000
    O4       O        0.18120    0.52862    0.44167    1.000
    N1       N        0.25424    0.50996    0.51469    1.000
    C1       C        0.27090    0.52186    0.55091    1.000
    C2       C        0.25470    0.55040    0.57469    1.000
    C3       C        0.21920    0.56560    0.55982    1.000
    C4       C        0.20209    0.55360    0.52240    1.000
    C5       C        0.22103    0.52599    0.50052    1.000
    C6       C        0.30824    0.50250    0.56356    1.000
    C7       C        0.20669    0.51088    0.45949    1.000
    O5       O        0.15591    0.51326    0.31021    1.000
    O6       O        0.16422    0.53817    0.24908    1.000
    O7       O        0.15667    0.60504    0.40796    1.000
    O8       O        0.30955    0.48376    0.40773    1.000
    N2       N        0.17021    0.60482    0.33445    1.000
    C8       C        0.17755    0.60240    0.29702    1.000
    C9       C        0.19580    0.64700    0.27332    1.000
    C10      C        0.20510    0.69520    0.28907    1.000
    C11      C        0.19640    0.69780    0.32765    1.000
    C12      C        0.17929    0.65171    0.34960    1.000
    C13      C        0.16515    0.54728    0.28376    1.000
    C14      C        0.16936    0.64947    0.39157    1.000
    O9       O        0.29882    0.46413    0.66727    1.000
    O10      O        0.48277    0.55330    0.64026    1.000
    O11      O        0.42953    0.43821    0.63507    1.000
    O12      O        0.07095    0.43515    0.35310    1.000
    N3       N        0.33600    0.39850    0.66850    1.000
    C15      C        0.28839    0.38049    0.68621    1.000
    C16      C        0.26260    0.33210    0.70615    1.000
    C17      C        0.28700    0.30090    0.70703    1.000
    C18      C        0.33590    0.31840    0.68858    1.000
    C19      C        0.35938    0.36760    0.66958    1.000
    C20      C        0.26671    0.41868    0.68225    1.000
    C21      C        0.41200    0.39140    0.64915    1.000
    O13      O        0.13277    0.52690    0.17040    1.000
    O14      O        0.20971    0.42543    0.20825    1.000
    O15      O        0.09844    0.36601    0.19847    1.000
    O16      O        0.28957    0.37683    0.49964    1.000
    N4       N        0.07474    0.42422    0.15503    1.000
    C22      C        0.06317    0.45708    0.13484    1.000
    C23      C        0.02120    0.43760    0.10825    1.000
    C24      C        0.99090    0.38190    0.10286    1.000
    C25      C        0.00270    0.34810    0.12360    1.000
    C26      C        0.04520    0.37059    0.14926    1.000
    C27      C        0.09847    0.51558    0.14397    1.000
    C28      C        0.06329    0.33901    0.17324    1.000
    H1       H        0.26838    0.55972    0.60083    1.000
    H2       H        0.20613    0.58432    0.57607    1.000
    H3       H        0.17746    0.56452    0.51162    1.000
    H4       H        0.20170    0.64420    0.24611    1.000
    H5       H        0.21802    0.72738    0.27307    1.000
    H6       H        0.20207    0.73135    0.33918    1.000
    H7       H        0.22821    0.32033    0.71891    1.000
    H8       H        0.27005    0.26673    0.72091    1.000
    H9       H        0.35323    0.29643    0.68857    1.000
    H10      H        0.01356    0.46209    0.09371    1.000
    H11      H        0.96106    0.36698    0.08461    1.000
    H12      H        0.98152    0.30893    0.12011    1.000
    Eu5      Eu       0.95001    0.78773    0.80783    1.000
    Eu6      Eu       0.80931    0.85636    0.71079    1.000
    Eu7      Eu       0.05083    0.82372    0.96927    1.000
    Eu8      Eu       0.81554    0.79675    0.53890    1.000
    O17      O        0.98360    0.80800    0.87269    1.000
    O18      O        0.99455    0.84761    0.92939    1.000
    O19      O        0.88861    0.81295    0.77889    1.000
    O20      O        0.84787    0.86195    0.77500    1.000
    N5       N        0.92091    0.84329    0.84802    1.000
    C29      C        0.93757    0.85519    0.88424    1.000
    C30      C        0.92137    0.88373    0.90802    1.000
    C31      C        0.88587    0.89893    0.89315    1.000
    C32      C        0.86876    0.88693    0.85573    1.000
    C33      C        0.88770    0.85932    0.83385    1.000
    C34      C        0.97491    0.83583    0.89689    1.000
    C35      C        0.87336    0.84421    0.79282    1.000
    O21      O        0.82258    0.84659    0.64354    1.000
    O22      O        0.83089    0.87150    0.58241    1.000
    O23      O        0.82334    0.93837    0.74129    1.000
    O24      O        0.97622    0.81709    0.74106    1.000
    N6       N        0.83688    0.93815    0.66778    1.000
    C36      C        0.84422    0.93573    0.63035    1.000
    C37      C        0.86247    0.98033    0.60665    1.000
    C38      C        0.87177    0.02853    0.62240    1.000
    C39      C        0.86307    0.03113    0.66098    1.000
    C40      C        0.84596    0.98504    0.68293    1.000
    C41      C        0.83182    0.88061    0.61709    1.000
    C42      C        0.83603    0.98280    0.72490    1.000
    O25      O        0.96549    0.79746    0.00060    1.000
    O26      O        0.14944    0.88663    0.97359    1.000
    O27      O        0.09620    0.77154    0.96840    1.000
    O28      O        0.73762    0.76848    0.68643    1.000
    N7       N        0.00267    0.73183    0.00183    1.000
    C43      C        0.95506    0.71382    0.01954    1.000
    C44      C        0.92927    0.66543    0.03948    1.000
    C45      C        0.95367    0.63423    0.04036    1.000
    C46      C        0.00257    0.65173    0.02191    1.000
    C47      C        0.02605    0.70093    0.00291    1.000
    C48      C        0.93338    0.75201    0.01558    1.000
    C49      C        0.07867    0.72473    0.98248    1.000
    O29      O        0.79944    0.86023    0.50373    1.000
    O30      O        0.87638    0.75876    0.54158    1.000
    O31      O        0.76511    0.69934    0.53180    1.000
    O32      O        0.95624    0.71016    0.83297    1.000
    N8       N        0.74141    0.75755    0.48836    1.000
    C50      C        0.72984    0.79041    0.46817    1.000
    C51      C        0.68787    0.77093    0.44158    1.000
    C52      C        0.65757    0.71523    0.43619    1.000
    C53      C        0.66937    0.68143    0.45693    1.000
    C54      C        0.71187    0.70392    0.48259    1.000
    C55      C        0.76514    0.84891    0.47730    1.000
    C56      C        0.72996    0.67234    0.50657    1.000
    H13      H        0.93505    0.89305    0.93416    1.000
    H14      H        0.87280    0.91765    0.90940    1.000
    H15      H        0.84413    0.89785    0.84495    1.000
    H16      H        0.86837    0.97753    0.57944    1.000
    H17      H        0.88469    0.06071    0.60640    1.000
    H18      H        0.86874    0.06468    0.67251    1.000
    H19      H        0.89488    0.65366    0.05224    1.000
    H20      H        0.93672    0.60006    0.05424    1.000
    H21      H        0.01990    0.62976    0.02190    1.000
    H22      H        0.68023    0.79542    0.42704    1.000
    H23      H        0.62773    0.70031    0.41794    1.000
    H24      H        0.64819    0.64226    0.45344    1.000
    Eu9      Eu       0.61667    0.12107    0.14116    1.000
    Eu10     Eu       0.47598    0.18970    0.04413    1.000
    Eu11     Eu       0.71749    0.15706    0.30261    1.000
    Eu12     Eu       0.48221    0.13008    0.87223    1.000
    O33      O        0.65026    0.14134    0.20603    1.000
    O34      O        0.66121    0.18095    0.26273    1.000
    O35      O        0.55527    0.14629    0.11223    1.000
    O36      O        0.51453    0.19529    0.10834    1.000
    N9       N        0.58757    0.17663    0.18136    1.000
    C57      C        0.60423    0.18853    0.21758    1.000
    C58      C        0.58803    0.21707    0.24136    1.000
    C59      C        0.55253    0.23227    0.22649    1.000
    C60      C        0.53542    0.22027    0.18907    1.000
    C61      C        0.55436    0.19266    0.16719    1.000
    C62      C        0.64157    0.16917    0.23023    1.000
    C63      C        0.54002    0.17755    0.12616    1.000
    O37      O        0.48924    0.17993    0.97688    1.000
    O38      O        0.49755    0.20484    0.91575    1.000
    O39      O        0.49000    0.27171    0.07463    1.000
    O40      O        0.64288    0.15043    0.07440    1.000
    N10      N        0.50354    0.27149    0.00112    1.000
    C64      C        0.51088    0.26907    0.96369    1.000
    C65      C        0.52913    0.31367    0.93999    1.000
    C66      C        0.53843    0.36187    0.95574    1.000
    C67      C        0.52973    0.36447    0.99432    1.000
    C68      C        0.51262    0.31838    0.01627    1.000
    C69      C        0.49848    0.21395    0.95043    1.000
    C70      C        0.50269    0.31614    0.05824    1.000
    O41      O        0.63215    0.13080    0.33394    1.000
    O42      O        0.81610    0.21997    0.30693    1.000
    O43      O        0.76286    0.10488    0.30174    1.000
    O44      O        0.40428    0.10182    0.01977    1.000
    N11      N        0.66933    0.06517    0.33517    1.000
    C71      C        0.62172    0.04716    0.35288    1.000
    C72      C        0.59593    0.99877    0.37282    1.000
    C73      C        0.62033    0.96757    0.37370    1.000
    C74      C        0.66923    0.98507    0.35525    1.000
    C75      C        0.69271    0.03427    0.33625    1.000
    C76      C        0.60004    0.08535    0.34892    1.000
    C77      C        0.74533    0.05807    0.31582    1.000
    O45      O        0.46610    0.19357    0.83707    1.000
    O46      O        0.54304    0.09210    0.87492    1.000
    O47      O        0.43177    0.03268    0.86514    1.000
    O48      O        0.62290    0.04350    0.16631    1.000
    N12      N        0.40807    0.09089    0.82170    1.000
    C78      C        0.39650    0.12375    0.80151    1.000
    C79      C        0.35453    0.10427    0.77492    1.000
    C80      C        0.32423    0.04857    0.76953    1.000
    C81      C        0.33603    0.01477    0.79027    1.000
    C82      C        0.37853    0.03726    0.81593    1.000
    C83      C        0.43180    0.18225    0.81064    1.000
    C84      C        0.39662    0.00568    0.83991    1.000
    H25      H        0.60171    0.22639    0.26750    1.000
    H26      H        0.53946    0.25099    0.24274    1.000
    H27      H        0.51079    0.23119    0.17829    1.000
    H28      H        0.53503    0.31087    0.91278    1.000
    H29      H        0.55135    0.39405    0.93974    1.000
    H30      H        0.53540    0.39802    0.00585    1.000
    H31      H        0.56154    0.98700    0.38558    1.000
    H32      H        0.60338    0.93340    0.38758    1.000
    H33      H        0.68656    0.96310    0.35524    1.000
    H34      H        0.34689    0.12876    0.76038    1.000
    H35      H        0.29439    0.03365    0.75128    1.000
    H36      H        0.31485    0.97560    0.78678    1.000
    Eu13     Eu       0.54560    0.82894    0.47450    1.000
    Eu14     Eu       0.47697    0.61961    0.37746    1.000
    Eu15     Eu       0.50961    0.89377    0.63594    1.000
    Eu16     Eu       0.53659    0.68546    0.20556    1.000
    O49      O        0.52533    0.84226    0.53936    1.000
    O50      O        0.48572    0.81360    0.59606    1.000
    O51      O        0.52038    0.74232    0.44556    1.000
    O52      O        0.47138    0.65258    0.44167    1.000
    N13      N        0.49004    0.74428    0.51469    1.000
    C85      C        0.47814    0.74904    0.55091    1.000
    C86      C        0.44960    0.70430    0.57469    1.000
    C87      C        0.43440    0.65360    0.55982    1.000
    C88      C        0.44640    0.64849    0.52240    1.000
    C89      C        0.47401    0.69504    0.50052    1.000
    C90      C        0.49750    0.80574    0.56356    1.000
    C91      C        0.48912    0.69581    0.45949    1.000
    O53      O        0.48674    0.64265    0.31021    1.000
    O54      O        0.46183    0.62605    0.24908    1.000
    O55      O        0.39496    0.55163    0.40796    1.000
    O56      O        0.51624    0.82579    0.40773    1.000
    N14      N        0.39518    0.56539    0.33445    1.000
    C92      C        0.39760    0.57515    0.29702    1.000
    C93      C        0.35300    0.54880    0.27332    1.000
    C94      C        0.30480    0.50990    0.28907    1.000
    C95      C        0.30220    0.49860    0.32765    1.000
    C96      C        0.34829    0.52758    0.34960    1.000
    C97      C        0.45272    0.61787    0.28376    1.000
    C98      C        0.35053    0.51989    0.39157    1.000
    O57      O        0.53587    0.83469    0.66727    1.000
    O58      O        0.44670    0.92947    0.64026    1.000
    O59      O        0.56179    0.99132    0.63507    1.000
    O60      O        0.56485    0.63580    0.35310    1.000
    N15      N        0.60150    0.93750    0.66850    1.000
    C99      C        0.61951    0.90790    0.68621    1.000
    C100     C        0.66790    0.93050    0.70615    1.000
    C101     C        0.69910    0.98610    0.70703    1.000
    C102     C        0.68160    0.01750    0.68858    1.000
    C103     C        0.63240    0.99178    0.66958    1.000
    C104     C        0.58132    0.84803    0.68225    1.000
    C105     C        0.60860    0.02060    0.64915    1.000
    O61      O        0.47310    0.60587    0.17040    1.000
    O62      O        0.57457    0.78428    0.20825    1.000
    O63      O        0.63399    0.73243    0.19847    1.000
    O64      O        0.62317    0.91274    0.49964    1.000
    N16      N        0.57578    0.65052    0.15503    1.000
    C106     C        0.54292    0.60609    0.13484    1.000
    C107     C        0.56240    0.58360    0.10825    1.000
    C108     C        0.61810    0.60900    0.10286    1.000
    C109     C        0.65190    0.65460    0.12360    1.000
    C110     C        0.62941    0.67461    0.14926    1.000
    C111     C        0.48442    0.58289    0.14397    1.000
    C112     C        0.66099    0.72428    0.17324    1.000
    H37      H        0.44028    0.70866    0.60083    1.000
    H38      H        0.41568    0.62181    0.57607    1.000
    H39      H        0.43548    0.61294    0.51162    1.000
    H40      H        0.35580    0.55750    0.24611    1.000
    H41      H        0.27262    0.49064    0.27307    1.000
    H42      H        0.26865    0.47072    0.33918    1.000
    H43      H        0.67967    0.90788    0.71891    1.000
    H44      H        0.73327    0.00332    0.72091    1.000
    H45      H        0.70357    0.05680    0.68857    1.000
    H46      H        0.53791    0.55147    0.09371    1.000
    H47      H        0.63302    0.59408    0.08461    1.000
    H48      H        0.69107    0.67259    0.12011    1.000
    Eu17     Eu       0.21227    0.16227    0.80783    1.000
    Eu18     Eu       0.14364    0.95295    0.71079    1.000
    Eu19     Eu       0.17628    0.22710    0.96927    1.000
    Eu20     Eu       0.20325    0.01879    0.53890    1.000
    O65      O        0.19200    0.17559    0.87269    1.000
    O66      O        0.15239    0.14693    0.92939    1.000
    O67      O        0.18705    0.07565    0.77889    1.000
    O68      O        0.13805    0.98591    0.77500    1.000
    N17      N        0.15671    0.07761    0.84802    1.000
    C113     C        0.14481    0.08237    0.88424    1.000
    C114     C        0.11627    0.03763    0.90802    1.000
    C115     C        0.10107    0.98693    0.89315    1.000
    C116     C        0.11307    0.98182    0.85573    1.000
    C117     C        0.14068    0.02837    0.83385    1.000
    C118     C        0.16417    0.13907    0.89689    1.000
    C119     C        0.15579    0.02914    0.79282    1.000
    O69      O        0.15341    0.97598    0.64354    1.000
    O70      O        0.12850    0.95938    0.58241    1.000
    O71      O        0.06163    0.88496    0.74129    1.000
    O72      O        0.18291    0.15912    0.74106    1.000
    N18      N        0.06185    0.89872    0.66778    1.000
    C120     C        0.06427    0.90848    0.63035    1.000
    C121     C        0.01967    0.88213    0.60665    1.000
    C122     C        0.97147    0.84323    0.62240    1.000
    C123     C        0.96887    0.83193    0.66098    1.000
    C124     C        0.01496    0.86091    0.68293    1.000
    C125     C        0.11939    0.95120    0.61709    1.000
    C126     C        0.01720    0.85322    0.72490    1.000
    O73      O        0.20254    0.16802    0.00060    1.000
    O74      O        0.11337    0.26280    0.97359    1.000
    O75      O        0.22846    0.32465    0.96840    1.000
    O76      O        0.23152    0.96913    0.68643    1.000
    N19      N        0.26817    0.27083    0.00183    1.000
    C127     C        0.28618    0.24123    0.01954    1.000
    C128     C        0.33457    0.26383    0.03948    1.000
    C129     C        0.36577    0.31943    0.04036    1.000
    C130     C        0.34827    0.35083    0.02191    1.000
    C131     C        0.29907    0.32511    0.00291    1.000
    C132     C        0.24799    0.18136    0.01558    1.000
    C133     C        0.27527    0.35393    0.98248    1.000
    O77      O        0.13977    0.93920    0.50373    1.000
    O78      O        0.24124    0.11761    0.54158    1.000
    O79      O        0.30066    0.06576    0.53180    1.000
    O80      O        0.28984    0.24607    0.83297    1.000
    N20      N        0.24245    0.98385    0.48836    1.000
    C134     C        0.20959    0.93942    0.46817    1.000
    C135     C        0.22907    0.91693    0.44158    1.000
    C136     C        0.28477    0.94233    0.43619    1.000
    C137     C        0.31857    0.98793    0.45693    1.000
    C138     C        0.29608    0.00794    0.48259    1.000
    C139     C        0.15109    0.91622    0.47730    1.000
    C140     C        0.32766    0.05761    0.50657    1.000
    H49      H        0.10695    0.04199    0.93416    1.000
    H50      H        0.08235    0.95514    0.90940    1.000
    H51      H        0.10215    0.94627    0.84495    1.000
    H52      H        0.02247    0.89083    0.57944    1.000
    H53      H        0.93929    0.82397    0.60640    1.000
    H54      H        0.93532    0.80405    0.67251    1.000
    H55      H        0.34634    0.24121    0.05224    1.000
    H56      H        0.39994    0.33665    0.05424    1.000
    H57      H        0.37024    0.39013    0.02190    1.000
    H58      H        0.20458    0.88480    0.42704    1.000
    H59      H        0.29969    0.92741    0.41794    1.000
    H60      H        0.35774    0.00592    0.45344    1.000
    Eu21     Eu       0.87893    0.49561    0.14116    1.000
    Eu22     Eu       0.81030    0.28628    0.04413    1.000
    Eu23     Eu       0.84294    0.56044    0.30261    1.000
    Eu24     Eu       0.86992    0.35213    0.87223    1.000
    O81      O        0.85866    0.50893    0.20603    1.000
    O82      O        0.81905    0.48027    0.26273    1.000
    O83      O        0.85371    0.40899    0.11223    1.000
    O84      O        0.80471    0.31925    0.10834    1.000
    N21      N        0.82337    0.41095    0.18136    1.000
    C141     C        0.81147    0.41571    0.21758    1.000
    C142     C        0.78293    0.37097    0.24136    1.000
    C143     C        0.76773    0.32027    0.22649    1.000
    C144     C        0.77973    0.31516    0.18907    1.000
    C145     C        0.80734    0.36171    0.16719    1.000
    C146     C        0.83083    0.47241    0.23023    1.000
    C147     C        0.82245    0.36248    0.12616    1.000
    O85      O        0.82007    0.30932    0.97688    1.000
    O86      O        0.79516    0.29272    0.91575    1.000
    O87      O        0.72829    0.21830    0.07463    1.000
    O88      O        0.84957    0.49246    0.07440    1.000
    N22      N        0.72851    0.23206    0.00112    1.000
    C148     C        0.73093    0.24182    0.96369    1.000
    C149     C        0.68633    0.21547    0.93999    1.000
    C150     C        0.63813    0.17657    0.95574    1.000
    C151     C        0.63553    0.16527    0.99432    1.000
    C152     C        0.68162    0.19425    0.01627    1.000
    C153     C        0.78605    0.28454    0.95043    1.000
    C154     C        0.68386    0.18656    0.05824    1.000
    O89      O        0.86920    0.50136    0.33394    1.000
    O90      O        0.78003    0.59614    0.30693    1.000
    O91      O        0.89512    0.65799    0.30174    1.000
    O92      O        0.89818    0.30247    0.01977    1.000
    N23      N        0.93483    0.60417    0.33517    1.000
    C155     C        0.95284    0.57457    0.35288    1.000
    C156     C        0.00123    0.59717    0.37282    1.000
    C157     C        0.03243    0.65277    0.37370    1.000
    C158     C        0.01493    0.68417    0.35525    1.000
    C159     C        0.96573    0.65845    0.33625    1.000
    C160     C        0.91465    0.51470    0.34892    1.000
    C161     C        0.94193    0.68727    0.31582    1.000
    O93      O        0.80643    0.27254    0.83707    1.000
    O94      O        0.90790    0.45095    0.87492    1.000
    O95      O        0.96732    0.39910    0.86514    1.000
    O96      O        0.95650    0.57941    0.16631    1.000
    N24      N        0.90911    0.31719    0.82170    1.000
    C162     C        0.87625    0.27276    0.80151    1.000
    C163     C        0.89573    0.25027    0.77492    1.000
    C164     C        0.95143    0.27567    0.76953    1.000
    C165     C        0.98523    0.32127    0.79027    1.000
    C166     C        0.96274    0.34128    0.81593    1.000
    C167     C        0.81775    0.24956    0.81064    1.000
    C168     C        0.99432    0.39095    0.83991    1.000
    H61      H        0.77361    0.37533    0.26750    1.000
    H62      H        0.74901    0.28848    0.24274    1.000
    H63      H        0.76881    0.27961    0.17829    1.000
    H64      H        0.68913    0.22417    0.91278    1.000
    H65      H        0.60595    0.15731    0.93974    1.000
    H66      H        0.60198    0.13739    0.00585    1.000
    H67      H        0.01300    0.57455    0.38558    1.000
    H68      H        0.06660    0.66999    0.38758    1.000
    H69      H        0.03690    0.72347    0.35524    1.000
    H70      H        0.87124    0.21814    0.76038    1.000
    H71      H        0.96635    0.26075    0.75128    1.000
    H72      H        0.02440    0.33926    0.78678    1.000
    Eu25     Eu       0.17106    0.71666    0.47450    1.000
    Eu26     Eu       0.38039    0.85736    0.37746    1.000
    Eu27     Eu       0.10623    0.61584    0.63594    1.000
    Eu28     Eu       0.31454    0.85113    0.20556    1.000
    O97      O        0.15774    0.68307    0.53936    1.000
    O98      O        0.18640    0.67212    0.59606    1.000
    O99      O        0.25768    0.77806    0.44556    1.000
    O100     O        0.34742    0.81880    0.44167    1.000
    N25      N        0.25572    0.74576    0.51469    1.000
    C169     C        0.25096    0.72910    0.55091    1.000
    C170     C        0.29570    0.74530    0.57469    1.000
    C171     C        0.34640    0.78080    0.55982    1.000
    C172     C        0.35151    0.79791    0.52240    1.000
    C173     C        0.30496    0.77897    0.50052    1.000
    C174     C        0.19426    0.69176    0.56356    1.000
    C175     C        0.30419    0.79331    0.45949    1.000
    O101     O        0.35735    0.84409    0.31021    1.000
    O102     O        0.37395    0.83578    0.24908    1.000
    O103     O        0.44837    0.84333    0.40796    1.000
    O104     O        0.17421    0.69045    0.40773    1.000
    N26      N        0.43461    0.82979    0.33445    1.000
    C176     C        0.42485    0.82245    0.29702    1.000
    C177     C        0.45120    0.80420    0.27332    1.000
    C178     C        0.49010    0.79490    0.28907    1.000
    C179     C        0.50140    0.80360    0.32765    1.000
    C180     C        0.47242    0.82071    0.34960    1.000
    C181     C        0.38213    0.83485    0.28376    1.000
    C182     C        0.48011    0.83064    0.39157    1.000
    O105     O        0.16531    0.70118    0.66727    1.000
    O106     O        0.07053    0.51723    0.64026    1.000
    O107     O        0.00868    0.57047    0.63507    1.000
    O108     O        0.36420    0.92905    0.35310    1.000
    N27      N        0.06250    0.66400    0.66850    1.000
    C183     C        0.09210    0.71161    0.68621    1.000
    C184     C        0.06950    0.73740    0.70615    1.000
    C185     C        0.01390    0.71300    0.70703    1.000
    C186     C        0.98250    0.66410    0.68858    1.000
    C187     C        0.00822    0.64062    0.66958    1.000
    C188     C        0.15197    0.73329    0.68225    1.000
    C189     C        0.97940    0.58800    0.64915    1.000
    O109     O        0.39413    0.86723    0.17040    1.000
    O110     O        0.21572    0.79029    0.20825    1.000
    O111     O        0.26757    0.90156    0.19847    1.000
    O112     O        0.08726    0.71043    0.49964    1.000
    N28      N        0.34948    0.92526    0.15503    1.000
    C190     C        0.39391    0.93683    0.13484    1.000
    C191     C        0.41640    0.97880    0.10825    1.000
    C192     C        0.39100    0.00910    0.10286    1.000
    C193     C        0.34540    0.99730    0.12360    1.000
    C194     C        0.32539    0.95480    0.14926    1.000
    C195     C        0.41711    0.90153    0.14397    1.000
    C196     C        0.27572    0.93671    0.17324    1.000
    H73      H        0.29134    0.73162    0.60083    1.000
    H74      H        0.37819    0.79387    0.57607    1.000
    H75      H        0.38706    0.82254    0.51162    1.000
    H76      H        0.44250    0.79830    0.24611    1.000
    H77      H        0.50936    0.78198    0.27307    1.000
    H78      H        0.52928    0.79793    0.33918    1.000
    H79      H        0.09212    0.77179    0.71891    1.000
    H80      H        0.99668    0.72995    0.72091    1.000
    H81      H        0.94320    0.64677    0.68857    1.000
    H82      H        0.44853    0.98644    0.09371    1.000
    H83      H        0.40592    0.03894    0.08461    1.000
    H84      H        0.32741    0.01848    0.12011    1.000
    Eu29     Eu       0.83773    0.04999    0.80783    1.000
    Eu30     Eu       0.04705    0.19069    0.71079    1.000
    Eu31     Eu       0.77290    0.94917    0.96927    1.000
    Eu32     Eu       0.98121    0.18446    0.53890    1.000
    O113     O        0.82441    0.01640    0.87269    1.000
    O114     O        0.85307    0.00545    0.92939    1.000
    O115     O        0.92435    0.11139    0.77889    1.000
    O116     O        0.01409    0.15213    0.77500    1.000
    N29      N        0.92239    0.07909    0.84802    1.000
    C197     C        0.91763    0.06243    0.88424    1.000
    C198     C        0.96237    0.07863    0.90802    1.000
    C199     C        0.01307    0.11413    0.89315    1.000
    C200     C        0.01818    0.13124    0.85573    1.000
    C201     C        0.97163    0.11230    0.83385    1.000
    C202     C        0.86093    0.02509    0.89689    1.000
    C203     C        0.97086    0.12664    0.79282    1.000
    O117     O        0.02402    0.17742    0.64354    1.000
    O118     O        0.04062    0.16911    0.58241    1.000
    O119     O        0.11504    0.17666    0.74129    1.000
    O120     O        0.84088    0.02378    0.74106    1.000
    N30      N        0.10128    0.16312    0.66778    1.000
    C204     C        0.09152    0.15578    0.63035    1.000
    C205     C        0.11787    0.13753    0.60665    1.000
    C206     C        0.15677    0.12823    0.62240    1.000
    C207     C        0.16807    0.13693    0.66098    1.000
    C208     C        0.13909    0.15404    0.68293    1.000
    C209     C        0.04880    0.16818    0.61709    1.000
    C210     C        0.14678    0.16397    0.72490    1.000
    O121     O        0.83198    0.03451    0.00060    1.000
    O122     O        0.73720    0.85056    0.97359    1.000
    O123     O        0.67535    0.90380    0.96840    1.000
    O124     O        0.03087    0.26238    0.68643    1.000
    N31      N        0.72917    0.99733    0.00183    1.000
    C211     C        0.75877    0.04494    0.01954    1.000
    C212     C        0.73617    0.07073    0.03948    1.000
    C213     C        0.68057    0.04633    0.04036    1.000
    C214     C        0.64917    0.99743    0.02191    1.000
    C215     C        0.67489    0.97395    0.00291    1.000
    C216     C        0.81864    0.06662    0.01558    1.000
    C217     C        0.64607    0.92133    0.98248    1.000
    O125     O        0.06080    0.20056    0.50373    1.000
    O126     O        0.88239    0.12362    0.54158    1.000
    O127     O        0.93424    0.23489    0.53180    1.000
    O128     O        0.75393    0.04376    0.83297    1.000
    N32      N        0.01615    0.25859    0.48836    1.000
    C218     C        0.06058    0.27016    0.46817    1.000
    C219     C        0.08307    0.31213    0.44158    1.000
    C220     C        0.05767    0.34243    0.43619    1.000
    C221     C        0.01207    0.33063    0.45693    1.000
    C222     C        0.99206    0.28813    0.48259    1.000
    C223     C        0.08378    0.23486    0.47730    1.000
    C224     C        0.94239    0.27004    0.50657    1.000
    H85      H        0.95801    0.06495    0.93416    1.000
    H86      H        0.04486    0.12720    0.90940    1.000
    H87      H        0.05373    0.15587    0.84495    1.000
    H88      H        0.10917    0.13163    0.57944    1.000
    H89      H        0.17603    0.11531    0.60640    1.000
    H90      H        0.19595    0.13126    0.67251    1.000
    H91      H        0.75879    0.10512    0.05224    1.000
    H92      H        0.66335    0.06328    0.05424    1.000
    H93      H        0.60987    0.98010    0.02190    1.000
    H94      H        0.11520    0.31977    0.42704    1.000
    H95      H        0.07259    0.37227    0.41794    1.000
    H96      H        0.99408    0.35181    0.45344    1.000
    Eu33     Eu       0.50439    0.38333    0.14116    1.000
    Eu34     Eu       0.71372    0.52402    0.04413    1.000
    Eu35     Eu       0.43956    0.28251    0.30261    1.000
    Eu36     Eu       0.64787    0.51779    0.87223    1.000
    O129     O        0.49107    0.34974    0.20603    1.000
    O130     O        0.51973    0.33879    0.26273    1.000
    O131     O        0.59101    0.44473    0.11223    1.000
    O132     O        0.68075    0.48547    0.10834    1.000
    N33      N        0.58905    0.41243    0.18136    1.000
    C225     C        0.58429    0.39577    0.21758    1.000
    C226     C        0.62903    0.41197    0.24136    1.000
    C227     C        0.67973    0.44747    0.22649    1.000
    C228     C        0.68484    0.46458    0.18907    1.000
    C229     C        0.63829    0.44564    0.16719    1.000
    C230     C        0.52759    0.35843    0.23023    1.000
    C231     C        0.63752    0.45998    0.12616    1.000
    O133     O        0.69068    0.51076    0.97688    1.000
    O134     O        0.70728    0.50245    0.91575    1.000
    O135     O        0.78170    0.51000    0.07463    1.000
    O136     O        0.50754    0.35712    0.07440    1.000
    N34      N        0.76794    0.49646    0.00112    1.000
    C232     C        0.75818    0.48912    0.96369    1.000
    C233     C        0.78453    0.47087    0.93999    1.000
    C234     C        0.82343    0.46157    0.95574    1.000
    C235     C        0.83473    0.47027    0.99432    1.000
    C236     C        0.80575    0.48738    0.01627    1.000
    C237     C        0.71546    0.50152    0.95043    1.000
    C238     C        0.81344    0.49731    0.05824    1.000
    O137     O        0.49864    0.36785    0.33394    1.000
    O138     O        0.40386    0.18390    0.30693    1.000
    O139     O        0.34201    0.23714    0.30174    1.000
    O140     O        0.69753    0.59572    0.01977    1.000
    N35      N        0.39583    0.33067    0.33517    1.000
    C239     C        0.42543    0.37828    0.35288    1.000
    C240     C        0.40283    0.40407    0.37282    1.000
    C241     C        0.34723    0.37967    0.37370    1.000
    C242     C        0.31583    0.33077    0.35525    1.000
    C243     C        0.34155    0.30729    0.33625    1.000
    C244     C        0.48530    0.39996    0.34892    1.000
    C245     C        0.31273    0.25467    0.31582    1.000
    O141     O        0.72746    0.53390    0.83707    1.000
    O142     O        0.54905    0.45696    0.87492    1.000
    O143     O        0.60090    0.56823    0.86514    1.000
    O144     O        0.42059    0.37710    0.16631    1.000
    N36      N        0.68281    0.59193    0.82170    1.000
    C246     C        0.72724    0.60350    0.80151    1.000
    C247     C        0.74973    0.64547    0.77492    1.000
    C248     C        0.72433    0.67577    0.76953    1.000
    C249     C        0.67873    0.66397    0.79027    1.000
    C250     C        0.65872    0.62147    0.81593    1.000
    C251     C        0.75044    0.56820    0.81064    1.000
    C252     C        0.60905    0.60338    0.83991    1.000
    H97      H        0.62467    0.39829    0.26750    1.000
    H98      H        0.71152    0.46054    0.24274    1.000
    H99      H        0.72039    0.48921    0.17829    1.000
    H100     H        0.77583    0.46497    0.91278    1.000
    H101     H        0.84269    0.44865    0.93974    1.000
    H102     H        0.86261    0.46460    0.00585    1.000
    H103     H        0.42545    0.43846    0.38558    1.000
    H104     H        0.33001    0.39662    0.38758    1.000
    H105     H        0.27653    0.31344    0.35524    1.000
    H106     H        0.78186    0.65311    0.76038    1.000
    H107     H        0.73925    0.70561    0.75128    1.000
    H108     H        0.66074    0.68515    0.78678    1.000
    Eu37     Eu       0.71666    0.54560    0.52550    1.000
    Eu38     Eu       0.85736    0.47697    0.62254    1.000
    Eu39     Eu       0.61584    0.50961    0.36406    1.000
    Eu40     Eu       0.85113    0.53659    0.79444    1.000
    O145     O        0.68307    0.52533    0.46064    1.000
    O146     O        0.67212    0.48572    0.40394    1.000
    O147     O        0.77806    0.52038    0.55444    1.000
    O148     O        0.81880    0.47138    0.55833    1.000
    N37      N        0.74576    0.49004    0.48531    1.000
    C253     C        0.72910    0.47814    0.44909    1.000
    C254     C        0.74530    0.44960    0.42531    1.000
    C255     C        0.78080    0.43440    0.44018    1.000
    C256     C        0.79791    0.44640    0.47760    1.000
    C257     C        0.77897    0.47401    0.49948    1.000
    C258     C        0.69176    0.49750    0.43644    1.000
    C259     C        0.79331    0.48912    0.54051    1.000
    O149     O        0.84409    0.48674    0.68979    1.000
    O150     O        0.83578    0.46183    0.75092    1.000
    O151     O        0.84333    0.39496    0.59204    1.000
    O152     O        0.69045    0.51624    0.59227    1.000
    N38      N        0.82979    0.39518    0.66555    1.000
    C260     C        0.82245    0.39760    0.70298    1.000
    C261     C        0.80420    0.35300    0.72668    1.000
    C262     C        0.79490    0.30480    0.71093    1.000
    C263     C        0.80360    0.30220    0.67235    1.000
    C264     C        0.82071    0.34829    0.65040    1.000
    C265     C        0.83485    0.45272    0.71624    1.000
    C266     C        0.83064    0.35053    0.60843    1.000
    O153     O        0.70118    0.53587    0.33273    1.000
    O154     O        0.51723    0.44670    0.35974    1.000
    O155     O        0.57047    0.56179    0.36493    1.000
    O156     O        0.92905    0.56485    0.64690    1.000
    N39      N        0.66400    0.60150    0.33150    1.000
    C267     C        0.71161    0.61951    0.31379    1.000
    C268     C        0.73740    0.66790    0.29385    1.000
    C269     C        0.71300    0.69910    0.29297    1.000
    C270     C        0.66410    0.68160    0.31142    1.000
    C271     C        0.64062    0.63240    0.33042    1.000
    C272     C        0.73329    0.58132    0.31775    1.000
    C273     C        0.58800    0.60860    0.35085    1.000
    O157     O        0.86723    0.47310    0.82960    1.000
    O158     O        0.79029    0.57457    0.79175    1.000
    O159     O        0.90156    0.63399    0.80153    1.000
    O160     O        0.71043    0.62317    0.50036    1.000
    N40      N        0.92526    0.57578    0.84497    1.000
    C274     C        0.93683    0.54292    0.86516    1.000
    C275     C        0.97880    0.56240    0.89175    1.000
    C276     C        0.00910    0.61810    0.89714    1.000
    C277     C        0.99730    0.65190    0.87640    1.000
    C278     C        0.95480    0.62941    0.85074    1.000
    C279     C        0.90153    0.48442    0.85603    1.000
    C280     C        0.93671    0.66099    0.82676    1.000
    H109     H        0.73162    0.44028    0.39917    1.000
    H110     H        0.79387    0.41568    0.42393    1.000
    H111     H        0.82254    0.43548    0.48838    1.000
    H112     H        0.79830    0.35580    0.75389    1.000
    H113     H        0.78198    0.27262    0.72693    1.000
    H114     H        0.79793    0.26865    0.66082    1.000
    H115     H        0.77179    0.67967    0.28109    1.000
    H116     H        0.72995    0.73327    0.27909    1.000
    H117     H        0.64677    0.70357    0.31143    1.000
    H118     H        0.98644    0.53791    0.90629    1.000
    H119     H        0.03894    0.63302    0.91539    1.000
    H120     H        0.01848    0.69107    0.87989    1.000
    Eu41     Eu       0.38333    0.87893    0.85884    1.000
    Eu42     Eu       0.52402    0.81030    0.95587    1.000
    Eu43     Eu       0.28251    0.84294    0.69739    1.000
    Eu44     Eu       0.51779    0.86992    0.12777    1.000
    O161     O        0.34974    0.85866    0.79397    1.000
    O162     O        0.33879    0.81905    0.73727    1.000
    O163     O        0.44473    0.85371    0.88777    1.000
    O164     O        0.48547    0.80471    0.89166    1.000
    N41      N        0.41243    0.82337    0.81864    1.000
    C281     C        0.39577    0.81147    0.78242    1.000
    C282     C        0.41197    0.78293    0.75864    1.000
    C283     C        0.44747    0.76773    0.77351    1.000
    C284     C        0.46458    0.77973    0.81093    1.000
    C285     C        0.44564    0.80734    0.83281    1.000
    C286     C        0.35843    0.83083    0.76977    1.000
    C287     C        0.45998    0.82245    0.87384    1.000
    O165     O        0.51076    0.82007    0.02312    1.000
    O166     O        0.50245    0.79516    0.08425    1.000
    O167     O        0.51000    0.72829    0.92537    1.000
    O168     O        0.35712    0.84957    0.92560    1.000
    N42      N        0.49646    0.72851    0.99888    1.000
    C288     C        0.48912    0.73093    0.03631    1.000
    C289     C        0.47087    0.68633    0.06001    1.000
    C290     C        0.46157    0.63813    0.04426    1.000
    C291     C        0.47027    0.63553    0.00568    1.000
    C292     C        0.48738    0.68162    0.98373    1.000
    C293     C        0.50152    0.78605    0.04957    1.000
    C294     C        0.49731    0.68386    0.94176    1.000
    O169     O        0.36785    0.86920    0.66606    1.000
    O170     O        0.18390    0.78003    0.69307    1.000
    O171     O        0.23714    0.89512    0.69826    1.000
    O172     O        0.59572    0.89818    0.98023    1.000
    N43      N        0.33067    0.93483    0.66483    1.000
    C295     C        0.37828    0.95284    0.64712    1.000
    C296     C        0.40407    0.00123    0.62718    1.000
    C297     C        0.37967    0.03243    0.62630    1.000
    C298     C        0.33077    0.01493    0.64475    1.000
    C299     C        0.30729    0.96573    0.66375    1.000
    C300     C        0.39996    0.91465    0.65108    1.000
    C301     C        0.25467    0.94193    0.68418    1.000
    O173     O        0.53390    0.80643    0.16293    1.000
    O174     O        0.45696    0.90790    0.12508    1.000
    O175     O        0.56823    0.96732    0.13486    1.000
    O176     O        0.37710    0.95650    0.83369    1.000
    N44      N        0.59193    0.90911    0.17830    1.000
    C302     C        0.60350    0.87625    0.19849    1.000
    C303     C        0.64547    0.89573    0.22508    1.000
    C304     C        0.67577    0.95143    0.23047    1.000
    C305     C        0.66397    0.98523    0.20973    1.000
    C306     C        0.62147    0.96274    0.18407    1.000
    C307     C        0.56820    0.81775    0.18936    1.000
    C308     C        0.60338    0.99432    0.16009    1.000
    H121     H        0.39829    0.77361    0.73250    1.000
    H122     H        0.46054    0.74901    0.75726    1.000
    H123     H        0.48921    0.76881    0.82171    1.000
    H124     H        0.46497    0.68913    0.08722    1.000
    H125     H        0.44865    0.60595    0.06026    1.000
    H126     H        0.46460    0.60198    0.99415    1.000
    H127     H        0.43846    0.01300    0.61442    1.000
    H128     H        0.39662    0.06660    0.61242    1.000
    H129     H        0.31344    0.03690    0.64476    1.000
    H130     H        0.65311    0.87124    0.23962    1.000
    H131     H        0.70561    0.96635    0.24872    1.000
    H132     H        0.68515    0.02440    0.21322    1.000
    Eu45     Eu       0.04999    0.21227    0.19217    1.000
    Eu46     Eu       0.19069    0.14364    0.28921    1.000
    Eu47     Eu       0.94917    0.17628    0.03073    1.000
    Eu48     Eu       0.18446    0.20325    0.46110    1.000
    O177     O        0.01640    0.19200    0.12731    1.000
    O178     O        0.00545    0.15239    0.07061    1.000
    O179     O        0.11139    0.18705    0.22111    1.000
    O180     O        0.15213    0.13805    0.22500    1.000
    N45      N        0.07909    0.15671    0.15198    1.000
    C309     C        0.06243    0.14481    0.11576    1.000
    C310     C        0.07863    0.11627    0.09198    1.000
    C311     C        0.11413    0.10107    0.10685    1.000
    C312     C        0.13124    0.11307    0.14427    1.000
    C313     C        0.11230    0.14068    0.16615    1.000
    C314     C        0.02509    0.16417    0.10311    1.000
    C315     C        0.12664    0.15579    0.20718    1.000
    O181     O        0.17742    0.15341    0.35646    1.000
    O182     O        0.16911    0.12850    0.41759    1.000
    O183     O        0.17666    0.06163    0.25871    1.000
    O184     O        0.02378    0.18291    0.25894    1.000
    N46      N        0.16312    0.06185    0.33222    1.000
    C316     C        0.15578    0.06427    0.36965    1.000
    C317     C        0.13753    0.01967    0.39335    1.000
    C318     C        0.12823    0.97147    0.37760    1.000
    C319     C        0.13693    0.96887    0.33902    1.000
    C320     C        0.15404    0.01496    0.31707    1.000
    C321     C        0.16818    0.11939    0.38291    1.000
    C322     C        0.16397    0.01720    0.27510    1.000
    O185     O        0.03451    0.20254    0.99940    1.000
    O186     O        0.85056    0.11337    0.02641    1.000
    O187     O        0.90380    0.22846    0.03160    1.000
    O188     O        0.26238    0.23152    0.31357    1.000
    N47      N        0.99733    0.26817    0.99817    1.000
    C323     C        0.04494    0.28618    0.98046    1.000
    C324     C        0.07073    0.33457    0.96052    1.000
    C325     C        0.04633    0.36577    0.95964    1.000
    C326     C        0.99743    0.34827    0.97809    1.000
    C327     C        0.97395    0.29907    0.99709    1.000
    C328     C        0.06662    0.24799    0.98442    1.000
    C329     C        0.92133    0.27527    0.01752    1.000
    O189     O        0.20056    0.13977    0.49627    1.000
    O190     O        0.12362    0.24124    0.45842    1.000
    O191     O        0.23489    0.30066    0.46820    1.000
    O192     O        0.04376    0.28984    0.16703    1.000
    N48      N        0.25859    0.24245    0.51164    1.000
    C330     C        0.27016    0.20959    0.53183    1.000
    C331     C        0.31213    0.22907    0.55842    1.000
    C332     C        0.34243    0.28477    0.56381    1.000
    C333     C        0.33063    0.31857    0.54307    1.000
    C334     C        0.28813    0.29608    0.51741    1.000
    C335     C        0.23486    0.15109    0.52270    1.000
    C336     C        0.27004    0.32766    0.49343    1.000
    H133     H        0.06495    0.10695    0.06584    1.000
    H134     H        0.12720    0.08235    0.09060    1.000
    H135     H        0.15587    0.10215    0.15505    1.000
    H136     H        0.13163    0.02247    0.42056    1.000
    H137     H        0.11531    0.93929    0.39360    1.000
    H138     H        0.13126    0.93532    0.32749    1.000
    H139     H        0.10512    0.34634    0.94776    1.000
    H140     H        0.06328    0.39994    0.94576    1.000
    H141     H        0.98010    0.37024    0.97810    1.000
    H142     H        0.31977    0.20458    0.57296    1.000
    H143     H        0.37227    0.29969    0.58206    1.000
    H144     H        0.35181    0.35774    0.54656    1.000
    Eu49     Eu       0.45440    0.17106    0.52550    1.000
    Eu50     Eu       0.52303    0.38039    0.62254    1.000
    Eu51     Eu       0.49039    0.10623    0.36406    1.000
    Eu52     Eu       0.46341    0.31454    0.79444    1.000
    O193     O        0.47467    0.15774    0.46064    1.000
    O194     O        0.51428    0.18640    0.40394    1.000
    O195     O        0.47962    0.25768    0.55444    1.000
    O196     O        0.52862    0.34742    0.55833    1.000
    N49      N        0.50996    0.25572    0.48531    1.000
    C337     C        0.52186    0.25096    0.44909    1.000
    C338     C        0.55040    0.29570    0.42531    1.000
    C339     C        0.56560    0.34640    0.44018    1.000
    C340     C        0.55360    0.35151    0.47760    1.000
    C341     C        0.52599    0.30496    0.49948    1.000
    C342     C        0.50250    0.19426    0.43644    1.000
    C343     C        0.51088    0.30419    0.54051    1.000
    O197     O        0.51326    0.35735    0.68979    1.000
    O198     O        0.53817    0.37395    0.75092    1.000
    O199     O        0.60504    0.44837    0.59204    1.000
    O200     O        0.48376    0.17421    0.59227    1.000
    N50      N        0.60482    0.43461    0.66555    1.000
    C344     C        0.60240    0.42485    0.70298    1.000
    C345     C        0.64700    0.45120    0.72668    1.000
    C346     C        0.69520    0.49010    0.71093    1.000
    C347     C        0.69780    0.50140    0.67235    1.000
    C348     C        0.65171    0.47242    0.65040    1.000
    C349     C        0.54728    0.38213    0.71624    1.000
    C350     C        0.64947    0.48011    0.60843    1.000
    O201     O        0.46413    0.16531    0.33273    1.000
    O202     O        0.55330    0.07053    0.35974    1.000
    O203     O        0.43821    0.00868    0.36493    1.000
    O204     O        0.43515    0.36420    0.64690    1.000
    N51      N        0.39850    0.06250    0.33150    1.000
    C351     C        0.38049    0.09210    0.31379    1.000
    C352     C        0.33210    0.06950    0.29385    1.000
    C353     C        0.30090    0.01390    0.29297    1.000
    C354     C        0.31840    0.98250    0.31142    1.000
    C355     C        0.36760    0.00822    0.33042    1.000
    C356     C        0.41868    0.15197    0.31775    1.000
    C357     C        0.39140    0.97940    0.35085    1.000
    O205     O        0.52690    0.39413    0.82960    1.000
    O206     O        0.42543    0.21572    0.79175    1.000
    O207     O        0.36601    0.26757    0.80153    1.000
    O208     O        0.37683    0.08726    0.50036    1.000
    N52      N        0.42422    0.34948    0.84497    1.000
    C358     C        0.45708    0.39391    0.86516    1.000
    C359     C        0.43760    0.41640    0.89175    1.000
    C360     C        0.38190    0.39100    0.89714    1.000
    C361     C        0.34810    0.34540    0.87640    1.000
    C362     C        0.37059    0.32539    0.85074    1.000
    C363     C        0.51558    0.41711    0.85603    1.000
    C364     C        0.33901    0.27572    0.82676    1.000
    H145     H        0.55972    0.29134    0.39917    1.000
    H146     H        0.58432    0.37819    0.42393    1.000
    H147     H        0.56452    0.38706    0.48838    1.000
    H148     H        0.64420    0.44250    0.75389    1.000
    H149     H        0.72738    0.50936    0.72693    1.000
    H150     H        0.73135    0.52928    0.66082    1.000
    H151     H        0.32033    0.09212    0.28109    1.000
    H152     H        0.26673    0.99668    0.27909    1.000
    H153     H        0.29643    0.94320    0.31143    1.000
    H154     H        0.46209    0.44853    0.90629    1.000
    H155     H        0.36698    0.40592    0.91539    1.000
    H156     H        0.30893    0.32741    0.87989    1.000
    Eu53     Eu       0.12107    0.50439    0.85884    1.000
    Eu54     Eu       0.18970    0.71372    0.95587    1.000
    Eu55     Eu       0.15706    0.43956    0.69739    1.000
    Eu56     Eu       0.13008    0.64787    0.12777    1.000
    O209     O        0.14134    0.49107    0.79397    1.000
    O210     O        0.18095    0.51973    0.73727    1.000
    O211     O        0.14629    0.59101    0.88777    1.000
    O212     O        0.19529    0.68075    0.89166    1.000
    N53      N        0.17663    0.58905    0.81864    1.000
    C365     C        0.18853    0.58429    0.78242    1.000
    C366     C        0.21707    0.62903    0.75864    1.000
    C367     C        0.23227    0.67973    0.77351    1.000
    C368     C        0.22027    0.68484    0.81093    1.000
    C369     C        0.19266    0.63829    0.83281    1.000
    C370     C        0.16917    0.52759    0.76977    1.000
    C371     C        0.17755    0.63752    0.87384    1.000
    O213     O        0.17993    0.69068    0.02312    1.000
    O214     O        0.20484    0.70728    0.08425    1.000
    O215     O        0.27171    0.78170    0.92537    1.000
    O216     O        0.15043    0.50754    0.92560    1.000
    N54      N        0.27149    0.76794    0.99888    1.000
    C372     C        0.26907    0.75818    0.03631    1.000
    C373     C        0.31367    0.78453    0.06001    1.000
    C374     C        0.36187    0.82343    0.04426    1.000
    C375     C        0.36447    0.83473    0.00568    1.000
    C376     C        0.31838    0.80575    0.98373    1.000
    C377     C        0.21395    0.71546    0.04957    1.000
    C378     C        0.31614    0.81344    0.94176    1.000
    O217     O        0.13080    0.49864    0.66606    1.000
    O218     O        0.21997    0.40386    0.69307    1.000
    O219     O        0.10488    0.34201    0.69826    1.000
    O220     O        0.10182    0.69753    0.98023    1.000
    N55      N        0.06517    0.39583    0.66483    1.000
    C379     C        0.04716    0.42543    0.64712    1.000
    C380     C        0.99877    0.40283    0.62718    1.000
    C381     C        0.96757    0.34723    0.62630    1.000
    C382     C        0.98507    0.31583    0.64475    1.000
    C383     C        0.03427    0.34155    0.66375    1.000
    C384     C        0.08535    0.48530    0.65108    1.000
    C385     C        0.05807    0.31273    0.68418    1.000
    O221     O        0.19357    0.72746    0.16293    1.000
    O222     O        0.09210    0.54905    0.12508    1.000
    O223     O        0.03268    0.60090    0.13486    1.000
    O224     O        0.04350    0.42059    0.83369    1.000
    N56      N        0.09089    0.68281    0.17830    1.000
    C386     C        0.12375    0.72724    0.19849    1.000
    C387     C        0.10427    0.74973    0.22508    1.000
    C388     C        0.04857    0.72433    0.23047    1.000
    C389     C        0.01477    0.67873    0.20973    1.000
    C390     C        0.03726    0.65872    0.18407    1.000
    C391     C        0.18225    0.75044    0.18936    1.000
    C392     C        0.00568    0.60905    0.16009    1.000
    H157     H        0.22639    0.62467    0.73250    1.000
    H158     H        0.25099    0.71152    0.75726    1.000
    H159     H        0.23119    0.72039    0.82171    1.000
    H160     H        0.31087    0.77583    0.08722    1.000
    H161     H        0.39405    0.84269    0.06026    1.000
    H162     H        0.39802    0.86261    0.99415    1.000
    H163     H        0.98700    0.42545    0.61442    1.000
    H164     H        0.93340    0.33001    0.61242    1.000
    H165     H        0.96310    0.27653    0.64476    1.000
    H166     H        0.12876    0.78186    0.23962    1.000
    H167     H        0.03365    0.73925    0.24872    1.000
    H168     H        0.97560    0.66074    0.21322    1.000
    Eu57     Eu       0.78773    0.83773    0.19217    1.000
    Eu58     Eu       0.85636    0.04705    0.28921    1.000
    Eu59     Eu       0.82372    0.77290    0.03073    1.000
    Eu60     Eu       0.79675    0.98121    0.46110    1.000
    O225     O        0.80800    0.82441    0.12731    1.000
    O226     O        0.84761    0.85307    0.07061    1.000
    O227     O        0.81295    0.92435    0.22111    1.000
    O228     O        0.86195    0.01409    0.22500    1.000
    N57      N        0.84329    0.92239    0.15198    1.000
    C393     C        0.85519    0.91763    0.11576    1.000
    C394     C        0.88373    0.96237    0.09198    1.000
    C395     C        0.89893    0.01307    0.10685    1.000
    C396     C        0.88693    0.01818    0.14427    1.000
    C397     C        0.85932    0.97163    0.16615    1.000
    C398     C        0.83583    0.86093    0.10311    1.000
    C399     C        0.84421    0.97086    0.20718    1.000
    O229     O        0.84659    0.02402    0.35646    1.000
    O230     O        0.87150    0.04062    0.41759    1.000
    O231     O        0.93837    0.11504    0.25871    1.000
    O232     O        0.81709    0.84088    0.25894    1.000
    N58      N        0.93815    0.10128    0.33222    1.000
    C400     C        0.93573    0.09152    0.36965    1.000
    C401     C        0.98033    0.11787    0.39335    1.000
    C402     C        0.02853    0.15677    0.37760    1.000
    C403     C        0.03113    0.16807    0.33902    1.000
    C404     C        0.98504    0.13909    0.31707    1.000
    C405     C        0.88061    0.04880    0.38291    1.000
    C406     C        0.98280    0.14678    0.27510    1.000
    O233     O        0.79746    0.83198    0.99940    1.000
    O234     O        0.88663    0.73720    0.02641    1.000
    O235     O        0.77154    0.67535    0.03160    1.000
    O236     O        0.76848    0.03087    0.31357    1.000
    N59      N        0.73183    0.72917    0.99817    1.000
    C407     C        0.71382    0.75877    0.98046    1.000
    C408     C        0.66543    0.73617    0.96052    1.000
    C409     C        0.63423    0.68057    0.95964    1.000
    C410     C        0.65173    0.64917    0.97809    1.000
    C411     C        0.70093    0.67489    0.99709    1.000
    C412     C        0.75201    0.81864    0.98442    1.000
    C413     C        0.72473    0.64607    0.01752    1.000
    O237     O        0.86023    0.06080    0.49627    1.000
    O238     O        0.75876    0.88239    0.45842    1.000
    O239     O        0.69934    0.93424    0.46820    1.000
    O240     O        0.71016    0.75393    0.16703    1.000
    N60      N        0.75755    0.01615    0.51164    1.000
    C414     C        0.79041    0.06058    0.53183    1.000
    C415     C        0.77093    0.08307    0.55842    1.000
    C416     C        0.71523    0.05767    0.56381    1.000
    C417     C        0.68143    0.01207    0.54307    1.000
    C418     C        0.70392    0.99206    0.51741    1.000
    C419     C        0.84891    0.08378    0.52270    1.000
    C420     C        0.67234    0.94239    0.49343    1.000
    H169     H        0.89305    0.95801    0.06584    1.000
    H170     H        0.91765    0.04486    0.09060    1.000
    H171     H        0.89785    0.05373    0.15505    1.000
    H172     H        0.97753    0.10917    0.42056    1.000
    H173     H        0.06071    0.17603    0.39360    1.000
    H174     H        0.06468    0.19595    0.32749    1.000
    H175     H        0.65366    0.75879    0.94776    1.000
    H176     H        0.60006    0.66335    0.94576    1.000
    H177     H        0.62976    0.60987    0.97810    1.000
    H178     H        0.79542    0.11520    0.57296    1.000
    H179     H        0.70031    0.07259    0.58206    1.000
    H180     H        0.64226    0.99408    0.54656    1.000
    Eu61     Eu       0.82894    0.28334    0.52550    1.000
    Eu62     Eu       0.61961    0.14264    0.62254    1.000
    Eu63     Eu       0.89377    0.38416    0.36406    1.000
    Eu64     Eu       0.68546    0.14887    0.79444    1.000
    O241     O        0.84226    0.31693    0.46064    1.000
    O242     O        0.81360    0.32788    0.40394    1.000
    O243     O        0.74232    0.22194    0.55444    1.000
    O244     O        0.65258    0.18120    0.55833    1.000
    N61      N        0.74428    0.25424    0.48531    1.000
    C421     C        0.74904    0.27090    0.44909    1.000
    C422     C        0.70430    0.25470    0.42531    1.000
    C423     C        0.65360    0.21920    0.44018    1.000
    C424     C        0.64849    0.20209    0.47760    1.000
    C425     C        0.69504    0.22103    0.49948    1.000
    C426     C        0.80574    0.30824    0.43644    1.000
    C427     C        0.69581    0.20669    0.54051    1.000
    O245     O        0.64265    0.15591    0.68979    1.000
    O246     O        0.62605    0.16422    0.75092    1.000
    O247     O        0.55163    0.15667    0.59204    1.000
    O248     O        0.82579    0.30955    0.59227    1.000
    N62      N        0.56539    0.17021    0.66555    1.000
    C428     C        0.57515    0.17755    0.70298    1.000
    C429     C        0.54880    0.19580    0.72668    1.000
    C430     C        0.50990    0.20510    0.71093    1.000
    C431     C        0.49860    0.19640    0.67235    1.000
    C432     C        0.52758    0.17929    0.65040    1.000
    C433     C        0.61787    0.16515    0.71624    1.000
    C434     C        0.51989    0.16936    0.60843    1.000
    O249     O        0.83469    0.29882    0.33273    1.000
    O250     O        0.92947    0.48277    0.35974    1.000
    O251     O        0.99132    0.42953    0.36493    1.000
    O252     O        0.63580    0.07095    0.64690    1.000
    N63      N        0.93750    0.33600    0.33150    1.000
    C435     C        0.90790    0.28839    0.31379    1.000
    C436     C        0.93050    0.26260    0.29385    1.000
    C437     C        0.98610    0.28700    0.29297    1.000
    C438     C        0.01750    0.33590    0.31142    1.000
    C439     C        0.99178    0.35938    0.33042    1.000
    C440     C        0.84803    0.26671    0.31775    1.000
    C441     C        0.02060    0.41200    0.35085    1.000
    O253     O        0.60587    0.13277    0.82960    1.000
    O254     O        0.78428    0.20971    0.79175    1.000
    O255     O        0.73243    0.09844    0.80153    1.000
    O256     O        0.91274    0.28957    0.50036    1.000
    N64      N        0.65052    0.07474    0.84497    1.000
    C442     C        0.60609    0.06317    0.86516    1.000
    C443     C        0.58360    0.02120    0.89175    1.000
    C444     C        0.60900    0.99090    0.89714    1.000
    C445     C        0.65460    0.00270    0.87640    1.000
    C446     C        0.67461    0.04520    0.85074    1.000
    C447     C        0.58289    0.09847    0.85603    1.000
    C448     C        0.72428    0.06329    0.82676    1.000
    H181     H        0.70866    0.26838    0.39917    1.000
    H182     H        0.62181    0.20613    0.42393    1.000
    H183     H        0.61294    0.17746    0.48838    1.000
    H184     H        0.55750    0.20170    0.75389    1.000
    H185     H        0.49064    0.21802    0.72693    1.000
    H186     H        0.47072    0.20207    0.66082    1.000
    H187     H        0.90788    0.22821    0.28109    1.000
    H188     H        0.00332    0.27005    0.27909    1.000
    H189     H        0.05680    0.35323    0.31143    1.000
    H190     H        0.55147    0.01356    0.90629    1.000
    H191     H        0.59408    0.96106    0.91539    1.000
    H192     H        0.67259    0.98152    0.87989    1.000
    Eu65     Eu       0.49561    0.61667    0.85884    1.000
    Eu66     Eu       0.28628    0.47598    0.95587    1.000
    Eu67     Eu       0.56044    0.71749    0.69739    1.000
    Eu68     Eu       0.35213    0.48221    0.12777    1.000
    O257     O        0.50893    0.65026    0.79397    1.000
    O258     O        0.48027    0.66121    0.73727    1.000
    O259     O        0.40899    0.55527    0.88777    1.000
    O260     O        0.31925    0.51453    0.89166    1.000
    N65      N        0.41095    0.58757    0.81864    1.000
    C449     C        0.41571    0.60423    0.78242    1.000
    C450     C        0.37097    0.58803    0.75864    1.000
    C451     C        0.32027    0.55253    0.77351    1.000
    C452     C        0.31516    0.53542    0.81093    1.000
    C453     C        0.36171    0.55436    0.83281    1.000
    C454     C        0.47241    0.64157    0.76977    1.000
    C455     C        0.36248    0.54002    0.87384    1.000
    O261     O        0.30932    0.48924    0.02312    1.000
    O262     O        0.29272    0.49755    0.08425    1.000
    O263     O        0.21830    0.49000    0.92537    1.000
    O264     O        0.49246    0.64288    0.92560    1.000
    N66      N        0.23206    0.50354    0.99888    1.000
    C456     C        0.24182    0.51088    0.03631    1.000
    C457     C        0.21547    0.52913    0.06001    1.000
    C458     C        0.17657    0.53843    0.04426    1.000
    C459     C        0.16527    0.52973    0.00568    1.000
    C460     C        0.19425    0.51262    0.98373    1.000
    C461     C        0.28454    0.49848    0.04957    1.000
    C462     C        0.18656    0.50269    0.94176    1.000
    O265     O        0.50136    0.63215    0.66606    1.000
    O266     O        0.59614    0.81610    0.69307    1.000
    O267     O        0.65799    0.76286    0.69826    1.000
    O268     O        0.30247    0.40428    0.98023    1.000
    N67      N        0.60417    0.66933    0.66483    1.000
    C463     C        0.57457    0.62172    0.64712    1.000
    C464     C        0.59717    0.59593    0.62718    1.000
    C465     C        0.65277    0.62033    0.62630    1.000
    C466     C        0.68417    0.66923    0.64475    1.000
    C467     C        0.65845    0.69271    0.66375    1.000
    C468     C        0.51470    0.60004    0.65108    1.000
    C469     C        0.68727    0.74533    0.68418    1.000
    O269     O        0.27254    0.46610    0.16293    1.000
    O270     O        0.45095    0.54304    0.12508    1.000
    O271     O        0.39910    0.43177    0.13486    1.000
    O272     O        0.57941    0.62290    0.83369    1.000
    N68      N        0.31719    0.40807    0.17830    1.000
    C470     C        0.27276    0.39650    0.19849    1.000
    C471     C        0.25027    0.35453    0.22508    1.000
    C472     C        0.27567    0.32423    0.23047    1.000
    C473     C        0.32127    0.33603    0.20973    1.000
    C474     C        0.34128    0.37853    0.18407    1.000
    C475     C        0.24956    0.43180    0.18936    1.000
    C476     C        0.39095    0.39662    0.16009    1.000
    H193     H        0.37533    0.60171    0.73250    1.000
    H194     H        0.28848    0.53946    0.75726    1.000
    H195     H        0.27961    0.51079    0.82171    1.000
    H196     H        0.22417    0.53503    0.08722    1.000
    H197     H        0.15731    0.55135    0.06026    1.000
    H198     H        0.13739    0.53540    0.99415    1.000
    H199     H        0.57455    0.56154    0.61442    1.000
    H200     H        0.66999    0.60338    0.61242    1.000
    H201     H        0.72347    0.68656    0.64476    1.000
    H202     H        0.21814    0.34689    0.23962    1.000
    H203     H        0.26075    0.29439    0.24872    1.000
    H204     H        0.33926    0.31485    0.21322    1.000
    Eu69     Eu       0.16227    0.95001    0.19217    1.000
    Eu70     Eu       0.95295    0.80931    0.28921    1.000
    Eu71     Eu       0.22710    0.05083    0.03073    1.000
    Eu72     Eu       0.01879    0.81554    0.46110    1.000
    O273     O        0.17559    0.98360    0.12731    1.000
    O274     O        0.14693    0.99455    0.07061    1.000
    O275     O        0.07565    0.88861    0.22111    1.000
    O276     O        0.98591    0.84787    0.22500    1.000
    N69      N        0.07761    0.92091    0.15198    1.000
    C477     C        0.08237    0.93757    0.11576    1.000
    C478     C        0.03763    0.92137    0.09198    1.000
    C479     C        0.98693    0.88587    0.10685    1.000
    C480     C        0.98182    0.86876    0.14427    1.000
    C481     C        0.02837    0.88770    0.16615    1.000
    C482     C        0.13907    0.97491    0.10311    1.000
    C483     C        0.02914    0.87336    0.20718    1.000
    O277     O        0.97598    0.82258    0.35646    1.000
    O278     O        0.95938    0.83089    0.41759    1.000
    O279     O        0.88496    0.82334    0.25871    1.000
    O280     O        0.15912    0.97622    0.25894    1.000
    N70      N        0.89872    0.83688    0.33222    1.000
    C484     C        0.90848    0.84422    0.36965    1.000
    C485     C        0.88213    0.86247    0.39335    1.000
    C486     C        0.84323    0.87177    0.37760    1.000
    C487     C        0.83193    0.86307    0.33902    1.000
    C488     C        0.86091    0.84596    0.31707    1.000
    C489     C        0.95120    0.83182    0.38291    1.000
    C490     C        0.85322    0.83603    0.27510    1.000
    O281     O        0.16802    0.96549    0.99940    1.000
    O282     O        0.26280    0.14944    0.02641    1.000
    O283     O        0.32465    0.09620    0.03160    1.000
    O284     O        0.96913    0.73762    0.31357    1.000
    N71      N        0.27083    0.00267    0.99817    1.000
    C491     C        0.24123    0.95506    0.98046    1.000
    C492     C        0.26383    0.92927    0.96052    1.000
    C493     C        0.31943    0.95367    0.95964    1.000
    C494     C        0.35083    0.00257    0.97809    1.000
    C495     C        0.32511    0.02605    0.99709    1.000
    C496     C        0.18136    0.93338    0.98442    1.000
    C497     C        0.35393    0.07867    0.01752    1.000
    O285     O        0.93920    0.79944    0.49627    1.000
    O286     O        0.11761    0.87638    0.45842    1.000
    O287     O        0.06576    0.76511    0.46820    1.000
    O288     O        0.24607    0.95624    0.16703    1.000
    N72      N        0.98385    0.74141    0.51164    1.000
    C498     C        0.93942    0.72984    0.53183    1.000
    C499     C        0.91693    0.68787    0.55842    1.000
    C500     C        0.94233    0.65757    0.56381    1.000
    C501     C        0.98793    0.66937    0.54307    1.000
    C502     C        0.00794    0.71187    0.51741    1.000
    C503     C        0.91622    0.76514    0.52270    1.000
    C504     C        0.05761    0.72996    0.49343    1.000
    H205     H        0.04199    0.93505    0.06584    1.000
    H206     H        0.95514    0.87280    0.09060    1.000
    H207     H        0.94627    0.84413    0.15505    1.000
    H208     H        0.89083    0.86837    0.42056    1.000
    H209     H        0.82397    0.88469    0.39360    1.000
    H210     H        0.80405    0.86874    0.32749    1.000
    H211     H        0.24121    0.89488    0.94776    1.000
    H212     H        0.33665    0.93672    0.94576    1.000
    H213     H        0.39013    0.01990    0.97810    1.000
    H214     H        0.88480    0.68023    0.57296    1.000
    H215     H        0.92741    0.62773    0.58206    1.000
    H216     H        0.00592    0.64819    0.54656    1.000
