data_functionalizedCrystal
_audit_creation_method	'EQeq! by Chris Wilmer'
_symmetry_space_group_name_H-M	'P1'
_symmetry_Int_Tables_number	1
_symmetry_cell_setting	triclinic
loop_
_symmetry_equiv_pos_as_xyz
  x,y,z
_cell_length_a	19.003
_cell_length_b	19.003
_cell_length_c	16.916
_cell_angle_alpha	90
_cell_angle_beta	90
_cell_angle_gamma	120
loop_
_atom_site_label
_atom_site_type_symbol
_atom_site_fract_x
_atom_site_fract_y
_atom_site_fract_z
_atom_site_charge
Mof_N 	N 	0.4857	0.2298	0.6338	-0.207
Mof_H 	H 	0.5071	0.2077	0.6619	0.092
Mof_N 	N 	0.489	0.3002	0.6536	-0.227
Mof_N 	N 	0.2808	0.2033	0.3757	-0.213
Mof_H 	H 	0.2357	0.1743	0.3512	0.09
Mof_C 	C 	0.3742	0.2443	0.4662	-0.156
Mof_C 	C 	0.2984	0.1824	0.4462	0.251
Mof_C 	C 	0.2417	0.1049	0.4857	-0.736
Mof_H 	H 	0.1868	0.0912	0.4744	0.216
Mof_H 	H 	0.2506	0.1108	0.5418	0.227
Mof_H 	H 	0.251	0.0627	0.4666	0.222
Mof_C 	C 	0.401	0.301	0.402	0.222
Mof_C 	C 	0.4215	0.2515	0.5383	-0.145
Mof_C 	C 	0.4457	0.1977	0.5656	0.25
Mof_C 	C 	0.4498	0.3144	0.5953	0.208
Mof_C 	C 	0.4375	0.1224	0.5313	-0.73
Mof_H 	H 	0.451	0.0946	0.5705	0.215
Mof_H 	H 	0.4735	0.1359	0.487	0.22
Mof_H 	H 	0.3825	0.0879	0.5141	0.223
Mof_C 	C 	0.4376	0.386	0.5988	-0.655
Mof_H 	H 	0.4549	0.4118	0.6495	0.168
Mof_H 	H 	0.3811	0.3684	0.5913	0.192
Mof_H 	H 	0.469	0.4239	0.558	0.188
Mof_C 	C 	0.4795	0.378	0.3904	-0.685
Mof_H 	H 	0.4749	0.4228	0.4104	0.191
Mof_H 	H 	0.4922	0.3859	0.335	0.183
Mof_H 	H 	0.5219	0.3749	0.4181	0.21
Mof_N 	N 	0.3428	0.276	0.3474	-0.235
Mof_H 	H 	0.9454	0.7015	0.7037	0.216
Mof_N 	N 	0.7702	0.2559	0.6338	-0.208
Mof_H 	H 	0.7923	0.2994	0.6619	0.091
Mof_N 	N 	0.6998	0.1888	0.6536	-0.228
Mof_N 	N 	0.7967	0.0775	0.3757	-0.214
Mof_H 	H 	0.8257	0.0614	0.3512	0.089
Mof_C 	C 	0.7557	0.1299	0.4662	-0.157
Mof_C 	C 	0.8176	0.116	0.4462	0.251
Mof_C 	C 	0.8951	0.1368	0.4857	-0.738
Mof_H 	H 	0.9088	0.0956	0.4744	0.216
Mof_H 	H 	0.8892	0.1398	0.5418	0.227
Mof_H 	H 	0.9373	0.1883	0.4666	0.221
Mof_C 	C 	0.699	0.1	0.402	0.221
Mof_C 	C 	0.7485	0.17	0.5383	-0.146
Mof_C 	C 	0.8023	0.248	0.5656	0.249
Mof_C 	C 	0.6856	0.1354	0.5953	0.207
Mof_C 	C 	0.8776	0.3151	0.5313	-0.731
Mof_H 	H 	0.9054	0.3564	0.5705	0.214
Mof_H 	H 	0.8641	0.3376	0.487	0.219
Mof_H 	H 	0.9121	0.2946	0.5141	0.222
Mof_C 	C 	0.614	0.0516	0.5988	-0.656
Mof_H 	H 	0.5882	0.0431	0.6495	0.168
Mof_H 	H 	0.6316	0.0127	0.5913	0.192
Mof_H 	H 	0.5761	0.0451	0.558	0.188
Mof_C 	C 	0.622	0.1015	0.3904	-0.685
Mof_H 	H 	0.5772	0.0521	0.4104	0.191
Mof_H 	H 	0.6141	0.1063	0.335	0.183
Mof_H 	H 	0.6251	0.147	0.4181	0.21
Mof_N 	N 	0.724	0.0668	0.3474	-0.235
Mof_H 	H 	0.2985	0.2439	0.7037	0.216
Mof_N 	N 	0.7441	0.5143	0.6338	-0.208
Mof_H 	H 	0.7006	0.4929	0.6619	0.091
Mof_N 	N 	0.8112	0.511	0.6536	-0.228
Mof_N 	N 	0.9225	0.7192	0.3757	-0.214
Mof_H 	H 	0.9386	0.7643	0.3512	0.089
Mof_C 	C 	0.8701	0.6258	0.4662	-0.157
Mof_C 	C 	0.884	0.7016	0.4462	0.25
Mof_C 	C 	0.8632	0.7583	0.4857	-0.737
Mof_H 	H 	0.9044	0.8132	0.4744	0.215
Mof_H 	H 	0.8602	0.7494	0.5418	0.226
Mof_H 	H 	0.8117	0.749	0.4666	0.221
Mof_C 	C 	0.9	0.599	0.402	0.221
Mof_C 	C 	0.83	0.5785	0.5383	-0.146
Mof_C 	C 	0.752	0.5543	0.5656	0.249
Mof_C 	C 	0.8646	0.5502	0.5953	0.207
Mof_C 	C 	0.6849	0.5625	0.5313	-0.731
Mof_H 	H 	0.6436	0.549	0.5705	0.214
Mof_H 	H 	0.6624	0.5265	0.487	0.219
Mof_H 	H 	0.7054	0.6175	0.5141	0.222
Mof_C 	C 	0.9484	0.5624	0.5988	-0.656
Mof_H 	H 	0.9569	0.5451	0.6495	0.168
Mof_H 	H 	0.9873	0.6189	0.5913	0.192
Mof_H 	H 	0.9549	0.531	0.558	0.188
Mof_C 	C 	0.8985	0.5205	0.3904	-0.685
Mof_H 	H 	0.9479	0.5251	0.4104	0.191
Mof_H 	H 	0.8937	0.5078	0.335	0.183
Mof_H 	H 	0.853	0.4781	0.4181	0.21
Mof_N 	N 	0.9332	0.6572	0.3474	-0.235
Mof_H 	H 	0.7561	0.0546	0.7037	0.216
Mof_N 	N 	0.5143	0.7702	0.1338	-0.208
Mof_H 	H 	0.4929	0.7923	0.1619	0.091
Mof_N 	N 	0.511	0.6998	0.1536	-0.228
Mof_N 	N 	0.7192	0.7967	0.8757	-0.214
Mof_H 	H 	0.7643	0.8257	0.8512	0.089
Mof_C 	C 	0.6258	0.7557	0.9662	-0.155
Mof_C 	C 	0.7016	0.8176	0.9462	0.249
Mof_C 	C 	0.7583	0.8951	0.9857	-0.734
Mof_H 	H 	0.8132	0.9088	0.9744	0.215
Mof_H 	H 	0.7494	0.8892	0.0418	0.225
Mof_H 	H 	0.749	0.9373	0.9666	0.22
Mof_C 	C 	0.599	0.699	0.902	0.22
Mof_C 	C 	0.5785	0.7485	0.0383	-0.148
Mof_C 	C 	0.5543	0.8023	0.0656	0.251
Mof_C 	C 	0.5502	0.6856	0.0953	0.208
Mof_C 	C 	0.5625	0.8776	0.0313	-0.738
Mof_H 	H 	0.549	0.9054	0.0705	0.215
Mof_H 	H 	0.5265	0.8641	0.987	0.222
Mof_H 	H 	0.6175	0.9121	0.0141	0.223
Mof_C 	C 	0.5624	0.614	0.0988	-0.656
Mof_H 	H 	0.5451	0.5882	0.1495	0.169
Mof_H 	H 	0.6189	0.6316	0.0913	0.192
Mof_H 	H 	0.531	0.5761	0.058	0.188
Mof_C 	C 	0.5205	0.622	0.8904	-0.684
Mof_H 	H 	0.5251	0.5772	0.9104	0.19
Mof_H 	H 	0.5078	0.6141	0.835	0.183
Mof_H 	H 	0.4781	0.6251	0.9181	0.21
Mof_N 	N 	0.6572	0.724	0.8474	-0.235
Mof_H 	H 	0.0546	0.2985	0.2037	0.216
Mof_N 	N 	0.2298	0.7441	0.1338	-0.209
Mof_H 	H 	0.2077	0.7006	0.1619	0.091
Mof_N 	N 	0.3002	0.8112	0.1536	-0.228
Mof_N 	N 	0.2033	0.9225	0.8757	-0.213
Mof_H 	H 	0.1743	0.9386	0.8512	0.089
Mof_C 	C 	0.2443	0.8701	0.9662	-0.152
Mof_C 	C 	0.1824	0.884	0.9462	0.246
Mof_C 	C 	0.1049	0.8632	0.9857	-0.724
Mof_H 	H 	0.0912	0.9044	0.9744	0.212
Mof_H 	H 	0.1108	0.8602	0.0418	0.22
Mof_H 	H 	0.0627	0.8117	0.9666	0.218
Mof_C 	C 	0.301	0.9	0.902	0.22
Mof_C 	C 	0.2515	0.83	0.0383	-0.151
Mof_C 	C 	0.1977	0.752	0.0656	0.253
Mof_C 	C 	0.3144	0.8646	0.0953	0.208
Mof_C 	C 	0.1224	0.6849	0.0313	-0.743
Mof_H 	H 	0.0946	0.6436	0.0705	0.217
Mof_H 	H 	0.1359	0.6624	0.987	0.224
Mof_H 	H 	0.0879	0.7054	0.0141	0.224
Mof_C 	C 	0.386	0.9484	0.0988	-0.657
Mof_H 	H 	0.4118	0.9569	0.1495	0.168
Mof_H 	H 	0.3684	0.9873	0.0913	0.192
Mof_H 	H 	0.4239	0.9549	0.058	0.188
Mof_C 	C 	0.378	0.8985	0.8904	-0.684
Mof_H 	H 	0.4228	0.9479	0.9104	0.191
Mof_H 	H 	0.3859	0.8937	0.835	0.183
Mof_H 	H 	0.3749	0.853	0.9181	0.21
Mof_N 	N 	0.276	0.9332	0.8474	-0.235
Mof_H 	H 	0.7015	0.7561	0.2037	0.216
Mof_N 	N 	0.2559	0.4857	0.1338	-0.208
Mof_H 	H 	0.2994	0.5071	0.1619	0.091
Mof_N 	N 	0.1888	0.489	0.1536	-0.228
Mof_N 	N 	0.0775	0.2808	0.8757	-0.214
Mof_H 	H 	0.0614	0.2357	0.8512	0.089
Mof_C 	C 	0.1299	0.3742	0.9662	-0.155
Mof_C 	C 	0.116	0.2984	0.9462	0.249
Mof_C 	C 	0.1368	0.2417	0.9857	-0.735
Mof_H 	H 	0.0956	0.1868	0.9744	0.215
Mof_H 	H 	0.1398	0.2506	0.0418	0.225
Mof_H 	H 	0.1883	0.251	0.9666	0.22
Mof_C 	C 	0.1	0.401	0.902	0.221
Mof_C 	C 	0.17	0.4215	0.0383	-0.148
Mof_C 	C 	0.248	0.4457	0.0656	0.25
Mof_C 	C 	0.1354	0.4498	0.0953	0.207
Mof_C 	C 	0.3151	0.4375	0.0313	-0.734
Mof_H 	H 	0.3564	0.451	0.0705	0.215
Mof_H 	H 	0.3376	0.4735	0.987	0.22
Mof_H 	H 	0.2946	0.3825	0.0141	0.222
Mof_C 	C 	0.0516	0.4376	0.0988	-0.655
Mof_H 	H 	0.0431	0.4549	0.1495	0.168
Mof_H 	H 	0.0127	0.3811	0.0913	0.192
Mof_H 	H 	0.0451	0.469	0.058	0.187
Mof_C 	C 	0.1015	0.4795	0.8904	-0.685
Mof_H 	H 	0.0521	0.4749	0.9104	0.191
Mof_H 	H 	0.1063	0.4922	0.835	0.183
Mof_H 	H 	0.147	0.5219	0.9181	0.211
Mof_N 	N 	0.0668	0.3428	0.8474	-0.235
Mof_H 	H 	0.2439	0.9454	0.2037	0.216
Mof_N 	N 	0.5143	0.7702	0.3662	-0.208
Mof_H 	H 	0.4929	0.7923	0.3381	0.091
Mof_N 	N 	0.511	0.6998	0.3464	-0.228
Mof_N 	N 	0.7192	0.7967	0.6243	-0.214
Mof_H 	H 	0.7643	0.8257	0.6488	0.089
Mof_C 	C 	0.6258	0.7557	0.5338	-0.157
Mof_C 	C 	0.7016	0.8176	0.5538	0.25
Mof_C 	C 	0.7583	0.8951	0.5143	-0.737
Mof_H 	H 	0.8132	0.9088	0.5256	0.215
Mof_H 	H 	0.7494	0.8892	0.4582	0.226
Mof_H 	H 	0.749	0.9373	0.5334	0.221
Mof_C 	C 	0.599	0.699	0.598	0.221
Mof_C 	C 	0.5785	0.7485	0.4617	-0.146
Mof_C 	C 	0.5543	0.8023	0.4344	0.249
Mof_C 	C 	0.5502	0.6856	0.4047	0.207
Mof_C 	C 	0.5625	0.8776	0.4687	-0.731
Mof_H 	H 	0.549	0.9054	0.4295	0.214
Mof_H 	H 	0.5265	0.8641	0.513	0.219
Mof_H 	H 	0.6175	0.9121	0.4859	0.222
Mof_C 	C 	0.5624	0.614	0.4012	-0.656
Mof_H 	H 	0.5451	0.5882	0.3505	0.168
Mof_H 	H 	0.6189	0.6316	0.4087	0.192
Mof_H 	H 	0.531	0.5761	0.442	0.188
Mof_C 	C 	0.5205	0.622	0.6096	-0.685
Mof_H 	H 	0.5251	0.5772	0.5896	0.191
Mof_H 	H 	0.5078	0.6141	0.665	0.183
Mof_H 	H 	0.4781	0.6251	0.5819	0.21
Mof_N 	N 	0.6572	0.724	0.6526	-0.235
Mof_H 	H 	0.0546	0.2985	0.2963	0.216
Mof_N 	N 	0.2298	0.7441	0.3662	-0.208
Mof_H 	H 	0.2077	0.7006	0.3381	0.091
Mof_N 	N 	0.3002	0.8112	0.3464	-0.228
Mof_N 	N 	0.2033	0.9225	0.6243	-0.214
Mof_H 	H 	0.1743	0.9386	0.6488	0.089
Mof_C 	C 	0.2443	0.8701	0.5338	-0.157
Mof_C 	C 	0.1824	0.884	0.5538	0.251
Mof_C 	C 	0.1049	0.8632	0.5143	-0.738
Mof_H 	H 	0.0912	0.9044	0.5256	0.216
Mof_H 	H 	0.1108	0.8602	0.4582	0.227
Mof_H 	H 	0.0627	0.8117	0.5334	0.221
Mof_C 	C 	0.301	0.9	0.598	0.221
Mof_C 	C 	0.2515	0.83	0.4617	-0.146
Mof_C 	C 	0.1977	0.752	0.4344	0.249
Mof_C 	C 	0.3144	0.8646	0.4047	0.207
Mof_C 	C 	0.1224	0.6849	0.4687	-0.731
Mof_H 	H 	0.0946	0.6436	0.4295	0.214
Mof_H 	H 	0.1359	0.6624	0.513	0.219
Mof_H 	H 	0.0879	0.7054	0.4859	0.222
Mof_C 	C 	0.386	0.9484	0.4012	-0.656
Mof_H 	H 	0.4118	0.9569	0.3505	0.168
Mof_H 	H 	0.3684	0.9873	0.4087	0.192
Mof_H 	H 	0.4239	0.9549	0.442	0.188
Mof_C 	C 	0.378	0.8985	0.6096	-0.685
Mof_H 	H 	0.4228	0.9479	0.5896	0.191
Mof_H 	H 	0.3859	0.8937	0.665	0.183
Mof_H 	H 	0.3749	0.853	0.5819	0.21
Mof_N 	N 	0.276	0.9332	0.6526	-0.235
Mof_H 	H 	0.7015	0.7561	0.2963	0.216
Mof_N 	N 	0.2559	0.4857	0.3662	-0.208
Mof_H 	H 	0.2994	0.5071	0.3381	0.091
Mof_N 	N 	0.1888	0.489	0.3464	-0.228
Mof_N 	N 	0.0775	0.2808	0.6243	-0.214
Mof_H 	H 	0.0614	0.2357	0.6488	0.089
Mof_C 	C 	0.1299	0.3742	0.5338	-0.157
Mof_C 	C 	0.116	0.2984	0.5538	0.25
Mof_C 	C 	0.1368	0.2417	0.5143	-0.737
Mof_H 	H 	0.0956	0.1868	0.5256	0.215
Mof_H 	H 	0.1398	0.2506	0.4582	0.226
Mof_H 	H 	0.1883	0.251	0.5334	0.221
Mof_C 	C 	0.1	0.401	0.598	0.221
Mof_C 	C 	0.17	0.4215	0.4617	-0.146
Mof_C 	C 	0.248	0.4457	0.4344	0.249
Mof_C 	C 	0.1354	0.4498	0.4047	0.207
Mof_C 	C 	0.3151	0.4375	0.4687	-0.731
Mof_H 	H 	0.3564	0.451	0.4295	0.214
Mof_H 	H 	0.3376	0.4735	0.513	0.219
Mof_H 	H 	0.2946	0.3825	0.4859	0.222
Mof_C 	C 	0.0516	0.4376	0.4012	-0.656
Mof_H 	H 	0.0431	0.4549	0.3505	0.168
Mof_H 	H 	0.0127	0.3811	0.4087	0.192
Mof_H 	H 	0.0451	0.469	0.442	0.188
Mof_C 	C 	0.1015	0.4795	0.6096	-0.685
Mof_H 	H 	0.0521	0.4749	0.5896	0.191
Mof_H 	H 	0.1063	0.4922	0.665	0.183
Mof_H 	H 	0.147	0.5219	0.5819	0.21
Mof_N 	N 	0.0668	0.3428	0.6526	-0.235
Mof_H 	H 	0.2439	0.9454	0.2963	0.216
Mof_N 	N 	0.4857	0.2298	0.8662	-0.208
Mof_H 	H 	0.5071	0.2077	0.8381	0.091
Mof_N 	N 	0.489	0.3002	0.8464	-0.228
Mof_N 	N 	0.2808	0.2033	0.1243	-0.214
Mof_H 	H 	0.2357	0.1743	0.1488	0.089
Mof_C 	C 	0.3742	0.2443	0.0338	-0.155
Mof_C 	C 	0.2984	0.1824	0.0538	0.249
Mof_C 	C 	0.2417	0.1049	0.0143	-0.734
Mof_H 	H 	0.1868	0.0912	0.0256	0.215
Mof_H 	H 	0.2506	0.1108	0.9582	0.225
Mof_H 	H 	0.251	0.0627	0.0334	0.22
Mof_C 	C 	0.401	0.301	0.098	0.22
Mof_C 	C 	0.4215	0.2515	0.9617	-0.148
Mof_C 	C 	0.4457	0.1977	0.9344	0.251
Mof_C 	C 	0.4498	0.3144	0.9047	0.208
Mof_C 	C 	0.4375	0.1224	0.9687	-0.738
Mof_H 	H 	0.451	0.0946	0.9295	0.215
Mof_H 	H 	0.4735	0.1359	0.013	0.222
Mof_H 	H 	0.3825	0.0879	0.9859	0.223
Mof_C 	C 	0.4376	0.386	0.9012	-0.656
Mof_H 	H 	0.4549	0.4118	0.8505	0.169
Mof_H 	H 	0.3811	0.3684	0.9087	0.192
Mof_H 	H 	0.469	0.4239	0.942	0.188
Mof_C 	C 	0.4795	0.378	0.1096	-0.684
Mof_H 	H 	0.4749	0.4228	0.0896	0.19
Mof_H 	H 	0.4922	0.3859	0.165	0.183
Mof_H 	H 	0.5219	0.3749	0.0819	0.21
Mof_N 	N 	0.3428	0.276	0.1526	-0.235
Mof_H 	H 	0.9454	0.7015	0.7963	0.216
Mof_N 	N 	0.7702	0.2559	0.8662	-0.209
Mof_H 	H 	0.7923	0.2994	0.8381	0.091
Mof_N 	N 	0.6998	0.1888	0.8464	-0.228
Mof_N 	N 	0.7967	0.0775	0.1243	-0.213
Mof_H 	H 	0.8257	0.0614	0.1488	0.089
Mof_C 	C 	0.7557	0.1299	0.0338	-0.152
Mof_C 	C 	0.8176	0.116	0.0538	0.246
Mof_C 	C 	0.8951	0.1368	0.0143	-0.724
Mof_H 	H 	0.9088	0.0956	0.0256	0.212
Mof_H 	H 	0.8892	0.1398	0.9582	0.22
Mof_H 	H 	0.9373	0.1883	0.0334	0.218
Mof_C 	C 	0.699	0.1	0.098	0.22
Mof_C 	C 	0.7485	0.17	0.9617	-0.151
Mof_C 	C 	0.8023	0.248	0.9344	0.253
Mof_C 	C 	0.6856	0.1354	0.9047	0.208
Mof_C 	C 	0.8776	0.3151	0.9687	-0.743
Mof_H 	H 	0.9054	0.3564	0.9295	0.217
Mof_H 	H 	0.8641	0.3376	0.013	0.224
Mof_H 	H 	0.9121	0.2946	0.9859	0.224
Mof_C 	C 	0.614	0.0516	0.9012	-0.657
Mof_H 	H 	0.5882	0.0431	0.8505	0.168
Mof_H 	H 	0.6316	0.0127	0.9087	0.192
Mof_H 	H 	0.5761	0.0451	0.942	0.188
Mof_C 	C 	0.622	0.1015	0.1096	-0.684
Mof_H 	H 	0.5772	0.0521	0.0896	0.191
Mof_H 	H 	0.6141	0.1063	0.165	0.183
Mof_H 	H 	0.6251	0.147	0.0819	0.21
Mof_N 	N 	0.724	0.0668	0.1526	-0.235
Mof_H 	H 	0.2985	0.2439	0.7963	0.216
Mof_N 	N 	0.7441	0.5143	0.8662	-0.208
Mof_H 	H 	0.7006	0.4929	0.8381	0.091
Mof_N 	N 	0.8112	0.511	0.8464	-0.228
Mof_N 	N 	0.9225	0.7192	0.1243	-0.214
Mof_H 	H 	0.9386	0.7643	0.1488	0.089
Mof_C 	C 	0.8701	0.6258	0.0338	-0.155
Mof_C 	C 	0.884	0.7016	0.0538	0.249
Mof_C 	C 	0.8632	0.7583	0.0143	-0.735
Mof_H 	H 	0.9044	0.8132	0.0256	0.215
Mof_H 	H 	0.8602	0.7494	0.9582	0.225
Mof_H 	H 	0.8117	0.749	0.0334	0.22
Mof_C 	C 	0.9	0.599	0.098	0.221
Mof_C 	C 	0.83	0.5785	0.9617	-0.148
Mof_C 	C 	0.752	0.5543	0.9344	0.25
Mof_C 	C 	0.8646	0.5502	0.9047	0.207
Mof_C 	C 	0.6849	0.5625	0.9687	-0.734
Mof_H 	H 	0.6436	0.549	0.9295	0.215
Mof_H 	H 	0.6624	0.5265	0.013	0.22
Mof_H 	H 	0.7054	0.6175	0.9859	0.222
Mof_C 	C 	0.9484	0.5624	0.9012	-0.655
Mof_H 	H 	0.9569	0.5451	0.8505	0.168
Mof_H 	H 	0.9873	0.6189	0.9087	0.192
Mof_H 	H 	0.9549	0.531	0.942	0.187
Mof_C 	C 	0.8985	0.5205	0.1096	-0.685
Mof_H 	H 	0.9479	0.5251	0.0896	0.191
Mof_H 	H 	0.8937	0.5078	0.165	0.183
Mof_H 	H 	0.853	0.4781	0.0819	0.211
Mof_N 	N 	0.9332	0.6572	0.1526	-0.235
Mof_H 	H 	0.7561	0.0546	0.7963	0.216
Mof_Cu	Cu	0.66932	0.66706	0.75	0.85
Mof_Cu	Cu	0.54774	0.36667	0.75	0.85
Mof_C 	C 	0.6183	0.5537	0.75	-0.235
Mof_N 	N 	0.5929	0.4823	0.75	-0.219
Mof_N 	N 	0.792	0.7079	0.75	-0.312
Mof_C 	C 	0.8528	0.7151	0.75	0.237
Mof_C 	C 	0.9383	0.7264	0.75	-0.723
Mof_H 	H 	0.9777	0.7834	0.75	0.211
Mof_Cu	Cu	0.33294	0.00226	0.75	0.85
Mof_Cu	Cu	0.63333	0.18107	0.75	0.85
Mof_C 	C 	0.4463	0.0646	0.75	-0.235
Mof_N 	N 	0.5177	0.1106	0.75	-0.219
Mof_N 	N 	0.2921	0.0841	0.75	-0.313
Mof_C 	C 	0.2849	0.1377	0.75	0.237
Mof_C 	C 	0.2736	0.2119	0.75	-0.723
Mof_H 	H 	0.2166	0.1943	0.75	0.212
Mof_Cu	Cu	0.99774	0.33068	0.75	0.85
Mof_Cu	Cu	0.81893	0.45226	0.75	0.85
Mof_C 	C 	0.9354	0.3817	0.75	-0.235
Mof_N 	N 	0.8894	0.4071	0.75	-0.219
Mof_N 	N 	0.9159	0.208	0.75	-0.312
Mof_C 	C 	0.8623	0.1472	0.75	0.237
Mof_C 	C 	0.7881	0.0617	0.75	-0.723
Mof_H 	H 	0.8057	0.0223	0.75	0.212
Mof_Cu	Cu	0.33068	0.33294	0.25	0.85
Mof_Cu	Cu	0.45226	0.63333	0.25	0.85
Mof_C 	C 	0.3817	0.4463	0.25	-0.235
Mof_N 	N 	0.4071	0.5177	0.25	-0.219
Mof_N 	N 	0.208	0.2921	0.25	-0.312
Mof_C 	C 	0.1472	0.2849	0.25	0.237
Mof_C 	C 	0.0617	0.2736	0.25	-0.723
Mof_H 	H 	0.0223	0.2166	0.25	0.211
Mof_Cu	Cu	0.66706	0.99774	0.25	0.85
Mof_Cu	Cu	0.36667	0.81893	0.25	0.85
Mof_C 	C 	0.5537	0.9354	0.25	-0.235
Mof_N 	N 	0.4823	0.8894	0.25	-0.219
Mof_N 	N 	0.7079	0.9159	0.25	-0.313
Mof_C 	C 	0.7151	0.8623	0.25	0.237
Mof_C 	C 	0.7264	0.7881	0.25	-0.723
Mof_H 	H 	0.7834	0.8057	0.25	0.212
Mof_Cu	Cu	0.00226	0.66932	0.25	0.85
Mof_Cu	Cu	0.18107	0.54774	0.25	0.85
Mof_C 	C 	0.0646	0.6183	0.25	-0.235
Mof_N 	N 	0.1106	0.5929	0.25	-0.219
Mof_N 	N 	0.0841	0.792	0.25	-0.312
Mof_C 	C 	0.1377	0.8528	0.25	0.237
Mof_C 	C 	0.2119	0.9383	0.25	-0.723
Mof_H 	H 	0.1943	0.9777	0.25	0.212
Mof_Br	Br	0.66667	0.33333	0.75	-0.64
Mof_Br	Br	0.33333	0.66667	0.25	-0.64
_end
