data_functionalizedCrystal
_audit_creation_method	'EQeq! by Chris Wilmer'
_symmetry_space_group_name_H-M	'P1'
_symmetry_Int_Tables_number	1
_symmetry_cell_setting	triclinic
loop_
_symmetry_equiv_pos_as_xyz
  x,y,z
_cell_length_a	11.003
_cell_length_b	12.486
_cell_length_c	15.925
_cell_angle_alpha	100.091
_cell_angle_beta	106.028
_cell_angle_gamma	95.762
loop_
_atom_site_label
_atom_site_type_symbol
_atom_site_fract_x
_atom_site_fract_y
_atom_site_fract_z
_atom_site_charge
Mof_Gd	Gd	0.05985	0.2412	0.62837	1.496
Mof_Gd	Gd	0.49636	0.74142	0.11713	1.51
Mof_O 	O 	0.8615	0.8862	0.8884	-0.287
Mof_O 	O 	0.8937	0.0835	0.6284	-0.676
Mof_O 	O 	0.0956	0.0613	0.6717	-0.682
Mof_O 	O 	0.9622	0.8777	0.5154	-0.847
Mof_O 	O 	0.9196	0.7003	0.5082	-0.448
Mof_O 	O 	0.298	0.7766	0.1542	-0.428
Mof_O 	O 	0.2765	0.7231	0.0123	-0.656
Mof_O 	O 	0.7119	0.791	0.1349	-0.526
Mof_O 	O 	0.8703	0.7213	0.2174	-0.6
Mof_O 	O 	0.4112	0.3788	0.3994	-0.263
Mof_O 	O 	0.5949	0.5764	0.1703	-0.698
Mof_O 	O 	0.3858	0.5642	0.1233	-0.702
Mof_O 	O 	0.4881	0.3754	0.0195	-0.829
Mof_O 	O 	0.4951	0.2029	0.0246	-0.449
Mof_O 	O 	0.878	0.3212	0.67	-0.449
Mof_O 	O 	0.849	0.2567	0.529	-0.659
Mof_O 	O 	0.447	0.2142	0.7298	-0.559
Mof_O 	O 	0.2707	0.2232	0.627	-0.663
Mof_C 	C 	0.8921	0.862	0.8103	0.24
Mof_C 	C 	0.9228	0.9449	0.7759	-0.197
Mof_H 	H 	0.9314	0.0167	0.8076	0.102
Mof_C 	C 	0.9433	0.9257	0.6902	-0.029
Mof_C 	C 	0.9284	0.8205	0.6432	-0.233
Mof_C 	C 	0.8952	0.7337	0.6802	0.118
Mof_H 	H 	0.8846	0.6617	0.6484	-0.031
Mof_C 	C 	0.8776	0.7527	0.7638	-0.261
Mof_H 	H 	0.8567	0.6943	0.7889	0.076
Mof_C 	C 	0.9782	0.0294	0.6593	0.345
Mof_C 	C 	0.9392	0.7984	0.5512	0.395
Mof_C 	C 	0.9185	0.8403	0.9594	0.17
Mof_C 	C 	0.0414	0.8159	0.9751	-0.16
Mof_H 	H 	0.0881	0.8251	0.9356	0.047
Mof_C 	C 	0.0933	0.777	0.0521	-0.13
Mof_C 	C 	0.0255	0.7643	0.1121	-0.021
Mof_H 	H 	0.0631	0.7412	0.1644	-0.017
Mof_C 	C 	0.9005	0.7864	0.093	-0.196
Mof_C 	C 	0.8471	0.8253	0.0165	-0.122
Mof_H 	H 	0.7639	0.8411	0.004	0.059
Mof_C 	C 	0.2299	0.7581	0.074	0.326
Mof_C 	C 	0.8214	0.7655	0.153	0.308
Mof_C 	C 	0.4412	0.3577	0.321	0.198
Mof_C 	C 	0.4528	0.444	0.2804	-0.17
Mof_H 	H 	0.4511	0.5152	0.309	0.094
Mof_C 	C 	0.4676	0.4232	0.1945	-0.062
Mof_C 	C 	0.4754	0.3214	0.1534	-0.21
Mof_C 	C 	0.4611	0.2331	0.1942	0.081
Mof_H 	H 	0.462	0.1622	0.1645	-0.038
Mof_C 	C 	0.4455	0.2499	0.2787	-0.223
Mof_H 	H 	0.4382	0.1914	0.3068	0.03
Mof_C 	C 	0.4856	0.5263	0.1596	0.377
Mof_C 	C 	0.4889	0.2988	0.0615	0.376
Mof_C 	C 	0.4768	0.3377	0.4707	0.108
Mof_C 	C 	0.6066	0.3356	0.4925	-0.082
Mof_H 	H 	0.6538	0.3572	0.4563	0.02
Mof_C 	C 	0.665	0.3008	0.5692	-0.195
Mof_C 	C 	0.5962	0.2723	0.6244	0.045
Mof_H 	H 	0.6373	0.2522	0.6774	-0.019
Mof_C 	C 	0.4662	0.2736	0.6008	-0.209
Mof_C 	C 	0.4066	0.3073	0.5246	-0.075
Mof_H 	H 	0.3191	0.3097	0.5092	0.042
Mof_C 	C 	0.805	0.2948	0.5911	0.367
Mof_C 	C 	0.386	0.2341	0.6559	0.409
Mof_K 	K 	0.7817	0.0242	0.44486	2.885
Mof_K 	K 	0.2688	0.4904	0.94218	2.876
Mof_Gd	Gd	0.94015	0.7588	0.37163	1.497
Mof_Gd	Gd	0.50364	0.25858	0.88287	1.511
Mof_O 	O 	0.1385	0.1138	0.1116	-0.287
Mof_O 	O 	0.1063	0.9165	0.3716	-0.676
Mof_O 	O 	0.9044	0.9387	0.3283	-0.682
Mof_O 	O 	0.0378	0.1223	0.4846	-0.847
Mof_O 	O 	0.0804	0.2997	0.4918	-0.448
Mof_O 	O 	0.702	0.2234	0.8458	-0.428
Mof_O 	O 	0.7235	0.2769	0.9877	-0.656
Mof_O 	O 	0.2881	0.209	0.8651	-0.526
Mof_O 	O 	0.1297	0.2787	0.7826	-0.6
Mof_O 	O 	0.5888	0.6212	0.6006	-0.263
Mof_O 	O 	0.4051	0.4236	0.8297	-0.698
Mof_O 	O 	0.6142	0.4358	0.8767	-0.702
Mof_O 	O 	0.5119	0.6246	0.9805	-0.829
Mof_O 	O 	0.5049	0.7971	0.9754	-0.449
Mof_O 	O 	0.122	0.6788	0.33	-0.449
Mof_O 	O 	0.151	0.7433	0.471	-0.659
Mof_O 	O 	0.553	0.7858	0.2702	-0.559
Mof_O 	O 	0.7293	0.7768	0.373	-0.663
Mof_C 	C 	0.1079	0.138	0.1897	0.24
Mof_C 	C 	0.0772	0.0551	0.2241	-0.197
Mof_H 	H 	0.0686	0.9833	0.1924	0.102
Mof_C 	C 	0.0567	0.0743	0.3098	-0.029
Mof_C 	C 	0.0716	0.1795	0.3568	-0.233
Mof_C 	C 	0.1048	0.2663	0.3198	0.118
Mof_H 	H 	0.1154	0.3383	0.3516	-0.031
Mof_C 	C 	0.1224	0.2473	0.2362	-0.261
Mof_H 	H 	0.1433	0.3057	0.2111	0.076
Mof_C 	C 	0.0218	0.9706	0.3407	0.345
Mof_C 	C 	0.0608	0.2016	0.4488	0.395
Mof_C 	C 	0.0815	0.1597	0.0406	0.17
Mof_C 	C 	0.9586	0.1841	0.0249	-0.16
Mof_H 	H 	0.9119	0.1749	0.0644	0.047
Mof_C 	C 	0.9067	0.223	0.9479	-0.13
Mof_C 	C 	0.9745	0.2357	0.8879	-0.021
Mof_H 	H 	0.9369	0.2588	0.8356	-0.017
Mof_C 	C 	0.0995	0.2136	0.907	-0.196
Mof_C 	C 	0.1529	0.1747	0.9835	-0.122
Mof_H 	H 	0.2361	0.1589	0.996	0.059
Mof_C 	C 	0.7701	0.2419	0.926	0.326
Mof_C 	C 	0.1786	0.2345	0.847	0.308
Mof_C 	C 	0.5588	0.6423	0.679	0.198
Mof_C 	C 	0.5472	0.556	0.7196	-0.17
Mof_H 	H 	0.5489	0.4848	0.691	0.094
Mof_C 	C 	0.5324	0.5768	0.8055	-0.062
Mof_C 	C 	0.5246	0.6786	0.8466	-0.21
Mof_C 	C 	0.5389	0.7669	0.8058	0.081
Mof_H 	H 	0.538	0.8378	0.8355	-0.038
Mof_C 	C 	0.5545	0.7501	0.7213	-0.223
Mof_H 	H 	0.5618	0.8086	0.6932	0.03
Mof_C 	C 	0.5144	0.4737	0.8404	0.377
Mof_C 	C 	0.5111	0.7012	0.9385	0.376
Mof_C 	C 	0.5232	0.6623	0.5293	0.108
Mof_C 	C 	0.3934	0.6644	0.5075	-0.082
Mof_H 	H 	0.3462	0.6428	0.5437	0.02
Mof_C 	C 	0.335	0.6992	0.4308	-0.195
Mof_C 	C 	0.4038	0.7277	0.3756	0.045
Mof_H 	H 	0.3627	0.7478	0.3226	-0.019
Mof_C 	C 	0.5338	0.7264	0.3992	-0.209
Mof_C 	C 	0.5934	0.6927	0.4754	-0.075
Mof_H 	H 	0.6809	0.6903	0.4908	0.042
Mof_C 	C 	0.195	0.7052	0.4089	0.367
Mof_C 	C 	0.614	0.7659	0.3441	0.409
Mof_K 	K 	0.2183	0.9758	0.55514	2.885
Mof_K 	K 	0.7312	0.5096	0.05782	2.876
_end
