data_functionalizedCrystal
_audit_creation_method	'EQeq! by Chris Wilmer'
_symmetry_space_group_name_H-M	'P1'
_symmetry_Int_Tables_number	1
_symmetry_cell_setting	triclinic
loop_
_symmetry_equiv_pos_as_xyz
  x,y,z
_cell_length_a	13.4191
_cell_length_b	18.0669
_cell_length_c	20.9746
_cell_angle_alpha	90
_cell_angle_beta	99.659
_cell_angle_gamma	90
loop_
_atom_site_label
_atom_site_type_symbol
_atom_site_fract_x
_atom_site_fract_y
_atom_site_fract_z
_atom_site_charge
Mof_Mg	Mg	0.74024	0.259	0.69118	1.456
Mof_O 	O 	0.50251	0.32882	0.67868	-0.499
Mof_O 	O 	0.65804	0.3482	0.65879	-0.557
Mof_O 	O 	0.5172	0.16379	0.68339	-0.492
Mof_O 	O 	0.6426	0.18988	0.63015	-0.559
Mof_O 	O 	0.80483	0.30259	0.78278	-0.498
Mof_O 	O 	0.66002	0.24492	0.7767	-0.6
Mof_C 	C 	0.5638	0.35866	0.64943	0.448
Mof_C 	C 	0.5245	0.41103	0.59449	-0.12
Mof_C 	C 	0.4183	0.41841	0.57328	0.025
Mof_H 	H 	0.3738	0.3923	0.5944	0.035
Mof_C 	C 	0.5893	0.45059	0.56321	-0.026
Mof_H 	H 	0.6587	0.4467	0.5771	0.038
Mof_C 	C 	0.5525	0.49684	0.51062	0.015
Mof_C 	C 	0.3811	0.463	0.52275	-0.103
Mof_H 	H 	0.3116	0.4672	0.5099	0.062
Mof_C 	C 	0.569	0.15324	0.64006	0.438
Mof_C 	C 	0.5367	0.08814	0.59482	-0.118
Mof_C 	C 	0.4638	0.0369	0.60972	0.021
Mof_H 	H 	0.4398	0.0408	0.6487	0.027
Mof_C 	C 	0.5728	0.0815	0.53784	-0.025
Mof_H 	H 	0.6217	0.1145	0.5286	0.034
Mof_C 	C 	0.5368	0.0251	0.49235	0.012
Mof_C 	C 	0.4287	0.9823	0.56759	-0.097
Mof_H 	H 	0.3812	0.949	0.5782	0.046
Mof_C 	C 	0.7359	0.27566	0.80973	0.364
Mof_C 	C 	0.7488	0.27704	0.88201	-0.099
Mof_C 	C 	0.8206	0.32607	0.91682	0.022
Mof_H 	H 	0.8563	0.3587	0.8948	0.036
Mof_C 	C 	0.8371	0.32507	0.98254	-0.103
Mof_H 	H 	0.8831	0.3581	0.0052	0.079
Mof_C 	C 	0.6965	0.22871	0.9137	-0.035
Mof_H 	H 	0.6486	0.1976	0.8902	0.054
Mof_C 	C 	0.7856	0.27472	0.01723	0.033
Mof_Mg	Mg	0.24024	0.759	0.69118	1.454
Mof_O 	O 	0.00251	0.82882	0.67868	-0.534
Mof_O 	O 	0.15804	0.8482	0.65879	-0.573
Mof_O 	O 	0.0172	0.66379	0.68339	-0.527
Mof_O 	O 	0.1426	0.68988	0.63015	-0.576
Mof_O 	O 	0.30483	0.80259	0.78278	-0.508
Mof_O 	O 	0.16002	0.74492	0.7767	-0.611
Mof_C 	C 	0.0638	0.85866	0.64943	0.491
Mof_C 	C 	0.0245	0.91103	0.59449	-0.256
Mof_C 	C 	0.9183	0.91841	0.57328	0.195
Mof_H 	H 	0.8738	0.8923	0.5944	-0.014
Mof_C 	C 	0.0893	0.95059	0.56321	0.099
Mof_H 	H 	0.1587	0.9467	0.5771	-0.006
Mof_C 	C 	0.0525	0.99684	0.51062	-0.155
Mof_C 	C 	0.8811	0.963	0.52275	-0.246
Mof_H 	H 	0.8116	0.9672	0.5099	0.114
Mof_C 	C 	0.069	0.65324	0.64006	0.48
Mof_C 	C 	0.0367	0.58814	0.59482	-0.255
Mof_C 	C 	0.9638	0.5369	0.60972	0.192
Mof_H 	H 	0.9398	0.5408	0.6487	-0.02
Mof_C 	C 	0.0728	0.5815	0.53784	0.096
Mof_H 	H 	0.1217	0.6145	0.5286	-0.011
Mof_C 	C 	0.0368	0.5251	0.49235	-0.154
Mof_C 	C 	0.9287	0.4823	0.56759	-0.239
Mof_H 	H 	0.8812	0.449	0.5782	0.098
Mof_C 	C 	0.2359	0.77566	0.80973	0.365
Mof_C 	C 	0.2488	0.77704	0.88201	-0.112
Mof_C 	C 	0.3206	0.82607	0.91682	0.024
Mof_H 	H 	0.3563	0.8587	0.8948	0.026
Mof_C 	C 	0.3371	0.82507	0.98254	-0.11
Mof_H 	H 	0.3831	0.8581	0.0052	0.072
Mof_C 	C 	0.1965	0.72871	0.9137	-0.031
Mof_H 	H 	0.1486	0.6976	0.8902	0.042
Mof_C 	C 	0.2856	0.77472	0.01723	0.031
Mof_Mg	Mg	0.25976	0.259	0.80882	1.454
Mof_O 	O 	0.49749	0.32882	0.82132	-0.5
Mof_O 	O 	0.34196	0.3482	0.84121	-0.562
Mof_O 	O 	0.4828	0.16379	0.81661	-0.493
Mof_O 	O 	0.3574	0.18988	0.86985	-0.565
Mof_O 	O 	0.19517	0.30259	0.71722	-0.515
Mof_O 	O 	0.33998	0.24492	0.7233	-0.603
Mof_C 	C 	0.4362	0.35866	0.85057	0.449
Mof_C 	C 	0.4755	0.41103	0.90551	-0.122
Mof_C 	C 	0.5817	0.41841	0.92672	0.027
Mof_H 	H 	0.6262	0.3923	0.9056	0.035
Mof_C 	C 	0.4107	0.45059	0.93679	-0.025
Mof_H 	H 	0.3413	0.4467	0.9229	0.038
Mof_C 	C 	0.4475	0.49684	0.98938	0.013
Mof_C 	C 	0.6189	0.463	0.97725	-0.105
Mof_H 	H 	0.6884	0.4672	0.9901	0.064
Mof_C 	C 	0.431	0.15324	0.85994	0.438
Mof_C 	C 	0.4633	0.08814	0.90518	-0.118
Mof_C 	C 	0.5362	0.0369	0.89028	0.02
Mof_H 	H 	0.5602	0.0408	0.8513	0.028
Mof_C 	C 	0.4272	0.0815	0.96216	-0.026
Mof_H 	H 	0.3783	0.1145	0.9714	0.033
Mof_C 	C 	0.4632	0.0251	0.00765	0.014
Mof_C 	C 	0.5713	0.9823	0.93241	-0.097
Mof_H 	H 	0.6188	0.949	0.9218	0.044
Mof_C 	C 	0.2641	0.27566	0.69027	0.364
Mof_C 	C 	0.2512	0.27704	0.61799	-0.103
Mof_C 	C 	0.1794	0.32607	0.58318	0.015
Mof_H 	H 	0.1437	0.3587	0.6052	0.022
Mof_C 	C 	0.1629	0.32507	0.51746	-0.103
Mof_H 	H 	0.1169	0.3581	0.4948	0.06
Mof_C 	C 	0.3035	0.22871	0.5863	-0.04
Mof_H 	H 	0.3514	0.1976	0.6098	0.054
Mof_C 	C 	0.2144	0.27472	0.48277	0.018
Mof_Mg	Mg	0.75976	0.759	0.80882	1.454
Mof_O 	O 	0.99749	0.82882	0.82132	-0.464
Mof_O 	O 	0.84196	0.8482	0.84121	-0.546
Mof_O 	O 	0.9828	0.66379	0.81661	-0.458
Mof_O 	O 	0.8574	0.68988	0.86985	-0.547
Mof_O 	O 	0.69517	0.80259	0.71722	-0.505
Mof_O 	O 	0.83998	0.74492	0.7233	-0.59
Mof_C 	C 	0.9362	0.85866	0.85057	0.405
Mof_C 	C 	0.9755	0.91103	0.90551	0.015
Mof_C 	C 	0.0817	0.91841	0.92672	-0.143
Mof_H 	H 	0.1262	0.8923	0.9056	0.084
Mof_C 	C 	0.9107	0.95059	0.93679	-0.151
Mof_H 	H 	0.8413	0.9467	0.9229	0.082
Mof_C 	C 	0.9475	0.99684	0.98938	0.185
Mof_C 	C 	0.1189	0.963	0.97725	0.037
Mof_H 	H 	0.1884	0.9672	0.9901	0.012
Mof_C 	C 	0.931	0.65324	0.85994	0.396
Mof_C 	C 	0.9633	0.58814	0.90518	0.018
Mof_C 	C 	0.0362	0.5369	0.89028	-0.149
Mof_H 	H 	0.0602	0.5408	0.8513	0.073
Mof_C 	C 	0.9272	0.5815	0.96216	-0.143
Mof_H 	H 	0.8783	0.6145	0.9714	0.076
Mof_C 	C 	0.9632	0.5251	0.00765	0.177
Mof_C 	C 	0.0713	0.4823	0.93241	0.043
Mof_H 	H 	0.1188	0.449	0.9218	-0.008
Mof_C 	C 	0.7641	0.77566	0.69027	0.363
Mof_C 	C 	0.7512	0.77704	0.61799	-0.091
Mof_C 	C 	0.6794	0.82607	0.58318	0.016
Mof_H 	H 	0.6437	0.8587	0.6052	0.031
Mof_C 	C 	0.6629	0.82507	0.51746	-0.1
Mof_H 	H 	0.6169	0.8581	0.4948	0.068
Mof_C 	C 	0.8035	0.72871	0.5863	-0.042
Mof_H 	H 	0.8514	0.6976	0.6098	0.065
Mof_C 	C 	0.7144	0.77472	0.48277	0.023
Mof_Mg	Mg	0.25976	0.741	0.30882	1.454
Mof_O 	O 	0.49749	0.67118	0.32132	-0.5
Mof_O 	O 	0.34196	0.6518	0.34121	-0.562
Mof_O 	O 	0.4828	0.83621	0.31661	-0.494
Mof_O 	O 	0.3574	0.81012	0.36985	-0.565
Mof_O 	O 	0.19517	0.69741	0.21722	-0.515
Mof_O 	O 	0.33998	0.75508	0.2233	-0.603
Mof_C 	C 	0.4362	0.64134	0.35057	0.449
Mof_C 	C 	0.4755	0.58897	0.40551	-0.121
Mof_C 	C 	0.5817	0.58159	0.42672	0.027
Mof_H 	H 	0.6262	0.6077	0.4056	0.035
Mof_C 	C 	0.4107	0.54941	0.43679	-0.025
Mof_H 	H 	0.3413	0.5533	0.4229	0.038
Mof_C 	C 	0.4475	0.50316	0.48938	0.014
Mof_C 	C 	0.6189	0.537	0.47725	-0.105
Mof_H 	H 	0.6884	0.5328	0.4901	0.063
Mof_C 	C 	0.431	0.84676	0.35994	0.438
Mof_C 	C 	0.4633	0.91186	0.40518	-0.12
Mof_C 	C 	0.5362	0.9631	0.39028	0.022
Mof_H 	H 	0.5602	0.9592	0.3513	0.027
Mof_C 	C 	0.4272	0.9185	0.46216	-0.024
Mof_H 	H 	0.3783	0.8855	0.4714	0.032
Mof_C 	C 	0.4632	0.9749	0.50765	0.013
Mof_C 	C 	0.5713	0.0177	0.43241	-0.099
Mof_H 	H 	0.6188	0.051	0.4218	0.044
Mof_C 	C 	0.2641	0.72434	0.19027	0.363
Mof_C 	C 	0.2512	0.72296	0.11799	-0.101
Mof_C 	C 	0.1794	0.67393	0.08318	0.012
Mof_H 	H 	0.1437	0.6413	0.1052	0.024
Mof_C 	C 	0.1629	0.67493	0.01746	-0.098
Mof_H 	H 	0.1169	0.6419	0.9948	0.058
Mof_C 	C 	0.3035	0.77129	0.0863	-0.042
Mof_H 	H 	0.3514	0.8024	0.1098	0.055
Mof_C 	C 	0.2144	0.72528	0.98277	0.014
Mof_Mg	Mg	0.75976	0.241	0.30882	1.454
Mof_O 	O 	0.99749	0.17118	0.32132	-0.465
Mof_O 	O 	0.84196	0.1518	0.34121	-0.547
Mof_O 	O 	0.9828	0.33621	0.31661	-0.459
Mof_O 	O 	0.8574	0.31012	0.36985	-0.548
Mof_O 	O 	0.69517	0.19741	0.21722	-0.505
Mof_O 	O 	0.83998	0.25508	0.2233	-0.59
Mof_C 	C 	0.9362	0.14134	0.35057	0.405
Mof_C 	C 	0.9755	0.08897	0.40551	0.015
Mof_C 	C 	0.0817	0.08159	0.42672	-0.142
Mof_H 	H 	0.1262	0.1077	0.4056	0.084
Mof_C 	C 	0.9107	0.04941	0.43679	-0.151
Mof_H 	H 	0.8413	0.0533	0.4229	0.082
Mof_C 	C 	0.9475	0.00316	0.48938	0.184
Mof_C 	C 	0.1189	0.037	0.47725	0.038
Mof_H 	H 	0.1884	0.0328	0.4901	0.012
Mof_C 	C 	0.931	0.34676	0.35994	0.396
Mof_C 	C 	0.9633	0.41186	0.40518	0.017
Mof_C 	C 	0.0362	0.4631	0.39028	-0.148
Mof_H 	H 	0.0602	0.4592	0.3513	0.073
Mof_C 	C 	0.9272	0.4185	0.46216	-0.145
Mof_H 	H 	0.8783	0.3855	0.4714	0.077
Mof_C 	C 	0.9632	0.4749	0.50765	0.179
Mof_C 	C 	0.0713	0.5177	0.43241	0.043
Mof_H 	H 	0.1188	0.551	0.4218	-0.007
Mof_C 	C 	0.7641	0.22434	0.19027	0.363
Mof_C 	C 	0.7512	0.22296	0.11799	-0.091
Mof_C 	C 	0.6794	0.17393	0.08318	0.015
Mof_H 	H 	0.6437	0.1413	0.1052	0.031
Mof_C 	C 	0.6629	0.17493	0.01746	-0.099
Mof_H 	H 	0.6169	0.1419	0.9948	0.068
Mof_C 	C 	0.8035	0.27129	0.0863	-0.041
Mof_H 	H 	0.8514	0.3024	0.1098	0.065
Mof_C 	C 	0.7144	0.22528	0.98277	0.023
Mof_Mg	Mg	0.74024	0.741	0.19118	1.455
Mof_O 	O 	0.50251	0.67118	0.17868	-0.5
Mof_O 	O 	0.65804	0.6518	0.15879	-0.558
Mof_O 	O 	0.5172	0.83621	0.18339	-0.493
Mof_O 	O 	0.6426	0.81012	0.13015	-0.559
Mof_O 	O 	0.80483	0.69741	0.28278	-0.498
Mof_O 	O 	0.66002	0.75508	0.2767	-0.6
Mof_C 	C 	0.5638	0.64134	0.14943	0.448
Mof_C 	C 	0.5245	0.58897	0.09449	-0.119
Mof_C 	C 	0.4183	0.58159	0.07328	0.025
Mof_H 	H 	0.3738	0.6077	0.0944	0.035
Mof_C 	C 	0.5893	0.54941	0.06321	-0.027
Mof_H 	H 	0.6587	0.5533	0.0771	0.039
Mof_C 	C 	0.5525	0.50316	0.01062	0.016
Mof_C 	C 	0.3811	0.537	0.02275	-0.102
Mof_H 	H 	0.3116	0.5328	0.0099	0.062
Mof_C 	C 	0.569	0.84676	0.14006	0.438
Mof_C 	C 	0.5367	0.91186	0.09482	-0.118
Mof_C 	C 	0.4638	0.9631	0.10972	0.022
Mof_H 	H 	0.4398	0.9592	0.1487	0.027
Mof_C 	C 	0.5728	0.9185	0.03784	-0.025
Mof_H 	H 	0.6217	0.8855	0.0286	0.034
Mof_C 	C 	0.5368	0.9749	0.99235	0.012
Mof_C 	C 	0.4287	0.0177	0.06759	-0.098
Mof_H 	H 	0.3812	0.051	0.0782	0.046
Mof_C 	C 	0.7359	0.72434	0.30973	0.364
Mof_C 	C 	0.7488	0.72296	0.38201	-0.099
Mof_C 	C 	0.8206	0.67393	0.41682	0.023
Mof_H 	H 	0.8563	0.6413	0.3948	0.035
Mof_C 	C 	0.8371	0.67493	0.48254	-0.105
Mof_H 	H 	0.8831	0.6419	0.5052	0.08
Mof_C 	C 	0.6965	0.77129	0.4137	-0.035
Mof_H 	H 	0.6486	0.8024	0.3902	0.054
Mof_C 	C 	0.7856	0.72528	0.51723	0.034
Mof_Mg	Mg	0.24024	0.241	0.19118	1.454
Mof_O 	O 	0.00251	0.17118	0.17868	-0.534
Mof_O 	O 	0.15804	0.1518	0.15879	-0.573
Mof_O 	O 	0.0172	0.33621	0.18339	-0.526
Mof_O 	O 	0.1426	0.31012	0.13015	-0.576
Mof_O 	O 	0.30483	0.19741	0.28278	-0.508
Mof_O 	O 	0.16002	0.25508	0.2767	-0.611
Mof_C 	C 	0.0638	0.14134	0.14943	0.491
Mof_C 	C 	0.0245	0.08897	0.09449	-0.254
Mof_C 	C 	0.9183	0.08159	0.07328	0.193
Mof_H 	H 	0.8738	0.1077	0.0944	-0.014
Mof_C 	C 	0.0893	0.04941	0.06321	0.098
Mof_H 	H 	0.1587	0.0533	0.0771	-0.005
Mof_C 	C 	0.0525	0.00316	0.01062	-0.153
Mof_C 	C 	0.8811	0.037	0.02275	-0.247
Mof_H 	H 	0.8116	0.0328	0.0099	0.114
Mof_C 	C 	0.069	0.34676	0.14006	0.48
Mof_C 	C 	0.0367	0.41186	0.09482	-0.253
Mof_C 	C 	0.9638	0.4631	0.10972	0.189
Mof_H 	H 	0.9398	0.4592	0.1487	-0.019
Mof_C 	C 	0.0728	0.4185	0.03784	0.096
Mof_H 	H 	0.1217	0.3855	0.0286	-0.011
Mof_C 	C 	0.0368	0.4749	0.99235	-0.154
Mof_C 	C 	0.9287	0.5177	0.06759	-0.238
Mof_H 	H 	0.8812	0.551	0.0782	0.097
Mof_C 	C 	0.2359	0.22434	0.30973	0.364
Mof_C 	C 	0.2488	0.22296	0.38201	-0.11
Mof_C 	C 	0.3206	0.17393	0.41682	0.022
Mof_H 	H 	0.3563	0.1413	0.3948	0.027
Mof_C 	C 	0.3371	0.17493	0.48254	-0.107
Mof_H 	H 	0.3831	0.1419	0.5052	0.072
Mof_C 	C 	0.1965	0.27129	0.4137	-0.034
Mof_H 	H 	0.1486	0.3024	0.3902	0.043
Mof_C 	C 	0.2856	0.22528	0.51723	0.028
Mof_Mg	Mg	0.5	0.24754	0.75	1.476
Mof_Mg	Mg	2.26783e-17	0.74754	0.75	1.473
Mof_Mg	Mg	0.5	0.75246	0.25	1.476
Mof_Mg	Mg	1.13391e-17	0.25246	0.25	1.473
_end
