# CIF file generated by openbabel 3.1.0, see https://openbabel.org
data_I
_chemical_name_common 'image0'
_cell_length_a 7.6883
_cell_length_b 7.7875
_cell_length_c 12.8558
_cell_angle_alpha 90
_cell_angle_beta 90
_cell_angle_gamma 90
_space_group_name_H-M_alt 'P 1'
_space_group_name_Hall 'P 1'
loop_
    _symmetry_equiv_pos_as_xyz
    x,y,z
loop_
    _atom_site_label
    _atom_site_type_symbol
    _atom_site_fract_x
    _atom_site_fract_y
    _atom_site_fract_z
    _atom_site_occupancy
    Mg1      Mg       0.55363    0.49437    0.08445    1.000
    C1       C        0.42750    0.22340    0.23615    1.000
    H1       H        0.53340    0.17060    0.22190    1.000
    C2       C        0.30280    0.77880    0.02788    1.000
    H2       H        0.37600    0.79890    0.97160    1.000
    C3       C        0.31010    0.27600    0.96274    1.000
    H3       H        0.23520    0.29810    0.01790    1.000
    O1       O        0.39602    0.36228    0.19084    1.000
    O2       O        0.32831    0.14995    0.29880    1.000
    O3       O        0.34694    0.66409    0.08794    1.000
    O4       O        0.17129    0.87066    0.03392    1.000
    O5       O        0.45163    0.35039    0.96352    1.000
    O6       O        0.25786    0.17326    0.89438    1.000
    Mg2      Mg       0.94637    0.50563    0.58445    1.000
    C4       C        0.07250    0.77660    0.73615    1.000
    H4       H        0.96660    0.82940    0.72190    1.000
    C5       C        0.19720    0.22120    0.52788    1.000
    H5       H        0.12400    0.20110    0.47160    1.000
    C6       C        0.18990    0.72400    0.46274    1.000
    H6       H        0.26480    0.70190    0.51790    1.000
    O7       O        0.10398    0.63772    0.69084    1.000
    O8       O        0.17169    0.85005    0.79880    1.000
    O9       O        0.15306    0.33591    0.58794    1.000
    O10      O        0.32871    0.12934    0.53392    1.000
    O11      O        0.04837    0.64961    0.46352    1.000
    O12      O        0.24214    0.82674    0.39438    1.000
    Mg3      Mg       0.44637    0.99437    0.41555    1.000
    C7       C        0.57250    0.72340    0.26385    1.000
    H7       H        0.46660    0.67060    0.27810    1.000
    C8       C        0.69720    0.27880    0.47212    1.000
    H8       H        0.62400    0.29890    0.52840    1.000
    C9       C        0.68990    0.77600    0.53726    1.000
    H9       H        0.76480    0.79810    0.48210    1.000
    O13      O        0.60398    0.86228    0.30916    1.000
    O14      O        0.67169    0.64995    0.20120    1.000
    O15      O        0.65306    0.16409    0.41206    1.000
    O16      O        0.82871    0.37066    0.46608    1.000
    O17      O        0.54837    0.85039    0.53648    1.000
    O18      O        0.74214    0.67326    0.60562    1.000
    Mg4      Mg       0.05363    0.00563    0.91555    1.000
    C10      C        0.92750    0.27660    0.76385    1.000
    H10      H        0.03340    0.32940    0.77810    1.000
    C11      C        0.80280    0.72120    0.97212    1.000
    H11      H        0.87600    0.70110    0.02840    1.000
    C12      C        0.81010    0.22400    0.03726    1.000
    H12      H        0.73520    0.20190    0.98210    1.000
    O19      O        0.89602    0.13772    0.80916    1.000
    O20      O        0.82831    0.35005    0.70120    1.000
    O21      O        0.84694    0.83591    0.91206    1.000
    O22      O        0.67129    0.62934    0.96608    1.000
    O23      O        0.95163    0.14961    0.03648    1.000
    O24      O        0.75786    0.32674    0.10562    1.000
