data_functionalizedCrystal
_audit_creation_method	'EQeq! by Chris Wilmer'
_symmetry_space_group_name_H-M	'P1'
_symmetry_Int_Tables_number	1
_symmetry_cell_setting	triclinic
loop_
_symmetry_equiv_pos_as_xyz
  x,y,z
_cell_length_a	12.9676
_cell_length_b	16.1701
_cell_length_c	30.9055
_cell_angle_alpha	90
_cell_angle_beta	91.249
_cell_angle_gamma	90
loop_
_atom_site_label
_atom_site_type_symbol
_atom_site_fract_x
_atom_site_fract_y
_atom_site_fract_z
_atom_site_charge
Mof_Mo	Mo	0.27865	0.3943	0.93446	1.138
Mof_Mo	Mo	0.30006	0.5474	0.90769	1.178
Mof_Mo	Mo	0.35138	0.70763	0.98363	1.163
Mof_Mo	Mo	0.36347	0.6742	0.06629	1.135
Mof_Mo	Mo	0.33325	0.4669	0.10179	1.163
Mof_Mo	Mo	0.30469	0.34601	0.04647	1.153
Mof_Mo	Mo	0.19492	0.65353	0.23691	1.033
Mof_Mo	Mo	0.10979	0.68964	0.30791	1.03
Mof_Cd	Cd	0.9779	0.54053	0.05717	0.486
Mof_Cd	Cd	0.10592	0.74769	0.06606	0.463
Mof_P 	P 	0.20921	0.53497	0.00865	0.575
Mof_P 	P 	0.1762	0.6176	0.1306	0.578
Mof_P 	P 	0.88515	0.73024	0.01568	0.54
Mof_P 	P 	0.1683	0.72564	0.90813	0.594
Mof_O 	O 	0.1793	0.476	0.91327	-0.552
Mof_O 	O 	0.3933	0.4736	0.94112	-0.549
Mof_O 	O 	0.2403	0.4445	0.99934	-0.434
Mof_O 	O 	0.8621	0.6637	0.04998	-0.405
Mof_O 	O 	0.3528	0.3216	0.98259	-0.463
Mof_O 	O 	0.4374	0.6287	0.01662	-0.555
Mof_O 	O 	0.2578	0.7304	0.03113	-0.551
Mof_O 	O 	0.2543	0.683	0.11383	-0.421
Mof_O 	O 	0.2598	0.5591	0.05216	-0.42
Mof_O 	O 	0.4231	0.5757	0.10185	-0.464
Mof_O 	O 	0.4125	0.4316	0.05126	-0.555
Mof_O 	O 	0.2162	0.3972	0.08802	-0.519
Mof_O 	O 	0.8277	0.7136	0.97356	-0.392
Mof_O 	O 	0.2556	0.5915	0.97377	-0.433
Mof_O 	O 	0.3986	0.6449	0.92689	-0.464
Mof_O 	O 	0.1962	0.6395	0.89321	-0.415
Mof_O 	O 	0.2402	0.7585	0.94369	-0.417
Mof_O 	O 	0.2289	0.5337	0.13614	-0.43
Mof_O 	O 	0.0925	0.5415	0.00608	-0.306
Mof_O 	O 	0.0854	0.6197	0.09843	-0.314
Mof_O 	O 	0.9997	0.7332	0.00908	-0.258
Mof_O 	O 	0.8536	0.8165	0.03345	-0.261
Mof_O 	O 	0.0569	0.7204	0.92629	-0.208
Mof_O 	O 	0.0598	0.6954	0.24839	-0.503
Mof_O 	O 	0.2507	0.6998	0.29073	-0.511
Mof_O 	O 	0.1384	0.6455	0.17449	-0.398
Mof_O 	O 	0.1642	0.7841	0.87009	-0.408
Mof_N 	N 	0.1068	0.8883	0.0632	-0.158
Mof_N 	N 	0.9915	0.7955	0.1176	-0.148
Mof_N 	N 	0.2377	0.78	0.2071	-0.183
Mof_N 	N 	0.3587	0.6499	0.2154	-0.218
Mof_N 	N 	0.9463	0.7264	0.3219	-0.216
Mof_N 	N 	0.0929	0.8335	0.3036	-0.183
Mof_C 	C 	0.1601	0.9293	0.0353	0.098
Mof_H 	H 	0.2071	0.9009	0.0185	-0.013
Mof_C 	C 	0.149	0.0151	0.0295	-0.146
Mof_H 	H 	0.1932	0.0439	0.0115	0.078
Mof_C 	C 	0.0709	0.0564	0.051	0.045
Mof_H 	H 	0.0576	0.112	0.0457	0.037
Mof_C 	C 	0.014	0.0127	0.0802	-0.122
Mof_H 	H 	0.9636	0.039	0.0961	0.058
Mof_C 	C 	0.9049	0.9111	0.1452	-0.127
Mof_H 	H 	0.8936	0.9679	0.1446	0.045
Mof_C 	C 	0.8541	0.8632	0.174	0.036
Mof_H 	H 	0.8068	0.8865	0.1926	-0.007
Mof_C 	C 	0.8746	0.7758	0.1751	-0.135
Mof_H 	H 	0.843	0.7407	0.1947	0.071
Mof_C 	C 	0.9435	0.7476	0.1457	0.082
Mof_H 	H 	0.9577	0.6912	0.1453	0.019
Mof_C 	C 	0.0335	0.9259	0.0859	0.072
Mof_C 	C 	0.9727	0.8762	0.117	0.075
Mof_C 	C 	0.1704	0.8388	0.1998	0.095
Mof_H 	H 	0.1027	0.8306	0.2083	0.01
Mof_C 	C 	0.1963	0.9152	0.1795	-0.145
Mof_H 	H 	0.1494	0.9582	0.1755	0.075
Mof_C 	C 	0.2966	0.9196	0.1662	0.055
Mof_H 	H 	0.3182	0.9679	0.1528	-0.004
Mof_C 	C 	0.3669	0.8567	0.1716	-0.144
Mof_H 	H 	0.4333	0.8612	0.1611	0.052
Mof_C 	C 	0.5123	0.7153	0.1887	-0.173
Mof_H 	H 	0.5447	0.7616	0.1774	0.06
Mof_C 	C 	0.5649	0.645	0.1947	0.096
Mof_H 	H 	0.6342	0.6429	0.1878	-0.046
Mof_C 	C 	0.5194	0.5775	0.2106	-0.198
Mof_H 	H 	0.5568	0.5291	0.2151	0.067
Mof_C 	C 	0.414	0.5813	0.2202	0.105
Mof_H 	H 	0.3818	0.5339	0.2303	-0.053
Mof_C 	C 	0.3364	0.7878	0.1928	0.064
Mof_C 	C 	0.4045	0.7188	0.1998	0.071
Mof_C 	C 	0.8751	0.6701	0.3324	0.125
Mof_H 	H 	0.8966	0.6163	0.3381	-0.042
Mof_C 	C 	0.7733	0.688	0.335	-0.202
Mof_H 	H 	0.7258	0.6478	0.3428	0.081
Mof_C 	C 	0.7432	0.7663	0.3257	0.099
Mof_H 	H 	0.6736	0.7799	0.3263	-0.049
Mof_C 	C 	0.8133	0.8256	0.3156	-0.165
Mof_H 	H 	0.7921	0.8796	0.31	0.064
Mof_C 	C 	0.9777	0.9471	0.2976	-0.127
Mof_H 	H 	0.9103	0.9668	0.2976	0.056
Mof_C 	C 	0.0592	0.9998	0.2907	0.057
Mof_H 	H 	0.0475	0.0558	0.286	-0.005
Mof_C 	C 	0.1574	0.9691	0.291	-0.144
Mof_H 	H 	0.2132	0.0038	0.2863	0.048
Mof_C 	C 	0.1723	0.8852	0.2982	0.094
Mof_H 	H 	0.2392	0.8644	0.2995	-0.014
Mof_C 	C 	0.9156	0.8044	0.3138	0.097
Mof_C 	C 	0.9984	0.8641	0.3046	0.073
Mof_Mo	Mo	0.72135	0.8943	0.56554	1.142
Mof_Mo	Mo	0.69994	0.0474	0.59231	1.161
Mof_Mo	Mo	0.64862	0.20763	0.51637	1.15
Mof_Mo	Mo	0.63653	0.1742	0.43371	1.138
Mof_Mo	Mo	0.66675	0.9669	0.39821	1.18
Mof_Mo	Mo	0.69531	0.84601	0.45353	1.159
Mof_Mo	Mo	0.80508	0.15353	0.26309	1.029
Mof_Mo	Mo	0.89021	0.18964	0.19209	1.027
Mof_Cd	Cd	0.0221	0.04053	0.44283	0.485
Mof_Cd	Cd	0.89408	0.24769	0.43394	0.463
Mof_P 	P 	0.79079	0.03497	0.49135	0.577
Mof_P 	P 	0.8238	0.1176	0.3694	0.578
Mof_P 	P 	0.11485	0.23024	0.48432	0.544
Mof_P 	P 	0.8317	0.22564	0.59187	0.593
Mof_O 	O 	0.8207	0.976	0.58673	-0.545
Mof_O 	O 	0.6067	0.9736	0.55888	-0.542
Mof_O 	O 	0.7597	0.9445	0.50066	-0.435
Mof_O 	O 	0.1379	0.1637	0.45002	-0.405
Mof_O 	O 	0.6472	0.8216	0.51741	-0.467
Mof_O 	O 	0.5626	0.1287	0.48338	-0.552
Mof_O 	O 	0.7422	0.2304	0.46887	-0.547
Mof_O 	O 	0.7457	0.183	0.38617	-0.422
Mof_O 	O 	0.7402	0.0591	0.44784	-0.424
Mof_O 	O 	0.5769	0.0757	0.39815	-0.469
Mof_O 	O 	0.5875	0.9316	0.44874	-0.553
Mof_O 	O 	0.7838	0.8972	0.41198	-0.519
Mof_O 	O 	0.1723	0.2136	0.52644	-0.396
Mof_O 	O 	0.7444	0.0915	0.52623	-0.436
Mof_O 	O 	0.6014	0.1449	0.57311	-0.462
Mof_O 	O 	0.8038	0.1395	0.60679	-0.414
Mof_O 	O 	0.7598	0.2585	0.55631	-0.417
Mof_O 	O 	0.7711	0.0337	0.36386	-0.437
Mof_O 	O 	0.9075	0.0415	0.49392	-0.307
Mof_O 	O 	0.9146	0.1197	0.40157	-0.315
Mof_O 	O 	0.0003	0.2332	0.49092	-0.256
Mof_O 	O 	0.1464	0.3165	0.46655	-0.261
Mof_O 	O 	0.9431	0.2204	0.57371	-0.21
Mof_O 	O 	0.9402	0.1954	0.25161	-0.503
Mof_O 	O 	0.7493	0.1998	0.20927	-0.511
Mof_O 	O 	0.8616	0.1455	0.32551	-0.399
Mof_O 	O 	0.8358	0.2841	0.62991	-0.408
Mof_N 	N 	0.8932	0.3883	0.4368	-0.153
Mof_N 	N 	0.0085	0.2955	0.3824	-0.149
Mof_N 	N 	0.7623	0.28	0.2929	-0.183
Mof_N 	N 	0.6413	0.1499	0.2846	-0.218
Mof_N 	N 	0.0537	0.2264	0.1781	-0.215
Mof_N 	N 	0.9071	0.3335	0.1964	-0.184
Mof_C 	C 	0.8399	0.4293	0.4647	0.079
Mof_H 	H 	0.7929	0.4009	0.4815	-0.007
Mof_C 	C 	0.851	0.5151	0.4705	-0.122
Mof_H 	H 	0.8068	0.5439	0.4885	0.073
Mof_C 	C 	0.9291	0.5564	0.449	0.029
Mof_H 	H 	0.9424	0.612	0.4543	0.044
Mof_C 	C 	0.986	0.5127	0.4198	-0.103
Mof_H 	H 	0.0364	0.539	0.4039	0.055
Mof_C 	C 	0.0951	0.4111	0.3548	-0.13
Mof_H 	H 	0.1064	0.4679	0.3554	0.044
Mof_C 	C 	0.1459	0.3632	0.326	0.038
Mof_H 	H 	0.1932	0.3865	0.3074	-0.009
Mof_C 	C 	0.1254	0.2758	0.3249	-0.136
Mof_H 	H 	0.157	0.2407	0.3053	0.071
Mof_C 	C 	0.0565	0.2476	0.3543	0.083
Mof_H 	H 	0.0423	0.1912	0.3547	0.019
Mof_C 	C 	0.9665	0.4259	0.4141	0.06
Mof_C 	C 	0.0273	0.3762	0.383	0.078
Mof_C 	C 	0.8296	0.3388	0.3002	0.095
Mof_H 	H 	0.8973	0.3306	0.2917	0.01
Mof_C 	C 	0.8037	0.4152	0.3205	-0.146
Mof_H 	H 	0.8506	0.4582	0.3245	0.073
Mof_C 	C 	0.7034	0.4196	0.3338	0.054
Mof_H 	H 	0.6818	0.4679	0.3472	-0.006
Mof_C 	C 	0.6331	0.3567	0.3284	-0.144
Mof_H 	H 	0.5667	0.3612	0.3389	0.051
Mof_C 	C 	0.4877	0.2153	0.3113	-0.173
Mof_H 	H 	0.4553	0.2616	0.3226	0.06
Mof_C 	C 	0.4351	0.145	0.3053	0.096
Mof_H 	H 	0.3658	0.1429	0.3122	-0.046
Mof_C 	C 	0.4806	0.0775	0.2894	-0.199
Mof_H 	H 	0.4432	0.0291	0.2849	0.065
Mof_C 	C 	0.586	0.0813	0.2798	0.104
Mof_H 	H 	0.6182	0.0339	0.2697	-0.055
Mof_C 	C 	0.6636	0.2878	0.3072	0.064
Mof_C 	C 	0.5955	0.2188	0.3002	0.071
Mof_C 	C 	0.1249	0.1701	0.1676	0.125
Mof_H 	H 	0.1034	0.1163	0.1619	-0.043
Mof_C 	C 	0.2267	0.188	0.165	-0.202
Mof_H 	H 	0.2742	0.1478	0.1572	0.08
Mof_C 	C 	0.2568	0.2663	0.1743	0.099
Mof_H 	H 	0.3264	0.2799	0.1737	-0.049
Mof_C 	C 	0.1867	0.3256	0.1844	-0.165
Mof_H 	H 	0.2079	0.3796	0.19	0.063
Mof_C 	C 	0.0223	0.4471	0.2024	-0.123
Mof_H 	H 	0.0897	0.4668	0.2024	0.052
Mof_C 	C 	0.9408	0.4998	0.2093	0.046
Mof_H 	H 	0.9525	0.5558	0.214	0.003
Mof_C 	C 	0.8426	0.4691	0.209	-0.154
Mof_H 	H 	0.7868	0.5038	0.2137	0.057
Mof_C 	C 	0.8277	0.3852	0.2018	0.098
Mof_H 	H 	0.7608	0.3644	0.2005	-0.016
Mof_C 	C 	0.0844	0.3044	0.1862	0.097
Mof_C 	C 	0.0016	0.3641	0.1954	0.071
Mof_Mo	Mo	0.72135	0.6057	0.06554	1.139
Mof_Mo	Mo	0.69994	0.4526	0.09231	1.179
Mof_Mo	Mo	0.64862	0.29237	0.01637	1.136
Mof_Mo	Mo	0.63653	0.3258	0.93371	1.14
Mof_Mo	Mo	0.66675	0.5331	0.89821	1.162
Mof_Mo	Mo	0.69531	0.65399	0.95353	1.169
Mof_Mo	Mo	0.80508	0.34647	0.76309	1.032
Mof_Mo	Mo	0.89021	0.31036	0.69209	1.03
Mof_Cd	Cd	0.0221	0.45947	0.94283	0.49
Mof_Cd	Cd	0.89408	0.25231	0.93394	0.463
Mof_P 	P 	0.79079	0.46503	0.99135	0.591
Mof_P 	P 	0.8238	0.3824	0.8694	0.578
Mof_P 	P 	0.11485	0.26976	0.98432	0.548
Mof_P 	P 	0.8317	0.27436	0.09187	0.593
Mof_O 	O 	0.8207	0.524	0.08673	-0.552
Mof_O 	O 	0.6067	0.5264	0.05888	-0.55
Mof_O 	O 	0.7597	0.5555	0.00066	-0.447
Mof_O 	O 	0.1379	0.3363	0.95002	-0.405
Mof_O 	O 	0.6472	0.6784	0.01741	-0.47
Mof_O 	O 	0.5626	0.3713	0.98338	-0.546
Mof_O 	O 	0.7422	0.2696	0.96887	-0.544
Mof_O 	O 	0.7457	0.317	0.88617	-0.422
Mof_O 	O 	0.7402	0.4409	0.94784	-0.421
Mof_O 	O 	0.5769	0.4243	0.89815	-0.465
Mof_O 	O 	0.5875	0.5684	0.94874	-0.553
Mof_O 	O 	0.7838	0.6028	0.91198	-0.52
Mof_O 	O 	0.1723	0.2864	0.02644	-0.4
Mof_O 	O 	0.7444	0.4085	0.02623	-0.44
Mof_O 	O 	0.6014	0.3551	0.07311	-0.463
Mof_O 	O 	0.8038	0.3605	0.10679	-0.415
Mof_O 	O 	0.7598	0.2415	0.05631	-0.418
Mof_O 	O 	0.7711	0.4663	0.86386	-0.43
Mof_O 	O 	0.9075	0.4585	0.99392	-0.302
Mof_O 	O 	0.9146	0.3803	0.90157	-0.314
Mof_O 	O 	0.0003	0.2668	0.99092	-0.254
Mof_O 	O 	0.1464	0.1835	0.96655	-0.26
Mof_O 	O 	0.9431	0.2796	0.07371	-0.211
Mof_O 	O 	0.9402	0.3046	0.75161	-0.503
Mof_O 	O 	0.7493	0.3002	0.70927	-0.511
Mof_O 	O 	0.8616	0.3545	0.82551	-0.398
Mof_O 	O 	0.8358	0.2159	0.12991	-0.409
Mof_N 	N 	0.8932	0.1117	0.9368	-0.146
Mof_N 	N 	0.0085	0.2045	0.8824	-0.15
Mof_N 	N 	0.7623	0.22	0.7929	-0.183
Mof_N 	N 	0.6413	0.3501	0.7846	-0.218
Mof_N 	N 	0.0537	0.2736	0.6781	-0.216
Mof_N 	N 	0.9071	0.1665	0.6964	-0.184
Mof_C 	C 	0.8399	0.0707	0.9647	0.057
Mof_H 	H 	0.7929	0.0991	0.9815	0.001
Mof_C 	C 	0.851	0.9849	0.9705	-0.092
Mof_H 	H 	0.8068	0.9561	0.9885	0.067
Mof_C 	C 	0.9291	0.9436	0.949	0.007
Mof_H 	H 	0.9424	0.888	0.9543	0.054
Mof_C 	C 	0.986	0.9873	0.9198	-0.074
Mof_H 	H 	0.0364	0.961	0.9039	0.048
Mof_C 	C 	0.0951	0.0889	0.8548	-0.135
Mof_H 	H 	0.1064	0.0321	0.8554	0.043
Mof_C 	C 	0.1459	0.1368	0.826	0.04
Mof_H 	H 	0.1932	0.1135	0.8074	-0.011
Mof_C 	C 	0.1254	0.2242	0.8249	-0.138
Mof_H 	H 	0.157	0.2593	0.8053	0.071
Mof_C 	C 	0.0565	0.2524	0.8543	0.084
Mof_H 	H 	0.0423	0.3088	0.8547	0.019
Mof_C 	C 	0.9665	0.0741	0.9141	0.043
Mof_C 	C 	0.0273	0.1238	0.883	0.083
Mof_C 	C 	0.8296	0.1612	0.8002	0.094
Mof_H 	H 	0.8973	0.1694	0.7917	0.01
Mof_C 	C 	0.8037	0.0848	0.8205	-0.146
Mof_H 	H 	0.8506	0.0418	0.8245	0.071
Mof_C 	C 	0.7034	0.0804	0.8338	0.054
Mof_H 	H 	0.6818	0.0321	0.8472	-0.008
Mof_C 	C 	0.6331	0.1433	0.8284	-0.145
Mof_H 	H 	0.5667	0.1388	0.8389	0.05
Mof_C 	C 	0.4877	0.2847	0.8113	-0.173
Mof_H 	H 	0.4553	0.2384	0.8226	0.059
Mof_C 	C 	0.4351	0.355	0.8053	0.096
Mof_H 	H 	0.3658	0.3571	0.8122	-0.046
Mof_C 	C 	0.4806	0.4225	0.7894	-0.198
Mof_H 	H 	0.4432	0.4709	0.7849	0.067
Mof_C 	C 	0.586	0.4187	0.7798	0.105
Mof_H 	H 	0.6182	0.4661	0.7697	-0.053
Mof_C 	C 	0.6636	0.2122	0.8072	0.064
Mof_C 	C 	0.5955	0.2812	0.8002	0.07
Mof_C 	C 	0.1249	0.3299	0.6676	0.125
Mof_H 	H 	0.1034	0.3837	0.6619	-0.042
Mof_C 	C 	0.2267	0.312	0.665	-0.202
Mof_H 	H 	0.2742	0.3522	0.6572	0.081
Mof_C 	C 	0.2568	0.2337	0.6743	0.099
Mof_H 	H 	0.3264	0.2201	0.6737	-0.05
Mof_C 	C 	0.1867	0.1744	0.6844	-0.166
Mof_H 	H 	0.2079	0.1204	0.69	0.062
Mof_C 	C 	0.0223	0.0529	0.7024	-0.114
Mof_H 	H 	0.0897	0.0332	0.7024	0.046
Mof_C 	C 	0.9408	0.0002	0.7093	0.03
Mof_H 	H 	0.9525	0.9442	0.714	0.014
Mof_C 	C 	0.8426	0.0309	0.709	-0.164
Mof_H 	H 	0.7868	0.9962	0.7137	0.067
Mof_C 	C 	0.8277	0.1148	0.7018	0.102
Mof_H 	H 	0.7608	0.1356	0.7005	-0.018
Mof_C 	C 	0.0844	0.1956	0.6862	0.098
Mof_C 	C 	0.0016	0.1359	0.6954	0.068
Mof_Mo	Mo	0.27865	0.1057	0.43446	1.136
Mof_Mo	Mo	0.30006	0.9526	0.40769	1.196
Mof_Mo	Mo	0.35138	0.79237	0.48363	1.151
Mof_Mo	Mo	0.36347	0.8258	0.56629	1.137
Mof_Mo	Mo	0.33325	0.0331	0.60179	1.147
Mof_Mo	Mo	0.30469	0.15399	0.54647	1.162
Mof_Mo	Mo	0.19492	0.84647	0.73691	1.036
Mof_Mo	Mo	0.10979	0.81036	0.80791	1.033
Mof_Cd	Cd	0.9779	0.95947	0.55717	0.494
Mof_Cd	Cd	0.10592	0.75231	0.56606	0.463
Mof_P 	P 	0.20921	0.96503	0.50865	0.588
Mof_P 	P 	0.1762	0.8824	0.6306	0.577
Mof_P 	P 	0.88515	0.76976	0.51568	0.544
Mof_P 	P 	0.1683	0.77436	0.40813	0.594
Mof_O 	O 	0.1793	0.024	0.41327	-0.558
Mof_O 	O 	0.3933	0.0264	0.44112	-0.555
Mof_O 	O 	0.2403	0.0555	0.49934	-0.445
Mof_O 	O 	0.8621	0.8363	0.54998	-0.406
Mof_O 	O 	0.3528	0.1784	0.48259	-0.466
Mof_O 	O 	0.4374	0.8713	0.51662	-0.549
Mof_O 	O 	0.2578	0.7696	0.53113	-0.548
Mof_O 	O 	0.2543	0.817	0.61383	-0.422
Mof_O 	O 	0.2598	0.9409	0.55216	-0.418
Mof_O 	O 	0.4231	0.9243	0.60185	-0.46
Mof_O 	O 	0.4125	0.0684	0.55126	-0.554
Mof_O 	O 	0.2162	0.1028	0.58802	-0.52
Mof_O 	O 	0.8277	0.7864	0.47356	-0.395
Mof_O 	O 	0.2556	0.9085	0.47377	-0.437
Mof_O 	O 	0.3986	0.8551	0.42689	-0.464
Mof_O 	O 	0.1962	0.8605	0.39321	-0.416
Mof_O 	O 	0.2402	0.7415	0.44369	-0.417
Mof_O 	O 	0.2289	0.9663	0.63614	-0.424
Mof_O 	O 	0.0925	0.9585	0.50608	-0.302
Mof_O 	O 	0.0854	0.8803	0.59843	-0.314
Mof_O 	O 	0.9997	0.7668	0.50908	-0.256
Mof_O 	O 	0.8536	0.6835	0.53345	-0.261
Mof_O 	O 	0.0569	0.7796	0.42629	-0.208
Mof_O 	O 	0.0598	0.8046	0.74839	-0.504
Mof_O 	O 	0.2507	0.8002	0.79073	-0.511
Mof_O 	O 	0.1384	0.8545	0.67449	-0.397
Mof_O 	O 	0.1642	0.7159	0.37009	-0.408
Mof_N 	N 	0.1068	0.6117	0.5632	-0.153
Mof_N 	N 	0.9915	0.7045	0.6176	-0.149
Mof_N 	N 	0.2377	0.72	0.7071	-0.184
Mof_N 	N 	0.3587	0.8501	0.7154	-0.218
Mof_N 	N 	0.9463	0.7736	0.8219	-0.215
Mof_N 	N 	0.0929	0.6665	0.8036	-0.184
Mof_C 	C 	0.1601	0.5707	0.5353	0.079
Mof_H 	H 	0.2071	0.5991	0.5185	-0.007
Mof_C 	C 	0.149	0.4849	0.5295	-0.122
Mof_H 	H 	0.1932	0.4561	0.5115	0.073
Mof_C 	C 	0.0709	0.4436	0.551	0.029
Mof_H 	H 	0.0576	0.388	0.5457	0.044
Mof_C 	C 	0.014	0.4873	0.5802	-0.103
Mof_H 	H 	0.9636	0.461	0.5961	0.055
Mof_C 	C 	0.9049	0.5889	0.6452	-0.13
Mof_H 	H 	0.8936	0.5321	0.6446	0.044
Mof_C 	C 	0.8541	0.6368	0.674	0.037
Mof_H 	H 	0.8068	0.6135	0.6926	-0.009
Mof_C 	C 	0.8746	0.7242	0.6751	-0.136
Mof_H 	H 	0.843	0.7593	0.6947	0.071
Mof_C 	C 	0.9435	0.7524	0.6457	0.083
Mof_H 	H 	0.9577	0.8088	0.6453	0.019
Mof_C 	C 	0.0335	0.5741	0.5859	0.06
Mof_C 	C 	0.9727	0.6238	0.617	0.077
Mof_C 	C 	0.1704	0.6612	0.6998	0.095
Mof_H 	H 	0.1027	0.6694	0.7083	0.01
Mof_C 	C 	0.1963	0.5848	0.6795	-0.146
Mof_H 	H 	0.1494	0.5418	0.6755	0.073
Mof_C 	C 	0.2966	0.5804	0.6662	0.054
Mof_H 	H 	0.3182	0.5321	0.6528	-0.006
Mof_C 	C 	0.3669	0.6433	0.6716	-0.144
Mof_H 	H 	0.4333	0.6388	0.6611	0.051
Mof_C 	C 	0.5123	0.7847	0.6887	-0.173
Mof_H 	H 	0.5447	0.7384	0.6774	0.06
Mof_C 	C 	0.5649	0.855	0.6947	0.097
Mof_H 	H 	0.6342	0.8571	0.6878	-0.045
Mof_C 	C 	0.5194	0.9225	0.7106	-0.197
Mof_H 	H 	0.5568	0.9709	0.7151	0.069
Mof_C 	C 	0.414	0.9187	0.7202	0.106
Mof_H 	H 	0.3818	0.9661	0.7303	-0.051
Mof_C 	C 	0.3364	0.7122	0.6928	0.064
Mof_C 	C 	0.4045	0.7812	0.6998	0.071
Mof_C 	C 	0.8751	0.8299	0.8324	0.125
Mof_H 	H 	0.8966	0.8837	0.8381	-0.04
Mof_C 	C 	0.7733	0.812	0.835	-0.202
Mof_H 	H 	0.7258	0.8522	0.8428	0.083
Mof_C 	C 	0.7432	0.7337	0.8257	0.099
Mof_H 	H 	0.6736	0.7201	0.8263	-0.049
Mof_C 	C 	0.8133	0.6744	0.8156	-0.165
Mof_H 	H 	0.7921	0.6204	0.81	0.063
Mof_C 	C 	0.9777	0.5529	0.7976	-0.123
Mof_H 	H 	0.9103	0.5332	0.7976	0.052
Mof_C 	C 	0.0592	0.5002	0.7907	0.047
Mof_H 	H 	0.0475	0.4442	0.786	0.003
Mof_C 	C 	0.1574	0.5309	0.791	-0.155
Mof_H 	H 	0.2132	0.4962	0.7863	0.057
Mof_C 	C 	0.1723	0.6148	0.7982	0.098
Mof_H 	H 	0.2392	0.6356	0.7995	-0.016
Mof_C 	C 	0.9156	0.6956	0.8138	0.097
Mof_C 	C 	0.9984	0.6359	0.8046	0.071
Mof_Cd	Cd	0.5	0.5	-0	0.577
Mof_Cd	Cd	0.5	7.79248e-33	0.5	0.575
_end
