data_functionalizedCrystal
_audit_creation_method	'EQeq! by Chris Wilmer'
_symmetry_space_group_name_H-M	'P1'
_symmetry_Int_Tables_number	1
_symmetry_cell_setting	triclinic
loop_
_symmetry_equiv_pos_as_xyz
  x,y,z
_cell_length_a	14.1157
_cell_length_b	17.8669
_cell_length_c	19.8394
_cell_angle_alpha	91.256
_cell_angle_beta	90
_cell_angle_gamma	90
loop_
_atom_site_label
_atom_site_type_symbol
_atom_site_fract_x
_atom_site_fract_y
_atom_site_fract_z
_atom_site_charge
Mof_Ni	Ni	0.9481	0.75194	0.57093	1.147
Mof_Ni	Ni	0.18403	0.79743	0.58408	1.136
Mof_Ni	Ni	0.20592	0.30263	0.55638	1.136
Mof_Ni	Ni	0.4481	0.74806	0.92907	1.147
Mof_Ni	Ni	0.68403	0.70257	0.91592	1.135
Mof_Ni	Ni	0.70592	0.19737	0.94362	1.136
Mof_Ni	Ni	0.0519	0.24806	0.42907	1.147
Mof_Ni	Ni	0.81597	0.20257	0.41592	1.136
Mof_Ni	Ni	0.79408	0.69737	0.44362	1.135
Mof_Ni	Ni	0.5519	0.25194	0.07093	1.146
Mof_Ni	Ni	0.31597	0.29743	0.08408	1.134
Mof_Ni	Ni	0.29408	0.80263	0.05638	1.135
Mof_H 	H 	0.0101	0.6819	0.4275	0.03
Mof_H 	H 	0.9983	0.4616	0.3764	0.04
Mof_H 	H 	0.192	0.5366	0.5149	0.026
Mof_H 	H 	0.8629	0.9621	0.3994	0.049
Mof_H 	H 	0.1351	0.0319	0.4272	0.041
Mof_H 	H 	0.071	0.8127	0.4437	0.039
Mof_H 	H 	0.0603	0.703	0.9588	0.058
Mof_H 	H 	0.9255	0.704	0.7793	0.049
Mof_H 	H 	0.2062	0.7452	0.7892	0.039
Mof_H 	H 	0.6008	0.3639	0.4988	0.127
Mof_H 	H 	0.5665	0.4471	0.518	0.104
Mof_H 	H 	0.5105	0.3989	0.4613	0.104
Mof_H 	H 	0.5907	0.3603	0.6237	0.137
Mof_H 	H 	0.4903	0.344	0.6549	0.142
Mof_H 	H 	0.5415	0.2828	0.6096	0.155
Mof_H 	H 	0.3653	0.38	0.5093	-0.031
Mof_H 	H 	0.5101	0.8181	0.0725	0.029
Mof_H 	H 	0.4983	0.0384	0.1236	0.035
Mof_H 	H 	0.692	0.9634	0.9851	0.021
Mof_H 	H 	0.3629	0.5379	0.1006	0.049
Mof_H 	H 	0.6351	0.4681	0.0728	0.041
Mof_H 	H 	0.571	0.6873	0.0563	0.039
Mof_H 	H 	0.5603	0.797	0.5412	0.059
Mof_H 	H 	0.4255	0.796	0.7207	0.049
Mof_H 	H 	0.7062	0.7548	0.7108	0.04
Mof_H 	H 	0.1008	0.1361	0.0012	0.119
Mof_H 	H 	0.0665	0.0529	0.982	0.1
Mof_H 	H 	0.0105	0.1011	0.0387	0.096
Mof_H 	H 	0.0907	0.1397	0.8763	0.135
Mof_H 	H 	0.9903	0.156	0.8451	0.138
Mof_H 	H 	0.0415	0.2172	0.8904	0.153
Mof_H 	H 	0.8653	0.12	0.9907	-0.032
Mof_H 	H 	0.9899	0.3181	0.5725	0.03
Mof_H 	H 	0.0017	0.5384	0.6236	0.04
Mof_H 	H 	0.808	0.4634	0.4851	0.026
Mof_H 	H 	0.1371	0.0379	0.6006	0.049
Mof_H 	H 	0.8649	0.9681	0.5728	0.041
Mof_H 	H 	0.929	0.1873	0.5563	0.039
Mof_H 	H 	0.9397	0.297	0.0412	0.058
Mof_H 	H 	0.0745	0.296	0.2207	0.049
Mof_H 	H 	0.7938	0.2548	0.2108	0.039
Mof_H 	H 	0.3992	0.6361	0.5012	0.127
Mof_H 	H 	0.4335	0.5529	0.482	0.104
Mof_H 	H 	0.4895	0.6011	0.5387	0.104
Mof_H 	H 	0.4093	0.6397	0.3763	0.137
Mof_H 	H 	0.5097	0.656	0.3451	0.142
Mof_H 	H 	0.4585	0.7172	0.3904	0.155
Mof_H 	H 	0.6347	0.62	0.4907	-0.031
Mof_H 	H 	0.4899	0.1819	0.9275	0.029
Mof_H 	H 	0.5017	0.9616	0.8764	0.035
Mof_H 	H 	0.308	0.0366	0.0149	0.021
Mof_H 	H 	0.6371	0.4621	0.8994	0.049
Mof_H 	H 	0.3649	0.5319	0.9272	0.041
Mof_H 	H 	0.429	0.3127	0.9437	0.039
Mof_H 	H 	0.4397	0.203	0.4588	0.059
Mof_H 	H 	0.5745	0.204	0.2793	0.049
Mof_H 	H 	0.2938	0.2452	0.2892	0.04
Mof_H 	H 	0.8992	0.8639	0.9988	0.119
Mof_H 	H 	0.9335	0.9471	0.018	0.1
Mof_H 	H 	0.9895	0.8989	0.9613	0.096
Mof_H 	H 	0.9093	0.8603	0.1237	0.135
Mof_H 	H 	0.0097	0.844	0.1549	0.138
Mof_H 	H 	0.9585	0.7828	0.1096	0.153
Mof_H 	H 	0.1347	0.88	0.0093	-0.032
Mof_C 	C 	0.0667	0.7419	0.6974	0.37
Mof_C 	C 	0.1425	0.6816	0.5194	0.332
Mof_C 	C 	0.1084	0.618	0.4767	-0.12
Mof_C 	C 	0.0333	0.6324	0.4315	0.043
Mof_C 	C 	0.9922	0.5752	0.3933	-0.116
Mof_C 	C 	0.0259	0.5023	0.4016	0.057
Mof_C 	C 	0.099	0.4881	0.4466	-0.117
Mof_C 	C 	0.141	0.5461	0.4841	0.062
Mof_C 	C 	0.1228	0.4065	0.462	0.381
Mof_C 	C 	0.8858	0.8159	0.4295	0.342
Mof_C 	C 	0.956	0.8784	0.424	-0.104
Mof_C 	C 	0.9265	0.9517	0.4103	0.046
Mof_C 	C 	0.9939	0.0095	0.4131	-0.114
Mof_C 	C 	0.0893	0.9928	0.4261	0.038
Mof_C 	C 	0.1176	0.9201	0.4365	-0.102
Mof_C 	C 	0.0508	0.8624	0.436	0.03
Mof_C 	C 	0.2198	0.9049	0.4544	0.315
Mof_C 	C 	0.9648	0.0911	0.4107	0.374
Mof_C 	C 	0.2364	0.7349	0.9215	0.362
Mof_C 	C 	0.1474	0.7232	0.8784	-0.105
Mof_C 	C 	0.0623	0.7072	0.9113	0.036
Mof_C 	C 	0.9804	0.7	0.8733	-0.09
Mof_C 	C 	0.9817	0.7093	0.8048	0.034
Mof_C 	C 	0.0664	0.7262	0.7727	-0.111
Mof_C 	C 	0.149	0.7328	0.8109	0.04
Mof_C 	C 	0.8889	0.6844	0.9103	0.314
Mof_C 	C 	0.9091	0.5915	0.3479	0.339
Mof_C 	C 	0.3914	0.3629	0.5503	0.207
Mof_C 	C 	0.5446	0.396	0.5047	-0.268
Mof_C 	C 	0.5299	0.3364	0.6151	-0.327
Mof_C 	C 	0.5667	0.7581	0.8026	0.369
Mof_C 	C 	0.6425	0.8184	0.9806	0.332
Mof_C 	C 	0.6084	0.882	0.0233	-0.124
Mof_C 	C 	0.5333	0.8676	0.0685	0.048
Mof_C 	C 	0.4922	0.9248	0.1067	-0.122
Mof_C 	C 	0.5259	0.9977	0.0984	0.069
Mof_C 	C 	0.599	0.0119	0.0534	-0.127
Mof_C 	C 	0.641	0.9539	0.0159	0.073
Mof_C 	C 	0.6228	0.0935	0.038	0.382
Mof_C 	C 	0.3858	0.6841	0.0705	0.342
Mof_C 	C 	0.456	0.6216	0.076	-0.105
Mof_C 	C 	0.4265	0.5483	0.0897	0.045
Mof_C 	C 	0.4939	0.4905	0.0869	-0.113
Mof_C 	C 	0.5893	0.5072	0.0739	0.038
Mof_C 	C 	0.6176	0.5799	0.0635	-0.101
Mof_C 	C 	0.5508	0.6376	0.064	0.03
Mof_C 	C 	0.7198	0.5951	0.0456	0.315
Mof_C 	C 	0.4648	0.4089	0.0893	0.374
Mof_C 	C 	0.7364	0.7651	0.5785	0.362
Mof_C 	C 	0.6474	0.7768	0.6216	-0.104
Mof_C 	C 	0.5623	0.7928	0.5887	0.034
Mof_C 	C 	0.4804	0.8	0.6267	-0.089
Mof_C 	C 	0.4817	0.7907	0.6952	0.034
Mof_C 	C 	0.5664	0.7738	0.7273	-0.111
Mof_C 	C 	0.649	0.7672	0.6891	0.039
Mof_C 	C 	0.3889	0.8156	0.5897	0.313
Mof_C 	C 	0.4091	0.9085	0.1521	0.341
Mof_C 	C 	0.8914	0.1371	0.9497	0.209
Mof_C 	C 	0.0446	0.104	0.9953	-0.247
Mof_C 	C 	0.0299	0.1636	0.8849	-0.317
Mof_C 	C 	0.9333	0.2581	0.3026	0.37
Mof_C 	C 	0.8575	0.3184	0.4806	0.332
Mof_C 	C 	0.8916	0.382	0.5233	-0.12
Mof_C 	C 	0.9667	0.3676	0.5685	0.043
Mof_C 	C 	0.0078	0.4248	0.6067	-0.116
Mof_C 	C 	0.9741	0.4977	0.5984	0.057
Mof_C 	C 	0.901	0.5119	0.5534	-0.117
Mof_C 	C 	0.859	0.4539	0.5159	0.062
Mof_C 	C 	0.8772	0.5935	0.538	0.381
Mof_C 	C 	0.1142	0.1841	0.5705	0.342
Mof_C 	C 	0.044	0.1216	0.576	-0.104
Mof_C 	C 	0.0735	0.0483	0.5897	0.046
Mof_C 	C 	0.0061	0.9905	0.5869	-0.114
Mof_C 	C 	0.9107	0.0072	0.5739	0.038
Mof_C 	C 	0.8824	0.0799	0.5635	-0.102
Mof_C 	C 	0.9492	0.1376	0.564	0.03
Mof_C 	C 	0.7802	0.0951	0.5456	0.315
Mof_C 	C 	0.0352	0.9089	0.5893	0.374
Mof_C 	C 	0.7636	0.2651	0.0785	0.362
Mof_C 	C 	0.8526	0.2768	0.1216	-0.105
Mof_C 	C 	0.9377	0.2928	0.0887	0.036
Mof_C 	C 	0.0196	0.3	0.1267	-0.09
Mof_C 	C 	0.0183	0.2907	0.1952	0.034
Mof_C 	C 	0.9336	0.2738	0.2273	-0.111
Mof_C 	C 	0.851	0.2672	0.1891	0.04
Mof_C 	C 	0.1111	0.3156	0.0897	0.314
Mof_C 	C 	0.0909	0.4085	0.6521	0.339
Mof_C 	C 	0.6086	0.6371	0.4497	0.207
Mof_C 	C 	0.4554	0.604	0.4953	-0.268
Mof_C 	C 	0.4701	0.6636	0.3849	-0.327
Mof_C 	C 	0.4333	0.2419	0.1974	0.369
Mof_C 	C 	0.3575	0.1816	0.0194	0.332
Mof_C 	C 	0.3916	0.118	0.9767	-0.124
Mof_C 	C 	0.4667	0.1324	0.9315	0.048
Mof_C 	C 	0.5078	0.0752	0.8933	-0.122
Mof_C 	C 	0.4741	0.0023	0.9016	0.069
Mof_C 	C 	0.401	0.9881	0.9466	-0.127
Mof_C 	C 	0.359	0.0461	0.9841	0.073
Mof_C 	C 	0.3772	0.9065	0.962	0.382
Mof_C 	C 	0.6142	0.3159	0.9295	0.342
Mof_C 	C 	0.544	0.3784	0.924	-0.105
Mof_C 	C 	0.5735	0.4517	0.9103	0.045
Mof_C 	C 	0.5061	0.5095	0.9131	-0.113
Mof_C 	C 	0.4107	0.4928	0.9261	0.038
Mof_C 	C 	0.3824	0.4201	0.9365	-0.101
Mof_C 	C 	0.4492	0.3624	0.936	0.03
Mof_C 	C 	0.2802	0.4049	0.9544	0.315
Mof_C 	C 	0.5352	0.5911	0.9107	0.374
Mof_C 	C 	0.2636	0.2349	0.4215	0.362
Mof_C 	C 	0.3526	0.2232	0.3784	-0.104
Mof_C 	C 	0.4377	0.2072	0.4113	0.034
Mof_C 	C 	0.5196	0.2	0.3733	-0.089
Mof_C 	C 	0.5183	0.2093	0.3048	0.034
Mof_C 	C 	0.4336	0.2262	0.2727	-0.111
Mof_C 	C 	0.351	0.2328	0.3109	0.039
Mof_C 	C 	0.6111	0.1844	0.4103	0.313
Mof_C 	C 	0.5909	0.0915	0.8479	0.341
Mof_C 	C 	0.1086	0.8629	0.0503	0.209
Mof_C 	C 	0.9554	0.896	0.0047	-0.247
Mof_C 	C 	0.9701	0.8364	0.1151	-0.317
Mof_N 	N 	0.4838	0.3666	0.5561	-0.07
Mof_N 	N 	0.9838	0.1334	0.9439	-0.075
Mof_N 	N 	0.5162	0.6334	0.4439	-0.07
Mof_N 	N 	0.0162	0.8666	0.0561	-0.075
Mof_O 	O 	0.9898	0.7384	0.6681	-0.408
Mof_O 	O 	0.1484	0.757	0.6731	-0.418
Mof_O 	O 	0.0854	0.7367	0.5334	-0.499
Mof_O 	O 	0.2255	0.6846	0.5431	-0.356
Mof_O 	O 	0.0734	0.3581	0.4324	-0.421
Mof_O 	O 	0.1882	0.396	0.5045	-0.422
Mof_O 	O 	0.9062	0.7631	0.4695	-0.498
Mof_O 	O 	0.8127	0.8117	0.3943	-0.324
Mof_O 	O 	0.2348	0.8404	0.4841	-0.3
Mof_O 	O 	0.2814	0.9494	0.4422	-0.23
Mof_O 	O 	0.8771	0.1032	0.4007	-0.41
Mof_O 	O 	0.0291	0.1374	0.4185	-0.427
Mof_O 	O 	0.2201	0.7488	0.9839	-0.401
Mof_O 	O 	0.3145	0.7306	0.892	-0.398
Mof_O 	O 	0.8136	0.6788	0.8773	-0.369
Mof_O 	O 	0.8951	0.6797	0.9748	-0.221
Mof_O 	O 	0.8604	0.6511	0.3603	-0.368
Mof_O 	O 	0.8912	0.5462	0.3017	-0.264
Mof_O 	O 	0.3355	0.3381	0.5926	-0.343
Mof_O 	O 	0.4898	0.7616	0.8319	-0.408
Mof_O 	O 	0.6484	0.743	0.8269	-0.418
Mof_O 	O 	0.5854	0.7633	0.9666	-0.499
Mof_O 	O 	0.7255	0.8154	0.9569	-0.356
Mof_O 	O 	0.5734	0.1419	0.0676	-0.421
Mof_O 	O 	0.6882	0.104	0.9955	-0.422
Mof_O 	O 	0.4062	0.7369	0.0305	-0.498
Mof_O 	O 	0.3127	0.6883	0.1057	-0.324
Mof_O 	O 	0.7348	0.6596	0.0159	-0.299
Mof_O 	O 	0.7814	0.5506	0.0578	-0.23
Mof_O 	O 	0.3771	0.3968	0.0993	-0.41
Mof_O 	O 	0.5291	0.3626	0.0815	-0.428
Mof_O 	O 	0.7201	0.7512	0.5161	-0.4
Mof_O 	O 	0.8145	0.7694	0.608	-0.398
Mof_O 	O 	0.3136	0.8212	0.6227	-0.368
Mof_O 	O 	0.3951	0.8203	0.5252	-0.22
Mof_O 	O 	0.3604	0.8489	0.1397	-0.368
Mof_O 	O 	0.3912	0.9538	0.1983	-0.264
Mof_O 	O 	0.8355	0.1619	0.9074	-0.343
Mof_O 	O 	0.0102	0.2616	0.3319	-0.408
Mof_O 	O 	0.8516	0.243	0.3269	-0.418
Mof_O 	O 	0.9146	0.2633	0.4666	-0.499
Mof_O 	O 	0.7745	0.3154	0.4569	-0.356
Mof_O 	O 	0.9266	0.6419	0.5676	-0.421
Mof_O 	O 	0.8118	0.604	0.4955	-0.422
Mof_O 	O 	0.0938	0.2369	0.5305	-0.498
Mof_O 	O 	0.1873	0.1883	0.6057	-0.324
Mof_O 	O 	0.7652	0.1596	0.5159	-0.3
Mof_O 	O 	0.7186	0.0506	0.5578	-0.23
Mof_O 	O 	0.1229	0.8968	0.5993	-0.41
Mof_O 	O 	0.9709	0.8626	0.5815	-0.427
Mof_O 	O 	0.7799	0.2512	0.0161	-0.401
Mof_O 	O 	0.6855	0.2694	0.108	-0.398
Mof_O 	O 	0.1864	0.3212	0.1227	-0.369
Mof_O 	O 	0.1049	0.3203	0.0252	-0.221
Mof_O 	O 	0.1396	0.3489	0.6397	-0.368
Mof_O 	O 	0.1088	0.4538	0.6983	-0.264
Mof_O 	O 	0.6645	0.6619	0.4074	-0.343
Mof_O 	O 	0.5102	0.2384	0.1681	-0.408
Mof_O 	O 	0.3516	0.257	0.1731	-0.418
Mof_O 	O 	0.4146	0.2367	0.0334	-0.499
Mof_O 	O 	0.2745	0.1846	0.0431	-0.356
Mof_O 	O 	0.4266	0.8581	0.9324	-0.421
Mof_O 	O 	0.3118	0.896	0.0045	-0.422
Mof_O 	O 	0.5938	0.2631	0.9695	-0.498
Mof_O 	O 	0.6873	0.3117	0.8943	-0.324
Mof_O 	O 	0.2652	0.3404	0.9841	-0.299
Mof_O 	O 	0.2186	0.4494	0.9422	-0.23
Mof_O 	O 	0.6229	0.6032	0.9007	-0.41
Mof_O 	O 	0.4709	0.6374	0.9185	-0.428
Mof_O 	O 	0.2799	0.2488	0.4839	-0.4
Mof_O 	O 	0.1855	0.2306	0.392	-0.398
Mof_O 	O 	0.6864	0.1788	0.3773	-0.368
Mof_O 	O 	0.6049	0.1797	0.4748	-0.22
Mof_O 	O 	0.6396	0.1511	0.8603	-0.368
Mof_O 	O 	0.6088	0.0462	0.8017	-0.264
Mof_O 	O 	0.1645	0.8381	0.0926	-0.343
Mof_H 	H 	0.7668	0.8465	0.8106	0.197
Mof_H 	H 	0.7203	0.9224	0.8364	0.199
Mof_H 	H 	0.8187	0.8962	0.8662	0.188
Mof_H 	H 	0.8898	0.0406	0.7631	0.173
Mof_H 	H 	0.8187	0.0368	0.8244	0.192
Mof_H 	H 	0.9207	0.0015	0.8304	0.161
Mof_H 	H 	0.9457	0.9211	0.7185	0.186
Mof_H 	H 	0.8804	0.8493	0.7197	0.19
Mof_H 	H 	0.9426	0.8712	0.7833	0.186
Mof_H 	H 	0.7892	0.9786	0.6821	0.2
Mof_H 	H 	0.7341	0.9051	0.7005	0.197
Mof_H 	H 	0.7063	0.9821	0.7353	0.208
Mof_C 	C 	0.7792	0.8974	0.8263	-0.495
Mof_C 	C 	0.8669	0.0106	0.7999	-0.451
Mof_C 	C 	0.9068	0.8908	0.7473	-0.478
Mof_C 	C 	0.7593	0.9519	0.7176	-0.49
Mof_N 	N 	0.8286	0.9374	0.7753	0.108
Mof_H 	H 	0.2668	0.6535	0.6894	0.197
Mof_H 	H 	0.2203	0.5776	0.6636	0.2
Mof_H 	H 	0.3187	0.6038	0.6338	0.189
Mof_H 	H 	0.3898	0.4594	0.7369	0.173
Mof_H 	H 	0.3187	0.4632	0.6756	0.192
Mof_H 	H 	0.4207	0.4985	0.6696	0.161
Mof_H 	H 	0.4457	0.5789	0.7815	0.186
Mof_H 	H 	0.3804	0.6507	0.7803	0.19
Mof_H 	H 	0.4426	0.6288	0.7167	0.186
Mof_H 	H 	0.2892	0.5214	0.8179	0.201
Mof_H 	H 	0.2341	0.5949	0.7995	0.198
Mof_H 	H 	0.2063	0.5179	0.7647	0.209
Mof_C 	C 	0.2792	0.6026	0.6737	-0.495
Mof_C 	C 	0.3669	0.4894	0.7001	-0.452
Mof_C 	C 	0.4068	0.6092	0.7527	-0.479
Mof_C 	C 	0.2593	0.5481	0.7824	-0.491
Mof_N 	N 	0.3286	0.5626	0.7247	0.108
Mof_H 	H 	0.2332	0.1535	0.1894	0.197
Mof_H 	H 	0.2797	0.0776	0.1636	0.199
Mof_H 	H 	0.1813	0.1038	0.1338	0.188
Mof_H 	H 	0.1102	0.9594	0.2369	0.173
Mof_H 	H 	0.1813	0.9632	0.1756	0.192
Mof_H 	H 	0.0793	0.9985	0.1696	0.161
Mof_H 	H 	0.0543	0.0789	0.2815	0.186
Mof_H 	H 	0.1196	0.1507	0.2803	0.19
Mof_H 	H 	0.0574	0.1288	0.2167	0.186
Mof_H 	H 	0.2108	0.0214	0.3179	0.2
Mof_H 	H 	0.2659	0.0949	0.2995	0.197
Mof_H 	H 	0.2937	0.0179	0.2647	0.208
Mof_C 	C 	0.2208	0.1026	0.1737	-0.495
Mof_C 	C 	0.1331	0.9894	0.2001	-0.451
Mof_C 	C 	0.0932	0.1092	0.2527	-0.478
Mof_C 	C 	0.2407	0.0481	0.2824	-0.49
Mof_N 	N 	0.1714	0.0626	0.2247	0.108
Mof_H 	H 	0.7332	0.3465	0.3106	0.197
Mof_H 	H 	0.7797	0.4224	0.3364	0.2
Mof_H 	H 	0.6813	0.3962	0.3662	0.189
Mof_H 	H 	0.6102	0.5406	0.2631	0.173
Mof_H 	H 	0.6813	0.5368	0.3244	0.192
Mof_H 	H 	0.5793	0.5015	0.3304	0.161
Mof_H 	H 	0.5543	0.4211	0.2185	0.186
Mof_H 	H 	0.6196	0.3493	0.2197	0.19
Mof_H 	H 	0.5574	0.3712	0.2833	0.186
Mof_H 	H 	0.7108	0.4786	0.1821	0.201
Mof_H 	H 	0.7659	0.4051	0.2005	0.198
Mof_H 	H 	0.7937	0.4821	0.2353	0.209
Mof_C 	C 	0.7208	0.3974	0.3263	-0.495
Mof_C 	C 	0.6331	0.5106	0.2999	-0.452
Mof_C 	C 	0.5932	0.3908	0.2473	-0.479
Mof_C 	C 	0.7407	0.4519	0.2176	-0.491
Mof_N 	N 	0.6714	0.4374	0.2753	0.108
_end
