data_functionalizedCrystal
_audit_creation_method	'EQeq! by Chris Wilmer'
_symmetry_space_group_name_H-M	'P1'
_symmetry_Int_Tables_number	1
_symmetry_cell_setting	triclinic
loop_
_symmetry_equiv_pos_as_xyz
  x,y,z
_cell_length_a	9.0356
_cell_length_b	16.6644
_cell_length_c	17.2419
_cell_angle_alpha	117.194
_cell_angle_beta	98.948
_cell_angle_gamma	93.947
loop_
_atom_site_label
_atom_site_type_symbol
_atom_site_fract_x
_atom_site_fract_y
_atom_site_fract_z
_atom_site_charge
Mof_Cd	Cd	0.86865	0.01431	0.30462	0.43
Mof_Cd	Cd	0.30956	0.6703	0.68215	0.425
Mof_Cd	Cd	0.9456	0.28648	0.93772	0.418
Mof_C 	C 	0.6067	0.8521	0.2725	0.106
Mof_H 	H 	0.5616	0.8457	0.2172	0.025
Mof_C 	C 	0.7537	0.8892	0.3934	0.102
Mof_H 	H 	0.8372	0.9171	0.4407	0.033
Mof_C 	C 	0.4076	0.7506	0.2855	-0.005
Mof_H 	H 	0.3428	0.7531	0.2365	0.064
Mof_H 	H 	0.355	0.7686	0.3344	0.056
Mof_C 	C 	0.5099	0.5352	0.1761	0.09
Mof_C 	C 	0.5792	0.4701	0.1064	0.07
Mof_C 	C 	0.5749	0.381	0.0895	-0.131
Mof_H 	H 	0.5196	0.3589	0.1189	0.103
Mof_C 	C 	0.6524	0.3248	0.0291	0.09
Mof_H 	H 	0.6478	0.2645	0.0182	0.028
Mof_C 	C 	0.7334	0.4386	0.9997	0.086
Mof_H 	H 	0.7858	0.4586	0.9678	0.026
Mof_C 	C 	0.6588	0.4992	0.0595	-0.132
Mof_H 	H 	0.6622	0.5587	0.0682	0.094
Mof_C 	C 	0.4241	0.6015	0.2932	0.088
Mof_C 	C 	0.3772	0.6247	0.3787	0.077
Mof_C 	C 	0.4533	0.7005	0.4561	-0.141
Mof_H 	H 	0.5252	0.7422	0.4546	0.103
Mof_C 	C 	0.4199	0.7127	0.5353	0.091
Mof_H 	H 	0.4727	0.7632	0.5875	0.025
Mof_C 	C 	0.2408	0.5852	0.4666	0.088
Mof_H 	H 	0.1664	0.5459	0.4694	0.024
Mof_C 	C 	0.269	0.5677	0.3843	-0.136
Mof_H 	H 	0.2141	0.5171	0.3329	0.094
Mof_C 	C 	0.794	0.9831	0.1322	0.302
Mof_C 	C 	0.4752	0.8277	0.8229	0.302
Mof_C 	C 	0.8167	0.1267	0.9349	0.292
Mof_C 	C 	0.7424	0.9816	0.0441	-0.067
Mof_C 	C 	0.6335	0.9094	0.9768	0.014
Mof_H 	H 	0.5934	0.8626	0.9864	0.054
Mof_C 	C 	0.5859	0.9083	0.8952	-0.073
Mof_C 	C 	0.6457	0.9781	0.8816	0.017
Mof_H 	H 	0.6139	0.977	0.8271	0.057
Mof_C 	C 	0.7532	0.0501	0.9485	-0.067
Mof_C 	C 	0.7996	0.051	0.0291	0.013
Mof_H 	H 	0.8706	0.0993	0.0741	0.064
Mof_C 	C 	0.9718	0.1624	0.4732	0.296
Mof_C 	C 	0.9817	0.3289	0.8009	0.298
Mof_C 	C 	0.1839	0.4962	0.6495	0.303
Mof_C 	C 	0.0127	0.2492	0.5607	-0.075
Mof_C 	C 	0.9823	0.2502	0.6374	0.018
Mof_H 	H 	0.9384	0.1966	0.6346	0.054
Mof_C 	C 	0.0161	0.3301	0.7183	-0.076
Mof_C 	C 	0.0818	0.4098	0.7225	0.019
Mof_H 	H 	0.1033	0.4637	0.7765	0.053
Mof_C 	C 	0.1163	0.4101	0.6463	-0.079
Mof_C 	C 	0.08	0.3294	0.5662	0.02
Mof_H 	H 	0.1013	0.3291	0.515	0.055
Mof_N 	N 	0.7392	0.9027	0.3208	-0.149
Mof_N 	N 	0.6425	0.8345	0.3918	-0.088
Mof_N 	N 	0.5481	0.8123	0.3135	-0.088
Mof_N 	N 	0.4386	0.6585	0.2574	-0.084
Mof_N 	N 	0.4951	0.616	0.1823	-0.086
Mof_N 	N 	0.4652	0.5227	0.2424	-0.122
Mof_N 	N 	0.7348	0.3527	0.9848	-0.148
Mof_N 	N 	0.3171	0.6569	0.5422	-0.151
Mof_O 	O 	0.7496	0.9174	0.1428	-0.266
Mof_O 	O 	0.8783	0.0536	0.1944	-0.262
Mof_O 	O 	0.9041	0.1939	0.9998	-0.267
Mof_O 	O 	0.779	0.1256	0.8605	-0.244
Mof_O 	O 	0.4565	0.8168	0.7439	-0.267
Mof_O 	O 	0.4099	0.7714	0.8391	-0.268
Mof_O 	O 	0.9911	0.1657	0.4033	-0.257
Mof_O 	O 	0.9206	0.0906	0.4713	-0.266
Mof_O 	O 	0.9523	0.2516	0.7969	-0.273
Mof_O 	O 	0.9821	0.4012	0.8693	-0.265
Mof_O 	O 	0.2001	0.5706	0.7204	-0.269
Mof_O 	O 	0.2238	0.4924	0.5822	-0.261
Mof_Cd	Cd	0.13135	0.98569	0.69538	0.429
Mof_Cd	Cd	0.69044	0.3297	0.31785	0.424
Mof_Cd	Cd	0.0544	0.71352	0.06228	0.417
Mof_C 	C 	0.3933	0.1479	0.7275	0.105
Mof_H 	H 	0.4384	0.1543	0.7828	0.024
Mof_C 	C 	0.2463	0.1108	0.6066	0.101
Mof_H 	H 	0.1628	0.0829	0.5593	0.032
Mof_C 	C 	0.5924	0.2494	0.7145	-0.006
Mof_H 	H 	0.6572	0.2469	0.7635	0.064
Mof_H 	H 	0.645	0.2314	0.6656	0.056
Mof_C 	C 	0.4901	0.4648	0.8239	0.09
Mof_C 	C 	0.4208	0.5299	0.8936	0.07
Mof_C 	C 	0.4251	0.619	0.9105	-0.131
Mof_H 	H 	0.4804	0.6411	0.8811	0.103
Mof_C 	C 	0.3476	0.6752	0.9709	0.09
Mof_H 	H 	0.3522	0.7355	0.9818	0.028
Mof_C 	C 	0.2666	0.5614	0.0003	0.086
Mof_H 	H 	0.2142	0.5414	0.0322	0.026
Mof_C 	C 	0.3412	0.5008	0.9405	-0.132
Mof_H 	H 	0.3378	0.4413	0.9318	0.094
Mof_C 	C 	0.5759	0.3985	0.7068	0.088
Mof_C 	C 	0.6228	0.3753	0.6213	0.077
Mof_C 	C 	0.5467	0.2995	0.5439	-0.141
Mof_H 	H 	0.4748	0.2578	0.5454	0.103
Mof_C 	C 	0.5801	0.2873	0.4647	0.091
Mof_H 	H 	0.5273	0.2368	0.4125	0.025
Mof_C 	C 	0.7592	0.4148	0.5334	0.088
Mof_H 	H 	0.8336	0.4541	0.5306	0.024
Mof_C 	C 	0.731	0.4323	0.6157	-0.136
Mof_H 	H 	0.7859	0.4829	0.6671	0.094
Mof_C 	C 	0.206	0.0169	0.8678	0.302
Mof_C 	C 	0.5248	0.1723	0.1771	0.302
Mof_C 	C 	0.1833	0.8733	0.0651	0.292
Mof_C 	C 	0.2576	0.0184	0.9559	-0.067
Mof_C 	C 	0.3665	0.0906	0.0232	0.014
Mof_H 	H 	0.4066	0.1374	0.0136	0.054
Mof_C 	C 	0.4141	0.0917	0.1048	-0.073
Mof_C 	C 	0.3543	0.0219	0.1184	0.017
Mof_H 	H 	0.3861	0.023	0.1729	0.057
Mof_C 	C 	0.2468	0.9499	0.0515	-0.067
Mof_C 	C 	0.2004	0.949	0.9709	0.013
Mof_H 	H 	0.1294	0.9007	0.9259	0.064
Mof_C 	C 	0.0282	0.8376	0.5268	0.296
Mof_C 	C 	0.0183	0.6711	0.1991	0.298
Mof_C 	C 	0.8161	0.5038	0.3505	0.303
Mof_C 	C 	0.9873	0.7508	0.4393	-0.075
Mof_C 	C 	0.0177	0.7498	0.3626	0.018
Mof_H 	H 	0.0616	0.8034	0.3654	0.054
Mof_C 	C 	0.9839	0.6699	0.2817	-0.076
Mof_C 	C 	0.9182	0.5902	0.2775	0.019
Mof_H 	H 	0.8967	0.5363	0.2235	0.053
Mof_C 	C 	0.8837	0.5899	0.3537	-0.079
Mof_C 	C 	0.92	0.6706	0.4338	0.02
Mof_H 	H 	0.8987	0.6709	0.485	0.055
Mof_N 	N 	0.2608	0.0973	0.6792	-0.149
Mof_N 	N 	0.3575	0.1655	0.6082	-0.088
Mof_N 	N 	0.4519	0.1877	0.6865	-0.088
Mof_N 	N 	0.5614	0.3415	0.7426	-0.084
Mof_N 	N 	0.5049	0.384	0.8177	-0.086
Mof_N 	N 	0.5348	0.4773	0.7576	-0.122
Mof_N 	N 	0.2652	0.6473	0.0152	-0.148
Mof_N 	N 	0.6829	0.3431	0.4578	-0.151
Mof_O 	O 	0.2504	0.0826	0.8572	-0.266
Mof_O 	O 	0.1217	0.9464	0.8056	-0.262
Mof_O 	O 	0.0959	0.8061	0.0002	-0.267
Mof_O 	O 	0.221	0.8744	0.1395	-0.244
Mof_O 	O 	0.5435	0.1832	0.2561	-0.267
Mof_O 	O 	0.5901	0.2286	0.1609	-0.268
Mof_O 	O 	0.0089	0.8343	0.5967	-0.257
Mof_O 	O 	0.0794	0.9094	0.5287	-0.266
Mof_O 	O 	0.0477	0.7484	0.2031	-0.273
Mof_O 	O 	0.0179	0.5988	0.1307	-0.265
Mof_O 	O 	0.7999	0.4294	0.2796	-0.269
Mof_O 	O 	0.7762	0.5076	0.4178	-0.261
_end
