data_functionalizedCrystal
_audit_creation_method	'EQeq! by Chris Wilmer'
_symmetry_space_group_name_H-M	'P1'
_symmetry_Int_Tables_number	1
_symmetry_cell_setting	triclinic
loop_
_symmetry_equiv_pos_as_xyz
  x,y,z
_cell_length_a	8.8567
_cell_length_b	20.693
_cell_length_c	34.249
_cell_angle_alpha	90
_cell_angle_beta	90
_cell_angle_gamma	90
loop_
_atom_site_label
_atom_site_type_symbol
_atom_site_fract_x
_atom_site_fract_y
_atom_site_fract_z
_atom_site_charge
Mof_O 	O 	0.2404	0.3334	0.6794	-0.545
Mof_C 	C 	0.1022	0.3199	0.6822	0.547
Mof_O 	O 	0.0061	0.3352	0.6573	-0.594
Mof_C 	C 	0.0497	0.2839	0.7175	-0.154
Mof_C 	C 	0.1504	0.2624	0.7449	0.008
Mof_C 	C 	0.1009	0.2291	0.7775	0.009
Mof_O 	O 	0.2445	0.4576	0.6354	-0.566
Mof_C 	C 	0.2585	0.59167	0.6252	0.008
Mof_H 	H 	0.2541	0.2732	0.7423	0.043
Mof_H 	H 	0.172	0.2148	0.7964	0.032
Mof_H 	H 	0.3514	0.5689	0.6265	0.036
Mof_O 	O 	0.2404	0.8334	0.1794	-0.545
Mof_C 	C 	0.1022	0.8199	0.1822	0.542
Mof_O 	O 	0.0061	0.8352	0.1573	-0.592
Mof_C 	C 	0.0497	0.7839	0.2175	-0.145
Mof_C 	C 	0.1504	0.7624	0.2449	-0.001
Mof_C 	C 	0.1009	0.7291	0.2775	0.019
Mof_O 	O 	0.2445	0.9576	0.1354	-0.567
Mof_C 	C 	0.2585	0.09167	0.1252	0.009
Mof_H 	H 	0.2541	0.7732	0.2423	0.045
Mof_H 	H 	0.172	0.7148	0.2964	0.027
Mof_H 	H 	0.3514	0.0689	0.1265	0.036
Mof_O 	O 	0.7404	0.3334	0.1794	-0.546
Mof_C 	C 	0.6022	0.3199	0.1822	0.544
Mof_O 	O 	0.5061	0.3352	0.1573	-0.594
Mof_C 	C 	0.5497	0.2839	0.2175	-0.151
Mof_C 	C 	0.6504	0.2624	0.2449	0.003
Mof_C 	C 	0.6009	0.2291	0.2775	0.014
Mof_O 	O 	0.7445	0.4576	0.1354	-0.567
Mof_C 	C 	0.7585	0.59167	0.1252	0.007
Mof_H 	H 	0.7541	0.2732	0.2423	0.044
Mof_H 	H 	0.672	0.2148	0.2964	0.029
Mof_H 	H 	0.8514	0.5689	0.1265	0.036
Mof_O 	O 	0.7404	0.8334	0.6794	-0.546
Mof_C 	C 	0.6022	0.8199	0.6822	0.544
Mof_O 	O 	0.5061	0.8352	0.6573	-0.594
Mof_C 	C 	0.5497	0.7839	0.7175	-0.151
Mof_C 	C 	0.6504	0.7624	0.7449	0.003
Mof_C 	C 	0.6009	0.7291	0.7775	0.014
Mof_O 	O 	0.7445	0.9576	0.6354	-0.567
Mof_C 	C 	0.7585	0.09167	0.6252	0.006
Mof_H 	H 	0.7541	0.7732	0.7423	0.043
Mof_H 	H 	0.672	0.7148	0.7964	0.029
Mof_H 	H 	0.8514	0.0689	0.6265	0.037
Mof_O 	O 	0.5096	0.4166	0.6794	-0.546
Mof_C 	C 	0.6478	0.4301	0.6822	0.544
Mof_O 	O 	0.7439	0.4148	0.6573	-0.594
Mof_C 	C 	0.7003	0.4661	0.7175	-0.15
Mof_C 	C 	0.5996	0.4876	0.7449	0.003
Mof_C 	C 	0.6491	0.5209	0.7775	0.015
Mof_O 	O 	0.5055	0.2924	0.6354	-0.567
Mof_C 	C 	0.4915	0.15833	0.6252	0.007
Mof_H 	H 	0.4959	0.4768	0.7423	0.044
Mof_H 	H 	0.578	0.5352	0.7964	0.029
Mof_H 	H 	0.3986	0.1811	0.6265	0.036
Mof_O 	O 	0.5096	0.9166	0.1794	-0.545
Mof_C 	C 	0.6478	0.9301	0.1822	0.542
Mof_O 	O 	0.7439	0.9148	0.1573	-0.594
Mof_C 	C 	0.7003	0.9661	0.2175	-0.145
Mof_C 	C 	0.5996	0.9876	0.2449	-0.003
Mof_C 	C 	0.6491	0.0209	0.2775	0.021
Mof_O 	O 	0.5055	0.7924	0.1354	-0.567
Mof_C 	C 	0.4915	0.65833	0.1252	0.007
Mof_H 	H 	0.4959	0.9768	0.2423	0.046
Mof_H 	H 	0.578	0.0352	0.2964	0.027
Mof_H 	H 	0.3986	0.6811	0.1265	0.037
Mof_O 	O 	0.0096	0.4166	0.1794	-0.546
Mof_C 	C 	0.1478	0.4301	0.1822	0.545
Mof_O 	O 	0.2439	0.4148	0.1573	-0.594
Mof_C 	C 	0.2003	0.4661	0.2175	-0.151
Mof_C 	C 	0.0996	0.4876	0.2449	0.004
Mof_C 	C 	0.1491	0.5209	0.2775	0.014
Mof_O 	O 	0.0055	0.2924	0.1354	-0.567
Mof_C 	C 	0.9915	0.15833	0.1252	0.005
Mof_H 	H 	0.9959	0.4768	0.2423	0.043
Mof_H 	H 	0.078	0.5352	0.2964	0.029
Mof_H 	H 	0.8986	0.1811	0.1265	0.037
Mof_O 	O 	0.0096	0.9166	0.6794	-0.545
Mof_C 	C 	0.1478	0.9301	0.6822	0.547
Mof_O 	O 	0.2439	0.9148	0.6573	-0.595
Mof_C 	C 	0.2003	0.9661	0.7175	-0.157
Mof_C 	C 	0.0996	0.9876	0.7449	0.015
Mof_C 	C 	0.1491	0.0209	0.7775	0.004
Mof_O 	O 	0.0055	0.7924	0.6354	-0.565
Mof_C 	C 	0.9915	0.65833	0.6252	0.004
Mof_H 	H 	0.9959	0.9768	0.7423	0.038
Mof_H 	H 	0.078	0.0352	0.7964	0.031
Mof_H 	H 	0.8986	0.6811	0.6265	0.037
Mof_O 	O 	0.5096	0.3334	0.0706	-0.546
Mof_C 	C 	0.6478	0.3199	0.0678	0.543
Mof_O 	O 	0.7439	0.3352	0.0927	-0.594
Mof_C 	C 	0.7003	0.2839	0.0325	-0.148
Mof_C 	C 	0.5996	0.2624	0.0051	0
Mof_C 	C 	0.6491	0.2291	0.9725	0.017
Mof_O 	O 	0.5055	0.4576	0.1146	-0.567
Mof_C 	C 	0.4915	0.59167	0.1248	0.007
Mof_H 	H 	0.4959	0.2732	0.0077	0.044
Mof_H 	H 	0.578	0.2148	0.9536	0.028
Mof_H 	H 	0.3986	0.5689	0.1235	0.037
Mof_O 	O 	0.5096	0.8334	0.5706	-0.546
Mof_C 	C 	0.6478	0.8199	0.5678	0.545
Mof_O 	O 	0.7439	0.8352	0.5927	-0.594
Mof_C 	C 	0.7003	0.7839	0.5325	-0.152
Mof_C 	C 	0.5996	0.7624	0.5051	0.004
Mof_C 	C 	0.6491	0.7291	0.4725	0.013
Mof_O 	O 	0.5055	0.9576	0.6146	-0.567
Mof_C 	C 	0.4915	0.09167	0.6248	0.006
Mof_H 	H 	0.4959	0.7732	0.5077	0.043
Mof_H 	H 	0.578	0.7148	0.4536	0.029
Mof_H 	H 	0.3986	0.0689	0.6235	0.037
Mof_O 	O 	0.0096	0.3334	0.5706	-0.546
Mof_C 	C 	0.1478	0.3199	0.5678	0.544
Mof_O 	O 	0.2439	0.3352	0.5927	-0.594
Mof_C 	C 	0.2003	0.2839	0.5325	-0.149
Mof_C 	C 	0.0996	0.2624	0.5051	0
Mof_C 	C 	0.1491	0.2291	0.4725	0.016
Mof_O 	O 	0.0055	0.4576	0.6146	-0.567
Mof_C 	C 	0.9915	0.59167	0.6248	0.006
Mof_H 	H 	0.9959	0.2732	0.5077	0.045
Mof_H 	H 	0.078	0.2148	0.4536	0.028
Mof_H 	H 	0.8986	0.5689	0.6235	0.036
Mof_O 	O 	0.0096	0.8334	0.0706	-0.544
Mof_C 	C 	0.1478	0.8199	0.0678	0.545
Mof_O 	O 	0.2439	0.8352	0.0927	-0.594
Mof_C 	C 	0.2003	0.7839	0.0325	-0.154
Mof_C 	C 	0.0996	0.7624	0.0051	0.01
Mof_C 	C 	0.1491	0.7291	0.9725	0.009
Mof_O 	O 	0.0055	0.9576	0.1146	-0.565
Mof_C 	C 	0.9915	0.09167	0.1248	0.01
Mof_H 	H 	0.9959	0.7732	0.0077	0.039
Mof_H 	H 	0.078	0.7148	0.9536	0.03
Mof_H 	H 	0.8986	0.0689	0.1235	0.036
Mof_O 	O 	0.2404	0.4166	0.0706	-0.546
Mof_C 	C 	0.1022	0.4301	0.0678	0.544
Mof_O 	O 	0.0061	0.4148	0.0927	-0.594
Mof_C 	C 	0.0497	0.4661	0.0325	-0.15
Mof_C 	C 	0.1504	0.4876	0.0051	0.004
Mof_C 	C 	0.1009	0.5209	0.9725	0.012
Mof_O 	O 	0.2445	0.2924	0.1146	-0.567
Mof_C 	C 	0.2585	0.15833	0.1248	0.005
Mof_H 	H 	0.2541	0.4768	0.0077	0.043
Mof_H 	H 	0.172	0.5352	0.9536	0.029
Mof_H 	H 	0.3514	0.1811	0.1235	0.037
Mof_O 	O 	0.2404	0.9166	0.5706	-0.546
Mof_C 	C 	0.1022	0.9301	0.5678	0.543
Mof_O 	O 	0.0061	0.9148	0.5927	-0.592
Mof_C 	C 	0.0497	0.9661	0.5325	-0.148
Mof_C 	C 	0.1504	0.9876	0.5051	0.006
Mof_C 	C 	0.1009	0.0209	0.4725	0.008
Mof_O 	O 	0.2445	0.7924	0.6146	-0.567
Mof_C 	C 	0.2585	0.65833	0.6248	0.006
Mof_H 	H 	0.2541	0.9768	0.5077	0.043
Mof_H 	H 	0.172	0.0352	0.4536	0.03
Mof_H 	H 	0.3514	0.6811	0.6235	0.037
Mof_O 	O 	0.7404	0.4166	0.5706	-0.546
Mof_C 	C 	0.6022	0.4301	0.5678	0.545
Mof_O 	O 	0.5061	0.4148	0.5927	-0.595
Mof_C 	C 	0.5497	0.4661	0.5325	-0.151
Mof_C 	C 	0.6504	0.4876	0.5051	0.003
Mof_C 	C 	0.6009	0.5209	0.4725	0.014
Mof_O 	O 	0.7445	0.2924	0.6146	-0.567
Mof_C 	C 	0.7585	0.15833	0.6248	0.007
Mof_H 	H 	0.7541	0.4768	0.5077	0.043
Mof_H 	H 	0.672	0.5352	0.4536	0.029
Mof_H 	H 	0.8514	0.1811	0.6235	0.036
Mof_O 	O 	0.7404	0.9166	0.0706	-0.546
Mof_C 	C 	0.6022	0.9301	0.0678	0.544
Mof_O 	O 	0.5061	0.9148	0.0927	-0.594
Mof_C 	C 	0.5497	0.9661	0.0325	-0.151
Mof_C 	C 	0.6504	0.9876	0.0051	0.002
Mof_C 	C 	0.6009	0.0209	0.9725	0.015
Mof_O 	O 	0.7445	0.7924	0.1146	-0.567
Mof_C 	C 	0.7585	0.65833	0.1248	0.007
Mof_H 	H 	0.7541	0.9768	0.0077	0.043
Mof_H 	H 	0.672	0.0352	0.9536	0.029
Mof_H 	H 	0.8514	0.6811	0.1235	0.036
Mof_O 	O 	0.7596	0.6666	0.3206	-0.546
Mof_C 	C 	0.8978	0.6801	0.3178	0.546
Mof_O 	O 	0.9939	0.6648	0.3427	-0.595
Mof_C 	C 	0.9503	0.7161	0.2825	-0.155
Mof_C 	C 	0.8496	0.7376	0.2551	0.007
Mof_C 	C 	0.8991	0.7709	0.2225	0.008
Mof_O 	O 	0.7555	0.5424	0.3646	-0.567
Mof_C 	C 	0.7415	0.40833	0.3748	0.007
Mof_H 	H 	0.7459	0.7268	0.2577	0.042
Mof_H 	H 	0.828	0.7852	0.2036	0.031
Mof_H 	H 	0.6486	0.4311	0.3735	0.036
Mof_O 	O 	0.7596	0.1666	0.8206	-0.545
Mof_C 	C 	0.8978	0.1801	0.8178	0.542
Mof_O 	O 	0.9939	0.1648	0.8427	-0.592
Mof_C 	C 	0.9503	0.2161	0.7825	-0.145
Mof_C 	C 	0.8496	0.2376	0.7551	-0.001
Mof_C 	C 	0.8991	0.2709	0.7225	0.019
Mof_O 	O 	0.7555	0.0424	0.8646	-0.567
Mof_C 	C 	0.7415	0.90833	0.8748	0.009
Mof_H 	H 	0.7459	0.2268	0.7577	0.045
Mof_H 	H 	0.828	0.2852	0.7036	0.027
Mof_H 	H 	0.6486	0.9311	0.8735	0.036
Mof_O 	O 	0.2596	0.6666	0.8206	-0.546
Mof_C 	C 	0.3978	0.6801	0.8178	0.544
Mof_O 	O 	0.4939	0.6648	0.8427	-0.594
Mof_C 	C 	0.4503	0.7161	0.7825	-0.151
Mof_C 	C 	0.3496	0.7376	0.7551	0.003
Mof_C 	C 	0.3991	0.7709	0.7225	0.014
Mof_O 	O 	0.2555	0.5424	0.8646	-0.567
Mof_C 	C 	0.2415	0.40833	0.8748	0.007
Mof_H 	H 	0.2459	0.7268	0.7577	0.044
Mof_H 	H 	0.328	0.7852	0.7036	0.029
Mof_H 	H 	0.1486	0.4311	0.8735	0.036
Mof_O 	O 	0.2596	0.1666	0.3206	-0.546
Mof_C 	C 	0.3978	0.1801	0.3178	0.544
Mof_O 	O 	0.4939	0.1648	0.3427	-0.594
Mof_C 	C 	0.4503	0.2161	0.2825	-0.151
Mof_C 	C 	0.3496	0.2376	0.2551	0.003
Mof_C 	C 	0.3991	0.2709	0.2225	0.014
Mof_O 	O 	0.2555	0.0424	0.3646	-0.567
Mof_C 	C 	0.2415	0.90833	0.3748	0.006
Mof_H 	H 	0.2459	0.2268	0.2577	0.043
Mof_H 	H 	0.328	0.2852	0.2036	0.029
Mof_H 	H 	0.1486	0.9311	0.3735	0.037
Mof_O 	O 	0.4904	0.5834	0.3206	-0.546
Mof_C 	C 	0.3522	0.5699	0.3178	0.544
Mof_O 	O 	0.2561	0.5852	0.3427	-0.594
Mof_C 	C 	0.2997	0.5339	0.2825	-0.15
Mof_C 	C 	0.4004	0.5124	0.2551	0.003
Mof_C 	C 	0.3509	0.4791	0.2225	0.015
Mof_O 	O 	0.4945	0.7076	0.3646	-0.567
Mof_C 	C 	0.5085	0.84167	0.3748	0.007
Mof_H 	H 	0.5041	0.5232	0.2577	0.044
Mof_H 	H 	0.422	0.4648	0.2036	0.029
Mof_H 	H 	0.6014	0.8189	0.3735	0.036
Mof_O 	O 	0.4904	0.0834	0.8206	-0.545
Mof_C 	C 	0.3522	0.0699	0.8178	0.542
Mof_O 	O 	0.2561	0.0852	0.8427	-0.594
Mof_C 	C 	0.2997	0.0339	0.7825	-0.145
Mof_C 	C 	0.4004	0.0124	0.7551	-0.003
Mof_C 	C 	0.3509	0.9791	0.7225	0.021
Mof_O 	O 	0.4945	0.2076	0.8646	-0.567
Mof_C 	C 	0.5085	0.34167	0.8748	0.007
Mof_H 	H 	0.5041	0.0232	0.7577	0.046
Mof_H 	H 	0.422	0.9648	0.7036	0.027
Mof_H 	H 	0.6014	0.3189	0.8735	0.037
Mof_O 	O 	0.9904	0.5834	0.8206	-0.546
Mof_C 	C 	0.8522	0.5699	0.8178	0.545
Mof_O 	O 	0.7561	0.5852	0.8427	-0.594
Mof_C 	C 	0.7997	0.5339	0.7825	-0.151
Mof_C 	C 	0.9004	0.5124	0.7551	0.004
Mof_C 	C 	0.8509	0.4791	0.7225	0.014
Mof_O 	O 	0.9945	0.7076	0.8646	-0.567
Mof_C 	C 	0.0085	0.84167	0.8748	0.005
Mof_H 	H 	0.0041	0.5232	0.7577	0.043
Mof_H 	H 	0.922	0.4648	0.7036	0.029
Mof_H 	H 	0.1014	0.8189	0.8735	0.037
Mof_O 	O 	0.9904	0.0834	0.3206	-0.545
Mof_C 	C 	0.8522	0.0699	0.3178	0.547
Mof_O 	O 	0.7561	0.0852	0.3427	-0.595
Mof_C 	C 	0.7997	0.0339	0.2825	-0.157
Mof_C 	C 	0.9004	0.0124	0.2551	0.015
Mof_C 	C 	0.8509	0.9791	0.2225	0.004
Mof_O 	O 	0.9945	0.2076	0.3646	-0.565
Mof_C 	C 	0.0085	0.34167	0.3748	0.004
Mof_H 	H 	0.0041	0.0232	0.2577	0.038
Mof_H 	H 	0.922	0.9648	0.2036	0.031
Mof_H 	H 	0.1014	0.3189	0.3735	0.037
Mof_O 	O 	0.4904	0.6666	0.9294	-0.546
Mof_C 	C 	0.3522	0.6801	0.9322	0.543
Mof_O 	O 	0.2561	0.6648	0.9073	-0.594
Mof_C 	C 	0.2997	0.7161	0.9675	-0.148
Mof_C 	C 	0.4004	0.7376	0.9949	0
Mof_C 	C 	0.3509	0.7709	0.0275	0.017
Mof_O 	O 	0.4945	0.5424	0.8854	-0.567
Mof_C 	C 	0.5085	0.40833	0.8752	0.007
Mof_H 	H 	0.5041	0.7268	0.9923	0.044
Mof_H 	H 	0.422	0.7852	0.0464	0.028
Mof_H 	H 	0.6014	0.4311	0.8765	0.037
Mof_O 	O 	0.4904	0.1666	0.4294	-0.546
Mof_C 	C 	0.3522	0.1801	0.4322	0.545
Mof_O 	O 	0.2561	0.1648	0.4073	-0.594
Mof_C 	C 	0.2997	0.2161	0.4675	-0.152
Mof_C 	C 	0.4004	0.2376	0.4949	0.004
Mof_C 	C 	0.3509	0.2709	0.5275	0.013
Mof_O 	O 	0.4945	0.0424	0.3854	-0.567
Mof_C 	C 	0.5085	0.90833	0.3752	0.006
Mof_H 	H 	0.5041	0.2268	0.4923	0.043
Mof_H 	H 	0.422	0.2852	0.5464	0.029
Mof_H 	H 	0.6014	0.9311	0.3765	0.037
Mof_O 	O 	0.9904	0.6666	0.4294	-0.546
Mof_C 	C 	0.8522	0.6801	0.4322	0.544
Mof_O 	O 	0.7561	0.6648	0.4073	-0.594
Mof_C 	C 	0.7997	0.7161	0.4675	-0.149
Mof_C 	C 	0.9004	0.7376	0.4949	0
Mof_C 	C 	0.8509	0.7709	0.5275	0.016
Mof_O 	O 	0.9945	0.5424	0.3854	-0.567
Mof_C 	C 	0.0085	0.40833	0.3752	0.006
Mof_H 	H 	0.0041	0.7268	0.4923	0.045
Mof_H 	H 	0.922	0.7852	0.5464	0.028
Mof_H 	H 	0.1014	0.4311	0.3765	0.036
Mof_O 	O 	0.9904	0.1666	0.9294	-0.544
Mof_C 	C 	0.8522	0.1801	0.9322	0.545
Mof_O 	O 	0.7561	0.1648	0.9073	-0.594
Mof_C 	C 	0.7997	0.2161	0.9675	-0.154
Mof_C 	C 	0.9004	0.2376	0.9949	0.01
Mof_C 	C 	0.8509	0.2709	0.0275	0.009
Mof_O 	O 	0.9945	0.0424	0.8854	-0.565
Mof_C 	C 	0.0085	0.90833	0.8752	0.01
Mof_H 	H 	0.0041	0.2268	0.9923	0.039
Mof_H 	H 	0.922	0.2852	0.0464	0.03
Mof_H 	H 	0.1014	0.9311	0.8765	0.036
Mof_O 	O 	0.7596	0.5834	0.9294	-0.546
Mof_C 	C 	0.8978	0.5699	0.9322	0.544
Mof_O 	O 	0.9939	0.5852	0.9073	-0.594
Mof_C 	C 	0.9503	0.5339	0.9675	-0.15
Mof_C 	C 	0.8496	0.5124	0.9949	0.004
Mof_C 	C 	0.8991	0.4791	0.0275	0.012
Mof_O 	O 	0.7555	0.7076	0.8854	-0.567
Mof_C 	C 	0.7415	0.84167	0.8752	0.005
Mof_H 	H 	0.7459	0.5232	0.9923	0.043
Mof_H 	H 	0.828	0.4648	0.0464	0.029
Mof_H 	H 	0.6486	0.8189	0.8765	0.037
Mof_O 	O 	0.7596	0.0834	0.4294	-0.546
Mof_C 	C 	0.8978	0.0699	0.4322	0.543
Mof_O 	O 	0.9939	0.0852	0.4073	-0.592
Mof_C 	C 	0.9503	0.0339	0.4675	-0.148
Mof_C 	C 	0.8496	0.0124	0.4949	0.006
Mof_C 	C 	0.8991	0.9791	0.5275	0.008
Mof_O 	O 	0.7555	0.2076	0.3854	-0.567
Mof_C 	C 	0.7415	0.34167	0.3752	0.006
Mof_H 	H 	0.7459	0.0232	0.4923	0.043
Mof_H 	H 	0.828	0.9648	0.5464	0.03
Mof_H 	H 	0.6486	0.3189	0.3765	0.037
Mof_O 	O 	0.2596	0.5834	0.4294	-0.546
Mof_C 	C 	0.3978	0.5699	0.4322	0.545
Mof_O 	O 	0.4939	0.5852	0.4073	-0.595
Mof_C 	C 	0.4503	0.5339	0.4675	-0.151
Mof_C 	C 	0.3496	0.5124	0.4949	0.003
Mof_C 	C 	0.3991	0.4791	0.5275	0.014
Mof_O 	O 	0.2555	0.7076	0.3854	-0.567
Mof_C 	C 	0.2415	0.84167	0.3752	0.007
Mof_H 	H 	0.2459	0.5232	0.4923	0.043
Mof_H 	H 	0.328	0.4648	0.5464	0.029
Mof_H 	H 	0.1486	0.8189	0.3765	0.036
Mof_O 	O 	0.2596	0.0834	0.9294	-0.546
Mof_C 	C 	0.3978	0.0699	0.9322	0.544
Mof_O 	O 	0.4939	0.0852	0.9073	-0.594
Mof_C 	C 	0.4503	0.0339	0.9675	-0.151
Mof_C 	C 	0.3496	0.0124	0.9949	0.002
Mof_C 	C 	0.3991	0.9791	0.0275	0.015
Mof_O 	O 	0.2555	0.2076	0.8854	-0.567
Mof_C 	C 	0.2415	0.34167	0.8752	0.007
Mof_H 	H 	0.2459	0.0232	0.9923	0.043
Mof_H 	H 	0.328	0.9648	0.0464	0.029
Mof_H 	H 	0.1486	0.3189	0.8765	0.036
Mof_Sc	Sc	0.375	0.375	0.63538	1.975
Mof_Sc	Sc	0.375	0.875	0.13538	1.975
Mof_Sc	Sc	0.875	0.375	0.13538	1.973
Mof_Sc	Sc	0.875	0.875	0.63538	1.969
Mof_Sc	Sc	0.375	0.375	0.11462	1.975
Mof_Sc	Sc	0.375	0.875	0.61462	1.975
Mof_Sc	Sc	0.875	0.375	0.61462	1.975
Mof_Sc	Sc	0.875	0.875	0.11462	1.968
Mof_Sc	Sc	0.625	0.625	0.36462	1.975
Mof_Sc	Sc	0.625	0.125	0.86462	1.975
Mof_Sc	Sc	0.125	0.625	0.86462	1.973
Mof_Sc	Sc	0.125	0.125	0.36462	1.969
Mof_Sc	Sc	0.625	0.625	0.88538	1.975
Mof_Sc	Sc	0.625	0.125	0.38538	1.975
Mof_Sc	Sc	0.125	0.625	0.38538	1.975
Mof_Sc	Sc	0.125	0.125	0.88538	1.968
Mof_C 	C 	0.125	0.4861	0.625	0.531
Mof_C 	C 	0.125	0.5584	0.625	-0.143
Mof_C 	C 	0.125	0.9861	0.125	0.533
Mof_C 	C 	0.125	0.0584	0.125	-0.148
Mof_C 	C 	0.625	0.9861	0.625	0.53
Mof_C 	C 	0.625	0.0584	0.625	-0.143
Mof_C 	C 	0.625	0.2639	0.625	0.531
Mof_C 	C 	0.625	0.1916	0.625	-0.144
Mof_C 	C 	0.625	0.7639	0.125	0.531
Mof_C 	C 	0.625	0.6916	0.125	-0.144
Mof_C 	C 	0.625	0.4861	0.125	0.531
Mof_C 	C 	0.625	0.5584	0.125	-0.144
Mof_C 	C 	0.125	0.2639	0.125	0.531
Mof_C 	C 	0.125	0.1916	0.125	-0.143
Mof_C 	C 	0.125	0.7639	0.625	0.53
Mof_C 	C 	0.125	0.6916	0.625	-0.141
Mof_C 	C 	0.875	0.5139	0.375	0.531
Mof_C 	C 	0.875	0.4416	0.375	-0.143
Mof_C 	C 	0.875	0.0139	0.875	0.533
Mof_C 	C 	0.875	0.9416	0.875	-0.148
Mof_C 	C 	0.375	0.7361	0.375	0.531
Mof_C 	C 	0.375	0.8084	0.375	-0.144
Mof_C 	C 	0.375	0.2361	0.875	0.531
Mof_C 	C 	0.375	0.3084	0.875	-0.144
Mof_C 	C 	0.375	0.5139	0.875	0.531
Mof_C 	C 	0.375	0.4416	0.875	-0.144
Mof_C 	C 	0.375	0.0139	0.375	0.53
Mof_C 	C 	0.375	0.9416	0.375	-0.143
Mof_C 	C 	0.875	0.7361	0.875	0.531
Mof_C 	C 	0.875	0.8084	0.875	-0.143
Mof_C 	C 	0.875	0.2361	0.375	0.53
Mof_C 	C 	0.875	0.3084	0.375	-0.141
_end
