data_functionalizedCrystal
_audit_creation_method	'EQeq! by Chris Wilmer'
_symmetry_space_group_name_H-M	'P1'
_symmetry_Int_Tables_number	1
_symmetry_cell_setting	triclinic
loop_
_symmetry_equiv_pos_as_xyz
  x,y,z
_cell_length_a	20.3049
_cell_length_b	20.3049
_cell_length_c	49.641
_cell_angle_alpha	90
_cell_angle_beta	90
_cell_angle_gamma	90
loop_
_atom_site_label
_atom_site_type_symbol
_atom_site_fract_x
_atom_site_fract_y
_atom_site_fract_z
_atom_site_charge
Mof_Cd	Cd	0.69109	0.1295	0.9819	0.351
Mof_Cd	Cd	0.30891	0.8705	0.4819	0.351
Mof_Cd	Cd	0.1295	0.69109	0.2681	0.352
Mof_Cd	Cd	0.8705	0.30891	0.7681	0.352
Mof_Cd	Cd	0.79681	0.20319	0.875	0.419
Mof_Cd	Cd	0.20319	0.79681	0.375	0.419
Mof_H 	H 	0.293	0.2445	0.9114	0.233
Mof_H 	H 	0.2974	0.2512	0.8427	0.24
Mof_H 	H 	0.3237	0.9819	0.0758	0.22
Mof_H 	H 	0.4157	0.834	0.1096	0.241
Mof_H 	H 	0.6707	0.2636	0.8461	0.032
Mof_H 	H 	0.5572	0.2573	0.8435	0.092
Mof_H 	H 	0.5591	0.1263	0.9041	0.079
Mof_H 	H 	0.6739	0.1334	0.9051	0.015
Mof_H 	H 	0.4606	0.2453	0.9068	0.102
Mof_H 	H 	0.5194	0.1163	0.8333	0.123
Mof_H 	H 	0.3461	0.0555	0.8014	0.132
Mof_H 	H 	0.2896	0.109	0.8351	0.05
Mof_H 	H 	0.3067	0.1024	0.9131	0.031
Mof_H 	H 	0.2549	0.0321	0.9422	0.116
Mof_H 	H 	0.0789	0.0819	0.9095	0.127
Mof_H 	H 	0.1288	0.2421	0.8463	0.12
Mof_H 	H 	0.9228	0.1854	0.8344	0.03
Mof_H 	H 	0.0349	0.1693	0.8344	0.093
Mof_H 	H 	0.0317	0.1851	0.9151	0.083
Mof_H 	H 	0.9195	0.2026	0.9129	0.036
Mof_H 	H 	0.6189	0.1594	0.0367	-0
Mof_H 	H 	0.5603	0.1156	0.0713	0.095
Mof_H 	H 	0.554	0.9489	0.0311	0.098
Mof_H 	H 	0.6152	0.9956	0.9983	-0.007
Mof_H 	H 	0.6356	0.9878	0.0918	0.122
Mof_H 	H 	0.6085	0.9073	0.1663	0.127
Mof_H 	H 	0.4957	0.9116	0.1611	0.051
Mof_H 	H 	0.4235	0.0084	0.0578	0.071
Mof_H 	H 	0.389	0.0453	0.1451	0.034
Mof_H 	H 	0.3494	0.1136	0.1786	0.123
Mof_H 	H 	0.2755	0.9536	0.2178	0.15
Mof_H 	H 	0.3218	0.7766	0.1614	0.099
Mof_H 	H 	0.1884	0.8861	0.2036	0.096
Mof_H 	H 	0.3357	0.7541	0.2107	0.097
Mof_H 	H 	0.2719	0.6957	0.2411	0.014
Mof_H 	H 	0.707	0.7555	0.4114	0.233
Mof_H 	H 	0.7026	0.7488	0.3427	0.24
Mof_H 	H 	0.6763	0.0181	0.5758	0.22
Mof_H 	H 	0.5843	0.166	0.6096	0.241
Mof_H 	H 	0.3293	0.7364	0.3461	0.032
Mof_H 	H 	0.4428	0.7427	0.3435	0.092
Mof_H 	H 	0.4409	0.8737	0.4041	0.079
Mof_H 	H 	0.3261	0.8666	0.4051	0.015
Mof_H 	H 	0.5394	0.7547	0.4068	0.102
Mof_H 	H 	0.4806	0.8837	0.3333	0.123
Mof_H 	H 	0.6539	0.9445	0.3014	0.132
Mof_H 	H 	0.7104	0.891	0.3351	0.05
Mof_H 	H 	0.6933	0.8976	0.4131	0.031
Mof_H 	H 	0.7451	0.9679	0.4422	0.116
Mof_H 	H 	0.9211	0.9181	0.4095	0.127
Mof_H 	H 	0.8712	0.7579	0.3463	0.12
Mof_H 	H 	0.0772	0.8146	0.3344	0.03
Mof_H 	H 	0.9651	0.8307	0.3344	0.093
Mof_H 	H 	0.9683	0.8149	0.4151	0.083
Mof_H 	H 	0.0805	0.7974	0.4129	0.036
Mof_H 	H 	0.3811	0.8406	0.5367	-0
Mof_H 	H 	0.4397	0.8844	0.5713	0.095
Mof_H 	H 	0.446	0.0511	0.5311	0.098
Mof_H 	H 	0.3848	0.0044	0.4983	-0.007
Mof_H 	H 	0.3644	0.0122	0.5918	0.122
Mof_H 	H 	0.3915	0.0927	0.6663	0.127
Mof_H 	H 	0.5043	0.0884	0.6611	0.051
Mof_H 	H 	0.5765	0.9916	0.5578	0.071
Mof_H 	H 	0.611	0.9547	0.6451	0.034
Mof_H 	H 	0.6506	0.8864	0.6786	0.123
Mof_H 	H 	0.7245	0.0464	0.7178	0.15
Mof_H 	H 	0.6782	0.2234	0.6614	0.099
Mof_H 	H 	0.8116	0.1139	0.7036	0.096
Mof_H 	H 	0.6643	0.2459	0.7107	0.097
Mof_H 	H 	0.7281	0.3043	0.7411	0.014
Mof_H 	H 	0.2445	0.293	0.3386	0.233
Mof_H 	H 	0.2512	0.2974	0.4073	0.24
Mof_H 	H 	0.9819	0.3237	0.1742	0.22
Mof_H 	H 	0.834	0.4157	0.1404	0.241
Mof_H 	H 	0.2636	0.6707	0.4039	0.032
Mof_H 	H 	0.2573	0.5572	0.4065	0.092
Mof_H 	H 	0.1263	0.5591	0.3459	0.079
Mof_H 	H 	0.1334	0.6739	0.3449	0.015
Mof_H 	H 	0.2453	0.4606	0.3432	0.102
Mof_H 	H 	0.1163	0.5194	0.4167	0.123
Mof_H 	H 	0.0555	0.3461	0.4486	0.132
Mof_H 	H 	0.109	0.2896	0.4149	0.05
Mof_H 	H 	0.1024	0.3067	0.3369	0.031
Mof_H 	H 	0.0321	0.2549	0.3078	0.116
Mof_H 	H 	0.0819	0.0789	0.3405	0.127
Mof_H 	H 	0.2421	0.1288	0.4037	0.12
Mof_H 	H 	0.1854	0.9228	0.4156	0.03
Mof_H 	H 	0.1693	0.0349	0.4156	0.093
Mof_H 	H 	0.1851	0.0317	0.3349	0.083
Mof_H 	H 	0.2026	0.9195	0.3371	0.036
Mof_H 	H 	0.1594	0.6189	0.2133	-0
Mof_H 	H 	0.1156	0.5603	0.1787	0.095
Mof_H 	H 	0.9489	0.554	0.2189	0.098
Mof_H 	H 	0.9956	0.6152	0.2517	-0.007
Mof_H 	H 	0.9878	0.6356	0.1582	0.122
Mof_H 	H 	0.9073	0.6085	0.0837	0.127
Mof_H 	H 	0.9116	0.4957	0.0889	0.051
Mof_H 	H 	0.0084	0.4235	0.1922	0.071
Mof_H 	H 	0.0453	0.389	0.1049	0.034
Mof_H 	H 	0.1136	0.3494	0.0714	0.123
Mof_H 	H 	0.9536	0.2755	0.0322	0.15
Mof_H 	H 	0.7766	0.3218	0.0886	0.099
Mof_H 	H 	0.8861	0.1884	0.0464	0.096
Mof_H 	H 	0.7541	0.3357	0.0393	0.097
Mof_H 	H 	0.6957	0.2719	0.0089	0.014
Mof_H 	H 	0.7555	0.707	0.8386	0.233
Mof_H 	H 	0.7488	0.7026	0.9073	0.24
Mof_H 	H 	0.0181	0.6763	0.6742	0.22
Mof_H 	H 	0.166	0.5843	0.6404	0.241
Mof_H 	H 	0.7364	0.3293	0.9039	0.032
Mof_H 	H 	0.7427	0.4428	0.9065	0.092
Mof_H 	H 	0.8737	0.4409	0.8459	0.079
Mof_H 	H 	0.8666	0.3261	0.8449	0.015
Mof_H 	H 	0.7547	0.5394	0.8432	0.102
Mof_H 	H 	0.8837	0.4806	0.9167	0.123
Mof_H 	H 	0.9445	0.6539	0.9486	0.132
Mof_H 	H 	0.891	0.7104	0.9149	0.05
Mof_H 	H 	0.8976	0.6933	0.8369	0.031
Mof_H 	H 	0.9679	0.7451	0.8078	0.116
Mof_H 	H 	0.9181	0.9211	0.8405	0.127
Mof_H 	H 	0.7579	0.8712	0.9037	0.12
Mof_H 	H 	0.8146	0.0772	0.9156	0.03
Mof_H 	H 	0.8307	0.9651	0.9156	0.093
Mof_H 	H 	0.8149	0.9683	0.8349	0.083
Mof_H 	H 	0.7974	0.0805	0.8371	0.036
Mof_H 	H 	0.8406	0.3811	0.7133	-0
Mof_H 	H 	0.8844	0.4397	0.6787	0.095
Mof_H 	H 	0.0511	0.446	0.7189	0.098
Mof_H 	H 	0.0044	0.3848	0.7517	-0.007
Mof_H 	H 	0.0122	0.3644	0.6582	0.122
Mof_H 	H 	0.0927	0.3915	0.5837	0.127
Mof_H 	H 	0.0884	0.5043	0.5889	0.051
Mof_H 	H 	0.9916	0.5765	0.6922	0.071
Mof_H 	H 	0.9547	0.611	0.6049	0.034
Mof_H 	H 	0.8864	0.6506	0.5714	0.123
Mof_H 	H 	0.0464	0.7245	0.5322	0.15
Mof_H 	H 	0.2234	0.6782	0.5886	0.099
Mof_H 	H 	0.1139	0.8116	0.5464	0.096
Mof_H 	H 	0.2459	0.6643	0.5393	0.097
Mof_H 	H 	0.3043	0.7281	0.5089	0.014
Mof_C 	C 	0.6478	0.2359	0.85838	0.076
Mof_C 	C 	0.5799	0.2325	0.85674	-0.137
Mof_C 	C 	0.545	0.193	0.87446	0.083
Mof_C 	C 	0.581	0.1556	0.89219	-0.141
Mof_C 	C 	0.65	0.1603	0.89281	0.083
Mof_C 	C 	0.4725	0.1893	0.87341	-0.009
Mof_C 	C 	0.4374	0.2213	0.89341	-0.155
Mof_C 	C 	0.3674	0.2192	0.89439	0.211
Mof_C 	C 	0.3326	0.1835	0.87519	-0.064
Mof_C 	C 	0.369	0.1485	0.85442	-0.017
Mof_C 	C 	0.4378	0.1508	0.85391	0.064
Mof_C 	C 	0.4727	0.1152	0.83376	-0.198
Mof_C 	C 	0.4389	0.0799	0.8154	0.25
Mof_C 	C 	0.3692	0.0787	0.8151	-0.164
Mof_C 	C 	0.3364	0.1113	0.83469	0.035
Mof_C 	C 	0.2596	0.1811	0.87566	-0.069
Mof_C 	C 	0.2261	0.1386	0.89411	-0.009
Mof_C 	C 	0.26	0.0992	0.9125	0.036
Mof_C 	C 	0.2301	0.0567	0.92951	-0.169
Mof_C 	C 	0.1613	0.0498	0.92795	0.254
Mof_C 	C 	0.1253	0.0874	0.91034	-0.192
Mof_C 	C 	0.1556	0.1337	0.89355	0.065
Mof_C 	C 	0.1205	0.1749	0.87516	0.007
Mof_C 	C 	0.1532	0.2145	0.85807	-0.155
Mof_C 	C 	0.2237	0.2165	0.85717	0.224
Mof_C 	C 	0.9455	0.1866	0.85117	0.082
Mof_C 	C 	0.0127	0.1771	0.85097	-0.128
Mof_C 	C 	0.0474	0.179	0.87444	0.087
Mof_C 	C 	0.0105	0.1866	0.89805	-0.126
Mof_C 	C 	0.9434	0.1963	0.89664	0.077
Mof_C 	C 	0.6069	0.1142	0.03573	0.113
Mof_C 	C 	0.5708	0.0887	0.05624	-0.18
Mof_C 	C 	0.5496	0.0255	0.05555	0.11
Mof_C 	C 	0.5677	0.9933	0.0333	-0.175
Mof_C 	C 	0.6045	0.0211	0.0137	0.111
Mof_C 	C 	0.5076	0.9962	0.07712	-0.018
Mof_C 	C 	0.5367	0.9726	0.10146	0.062
Mof_C 	C 	0.6069	0.9731	0.1057	-0.189
Mof_C 	C 	0.6317	0.9523	0.1296	0.244
Mof_C 	C 	0.5899	0.9253	0.1504	-0.155
Mof_C 	C 	0.5236	0.9261	0.14691	0.029
Mof_C 	C 	0.4954	0.9482	0.12247	-0.017
Mof_C 	C 	0.4261	0.9452	0.11845	-0.045
Mof_C 	C 	0.4001	0.9668	0.09446	0.184
Mof_C 	C 	0.4425	0.9929	0.07408	-0.145
Mof_C 	C 	0.3831	0.9166	0.13995	-0.049
Mof_C 	C 	0.3561	0.9567	0.16031	-0.006
Mof_C 	C 	0.3657	0.0265	0.15981	0.034
Mof_C 	C 	0.3427	0.0673	0.17958	-0.164
Mof_C 	C 	0.3082	0.0385	0.2017	0.266
Mof_C 	C 	0.298	0.9717	0.20273	-0.206
Mof_C 	C 	0.3195	0.93	0.18246	0.079
Mof_C 	C 	0.3077	0.8595	0.18171	-0.007
Mof_C 	C 	0.3313	0.8224	0.16158	-0.14
Mof_C 	C 	0.3705	0.8502	0.1403	0.215
Mof_C 	C 	0.1688	0.8092	0.22899	0.127
Mof_C 	C 	0.2062	0.8466	0.21083	-0.144
Mof_C 	C 	0.2681	0.827	0.20333	0.098
Mof_C 	C 	0.2927	0.7692	0.21512	-0.133
Mof_C 	C 	0.2543	0.7344	0.23315	0.102
Mof_C 	C 	0.3522	0.7641	0.35838	0.076
Mof_C 	C 	0.4201	0.7675	0.35674	-0.137
Mof_C 	C 	0.455	0.807	0.37446	0.083
Mof_C 	C 	0.419	0.8444	0.39219	-0.141
Mof_C 	C 	0.35	0.8397	0.39281	0.083
Mof_C 	C 	0.5275	0.8107	0.37341	-0.009
Mof_C 	C 	0.5626	0.7787	0.39341	-0.155
Mof_C 	C 	0.6326	0.7808	0.39439	0.211
Mof_C 	C 	0.6674	0.8165	0.37519	-0.064
Mof_C 	C 	0.631	0.8515	0.35442	-0.017
Mof_C 	C 	0.5622	0.8492	0.35391	0.064
Mof_C 	C 	0.5273	0.8848	0.33376	-0.198
Mof_C 	C 	0.5611	0.9201	0.3154	0.25
Mof_C 	C 	0.6308	0.9213	0.3151	-0.164
Mof_C 	C 	0.6636	0.8887	0.33469	0.035
Mof_C 	C 	0.7404	0.8189	0.37566	-0.069
Mof_C 	C 	0.7739	0.8614	0.39411	-0.009
Mof_C 	C 	0.74	0.9008	0.4125	0.036
Mof_C 	C 	0.7699	0.9433	0.42951	-0.169
Mof_C 	C 	0.8387	0.9502	0.42795	0.254
Mof_C 	C 	0.8747	0.9126	0.41034	-0.192
Mof_C 	C 	0.8444	0.8663	0.39355	0.065
Mof_C 	C 	0.8795	0.8251	0.37516	0.007
Mof_C 	C 	0.8468	0.7855	0.35807	-0.155
Mof_C 	C 	0.7763	0.7835	0.35717	0.224
Mof_C 	C 	0.0545	0.8134	0.35117	0.082
Mof_C 	C 	0.9873	0.8229	0.35097	-0.128
Mof_C 	C 	0.9526	0.821	0.37444	0.087
Mof_C 	C 	0.9895	0.8134	0.39805	-0.127
Mof_C 	C 	0.0566	0.8037	0.39664	0.077
Mof_C 	C 	0.3931	0.8858	0.53573	0.112
Mof_C 	C 	0.4292	0.9113	0.55624	-0.18
Mof_C 	C 	0.4504	0.9745	0.55555	0.11
Mof_C 	C 	0.4323	0.0067	0.5333	-0.175
Mof_C 	C 	0.3955	0.9789	0.5137	0.11
Mof_C 	C 	0.4924	0.0038	0.57712	-0.018
Mof_C 	C 	0.4633	0.0274	0.60146	0.062
Mof_C 	C 	0.3931	0.0269	0.6057	-0.189
Mof_C 	C 	0.3683	0.0477	0.6296	0.244
Mof_C 	C 	0.4101	0.0747	0.6504	-0.155
Mof_C 	C 	0.4764	0.0739	0.64691	0.029
Mof_C 	C 	0.5046	0.0518	0.62247	-0.017
Mof_C 	C 	0.5739	0.0548	0.61845	-0.045
Mof_C 	C 	0.5999	0.0332	0.59446	0.184
Mof_C 	C 	0.5575	0.0071	0.57408	-0.145
Mof_C 	C 	0.6169	0.0834	0.63995	-0.049
Mof_C 	C 	0.6439	0.0433	0.66031	-0.006
Mof_C 	C 	0.6343	0.9735	0.65981	0.034
Mof_C 	C 	0.6573	0.9327	0.67958	-0.164
Mof_C 	C 	0.6918	0.9615	0.7017	0.266
Mof_C 	C 	0.702	0.0283	0.70273	-0.206
Mof_C 	C 	0.6805	0.07	0.68246	0.079
Mof_C 	C 	0.6923	0.1405	0.68171	-0.007
Mof_C 	C 	0.6687	0.1776	0.66158	-0.14
Mof_C 	C 	0.6295	0.1498	0.6403	0.215
Mof_C 	C 	0.8312	0.1908	0.72899	0.127
Mof_C 	C 	0.7938	0.1534	0.71083	-0.144
Mof_C 	C 	0.7319	0.173	0.70333	0.098
Mof_C 	C 	0.7073	0.2308	0.71512	-0.133
Mof_C 	C 	0.7457	0.2656	0.73315	0.102
Mof_C 	C 	0.2359	0.6478	0.39162	0.076
Mof_C 	C 	0.2325	0.5799	0.39326	-0.137
Mof_C 	C 	0.193	0.545	0.37554	0.083
Mof_C 	C 	0.1556	0.581	0.35781	-0.141
Mof_C 	C 	0.1603	0.65	0.35719	0.083
Mof_C 	C 	0.1893	0.4725	0.37659	-0.009
Mof_C 	C 	0.2213	0.4374	0.35659	-0.155
Mof_C 	C 	0.2192	0.3674	0.35561	0.211
Mof_C 	C 	0.1835	0.3326	0.37481	-0.064
Mof_C 	C 	0.1485	0.369	0.39558	-0.017
Mof_C 	C 	0.1508	0.4378	0.39609	0.064
Mof_C 	C 	0.1152	0.4727	0.41624	-0.198
Mof_C 	C 	0.0799	0.4389	0.4346	0.25
Mof_C 	C 	0.0787	0.3692	0.4349	-0.164
Mof_C 	C 	0.1113	0.3364	0.41531	0.035
Mof_C 	C 	0.1811	0.2596	0.37434	-0.069
Mof_C 	C 	0.1386	0.2261	0.35589	-0.009
Mof_C 	C 	0.0992	0.26	0.3375	0.036
Mof_C 	C 	0.0567	0.2301	0.32049	-0.169
Mof_C 	C 	0.0498	0.1613	0.32205	0.254
Mof_C 	C 	0.0874	0.1253	0.33966	-0.192
Mof_C 	C 	0.1337	0.1556	0.35645	0.065
Mof_C 	C 	0.1749	0.1205	0.37484	0.007
Mof_C 	C 	0.2145	0.1532	0.39193	-0.155
Mof_C 	C 	0.2165	0.2237	0.39283	0.224
Mof_C 	C 	0.1866	0.9455	0.39883	0.082
Mof_C 	C 	0.1771	0.0127	0.39903	-0.128
Mof_C 	C 	0.179	0.0474	0.37556	0.087
Mof_C 	C 	0.1866	0.0105	0.35195	-0.127
Mof_C 	C 	0.1963	0.9434	0.35336	0.077
Mof_C 	C 	0.1142	0.6069	0.21427	0.112
Mof_C 	C 	0.0887	0.5708	0.19376	-0.18
Mof_C 	C 	0.0255	0.5496	0.19445	0.11
Mof_C 	C 	0.9933	0.5677	0.2167	-0.175
Mof_C 	C 	0.0211	0.6045	0.2363	0.11
Mof_C 	C 	0.9962	0.5076	0.17288	-0.018
Mof_C 	C 	0.9726	0.5367	0.14854	0.062
Mof_C 	C 	0.9731	0.6069	0.1443	-0.189
Mof_C 	C 	0.9523	0.6317	0.1204	0.244
Mof_C 	C 	0.9253	0.5899	0.0996	-0.155
Mof_C 	C 	0.9261	0.5236	0.10309	0.029
Mof_C 	C 	0.9482	0.4954	0.12753	-0.017
Mof_C 	C 	0.9452	0.4261	0.13155	-0.045
Mof_C 	C 	0.9668	0.4001	0.15554	0.184
Mof_C 	C 	0.9929	0.4425	0.17592	-0.145
Mof_C 	C 	0.9166	0.3831	0.11005	-0.049
Mof_C 	C 	0.9567	0.3561	0.08969	-0.006
Mof_C 	C 	0.0265	0.3657	0.09019	0.034
Mof_C 	C 	0.0673	0.3427	0.07042	-0.164
Mof_C 	C 	0.0385	0.3082	0.0483	0.266
Mof_C 	C 	0.9717	0.298	0.04727	-0.206
Mof_C 	C 	0.93	0.3195	0.06754	0.079
Mof_C 	C 	0.8595	0.3077	0.06829	-0.007
Mof_C 	C 	0.8224	0.3313	0.08842	-0.14
Mof_C 	C 	0.8502	0.3705	0.1097	0.215
Mof_C 	C 	0.8092	0.1688	0.02101	0.127
Mof_C 	C 	0.8466	0.2062	0.03917	-0.144
Mof_C 	C 	0.827	0.2681	0.04667	0.098
Mof_C 	C 	0.7692	0.2927	0.03488	-0.133
Mof_C 	C 	0.7344	0.2543	0.01685	0.102
Mof_C 	C 	0.7641	0.3522	0.89162	0.076
Mof_C 	C 	0.7675	0.4201	0.89326	-0.137
Mof_C 	C 	0.807	0.455	0.87554	0.083
Mof_C 	C 	0.8444	0.419	0.85781	-0.141
Mof_C 	C 	0.8397	0.35	0.85719	0.083
Mof_C 	C 	0.8107	0.5275	0.87659	-0.009
Mof_C 	C 	0.7787	0.5626	0.85659	-0.155
Mof_C 	C 	0.7808	0.6326	0.85561	0.211
Mof_C 	C 	0.8165	0.6674	0.87481	-0.064
Mof_C 	C 	0.8515	0.631	0.89558	-0.017
Mof_C 	C 	0.8492	0.5622	0.89609	0.064
Mof_C 	C 	0.8848	0.5273	0.91624	-0.198
Mof_C 	C 	0.9201	0.5611	0.9346	0.25
Mof_C 	C 	0.9213	0.6308	0.9349	-0.164
Mof_C 	C 	0.8887	0.6636	0.91531	0.035
Mof_C 	C 	0.8189	0.7404	0.87434	-0.069
Mof_C 	C 	0.8614	0.7739	0.85589	-0.009
Mof_C 	C 	0.9008	0.74	0.8375	0.036
Mof_C 	C 	0.9433	0.7699	0.82049	-0.169
Mof_C 	C 	0.9502	0.8387	0.82205	0.254
Mof_C 	C 	0.9126	0.8747	0.83966	-0.192
Mof_C 	C 	0.8663	0.8444	0.85645	0.065
Mof_C 	C 	0.8251	0.8795	0.87484	0.007
Mof_C 	C 	0.7855	0.8468	0.89193	-0.155
Mof_C 	C 	0.7835	0.7763	0.89283	0.224
Mof_C 	C 	0.8134	0.0545	0.89883	0.082
Mof_C 	C 	0.8229	0.9873	0.89903	-0.128
Mof_C 	C 	0.821	0.9526	0.87556	0.087
Mof_C 	C 	0.8134	0.9895	0.85195	-0.127
Mof_C 	C 	0.8037	0.0566	0.85336	0.077
Mof_C 	C 	0.8858	0.3931	0.71427	0.112
Mof_C 	C 	0.9113	0.4292	0.69376	-0.18
Mof_C 	C 	0.9745	0.4504	0.69445	0.11
Mof_C 	C 	0.0067	0.4323	0.7167	-0.175
Mof_C 	C 	0.9789	0.3955	0.7363	0.11
Mof_C 	C 	0.0038	0.4924	0.67288	-0.018
Mof_C 	C 	0.0274	0.4633	0.64854	0.062
Mof_C 	C 	0.0269	0.3931	0.6443	-0.189
Mof_C 	C 	0.0477	0.3683	0.6204	0.244
Mof_C 	C 	0.0747	0.4101	0.5996	-0.155
Mof_C 	C 	0.0739	0.4764	0.60309	0.029
Mof_C 	C 	0.0518	0.5046	0.62753	-0.017
Mof_C 	C 	0.0548	0.5739	0.63155	-0.045
Mof_C 	C 	0.0332	0.5999	0.65554	0.184
Mof_C 	C 	0.0071	0.5575	0.67592	-0.145
Mof_C 	C 	0.0834	0.6169	0.61005	-0.049
Mof_C 	C 	0.0433	0.6439	0.58969	-0.006
Mof_C 	C 	0.9735	0.6343	0.59019	0.034
Mof_C 	C 	0.9327	0.6573	0.57042	-0.164
Mof_C 	C 	0.9615	0.6918	0.5483	0.266
Mof_C 	C 	0.0283	0.702	0.54727	-0.206
Mof_C 	C 	0.07	0.6805	0.56754	0.079
Mof_C 	C 	0.1405	0.6923	0.56829	-0.007
Mof_C 	C 	0.1776	0.6687	0.58842	-0.14
Mof_C 	C 	0.1498	0.6295	0.6097	0.215
Mof_C 	C 	0.1908	0.8312	0.52101	0.127
Mof_C 	C 	0.1534	0.7938	0.53917	-0.144
Mof_C 	C 	0.173	0.7319	0.54667	0.098
Mof_C 	C 	0.2308	0.7073	0.53488	-0.133
Mof_C 	C 	0.2656	0.7457	0.51685	0.102
Mof_N 	N 	0.68317	0.2011	0.87681	-0.146
Mof_N 	N 	0.9107	0.1971	0.87336	-0.149
Mof_N 	N 	0.6258	0.081	0.01503	-0.181
Mof_N 	N 	0.1927	0.7535	0.2398	-0.153
Mof_N 	N 	0.7678	0.2053	0.94015	0.066
Mof_N 	N 	0.31683	0.7989	0.37681	-0.146
Mof_N 	N 	0.0893	0.8029	0.37336	-0.149
Mof_N 	N 	0.3742	0.919	0.51503	-0.181
Mof_N 	N 	0.8073	0.2465	0.7398	-0.153
Mof_N 	N 	0.2322	0.7947	0.44015	0.066
Mof_N 	N 	0.2011	0.68317	0.37319	-0.146
Mof_N 	N 	0.1971	0.9107	0.37664	-0.149
Mof_N 	N 	0.081	0.6258	0.23497	-0.181
Mof_N 	N 	0.7535	0.1927	0.0102	-0.153
Mof_N 	N 	0.2053	0.7678	0.30985	0.066
Mof_N 	N 	0.7989	0.31683	0.87319	-0.146
Mof_N 	N 	0.8029	0.0893	0.87664	-0.149
Mof_N 	N 	0.919	0.3742	0.73497	-0.181
Mof_N 	N 	0.2465	0.8073	0.5102	-0.153
Mof_N 	N 	0.7947	0.2322	0.80985	0.066
Mof_Cl	Cl	0.48055	0.0358	0.79037	-0.313
Mof_Cl	Cl	0.12222	0.99512	0.94962	-0.32
Mof_Cl	Cl	0.7162	0.9542	0.13516	-0.322
Mof_Cl	Cl	0.27904	0.09081	0.22659	-0.33
Mof_Cl	Cl	0.51945	0.9642	0.29037	-0.313
Mof_Cl	Cl	0.87778	0.00488	0.44962	-0.32
Mof_Cl	Cl	0.2838	0.0458	0.63516	-0.322
Mof_Cl	Cl	0.72096	0.90919	0.72659	-0.33
Mof_Cl	Cl	0.0358	0.48055	0.45963	-0.313
Mof_Cl	Cl	0.99512	0.12222	0.30038	-0.32
Mof_Cl	Cl	0.9542	0.7162	0.11484	-0.322
Mof_Cl	Cl	0.09081	0.27904	0.02341	-0.33
Mof_Cl	Cl	0.9642	0.51945	0.95963	-0.313
Mof_Cl	Cl	0.00488	0.87778	0.80038	-0.32
Mof_Cl	Cl	0.0458	0.2838	0.61484	-0.322
Mof_Cl	Cl	0.90919	0.72096	0.52341	-0.33
Mof_O 	O 	0.3335	0.2504	0.91377	-0.395
Mof_O 	O 	0.2567	0.2567	0.8406	-0.38
Mof_O 	O 	0.3333	0.9638	0.09053	-0.378
Mof_O 	O 	0.3956	0.811	0.12103	-0.375
Mof_O 	O 	0.7274	0.2457	0.94939	-0.129
Mof_O 	O 	0.7641	0.1498	0.9475	-0.169
Mof_O 	O 	0.8047	0.2247	0.92153	-0.152
Mof_O 	O 	0.6665	0.7496	0.41377	-0.395
Mof_O 	O 	0.7433	0.7433	0.3406	-0.38
Mof_O 	O 	0.6667	0.0362	0.59053	-0.378
Mof_O 	O 	0.6044	0.189	0.62103	-0.375
Mof_O 	O 	0.2726	0.7543	0.44939	-0.129
Mof_O 	O 	0.2359	0.8502	0.4475	-0.169
Mof_O 	O 	0.1953	0.7753	0.42153	-0.152
Mof_O 	O 	0.2504	0.3335	0.33623	-0.395
Mof_O 	O 	0.2567	0.2567	0.4094	-0.38
Mof_O 	O 	0.9638	0.3333	0.15947	-0.378
Mof_O 	O 	0.811	0.3956	0.12897	-0.375
Mof_O 	O 	0.2457	0.7274	0.30061	-0.129
Mof_O 	O 	0.1498	0.7641	0.3025	-0.169
Mof_O 	O 	0.2247	0.8047	0.32847	-0.152
Mof_O 	O 	0.7496	0.6665	0.83623	-0.395
Mof_O 	O 	0.7433	0.7433	0.9094	-0.38
Mof_O 	O 	0.0362	0.6667	0.65947	-0.378
Mof_O 	O 	0.189	0.6044	0.62897	-0.375
Mof_O 	O 	0.7543	0.2726	0.80061	-0.129
Mof_O 	O 	0.8502	0.2359	0.8025	-0.169
Mof_O 	O 	0.7753	0.1953	0.82847	-0.152
Mof_Cd	Cd	0.8705	0.69109	0.7319	0.352
Mof_Cd	Cd	0.1295	0.30891	0.2319	0.352
Mof_Cd	Cd	0.30891	0.1295	0.0181	0.352
Mof_Cd	Cd	0.69109	0.8705	0.5181	0.352
Mof_Cd	Cd	0.79681	0.79681	0.625	0.419
Mof_Cd	Cd	0.20319	0.20319	0.125	0.419
Mof_H 	H 	0.7555	0.293	0.6614	0.233
Mof_H 	H 	0.7488	0.2974	0.5927	0.24
Mof_H 	H 	0.0181	0.3237	0.8258	0.22
Mof_H 	H 	0.166	0.4157	0.8596	0.241
Mof_H 	H 	0.7364	0.6707	0.5961	0.032
Mof_H 	H 	0.7427	0.5572	0.5935	0.092
Mof_H 	H 	0.8737	0.5591	0.6541	0.079
Mof_H 	H 	0.8666	0.6739	0.6551	0.015
Mof_H 	H 	0.7547	0.4606	0.6568	0.102
Mof_H 	H 	0.8837	0.5194	0.5833	0.123
Mof_H 	H 	0.9445	0.3461	0.5514	0.132
Mof_H 	H 	0.891	0.2896	0.5851	0.05
Mof_H 	H 	0.8976	0.3067	0.6631	0.031
Mof_H 	H 	0.9679	0.2549	0.6922	0.116
Mof_H 	H 	0.9181	0.0789	0.6595	0.127
Mof_H 	H 	0.7579	0.1288	0.5963	0.12
Mof_H 	H 	0.8146	0.9228	0.5844	0.03
Mof_H 	H 	0.8307	0.0349	0.5844	0.093
Mof_H 	H 	0.8149	0.0317	0.6651	0.083
Mof_H 	H 	0.7974	0.9195	0.6629	0.036
Mof_H 	H 	0.8406	0.6189	0.7867	-0
Mof_H 	H 	0.8844	0.5603	0.8213	0.095
Mof_H 	H 	0.0511	0.554	0.7811	0.098
Mof_H 	H 	0.0044	0.6152	0.7483	-0.007
Mof_H 	H 	0.0122	0.6356	0.8418	0.122
Mof_H 	H 	0.0927	0.6085	0.9163	0.127
Mof_H 	H 	0.0884	0.4957	0.9111	0.051
Mof_H 	H 	0.9916	0.4235	0.8078	0.071
Mof_H 	H 	0.9547	0.389	0.8951	0.034
Mof_H 	H 	0.8864	0.3494	0.9286	0.123
Mof_H 	H 	0.0464	0.2755	0.9678	0.15
Mof_H 	H 	0.2234	0.3218	0.9114	0.099
Mof_H 	H 	0.1139	0.1884	0.9536	0.096
Mof_H 	H 	0.2459	0.3357	0.9607	0.097
Mof_H 	H 	0.3043	0.2719	0.9911	0.014
Mof_H 	H 	0.2445	0.707	0.1614	0.233
Mof_H 	H 	0.2512	0.7026	0.0927	0.24
Mof_H 	H 	0.9819	0.6763	0.3258	0.22
Mof_H 	H 	0.834	0.5843	0.3596	0.241
Mof_H 	H 	0.2636	0.3293	0.0961	0.032
Mof_H 	H 	0.2573	0.4428	0.0935	0.092
Mof_H 	H 	0.1263	0.4409	0.1541	0.079
Mof_H 	H 	0.1334	0.3261	0.1551	0.015
Mof_H 	H 	0.2453	0.5394	0.1568	0.102
Mof_H 	H 	0.1163	0.4806	0.0833	0.123
Mof_H 	H 	0.0555	0.6539	0.0514	0.132
Mof_H 	H 	0.109	0.7104	0.0851	0.05
Mof_H 	H 	0.1024	0.6933	0.1631	0.031
Mof_H 	H 	0.0321	0.7451	0.1922	0.116
Mof_H 	H 	0.0819	0.9211	0.1595	0.127
Mof_H 	H 	0.2421	0.8712	0.0963	0.12
Mof_H 	H 	0.1854	0.0772	0.0844	0.03
Mof_H 	H 	0.1693	0.9651	0.0844	0.093
Mof_H 	H 	0.1851	0.9683	0.1651	0.083
Mof_H 	H 	0.2026	0.0805	0.1629	0.036
Mof_H 	H 	0.1594	0.3811	0.2867	-0
Mof_H 	H 	0.1156	0.4397	0.3213	0.095
Mof_H 	H 	0.9489	0.446	0.2811	0.098
Mof_H 	H 	0.9956	0.3848	0.2483	-0.007
Mof_H 	H 	0.9878	0.3644	0.3418	0.122
Mof_H 	H 	0.9073	0.3915	0.4163	0.127
Mof_H 	H 	0.9116	0.5043	0.4111	0.051
Mof_H 	H 	0.0084	0.5765	0.3078	0.071
Mof_H 	H 	0.0453	0.611	0.3951	0.034
Mof_H 	H 	0.1136	0.6506	0.4286	0.123
Mof_H 	H 	0.9536	0.7245	0.4678	0.15
Mof_H 	H 	0.7766	0.6782	0.4114	0.099
Mof_H 	H 	0.8861	0.8116	0.4536	0.096
Mof_H 	H 	0.7541	0.6643	0.4607	0.097
Mof_H 	H 	0.6957	0.7281	0.4911	0.014
Mof_H 	H 	0.707	0.2445	0.0886	0.233
Mof_H 	H 	0.7026	0.2512	0.1573	0.24
Mof_H 	H 	0.6763	0.9819	0.9242	0.22
Mof_H 	H 	0.5843	0.834	0.8904	0.241
Mof_H 	H 	0.3293	0.2636	0.1539	0.032
Mof_H 	H 	0.4428	0.2573	0.1565	0.092
Mof_H 	H 	0.4409	0.1263	0.0959	0.079
Mof_H 	H 	0.3261	0.1334	0.0949	0.015
Mof_H 	H 	0.5394	0.2453	0.0932	0.102
Mof_H 	H 	0.4806	0.1163	0.1667	0.123
Mof_H 	H 	0.6539	0.0555	0.1986	0.132
Mof_H 	H 	0.7104	0.109	0.1649	0.05
Mof_H 	H 	0.6933	0.1024	0.0869	0.031
Mof_H 	H 	0.7451	0.0321	0.0578	0.116
Mof_H 	H 	0.9211	0.0819	0.0905	0.127
Mof_H 	H 	0.8712	0.2421	0.1537	0.12
Mof_H 	H 	0.0772	0.1854	0.1656	0.03
Mof_H 	H 	0.9651	0.1693	0.1656	0.093
Mof_H 	H 	0.9683	0.1851	0.0849	0.083
Mof_H 	H 	0.0805	0.2026	0.0871	0.036
Mof_H 	H 	0.3811	0.1594	0.9633	-0
Mof_H 	H 	0.4397	0.1156	0.9287	0.095
Mof_H 	H 	0.446	0.9489	0.9689	0.098
Mof_H 	H 	0.3848	0.9956	0.0017	-0.007
Mof_H 	H 	0.3644	0.9878	0.9082	0.122
Mof_H 	H 	0.3915	0.9073	0.8337	0.127
Mof_H 	H 	0.5043	0.9116	0.8389	0.051
Mof_H 	H 	0.5765	0.0084	0.9422	0.071
Mof_H 	H 	0.611	0.0453	0.8549	0.034
Mof_H 	H 	0.6506	0.1136	0.8214	0.123
Mof_H 	H 	0.7245	0.9536	0.7822	0.15
Mof_H 	H 	0.6782	0.7766	0.8386	0.099
Mof_H 	H 	0.8116	0.8861	0.7964	0.096
Mof_H 	H 	0.6643	0.7541	0.7893	0.097
Mof_H 	H 	0.7281	0.6957	0.7589	0.014
Mof_H 	H 	0.293	0.7555	0.5886	0.233
Mof_H 	H 	0.2974	0.7488	0.6573	0.24
Mof_H 	H 	0.3237	0.0181	0.4242	0.22
Mof_H 	H 	0.4157	0.166	0.3904	0.241
Mof_H 	H 	0.6707	0.7364	0.6539	0.032
Mof_H 	H 	0.5572	0.7427	0.6565	0.092
Mof_H 	H 	0.5591	0.8737	0.5959	0.079
Mof_H 	H 	0.6739	0.8666	0.5949	0.015
Mof_H 	H 	0.4606	0.7547	0.5932	0.102
Mof_H 	H 	0.5194	0.8837	0.6667	0.123
Mof_H 	H 	0.3461	0.9445	0.6986	0.132
Mof_H 	H 	0.2896	0.891	0.6649	0.05
Mof_H 	H 	0.3067	0.8976	0.5869	0.031
Mof_H 	H 	0.2549	0.9679	0.5578	0.116
Mof_H 	H 	0.0789	0.9181	0.5905	0.127
Mof_H 	H 	0.1288	0.7579	0.6537	0.12
Mof_H 	H 	0.9228	0.8146	0.6656	0.03
Mof_H 	H 	0.0349	0.8307	0.6656	0.093
Mof_H 	H 	0.0317	0.8149	0.5849	0.083
Mof_H 	H 	0.9195	0.7974	0.5871	0.036
Mof_H 	H 	0.6189	0.8406	0.4633	-0
Mof_H 	H 	0.5603	0.8844	0.4287	0.095
Mof_H 	H 	0.554	0.0511	0.4689	0.098
Mof_H 	H 	0.6152	0.0044	0.5017	-0.007
Mof_H 	H 	0.6356	0.0122	0.4082	0.122
Mof_H 	H 	0.6085	0.0927	0.3337	0.127
Mof_H 	H 	0.4957	0.0884	0.3389	0.051
Mof_H 	H 	0.4235	0.9916	0.4422	0.071
Mof_H 	H 	0.389	0.9547	0.3549	0.034
Mof_H 	H 	0.3494	0.8864	0.3214	0.123
Mof_H 	H 	0.2755	0.0464	0.2822	0.15
Mof_H 	H 	0.3218	0.2234	0.3386	0.099
Mof_H 	H 	0.1884	0.1139	0.2964	0.096
Mof_H 	H 	0.3357	0.2459	0.2893	0.097
Mof_H 	H 	0.2719	0.3043	0.2589	0.014
Mof_C 	C 	0.7641	0.6478	0.60838	0.076
Mof_C 	C 	0.7675	0.5799	0.60674	-0.137
Mof_C 	C 	0.807	0.545	0.62446	0.083
Mof_C 	C 	0.8444	0.581	0.64219	-0.141
Mof_C 	C 	0.8397	0.65	0.64281	0.083
Mof_C 	C 	0.8107	0.4725	0.62341	-0.009
Mof_C 	C 	0.7787	0.4374	0.64341	-0.155
Mof_C 	C 	0.7808	0.3674	0.64439	0.211
Mof_C 	C 	0.8165	0.3326	0.62519	-0.064
Mof_C 	C 	0.8515	0.369	0.60442	-0.017
Mof_C 	C 	0.8492	0.4378	0.60391	0.064
Mof_C 	C 	0.8848	0.4727	0.58376	-0.198
Mof_C 	C 	0.9201	0.4389	0.5654	0.25
Mof_C 	C 	0.9213	0.3692	0.5651	-0.164
Mof_C 	C 	0.8887	0.3364	0.58469	0.035
Mof_C 	C 	0.8189	0.2596	0.62566	-0.069
Mof_C 	C 	0.8614	0.2261	0.64411	-0.009
Mof_C 	C 	0.9008	0.26	0.6625	0.036
Mof_C 	C 	0.9433	0.2301	0.67951	-0.169
Mof_C 	C 	0.9502	0.1613	0.67795	0.254
Mof_C 	C 	0.9126	0.1253	0.66034	-0.192
Mof_C 	C 	0.8663	0.1556	0.64355	0.065
Mof_C 	C 	0.8251	0.1205	0.62516	0.007
Mof_C 	C 	0.7855	0.1532	0.60807	-0.155
Mof_C 	C 	0.7835	0.2237	0.60717	0.224
Mof_C 	C 	0.8134	0.9455	0.60117	0.082
Mof_C 	C 	0.8229	0.0127	0.60097	-0.128
Mof_C 	C 	0.821	0.0474	0.62444	0.087
Mof_C 	C 	0.8134	0.0105	0.64805	-0.127
Mof_C 	C 	0.8037	0.9434	0.64664	0.077
Mof_C 	C 	0.8858	0.6069	0.78573	0.112
Mof_C 	C 	0.9113	0.5708	0.80624	-0.18
Mof_C 	C 	0.9745	0.5496	0.80555	0.11
Mof_C 	C 	0.0067	0.5677	0.7833	-0.175
Mof_C 	C 	0.9789	0.6045	0.7637	0.11
Mof_C 	C 	0.0038	0.5076	0.82712	-0.018
Mof_C 	C 	0.0274	0.5367	0.85146	0.062
Mof_C 	C 	0.0269	0.6069	0.8557	-0.189
Mof_C 	C 	0.0477	0.6317	0.8796	0.244
Mof_C 	C 	0.0747	0.5899	0.9004	-0.155
Mof_C 	C 	0.0739	0.5236	0.89691	0.029
Mof_C 	C 	0.0518	0.4954	0.87247	-0.017
Mof_C 	C 	0.0548	0.4261	0.86845	-0.045
Mof_C 	C 	0.0332	0.4001	0.84446	0.184
Mof_C 	C 	0.0071	0.4425	0.82408	-0.145
Mof_C 	C 	0.0834	0.3831	0.88995	-0.049
Mof_C 	C 	0.0433	0.3561	0.91031	-0.006
Mof_C 	C 	0.9735	0.3657	0.90981	0.034
Mof_C 	C 	0.9327	0.3427	0.92958	-0.164
Mof_C 	C 	0.9615	0.3082	0.9517	0.266
Mof_C 	C 	0.0283	0.298	0.95273	-0.206
Mof_C 	C 	0.07	0.3195	0.93246	0.079
Mof_C 	C 	0.1405	0.3077	0.93171	-0.007
Mof_C 	C 	0.1776	0.3313	0.91158	-0.14
Mof_C 	C 	0.1498	0.3705	0.8903	0.215
Mof_C 	C 	0.1908	0.1688	0.97899	0.127
Mof_C 	C 	0.1534	0.2062	0.96083	-0.144
Mof_C 	C 	0.173	0.2681	0.95333	0.098
Mof_C 	C 	0.2308	0.2927	0.96512	-0.133
Mof_C 	C 	0.2656	0.2543	0.98315	0.102
Mof_C 	C 	0.2359	0.3522	0.10838	0.076
Mof_C 	C 	0.2325	0.4201	0.10674	-0.137
Mof_C 	C 	0.193	0.455	0.12446	0.083
Mof_C 	C 	0.1556	0.419	0.14219	-0.141
Mof_C 	C 	0.1603	0.35	0.14281	0.083
Mof_C 	C 	0.1893	0.5275	0.12341	-0.009
Mof_C 	C 	0.2213	0.5626	0.14341	-0.155
Mof_C 	C 	0.2192	0.6326	0.14439	0.211
Mof_C 	C 	0.1835	0.6674	0.12519	-0.064
Mof_C 	C 	0.1485	0.631	0.10442	-0.017
Mof_C 	C 	0.1508	0.5622	0.10391	0.064
Mof_C 	C 	0.1152	0.5273	0.08376	-0.198
Mof_C 	C 	0.0799	0.5611	0.0654	0.25
Mof_C 	C 	0.0787	0.6308	0.0651	-0.164
Mof_C 	C 	0.1113	0.6636	0.08469	0.035
Mof_C 	C 	0.1811	0.7404	0.12566	-0.069
Mof_C 	C 	0.1386	0.7739	0.14411	-0.009
Mof_C 	C 	0.0992	0.74	0.1625	0.036
Mof_C 	C 	0.0567	0.7699	0.17951	-0.169
Mof_C 	C 	0.0498	0.8387	0.17795	0.254
Mof_C 	C 	0.0874	0.8747	0.16034	-0.192
Mof_C 	C 	0.1337	0.8444	0.14355	0.065
Mof_C 	C 	0.1749	0.8795	0.12516	0.007
Mof_C 	C 	0.2145	0.8468	0.10807	-0.155
Mof_C 	C 	0.2165	0.7763	0.10717	0.224
Mof_C 	C 	0.1866	0.0545	0.10117	0.082
Mof_C 	C 	0.1771	0.9873	0.10097	-0.128
Mof_C 	C 	0.179	0.9526	0.12444	0.087
Mof_C 	C 	0.1866	0.9895	0.14805	-0.127
Mof_C 	C 	0.1963	0.0566	0.14664	0.077
Mof_C 	C 	0.1142	0.3931	0.28573	0.112
Mof_C 	C 	0.0887	0.4292	0.30624	-0.18
Mof_C 	C 	0.0255	0.4504	0.30555	0.11
Mof_C 	C 	0.9933	0.4323	0.2833	-0.175
Mof_C 	C 	0.0211	0.3955	0.2637	0.11
Mof_C 	C 	0.9962	0.4924	0.32712	-0.018
Mof_C 	C 	0.9726	0.4633	0.35146	0.062
Mof_C 	C 	0.9731	0.3931	0.3557	-0.189
Mof_C 	C 	0.9523	0.3683	0.3796	0.244
Mof_C 	C 	0.9253	0.4101	0.4004	-0.155
Mof_C 	C 	0.9261	0.4764	0.39691	0.029
Mof_C 	C 	0.9482	0.5046	0.37247	-0.017
Mof_C 	C 	0.9452	0.5739	0.36845	-0.045
Mof_C 	C 	0.9668	0.5999	0.34446	0.184
Mof_C 	C 	0.9929	0.5575	0.32408	-0.145
Mof_C 	C 	0.9166	0.6169	0.38995	-0.049
Mof_C 	C 	0.9567	0.6439	0.41031	-0.006
Mof_C 	C 	0.0265	0.6343	0.40981	0.034
Mof_C 	C 	0.0673	0.6573	0.42958	-0.164
Mof_C 	C 	0.0385	0.6918	0.4517	0.266
Mof_C 	C 	0.9717	0.702	0.45273	-0.206
Mof_C 	C 	0.93	0.6805	0.43246	0.079
Mof_C 	C 	0.8595	0.6923	0.43171	-0.007
Mof_C 	C 	0.8224	0.6687	0.41158	-0.14
Mof_C 	C 	0.8502	0.6295	0.3903	0.215
Mof_C 	C 	0.8092	0.8312	0.47899	0.127
Mof_C 	C 	0.8466	0.7938	0.46083	-0.144
Mof_C 	C 	0.827	0.7319	0.45333	0.098
Mof_C 	C 	0.7692	0.7073	0.46512	-0.133
Mof_C 	C 	0.7344	0.7457	0.48315	0.102
Mof_C 	C 	0.3522	0.2359	0.14162	0.076
Mof_C 	C 	0.4201	0.2325	0.14326	-0.137
Mof_C 	C 	0.455	0.193	0.12554	0.083
Mof_C 	C 	0.419	0.1556	0.10781	-0.141
Mof_C 	C 	0.35	0.1603	0.10719	0.083
Mof_C 	C 	0.5275	0.1893	0.12659	-0.009
Mof_C 	C 	0.5626	0.2213	0.10659	-0.155
Mof_C 	C 	0.6326	0.2192	0.10561	0.211
Mof_C 	C 	0.6674	0.1835	0.12481	-0.064
Mof_C 	C 	0.631	0.1485	0.14558	-0.017
Mof_C 	C 	0.5622	0.1508	0.14609	0.064
Mof_C 	C 	0.5273	0.1152	0.16624	-0.198
Mof_C 	C 	0.5611	0.0799	0.1846	0.25
Mof_C 	C 	0.6308	0.0787	0.1849	-0.164
Mof_C 	C 	0.6636	0.1113	0.16531	0.035
Mof_C 	C 	0.7404	0.1811	0.12434	-0.069
Mof_C 	C 	0.7739	0.1386	0.10589	-0.009
Mof_C 	C 	0.74	0.0992	0.0875	0.036
Mof_C 	C 	0.7699	0.0567	0.07049	-0.169
Mof_C 	C 	0.8387	0.0498	0.07205	0.254
Mof_C 	C 	0.8747	0.0874	0.08966	-0.192
Mof_C 	C 	0.8444	0.1337	0.10645	0.065
Mof_C 	C 	0.8795	0.1749	0.12484	0.007
Mof_C 	C 	0.8468	0.2145	0.14193	-0.155
Mof_C 	C 	0.7763	0.2165	0.14283	0.224
Mof_C 	C 	0.0545	0.1866	0.14883	0.082
Mof_C 	C 	0.9873	0.1771	0.14903	-0.128
Mof_C 	C 	0.9526	0.179	0.12556	0.087
Mof_C 	C 	0.9895	0.1866	0.10195	-0.126
Mof_C 	C 	0.0566	0.1963	0.10336	0.077
Mof_C 	C 	0.3931	0.1142	0.96427	0.113
Mof_C 	C 	0.4292	0.0887	0.94376	-0.18
Mof_C 	C 	0.4504	0.0255	0.94445	0.11
Mof_C 	C 	0.4323	0.9933	0.9667	-0.175
Mof_C 	C 	0.3955	0.0211	0.9863	0.111
Mof_C 	C 	0.4924	0.9962	0.92288	-0.018
Mof_C 	C 	0.4633	0.9726	0.89854	0.062
Mof_C 	C 	0.3931	0.9731	0.8943	-0.189
Mof_C 	C 	0.3683	0.9523	0.8704	0.244
Mof_C 	C 	0.4101	0.9253	0.8496	-0.155
Mof_C 	C 	0.4764	0.9261	0.85309	0.029
Mof_C 	C 	0.5046	0.9482	0.87753	-0.017
Mof_C 	C 	0.5739	0.9452	0.88155	-0.045
Mof_C 	C 	0.5999	0.9668	0.90554	0.184
Mof_C 	C 	0.5575	0.9929	0.92592	-0.145
Mof_C 	C 	0.6169	0.9166	0.86005	-0.049
Mof_C 	C 	0.6439	0.9567	0.83969	-0.006
Mof_C 	C 	0.6343	0.0265	0.84019	0.034
Mof_C 	C 	0.6573	0.0673	0.82042	-0.164
Mof_C 	C 	0.6918	0.0385	0.7983	0.266
Mof_C 	C 	0.702	0.9717	0.79727	-0.206
Mof_C 	C 	0.6805	0.93	0.81754	0.079
Mof_C 	C 	0.6923	0.8595	0.81829	-0.007
Mof_C 	C 	0.6687	0.8224	0.83842	-0.14
Mof_C 	C 	0.6295	0.8502	0.8597	0.215
Mof_C 	C 	0.8312	0.8092	0.77101	0.127
Mof_C 	C 	0.7938	0.8466	0.78917	-0.144
Mof_C 	C 	0.7319	0.827	0.79667	0.098
Mof_C 	C 	0.7073	0.7692	0.78488	-0.133
Mof_C 	C 	0.7457	0.7344	0.76685	0.102
Mof_C 	C 	0.6478	0.7641	0.64162	0.076
Mof_C 	C 	0.5799	0.7675	0.64326	-0.137
Mof_C 	C 	0.545	0.807	0.62554	0.083
Mof_C 	C 	0.581	0.8444	0.60781	-0.141
Mof_C 	C 	0.65	0.8397	0.60719	0.083
Mof_C 	C 	0.4725	0.8107	0.62659	-0.009
Mof_C 	C 	0.4374	0.7787	0.60659	-0.155
Mof_C 	C 	0.3674	0.7808	0.60561	0.211
Mof_C 	C 	0.3326	0.8165	0.62481	-0.064
Mof_C 	C 	0.369	0.8515	0.64558	-0.017
Mof_C 	C 	0.4378	0.8492	0.64609	0.064
Mof_C 	C 	0.4727	0.8848	0.66624	-0.198
Mof_C 	C 	0.4389	0.9201	0.6846	0.25
Mof_C 	C 	0.3692	0.9213	0.6849	-0.164
Mof_C 	C 	0.3364	0.8887	0.66531	0.035
Mof_C 	C 	0.2596	0.8189	0.62434	-0.069
Mof_C 	C 	0.2261	0.8614	0.60589	-0.009
Mof_C 	C 	0.26	0.9008	0.5875	0.036
Mof_C 	C 	0.2301	0.9433	0.57049	-0.169
Mof_C 	C 	0.1613	0.9502	0.57205	0.254
Mof_C 	C 	0.1253	0.9126	0.58966	-0.192
Mof_C 	C 	0.1556	0.8663	0.60645	0.065
Mof_C 	C 	0.1205	0.8251	0.62484	0.007
Mof_C 	C 	0.1532	0.7855	0.64193	-0.155
Mof_C 	C 	0.2237	0.7835	0.64283	0.224
Mof_C 	C 	0.9455	0.8134	0.64883	0.082
Mof_C 	C 	0.0127	0.8229	0.64903	-0.128
Mof_C 	C 	0.0474	0.821	0.62556	0.087
Mof_C 	C 	0.0105	0.8134	0.60195	-0.127
Mof_C 	C 	0.9434	0.8037	0.60336	0.077
Mof_C 	C 	0.6069	0.8858	0.46427	0.112
Mof_C 	C 	0.5708	0.9113	0.44376	-0.18
Mof_C 	C 	0.5496	0.9745	0.44445	0.11
Mof_C 	C 	0.5677	0.0067	0.4667	-0.175
Mof_C 	C 	0.6045	0.9789	0.4863	0.11
Mof_C 	C 	0.5076	0.0038	0.42288	-0.018
Mof_C 	C 	0.5367	0.0274	0.39854	0.062
Mof_C 	C 	0.6069	0.0269	0.3943	-0.189
Mof_C 	C 	0.6317	0.0477	0.3704	0.244
Mof_C 	C 	0.5899	0.0747	0.3496	-0.155
Mof_C 	C 	0.5236	0.0739	0.35309	0.029
Mof_C 	C 	0.4954	0.0518	0.37753	-0.017
Mof_C 	C 	0.4261	0.0548	0.38155	-0.045
Mof_C 	C 	0.4001	0.0332	0.40554	0.184
Mof_C 	C 	0.4425	0.0071	0.42592	-0.145
Mof_C 	C 	0.3831	0.0834	0.36005	-0.049
Mof_C 	C 	0.3561	0.0433	0.33969	-0.006
Mof_C 	C 	0.3657	0.9735	0.34019	0.034
Mof_C 	C 	0.3427	0.9327	0.32042	-0.164
Mof_C 	C 	0.3082	0.9615	0.2983	0.266
Mof_C 	C 	0.298	0.0283	0.29727	-0.206
Mof_C 	C 	0.3195	0.07	0.31754	0.079
Mof_C 	C 	0.3077	0.1405	0.31829	-0.007
Mof_C 	C 	0.3313	0.1776	0.33842	-0.14
Mof_C 	C 	0.3705	0.1498	0.3597	0.215
Mof_C 	C 	0.1688	0.1908	0.27101	0.127
Mof_C 	C 	0.2062	0.1534	0.28917	-0.144
Mof_C 	C 	0.2681	0.173	0.29667	0.098
Mof_C 	C 	0.2927	0.2308	0.28488	-0.133
Mof_C 	C 	0.2543	0.2656	0.26685	0.102
Mof_N 	N 	0.7989	0.68317	0.62681	-0.146
Mof_N 	N 	0.8029	0.9107	0.62336	-0.149
Mof_N 	N 	0.919	0.6258	0.76503	-0.181
Mof_N 	N 	0.2465	0.1927	0.9898	-0.153
Mof_N 	N 	0.7947	0.7678	0.69015	0.066
Mof_N 	N 	0.2011	0.31683	0.12681	-0.146
Mof_N 	N 	0.1971	0.0893	0.12336	-0.149
Mof_N 	N 	0.081	0.3742	0.26503	-0.181
Mof_N 	N 	0.7535	0.8073	0.4898	-0.153
Mof_N 	N 	0.2053	0.2322	0.19015	0.066
Mof_N 	N 	0.31683	0.2011	0.12319	-0.146
Mof_N 	N 	0.0893	0.1971	0.12664	-0.149
Mof_N 	N 	0.3742	0.081	0.98497	-0.181
Mof_N 	N 	0.8073	0.7535	0.7602	-0.153
Mof_N 	N 	0.2322	0.2053	0.05985	0.066
Mof_N 	N 	0.68317	0.7989	0.62319	-0.146
Mof_N 	N 	0.9107	0.8029	0.62664	-0.149
Mof_N 	N 	0.6258	0.919	0.48497	-0.181
Mof_N 	N 	0.1927	0.2465	0.2602	-0.153
Mof_N 	N 	0.7678	0.7947	0.55985	0.066
Mof_Cl	Cl	0.9642	0.48055	0.54037	-0.313
Mof_Cl	Cl	0.00488	0.12222	0.69962	-0.32
Mof_Cl	Cl	0.0458	0.7162	0.88516	-0.322
Mof_Cl	Cl	0.90919	0.27904	0.97659	-0.33
Mof_Cl	Cl	0.0358	0.51945	0.04037	-0.313
Mof_Cl	Cl	0.99512	0.87778	0.19962	-0.32
Mof_Cl	Cl	0.9542	0.2838	0.38516	-0.322
Mof_Cl	Cl	0.09081	0.72096	0.47659	-0.33
Mof_Cl	Cl	0.51945	0.0358	0.20963	-0.313
Mof_Cl	Cl	0.87778	0.99512	0.05038	-0.32
Mof_Cl	Cl	0.2838	0.9542	0.86484	-0.322
Mof_Cl	Cl	0.72096	0.09081	0.77341	-0.33
Mof_Cl	Cl	0.48055	0.9642	0.70963	-0.313
Mof_Cl	Cl	0.12222	0.00488	0.55038	-0.32
Mof_Cl	Cl	0.7162	0.0458	0.36484	-0.322
Mof_Cl	Cl	0.27904	0.90919	0.27341	-0.33
Mof_O 	O 	0.7496	0.3335	0.66377	-0.395
Mof_O 	O 	0.7433	0.2567	0.5906	-0.38
Mof_O 	O 	0.0362	0.3333	0.84053	-0.378
Mof_O 	O 	0.189	0.3956	0.87103	-0.375
Mof_O 	O 	0.7543	0.7274	0.69939	-0.129
Mof_O 	O 	0.8502	0.7641	0.6975	-0.169
Mof_O 	O 	0.7753	0.8047	0.67153	-0.152
Mof_O 	O 	0.2504	0.6665	0.16377	-0.395
Mof_O 	O 	0.2567	0.7433	0.0906	-0.38
Mof_O 	O 	0.9638	0.6667	0.34053	-0.378
Mof_O 	O 	0.811	0.6044	0.37103	-0.375
Mof_O 	O 	0.2457	0.2726	0.19939	-0.129
Mof_O 	O 	0.1498	0.2359	0.1975	-0.169
Mof_O 	O 	0.2247	0.1953	0.17153	-0.152
Mof_O 	O 	0.6665	0.2504	0.08623	-0.395
Mof_O 	O 	0.7433	0.2567	0.1594	-0.38
Mof_O 	O 	0.6667	0.9638	0.90947	-0.378
Mof_O 	O 	0.6044	0.811	0.87897	-0.375
Mof_O 	O 	0.2726	0.2457	0.05061	-0.129
Mof_O 	O 	0.2359	0.1498	0.0525	-0.169
Mof_O 	O 	0.1953	0.2247	0.07847	-0.152
Mof_O 	O 	0.3335	0.7496	0.58623	-0.395
Mof_O 	O 	0.2567	0.7433	0.6594	-0.38
Mof_O 	O 	0.3333	0.0362	0.40947	-0.378
Mof_O 	O 	0.3956	0.189	0.37897	-0.375
Mof_O 	O 	0.7274	0.7543	0.55061	-0.129
Mof_O 	O 	0.7641	0.8502	0.5525	-0.169
Mof_O 	O 	0.8047	0.7753	0.57847	-0.152
_end
