# CIF file generated by openbabel 3.1.0, see https://openbabel.org
data_I
_chemical_name_common 'image0'
_cell_length_a 24.2742
_cell_length_b 16.125
_cell_length_c 22.0331
_cell_angle_alpha 90
_cell_angle_beta 100.22
_cell_angle_gamma 90
_space_group_name_H-M_alt 'P 1'
_space_group_name_Hall 'P 1'
loop_
    _symmetry_equiv_pos_as_xyz
    x,y,z
loop_
    _atom_site_label
    _atom_site_type_symbol
    _atom_site_fract_x
    _atom_site_fract_y
    _atom_site_fract_z
    _atom_site_occupancy
    Pr1      Pr       0.25877    0.21054    0.59563    1.000
    Si1      Si       0.37955    0.27381    0.00670    1.000
    C1       C        0.35720    0.25880    0.92220    1.000
    C2       C        0.39290    0.23390    0.88190    1.000
    H1       H        0.43000    0.22180    0.89830    1.000
    C3       C        0.30150    0.26970    0.89430    1.000
    H2       H        0.27540    0.28290    0.91910    1.000
    C4       C        0.28330    0.26160    0.83140    1.000
    H3       H        0.24600    0.27130    0.81440    1.000
    C5       C        0.37540    0.22660    0.81920    1.000
    H4       H        0.40080    0.21300    0.79380    1.000
    C6       C        0.32000    0.23980    0.79470    1.000
    C7       C        0.29940    0.23070    0.72570    1.000
    C8       C        0.45760    0.27570    0.02800    1.000
    C9       C        0.48710    0.34440    0.05000    1.000
    H5       H        0.46770    0.39350    0.05310    1.000
    C10      C        0.48810    0.20380    0.02500    1.000
    H6       H        0.46920    0.15500    0.01210    1.000
    C11      C        0.54520    0.34410    0.06800    1.000
    H7       H        0.56380    0.39200    0.08380    1.000
    C12      C        0.54630    0.20230    0.04060    1.000
    H8       H        0.56570    0.15350    0.03640    1.000
    C13      C        0.57510    0.27260    0.06220    1.000
    C14      C        0.63790    0.27430    0.07930    1.000
    C15      C        0.35100    0.37560    0.02610    1.000
    C16      C        0.36020    0.44350    0.98800    1.000
    H9       H        0.38000    0.43580    0.95600    1.000
    C17      C        0.32270    0.39030    0.07330    1.000
    H10      H        0.31570    0.34650    0.09830    1.000
    C18      C        0.30370    0.47150    0.08510    1.000
    H11      H        0.28630    0.48090    0.11880    1.000
    C19      C        0.33910    0.52270    0.99900    1.000
    H12      H        0.34450    0.56670    0.97340    1.000
    C20      C        0.31110    0.53540    0.04660    1.000
    C21      C        0.28980    0.61870    0.05870    1.000
    C22      C        0.35280    0.18840    0.05000    1.000
    C23      C        0.32220    0.12310    0.02210    1.000
    H13      H        0.31390    0.12190    0.97920    1.000
    C24      C        0.36620    0.18570    0.11310    1.000
    H14      H        0.38790    0.22800    0.13390    1.000
    C25      C        0.34810    0.12090    0.14670    1.000
    H15      H        0.35740    0.12080    0.18950    1.000
    C26      C        0.30290    0.05880    0.05460    1.000
    H16      H        0.28080    0.01740    0.03340    1.000
    C27      C        0.31600    0.05610    0.11630    1.000
    C28      C        0.29240    0.98680    0.15030    1.000
    O1       O        0.33420    0.21660    0.69060    1.000
    O2       O        0.24810    0.23790    0.70470    1.000
    O3       O        0.66516    0.21130    0.06530    1.000
    O4       O        0.66138    0.33620    0.10670    1.000
    O5       O        0.28300    0.63900    0.11210    1.000
    O6       O        0.27710    0.67030    0.01380    1.000
    O7       O        0.30020    0.99490    0.20950    1.000
    O8       O        0.26720    0.92920    0.12300    1.000
    Pr2      Pr       0.75877    0.71054    0.59563    1.000
    Si2      Si       0.87955    0.77381    0.00670    1.000
    C29      C        0.85720    0.75880    0.92220    1.000
    C30      C        0.89290    0.73390    0.88190    1.000
    H17      H        0.93000    0.72180    0.89830    1.000
    C31      C        0.80150    0.76970    0.89430    1.000
    H18      H        0.77540    0.78290    0.91910    1.000
    C32      C        0.78330    0.76160    0.83140    1.000
    H19      H        0.74600    0.77130    0.81440    1.000
    C33      C        0.87540    0.72660    0.81920    1.000
    H20      H        0.90080    0.71300    0.79380    1.000
    C34      C        0.82000    0.73980    0.79470    1.000
    C35      C        0.79940    0.73070    0.72570    1.000
    C36      C        0.95760    0.77570    0.02800    1.000
    C37      C        0.98710    0.84440    0.05000    1.000
    H21      H        0.96770    0.89350    0.05310    1.000
    C38      C        0.98810    0.70380    0.02500    1.000
    H22      H        0.96920    0.65500    0.01210    1.000
    C39      C        0.04520    0.84410    0.06800    1.000
    H23      H        0.06380    0.89200    0.08380    1.000
    C40      C        0.04630    0.70230    0.04060    1.000
    H24      H        0.06570    0.65350    0.03640    1.000
    C41      C        0.07510    0.77260    0.06220    1.000
    C42      C        0.13790    0.77430    0.07930    1.000
    C43      C        0.85100    0.87560    0.02610    1.000
    C44      C        0.86020    0.94350    0.98800    1.000
    H25      H        0.88000    0.93580    0.95600    1.000
    C45      C        0.82270    0.89030    0.07330    1.000
    H26      H        0.81570    0.84650    0.09830    1.000
    C46      C        0.80370    0.97150    0.08510    1.000
    H27      H        0.78630    0.98090    0.11880    1.000
    C47      C        0.83910    0.02270    0.99900    1.000
    H28      H        0.84450    0.06670    0.97340    1.000
    C48      C        0.81110    0.03540    0.04660    1.000
    C49      C        0.78980    0.11870    0.05870    1.000
    C50      C        0.85280    0.68840    0.05000    1.000
    C51      C        0.82220    0.62310    0.02210    1.000
    H29      H        0.81390    0.62190    0.97920    1.000
    C52      C        0.86620    0.68570    0.11310    1.000
    H30      H        0.88790    0.72800    0.13390    1.000
    C53      C        0.84810    0.62090    0.14670    1.000
    H31      H        0.85740    0.62080    0.18950    1.000
    C54      C        0.80290    0.55880    0.05460    1.000
    H32      H        0.78080    0.51740    0.03340    1.000
    C55      C        0.81600    0.55610    0.11630    1.000
    C56      C        0.79240    0.48680    0.15030    1.000
    O9       O        0.83420    0.71660    0.69060    1.000
    O10      O        0.74810    0.73790    0.70470    1.000
    O11      O        0.16516    0.71130    0.06530    1.000
    O12      O        0.16138    0.83620    0.10670    1.000
    O13      O        0.78300    0.13900    0.11210    1.000
    O14      O        0.77710    0.17030    0.01380    1.000
    O15      O        0.80020    0.49490    0.20950    1.000
    O16      O        0.76720    0.42920    0.12300    1.000
    Pr3      Pr       0.74123    0.21054    0.90437    1.000
    Si3      Si       0.62045    0.27381    0.49330    1.000
    C57      C        0.64280    0.25880    0.57780    1.000
    C58      C        0.60710    0.23390    0.61810    1.000
    H33      H        0.57000    0.22180    0.60170    1.000
    C59      C        0.69850    0.26970    0.60570    1.000
    H34      H        0.72460    0.28290    0.58090    1.000
    C60      C        0.71670    0.26160    0.66860    1.000
    H35      H        0.75400    0.27130    0.68560    1.000
    C61      C        0.62460    0.22660    0.68080    1.000
    H36      H        0.59920    0.21300    0.70620    1.000
    C62      C        0.68000    0.23980    0.70530    1.000
    C63      C        0.70060    0.23070    0.77430    1.000
    C64      C        0.54240    0.27570    0.47200    1.000
    C65      C        0.51290    0.34440    0.45000    1.000
    H37      H        0.53230    0.39350    0.44690    1.000
    C66      C        0.51190    0.20380    0.47500    1.000
    H38      H        0.53080    0.15500    0.48790    1.000
    C67      C        0.45480    0.34410    0.43200    1.000
    H39      H        0.43620    0.39200    0.41620    1.000
    C68      C        0.45370    0.20230    0.45940    1.000
    H40      H        0.43430    0.15350    0.46360    1.000
    C69      C        0.42490    0.27260    0.43780    1.000
    C70      C        0.36210    0.27430    0.42070    1.000
    C71      C        0.64900    0.37560    0.47390    1.000
    C72      C        0.63980    0.44350    0.51200    1.000
    H41      H        0.62000    0.43580    0.54400    1.000
    C73      C        0.67730    0.39030    0.42670    1.000
    H42      H        0.68430    0.34650    0.40170    1.000
    C74      C        0.69630    0.47150    0.41490    1.000
    H43      H        0.71370    0.48090    0.38120    1.000
    C75      C        0.66090    0.52270    0.50100    1.000
    H44      H        0.65550    0.56670    0.52660    1.000
    C76      C        0.68890    0.53540    0.45340    1.000
    C77      C        0.71020    0.61870    0.44130    1.000
    C78      C        0.64720    0.18840    0.45000    1.000
    C79      C        0.67780    0.12310    0.47790    1.000
    H45      H        0.68610    0.12190    0.52080    1.000
    C80      C        0.63380    0.18570    0.38690    1.000
    H46      H        0.61210    0.22800    0.36610    1.000
    C81      C        0.65190    0.12090    0.35330    1.000
    H47      H        0.64260    0.12080    0.31050    1.000
    C82      C        0.69710    0.05880    0.44540    1.000
    H48      H        0.71920    0.01740    0.46660    1.000
    C83      C        0.68400    0.05610    0.38370    1.000
    C84      C        0.70760    0.98680    0.34970    1.000
    O17      O        0.66580    0.21660    0.80940    1.000
    O18      O        0.75190    0.23790    0.79530    1.000
    O19      O        0.33484    0.21130    0.43470    1.000
    O20      O        0.33862    0.33620    0.39330    1.000
    O21      O        0.71700    0.63900    0.38790    1.000
    O22      O        0.72290    0.67030    0.48620    1.000
    O23      O        0.69980    0.99490    0.29050    1.000
    O24      O        0.73280    0.92920    0.37700    1.000
    Pr4      Pr       0.24123    0.71054    0.90437    1.000
    Si4      Si       0.12045    0.77381    0.49330    1.000
    C85      C        0.14280    0.75880    0.57780    1.000
    C86      C        0.10710    0.73390    0.61810    1.000
    H49      H        0.07000    0.72180    0.60170    1.000
    C87      C        0.19850    0.76970    0.60570    1.000
    H50      H        0.22460    0.78290    0.58090    1.000
    C88      C        0.21670    0.76160    0.66860    1.000
    H51      H        0.25400    0.77130    0.68560    1.000
    C89      C        0.12460    0.72660    0.68080    1.000
    H52      H        0.09920    0.71300    0.70620    1.000
    C90      C        0.18000    0.73980    0.70530    1.000
    C91      C        0.20060    0.73070    0.77430    1.000
    C92      C        0.04240    0.77570    0.47200    1.000
    C93      C        0.01290    0.84440    0.45000    1.000
    H53      H        0.03230    0.89350    0.44690    1.000
    C94      C        0.01190    0.70380    0.47500    1.000
    H54      H        0.03080    0.65500    0.48790    1.000
    C95      C        0.95480    0.84410    0.43200    1.000
    H55      H        0.93620    0.89200    0.41620    1.000
    C96      C        0.95370    0.70230    0.45940    1.000
    H56      H        0.93430    0.65350    0.46360    1.000
    C97      C        0.92490    0.77260    0.43780    1.000
    C98      C        0.86210    0.77430    0.42070    1.000
    C99      C        0.14900    0.87560    0.47390    1.000
    C100     C        0.13980    0.94350    0.51200    1.000
    H57      H        0.12000    0.93580    0.54400    1.000
    C101     C        0.17730    0.89030    0.42670    1.000
    H58      H        0.18430    0.84650    0.40170    1.000
    C102     C        0.19630    0.97150    0.41490    1.000
    H59      H        0.21370    0.98090    0.38120    1.000
    C103     C        0.16090    0.02270    0.50100    1.000
    H60      H        0.15550    0.06670    0.52660    1.000
    C104     C        0.18890    0.03540    0.45340    1.000
    C105     C        0.21020    0.11870    0.44130    1.000
    C106     C        0.14720    0.68840    0.45000    1.000
    C107     C        0.17780    0.62310    0.47790    1.000
    H61      H        0.18610    0.62190    0.52080    1.000
    C108     C        0.13380    0.68570    0.38690    1.000
    H62      H        0.11210    0.72800    0.36610    1.000
    C109     C        0.15190    0.62090    0.35330    1.000
    H63      H        0.14260    0.62080    0.31050    1.000
    C110     C        0.19710    0.55880    0.44540    1.000
    H64      H        0.21920    0.51740    0.46660    1.000
    C111     C        0.18400    0.55610    0.38370    1.000
    C112     C        0.20760    0.48680    0.34970    1.000
    O25      O        0.16580    0.71660    0.80940    1.000
    O26      O        0.25190    0.73790    0.79530    1.000
    O27      O        0.83484    0.71130    0.43470    1.000
    O28      O        0.83862    0.83620    0.39330    1.000
    O29      O        0.21700    0.13900    0.38790    1.000
    O30      O        0.22290    0.17030    0.48620    1.000
    O31      O        0.19980    0.49490    0.29050    1.000
    O32      O        0.23280    0.42920    0.37700    1.000
    Pr5      Pr       0.74123    0.78946    0.40437    1.000
    Si5      Si       0.62045    0.72619    0.99330    1.000
    C113     C        0.64280    0.74120    0.07780    1.000
    C114     C        0.60710    0.76610    0.11810    1.000
    H65      H        0.57000    0.77820    0.10170    1.000
    C115     C        0.69850    0.73030    0.10570    1.000
    H66      H        0.72460    0.71710    0.08090    1.000
    C116     C        0.71670    0.73840    0.16860    1.000
    H67      H        0.75400    0.72870    0.18560    1.000
    C117     C        0.62460    0.77340    0.18080    1.000
    H68      H        0.59920    0.78700    0.20620    1.000
    C118     C        0.68000    0.76020    0.20530    1.000
    C119     C        0.70060    0.76930    0.27430    1.000
    C120     C        0.54240    0.72430    0.97200    1.000
    C121     C        0.51290    0.65560    0.95000    1.000
    H69      H        0.53230    0.60650    0.94690    1.000
    C122     C        0.51190    0.79620    0.97500    1.000
    H70      H        0.53080    0.84500    0.98790    1.000
    C123     C        0.45480    0.65590    0.93200    1.000
    H71      H        0.43620    0.60800    0.91620    1.000
    C124     C        0.45370    0.79770    0.95940    1.000
    H72      H        0.43430    0.84650    0.96360    1.000
    C125     C        0.42490    0.72740    0.93780    1.000
    C126     C        0.36210    0.72570    0.92070    1.000
    C127     C        0.64900    0.62440    0.97390    1.000
    C128     C        0.63980    0.55650    0.01200    1.000
    H73      H        0.62000    0.56420    0.04400    1.000
    C129     C        0.67730    0.60970    0.92670    1.000
    H74      H        0.68430    0.65350    0.90170    1.000
    C130     C        0.69630    0.52850    0.91490    1.000
    H75      H        0.71370    0.51910    0.88120    1.000
    C131     C        0.66090    0.47730    0.00100    1.000
    H76      H        0.65550    0.43330    0.02660    1.000
    C132     C        0.68890    0.46460    0.95340    1.000
    C133     C        0.71020    0.38130    0.94130    1.000
    C134     C        0.64720    0.81160    0.95000    1.000
    C135     C        0.67780    0.87690    0.97790    1.000
    H77      H        0.68610    0.87810    0.02080    1.000
    C136     C        0.63380    0.81430    0.88690    1.000
    H78      H        0.61210    0.77200    0.86610    1.000
    C137     C        0.65190    0.87910    0.85330    1.000
    H79      H        0.64260    0.87920    0.81050    1.000
    C138     C        0.69710    0.94120    0.94540    1.000
    H80      H        0.71920    0.98260    0.96660    1.000
    C139     C        0.68400    0.94390    0.88370    1.000
    C140     C        0.70760    0.01320    0.84970    1.000
    O33      O        0.66580    0.78340    0.30940    1.000
    O34      O        0.75190    0.76210    0.29530    1.000
    O35      O        0.33484    0.78870    0.93470    1.000
    O36      O        0.33862    0.66380    0.89330    1.000
    O37      O        0.71700    0.36100    0.88790    1.000
    O38      O        0.72290    0.32970    0.98620    1.000
    O39      O        0.69980    0.00510    0.79050    1.000
    O40      O        0.73280    0.07080    0.87700    1.000
    Pr6      Pr       0.24123    0.28946    0.40437    1.000
    Si6      Si       0.12045    0.22619    0.99330    1.000
    C141     C        0.14280    0.24120    0.07780    1.000
    C142     C        0.10710    0.26610    0.11810    1.000
    H81      H        0.07000    0.27820    0.10170    1.000
    C143     C        0.19850    0.23030    0.10570    1.000
    H82      H        0.22460    0.21710    0.08090    1.000
    C144     C        0.21670    0.23840    0.16860    1.000
    H83      H        0.25400    0.22870    0.18560    1.000
    C145     C        0.12460    0.27340    0.18080    1.000
    H84      H        0.09920    0.28700    0.20620    1.000
    C146     C        0.18000    0.26020    0.20530    1.000
    C147     C        0.20060    0.26930    0.27430    1.000
    C148     C        0.04240    0.22430    0.97200    1.000
    C149     C        0.01290    0.15560    0.95000    1.000
    H85      H        0.03230    0.10650    0.94690    1.000
    C150     C        0.01190    0.29620    0.97500    1.000
    H86      H        0.03080    0.34500    0.98790    1.000
    C151     C        0.95480    0.15590    0.93200    1.000
    H87      H        0.93620    0.10800    0.91620    1.000
    C152     C        0.95370    0.29770    0.95940    1.000
    H88      H        0.93430    0.34650    0.96360    1.000
    C153     C        0.92490    0.22740    0.93780    1.000
    C154     C        0.86210    0.22570    0.92070    1.000
    C155     C        0.14900    0.12440    0.97390    1.000
    C156     C        0.13980    0.05650    0.01200    1.000
    H89      H        0.12000    0.06420    0.04400    1.000
    C157     C        0.17730    0.10970    0.92670    1.000
    H90      H        0.18430    0.15350    0.90170    1.000
    C158     C        0.19630    0.02850    0.91490    1.000
    H91      H        0.21370    0.01910    0.88120    1.000
    C159     C        0.16090    0.97730    0.00100    1.000
    H92      H        0.15550    0.93330    0.02660    1.000
    C160     C        0.18890    0.96460    0.95340    1.000
    C161     C        0.21020    0.88130    0.94130    1.000
    C162     C        0.14720    0.31160    0.95000    1.000
    C163     C        0.17780    0.37690    0.97790    1.000
    H93      H        0.18610    0.37810    0.02080    1.000
    C164     C        0.13380    0.31430    0.88690    1.000
    H94      H        0.11210    0.27200    0.86610    1.000
    C165     C        0.15190    0.37910    0.85330    1.000
    H95      H        0.14260    0.37920    0.81050    1.000
    C166     C        0.19710    0.44120    0.94540    1.000
    H96      H        0.21920    0.48260    0.96660    1.000
    C167     C        0.18400    0.44390    0.88370    1.000
    C168     C        0.20760    0.51320    0.84970    1.000
    O41      O        0.16580    0.28340    0.30940    1.000
    O42      O        0.25190    0.26210    0.29530    1.000
    O43      O        0.83484    0.28870    0.93470    1.000
    O44      O        0.83862    0.16380    0.89330    1.000
    O45      O        0.21700    0.86100    0.88790    1.000
    O46      O        0.22290    0.82970    0.98620    1.000
    O47      O        0.19980    0.50510    0.79050    1.000
    O48      O        0.23280    0.57080    0.87700    1.000
    Pr7      Pr       0.25877    0.78946    0.09563    1.000
    Si7      Si       0.37955    0.72619    0.50670    1.000
    C169     C        0.35720    0.74120    0.42220    1.000
    C170     C        0.39290    0.76610    0.38190    1.000
    H97      H        0.43000    0.77820    0.39830    1.000
    C171     C        0.30150    0.73030    0.39430    1.000
    H98      H        0.27540    0.71710    0.41910    1.000
    C172     C        0.28330    0.73840    0.33140    1.000
    H99      H        0.24600    0.72870    0.31440    1.000
    C173     C        0.37540    0.77340    0.31920    1.000
    H100     H        0.40080    0.78700    0.29380    1.000
    C174     C        0.32000    0.76020    0.29470    1.000
    C175     C        0.29940    0.76930    0.22570    1.000
    C176     C        0.45760    0.72430    0.52800    1.000
    C177     C        0.48710    0.65560    0.55000    1.000
    H101     H        0.46770    0.60650    0.55310    1.000
    C178     C        0.48810    0.79620    0.52500    1.000
    H102     H        0.46920    0.84500    0.51210    1.000
    C179     C        0.54520    0.65590    0.56800    1.000
    H103     H        0.56380    0.60800    0.58380    1.000
    C180     C        0.54630    0.79770    0.54060    1.000
    H104     H        0.56570    0.84650    0.53640    1.000
    C181     C        0.57510    0.72740    0.56220    1.000
    C182     C        0.63790    0.72570    0.57930    1.000
    C183     C        0.35100    0.62440    0.52610    1.000
    C184     C        0.36020    0.55650    0.48800    1.000
    H105     H        0.38000    0.56420    0.45600    1.000
    C185     C        0.32270    0.60970    0.57330    1.000
    H106     H        0.31570    0.65350    0.59830    1.000
    C186     C        0.30370    0.52850    0.58510    1.000
    H107     H        0.28630    0.51910    0.61880    1.000
    C187     C        0.33910    0.47730    0.49900    1.000
    H108     H        0.34450    0.43330    0.47340    1.000
    C188     C        0.31110    0.46460    0.54660    1.000
    C189     C        0.28980    0.38130    0.55870    1.000
    C190     C        0.35280    0.81160    0.55000    1.000
    C191     C        0.32220    0.87690    0.52210    1.000
    H109     H        0.31390    0.87810    0.47920    1.000
    C192     C        0.36620    0.81430    0.61310    1.000
    H110     H        0.38790    0.77200    0.63390    1.000
    C193     C        0.34810    0.87910    0.64670    1.000
    H111     H        0.35740    0.87920    0.68950    1.000
    C194     C        0.30290    0.94120    0.55460    1.000
    H112     H        0.28080    0.98260    0.53340    1.000
    C195     C        0.31600    0.94390    0.61630    1.000
    C196     C        0.29240    0.01320    0.65030    1.000
    O49      O        0.33420    0.78340    0.19060    1.000
    O50      O        0.24810    0.76210    0.20470    1.000
    O51      O        0.66516    0.78870    0.56530    1.000
    O52      O        0.66138    0.66380    0.60670    1.000
    O53      O        0.28300    0.36100    0.61210    1.000
    O54      O        0.27710    0.32970    0.51380    1.000
    O55      O        0.30020    0.00510    0.70950    1.000
    O56      O        0.26720    0.07080    0.62300    1.000
    Pr8      Pr       0.75877    0.28946    0.09563    1.000
    Si8      Si       0.87955    0.22619    0.50670    1.000
    C197     C        0.85720    0.24120    0.42220    1.000
    C198     C        0.89290    0.26610    0.38190    1.000
    H113     H        0.93000    0.27820    0.39830    1.000
    C199     C        0.80150    0.23030    0.39430    1.000
    H114     H        0.77540    0.21710    0.41910    1.000
    C200     C        0.78330    0.23840    0.33140    1.000
    H115     H        0.74600    0.22870    0.31440    1.000
    C201     C        0.87540    0.27340    0.31920    1.000
    H116     H        0.90080    0.28700    0.29380    1.000
    C202     C        0.82000    0.26020    0.29470    1.000
    C203     C        0.79940    0.26930    0.22570    1.000
    C204     C        0.95760    0.22430    0.52800    1.000
    C205     C        0.98710    0.15560    0.55000    1.000
    H117     H        0.96770    0.10650    0.55310    1.000
    C206     C        0.98810    0.29620    0.52500    1.000
    H118     H        0.96920    0.34500    0.51210    1.000
    C207     C        0.04520    0.15590    0.56800    1.000
    H119     H        0.06380    0.10800    0.58380    1.000
    C208     C        0.04630    0.29770    0.54060    1.000
    H120     H        0.06570    0.34650    0.53640    1.000
    C209     C        0.07510    0.22740    0.56220    1.000
    C210     C        0.13790    0.22570    0.57930    1.000
    C211     C        0.85100    0.12440    0.52610    1.000
    C212     C        0.86020    0.05650    0.48800    1.000
    H121     H        0.88000    0.06420    0.45600    1.000
    C213     C        0.82270    0.10970    0.57330    1.000
    H122     H        0.81570    0.15350    0.59830    1.000
    C214     C        0.80370    0.02850    0.58510    1.000
    H123     H        0.78630    0.01910    0.61880    1.000
    C215     C        0.83910    0.97730    0.49900    1.000
    H124     H        0.84450    0.93330    0.47340    1.000
    C216     C        0.81110    0.96460    0.54660    1.000
    C217     C        0.78980    0.88130    0.55870    1.000
    C218     C        0.85280    0.31160    0.55000    1.000
    C219     C        0.82220    0.37690    0.52210    1.000
    H125     H        0.81390    0.37810    0.47920    1.000
    C220     C        0.86620    0.31430    0.61310    1.000
    H126     H        0.88790    0.27200    0.63390    1.000
    C221     C        0.84810    0.37910    0.64670    1.000
    H127     H        0.85740    0.37920    0.68950    1.000
    C222     C        0.80290    0.44120    0.55460    1.000
    H128     H        0.78080    0.48260    0.53340    1.000
    C223     C        0.81600    0.44390    0.61630    1.000
    C224     C        0.79240    0.51320    0.65030    1.000
    O57      O        0.83420    0.28340    0.19060    1.000
    O58      O        0.74810    0.26210    0.20470    1.000
    O59      O        0.16516    0.28870    0.56530    1.000
    O60      O        0.16138    0.16380    0.60670    1.000
    O61      O        0.78300    0.86100    0.61210    1.000
    O62      O        0.77710    0.82970    0.51380    1.000
    O63      O        0.80020    0.50510    0.70950    1.000
    O64      O        0.76720    0.57080    0.62300    1.000
