# CIF file generated by openbabel 3.1.0, see https://openbabel.org
data_I
_chemical_name_common 'XEGKIF_clean'
_cell_length_a 14.392
_cell_length_b 16.669
_cell_length_c 19.637
_cell_angle_alpha 105.471
_cell_angle_beta 96.286
_cell_angle_gamma 95.1
_space_group_name_H-M_alt 'P 1'
_space_group_name_Hall 'P 1'
loop_
    _symmetry_equiv_pos_as_xyz
    x,y,z
loop_
    _atom_site_label
    _atom_site_type_symbol
    _atom_site_fract_x
    _atom_site_fract_y
    _atom_site_fract_z
    _atom_site_occupancy
    Gd1      Gd       0.87328    0.95328    0.94255    1.000
    Gd2      Gd       0.36170    0.45887    0.49040    1.000
    Gd3      Gd       0.12672    0.04672    0.05745    1.000
    Gd4      Gd       0.63830    0.54113    0.50960    1.000
    H1       H        0.92430    0.13080    0.81550    1.000
    H2       H        0.15650    0.24580    0.94930    1.000
    H3       H        0.24520    0.24460    0.59720    1.000
    H4       H        0.14800    0.46360    0.67480    1.000
    H5       H        0.78640    0.10280    0.07390    1.000
    H6       H        0.92560    0.08220    0.25620    1.000
    H7       H        0.65070    0.39160    0.37160    1.000
    H8       H        0.45400    0.19690    0.33810    1.000
    H9       H        0.70520    0.42940    0.67870    1.000
    H10      H        0.43330    0.35260    0.67910    1.000
    H11      H        0.70150    0.03640    0.75460    1.000
    H12      H        0.69370    0.19500    0.94570    1.000
    H13      H        0.71800    0.83960    0.79710    1.000
    H14      H        0.66050    0.71230    0.71940    1.000
    H15      H        0.70820    0.59230    0.74240    1.000
    H16      H        0.87990    0.74200    0.91160    1.000
    H17      H        0.89630    0.59520    0.88030    1.000
    H18      H        0.37190    0.66940    0.47610    1.000
    H19      H        0.28510    0.77430    0.46130    1.000
    H20      H        0.12500    0.75680    0.46210    1.000
    H21      H        0.14890    0.53500    0.50130    1.000
    H22      H        0.98840    0.69770    0.49010    1.000
    H23      H        0.07570    0.86920    0.18450    1.000
    H24      H        0.84350    0.75420    0.05070    1.000
    H25      H        0.75480    0.75540    0.40280    1.000
    H26      H        0.85200    0.53640    0.32520    1.000
    H27      H        0.21360    0.89720    0.92610    1.000
    H28      H        0.07440    0.91780    0.74380    1.000
    H29      H        0.34930    0.60840    0.62840    1.000
    H30      H        0.54600    0.80310    0.66190    1.000
    H31      H        0.29480    0.57060    0.32130    1.000
    H32      H        0.56670    0.64740    0.32090    1.000
    H33      H        0.29850    0.96360    0.24540    1.000
    H34      H        0.30630    0.80500    0.05430    1.000
    H35      H        0.28200    0.16040    0.20290    1.000
    H36      H        0.33950    0.28770    0.28060    1.000
    H37      H        0.29180    0.40770    0.25760    1.000
    H38      H        0.12010    0.25800    0.08840    1.000
    H39      H        0.10370    0.40480    0.11970    1.000
    H40      H        0.62810    0.33060    0.52390    1.000
    H41      H        0.71490    0.22570    0.53870    1.000
    H42      H        0.87500    0.24320    0.53790    1.000
    H43      H        0.85110    0.46500    0.49870    1.000
    H44      H        0.01160    0.30230    0.50990    1.000
    C1       C        0.01200    0.13000    0.94000    1.000
    C2       C        0.03700    0.18000    0.89000    1.000
    C3       C        0.98000    0.16700    0.82600    1.000
    C4       C        0.00600    0.20800    0.77700    1.000
    C5       C        0.09000    0.26200    0.78900    1.000
    C6       C        0.14500    0.27300    0.85500    1.000
    C7       C        0.11900    0.23500    0.90500    1.000
    C8       C        0.12600    0.29700    0.73200    1.000
    C9       C        0.17500    0.24800    0.68100    1.000
    C10      C        0.21300    0.27900    0.63000    1.000
    C11      C        0.20400    0.35900    0.62800    1.000
    C12      C        0.15500    0.40900    0.67700    1.000
    C13      C        0.11700    0.37800    0.72800    1.000
    C14      C        0.24900    0.39300    0.57400    1.000
    C15      C        0.95500    0.07200    0.12300    1.000
    C16      C        0.86900    0.09100    0.15900    1.000
    C17      C        0.79100    0.10900    0.12300    1.000
    C18      C        0.71700    0.13800    0.16200    1.000
    C19      C        0.71900    0.14900    0.23100    1.000
    C20      C        0.79800    0.12000    0.26600    1.000
    C21      C        0.87300    0.09600    0.23200    1.000
    C22      C        0.65500    0.19900    0.27600    1.000
    C23      C        0.68100    0.28100    0.30700    1.000
    C24      C        0.62900    0.33500    0.35200    1.000
    C25      C        0.54500    0.30000    0.36400    1.000
    C26      C        0.51300    0.21900    0.33200    1.000
    C27      C        0.56800    0.16900    0.28900    1.000
    C28      C        0.48700    0.35400    0.41300    1.000
    C29      C        0.53700    0.45200    0.62200    1.000
    C30      C        0.56400    0.40100    0.67200    1.000
    C31      C        0.65900    0.39700    0.69300    1.000
    C32      C        0.68400    0.34500    0.73400    1.000
    C33      C        0.61800    0.29200    0.75400    1.000
    C34      C        0.52500    0.29900    0.73200    1.000
    C35      C        0.49700    0.35100    0.69200    1.000
    C36      C        0.64600    0.22700    0.79000    1.000
    C37      C        0.66400    0.14800    0.75100    1.000
    C38      C        0.69200    0.08900    0.78300    1.000
    C39      C        0.70500    0.10500    0.85500    1.000
    C40      C        0.68600    0.18300    0.89600    1.000
    C41      C        0.65800    0.24000    0.86300    1.000
    C42      C        0.74500    0.04400    0.89000    1.000
    C43      C        0.74000    0.79200    0.80600    1.000
    C44      C        0.70400    0.71600    0.75900    1.000
    C45      C        0.73300    0.64500    0.77100    1.000
    C46      C        0.80100    0.65600    0.82900    1.000
    C47      C        0.83400    0.73600    0.87300    1.000
    C48      C        0.84500    0.58500    0.84500    1.000
    C49      C        0.30700    0.66200    0.47700    1.000
    C50      C        0.25600    0.72600    0.46900    1.000
    C51      C        0.16200    0.71600    0.47100    1.000
    C52      C        0.12300    0.64900    0.48500    1.000
    C53      C        0.17900    0.58300    0.49300    1.000
    C54      C        0.02000    0.65200    0.49100    1.000
    C55      C        0.98800    0.87000    0.06000    1.000
    C56      C        0.96300    0.82000    0.11000    1.000
    C57      C        0.02000    0.83300    0.17400    1.000
    C58      C        0.99400    0.79200    0.22300    1.000
    C59      C        0.91000    0.73800    0.21100    1.000
    C60      C        0.85500    0.72700    0.14500    1.000
    C61      C        0.88100    0.76500    0.09500    1.000
    C62      C        0.87400    0.70300    0.26800    1.000
    C63      C        0.82500    0.75200    0.31900    1.000
    C64      C        0.78700    0.72100    0.37000    1.000
    C65      C        0.79600    0.64100    0.37200    1.000
    C66      C        0.84500    0.59100    0.32300    1.000
    C67      C        0.88300    0.62200    0.27200    1.000
    C68      C        0.75100    0.60700    0.42600    1.000
    C69      C        0.04500    0.92800    0.87700    1.000
    C70      C        0.13100    0.90900    0.84100    1.000
    C71      C        0.20900    0.89100    0.87700    1.000
    C72      C        0.28300    0.86200    0.83800    1.000
    C73      C        0.28100    0.85100    0.76900    1.000
    C74      C        0.20200    0.88000    0.73400    1.000
    C75      C        0.12700    0.90400    0.76800    1.000
    C76      C        0.34500    0.80100    0.72400    1.000
    C77      C        0.31900    0.71900    0.69300    1.000
    C78      C        0.37100    0.66500    0.64800    1.000
    C79      C        0.45500    0.70000    0.63600    1.000
    C80      C        0.48700    0.78100    0.66800    1.000
    C81      C        0.43200    0.83100    0.71100    1.000
    C82      C        0.51300    0.64600    0.58700    1.000
    C83      C        0.46300    0.54800    0.37800    1.000
    C84      C        0.43600    0.59900    0.32800    1.000
    C85      C        0.34100    0.60300    0.30700    1.000
    C86      C        0.31600    0.65500    0.26600    1.000
    C87      C        0.38200    0.70800    0.24600    1.000
    C88      C        0.47500    0.70100    0.26800    1.000
    C89      C        0.50300    0.64900    0.30800    1.000
    C90      C        0.35400    0.77300    0.21000    1.000
    C91      C        0.33600    0.85200    0.24900    1.000
    C92      C        0.30800    0.91100    0.21700    1.000
    C93      C        0.29500    0.89500    0.14500    1.000
    C94      C        0.31400    0.81700    0.10400    1.000
    C95      C        0.34200    0.76000    0.13700    1.000
    C96      C        0.25500    0.95600    0.11000    1.000
    C97      C        0.26000    0.20800    0.19400    1.000
    C98      C        0.29600    0.28400    0.24100    1.000
    C99      C        0.26700    0.35500    0.22900    1.000
    C100     C        0.19900    0.34400    0.17100    1.000
    C101     C        0.16600    0.26400    0.12700    1.000
    C102     C        0.15500    0.41500    0.15500    1.000
    C103     C        0.69300    0.33800    0.52300    1.000
    C104     C        0.74400    0.27400    0.53100    1.000
    C105     C        0.83800    0.28400    0.52900    1.000
    C106     C        0.87700    0.35100    0.51500    1.000
    C107     C        0.82100    0.41700    0.50700    1.000
    C108     C        0.98000    0.34800    0.50900    1.000
    N1       N        0.94300    0.19000    0.70900    1.000
    N2       N        0.23200    0.33100    0.87500    1.000
    N3       N        0.18700    0.16100    0.67900    1.000
    N4       N        0.06400    0.43200    0.77600    1.000
    N5       N        0.63800    0.15900    0.12100    1.000
    N6       N        0.80600    0.12800    0.34300    1.000
    N7       N        0.77400    0.32300    0.29800    1.000
    N8       N        0.53300    0.07900    0.25700    1.000
    N9       N        0.78500    0.33900    0.75000    1.000
    N10      N        0.44800    0.24900    0.75300    1.000
    N11      N        0.65200    0.12300    0.67100    1.000
    N12      N        0.63600    0.32100    0.91100    1.000
    N13      N        0.80300    0.80300    0.86300    1.000
    N14      N        0.27000    0.58700    0.48800    1.000
    N15      N        0.05700    0.81000    0.29100    1.000
    N16      N        0.76800    0.66900    0.12500    1.000
    N17      N        0.81300    0.83900    0.32100    1.000
    N18      N        0.93600    0.56800    0.22400    1.000
    N19      N        0.36200    0.84100    0.87900    1.000
    N20      N        0.19400    0.87200    0.65700    1.000
    N21      N        0.22600    0.67700    0.70200    1.000
    N22      N        0.46700    0.92100    0.74300    1.000
    N23      N        0.21500    0.66100    0.25000    1.000
    N24      N        0.55200    0.75100    0.24700    1.000
    N25      N        0.34800    0.87700    0.32900    1.000
    N26      N        0.36400    0.67900    0.08900    1.000
    N27      N        0.19700    0.19700    0.13700    1.000
    N28      N        0.73000    0.41300    0.51200    1.000
    O1       O        0.93900    0.07800    0.91960    1.000
    O2       O        0.06800    0.14100    0.99740    1.000
    O3       O        0.28200    0.34200    0.52500    1.000
    O4       O        0.25700    0.47000    0.57940    1.000
    O5       O        0.86300    0.16000    0.70700    1.000
    O6       O        0.97500    0.20000    0.65600    1.000
    O7       O        0.29600    0.31600    0.91400    1.000
    O8       O        0.24100    0.39300    0.85400    1.000
    O9       O        0.19100    0.13900    0.73400    1.000
    O10      O        0.19000    0.11300    0.62100    1.000
    O11      O        0.03100    0.40900    0.82300    1.000
    O12      O        0.05700    0.50000    0.77000    1.000
    O13      O        0.94200    0.04000    0.05500    1.000
    O14      O        0.03400    0.09100    0.15800    1.000
    O15      O        0.52800    0.41900    0.45940    1.000
    O16      O        0.40100    0.33200    0.41010    1.000
    O17      O        0.65700    0.19400    0.07500    1.000
    O18      O        0.56000    0.14600    0.13500    1.000
    O19      O        0.88300    0.14300    0.37700    1.000
    O20      O        0.73500    0.11800    0.36900    1.000
    O21      O        0.79400    0.30600    0.23600    1.000
    O22      O        0.82500    0.36100    0.34600    1.000
    O23      O        0.57700    0.02900    0.23600    1.000
    O24      O        0.45200    0.06100    0.24800    1.000
    O25      O        0.60200    0.49700    0.61010    1.000
    O26      O        0.45100    0.44000    0.59400    1.000
    O27      O        0.75900    0.06200    0.95620    1.000
    O28      O        0.76700    0.97700    0.85020    1.000
    O29      O        0.83700    0.35400    0.70800    1.000
    O30      O        0.81200    0.32000    0.80400    1.000
    O31      O        0.46100    0.20400    0.78300    1.000
    O32      O        0.37300    0.27300    0.75300    1.000
    O33      O        0.64900    0.17600    0.64000    1.000
    O34      O        0.65500    0.04900    0.64100    1.000
    O35      O        0.63600    0.38200    0.89000    1.000
    O36      O        0.62000    0.32100    0.97000    1.000
    O37      O        0.81500    0.51200    0.81100    1.000
    O38      O        0.99000    0.59700    0.49800    1.000
    O39      O        0.06100    0.92200    0.08040    1.000
    O40      O        0.93200    0.85900    0.00260    1.000
    O41      O        0.71800    0.65800    0.47500    1.000
    O42      O        0.74300    0.53000    0.42060    1.000
    O43      O        0.13700    0.84000    0.29300    1.000
    O44      O        0.02500    0.80000    0.34400    1.000
    O45      O        0.70400    0.68400    0.08600    1.000
    O46      O        0.75900    0.60700    0.14600    1.000
    O47      O        0.80900    0.86100    0.26600    1.000
    O48      O        0.81000    0.88700    0.37900    1.000
    O49      O        0.96900    0.59100    0.17700    1.000
    O50      O        0.94300    0.50000    0.23000    1.000
    O51      O        0.05800    0.96000    0.94500    1.000
    O52      O        0.96600    0.90900    0.84200    1.000
    O53      O        0.47200    0.58100    0.54060    1.000
    O54      O        0.59900    0.66800    0.58990    1.000
    O55      O        0.34300    0.80600    0.92500    1.000
    O56      O        0.44000    0.85400    0.86500    1.000
    O57      O        0.11700    0.85700    0.62300    1.000
    O58      O        0.26500    0.88200    0.63100    1.000
    O59      O        0.20600    0.69400    0.76400    1.000
    O60      O        0.17500    0.63900    0.65400    1.000
    O61      O        0.42300    0.97100    0.76400    1.000
    O62      O        0.54800    0.93900    0.75200    1.000
    O63      O        0.39800    0.50300    0.38990    1.000
    O64      O        0.54900    0.56000    0.40600    1.000
    O65      O        0.24100    0.93800    0.04380    1.000
    O66      O        0.23300    0.02300    0.14980    1.000
    O67      O        0.16300    0.64600    0.29200    1.000
    O68      O        0.18800    0.68000    0.19600    1.000
    O69      O        0.53900    0.79600    0.21700    1.000
    O70      O        0.62700    0.72700    0.24700    1.000
    O71      O        0.35100    0.82400    0.36000    1.000
    O72      O        0.34500    0.95100    0.35900    1.000
    O73      O        0.36400    0.61800    0.11000    1.000
    O74      O        0.38000    0.67900    0.03000    1.000
    O75      O        0.18500    0.48800    0.18900    1.000
    O76      O        0.01000    0.40300    0.50200    1.000
