data_functionalizedCrystal
_audit_creation_method	'EQeq! by Chris Wilmer'
_symmetry_space_group_name_H-M	'P1'
_symmetry_Int_Tables_number	1
_symmetry_cell_setting	triclinic
loop_
_symmetry_equiv_pos_as_xyz
  x,y,z
_cell_length_a	15.0721
_cell_length_b	24.7694
_cell_length_c	15.1707
_cell_angle_alpha	90
_cell_angle_beta	110.541
_cell_angle_gamma	90
loop_
_atom_site_label
_atom_site_type_symbol
_atom_site_fract_x
_atom_site_fract_y
_atom_site_fract_z
_atom_site_charge
Mof_Ni	Ni	0.39621	0.52227	0.10812	1.061
Mof_C 	C 	0.2095	0.4959	0.1301	0.072
Mof_H 	H 	0.2483	0.4843	0.1894	-0.019
Mof_C 	C 	0.1107	0.4904	0.104	-0.135
Mof_H 	H 	0.0848	0.4778	0.1474	0.072
Mof_C 	C 	0.0527	0.5035	0.0144	0.055
Mof_C 	C 	0.0945	0.5225	0.956	-0.127
Mof_H 	H 	0.0571	0.5317	0.8948	0.071
Mof_C 	C 	0.1927	0.5289	0.9842	0.06
Mof_H 	H 	0.2196	0.5413	0.9414	0.008
Mof_C 	C 	0.3227	0.6363	0.0807	0.078
Mof_C 	C 	0.3223	0.6918	0.0819	-0.143
Mof_H 	H 	0.2652	0.7101	0.0562	0.074
Mof_C 	C 	0.404	0.7202	0.1198	0.066
Mof_C 	C 	0.4797	0.6917	0.1505	-0.142
Mof_H 	H 	0.5381	0.7091	0.1728	0.075
Mof_C 	C 	0.4768	0.6332	0.1515	0.079
Mof_H 	H 	0.5323	0.6141	0.1821	-0.002
Mof_C 	C 	0.5465	0.4983	0.044	0.205
Mof_C 	C 	0.4953	0.4796	0.2983	0.061
Mof_H 	H 	0.5172	0.4556	0.2634	-0.01
Mof_C 	C 	0.5207	0.4728	0.3942	-0.127
Mof_H 	H 	0.5616	0.4447	0.4226	0.071
Mof_C 	C 	0.489	0.5054	0.4499	0.054
Mof_C 	C 	0.4334	0.5487	0.4019	-0.144
Mof_H 	H 	0.4105	0.5735	0.4348	0.076
Mof_C 	C 	0.4123	0.555	0.307	0.096
Mof_H 	H 	0.3774	0.5852	0.2782	-0.017
Mof_N 	N 	0.438	0.5213	0.2547	-0.247
Mof_N 	N 	0.2485	0.5172	0.073	-0.244
Mof_N 	N 	0.3985	0.6066	0.1107	-0.242
Mof_O 	O 	0.6204	0.4827	0.0348	-0.368
Mof_O 	O 	0.5366	0.5126	0.1201	-0.367
Mof_Ni	Ni	0.60379	0.02227	0.89188	1.061
Mof_C 	C 	0.7905	0.9959	0.8699	0.072
Mof_H 	H 	0.7517	0.9843	0.8106	-0.019
Mof_C 	C 	0.8893	0.9904	0.896	-0.134
Mof_H 	H 	0.9152	0.9778	0.8526	0.072
Mof_C 	C 	0.9473	0.0035	0.9856	0.053
Mof_C 	C 	0.9055	0.0225	0.044	-0.125
Mof_H 	H 	0.9429	0.0317	0.1052	0.071
Mof_C 	C 	0.8073	0.0289	0.0158	0.06
Mof_H 	H 	0.7804	0.0413	0.0586	0.009
Mof_C 	C 	0.6773	0.1363	0.9193	0.078
Mof_C 	C 	0.6777	0.1918	0.9181	-0.143
Mof_H 	H 	0.7348	0.2101	0.9438	0.074
Mof_C 	C 	0.596	0.2202	0.8802	0.066
Mof_C 	C 	0.5203	0.1917	0.8495	-0.142
Mof_H 	H 	0.4619	0.2091	0.8272	0.075
Mof_C 	C 	0.5232	0.1332	0.8485	0.078
Mof_H 	H 	0.4677	0.1141	0.8179	-0.002
Mof_C 	C 	0.4535	0.9983	0.956	0.205
Mof_C 	C 	0.5047	0.9796	0.7017	0.062
Mof_H 	H 	0.4828	0.9556	0.7366	-0.01
Mof_C 	C 	0.4793	0.9728	0.6058	-0.127
Mof_H 	H 	0.4384	0.9447	0.5774	0.071
Mof_C 	C 	0.511	0.0054	0.5501	0.054
Mof_C 	C 	0.5666	0.0487	0.5981	-0.144
Mof_H 	H 	0.5895	0.0735	0.5652	0.076
Mof_C 	C 	0.5877	0.055	0.693	0.096
Mof_H 	H 	0.6226	0.0852	0.7218	-0.017
Mof_N 	N 	0.562	0.0213	0.7453	-0.247
Mof_N 	N 	0.7515	0.0172	0.927	-0.245
Mof_N 	N 	0.6015	0.1066	0.8893	-0.242
Mof_O 	O 	0.3796	0.9827	0.9652	-0.368
Mof_O 	O 	0.4634	0.0126	0.8799	-0.368
Mof_Ni	Ni	0.60379	0.47773	0.89188	1.061
Mof_C 	C 	0.7905	0.5041	0.8699	0.072
Mof_H 	H 	0.7517	0.5157	0.8106	-0.019
Mof_C 	C 	0.8893	0.5096	0.896	-0.135
Mof_H 	H 	0.9152	0.5222	0.8526	0.072
Mof_C 	C 	0.9473	0.4965	0.9856	0.055
Mof_C 	C 	0.9055	0.4775	0.044	-0.127
Mof_H 	H 	0.9429	0.4683	0.1052	0.071
Mof_C 	C 	0.8073	0.4711	0.0158	0.06
Mof_H 	H 	0.7804	0.4587	0.0586	0.008
Mof_C 	C 	0.6773	0.3637	0.9193	0.078
Mof_C 	C 	0.6777	0.3082	0.9181	-0.143
Mof_H 	H 	0.7348	0.2899	0.9438	0.074
Mof_C 	C 	0.596	0.2798	0.8802	0.066
Mof_C 	C 	0.5203	0.3083	0.8495	-0.142
Mof_H 	H 	0.4619	0.2909	0.8272	0.075
Mof_C 	C 	0.5232	0.3668	0.8485	0.079
Mof_H 	H 	0.4677	0.3859	0.8179	-0.002
Mof_C 	C 	0.4535	0.5017	0.956	0.205
Mof_C 	C 	0.5047	0.5204	0.7017	0.061
Mof_H 	H 	0.4828	0.5444	0.7366	-0.01
Mof_C 	C 	0.4793	0.5272	0.6058	-0.127
Mof_H 	H 	0.4384	0.5553	0.5774	0.071
Mof_C 	C 	0.511	0.4946	0.5501	0.054
Mof_C 	C 	0.5666	0.4513	0.5981	-0.144
Mof_H 	H 	0.5895	0.4265	0.5652	0.076
Mof_C 	C 	0.5877	0.445	0.693	0.096
Mof_H 	H 	0.6226	0.4148	0.7218	-0.017
Mof_N 	N 	0.562	0.4787	0.7453	-0.247
Mof_N 	N 	0.7515	0.4828	0.927	-0.244
Mof_N 	N 	0.6015	0.3934	0.8893	-0.242
Mof_O 	O 	0.3796	0.5173	0.9652	-0.368
Mof_O 	O 	0.4634	0.4874	0.8799	-0.367
Mof_Ni	Ni	0.39621	0.97773	0.10812	1.061
Mof_C 	C 	0.2095	0.0041	0.1301	0.072
Mof_H 	H 	0.2483	0.0157	0.1894	-0.019
Mof_C 	C 	0.1107	0.0096	0.104	-0.134
Mof_H 	H 	0.0848	0.0222	0.1474	0.072
Mof_C 	C 	0.0527	0.9965	0.0144	0.053
Mof_C 	C 	0.0945	0.9775	0.956	-0.125
Mof_H 	H 	0.0571	0.9683	0.8948	0.071
Mof_C 	C 	0.1927	0.9711	0.9842	0.06
Mof_H 	H 	0.2196	0.9587	0.9414	0.009
Mof_C 	C 	0.3227	0.8637	0.0807	0.078
Mof_C 	C 	0.3223	0.8082	0.0819	-0.143
Mof_H 	H 	0.2652	0.7899	0.0562	0.074
Mof_C 	C 	0.404	0.7798	0.1198	0.066
Mof_C 	C 	0.4797	0.8083	0.1505	-0.142
Mof_H 	H 	0.5381	0.7909	0.1728	0.075
Mof_C 	C 	0.4768	0.8668	0.1515	0.078
Mof_H 	H 	0.5323	0.8859	0.1821	-0.002
Mof_C 	C 	0.5465	0.0017	0.044	0.205
Mof_C 	C 	0.4953	0.0204	0.2983	0.062
Mof_H 	H 	0.5172	0.0444	0.2634	-0.01
Mof_C 	C 	0.5207	0.0272	0.3942	-0.127
Mof_H 	H 	0.5616	0.0553	0.4226	0.071
Mof_C 	C 	0.489	0.9946	0.4499	0.054
Mof_C 	C 	0.4334	0.9513	0.4019	-0.144
Mof_H 	H 	0.4105	0.9265	0.4348	0.076
Mof_C 	C 	0.4123	0.945	0.307	0.096
Mof_H 	H 	0.3774	0.9148	0.2782	-0.017
Mof_N 	N 	0.438	0.9787	0.2547	-0.247
Mof_N 	N 	0.2485	0.9828	0.073	-0.245
Mof_N 	N 	0.3985	0.8934	0.1107	-0.242
Mof_O 	O 	0.6204	0.0173	0.0348	-0.368
Mof_O 	O 	0.5366	0.9874	0.1201	-0.368
_end
