# CIF file generated by openbabel 3.1.0, see https://openbabel.org
data_I
_chemical_name_common 'image0'
_cell_length_a 9.2275
_cell_length_b 13.5056
_cell_length_c 14.6122
_cell_angle_alpha 90
_cell_angle_beta 90.328
_cell_angle_gamma 90
_space_group_name_H-M_alt 'P 1'
_space_group_name_Hall 'P 1'
loop_
    _symmetry_equiv_pos_as_xyz
    x,y,z
loop_
    _atom_site_label
    _atom_site_type_symbol
    _atom_site_fract_x
    _atom_site_fract_y
    _atom_site_fract_z
    _atom_site_occupancy
    Gd1      Gd       0.25108    0.00290    0.09275    1.000
    C1       C        0.00370    0.11070    0.32830    1.000
    C2       C        0.02880    0.20480    0.36490    1.000
    H1       H        0.09480    0.24870    0.33610    1.000
    C3       C        0.95590    0.23380    0.44430    1.000
    C4       C        0.86530    0.16670    0.48800    1.000
    H2       H        0.81640    0.18640    0.54200    1.000
    C5       C        0.84460    0.07130    0.45440    1.000
    C6       C        0.91210    0.04520    0.37240    1.000
    H3       H        0.89490    0.98170    0.34670    1.000
    C7       C        0.76020    0.99710    0.50970    1.000
    H4       H        0.83000    0.95720    0.54580    1.000
    H5       H        0.69940    0.03390    0.55380    1.000
    C8       C        0.66400    0.92740    0.45710    1.000
    C9       C        0.59020    0.95620    0.37870    1.000
    H6       H        0.60770    0.02010    0.35390    1.000
    C10      C        0.49160    0.89430    0.33580    1.000
    C11      C        0.46520    0.80010    0.37130    1.000
    H7       H        0.39460    0.75840    0.34370    1.000
    C12      C        0.54300    0.76770    0.44770    1.000
    C13      C        0.64250    0.83180    0.48890    1.000
    H8       H        0.69700    0.80930    0.54020    1.000
    C14      C        0.08310    0.07440    0.24490    1.000
    C15      C        0.97610    0.33570    0.48500    1.000
    C16      C        0.41210    0.93240    0.25220    1.000
    C17      C        0.52450    0.66450    0.48630    1.000
    O1       O        0.02680    0.00730    0.19680    1.000
    O2       O        0.20530    0.11190    0.22601    1.000
    O3       O        0.06600    0.39250    0.44940    1.000
    O4       O        0.89880    0.35810    0.55322    1.000
    O5       O        0.47020    0.00240    0.20628    1.000
    O6       O        0.29240    0.89530    0.23014    1.000
    O7       O        0.41710    0.61620    0.46150    1.000
    O8       O        0.61980    0.63450    0.54180    1.000
    Gd2      Gd       0.24892    0.50290    0.40725    1.000
    C18      C        0.49630    0.61070    0.17170    1.000
    C19      C        0.47120    0.70480    0.13510    1.000
    H9       H        0.40520    0.74870    0.16390    1.000
    C20      C        0.54410    0.73380    0.05570    1.000
    C21      C        0.63470    0.66670    0.01200    1.000
    H10      H        0.68360    0.68640    0.95800    1.000
    C22      C        0.65540    0.57130    0.04560    1.000
    C23      C        0.58790    0.54520    0.12760    1.000
    H11      H        0.60510    0.48170    0.15330    1.000
    C24      C        0.73980    0.49710    0.99030    1.000
    H12      H        0.67000    0.45720    0.95420    1.000
    H13      H        0.80060    0.53390    0.94620    1.000
    C25      C        0.83600    0.42740    0.04290    1.000
    C26      C        0.90980    0.45620    0.12130    1.000
    H14      H        0.89230    0.52010    0.14610    1.000
    C27      C        0.00840    0.39430    0.16420    1.000
    C28      C        0.03480    0.30010    0.12870    1.000
    H15      H        0.10540    0.25840    0.15630    1.000
    C29      C        0.95700    0.26770    0.05230    1.000
    C30      C        0.85750    0.33180    0.01110    1.000
    H16      H        0.80300    0.30930    0.95980    1.000
    C31      C        0.41690    0.57440    0.25510    1.000
    C32      C        0.52390    0.83570    0.01500    1.000
    C33      C        0.08790    0.43240    0.24780    1.000
    C34      C        0.97550    0.16450    0.01370    1.000
    O9       O        0.47320    0.50730    0.30320    1.000
    O10      O        0.29470    0.61190    0.27399    1.000
    O11      O        0.43400    0.89250    0.05060    1.000
    O12      O        0.60120    0.85810    0.94678    1.000
    O13      O        0.02980    0.50240    0.29372    1.000
    O14      O        0.20760    0.39530    0.26986    1.000
    O15      O        0.08290    0.11620    0.03850    1.000
    O16      O        0.88020    0.13450    0.95820    1.000
    Gd3      Gd       0.74892    0.99710    0.90725    1.000
    C35      C        0.99630    0.88930    0.67170    1.000
    C36      C        0.97120    0.79520    0.63510    1.000
    H17      H        0.90520    0.75130    0.66390    1.000
    C37      C        0.04410    0.76620    0.55570    1.000
    C38      C        0.13470    0.83330    0.51200    1.000
    H18      H        0.18360    0.81360    0.45800    1.000
    C39      C        0.15540    0.92870    0.54560    1.000
    C40      C        0.08790    0.95480    0.62760    1.000
    H19      H        0.10510    0.01830    0.65330    1.000
    C41      C        0.23980    0.00290    0.49030    1.000
    H20      H        0.17000    0.04280    0.45420    1.000
    H21      H        0.30060    0.96610    0.44620    1.000
    C42      C        0.33600    0.07260    0.54290    1.000
    C43      C        0.40980    0.04380    0.62130    1.000
    H22      H        0.39230    0.97990    0.64610    1.000
    C44      C        0.50840    0.10570    0.66420    1.000
    C45      C        0.53480    0.19990    0.62870    1.000
    H23      H        0.60540    0.24160    0.65630    1.000
    C46      C        0.45700    0.23230    0.55230    1.000
    C47      C        0.35750    0.16820    0.51110    1.000
    H24      H        0.30300    0.19070    0.45980    1.000
    C48      C        0.91690    0.92560    0.75510    1.000
    C49      C        0.02390    0.66430    0.51500    1.000
    C50      C        0.58790    0.06760    0.74780    1.000
    C51      C        0.47550    0.33550    0.51370    1.000
    O17      O        0.97320    0.99270    0.80320    1.000
    O18      O        0.79470    0.88810    0.77399    1.000
    O19      O        0.93400    0.60750    0.55060    1.000
    O20      O        0.10120    0.64190    0.44678    1.000
    O21      O        0.52980    0.99760    0.79372    1.000
    O22      O        0.70760    0.10470    0.76986    1.000
    O23      O        0.58290    0.38380    0.53850    1.000
    O24      O        0.38020    0.36550    0.45820    1.000
    Gd4      Gd       0.75108    0.49710    0.59275    1.000
    C52      C        0.50370    0.38930    0.82830    1.000
    C53      C        0.52880    0.29520    0.86490    1.000
    H25      H        0.59480    0.25130    0.83610    1.000
    C54      C        0.45590    0.26620    0.94430    1.000
    C55      C        0.36530    0.33330    0.98800    1.000
    H26      H        0.31640    0.31360    0.04200    1.000
    C56      C        0.34460    0.42870    0.95440    1.000
    C57      C        0.41210    0.45480    0.87240    1.000
    H27      H        0.39490    0.51830    0.84670    1.000
    C58      C        0.26020    0.50290    0.00970    1.000
    H28      H        0.33000    0.54280    0.04580    1.000
    H29      H        0.19940    0.46610    0.05380    1.000
    C59      C        0.16400    0.57260    0.95710    1.000
    C60      C        0.09020    0.54380    0.87870    1.000
    H30      H        0.10770    0.47990    0.85390    1.000
    C61      C        0.99160    0.60570    0.83580    1.000
    C62      C        0.96520    0.69990    0.87130    1.000
    H31      H        0.89460    0.74160    0.84370    1.000
    C63      C        0.04300    0.73230    0.94770    1.000
    C64      C        0.14250    0.66820    0.98890    1.000
    H32      H        0.19700    0.69070    0.04020    1.000
    C65      C        0.58310    0.42560    0.74490    1.000
    C66      C        0.47610    0.16430    0.98500    1.000
    C67      C        0.91210    0.56760    0.75220    1.000
    C68      C        0.02450    0.83550    0.98630    1.000
    O25      O        0.52680    0.49270    0.69680    1.000
    O26      O        0.70530    0.38810    0.72601    1.000
    O27      O        0.56600    0.10750    0.94940    1.000
    O28      O        0.39880    0.14190    0.05322    1.000
    O29      O        0.97020    0.49760    0.70628    1.000
    O30      O        0.79240    0.60470    0.73014    1.000
    O31      O        0.91710    0.88380    0.96150    1.000
    O32      O        0.11980    0.86550    0.04180    1.000
