# CIF file generated by openbabel 3.1.0, see https://openbabel.org
data_I
_chemical_name_common 'CDLGLU10_clean'
_cell_length_a 7.286
_cell_length_b 10.79
_cell_length_c 11.61
_cell_angle_alpha 90
_cell_angle_beta 90
_cell_angle_gamma 90
_space_group_name_H-M_alt 'P 1'
_space_group_name_Hall 'P 1'
loop_
    _symmetry_equiv_pos_as_xyz
    x,y,z
loop_
    _atom_site_label
    _atom_site_type_symbol
    _atom_site_fract_x
    _atom_site_fract_y
    _atom_site_fract_z
    _atom_site_occupancy
    Cd1      Cd       0.63910    0.81640    0.70910    1.000
    Cd2      Cd       0.13910    0.18360    0.79090    1.000
    Cd3      Cd       0.86090    0.31640    0.29090    1.000
    Cd4      Cd       0.36090    0.68360    0.20910    1.000
    H1       H        0.06550    0.20140    0.55870    1.000
    H2       H        0.93640    0.09930    0.60660    1.000
    H3       H        0.08980    0.97140    0.51540    1.000
    H4       H        0.38330    0.01170    0.43010    1.000
    H5       H        0.23640    0.13320    0.40620    1.000
    H6       H        0.38430    0.24930    0.55680    1.000
    H7       H        0.53070    0.12770    0.58130    1.000
    H8       H        0.56550    0.79860    0.94130    1.000
    H9       H        0.43640    0.90070    0.89340    1.000
    H10      H        0.58980    0.02860    0.98460    1.000
    H11      H        0.88330    0.98830    0.06990    1.000
    H12      H        0.73640    0.86680    0.09380    1.000
    H13      H        0.88430    0.75070    0.94320    1.000
    H14      H        0.03070    0.87230    0.91870    1.000
    H15      H        0.43450    0.70140    0.44130    1.000
    H16      H        0.56360    0.59930    0.39340    1.000
    H17      H        0.41020    0.47140    0.48460    1.000
    H18      H        0.11670    0.51170    0.56990    1.000
    H19      H        0.26360    0.63320    0.59380    1.000
    H20      H        0.11570    0.74930    0.44320    1.000
    H21      H        0.96930    0.62770    0.41870    1.000
    H22      H        0.93450    0.29860    0.05870    1.000
    H23      H        0.06360    0.40070    0.10660    1.000
    H24      H        0.91020    0.52860    0.01540    1.000
    H25      H        0.61670    0.48830    0.93010    1.000
    H26      H        0.76360    0.36680    0.90620    1.000
    H27      H        0.61570    0.25070    0.05680    1.000
    H28      H        0.46930    0.37230    0.08130    1.000
    C1       C        0.18050    0.03260    0.55670    1.000
    C2       C        0.28530    0.96310    0.64980    1.000
    C3       C        0.31300    0.08570    0.46890    1.000
    C4       C        0.45460    0.17510    0.51840    1.000
    C5       C        0.58740    0.22750    0.43080    1.000
    C6       C        0.68050    0.96740    0.94330    1.000
    C7       C        0.78530    0.03690    0.85020    1.000
    C8       C        0.81300    0.91430    0.03110    1.000
    C9       C        0.95460    0.82490    0.98160    1.000
    C10      C        0.08740    0.77250    0.06920    1.000
    C11      C        0.31950    0.53260    0.44330    1.000
    C12      C        0.21470    0.46310    0.35020    1.000
    C13      C        0.18700    0.58570    0.53110    1.000
    C14      C        0.04540    0.67510    0.48160    1.000
    C15      C        0.91260    0.72750    0.56920    1.000
    C16      C        0.81950    0.46740    0.05670    1.000
    C17      C        0.71470    0.53690    0.14980    1.000
    C18      C        0.68700    0.41430    0.96890    1.000
    C19      C        0.54540    0.32490    0.01840    1.000
    C20      C        0.41260    0.27250    0.93080    1.000
    N1       N        0.05880    0.12960    0.60600    1.000
    N2       N        0.55880    0.87040    0.89400    1.000
    N3       N        0.44120    0.62960    0.39400    1.000
    N4       N        0.94120    0.37040    0.10600    1.000
    O1       O        0.27870    0.99810    0.75310    1.000
    O2       O        0.38260    0.87290    0.61450    1.000
    O3       O        0.72430    0.28800    0.46920    1.000
    O4       O        0.56510    0.21300    0.32480    1.000
    O5       O        0.77870    0.00190    0.74690    1.000
    O6       O        0.88260    0.12710    0.88550    1.000
    O7       O        0.22430    0.71200    0.03080    1.000
    O8       O        0.06510    0.78700    0.17520    1.000
    O9       O        0.22130    0.49810    0.24690    1.000
    O10      O        0.11740    0.37290    0.38550    1.000
    O11      O        0.77570    0.78800    0.53080    1.000
    O12      O        0.93490    0.71300    0.67520    1.000
    O13      O        0.72130    0.50190    0.25310    1.000
    O14      O        0.61740    0.62710    0.11450    1.000
    O15      O        0.27570    0.21200    0.96920    1.000
    O16      O        0.43490    0.28700    0.82480    1.000
