data_functionalizedCrystal
_audit_creation_method	'EQeq! by Chris Wilmer'
_symmetry_space_group_name_H-M	'P1'
_symmetry_Int_Tables_number	1
_symmetry_cell_setting	triclinic
loop_
_symmetry_equiv_pos_as_xyz
  x,y,z
_cell_length_a	7.6026
_cell_length_b	9.7798
_cell_length_c	14.6423
_cell_angle_alpha	90
_cell_angle_beta	98.075
_cell_angle_gamma	90
loop_
_atom_site_label
_atom_site_type_symbol
_atom_site_fract_x
_atom_site_fract_y
_atom_site_fract_z
_atom_site_charge
Mof_Yb	Yb	0.84802	0.95438	0.63835	1.727
Mof_Yb	Yb	0.65198	0.45438	0.86165	1.75
Mof_Yb	Yb	0.15198	0.04562	0.36165	1.727
Mof_Yb	Yb	0.34802	0.54562	0.13835	1.75
Mof_H 	H 	0.8287	0.385	0.6373	-0.029
Mof_H 	H 	0.6142	0.6982	0.4849	0
Mof_H 	H 	0.801	0.3884	0.3613	-0.017
Mof_H 	H 	0.6713	0.885	0.8627	-0.018
Mof_H 	H 	0.8858	0.1982	0.0151	0.007
Mof_H 	H 	0.699	0.8884	0.1387	-0.013
Mof_H 	H 	0.1713	0.615	0.3627	-0.028
Mof_H 	H 	0.3858	0.3018	0.5151	0.001
Mof_H 	H 	0.199	0.6116	0.6387	-0.016
Mof_H 	H 	0.3287	0.115	0.1373	-0.017
Mof_H 	H 	0.1142	0.8018	0.9849	0.007
Mof_H 	H 	0.301	0.1116	0.8613	-0.013
Mof_C 	C 	0.6935	0.6381	0.6588	0.491
Mof_C 	C 	0.7217	0.5576	0.5756	-0.24
Mof_C 	C 	0.5435	0.9681	0.4602	0.26
Mof_C 	C 	0.7982	0.428	0.5807	0.17
Mof_C 	C 	0.6689	0.6129	0.4883	0.14
Mof_C 	C 	0.9132	0.2249	0.5009	0.536
Mof_C 	C 	0.8282	0.3637	0.4991	-0.237
Mof_C 	C 	0.7762	0.4298	0.4152	0.137
Mof_C 	C 	0.8065	0.1381	0.8412	0.482
Mof_C 	C 	0.7783	0.0576	0.9244	-0.209
Mof_C 	C 	0.9565	0.4681	0.0398	0.261
Mof_C 	C 	0.7018	0.928	0.9193	0.133
Mof_C 	C 	0.8311	0.1129	0.0117	0.123
Mof_C 	C 	0.5868	0.7249	0.9991	0.525
Mof_C 	C 	0.6718	0.8637	0.0009	-0.214
Mof_C 	C 	0.7238	0.9298	0.0848	0.125
Mof_C 	C 	0.3065	0.3619	0.3412	0.491
Mof_C 	C 	0.2783	0.4424	0.4244	-0.24
Mof_C 	C 	0.4565	0.0319	0.5398	0.26
Mof_C 	C 	0.2018	0.572	0.4193	0.17
Mof_C 	C 	0.3311	0.3871	0.5117	0.14
Mof_C 	C 	0.0868	0.7751	0.4991	0.536
Mof_C 	C 	0.1718	0.6363	0.5009	-0.237
Mof_C 	C 	0.2238	0.5702	0.5848	0.137
Mof_C 	C 	0.1935	0.8619	0.1588	0.482
Mof_C 	C 	0.2217	0.9424	0.0756	-0.209
Mof_C 	C 	0.0435	0.5319	0.9602	0.261
Mof_C 	C 	0.2982	0.072	0.0807	0.133
Mof_C 	C 	0.1689	0.8871	0.9883	0.123
Mof_C 	C 	0.4132	0.2751	0.0009	0.525
Mof_C 	C 	0.3282	0.1363	0.9991	-0.214
Mof_C 	C 	0.2762	0.0702	0.9152	0.125
Mof_N 	N 	0.6914	0.5516	0.409	-0.168
Mof_N 	N 	0.8086	0.0516	0.091	-0.161
Mof_N 	N 	0.3086	0.4484	0.591	-0.168
Mof_N 	N 	0.1914	0.9484	0.909	-0.161
Mof_O 	O 	0.669	0.7664	0.64779	-0.482
Mof_O 	O 	0.7039	0.9351	0.4791	-0.372
Mof_O 	O 	0.6959	0.5787	0.7345	-0.51
Mof_O 	O 	0.9041	0.152	0.5707	-0.517
Mof_O 	O 	0.9856	0.1907	0.4325	-0.527
Mof_O 	O 	0.447	0.9556	0.384	-0.372
Mof_O 	O 	0.831	0.2664	0.85221	-0.48
Mof_O 	O 	0.7961	0.4351	0.0209	-0.373
Mof_O 	O 	0.8041	0.0787	0.7655	-0.5
Mof_O 	O 	0.5959	0.652	0.9293	-0.522
Mof_O 	O 	0.5144	0.6907	0.0675	-0.53
Mof_O 	O 	0.053	0.4556	0.116	-0.378
Mof_O 	O 	0.331	0.2336	0.35221	-0.482
Mof_O 	O 	0.2961	0.0649	0.5209	-0.372
Mof_O 	O 	0.3041	0.4213	0.2655	-0.51
Mof_O 	O 	0.0959	0.848	0.4293	-0.517
Mof_O 	O 	0.0144	0.8093	0.5675	-0.527
Mof_O 	O 	0.553	0.0444	0.616	-0.372
Mof_O 	O 	0.169	0.7336	0.14779	-0.48
Mof_O 	O 	0.2039	0.5649	0.9791	-0.373
Mof_O 	O 	0.1959	0.9213	0.2345	-0.5
Mof_O 	O 	0.4041	0.348	0.0707	-0.522
Mof_O 	O 	0.4856	0.3093	0.9325	-0.53
Mof_O 	O 	0.947	0.5444	0.884	-0.378
_end
