# CIF file generated by openbabel 3.1.0, see https://openbabel.org
data_I
_chemical_name_common 'image0'
_cell_length_a 11.196
_cell_length_b 13.02
_cell_length_c 16.52
_cell_angle_alpha 84.072
_cell_angle_beta 85.182
_cell_angle_gamma 79.138
_space_group_name_H-M_alt 'P 1'
_space_group_name_Hall 'P 1'
loop_
    _symmetry_equiv_pos_as_xyz
    x,y,z
loop_
    _atom_site_label
    _atom_site_type_symbol
    _atom_site_fract_x
    _atom_site_fract_y
    _atom_site_fract_z
    _atom_site_occupancy
    Co1      Co       0.25004    0.07919    0.48157    1.000
    Co2      Co       0.34665    0.14208    0.67449    1.000
    N1       N        0.48740    0.19854    0.72628    1.000
    N2       N        0.64700    0.27556    0.72842    1.000
    N3       N        0.20840    0.76120    0.51440    1.000
    N4       N        0.26540    0.91590    0.48702    1.000
    N5       N        0.20160    0.22800    0.74123    1.000
    N6       N        0.04100    0.26489    0.82718    1.000
    N7       N        0.35810    0.15572    0.23344    1.000
    N8       N        0.27190    0.11210    0.35374    1.000
    O1       O        0.46080    0.59328    0.22875    1.000
    O2       O        0.32430    0.50257    0.19559    1.000
    O3       O        0.35091    0.26890    0.58360    1.000
    O4       O        0.21878    0.24168    0.49551    1.000
    O5       O        0.06174    0.09562    0.46904    1.000
    O6       O        0.99410    0.10108    0.60043    1.000
    O7       O        0.43749    0.07628    0.47777    1.000
    O8       O        0.48670    0.05248    0.60785    1.000
    C1       C        0.39170    0.52690    0.24458    1.000
    C2       C        0.39210    0.47270    0.32869    1.000
    C3       C        0.46430    0.48070    0.38970    1.000
    H1       H        0.52200    0.52410    0.38480    1.000
    C4       C        0.44140    0.41570    0.46080    1.000
    H2       H        0.48510    0.40920    0.50710    1.000
    C5       C        0.34860    0.36340    0.45462    1.000
    C6       C        0.30240    0.28500    0.51604    1.000
    C7       C        0.97880    0.10200    0.52544    1.000
    C8       C        0.85170    0.10680    0.50239    1.000
    C9       C        0.80810    0.12270    0.42670    1.000
    H3       H        0.85490    0.13690    0.37900    1.000
    C10      C        0.68230    0.11510    0.42885    1.000
    H4       H        0.63780    0.12500    0.38270    1.000
    C11      C        0.63450    0.09190    0.50561    1.000
    C12      C        0.50940    0.07230    0.53248    1.000
    C13      C        0.56920    0.13870    0.77923    1.000
    H5       H        0.55760    0.07640    0.80910    1.000
    C14      C        0.53840    0.27930    0.69754    1.000
    H6       H        0.50350    0.33270    0.66030    1.000
    C15      C        0.66820    0.18420    0.78094    1.000
    H7       H        0.73610    0.15950    0.81090    1.000
    C16      C        0.73230    0.34420    0.70371    1.000
    C17      C        0.84750    0.30090    0.67106    1.000
    H8       H        0.86950    0.22870    0.66870    1.000
    C18      C        0.92930    0.36650    0.64205    1.000
    H9       H        0.00570    0.33800    0.61950    1.000
    C19      C        0.89750    0.47550    0.64653    1.000
    C20      C        0.78300    0.51600    0.68240    1.000
    H10      H        0.76170    0.58770    0.68740    1.000
    C21      C        0.70040    0.45100    0.71085    1.000
    H11      H        0.62440    0.47900    0.73440    1.000
    C22      C        0.98290    0.54710    0.61304    1.000
    C23      C        0.05710    0.52780    0.54160    1.000
    H12      H        0.05640    0.46770    0.51580    1.000
    C24      C        0.13180    0.59780    0.50910    1.000
    H13      H        0.17920    0.58540    0.46090    1.000
    C25      C        0.13570    0.68640    0.54835    1.000
    C26      C        0.06670    0.70400    0.62078    1.000
    H14      H        0.07190    0.76130    0.64870    1.000
    C27      C        0.99030    0.63560    0.65102    1.000
    H15      H        0.94180    0.64930    0.69860    1.000
    C28      C        0.31080    0.74740    0.45970    1.000
    H16      H        0.34880    0.68520    0.43840    1.000
    C29      C        0.34370    0.84270    0.44390    1.000
    H17      H        0.40950    0.85680    0.40910    1.000
    C30      C        0.18610    0.86320    0.52855    1.000
    H18      H        0.12250    0.89320    0.56340    1.000
    C31      C        0.11110    0.19120    0.78361    1.000
    H19      H        0.09740    0.12300    0.78340    1.000
    C32      C        0.18940    0.33050    0.75922    1.000
    H20      H        0.24120    0.37640    0.73840    1.000
    C33      C        0.09080    0.35460    0.81170    1.000
    H21      H        0.06240    0.41880    0.83310    1.000
    C34      C        0.93580    0.25050    0.88015    1.000
    C35      C        0.92510    0.15080    0.91531    1.000
    H22      H        0.98510    0.09330    0.90390    1.000
    C36      C        0.82480    0.13760    0.96736    1.000
    H23      H        0.81700    0.07030    0.98930    1.000
    C37      C        0.73500    0.22240    0.98803    1.000
    C38      C        0.74750    0.32090    0.95129    1.000
    H24      H        0.68770    0.37850    0.96260    1.000
    C39      C        0.84650    0.33570    0.89824    1.000
    H25      H        0.85300    0.40260    0.87480    1.000
    C40      C        0.63290    0.20540    0.04886    1.000
    C41      C        0.60110    0.10610    0.06678    1.000
    H26      H        0.64070    0.05050    0.03770    1.000
    C42      C        0.51130    0.08940    0.12716    1.000
    H27      H        0.49130    0.02300    0.13820    1.000
    C43      C        0.45130    0.17080    0.17105    1.000
    C44      C        0.47560    0.27050    0.15150    1.000
    H28      H        0.43150    0.32650    0.17820    1.000
    C45      C        0.56730    0.28680    0.09130    1.000
    H29      H        0.58490    0.35400    0.07940    1.000
    C46      C        0.23450    0.19820    0.23150    1.000
    H30      H        0.19510    0.23840    0.18840    1.000
    C47      C        0.18320    0.16870    0.30585    1.000
    H31      H        0.10070    0.18450    0.32180    1.000
    C48      C        0.37490    0.10580    0.30804    1.000
    H32      H        0.45000    0.07090    0.32530    1.000
    S1       S        0.29178    0.38818    0.35962    1.000
    S2       S        0.74060    0.08256    0.57708    1.000
    Co3      Co       0.35783    0.63629    0.93492    1.000
    Co4      Co       0.44500    0.71735    0.13598    1.000
    N9       N        0.37640    0.63543    0.80701    1.000
    N10      N        0.44890    0.65904    0.68006    1.000
    N11      N        0.12320    0.81907    0.28583    1.000
    N12      N        0.28950    0.79284    0.20322    1.000
    N13      N        0.57200    0.78160    0.19150    1.000
    N14      N        0.71920    0.86832    0.20638    1.000
    N15      N        0.29810    0.32490    0.97436    1.000
    N16      N        0.37270    0.47111    0.95011    1.000
    O9       O        0.54333    0.63048    0.93445    1.000
    O10      O        0.58924    0.63827    0.06425    1.000
    O11      O        0.09370    0.66830    0.05514    1.000
    O12      O        0.17010    0.64750    0.92692    1.000
    O13      O        0.32619    0.64566    0.06739    1.000
    H33      H        0.32800    0.57450    0.09210    1.000
    H34      H        0.24370    0.68340    0.07710    1.000
    C49      C        0.45400    0.67960    0.75796    1.000
    H35      H        0.50600    0.72000    0.77470    1.000
    C50      C        0.31630    0.58430    0.75764    1.000
    H36      H        0.25540    0.54610    0.77580    1.000
    C51      C        0.36020    0.59870    0.67902    1.000
    H37      H        0.33550    0.57310    0.63380    1.000
    C52      C        0.53100    0.68770    0.61336    1.000
    C53      C        0.58030    0.61750    0.55803    1.000
    H38      H        0.55200    0.55470    0.55850    1.000
    C54      C        0.67290    0.64020    0.50094    1.000
    H39      H        0.70540    0.59240    0.46320    1.000
    C55      C        0.71760    0.73370    0.49957    1.000
    C56      C        0.66010    0.80560    0.55320    1.000
    H40      H        0.68500    0.87010    0.55160    1.000
    C57      C        0.56620    0.78390    0.60920    1.000
    H41      H        0.52760    0.83410    0.64350    1.000
    C58      C        0.82400    0.75480    0.44370    1.000
    C59      C        0.87520    0.68860    0.38490    1.000
    H42      H        0.84400    0.62800    0.38130    1.000
    C60      C        0.97170    0.70920    0.33100    1.000
    H43      H        0.00240    0.66460    0.29070    1.000
    C61      C        0.02150    0.79750    0.33823    1.000
    C62      C        0.97230    0.86540    0.39672    1.000
    H44      H        0.00450    0.92520    0.40160    1.000
    C63      C        0.87410    0.84250    0.44770    1.000
    H45      H        0.84070    0.88860    0.48640    1.000
    C64      C        0.20090    0.75060    0.24208    1.000
    H46      H        0.19270    0.68130    0.23960    1.000
    C65      C        0.26800    0.89580    0.22351    1.000
    H47      H        0.31620    0.94550    0.20540    1.000
    C66      C        0.16630    0.91220    0.27350    1.000
    H48      H        0.13160    0.97470    0.29560    1.000
    C67      C        0.61510    0.63130    0.99021    1.000
    C68      C        0.74680    0.62420    0.96275    1.000
    C69      C        0.96580    0.63270    0.96034    1.000
    C70      C        0.08560    0.65090    0.98243    1.000
    C71      C        0.92930    0.62350    0.88491    1.000
    H49      H        0.98150    0.62050    0.83800    1.000
    C72      C        0.80340    0.61890    0.88558    1.000
    H50      H        0.76400    0.61300    0.83940    1.000
    C73      C        0.57200    0.80070    0.27207    1.000
    H51      H        0.51880    0.77910    0.31390    1.000
    C74      C        0.66170    0.82400    0.15349    1.000
    H52      H        0.68290    0.82360    0.09790    1.000
    C75      C        0.66090    0.85530    0.28147    1.000
    H53      H        0.67850    0.87920    0.32950    1.000
    C76      C        0.81640    0.92550    0.18236    1.000
    C77      C        0.90870    0.88690    0.12580    1.000
    H54      H        0.91290    0.82060    0.10820    1.000
    C78      C        0.99450    0.94810    0.09588    1.000
    H55      H        0.05550    0.92310    0.05730    1.000
    C79      C        0.99000    0.04710    0.12315    1.000
    C80      C        0.90090    0.08130    0.18500    1.000
    H56      H        0.89990    0.14490    0.20630    1.000
    C81      C        0.81540    0.02050    0.21408    1.000
    H57      H        0.75700    0.04320    0.25500    1.000
    C82      C        0.07190    0.11760    0.08481    1.000
    C83      C        0.18810    0.08010    0.05170    1.000
    H58      H        0.21640    0.00800    0.05480    1.000
    C84      C        0.26310    0.14640    0.01426    1.000
    H59      H        0.34050    0.11940    0.99240    1.000
    C85      C        0.22070    0.25420    0.00980    1.000
    C86      C        0.10300    0.29540    0.03869    1.000
    H60      H        0.07340    0.36730    0.03240    1.000
    C87      C        0.03000    0.22630    0.07741    1.000
    H61      H        0.95210    0.25310    0.09870    1.000
    C88      C        0.39170    0.30840    0.91443    1.000
    H62      H        0.41870    0.24720    0.88870    1.000
    C89      C        0.43630    0.39800    0.90042    1.000
    H63      H        0.50030    0.40890    0.86290    1.000
    C90      C        0.29080    0.42490    0.99458    1.000
    H64      H        0.23580    0.45620    0.03410    1.000
    S3       S        0.84728    0.63530    0.03324    1.000
