# CIF file generated by openbabel 3.1.0, see https://openbabel.org
data_I
_chemical_name_common 'image0'
_cell_length_a 15.319
_cell_length_b 15.456
_cell_length_c 16.237
_cell_angle_alpha 90
_cell_angle_beta 90
_cell_angle_gamma 90
_space_group_name_H-M_alt 'P 1'
_space_group_name_Hall 'P 1'
loop_
    _symmetry_equiv_pos_as_xyz
    x,y,z
loop_
    _atom_site_label
    _atom_site_type_symbol
    _atom_site_fract_x
    _atom_site_fract_y
    _atom_site_fract_z
    _atom_site_occupancy
    Ag1      Ag       0.41560    0.89813    0.11812    1.000
    C1       C        0.19420    0.82930    0.08370    1.000
    H1       H        0.18770    0.81900    0.14230    1.000
    H2       H        0.18740    0.89080    0.07370    1.000
    C2       C        0.12610    0.77900    0.03630    1.000
    C3       C        0.12480    0.77600    0.94820    1.000
    H3       H        0.16590    0.80830    0.91930    1.000
    C4       C        0.06550    0.72750    0.90440    1.000
    C5       C        0.00660    0.68770    0.95390    1.000
    H4       H        0.96260    0.65570    0.92880    1.000
    C6       C        0.06710    0.73420    0.07980    1.000
    H5       H        0.06950    0.73420    0.13700    1.000
    C7       C        0.06590    0.71400    0.80850    1.000
    H6       H        0.11340    0.74720    0.78470    1.000
    H7       H        0.01170    0.73600    0.78580    1.000
    C8       C        0.18530    0.57340    0.81000    1.000
    H8       H        0.20240    0.51880    0.78520    1.000
    H9       H        0.22430    0.61780    0.78930    1.000
    C9       C        0.19650    0.56650    0.90540    1.000
    C10      C        0.25030    0.62080    0.94840    1.000
    H10      H        0.28500    0.66000    0.91980    1.000
    C11      C        0.25430    0.61850    0.03820    1.000
    C12      C        0.20340    0.56270    0.08100    1.000
    H11      H        0.20460    0.56310    0.13830    1.000
    C13      C        0.14870    0.50990    0.95350    1.000
    H12      H        0.11220    0.47100    0.92670    1.000
    C14      C        0.30660    0.68020    0.08640    1.000
    H13      H        0.36740    0.66280    0.08400    1.000
    H14      H        0.28830    0.67740    0.14350    1.000
    N1       N        0.00720    0.69110    0.04210    1.000
    N2       N        0.15140    0.50680    0.04120    1.000
    S1       S        0.29760    0.79460    0.05030    1.000
    S2       S        0.07860    0.59800    0.77897    1.000
    Ag2      Ag       0.91560    0.39813    0.61812    1.000
    C15      C        0.69420    0.32930    0.58370    1.000
    H15      H        0.68770    0.31900    0.64230    1.000
    H16      H        0.68740    0.39080    0.57370    1.000
    C16      C        0.62610    0.27900    0.53630    1.000
    C17      C        0.62480    0.27600    0.44820    1.000
    H17      H        0.66590    0.30830    0.41930    1.000
    C18      C        0.56550    0.22750    0.40440    1.000
    C19      C        0.50660    0.18770    0.45390    1.000
    H18      H        0.46260    0.15570    0.42880    1.000
    C20      C        0.56710    0.23420    0.57980    1.000
    H19      H        0.56950    0.23420    0.63700    1.000
    C21      C        0.56590    0.21400    0.30850    1.000
    H20      H        0.61340    0.24720    0.28470    1.000
    H21      H        0.51170    0.23600    0.28580    1.000
    C22      C        0.68530    0.07340    0.31000    1.000
    H22      H        0.70240    0.01880    0.28520    1.000
    H23      H        0.72430    0.11780    0.28930    1.000
    C23      C        0.69650    0.06650    0.40540    1.000
    C24      C        0.75030    0.12080    0.44840    1.000
    H24      H        0.78500    0.16000    0.41980    1.000
    C25      C        0.75430    0.11850    0.53820    1.000
    C26      C        0.70340    0.06270    0.58100    1.000
    H25      H        0.70460    0.06310    0.63830    1.000
    C27      C        0.64870    0.00990    0.45350    1.000
    H26      H        0.61220    0.97100    0.42670    1.000
    C28      C        0.80660    0.18020    0.58640    1.000
    H27      H        0.86740    0.16280    0.58400    1.000
    H28      H        0.78830    0.17740    0.64350    1.000
    N3       N        0.50720    0.19110    0.54210    1.000
    N4       N        0.65140    0.00680    0.54120    1.000
    S3       S        0.79760    0.29460    0.55030    1.000
    S4       S        0.57860    0.09800    0.27897    1.000
    Ag3      Ag       0.58440    0.10187    0.11812    1.000
    C29      C        0.80580    0.17070    0.08370    1.000
    H29      H        0.81230    0.18100    0.14230    1.000
    H30      H        0.81260    0.10920    0.07370    1.000
    C30      C        0.87390    0.22100    0.03630    1.000
    C31      C        0.87520    0.22400    0.94820    1.000
    H31      H        0.83410    0.19170    0.91930    1.000
    C32      C        0.93450    0.27250    0.90440    1.000
    C33      C        0.99340    0.31230    0.95390    1.000
    H32      H        0.03740    0.34430    0.92880    1.000
    C34      C        0.93290    0.26580    0.07980    1.000
    H33      H        0.93050    0.26580    0.13700    1.000
    C35      C        0.93410    0.28600    0.80850    1.000
    H34      H        0.88660    0.25280    0.78470    1.000
    H35      H        0.98830    0.26400    0.78580    1.000
    C36      C        0.81470    0.42660    0.81000    1.000
    H36      H        0.79760    0.48120    0.78520    1.000
    H37      H        0.77570    0.38220    0.78930    1.000
    C37      C        0.80350    0.43350    0.90540    1.000
    C38      C        0.74970    0.37920    0.94840    1.000
    H38      H        0.71500    0.34000    0.91980    1.000
    C39      C        0.74570    0.38150    0.03820    1.000
    C40      C        0.79660    0.43730    0.08100    1.000
    H39      H        0.79540    0.43690    0.13830    1.000
    C41      C        0.85130    0.49010    0.95350    1.000
    H40      H        0.88780    0.52900    0.92670    1.000
    C42      C        0.69340    0.31980    0.08640    1.000
    H41      H        0.63260    0.33720    0.08400    1.000
    H42      H        0.71170    0.32260    0.14350    1.000
    N5       N        0.99280    0.30890    0.04210    1.000
    N6       N        0.84860    0.49320    0.04120    1.000
    S5       S        0.70240    0.20540    0.05030    1.000
    S6       S        0.92140    0.40200    0.77897    1.000
    Ag4      Ag       0.08440    0.60187    0.61812    1.000
    C43      C        0.30580    0.67070    0.58370    1.000
    H43      H        0.31230    0.68100    0.64230    1.000
    H44      H        0.31260    0.60920    0.57370    1.000
    C44      C        0.37390    0.72100    0.53630    1.000
    C45      C        0.37520    0.72400    0.44820    1.000
    H45      H        0.33410    0.69170    0.41930    1.000
    C46      C        0.43450    0.77250    0.40440    1.000
    C47      C        0.49340    0.81230    0.45390    1.000
    H46      H        0.53740    0.84430    0.42880    1.000
    C48      C        0.43290    0.76580    0.57980    1.000
    H47      H        0.43050    0.76580    0.63700    1.000
    C49      C        0.43410    0.78600    0.30850    1.000
    H48      H        0.38660    0.75280    0.28470    1.000
    H49      H        0.48830    0.76400    0.28580    1.000
    C50      C        0.31470    0.92660    0.31000    1.000
    H50      H        0.29760    0.98120    0.28520    1.000
    H51      H        0.27570    0.88220    0.28930    1.000
    C51      C        0.30350    0.93350    0.40540    1.000
    C52      C        0.24970    0.87920    0.44840    1.000
    H52      H        0.21500    0.84000    0.41980    1.000
    C53      C        0.24570    0.88150    0.53820    1.000
    C54      C        0.29660    0.93730    0.58100    1.000
    H53      H        0.29540    0.93690    0.63830    1.000
    C55      C        0.35130    0.99010    0.45350    1.000
    H54      H        0.38780    0.02900    0.42670    1.000
    C56      C        0.19340    0.81980    0.58640    1.000
    H55      H        0.13260    0.83720    0.58400    1.000
    H56      H        0.21170    0.82260    0.64350    1.000
    N7       N        0.49280    0.80890    0.54210    1.000
    N8       N        0.34860    0.99320    0.54120    1.000
    S7       S        0.20240    0.70540    0.55030    1.000
    S8       S        0.42140    0.90200    0.27897    1.000
    Ag5      Ag       0.91560    0.60187    0.11812    1.000
    C57      C        0.69420    0.67070    0.08370    1.000
    H57      H        0.68770    0.68100    0.14230    1.000
    H58      H        0.68740    0.60920    0.07370    1.000
    C58      C        0.62610    0.72100    0.03630    1.000
    C59      C        0.62480    0.72400    0.94820    1.000
    H59      H        0.66590    0.69170    0.91930    1.000
    C60      C        0.56550    0.77250    0.90440    1.000
    C61      C        0.50660    0.81230    0.95390    1.000
    H60      H        0.46260    0.84430    0.92880    1.000
    C62      C        0.56710    0.76580    0.07980    1.000
    H61      H        0.56950    0.76580    0.13700    1.000
    C63      C        0.56590    0.78600    0.80850    1.000
    H62      H        0.61340    0.75280    0.78470    1.000
    H63      H        0.51170    0.76400    0.78580    1.000
    C64      C        0.68530    0.92660    0.81000    1.000
    H64      H        0.70240    0.98120    0.78520    1.000
    H65      H        0.72430    0.88220    0.78930    1.000
    C65      C        0.69650    0.93350    0.90540    1.000
    C66      C        0.75030    0.87920    0.94840    1.000
    H66      H        0.78500    0.84000    0.91980    1.000
    C67      C        0.75430    0.88150    0.03820    1.000
    C68      C        0.70340    0.93730    0.08100    1.000
    H67      H        0.70460    0.93690    0.13830    1.000
    C69      C        0.64870    0.99010    0.95350    1.000
    H68      H        0.61220    0.02900    0.92670    1.000
    C70      C        0.80660    0.81980    0.08640    1.000
    H69      H        0.86740    0.83720    0.08400    1.000
    H70      H        0.78830    0.82260    0.14350    1.000
    N9       N        0.50720    0.80890    0.04210    1.000
    N10      N        0.65140    0.99320    0.04120    1.000
    S9       S        0.79760    0.70540    0.05030    1.000
    S10      S        0.57860    0.90200    0.77897    1.000
    Ag6      Ag       0.41560    0.10187    0.61812    1.000
    C71      C        0.19420    0.17070    0.58370    1.000
    H71      H        0.18770    0.18100    0.64230    1.000
    H72      H        0.18740    0.10920    0.57370    1.000
    C72      C        0.12610    0.22100    0.53630    1.000
    C73      C        0.12480    0.22400    0.44820    1.000
    H73      H        0.16590    0.19170    0.41930    1.000
    C74      C        0.06550    0.27250    0.40440    1.000
    C75      C        0.00660    0.31230    0.45390    1.000
    H74      H        0.96260    0.34430    0.42880    1.000
    C76      C        0.06710    0.26580    0.57980    1.000
    H75      H        0.06950    0.26580    0.63700    1.000
    C77      C        0.06590    0.28600    0.30850    1.000
    H76      H        0.11340    0.25280    0.28470    1.000
    H77      H        0.01170    0.26400    0.28580    1.000
    C78      C        0.18530    0.42660    0.31000    1.000
    H78      H        0.20240    0.48120    0.28520    1.000
    H79      H        0.22430    0.38220    0.28930    1.000
    C79      C        0.19650    0.43350    0.40540    1.000
    C80      C        0.25030    0.37920    0.44840    1.000
    H80      H        0.28500    0.34000    0.41980    1.000
    C81      C        0.25430    0.38150    0.53820    1.000
    C82      C        0.20340    0.43730    0.58100    1.000
    H81      H        0.20460    0.43690    0.63830    1.000
    C83      C        0.14870    0.49010    0.45350    1.000
    H82      H        0.11220    0.52900    0.42670    1.000
    C84      C        0.30660    0.31980    0.58640    1.000
    H83      H        0.36740    0.33720    0.58400    1.000
    H84      H        0.28830    0.32260    0.64350    1.000
    N11      N        0.00720    0.30890    0.54210    1.000
    N12      N        0.15140    0.49320    0.54120    1.000
    S11      S        0.29760    0.20540    0.55030    1.000
    S12      S        0.07860    0.40200    0.27897    1.000
    Ag7      Ag       0.08440    0.39813    0.11812    1.000
    C85      C        0.30580    0.32930    0.08370    1.000
    H85      H        0.31230    0.31900    0.14230    1.000
    H86      H        0.31260    0.39080    0.07370    1.000
    C86      C        0.37390    0.27900    0.03630    1.000
    C87      C        0.37520    0.27600    0.94820    1.000
    H87      H        0.33410    0.30830    0.91930    1.000
    C88      C        0.43450    0.22750    0.90440    1.000
    C89      C        0.49340    0.18770    0.95390    1.000
    H88      H        0.53740    0.15570    0.92880    1.000
    C90      C        0.43290    0.23420    0.07980    1.000
    H89      H        0.43050    0.23420    0.13700    1.000
    C91      C        0.43410    0.21400    0.80850    1.000
    H90      H        0.38660    0.24720    0.78470    1.000
    H91      H        0.48830    0.23600    0.78580    1.000
    C92      C        0.31470    0.07340    0.81000    1.000
    H92      H        0.29760    0.01880    0.78520    1.000
    H93      H        0.27570    0.11780    0.78930    1.000
    C93      C        0.30350    0.06650    0.90540    1.000
    C94      C        0.24970    0.12080    0.94840    1.000
    H94      H        0.21500    0.16000    0.91980    1.000
    C95      C        0.24570    0.11850    0.03820    1.000
    C96      C        0.29660    0.06270    0.08100    1.000
    H95      H        0.29540    0.06310    0.13830    1.000
    C97      C        0.35130    0.00990    0.95350    1.000
    H96      H        0.38780    0.97100    0.92670    1.000
    C98      C        0.19340    0.18020    0.08640    1.000
    H97      H        0.13260    0.16280    0.08400    1.000
    H98      H        0.21170    0.17740    0.14350    1.000
    N13      N        0.49280    0.19110    0.04210    1.000
    N14      N        0.34860    0.00680    0.04120    1.000
    S13      S        0.20240    0.29460    0.05030    1.000
    S14      S        0.42140    0.09800    0.77897    1.000
    Ag8      Ag       0.58440    0.89813    0.61812    1.000
    C99      C        0.80580    0.82930    0.58370    1.000
    H99      H        0.81230    0.81900    0.64230    1.000
    H100     H        0.81260    0.89080    0.57370    1.000
    C100     C        0.87390    0.77900    0.53630    1.000
    C101     C        0.87520    0.77600    0.44820    1.000
    H101     H        0.83410    0.80830    0.41930    1.000
    C102     C        0.93450    0.72750    0.40440    1.000
    C103     C        0.99340    0.68770    0.45390    1.000
    H102     H        0.03740    0.65570    0.42880    1.000
    C104     C        0.93290    0.73420    0.57980    1.000
    H103     H        0.93050    0.73420    0.63700    1.000
    C105     C        0.93410    0.71400    0.30850    1.000
    H104     H        0.88660    0.74720    0.28470    1.000
    H105     H        0.98830    0.73600    0.28580    1.000
    C106     C        0.81470    0.57340    0.31000    1.000
    H106     H        0.79760    0.51880    0.28520    1.000
    H107     H        0.77570    0.61780    0.28930    1.000
    C107     C        0.80350    0.56650    0.40540    1.000
    C108     C        0.74970    0.62080    0.44840    1.000
    H108     H        0.71500    0.66000    0.41980    1.000
    C109     C        0.74570    0.61850    0.53820    1.000
    C110     C        0.79660    0.56270    0.58100    1.000
    H109     H        0.79540    0.56310    0.63830    1.000
    C111     C        0.85130    0.50990    0.45350    1.000
    H110     H        0.88780    0.47100    0.42670    1.000
    C112     C        0.69340    0.68020    0.58640    1.000
    H111     H        0.63260    0.66280    0.58400    1.000
    H112     H        0.71170    0.67740    0.64350    1.000
    N15      N        0.99280    0.69110    0.54210    1.000
    N16      N        0.84860    0.50680    0.54120    1.000
    S15      S        0.70240    0.79460    0.55030    1.000
    S16      S        0.92140    0.59800    0.27897    1.000
