# CIF file generated by openbabel 3.1.0, see https://openbabel.org
data_I
_chemical_name_common 'image0'
_cell_length_a 4.5054
_cell_length_b 10.3354
_cell_length_c 10.8017
_cell_angle_alpha 77.933
_cell_angle_beta 79.23
_cell_angle_gamma 83.148
_space_group_name_H-M_alt 'P 1'
_space_group_name_Hall 'P 1'
loop_
    _symmetry_equiv_pos_as_xyz
    x,y,z
loop_
    _atom_site_label
    _atom_site_type_symbol
    _atom_site_fract_x
    _atom_site_fract_y
    _atom_site_fract_z
    _atom_site_occupancy
    Gd1      Gd       0.17178    0.11326    0.57849    1.000
    O1       O        0.78490    0.25200    0.68000    1.000
    O2       O        0.36760    0.14300    0.75830    1.000
    O3       O        0.05180    0.04940    0.24820    1.000
    O4       O        0.71280    0.08990    0.49930    1.000
    O5       O        0.24900    0.17750    0.34980    1.000
    N1       N        0.92500    0.46820    0.04900    1.000
    C1       C        0.57330    0.20890    0.76920    1.000
    C2       C        0.57100    0.24140    0.89990    1.000
    C3       C        0.75250    0.33660    0.90780    1.000
    H1       H        0.87540    0.37780    0.83460    1.000
    C4       C        0.75090    0.37080    0.02640    1.000
    C5       C        0.57460    0.30390    0.13500    1.000
    H2       H        0.57540    0.32520    0.21440    1.000
    C6       C        0.39770    0.20610    0.12700    1.000
    C7       C        0.39160    0.17500    0.00940    1.000
    H3       H        0.27010    0.11080    0.00290    1.000
    C8       C        0.21900    0.13690    0.25070    1.000
    Gd2      Gd       0.82822    0.88674    0.42151    1.000
    O6       O        0.21510    0.74800    0.32000    1.000
    O7       O        0.63240    0.85700    0.24170    1.000
    O8       O        0.94820    0.95060    0.75180    1.000
    O9       O        0.28720    0.91010    0.50070    1.000
    O10      O        0.75100    0.82250    0.65020    1.000
    N2       N        0.07500    0.53180    0.95100    1.000
    C9       C        0.42670    0.79110    0.23080    1.000
    C10      C        0.42900    0.75860    0.10010    1.000
    C11      C        0.24750    0.66340    0.09220    1.000
    H4       H        0.12460    0.62220    0.16540    1.000
    C12      C        0.24910    0.62920    0.97360    1.000
    C13      C        0.42540    0.69610    0.86500    1.000
    H5       H        0.42460    0.67480    0.78560    1.000
    C14      C        0.60230    0.79390    0.87300    1.000
    C15      C        0.60840    0.82500    0.99060    1.000
    H6       H        0.72990    0.88920    0.99710    1.000
    C16      C        0.78100    0.86310    0.74930    1.000
