data_functionalizedCrystal
_audit_creation_method	'EQeq! by Chris Wilmer'
_symmetry_space_group_name_H-M	'P1'
_symmetry_Int_Tables_number	1
_symmetry_cell_setting	triclinic
loop_
_symmetry_equiv_pos_as_xyz
  x,y,z
_cell_length_a	9.2164
_cell_length_b	10.2248
_cell_length_c	12.6094
_cell_angle_alpha	98.098
_cell_angle_beta	106.227
_cell_angle_gamma	106.147
loop_
_atom_site_label
_atom_site_type_symbol
_atom_site_fract_x
_atom_site_fract_y
_atom_site_fract_z
_atom_site_charge
Mof_Al	Al	0.51309	0.19975	0.21989	6.935
Mof_Al	Al	0.21272	0.90005	0.48137	7.376
Mof_Al	Al	0.50107	0.70758	0.22639	6.927
Mof_Al	Al	0.78207	0.5973	0.51514	7.62
Mof_O 	O 	0.4799	0.1905	0.07516	-1.85
Mof_O 	O 	0.3352	0.3335	0.98154	-0.624
Mof_H 	H 	0.341	0.401	0.951	0.214
Mof_O 	O 	0.6309	0.4459	0.10015	-0.613
Mof_O 	O 	0.2766	0.9533	0.36684	-1.933
Mof_O 	O 	0.4334	0.8217	0.29889	-2.127
Mof_O 	O 	0.5779	0.0623	0.42891	-2.063
Mof_O 	O 	0.7244	0.5753	0.63765	-2.012
Mof_O 	O 	0.4069	0.0345	0.23094	-1.994
Mof_O 	O 	0.5463	0.2759	0.91358	-1.874
Mof_O 	O 	0.1619	0.7243	0.49898	-2.12
Mof_O 	O 	0.7077	0.7491	0.28435	-2.04
Mof_O 	O 	0.8285	0.7729	0.49465	-2.124
Mof_O 	O 	0.2831	0.7572	0.71128	-2.074
Mof_O 	O 	0.9937	0.647	0.62148	-1.657
Mof_O 	O 	0.0001	0.8499	0.37374	-1.615
Mof_O 	O 	0.5681	0.683	0.72679	-2.098
Mof_O 	O 	0.1746	0.5194	0.58165	-2.083
Mof_O 	O 	0.8279	0.9849	0.41858	-2.024
Mof_O 	O 	0.4262	0.4544	0.57799	-2.172
Mof_O 	O 	0.6047	0.4606	0.76782	-2.01
Mof_P 	P 	0.50413	0.31559	0.01993	1.051
Mof_P 	P 	0.1523	0.66154	0.60088	1.686
Mof_P 	P 	0.57582	0.54145	0.67439	1.876
Mof_P 	P 	0.42842	0.96869	0.33447	1.764
Mof_P 	P 	0.84208	0.83939	0.39487	1.659
Mof_Al	Al	0.48691	0.80025	0.78011	6.934
Mof_Al	Al	0.78728	0.09995	0.51863	7.375
Mof_Al	Al	0.49893	0.29242	0.77361	6.927
Mof_Al	Al	0.21793	0.4027	0.48486	7.62
Mof_O 	O 	0.5201	0.8095	0.92484	-1.85
Mof_O 	O 	0.6648	0.6665	0.01846	-0.624
Mof_H 	H 	0.659	0.599	0.049	0.214
Mof_O 	O 	0.3691	0.5541	0.89985	-0.613
Mof_O 	O 	0.7234	0.0467	0.63316	-1.933
Mof_O 	O 	0.5666	0.1783	0.70111	-2.127
Mof_O 	O 	0.4221	0.9377	0.57109	-2.063
Mof_O 	O 	0.2756	0.4247	0.36235	-2.012
Mof_O 	O 	0.5931	0.9655	0.76906	-1.994
Mof_O 	O 	0.4537	0.7241	0.08642	-1.874
Mof_O 	O 	0.8381	0.2757	0.50102	-2.12
Mof_O 	O 	0.2923	0.2509	0.71565	-2.04
Mof_O 	O 	0.1715	0.2271	0.50535	-2.124
Mof_O 	O 	0.7169	0.2428	0.28872	-2.074
Mof_O 	O 	0.0063	0.353	0.37852	-1.657
Mof_O 	O 	0.9999	0.1501	0.62626	-1.615
Mof_O 	O 	0.4319	0.317	0.27321	-2.098
Mof_O 	O 	0.8254	0.4806	0.41835	-2.083
Mof_O 	O 	0.1721	0.0151	0.58142	-2.024
Mof_O 	O 	0.5738	0.5456	0.42201	-2.172
Mof_O 	O 	0.3953	0.5394	0.23218	-2.01
Mof_P 	P 	0.49587	0.68441	0.98007	1.051
Mof_P 	P 	0.8477	0.33846	0.39912	1.686
Mof_P 	P 	0.42418	0.45855	0.32561	1.876
Mof_P 	P 	0.57158	0.03131	0.66553	1.764
Mof_P 	P 	0.15792	0.16061	0.60513	1.659
_end
