# CIF file generated by openbabel 3.1.0, see https://openbabel.org
data_I
_chemical_name_common 'DIBPIP_clean'
_cell_length_a 10.7585
_cell_length_b 15.0997
_cell_length_c 18.1366
_cell_angle_alpha 68.3853
_cell_angle_beta 72.7467
_cell_angle_gamma 69.13
_space_group_name_H-M_alt 'P 1'
_space_group_name_Hall 'P 1'
loop_
    _symmetry_equiv_pos_as_xyz
    x,y,z
loop_
    _atom_site_label
    _atom_site_type_symbol
    _atom_site_fract_x
    _atom_site_fract_y
    _atom_site_fract_z
    _atom_site_occupancy
    Ni1      Ni       0.50000    0.00000    0.50000    1.000
    Ni2      Ni       0.00000    0.50000    0.00000    1.000
    Ni3      Ni       0.00000    0.00000    0.50000    1.000
    Ni4      Ni       0.50000    0.50000    0.00000    1.000
    H1       H        0.62450    0.47710    0.33510    1.000
    H2       H        0.83710    0.83110    0.36390    1.000
    H3       H        0.16290    0.99110    0.21810    1.000
    H4       H        0.17130    0.84970    0.19570    1.000
    H5       H        0.25860    0.92800    0.38920    1.000
    H6       H        0.39790    0.78870    0.35570    1.000
    H7       H        0.15970    0.63450    0.52670    1.000
    H8       H        0.02280    0.77860    0.55380    1.000
    H9       H        0.36300    0.32950    0.55050    1.000
    H10      H        0.38560    0.16510    0.57770    1.000
    H11      H        0.62720    0.15890    0.37150    1.000
    H12      H        0.61850    0.32260    0.34040    1.000
    H13      H        0.43670    0.02290    0.16490    1.000
    H14      H        0.03210    0.66890    0.13610    1.000
    H15      H        0.37210    0.50890    0.28190    1.000
    H16      H        0.21670    0.65030    0.30430    1.000
    H17      H        0.57580    0.57200    0.11080    1.000
    H18      H        0.54230    0.71130    0.14430    1.000
    H19      H        0.32090    0.86550    0.97330    1.000
    H20      H        0.35520    0.72140    0.94620    1.000
    H21      H        0.24300    0.17050    0.94950    1.000
    H22      H        0.12840    0.33490    0.92230    1.000
    H23      H        0.15760    0.34110    0.12850    1.000
    H24      H        0.28150    0.17740    0.15960    1.000
    H25      H        0.37550    0.52290    0.66490    1.000
    H26      H        0.16290    0.16890    0.63610    1.000
    H27      H        0.83710    0.00890    0.78190    1.000
    H28      H        0.82870    0.15030    0.80430    1.000
    H29      H        0.74140    0.07200    0.61080    1.000
    H30      H        0.60210    0.21130    0.64430    1.000
    H31      H        0.84030    0.36550    0.47330    1.000
    H32      H        0.97720    0.22140    0.44620    1.000
    H33      H        0.63700    0.67050    0.44950    1.000
    H34      H        0.61440    0.83490    0.42230    1.000
    H35      H        0.37280    0.84110    0.62850    1.000
    H36      H        0.38150    0.67740    0.65960    1.000
    H37      H        0.56330    0.97710    0.83510    1.000
    H38      H        0.96790    0.33110    0.86390    1.000
    H39      H        0.62790    0.49110    0.71810    1.000
    H40      H        0.78330    0.34970    0.69570    1.000
    H41      H        0.42420    0.42800    0.88920    1.000
    H42      H        0.45770    0.28870    0.85570    1.000
    H43      H        0.67910    0.13450    0.02670    1.000
    H44      H        0.64480    0.27860    0.05380    1.000
    H45      H        0.75700    0.82950    0.05050    1.000
    H46      H        0.87160    0.66510    0.07770    1.000
    H47      H        0.84240    0.65890    0.87150    1.000
    H48      H        0.71850    0.82260    0.84040    1.000
    C1       C        0.00410    0.82680    0.27560    1.000
    C2       C        0.90600    0.86160    0.33640    1.000
    C3       C        0.90878    0.94074    0.35670    1.000
    C4       C        0.79933    0.96854    0.42580    1.000
    C5       C        0.00290    0.99180    0.31120    1.000
    C6       C        0.01040    0.08340    0.32280    1.000
    C7       C        0.09930    0.95680    0.24960    1.000
    C8       C        0.10210    0.87400    0.23440    1.000
    C9       C        0.23750    0.86820    0.41700    1.000
    C10      C        0.32229    0.78452    0.39690    1.000
    C11      C        0.29575    0.69520    0.43730    1.000
    C12      C        0.18140    0.69410    0.49730    1.000
    C13      C        0.09990    0.78080    0.51360    1.000
    C14      C        0.38494    0.60262    0.42010    1.000
    C15      C        0.46778    0.45294    0.42110    1.000
    C16      C        0.48508    0.34654    0.44070    1.000
    C17      C        0.41742    0.29636    0.51280    1.000
    C18      C        0.43069    0.19782    0.52840    1.000
    C19      C        0.57315    0.19390    0.40800    1.000
    C20      C        0.56743    0.29284    0.38830    1.000
    C21      C        0.10650    0.67320    0.22440    1.000
    C22      C        0.10400    0.63840    0.16360    1.000
    C23      C        0.20622    0.55926    0.14330    1.000
    C24      C        0.19367    0.53146    0.07420    1.000
    C25      C        0.30590    0.50820    0.18880    1.000
    C26      C        0.41660    0.41660    0.17720    1.000
    C27      C        0.30570    0.54320    0.25040    1.000
    C28      C        0.21050    0.62600    0.26560    1.000
    C29      C        0.52270    0.63180    0.08300    1.000
    C30      C        0.50371    0.71548    0.10310    1.000
    C31      C        0.42825    0.80480    0.06270    1.000
    C32      C        0.37280    0.80590    0.00270    1.000
    C33      C        0.39430    0.71920    0.98640    1.000
    C34      C        0.40766    0.89738    0.07990    1.000
    C35      C        0.34182    0.04706    0.07890    1.000
    C36      C        0.27232    0.15346    0.05930    1.000
    C37      C        0.22658    0.20364    0.98720    1.000
    C38      C        0.15691    0.30218    0.97160    1.000
    C39      C        0.17505    0.30610    0.09200    1.000
    C40      C        0.24857    0.20716    0.11170    1.000
    C41      C        0.99590    0.17320    0.72440    1.000
    C42      C        0.09400    0.13840    0.66360    1.000
    C43      C        0.09122    0.05926    0.64330    1.000
    C44      C        0.20067    0.03146    0.57420    1.000
    C45      C        0.99710    0.00820    0.68880    1.000
    C46      C        0.98960    0.91660    0.67720    1.000
    C47      C        0.90070    0.04320    0.75040    1.000
    C48      C        0.89790    0.12600    0.76560    1.000
    C49      C        0.76250    0.13180    0.58300    1.000
    C50      C        0.67771    0.21548    0.60310    1.000
    C51      C        0.70425    0.30480    0.56270    1.000
    C52      C        0.81860    0.30590    0.50270    1.000
    C53      C        0.90010    0.21920    0.48640    1.000
    C54      C        0.61506    0.39738    0.57990    1.000
    C55      C        0.53222    0.54706    0.57890    1.000
    C56      C        0.51492    0.65346    0.55930    1.000
    C57      C        0.58258    0.70364    0.48720    1.000
    C58      C        0.56931    0.80218    0.47160    1.000
    C59      C        0.42685    0.80610    0.59200    1.000
    C60      C        0.43257    0.70716    0.61170    1.000
    C61      C        0.89350    0.32680    0.77560    1.000
    C62      C        0.89600    0.36160    0.83640    1.000
    C63      C        0.79378    0.44074    0.85670    1.000
    C64      C        0.80633    0.46854    0.92580    1.000
    C65      C        0.69410    0.49180    0.81120    1.000
    C66      C        0.58340    0.58340    0.82280    1.000
    C67      C        0.69430    0.45680    0.74960    1.000
    C68      C        0.78950    0.37400    0.73440    1.000
    C69      C        0.47730    0.36820    0.91700    1.000
    C70      C        0.49629    0.28452    0.89690    1.000
    C71      C        0.57175    0.19520    0.93730    1.000
    C72      C        0.62720    0.19410    0.99730    1.000
    C73      C        0.60570    0.28080    0.01360    1.000
    C74      C        0.59234    0.10262    0.92010    1.000
    C75      C        0.65818    0.95294    0.92110    1.000
    C76      C        0.72768    0.84654    0.94070    1.000
    C77      C        0.77342    0.79636    0.01280    1.000
    C78      C        0.84309    0.69782    0.02840    1.000
    C79      C        0.82495    0.69390    0.90800    1.000
    C80      C        0.75143    0.79284    0.88830    1.000
    C81      C        0.98640    0.75000    0.25000    1.000
    C82      C        0.01360    0.25000    0.75000    1.000
    N1       N        0.12617    0.86796    0.47450    1.000
    N2       N        0.36216    0.51278    0.45710    1.000
    N3       N        0.49766    0.59798    0.36430    1.000
    N4       N        0.55114    0.50172    0.36500    1.000
    N5       N        0.50543    0.14604    0.47650    1.000
    N6       N        0.46863    0.63204    0.02550    1.000
    N7       N        0.33204    0.98722    0.04290    1.000
    N8       N        0.45994    0.90202    0.13570    1.000
    N9       N        0.41786    0.99828    0.13500    1.000
    N10      N        0.12797    0.35396    0.02350    1.000
    N11      N        0.87383    0.13204    0.52550    1.000
    N12      N        0.63784    0.48722    0.54290    1.000
    N13      N        0.50234    0.40202    0.63570    1.000
    N14      N        0.44886    0.49828    0.63500    1.000
    N15      N        0.49457    0.85396    0.52350    1.000
    N16      N        0.53137    0.36796    0.97450    1.000
    N17      N        0.66796    0.01278    0.95710    1.000
    N18      N        0.54006    0.09798    0.86430    1.000
    N19      N        0.58214    0.00172    0.86500    1.000
    N20      N        0.87203    0.64604    0.97650    1.000
    O1       O        0.68260    0.97110    0.42370    1.000
    O2       O        0.82839    0.98522    0.48040    1.000
    O3       O        0.04259    0.08062    0.38360    1.000
    O4       O        0.99500    0.15900    0.26400    1.000
    O5       O        0.07740    0.52890    0.07630    1.000
    O6       O        0.29401    0.51478    0.01960    1.000
    O7       O        0.50681    0.41938    0.11640    1.000
    O8       O        0.41800    0.34100    0.23600    1.000
    O9       O        0.31740    0.02890    0.57630    1.000
    O10      O        0.17161    0.01478    0.51960    1.000
    O11      O        0.95741    0.91938    0.61640    1.000
    O12      O        0.00500    0.84100    0.73600    1.000
    O13      O        0.92260    0.47110    0.92370    1.000
    O14      O        0.70599    0.48522    0.98040    1.000
    O15      O        0.49319    0.58062    0.88360    1.000
    O16      O        0.58200    0.65900    0.76400    1.000
    O17      O        0.87090    0.75000    0.25000    1.000
    O18      O        0.12910    0.25000    0.75000    1.000
