data_functionalizedCrystal
_audit_creation_method	'EQeq! by Chris Wilmer'
_symmetry_space_group_name_H-M	'P1'
_symmetry_Int_Tables_number	1
_symmetry_cell_setting	triclinic
loop_
_symmetry_equiv_pos_as_xyz
  x,y,z
_cell_length_a	12.078
_cell_length_b	12.087
_cell_length_c	13.6846
_cell_angle_alpha	98.8821
_cell_angle_beta	116.187
_cell_angle_gamma	69.52
loop_
_atom_site_label
_atom_site_type_symbol
_atom_site_fract_x
_atom_site_fract_y
_atom_site_fract_z
_atom_site_charge
Mof_Fe	Fe	-0	0	-0	0.587
Mof_Fe	Fe	0.10439	0.25846	-0	0.595
Mof_Fe	Fe	0.89561	0.74154	-0	0.615
Mof_H 	H 	0.9022	0.9191	0.5708	0.043
Mof_H 	H 	0.1291	0.1146	0.606	0.045
Mof_H 	H 	0.6686	0.0809	0.5708	0.08
Mof_H 	H 	0.4769	0.8854	0.606	0.083
Mof_H 	H 	0.0978	0.0809	0.4292	0.08
Mof_H 	H 	0.8709	0.8854	0.394	0.079
Mof_H 	H 	0.3314	0.9191	0.4292	0.045
Mof_H 	H 	0.5231	0.1146	0.394	0.042
Mof_H 	H 	0.5283	0.2926	-0	0.044
Mof_H 	H 	0.6634	0.5604	-0	0.044
Mof_H 	H 	0.4717	0.7074	-0	0.049
Mof_H 	H 	0.3366	0.4396	-0	0.043
Mof_C 	C 	0.9428	0.9518	0.5422	0.04
Mof_C 	C 	0.0224	0.0193	0.61	-0.061
Mof_C 	C 	0.0766	0.067	0.5628	0.02
Mof_C 	C 	0.0394	0.0423	0.7228	0.126
Mof_C 	C 	0.5994	0.0482	0.5422	-0.096
Mof_C 	C 	0.5876	0.9807	0.61	0.05
Mof_C 	C 	0.4862	0.933	0.5628	-0.079
Mof_C 	C 	0.6834	0.9577	0.7228	0.128
Mof_C 	C 	0.0572	0.0482	0.4578	-0.116
Mof_C 	C 	0.9776	0.9807	0.39	0.061
Mof_C 	C 	0.9234	0.933	0.4372	-0.09
Mof_C 	C 	0.9606	0.9577	0.2772	0.116
Mof_C 	C 	0.4006	0.9518	0.4578	0.025
Mof_C 	C 	0.4124	0.0193	0.39	-0.051
Mof_C 	C 	0.5138	0.067	0.4372	0.008
Mof_C 	C 	0.3166	0.0423	0.2772	0.116
Mof_C 	C 	0.5174	0.3744	-0	-0.045
Mof_C 	C 	0.6164	0.4172	-0	-0.013
Mof_C 	C 	0.5966	0.5362	-0	-0.038
Mof_C 	C 	0.7358	0.3322	-0	0.115
Mof_C 	C 	0.4826	0.6256	-0	-0.046
Mof_C 	C 	0.3836	0.5828	-0	-0.011
Mof_C 	C 	0.4034	0.4638	-0	-0.04
Mof_C 	C 	0.2642	0.6678	-0	0.115
Mof_C 	C 	0.9694	0.5	0.9388	0.314
Mof_C 	C 	0.0306	0.5	0.0612	0.128
Mof_N 	N 	0.01944	0.9793	0.78188	-0.059
Mof_N 	N 	0.04046	0.037	0.87712	-0.077
Mof_N 	N 	0.07386	0.1262	0.87552	-0.072
Mof_N 	N 	0.076	0.1326	0.7798	-0.083
Mof_N 	N 	0.76244	0.0207	0.78188	-0.084
Mof_N 	N 	0.83666	0.963	0.87712	-0.056
Mof_N 	N 	0.80166	0.8738	0.87552	-0.069
Mof_N 	N 	0.7038	0.8674	0.7798	-0.079
Mof_N 	N 	0.98056	0.0207	0.21812	-0.093
Mof_N 	N 	0.95954	0.963	0.12288	-0.089
Mof_N 	N 	0.92614	0.8738	0.12448	-0.103
Mof_N 	N 	0.924	0.8674	0.2202	-0.09
Mof_N 	N 	0.23756	0.9793	0.21812	-0.068
Mof_N 	N 	0.16334	0.037	0.12288	-0.112
Mof_N 	N 	0.19834	0.1262	0.12448	-0.107
Mof_N 	N 	0.2962	0.1326	0.2202	-0.094
Mof_N 	N 	0.7673	0.2151	-0	-0.1
Mof_N 	N 	0.8861	0.1746	-0	-0.108
Mof_N 	N 	0.9204	0.2647	-0	-0.093
Mof_N 	N 	0.8313	0.3628	-0	-0.098
Mof_N 	N 	0.2327	0.7849	-0	-0.094
Mof_N 	N 	0.1139	0.8254	-0	-0.106
Mof_N 	N 	0.0796	0.7353	-0	-0.099
Mof_N 	N 	0.1687	0.6372	-0	-0.1
Mof_O 	O 	0.99712	0.4021	0.89064	-0.244
Mof_O 	O 	0.89352	0.5979	0.89064	-0.249
Mof_O 	O 	0.00288	0.5979	0.10936	-0.263
Mof_O 	O 	0.10648	0.4021	0.10936	-0.261
_end
