data_functionalizedCrystal
_audit_creation_method	'EQeq! by Chris Wilmer'
_symmetry_space_group_name_H-M	'P1'
_symmetry_Int_Tables_number	1
_symmetry_cell_setting	triclinic
loop_
_symmetry_equiv_pos_as_xyz
  x,y,z
_cell_length_a	9.506
_cell_length_b	15.482
_cell_length_c	12.498
_cell_angle_alpha	90
_cell_angle_beta	94.954
_cell_angle_gamma	90
loop_
_atom_site_label
_atom_site_type_symbol
_atom_site_fract_x
_atom_site_fract_y
_atom_site_fract_z
_atom_site_charge
Mof_Zn	Zn	0.14014	0.08367	0.45719	1.241
Mof_C 	C 	0.2718	0.8898	0.6854	-0.116
Mof_C 	C 	0.4102	0.9021	0.6616	0.055
Mof_H 	H 	0.4311	0.9443	0.6124	0.054
Mof_C 	C 	0.5183	0.8514	0.7116	-0.089
Mof_C 	C 	0.487	0.7909	0.7879	0.042
Mof_H 	H 	0.5591	0.7578	0.822	0.055
Mof_C 	C 	0.3484	0.7791	0.8141	-0.091
Mof_C 	C 	0.2417	0.8284	0.7618	0.052
Mof_H 	H 	0.1488	0.8204	0.7779	0.054
Mof_C 	C 	0.1525	0.936	0.6206	0.422
Mof_C 	C 	0.666	0.8585	0.6756	0.344
Mof_C 	C 	0.3127	0.7103	0.8928	0.341
Mof_O 	O 	0.1869	0.9796	0.5433	-0.479
Mof_O 	O 	0.0292	0.9238	0.6453	-0.462
Mof_O 	O 	0.1895	0.6894	0.8991	-0.285
Mof_O 	O 	0.4163	0.6758	0.9483	-0.432
Mof_O 	O 	0.7519	0.7996	0.6983	-0.277
Mof_O 	O 	0.6904	0.9229	0.6192	-0.424
Mof_Zn	Zn	0.35986	0.58367	0.04281	1.241
Mof_C 	C 	0.2282	0.3898	0.8146	-0.117
Mof_C 	C 	0.0898	0.4021	0.8384	0.055
Mof_H 	H 	0.0689	0.4443	0.8876	0.055
Mof_C 	C 	0.9817	0.3514	0.7884	-0.088
Mof_C 	C 	0.013	0.2909	0.7121	0.039
Mof_H 	H 	0.9409	0.2578	0.678	0.057
Mof_C 	C 	0.1516	0.2791	0.6859	-0.091
Mof_C 	C 	0.2583	0.3284	0.7382	0.052
Mof_H 	H 	0.3512	0.3204	0.7221	0.053
Mof_C 	C 	0.3475	0.436	0.8794	0.422
Mof_C 	C 	0.834	0.3585	0.8244	0.343
Mof_C 	C 	0.1873	0.2103	0.6072	0.34
Mof_O 	O 	0.3131	0.4796	0.9567	-0.48
Mof_O 	O 	0.4708	0.4238	0.8547	-0.465
Mof_O 	O 	0.3105	0.1894	0.6009	-0.287
Mof_O 	O 	0.0837	0.1758	0.5517	-0.434
Mof_O 	O 	0.7481	0.2996	0.8017	-0.276
Mof_O 	O 	0.8096	0.4229	0.8808	-0.423
Mof_Zn	Zn	0.85986	0.91633	0.54281	1.24
Mof_C 	C 	0.7282	0.1102	0.3146	-0.117
Mof_C 	C 	0.5898	0.0979	0.3384	0.055
Mof_H 	H 	0.5689	0.0557	0.3876	0.054
Mof_C 	C 	0.4817	0.1486	0.2884	-0.089
Mof_C 	C 	0.513	0.2091	0.2121	0.042
Mof_H 	H 	0.4409	0.2422	0.178	0.055
Mof_C 	C 	0.6516	0.2209	0.1859	-0.091
Mof_C 	C 	0.7583	0.1716	0.2382	0.052
Mof_H 	H 	0.8512	0.1796	0.2221	0.054
Mof_C 	C 	0.8475	0.064	0.3794	0.422
Mof_C 	C 	0.334	0.1415	0.3244	0.344
Mof_C 	C 	0.6873	0.2897	0.1072	0.341
Mof_O 	O 	0.8131	0.0204	0.4567	-0.479
Mof_O 	O 	0.9708	0.0762	0.3547	-0.462
Mof_O 	O 	0.8105	0.3106	0.1009	-0.285
Mof_O 	O 	0.5837	0.3242	0.0517	-0.432
Mof_O 	O 	0.2481	0.2004	0.3017	-0.277
Mof_O 	O 	0.3096	0.0771	0.3808	-0.424
Mof_Zn	Zn	0.64014	0.41633	0.95719	1.241
Mof_C 	C 	0.7718	0.6102	0.1854	-0.117
Mof_C 	C 	0.9102	0.5979	0.1616	0.055
Mof_H 	H 	0.9311	0.5557	0.1124	0.055
Mof_C 	C 	0.0183	0.6486	0.2116	-0.088
Mof_C 	C 	0.987	0.7091	0.2879	0.039
Mof_H 	H 	0.0591	0.7422	0.322	0.057
Mof_C 	C 	0.8484	0.7209	0.3141	-0.091
Mof_C 	C 	0.7417	0.6716	0.2618	0.052
Mof_H 	H 	0.6488	0.6796	0.2779	0.053
Mof_C 	C 	0.6525	0.564	0.1206	0.422
Mof_C 	C 	0.166	0.6415	0.1756	0.343
Mof_C 	C 	0.8127	0.7897	0.3928	0.34
Mof_O 	O 	0.6869	0.5204	0.0433	-0.48
Mof_O 	O 	0.5292	0.5762	0.1453	-0.465
Mof_O 	O 	0.6895	0.8106	0.3991	-0.287
Mof_O 	O 	0.9163	0.8242	0.4483	-0.434
Mof_O 	O 	0.2519	0.7004	0.1983	-0.276
Mof_O 	O 	0.1904	0.5771	0.1192	-0.423
_end
