# CIF file generated by openbabel 3.1.0, see https://openbabel.org
data_I
_chemical_name_common 'image0'
_cell_length_a 20.3661
_cell_length_b 20.3661
_cell_length_c 20.3661
_cell_angle_alpha 90
_cell_angle_beta 90
_cell_angle_gamma 90
_space_group_name_H-M_alt 'P 1'
_space_group_name_Hall 'P 1'
loop_
    _symmetry_equiv_pos_as_xyz
    x,y,z
loop_
    _atom_site_label
    _atom_site_type_symbol
    _atom_site_fract_x
    _atom_site_fract_y
    _atom_site_fract_z
    _atom_site_occupancy
    La1      La       0.74276    0.14555    0.01269    1.000
    O1       O        0.83510    0.20850    0.96000    1.000
    O2       O        0.88400    0.29580    0.91580    1.000
    O3       O        0.64230    0.20260    0.05300    1.000
    O4       O        0.57960    0.28960    0.07600    1.000
    N1       N        0.73500    0.27570    0.00080    1.000
    C1       C        0.83930    0.26910    0.94790    1.000
    C2       C        0.78360    0.31110    0.97410    1.000
    C3       C        0.78190    0.37870    0.97000    1.000
    H1       H        0.81630    0.40180    0.95060    1.000
    C4       C        0.72820    0.41140    0.99520    1.000
    H2       H        0.72630    0.45700    0.99390    1.000
    C5       C        0.67690    0.37540    0.02240    1.000
    H3       H        0.63980    0.39630    0.03880    1.000
    C6       C        0.68250    0.30810    0.02450    1.000
    C7       C        0.63050    0.26360    0.05330    1.000
    La2      La       0.75724    0.85445    0.51269    1.000
    O5       O        0.66490    0.79150    0.46000    1.000
    O6       O        0.61600    0.70420    0.41580    1.000
    O7       O        0.85770    0.79740    0.55300    1.000
    O8       O        0.92040    0.71040    0.57600    1.000
    N2       N        0.76500    0.72430    0.50080    1.000
    C8       C        0.66070    0.73090    0.44790    1.000
    C9       C        0.71640    0.68890    0.47410    1.000
    C10      C        0.71810    0.62130    0.47000    1.000
    H4       H        0.68370    0.59820    0.45060    1.000
    C11      C        0.77180    0.58860    0.49520    1.000
    H5       H        0.77370    0.54300    0.49390    1.000
    C12      C        0.82310    0.62460    0.52240    1.000
    H6       H        0.86020    0.60370    0.53880    1.000
    C13      C        0.81750    0.69190    0.52450    1.000
    C14      C        0.86950    0.73640    0.55330    1.000
    La3      La       0.25724    0.64555    0.48731    1.000
    O9       O        0.16490    0.70850    0.54000    1.000
    O10      O        0.11600    0.79580    0.58420    1.000
    O11      O        0.35770    0.70260    0.44700    1.000
    O12      O        0.42040    0.78960    0.42400    1.000
    N3       N        0.26500    0.77570    0.49920    1.000
    C15      C        0.16070    0.76910    0.55210    1.000
    C16      C        0.21640    0.81110    0.52590    1.000
    C17      C        0.21810    0.87870    0.53000    1.000
    H7       H        0.18370    0.90180    0.54940    1.000
    C18      C        0.27180    0.91140    0.50480    1.000
    H8       H        0.27370    0.95700    0.50610    1.000
    C19      C        0.32310    0.87540    0.47760    1.000
    H9       H        0.36020    0.89630    0.46120    1.000
    C20      C        0.31750    0.80810    0.47550    1.000
    C21      C        0.36950    0.76360    0.44670    1.000
    La4      La       0.24276    0.35445    0.98731    1.000
    O13      O        0.33510    0.29150    0.04000    1.000
    O14      O        0.38400    0.20420    0.08420    1.000
    O15      O        0.14230    0.29740    0.94700    1.000
    O16      O        0.07960    0.21040    0.92400    1.000
    N4       N        0.23500    0.22430    0.99920    1.000
    C22      C        0.33930    0.23090    0.05210    1.000
    C23      C        0.28360    0.18890    0.02590    1.000
    C24      C        0.28190    0.12130    0.03000    1.000
    H10      H        0.31630    0.09820    0.04940    1.000
    C25      C        0.22820    0.08860    0.00480    1.000
    H11      H        0.22630    0.04300    0.00610    1.000
    C26      C        0.17690    0.12460    0.97760    1.000
    H12      H        0.13980    0.10370    0.96120    1.000
    C27      C        0.18250    0.19190    0.97550    1.000
    C28      C        0.13050    0.23640    0.94670    1.000
    La5      La       0.01269    0.74276    0.14555    1.000
    O17      O        0.96000    0.83510    0.20850    1.000
    O18      O        0.91580    0.88400    0.29580    1.000
    O19      O        0.05300    0.64230    0.20260    1.000
    O20      O        0.07600    0.57960    0.28960    1.000
    N5       N        0.00080    0.73500    0.27570    1.000
    C29      C        0.94790    0.83930    0.26910    1.000
    C30      C        0.97410    0.78360    0.31110    1.000
    C31      C        0.97000    0.78190    0.37870    1.000
    H13      H        0.95060    0.81630    0.40180    1.000
    C32      C        0.99520    0.72820    0.41140    1.000
    H14      H        0.99390    0.72630    0.45700    1.000
    C33      C        0.02240    0.67690    0.37540    1.000
    H15      H        0.03880    0.63980    0.39630    1.000
    C34      C        0.02450    0.68250    0.30810    1.000
    C35      C        0.05330    0.63050    0.26360    1.000
    La6      La       0.51269    0.75724    0.85445    1.000
    O21      O        0.46000    0.66490    0.79150    1.000
    O22      O        0.41580    0.61600    0.70420    1.000
    O23      O        0.55300    0.85770    0.79740    1.000
    O24      O        0.57600    0.92040    0.71040    1.000
    N6       N        0.50080    0.76500    0.72430    1.000
    C36      C        0.44790    0.66070    0.73090    1.000
    C37      C        0.47410    0.71640    0.68890    1.000
    C38      C        0.47000    0.71810    0.62130    1.000
    H16      H        0.45060    0.68370    0.59820    1.000
    C39      C        0.49520    0.77180    0.58860    1.000
    H17      H        0.49390    0.77370    0.54300    1.000
    C40      C        0.52240    0.82310    0.62460    1.000
    H18      H        0.53880    0.86020    0.60370    1.000
    C41      C        0.52450    0.81750    0.69190    1.000
    C42      C        0.55330    0.86950    0.73640    1.000
    La7      La       0.48731    0.25724    0.64555    1.000
    O25      O        0.54000    0.16490    0.70850    1.000
    O26      O        0.58420    0.11600    0.79580    1.000
    O27      O        0.44700    0.35770    0.70260    1.000
    O28      O        0.42400    0.42040    0.78960    1.000
    N7       N        0.49920    0.26500    0.77570    1.000
    C43      C        0.55210    0.16070    0.76910    1.000
    C44      C        0.52590    0.21640    0.81110    1.000
    C45      C        0.53000    0.21810    0.87870    1.000
    H19      H        0.54940    0.18370    0.90180    1.000
    C46      C        0.50480    0.27180    0.91140    1.000
    H20      H        0.50610    0.27370    0.95700    1.000
    C47      C        0.47760    0.32310    0.87540    1.000
    H21      H        0.46120    0.36020    0.89630    1.000
    C48      C        0.47550    0.31750    0.80810    1.000
    C49      C        0.44670    0.36950    0.76360    1.000
    La8      La       0.98731    0.24276    0.35445    1.000
    O29      O        0.04000    0.33510    0.29150    1.000
    O30      O        0.08420    0.38400    0.20420    1.000
    O31      O        0.94700    0.14230    0.29740    1.000
    O32      O        0.92400    0.07960    0.21040    1.000
    N8       N        0.99920    0.23500    0.22430    1.000
    C50      C        0.05210    0.33930    0.23090    1.000
    C51      C        0.02590    0.28360    0.18890    1.000
    C52      C        0.03000    0.28190    0.12130    1.000
    H22      H        0.04940    0.31630    0.09820    1.000
    C53      C        0.00480    0.22820    0.08860    1.000
    H23      H        0.00610    0.22630    0.04300    1.000
    C54      C        0.97760    0.17690    0.12460    1.000
    H24      H        0.96120    0.13980    0.10370    1.000
    C55      C        0.97550    0.18250    0.19190    1.000
    C56      C        0.94670    0.13050    0.23640    1.000
    La9      La       0.14555    0.01269    0.74276    1.000
    O33      O        0.20850    0.96000    0.83510    1.000
    O34      O        0.29580    0.91580    0.88400    1.000
    O35      O        0.20260    0.05300    0.64230    1.000
    O36      O        0.28960    0.07600    0.57960    1.000
    N9       N        0.27570    0.00080    0.73500    1.000
    C57      C        0.26910    0.94790    0.83930    1.000
    C58      C        0.31110    0.97410    0.78360    1.000
    C59      C        0.37870    0.97000    0.78190    1.000
    H25      H        0.40180    0.95060    0.81630    1.000
    C60      C        0.41140    0.99520    0.72820    1.000
    H26      H        0.45700    0.99390    0.72630    1.000
    C61      C        0.37540    0.02240    0.67690    1.000
    H27      H        0.39630    0.03880    0.63980    1.000
    C62      C        0.30810    0.02450    0.68250    1.000
    C63      C        0.26360    0.05330    0.63050    1.000
    La10     La       0.85445    0.51269    0.75724    1.000
    O37      O        0.79150    0.46000    0.66490    1.000
    O38      O        0.70420    0.41580    0.61600    1.000
    O39      O        0.79740    0.55300    0.85770    1.000
    O40      O        0.71040    0.57600    0.92040    1.000
    N10      N        0.72430    0.50080    0.76500    1.000
    C64      C        0.73090    0.44790    0.66070    1.000
    C65      C        0.68890    0.47410    0.71640    1.000
    C66      C        0.62130    0.47000    0.71810    1.000
    H28      H        0.59820    0.45060    0.68370    1.000
    C67      C        0.58860    0.49520    0.77180    1.000
    H29      H        0.54300    0.49390    0.77370    1.000
    C68      C        0.62460    0.52240    0.82310    1.000
    H30      H        0.60370    0.53880    0.86020    1.000
    C69      C        0.69190    0.52450    0.81750    1.000
    C70      C        0.73640    0.55330    0.86950    1.000
    La11     La       0.64555    0.48731    0.25724    1.000
    O41      O        0.70850    0.54000    0.16490    1.000
    O42      O        0.79580    0.58420    0.11600    1.000
    O43      O        0.70260    0.44700    0.35770    1.000
    O44      O        0.78960    0.42400    0.42040    1.000
    N11      N        0.77570    0.49920    0.26500    1.000
    C71      C        0.76910    0.55210    0.16070    1.000
    C72      C        0.81110    0.52590    0.21640    1.000
    C73      C        0.87870    0.53000    0.21810    1.000
    H31      H        0.90180    0.54940    0.18370    1.000
    C74      C        0.91140    0.50480    0.27180    1.000
    H32      H        0.95700    0.50610    0.27370    1.000
    C75      C        0.87540    0.47760    0.32310    1.000
    H33      H        0.89630    0.46120    0.36020    1.000
    C76      C        0.80810    0.47550    0.31750    1.000
    C77      C        0.76360    0.44670    0.36950    1.000
    La12     La       0.35445    0.98731    0.24276    1.000
    O45      O        0.29150    0.04000    0.33510    1.000
    O46      O        0.20420    0.08420    0.38400    1.000
    O47      O        0.29740    0.94700    0.14230    1.000
    O48      O        0.21040    0.92400    0.07960    1.000
    N12      N        0.22430    0.99920    0.23500    1.000
    C78      C        0.23090    0.05210    0.33930    1.000
    C79      C        0.18890    0.02590    0.28360    1.000
    C80      C        0.12130    0.03000    0.28190    1.000
    H34      H        0.09820    0.04940    0.31630    1.000
    C81      C        0.08860    0.00480    0.22820    1.000
    H35      H        0.04300    0.00610    0.22630    1.000
    C82      C        0.12460    0.97760    0.17690    1.000
    H36      H        0.10370    0.96120    0.13980    1.000
    C83      C        0.19190    0.97550    0.18250    1.000
    C84      C        0.23640    0.94670    0.13050    1.000
    La13     La       0.25724    0.85445    0.98731    1.000
    O49      O        0.16490    0.79150    0.04000    1.000
    O50      O        0.11600    0.70420    0.08420    1.000
    O51      O        0.35770    0.79740    0.94700    1.000
    O52      O        0.42040    0.71040    0.92400    1.000
    N13      N        0.26500    0.72430    0.99920    1.000
    C85      C        0.16070    0.73090    0.05210    1.000
    C86      C        0.21640    0.68890    0.02590    1.000
    C87      C        0.21810    0.62130    0.03000    1.000
    H37      H        0.18370    0.59820    0.04940    1.000
    C88      C        0.27180    0.58860    0.00480    1.000
    H38      H        0.27370    0.54300    0.00610    1.000
    C89      C        0.32310    0.62460    0.97760    1.000
    H39      H        0.36020    0.60370    0.96120    1.000
    C90      C        0.31750    0.69190    0.97550    1.000
    C91      C        0.36950    0.73640    0.94670    1.000
    La14     La       0.24276    0.14555    0.48731    1.000
    O53      O        0.33510    0.20850    0.54000    1.000
    O54      O        0.38400    0.29580    0.58420    1.000
    O55      O        0.14230    0.20260    0.44700    1.000
    O56      O        0.07960    0.28960    0.42400    1.000
    N14      N        0.23500    0.27570    0.49920    1.000
    C92      C        0.33930    0.26910    0.55210    1.000
    C93      C        0.28360    0.31110    0.52590    1.000
    C94      C        0.28190    0.37870    0.53000    1.000
    H40      H        0.31630    0.40180    0.54940    1.000
    C95      C        0.22820    0.41140    0.50480    1.000
    H41      H        0.22630    0.45700    0.50610    1.000
    C96      C        0.17690    0.37540    0.47760    1.000
    H42      H        0.13980    0.39630    0.46120    1.000
    C97      C        0.18250    0.30810    0.47550    1.000
    C98      C        0.13050    0.26360    0.44670    1.000
    La15     La       0.74276    0.35445    0.51269    1.000
    O57      O        0.83510    0.29150    0.46000    1.000
    O58      O        0.88400    0.20420    0.41580    1.000
    O59      O        0.64230    0.29740    0.55300    1.000
    O60      O        0.57960    0.21040    0.57600    1.000
    N15      N        0.73500    0.22430    0.50080    1.000
    C99      C        0.83930    0.23090    0.44790    1.000
    C100     C        0.78360    0.18890    0.47410    1.000
    C101     C        0.78190    0.12130    0.47000    1.000
    H43      H        0.81630    0.09820    0.45060    1.000
    C102     C        0.72820    0.08860    0.49520    1.000
    H44      H        0.72630    0.04300    0.49390    1.000
    C103     C        0.67690    0.12460    0.52240    1.000
    H45      H        0.63980    0.10370    0.53880    1.000
    C104     C        0.68250    0.19190    0.52450    1.000
    C105     C        0.63050    0.23640    0.55330    1.000
    La16     La       0.75724    0.64555    0.01269    1.000
    O61      O        0.66490    0.70850    0.96000    1.000
    O62      O        0.61600    0.79580    0.91580    1.000
    O63      O        0.85770    0.70260    0.05300    1.000
    O64      O        0.92040    0.78960    0.07600    1.000
    N16      N        0.76500    0.77570    0.00080    1.000
    C106     C        0.66070    0.76910    0.94790    1.000
    C107     C        0.71640    0.81110    0.97410    1.000
    C108     C        0.71810    0.87870    0.97000    1.000
    H46      H        0.68370    0.90180    0.95060    1.000
    C109     C        0.77180    0.91140    0.99520    1.000
    H47      H        0.77370    0.95700    0.99390    1.000
    C110     C        0.82310    0.87540    0.02240    1.000
    H48      H        0.86020    0.89630    0.03880    1.000
    C111     C        0.81750    0.80810    0.02450    1.000
    C112     C        0.86950    0.76360    0.05330    1.000
    La17     La       0.98731    0.25724    0.85445    1.000
    O65      O        0.04000    0.16490    0.79150    1.000
    O66      O        0.08420    0.11600    0.70420    1.000
    O67      O        0.94700    0.35770    0.79740    1.000
    O68      O        0.92400    0.42040    0.71040    1.000
    N17      N        0.99920    0.26500    0.72430    1.000
    C113     C        0.05210    0.16070    0.73090    1.000
    C114     C        0.02590    0.21640    0.68890    1.000
    C115     C        0.03000    0.21810    0.62130    1.000
    H49      H        0.04940    0.18370    0.59820    1.000
    C116     C        0.00480    0.27180    0.58860    1.000
    H50      H        0.00610    0.27370    0.54300    1.000
    C117     C        0.97760    0.32310    0.62460    1.000
    H51      H        0.96120    0.36020    0.60370    1.000
    C118     C        0.97550    0.31750    0.69190    1.000
    C119     C        0.94670    0.36950    0.73640    1.000
    La18     La       0.48731    0.24276    0.14555    1.000
    O69      O        0.54000    0.33510    0.20850    1.000
    O70      O        0.58420    0.38400    0.29580    1.000
    O71      O        0.44700    0.14230    0.20260    1.000
    O72      O        0.42400    0.07960    0.28960    1.000
    N18      N        0.49920    0.23500    0.27570    1.000
    C120     C        0.55210    0.33930    0.26910    1.000
    C121     C        0.52590    0.28360    0.31110    1.000
    C122     C        0.53000    0.28190    0.37870    1.000
    H52      H        0.54940    0.31630    0.40180    1.000
    C123     C        0.50480    0.22820    0.41140    1.000
    H53      H        0.50610    0.22630    0.45700    1.000
    C124     C        0.47760    0.17690    0.37540    1.000
    H54      H        0.46120    0.13980    0.39630    1.000
    C125     C        0.47550    0.18250    0.30810    1.000
    C126     C        0.44670    0.13050    0.26360    1.000
    La19     La       0.51269    0.74276    0.35445    1.000
    O73      O        0.46000    0.83510    0.29150    1.000
    O74      O        0.41580    0.88400    0.20420    1.000
    O75      O        0.55300    0.64230    0.29740    1.000
    O76      O        0.57600    0.57960    0.21040    1.000
    N19      N        0.50080    0.73500    0.22430    1.000
    C127     C        0.44790    0.83930    0.23090    1.000
    C128     C        0.47410    0.78360    0.18890    1.000
    C129     C        0.47000    0.78190    0.12130    1.000
    H55      H        0.45060    0.81630    0.09820    1.000
    C130     C        0.49520    0.72820    0.08860    1.000
    H56      H        0.49390    0.72630    0.04300    1.000
    C131     C        0.52240    0.67690    0.12460    1.000
    H57      H        0.53880    0.63980    0.10370    1.000
    C132     C        0.52450    0.68250    0.19190    1.000
    C133     C        0.55330    0.63050    0.23640    1.000
    La20     La       0.01269    0.75724    0.64555    1.000
    O77      O        0.96000    0.66490    0.70850    1.000
    O78      O        0.91580    0.61600    0.79580    1.000
    O79      O        0.05300    0.85770    0.70260    1.000
    O80      O        0.07600    0.92040    0.78960    1.000
    N20      N        0.00080    0.76500    0.77570    1.000
    C134     C        0.94790    0.66070    0.76910    1.000
    C135     C        0.97410    0.71640    0.81110    1.000
    C136     C        0.97000    0.71810    0.87870    1.000
    H58      H        0.95060    0.68370    0.90180    1.000
    C137     C        0.99520    0.77180    0.91140    1.000
    H59      H        0.99390    0.77370    0.95700    1.000
    C138     C        0.02240    0.82310    0.87540    1.000
    H60      H        0.03880    0.86020    0.89630    1.000
    C139     C        0.02450    0.81750    0.80810    1.000
    C140     C        0.05330    0.86950    0.76360    1.000
    La21     La       0.85445    0.98731    0.25724    1.000
    O81      O        0.79150    0.04000    0.16490    1.000
    O82      O        0.70420    0.08420    0.11600    1.000
    O83      O        0.79740    0.94700    0.35770    1.000
    O84      O        0.71040    0.92400    0.42040    1.000
    N21      N        0.72430    0.99920    0.26500    1.000
    C141     C        0.73090    0.05210    0.16070    1.000
    C142     C        0.68890    0.02590    0.21640    1.000
    C143     C        0.62130    0.03000    0.21810    1.000
    H61      H        0.59820    0.04940    0.18370    1.000
    C144     C        0.58860    0.00480    0.27180    1.000
    H62      H        0.54300    0.00610    0.27370    1.000
    C145     C        0.62460    0.97760    0.32310    1.000
    H63      H        0.60370    0.96120    0.36020    1.000
    C146     C        0.69190    0.97550    0.31750    1.000
    C147     C        0.73640    0.94670    0.36950    1.000
    La22     La       0.14555    0.48731    0.24276    1.000
    O85      O        0.20850    0.54000    0.33510    1.000
    O86      O        0.29580    0.58420    0.38400    1.000
    O87      O        0.20260    0.44700    0.14230    1.000
    O88      O        0.28960    0.42400    0.07960    1.000
    N22      N        0.27570    0.49920    0.23500    1.000
    C148     C        0.26910    0.55210    0.33930    1.000
    C149     C        0.31110    0.52590    0.28360    1.000
    C150     C        0.37870    0.53000    0.28190    1.000
    H64      H        0.40180    0.54940    0.31630    1.000
    C151     C        0.41140    0.50480    0.22820    1.000
    H65      H        0.45700    0.50610    0.22630    1.000
    C152     C        0.37540    0.47760    0.17690    1.000
    H66      H        0.39630    0.46120    0.13980    1.000
    C153     C        0.30810    0.47550    0.18250    1.000
    C154     C        0.26360    0.44670    0.13050    1.000
    La23     La       0.35445    0.51269    0.74276    1.000
    O89      O        0.29150    0.46000    0.83510    1.000
    O90      O        0.20420    0.41580    0.88400    1.000
    O91      O        0.29740    0.55300    0.64230    1.000
    O92      O        0.21040    0.57600    0.57960    1.000
    N23      N        0.22430    0.50080    0.73500    1.000
    C155     C        0.23090    0.44790    0.83930    1.000
    C156     C        0.18890    0.47410    0.78360    1.000
    C157     C        0.12130    0.47000    0.78190    1.000
    H67      H        0.09820    0.45060    0.81630    1.000
    C158     C        0.08860    0.49520    0.72820    1.000
    H68      H        0.04300    0.49390    0.72630    1.000
    C159     C        0.12460    0.52240    0.67690    1.000
    H69      H        0.10370    0.53880    0.63980    1.000
    C160     C        0.19190    0.52450    0.68250    1.000
    C161     C        0.23640    0.55330    0.63050    1.000
    La24     La       0.64555    0.01269    0.75724    1.000
    O93      O        0.70850    0.96000    0.66490    1.000
    O94      O        0.79580    0.91580    0.61600    1.000
    O95      O        0.70260    0.05300    0.85770    1.000
    O96      O        0.78960    0.07600    0.92040    1.000
    N24      N        0.77570    0.00080    0.76500    1.000
    C162     C        0.76910    0.94790    0.66070    1.000
    C163     C        0.81110    0.97410    0.71640    1.000
    C164     C        0.87870    0.97000    0.71810    1.000
    H70      H        0.90180    0.95060    0.68370    1.000
    C165     C        0.91140    0.99520    0.77180    1.000
    H71      H        0.95700    0.99390    0.77370    1.000
    C166     C        0.87540    0.02240    0.82310    1.000
    H72      H        0.89630    0.03880    0.86020    1.000
    C167     C        0.80810    0.02450    0.81750    1.000
    C168     C        0.76360    0.05330    0.86950    1.000
