data_functionalizedCrystal
_audit_creation_method	'EQeq! by Chris Wilmer'
_symmetry_space_group_name_H-M	'P1'
_symmetry_Int_Tables_number	1
_symmetry_cell_setting	triclinic
loop_
_symmetry_equiv_pos_as_xyz
  x,y,z
_cell_length_a	11.7797
_cell_length_b	29.1825
_cell_length_c	14.2285
_cell_angle_alpha	90
_cell_angle_beta	100.679
_cell_angle_gamma	90
loop_
_atom_site_label
_atom_site_type_symbol
_atom_site_fract_x
_atom_site_fract_y
_atom_site_fract_z
_atom_site_charge
Mof_C 	C 	0.3334	0.1259	0.8317	0.321
Mof_C 	C 	0.3054	0.1731	0.792	-0.104
Mof_C 	C 	0.3617	0.2101	0.8367	0.044
Mof_H 	H 	0.4192	0.206	0.8904	0.032
Mof_C 	C 	0.2225	0.1817	0.7133	0.051
Mof_H 	H 	0.18	0.1573	0.6832	0.029
Mof_C 	C 	0.3332	0.2538	0.8019	-0.111
Mof_H 	H 	0.3684	0.2789	0.8359	0.074
Mof_C 	C 	0.1994	0.2247	0.677	-0.118
Mof_H 	H 	0.144	0.2286	0.6218	0.076
Mof_C 	C 	0.2548	0.2615	0.7192	0.063
Mof_C 	C 	0.2311	0.3096	0.6853	0.035
Mof_C 	C 	0.2969	0.3455	0.7255	-0.092
Mof_H 	H 	0.3596	0.34	0.7744	0.071
Mof_C 	C 	0.1358	0.3203	0.6156	-0.085
Mof_H 	H 	0.0891	0.2968	0.586	0.067
Mof_C 	C 	0.2716	0.3905	0.6945	0.031
Mof_H 	H 	0.3217	0.4139	0.7198	0.04
Mof_C 	C 	0.1088	0.3657	0.5891	0.022
Mof_H 	H 	0.0432	0.3719	0.5434	0.053
Mof_C 	C 	0.1766	0.4012	0.6289	-0.095
Mof_C 	C 	0.1483	0.45	0.6067	0.315
Mof_C 	C 	0.1712	0.0458	0.0066	0.14
Mof_H 	H 	0.1397	0.0408	0.9425	0.013
Mof_C 	C 	0.3288	0.0592	0.1219	0.151
Mof_H 	H 	0.4081	0.064	0.1388	-0.003
Mof_C 	C 	0.0977	0.0474	0.0712	-0.231
Mof_H 	H 	0.0184	0.044	0.0515	0.134
Mof_C 	C 	0.2643	0.0611	0.1922	-0.236
Mof_H 	H 	0.2983	0.0668	0.2554	0.147
Mof_C 	C 	0.1455	0.0543	0.1657	0.233
Mof_C 	C 	0.0771	0.0924	0.2978	0.221
Mof_C 	C 	0.0143	0.0127	0.248	0.231
Mof_C 	C 	0.9472	0.0113	0.3263	-0.049
Mof_C 	C 	0.0125	0.0893	0.3784	-0.052
Mof_C 	C 	0.9493	0.0491	0.3881	0.026
Mof_C 	C 	0.8843	0.9729	0.3384	-0.027
Mof_H 	H 	0.8832	0.9482	0.2969	0.078
Mof_C 	C 	0.0115	0.1252	0.4376	-0.034
Mof_H 	H 	0.0561	0.151	0.4317	0.058
Mof_C 	C 	0.8223	0.9706	0.4124	-0.017
Mof_H 	H 	0.7806	0.9442	0.4201	0.061
Mof_C 	C 	0.9425	0.1234	0.5085	-0.021
Mof_H 	H 	0.939	0.1489	0.547	0.055
Mof_C 	C 	0.8215	0.0065	0.4741	-0.058
Mof_C 	C 	0.8813	0.0856	0.522	-0.061
Mof_C 	C 	0.8841	0.0474	0.4612	0.034
Mof_C 	C 	0.7595	0.0033	0.5554	0.217
Mof_C 	C 	0.807	0.0849	0.5946	0.227
Mof_C 	C 	0.6774	0.0417	0.678	0.259
Mof_C 	C 	0.5666	0.0277	0.6522	-0.261
Mof_H 	H 	0.538	0.0188	0.5895	0.141
Mof_C 	C 	0.7151	0.0545	0.7709	-0.255
Mof_H 	H 	0.7914	0.0635	0.7917	0.155
Mof_C 	C 	0.497	0.0267	0.7192	0.163
Mof_H 	H 	0.4215	0.0164	0.7003	-0.007
Mof_C 	C 	0.639	0.0541	0.8331	0.159
Mof_H 	H 	0.6645	0.0645	0.8953	-0.004
Mof_N 	N 	0.2847	0.05106	0.0309	-0.169
Mof_N 	N 	0.075	0.05334	0.2388	-0.195
Mof_N 	N 	0.7531	0.04298	0.61	-0.201
Mof_N 	N 	0.5301	0.0396	0.8086	-0.176
Mof_O 	O 	0.2787	0.0925	0.7941	-0.273
Mof_O 	O 	0.413	0.12285	0.9036	-0.28
Mof_O 	O 	0.0618	0.45949	0.5424	-0.291
Mof_O 	O 	0.2091	0.48054	0.6509	-0.275
Mof_O 	O 	0.0186	0.98109	0.1963	-0.235
Mof_O 	O 	0.1287	0.1261	0.2824	-0.222
Mof_O 	O 	0.7921	0.11783	0.6403	-0.224
Mof_O 	O 	0.7176	0.96773	0.5762	-0.231
Mof_Cd	Cd	0.40048	0.04377	0.91426	0.461
Mof_C 	C 	0.1666	0.6259	0.6683	0.322
Mof_C 	C 	0.1946	0.6731	0.708	-0.103
Mof_C 	C 	0.1383	0.7101	0.6633	0.045
Mof_H 	H 	0.0808	0.706	0.6096	0.033
Mof_C 	C 	0.2775	0.6817	0.7867	0.052
Mof_H 	H 	0.32	0.6573	0.8168	0.03
Mof_C 	C 	0.1668	0.7538	0.6981	-0.11
Mof_H 	H 	0.1316	0.7789	0.6641	0.074
Mof_C 	C 	0.3006	0.7247	0.823	-0.118
Mof_H 	H 	0.356	0.7286	0.8782	0.076
Mof_C 	C 	0.2452	0.7615	0.7808	0.063
Mof_C 	C 	0.2689	0.8096	0.8147	0.035
Mof_C 	C 	0.2031	0.8455	0.7745	-0.092
Mof_H 	H 	0.1404	0.84	0.7256	0.071
Mof_C 	C 	0.3642	0.8203	0.8844	-0.085
Mof_H 	H 	0.4109	0.7968	0.914	0.067
Mof_C 	C 	0.2284	0.8905	0.8055	0.031
Mof_H 	H 	0.1783	0.9139	0.7802	0.04
Mof_C 	C 	0.3912	0.8657	0.9109	0.022
Mof_H 	H 	0.4568	0.8719	0.9566	0.053
Mof_C 	C 	0.3234	0.9012	0.8711	-0.095
Mof_C 	C 	0.3517	0.95	0.8933	0.315
Mof_C 	C 	0.3288	0.5458	0.4934	0.137
Mof_H 	H 	0.3603	0.5408	0.5575	0.014
Mof_C 	C 	0.1712	0.5592	0.3781	0.15
Mof_H 	H 	0.0919	0.564	0.3612	-0.003
Mof_C 	C 	0.4023	0.5474	0.4288	-0.23
Mof_H 	H 	0.4816	0.544	0.4485	0.134
Mof_C 	C 	0.2357	0.5611	0.3078	-0.235
Mof_H 	H 	0.2017	0.5668	0.2446	0.147
Mof_C 	C 	0.3545	0.5543	0.3343	0.233
Mof_C 	C 	0.4229	0.5924	0.2022	0.221
Mof_C 	C 	0.4857	0.5127	0.252	0.231
Mof_C 	C 	0.5528	0.5113	0.1737	-0.05
Mof_C 	C 	0.4875	0.5893	0.1216	-0.052
Mof_C 	C 	0.5507	0.5491	0.1119	0.027
Mof_C 	C 	0.6157	0.4729	0.1616	-0.026
Mof_H 	H 	0.6168	0.4482	0.2031	0.078
Mof_C 	C 	0.4885	0.6252	0.0624	-0.034
Mof_H 	H 	0.4439	0.651	0.0683	0.057
Mof_C 	C 	0.6777	0.4706	0.0876	-0.016
Mof_H 	H 	0.7194	0.4442	0.0799	0.061
Mof_C 	C 	0.5575	0.6234	0.9915	-0.022
Mof_H 	H 	0.561	0.6489	0.953	0.055
Mof_C 	C 	0.6785	0.5065	0.0259	-0.058
Mof_C 	C 	0.6187	0.5856	0.978	-0.061
Mof_C 	C 	0.6159	0.5474	0.0388	0.034
Mof_C 	C 	0.7405	0.5033	0.9446	0.217
Mof_C 	C 	0.693	0.5849	0.9054	0.227
Mof_C 	C 	0.8226	0.5417	0.822	0.258
Mof_C 	C 	0.9334	0.5277	0.8478	-0.26
Mof_H 	H 	0.962	0.5188	0.9105	0.141
Mof_C 	C 	0.7849	0.5545	0.7291	-0.254
Mof_H 	H 	0.7086	0.5635	0.7083	0.154
Mof_C 	C 	0.003	0.5267	0.7808	0.161
Mof_H 	H 	0.0785	0.5164	0.7997	-0.006
Mof_C 	C 	0.861	0.5541	0.6669	0.159
Mof_H 	H 	0.8355	0.5645	0.6047	-0.004
Mof_N 	N 	0.2153	0.55106	0.4691	-0.169
Mof_N 	N 	0.425	0.55334	0.2612	-0.195
Mof_N 	N 	0.7469	0.54298	0.89	-0.2
Mof_N 	N 	0.9699	0.5396	0.6914	-0.175
Mof_O 	O 	0.2213	0.5925	0.7059	-0.273
Mof_O 	O 	0.087	0.62285	0.5964	-0.28
Mof_O 	O 	0.4382	0.95949	0.9576	-0.291
Mof_O 	O 	0.2909	0.98054	0.8491	-0.275
Mof_O 	O 	0.4814	0.48109	0.3037	-0.236
Mof_O 	O 	0.3713	0.6261	0.2176	-0.222
Mof_O 	O 	0.7079	0.61783	0.8597	-0.224
Mof_O 	O 	0.7824	0.46773	0.9238	-0.231
Mof_Cd	Cd	0.09952	0.54377	0.58574	0.461
Mof_C 	C 	0.6666	0.8741	0.1683	0.322
Mof_C 	C 	0.6946	0.8269	0.208	-0.103
Mof_C 	C 	0.6383	0.7899	0.1633	0.045
Mof_H 	H 	0.5808	0.794	0.1096	0.033
Mof_C 	C 	0.7775	0.8183	0.2867	0.052
Mof_H 	H 	0.82	0.8427	0.3168	0.03
Mof_C 	C 	0.6668	0.7462	0.1981	-0.11
Mof_H 	H 	0.6316	0.7211	0.1641	0.074
Mof_C 	C 	0.8006	0.7753	0.323	-0.118
Mof_H 	H 	0.856	0.7714	0.3782	0.076
Mof_C 	C 	0.7452	0.7385	0.2808	0.063
Mof_C 	C 	0.7689	0.6904	0.3147	0.035
Mof_C 	C 	0.7031	0.6545	0.2745	-0.092
Mof_H 	H 	0.6404	0.66	0.2256	0.071
Mof_C 	C 	0.8642	0.6797	0.3844	-0.085
Mof_H 	H 	0.9109	0.7032	0.414	0.067
Mof_C 	C 	0.7284	0.6095	0.3055	0.031
Mof_H 	H 	0.6783	0.5861	0.2802	0.04
Mof_C 	C 	0.8912	0.6343	0.4109	0.022
Mof_H 	H 	0.9568	0.6281	0.4566	0.053
Mof_C 	C 	0.8234	0.5988	0.3711	-0.095
Mof_C 	C 	0.8517	0.55	0.3933	0.315
Mof_C 	C 	0.8288	0.9542	0.9934	0.14
Mof_H 	H 	0.8603	0.9592	0.0575	0.013
Mof_C 	C 	0.6712	0.9408	0.8781	0.151
Mof_H 	H 	0.5919	0.936	0.8612	-0.003
Mof_C 	C 	0.9023	0.9526	0.9288	-0.231
Mof_H 	H 	0.9816	0.956	0.9485	0.134
Mof_C 	C 	0.7357	0.9389	0.8078	-0.236
Mof_H 	H 	0.7017	0.9332	0.7446	0.147
Mof_C 	C 	0.8545	0.9457	0.8343	0.233
Mof_C 	C 	0.9229	0.9076	0.7022	0.221
Mof_C 	C 	0.9857	0.9873	0.752	0.231
Mof_C 	C 	0.0528	0.9887	0.6737	-0.049
Mof_C 	C 	0.9875	0.9107	0.6216	-0.052
Mof_C 	C 	0.0507	0.9509	0.6119	0.026
Mof_C 	C 	0.1157	0.0271	0.6616	-0.027
Mof_H 	H 	0.1168	0.0518	0.7031	0.078
Mof_C 	C 	0.9885	0.8748	0.5624	-0.034
Mof_H 	H 	0.9439	0.849	0.5683	0.058
Mof_C 	C 	0.1777	0.0294	0.5876	-0.017
Mof_H 	H 	0.2194	0.0558	0.5799	0.061
Mof_C 	C 	0.0575	0.8766	0.4915	-0.021
Mof_H 	H 	0.061	0.8511	0.453	0.055
Mof_C 	C 	0.1785	0.9935	0.5259	-0.058
Mof_C 	C 	0.1187	0.9144	0.478	-0.061
Mof_C 	C 	0.1159	0.9526	0.5388	0.034
Mof_C 	C 	0.2405	0.9967	0.4446	0.217
Mof_C 	C 	0.193	0.9151	0.4054	0.227
Mof_C 	C 	0.3226	0.9583	0.322	0.259
Mof_C 	C 	0.4334	0.9723	0.3478	-0.261
Mof_H 	H 	0.462	0.9812	0.4105	0.141
Mof_C 	C 	0.2849	0.9455	0.2291	-0.255
Mof_H 	H 	0.2086	0.9365	0.2083	0.155
Mof_C 	C 	0.503	0.9733	0.2808	0.163
Mof_H 	H 	0.5785	0.9836	0.2997	-0.007
Mof_C 	C 	0.361	0.9459	0.1669	0.159
Mof_H 	H 	0.3355	0.9355	0.1047	-0.004
Mof_N 	N 	0.7153	0.94894	0.9691	-0.169
Mof_N 	N 	0.925	0.94666	0.7612	-0.195
Mof_N 	N 	0.2469	0.95702	0.39	-0.201
Mof_N 	N 	0.4699	0.9604	0.1914	-0.176
Mof_O 	O 	0.7213	0.9075	0.2059	-0.273
Mof_O 	O 	0.587	0.87715	0.0964	-0.28
Mof_O 	O 	0.9382	0.54051	0.4576	-0.291
Mof_O 	O 	0.7909	0.51946	0.3491	-0.275
Mof_O 	O 	0.9814	0.01891	0.8037	-0.235
Mof_O 	O 	0.8713	0.8739	0.7176	-0.222
Mof_O 	O 	0.2079	0.88217	0.3597	-0.224
Mof_O 	O 	0.2824	0.03227	0.4238	-0.231
Mof_Cd	Cd	0.59952	0.95624	0.08574	0.461
Mof_C 	C 	0.8334	0.3741	0.3317	0.322
Mof_C 	C 	0.8054	0.3269	0.292	-0.103
Mof_C 	C 	0.8617	0.2899	0.3367	0.045
Mof_H 	H 	0.9192	0.294	0.3904	0.033
Mof_C 	C 	0.7225	0.3183	0.2133	0.052
Mof_H 	H 	0.68	0.3427	0.1832	0.03
Mof_C 	C 	0.8332	0.2462	0.3019	-0.11
Mof_H 	H 	0.8684	0.2211	0.3359	0.074
Mof_C 	C 	0.6994	0.2753	0.177	-0.118
Mof_H 	H 	0.644	0.2714	0.1218	0.076
Mof_C 	C 	0.7548	0.2385	0.2192	0.063
Mof_C 	C 	0.7311	0.1904	0.1853	0.035
Mof_C 	C 	0.7969	0.1545	0.2255	-0.092
Mof_H 	H 	0.8596	0.16	0.2744	0.071
Mof_C 	C 	0.6358	0.1797	0.1156	-0.085
Mof_H 	H 	0.5891	0.2032	0.086	0.067
Mof_C 	C 	0.7716	0.1095	0.1945	0.031
Mof_H 	H 	0.8217	0.0861	0.2198	0.04
Mof_C 	C 	0.6088	0.1343	0.0891	0.022
Mof_H 	H 	0.5432	0.1281	0.0434	0.053
Mof_C 	C 	0.6766	0.0988	0.1289	-0.095
Mof_C 	C 	0.6483	0.05	0.1067	0.315
Mof_C 	C 	0.6712	0.4542	0.5066	0.137
Mof_H 	H 	0.6397	0.4592	0.4425	0.014
Mof_C 	C 	0.8288	0.4408	0.6219	0.15
Mof_H 	H 	0.9081	0.436	0.6388	-0.003
Mof_C 	C 	0.5977	0.4526	0.5712	-0.23
Mof_H 	H 	0.5184	0.456	0.5515	0.134
Mof_C 	C 	0.7643	0.4389	0.6922	-0.235
Mof_H 	H 	0.7983	0.4332	0.7554	0.147
Mof_C 	C 	0.6455	0.4457	0.6657	0.233
Mof_C 	C 	0.5771	0.4076	0.7978	0.221
Mof_C 	C 	0.5143	0.4873	0.748	0.231
Mof_C 	C 	0.4472	0.4887	0.8263	-0.05
Mof_C 	C 	0.5125	0.4107	0.8784	-0.052
Mof_C 	C 	0.4493	0.4509	0.8881	0.027
Mof_C 	C 	0.3843	0.5271	0.8384	-0.026
Mof_H 	H 	0.3832	0.5518	0.7969	0.078
Mof_C 	C 	0.5115	0.3748	0.9376	-0.034
Mof_H 	H 	0.5561	0.349	0.9317	0.057
Mof_C 	C 	0.3223	0.5294	0.9124	-0.016
Mof_H 	H 	0.2806	0.5558	0.9201	0.061
Mof_C 	C 	0.4425	0.3766	0.0085	-0.022
Mof_H 	H 	0.439	0.3511	0.047	0.055
Mof_C 	C 	0.3215	0.4935	0.9741	-0.058
Mof_C 	C 	0.3813	0.4144	0.022	-0.061
Mof_C 	C 	0.3841	0.4526	0.9612	0.034
Mof_C 	C 	0.2595	0.4967	0.0554	0.217
Mof_C 	C 	0.307	0.4151	0.0946	0.227
Mof_C 	C 	0.1774	0.4583	0.178	0.258
Mof_C 	C 	0.0666	0.4723	0.1522	-0.26
Mof_H 	H 	0.038	0.4812	0.0895	0.141
Mof_C 	C 	0.2151	0.4455	0.2709	-0.254
Mof_H 	H 	0.2914	0.4365	0.2917	0.154
Mof_C 	C 	0.997	0.4733	0.2192	0.161
Mof_H 	H 	0.9215	0.4836	0.2003	-0.006
Mof_C 	C 	0.139	0.4459	0.3331	0.159
Mof_H 	H 	0.1645	0.4355	0.3953	-0.004
Mof_N 	N 	0.7847	0.44894	0.5309	-0.169
Mof_N 	N 	0.575	0.44666	0.7388	-0.195
Mof_N 	N 	0.2531	0.45702	0.11	-0.2
Mof_N 	N 	0.0301	0.4604	0.3086	-0.175
Mof_O 	O 	0.7787	0.4075	0.2941	-0.273
Mof_O 	O 	0.913	0.37715	0.4036	-0.279
Mof_O 	O 	0.5618	0.04051	0.0424	-0.291
Mof_O 	O 	0.7091	0.01946	0.1509	-0.275
Mof_O 	O 	0.5186	0.51891	0.6963	-0.236
Mof_O 	O 	0.6287	0.3739	0.7824	-0.222
Mof_O 	O 	0.2921	0.38217	0.1403	-0.224
Mof_O 	O 	0.2176	0.53227	0.0762	-0.231
Mof_Cd	Cd	0.90048	0.45624	0.41426	0.461
_end
