# CIF file generated by openbabel 3.1.0, see https://openbabel.org
data_I
_chemical_name_common 'image0'
_cell_length_a 7.3053
_cell_length_b 17.5056
_cell_length_c 12.6731
_cell_angle_alpha 90
_cell_angle_beta 90
_cell_angle_gamma 90
_space_group_name_H-M_alt 'P 1'
_space_group_name_Hall 'P 1'
loop_
    _symmetry_equiv_pos_as_xyz
    x,y,z
loop_
    _atom_site_label
    _atom_site_type_symbol
    _atom_site_fract_x
    _atom_site_fract_y
    _atom_site_fract_z
    _atom_site_occupancy
    O1       O        0.34400    0.16631    0.64993    1.000
    O2       O        0.65080    0.16382    0.65647    1.000
    C1       C        0.49750    0.06727    0.56130    1.000
    C2       C        0.55910    0.06963    0.45670    1.000
    C3       C        0.61820    0.13911    0.40790    1.000
    C4       C        0.67780    0.14040    0.30730    1.000
    C5       C        0.68510    0.07300    0.24670    1.000
    C6       C        0.63030    0.00628    0.28850    1.000
    C7       C        0.56470    0.00120    0.39440    1.000
    C8       C        0.49780    0.13890    0.62870    1.000
    H1       H        0.61700    0.18410    0.44780    1.000
    H2       H        0.71540    0.18690    0.27710    1.000
    H3       H        0.72800    0.07490    0.17660    1.000
    H4       H        0.63480    0.96170    0.24730    1.000
    O3       O        0.15600    0.83369    0.14993    1.000
    O4       O        0.84920    0.83618    0.15647    1.000
    C9       C        0.00250    0.93273    0.06130    1.000
    C10      C        0.94090    0.93037    0.95670    1.000
    C11      C        0.88180    0.86089    0.90790    1.000
    C12      C        0.82220    0.85960    0.80730    1.000
    C13      C        0.81490    0.92700    0.74670    1.000
    C14      C        0.86970    0.99372    0.78850    1.000
    C15      C        0.93530    0.99880    0.89440    1.000
    C16      C        0.00220    0.86110    0.12870    1.000
    H5       H        0.88300    0.81590    0.94780    1.000
    H6       H        0.78460    0.81310    0.77710    1.000
    H7       H        0.77200    0.92510    0.67660    1.000
    H8       H        0.86520    0.03830    0.74730    1.000
    O5       O        0.65600    0.66631    0.35007    1.000
    O6       O        0.34920    0.66382    0.34353    1.000
    C17      C        0.50250    0.56727    0.43870    1.000
    C18      C        0.44090    0.56963    0.54330    1.000
    C19      C        0.38180    0.63911    0.59210    1.000
    C20      C        0.32220    0.64040    0.69270    1.000
    C21      C        0.31490    0.57300    0.75330    1.000
    C22      C        0.36970    0.50628    0.71150    1.000
    C23      C        0.43530    0.50120    0.60560    1.000
    C24      C        0.50220    0.63890    0.37130    1.000
    H9       H        0.38300    0.68410    0.55220    1.000
    H10      H        0.28460    0.68690    0.72290    1.000
    H11      H        0.27200    0.57490    0.82340    1.000
    H12      H        0.36520    0.46170    0.75270    1.000
    O7       O        0.84400    0.33369    0.85007    1.000
    O8       O        0.15080    0.33618    0.84353    1.000
    C25      C        0.99750    0.43273    0.93870    1.000
    C26      C        0.05910    0.43037    0.04330    1.000
    C27      C        0.11820    0.36089    0.09210    1.000
    C28      C        0.17780    0.35960    0.19270    1.000
    C29      C        0.18510    0.42700    0.25330    1.000
    C30      C        0.13030    0.49372    0.21150    1.000
    C31      C        0.06470    0.49880    0.10560    1.000
    C32      C        0.99780    0.36110    0.87130    1.000
    H13      H        0.11700    0.31590    0.05220    1.000
    H14      H        0.21540    0.31310    0.22290    1.000
    H15      H        0.22800    0.42510    0.32340    1.000
    H16      H        0.13480    0.53830    0.25270    1.000
    O9       O        0.65600    0.83369    0.35007    1.000
    O10      O        0.34920    0.83618    0.34353    1.000
    C33      C        0.50250    0.93273    0.43870    1.000
    C34      C        0.44090    0.93037    0.54330    1.000
    C35      C        0.38180    0.86089    0.59210    1.000
    C36      C        0.32220    0.85960    0.69270    1.000
    C37      C        0.31490    0.92700    0.75330    1.000
    C38      C        0.36970    0.99372    0.71150    1.000
    C39      C        0.43530    0.99880    0.60560    1.000
    C40      C        0.50220    0.86110    0.37130    1.000
    H17      H        0.38300    0.81590    0.55220    1.000
    H18      H        0.28460    0.81310    0.72290    1.000
    H19      H        0.27200    0.92510    0.82340    1.000
    H20      H        0.36520    0.03830    0.75270    1.000
    O11      O        0.84400    0.16631    0.85007    1.000
    O12      O        0.15080    0.16382    0.84353    1.000
    C41      C        0.99750    0.06727    0.93870    1.000
    C42      C        0.05910    0.06963    0.04330    1.000
    C43      C        0.11820    0.13911    0.09210    1.000
    C44      C        0.17780    0.14040    0.19270    1.000
    C45      C        0.18510    0.07300    0.25330    1.000
    C46      C        0.13030    0.00628    0.21150    1.000
    C47      C        0.06470    0.00120    0.10560    1.000
    C48      C        0.99780    0.13890    0.87130    1.000
    H21      H        0.11700    0.18410    0.05220    1.000
    H22      H        0.21540    0.18690    0.22290    1.000
    H23      H        0.22800    0.07490    0.32340    1.000
    H24      H        0.13480    0.96170    0.25270    1.000
    O13      O        0.34400    0.33369    0.64993    1.000
    O14      O        0.65080    0.33618    0.65647    1.000
    C49      C        0.49750    0.43273    0.56130    1.000
    C50      C        0.55910    0.43037    0.45670    1.000
    C51      C        0.61820    0.36089    0.40790    1.000
    C52      C        0.67780    0.35960    0.30730    1.000
    C53      C        0.68510    0.42700    0.24670    1.000
    C54      C        0.63030    0.49372    0.28850    1.000
    C55      C        0.56470    0.49880    0.39440    1.000
    C56      C        0.49780    0.36110    0.62870    1.000
    H25      H        0.61700    0.31590    0.44780    1.000
    H26      H        0.71540    0.31310    0.27710    1.000
    H27      H        0.72800    0.42510    0.17660    1.000
    H28      H        0.63480    0.53830    0.24730    1.000
    O15      O        0.15600    0.66631    0.14993    1.000
    O16      O        0.84920    0.66382    0.15647    1.000
    C57      C        0.00250    0.56727    0.06130    1.000
    C58      C        0.94090    0.56963    0.95670    1.000
    C59      C        0.88180    0.63911    0.90790    1.000
    C60      C        0.82220    0.64040    0.80730    1.000
    C61      C        0.81490    0.57300    0.74670    1.000
    C62      C        0.86970    0.50628    0.78850    1.000
    C63      C        0.93530    0.50120    0.89440    1.000
    C64      C        0.00220    0.63890    0.12870    1.000
    H29      H        0.88300    0.68410    0.94780    1.000
    H30      H        0.78460    0.68690    0.77710    1.000
    H31      H        0.77200    0.57490    0.67660    1.000
    H32      H        0.86520    0.46170    0.74730    1.000
    Zn1      Zn       0.24380    0.25000    0.74642    1.000
    Zn2      Zn       0.25620    0.75000    0.24642    1.000
    Zn3      Zn       0.75620    0.75000    0.25358    1.000
    Zn4      Zn       0.74380    0.25000    0.75358    1.000
