data_functionalizedCrystal
_audit_creation_method	'EQeq! by Chris Wilmer'
_symmetry_space_group_name_H-M	'P1'
_symmetry_Int_Tables_number	1
_symmetry_cell_setting	triclinic
loop_
_symmetry_equiv_pos_as_xyz
  x,y,z
_cell_length_a	27.798
_cell_length_b	16.2
_cell_length_c	19.129
_cell_angle_alpha	90
_cell_angle_beta	98.338
_cell_angle_gamma	90
loop_
_atom_site_label
_atom_site_type_symbol
_atom_site_fract_x
_atom_site_fract_y
_atom_site_fract_z
_atom_site_charge
Mof_Cu	Cu	0.0218	0.38099	0.07243	0.908
Mof_O 	O 	0.99275	0.27159	0.06301	-0.402
Mof_O 	O 	0.992	0.25729	0.17791	-0.172
Mof_O 	O 	0.57085	0.10556	0.84456	-0.276
Mof_O 	O 	0.54486	0.07305	0.94669	-0.432
Mof_O 	O 	0.04752	0.49197	0.09276	-0.439
Mof_O 	O 	0.0108	0.50054	0.19137	-0.323
Mof_O 	O 	0.41397	0.83481	0.39006	-0.434
Mof_O 	O 	0.42444	0.8622	0.27662	-0.309
Mof_O 	O 	0.05411	0.47469	0.205	-0.298
Mof_O 	O 	0.96777	0.28036	0.16529	-0.322
Mof_O 	O 	0.54689	0.04562	0.83701	-0.309
Mof_O 	O 	0.43004	0.80173	0.28759	-0.285
Mof_N 	N 	0.88216	0.03728	0.06301	-0.111
Mof_N 	N 	0.71287	0.96975	0.96578	-0.112
Mof_N 	N 	0.09851	0.76595	0.19028	-0.11
Mof_N 	N 	0.25314	0.76833	0.25876	-0.108
Mof_C 	C 	0.97527	0.24119	0.11251	0.459
Mof_C 	C 	0.94437	0.16559	0.09637	-0.072
Mof_C 	C 	0.91624	0.13627	0.14512	-0.031
Mof_H 	H 	0.9185	0.16	0.1897	0.07
Mof_C 	C 	0.88503	0.07178	0.12668	0.027
Mof_H 	H 	0.8657	0.052	0.1588	0.027
Mof_C 	C 	0.91047	0.06268	0.01581	0.027
Mof_H 	H 	0.9087	0.0363	0.9723	0.029
Mof_C 	C 	0.94189	0.12726	0.0317	-0.031
Mof_H 	H 	0.9614	0.1451	0.9991	0.063
Mof_C 	C 	0.8462	0.9711	0.04347	-0.041
Mof_H 	H 	0.8419	0.9394	0.0851	0.045
Mof_H 	H 	0.858	0.9341	0.0099	0.05
Mof_C 	C 	0.79774	0.00813	0.01094	-0.131
Mof_H 	H 	0.7848	0.0428	0.0452	0.076
Mof_H 	H 	0.802	0.0418	0.9703	0.072
Mof_C 	C 	0.76283	0.93744	0.98844	-0.044
Mof_H 	H 	0.7737	0.9075	0.9497	0.045
Mof_H 	H 	0.7625	0.8995	0.0276	0.045
Mof_C 	C 	0.68222	0.97585	0.01306	0.029
Mof_H 	H 	0.6924	0.9598	0.0595	0.027
Mof_C 	C 	0.63593	0.00548	0.99414	-0.045
Mof_H 	H 	0.6148	0.0097	0.0275	0.071
Mof_C 	C 	0.62108	0.02903	0.92468	-0.081
Mof_C 	C 	0.65326	0.02158	0.87595	-0.029
Mof_H 	H 	0.6438	0.0366	0.829	0.069
Mof_C 	C 	0.69902	0.9919	0.89785	0.017
Mof_H 	H 	0.7208	0.9869	0.8655	0.027
Mof_C 	C 	0.57061	0.0624	0.90211	0.487
Mof_C 	C 	0.04593	0.52296	0.15042	0.48
Mof_C 	C 	0.0624	0.6106	0.1631	-0.092
Mof_C 	C 	0.07724	0.65763	0.10945	-0.038
Mof_H 	H 	0.0749	0.6367	0.0638	0.062
Mof_C 	C 	0.09532	0.73518	0.12451	0.018
Mof_H 	H 	0.1055	0.7669	0.0889	0.029
Mof_C 	C 	0.08174	0.72326	0.24224	0.009
Mof_H 	H 	0.0823	0.7468	0.2867	0.024
Mof_C 	C 	0.06385	0.64502	0.22939	-0.026
Mof_H 	H 	0.0527	0.6151	0.2653	0.06
Mof_C 	C 	0.12411	0.84594	0.20774	-0.041
Mof_H 	H 	0.1197	0.8629	0.255	0.04
Mof_H 	H 	0.1101	0.8881	0.1749	0.038
Mof_C 	C 	0.17815	0.83774	0.20362	-0.124
Mof_H 	H 	0.183	0.841	0.1545	0.066
Mof_H 	H 	0.1952	0.8838	0.2284	0.068
Mof_C 	C 	0.20015	0.75777	0.23495	-0.044
Mof_H 	H 	0.1842	0.7417	0.2747	0.052
Mof_H 	H 	0.195	0.7143	0.1998	0.053
Mof_C 	C 	0.28377	0.77504	0.21012	0.01
Mof_H 	H 	0.272	0.7694	0.1623	0.03
Mof_C 	C 	0.33207	0.79016	0.23156	-0.021
Mof_H 	H 	0.3532	0.7948	0.1983	0.062
Mof_C 	C 	0.34934	0.79847	0.30265	-0.092
Mof_C 	C 	0.31797	0.78808	0.35177	-0.027
Mof_H 	H 	0.3294	0.791	0.3999	0.051
Mof_C 	C 	0.26938	0.77321	0.3283	0.013
Mof_H 	H 	0.2478	0.7665	0.3608	0.025
Mof_C 	C 	0.40151	0.82319	0.32695	0.491
Mof_Cu	Cu	0.5218	0.88099	0.07243	0.93
Mof_O 	O 	0.49275	0.77159	0.06301	-0.436
Mof_O 	O 	0.492	0.75729	0.17791	-0.225
Mof_O 	O 	0.07085	0.60556	0.84456	-0.269
Mof_O 	O 	0.04486	0.57305	0.94669	-0.452
Mof_O 	O 	0.54752	0.99197	0.09276	-0.429
Mof_O 	O 	0.5108	0.00054	0.19137	-0.3
Mof_O 	O 	0.91397	0.33481	0.39006	-0.417
Mof_O 	O 	0.92444	0.3622	0.27662	-0.291
Mof_O 	O 	0.55411	0.97469	0.205	-0.309
Mof_O 	O 	0.46777	0.78036	0.16529	-0.326
Mof_O 	O 	0.04689	0.54562	0.83701	-0.322
Mof_O 	O 	0.93004	0.30173	0.28759	-0.259
Mof_N 	N 	0.38216	0.53728	0.06301	-0.111
Mof_N 	N 	0.21287	0.46975	0.96578	-0.113
Mof_N 	N 	0.59851	0.26595	0.19028	-0.109
Mof_N 	N 	0.75314	0.26833	0.25876	-0.11
Mof_C 	C 	0.47527	0.74119	0.11251	0.474
Mof_C 	C 	0.44437	0.66559	0.09637	-0.092
Mof_C 	C 	0.41624	0.63627	0.14512	-0.023
Mof_H 	H 	0.4185	0.66	0.1897	0.059
Mof_C 	C 	0.38503	0.57178	0.12668	0.017
Mof_H 	H 	0.3657	0.552	0.1588	0.026
Mof_C 	C 	0.41047	0.56268	0.01581	0.015
Mof_H 	H 	0.4087	0.5363	0.9723	0.027
Mof_C 	C 	0.44189	0.62726	0.0317	-0.026
Mof_H 	H 	0.4614	0.6451	0.9991	0.053
Mof_C 	C 	0.3462	0.4711	0.04347	-0.035
Mof_H 	H 	0.3419	0.4394	0.0851	0.041
Mof_H 	H 	0.358	0.4341	0.0099	0.044
Mof_C 	C 	0.29774	0.50813	0.01094	-0.14
Mof_H 	H 	0.2848	0.5428	0.0452	0.078
Mof_H 	H 	0.302	0.5418	0.9703	0.076
Mof_C 	C 	0.26283	0.43744	0.98844	-0.035
Mof_H 	H 	0.2737	0.4075	0.9497	0.042
Mof_H 	H 	0.2625	0.3995	0.0276	0.04
Mof_C 	C 	0.18222	0.47585	0.01306	0.023
Mof_H 	H 	0.1924	0.4598	0.0595	0.028
Mof_C 	C 	0.13593	0.50548	0.99414	-0.039
Mof_H 	H 	0.1148	0.5097	0.0275	0.067
Mof_C 	C 	0.12108	0.52903	0.92468	-0.086
Mof_C 	C 	0.15326	0.52158	0.87595	-0.027
Mof_H 	H 	0.1438	0.5366	0.829	0.068
Mof_C 	C 	0.19902	0.4919	0.89785	0.016
Mof_H 	H 	0.2208	0.4869	0.8655	0.028
Mof_C 	C 	0.07061	0.5624	0.90211	0.487
Mof_C 	C 	0.54593	0.02296	0.15042	0.483
Mof_C 	C 	0.5624	0.1106	0.1631	-0.083
Mof_C 	C 	0.57724	0.15763	0.10945	-0.038
Mof_H 	H 	0.5749	0.1367	0.0638	0.066
Mof_C 	C 	0.59532	0.23518	0.12451	0.023
Mof_H 	H 	0.6055	0.2669	0.0889	0.029
Mof_C 	C 	0.58174	0.22326	0.24224	0.016
Mof_H 	H 	0.5823	0.2468	0.2867	0.029
Mof_C 	C 	0.56385	0.14502	0.22939	-0.026
Mof_H 	H 	0.5527	0.1151	0.2653	0.072
Mof_C 	C 	0.62411	0.34594	0.20774	-0.045
Mof_H 	H 	0.6197	0.3629	0.255	0.045
Mof_H 	H 	0.6101	0.3881	0.1749	0.044
Mof_C 	C 	0.67815	0.33774	0.20362	-0.122
Mof_H 	H 	0.683	0.341	0.1545	0.066
Mof_H 	H 	0.6952	0.3838	0.2284	0.068
Mof_C 	C 	0.70015	0.25777	0.23495	-0.045
Mof_H 	H 	0.6842	0.2417	0.2747	0.052
Mof_H 	H 	0.695	0.2143	0.1998	0.053
Mof_C 	C 	0.78377	0.27504	0.21012	0.014
Mof_H 	H 	0.772	0.2694	0.1623	0.028
Mof_C 	C 	0.83207	0.29016	0.23156	-0.028
Mof_H 	H 	0.8532	0.2948	0.1983	0.065
Mof_C 	C 	0.84934	0.29847	0.30265	-0.081
Mof_C 	C 	0.81797	0.28808	0.35177	-0.033
Mof_H 	H 	0.8294	0.291	0.3999	0.055
Mof_C 	C 	0.76938	0.27321	0.3283	0.017
Mof_H 	H 	0.7478	0.2665	0.3608	0.024
Mof_C 	C 	0.90151	0.32319	0.32695	0.474
Mof_Cu	Cu	0.9782	0.38099	0.42757	0.956
Mof_O 	O 	0.00725	0.27159	0.43699	-0.459
Mof_O 	O 	0.008	0.25729	0.32209	-0.255
Mof_O 	O 	0.42915	0.10556	0.65544	-0.277
Mof_O 	O 	0.45514	0.07305	0.55331	-0.433
Mof_O 	O 	0.95248	0.49197	0.40724	-0.411
Mof_O 	O 	0.9892	0.50054	0.30863	-0.248
Mof_O 	O 	0.58603	0.83481	0.10994	-0.435
Mof_O 	O 	0.57556	0.8622	0.22338	-0.31
Mof_O 	O 	0.94589	0.47469	0.295	-0.297
Mof_O 	O 	0.03223	0.28036	0.33471	-0.301
Mof_O 	O 	0.45311	0.04562	0.66299	-0.31
Mof_O 	O 	0.56996	0.80173	0.21241	-0.286
Mof_N 	N 	0.11784	0.03728	0.43699	-0.111
Mof_N 	N 	0.28713	0.96975	0.53422	-0.114
Mof_N 	N 	0.90149	0.76595	0.30972	-0.109
Mof_N 	N 	0.74686	0.76833	0.24124	-0.108
Mof_C 	C 	0.02473	0.24119	0.38749	0.47
Mof_C 	C 	0.05563	0.16559	0.40363	-0.1
Mof_C 	C 	0.08376	0.13627	0.35488	-0.023
Mof_H 	H 	0.0815	0.16	0.3103	0.054
Mof_C 	C 	0.11497	0.07178	0.37332	0.011
Mof_H 	H 	0.1343	0.052	0.3412	0.026
Mof_C 	C 	0.08953	0.06268	0.48419	0.008
Mof_H 	H 	0.0913	0.0363	0.5277	0.023
Mof_C 	C 	0.05811	0.12726	0.4683	-0.025
Mof_H 	H 	0.0386	0.1451	0.5009	0.043
Mof_C 	C 	0.1538	0.9711	0.45653	-0.034
Mof_H 	H 	0.1581	0.9394	0.4149	0.038
Mof_H 	H 	0.142	0.9341	0.4901	0.039
Mof_C 	C 	0.20226	0.00813	0.48906	-0.141
Mof_H 	H 	0.2152	0.0428	0.4548	0.079
Mof_H 	H 	0.198	0.0418	0.5297	0.075
Mof_C 	C 	0.23717	0.93744	0.51156	-0.035
Mof_H 	H 	0.2263	0.9075	0.5503	0.041
Mof_H 	H 	0.2375	0.8995	0.4724	0.04
Mof_C 	C 	0.31778	0.97585	0.48694	0.027
Mof_H 	H 	0.3076	0.9598	0.4405	0.027
Mof_C 	C 	0.36407	0.00548	0.50586	-0.042
Mof_H 	H 	0.3852	0.0097	0.4725	0.07
Mof_C 	C 	0.37892	0.02903	0.57532	-0.082
Mof_C 	C 	0.34674	0.02158	0.62405	-0.029
Mof_H 	H 	0.3562	0.0366	0.671	0.069
Mof_C 	C 	0.30098	0.9919	0.60215	0.018
Mof_H 	H 	0.2792	0.9869	0.6345	0.027
Mof_C 	C 	0.42939	0.0624	0.59789	0.487
Mof_C 	C 	0.95407	0.52296	0.34958	0.465
Mof_C 	C 	0.9376	0.6106	0.3369	-0.065
Mof_C 	C 	0.92276	0.65763	0.39055	-0.045
Mof_H 	H 	0.9251	0.6367	0.4362	0.071
Mof_C 	C 	0.90468	0.73518	0.37549	0.032
Mof_H 	H 	0.8945	0.7669	0.4111	0.027
Mof_C 	C 	0.91826	0.72326	0.25776	0.027
Mof_H 	H 	0.9177	0.7468	0.2133	0.034
Mof_C 	C 	0.93615	0.64502	0.27061	-0.033
Mof_H 	H 	0.9473	0.6151	0.2347	0.086
Mof_C 	C 	0.87589	0.84594	0.29226	-0.048
Mof_H 	H 	0.8803	0.8629	0.245	0.05
Mof_H 	H 	0.8899	0.8881	0.3251	0.05
Mof_C 	C 	0.82185	0.83774	0.29638	-0.119
Mof_H 	H 	0.817	0.841	0.3455	0.065
Mof_H 	H 	0.8048	0.8838	0.2716	0.068
Mof_C 	C 	0.79985	0.75777	0.26505	-0.047
Mof_H 	H 	0.8158	0.7417	0.2253	0.053
Mof_H 	H 	0.805	0.7143	0.3002	0.053
Mof_C 	C 	0.71623	0.77504	0.28988	0.01
Mof_H 	H 	0.728	0.7694	0.3377	0.03
Mof_C 	C 	0.66793	0.79016	0.26844	-0.021
Mof_H 	H 	0.6468	0.7948	0.3017	0.062
Mof_C 	C 	0.65066	0.79847	0.19735	-0.092
Mof_C 	C 	0.68203	0.78808	0.14823	-0.027
Mof_H 	H 	0.6706	0.791	0.1001	0.051
Mof_C 	C 	0.73062	0.77321	0.1717	0.013
Mof_H 	H 	0.7522	0.7665	0.1392	0.026
Mof_C 	C 	0.59849	0.82319	0.17305	0.491
Mof_Cu	Cu	0.4782	0.88099	0.42757	0.93
Mof_O 	O 	0.50725	0.77159	0.43699	-0.436
Mof_O 	O 	0.508	0.75729	0.32209	-0.225
Mof_O 	O 	0.92915	0.60556	0.65544	-0.266
Mof_O 	O 	0.95514	0.57305	0.55331	-0.406
Mof_O 	O 	0.45248	0.99197	0.40724	-0.429
Mof_O 	O 	0.4892	0.00054	0.30863	-0.3
Mof_O 	O 	0.08603	0.33481	0.10994	-0.444
Mof_O 	O 	0.07556	0.3622	0.22338	-0.294
Mof_O 	O 	0.44589	0.97469	0.295	-0.309
Mof_O 	O 	0.53223	0.78036	0.33471	-0.326
Mof_O 	O 	0.95311	0.54562	0.66299	-0.27
Mof_O 	O 	0.06996	0.30173	0.21241	-0.296
Mof_N 	N 	0.61784	0.53728	0.43699	-0.111
Mof_N 	N 	0.78713	0.46975	0.53422	-0.115
Mof_N 	N 	0.40149	0.26595	0.30972	-0.109
Mof_N 	N 	0.24686	0.26833	0.24124	-0.109
Mof_C 	C 	0.52473	0.74119	0.38749	0.474
Mof_C 	C 	0.55563	0.66559	0.40363	-0.092
Mof_C 	C 	0.58376	0.63627	0.35488	-0.023
Mof_H 	H 	0.5815	0.66	0.3103	0.059
Mof_C 	C 	0.61497	0.57178	0.37332	0.017
Mof_H 	H 	0.6343	0.552	0.3412	0.026
Mof_C 	C 	0.58953	0.56268	0.48419	0.015
Mof_H 	H 	0.5913	0.5363	0.5277	0.027
Mof_C 	C 	0.55811	0.62726	0.4683	-0.026
Mof_H 	H 	0.5386	0.6451	0.5009	0.053
Mof_C 	C 	0.6538	0.4711	0.45653	-0.036
Mof_H 	H 	0.6581	0.4394	0.4149	0.041
Mof_H 	H 	0.642	0.4341	0.4901	0.044
Mof_C 	C 	0.70226	0.50813	0.48906	-0.139
Mof_H 	H 	0.7152	0.5428	0.4548	0.078
Mof_H 	H 	0.698	0.5418	0.5297	0.075
Mof_C 	C 	0.73717	0.43744	0.51156	-0.036
Mof_H 	H 	0.7263	0.4075	0.5503	0.042
Mof_H 	H 	0.7375	0.3995	0.4724	0.041
Mof_C 	C 	0.81778	0.47585	0.48694	0.03
Mof_H 	H 	0.8076	0.4598	0.4405	0.026
Mof_C 	C 	0.86407	0.50548	0.50586	-0.047
Mof_H 	H 	0.8852	0.5097	0.4725	0.073
Mof_C 	C 	0.87892	0.52903	0.57532	-0.07
Mof_C 	C 	0.84674	0.52158	0.62405	-0.035
Mof_H 	H 	0.8562	0.5366	0.671	0.071
Mof_C 	C 	0.80098	0.4919	0.60215	0.022
Mof_H 	H 	0.7792	0.4869	0.6345	0.026
Mof_C 	C 	0.92939	0.5624	0.59789	0.468
Mof_C 	C 	0.45407	0.02296	0.34958	0.483
Mof_C 	C 	0.4376	0.1106	0.3369	-0.083
Mof_C 	C 	0.42276	0.15763	0.39055	-0.038
Mof_H 	H 	0.4251	0.1367	0.4362	0.066
Mof_C 	C 	0.40468	0.23518	0.37549	0.023
Mof_H 	H 	0.3945	0.2669	0.4111	0.029
Mof_C 	C 	0.41826	0.22326	0.25776	0.016
Mof_H 	H 	0.4177	0.2468	0.2133	0.029
Mof_C 	C 	0.43615	0.14502	0.27061	-0.026
Mof_H 	H 	0.4473	0.1151	0.2347	0.072
Mof_C 	C 	0.37589	0.34594	0.29226	-0.045
Mof_H 	H 	0.3803	0.3629	0.245	0.045
Mof_H 	H 	0.3899	0.3881	0.3251	0.044
Mof_C 	C 	0.32185	0.33774	0.29638	-0.121
Mof_H 	H 	0.317	0.341	0.3455	0.066
Mof_H 	H 	0.3048	0.3838	0.2716	0.068
Mof_C 	C 	0.29985	0.25777	0.26505	-0.046
Mof_H 	H 	0.3158	0.2417	0.2253	0.053
Mof_H 	H 	0.305	0.2143	0.3002	0.053
Mof_C 	C 	0.21623	0.27504	0.28988	0.01
Mof_H 	H 	0.228	0.2694	0.3377	0.03
Mof_C 	C 	0.16793	0.29016	0.26844	-0.021
Mof_H 	H 	0.1468	0.2948	0.3017	0.062
Mof_C 	C 	0.15066	0.29847	0.19735	-0.093
Mof_C 	C 	0.18203	0.28808	0.14823	-0.027
Mof_H 	H 	0.1706	0.291	0.1001	0.049
Mof_C 	C 	0.23062	0.27321	0.1717	0.012
Mof_H 	H 	0.2522	0.2665	0.1392	0.025
Mof_C 	C 	0.09849	0.32319	0.17305	0.487
Mof_Cu	Cu	0.9782	0.61901	0.92757	0.955
Mof_O 	O 	0.00725	0.72841	0.93699	-0.458
Mof_O 	O 	0.008	0.74271	0.82209	-0.254
Mof_O 	O 	0.42915	0.89444	0.15544	-0.277
Mof_O 	O 	0.45514	0.92695	0.05331	-0.433
Mof_O 	O 	0.95248	0.50803	0.90724	-0.412
Mof_O 	O 	0.9892	0.49946	0.80863	-0.25
Mof_O 	O 	0.58603	0.16519	0.60994	-0.435
Mof_O 	O 	0.57556	0.1378	0.72338	-0.31
Mof_O 	O 	0.94589	0.52531	0.795	-0.297
Mof_O 	O 	0.03223	0.71964	0.83471	-0.301
Mof_O 	O 	0.45311	0.95438	0.16299	-0.31
Mof_O 	O 	0.56996	0.19827	0.71241	-0.286
Mof_N 	N 	0.11784	0.96272	0.93699	-0.111
Mof_N 	N 	0.28713	0.03025	0.03422	-0.114
Mof_N 	N 	0.90149	0.23405	0.80972	-0.109
Mof_N 	N 	0.74686	0.23167	0.74124	-0.108
Mof_C 	C 	0.02473	0.75881	0.88749	0.47
Mof_C 	C 	0.05563	0.83441	0.90363	-0.1
Mof_C 	C 	0.08376	0.86373	0.85488	-0.023
Mof_H 	H 	0.0815	0.84	0.8103	0.054
Mof_C 	C 	0.11497	0.92822	0.87332	0.011
Mof_H 	H 	0.1343	0.948	0.8412	0.026
Mof_C 	C 	0.08953	0.93732	0.98419	0.009
Mof_H 	H 	0.0913	0.9637	0.0277	0.023
Mof_C 	C 	0.05811	0.87274	0.9683	-0.025
Mof_H 	H 	0.0386	0.8549	0.0009	0.043
Mof_C 	C 	0.1538	0.0289	0.95653	-0.034
Mof_H 	H 	0.1581	0.0606	0.9149	0.038
Mof_H 	H 	0.142	0.0659	0.9901	0.039
Mof_C 	C 	0.20226	0.99187	0.98906	-0.14
Mof_H 	H 	0.2152	0.9572	0.9548	0.078
Mof_H 	H 	0.198	0.9582	0.0297	0.075
Mof_C 	C 	0.23717	0.06256	0.01156	-0.037
Mof_H 	H 	0.2263	0.0925	0.0503	0.041
Mof_H 	H 	0.2375	0.1005	0.9724	0.041
Mof_C 	C 	0.31778	0.02415	0.98694	0.027
Mof_H 	H 	0.3076	0.0402	0.9405	0.027
Mof_C 	C 	0.36407	0.99452	0.00586	-0.042
Mof_H 	H 	0.3852	0.9903	0.9725	0.069
Mof_C 	C 	0.37892	0.97097	0.07532	-0.082
Mof_C 	C 	0.34674	0.97842	0.12405	-0.028
Mof_H 	H 	0.3562	0.9634	0.171	0.069
Mof_C 	C 	0.30098	0.0081	0.10215	0.017
Mof_H 	H 	0.2792	0.0131	0.1345	0.027
Mof_C 	C 	0.42939	0.9376	0.09789	0.487
Mof_C 	C 	0.95407	0.47704	0.84958	0.466
Mof_C 	C 	0.9376	0.3894	0.8369	-0.065
Mof_C 	C 	0.92276	0.34237	0.89055	-0.044
Mof_H 	H 	0.9251	0.3633	0.9362	0.07
Mof_C 	C 	0.90468	0.26482	0.87549	0.031
Mof_H 	H 	0.8945	0.2331	0.9111	0.027
Mof_C 	C 	0.91826	0.27674	0.75776	0.027
Mof_H 	H 	0.9177	0.2532	0.7133	0.033
Mof_C 	C 	0.93615	0.35498	0.77061	-0.033
Mof_H 	H 	0.9473	0.3849	0.7347	0.086
Mof_C 	C 	0.87589	0.15406	0.79226	-0.048
Mof_H 	H 	0.8803	0.1371	0.745	0.05
Mof_H 	H 	0.8899	0.1119	0.8251	0.05
Mof_C 	C 	0.82185	0.16226	0.79638	-0.119
Mof_H 	H 	0.817	0.159	0.8455	0.065
Mof_H 	H 	0.8048	0.1162	0.7716	0.068
Mof_C 	C 	0.79985	0.24223	0.76505	-0.047
Mof_H 	H 	0.8158	0.2583	0.7253	0.053
Mof_H 	H 	0.805	0.2857	0.8002	0.053
Mof_C 	C 	0.71623	0.22496	0.78988	0.01
Mof_H 	H 	0.728	0.2306	0.8377	0.03
Mof_C 	C 	0.66793	0.20984	0.76844	-0.021
Mof_H 	H 	0.6468	0.2052	0.8017	0.062
Mof_C 	C 	0.65066	0.20153	0.69735	-0.092
Mof_C 	C 	0.68203	0.21192	0.64823	-0.027
Mof_H 	H 	0.6706	0.209	0.6001	0.051
Mof_C 	C 	0.73062	0.22679	0.6717	0.013
Mof_H 	H 	0.7522	0.2335	0.6392	0.026
Mof_C 	C 	0.59849	0.17681	0.67305	0.491
Mof_Cu	Cu	0.4782	0.11901	0.92757	0.93
Mof_O 	O 	0.50725	0.22841	0.93699	-0.436
Mof_O 	O 	0.508	0.24271	0.82209	-0.225
Mof_O 	O 	0.92915	0.39444	0.15544	-0.266
Mof_O 	O 	0.95514	0.42695	0.05331	-0.405
Mof_O 	O 	0.45248	0.00803	0.90724	-0.429
Mof_O 	O 	0.4892	0.99946	0.80863	-0.3
Mof_O 	O 	0.08603	0.66519	0.60994	-0.444
Mof_O 	O 	0.07556	0.6378	0.72338	-0.294
Mof_O 	O 	0.44589	0.02531	0.795	-0.309
Mof_O 	O 	0.53223	0.21964	0.83471	-0.326
Mof_O 	O 	0.95311	0.45438	0.16299	-0.269
Mof_O 	O 	0.06996	0.69827	0.71241	-0.296
Mof_N 	N 	0.61784	0.46272	0.93699	-0.111
Mof_N 	N 	0.78713	0.53025	0.03422	-0.113
Mof_N 	N 	0.40149	0.73405	0.80972	-0.109
Mof_N 	N 	0.24686	0.73167	0.74124	-0.108
Mof_C 	C 	0.52473	0.25881	0.88749	0.474
Mof_C 	C 	0.55563	0.33441	0.90363	-0.092
Mof_C 	C 	0.58376	0.36373	0.85488	-0.023
Mof_H 	H 	0.5815	0.34	0.8103	0.059
Mof_C 	C 	0.61497	0.42822	0.87332	0.017
Mof_H 	H 	0.6343	0.448	0.8412	0.026
Mof_C 	C 	0.58953	0.43732	0.98419	0.014
Mof_H 	H 	0.5913	0.4637	0.0277	0.028
Mof_C 	C 	0.55811	0.37274	0.9683	-0.027
Mof_H 	H 	0.5386	0.3549	0.0009	0.053
Mof_C 	C 	0.6538	0.5289	0.95653	-0.033
Mof_H 	H 	0.6581	0.5606	0.9149	0.04
Mof_H 	H 	0.642	0.5659	0.9901	0.043
Mof_C 	C 	0.70226	0.49187	0.98906	-0.145
Mof_H 	H 	0.7152	0.4572	0.9548	0.079
Mof_H 	H 	0.698	0.4582	0.0297	0.077
Mof_C 	C 	0.73717	0.56256	0.01156	-0.031
Mof_H 	H 	0.7263	0.5925	0.0503	0.041
Mof_H 	H 	0.7375	0.6005	0.9724	0.039
Mof_C 	C 	0.81778	0.52415	0.98694	0.023
Mof_H 	H 	0.8076	0.5402	0.9405	0.029
Mof_C 	C 	0.86407	0.49452	0.00586	-0.039
Mof_H 	H 	0.8852	0.4903	0.9725	0.068
Mof_C 	C 	0.87892	0.47097	0.07532	-0.074
Mof_C 	C 	0.84674	0.47842	0.12405	-0.033
Mof_H 	H 	0.8562	0.4634	0.171	0.07
Mof_C 	C 	0.80098	0.5081	0.10215	0.02
Mof_H 	H 	0.7792	0.5131	0.1345	0.026
Mof_C 	C 	0.92939	0.4376	0.09789	0.469
Mof_C 	C 	0.45407	0.97704	0.84958	0.483
Mof_C 	C 	0.4376	0.8894	0.8369	-0.083
Mof_C 	C 	0.42276	0.84237	0.89055	-0.038
Mof_H 	H 	0.4251	0.8633	0.9362	0.066
Mof_C 	C 	0.40468	0.76482	0.87549	0.023
Mof_H 	H 	0.3945	0.7331	0.9111	0.029
Mof_C 	C 	0.41826	0.77674	0.75776	0.016
Mof_H 	H 	0.4177	0.7532	0.7133	0.029
Mof_C 	C 	0.43615	0.85498	0.77061	-0.026
Mof_H 	H 	0.4473	0.8849	0.7347	0.072
Mof_C 	C 	0.37589	0.65406	0.79226	-0.045
Mof_H 	H 	0.3803	0.6371	0.745	0.045
Mof_H 	H 	0.3899	0.6119	0.8251	0.044
Mof_C 	C 	0.32185	0.66226	0.79638	-0.121
Mof_H 	H 	0.317	0.659	0.8455	0.066
Mof_H 	H 	0.3048	0.6162	0.7716	0.068
Mof_C 	C 	0.29985	0.74223	0.76505	-0.046
Mof_H 	H 	0.3158	0.7583	0.7253	0.053
Mof_H 	H 	0.305	0.7857	0.8002	0.053
Mof_C 	C 	0.21623	0.72496	0.78988	0.01
Mof_H 	H 	0.228	0.7306	0.8377	0.03
Mof_C 	C 	0.16793	0.70984	0.76844	-0.021
Mof_H 	H 	0.1468	0.7052	0.8017	0.062
Mof_C 	C 	0.15066	0.70153	0.69735	-0.093
Mof_C 	C 	0.18203	0.71192	0.64823	-0.027
Mof_H 	H 	0.1706	0.709	0.6001	0.049
Mof_C 	C 	0.23062	0.72679	0.6717	0.012
Mof_H 	H 	0.2522	0.7335	0.6392	0.025
Mof_C 	C 	0.09849	0.67681	0.67305	0.487
Mof_Cu	Cu	0.0218	0.61901	0.57243	0.907
Mof_O 	O 	0.99275	0.72841	0.56301	-0.403
Mof_O 	O 	0.992	0.74271	0.67791	-0.174
Mof_O 	O 	0.57085	0.89444	0.34456	-0.277
Mof_O 	O 	0.54486	0.92695	0.44669	-0.433
Mof_O 	O 	0.04752	0.50803	0.59276	-0.44
Mof_O 	O 	0.0108	0.49946	0.69137	-0.324
Mof_O 	O 	0.41397	0.16519	0.89006	-0.435
Mof_O 	O 	0.42444	0.1378	0.77662	-0.31
Mof_O 	O 	0.05411	0.52531	0.705	-0.299
Mof_O 	O 	0.96777	0.71964	0.66529	-0.323
Mof_O 	O 	0.54689	0.95438	0.33701	-0.31
Mof_O 	O 	0.43004	0.19827	0.78759	-0.286
Mof_N 	N 	0.88216	0.96272	0.56301	-0.112
Mof_N 	N 	0.71287	0.03025	0.46578	-0.113
Mof_N 	N 	0.09851	0.23405	0.69028	-0.111
Mof_N 	N 	0.25314	0.23167	0.75876	-0.109
Mof_C 	C 	0.97527	0.75881	0.61251	0.457
Mof_C 	C 	0.94437	0.83441	0.59637	-0.072
Mof_C 	C 	0.91624	0.86373	0.64512	-0.032
Mof_H 	H 	0.9185	0.84	0.6897	0.069
Mof_C 	C 	0.88503	0.92822	0.62668	0.027
Mof_H 	H 	0.8657	0.948	0.6588	0.025
Mof_C 	C 	0.91047	0.93732	0.51581	0.025
Mof_H 	H 	0.9087	0.9637	0.4723	0.03
Mof_C 	C 	0.94189	0.87274	0.5317	-0.035
Mof_H 	H 	0.9614	0.8549	0.4991	0.066
Mof_C 	C 	0.8462	0.0289	0.54347	-0.038
Mof_H 	H 	0.8419	0.0606	0.5851	0.044
Mof_H 	H 	0.858	0.0659	0.5099	0.048
Mof_C 	C 	0.79774	0.99187	0.51094	-0.137
Mof_H 	H 	0.7848	0.9572	0.5452	0.077
Mof_H 	H 	0.802	0.9582	0.4703	0.075
Mof_C 	C 	0.76283	0.06256	0.48844	-0.038
Mof_H 	H 	0.7737	0.0925	0.4497	0.043
Mof_H 	H 	0.7625	0.1005	0.5276	0.042
Mof_C 	C 	0.68222	0.02415	0.51306	0.026
Mof_H 	H 	0.6924	0.0402	0.5595	0.028
Mof_C 	C 	0.63593	0.99452	0.49414	-0.042
Mof_H 	H 	0.6148	0.9903	0.5275	0.07
Mof_C 	C 	0.62108	0.97097	0.42468	-0.082
Mof_C 	C 	0.65326	0.97842	0.37595	-0.028
Mof_H 	H 	0.6438	0.9634	0.329	0.069
Mof_C 	C 	0.69902	0.0081	0.39785	0.017
Mof_H 	H 	0.7208	0.0131	0.3655	0.027
Mof_C 	C 	0.57061	0.9376	0.40211	0.487
Mof_C 	C 	0.04593	0.47704	0.65042	0.48
Mof_C 	C 	0.0624	0.3894	0.6631	-0.092
Mof_C 	C 	0.07724	0.34237	0.60945	-0.038
Mof_H 	H 	0.0749	0.3633	0.5638	0.062
Mof_C 	C 	0.09532	0.26482	0.62451	0.018
Mof_H 	H 	0.1055	0.2331	0.5889	0.029
Mof_C 	C 	0.08174	0.27674	0.74224	0.009
Mof_H 	H 	0.0823	0.2532	0.7867	0.024
Mof_C 	C 	0.06385	0.35498	0.72939	-0.026
Mof_H 	H 	0.0527	0.3849	0.7653	0.061
Mof_C 	C 	0.12411	0.15406	0.70774	-0.041
Mof_H 	H 	0.1197	0.1371	0.755	0.04
Mof_H 	H 	0.1101	0.1119	0.6749	0.038
Mof_C 	C 	0.17815	0.16226	0.70362	-0.124
Mof_H 	H 	0.183	0.159	0.6545	0.066
Mof_H 	H 	0.1952	0.1162	0.7284	0.068
Mof_C 	C 	0.20015	0.24223	0.73495	-0.044
Mof_H 	H 	0.1842	0.2583	0.7747	0.052
Mof_H 	H 	0.195	0.2857	0.6998	0.053
Mof_C 	C 	0.28377	0.22496	0.71012	0.01
Mof_H 	H 	0.272	0.2306	0.6623	0.03
Mof_C 	C 	0.33207	0.20984	0.73156	-0.021
Mof_H 	H 	0.3532	0.2052	0.6983	0.062
Mof_C 	C 	0.34934	0.20153	0.80265	-0.092
Mof_C 	C 	0.31797	0.21192	0.85177	-0.027
Mof_H 	H 	0.3294	0.209	0.8999	0.051
Mof_C 	C 	0.26938	0.22679	0.8283	0.013
Mof_H 	H 	0.2478	0.2335	0.8608	0.025
Mof_C 	C 	0.40151	0.17681	0.82695	0.491
Mof_Cu	Cu	0.5218	0.11901	0.57243	0.93
Mof_O 	O 	0.49275	0.22841	0.56301	-0.436
Mof_O 	O 	0.492	0.24271	0.67791	-0.225
Mof_O 	O 	0.07085	0.39444	0.34456	-0.269
Mof_O 	O 	0.04486	0.42695	0.44669	-0.453
Mof_O 	O 	0.54752	0.00803	0.59276	-0.429
Mof_O 	O 	0.5108	0.99946	0.69137	-0.3
Mof_O 	O 	0.91397	0.66519	0.89006	-0.418
Mof_O 	O 	0.92444	0.6378	0.77662	-0.291
Mof_O 	O 	0.55411	0.02531	0.705	-0.309
Mof_O 	O 	0.46777	0.21964	0.66529	-0.326
Mof_O 	O 	0.04689	0.45438	0.33701	-0.323
Mof_O 	O 	0.93004	0.69827	0.78759	-0.26
Mof_N 	N 	0.38216	0.46272	0.56301	-0.111
Mof_N 	N 	0.21287	0.53025	0.46578	-0.113
Mof_N 	N 	0.59851	0.73405	0.69028	-0.109
Mof_N 	N 	0.75314	0.73167	0.75876	-0.11
Mof_C 	C 	0.47527	0.25881	0.61251	0.474
Mof_C 	C 	0.44437	0.33441	0.59637	-0.092
Mof_C 	C 	0.41624	0.36373	0.64512	-0.023
Mof_H 	H 	0.4185	0.34	0.6897	0.059
Mof_C 	C 	0.38503	0.42822	0.62668	0.017
Mof_H 	H 	0.3657	0.448	0.6588	0.026
Mof_C 	C 	0.41047	0.43732	0.51581	0.015
Mof_H 	H 	0.4087	0.4637	0.4723	0.027
Mof_C 	C 	0.44189	0.37274	0.5317	-0.026
Mof_H 	H 	0.4614	0.3549	0.4991	0.053
Mof_C 	C 	0.3462	0.5289	0.54347	-0.036
Mof_H 	H 	0.3419	0.5606	0.5851	0.041
Mof_H 	H 	0.358	0.5659	0.5099	0.044
Mof_C 	C 	0.29774	0.49187	0.51094	-0.139
Mof_H 	H 	0.2848	0.4572	0.5452	0.078
Mof_H 	H 	0.302	0.4582	0.4703	0.075
Mof_C 	C 	0.26283	0.56256	0.48844	-0.036
Mof_H 	H 	0.2737	0.5925	0.4497	0.042
Mof_H 	H 	0.2625	0.6005	0.5276	0.041
Mof_C 	C 	0.18222	0.52415	0.51306	0.026
Mof_H 	H 	0.1924	0.5402	0.5595	0.028
Mof_C 	C 	0.13593	0.49452	0.49414	-0.042
Mof_H 	H 	0.1148	0.4903	0.5275	0.069
Mof_C 	C 	0.12108	0.47097	0.42468	-0.085
Mof_C 	C 	0.15326	0.47842	0.37595	-0.028
Mof_H 	H 	0.1438	0.4634	0.329	0.068
Mof_C 	C 	0.19902	0.5081	0.39785	0.017
Mof_H 	H 	0.2208	0.5131	0.3655	0.027
Mof_C 	C 	0.07061	0.4376	0.40211	0.487
Mof_C 	C 	0.54593	0.97704	0.65042	0.483
Mof_C 	C 	0.5624	0.8894	0.6631	-0.083
Mof_C 	C 	0.57724	0.84237	0.60945	-0.038
Mof_H 	H 	0.5749	0.8633	0.5638	0.066
Mof_C 	C 	0.59532	0.76482	0.62451	0.023
Mof_H 	H 	0.6055	0.7331	0.5889	0.029
Mof_C 	C 	0.58174	0.77674	0.74224	0.016
Mof_H 	H 	0.5823	0.7532	0.7867	0.029
Mof_C 	C 	0.56385	0.85498	0.72939	-0.026
Mof_H 	H 	0.5527	0.8849	0.7653	0.072
Mof_C 	C 	0.62411	0.65406	0.70774	-0.045
Mof_H 	H 	0.6197	0.6371	0.755	0.045
Mof_H 	H 	0.6101	0.6119	0.6749	0.044
Mof_C 	C 	0.67815	0.66226	0.70362	-0.122
Mof_H 	H 	0.683	0.659	0.6545	0.066
Mof_H 	H 	0.6952	0.6162	0.7284	0.068
Mof_C 	C 	0.70015	0.74223	0.73495	-0.045
Mof_H 	H 	0.6842	0.7583	0.7747	0.052
Mof_H 	H 	0.695	0.7857	0.6998	0.053
Mof_C 	C 	0.78377	0.72496	0.71012	0.014
Mof_H 	H 	0.772	0.7306	0.6623	0.028
Mof_C 	C 	0.83207	0.70984	0.73156	-0.027
Mof_H 	H 	0.8532	0.7052	0.6983	0.065
Mof_C 	C 	0.84934	0.70153	0.80265	-0.082
Mof_C 	C 	0.81797	0.71192	0.85177	-0.033
Mof_H 	H 	0.8294	0.709	0.8999	0.054
Mof_C 	C 	0.76938	0.72679	0.8283	0.017
Mof_H 	H 	0.7478	0.7335	0.8608	0.024
Mof_C 	C 	0.90151	0.67681	0.82695	0.475
Mof_Gd	Gd	3.3346e-18	0.37599	0.25	2.119
Mof_Gd	Gd	0.5	0.87599	0.25	2.286
Mof_Gd	Gd	2.2157e-33	0.62401	0.75	2.123
Mof_Gd	Gd	0.5	0.12401	0.75	2.286
_end
