# CIF file generated by openbabel 3.1.0, see https://openbabel.org
data_I
_chemical_name_common 'image0'
_cell_length_a 12.7243
_cell_length_b 13.294
_cell_length_c 28.598
_cell_angle_alpha 90
_cell_angle_beta 90
_cell_angle_gamma 90
_space_group_name_H-M_alt 'P 1'
_space_group_name_Hall 'P 1'
loop_
    _symmetry_equiv_pos_as_xyz
    x,y,z
loop_
    _atom_site_label
    _atom_site_type_symbol
    _atom_site_fract_x
    _atom_site_fract_y
    _atom_site_fract_z
    _atom_site_occupancy
    Dy1      Dy       0.08939    0.54299    0.92996    1.000
    O1       O        0.09240    0.43890    0.86610    1.000
    O2       O        0.16520    0.29020    0.88070    1.000
    O3       O        0.04000    0.14680    0.82830    1.000
    O4       O        0.18680    0.08660    0.80760    1.000
    O5       O        0.44770    0.10340    0.61900    1.000
    O6       O        0.45220    0.16140    0.54700    1.000
    O7       O        0.16560    0.38900    0.49500    1.000
    O8       O        0.05120    0.44780    0.54550    1.000
    N1       N        0.12370    0.15340    0.80880    1.000
    C1       C        0.12980    0.35630    0.85410    1.000
    C2       C        0.13410    0.33810    0.80260    1.000
    C3       C        0.14350    0.24550    0.78130    1.000
    C4       C        0.16590    0.23130    0.73460    1.000
    H1       H        0.17350    0.16660    0.72280    1.000
    C5       C        0.17710    0.31350    0.70530    1.000
    C6       C        0.16220    0.40920    0.72520    1.000
    H2       H        0.16490    0.46590    0.70630    1.000
    C7       C        0.14370    0.42020    0.77250    1.000
    H3       H        0.13750    0.48480    0.78470    1.000
    C8       C        0.20570    0.29990    0.65570    1.000
    C9       C        0.28670    0.23450    0.64450    1.000
    H4       H        0.31980    0.19750    0.66780    1.000
    C10      C        0.31850    0.22440    0.59790    1.000
    C11      C        0.26820    0.27890    0.56320    1.000
    H5       H        0.28950    0.27250    0.53220    1.000
    C12      C        0.18640    0.34280    0.57460    1.000
    C13      C        0.15600    0.35450    0.62100    1.000
    H6       H        0.10220    0.39890    0.62870    1.000
    C14      C        0.41040    0.15970    0.58710    1.000
    C15      C        0.13090    0.39700    0.53560    1.000
    Dy2      Dy       0.41061    0.95701    0.42996    1.000
    O9       O        0.40760    0.06110    0.36610    1.000
    O10      O        0.33480    0.20980    0.38070    1.000
    O11      O        0.46000    0.35320    0.32830    1.000
    O12      O        0.31320    0.41340    0.30760    1.000
    O13      O        0.05230    0.39660    0.11900    1.000
    O14      O        0.04780    0.33860    0.04700    1.000
    O15      O        0.33440    0.11100    0.99500    1.000
    O16      O        0.44880    0.05220    0.04550    1.000
    N2       N        0.37630    0.34660    0.30880    1.000
    C16      C        0.37020    0.14370    0.35410    1.000
    C17      C        0.36590    0.16190    0.30260    1.000
    C18      C        0.35650    0.25450    0.28130    1.000
    C19      C        0.33410    0.26870    0.23460    1.000
    H7       H        0.32650    0.33340    0.22280    1.000
    C20      C        0.32290    0.18650    0.20530    1.000
    C21      C        0.33780    0.09080    0.22520    1.000
    H8       H        0.33510    0.03410    0.20630    1.000
    C22      C        0.35630    0.07980    0.27250    1.000
    H9       H        0.36250    0.01520    0.28470    1.000
    C23      C        0.29430    0.20010    0.15570    1.000
    C24      C        0.21330    0.26550    0.14450    1.000
    H10      H        0.18020    0.30250    0.16780    1.000
    C25      C        0.18150    0.27560    0.09790    1.000
    C26      C        0.23180    0.22110    0.06320    1.000
    H11      H        0.21050    0.22750    0.03220    1.000
    C27      C        0.31360    0.15720    0.07460    1.000
    C28      C        0.34400    0.14550    0.12100    1.000
    H12      H        0.39780    0.10110    0.12870    1.000
    C29      C        0.08960    0.34030    0.08710    1.000
    C30      C        0.36910    0.10300    0.03560    1.000
    Dy3      Dy       0.91061    0.54299    0.57004    1.000
    O17      O        0.90760    0.43890    0.63390    1.000
    O18      O        0.83480    0.29020    0.61930    1.000
    O19      O        0.96000    0.14680    0.67170    1.000
    O20      O        0.81320    0.08660    0.69240    1.000
    O21      O        0.55230    0.10340    0.88100    1.000
    O22      O        0.54780    0.16140    0.95300    1.000
    O23      O        0.83440    0.38900    0.00500    1.000
    O24      O        0.94880    0.44780    0.95450    1.000
    N3       N        0.87630    0.15340    0.69120    1.000
    C31      C        0.87020    0.35630    0.64590    1.000
    C32      C        0.86590    0.33810    0.69740    1.000
    C33      C        0.85650    0.24550    0.71870    1.000
    C34      C        0.83410    0.23130    0.76540    1.000
    H13      H        0.82650    0.16660    0.77720    1.000
    C35      C        0.82290    0.31350    0.79470    1.000
    C36      C        0.83780    0.40920    0.77480    1.000
    H14      H        0.83510    0.46590    0.79370    1.000
    C37      C        0.85630    0.42020    0.72750    1.000
    H15      H        0.86250    0.48480    0.71530    1.000
    C38      C        0.79430    0.29990    0.84430    1.000
    C39      C        0.71330    0.23450    0.85550    1.000
    H16      H        0.68020    0.19750    0.83220    1.000
    C40      C        0.68150    0.22440    0.90210    1.000
    C41      C        0.73180    0.27890    0.93680    1.000
    H17      H        0.71050    0.27250    0.96780    1.000
    C42      C        0.81360    0.34280    0.92540    1.000
    C43      C        0.84400    0.35450    0.87900    1.000
    H18      H        0.89780    0.39890    0.87130    1.000
    C44      C        0.58960    0.15970    0.91290    1.000
    C45      C        0.86910    0.39700    0.96440    1.000
    Dy4      Dy       0.58939    0.95701    0.07004    1.000
    O25      O        0.59240    0.06110    0.13390    1.000
    O26      O        0.66520    0.20980    0.11930    1.000
    O27      O        0.54000    0.35320    0.17170    1.000
    O28      O        0.68680    0.41340    0.19240    1.000
    O29      O        0.94770    0.39660    0.38100    1.000
    O30      O        0.95220    0.33860    0.45300    1.000
    O31      O        0.66560    0.11100    0.50500    1.000
    O32      O        0.55120    0.05220    0.45450    1.000
    N4       N        0.62370    0.34660    0.19120    1.000
    C46      C        0.62980    0.14370    0.14590    1.000
    C47      C        0.63410    0.16190    0.19740    1.000
    C48      C        0.64350    0.25450    0.21870    1.000
    C49      C        0.66590    0.26870    0.26540    1.000
    H19      H        0.67350    0.33340    0.27720    1.000
    C50      C        0.67710    0.18650    0.29470    1.000
    C51      C        0.66220    0.09080    0.27480    1.000
    H20      H        0.66490    0.03410    0.29370    1.000
    C52      C        0.64370    0.07980    0.22750    1.000
    H21      H        0.63750    0.01520    0.21530    1.000
    C53      C        0.70570    0.20010    0.34430    1.000
    C54      C        0.78670    0.26550    0.35550    1.000
    H22      H        0.81980    0.30250    0.33220    1.000
    C55      C        0.81850    0.27560    0.40210    1.000
    C56      C        0.76820    0.22110    0.43680    1.000
    H23      H        0.78950    0.22750    0.46780    1.000
    C57      C        0.68640    0.15720    0.42540    1.000
    C58      C        0.65600    0.14550    0.37900    1.000
    H24      H        0.60220    0.10110    0.37130    1.000
    C59      C        0.91040    0.34030    0.41290    1.000
    C60      C        0.63090    0.10300    0.46440    1.000
    Dy5      Dy       0.91061    0.45701    0.07004    1.000
    O33      O        0.90760    0.56110    0.13390    1.000
    O34      O        0.83480    0.70980    0.11930    1.000
    O35      O        0.96000    0.85320    0.17170    1.000
    O36      O        0.81320    0.91340    0.19240    1.000
    O37      O        0.55230    0.89660    0.38100    1.000
    O38      O        0.54780    0.83860    0.45300    1.000
    O39      O        0.83440    0.61100    0.50500    1.000
    O40      O        0.94880    0.55220    0.45450    1.000
    N5       N        0.87630    0.84660    0.19120    1.000
    C61      C        0.87020    0.64370    0.14590    1.000
    C62      C        0.86590    0.66190    0.19740    1.000
    C63      C        0.85650    0.75450    0.21870    1.000
    C64      C        0.83410    0.76870    0.26540    1.000
    H25      H        0.82650    0.83340    0.27720    1.000
    C65      C        0.82290    0.68650    0.29470    1.000
    C66      C        0.83780    0.59080    0.27480    1.000
    H26      H        0.83510    0.53410    0.29370    1.000
    C67      C        0.85630    0.57980    0.22750    1.000
    H27      H        0.86250    0.51520    0.21530    1.000
    C68      C        0.79430    0.70010    0.34430    1.000
    C69      C        0.71330    0.76550    0.35550    1.000
    H28      H        0.68020    0.80250    0.33220    1.000
    C70      C        0.68150    0.77560    0.40210    1.000
    C71      C        0.73180    0.72110    0.43680    1.000
    H29      H        0.71050    0.72750    0.46780    1.000
    C72      C        0.81360    0.65720    0.42540    1.000
    C73      C        0.84400    0.64550    0.37900    1.000
    H30      H        0.89780    0.60110    0.37130    1.000
    C74      C        0.58960    0.84030    0.41290    1.000
    C75      C        0.86910    0.60300    0.46440    1.000
    Dy6      Dy       0.58939    0.04299    0.57004    1.000
    O41      O        0.59240    0.93890    0.63390    1.000
    O42      O        0.66520    0.79020    0.61930    1.000
    O43      O        0.54000    0.64680    0.67170    1.000
    O44      O        0.68680    0.58660    0.69240    1.000
    O45      O        0.94770    0.60340    0.88100    1.000
    O46      O        0.95220    0.66140    0.95300    1.000
    O47      O        0.66560    0.88900    0.00500    1.000
    O48      O        0.55120    0.94780    0.95450    1.000
    N6       N        0.62370    0.65340    0.69120    1.000
    C76      C        0.62980    0.85630    0.64590    1.000
    C77      C        0.63410    0.83810    0.69740    1.000
    C78      C        0.64350    0.74550    0.71870    1.000
    C79      C        0.66590    0.73130    0.76540    1.000
    H31      H        0.67350    0.66660    0.77720    1.000
    C80      C        0.67710    0.81350    0.79470    1.000
    C81      C        0.66220    0.90920    0.77480    1.000
    H32      H        0.66490    0.96590    0.79370    1.000
    C82      C        0.64370    0.92020    0.72750    1.000
    H33      H        0.63750    0.98480    0.71530    1.000
    C83      C        0.70570    0.79990    0.84430    1.000
    C84      C        0.78670    0.73450    0.85550    1.000
    H34      H        0.81980    0.69750    0.83220    1.000
    C85      C        0.81850    0.72440    0.90210    1.000
    C86      C        0.76820    0.77890    0.93680    1.000
    H35      H        0.78950    0.77250    0.96780    1.000
    C87      C        0.68640    0.84280    0.92540    1.000
    C88      C        0.65600    0.85450    0.87900    1.000
    H36      H        0.60220    0.89890    0.87130    1.000
    C89      C        0.91040    0.65970    0.91290    1.000
    C90      C        0.63090    0.89700    0.96440    1.000
    Dy7      Dy       0.08939    0.45701    0.42996    1.000
    O49      O        0.09240    0.56110    0.36610    1.000
    O50      O        0.16520    0.70980    0.38070    1.000
    O51      O        0.04000    0.85320    0.32830    1.000
    O52      O        0.18680    0.91340    0.30760    1.000
    O53      O        0.44770    0.89660    0.11900    1.000
    O54      O        0.45220    0.83860    0.04700    1.000
    O55      O        0.16560    0.61100    0.99500    1.000
    O56      O        0.05120    0.55220    0.04550    1.000
    N7       N        0.12370    0.84660    0.30880    1.000
    C91      C        0.12980    0.64370    0.35410    1.000
    C92      C        0.13410    0.66190    0.30260    1.000
    C93      C        0.14350    0.75450    0.28130    1.000
    C94      C        0.16590    0.76870    0.23460    1.000
    H37      H        0.17350    0.83340    0.22280    1.000
    C95      C        0.17710    0.68650    0.20530    1.000
    C96      C        0.16220    0.59080    0.22520    1.000
    H38      H        0.16490    0.53410    0.20630    1.000
    C97      C        0.14370    0.57980    0.27250    1.000
    H39      H        0.13750    0.51520    0.28470    1.000
    C98      C        0.20570    0.70010    0.15570    1.000
    C99      C        0.28670    0.76550    0.14450    1.000
    H40      H        0.31980    0.80250    0.16780    1.000
    C100     C        0.31850    0.77560    0.09790    1.000
    C101     C        0.26820    0.72110    0.06320    1.000
    H41      H        0.28950    0.72750    0.03220    1.000
    C102     C        0.18640    0.65720    0.07460    1.000
    C103     C        0.15600    0.64550    0.12100    1.000
    H42      H        0.10220    0.60110    0.12870    1.000
    C104     C        0.41040    0.84030    0.08710    1.000
    C105     C        0.13090    0.60300    0.03560    1.000
    Dy8      Dy       0.41061    0.04299    0.92996    1.000
    O57      O        0.40760    0.93890    0.86610    1.000
    O58      O        0.33480    0.79020    0.88070    1.000
    O59      O        0.46000    0.64680    0.82830    1.000
    O60      O        0.31320    0.58660    0.80760    1.000
    O61      O        0.05230    0.60340    0.61900    1.000
    O62      O        0.04780    0.66140    0.54700    1.000
    O63      O        0.33440    0.88900    0.49500    1.000
    O64      O        0.44880    0.94780    0.54550    1.000
    N8       N        0.37630    0.65340    0.80880    1.000
    C106     C        0.37020    0.85630    0.85410    1.000
    C107     C        0.36590    0.83810    0.80260    1.000
    C108     C        0.35650    0.74550    0.78130    1.000
    C109     C        0.33410    0.73130    0.73460    1.000
    H43      H        0.32650    0.66660    0.72280    1.000
    C110     C        0.32290    0.81350    0.70530    1.000
    C111     C        0.33780    0.90920    0.72520    1.000
    H44      H        0.33510    0.96590    0.70630    1.000
    C112     C        0.35630    0.92020    0.77250    1.000
    H45      H        0.36250    0.98480    0.78470    1.000
    C113     C        0.29430    0.79990    0.65570    1.000
    C114     C        0.21330    0.73450    0.64450    1.000
    H46      H        0.18020    0.69750    0.66780    1.000
    C115     C        0.18150    0.72440    0.59790    1.000
    C116     C        0.23180    0.77890    0.56320    1.000
    H47      H        0.21050    0.77250    0.53220    1.000
    C117     C        0.31360    0.84280    0.57460    1.000
    C118     C        0.34400    0.85450    0.62100    1.000
    H48      H        0.39780    0.89890    0.62870    1.000
    C119     C        0.08960    0.65970    0.58710    1.000
    C120     C        0.36910    0.89700    0.53560    1.000
