# CIF file generated by openbabel 3.1.0, see https://openbabel.org
data_I
_chemical_name_common 'image0'
_cell_length_a 27.6479
_cell_length_b 13.75
_cell_length_c 45.714
_cell_angle_alpha 90
_cell_angle_beta 90
_cell_angle_gamma 90
_space_group_name_H-M_alt 'P 1'
_space_group_name_Hall 'P 1'
loop_
    _symmetry_equiv_pos_as_xyz
    x,y,z
loop_
    _atom_site_label
    _atom_site_type_symbol
    _atom_site_fract_x
    _atom_site_fract_y
    _atom_site_fract_z
    _atom_site_occupancy
    C1       C        0.05100    0.01640    0.53183    1.000
    H1       H        0.03330    0.04890    0.54670    1.000
    C2       C        0.06470    0.06740    0.50718    1.000
    H2       H        0.05610    0.13400    0.50530    1.000
    C3       C        0.09061    0.02250    0.48539    1.000
    C4       C        0.10050    0.92340    0.48824    1.000
    H3       H        0.11690    0.88900    0.47320    1.000
    C5       C        0.08580    0.87660    0.51346    1.000
    H4       H        0.09280    0.80930    0.51550    1.000
    C6       C        0.10658    0.07700    0.45899    1.000
    C7       C        0.10837    0.21520    0.43260    1.000
    C8       C        0.14236    0.07900    0.41476    1.000
    C9       C        0.09309    0.31810    0.42854    1.000
    C10      C        0.07390    0.37040    0.45147    1.000
    H5       H        0.07190    0.34270    0.47050    1.000
    C11      C        0.05730    0.46430    0.44635    1.000
    H6       H        0.04430    0.50050    0.46220    1.000
    C12      C        0.07740    0.45370    0.39750    1.000
    H7       H        0.07850    0.48200    0.37860    1.000
    C13      C        0.09490    0.36010    0.40132    1.000
    H8       H        0.10810    0.32530    0.38520    1.000
    C14      C        0.16649    0.02660    0.39059    1.000
    C15      C        0.18680    0.07530    0.36703    1.000
    H9       H        0.18550    0.14420    0.36600    1.000
    C16      C        0.20910    0.02220    0.34505    1.000
    H10      H        0.22390    0.05610    0.32930    1.000
    C17      C        0.18970    0.87760    0.36743    1.000
    H11      H        0.19030    0.80850    0.36740    1.000
    C18      C        0.16740    0.92520    0.39052    1.000
    H12      H        0.15300    0.88930    0.40600    1.000
    C19      C        0.30718    0.05730    0.76514    1.000
    H13      H        0.33460    0.07240    0.77680    1.000
    C20      C        0.31474    0.02210    0.73700    1.000
    H14      H        0.34660    0.01270    0.72970    1.000
    C21      C        0.27458    0.00100    0.71977    1.000
    C22      C        0.22890    0.01100    0.73183    1.000
    H15      H        0.20090    0.99450    0.72090    1.000
    C23      C        0.22482    0.04550    0.76017    1.000
    H16      H        0.19350    0.05150    0.76850    1.000
    C24      C        0.27964    0.97280    0.68852    1.000
    C25      C        0.32544    0.94190    0.64874    1.000
    C26      C        0.24375    0.93970    0.64528    1.000
    C27      C        0.37322    0.93030    0.63476    1.000
    C28      C        0.41571    0.93140    0.65125    1.000
    H17      H        0.41480    0.94250    0.67180    1.000
    C29      C        0.45930    0.91590    0.63698    1.000
    H18      H        0.48820    0.91540    0.64830    1.000
    C30      C        0.42190    0.90330    0.59228    1.000
    H19      H        0.42400    0.89500    0.57170    1.000
    C31      C        0.37683    0.91680    0.60462    1.000
    H20      H        0.34860    0.91690    0.59270    1.000
    C32      C        0.19948    0.92620    0.62799    1.000
    C33      C        0.20094    0.89820    0.59871    1.000
    H21      H        0.23110    0.89000    0.58910    1.000
    C34      C        0.15841    0.88260    0.58387    1.000
    H22      H        0.16000    0.86260    0.56400    1.000
    C35      C        0.11311    0.92390    0.62438    1.000
    H23      H        0.08240    0.93480    0.63310    1.000
    C36      C        0.15405    0.93880    0.64098    1.000
    H24      H        0.15150    0.95730    0.66090    1.000
    I1       I        0.98393    0.94744    0.60185    1.000
    I2       I        0.05634    0.67242    0.56806    1.000
    I3       I        0.19528    0.69144    0.30583    1.000
    I4       I        0.33578    0.83316    0.32434    1.000
    I5       I        0.07449    0.72536    0.37142    1.000
    I6       I        0.00895    0.71687    0.46084    1.000
    N1       N        0.06200    0.92220    0.53528    1.000
    N2       N        0.09495    0.17070    0.45738    1.000
    N3       N        0.13324    0.17290    0.41083    1.000
    N4       N        0.13053    0.02710    0.43844    1.000
    N5       N        0.05902    0.50550    0.41973    1.000
    N6       N        0.21045    0.92500    0.34516    1.000
    N7       N        0.26309    0.07100    0.77646    1.000
    N8       N        0.32414    0.96430    0.67740    1.000
    N9       N        0.28647    0.92890    0.63190    1.000
    N10      N        0.23836    0.96140    0.67367    1.000
    N11      N        0.46275    0.90140    0.60797    1.000
    N12      N        0.11465    0.89460    0.59627    1.000
    Zn1      Zn       0.05075    0.85570    0.57533    1.000
    Zn2      Zn       0.24547    0.84635    0.31345    1.000
    Zn3      Zn       0.02768    0.63847    0.41131    1.000
    C37      C        0.44900    0.98360    0.03183    1.000
    H25      H        0.46670    0.95110    0.04670    1.000
    C38      C        0.43530    0.93260    0.00718    1.000
    H26      H        0.44390    0.86600    0.00530    1.000
    C39      C        0.40939    0.97750    0.98539    1.000
    C40      C        0.39950    0.07660    0.98824    1.000
    H27      H        0.38310    0.11100    0.97320    1.000
    C41      C        0.41420    0.12340    0.01346    1.000
    H28      H        0.40720    0.19070    0.01550    1.000
    C42      C        0.39342    0.92300    0.95899    1.000
    C43      C        0.39163    0.78480    0.93260    1.000
    C44      C        0.35764    0.92100    0.91476    1.000
    C45      C        0.40691    0.68190    0.92854    1.000
    C46      C        0.42610    0.62960    0.95147    1.000
    H29      H        0.42810    0.65730    0.97050    1.000
    C47      C        0.44270    0.53570    0.94635    1.000
    H30      H        0.45570    0.49950    0.96220    1.000
    C48      C        0.42260    0.54630    0.89750    1.000
    H31      H        0.42150    0.51800    0.87860    1.000
    C49      C        0.40510    0.63990    0.90132    1.000
    H32      H        0.39190    0.67470    0.88520    1.000
    C50      C        0.33351    0.97340    0.89059    1.000
    C51      C        0.31320    0.92470    0.86703    1.000
    H33      H        0.31450    0.85580    0.86600    1.000
    C52      C        0.29090    0.97780    0.84505    1.000
    H34      H        0.27610    0.94390    0.82930    1.000
    C53      C        0.31030    0.12240    0.86743    1.000
    H35      H        0.30970    0.19150    0.86740    1.000
    C54      C        0.33260    0.07480    0.89052    1.000
    H36      H        0.34700    0.11070    0.90600    1.000
    C55      C        0.19282    0.94270    0.26514    1.000
    H37      H        0.16540    0.92760    0.27680    1.000
    C56      C        0.18526    0.97790    0.23700    1.000
    H38      H        0.15340    0.98730    0.22970    1.000
    C57      C        0.22542    0.99900    0.21977    1.000
    C58      C        0.27110    0.98900    0.23183    1.000
    H39      H        0.29910    0.00550    0.22090    1.000
    C59      C        0.27518    0.95450    0.26017    1.000
    H40      H        0.30650    0.94850    0.26850    1.000
    C60      C        0.22036    0.02720    0.18852    1.000
    C61      C        0.17456    0.05810    0.14874    1.000
    C62      C        0.25625    0.06030    0.14528    1.000
    C63      C        0.12678    0.06970    0.13476    1.000
    C64      C        0.08429    0.06860    0.15125    1.000
    H41      H        0.08520    0.05750    0.17180    1.000
    C65      C        0.04070    0.08410    0.13698    1.000
    H42      H        0.01180    0.08460    0.14830    1.000
    C66      C        0.07810    0.09670    0.09228    1.000
    H43      H        0.07600    0.10500    0.07170    1.000
    C67      C        0.12317    0.08320    0.10462    1.000
    H44      H        0.15140    0.08310    0.09270    1.000
    C68      C        0.30052    0.07380    0.12799    1.000
    C69      C        0.29906    0.10180    0.09871    1.000
    H45      H        0.26890    0.11000    0.08910    1.000
    C70      C        0.34159    0.11740    0.08387    1.000
    H46      H        0.34000    0.13740    0.06400    1.000
    C71      C        0.38689    0.07610    0.12438    1.000
    H47      H        0.41760    0.06520    0.13310    1.000
    C72      C        0.34595    0.06120    0.14098    1.000
    H48      H        0.34850    0.04270    0.16090    1.000
    I7       I        0.51607    0.05256    0.10185    1.000
    I8       I        0.44366    0.32758    0.06806    1.000
    I9       I        0.30472    0.30856    0.80583    1.000
    I10      I        0.16422    0.16684    0.82434    1.000
    I11      I        0.42551    0.27464    0.87142    1.000
    I12      I        0.49105    0.28313    0.96084    1.000
    N13      N        0.43800    0.07780    0.03528    1.000
    N14      N        0.40505    0.82930    0.95738    1.000
    N15      N        0.36676    0.82710    0.91083    1.000
    N16      N        0.36947    0.97290    0.93844    1.000
    N17      N        0.44098    0.49450    0.91973    1.000
    N18      N        0.28955    0.07500    0.84516    1.000
    N19      N        0.23691    0.92900    0.27646    1.000
    N20      N        0.17586    0.03570    0.17740    1.000
    N21      N        0.21353    0.07110    0.13190    1.000
    N22      N        0.26164    0.03860    0.17367    1.000
    N23      N        0.03725    0.09860    0.10797    1.000
    N24      N        0.38535    0.10540    0.09627    1.000
    Zn4      Zn       0.44925    0.14430    0.07533    1.000
    Zn5      Zn       0.25453    0.15365    0.81345    1.000
    Zn6      Zn       0.47232    0.36153    0.91131    1.000
    C73      C        0.94900    0.51640    0.96817    1.000
    H49      H        0.96670    0.54890    0.95330    1.000
    C74      C        0.93530    0.56740    0.99282    1.000
    H50      H        0.94390    0.63400    0.99470    1.000
    C75      C        0.90939    0.52250    0.01461    1.000
    C76      C        0.89950    0.42340    0.01176    1.000
    H51      H        0.88310    0.38900    0.02680    1.000
    C77      C        0.91420    0.37660    0.98654    1.000
    H52      H        0.90720    0.30930    0.98450    1.000
    C78      C        0.89342    0.57700    0.04101    1.000
    C79      C        0.89163    0.71520    0.06740    1.000
    C80      C        0.85764    0.57900    0.08524    1.000
    C81      C        0.90691    0.81810    0.07146    1.000
    C82      C        0.92610    0.87040    0.04853    1.000
    H53      H        0.92810    0.84270    0.02950    1.000
    C83      C        0.94270    0.96430    0.05365    1.000
    H54      H        0.95570    0.00050    0.03780    1.000
    C84      C        0.92260    0.95370    0.10250    1.000
    H55      H        0.92150    0.98200    0.12140    1.000
    C85      C        0.90510    0.86010    0.09868    1.000
    H56      H        0.89190    0.82530    0.11480    1.000
    C86      C        0.83351    0.52660    0.10941    1.000
    C87      C        0.81320    0.57530    0.13297    1.000
    H57      H        0.81450    0.64420    0.13400    1.000
    C88      C        0.79090    0.52220    0.15495    1.000
    H58      H        0.77610    0.55610    0.17070    1.000
    C89      C        0.81030    0.37760    0.13257    1.000
    H59      H        0.80970    0.30850    0.13260    1.000
    C90      C        0.83260    0.42520    0.10948    1.000
    H60      H        0.84700    0.38930    0.09400    1.000
    C91      C        0.69282    0.55730    0.73486    1.000
    H61      H        0.66540    0.57240    0.72320    1.000
    C92      C        0.68526    0.52210    0.76300    1.000
    H62      H        0.65340    0.51270    0.77030    1.000
    C93      C        0.72542    0.50100    0.78023    1.000
    C94      C        0.77110    0.51100    0.76817    1.000
    H63      H        0.79910    0.49450    0.77910    1.000
    C95      C        0.77518    0.54550    0.73983    1.000
    H64      H        0.80650    0.55150    0.73150    1.000
    C96      C        0.72036    0.47280    0.81148    1.000
    C97      C        0.67456    0.44190    0.85126    1.000
    C98      C        0.75625    0.43970    0.85472    1.000
    C99      C        0.62678    0.43030    0.86524    1.000
    C100     C        0.58429    0.43140    0.84875    1.000
    H65      H        0.58520    0.44250    0.82820    1.000
    C101     C        0.54070    0.41590    0.86302    1.000
    H66      H        0.51180    0.41540    0.85170    1.000
    C102     C        0.57810    0.40330    0.90772    1.000
    H67      H        0.57600    0.39500    0.92830    1.000
    C103     C        0.62317    0.41680    0.89538    1.000
    H68      H        0.65140    0.41690    0.90730    1.000
    C104     C        0.80052    0.42620    0.87201    1.000
    C105     C        0.79906    0.39820    0.90129    1.000
    H69      H        0.76890    0.39000    0.91090    1.000
    C106     C        0.84159    0.38260    0.91613    1.000
    H70      H        0.84000    0.36260    0.93600    1.000
    C107     C        0.88689    0.42390    0.87562    1.000
    H71      H        0.91760    0.43480    0.86690    1.000
    C108     C        0.84595    0.43880    0.85902    1.000
    H72      H        0.84850    0.45730    0.83910    1.000
    I13      I        0.01607    0.44744    0.89815    1.000
    I14      I        0.94366    0.17242    0.93194    1.000
    I15      I        0.80472    0.19144    0.19417    1.000
    I16      I        0.66422    0.33316    0.17566    1.000
    I17      I        0.92551    0.22536    0.12858    1.000
    I18      I        0.99105    0.21687    0.03916    1.000
    N25      N        0.93800    0.42220    0.96472    1.000
    N26      N        0.90505    0.67070    0.04262    1.000
    N27      N        0.86676    0.67290    0.08917    1.000
    N28      N        0.86947    0.52710    0.06156    1.000
    N29      N        0.94098    0.00550    0.08027    1.000
    N30      N        0.78955    0.42500    0.15484    1.000
    N31      N        0.73691    0.57100    0.72354    1.000
    N32      N        0.67586    0.46430    0.82260    1.000
    N33      N        0.71353    0.42890    0.86810    1.000
    N34      N        0.76164    0.46140    0.82633    1.000
    N35      N        0.53725    0.40140    0.89203    1.000
    N36      N        0.88535    0.39460    0.90373    1.000
    Zn7      Zn       0.94925    0.35570    0.92467    1.000
    Zn8      Zn       0.75453    0.34635    0.18655    1.000
    Zn9      Zn       0.97232    0.13847    0.08869    1.000
    C109     C        0.55100    0.48360    0.46817    1.000
    H73      H        0.53330    0.45110    0.45330    1.000
    C110     C        0.56470    0.43260    0.49282    1.000
    H74      H        0.55610    0.36600    0.49470    1.000
    C111     C        0.59061    0.47750    0.51461    1.000
    C112     C        0.60050    0.57660    0.51176    1.000
    H75      H        0.61690    0.61100    0.52680    1.000
    C113     C        0.58580    0.62340    0.48654    1.000
    H76      H        0.59280    0.69070    0.48450    1.000
    C114     C        0.60658    0.42300    0.54101    1.000
    C115     C        0.60837    0.28480    0.56740    1.000
    C116     C        0.64236    0.42100    0.58524    1.000
    C117     C        0.59309    0.18190    0.57146    1.000
    C118     C        0.57390    0.12960    0.54853    1.000
    H77      H        0.57190    0.15730    0.52950    1.000
    C119     C        0.55730    0.03570    0.55365    1.000
    H78      H        0.54430    0.99950    0.53780    1.000
    C120     C        0.57740    0.04630    0.60250    1.000
    H79      H        0.57850    0.01800    0.62140    1.000
    C121     C        0.59490    0.13990    0.59868    1.000
    H80      H        0.60810    0.17470    0.61480    1.000
    C122     C        0.66649    0.47340    0.60941    1.000
    C123     C        0.68680    0.42470    0.63297    1.000
    H81      H        0.68550    0.35580    0.63400    1.000
    C124     C        0.70910    0.47780    0.65495    1.000
    H82      H        0.72390    0.44390    0.67070    1.000
    C125     C        0.68970    0.62240    0.63257    1.000
    H83      H        0.69030    0.69150    0.63260    1.000
    C126     C        0.66740    0.57480    0.60948    1.000
    H84      H        0.65300    0.61070    0.59400    1.000
    C127     C        0.80718    0.44270    0.23486    1.000
    H85      H        0.83460    0.42760    0.22320    1.000
    C128     C        0.81474    0.47790    0.26300    1.000
    H86      H        0.84660    0.48730    0.27030    1.000
    C129     C        0.77458    0.49900    0.28023    1.000
    C130     C        0.72890    0.48900    0.26817    1.000
    H87      H        0.70090    0.50550    0.27910    1.000
    C131     C        0.72482    0.45450    0.23983    1.000
    H88      H        0.69350    0.44850    0.23150    1.000
    C132     C        0.77964    0.52720    0.31148    1.000
    C133     C        0.82544    0.55810    0.35126    1.000
    C134     C        0.74375    0.56030    0.35472    1.000
    C135     C        0.87322    0.56970    0.36524    1.000
    C136     C        0.91571    0.56860    0.34875    1.000
    H89      H        0.91480    0.55750    0.32820    1.000
    C137     C        0.95930    0.58410    0.36302    1.000
    H90      H        0.98820    0.58460    0.35170    1.000
    C138     C        0.92190    0.59670    0.40772    1.000
    H91      H        0.92400    0.60500    0.42830    1.000
    C139     C        0.87683    0.58320    0.39538    1.000
    H92      H        0.84860    0.58310    0.40730    1.000
    C140     C        0.69948    0.57380    0.37201    1.000
    C141     C        0.70094    0.60180    0.40129    1.000
    H93      H        0.73110    0.61000    0.41090    1.000
    C142     C        0.65841    0.61740    0.41613    1.000
    H94      H        0.66000    0.63740    0.43600    1.000
    C143     C        0.61311    0.57610    0.37562    1.000
    H95      H        0.58240    0.56520    0.36690    1.000
    C144     C        0.65405    0.56120    0.35902    1.000
    H96      H        0.65150    0.54270    0.33910    1.000
    I19      I        0.48393    0.55256    0.39815    1.000
    I20      I        0.55634    0.82758    0.43194    1.000
    I21      I        0.69528    0.80856    0.69417    1.000
    I22      I        0.83578    0.66684    0.67566    1.000
    I23      I        0.57449    0.77464    0.62858    1.000
    I24      I        0.50895    0.78313    0.53916    1.000
    N37      N        0.56200    0.57780    0.46472    1.000
    N38      N        0.59495    0.32930    0.54262    1.000
    N39      N        0.63324    0.32710    0.58917    1.000
    N40      N        0.63053    0.47290    0.56156    1.000
    N41      N        0.55902    0.99450    0.58027    1.000
    N42      N        0.71045    0.57500    0.65484    1.000
    N43      N        0.76309    0.42900    0.22354    1.000
    N44      N        0.82414    0.53570    0.32260    1.000
    N45      N        0.78647    0.57110    0.36810    1.000
    N46      N        0.73836    0.53860    0.32633    1.000
    N47      N        0.96275    0.59860    0.39203    1.000
    N48      N        0.61465    0.60540    0.40373    1.000
    Zn10     Zn       0.55075    0.64430    0.42467    1.000
    Zn11     Zn       0.74547    0.65365    0.68655    1.000
    Zn12     Zn       0.52768    0.86153    0.58869    1.000
    C145     C        0.94900    0.98360    0.46817    1.000
    H97      H        0.96670    0.95110    0.45330    1.000
    C146     C        0.93530    0.93260    0.49282    1.000
    H98      H        0.94390    0.86600    0.49470    1.000
    C147     C        0.90939    0.97750    0.51461    1.000
    C148     C        0.89950    0.07660    0.51176    1.000
    H99      H        0.88310    0.11100    0.52680    1.000
    C149     C        0.91420    0.12340    0.48654    1.000
    H100     H        0.90720    0.19070    0.48450    1.000
    C150     C        0.89342    0.92300    0.54101    1.000
    C151     C        0.89163    0.78480    0.56740    1.000
    C152     C        0.85764    0.92100    0.58524    1.000
    C153     C        0.90691    0.68190    0.57146    1.000
    C154     C        0.92610    0.62960    0.54853    1.000
    H101     H        0.92810    0.65730    0.52950    1.000
    C155     C        0.94270    0.53570    0.55365    1.000
    H102     H        0.95570    0.49950    0.53780    1.000
    C156     C        0.92260    0.54630    0.60250    1.000
    H103     H        0.92150    0.51800    0.62140    1.000
    C157     C        0.90510    0.63990    0.59868    1.000
    H104     H        0.89190    0.67470    0.61480    1.000
    C158     C        0.83351    0.97340    0.60941    1.000
    C159     C        0.81320    0.92470    0.63297    1.000
    H105     H        0.81450    0.85580    0.63400    1.000
    C160     C        0.79090    0.97780    0.65495    1.000
    H106     H        0.77610    0.94390    0.67070    1.000
    C161     C        0.81030    0.12240    0.63257    1.000
    H107     H        0.80970    0.19150    0.63260    1.000
    C162     C        0.83260    0.07480    0.60948    1.000
    H108     H        0.84700    0.11070    0.59400    1.000
    C163     C        0.69282    0.94270    0.23486    1.000
    H109     H        0.66540    0.92760    0.22320    1.000
    C164     C        0.68526    0.97790    0.26300    1.000
    H110     H        0.65340    0.98730    0.27030    1.000
    C165     C        0.72542    0.99900    0.28023    1.000
    C166     C        0.77110    0.98900    0.26817    1.000
    H111     H        0.79910    0.00550    0.27910    1.000
    C167     C        0.77518    0.95450    0.23983    1.000
    H112     H        0.80650    0.94850    0.23150    1.000
    C168     C        0.72036    0.02720    0.31148    1.000
    C169     C        0.67456    0.05810    0.35126    1.000
    C170     C        0.75625    0.06030    0.35472    1.000
    C171     C        0.62678    0.06970    0.36524    1.000
    C172     C        0.58429    0.06860    0.34875    1.000
    H113     H        0.58520    0.05750    0.32820    1.000
    C173     C        0.54070    0.08410    0.36302    1.000
    H114     H        0.51180    0.08460    0.35170    1.000
    C174     C        0.57810    0.09670    0.40772    1.000
    H115     H        0.57600    0.10500    0.42830    1.000
    C175     C        0.62317    0.08320    0.39538    1.000
    H116     H        0.65140    0.08310    0.40730    1.000
    C176     C        0.80052    0.07380    0.37201    1.000
    C177     C        0.79906    0.10180    0.40129    1.000
    H117     H        0.76890    0.11000    0.41090    1.000
    C178     C        0.84159    0.11740    0.41613    1.000
    H118     H        0.84000    0.13740    0.43600    1.000
    C179     C        0.88689    0.07610    0.37562    1.000
    H119     H        0.91760    0.06520    0.36690    1.000
    C180     C        0.84595    0.06120    0.35902    1.000
    H120     H        0.84850    0.04270    0.33910    1.000
    I25      I        0.01607    0.05256    0.39815    1.000
    I26      I        0.94366    0.32758    0.43194    1.000
    I27      I        0.80472    0.30856    0.69417    1.000
    I28      I        0.66422    0.16684    0.67566    1.000
    I29      I        0.92551    0.27464    0.62858    1.000
    I30      I        0.99105    0.28313    0.53916    1.000
    N49      N        0.93800    0.07780    0.46472    1.000
    N50      N        0.90505    0.82930    0.54262    1.000
    N51      N        0.86676    0.82710    0.58917    1.000
    N52      N        0.86947    0.97290    0.56156    1.000
    N53      N        0.94098    0.49450    0.58027    1.000
    N54      N        0.78955    0.07500    0.65484    1.000
    N55      N        0.73691    0.92900    0.22354    1.000
    N56      N        0.67586    0.03570    0.32260    1.000
    N57      N        0.71353    0.07110    0.36810    1.000
    N58      N        0.76164    0.03860    0.32633    1.000
    N59      N        0.53725    0.09860    0.39203    1.000
    N60      N        0.88535    0.10540    0.40373    1.000
    Zn13     Zn       0.94925    0.14430    0.42467    1.000
    Zn14     Zn       0.75453    0.15365    0.68655    1.000
    Zn15     Zn       0.97232    0.36153    0.58869    1.000
    C181     C        0.55100    0.01640    0.96817    1.000
    H121     H        0.53330    0.04890    0.95330    1.000
    C182     C        0.56470    0.06740    0.99282    1.000
    H122     H        0.55610    0.13400    0.99470    1.000
    C183     C        0.59061    0.02250    0.01461    1.000
    C184     C        0.60050    0.92340    0.01176    1.000
    H123     H        0.61690    0.88900    0.02680    1.000
    C185     C        0.58580    0.87660    0.98654    1.000
    H124     H        0.59280    0.80930    0.98450    1.000
    C186     C        0.60658    0.07700    0.04101    1.000
    C187     C        0.60837    0.21520    0.06740    1.000
    C188     C        0.64236    0.07900    0.08524    1.000
    C189     C        0.59309    0.31810    0.07146    1.000
    C190     C        0.57390    0.37040    0.04853    1.000
    H125     H        0.57190    0.34270    0.02950    1.000
    C191     C        0.55730    0.46430    0.05365    1.000
    H126     H        0.54430    0.50050    0.03780    1.000
    C192     C        0.57740    0.45370    0.10250    1.000
    H127     H        0.57850    0.48200    0.12140    1.000
    C193     C        0.59490    0.36010    0.09868    1.000
    H128     H        0.60810    0.32530    0.11480    1.000
    C194     C        0.66649    0.02660    0.10941    1.000
    C195     C        0.68680    0.07530    0.13297    1.000
    H129     H        0.68550    0.14420    0.13400    1.000
    C196     C        0.70910    0.02220    0.15495    1.000
    H130     H        0.72390    0.05610    0.17070    1.000
    C197     C        0.68970    0.87760    0.13257    1.000
    H131     H        0.69030    0.80850    0.13260    1.000
    C198     C        0.66740    0.92520    0.10948    1.000
    H132     H        0.65300    0.88930    0.09400    1.000
    C199     C        0.80718    0.05730    0.73486    1.000
    H133     H        0.83460    0.07240    0.72320    1.000
    C200     C        0.81474    0.02210    0.76300    1.000
    H134     H        0.84660    0.01270    0.77030    1.000
    C201     C        0.77458    0.00100    0.78023    1.000
    C202     C        0.72890    0.01100    0.76817    1.000
    H135     H        0.70090    0.99450    0.77910    1.000
    C203     C        0.72482    0.04550    0.73983    1.000
    H136     H        0.69350    0.05150    0.73150    1.000
    C204     C        0.77964    0.97280    0.81148    1.000
    C205     C        0.82544    0.94190    0.85126    1.000
    C206     C        0.74375    0.93970    0.85472    1.000
    C207     C        0.87322    0.93030    0.86524    1.000
    C208     C        0.91571    0.93140    0.84875    1.000
    H137     H        0.91480    0.94250    0.82820    1.000
    C209     C        0.95930    0.91590    0.86302    1.000
    H138     H        0.98820    0.91540    0.85170    1.000
    C210     C        0.92190    0.90330    0.90772    1.000
    H139     H        0.92400    0.89500    0.92830    1.000
    C211     C        0.87683    0.91680    0.89538    1.000
    H140     H        0.84860    0.91690    0.90730    1.000
    C212     C        0.69948    0.92620    0.87201    1.000
    C213     C        0.70094    0.89820    0.90129    1.000
    H141     H        0.73110    0.89000    0.91090    1.000
    C214     C        0.65841    0.88260    0.91613    1.000
    H142     H        0.66000    0.86260    0.93600    1.000
    C215     C        0.61311    0.92390    0.87562    1.000
    H143     H        0.58240    0.93480    0.86690    1.000
    C216     C        0.65405    0.93880    0.85902    1.000
    H144     H        0.65150    0.95730    0.83910    1.000
    I31      I        0.48393    0.94744    0.89815    1.000
    I32      I        0.55634    0.67242    0.93194    1.000
    I33      I        0.69528    0.69144    0.19417    1.000
    I34      I        0.83578    0.83316    0.17566    1.000
    I35      I        0.57449    0.72536    0.12858    1.000
    I36      I        0.50895    0.71687    0.03916    1.000
    N61      N        0.56200    0.92220    0.96472    1.000
    N62      N        0.59495    0.17070    0.04262    1.000
    N63      N        0.63324    0.17290    0.08917    1.000
    N64      N        0.63053    0.02710    0.06156    1.000
    N65      N        0.55902    0.50550    0.08027    1.000
    N66      N        0.71045    0.92500    0.15484    1.000
    N67      N        0.76309    0.07100    0.72354    1.000
    N68      N        0.82414    0.96430    0.82260    1.000
    N69      N        0.78647    0.92890    0.86810    1.000
    N70      N        0.73836    0.96140    0.82633    1.000
    N71      N        0.96275    0.90140    0.89203    1.000
    N72      N        0.61465    0.89460    0.90373    1.000
    Zn16     Zn       0.55075    0.85570    0.92467    1.000
    Zn17     Zn       0.74547    0.84635    0.18655    1.000
    Zn18     Zn       0.52768    0.63847    0.08869    1.000
    C217     C        0.05100    0.48360    0.03183    1.000
    H145     H        0.03330    0.45110    0.04670    1.000
    C218     C        0.06470    0.43260    0.00718    1.000
    H146     H        0.05610    0.36600    0.00530    1.000
    C219     C        0.09061    0.47750    0.98539    1.000
    C220     C        0.10050    0.57660    0.98824    1.000
    H147     H        0.11690    0.61100    0.97320    1.000
    C221     C        0.08580    0.62340    0.01346    1.000
    H148     H        0.09280    0.69070    0.01550    1.000
    C222     C        0.10658    0.42300    0.95899    1.000
    C223     C        0.10837    0.28480    0.93260    1.000
    C224     C        0.14236    0.42100    0.91476    1.000
    C225     C        0.09309    0.18190    0.92854    1.000
    C226     C        0.07390    0.12960    0.95147    1.000
    H149     H        0.07190    0.15730    0.97050    1.000
    C227     C        0.05730    0.03570    0.94635    1.000
    H150     H        0.04430    0.99950    0.96220    1.000
    C228     C        0.07740    0.04630    0.89750    1.000
    H151     H        0.07850    0.01800    0.87860    1.000
    C229     C        0.09490    0.13990    0.90132    1.000
    H152     H        0.10810    0.17470    0.88520    1.000
    C230     C        0.16649    0.47340    0.89059    1.000
    C231     C        0.18680    0.42470    0.86703    1.000
    H153     H        0.18550    0.35580    0.86600    1.000
    C232     C        0.20910    0.47780    0.84505    1.000
    H154     H        0.22390    0.44390    0.82930    1.000
    C233     C        0.18970    0.62240    0.86743    1.000
    H155     H        0.19030    0.69150    0.86740    1.000
    C234     C        0.16740    0.57480    0.89052    1.000
    H156     H        0.15300    0.61070    0.90600    1.000
    C235     C        0.30718    0.44270    0.26514    1.000
    H157     H        0.33460    0.42760    0.27680    1.000
    C236     C        0.31474    0.47790    0.23700    1.000
    H158     H        0.34660    0.48730    0.22970    1.000
    C237     C        0.27458    0.49900    0.21977    1.000
    C238     C        0.22890    0.48900    0.23183    1.000
    H159     H        0.20090    0.50550    0.22090    1.000
    C239     C        0.22482    0.45450    0.26017    1.000
    H160     H        0.19350    0.44850    0.26850    1.000
    C240     C        0.27964    0.52720    0.18852    1.000
    C241     C        0.32544    0.55810    0.14874    1.000
    C242     C        0.24375    0.56030    0.14528    1.000
    C243     C        0.37322    0.56970    0.13476    1.000
    C244     C        0.41571    0.56860    0.15125    1.000
    H161     H        0.41480    0.55750    0.17180    1.000
    C245     C        0.45930    0.58410    0.13698    1.000
    H162     H        0.48820    0.58460    0.14830    1.000
    C246     C        0.42190    0.59670    0.09228    1.000
    H163     H        0.42400    0.60500    0.07170    1.000
    C247     C        0.37683    0.58320    0.10462    1.000
    H164     H        0.34860    0.58310    0.09270    1.000
    C248     C        0.19948    0.57380    0.12799    1.000
    C249     C        0.20094    0.60180    0.09871    1.000
    H165     H        0.23110    0.61000    0.08910    1.000
    C250     C        0.15841    0.61740    0.08387    1.000
    H166     H        0.16000    0.63740    0.06400    1.000
    C251     C        0.11311    0.57610    0.12438    1.000
    H167     H        0.08240    0.56520    0.13310    1.000
    C252     C        0.15405    0.56120    0.14098    1.000
    H168     H        0.15150    0.54270    0.16090    1.000
    I37      I        0.98393    0.55256    0.10185    1.000
    I38      I        0.05634    0.82758    0.06806    1.000
    I39      I        0.19528    0.80856    0.80583    1.000
    I40      I        0.33578    0.66684    0.82434    1.000
    I41      I        0.07449    0.77464    0.87142    1.000
    I42      I        0.00895    0.78313    0.96084    1.000
    N73      N        0.06200    0.57780    0.03528    1.000
    N74      N        0.09495    0.32930    0.95738    1.000
    N75      N        0.13324    0.32710    0.91083    1.000
    N76      N        0.13053    0.47290    0.93844    1.000
    N77      N        0.05902    0.99450    0.91973    1.000
    N78      N        0.21045    0.57500    0.84516    1.000
    N79      N        0.26309    0.42900    0.27646    1.000
    N80      N        0.32414    0.53570    0.17740    1.000
    N81      N        0.28647    0.57110    0.13190    1.000
    N82      N        0.23836    0.53860    0.17367    1.000
    N83      N        0.46275    0.59860    0.10797    1.000
    N84      N        0.11465    0.60540    0.09627    1.000
    Zn19     Zn       0.05075    0.64430    0.07533    1.000
    Zn20     Zn       0.24547    0.65365    0.81345    1.000
    Zn21     Zn       0.02768    0.86153    0.91131    1.000
    C253     C        0.44900    0.51640    0.53183    1.000
    H169     H        0.46670    0.54890    0.54670    1.000
    C254     C        0.43530    0.56740    0.50718    1.000
    H170     H        0.44390    0.63400    0.50530    1.000
    C255     C        0.40939    0.52250    0.48539    1.000
    C256     C        0.39950    0.42340    0.48824    1.000
    H171     H        0.38310    0.38900    0.47320    1.000
    C257     C        0.41420    0.37660    0.51346    1.000
    H172     H        0.40720    0.30930    0.51550    1.000
    C258     C        0.39342    0.57700    0.45899    1.000
    C259     C        0.39163    0.71520    0.43260    1.000
    C260     C        0.35764    0.57900    0.41476    1.000
    C261     C        0.40691    0.81810    0.42854    1.000
    C262     C        0.42610    0.87040    0.45147    1.000
    H173     H        0.42810    0.84270    0.47050    1.000
    C263     C        0.44270    0.96430    0.44635    1.000
    H174     H        0.45570    0.00050    0.46220    1.000
    C264     C        0.42260    0.95370    0.39750    1.000
    H175     H        0.42150    0.98200    0.37860    1.000
    C265     C        0.40510    0.86010    0.40132    1.000
    H176     H        0.39190    0.82530    0.38520    1.000
    C266     C        0.33351    0.52660    0.39059    1.000
    C267     C        0.31320    0.57530    0.36703    1.000
    H177     H        0.31450    0.64420    0.36600    1.000
    C268     C        0.29090    0.52220    0.34505    1.000
    H178     H        0.27610    0.55610    0.32930    1.000
    C269     C        0.31030    0.37760    0.36743    1.000
    H179     H        0.30970    0.30850    0.36740    1.000
    C270     C        0.33260    0.42520    0.39052    1.000
    H180     H        0.34700    0.38930    0.40600    1.000
    C271     C        0.19282    0.55730    0.76514    1.000
    H181     H        0.16540    0.57240    0.77680    1.000
    C272     C        0.18526    0.52210    0.73700    1.000
    H182     H        0.15340    0.51270    0.72970    1.000
    C273     C        0.22542    0.50100    0.71977    1.000
    C274     C        0.27110    0.51100    0.73183    1.000
    H183     H        0.29910    0.49450    0.72090    1.000
    C275     C        0.27518    0.54550    0.76017    1.000
    H184     H        0.30650    0.55150    0.76850    1.000
    C276     C        0.22036    0.47280    0.68852    1.000
    C277     C        0.17456    0.44190    0.64874    1.000
    C278     C        0.25625    0.43970    0.64528    1.000
    C279     C        0.12678    0.43030    0.63476    1.000
    C280     C        0.08429    0.43140    0.65125    1.000
    H185     H        0.08520    0.44250    0.67180    1.000
    C281     C        0.04070    0.41590    0.63698    1.000
    H186     H        0.01180    0.41540    0.64830    1.000
    C282     C        0.07810    0.40330    0.59228    1.000
    H187     H        0.07600    0.39500    0.57170    1.000
    C283     C        0.12317    0.41680    0.60462    1.000
    H188     H        0.15140    0.41690    0.59270    1.000
    C284     C        0.30052    0.42620    0.62799    1.000
    C285     C        0.29906    0.39820    0.59871    1.000
    H189     H        0.26890    0.39000    0.58910    1.000
    C286     C        0.34159    0.38260    0.58387    1.000
    H190     H        0.34000    0.36260    0.56400    1.000
    C287     C        0.38689    0.42390    0.62438    1.000
    H191     H        0.41760    0.43480    0.63310    1.000
    C288     C        0.34595    0.43880    0.64098    1.000
    H192     H        0.34850    0.45730    0.66090    1.000
    I43      I        0.51607    0.44744    0.60185    1.000
    I44      I        0.44366    0.17242    0.56806    1.000
    I45      I        0.30472    0.19144    0.30583    1.000
    I46      I        0.16422    0.33316    0.32434    1.000
    I47      I        0.42551    0.22536    0.37142    1.000
    I48      I        0.49105    0.21687    0.46084    1.000
    N85      N        0.43800    0.42220    0.53528    1.000
    N86      N        0.40505    0.67070    0.45738    1.000
    N87      N        0.36676    0.67290    0.41083    1.000
    N88      N        0.36947    0.52710    0.43844    1.000
    N89      N        0.44098    0.00550    0.41973    1.000
    N90      N        0.28955    0.42500    0.34516    1.000
    N91      N        0.23691    0.57100    0.77646    1.000
    N92      N        0.17586    0.46430    0.67740    1.000
    N93      N        0.21353    0.42890    0.63190    1.000
    N94      N        0.26164    0.46140    0.67367    1.000
    N95      N        0.03725    0.40140    0.60797    1.000
    N96      N        0.38535    0.39460    0.59627    1.000
    Zn22     Zn       0.44925    0.35570    0.57533    1.000
    Zn23     Zn       0.25453    0.34635    0.31345    1.000
    Zn24     Zn       0.47232    0.13847    0.41131    1.000
