data_functionalizedCrystal
_audit_creation_method	'EQeq! by Chris Wilmer'
_symmetry_space_group_name_H-M	'P1'
_symmetry_Int_Tables_number	1
_symmetry_cell_setting	triclinic
loop_
_symmetry_equiv_pos_as_xyz
  x,y,z
_cell_length_a	27.108
_cell_length_b	29.418
_cell_length_c	12.9723
_cell_angle_alpha	90
_cell_angle_beta	90
_cell_angle_gamma	90
loop_
_atom_site_label
_atom_site_type_symbol
_atom_site_fract_x
_atom_site_fract_y
_atom_site_fract_z
_atom_site_charge
Mof_O 	O 	0.6954	0.48731	0.1849	-0.962
Mof_O 	O 	0.761	0.4504	0.5338	-0.769
Mof_O 	O 	0.6436	0.44	0.1168	-0.562
Mof_O 	O 	0.7153	0.4138	0.6408	-0.898
Mof_C 	C 	0.5903	0.3327	0.4046	-0.097
Mof_C 	C 	0.6602	0.3795	0.4737	0.117
Mof_H 	H 	0.6585	0.3633	0.5369	-0.019
Mof_C 	C 	0.6309	0.3908	0.3007	0.101
Mof_H 	H 	0.6104	0.3826	0.2444	-0.024
Mof_C 	C 	0.6658	0.4271	0.2923	-0.353
Mof_C 	C 	0.6282	0.3686	0.3925	-0.086
Mof_C 	C 	0.6062	0.287	0.4031	0.052
Mof_C 	C 	0.6981	0.4362	0.37	0.281
Mof_H 	H 	0.7234	0.4581	0.3609	-0.178
Mof_C 	C 	0.6565	0.2742	0.3994	-0.082
Mof_H 	H 	0.6844	0.2938	0.3973	0.046
Mof_C 	C 	0.5398	0.3473	0.4066	0.046
Mof_C 	C 	0.6935	0.4133	0.4615	-0.338
Mof_C 	C 	0.5226	0.3933	0.4101	-0.077
Mof_H 	H 	0.5429	0.4196	0.4121	0.027
Mof_C 	C 	0.6686	0.4538	0.1959	0.581
Mof_C 	C 	0.7273	0.4247	0.546	0.585
Mof_O 	O 	0.1954	0.98731	0.6849	-0.906
Mof_O 	O 	0.261	0.9504	0.0338	-0.724
Mof_O 	O 	0.1436	0.94	0.6168	-0.531
Mof_O 	O 	0.2153	0.9138	0.1408	-0.913
Mof_C 	C 	0.0903	0.8327	0.9046	-0.078
Mof_C 	C 	0.1602	0.8795	0.9737	0.245
Mof_H 	H 	0.1585	0.8633	0.0369	-0.121
Mof_C 	C 	0.1309	0.8908	0.8007	0.118
Mof_H 	H 	0.1104	0.8826	0.7444	-0.022
Mof_C 	C 	0.1658	0.9271	0.7923	-0.333
Mof_C 	C 	0.1282	0.8686	0.8925	-0.124
Mof_C 	C 	0.1062	0.787	0.9031	0.054
Mof_C 	C 	0.1981	0.9362	0.87	0.264
Mof_H 	H 	0.2234	0.9581	0.8609	-0.142
Mof_C 	C 	0.1565	0.7742	0.8994	-0.075
Mof_H 	H 	0.1844	0.7938	0.8973	0.053
Mof_C 	C 	0.0398	0.8473	0.9066	0.063
Mof_C 	C 	0.1935	0.9133	0.9615	-0.285
Mof_C 	C 	0.0226	0.8933	0.9101	-0.13
Mof_H 	H 	0.0429	0.9196	0.9121	0.062
Mof_C 	C 	0.1686	0.9538	0.6959	0.569
Mof_C 	C 	0.2273	0.9247	0.046	0.496
Mof_O 	O 	0.3046	0.01269	0.1849	-1.003
Mof_O 	O 	0.239	0.0496	0.5338	-0.751
Mof_O 	O 	0.3564	0.06	0.1168	-0.556
Mof_O 	O 	0.2847	0.0862	0.6408	-0.87
Mof_C 	C 	0.4097	0.1673	0.4046	-0.095
Mof_C 	C 	0.3398	0.1205	0.4737	0.119
Mof_H 	H 	0.3415	0.1367	0.5369	-0.02
Mof_C 	C 	0.3691	0.1092	0.3007	0.109
Mof_H 	H 	0.3896	0.1174	0.2444	-0.026
Mof_C 	C 	0.3342	0.0729	0.2923	-0.368
Mof_C 	C 	0.3718	0.1314	0.3925	-0.09
Mof_C 	C 	0.3938	0.213	0.4031	0.052
Mof_C 	C 	0.3019	0.0638	0.37	0.29
Mof_H 	H 	0.2766	0.0419	0.3609	-0.194
Mof_C 	C 	0.3435	0.2258	0.3994	-0.082
Mof_H 	H 	0.3156	0.2062	0.3973	0.046
Mof_C 	C 	0.4602	0.1527	0.4066	0.045
Mof_C 	C 	0.3065	0.0867	0.4615	-0.343
Mof_C 	C 	0.4774	0.1067	0.4101	-0.078
Mof_H 	H 	0.4571	0.0804	0.4121	0.021
Mof_C 	C 	0.3314	0.0462	0.1959	0.596
Mof_C 	C 	0.2727	0.0753	0.546	0.572
Mof_O 	O 	0.8046	0.51269	0.6849	-0.981
Mof_O 	O 	0.739	0.5496	0.0338	-0.755
Mof_O 	O 	0.8564	0.56	0.6168	-0.565
Mof_O 	O 	0.7847	0.5862	0.1408	-0.893
Mof_C 	C 	0.9097	0.6673	0.9046	-0.062
Mof_C 	C 	0.8398	0.6205	0.9737	0.261
Mof_H 	H 	0.8415	0.6367	0.0369	-0.126
Mof_C 	C 	0.8691	0.6092	0.8007	0.135
Mof_H 	H 	0.8896	0.6174	0.7444	-0.027
Mof_C 	C 	0.8342	0.5729	0.7923	-0.361
Mof_C 	C 	0.8718	0.6314	0.8925	-0.14
Mof_C 	C 	0.8938	0.713	0.9031	0.052
Mof_C 	C 	0.8019	0.5638	0.87	0.288
Mof_H 	H 	0.7766	0.5419	0.8609	-0.167
Mof_C 	C 	0.8435	0.7258	0.8994	-0.072
Mof_H 	H 	0.8156	0.7062	0.8973	0.053
Mof_C 	C 	0.9602	0.6527	0.9066	0.044
Mof_C 	C 	0.8065	0.5867	0.9615	-0.31
Mof_C 	C 	0.9774	0.6067	0.9101	-0.012
Mof_H 	H 	0.9571	0.5804	0.9121	0.021
Mof_C 	C 	0.8314	0.5462	0.6959	0.594
Mof_C 	C 	0.7727	0.5753	0.046	0.509
Mof_O 	O 	0.3046	0.98731	0.8151	-0.871
Mof_O 	O 	0.239	0.9504	0.4662	-0.733
Mof_O 	O 	0.3564	0.94	0.8832	-0.471
Mof_O 	O 	0.2847	0.9138	0.3592	-0.918
Mof_C 	C 	0.4097	0.8327	0.5954	-0.101
Mof_C 	C 	0.3398	0.8795	0.5263	0.103
Mof_H 	H 	0.3415	0.8633	0.4631	-0.02
Mof_C 	C 	0.3691	0.8908	0.6993	0.085
Mof_H 	H 	0.3896	0.8826	0.7556	0.001
Mof_C 	C 	0.3342	0.9271	0.7077	-0.313
Mof_C 	C 	0.3718	0.8686	0.6075	-0.069
Mof_C 	C 	0.3938	0.787	0.5969	0.057
Mof_C 	C 	0.3019	0.9362	0.63	0.259
Mof_H 	H 	0.2766	0.9581	0.6391	-0.155
Mof_C 	C 	0.3435	0.7742	0.6006	-0.083
Mof_H 	H 	0.3156	0.7938	0.6027	0.046
Mof_C 	C 	0.4602	0.8473	0.5934	0.051
Mof_C 	C 	0.3065	0.9133	0.5385	-0.314
Mof_C 	C 	0.4774	0.8933	0.5899	-0.075
Mof_H 	H 	0.4571	0.9196	0.5879	0.039
Mof_C 	C 	0.3314	0.9538	0.8041	0.555
Mof_C 	C 	0.2727	0.9247	0.454	0.569
Mof_O 	O 	0.8046	0.48731	0.3151	-0.972
Mof_O 	O 	0.739	0.4504	0.9662	-0.713
Mof_O 	O 	0.8564	0.44	0.3832	-0.559
Mof_O 	O 	0.7847	0.4138	0.8592	-0.895
Mof_C 	C 	0.9097	0.3327	0.0954	-0.125
Mof_C 	C 	0.8398	0.3795	0.0263	-0.033
Mof_H 	H 	0.8415	0.3633	0.9631	0.083
Mof_C 	C 	0.8691	0.3908	0.1993	0.066
Mof_H 	H 	0.8896	0.3826	0.2556	-0.002
Mof_C 	C 	0.8342	0.4271	0.2077	-0.331
Mof_C 	C 	0.8718	0.3686	0.1075	-0.027
Mof_C 	C 	0.8938	0.287	0.0969	0.058
Mof_C 	C 	0.8019	0.4362	0.13	0.265
Mof_H 	H 	0.7766	0.4581	0.1391	-0.181
Mof_C 	C 	0.8435	0.2742	0.1006	-0.092
Mof_H 	H 	0.8156	0.2938	0.1027	0.04
Mof_C 	C 	0.9602	0.3473	0.0934	0.048
Mof_C 	C 	0.8065	0.4133	0.0385	-0.349
Mof_C 	C 	0.9774	0.3933	0.0899	-0.027
Mof_H 	H 	0.9571	0.4196	0.0879	0.002
Mof_C 	C 	0.8314	0.4538	0.3041	0.574
Mof_C 	C 	0.7727	0.4247	0.954	0.627
Mof_O 	O 	0.6954	0.51269	0.8151	-0.946
Mof_O 	O 	0.761	0.5496	0.4662	-0.767
Mof_O 	O 	0.6436	0.56	0.8832	-0.508
Mof_O 	O 	0.7153	0.5862	0.3592	-0.899
Mof_C 	C 	0.5903	0.6673	0.5954	-0.097
Mof_C 	C 	0.6602	0.6205	0.5263	0.117
Mof_H 	H 	0.6585	0.6367	0.4631	-0.027
Mof_C 	C 	0.6309	0.6092	0.6993	0.101
Mof_H 	H 	0.6104	0.6174	0.7556	-0.008
Mof_C 	C 	0.6658	0.5729	0.7077	-0.343
Mof_C 	C 	0.6282	0.6314	0.6075	-0.083
Mof_C 	C 	0.6062	0.713	0.5969	0.055
Mof_C 	C 	0.6981	0.5638	0.63	0.282
Mof_H 	H 	0.7234	0.5419	0.6391	-0.18
Mof_C 	C 	0.6565	0.7258	0.6006	-0.081
Mof_H 	H 	0.6844	0.7062	0.6027	0.046
Mof_C 	C 	0.5398	0.6527	0.5934	0.048
Mof_C 	C 	0.6935	0.5867	0.5385	-0.34
Mof_C 	C 	0.5226	0.6067	0.5899	-0.077
Mof_H 	H 	0.5429	0.5804	0.5879	0.029
Mof_C 	C 	0.6686	0.5462	0.8041	0.58
Mof_C 	C 	0.7273	0.5753	0.454	0.583
Mof_O 	O 	0.1954	0.01269	0.3151	-1.013
Mof_O 	O 	0.261	0.0496	0.9662	-0.699
Mof_O 	O 	0.1436	0.06	0.3832	-0.557
Mof_O 	O 	0.2153	0.0862	0.8592	-0.87
Mof_C 	C 	0.0903	0.1673	0.0954	-0.135
Mof_C 	C 	0.1602	0.1205	0.0263	-0.031
Mof_H 	H 	0.1585	0.1367	0.9631	0.079
Mof_C 	C 	0.1309	0.1092	0.1993	0.071
Mof_H 	H 	0.1104	0.1174	0.2556	-0.009
Mof_C 	C 	0.1658	0.0729	0.2077	-0.35
Mof_C 	C 	0.1282	0.1314	0.1075	-0.029
Mof_C 	C 	0.1062	0.213	0.0969	0.058
Mof_C 	C 	0.1981	0.0638	0.13	0.272
Mof_H 	H 	0.2234	0.0419	0.1391	-0.197
Mof_C 	C 	0.1565	0.2258	0.1006	-0.093
Mof_H 	H 	0.1844	0.2062	0.1027	0.04
Mof_C 	C 	0.0398	0.1527	0.0934	0.062
Mof_C 	C 	0.1935	0.0867	0.0385	-0.354
Mof_C 	C 	0.0226	0.1067	0.0899	-0.148
Mof_H 	H 	0.0429	0.0804	0.0879	0.027
Mof_C 	C 	0.1686	0.0462	0.3041	0.589
Mof_C 	C 	0.2273	0.0753	0.954	0.614
Mof_O 	O 	0.3046	0.51269	0.8151	-0.945
Mof_O 	O 	0.239	0.5496	0.4662	-0.766
Mof_O 	O 	0.3564	0.56	0.8832	-0.508
Mof_O 	O 	0.2847	0.5862	0.3592	-0.899
Mof_C 	C 	0.4097	0.6673	0.5954	-0.097
Mof_C 	C 	0.3398	0.6205	0.5263	0.117
Mof_H 	H 	0.3415	0.6367	0.4631	-0.027
Mof_C 	C 	0.3691	0.6092	0.6993	0.1
Mof_H 	H 	0.3896	0.6174	0.7556	-0.008
Mof_C 	C 	0.3342	0.5729	0.7077	-0.342
Mof_C 	C 	0.3718	0.6314	0.6075	-0.083
Mof_C 	C 	0.3938	0.713	0.5969	0.055
Mof_C 	C 	0.3019	0.5638	0.63	0.281
Mof_H 	H 	0.2766	0.5419	0.6391	-0.179
Mof_C 	C 	0.3435	0.7258	0.6006	-0.082
Mof_H 	H 	0.3156	0.7062	0.6027	0.045
Mof_C 	C 	0.4602	0.6527	0.5934	0.048
Mof_C 	C 	0.3065	0.5867	0.5385	-0.34
Mof_C 	C 	0.4774	0.6067	0.5899	-0.077
Mof_H 	H 	0.4571	0.5804	0.5879	0.029
Mof_C 	C 	0.3314	0.5462	0.8041	0.579
Mof_C 	C 	0.2727	0.5753	0.454	0.582
Mof_O 	O 	0.8046	0.01269	0.3151	-1.014
Mof_O 	O 	0.739	0.0496	0.9662	-0.699
Mof_O 	O 	0.8564	0.06	0.3832	-0.554
Mof_O 	O 	0.7847	0.0862	0.8592	-0.869
Mof_C 	C 	0.9097	0.1673	0.0954	-0.123
Mof_C 	C 	0.8398	0.1205	0.0263	-0.028
Mof_H 	H 	0.8415	0.1367	0.9631	0.08
Mof_C 	C 	0.8691	0.1092	0.1993	0.073
Mof_H 	H 	0.8896	0.1174	0.2556	-0.006
Mof_C 	C 	0.8342	0.0729	0.2077	-0.349
Mof_C 	C 	0.8718	0.1314	0.1075	-0.033
Mof_C 	C 	0.8938	0.213	0.0969	0.058
Mof_C 	C 	0.8019	0.0638	0.13	0.273
Mof_H 	H 	0.7766	0.0419	0.1391	-0.197
Mof_C 	C 	0.8435	0.2258	0.1006	-0.091
Mof_H 	H 	0.8156	0.2062	0.1027	0.04
Mof_C 	C 	0.9602	0.1527	0.0934	0.047
Mof_C 	C 	0.8065	0.0867	0.0385	-0.354
Mof_C 	C 	0.9774	0.1067	0.0899	-0.028
Mof_H 	H 	0.9571	0.0804	0.0879	-0.004
Mof_C 	C 	0.8314	0.0462	0.3041	0.59
Mof_C 	C 	0.7727	0.0753	0.954	0.614
Mof_O 	O 	0.6954	0.98731	0.8151	-0.872
Mof_O 	O 	0.761	0.9504	0.4662	-0.735
Mof_O 	O 	0.6436	0.94	0.8832	-0.471
Mof_O 	O 	0.7153	0.9138	0.3592	-0.918
Mof_C 	C 	0.5903	0.8327	0.5954	-0.101
Mof_C 	C 	0.6602	0.8795	0.5263	0.104
Mof_H 	H 	0.6585	0.8633	0.4631	-0.02
Mof_C 	C 	0.6309	0.8908	0.6993	0.086
Mof_H 	H 	0.6104	0.8826	0.7556	0.001
Mof_C 	C 	0.6658	0.9271	0.7077	-0.313
Mof_C 	C 	0.6282	0.8686	0.6075	-0.07
Mof_C 	C 	0.6062	0.787	0.5969	0.057
Mof_C 	C 	0.6981	0.9362	0.63	0.259
Mof_H 	H 	0.7234	0.9581	0.6391	-0.155
Mof_C 	C 	0.6565	0.7742	0.6006	-0.083
Mof_H 	H 	0.6844	0.7938	0.6027	0.046
Mof_C 	C 	0.5398	0.8473	0.5934	0.051
Mof_C 	C 	0.6935	0.9133	0.5385	-0.315
Mof_C 	C 	0.5226	0.8933	0.5899	-0.075
Mof_H 	H 	0.5429	0.9196	0.5879	0.039
Mof_C 	C 	0.6686	0.9538	0.8041	0.556
Mof_C 	C 	0.7273	0.9247	0.454	0.571
Mof_O 	O 	0.1954	0.48731	0.3151	-0.972
Mof_O 	O 	0.261	0.4504	0.9662	-0.713
Mof_O 	O 	0.1436	0.44	0.3832	-0.562
Mof_O 	O 	0.2153	0.4138	0.8592	-0.896
Mof_C 	C 	0.0903	0.3327	0.0954	-0.137
Mof_C 	C 	0.1602	0.3795	0.0263	-0.035
Mof_H 	H 	0.1585	0.3633	0.9631	0.082
Mof_C 	C 	0.1309	0.3908	0.1993	0.063
Mof_H 	H 	0.1104	0.3826	0.2556	-0.005
Mof_C 	C 	0.1658	0.4271	0.2077	-0.332
Mof_C 	C 	0.1282	0.3686	0.1075	-0.023
Mof_C 	C 	0.1062	0.287	0.0969	0.058
Mof_C 	C 	0.1981	0.4362	0.13	0.264
Mof_H 	H 	0.2234	0.4581	0.1391	-0.181
Mof_C 	C 	0.1565	0.2742	0.1006	-0.093
Mof_H 	H 	0.1844	0.2938	0.1027	0.04
Mof_C 	C 	0.0398	0.3473	0.0934	0.064
Mof_C 	C 	0.1935	0.4133	0.0385	-0.349
Mof_C 	C 	0.0226	0.3933	0.0899	-0.147
Mof_H 	H 	0.0429	0.4196	0.0879	0.034
Mof_C 	C 	0.1686	0.4538	0.3041	0.573
Mof_C 	C 	0.2273	0.4247	0.954	0.626
Mof_O 	O 	0.6954	0.01269	0.1849	-1.003
Mof_O 	O 	0.761	0.0496	0.5338	-0.752
Mof_O 	O 	0.6436	0.06	0.1168	-0.556
Mof_O 	O 	0.7153	0.0862	0.6408	-0.871
Mof_C 	C 	0.5903	0.1673	0.4046	-0.095
Mof_C 	C 	0.6602	0.1205	0.4737	0.12
Mof_H 	H 	0.6585	0.1367	0.5369	-0.02
Mof_C 	C 	0.6309	0.1092	0.3007	0.109
Mof_H 	H 	0.6104	0.1174	0.2444	-0.026
Mof_C 	C 	0.6658	0.0729	0.2923	-0.369
Mof_C 	C 	0.6282	0.1314	0.3925	-0.09
Mof_C 	C 	0.6062	0.213	0.4031	0.052
Mof_C 	C 	0.6981	0.0638	0.37	0.291
Mof_H 	H 	0.7234	0.0419	0.3609	-0.194
Mof_C 	C 	0.6565	0.2258	0.3994	-0.082
Mof_H 	H 	0.6844	0.2062	0.3973	0.047
Mof_C 	C 	0.5398	0.1527	0.4066	0.044
Mof_C 	C 	0.6935	0.0867	0.4615	-0.344
Mof_C 	C 	0.5226	0.1067	0.4101	-0.078
Mof_H 	H 	0.5429	0.0804	0.4121	0.021
Mof_C 	C 	0.6686	0.0462	0.1959	0.596
Mof_C 	C 	0.7273	0.0753	0.546	0.573
Mof_O 	O 	0.1954	0.51269	0.6849	-0.981
Mof_O 	O 	0.261	0.5496	0.0338	-0.755
Mof_O 	O 	0.1436	0.56	0.6168	-0.569
Mof_O 	O 	0.2153	0.5862	0.1408	-0.894
Mof_C 	C 	0.0903	0.6673	0.9046	-0.074
Mof_C 	C 	0.1602	0.6205	0.9737	0.258
Mof_H 	H 	0.1585	0.6367	0.0369	-0.127
Mof_C 	C 	0.1309	0.6092	0.8007	0.132
Mof_H 	H 	0.1104	0.6174	0.7444	-0.03
Mof_C 	C 	0.1658	0.5729	0.7923	-0.362
Mof_C 	C 	0.1282	0.6314	0.8925	-0.137
Mof_C 	C 	0.1062	0.713	0.9031	0.052
Mof_C 	C 	0.1981	0.5638	0.87	0.287
Mof_H 	H 	0.2234	0.5419	0.8609	-0.167
Mof_C 	C 	0.1565	0.7258	0.8994	-0.074
Mof_H 	H 	0.1844	0.7062	0.8973	0.053
Mof_C 	C 	0.0398	0.6527	0.9066	0.059
Mof_C 	C 	0.1935	0.5867	0.9615	-0.31
Mof_C 	C 	0.0226	0.6067	0.9101	-0.132
Mof_H 	H 	0.0429	0.5804	0.9121	0.053
Mof_C 	C 	0.1686	0.5462	0.6959	0.593
Mof_C 	C 	0.2273	0.5753	0.046	0.508
Mof_O 	O 	0.3046	0.48731	0.1849	-0.961
Mof_O 	O 	0.239	0.4504	0.5338	-0.766
Mof_O 	O 	0.3564	0.44	0.1168	-0.561
Mof_O 	O 	0.2847	0.4138	0.6408	-0.897
Mof_C 	C 	0.4097	0.3327	0.4046	-0.096
Mof_C 	C 	0.3398	0.3795	0.4737	0.117
Mof_H 	H 	0.3415	0.3633	0.5369	-0.018
Mof_C 	C 	0.3691	0.3908	0.3007	0.102
Mof_H 	H 	0.3896	0.3826	0.2444	-0.023
Mof_C 	C 	0.3342	0.4271	0.2923	-0.351
Mof_C 	C 	0.3718	0.3686	0.3925	-0.085
Mof_C 	C 	0.3938	0.287	0.4031	0.053
Mof_C 	C 	0.3019	0.4362	0.37	0.282
Mof_H 	H 	0.2766	0.4581	0.3609	-0.178
Mof_C 	C 	0.3435	0.2742	0.3994	-0.082
Mof_H 	H 	0.3156	0.2938	0.3973	0.046
Mof_C 	C 	0.4602	0.3473	0.4066	0.046
Mof_C 	C 	0.3065	0.4133	0.4615	-0.338
Mof_C 	C 	0.4774	0.3933	0.4101	-0.077
Mof_H 	H 	0.4571	0.4196	0.4121	0.027
Mof_C 	C 	0.3314	0.4538	0.1959	0.58
Mof_C 	C 	0.2727	0.4247	0.546	0.583
Mof_O 	O 	0.8046	0.98731	0.6849	-0.907
Mof_O 	O 	0.739	0.9504	0.0338	-0.724
Mof_O 	O 	0.8564	0.94	0.6168	-0.527
Mof_O 	O 	0.7847	0.9138	0.1408	-0.912
Mof_C 	C 	0.9097	0.8327	0.9046	-0.066
Mof_C 	C 	0.8398	0.8795	0.9737	0.248
Mof_H 	H 	0.8415	0.8633	0.0369	-0.12
Mof_C 	C 	0.8691	0.8908	0.8007	0.12
Mof_H 	H 	0.8896	0.8826	0.7444	-0.019
Mof_C 	C 	0.8342	0.9271	0.7923	-0.332
Mof_C 	C 	0.8718	0.8686	0.8925	-0.127
Mof_C 	C 	0.8938	0.787	0.9031	0.054
Mof_C 	C 	0.8019	0.9362	0.87	0.265
Mof_H 	H 	0.7766	0.9581	0.8609	-0.142
Mof_C 	C 	0.8435	0.7742	0.8994	-0.073
Mof_H 	H 	0.8156	0.7938	0.8973	0.053
Mof_C 	C 	0.9602	0.8473	0.9066	0.048
Mof_C 	C 	0.8065	0.9133	0.9615	-0.285
Mof_C 	C 	0.9774	0.8933	0.9101	-0.011
Mof_H 	H 	0.9571	0.9196	0.9121	0.03
Mof_C 	C 	0.8314	0.9538	0.6959	0.57
Mof_C 	C 	0.7727	0.9247	0.046	0.496
Mof_Sm	Sm	0.82737	0.5	0.5	1.784
Mof_Sm	Sm	0.32737	0	-0	1.44
Mof_Sm	Sm	0.17263	-2.44019e-33	0.5	1.625
Mof_Sm	Sm	0.67263	0.5	-0	1.578
Mof_Sm	Sm	0.17263	0.5	0.5	1.771
Mof_Sm	Sm	0.67263	0	-0	1.44
Mof_Sm	Sm	0.82737	-2.44019e-33	0.5	1.638
Mof_Sm	Sm	0.32737	0.5	-0	1.578
Mof_Zn	Zn	0.5	0.25	0.4404	0.786
Mof_Zn	Zn	0.5	0.25	0.3839	0.787
Mof_Zn	Zn	-1.29538e-32	0.75	0.9404	0.787
Mof_Zn	Zn	-8.17481e-33	0.75	0.8839	0.785
Mof_Zn	Zn	0.5	0.75	0.5596	0.783
Mof_Zn	Zn	0.5	0.75	0.6161	0.791
Mof_Zn	Zn	-3.24832e-33	0.25	0.0596	0.776
Mof_Zn	Zn	-1.62183e-33	0.25	0.1161	0.787
Mof_Na	Na	0.75	0.45972	0.75	3.406
Mof_Na	Na	0.25	0.04028	0.75	3.21
Mof_Na	Na	0.25	0.95972	0.25	3.545
Mof_Na	Na	0.75	0.54028	0.25	3.332
Mof_Na	Na	0.25	0.54028	0.25	3.327
Mof_Na	Na	0.75	0.95972	0.25	3.549
Mof_Na	Na	0.75	0.04028	0.75	3.214
Mof_Na	Na	0.25	0.45972	0.75	3.402
Mof_N 	N 	0.5	0.3195	0.4083	-0.343
Mof_N 	N 	-1.30114e-32	0.8195	0.9083	-0.351
Mof_N 	N 	0.5	0.1805	0.4083	-0.343
Mof_N 	N 	6.51008e-33	0.6805	0.9083	-0.351
Mof_N 	N 	0.5	0.8195	0.5917	-0.343
Mof_N 	N 	1.99467e-33	0.3195	0.0917	-0.361
Mof_N 	N 	0.5	0.6805	0.5917	-0.343
Mof_N 	N 	-2.8857e-33	0.1805	0.0917	-0.36
Mof_N 	N 	0.5756	0.25	0.4121	-0.342
Mof_N 	N 	0.0756	0.75	0.9121	-0.339
Mof_N 	N 	0.4244	0.25	0.4121	-0.342
Mof_N 	N 	0.9244	0.75	0.9121	-0.332
Mof_N 	N 	0.4244	0.75	0.5879	-0.343
Mof_N 	N 	0.9244	0.25	0.0879	-0.344
Mof_N 	N 	0.5756	0.75	0.5879	-0.343
Mof_N 	N 	0.0756	0.25	0.0879	-0.351
_end
