# CIF file generated by openbabel 3.1.0, see https://openbabel.org
data_I
_chemical_name_common 'image0'
_cell_length_a 20.6494
_cell_length_b 35.261
_cell_length_c 10.1318
_cell_angle_alpha 90
_cell_angle_beta 115.004
_cell_angle_gamma 90
_space_group_name_H-M_alt 'P 1'
_space_group_name_Hall 'P 1'
loop_
    _symmetry_equiv_pos_as_xyz
    x,y,z
loop_
    _atom_site_label
    _atom_site_type_symbol
    _atom_site_fract_x
    _atom_site_fract_y
    _atom_site_fract_z
    _atom_site_occupancy
    Sm1      Sm       0.63698    0.47008    0.97796    1.000
    Sm2      Sm       0.75699    0.30803    0.01054    1.000
    S1       S        0.84478    0.24701    0.32068    1.000
    S2       S        0.70721    0.39034    0.01999    1.000
    S3       S        0.55789    0.53542    0.13942    1.000
    S4       S        0.86733    0.23292    0.94329    1.000
    S5       S        0.75398    0.52691    0.87344    1.000
    S6       S        0.90358    0.34439    0.04318    1.000
    O1       O        0.79969    0.28064    0.25170    1.000
    O2       O        0.81543    0.25314    0.98690    1.000
    O3       O        0.58504    0.52804    0.02850    1.000
    O4       O        0.85010    0.19246    0.94480    1.000
    O5       O        0.73954    0.42673    0.00450    1.000
    O6       O        0.91712    0.25366    0.32990    1.000
    O7       O        0.60020    0.56533    0.24160    1.000
    O8       O        0.89330    0.32447    0.16490    1.000
    O9       O        0.93996    0.24000    0.05460    1.000
    O10      O        0.56510    0.50130    0.22910    1.000
    O11      O        0.75819    0.36847    0.14520    1.000
    O12      O        0.84800    0.24236    0.46600    1.000
    O13      O        0.83656    0.33821    0.91200    1.000
    O14      O        0.64195    0.40127    0.03690    1.000
    O15      O        0.48295    0.54808    0.06330    1.000
    O16      O        0.81450    0.21259    0.23360    1.000
    O17      O        0.68985    0.36559    0.89230    1.000
    O18      O        0.96549    0.32524    0.03690    1.000
    O19      O        0.86030    0.24494    0.80190    1.000
    O20      O        0.91640    0.38465    0.07370    1.000
    O21      O        0.71400    0.51495    0.95740    1.000
    O22      O        0.71000    0.51897    0.71990    1.000
    O23      O        0.77150    0.56645    0.89490    1.000
    O24      O        0.81900    0.50420    0.92190    1.000
    Sm3      Sm       0.13698    0.97008    0.97796    1.000
    Sm4      Sm       0.25699    0.80803    0.01054    1.000
    S7       S        0.34478    0.74701    0.32068    1.000
    S8       S        0.20721    0.89034    0.01999    1.000
    S9       S        0.05789    0.03542    0.13942    1.000
    S10      S        0.36733    0.73292    0.94329    1.000
    S11      S        0.25398    0.02691    0.87344    1.000
    S12      S        0.40358    0.84439    0.04318    1.000
    O25      O        0.29969    0.78064    0.25170    1.000
    O26      O        0.31543    0.75314    0.98690    1.000
    O27      O        0.08504    0.02804    0.02850    1.000
    O28      O        0.35010    0.69246    0.94480    1.000
    O29      O        0.23954    0.92673    0.00450    1.000
    O30      O        0.41712    0.75366    0.32990    1.000
    O31      O        0.10020    0.06533    0.24160    1.000
    O32      O        0.39330    0.82447    0.16490    1.000
    O33      O        0.43996    0.74000    0.05460    1.000
    O34      O        0.06510    0.00130    0.22910    1.000
    O35      O        0.25819    0.86847    0.14520    1.000
    O36      O        0.34800    0.74236    0.46600    1.000
    O37      O        0.33656    0.83821    0.91200    1.000
    O38      O        0.14195    0.90127    0.03690    1.000
    O39      O        0.98295    0.04808    0.06330    1.000
    O40      O        0.31450    0.71259    0.23360    1.000
    O41      O        0.18985    0.86559    0.89230    1.000
    O42      O        0.46549    0.82524    0.03690    1.000
    O43      O        0.36030    0.74494    0.80190    1.000
    O44      O        0.41640    0.88465    0.07370    1.000
    O45      O        0.21400    0.01495    0.95740    1.000
    O46      O        0.21000    0.01897    0.71990    1.000
    O47      O        0.27150    0.06645    0.89490    1.000
    O48      O        0.31900    0.00420    0.92190    1.000
    Sm5      Sm       0.36302    0.47008    0.52204    1.000
    Sm6      Sm       0.24301    0.30803    0.48946    1.000
    S13      S        0.15522    0.24701    0.17932    1.000
    S14      S        0.29279    0.39034    0.48001    1.000
    S15      S        0.44211    0.53542    0.36058    1.000
    S16      S        0.13267    0.23292    0.55671    1.000
    S17      S        0.24602    0.52691    0.62656    1.000
    S18      S        0.09642    0.34439    0.45682    1.000
    O49      O        0.20031    0.28064    0.24830    1.000
    O50      O        0.18457    0.25314    0.51310    1.000
    O51      O        0.41496    0.52804    0.47150    1.000
    O52      O        0.14990    0.19246    0.55520    1.000
    O53      O        0.26046    0.42673    0.49550    1.000
    O54      O        0.08288    0.25366    0.17010    1.000
    O55      O        0.39980    0.56533    0.25840    1.000
    O56      O        0.10670    0.32447    0.33510    1.000
    O57      O        0.06004    0.24000    0.44540    1.000
    O58      O        0.43490    0.50130    0.27090    1.000
    O59      O        0.24181    0.36847    0.35480    1.000
    O60      O        0.15200    0.24236    0.03400    1.000
    O61      O        0.16344    0.33821    0.58800    1.000
    O62      O        0.35805    0.40127    0.46310    1.000
    O63      O        0.51705    0.54808    0.43670    1.000
    O64      O        0.18550    0.21259    0.26640    1.000
    O65      O        0.31015    0.36559    0.60770    1.000
    O66      O        0.03451    0.32524    0.46310    1.000
    O67      O        0.13970    0.24494    0.69810    1.000
    O68      O        0.08360    0.38465    0.42630    1.000
    O69      O        0.28600    0.51495    0.54260    1.000
    O70      O        0.29000    0.51897    0.78010    1.000
    O71      O        0.22850    0.56645    0.60510    1.000
    O72      O        0.18100    0.50420    0.57810    1.000
    Sm7      Sm       0.86302    0.97008    0.52204    1.000
    Sm8      Sm       0.74301    0.80803    0.48946    1.000
    S19      S        0.65522    0.74701    0.17932    1.000
    S20      S        0.79279    0.89034    0.48001    1.000
    S21      S        0.94211    0.03542    0.36058    1.000
    S22      S        0.63267    0.73292    0.55671    1.000
    S23      S        0.74602    0.02691    0.62656    1.000
    S24      S        0.59642    0.84439    0.45682    1.000
    O73      O        0.70031    0.78064    0.24830    1.000
    O74      O        0.68457    0.75314    0.51310    1.000
    O75      O        0.91496    0.02804    0.47150    1.000
    O76      O        0.64990    0.69246    0.55520    1.000
    O77      O        0.76046    0.92673    0.49550    1.000
    O78      O        0.58288    0.75366    0.17010    1.000
    O79      O        0.89980    0.06533    0.25840    1.000
    O80      O        0.60670    0.82447    0.33510    1.000
    O81      O        0.56004    0.74000    0.44540    1.000
    O82      O        0.93490    0.00130    0.27090    1.000
    O83      O        0.74181    0.86847    0.35480    1.000
    O84      O        0.65200    0.74236    0.03400    1.000
    O85      O        0.66344    0.83821    0.58800    1.000
    O86      O        0.85805    0.90127    0.46310    1.000
    O87      O        0.01705    0.04808    0.43670    1.000
    O88      O        0.68550    0.71259    0.26640    1.000
    O89      O        0.81015    0.86559    0.60770    1.000
    O90      O        0.53451    0.82524    0.46310    1.000
    O91      O        0.63970    0.74494    0.69810    1.000
    O92      O        0.58360    0.88465    0.42630    1.000
    O93      O        0.78600    0.01495    0.54260    1.000
    O94      O        0.79000    0.01897    0.78010    1.000
    O95      O        0.72850    0.06645    0.60510    1.000
    O96      O        0.68100    0.00420    0.57810    1.000
    Sm9      Sm       0.36302    0.52992    0.02204    1.000
    Sm10     Sm       0.24301    0.69197    0.98946    1.000
    S25      S        0.15522    0.75299    0.67932    1.000
    S26      S        0.29279    0.60966    0.98001    1.000
    S27      S        0.44211    0.46458    0.86058    1.000
    S28      S        0.13267    0.76708    0.05671    1.000
    S29      S        0.24602    0.47309    0.12656    1.000
    S30      S        0.09642    0.65561    0.95682    1.000
    O97      O        0.20031    0.71936    0.74830    1.000
    O98      O        0.18457    0.74686    0.01310    1.000
    O99      O        0.41496    0.47196    0.97150    1.000
    O100     O        0.14990    0.80754    0.05520    1.000
    O101     O        0.26046    0.57327    0.99550    1.000
    O102     O        0.08288    0.74634    0.67010    1.000
    O103     O        0.39980    0.43467    0.75840    1.000
    O104     O        0.10670    0.67553    0.83510    1.000
    O105     O        0.06004    0.76000    0.94540    1.000
    O106     O        0.43490    0.49870    0.77090    1.000
    O107     O        0.24181    0.63153    0.85480    1.000
    O108     O        0.15200    0.75764    0.53400    1.000
    O109     O        0.16344    0.66179    0.08800    1.000
    O110     O        0.35805    0.59873    0.96310    1.000
    O111     O        0.51705    0.45192    0.93670    1.000
    O112     O        0.18550    0.78741    0.76640    1.000
    O113     O        0.31015    0.63441    0.10770    1.000
    O114     O        0.03451    0.67476    0.96310    1.000
    O115     O        0.13970    0.75506    0.19810    1.000
    O116     O        0.08360    0.61535    0.92630    1.000
    O117     O        0.28600    0.48505    0.04260    1.000
    O118     O        0.29000    0.48103    0.28010    1.000
    O119     O        0.22850    0.43355    0.10510    1.000
    O120     O        0.18100    0.49580    0.07810    1.000
    Sm11     Sm       0.86302    0.02992    0.02204    1.000
    Sm12     Sm       0.74301    0.19197    0.98946    1.000
    S31      S        0.65522    0.25299    0.67932    1.000
    S32      S        0.79279    0.10966    0.98001    1.000
    S33      S        0.94211    0.96458    0.86058    1.000
    S34      S        0.63267    0.26708    0.05671    1.000
    S35      S        0.74602    0.97309    0.12656    1.000
    S36      S        0.59642    0.15561    0.95682    1.000
    O121     O        0.70031    0.21936    0.74830    1.000
    O122     O        0.68457    0.24686    0.01310    1.000
    O123     O        0.91496    0.97196    0.97150    1.000
    O124     O        0.64990    0.30754    0.05520    1.000
    O125     O        0.76046    0.07327    0.99550    1.000
    O126     O        0.58288    0.24634    0.67010    1.000
    O127     O        0.89980    0.93467    0.75840    1.000
    O128     O        0.60670    0.17553    0.83510    1.000
    O129     O        0.56004    0.26000    0.94540    1.000
    O130     O        0.93490    0.99870    0.77090    1.000
    O131     O        0.74181    0.13153    0.85480    1.000
    O132     O        0.65200    0.25764    0.53400    1.000
    O133     O        0.66344    0.16179    0.08800    1.000
    O134     O        0.85805    0.09873    0.96310    1.000
    O135     O        0.01705    0.95192    0.93670    1.000
    O136     O        0.68550    0.28741    0.76640    1.000
    O137     O        0.81015    0.13441    0.10770    1.000
    O138     O        0.53451    0.17476    0.96310    1.000
    O139     O        0.63970    0.25506    0.19810    1.000
    O140     O        0.58360    0.11535    0.92630    1.000
    O141     O        0.78600    0.98505    0.04260    1.000
    O142     O        0.79000    0.98103    0.28010    1.000
    O143     O        0.72850    0.93355    0.10510    1.000
    O144     O        0.68100    0.99580    0.07810    1.000
    Sm13     Sm       0.63698    0.52992    0.47796    1.000
    Sm14     Sm       0.75699    0.69197    0.51054    1.000
    S37      S        0.84478    0.75299    0.82068    1.000
    S38      S        0.70721    0.60966    0.51999    1.000
    S39      S        0.55789    0.46458    0.63942    1.000
    S40      S        0.86733    0.76708    0.44329    1.000
    S41      S        0.75398    0.47309    0.37344    1.000
    S42      S        0.90358    0.65561    0.54318    1.000
    O145     O        0.79969    0.71936    0.75170    1.000
    O146     O        0.81543    0.74686    0.48690    1.000
    O147     O        0.58504    0.47196    0.52850    1.000
    O148     O        0.85010    0.80754    0.44480    1.000
    O149     O        0.73954    0.57327    0.50450    1.000
    O150     O        0.91712    0.74634    0.82990    1.000
    O151     O        0.60020    0.43467    0.74160    1.000
    O152     O        0.89330    0.67553    0.66490    1.000
    O153     O        0.93996    0.76000    0.55460    1.000
    O154     O        0.56510    0.49870    0.72910    1.000
    O155     O        0.75819    0.63153    0.64520    1.000
    O156     O        0.84800    0.75764    0.96600    1.000
    O157     O        0.83656    0.66179    0.41200    1.000
    O158     O        0.64195    0.59873    0.53690    1.000
    O159     O        0.48295    0.45192    0.56330    1.000
    O160     O        0.81450    0.78741    0.73360    1.000
    O161     O        0.68985    0.63441    0.39230    1.000
    O162     O        0.96549    0.67476    0.53690    1.000
    O163     O        0.86030    0.75506    0.30190    1.000
    O164     O        0.91640    0.61535    0.57370    1.000
    O165     O        0.71400    0.48505    0.45740    1.000
    O166     O        0.71000    0.48103    0.21990    1.000
    O167     O        0.77150    0.43355    0.39490    1.000
    O168     O        0.81900    0.49580    0.42190    1.000
    Sm15     Sm       0.13698    0.02992    0.47796    1.000
    Sm16     Sm       0.25699    0.19197    0.51054    1.000
    S43      S        0.34478    0.25299    0.82068    1.000
    S44      S        0.20721    0.10966    0.51999    1.000
    S45      S        0.05789    0.96458    0.63942    1.000
    S46      S        0.36733    0.26708    0.44329    1.000
    S47      S        0.25398    0.97309    0.37344    1.000
    S48      S        0.40358    0.15561    0.54318    1.000
    O169     O        0.29969    0.21936    0.75170    1.000
    O170     O        0.31543    0.24686    0.48690    1.000
    O171     O        0.08504    0.97196    0.52850    1.000
    O172     O        0.35010    0.30754    0.44480    1.000
    O173     O        0.23954    0.07327    0.50450    1.000
    O174     O        0.41712    0.24634    0.82990    1.000
    O175     O        0.10020    0.93467    0.74160    1.000
    O176     O        0.39330    0.17553    0.66490    1.000
    O177     O        0.43996    0.26000    0.55460    1.000
    O178     O        0.06510    0.99870    0.72910    1.000
    O179     O        0.25819    0.13153    0.64520    1.000
    O180     O        0.34800    0.25764    0.96600    1.000
    O181     O        0.33656    0.16179    0.41200    1.000
    O182     O        0.14195    0.09873    0.53690    1.000
    O183     O        0.98295    0.95192    0.56330    1.000
    O184     O        0.31450    0.28741    0.73360    1.000
    O185     O        0.18985    0.13441    0.39230    1.000
    O186     O        0.46549    0.17476    0.53690    1.000
    O187     O        0.36030    0.25506    0.30190    1.000
    O188     O        0.41640    0.11535    0.57370    1.000
    O189     O        0.21400    0.98505    0.45740    1.000
    O190     O        0.21000    0.98103    0.21990    1.000
    O191     O        0.27150    0.93355    0.39490    1.000
    O192     O        0.31900    0.99580    0.42190    1.000
    Sm17     Sm       0.00000    0.28095    0.25000    1.000
    Sm18     Sm       0.50000    0.78095    0.25000    1.000
    Sm19     Sm       0.00000    0.71905    0.75000    1.000
    Sm20     Sm       0.50000    0.21905    0.75000    1.000
