# CIF file generated by openbabel 3.1.0, see https://openbabel.org
data_I
_chemical_name_common 'image0'
_cell_length_a 16.16
_cell_length_b 16.16
_cell_length_c 13.46
_cell_angle_alpha 90
_cell_angle_beta 90
_cell_angle_gamma 90
_space_group_name_H-M_alt 'P 1'
_space_group_name_Hall 'P 1'
loop_
    _symmetry_equiv_pos_as_xyz
    x,y,z
loop_
    _atom_site_label
    _atom_site_type_symbol
    _atom_site_fract_x
    _atom_site_fract_y
    _atom_site_fract_z
    _atom_site_occupancy
    C1       C        0.33140    0.03280    0.23630    1.000
    N1       N        0.46720    0.16860    0.23630    1.000
    C2       C        0.83140    0.53280    0.73630    1.000
    N2       N        0.96720    0.66860    0.73630    1.000
    C3       C        0.66860    0.96720    0.23630    1.000
    N3       N        0.53280    0.83140    0.23630    1.000
    C4       C        0.16860    0.46720    0.73630    1.000
    N4       N        0.03280    0.33140    0.73630    1.000
    C5       C        0.96720    0.33140    0.23630    1.000
    N5       N        0.83140    0.46720    0.23630    1.000
    C6       C        0.46720    0.83140    0.73630    1.000
    N6       N        0.33140    0.96720    0.73630    1.000
    C7       C        0.03280    0.66860    0.23630    1.000
    N7       N        0.16860    0.53280    0.23630    1.000
    C8       C        0.53280    0.16860    0.73630    1.000
    N8       N        0.66860    0.03280    0.73630    1.000
    C9       C        0.66860    0.03280    0.26370    1.000
    N9       N        0.53280    0.16860    0.26370    1.000
    C10      C        0.16860    0.53280    0.76370    1.000
    N10      N        0.03280    0.66860    0.76370    1.000
    C11      C        0.33140    0.96720    0.26370    1.000
    N11      N        0.46720    0.83140    0.26370    1.000
    C12      C        0.83140    0.46720    0.76370    1.000
    N12      N        0.96720    0.33140    0.76370    1.000
    C13      C        0.03280    0.33140    0.26370    1.000
    N13      N        0.16860    0.46720    0.26370    1.000
    C14      C        0.53280    0.83140    0.76370    1.000
    N14      N        0.66860    0.96720    0.76370    1.000
    C15      C        0.96720    0.66860    0.26370    1.000
    N15      N        0.83140    0.53280    0.26370    1.000
    C16      C        0.46720    0.16860    0.76370    1.000
    N16      N        0.33140    0.03280    0.76370    1.000
    Cu1      Cu       0.35424    0.14576    0.18818    1.000
    C17      C        0.35290    0.14710    0.04230    1.000
    C18      C        0.27350    0.22650    0.23800    1.000
    Cu2      Cu       0.64576    0.85424    0.18818    1.000
    C19      C        0.64710    0.85290    0.04230    1.000
    C20      C        0.72650    0.77350    0.23800    1.000
    Cu3      Cu       0.14576    0.35424    0.68818    1.000
    C21      C        0.14710    0.35290    0.54230    1.000
    C22      C        0.22650    0.27350    0.73800    1.000
    Cu4      Cu       0.85424    0.35424    0.18818    1.000
    C23      C        0.85290    0.35290    0.04230    1.000
    C24      C        0.77350    0.27350    0.23800    1.000
    Cu5      Cu       0.14576    0.64576    0.18818    1.000
    C25      C        0.14710    0.64710    0.04230    1.000
    C26      C        0.22650    0.72650    0.23800    1.000
    Cu6      Cu       0.64576    0.14576    0.31182    1.000
    C27      C        0.64710    0.14710    0.45770    1.000
    C28      C        0.72650    0.22650    0.26200    1.000
    Cu7      Cu       0.35424    0.85424    0.31182    1.000
    C29      C        0.35290    0.85290    0.45770    1.000
    C30      C        0.27350    0.77350    0.26200    1.000
    Cu8      Cu       0.14576    0.35424    0.31182    1.000
    C31      C        0.14710    0.35290    0.45770    1.000
    C32      C        0.22650    0.27350    0.26200    1.000
    Cu9      Cu       0.85424    0.64576    0.31182    1.000
    C33      C        0.85290    0.64710    0.45770    1.000
    C34      C        0.77350    0.72650    0.26200    1.000
    Cu10     Cu       0.64576    0.85424    0.81182    1.000
    C35      C        0.64710    0.85290    0.95770    1.000
    C36      C        0.72650    0.77350    0.76200    1.000
    Cu11     Cu       0.35424    0.14576    0.81182    1.000
    C37      C        0.35290    0.14710    0.95770    1.000
    C38      C        0.27350    0.22650    0.76200    1.000
    Cu12     Cu       0.14576    0.64576    0.81182    1.000
    C39      C        0.14710    0.64710    0.95770    1.000
    C40      C        0.22650    0.72650    0.76200    1.000
    Cu13     Cu       0.85424    0.35424    0.81182    1.000
    C41      C        0.85290    0.35290    0.95770    1.000
    C42      C        0.77350    0.27350    0.76200    1.000
    Cu14     Cu       0.35424    0.85424    0.68818    1.000
    C43      C        0.35290    0.85290    0.54230    1.000
    C44      C        0.27350    0.77350    0.73800    1.000
    Cu15     Cu       0.64576    0.14576    0.68818    1.000
    C45      C        0.64710    0.14710    0.54230    1.000
    C46      C        0.72650    0.22650    0.73800    1.000
    Cu16     Cu       0.85424    0.64576    0.68818    1.000
    C47      C        0.85290    0.64710    0.54230    1.000
    C48      C        0.77350    0.72650    0.73800    1.000
