# CIF file generated by openbabel 3.1.0, see https://openbabel.org
data_I
_chemical_name_common 'image0'
_cell_length_a 20.2644
_cell_length_b 19.1216
_cell_length_c 26.8248
_cell_angle_alpha 90
_cell_angle_beta 101.184
_cell_angle_gamma 90
_space_group_name_H-M_alt 'P 1'
_space_group_name_Hall 'P 1'
loop_
    _symmetry_equiv_pos_as_xyz
    x,y,z
loop_
    _atom_site_label
    _atom_site_type_symbol
    _atom_site_fract_x
    _atom_site_fract_y
    _atom_site_fract_z
    _atom_site_occupancy
    Zn1      Zn       0.51337    0.51578    0.05510    1.000
    Zn2      Zn       0.63651    0.40722    0.24283    1.000
    Zn3      Zn       0.78723    0.34237    0.26384    1.000
    C1       C        0.65720    0.80420    0.95700    1.000
    C2       C        0.62140    0.76600    0.91590    1.000
    H1       H        0.62010    0.78070    0.88270    1.000
    C3       C        0.58830    0.70670    0.92570    1.000
    H2       H        0.56420    0.68080    0.89890    1.000
    C4       C        0.59050    0.68430    0.97640    1.000
    C5       C        0.62520    0.72130    0.01580    1.000
    H3       H        0.62560    0.70660    0.04890    1.000
    C6       C        0.66090    0.78210    0.00720    1.000
    C7       C        0.70570    0.82790    0.03930    1.000
    C8       C        0.72990    0.83430    0.09150    1.000
    H4       H        0.71560    0.80320    0.11390    1.000
    C9       C        0.77500    0.88650    0.10990    1.000
    C10      C        0.79580    0.93460    0.07700    1.000
    H5       H        0.82620    0.96960    0.09000    1.000
    C11      C        0.77170    0.93060    0.02530    1.000
    H6       H        0.78440    0.96350    0.00350    1.000
    C12      C        0.72820    0.87670    0.00650    1.000
    C13      C        0.70500    0.90220    0.91340    1.000
    C14      C        0.76700    0.90700    0.89960    1.000
    H7       H        0.80360    0.88270    0.91790    1.000
    C15      C        0.77450    0.94730    0.85940    1.000
    H8       H        0.81640    0.95010    0.85010    1.000
    C16      C        0.72070    0.98430    0.83200    1.000
    C17      C        0.65930    0.97800    0.84600    1.000
    H9       H        0.62240    0.00210    0.82800    1.000
    C18      C        0.65180    0.93690    0.88590    1.000
    H10      H        0.60960    0.93260    0.89440    1.000
    C19      C        0.55670    0.61630    0.98500    1.000
    C20      C        0.80240    0.89220    0.16550    1.000
    C21      C        0.73350    0.03240    0.79050    1.000
    C22      C        0.63760    0.22040    0.02750    1.000
    C23      C        0.59020    0.25810    0.04740    1.000
    H11      H        0.54750    0.26680    0.02840    1.000
    C24      C        0.60930    0.28200    0.09670    1.000
    H12      H        0.57910    0.30830    0.11100    1.000
    C25      C        0.67390    0.26720    0.12600    1.000
    C26      C        0.71940    0.22870    0.10580    1.000
    H13      H        0.76170    0.21900    0.12500    1.000
    C27      C        0.70150    0.20430    0.05620    1.000
    C28      C        0.73610    0.16400    0.02300    1.000
    C29      C        0.69280    0.16000    0.97580    1.000
    C30      C        0.71060    0.12560    0.93460    1.000
    H14      H        0.68080    0.12200    0.90370    1.000
    C31      C        0.77490    0.09670    0.94160    1.000
    H15      H        0.78880    0.07540    0.91420    1.000
    C32      C        0.81960    0.09890    0.98910    1.000
    C33      C        0.79980    0.13400    0.02990    1.000
    H16      H        0.82910    0.13710    0.06120    1.000
    C34      C        0.57260    0.19580    0.94060    1.000
    C35      C        0.54120    0.25810    0.92590    1.000
    H17      H        0.55870    0.29990    0.94050    1.000
    C36      C        0.48220    0.25770    0.88850    1.000
    H18      H        0.46220    0.30060    0.87870    1.000
    C37      C        0.45290    0.20100    0.86610    1.000
    C38      C        0.48640    0.13700    0.88280    1.000
    H19      H        0.46780    0.09560    0.86820    1.000
    C39      C        0.54550    0.13270    0.91970    1.000
    H20      H        0.56560    0.09000    0.92980    1.000
    C40      C        0.69180    0.29990    0.17740    1.000
    C41      C        0.88630    0.06520    0.99500    1.000
    C42      C        0.39060    0.20610    0.82540    1.000
    C43      C        0.56000    0.48130    0.15730    1.000
    H21      H        0.56450    0.43840    0.14190    1.000
    N1       N        0.69850    0.86170    0.95680    1.000
    N2       N        0.63210    0.19250    0.97940    1.000
    O1       O        0.55660    0.60130    0.03070    1.000
    O2       O        0.53120    0.58020    0.94710    1.000
    O3       O        0.78600    0.84640    0.19630    1.000
    O4       O        0.84370    0.93940    0.18230    1.000
    O5       O        0.78290    0.02600    0.77110    1.000
    O6       O        0.69090    0.07900    0.77790    1.000
    O7       O        0.65220    0.34380    0.18850    1.000
    O8       O        0.74720    0.28240    0.20620    1.000
    O9       O        0.92230    0.06360    0.03880    1.000
    O10      O        0.90070    0.03810    0.95570    1.000
    O11      O        0.36980    0.14680    0.81550    1.000
    O12      O        0.36420    0.26170    0.81120    1.000
    O13      O        0.55490    0.34780    0.25000    1.000
    O14      O        0.57820    0.48520    0.20550    1.000
    O15      O        0.53720    0.53010    0.13000    1.000
    Zn4      Zn       0.01337    0.01578    0.05510    1.000
    Zn5      Zn       0.13651    0.90722    0.24283    1.000
    Zn6      Zn       0.28723    0.84237    0.26384    1.000
    C44      C        0.15720    0.30420    0.95700    1.000
    C45      C        0.12140    0.26600    0.91590    1.000
    H22      H        0.12010    0.28070    0.88270    1.000
    C46      C        0.08830    0.20670    0.92570    1.000
    H23      H        0.06420    0.18080    0.89890    1.000
    C47      C        0.09050    0.18430    0.97640    1.000
    C48      C        0.12520    0.22130    0.01580    1.000
    H24      H        0.12560    0.20660    0.04890    1.000
    C49      C        0.16090    0.28210    0.00720    1.000
    C50      C        0.20570    0.32790    0.03930    1.000
    C51      C        0.22990    0.33430    0.09150    1.000
    H25      H        0.21560    0.30320    0.11390    1.000
    C52      C        0.27500    0.38650    0.10990    1.000
    C53      C        0.29580    0.43460    0.07700    1.000
    H26      H        0.32620    0.46960    0.09000    1.000
    C54      C        0.27170    0.43060    0.02530    1.000
    H27      H        0.28440    0.46350    0.00350    1.000
    C55      C        0.22820    0.37670    0.00650    1.000
    C56      C        0.20500    0.40220    0.91340    1.000
    C57      C        0.26700    0.40700    0.89960    1.000
    H28      H        0.30360    0.38270    0.91790    1.000
    C58      C        0.27450    0.44730    0.85940    1.000
    H29      H        0.31640    0.45010    0.85010    1.000
    C59      C        0.22070    0.48430    0.83200    1.000
    C60      C        0.15930    0.47800    0.84600    1.000
    H30      H        0.12240    0.50210    0.82800    1.000
    C61      C        0.15180    0.43690    0.88590    1.000
    H31      H        0.10960    0.43260    0.89440    1.000
    C62      C        0.05670    0.11630    0.98500    1.000
    C63      C        0.30240    0.39220    0.16550    1.000
    C64      C        0.23350    0.53240    0.79050    1.000
    C65      C        0.13760    0.72040    0.02750    1.000
    C66      C        0.09020    0.75810    0.04740    1.000
    H32      H        0.04750    0.76680    0.02840    1.000
    C67      C        0.10930    0.78200    0.09670    1.000
    H33      H        0.07910    0.80830    0.11100    1.000
    C68      C        0.17390    0.76720    0.12600    1.000
    C69      C        0.21940    0.72870    0.10580    1.000
    H34      H        0.26170    0.71900    0.12500    1.000
    C70      C        0.20150    0.70430    0.05620    1.000
    C71      C        0.23610    0.66400    0.02300    1.000
    C72      C        0.19280    0.66000    0.97580    1.000
    C73      C        0.21060    0.62560    0.93460    1.000
    H35      H        0.18080    0.62200    0.90370    1.000
    C74      C        0.27490    0.59670    0.94160    1.000
    H36      H        0.28880    0.57540    0.91420    1.000
    C75      C        0.31960    0.59890    0.98910    1.000
    C76      C        0.29980    0.63400    0.02990    1.000
    H37      H        0.32910    0.63710    0.06120    1.000
    C77      C        0.07260    0.69580    0.94060    1.000
    C78      C        0.04120    0.75810    0.92590    1.000
    H38      H        0.05870    0.79990    0.94050    1.000
    C79      C        0.98220    0.75770    0.88850    1.000
    H39      H        0.96220    0.80060    0.87870    1.000
    C80      C        0.95290    0.70100    0.86610    1.000
    C81      C        0.98640    0.63700    0.88280    1.000
    H40      H        0.96780    0.59560    0.86820    1.000
    C82      C        0.04550    0.63270    0.91970    1.000
    H41      H        0.06560    0.59000    0.92980    1.000
    C83      C        0.19180    0.79990    0.17740    1.000
    C84      C        0.38630    0.56520    0.99500    1.000
    C85      C        0.89060    0.70610    0.82540    1.000
    C86      C        0.06000    0.98130    0.15730    1.000
    H42      H        0.06450    0.93840    0.14190    1.000
    N3       N        0.19850    0.36170    0.95680    1.000
    N4       N        0.13210    0.69250    0.97940    1.000
    O16      O        0.05660    0.10130    0.03070    1.000
    O17      O        0.03120    0.08020    0.94710    1.000
    O18      O        0.28600    0.34640    0.19630    1.000
    O19      O        0.34370    0.43940    0.18230    1.000
    O20      O        0.28290    0.52600    0.77110    1.000
    O21      O        0.19090    0.57900    0.77790    1.000
    O22      O        0.15220    0.84380    0.18850    1.000
    O23      O        0.24720    0.78240    0.20620    1.000
    O24      O        0.42230    0.56360    0.03880    1.000
    O25      O        0.40070    0.53810    0.95570    1.000
    O26      O        0.86980    0.64680    0.81550    1.000
    O27      O        0.86420    0.76170    0.81120    1.000
    O28      O        0.05490    0.84780    0.25000    1.000
    O29      O        0.07820    0.98520    0.20550    1.000
    O30      O        0.03720    0.03010    0.13000    1.000
    Zn7      Zn       0.48663    0.51578    0.44490    1.000
    Zn8      Zn       0.36349    0.40722    0.25717    1.000
    Zn9      Zn       0.21277    0.34237    0.23616    1.000
    C87      C        0.34280    0.80420    0.54300    1.000
    C88      C        0.37860    0.76600    0.58410    1.000
    H43      H        0.37990    0.78070    0.61730    1.000
    C89      C        0.41170    0.70670    0.57430    1.000
    H44      H        0.43580    0.68080    0.60110    1.000
    C90      C        0.40950    0.68430    0.52360    1.000
    C91      C        0.37480    0.72130    0.48420    1.000
    H45      H        0.37440    0.70660    0.45110    1.000
    C92      C        0.33910    0.78210    0.49280    1.000
    C93      C        0.29430    0.82790    0.46070    1.000
    C94      C        0.27010    0.83430    0.40850    1.000
    H46      H        0.28440    0.80320    0.38610    1.000
    C95      C        0.22500    0.88650    0.39010    1.000
    C96      C        0.20420    0.93460    0.42300    1.000
    H47      H        0.17380    0.96960    0.41000    1.000
    C97      C        0.22830    0.93060    0.47470    1.000
    H48      H        0.21560    0.96350    0.49650    1.000
    C98      C        0.27180    0.87670    0.49350    1.000
    C99      C        0.29500    0.90220    0.58660    1.000
    C100     C        0.23300    0.90700    0.60040    1.000
    H49      H        0.19640    0.88270    0.58210    1.000
    C101     C        0.22550    0.94730    0.64060    1.000
    H50      H        0.18360    0.95010    0.64990    1.000
    C102     C        0.27930    0.98430    0.66800    1.000
    C103     C        0.34070    0.97800    0.65400    1.000
    H51      H        0.37760    0.00210    0.67200    1.000
    C104     C        0.34820    0.93690    0.61410    1.000
    H52      H        0.39040    0.93260    0.60560    1.000
    C105     C        0.44330    0.61630    0.51500    1.000
    C106     C        0.19760    0.89220    0.33450    1.000
    C107     C        0.26650    0.03240    0.70950    1.000
    C108     C        0.36240    0.22040    0.47250    1.000
    C109     C        0.40980    0.25810    0.45260    1.000
    H53      H        0.45250    0.26680    0.47160    1.000
    C110     C        0.39070    0.28200    0.40330    1.000
    H54      H        0.42090    0.30830    0.38900    1.000
    C111     C        0.32610    0.26720    0.37400    1.000
    C112     C        0.28060    0.22870    0.39420    1.000
    H55      H        0.23830    0.21900    0.37500    1.000
    C113     C        0.29850    0.20430    0.44380    1.000
    C114     C        0.26390    0.16400    0.47700    1.000
    C115     C        0.30720    0.16000    0.52420    1.000
    C116     C        0.28940    0.12560    0.56540    1.000
    H56      H        0.31920    0.12200    0.59630    1.000
    C117     C        0.22510    0.09670    0.55840    1.000
    H57      H        0.21120    0.07540    0.58580    1.000
    C118     C        0.18040    0.09890    0.51090    1.000
    C119     C        0.20020    0.13400    0.47010    1.000
    H58      H        0.17090    0.13710    0.43880    1.000
    C120     C        0.42740    0.19580    0.55940    1.000
    C121     C        0.45880    0.25810    0.57410    1.000
    H59      H        0.44130    0.29990    0.55950    1.000
    C122     C        0.51780    0.25770    0.61150    1.000
    H60      H        0.53780    0.30060    0.62130    1.000
    C123     C        0.54710    0.20100    0.63390    1.000
    C124     C        0.51360    0.13700    0.61720    1.000
    H61      H        0.53220    0.09560    0.63180    1.000
    C125     C        0.45450    0.13270    0.58030    1.000
    H62      H        0.43440    0.09000    0.57020    1.000
    C126     C        0.30820    0.29990    0.32260    1.000
    C127     C        0.11370    0.06520    0.50500    1.000
    C128     C        0.60940    0.20610    0.67460    1.000
    C129     C        0.44000    0.48130    0.34270    1.000
    H63      H        0.43550    0.43840    0.35810    1.000
    N5       N        0.30150    0.86170    0.54320    1.000
    N6       N        0.36790    0.19250    0.52060    1.000
    O31      O        0.44340    0.60130    0.46930    1.000
    O32      O        0.46880    0.58020    0.55290    1.000
    O33      O        0.21400    0.84640    0.30370    1.000
    O34      O        0.15630    0.93940    0.31770    1.000
    O35      O        0.21710    0.02600    0.72890    1.000
    O36      O        0.30910    0.07900    0.72210    1.000
    O37      O        0.34780    0.34380    0.31150    1.000
    O38      O        0.25280    0.28240    0.29380    1.000
    O39      O        0.07770    0.06360    0.46120    1.000
    O40      O        0.09930    0.03810    0.54430    1.000
    O41      O        0.63020    0.14680    0.68450    1.000
    O42      O        0.63580    0.26170    0.68880    1.000
    O43      O        0.44510    0.34780    0.25000    1.000
    O44      O        0.42180    0.48520    0.29450    1.000
    O45      O        0.46280    0.53010    0.37000    1.000
    Zn10     Zn       0.98663    0.01578    0.44490    1.000
    Zn11     Zn       0.86349    0.90722    0.25717    1.000
    Zn12     Zn       0.71277    0.84237    0.23616    1.000
    C130     C        0.84280    0.30420    0.54300    1.000
    C131     C        0.87860    0.26600    0.58410    1.000
    H64      H        0.87990    0.28070    0.61730    1.000
    C132     C        0.91170    0.20670    0.57430    1.000
    H65      H        0.93580    0.18080    0.60110    1.000
    C133     C        0.90950    0.18430    0.52360    1.000
    C134     C        0.87480    0.22130    0.48420    1.000
    H66      H        0.87440    0.20660    0.45110    1.000
    C135     C        0.83910    0.28210    0.49280    1.000
    C136     C        0.79430    0.32790    0.46070    1.000
    C137     C        0.77010    0.33430    0.40850    1.000
    H67      H        0.78440    0.30320    0.38610    1.000
    C138     C        0.72500    0.38650    0.39010    1.000
    C139     C        0.70420    0.43460    0.42300    1.000
    H68      H        0.67380    0.46960    0.41000    1.000
    C140     C        0.72830    0.43060    0.47470    1.000
    H69      H        0.71560    0.46350    0.49650    1.000
    C141     C        0.77180    0.37670    0.49350    1.000
    C142     C        0.79500    0.40220    0.58660    1.000
    C143     C        0.73300    0.40700    0.60040    1.000
    H70      H        0.69640    0.38270    0.58210    1.000
    C144     C        0.72550    0.44730    0.64060    1.000
    H71      H        0.68360    0.45010    0.64990    1.000
    C145     C        0.77930    0.48430    0.66800    1.000
    C146     C        0.84070    0.47800    0.65400    1.000
    H72      H        0.87760    0.50210    0.67200    1.000
    C147     C        0.84820    0.43690    0.61410    1.000
    H73      H        0.89040    0.43260    0.60560    1.000
    C148     C        0.94330    0.11630    0.51500    1.000
    C149     C        0.69760    0.39220    0.33450    1.000
    C150     C        0.76650    0.53240    0.70950    1.000
    C151     C        0.86240    0.72040    0.47250    1.000
    C152     C        0.90980    0.75810    0.45260    1.000
    H74      H        0.95250    0.76680    0.47160    1.000
    C153     C        0.89070    0.78200    0.40330    1.000
    H75      H        0.92090    0.80830    0.38900    1.000
    C154     C        0.82610    0.76720    0.37400    1.000
    C155     C        0.78060    0.72870    0.39420    1.000
    H76      H        0.73830    0.71900    0.37500    1.000
    C156     C        0.79850    0.70430    0.44380    1.000
    C157     C        0.76390    0.66400    0.47700    1.000
    C158     C        0.80720    0.66000    0.52420    1.000
    C159     C        0.78940    0.62560    0.56540    1.000
    H77      H        0.81920    0.62200    0.59630    1.000
    C160     C        0.72510    0.59670    0.55840    1.000
    H78      H        0.71120    0.57540    0.58580    1.000
    C161     C        0.68040    0.59890    0.51090    1.000
    C162     C        0.70020    0.63400    0.47010    1.000
    H79      H        0.67090    0.63710    0.43880    1.000
    C163     C        0.92740    0.69580    0.55940    1.000
    C164     C        0.95880    0.75810    0.57410    1.000
    H80      H        0.94130    0.79990    0.55950    1.000
    C165     C        0.01780    0.75770    0.61150    1.000
    H81      H        0.03780    0.80060    0.62130    1.000
    C166     C        0.04710    0.70100    0.63390    1.000
    C167     C        0.01360    0.63700    0.61720    1.000
    H82      H        0.03220    0.59560    0.63180    1.000
    C168     C        0.95450    0.63270    0.58030    1.000
    H83      H        0.93440    0.59000    0.57020    1.000
    C169     C        0.80820    0.79990    0.32260    1.000
    C170     C        0.61370    0.56520    0.50500    1.000
    C171     C        0.10940    0.70610    0.67460    1.000
    C172     C        0.94000    0.98130    0.34270    1.000
    H84      H        0.93550    0.93840    0.35810    1.000
    N7       N        0.80150    0.36170    0.54320    1.000
    N8       N        0.86790    0.69250    0.52060    1.000
    O46      O        0.94340    0.10130    0.46930    1.000
    O47      O        0.96880    0.08020    0.55290    1.000
    O48      O        0.71400    0.34640    0.30370    1.000
    O49      O        0.65630    0.43940    0.31770    1.000
    O50      O        0.71710    0.52600    0.72890    1.000
    O51      O        0.80910    0.57900    0.72210    1.000
    O52      O        0.84780    0.84380    0.31150    1.000
    O53      O        0.75280    0.78240    0.29380    1.000
    O54      O        0.57770    0.56360    0.46120    1.000
    O55      O        0.59930    0.53810    0.54430    1.000
    O56      O        0.13020    0.64680    0.68450    1.000
    O57      O        0.13580    0.76170    0.68880    1.000
    O58      O        0.94510    0.84780    0.25000    1.000
    O59      O        0.92180    0.98520    0.29450    1.000
    O60      O        0.96280    0.03010    0.37000    1.000
    Zn13     Zn       0.48663    0.48422    0.94490    1.000
    Zn14     Zn       0.36349    0.59278    0.75717    1.000
    Zn15     Zn       0.21277    0.65763    0.73616    1.000
    C173     C        0.34280    0.19580    0.04300    1.000
    C174     C        0.37860    0.23400    0.08410    1.000
    H85      H        0.37990    0.21930    0.11730    1.000
    C175     C        0.41170    0.29330    0.07430    1.000
    H86      H        0.43580    0.31920    0.10110    1.000
    C176     C        0.40950    0.31570    0.02360    1.000
    C177     C        0.37480    0.27870    0.98420    1.000
    H87      H        0.37440    0.29340    0.95110    1.000
    C178     C        0.33910    0.21790    0.99280    1.000
    C179     C        0.29430    0.17210    0.96070    1.000
    C180     C        0.27010    0.16570    0.90850    1.000
    H88      H        0.28440    0.19680    0.88610    1.000
    C181     C        0.22500    0.11350    0.89010    1.000
    C182     C        0.20420    0.06540    0.92300    1.000
    H89      H        0.17380    0.03040    0.91000    1.000
    C183     C        0.22830    0.06940    0.97470    1.000
    H90      H        0.21560    0.03650    0.99650    1.000
    C184     C        0.27180    0.12330    0.99350    1.000
    C185     C        0.29500    0.09780    0.08660    1.000
    C186     C        0.23300    0.09300    0.10040    1.000
    H91      H        0.19640    0.11730    0.08210    1.000
    C187     C        0.22550    0.05270    0.14060    1.000
    H92      H        0.18360    0.04990    0.14990    1.000
    C188     C        0.27930    0.01570    0.16800    1.000
    C189     C        0.34070    0.02200    0.15400    1.000
    H93      H        0.37760    0.99790    0.17200    1.000
    C190     C        0.34820    0.06310    0.11410    1.000
    H94      H        0.39040    0.06740    0.10560    1.000
    C191     C        0.44330    0.38370    0.01500    1.000
    C192     C        0.19760    0.10780    0.83450    1.000
    C193     C        0.26650    0.96760    0.20950    1.000
    C194     C        0.36240    0.77960    0.97250    1.000
    C195     C        0.40980    0.74190    0.95260    1.000
    H95      H        0.45250    0.73320    0.97160    1.000
    C196     C        0.39070    0.71800    0.90330    1.000
    H96      H        0.42090    0.69170    0.88900    1.000
    C197     C        0.32610    0.73280    0.87400    1.000
    C198     C        0.28060    0.77130    0.89420    1.000
    H97      H        0.23830    0.78100    0.87500    1.000
    C199     C        0.29850    0.79570    0.94380    1.000
    C200     C        0.26390    0.83600    0.97700    1.000
    C201     C        0.30720    0.84000    0.02420    1.000
    C202     C        0.28940    0.87440    0.06540    1.000
    H98      H        0.31920    0.87800    0.09630    1.000
    C203     C        0.22510    0.90330    0.05840    1.000
    H99      H        0.21120    0.92460    0.08580    1.000
    C204     C        0.18040    0.90110    0.01090    1.000
    C205     C        0.20020    0.86600    0.97010    1.000
    H100     H        0.17090    0.86290    0.93880    1.000
    C206     C        0.42740    0.80420    0.05940    1.000
    C207     C        0.45880    0.74190    0.07410    1.000
    H101     H        0.44130    0.70010    0.05950    1.000
    C208     C        0.51780    0.74230    0.11150    1.000
    H102     H        0.53780    0.69940    0.12130    1.000
    C209     C        0.54710    0.79900    0.13390    1.000
    C210     C        0.51360    0.86300    0.11720    1.000
    H103     H        0.53220    0.90440    0.13180    1.000
    C211     C        0.45450    0.86730    0.08030    1.000
    H104     H        0.43440    0.91000    0.07020    1.000
    C212     C        0.30820    0.70010    0.82260    1.000
    C213     C        0.11370    0.93480    0.00500    1.000
    C214     C        0.60940    0.79390    0.17460    1.000
    C215     C        0.44000    0.51870    0.84270    1.000
    H105     H        0.43550    0.56160    0.85810    1.000
    N9       N        0.30150    0.13830    0.04320    1.000
    N10      N        0.36790    0.80750    0.02060    1.000
    O61      O        0.44340    0.39870    0.96930    1.000
    O62      O        0.46880    0.41980    0.05290    1.000
    O63      O        0.21400    0.15360    0.80370    1.000
    O64      O        0.15630    0.06060    0.81770    1.000
    O65      O        0.21710    0.97400    0.22890    1.000
    O66      O        0.30910    0.92100    0.22210    1.000
    O67      O        0.34780    0.65620    0.81150    1.000
    O68      O        0.25280    0.71760    0.79380    1.000
    O69      O        0.07770    0.93640    0.96120    1.000
    O70      O        0.09930    0.96190    0.04430    1.000
    O71      O        0.63020    0.85320    0.18450    1.000
    O72      O        0.63580    0.73830    0.18880    1.000
    O73      O        0.44510    0.65220    0.75000    1.000
    O74      O        0.42180    0.51480    0.79450    1.000
    O75      O        0.46280    0.46990    0.87000    1.000
    Zn16     Zn       0.98663    0.98422    0.94490    1.000
    Zn17     Zn       0.86349    0.09278    0.75717    1.000
    Zn18     Zn       0.71277    0.15763    0.73616    1.000
    C216     C        0.84280    0.69580    0.04300    1.000
    C217     C        0.87860    0.73400    0.08410    1.000
    H106     H        0.87990    0.71930    0.11730    1.000
    C218     C        0.91170    0.79330    0.07430    1.000
    H107     H        0.93580    0.81920    0.10110    1.000
    C219     C        0.90950    0.81570    0.02360    1.000
    C220     C        0.87480    0.77870    0.98420    1.000
    H108     H        0.87440    0.79340    0.95110    1.000
    C221     C        0.83910    0.71790    0.99280    1.000
    C222     C        0.79430    0.67210    0.96070    1.000
    C223     C        0.77010    0.66570    0.90850    1.000
    H109     H        0.78440    0.69680    0.88610    1.000
    C224     C        0.72500    0.61350    0.89010    1.000
    C225     C        0.70420    0.56540    0.92300    1.000
    H110     H        0.67380    0.53040    0.91000    1.000
    C226     C        0.72830    0.56940    0.97470    1.000
    H111     H        0.71560    0.53650    0.99650    1.000
    C227     C        0.77180    0.62330    0.99350    1.000
    C228     C        0.79500    0.59780    0.08660    1.000
    C229     C        0.73300    0.59300    0.10040    1.000
    H112     H        0.69640    0.61730    0.08210    1.000
    C230     C        0.72550    0.55270    0.14060    1.000
    H113     H        0.68360    0.54990    0.14990    1.000
    C231     C        0.77930    0.51570    0.16800    1.000
    C232     C        0.84070    0.52200    0.15400    1.000
    H114     H        0.87760    0.49790    0.17200    1.000
    C233     C        0.84820    0.56310    0.11410    1.000
    H115     H        0.89040    0.56740    0.10560    1.000
    C234     C        0.94330    0.88370    0.01500    1.000
    C235     C        0.69760    0.60780    0.83450    1.000
    C236     C        0.76650    0.46760    0.20950    1.000
    C237     C        0.86240    0.27960    0.97250    1.000
    C238     C        0.90980    0.24190    0.95260    1.000
    H116     H        0.95250    0.23320    0.97160    1.000
    C239     C        0.89070    0.21800    0.90330    1.000
    H117     H        0.92090    0.19170    0.88900    1.000
    C240     C        0.82610    0.23280    0.87400    1.000
    C241     C        0.78060    0.27130    0.89420    1.000
    H118     H        0.73830    0.28100    0.87500    1.000
    C242     C        0.79850    0.29570    0.94380    1.000
    C243     C        0.76390    0.33600    0.97700    1.000
    C244     C        0.80720    0.34000    0.02420    1.000
    C245     C        0.78940    0.37440    0.06540    1.000
    H119     H        0.81920    0.37800    0.09630    1.000
    C246     C        0.72510    0.40330    0.05840    1.000
    H120     H        0.71120    0.42460    0.08580    1.000
    C247     C        0.68040    0.40110    0.01090    1.000
    C248     C        0.70020    0.36600    0.97010    1.000
    H121     H        0.67090    0.36290    0.93880    1.000
    C249     C        0.92740    0.30420    0.05940    1.000
    C250     C        0.95880    0.24190    0.07410    1.000
    H122     H        0.94130    0.20010    0.05950    1.000
    C251     C        0.01780    0.24230    0.11150    1.000
    H123     H        0.03780    0.19940    0.12130    1.000
    C252     C        0.04710    0.29900    0.13390    1.000
    C253     C        0.01360    0.36300    0.11720    1.000
    H124     H        0.03220    0.40440    0.13180    1.000
    C254     C        0.95450    0.36730    0.08030    1.000
    H125     H        0.93440    0.41000    0.07020    1.000
    C255     C        0.80820    0.20010    0.82260    1.000
    C256     C        0.61370    0.43480    0.00500    1.000
    C257     C        0.10940    0.29390    0.17460    1.000
    C258     C        0.94000    0.01870    0.84270    1.000
    H126     H        0.93550    0.06160    0.85810    1.000
    N11      N        0.80150    0.63830    0.04320    1.000
    N12      N        0.86790    0.30750    0.02060    1.000
    O76      O        0.94340    0.89870    0.96930    1.000
    O77      O        0.96880    0.91980    0.05290    1.000
    O78      O        0.71400    0.65360    0.80370    1.000
    O79      O        0.65630    0.56060    0.81770    1.000
    O80      O        0.71710    0.47400    0.22890    1.000
    O81      O        0.80910    0.42100    0.22210    1.000
    O82      O        0.84780    0.15620    0.81150    1.000
    O83      O        0.75280    0.21760    0.79380    1.000
    O84      O        0.57770    0.43640    0.96120    1.000
    O85      O        0.59930    0.46190    0.04430    1.000
    O86      O        0.13020    0.35320    0.18450    1.000
    O87      O        0.13580    0.23830    0.18880    1.000
    O88      O        0.94510    0.15220    0.75000    1.000
    O89      O        0.92180    0.01480    0.79450    1.000
    O90      O        0.96280    0.96990    0.87000    1.000
    Zn19     Zn       0.51337    0.48422    0.55510    1.000
    Zn20     Zn       0.63651    0.59278    0.74283    1.000
    Zn21     Zn       0.78723    0.65763    0.76384    1.000
    C259     C        0.65720    0.19580    0.45700    1.000
    C260     C        0.62140    0.23400    0.41590    1.000
    H127     H        0.62010    0.21930    0.38270    1.000
    C261     C        0.58830    0.29330    0.42570    1.000
    H128     H        0.56420    0.31920    0.39890    1.000
    C262     C        0.59050    0.31570    0.47640    1.000
    C263     C        0.62520    0.27870    0.51580    1.000
    H129     H        0.62560    0.29340    0.54890    1.000
    C264     C        0.66090    0.21790    0.50720    1.000
    C265     C        0.70570    0.17210    0.53930    1.000
    C266     C        0.72990    0.16570    0.59150    1.000
    H130     H        0.71560    0.19680    0.61390    1.000
    C267     C        0.77500    0.11350    0.60990    1.000
    C268     C        0.79580    0.06540    0.57700    1.000
    H131     H        0.82620    0.03040    0.59000    1.000
    C269     C        0.77170    0.06940    0.52530    1.000
    H132     H        0.78440    0.03650    0.50350    1.000
    C270     C        0.72820    0.12330    0.50650    1.000
    C271     C        0.70500    0.09780    0.41340    1.000
    C272     C        0.76700    0.09300    0.39960    1.000
    H133     H        0.80360    0.11730    0.41790    1.000
    C273     C        0.77450    0.05270    0.35940    1.000
    H134     H        0.81640    0.04990    0.35010    1.000
    C274     C        0.72070    0.01570    0.33200    1.000
    C275     C        0.65930    0.02200    0.34600    1.000
    H135     H        0.62240    0.99790    0.32800    1.000
    C276     C        0.65180    0.06310    0.38590    1.000
    H136     H        0.60960    0.06740    0.39440    1.000
    C277     C        0.55670    0.38370    0.48500    1.000
    C278     C        0.80240    0.10780    0.66550    1.000
    C279     C        0.73350    0.96760    0.29050    1.000
    C280     C        0.63760    0.77960    0.52750    1.000
    C281     C        0.59020    0.74190    0.54740    1.000
    H137     H        0.54750    0.73320    0.52840    1.000
    C282     C        0.60930    0.71800    0.59670    1.000
    H138     H        0.57910    0.69170    0.61100    1.000
    C283     C        0.67390    0.73280    0.62600    1.000
    C284     C        0.71940    0.77130    0.60580    1.000
    H139     H        0.76170    0.78100    0.62500    1.000
    C285     C        0.70150    0.79570    0.55620    1.000
    C286     C        0.73610    0.83600    0.52300    1.000
    C287     C        0.69280    0.84000    0.47580    1.000
    C288     C        0.71060    0.87440    0.43460    1.000
    H140     H        0.68080    0.87800    0.40370    1.000
    C289     C        0.77490    0.90330    0.44160    1.000
    H141     H        0.78880    0.92460    0.41420    1.000
    C290     C        0.81960    0.90110    0.48910    1.000
    C291     C        0.79980    0.86600    0.52990    1.000
    H142     H        0.82910    0.86290    0.56120    1.000
    C292     C        0.57260    0.80420    0.44060    1.000
    C293     C        0.54120    0.74190    0.42590    1.000
    H143     H        0.55870    0.70010    0.44050    1.000
    C294     C        0.48220    0.74230    0.38850    1.000
    H144     H        0.46220    0.69940    0.37870    1.000
    C295     C        0.45290    0.79900    0.36610    1.000
    C296     C        0.48640    0.86300    0.38280    1.000
    H145     H        0.46780    0.90440    0.36820    1.000
    C297     C        0.54550    0.86730    0.41970    1.000
    H146     H        0.56560    0.91000    0.42980    1.000
    C298     C        0.69180    0.70010    0.67740    1.000
    C299     C        0.88630    0.93480    0.49500    1.000
    C300     C        0.39060    0.79390    0.32540    1.000
    C301     C        0.56000    0.51870    0.65730    1.000
    H147     H        0.56450    0.56160    0.64190    1.000
    N13      N        0.69850    0.13830    0.45680    1.000
    N14      N        0.63210    0.80750    0.47940    1.000
    O91      O        0.55660    0.39870    0.53070    1.000
    O92      O        0.53120    0.41980    0.44710    1.000
    O93      O        0.78600    0.15360    0.69630    1.000
    O94      O        0.84370    0.06060    0.68230    1.000
    O95      O        0.78290    0.97400    0.27110    1.000
    O96      O        0.69090    0.92100    0.27790    1.000
    O97      O        0.65220    0.65620    0.68850    1.000
    O98      O        0.74720    0.71760    0.70620    1.000
    O99      O        0.92230    0.93640    0.53880    1.000
    O100     O        0.90070    0.96190    0.45570    1.000
    O101     O        0.36980    0.85320    0.31550    1.000
    O102     O        0.36420    0.73830    0.31120    1.000
    O103     O        0.55490    0.65220    0.75000    1.000
    O104     O        0.57820    0.51480    0.70550    1.000
    O105     O        0.53720    0.46990    0.63000    1.000
    Zn22     Zn       0.01337    0.98422    0.55510    1.000
    Zn23     Zn       0.13651    0.09278    0.74283    1.000
    Zn24     Zn       0.28723    0.15763    0.76384    1.000
    C302     C        0.15720    0.69580    0.45700    1.000
    C303     C        0.12140    0.73400    0.41590    1.000
    H148     H        0.12010    0.71930    0.38270    1.000
    C304     C        0.08830    0.79330    0.42570    1.000
    H149     H        0.06420    0.81920    0.39890    1.000
    C305     C        0.09050    0.81570    0.47640    1.000
    C306     C        0.12520    0.77870    0.51580    1.000
    H150     H        0.12560    0.79340    0.54890    1.000
    C307     C        0.16090    0.71790    0.50720    1.000
    C308     C        0.20570    0.67210    0.53930    1.000
    C309     C        0.22990    0.66570    0.59150    1.000
    H151     H        0.21560    0.69680    0.61390    1.000
    C310     C        0.27500    0.61350    0.60990    1.000
    C311     C        0.29580    0.56540    0.57700    1.000
    H152     H        0.32620    0.53040    0.59000    1.000
    C312     C        0.27170    0.56940    0.52530    1.000
    H153     H        0.28440    0.53650    0.50350    1.000
    C313     C        0.22820    0.62330    0.50650    1.000
    C314     C        0.20500    0.59780    0.41340    1.000
    C315     C        0.26700    0.59300    0.39960    1.000
    H154     H        0.30360    0.61730    0.41790    1.000
    C316     C        0.27450    0.55270    0.35940    1.000
    H155     H        0.31640    0.54990    0.35010    1.000
    C317     C        0.22070    0.51570    0.33200    1.000
    C318     C        0.15930    0.52200    0.34600    1.000
    H156     H        0.12240    0.49790    0.32800    1.000
    C319     C        0.15180    0.56310    0.38590    1.000
    H157     H        0.10960    0.56740    0.39440    1.000
    C320     C        0.05670    0.88370    0.48500    1.000
    C321     C        0.30240    0.60780    0.66550    1.000
    C322     C        0.23350    0.46760    0.29050    1.000
    C323     C        0.13760    0.27960    0.52750    1.000
    C324     C        0.09020    0.24190    0.54740    1.000
    H158     H        0.04750    0.23320    0.52840    1.000
    C325     C        0.10930    0.21800    0.59670    1.000
    H159     H        0.07910    0.19170    0.61100    1.000
    C326     C        0.17390    0.23280    0.62600    1.000
    C327     C        0.21940    0.27130    0.60580    1.000
    H160     H        0.26170    0.28100    0.62500    1.000
    C328     C        0.20150    0.29570    0.55620    1.000
    C329     C        0.23610    0.33600    0.52300    1.000
    C330     C        0.19280    0.34000    0.47580    1.000
    C331     C        0.21060    0.37440    0.43460    1.000
    H161     H        0.18080    0.37800    0.40370    1.000
    C332     C        0.27490    0.40330    0.44160    1.000
    H162     H        0.28880    0.42460    0.41420    1.000
    C333     C        0.31960    0.40110    0.48910    1.000
    C334     C        0.29980    0.36600    0.52990    1.000
    H163     H        0.32910    0.36290    0.56120    1.000
    C335     C        0.07260    0.30420    0.44060    1.000
    C336     C        0.04120    0.24190    0.42590    1.000
    H164     H        0.05870    0.20010    0.44050    1.000
    C337     C        0.98220    0.24230    0.38850    1.000
    H165     H        0.96220    0.19940    0.37870    1.000
    C338     C        0.95290    0.29900    0.36610    1.000
    C339     C        0.98640    0.36300    0.38280    1.000
    H166     H        0.96780    0.40440    0.36820    1.000
    C340     C        0.04550    0.36730    0.41970    1.000
    H167     H        0.06560    0.41000    0.42980    1.000
    C341     C        0.19180    0.20010    0.67740    1.000
    C342     C        0.38630    0.43480    0.49500    1.000
    C343     C        0.89060    0.29390    0.32540    1.000
    C344     C        0.06000    0.01870    0.65730    1.000
    H168     H        0.06450    0.06160    0.64190    1.000
    N15      N        0.19850    0.63830    0.45680    1.000
    N16      N        0.13210    0.30750    0.47940    1.000
    O106     O        0.05660    0.89870    0.53070    1.000
    O107     O        0.03120    0.91980    0.44710    1.000
    O108     O        0.28600    0.65360    0.69630    1.000
    O109     O        0.34370    0.56060    0.68230    1.000
    O110     O        0.28290    0.47400    0.27110    1.000
    O111     O        0.19090    0.42100    0.27790    1.000
    O112     O        0.15220    0.15620    0.68850    1.000
    O113     O        0.24720    0.21760    0.70620    1.000
    O114     O        0.42230    0.43640    0.53880    1.000
    O115     O        0.40070    0.46190    0.45570    1.000
    O116     O        0.86980    0.35320    0.31550    1.000
    O117     O        0.86420    0.23830    0.31120    1.000
    O118     O        0.05490    0.15220    0.75000    1.000
    O119     O        0.07820    0.01480    0.70550    1.000
    O120     O        0.03720    0.96990    0.63000    1.000
    C345     C        0.50000    0.37440    0.25000    1.000
    H169     H        0.50000    0.42310    0.25000    1.000
    C346     C        0.00000    0.87440    0.25000    1.000
    H170     H        0.00000    0.92310    0.25000    1.000
    C347     C        0.50000    0.62560    0.75000    1.000
    H171     H        0.50000    0.57690    0.75000    1.000
    C348     C        0.00000    0.12560    0.75000    1.000
    H172     H        0.00000    0.07690    0.75000    1.000
