# CIF file generated by openbabel 3.1.0, see https://openbabel.org
data_I
_chemical_name_common 'image0'
_cell_length_a 10.366
_cell_length_b 10.4724
_cell_length_c 12.9582
_cell_angle_alpha 95.243
_cell_angle_beta 102.189
_cell_angle_gamma 106.434
_space_group_name_H-M_alt 'P 1'
_space_group_name_Hall 'P 1'
loop_
    _symmetry_equiv_pos_as_xyz
    x,y,z
loop_
    _atom_site_label
    _atom_site_type_symbol
    _atom_site_fract_x
    _atom_site_fract_y
    _atom_site_fract_z
    _atom_site_occupancy
    Cu1      Cu       0.81163    0.22564    0.24017    1.000
    S1       S        0.26676    0.21993    0.21507    1.000
    S2       S        0.81864    0.75839    0.27704    1.000
    C1       C        0.08930    0.30370    0.31750    1.000
    C2       C        0.23240    0.30150    0.32210    1.000
    C3       C        0.34750    0.35070    0.40610    1.000
    H1       H        0.34820    0.39770    0.47080    1.000
    C4       C        0.46530    0.32220    0.38370    1.000
    H2       H        0.55220    0.34890    0.43170    1.000
    C5       C        0.43660    0.25110    0.28360    1.000
    C6       C        0.53060    0.20080    0.23110    1.000
    C7       C        0.76480    0.97130    0.18010    1.000
    C8       C        0.75870    0.82750    0.16920    1.000
    C9       C        0.70760    0.73420    0.07790    1.000
    H3       H        0.66900    0.75290    0.01170    1.000
    C10      C        0.71940    0.60750    0.09480    1.000
    H4       H        0.69020    0.53320    0.04080    1.000
    C11      C        0.77790    0.60450    0.19830    1.000
    C12      C        0.80990    0.49050    0.24700    1.000
    O1       O        0.00240    0.26030    0.22750    1.000
    O2       O        0.06150    0.34290    0.40130    1.000
    O3       O        0.64680    0.21020    0.29140    1.000
    O4       O        0.48930    0.15460    0.13430    1.000
    O5       O        0.81640    0.04350    0.27220    1.000
    O6       O        0.71980    0.01720    0.09890    1.000
    O7       O        0.84770    0.50420    0.34590    1.000
    O8       O        0.79440    0.38620    0.18160    1.000
    Cu2      Cu       0.18837    0.77436    0.75983    1.000
    S3       S        0.73324    0.78007    0.78493    1.000
    S4       S        0.18136    0.24161    0.72296    1.000
    C13      C        0.91070    0.69630    0.68250    1.000
    C14      C        0.76760    0.69850    0.67790    1.000
    C15      C        0.65250    0.64930    0.59390    1.000
    H5       H        0.65180    0.60230    0.52920    1.000
    C16      C        0.53470    0.67780    0.61630    1.000
    H6       H        0.44780    0.65110    0.56830    1.000
    C17      C        0.56340    0.74890    0.71640    1.000
    C18      C        0.46940    0.79920    0.76890    1.000
    C19      C        0.23520    0.02870    0.81990    1.000
    C20      C        0.24130    0.17250    0.83080    1.000
    C21      C        0.29240    0.26580    0.92210    1.000
    H7       H        0.33100    0.24710    0.98830    1.000
    C22      C        0.28060    0.39250    0.90520    1.000
    H8       H        0.30980    0.46680    0.95920    1.000
    C23      C        0.22210    0.39550    0.80170    1.000
    C24      C        0.19010    0.50950    0.75300    1.000
    O9       O        0.99760    0.73970    0.77250    1.000
    O10      O        0.93850    0.65710    0.59870    1.000
    O11      O        0.35320    0.78980    0.70860    1.000
    O12      O        0.51070    0.84540    0.86570    1.000
    O13      O        0.18360    0.95650    0.72780    1.000
    O14      O        0.28020    0.98280    0.90110    1.000
    O15      O        0.15230    0.49580    0.65410    1.000
    O16      O        0.20560    0.61380    0.81840    1.000
    Ca1      Ca       0.00000    0.50000    0.50000    1.000
    Ca2      Ca       0.50000    0.00000    0.00000    1.000
