data_functionalizedCrystal
_audit_creation_method	'EQeq! by Chris Wilmer'
_symmetry_space_group_name_H-M	'P1'
_symmetry_Int_Tables_number	1
_symmetry_cell_setting	triclinic
loop_
_symmetry_equiv_pos_as_xyz
  x,y,z
_cell_length_a	8.426
_cell_length_b	9.629
_cell_length_c	17.159
_cell_angle_alpha	90
_cell_angle_beta	90
_cell_angle_gamma	112.14
loop_
_atom_site_label
_atom_site_type_symbol
_atom_site_fract_x
_atom_site_fract_y
_atom_site_fract_z
_atom_site_charge
Mof_Lu	Lu	0.8442	0.0256	0.2571	2.93
Mof_Lu	Lu	0.1558	0.4744	0.7571	2.978
Mof_Lu	Lu	0.1558	0.9744	0.7429	2.931
Mof_Lu	Lu	0.8442	0.5256	0.2429	2.977
Mof_C 	C 	0.9067	0.0258	0.0984	0.309
Mof_C 	C 	0.9466	0.0342	0.0144	-0.122
Mof_C 	C 	0.5634	0.1964	0.2889	0.616
Mof_C 	C 	0.3779	0.1031	0.3006	-0.173
Mof_C 	C 	0.312	0.9579	0.2827	-0.182
Mof_C 	C 	0.1278	0.3643	0.2142	0.629
Mof_C 	C 	0.0933	0.4742	0.5984	0.332
Mof_C 	C 	0.0534	0.4658	0.5144	-0.107
Mof_C 	C 	0.4366	0.3036	0.7889	0.616
Mof_C 	C 	0.6221	0.3969	0.8006	-0.172
Mof_C 	C 	0.688	0.5421	0.7827	-0.184
Mof_C 	C 	0.8722	0.1357	0.7142	0.629
Mof_C 	C 	0.0933	0.9742	0.9016	0.31
Mof_C 	C 	0.0534	0.9658	0.9856	-0.122
Mof_C 	C 	0.4366	0.8036	0.7111	0.616
Mof_C 	C 	0.6221	0.8969	0.6994	-0.174
Mof_C 	C 	0.688	0.0421	0.7173	-0.181
Mof_C 	C 	0.8722	0.6357	0.7858	0.629
Mof_C 	C 	0.9067	0.5258	0.4016	0.332
Mof_C 	C 	0.9466	0.5342	0.4856	-0.107
Mof_C 	C 	0.5634	0.6964	0.2111	0.616
Mof_C 	C 	0.3779	0.6031	0.1994	-0.172
Mof_C 	C 	0.312	0.4579	0.2173	-0.184
Mof_C 	C 	0.1278	0.8643	0.2858	0.628
Mof_O 	O 	0.9657	0.9542	0.1453	-0.545
Mof_O 	O 	0.8135	0.0928	0.1233	-0.53
Mof_O 	O 	0.6625	0.1349	0.2696	-0.865
Mof_O 	O 	0.6069	0.3355	0.2963	-0.709
Mof_O 	O 	0.0224	0.4239	0.1947	-0.795
Mof_O 	O 	0.0854	0.2301	0.2312	-0.73
Mof_O 	O 	0.0343	0.5458	0.6453	-0.571
Mof_O 	O 	0.1865	0.4072	0.6233	-0.531
Mof_O 	O 	0.3375	0.3651	0.7696	-0.868
Mof_O 	O 	0.3931	0.1645	0.7963	-0.698
Mof_O 	O 	0.9776	0.0761	0.6947	-0.795
Mof_O 	O 	0.9146	0.2699	0.7312	-0.741
Mof_O 	O 	0.0343	0.0458	0.8547	-0.545
Mof_O 	O 	0.1865	0.9072	0.8767	-0.53
Mof_O 	O 	0.3375	0.8651	0.7304	-0.866
Mof_O 	O 	0.3931	0.6645	0.7037	-0.709
Mof_O 	O 	0.9776	0.5761	0.8053	-0.795
Mof_O 	O 	0.9146	0.7699	0.7688	-0.73
Mof_O 	O 	0.9657	0.4542	0.3547	-0.571
Mof_O 	O 	0.8135	0.5928	0.3767	-0.531
Mof_O 	O 	0.6625	0.6349	0.2304	-0.868
Mof_O 	O 	0.6069	0.8355	0.2037	-0.698
Mof_O 	O 	0.0224	0.9239	0.3053	-0.795
Mof_O 	O 	0.0854	0.7301	0.2688	-0.741
Mof_H 	H 	0.88996	0.09657	0.97339	0.05
Mof_H 	H 	0.28842	0.15596	0.32551	0.045
Mof_H 	H 	0.39979	0.8986	0.26354	0.052
Mof_H 	H 	0.11004	0.40343	0.47339	0.04
Mof_H 	H 	0.71158	0.34404	0.82551	0.043
Mof_H 	H 	0.60021	0.6014	0.76354	0.05
Mof_H 	H 	0.11004	0.90343	0.02661	0.05
Mof_H 	H 	0.71158	0.84404	0.67449	0.045
Mof_H 	H 	0.59217	0.09344	0.73594	0.051
Mof_H 	H 	0.89029	0.59643	0.52686	0.04
Mof_H 	H 	0.28842	0.65596	0.17449	0.043
Mof_H 	H 	0.39979	0.3986	0.23646	0.05
_end
