data_functionalizedCrystal
_audit_creation_method	'EQeq! by Chris Wilmer'
_symmetry_space_group_name_H-M	'P1'
_symmetry_Int_Tables_number	1
_symmetry_cell_setting	triclinic
loop_
_symmetry_equiv_pos_as_xyz
  x,y,z
_cell_length_a	35.8332
_cell_length_b	35.8332
_cell_length_c	15.2142
_cell_angle_alpha	90
_cell_angle_beta	90
_cell_angle_gamma	120
loop_
_atom_site_label
_atom_site_type_symbol
_atom_site_fract_x
_atom_site_fract_y
_atom_site_fract_z
_atom_site_charge
Mof_O 	O 	0.55758	0.03818	0.57812	-0.411
Mof_O 	O 	0.56365	0.05046	0.4328	-0.411
Mof_C 	C 	0.57837	0.05719	0.5084	0.379
Mof_C 	C 	0.62517	0.08928	0.5224	-0.146
Mof_C 	C 	0.65227	0.10916	0.4558	0.094
Mof_H 	H 	0.6416	0.1034	0.3973	0.015
Mof_C 	C 	0.6958	0.13811	0.47	-0.166
Mof_H 	H 	0.7138	0.1527	0.4212	0.102
Mof_C 	C 	0.71297	0.14586	0.551	0.127
Mof_C 	C 	0.68498	0.12718	0.6211	-0.16
Mof_H 	H 	0.6958	0.1338	0.6794	0.086
Mof_C 	C 	0.64155	0.09908	0.6075	0.081
Mof_H 	H 	0.6229	0.0864	0.6564	0.019
Mof_C 	C 	0.75991	0.17252	0.5691	-0.073
Mof_C 	C 	0.77986	0.15395	0.6173	-0.042
Mof_H 	H 	0.7633	0.1245	0.6335	0.046
Mof_H 	H 	0.7699	0.2747	0.5997	0.089
Mof_O 	O 	0.22425	0.37151	0.91145	-0.411
Mof_O 	O 	0.23032	0.38379	0.76613	-0.411
Mof_C 	C 	0.24504	0.39052	0.84173	0.379
Mof_C 	C 	0.29184	0.42261	0.85573	-0.146
Mof_C 	C 	0.31894	0.44249	0.78913	0.094
Mof_H 	H 	0.30827	0.43673	0.73063	0.015
Mof_C 	C 	0.36247	0.47144	0.80333	-0.166
Mof_H 	H 	0.38047	0.48603	0.75453	0.102
Mof_C 	C 	0.37964	0.47919	0.88433	0.127
Mof_C 	C 	0.35165	0.46051	0.95443	-0.16
Mof_H 	H 	0.36247	0.46713	0.01273	0.086
Mof_C 	C 	0.30822	0.43241	0.94083	0.081
Mof_H 	H 	0.28957	0.41973	0.98973	0.019
Mof_C 	C 	0.42658	0.50585	0.90243	-0.072
Mof_C 	C 	0.44653	0.48728	0.95063	-0.042
Mof_H 	H 	0.42997	0.45783	0.96683	0.045
Mof_H 	H 	0.43657	0.60803	0.93303	0.088
Mof_O 	O 	0.89091	0.70485	0.24479	-0.412
Mof_O 	O 	0.89698	0.71713	0.09947	-0.412
Mof_C 	C 	0.9117	0.72386	0.17507	0.378
Mof_C 	C 	0.9585	0.75595	0.18907	-0.147
Mof_C 	C 	0.9856	0.77583	0.12247	0.093
Mof_H 	H 	0.97493	0.77007	0.06397	0.014
Mof_C 	C 	0.02913	0.80478	0.13667	-0.167
Mof_H 	H 	0.04713	0.81937	0.08787	0.101
Mof_C 	C 	0.0463	0.81253	0.21767	0.126
Mof_C 	C 	0.01831	0.79385	0.28777	-0.161
Mof_H 	H 	0.02913	0.80047	0.34607	0.085
Mof_C 	C 	0.97488	0.76575	0.27417	0.08
Mof_H 	H 	0.95623	0.75307	0.32307	0.018
Mof_C 	C 	0.09324	0.83919	0.23577	-0.074
Mof_C 	C 	0.11319	0.82062	0.28397	-0.043
Mof_H 	H 	0.09663	0.79117	0.30017	0.045
Mof_H 	H 	0.10323	0.94137	0.26637	0.088
Mof_O 	O 	0.96182	0.5194	0.57812	-0.412
Mof_O 	O 	0.94954	0.51319	0.4328	-0.412
Mof_C 	C 	0.94281	0.52118	0.5084	0.378
Mof_C 	C 	0.91072	0.53589	0.5224	-0.147
Mof_C 	C 	0.89084	0.54311	0.4558	0.093
Mof_H 	H 	0.8966	0.5382	0.3973	0.014
Mof_C 	C 	0.86189	0.55769	0.47	-0.167
Mof_H 	H 	0.8473	0.5611	0.4212	0.101
Mof_C 	C 	0.85414	0.56711	0.551	0.126
Mof_C 	C 	0.87282	0.5578	0.6211	-0.161
Mof_H 	H 	0.8662	0.562	0.6794	0.085
Mof_C 	C 	0.90092	0.54247	0.6075	0.08
Mof_H 	H 	0.9136	0.5365	0.6564	0.018
Mof_C 	C 	0.82748	0.58739	0.5691	-0.074
Mof_C 	C 	0.84605	0.62591	0.6173	-0.043
Mof_H 	H 	0.8755	0.6388	0.6335	0.045
Mof_H 	H 	0.7253	0.4952	0.5997	0.088
Mof_O 	O 	0.62849	0.85273	0.91145	-0.412
Mof_O 	O 	0.61621	0.84652	0.76613	-0.412
Mof_C 	C 	0.60948	0.85451	0.84173	0.378
Mof_C 	C 	0.57739	0.86922	0.85573	-0.147
Mof_C 	C 	0.55751	0.87644	0.78913	0.093
Mof_H 	H 	0.56327	0.87153	0.73063	0.014
Mof_C 	C 	0.52856	0.89102	0.80333	-0.167
Mof_H 	H 	0.51397	0.89443	0.75453	0.101
Mof_C 	C 	0.52081	0.90044	0.88433	0.126
Mof_C 	C 	0.53949	0.89113	0.95443	-0.161
Mof_H 	H 	0.53287	0.89533	0.01273	0.085
Mof_C 	C 	0.56759	0.8758	0.94083	0.08
Mof_H 	H 	0.58027	0.86983	0.98973	0.018
Mof_C 	C 	0.49415	0.92072	0.90243	-0.073
Mof_C 	C 	0.51272	0.95924	0.95063	-0.043
Mof_H 	H 	0.54217	0.97213	0.96683	0.045
Mof_H 	H 	0.39197	0.82853	0.93303	0.088
Mof_O 	O 	0.29515	0.18607	0.24479	-0.412
Mof_O 	O 	0.28287	0.17986	0.09947	-0.412
Mof_C 	C 	0.27614	0.18785	0.17507	0.378
Mof_C 	C 	0.24405	0.20256	0.18907	-0.147
Mof_C 	C 	0.22417	0.20978	0.12247	0.093
Mof_H 	H 	0.22993	0.20487	0.06397	0.014
Mof_C 	C 	0.19522	0.22436	0.13667	-0.167
Mof_H 	H 	0.18063	0.22777	0.08787	0.101
Mof_C 	C 	0.18747	0.23378	0.21767	0.126
Mof_C 	C 	0.20615	0.22447	0.28777	-0.161
Mof_H 	H 	0.19953	0.22867	0.34607	0.085
Mof_C 	C 	0.23425	0.20914	0.27417	0.08
Mof_H 	H 	0.24693	0.20317	0.32307	0.018
Mof_C 	C 	0.16081	0.25406	0.23577	-0.074
Mof_C 	C 	0.17938	0.29258	0.28397	-0.043
Mof_H 	H 	0.20883	0.30547	0.30017	0.045
Mof_H 	H 	0.05863	0.16187	0.26637	0.088
Mof_O 	O 	0.4806	0.44242	0.57812	-0.412
Mof_O 	O 	0.48681	0.43635	0.4328	-0.412
Mof_C 	C 	0.47882	0.42163	0.5084	0.378
Mof_C 	C 	0.46411	0.37483	0.5224	-0.147
Mof_C 	C 	0.45689	0.34773	0.4558	0.093
Mof_H 	H 	0.4618	0.3584	0.3973	0.014
Mof_C 	C 	0.44231	0.3042	0.47	-0.167
Mof_H 	H 	0.4389	0.2862	0.4212	0.101
Mof_C 	C 	0.43289	0.28703	0.551	0.126
Mof_C 	C 	0.4422	0.31502	0.6211	-0.161
Mof_H 	H 	0.438	0.3042	0.6794	0.085
Mof_C 	C 	0.45753	0.35845	0.6075	0.08
Mof_H 	H 	0.4635	0.3771	0.6564	0.018
Mof_C 	C 	0.41261	0.24009	0.5691	-0.074
Mof_C 	C 	0.37409	0.22014	0.6173	-0.043
Mof_H 	H 	0.3612	0.2367	0.6335	0.045
Mof_H 	H 	0.5048	0.2301	0.5997	0.088
Mof_O 	O 	0.14727	0.77575	0.91145	-0.412
Mof_O 	O 	0.15348	0.76968	0.76613	-0.412
Mof_C 	C 	0.14549	0.75496	0.84173	0.377
Mof_C 	C 	0.13078	0.70816	0.85573	-0.147
Mof_C 	C 	0.12356	0.68106	0.78913	0.093
Mof_H 	H 	0.12847	0.69173	0.73063	0.014
Mof_C 	C 	0.10898	0.63753	0.80333	-0.167
Mof_H 	H 	0.10557	0.61953	0.75453	0.101
Mof_C 	C 	0.09956	0.62036	0.88433	0.126
Mof_C 	C 	0.10887	0.64835	0.95443	-0.161
Mof_H 	H 	0.10467	0.63753	0.01273	0.085
Mof_C 	C 	0.1242	0.69178	0.94083	0.08
Mof_H 	H 	0.13017	0.71043	0.98973	0.018
Mof_C 	C 	0.07928	0.57342	0.90243	-0.073
Mof_C 	C 	0.04076	0.55347	0.95063	-0.043
Mof_H 	H 	0.02787	0.57003	0.96683	0.045
Mof_H 	H 	0.17147	0.56343	0.93303	0.088
Mof_O 	O 	0.81393	0.10909	0.24479	-0.412
Mof_O 	O 	0.82014	0.10302	0.09947	-0.412
Mof_C 	C 	0.81215	0.0883	0.17507	0.378
Mof_C 	C 	0.79744	0.0415	0.18907	-0.147
Mof_C 	C 	0.79022	0.0144	0.12247	0.094
Mof_H 	H 	0.79513	0.02507	0.06397	0.014
Mof_C 	C 	0.77564	0.97087	0.13667	-0.167
Mof_H 	H 	0.77223	0.95287	0.08787	0.101
Mof_C 	C 	0.76622	0.9537	0.21767	0.126
Mof_C 	C 	0.77553	0.98169	0.28777	-0.161
Mof_H 	H 	0.77133	0.97087	0.34607	0.085
Mof_C 	C 	0.79086	0.02512	0.27417	0.08
Mof_H 	H 	0.79683	0.04377	0.32307	0.018
Mof_C 	C 	0.74594	0.90676	0.23577	-0.074
Mof_C 	C 	0.70742	0.88681	0.28397	-0.043
Mof_H 	H 	0.69453	0.90337	0.30017	0.045
Mof_H 	H 	0.83813	0.89677	0.26637	0.088
Mof_O 	O 	0.03818	0.55758	0.42188	-0.412
Mof_O 	O 	0.05046	0.56365	0.5672	-0.412
Mof_C 	C 	0.05719	0.57837	0.4916	0.378
Mof_C 	C 	0.08928	0.62517	0.4776	-0.147
Mof_C 	C 	0.10916	0.65227	0.5442	0.093
Mof_H 	H 	0.1034	0.6416	0.6027	0.014
Mof_C 	C 	0.13811	0.6958	0.53	-0.167
Mof_H 	H 	0.1527	0.7138	0.5788	0.101
Mof_C 	C 	0.14586	0.71297	0.449	0.126
Mof_C 	C 	0.12718	0.68498	0.3789	-0.161
Mof_H 	H 	0.1338	0.6958	0.3206	0.085
Mof_C 	C 	0.09908	0.64155	0.3925	0.08
Mof_H 	H 	0.0864	0.6229	0.3436	0.018
Mof_C 	C 	0.17252	0.75991	0.4309	-0.074
Mof_C 	C 	0.15395	0.77986	0.3827	-0.043
Mof_H 	H 	0.1245	0.7633	0.3665	0.045
Mof_H 	H 	0.2747	0.7699	0.4003	0.088
Mof_O 	O 	0.70485	0.89091	0.75521	-0.412
Mof_O 	O 	0.71713	0.89698	0.90053	-0.412
Mof_C 	C 	0.72386	0.9117	0.82493	0.378
Mof_C 	C 	0.75595	0.9585	0.81093	-0.147
Mof_C 	C 	0.77583	0.9856	0.87753	0.093
Mof_H 	H 	0.77007	0.97493	0.93603	0.014
Mof_C 	C 	0.80478	0.02913	0.86333	-0.167
Mof_H 	H 	0.81937	0.04713	0.91213	0.101
Mof_C 	C 	0.81253	0.0463	0.78233	0.126
Mof_C 	C 	0.79385	0.01831	0.71223	-0.161
Mof_H 	H 	0.80047	0.02913	0.65393	0.085
Mof_C 	C 	0.76575	0.97488	0.72583	0.08
Mof_H 	H 	0.75307	0.95623	0.67693	0.018
Mof_C 	C 	0.83919	0.09324	0.76423	-0.074
Mof_C 	C 	0.82062	0.11319	0.71603	-0.043
Mof_H 	H 	0.79117	0.09663	0.69983	0.045
Mof_H 	H 	0.94137	0.10323	0.73363	0.088
Mof_O 	O 	0.37151	0.22425	0.08855	-0.412
Mof_O 	O 	0.38379	0.23032	0.23387	-0.412
Mof_C 	C 	0.39052	0.24504	0.15827	0.378
Mof_C 	C 	0.42261	0.29184	0.14427	-0.147
Mof_C 	C 	0.44249	0.31894	0.21087	0.093
Mof_H 	H 	0.43673	0.30827	0.26937	0.014
Mof_C 	C 	0.47144	0.36247	0.19667	-0.167
Mof_H 	H 	0.48603	0.38047	0.24547	0.101
Mof_C 	C 	0.47919	0.37964	0.11567	0.126
Mof_C 	C 	0.46051	0.35165	0.04557	-0.161
Mof_H 	H 	0.46713	0.36247	0.98727	0.085
Mof_C 	C 	0.43241	0.30822	0.05917	0.08
Mof_H 	H 	0.41973	0.28957	0.01027	0.018
Mof_C 	C 	0.50585	0.42658	0.09757	-0.073
Mof_C 	C 	0.48728	0.44653	0.04937	-0.043
Mof_H 	H 	0.45783	0.42997	0.03317	0.045
Mof_H 	H 	0.60803	0.43657	0.06697	0.088
Mof_O 	O 	0.5194	0.96182	0.42188	-0.412
Mof_O 	O 	0.51319	0.94954	0.5672	-0.412
Mof_C 	C 	0.52118	0.94281	0.4916	0.378
Mof_C 	C 	0.53589	0.91072	0.4776	-0.147
Mof_C 	C 	0.54311	0.89084	0.5442	0.093
Mof_H 	H 	0.5382	0.8966	0.6027	0.014
Mof_C 	C 	0.55769	0.86189	0.53	-0.167
Mof_H 	H 	0.5611	0.8473	0.5788	0.101
Mof_C 	C 	0.56711	0.85414	0.449	0.126
Mof_C 	C 	0.5578	0.87282	0.3789	-0.161
Mof_H 	H 	0.562	0.8662	0.3206	0.085
Mof_C 	C 	0.54247	0.90092	0.3925	0.08
Mof_H 	H 	0.5365	0.9136	0.3436	0.018
Mof_C 	C 	0.58739	0.82748	0.4309	-0.074
Mof_C 	C 	0.62591	0.84605	0.3827	-0.043
Mof_H 	H 	0.6388	0.8755	0.3665	0.045
Mof_H 	H 	0.4952	0.7253	0.4003	0.088
Mof_O 	O 	0.18607	0.29515	0.75521	-0.412
Mof_O 	O 	0.17986	0.28287	0.90053	-0.412
Mof_C 	C 	0.18785	0.27614	0.82493	0.378
Mof_C 	C 	0.20256	0.24405	0.81093	-0.147
Mof_C 	C 	0.20978	0.22417	0.87753	0.093
Mof_H 	H 	0.20487	0.22993	0.93603	0.014
Mof_C 	C 	0.22436	0.19522	0.86333	-0.167
Mof_H 	H 	0.22777	0.18063	0.91213	0.101
Mof_C 	C 	0.23378	0.18747	0.78233	0.126
Mof_C 	C 	0.22447	0.20615	0.71223	-0.161
Mof_H 	H 	0.22867	0.19953	0.65393	0.085
Mof_C 	C 	0.20914	0.23425	0.72583	0.08
Mof_H 	H 	0.20317	0.24693	0.67693	0.018
Mof_C 	C 	0.25406	0.16081	0.76423	-0.074
Mof_C 	C 	0.29258	0.17938	0.71603	-0.043
Mof_H 	H 	0.30547	0.20883	0.69983	0.045
Mof_H 	H 	0.16187	0.05863	0.73363	0.088
Mof_O 	O 	0.85273	0.62849	0.08855	-0.412
Mof_O 	O 	0.84652	0.61621	0.23387	-0.412
Mof_C 	C 	0.85451	0.60948	0.15827	0.378
Mof_C 	C 	0.86922	0.57739	0.14427	-0.147
Mof_C 	C 	0.87644	0.55751	0.21087	0.093
Mof_H 	H 	0.87153	0.56327	0.26937	0.014
Mof_C 	C 	0.89102	0.52856	0.19667	-0.167
Mof_H 	H 	0.89443	0.51397	0.24547	0.101
Mof_C 	C 	0.90044	0.52081	0.11567	0.126
Mof_C 	C 	0.89113	0.53949	0.04557	-0.161
Mof_H 	H 	0.89533	0.53287	0.98727	0.085
Mof_C 	C 	0.8758	0.56759	0.05917	0.08
Mof_H 	H 	0.86983	0.58027	0.01027	0.018
Mof_C 	C 	0.92072	0.49415	0.09757	-0.073
Mof_C 	C 	0.95924	0.51272	0.04937	-0.043
Mof_H 	H 	0.97213	0.54217	0.03317	0.045
Mof_H 	H 	0.82853	0.39197	0.06697	0.088
Mof_O 	O 	0.44242	0.4806	0.42188	-0.412
Mof_O 	O 	0.43635	0.48681	0.5672	-0.412
Mof_C 	C 	0.42163	0.47882	0.4916	0.378
Mof_C 	C 	0.37483	0.46411	0.4776	-0.147
Mof_C 	C 	0.34773	0.45689	0.5442	0.093
Mof_H 	H 	0.3584	0.4618	0.6027	0.014
Mof_C 	C 	0.3042	0.44231	0.53	-0.167
Mof_H 	H 	0.2862	0.4389	0.5788	0.101
Mof_C 	C 	0.28703	0.43289	0.449	0.126
Mof_C 	C 	0.31502	0.4422	0.3789	-0.161
Mof_H 	H 	0.3042	0.438	0.3206	0.085
Mof_C 	C 	0.35845	0.45753	0.3925	0.08
Mof_H 	H 	0.3771	0.4635	0.3436	0.018
Mof_C 	C 	0.24009	0.41261	0.4309	-0.074
Mof_C 	C 	0.22014	0.37409	0.3827	-0.043
Mof_H 	H 	0.2367	0.3612	0.3665	0.045
Mof_H 	H 	0.2301	0.5048	0.4003	0.088
Mof_O 	O 	0.10909	0.81393	0.75521	-0.412
Mof_O 	O 	0.10302	0.82014	0.90053	-0.412
Mof_C 	C 	0.0883	0.81215	0.82493	0.378
Mof_C 	C 	0.0415	0.79744	0.81093	-0.147
Mof_C 	C 	0.0144	0.79022	0.87753	0.094
Mof_H 	H 	0.02507	0.79513	0.93603	0.014
Mof_C 	C 	0.97087	0.77564	0.86333	-0.167
Mof_H 	H 	0.95287	0.77223	0.91213	0.101
Mof_C 	C 	0.9537	0.76622	0.78233	0.126
Mof_C 	C 	0.98169	0.77553	0.71223	-0.161
Mof_H 	H 	0.97087	0.77133	0.65393	0.085
Mof_C 	C 	0.02512	0.79086	0.72583	0.08
Mof_H 	H 	0.04377	0.79683	0.67693	0.018
Mof_C 	C 	0.90676	0.74594	0.76423	-0.074
Mof_C 	C 	0.88681	0.70742	0.71603	-0.043
Mof_H 	H 	0.90337	0.69453	0.69983	0.045
Mof_H 	H 	0.89677	0.83813	0.73363	0.088
Mof_O 	O 	0.77575	0.14727	0.08855	-0.412
Mof_O 	O 	0.76968	0.15348	0.23387	-0.412
Mof_C 	C 	0.75496	0.14549	0.15827	0.377
Mof_C 	C 	0.70816	0.13078	0.14427	-0.147
Mof_C 	C 	0.68106	0.12356	0.21087	0.093
Mof_H 	H 	0.69173	0.12847	0.26937	0.014
Mof_C 	C 	0.63753	0.10898	0.19667	-0.167
Mof_H 	H 	0.61953	0.10557	0.24547	0.101
Mof_C 	C 	0.62036	0.09956	0.11567	0.126
Mof_C 	C 	0.64835	0.10887	0.04557	-0.161
Mof_H 	H 	0.63753	0.10467	0.98727	0.085
Mof_C 	C 	0.69178	0.1242	0.05917	0.08
Mof_H 	H 	0.71043	0.13017	0.01027	0.018
Mof_C 	C 	0.57342	0.07928	0.09757	-0.073
Mof_C 	C 	0.55347	0.04076	0.04937	-0.043
Mof_H 	H 	0.57003	0.02787	0.03317	0.045
Mof_H 	H 	0.56343	0.17147	0.06697	0.088
Mof_O 	O 	0.44242	0.96182	0.42188	-0.412
Mof_O 	O 	0.43635	0.94954	0.5672	-0.412
Mof_C 	C 	0.42163	0.94281	0.4916	0.378
Mof_C 	C 	0.37483	0.91072	0.4776	-0.147
Mof_C 	C 	0.34773	0.89084	0.5442	0.093
Mof_H 	H 	0.3584	0.8966	0.6027	0.014
Mof_C 	C 	0.3042	0.86189	0.53	-0.167
Mof_H 	H 	0.2862	0.8473	0.5788	0.101
Mof_C 	C 	0.28703	0.85414	0.449	0.126
Mof_C 	C 	0.31502	0.87282	0.3789	-0.161
Mof_H 	H 	0.3042	0.8662	0.3206	0.085
Mof_C 	C 	0.35845	0.90092	0.3925	0.08
Mof_H 	H 	0.3771	0.9136	0.3436	0.018
Mof_C 	C 	0.24009	0.82748	0.4309	-0.074
Mof_C 	C 	0.22014	0.84605	0.3827	-0.043
Mof_H 	H 	0.2367	0.8755	0.3665	0.045
Mof_H 	H 	0.2301	0.7253	0.4003	0.088
Mof_O 	O 	0.10909	0.29515	0.75521	-0.412
Mof_O 	O 	0.10302	0.28287	0.90053	-0.412
Mof_C 	C 	0.0883	0.27614	0.82493	0.378
Mof_C 	C 	0.0415	0.24405	0.81093	-0.147
Mof_C 	C 	0.0144	0.22417	0.87753	0.093
Mof_H 	H 	0.02507	0.22993	0.93603	0.014
Mof_C 	C 	0.97087	0.19522	0.86333	-0.167
Mof_H 	H 	0.95287	0.18063	0.91213	0.101
Mof_C 	C 	0.9537	0.18747	0.78233	0.126
Mof_C 	C 	0.98169	0.20615	0.71223	-0.161
Mof_H 	H 	0.97087	0.19953	0.65393	0.085
Mof_C 	C 	0.02512	0.23425	0.72583	0.08
Mof_H 	H 	0.04377	0.24693	0.67693	0.018
Mof_C 	C 	0.90676	0.16081	0.76423	-0.074
Mof_C 	C 	0.88681	0.17938	0.71603	-0.043
Mof_H 	H 	0.90337	0.20883	0.69983	0.045
Mof_H 	H 	0.89677	0.05863	0.73363	0.088
Mof_O 	O 	0.77575	0.62849	0.08855	-0.412
Mof_O 	O 	0.76968	0.61621	0.23387	-0.412
Mof_C 	C 	0.75496	0.60948	0.15827	0.378
Mof_C 	C 	0.70816	0.57739	0.14427	-0.147
Mof_C 	C 	0.68106	0.55751	0.21087	0.093
Mof_H 	H 	0.69173	0.56327	0.26937	0.014
Mof_C 	C 	0.63753	0.52856	0.19667	-0.167
Mof_H 	H 	0.61953	0.51397	0.24547	0.101
Mof_C 	C 	0.62036	0.52081	0.11567	0.126
Mof_C 	C 	0.64835	0.53949	0.04557	-0.161
Mof_H 	H 	0.63753	0.53287	0.98727	0.085
Mof_C 	C 	0.69178	0.56759	0.05917	0.08
Mof_H 	H 	0.71043	0.58027	0.01027	0.018
Mof_C 	C 	0.57342	0.49415	0.09757	-0.073
Mof_C 	C 	0.55347	0.51272	0.04937	-0.043
Mof_H 	H 	0.57003	0.54217	0.03317	0.045
Mof_H 	H 	0.56343	0.39197	0.06697	0.088
Mof_O 	O 	0.03818	0.4806	0.42188	-0.412
Mof_O 	O 	0.05046	0.48681	0.5672	-0.412
Mof_C 	C 	0.05719	0.47882	0.4916	0.378
Mof_C 	C 	0.08928	0.46411	0.4776	-0.147
Mof_C 	C 	0.10916	0.45689	0.5442	0.093
Mof_H 	H 	0.1034	0.4618	0.6027	0.014
Mof_C 	C 	0.13811	0.44231	0.53	-0.167
Mof_H 	H 	0.1527	0.4389	0.5788	0.101
Mof_C 	C 	0.14586	0.43289	0.449	0.126
Mof_C 	C 	0.12718	0.4422	0.3789	-0.161
Mof_H 	H 	0.1338	0.438	0.3206	0.085
Mof_C 	C 	0.09908	0.45753	0.3925	0.08
Mof_H 	H 	0.0864	0.4635	0.3436	0.018
Mof_C 	C 	0.17252	0.41261	0.4309	-0.074
Mof_C 	C 	0.15395	0.37409	0.3827	-0.043
Mof_H 	H 	0.1245	0.3612	0.3665	0.045
Mof_H 	H 	0.2747	0.5048	0.4003	0.088
Mof_O 	O 	0.70485	0.81393	0.75521	-0.412
Mof_O 	O 	0.71713	0.82014	0.90053	-0.412
Mof_C 	C 	0.72386	0.81215	0.82493	0.378
Mof_C 	C 	0.75595	0.79744	0.81093	-0.147
Mof_C 	C 	0.77583	0.79022	0.87753	0.093
Mof_H 	H 	0.77007	0.79513	0.93603	0.014
Mof_C 	C 	0.80478	0.77564	0.86333	-0.167
Mof_H 	H 	0.81937	0.77223	0.91213	0.101
Mof_C 	C 	0.81253	0.76622	0.78233	0.126
Mof_C 	C 	0.79385	0.77553	0.71223	-0.161
Mof_H 	H 	0.80047	0.77133	0.65393	0.085
Mof_C 	C 	0.76575	0.79086	0.72583	0.08
Mof_H 	H 	0.75307	0.79683	0.67693	0.018
Mof_C 	C 	0.83919	0.74594	0.76423	-0.074
Mof_C 	C 	0.82062	0.70742	0.71603	-0.043
Mof_H 	H 	0.79117	0.69453	0.69983	0.045
Mof_H 	H 	0.94137	0.83813	0.73363	0.088
Mof_O 	O 	0.37151	0.14727	0.08855	-0.412
Mof_O 	O 	0.38379	0.15348	0.23387	-0.412
Mof_C 	C 	0.39052	0.14549	0.15827	0.378
Mof_C 	C 	0.42261	0.13078	0.14427	-0.147
Mof_C 	C 	0.44249	0.12356	0.21087	0.093
Mof_H 	H 	0.43673	0.12847	0.26937	0.014
Mof_C 	C 	0.47144	0.10898	0.19667	-0.167
Mof_H 	H 	0.48603	0.10557	0.24547	0.101
Mof_C 	C 	0.47919	0.09956	0.11567	0.126
Mof_C 	C 	0.46051	0.10887	0.04557	-0.161
Mof_H 	H 	0.46713	0.10467	0.98727	0.085
Mof_C 	C 	0.43241	0.1242	0.05917	0.08
Mof_H 	H 	0.41973	0.13017	0.01027	0.018
Mof_C 	C 	0.50585	0.07928	0.09757	-0.073
Mof_C 	C 	0.48728	0.04076	0.04937	-0.043
Mof_H 	H 	0.45783	0.02787	0.03317	0.045
Mof_H 	H 	0.60803	0.17147	0.06697	0.088
Mof_O 	O 	0.5194	0.55758	0.42188	-0.412
Mof_O 	O 	0.51319	0.56365	0.5672	-0.412
Mof_C 	C 	0.52118	0.57837	0.4916	0.378
Mof_C 	C 	0.53589	0.62517	0.4776	-0.147
Mof_C 	C 	0.54311	0.65227	0.5442	0.093
Mof_H 	H 	0.5382	0.6416	0.6027	0.014
Mof_C 	C 	0.55769	0.6958	0.53	-0.167
Mof_H 	H 	0.5611	0.7138	0.5788	0.101
Mof_C 	C 	0.56711	0.71297	0.449	0.126
Mof_C 	C 	0.5578	0.68498	0.3789	-0.161
Mof_H 	H 	0.562	0.6958	0.3206	0.085
Mof_C 	C 	0.54247	0.64155	0.3925	0.08
Mof_H 	H 	0.5365	0.6229	0.3436	0.018
Mof_C 	C 	0.58739	0.75991	0.4309	-0.074
Mof_C 	C 	0.62591	0.77986	0.3827	-0.043
Mof_H 	H 	0.6388	0.7633	0.3665	0.045
Mof_H 	H 	0.4952	0.7699	0.4003	0.088
Mof_O 	O 	0.18607	0.89091	0.75521	-0.412
Mof_O 	O 	0.17986	0.89698	0.90053	-0.412
Mof_C 	C 	0.18785	0.9117	0.82493	0.378
Mof_C 	C 	0.20256	0.9585	0.81093	-0.147
Mof_C 	C 	0.20978	0.9856	0.87753	0.094
Mof_H 	H 	0.20487	0.97493	0.93603	0.014
Mof_C 	C 	0.22436	0.02913	0.86333	-0.167
Mof_H 	H 	0.22777	0.04713	0.91213	0.101
Mof_C 	C 	0.23378	0.0463	0.78233	0.126
Mof_C 	C 	0.22447	0.01831	0.71223	-0.161
Mof_H 	H 	0.22867	0.02913	0.65393	0.085
Mof_C 	C 	0.20914	0.97488	0.72583	0.08
Mof_H 	H 	0.20317	0.95623	0.67693	0.018
Mof_C 	C 	0.25406	0.09324	0.76423	-0.074
Mof_C 	C 	0.29258	0.11319	0.71603	-0.043
Mof_H 	H 	0.30547	0.09663	0.69983	0.045
Mof_H 	H 	0.16187	0.10323	0.73363	0.088
Mof_O 	O 	0.85273	0.22425	0.08855	-0.412
Mof_O 	O 	0.84652	0.23032	0.23387	-0.412
Mof_C 	C 	0.85451	0.24504	0.15827	0.377
Mof_C 	C 	0.86922	0.29184	0.14427	-0.147
Mof_C 	C 	0.87644	0.31894	0.21087	0.093
Mof_H 	H 	0.87153	0.30827	0.26937	0.014
Mof_C 	C 	0.89102	0.36247	0.19667	-0.167
Mof_H 	H 	0.89443	0.38047	0.24547	0.101
Mof_C 	C 	0.90044	0.37964	0.11567	0.126
Mof_C 	C 	0.89113	0.35165	0.04557	-0.161
Mof_H 	H 	0.89533	0.36247	0.98727	0.085
Mof_C 	C 	0.8758	0.30822	0.05917	0.08
Mof_H 	H 	0.86983	0.28957	0.01027	0.018
Mof_C 	C 	0.92072	0.42658	0.09757	-0.073
Mof_C 	C 	0.95924	0.44653	0.04937	-0.043
Mof_H 	H 	0.97213	0.42997	0.03317	0.045
Mof_H 	H 	0.82853	0.43657	0.06697	0.088
Mof_O 	O 	0.96182	0.44242	0.57812	-0.412
Mof_O 	O 	0.94954	0.43635	0.4328	-0.412
Mof_C 	C 	0.94281	0.42163	0.5084	0.378
Mof_C 	C 	0.91072	0.37483	0.5224	-0.147
Mof_C 	C 	0.89084	0.34773	0.4558	0.093
Mof_H 	H 	0.8966	0.3584	0.3973	0.014
Mof_C 	C 	0.86189	0.3042	0.47	-0.167
Mof_H 	H 	0.8473	0.2862	0.4212	0.101
Mof_C 	C 	0.85414	0.28703	0.551	0.126
Mof_C 	C 	0.87282	0.31502	0.6211	-0.161
Mof_H 	H 	0.8662	0.3042	0.6794	0.085
Mof_C 	C 	0.90092	0.35845	0.6075	0.08
Mof_H 	H 	0.9136	0.3771	0.6564	0.018
Mof_C 	C 	0.82748	0.24009	0.5691	-0.074
Mof_C 	C 	0.84605	0.22014	0.6173	-0.043
Mof_H 	H 	0.8755	0.2367	0.6335	0.045
Mof_H 	H 	0.7253	0.2301	0.5997	0.088
Mof_O 	O 	0.62849	0.77575	0.91145	-0.412
Mof_O 	O 	0.61621	0.76968	0.76613	-0.412
Mof_C 	C 	0.60948	0.75496	0.84173	0.378
Mof_C 	C 	0.57739	0.70816	0.85573	-0.147
Mof_C 	C 	0.55751	0.68106	0.78913	0.093
Mof_H 	H 	0.56327	0.69173	0.73063	0.014
Mof_C 	C 	0.52856	0.63753	0.80333	-0.167
Mof_H 	H 	0.51397	0.61953	0.75453	0.101
Mof_C 	C 	0.52081	0.62036	0.88433	0.126
Mof_C 	C 	0.53949	0.64835	0.95443	-0.161
Mof_H 	H 	0.53287	0.63753	0.01273	0.085
Mof_C 	C 	0.56759	0.69178	0.94083	0.08
Mof_H 	H 	0.58027	0.71043	0.98973	0.018
Mof_C 	C 	0.49415	0.57342	0.90243	-0.073
Mof_C 	C 	0.51272	0.55347	0.95063	-0.043
Mof_H 	H 	0.54217	0.57003	0.96683	0.045
Mof_H 	H 	0.39197	0.56343	0.93303	0.088
Mof_O 	O 	0.29515	0.10909	0.24479	-0.412
Mof_O 	O 	0.28287	0.10302	0.09947	-0.412
Mof_C 	C 	0.27614	0.0883	0.17507	0.378
Mof_C 	C 	0.24405	0.0415	0.18907	-0.147
Mof_C 	C 	0.22417	0.0144	0.12247	0.093
Mof_H 	H 	0.22993	0.02507	0.06397	0.014
Mof_C 	C 	0.19522	0.97087	0.13667	-0.167
Mof_H 	H 	0.18063	0.95287	0.08787	0.101
Mof_C 	C 	0.18747	0.9537	0.21767	0.126
Mof_C 	C 	0.20615	0.98169	0.28777	-0.161
Mof_H 	H 	0.19953	0.97087	0.34607	0.085
Mof_C 	C 	0.23425	0.02512	0.27417	0.08
Mof_H 	H 	0.24693	0.04377	0.32307	0.018
Mof_C 	C 	0.16081	0.90676	0.23577	-0.074
Mof_C 	C 	0.17938	0.88681	0.28397	-0.043
Mof_H 	H 	0.20883	0.90337	0.30017	0.045
Mof_H 	H 	0.05863	0.89677	0.26637	0.088
Mof_O 	O 	0.4806	0.03818	0.57812	-0.412
Mof_O 	O 	0.48681	0.05046	0.4328	-0.412
Mof_C 	C 	0.47882	0.05719	0.5084	0.378
Mof_C 	C 	0.46411	0.08928	0.5224	-0.147
Mof_C 	C 	0.45689	0.10916	0.4558	0.093
Mof_H 	H 	0.4618	0.1034	0.3973	0.014
Mof_C 	C 	0.44231	0.13811	0.47	-0.167
Mof_H 	H 	0.4389	0.1527	0.4212	0.101
Mof_C 	C 	0.43289	0.14586	0.551	0.126
Mof_C 	C 	0.4422	0.12718	0.6211	-0.161
Mof_H 	H 	0.438	0.1338	0.6794	0.085
Mof_C 	C 	0.45753	0.09908	0.6075	0.08
Mof_H 	H 	0.4635	0.0864	0.6564	0.018
Mof_C 	C 	0.41261	0.17252	0.5691	-0.074
Mof_C 	C 	0.37409	0.15395	0.6173	-0.043
Mof_H 	H 	0.3612	0.1245	0.6335	0.045
Mof_H 	H 	0.5048	0.2747	0.5997	0.088
Mof_O 	O 	0.14727	0.37151	0.91145	-0.412
Mof_O 	O 	0.15348	0.38379	0.76613	-0.412
Mof_C 	C 	0.14549	0.39052	0.84173	0.378
Mof_C 	C 	0.13078	0.42261	0.85573	-0.147
Mof_C 	C 	0.12356	0.44249	0.78913	0.093
Mof_H 	H 	0.12847	0.43673	0.73063	0.014
Mof_C 	C 	0.10898	0.47144	0.80333	-0.167
Mof_H 	H 	0.10557	0.48603	0.75453	0.101
Mof_C 	C 	0.09956	0.47919	0.88433	0.126
Mof_C 	C 	0.10887	0.46051	0.95443	-0.161
Mof_H 	H 	0.10467	0.46713	0.01273	0.085
Mof_C 	C 	0.1242	0.43241	0.94083	0.08
Mof_H 	H 	0.13017	0.41973	0.98973	0.018
Mof_C 	C 	0.07928	0.50585	0.90243	-0.073
Mof_C 	C 	0.04076	0.48728	0.95063	-0.043
Mof_H 	H 	0.02787	0.45783	0.96683	0.045
Mof_H 	H 	0.17147	0.60803	0.93303	0.088
Mof_O 	O 	0.81393	0.70485	0.24479	-0.412
Mof_O 	O 	0.82014	0.71713	0.09947	-0.412
Mof_C 	C 	0.81215	0.72386	0.17507	0.378
Mof_C 	C 	0.79744	0.75595	0.18907	-0.147
Mof_C 	C 	0.79022	0.77583	0.12247	0.093
Mof_H 	H 	0.79513	0.77007	0.06397	0.014
Mof_C 	C 	0.77564	0.80478	0.13667	-0.167
Mof_H 	H 	0.77223	0.81937	0.08787	0.101
Mof_C 	C 	0.76622	0.81253	0.21767	0.126
Mof_C 	C 	0.77553	0.79385	0.28777	-0.161
Mof_H 	H 	0.77133	0.80047	0.34607	0.085
Mof_C 	C 	0.79086	0.76575	0.27417	0.08
Mof_H 	H 	0.79683	0.75307	0.32307	0.018
Mof_C 	C 	0.74594	0.83919	0.23577	-0.074
Mof_C 	C 	0.70742	0.82062	0.28397	-0.043
Mof_H 	H 	0.69453	0.79117	0.30017	0.045
Mof_H 	H 	0.83813	0.94137	0.26637	0.088
Mof_O 	O 	0.55758	0.5194	0.57812	-0.412
Mof_O 	O 	0.56365	0.51319	0.4328	-0.412
Mof_C 	C 	0.57837	0.52118	0.5084	0.378
Mof_C 	C 	0.62517	0.53589	0.5224	-0.147
Mof_C 	C 	0.65227	0.54311	0.4558	0.093
Mof_H 	H 	0.6416	0.5382	0.3973	0.014
Mof_C 	C 	0.6958	0.55769	0.47	-0.167
Mof_H 	H 	0.7138	0.5611	0.4212	0.101
Mof_C 	C 	0.71297	0.56711	0.551	0.126
Mof_C 	C 	0.68498	0.5578	0.6211	-0.161
Mof_H 	H 	0.6958	0.562	0.6794	0.085
Mof_C 	C 	0.64155	0.54247	0.6075	0.08
Mof_H 	H 	0.6229	0.5365	0.6564	0.018
Mof_C 	C 	0.75991	0.58739	0.5691	-0.074
Mof_C 	C 	0.77986	0.62591	0.6173	-0.043
Mof_H 	H 	0.7633	0.6388	0.6335	0.045
Mof_H 	H 	0.7699	0.4952	0.5997	0.088
Mof_O 	O 	0.22425	0.85273	0.91145	-0.412
Mof_O 	O 	0.23032	0.84652	0.76613	-0.412
Mof_C 	C 	0.24504	0.85451	0.84173	0.377
Mof_C 	C 	0.29184	0.86922	0.85573	-0.147
Mof_C 	C 	0.31894	0.87644	0.78913	0.093
Mof_H 	H 	0.30827	0.87153	0.73063	0.014
Mof_C 	C 	0.36247	0.89102	0.80333	-0.167
Mof_H 	H 	0.38047	0.89443	0.75453	0.101
Mof_C 	C 	0.37964	0.90044	0.88433	0.126
Mof_C 	C 	0.35165	0.89113	0.95443	-0.161
Mof_H 	H 	0.36247	0.89533	0.01273	0.085
Mof_C 	C 	0.30822	0.8758	0.94083	0.08
Mof_H 	H 	0.28957	0.86983	0.98973	0.018
Mof_C 	C 	0.42658	0.92072	0.90243	-0.073
Mof_C 	C 	0.44653	0.95924	0.95063	-0.043
Mof_H 	H 	0.42997	0.97213	0.96683	0.045
Mof_H 	H 	0.43657	0.82853	0.93303	0.088
Mof_O 	O 	0.89091	0.18607	0.24479	-0.412
Mof_O 	O 	0.89698	0.17986	0.09947	-0.412
Mof_C 	C 	0.9117	0.18785	0.17507	0.378
Mof_C 	C 	0.9585	0.20256	0.18907	-0.147
Mof_C 	C 	0.9856	0.20978	0.12247	0.094
Mof_H 	H 	0.97493	0.20487	0.06397	0.014
Mof_C 	C 	0.02913	0.22436	0.13667	-0.167
Mof_H 	H 	0.04713	0.22777	0.08787	0.101
Mof_C 	C 	0.0463	0.23378	0.21767	0.126
Mof_C 	C 	0.01831	0.22447	0.28777	-0.161
Mof_H 	H 	0.02913	0.22867	0.34607	0.085
Mof_C 	C 	0.97488	0.20914	0.27417	0.08
Mof_H 	H 	0.95623	0.20317	0.32307	0.018
Mof_C 	C 	0.09324	0.25406	0.23577	-0.074
Mof_C 	C 	0.11319	0.29258	0.28397	-0.043
Mof_H 	H 	0.09663	0.30547	0.30017	0.045
Mof_H 	H 	0.10323	0.16187	0.26637	0.088
Mof_Cu	Cu	0.50335	0.00669	0.41408	0.906
Mof_Cu	Cu	0.17001	0.34002	0.74741	0.906
Mof_Cu	Cu	0.83668	0.67336	0.08075	0.906
Mof_Cu	Cu	0.99331	0.49665	0.41408	0.906
Mof_Cu	Cu	0.65998	0.82999	0.74741	0.906
Mof_Cu	Cu	0.32664	0.16332	0.08075	0.906
Mof_Cu	Cu	0.50335	0.49665	0.41408	0.906
Mof_Cu	Cu	0.17001	0.82999	0.74741	0.906
Mof_Cu	Cu	0.83668	0.16332	0.08075	0.906
Mof_Cu	Cu	0.00669	0.50335	0.58592	0.906
Mof_Cu	Cu	0.67336	0.83668	0.91925	0.906
Mof_Cu	Cu	0.34002	0.17001	0.25259	0.906
Mof_Cu	Cu	0.49665	0.99331	0.58592	0.906
Mof_Cu	Cu	0.16332	0.32664	0.91925	0.906
Mof_Cu	Cu	0.82999	0.65998	0.25259	0.906
Mof_Cu	Cu	0.49665	0.50335	0.58592	0.906
Mof_Cu	Cu	0.16332	0.83668	0.91925	0.906
Mof_Cu	Cu	0.82999	0.17001	0.25259	0.906
Mof_O 	O 	0.76509	0.23491	0.4996	-0.173
Mof_C 	C 	0.82296	0.17704	0.6422	0.004
Mof_C 	C 	0.78448	0.21552	0.5455	0.125
Mof_C 	C 	0.74682	0.25318	0.5626	-0.18
Mof_H 	H 	0.7332	0.2668	0.5301	0.092
Mof_O 	O 	0.43176	0.56824	0.83293	-0.173
Mof_C 	C 	0.48963	0.51037	0.97553	0.004
Mof_C 	C 	0.45115	0.54885	0.87883	0.124
Mof_C 	C 	0.41349	0.58651	0.89593	-0.18
Mof_H 	H 	0.39987	0.60013	0.86343	0.092
Mof_O 	O 	0.09842	0.90158	0.16627	-0.173
Mof_C 	C 	0.15629	0.84371	0.30887	0.004
Mof_C 	C 	0.11781	0.88219	0.21217	0.124
Mof_C 	C 	0.08015	0.91985	0.22927	-0.18
Mof_H 	H 	0.06653	0.93347	0.19677	0.092
Mof_O 	O 	0.76509	0.53018	0.4996	-0.173
Mof_C 	C 	0.82296	0.64592	0.6422	0.004
Mof_C 	C 	0.78448	0.56896	0.5455	0.125
Mof_C 	C 	0.74682	0.49364	0.5626	-0.18
Mof_H 	H 	0.7332	0.4664	0.5301	0.092
Mof_O 	O 	0.43176	0.86351	0.83293	-0.173
Mof_C 	C 	0.48963	0.97925	0.97553	0.004
Mof_C 	C 	0.45115	0.90229	0.87883	0.124
Mof_C 	C 	0.41349	0.82697	0.89593	-0.18
Mof_H 	H 	0.39987	0.79973	0.86343	0.092
Mof_O 	O 	0.09842	0.19685	0.16627	-0.173
Mof_C 	C 	0.15629	0.31259	0.30887	0.004
Mof_C 	C 	0.11781	0.23563	0.21217	0.125
Mof_C 	C 	0.08015	0.16031	0.22927	-0.18
Mof_H 	H 	0.06653	0.13307	0.19677	0.092
Mof_O 	O 	0.46982	0.23491	0.4996	-0.173
Mof_C 	C 	0.35408	0.17704	0.6422	0.004
Mof_C 	C 	0.43104	0.21552	0.5455	0.125
Mof_C 	C 	0.50636	0.25318	0.5626	-0.18
Mof_H 	H 	0.5336	0.2668	0.5301	0.092
Mof_O 	O 	0.13649	0.56824	0.83293	-0.173
Mof_C 	C 	0.02075	0.51037	0.97553	0.004
Mof_C 	C 	0.09771	0.54885	0.87883	0.124
Mof_C 	C 	0.17303	0.58651	0.89593	-0.18
Mof_H 	H 	0.20027	0.60013	0.86343	0.092
Mof_O 	O 	0.80315	0.90158	0.16627	-0.173
Mof_C 	C 	0.68741	0.84371	0.30887	0.004
Mof_C 	C 	0.76437	0.88219	0.21217	0.125
Mof_C 	C 	0.83969	0.91985	0.22927	-0.18
Mof_H 	H 	0.86693	0.93347	0.19677	0.092
Mof_O 	O 	0.23491	0.76509	0.5004	-0.173
Mof_C 	C 	0.17704	0.82296	0.3578	0.004
Mof_C 	C 	0.21552	0.78448	0.4545	0.125
Mof_C 	C 	0.25318	0.74682	0.4374	-0.18
Mof_H 	H 	0.2668	0.7332	0.4699	0.092
Mof_O 	O 	0.90158	0.09842	0.83373	-0.173
Mof_C 	C 	0.84371	0.15629	0.69113	0.004
Mof_C 	C 	0.88219	0.11781	0.78783	0.124
Mof_C 	C 	0.91985	0.08015	0.77073	-0.18
Mof_H 	H 	0.93347	0.06653	0.80323	0.092
Mof_O 	O 	0.56824	0.43176	0.16707	-0.173
Mof_C 	C 	0.51037	0.48963	0.02447	0.004
Mof_C 	C 	0.54885	0.45115	0.12117	0.124
Mof_C 	C 	0.58651	0.41349	0.10407	-0.18
Mof_H 	H 	0.60013	0.39987	0.13657	0.092
Mof_O 	O 	0.53018	0.76509	0.5004	-0.173
Mof_C 	C 	0.64592	0.82296	0.3578	0.004
Mof_C 	C 	0.56896	0.78448	0.4545	0.125
Mof_C 	C 	0.49364	0.74682	0.4374	-0.18
Mof_H 	H 	0.4664	0.7332	0.4699	0.092
Mof_O 	O 	0.19685	0.09842	0.83373	-0.173
Mof_C 	C 	0.31259	0.15629	0.69113	0.004
Mof_C 	C 	0.23563	0.11781	0.78783	0.125
Mof_C 	C 	0.16031	0.08015	0.77073	-0.18
Mof_H 	H 	0.13307	0.06653	0.80323	0.092
Mof_O 	O 	0.86351	0.43176	0.16707	-0.173
Mof_C 	C 	0.97925	0.48963	0.02447	0.004
Mof_C 	C 	0.90229	0.45115	0.12117	0.124
Mof_C 	C 	0.82697	0.41349	0.10407	-0.18
Mof_H 	H 	0.79973	0.39987	0.13657	0.092
Mof_O 	O 	0.23491	0.46982	0.5004	-0.173
Mof_C 	C 	0.17704	0.35408	0.3578	0.004
Mof_C 	C 	0.21552	0.43104	0.4545	0.125
Mof_C 	C 	0.25318	0.50636	0.4374	-0.18
Mof_H 	H 	0.2668	0.5336	0.4699	0.092
Mof_O 	O 	0.90158	0.80315	0.83373	-0.173
Mof_C 	C 	0.84371	0.68741	0.69113	0.004
Mof_C 	C 	0.88219	0.76437	0.78783	0.125
Mof_C 	C 	0.91985	0.83969	0.77073	-0.18
Mof_H 	H 	0.93347	0.86693	0.80323	0.092
Mof_O 	O 	0.56824	0.13649	0.16707	-0.173
Mof_C 	C 	0.51037	0.02075	0.02447	0.004
Mof_C 	C 	0.54885	0.09771	0.12117	0.124
Mof_C 	C 	0.58651	0.17303	0.10407	-0.18
Mof_H 	H 	0.60013	0.20027	0.13657	0.092
_end
