data_functionalizedCrystal
_audit_creation_method	'EQeq! by Chris Wilmer'
_symmetry_space_group_name_H-M	'P1'
_symmetry_Int_Tables_number	1
_symmetry_cell_setting	triclinic
loop_
_symmetry_equiv_pos_as_xyz
  x,y,z
_cell_length_a	10.3163
_cell_length_b	10.3163
_cell_length_c	33.095
_cell_angle_alpha	90
_cell_angle_beta	90
_cell_angle_gamma	90
loop_
_atom_site_label
_atom_site_type_symbol
_atom_site_fract_x
_atom_site_fract_y
_atom_site_fract_z
_atom_site_charge
Mof_C 	C 	0.1484	0.5914	0.0736	-0.085
Mof_H 	H 	0.2151	0.6033	0.0537	0.047
Mof_C 	C 	0.1752	0.6185	0.11322	0.185
Mof_C 	C 	0.08	0.6004	0.14212	-0.202
Mof_H 	H 	0.0974	0.6169	0.1702	0.105
Mof_C 	C 	0.9615	0.5578	0.12977	0.063
Mof_H 	H 	0.8931	0.5443	0.149	0.027
Mof_C 	C 	0.94	0.5337	0.08937	0.028
Mof_H 	H 	0.8558	0.5056	0.0807	0.02
Mof_C 	C 	0.3882	0.7016	0.09844	-0.036
Mof_H 	H 	0.4156	0.6304	0.0818	0.056
Mof_H 	H 	0.3559	0.7698	0.0814	0.06
Mof_N 	N 	0.0322	0.5493	0.06146	-0.228
Mof_N 	N 	0.8657	0.3515	0.01968	-0.184
Mof_N 	N 	0.8551	0.2431	0.01082	-0.044
Mof_N 	N 	0.8398	0.1334	0.00187	-0.198
Mof_O 	O 	0.2912	0.6612	0.12682	-0.216
Mof_C 	C 	0.6484	0.0914	0.5736	-0.075
Mof_H 	H 	0.7151	0.1033	0.5537	0.043
Mof_C 	C 	0.6752	0.1185	0.61322	0.161
Mof_C 	C 	0.58	0.1004	0.64212	-0.132
Mof_H 	H 	0.5974	0.1169	0.6702	0.08
Mof_C 	C 	0.4615	0.0578	0.62977	-0.011
Mof_H 	H 	0.3931	0.0443	0.649	0.03
Mof_C 	C 	0.44	0.0337	0.58937	0.005
Mof_H 	H 	0.3558	0.0056	0.5807	0.009
Mof_C 	C 	0.8882	0.2016	0.59844	0.056
Mof_H 	H 	0.9156	0.1304	0.5818	0.035
Mof_H 	H 	0.8559	0.2698	0.5814	0.038
Mof_N 	N 	0.5322	0.0493	0.56146	-0.212
Mof_N 	N 	0.3657	0.8515	0.51968	-0.172
Mof_N 	N 	0.3551	0.7431	0.51082	-0.043
Mof_N 	N 	0.3398	0.6334	0.50187	-0.188
Mof_O 	O 	0.7912	0.1612	0.62682	-0.229
Mof_C 	C 	0.3516	0.4086	0.5736	-0.066
Mof_H 	H 	0.2849	0.3967	0.5537	0.044
Mof_C 	C 	0.3248	0.3815	0.61322	0.163
Mof_C 	C 	0.42	0.3996	0.64212	-0.123
Mof_H 	H 	0.4026	0.3831	0.6702	0.085
Mof_C 	C 	0.5385	0.4422	0.62977	-0.007
Mof_H 	H 	0.6069	0.4557	0.649	0.043
Mof_C 	C 	0.56	0.4663	0.58937	0.013
Mof_H 	H 	0.6442	0.4944	0.5807	0.024
Mof_C 	C 	0.1118	0.2984	0.59844	0.031
Mof_H 	H 	0.0844	0.3696	0.5818	0.029
Mof_H 	H 	0.1441	0.2302	0.5814	0.035
Mof_N 	N 	0.4678	0.4507	0.56146	-0.205
Mof_N 	N 	0.6343	0.6485	0.51968	-0.185
Mof_N 	N 	0.6449	0.7569	0.51082	-0.04
Mof_N 	N 	0.6602	0.8666	0.50187	-0.169
Mof_O 	O 	0.2088	0.3388	0.62682	-0.224
Mof_C 	C 	0.8516	0.9086	0.0736	-0.037
Mof_H 	H 	0.7849	0.8967	0.0537	0.044
Mof_C 	C 	0.8248	0.8815	0.11322	0.137
Mof_C 	C 	0.92	0.8996	0.14212	-0.033
Mof_H 	H 	0.9026	0.8831	0.1702	0.079
Mof_C 	C 	0.0385	0.9422	0.12977	-0.077
Mof_H 	H 	0.1069	0.9557	0.149	0.075
Mof_C 	C 	0.06	0.9663	0.08937	0.005
Mof_H 	H 	0.1442	0.9944	0.0807	0.036
Mof_C 	C 	0.6118	0.7984	0.09844	-0.047
Mof_H 	H 	0.5844	0.8696	0.0818	0.069
Mof_H 	H 	0.6441	0.7302	0.0814	0.063
Mof_N 	N 	0.9678	0.9507	0.06146	-0.173
Mof_N 	N 	0.1343	0.1485	0.01968	-0.212
Mof_N 	N 	0.1449	0.2569	0.01082	-0.053
Mof_N 	N 	0.1602	0.3666	0.00187	-0.202
Mof_O 	O 	0.7088	0.8388	0.12682	-0.194
Mof_C 	C 	0.1586	0.3984	0.3236	-0.066
Mof_H 	H 	0.1467	0.4651	0.3037	0.04
Mof_C 	C 	0.1315	0.4252	0.36322	0.149
Mof_C 	C 	0.1496	0.33	0.39212	-0.122
Mof_H 	H 	0.1331	0.3474	0.4202	0.078
Mof_C 	C 	0.1922	0.2115	0.37977	-0.017
Mof_H 	H 	0.2057	0.1431	0.399	0.028
Mof_C 	C 	0.2163	0.19	0.33937	0.008
Mof_H 	H 	0.2444	0.1058	0.3307	0.007
Mof_C 	C 	0.0484	0.6382	0.34844	-0.078
Mof_H 	H 	0.1196	0.6656	0.3318	0.07
Mof_H 	H 	0.9802	0.6059	0.3314	0.1
Mof_N 	N 	0.2007	0.2822	0.31146	-0.21
Mof_N 	N 	0.3985	0.1157	0.26968	-0.198
Mof_N 	N 	0.5069	0.1051	0.26082	-0.05
Mof_N 	N 	0.6166	0.0898	0.25187	-0.198
Mof_O 	O 	0.0888	0.5412	0.37682	-0.208
Mof_C 	C 	0.6586	0.8984	0.8236	-0.093
Mof_H 	H 	0.6467	0.9651	0.8037	0.073
Mof_C 	C 	0.6315	0.9252	0.86322	0.242
Mof_C 	C 	0.6496	0.83	0.89212	-0.159
Mof_H 	H 	0.6331	0.8474	0.9202	0.115
Mof_C 	C 	0.6922	0.7115	0.87977	0.022
Mof_H 	H 	0.7057	0.6431	0.899	0.038
Mof_C 	C 	0.7163	0.69	0.83937	0.003
Mof_H 	H 	0.7444	0.6058	0.8307	0.028
Mof_C 	C 	0.5484	0.1382	0.84844	0.005
Mof_H 	H 	0.6196	0.1656	0.8318	0.038
Mof_H 	H 	0.4802	0.1059	0.8314	0.033
Mof_N 	N 	0.7007	0.7822	0.81146	-0.195
Mof_N 	N 	0.8985	0.6157	0.76968	-0.167
Mof_N 	N 	0.0069	0.6051	0.76082	-0.069
Mof_N 	N 	0.1166	0.5898	0.75187	-0.191
Mof_O 	O 	0.5888	0.0412	0.87682	-0.266
Mof_C 	C 	0.3414	0.6016	0.8236	-0.066
Mof_H 	H 	0.3533	0.5349	0.8037	0.044
Mof_C 	C 	0.3685	0.5748	0.86322	0.16
Mof_C 	C 	0.3504	0.67	0.89212	-0.121
Mof_H 	H 	0.3669	0.6526	0.9202	0.09
Mof_C 	C 	0.3078	0.7885	0.87977	-0.008
Mof_H 	H 	0.2943	0.8569	0.899	0.057
Mof_C 	C 	0.2837	0.81	0.83937	0.013
Mof_H 	H 	0.2556	0.8942	0.8307	0.034
Mof_C 	C 	0.4516	0.3618	0.84844	-0.02
Mof_H 	H 	0.3804	0.3344	0.8318	0.051
Mof_H 	H 	0.5198	0.3941	0.8314	0.055
Mof_N 	N 	0.2993	0.7178	0.81146	-0.206
Mof_N 	N 	0.1015	0.8843	0.76968	-0.201
Mof_N 	N 	0.9931	0.8949	0.76082	-0.013
Mof_N 	N 	0.8834	0.9102	0.75187	-0.175
Mof_O 	O 	0.4112	0.4588	0.87682	-0.212
Mof_C 	C 	0.8414	0.1016	0.3236	-0.037
Mof_H 	H 	0.8533	0.0349	0.3037	0.027
Mof_C 	C 	0.8685	0.0748	0.36322	0.093
Mof_C 	C 	0.8504	0.17	0.39212	-0.086
Mof_H 	H 	0.8669	0.1526	0.4202	0.069
Mof_C 	C 	0.8078	0.2885	0.37977	-0.03
Mof_H 	H 	0.7943	0.3569	0.399	0.053
Mof_C 	C 	0.7837	0.31	0.33937	0.027
Mof_H 	H 	0.7556	0.3942	0.3307	0.02
Mof_C 	C 	0.9516	0.8618	0.34844	0.079
Mof_H 	H 	0.8804	0.8344	0.3318	0.04
Mof_H 	H 	0.0198	0.8941	0.3314	0.019
Mof_N 	N 	0.7993	0.2178	0.31146	-0.213
Mof_N 	N 	0.6015	0.3843	0.26968	-0.188
Mof_N 	N 	0.4931	0.3949	0.26082	-0.044
Mof_N 	N 	0.3834	0.4102	0.25187	-0.188
Mof_O 	O 	0.9112	0.9588	0.37682	-0.17
Mof_C 	C 	0.8516	0.4086	0.9264	-0.043
Mof_H 	H 	0.7849	0.3967	0.9463	0.047
Mof_C 	C 	0.8248	0.3815	0.88678	0.134
Mof_C 	C 	0.92	0.3996	0.85788	-0.041
Mof_H 	H 	0.9026	0.3831	0.8298	0.068
Mof_C 	C 	0.0385	0.4422	0.87023	-0.08
Mof_H 	H 	0.1069	0.4557	0.851	0.06
Mof_C 	C 	0.06	0.4663	0.91063	-0
Mof_H 	H 	0.1442	0.4944	0.9193	0.026
Mof_C 	C 	0.6118	0.2984	0.90156	-0.027
Mof_H 	H 	0.5844	0.3696	0.9182	0.059
Mof_H 	H 	0.6441	0.2302	0.9186	0.06
Mof_N 	N 	0.9678	0.4507	0.93854	-0.176
Mof_N 	N 	0.1343	0.6485	0.98032	-0.184
Mof_N 	N 	0.1449	0.7569	0.98918	-0.042
Mof_N 	N 	0.1602	0.8666	0.99813	-0.165
Mof_O 	O 	0.7088	0.3388	0.87318	-0.204
Mof_C 	C 	0.3516	0.9086	0.4264	-0.059
Mof_H 	H 	0.2849	0.8967	0.4463	0.052
Mof_C 	C 	0.3248	0.8815	0.38678	0.168
Mof_C 	C 	0.42	0.8996	0.35788	-0.115
Mof_H 	H 	0.4026	0.8831	0.3298	0.096
Mof_C 	C 	0.5385	0.9422	0.37023	-0.002
Mof_H 	H 	0.6069	0.9557	0.351	0.058
Mof_C 	C 	0.56	0.9663	0.41063	0.02
Mof_H 	H 	0.6442	0.9944	0.4193	0.038
Mof_C 	C 	0.1118	0.7984	0.40156	0.001
Mof_H 	H 	0.0844	0.8696	0.4182	0.047
Mof_H 	H 	0.1441	0.7302	0.4186	0.047
Mof_N 	N 	0.4678	0.9507	0.43854	-0.193
Mof_N 	N 	0.6343	0.1485	0.48032	-0.199
Mof_N 	N 	0.6449	0.2569	0.48918	-0.044
Mof_N 	N 	0.6602	0.3666	0.49813	-0.187
Mof_O 	O 	0.2088	0.8388	0.37318	-0.211
Mof_C 	C 	0.6484	0.5914	0.4264	-0.068
Mof_H 	H 	0.7151	0.6033	0.4463	0.05
Mof_C 	C 	0.6752	0.6185	0.38678	0.165
Mof_C 	C 	0.58	0.6004	0.35788	-0.125
Mof_H 	H 	0.5974	0.6169	0.3298	0.091
Mof_C 	C 	0.4615	0.5578	0.37023	-0.007
Mof_H 	H 	0.3931	0.5443	0.351	0.043
Mof_C 	C 	0.44	0.5337	0.41063	0.011
Mof_H 	H 	0.3558	0.5056	0.4193	0.022
Mof_C 	C 	0.8882	0.7016	0.40156	0.025
Mof_H 	H 	0.9156	0.6304	0.4182	0.053
Mof_H 	H 	0.8559	0.7698	0.4186	0.05
Mof_N 	N 	0.5322	0.5493	0.43854	-0.205
Mof_N 	N 	0.3657	0.3515	0.48032	-0.191
Mof_N 	N 	0.3551	0.2431	0.48918	-0.046
Mof_N 	N 	0.3398	0.1334	0.49813	-0.201
Mof_O 	O 	0.7912	0.6612	0.37318	-0.216
Mof_C 	C 	0.1484	0.0914	0.9264	-0.091
Mof_H 	H 	0.2151	0.1033	0.9463	0.051
Mof_C 	C 	0.1752	0.1185	0.88678	0.182
Mof_C 	C 	0.08	0.1004	0.85788	-0.208
Mof_H 	H 	0.0974	0.1169	0.8298	0.094
Mof_C 	C 	0.9615	0.0578	0.87023	0.059
Mof_H 	H 	0.8931	0.0443	0.851	0.014
Mof_C 	C 	0.94	0.0337	0.91063	0.022
Mof_H 	H 	0.8558	0.0056	0.9193	0.012
Mof_C 	C 	0.3882	0.2016	0.90156	-0.016
Mof_H 	H 	0.4156	0.1304	0.9182	0.047
Mof_H 	H 	0.3559	0.2698	0.9186	0.056
Mof_N 	N 	0.0322	0.0493	0.93854	-0.225
Mof_N 	N 	0.8657	0.8515	0.98032	-0.152
Mof_N 	N 	0.8551	0.7431	0.98918	-0.034
Mof_N 	N 	0.8398	0.6334	0.99813	-0.167
Mof_O 	O 	0.2912	0.1612	0.87318	-0.227
Mof_C 	C 	0.8414	0.6016	0.6764	-0.068
Mof_H 	H 	0.8533	0.5349	0.6963	0.054
Mof_C 	C 	0.8685	0.5748	0.63678	0.179
Mof_C 	C 	0.8504	0.67	0.60788	-0.125
Mof_H 	H 	0.8669	0.6526	0.5798	0.097
Mof_C 	C 	0.8078	0.7885	0.62023	0.002
Mof_H 	H 	0.7943	0.8569	0.601	0.059
Mof_C 	C 	0.7837	0.81	0.66063	0.016
Mof_H 	H 	0.7556	0.8942	0.6693	0.038
Mof_C 	C 	0.9516	0.3618	0.65156	0.134
Mof_H 	H 	0.8804	0.3344	0.6682	0.011
Mof_H 	H 	0.0198	0.3941	0.6686	-0.015
Mof_N 	N 	0.7993	0.7178	0.68854	-0.201
Mof_N 	N 	0.6015	0.8843	0.73032	-0.179
Mof_N 	N 	0.4931	0.8949	0.73918	-0.038
Mof_N 	N 	0.3834	0.9102	0.74813	-0.178
Mof_O 	O 	0.9112	0.4588	0.62318	-0.232
Mof_C 	C 	0.3414	0.1016	0.1764	-0.034
Mof_H 	H 	0.3533	0.0349	0.1963	0.017
Mof_C 	C 	0.3685	0.0748	0.13678	0.072
Mof_C 	C 	0.3504	0.17	0.10788	-0.08
Mof_H 	H 	0.3669	0.1526	0.0798	0.057
Mof_C 	C 	0.3078	0.2885	0.12023	-0.042
Mof_H 	H 	0.2943	0.3569	0.101	0.05
Mof_C 	C 	0.2837	0.31	0.16063	0.024
Mof_H 	H 	0.2556	0.3942	0.1693	0.016
Mof_C 	C 	0.4516	0.8618	0.15156	-0.069
Mof_H 	H 	0.3804	0.8344	0.1682	0.078
Mof_H 	H 	0.5198	0.8941	0.1686	0.087
Mof_N 	N 	0.2993	0.2178	0.18854	-0.218
Mof_N 	N 	0.1015	0.3843	0.23032	-0.21
Mof_N 	N 	0.9931	0.3949	0.23918	-0.018
Mof_N 	N 	0.8834	0.4102	0.24813	-0.184
Mof_O 	O 	0.4112	0.9588	0.12318	-0.151
Mof_C 	C 	0.6586	0.3984	0.1764	-0.063
Mof_H 	H 	0.6467	0.4651	0.1963	0.047
Mof_C 	C 	0.6315	0.4252	0.13678	0.158
Mof_C 	C 	0.6496	0.33	0.10788	-0.12
Mof_H 	H 	0.6331	0.3474	0.0798	0.082
Mof_C 	C 	0.6922	0.2115	0.12023	-0.011
Mof_H 	H 	0.7057	0.1431	0.101	0.031
Mof_C 	C 	0.7163	0.19	0.16063	0.014
Mof_H 	H 	0.7444	0.1058	0.1693	0.01
Mof_C 	C 	0.5484	0.6382	0.15156	-0.043
Mof_H 	H 	0.6196	0.6656	0.1682	0.065
Mof_H 	H 	0.4802	0.6059	0.1686	0.064
Mof_N 	N 	0.7007	0.2822	0.18854	-0.206
Mof_N 	N 	0.8985	0.1157	0.23032	-0.175
Mof_N 	N 	0.0069	0.1051	0.23918	-0.076
Mof_N 	N 	0.1166	0.0898	0.24813	-0.202
Mof_O 	O 	0.5888	0.5412	0.12318	-0.209
Mof_C 	C 	0.1586	0.8984	0.6764	-0.097
Mof_H 	H 	0.1467	0.9651	0.6963	0.066
Mof_C 	C 	0.1315	0.9252	0.63678	0.233
Mof_C 	C 	0.1496	0.83	0.60788	-0.16
Mof_H 	H 	0.1331	0.8474	0.5798	0.106
Mof_C 	C 	0.1922	0.7115	0.62023	0.015
Mof_H 	H 	0.2057	0.6431	0.601	0.034
Mof_C 	C 	0.2163	0.69	0.66063	-0.002
Mof_H 	H 	0.2444	0.6058	0.6693	0.026
Mof_C 	C 	0.0484	0.1382	0.65156	-0.024
Mof_H 	H 	0.1196	0.1656	0.6682	0.042
Mof_H 	H 	0.9802	0.1059	0.6686	0.067
Mof_N 	N 	0.2007	0.7822	0.68854	-0.198
Mof_N 	N 	0.3985	0.6157	0.73032	-0.189
Mof_N 	N 	0.5069	0.6051	0.73918	-0.044
Mof_N 	N 	0.6166	0.5898	0.74813	-0.188
Mof_O 	O 	0.0888	0.0412	0.62318	-0.268
Mof_C 	C 	0.5	0.75	0.125	0.075
Mof_C 	C 	-2.11506e-32	0.25	0.625	-0.051
Mof_C 	C 	-9.82352e-33	0.75	0.375	-0.011
Mof_C 	C 	0.5	0.25	0.875	0.043
Mof_Co	Co	-0	0.5	-0	1.092
Mof_Co	Co	0.5	0	0.5	1.099
Mof_Co	Co	0.5	0.5	0.5	1.122
Mof_Co	Co	-0	0	-0	1.07
Mof_Co	Co	0.25	0.25	0.25	1.119
Mof_Co	Co	0.75	0.75	0.75	1.124
Mof_Co	Co	0.25	0.75	0.75	1.121
Mof_Co	Co	0.75	0.25	0.25	1.122
_end
