data_functionalizedCrystal
_audit_creation_method	'EQeq! by Chris Wilmer'
_symmetry_space_group_name_H-M	'P1'
_symmetry_Int_Tables_number	1
_symmetry_cell_setting	triclinic
loop_
_symmetry_equiv_pos_as_xyz
  x,y,z
_cell_length_a	15.014
_cell_length_b	20.223
_cell_length_c	19.843
_cell_angle_alpha	90
_cell_angle_beta	90
_cell_angle_gamma	90
loop_
_atom_site_label
_atom_site_type_symbol
_atom_site_fract_x
_atom_site_fract_y
_atom_site_fract_z
_atom_site_charge
Mof_Zn	Zn	0.32141	0.3976	0.62661	1.177
Mof_Zn	Zn	0.27549	0.6037	0.41876	1.175
Mof_N 	N 	0.2729	0.3067	0.614	-0.318
Mof_N 	N 	0.2584	0.4659	0.5745	-0.293
Mof_N 	N 	0.2392	0.5472	0.4951	-0.294
Mof_N 	N 	0.4081	0.609	0.4289	-0.342
Mof_N 	N 	0.5565	0.6051	0.4125	-0.35
Mof_N 	N 	0.2393	0.569	0.3296	-0.299
Mof_N 	N 	0.1943	0.5708	0.2206	-0.298
Mof_N 	N 	0.2235	0.6929	0.4208	-0.289
Mof_H 	H 	0.3817	0.2818	0.717	0.191
Mof_C 	C 	0.2109	0.2839	0.5683	0.04
Mof_C 	C 	0.1537	0.3204	0.5236	-0.107
Mof_H 	H 	0.1545	0.3664	0.5219	0.047
Mof_C 	C 	0.0974	0.2834	0.4832	-0.023
Mof_H 	H 	0.058	0.3054	0.4548	0.032
Mof_C 	C 	0.2927	0.5002	0.5224	0.075
Mof_H 	H 	0.3498	0.4921	0.5061	-0.044
Mof_C 	C 	0.1747	0.4921	0.5795	0.049
Mof_C 	C 	0.1086	0.4767	0.6281	-0.106
Mof_H 	H 	0.1196	0.4464	0.6624	0.033
Mof_C 	C 	0.0286	0.5079	0.6227	-0.026
Mof_H 	H 	0.9827	0.4962	0.6519	0.026
Mof_C 	C 	0.0136	0.5572	0.5745	-0.023
Mof_H 	H 	0.9587	0.5784	0.5727	0.032
Mof_C 	C 	0.0798	0.5744	0.5295	-0.108
Mof_H 	H 	0.0701	0.6076	0.498	0.05
Mof_C 	C 	0.1618	0.5414	0.5319	0.046
Mof_C 	C 	0.4617	0.5748	0.3197	-0.936
Mof_H 	H 	0.5159	0.5776	0.2942	0.266
Mof_H 	H 	0.4171	0.6022	0.2991	0.269
Mof_H 	H 	0.4414	0.5298	0.3205	0.284
Mof_C 	C 	0.4777	0.5972	0.3882	0.348
Mof_C 	C 	0.4489	0.6285	0.4881	0.033
Mof_C 	C 	0.4144	0.6467	0.5494	-0.11
Mof_H 	H 	0.3532	0.646	0.5565	0.036
Mof_C 	C 	0.4705	0.6659	0.5998	-0.023
Mof_H 	H 	0.4473	0.6801	0.6408	0.029
Mof_C 	C 	0.5639	0.6643	0.59	-0.033
Mof_H 	H 	0.6019	0.677	0.6247	0.034
Mof_C 	C 	0.5991	0.6435	0.5284	-0.105
Mof_H 	H 	0.6604	0.6405	0.5222	0.035
Mof_C 	C 	0.5406	0.6276	0.4765	0.034
Mof_C 	C 	0.2277	0.6048	0.2733	0.073
Mof_H 	H 	0.2417	0.6495	0.2708	-0.061
Mof_C 	C 	0.2147	0.5059	0.3119	0.039
Mof_C 	C 	0.2137	0.4451	0.3469	-0.109
Mof_H 	H 	0.2348	0.4428	0.3909	0.041
Mof_C 	C 	0.182	0.3903	0.3163	-0.026
Mof_H 	H 	0.1795	0.3506	0.3399	0.032
Mof_C 	C 	0.1537	0.3928	0.2509	-0.02
Mof_H 	H 	0.1332	0.354	0.231	0.028
Mof_C 	C 	0.1538	0.4487	0.2136	-0.11
Mof_H 	H 	0.135	0.4491	0.169	0.041
Mof_C 	C 	0.1839	0.5055	0.246	0.033
Mof_C 	C 	0.1438	0.7164	0.3926	0.04
Mof_C 	C 	0.0727	0.6791	0.37	-0.118
Mof_H 	H 	0.0732	0.6331	0.3705	0.04
Mof_C 	C 	0.9993	0.7158	0.3461	-0.03
Mof_H 	H 	0.9496	0.6934	0.3299	0.018
Mof_H 	H 	0.398	0.2068	0.7011	-0.007
Mof_H 	H 	0.4433	0.2614	0.6566	0.108
Mof_Zn	Zn	0.17859	0.6024	0.12661	1.176
Mof_Zn	Zn	0.22451	0.3963	0.91876	1.174
Mof_N 	N 	0.2271	0.6933	0.114	-0.318
Mof_N 	N 	0.2416	0.5341	0.0745	-0.293
Mof_N 	N 	0.2608	0.4528	0.9951	-0.293
Mof_N 	N 	0.0919	0.391	0.9289	-0.342
Mof_N 	N 	0.9435	0.3949	0.9125	-0.35
Mof_N 	N 	0.2607	0.431	0.8296	-0.299
Mof_N 	N 	0.3057	0.4292	0.7206	-0.298
Mof_N 	N 	0.2765	0.3071	0.9208	-0.289
Mof_H 	H 	0.1183	0.7182	0.217	0.191
Mof_C 	C 	0.2891	0.7161	0.0683	0.04
Mof_C 	C 	0.3463	0.6796	0.0236	-0.107
Mof_H 	H 	0.3455	0.6336	0.0219	0.047
Mof_C 	C 	0.4026	0.7166	0.9832	-0.022
Mof_H 	H 	0.442	0.6946	0.9548	0.032
Mof_C 	C 	0.2073	0.4998	0.0224	0.075
Mof_H 	H 	0.1502	0.5079	0.0061	-0.044
Mof_C 	C 	0.3253	0.5079	0.0795	0.049
Mof_C 	C 	0.3914	0.5233	0.1281	-0.105
Mof_H 	H 	0.3804	0.5536	0.1624	0.033
Mof_C 	C 	0.4714	0.4921	0.1227	-0.027
Mof_H 	H 	0.5173	0.5038	0.1519	0.027
Mof_C 	C 	0.4864	0.4428	0.0745	-0.022
Mof_H 	H 	0.5413	0.4216	0.0727	0.032
Mof_C 	C 	0.4202	0.4256	0.0295	-0.108
Mof_H 	H 	0.4299	0.3924	0.998	0.05
Mof_C 	C 	0.3382	0.4586	0.0319	0.046
Mof_C 	C 	0.0383	0.4252	0.8197	-0.933
Mof_H 	H 	0.9841	0.4224	0.7942	0.265
Mof_H 	H 	0.0829	0.3978	0.7991	0.268
Mof_H 	H 	0.0586	0.4702	0.8205	0.284
Mof_C 	C 	0.0223	0.4028	0.8882	0.348
Mof_C 	C 	0.0511	0.3715	0.9881	0.035
Mof_C 	C 	0.0856	0.3533	0.0494	-0.112
Mof_H 	H 	0.1468	0.354	0.0565	0.036
Mof_C 	C 	0.0295	0.3341	0.0998	-0.022
Mof_H 	H 	0.0527	0.3199	0.1408	0.028
Mof_C 	C 	0.9361	0.3357	0.09	-0.034
Mof_H 	H 	0.8981	0.323	0.1247	0.035
Mof_C 	C 	0.9009	0.3565	0.0284	-0.101
Mof_H 	H 	0.8396	0.3595	0.0222	0.034
Mof_C 	C 	0.9594	0.3724	0.9765	0.031
Mof_C 	C 	0.2723	0.3952	0.7733	0.073
Mof_H 	H 	0.2583	0.3505	0.7708	-0.061
Mof_C 	C 	0.2853	0.4941	0.8119	0.039
Mof_C 	C 	0.2863	0.5549	0.8469	-0.109
Mof_H 	H 	0.2652	0.5572	0.8909	0.042
Mof_C 	C 	0.318	0.6097	0.8163	-0.026
Mof_H 	H 	0.3205	0.6494	0.8399	0.032
Mof_C 	C 	0.3463	0.6072	0.7509	-0.02
Mof_H 	H 	0.3668	0.646	0.731	0.028
Mof_C 	C 	0.3462	0.5513	0.7136	-0.11
Mof_H 	H 	0.365	0.5509	0.669	0.041
Mof_C 	C 	0.3161	0.4945	0.746	0.033
Mof_C 	C 	0.3562	0.2836	0.8926	0.04
Mof_C 	C 	0.4273	0.3209	0.87	-0.117
Mof_H 	H 	0.4268	0.3669	0.8705	0.04
Mof_C 	C 	0.5007	0.2842	0.8461	-0.03
Mof_H 	H 	0.5504	0.3066	0.8299	0.018
Mof_H 	H 	0.102	0.7932	0.2011	-0.007
Mof_H 	H 	0.0567	0.7386	0.1566	0.108
Mof_Zn	Zn	0.67859	0.8976	0.37339	1.176
Mof_Zn	Zn	0.72451	0.1037	0.58124	1.174
Mof_N 	N 	0.7271	0.8067	0.386	-0.318
Mof_N 	N 	0.7416	0.9659	0.4255	-0.293
Mof_N 	N 	0.7608	0.0472	0.5049	-0.293
Mof_N 	N 	0.5919	0.109	0.5711	-0.342
Mof_N 	N 	0.4435	0.1051	0.5875	-0.35
Mof_N 	N 	0.7607	0.069	0.6704	-0.299
Mof_N 	N 	0.8057	0.0708	0.7794	-0.298
Mof_N 	N 	0.7765	0.1929	0.5792	-0.289
Mof_H 	H 	0.6183	0.7818	0.283	0.191
Mof_C 	C 	0.7891	0.7839	0.4317	0.04
Mof_C 	C 	0.8463	0.8204	0.4764	-0.107
Mof_H 	H 	0.8455	0.8664	0.4781	0.047
Mof_C 	C 	0.9026	0.7834	0.5168	-0.023
Mof_H 	H 	0.942	0.8054	0.5452	0.032
Mof_C 	C 	0.7073	0.0002	0.4776	0.075
Mof_H 	H 	0.6502	0.9921	0.4939	-0.044
Mof_C 	C 	0.8253	0.9921	0.4205	0.05
Mof_C 	C 	0.8914	0.9767	0.3719	-0.106
Mof_H 	H 	0.8804	0.9464	0.3376	0.034
Mof_C 	C 	0.9714	0.0079	0.3773	-0.024
Mof_H 	H 	0.0173	0.9962	0.3481	0.025
Mof_C 	C 	0.9864	0.0572	0.4255	-0.025
Mof_H 	H 	0.0413	0.0784	0.4273	0.034
Mof_C 	C 	0.9202	0.0744	0.4705	-0.106
Mof_H 	H 	0.9299	0.1076	0.502	0.049
Mof_C 	C 	0.8382	0.0414	0.4681	0.045
Mof_C 	C 	0.5383	0.0748	0.6803	-0.935
Mof_H 	H 	0.4841	0.0776	0.7058	0.266
Mof_H 	H 	0.5829	0.1022	0.7009	0.268
Mof_H 	H 	0.5586	0.0298	0.6795	0.284
Mof_C 	C 	0.5223	0.0972	0.6118	0.348
Mof_C 	C 	0.5511	0.1285	0.5119	0.033
Mof_C 	C 	0.5856	0.1467	0.4506	-0.11
Mof_H 	H 	0.6468	0.146	0.4435	0.036
Mof_C 	C 	0.5295	0.1659	0.4002	-0.023
Mof_H 	H 	0.5527	0.1801	0.3592	0.029
Mof_C 	C 	0.4361	0.1643	0.41	-0.033
Mof_H 	H 	0.3981	0.177	0.3753	0.034
Mof_C 	C 	0.4009	0.1435	0.4716	-0.105
Mof_H 	H 	0.3396	0.1405	0.4778	0.035
Mof_C 	C 	0.4594	0.1276	0.5235	0.034
Mof_C 	C 	0.7723	0.1048	0.7267	0.073
Mof_H 	H 	0.7583	0.1495	0.7292	-0.061
Mof_C 	C 	0.7853	0.0059	0.6881	0.038
Mof_C 	C 	0.7863	0.9451	0.6531	-0.109
Mof_H 	H 	0.7652	0.9428	0.6091	0.041
Mof_C 	C 	0.818	0.8903	0.6837	-0.026
Mof_H 	H 	0.8205	0.8506	0.6601	0.032
Mof_C 	C 	0.8463	0.8928	0.7491	-0.021
Mof_H 	H 	0.8668	0.854	0.769	0.029
Mof_C 	C 	0.8462	0.9487	0.7864	-0.108
Mof_H 	H 	0.865	0.9491	0.831	0.041
Mof_C 	C 	0.8161	0.0055	0.754	0.031
Mof_C 	C 	0.8562	0.2164	0.6074	0.041
Mof_C 	C 	0.9273	0.1791	0.63	-0.118
Mof_H 	H 	0.9268	0.1331	0.6295	0.04
Mof_C 	C 	0.0007	0.2158	0.6539	-0.029
Mof_H 	H 	0.0504	0.1934	0.6701	0.018
Mof_H 	H 	0.602	0.7068	0.2989	-0.007
Mof_H 	H 	0.5567	0.7614	0.3434	0.108
Mof_Zn	Zn	0.82141	0.1024	0.87339	1.175
Mof_Zn	Zn	0.77549	0.8963	0.08124	1.174
Mof_N 	N 	0.7729	0.1933	0.886	-0.318
Mof_N 	N 	0.7584	0.0341	0.9255	-0.294
Mof_N 	N 	0.7392	0.9528	0.0049	-0.295
Mof_N 	N 	0.9081	0.891	0.0711	-0.342
Mof_N 	N 	0.0565	0.8949	0.0875	-0.35
Mof_N 	N 	0.7393	0.931	0.1704	-0.299
Mof_N 	N 	0.6943	0.9292	0.2794	-0.298
Mof_N 	N 	0.7235	0.8071	0.0792	-0.289
Mof_H 	H 	0.8817	0.2182	0.783	0.191
Mof_C 	C 	0.7109	0.2161	0.9317	0.04
Mof_C 	C 	0.6537	0.1796	0.9764	-0.108
Mof_H 	H 	0.6545	0.1336	0.9781	0.047
Mof_C 	C 	0.5974	0.2166	0.0168	-0.021
Mof_H 	H 	0.558	0.1946	0.0452	0.032
Mof_C 	C 	0.7927	0.9998	0.9776	0.081
Mof_H 	H 	0.8498	0.0079	0.9939	-0.047
Mof_C 	C 	0.6747	0.0079	0.9205	0.049
Mof_C 	C 	0.6086	0.0233	0.8719	-0.109
Mof_H 	H 	0.6196	0.0536	0.8376	0.034
Mof_C 	C 	0.5286	0.9921	0.8773	-0.02
Mof_H 	H 	0.4827	0.0038	0.8481	0.024
Mof_C 	C 	0.5136	0.9428	0.9255	-0.026
Mof_H 	H 	0.4587	0.9216	0.9273	0.034
Mof_C 	C 	0.5798	0.9256	0.9705	-0.104
Mof_H 	H 	0.5701	0.8924	0.002	0.048
Mof_C 	C 	0.6618	0.9586	0.9681	0.046
Mof_C 	C 	0.9617	0.9252	0.1803	-0.931
Mof_H 	H 	0.0159	0.9224	0.2058	0.264
Mof_H 	H 	0.9171	0.8978	0.2009	0.267
Mof_H 	H 	0.9414	0.9702	0.1795	0.283
Mof_C 	C 	0.9777	0.9028	0.1118	0.348
Mof_C 	C 	0.9489	0.8715	0.0119	0.036
Mof_C 	C 	0.9144	0.8533	0.9506	-0.112
Mof_H 	H 	0.8532	0.854	0.9435	0.037
Mof_C 	C 	0.9705	0.8341	0.9002	-0.021
Mof_H 	H 	0.9473	0.8199	0.8592	0.028
Mof_C 	C 	0.0639	0.8357	0.91	-0.036
Mof_H 	H 	0.1019	0.823	0.8753	0.035
Mof_C 	C 	0.0991	0.8565	0.9716	-0.1
Mof_H 	H 	0.1604	0.8595	0.9778	0.034
Mof_C 	C 	0.0406	0.8724	0.0235	0.029
Mof_C 	C 	0.7277	0.8952	0.2267	0.073
Mof_H 	H 	0.7417	0.8505	0.2292	-0.061
Mof_C 	C 	0.7147	0.9941	0.1881	0.038
Mof_C 	C 	0.7137	0.0549	0.1531	-0.109
Mof_H 	H 	0.7348	0.0572	0.1091	0.041
Mof_C 	C 	0.682	0.1097	0.1837	-0.027
Mof_H 	H 	0.6795	0.1494	0.1601	0.032
Mof_C 	C 	0.6537	0.1072	0.2491	-0.02
Mof_H 	H 	0.6332	0.146	0.269	0.028
Mof_C 	C 	0.6538	0.0513	0.2864	-0.11
Mof_H 	H 	0.635	0.0509	0.331	0.041
Mof_C 	C 	0.6839	0.9945	0.254	0.033
Mof_C 	C 	0.6438	0.7836	0.1074	0.04
Mof_C 	C 	0.5727	0.8209	0.13	-0.117
Mof_H 	H 	0.5732	0.8669	0.1295	0.04
Mof_C 	C 	0.4993	0.7842	0.1539	-0.03
Mof_H 	H 	0.4496	0.8066	0.1701	0.018
Mof_H 	H 	0.898	0.2932	0.7989	-0.007
Mof_H 	H 	0.9433	0.2386	0.8434	0.108
Mof_Zn	Zn	0.67859	0.6024	0.37339	1.176
Mof_Zn	Zn	0.72451	0.3963	0.58124	1.174
Mof_N 	N 	0.7271	0.6933	0.386	-0.318
Mof_N 	N 	0.7416	0.5341	0.4255	-0.293
Mof_N 	N 	0.7608	0.4528	0.5049	-0.294
Mof_N 	N 	0.5919	0.391	0.5711	-0.342
Mof_N 	N 	0.4435	0.3949	0.5875	-0.35
Mof_N 	N 	0.7607	0.431	0.6704	-0.299
Mof_N 	N 	0.8057	0.4292	0.7794	-0.298
Mof_N 	N 	0.7765	0.3071	0.5792	-0.289
Mof_H 	H 	0.6183	0.7182	0.283	0.191
Mof_C 	C 	0.7891	0.7161	0.4317	0.04
Mof_C 	C 	0.8463	0.6796	0.4764	-0.107
Mof_H 	H 	0.8455	0.6336	0.4781	0.047
Mof_C 	C 	0.9026	0.7166	0.5168	-0.023
Mof_H 	H 	0.942	0.6946	0.5452	0.032
Mof_C 	C 	0.7073	0.4998	0.4776	0.075
Mof_H 	H 	0.6502	0.5079	0.4939	-0.044
Mof_C 	C 	0.8253	0.5079	0.4205	0.049
Mof_C 	C 	0.8914	0.5233	0.3719	-0.106
Mof_H 	H 	0.8804	0.5536	0.3376	0.033
Mof_C 	C 	0.9714	0.4921	0.3773	-0.026
Mof_H 	H 	0.0173	0.5038	0.3481	0.026
Mof_C 	C 	0.9864	0.4428	0.4255	-0.023
Mof_H 	H 	0.0413	0.4216	0.4273	0.032
Mof_C 	C 	0.9202	0.4256	0.4705	-0.108
Mof_H 	H 	0.9299	0.3924	0.502	0.05
Mof_C 	C 	0.8382	0.4586	0.4681	0.046
Mof_C 	C 	0.5383	0.4252	0.6803	-0.936
Mof_H 	H 	0.4841	0.4224	0.7058	0.266
Mof_H 	H 	0.5829	0.3978	0.7009	0.269
Mof_H 	H 	0.5586	0.4702	0.6795	0.284
Mof_C 	C 	0.5223	0.4028	0.6118	0.348
Mof_C 	C 	0.5511	0.3715	0.5119	0.033
Mof_C 	C 	0.5856	0.3533	0.4506	-0.11
Mof_H 	H 	0.6468	0.354	0.4435	0.036
Mof_C 	C 	0.5295	0.3341	0.4002	-0.023
Mof_H 	H 	0.5527	0.3199	0.3592	0.029
Mof_C 	C 	0.4361	0.3357	0.41	-0.033
Mof_H 	H 	0.3981	0.323	0.3753	0.034
Mof_C 	C 	0.4009	0.3565	0.4716	-0.105
Mof_H 	H 	0.3396	0.3595	0.4778	0.035
Mof_C 	C 	0.4594	0.3724	0.5235	0.034
Mof_C 	C 	0.7723	0.3952	0.7267	0.073
Mof_H 	H 	0.7583	0.3505	0.7292	-0.061
Mof_C 	C 	0.7853	0.4941	0.6881	0.039
Mof_C 	C 	0.7863	0.5549	0.6531	-0.109
Mof_H 	H 	0.7652	0.5572	0.6091	0.041
Mof_C 	C 	0.818	0.6097	0.6837	-0.026
Mof_H 	H 	0.8205	0.6494	0.6601	0.032
Mof_C 	C 	0.8463	0.6072	0.7491	-0.02
Mof_H 	H 	0.8668	0.646	0.769	0.028
Mof_C 	C 	0.8462	0.5513	0.7864	-0.11
Mof_H 	H 	0.865	0.5509	0.831	0.041
Mof_C 	C 	0.8161	0.4945	0.754	0.033
Mof_C 	C 	0.8562	0.2836	0.6074	0.04
Mof_C 	C 	0.9273	0.3209	0.63	-0.118
Mof_H 	H 	0.9268	0.3669	0.6295	0.04
Mof_C 	C 	0.0007	0.2842	0.6539	-0.03
Mof_H 	H 	0.0504	0.3066	0.6701	0.018
Mof_H 	H 	0.602	0.7932	0.2989	-0.007
Mof_H 	H 	0.5567	0.7386	0.3434	0.108
Mof_Zn	Zn	0.82141	0.3976	0.87339	1.176
Mof_Zn	Zn	0.77549	0.6037	0.08124	1.174
Mof_N 	N 	0.7729	0.3067	0.886	-0.318
Mof_N 	N 	0.7584	0.4659	0.9255	-0.293
Mof_N 	N 	0.7392	0.5472	0.0049	-0.293
Mof_N 	N 	0.9081	0.609	0.0711	-0.342
Mof_N 	N 	0.0565	0.6051	0.0875	-0.35
Mof_N 	N 	0.7393	0.569	0.1704	-0.299
Mof_N 	N 	0.6943	0.5708	0.2794	-0.298
Mof_N 	N 	0.7235	0.6929	0.0792	-0.289
Mof_H 	H 	0.8817	0.2818	0.783	0.191
Mof_C 	C 	0.7109	0.2839	0.9317	0.04
Mof_C 	C 	0.6537	0.3204	0.9764	-0.107
Mof_H 	H 	0.6545	0.3664	0.9781	0.047
Mof_C 	C 	0.5974	0.2834	0.0168	-0.022
Mof_H 	H 	0.558	0.3054	0.0452	0.032
Mof_C 	C 	0.7927	0.5002	0.9776	0.075
Mof_H 	H 	0.8498	0.4921	0.9939	-0.044
Mof_C 	C 	0.6747	0.4921	0.9205	0.049
Mof_C 	C 	0.6086	0.4767	0.8719	-0.105
Mof_H 	H 	0.6196	0.4464	0.8376	0.033
Mof_C 	C 	0.5286	0.5079	0.8773	-0.027
Mof_H 	H 	0.4827	0.4962	0.8481	0.027
Mof_C 	C 	0.5136	0.5572	0.9255	-0.022
Mof_H 	H 	0.4587	0.5784	0.9273	0.032
Mof_C 	C 	0.5798	0.5744	0.9705	-0.108
Mof_H 	H 	0.5701	0.6076	0.002	0.05
Mof_C 	C 	0.6618	0.5414	0.9681	0.046
Mof_C 	C 	0.9617	0.5748	0.1803	-0.933
Mof_H 	H 	0.0159	0.5776	0.2058	0.265
Mof_H 	H 	0.9171	0.6022	0.2009	0.268
Mof_H 	H 	0.9414	0.5298	0.1795	0.284
Mof_C 	C 	0.9777	0.5972	0.1118	0.348
Mof_C 	C 	0.9489	0.6285	0.0119	0.035
Mof_C 	C 	0.9144	0.6467	0.9506	-0.112
Mof_H 	H 	0.8532	0.646	0.9435	0.036
Mof_C 	C 	0.9705	0.6659	0.9002	-0.022
Mof_H 	H 	0.9473	0.6801	0.8592	0.028
Mof_C 	C 	0.0639	0.6643	0.91	-0.034
Mof_H 	H 	0.1019	0.677	0.8753	0.035
Mof_C 	C 	0.0991	0.6435	0.9716	-0.101
Mof_H 	H 	0.1604	0.6405	0.9778	0.034
Mof_C 	C 	0.0406	0.6276	0.0235	0.031
Mof_C 	C 	0.7277	0.6048	0.2267	0.073
Mof_H 	H 	0.7417	0.6495	0.2292	-0.061
Mof_C 	C 	0.7147	0.5059	0.1881	0.039
Mof_C 	C 	0.7137	0.4451	0.1531	-0.109
Mof_H 	H 	0.7348	0.4428	0.1091	0.042
Mof_C 	C 	0.682	0.3903	0.1837	-0.026
Mof_H 	H 	0.6795	0.3506	0.1601	0.032
Mof_C 	C 	0.6537	0.3928	0.2491	-0.02
Mof_H 	H 	0.6332	0.354	0.269	0.028
Mof_C 	C 	0.6538	0.4487	0.2864	-0.11
Mof_H 	H 	0.635	0.4491	0.331	0.041
Mof_C 	C 	0.6839	0.5055	0.254	0.033
Mof_C 	C 	0.6438	0.7164	0.1074	0.04
Mof_C 	C 	0.5727	0.6791	0.13	-0.117
Mof_H 	H 	0.5732	0.6331	0.1295	0.04
Mof_C 	C 	0.4993	0.7158	0.1539	-0.03
Mof_H 	H 	0.4496	0.6934	0.1701	0.018
Mof_H 	H 	0.898	0.2068	0.7989	-0.007
Mof_H 	H 	0.9433	0.2614	0.8434	0.108
Mof_Zn	Zn	0.32141	0.1024	0.62661	1.176
Mof_Zn	Zn	0.27549	0.8963	0.41876	1.174
Mof_N 	N 	0.2729	0.1933	0.614	-0.318
Mof_N 	N 	0.2584	0.0341	0.5745	-0.293
Mof_N 	N 	0.2392	0.9528	0.4951	-0.293
Mof_N 	N 	0.4081	0.891	0.4289	-0.342
Mof_N 	N 	0.5565	0.8949	0.4125	-0.35
Mof_N 	N 	0.2393	0.931	0.3296	-0.299
Mof_N 	N 	0.1943	0.9292	0.2206	-0.298
Mof_N 	N 	0.2235	0.8071	0.4208	-0.289
Mof_H 	H 	0.3817	0.2182	0.717	0.191
Mof_C 	C 	0.2109	0.2161	0.5683	0.04
Mof_C 	C 	0.1537	0.1796	0.5236	-0.107
Mof_H 	H 	0.1545	0.1336	0.5219	0.047
Mof_C 	C 	0.0974	0.2166	0.4832	-0.023
Mof_H 	H 	0.058	0.1946	0.4548	0.032
Mof_C 	C 	0.2927	0.9998	0.5224	0.075
Mof_H 	H 	0.3498	0.0079	0.5061	-0.044
Mof_C 	C 	0.1747	0.0079	0.5795	0.05
Mof_C 	C 	0.1086	0.0233	0.6281	-0.106
Mof_H 	H 	0.1196	0.0536	0.6624	0.034
Mof_C 	C 	0.0286	0.9921	0.6227	-0.024
Mof_H 	H 	0.9827	0.0038	0.6519	0.025
Mof_C 	C 	0.0136	0.9428	0.5745	-0.025
Mof_H 	H 	0.9587	0.9216	0.5727	0.034
Mof_C 	C 	0.0798	0.9256	0.5295	-0.106
Mof_H 	H 	0.0701	0.8924	0.498	0.049
Mof_C 	C 	0.1618	0.9586	0.5319	0.045
Mof_C 	C 	0.4617	0.9252	0.3197	-0.935
Mof_H 	H 	0.5159	0.9224	0.2942	0.266
Mof_H 	H 	0.4171	0.8978	0.2991	0.268
Mof_H 	H 	0.4414	0.9702	0.3205	0.284
Mof_C 	C 	0.4777	0.9028	0.3882	0.348
Mof_C 	C 	0.4489	0.8715	0.4881	0.033
Mof_C 	C 	0.4144	0.8533	0.5494	-0.11
Mof_H 	H 	0.3532	0.854	0.5565	0.036
Mof_C 	C 	0.4705	0.8341	0.5998	-0.023
Mof_H 	H 	0.4473	0.8199	0.6408	0.029
Mof_C 	C 	0.5639	0.8357	0.59	-0.033
Mof_H 	H 	0.6019	0.823	0.6247	0.034
Mof_C 	C 	0.5991	0.8565	0.5284	-0.105
Mof_H 	H 	0.6604	0.8595	0.5222	0.035
Mof_C 	C 	0.5406	0.8724	0.4765	0.034
Mof_C 	C 	0.2277	0.8952	0.2733	0.073
Mof_H 	H 	0.2417	0.8505	0.2708	-0.061
Mof_C 	C 	0.2147	0.9941	0.3119	0.038
Mof_C 	C 	0.2137	0.0549	0.3469	-0.109
Mof_H 	H 	0.2348	0.0572	0.3909	0.041
Mof_C 	C 	0.182	0.1097	0.3163	-0.026
Mof_H 	H 	0.1795	0.1494	0.3399	0.032
Mof_C 	C 	0.1537	0.1072	0.2509	-0.021
Mof_H 	H 	0.1332	0.146	0.231	0.029
Mof_C 	C 	0.1538	0.0513	0.2136	-0.108
Mof_H 	H 	0.135	0.0509	0.169	0.041
Mof_C 	C 	0.1839	0.9945	0.246	0.031
Mof_C 	C 	0.1438	0.7836	0.3926	0.041
Mof_C 	C 	0.0727	0.8209	0.37	-0.118
Mof_H 	H 	0.0732	0.8669	0.3705	0.04
Mof_C 	C 	0.9993	0.7842	0.3461	-0.029
Mof_H 	H 	0.9496	0.8066	0.3299	0.018
Mof_H 	H 	0.398	0.2932	0.7011	-0.007
Mof_H 	H 	0.4433	0.2386	0.6566	0.108
Mof_Zn	Zn	0.17859	0.8976	0.12661	1.175
Mof_Zn	Zn	0.22451	0.1037	0.91876	1.174
Mof_N 	N 	0.2271	0.8067	0.114	-0.318
Mof_N 	N 	0.2416	0.9659	0.0745	-0.294
Mof_N 	N 	0.2608	0.0472	0.9951	-0.295
Mof_N 	N 	0.0919	0.109	0.9289	-0.342
Mof_N 	N 	0.9435	0.1051	0.9125	-0.35
Mof_N 	N 	0.2607	0.069	0.8296	-0.299
Mof_N 	N 	0.3057	0.0708	0.7206	-0.298
Mof_N 	N 	0.2765	0.1929	0.9208	-0.289
Mof_H 	H 	0.1183	0.7818	0.217	0.191
Mof_C 	C 	0.2891	0.7839	0.0683	0.04
Mof_C 	C 	0.3463	0.8204	0.0236	-0.108
Mof_H 	H 	0.3455	0.8664	0.0219	0.047
Mof_C 	C 	0.4026	0.7834	0.9832	-0.021
Mof_H 	H 	0.442	0.8054	0.9548	0.032
Mof_C 	C 	0.2073	0.0002	0.0224	0.081
Mof_H 	H 	0.1502	0.9921	0.0061	-0.047
Mof_C 	C 	0.3253	0.9921	0.0795	0.049
Mof_C 	C 	0.3914	0.9767	0.1281	-0.109
Mof_H 	H 	0.3804	0.9464	0.1624	0.034
Mof_C 	C 	0.4714	0.0079	0.1227	-0.02
Mof_H 	H 	0.5173	0.9962	0.1519	0.024
Mof_C 	C 	0.4864	0.0572	0.0745	-0.026
Mof_H 	H 	0.5413	0.0784	0.0727	0.034
Mof_C 	C 	0.4202	0.0744	0.0295	-0.104
Mof_H 	H 	0.4299	0.1076	0.998	0.048
Mof_C 	C 	0.3382	0.0414	0.0319	0.046
Mof_C 	C 	0.0383	0.0748	0.8197	-0.931
Mof_H 	H 	0.9841	0.0776	0.7942	0.264
Mof_H 	H 	0.0829	0.1022	0.7991	0.267
Mof_H 	H 	0.0586	0.0298	0.8205	0.283
Mof_C 	C 	0.0223	0.0972	0.8882	0.348
Mof_C 	C 	0.0511	0.1285	0.9881	0.036
Mof_C 	C 	0.0856	0.1467	0.0494	-0.112
Mof_H 	H 	0.1468	0.146	0.0565	0.037
Mof_C 	C 	0.0295	0.1659	0.0998	-0.021
Mof_H 	H 	0.0527	0.1801	0.1408	0.028
Mof_C 	C 	0.9361	0.1643	0.09	-0.036
Mof_H 	H 	0.8981	0.177	0.1247	0.035
Mof_C 	C 	0.9009	0.1435	0.0284	-0.1
Mof_H 	H 	0.8396	0.1405	0.0222	0.034
Mof_C 	C 	0.9594	0.1276	0.9765	0.029
Mof_C 	C 	0.2723	0.1048	0.7733	0.073
Mof_H 	H 	0.2583	0.1495	0.7708	-0.061
Mof_C 	C 	0.2853	0.0059	0.8119	0.038
Mof_C 	C 	0.2863	0.9451	0.8469	-0.109
Mof_H 	H 	0.2652	0.9428	0.8909	0.041
Mof_C 	C 	0.318	0.8903	0.8163	-0.027
Mof_H 	H 	0.3205	0.8506	0.8399	0.032
Mof_C 	C 	0.3463	0.8928	0.7509	-0.02
Mof_H 	H 	0.3668	0.854	0.731	0.028
Mof_C 	C 	0.3462	0.9487	0.7136	-0.11
Mof_H 	H 	0.365	0.9491	0.669	0.041
Mof_C 	C 	0.3161	0.0055	0.746	0.033
Mof_C 	C 	0.3562	0.2164	0.8926	0.04
Mof_C 	C 	0.4273	0.1791	0.87	-0.117
Mof_H 	H 	0.4268	0.1331	0.8705	0.04
Mof_C 	C 	0.5007	0.2158	0.8461	-0.03
Mof_H 	H 	0.5504	0.1934	0.8299	0.018
Mof_H 	H 	0.102	0.7068	0.2011	-0.007
Mof_H 	H 	0.0567	0.7614	0.1566	0.108
Mof_C 	C 	0.3908	0.25	0.6817	-0.711
Mof_C 	C 	0.3109	0.25	0.635	0.23
Mof_C 	C 	0.1092	0.75	0.1817	-0.71
Mof_C 	C 	0.1891	0.75	0.135	0.229
Mof_C 	C 	0.6092	0.75	0.3183	-0.711
Mof_C 	C 	0.6891	0.75	0.365	0.23
Mof_C 	C 	0.8908	0.25	0.8183	-0.71
Mof_C 	C 	0.8109	0.25	0.865	0.229
Mof_C 	C 	0.267	0.75	0.4329	0.025
Mof_C 	C 	0.233	0.25	0.9329	0.025
Mof_C 	C 	0.733	0.25	0.5671	0.025
Mof_C 	C 	0.767	0.75	0.0671	0.025
_end
