# CIF file generated by openbabel 3.1.0, see https://openbabel.org
data_I
_chemical_name_common 'image0'
_cell_length_a 15.1658
_cell_length_b 15.1658
_cell_length_c 12.0568
_cell_angle_alpha 90
_cell_angle_beta 90
_cell_angle_gamma 90
_space_group_name_H-M_alt 'P 1'
_space_group_name_Hall 'P 1'
loop_
    _symmetry_equiv_pos_as_xyz
    x,y,z
loop_
    _atom_site_label
    _atom_site_type_symbol
    _atom_site_fract_x
    _atom_site_fract_y
    _atom_site_fract_z
    _atom_site_occupancy
    O1       O        0.61950    0.38140    0.60820    1.000
    O2       O        0.59690    0.28850    0.74690    1.000
    C1       C        0.58870    0.36310    0.70240    1.000
    C2       C        0.54138    0.43165    0.76280    1.000
    C3       C        0.54138    0.43165    0.87890    1.000
    H1       H        0.57240    0.38040    0.92240    1.000
    O3       O        0.11950    0.88140    0.10820    1.000
    O4       O        0.09690    0.78850    0.24690    1.000
    C4       C        0.08870    0.86310    0.20240    1.000
    C5       C        0.04138    0.93165    0.26280    1.000
    C6       C        0.04138    0.93165    0.37890    1.000
    H2       H        0.07240    0.88040    0.42240    1.000
    O5       O        0.88050    0.11860    0.10820    1.000
    O6       O        0.90310    0.21150    0.24690    1.000
    C7       C        0.91130    0.13690    0.20240    1.000
    C8       C        0.95862    0.06835    0.26280    1.000
    C9       C        0.95862    0.06835    0.37890    1.000
    H3       H        0.92760    0.11960    0.42240    1.000
    O7       O        0.38050    0.61860    0.60820    1.000
    O8       O        0.40310    0.71150    0.74690    1.000
    C10      C        0.41130    0.63690    0.70240    1.000
    C11      C        0.45862    0.56835    0.76280    1.000
    C12      C        0.45862    0.56835    0.87890    1.000
    H4       H        0.42760    0.61960    0.92240    1.000
    O9       O        0.61860    0.11950    0.85820    1.000
    O10      O        0.71150    0.09690    0.99690    1.000
    C13      C        0.63690    0.08870    0.95240    1.000
    C14      C        0.56835    0.04138    0.01280    1.000
    C15      C        0.56835    0.04138    0.12890    1.000
    H5       H        0.61960    0.07240    0.17240    1.000
    O11      O        0.11860    0.61950    0.35820    1.000
    O12      O        0.21150    0.59690    0.49690    1.000
    C16      C        0.13690    0.58870    0.45240    1.000
    C17      C        0.06835    0.54138    0.51280    1.000
    C18      C        0.06835    0.54138    0.62890    1.000
    H6       H        0.11960    0.57240    0.67240    1.000
    O13      O        0.88140    0.38050    0.35820    1.000
    O14      O        0.78850    0.40310    0.49690    1.000
    C19      C        0.86310    0.41130    0.45240    1.000
    C20      C        0.93165    0.45862    0.51280    1.000
    C21      C        0.93165    0.45862    0.62890    1.000
    H7       H        0.88040    0.42760    0.67240    1.000
    O15      O        0.38140    0.88050    0.85820    1.000
    O16      O        0.28850    0.90310    0.99690    1.000
    C22      C        0.36310    0.91130    0.95240    1.000
    C23      C        0.43165    0.95862    0.01280    1.000
    C24      C        0.43165    0.95862    0.12890    1.000
    H8       H        0.38040    0.92760    0.17240    1.000
    O17      O        0.88050    0.38140    0.14180    1.000
    O18      O        0.90310    0.28850    0.00310    1.000
    C25      C        0.91130    0.36310    0.04760    1.000
    C26      C        0.95862    0.43165    0.98720    1.000
    C27      C        0.95862    0.43165    0.87110    1.000
    H9       H        0.92760    0.38040    0.82760    1.000
    O19      O        0.38050    0.88140    0.64180    1.000
    O20      O        0.40310    0.78850    0.50310    1.000
    C28      C        0.41130    0.86310    0.54760    1.000
    C29      C        0.45862    0.93165    0.48720    1.000
    C30      C        0.45862    0.93165    0.37110    1.000
    H10      H        0.42760    0.88040    0.32760    1.000
    O21      O        0.61950    0.11860    0.64180    1.000
    O22      O        0.59690    0.21150    0.50310    1.000
    C31      C        0.58870    0.13690    0.54760    1.000
    C32      C        0.54138    0.06835    0.48720    1.000
    C33      C        0.54138    0.06835    0.37110    1.000
    H11      H        0.57240    0.11960    0.32760    1.000
    O23      O        0.11950    0.61860    0.14180    1.000
    O24      O        0.09690    0.71150    0.00310    1.000
    C34      C        0.08870    0.63690    0.04760    1.000
    C35      C        0.04138    0.56835    0.98720    1.000
    C36      C        0.04138    0.56835    0.87110    1.000
    H12      H        0.07240    0.61960    0.82760    1.000
    O25      O        0.88140    0.11950    0.89180    1.000
    O26      O        0.78850    0.09690    0.75310    1.000
    C37      C        0.86310    0.08870    0.79760    1.000
    C38      C        0.93165    0.04138    0.73720    1.000
    C39      C        0.93165    0.04138    0.62110    1.000
    H13      H        0.88040    0.07240    0.57760    1.000
    O27      O        0.38140    0.61950    0.39180    1.000
    O28      O        0.28850    0.59690    0.25310    1.000
    C40      C        0.36310    0.58870    0.29760    1.000
    C41      C        0.43165    0.54138    0.23720    1.000
    C42      C        0.43165    0.54138    0.12110    1.000
    H14      H        0.38040    0.57240    0.07760    1.000
    O29      O        0.61860    0.38050    0.39180    1.000
    O30      O        0.71150    0.40310    0.25310    1.000
    C43      C        0.63690    0.41130    0.29760    1.000
    C44      C        0.56835    0.45862    0.23720    1.000
    C45      C        0.56835    0.45862    0.12110    1.000
    H15      H        0.61960    0.42760    0.07760    1.000
    O31      O        0.11860    0.88050    0.89180    1.000
    O32      O        0.21150    0.90310    0.75310    1.000
    C46      C        0.13690    0.91130    0.79760    1.000
    C47      C        0.06835    0.95862    0.73720    1.000
    C48      C        0.06835    0.95862    0.62110    1.000
    H16      H        0.11960    0.92760    0.57760    1.000
    V1       V        0.69800    0.30200    0.50000    1.000
    V2       V        0.19800    0.80200    0.00000    1.000
    V3       V        0.80200    0.19800    0.00000    1.000
    V4       V        0.30200    0.69800    0.50000    1.000
    V5       V        0.69800    0.19800    0.75000    1.000
    V6       V        0.19800    0.69800    0.25000    1.000
    V7       V        0.80200    0.30200    0.25000    1.000
    V8       V        0.30200    0.80200    0.75000    1.000
    O33      O        0.75090    0.25000    0.62500    1.000
    H17      H        0.82180    0.25000    0.62500    1.000
    O34      O        0.25090    0.75000    0.12500    1.000
    H18      H        0.32180    0.75000    0.12500    1.000
    O35      O        0.74910    0.25000    0.12500    1.000
    H19      H        0.67820    0.25000    0.12500    1.000
    O36      O        0.24910    0.75000    0.62500    1.000
    H20      H        0.17820    0.75000    0.62500    1.000
    O37      O        0.75000    0.25090    0.87500    1.000
    H21      H        0.75000    0.32180    0.87500    1.000
    O38      O        0.25000    0.75090    0.37500    1.000
    H22      H        0.25000    0.82180    0.37500    1.000
    O39      O        0.75000    0.24910    0.37500    1.000
    H23      H        0.75000    0.17820    0.37500    1.000
    O40      O        0.25000    0.74910    0.87500    1.000
    H24      H        0.25000    0.67820    0.87500    1.000
    C49      C        0.50000    0.50000    0.70480    1.000
    C50      C        0.50000    0.50000    0.93690    1.000
    H25      H        0.50000    0.50000    0.61770    1.000
    C51      C        0.00000    0.00000    0.20480    1.000
    C52      C        0.00000    0.00000    0.43690    1.000
    H26      H        0.00000    0.00000    0.11770    1.000
    C53      C        0.50000    0.00000    0.95480    1.000
    C54      C        0.50000    0.00000    0.18690    1.000
    H27      H        0.50000    0.00000    0.86770    1.000
    C55      C        0.00000    0.50000    0.45480    1.000
    C56      C        0.00000    0.50000    0.68690    1.000
    H28      H        0.00000    0.50000    0.36770    1.000
    C57      C        0.00000    0.50000    0.04520    1.000
    C58      C        0.00000    0.50000    0.81310    1.000
    H29      H        0.00000    0.50000    0.13230    1.000
    C59      C        0.50000    0.00000    0.54520    1.000
    C60      C        0.50000    0.00000    0.31310    1.000
    H30      H        0.50000    0.00000    0.63230    1.000
    C61      C        0.00000    0.00000    0.79520    1.000
    C62      C        0.00000    0.00000    0.56310    1.000
    H31      H        0.00000    0.00000    0.88230    1.000
    C63      C        0.50000    0.50000    0.29520    1.000
    C64      C        0.50000    0.50000    0.06310    1.000
    H32      H        0.50000    0.50000    0.38230    1.000
