# CIF file generated by openbabel 3.1.0, see https://openbabel.org
data_I
_chemical_name_common 'image0'
_cell_length_a 9.2571
_cell_length_b 11.823
_cell_length_c 16.861
_cell_angle_alpha 90
_cell_angle_beta 90
_cell_angle_gamma 90
_space_group_name_H-M_alt 'P 1'
_space_group_name_Hall 'P 1'
loop_
    _symmetry_equiv_pos_as_xyz
    x,y,z
loop_
    _atom_site_label
    _atom_site_type_symbol
    _atom_site_fract_x
    _atom_site_fract_y
    _atom_site_fract_z
    _atom_site_occupancy
    Co1      Co       0.83368    0.54162    0.11346    1.000
    C1       C        0.81150    0.38280    0.11190    1.000
    N1       N        0.64980    0.54610    0.96267    1.000
    N2       N        0.88340    0.79640    0.11489    1.000
    C2       C        0.86080    0.70130    0.11429    1.000
    C3       C        0.66140    0.55970    0.17292    1.000
    C4       C        0.01070    0.52660    0.05774    1.000
    C5       C        0.72290    0.54790    0.01789    1.000
    C6       C        0.93090    0.52490    0.21232    1.000
    N3       N        0.80540    0.28600    0.11100    1.000
    N4       N        0.97930    0.50920    0.27326    1.000
    N5       N        0.55910    0.57060    0.21013    1.000
    N6       N        0.11990    0.51930    0.02574    1.000
    Li1      Li       0.47660    0.54900    0.88460    1.000
    Co2      Co       0.66632    0.45838    0.61346    1.000
    C7       C        0.68850    0.61720    0.61190    1.000
    N7       N        0.85020    0.45390    0.46267    1.000
    N8       N        0.61660    0.20360    0.61489    1.000
    C8       C        0.63920    0.29870    0.61429    1.000
    C9       C        0.83860    0.44030    0.67292    1.000
    C10      C        0.48930    0.47340    0.55774    1.000
    C11      C        0.77710    0.45210    0.51789    1.000
    C12      C        0.56910    0.47510    0.71232    1.000
    N9       N        0.69460    0.71400    0.61100    1.000
    N10      N        0.52070    0.49080    0.77326    1.000
    N11      N        0.94090    0.42940    0.71013    1.000
    N12      N        0.38010    0.48070    0.52574    1.000
    Li2      Li       0.02340    0.45100    0.38460    1.000
    Co3      Co       0.16632    0.04162    0.38654    1.000
    C13      C        0.18850    0.88280    0.38810    1.000
    N13      N        0.35020    0.04610    0.53733    1.000
    N14      N        0.11660    0.29640    0.38511    1.000
    C14      C        0.13920    0.20130    0.38571    1.000
    C15      C        0.33860    0.05970    0.32708    1.000
    C16      C        0.98930    0.02660    0.44226    1.000
    C17      C        0.27710    0.04790    0.48211    1.000
    C18      C        0.06910    0.02490    0.28768    1.000
    N15      N        0.19460    0.78600    0.38900    1.000
    N16      N        0.02070    0.00920    0.22674    1.000
    N17      N        0.44090    0.07060    0.28987    1.000
    N18      N        0.88010    0.01930    0.47426    1.000
    Li3      Li       0.52340    0.04900    0.61540    1.000
    Co4      Co       0.33368    0.95838    0.88654    1.000
    C19      C        0.31150    0.11720    0.88810    1.000
    N19      N        0.14980    0.95390    0.03733    1.000
    N20      N        0.38340    0.70360    0.88511    1.000
    C20      C        0.36080    0.79870    0.88571    1.000
    C21      C        0.16140    0.94030    0.82708    1.000
    C22      C        0.51070    0.97340    0.94226    1.000
    C23      C        0.22290    0.95210    0.98211    1.000
    C24      C        0.43090    0.97510    0.78768    1.000
    N21      N        0.30540    0.21400    0.88900    1.000
    N22      N        0.47930    0.99080    0.72674    1.000
    N23      N        0.05910    0.92940    0.78987    1.000
    N24      N        0.61990    0.98070    0.97426    1.000
    Li4      Li       0.97660    0.95100    0.11540    1.000
