# CIF file generated by openbabel 3.1.0, see https://openbabel.org
data_I
_chemical_name_common 'image0'
_cell_length_a 15.744
_cell_length_b 18.343
_cell_length_c 28.121
_cell_angle_alpha 104.422
_cell_angle_beta 92.252
_cell_angle_gamma 108.122
_space_group_name_H-M_alt 'P 1'
_space_group_name_Hall 'P 1'
loop_
    _symmetry_equiv_pos_as_xyz
    x,y,z
loop_
    _atom_site_label
    _atom_site_type_symbol
    _atom_site_fract_x
    _atom_site_fract_y
    _atom_site_fract_z
    _atom_site_occupancy
    Cd1      Cd       0.52189    0.85982    0.27771    1.000
    Cd2      Cd       0.87049    0.64948    0.24077    1.000
    O1       O        0.63910    0.85780    0.22875    1.000
    O2       O        0.64690    0.97570    0.27590    1.000
    O3       O        0.97400    0.16250    0.13604    1.000
    O4       O        0.27070    0.14690    0.13545    1.000
    O5       O        0.09450    0.15020    0.03119    1.000
    O6       O        0.20210    0.30290    0.20142    1.000
    O7       O        0.21760    0.29170    0.82576    1.000
    O8       O        0.13480    0.37260    0.84120    1.000
    O9       O        0.40770    0.74320    0.24850    1.000
    O10      O        0.52110    0.69570    0.24900    1.000
    O11      O        0.46100    0.89620    0.21130    1.000
    O12      O        0.41700    0.92540    0.28525    1.000
    O13      O        0.82840    0.83000    0.26512    1.000
    O14      O        0.94090    0.77820    0.26550    1.000
    O15      O        0.15370    0.21520    0.32126    1.000
    O16      O        0.33470    0.35370    0.47640    1.000
    C1       C        0.30850    0.39650    0.51480    1.000
    H1       H        0.28090    0.43030    0.50370    1.000
    H2       H        0.35990    0.42890    0.53880    1.000
    H3       H        0.26590    0.36150    0.52950    1.000
    O17      O        0.33230    0.19580    0.68324    1.000
    O18      O        0.43830    0.15200    0.64876    1.000
    O19      O        0.41540    0.34490    0.37610    1.000
    O20      O        0.12370    0.36930    0.38560    1.000
    O21      O        0.93860    0.63270    0.31610    1.000
    O22      O        0.98660    0.60350    0.24370    1.000
    O23      O        0.75440    0.53530    0.24780    1.000
    O24      O        0.73570    0.65340    0.27392    1.000
    C2       C        0.91080    0.83440    0.27390    1.000
    C3       C        0.97790    0.91610    0.29690    1.000
    C4       C        0.95860    0.98440    0.29790    1.000
    H4       H        0.90380    0.98040    0.28200    1.000
    C5       C        0.01990    0.06010    0.32240    1.000
    H5       H        0.00730    0.10600    0.32110    1.000
    C6       C        0.10040    0.06600    0.34890    1.000
    C7       C        0.11930    0.99430    0.34570    1.000
    H6       H        0.17370    0.99700    0.36150    1.000
    C8       C        0.06140    0.92310    0.32090    1.000
    H7       H        0.07640    0.87750    0.31940    1.000
    C9       C        0.16110    0.14200    0.38120    1.000
    C10      C        0.18650    0.21570    0.36880    1.000
    C11      C        0.24250    0.28490    0.39950    1.000
    C12      C        0.27860    0.28510    0.44620    1.000
    C13      C        0.25460    0.21460    0.46020    1.000
    C14      C        0.19660    0.14510    0.42840    1.000
    H8       H        0.18050    0.09870    0.43860    1.000
    C15      C        0.21180    0.20290    0.28470    1.000
    H9       H        0.18050    0.19280    0.25250    1.000
    H10      H        0.22960    0.15790    0.28620    1.000
    H11      H        0.26420    0.24960    0.29080    1.000
    C16      C        0.28890    0.21060    0.51070    1.000
    C17      C        0.24000    0.21260    0.54770    1.000
    H12      H        0.18440    0.21950    0.54330    1.000
    C18      C        0.26820    0.20480    0.59300    1.000
    H13      H        0.23340    0.20900    0.61890    1.000
    C19      C        0.34550    0.19140    0.59910    1.000
    C20      C        0.40260    0.19740    0.56480    1.000
    H14      H        0.45950    0.19310    0.56950    1.000
    C21      C        0.36980    0.21060    0.52040    1.000
    H15      H        0.40940    0.21980    0.49720    1.000
    C22      C        0.37440    0.17760    0.64820    1.000
    C23      C        0.27010    0.35840    0.38270    1.000
    C24      C        0.35830    0.38670    0.37070    1.000
    C25      C        0.38700    0.45380    0.35240    1.000
    C26      C        0.32250    0.48950    0.34580    1.000
    H16      H        0.33960    0.53350    0.33320    1.000
    C27      C        0.23410    0.46360    0.35670    1.000
    C28      C        0.20930    0.39630    0.37460    1.000
    C29      C        0.10590    0.37810    0.43370    1.000
    H17      H        0.13100    0.34590    0.44820    1.000
    H18      H        0.04200    0.36150    0.43440    1.000
    H19      H        0.13250    0.43310    0.45220    1.000
    C30      C        0.49630    0.38750    0.40930    1.000
    H20      H        0.53500    0.35550    0.40610    1.000
    H21      H        0.48210    0.39910    0.44260    1.000
    H22      H        0.52640    0.43640    0.40150    1.000
    C31      C        0.17120    0.50220    0.34230    1.000
    C32      C        0.17480    0.51820    0.29540    1.000
    H23      H        0.21690    0.50580    0.27550    1.000
    C33      C        0.11660    0.55180    0.27930    1.000
    H24      H        0.11910    0.56130    0.24830    1.000
    C34      C        0.05410    0.57190    0.30890    1.000
    C35      C        0.05090    0.55750    0.35510    1.000
    H25      H        0.00980    0.57120    0.37530    1.000
    C36      C        0.10890    0.52280    0.37110    1.000
    H26      H        0.10580    0.51310    0.40210    1.000
    C37      C        0.98930    0.60560    0.28960    1.000
    C38      C        0.47330    0.48280    0.33440    1.000
    C39      C        0.50790    0.43290    0.30030    1.000
    H27      H        0.47830    0.37800    0.29140    1.000
    C40      C        0.58310    0.46230    0.28010    1.000
    H28      H        0.60420    0.42730    0.25780    1.000
    C41      C        0.63120    0.54650    0.29210    1.000
    C42      C        0.59770    0.59510    0.32690    1.000
    H29      H        0.62790    0.64980    0.33650    1.000
    C43      C        0.52010    0.56440    0.34800    1.000
    H30      H        0.49960    0.59870    0.37120    1.000
    C44      C        0.71170    0.57710    0.26910    1.000
    C45      C        0.67650    0.93410    0.24260    1.000
    C46      C        0.75480    0.96820    0.21800    1.000
    C47      C        0.78590    0.91870    0.18310    1.000
    H31      H        0.75380    0.86440    0.17200    1.000
    C48      C        0.86550    0.95040    0.16430    1.000
    H32      H        0.88550    0.91720    0.14010    1.000
    C49      C        0.91490    0.03010    0.18120    1.000
    C50      C        0.88100    0.07950    0.21450    1.000
    H33      H        0.91170    0.13410    0.22380    1.000
    C51      C        0.80360    0.05060    0.23450    1.000
    H34      H        0.78380    0.08460    0.25840    1.000
    C52      C        0.00620    0.06040    0.16600    1.000
    C53      C        0.06870    0.02620    0.17580    1.000
    H35      H        0.05110    0.98270    0.18880    1.000
    C54      C        0.15930    0.05510    0.16660    1.000
    C55      C        0.18310    0.11780    0.14690    1.000
    C56      C        0.12190    0.15360    0.13610    1.000
    C57      C        0.03340    0.12380    0.14460    1.000
    C58      C        0.90860    0.11980    0.09500    1.000
    H36      H        0.86820    0.14880    0.09220    1.000
    H37      H        0.87540    0.06860    0.09910    1.000
    H38      H        0.93750    0.11260    0.06550    1.000
    C59      C        0.33600    0.19460    0.17610    1.000
    H39      H        0.39480    0.20580    0.16540    1.000
    H40      H        0.33310    0.16670    0.20100    1.000
    H41      H        0.32470    0.24370    0.18950    1.000
    C60      C        0.15040    0.22610    0.11710    1.000
    C61      C        0.18830    0.29950    0.15070    1.000
    C62      C        0.21240    0.37090    0.13720    1.000
    C63      C        0.19730    0.36510    0.08770    1.000
    H42      H        0.21190    0.41180    0.07790    1.000
    C64      C        0.16110    0.29220    0.05140    1.000
    C65      C        0.13620    0.22100    0.06680    1.000
    C66      C        0.13340    0.32030    0.22960    1.000
    H43      H        0.14760    0.32180    0.26340    1.000
    H44      H        0.07640    0.27950    0.21600    1.000
    H45      H        0.13000    0.37110    0.22810    1.000
    C67      C        0.26310    0.44960    0.17040    1.000
    C68      C        0.33870    0.46180    0.20280    1.000
    H46      H        0.35080    0.41810    0.20870    1.000
    C69      C        0.39780    0.54020    0.22690    1.000
    H47      H        0.45080    0.54800    0.24630    1.000
    C70      C        0.37470    0.60510    0.22090    1.000
    C71      C        0.29490    0.59170    0.19230    1.000
    H48      H        0.27770    0.63500    0.19020    1.000
    C72      C        0.24000    0.51560    0.16660    1.000
    H49      H        0.18770    0.50840    0.14690    1.000
    C73      C        0.43610    0.68570    0.24050    1.000
    C74      C        0.15400    0.29360    0.99870    1.000
    C75      C        0.11400    0.34220    0.98390    1.000
    H50      H        0.08350    0.36850    0.00590    1.000
    C76      C        0.11760    0.35340    0.93690    1.000
    H51      H        0.08840    0.38540    0.92740    1.000
    C77      C        0.16610    0.31570    0.90360    1.000
    C78      C        0.20600    0.26430    0.91880    1.000
    H52      H        0.23720    0.23820    0.89720    1.000
    C79      C        0.19920    0.25270    0.96490    1.000
    H53      H        0.22440    0.21770    0.97410    1.000
    C80      C        0.17170    0.32730    0.85440    1.000
    C81      C        0.22400    0.01770    0.18380    1.000
    C82      C        0.28840    0.00050    0.15620    1.000
    H54      H        0.29180    0.00990    0.12520    1.000
    C83      C        0.34960    0.96890    0.17420    1.000
    H55      H        0.39170    0.95590    0.15450    1.000
    C84      C        0.34790    0.95710    0.22030    1.000
    C85      C        0.28080    0.97410    0.24910    1.000
    H56      H        0.27820    0.96620    0.28050    1.000
    C86      C        0.21980    0.00240    0.23000    1.000
    H57      H        0.17440    0.01170    0.24830    1.000
    C87      C        0.41470    0.92400    0.24020    1.000
    C88      C        0.13690    0.08900    0.02300    1.000
    H58      H        0.14130    0.07130    0.98830    1.000
    H59      H        0.10130    0.04480    0.03390    1.000
    H60      H        0.19610    0.11060    0.04120    1.000
    La1      La       0.32351    0.26539    0.76871    1.000
    Cd3      Cd       0.47811    0.14018    0.72229    1.000
    Cd4      Cd       0.12951    0.35052    0.75923    1.000
    O25      O        0.36090    0.14220    0.77125    1.000
    O26      O        0.35310    0.02430    0.72410    1.000
    O27      O        0.02600    0.83750    0.86396    1.000
    O28      O        0.72930    0.85310    0.86455    1.000
    O29      O        0.90550    0.84980    0.96881    1.000
    O30      O        0.79790    0.69710    0.79858    1.000
    O31      O        0.78240    0.70830    0.17424    1.000
    O32      O        0.86520    0.62740    0.15880    1.000
    O33      O        0.59230    0.25680    0.75150    1.000
    O34      O        0.47890    0.30430    0.75100    1.000
    O35      O        0.53900    0.10380    0.78870    1.000
    O36      O        0.58300    0.07460    0.71475    1.000
    O37      O        0.17160    0.17000    0.73488    1.000
    O38      O        0.05910    0.22180    0.73450    1.000
    O39      O        0.84630    0.78480    0.67874    1.000
    O40      O        0.66530    0.64630    0.52360    1.000
    C89      C        0.69150    0.60350    0.48520    1.000
    H61      H        0.71910    0.56970    0.49630    1.000
    H62      H        0.64010    0.57110    0.46120    1.000
    H63      H        0.73410    0.63850    0.47050    1.000
    O41      O        0.66770    0.80420    0.31676    1.000
    O42      O        0.56170    0.84800    0.35124    1.000
    O43      O        0.58460    0.65510    0.62390    1.000
    O44      O        0.87630    0.63070    0.61440    1.000
    O45      O        0.06140    0.36730    0.68390    1.000
    O46      O        0.01340    0.39650    0.75630    1.000
    O47      O        0.24560    0.46470    0.75220    1.000
    O48      O        0.26430    0.34660    0.72608    1.000
    C90      C        0.08920    0.16560    0.72610    1.000
    C91      C        0.02210    0.08390    0.70310    1.000
    C92      C        0.04140    0.01560    0.70210    1.000
    H64      H        0.09620    0.01960    0.71800    1.000
    C93      C        0.98010    0.93990    0.67760    1.000
    H65      H        0.99270    0.89400    0.67890    1.000
    C94      C        0.89960    0.93400    0.65110    1.000
    C95      C        0.88070    0.00570    0.65430    1.000
    H66      H        0.82630    0.00300    0.63850    1.000
    C96      C        0.93860    0.07690    0.67910    1.000
    H67      H        0.92360    0.12250    0.68060    1.000
    C97      C        0.83890    0.85800    0.61880    1.000
    C98      C        0.81350    0.78430    0.63120    1.000
    C99      C        0.75750    0.71510    0.60050    1.000
    C100     C        0.72140    0.71490    0.55380    1.000
    C101     C        0.74540    0.78540    0.53980    1.000
    C102     C        0.80340    0.85490    0.57160    1.000
    H68      H        0.81950    0.90130    0.56140    1.000
    C103     C        0.78820    0.79710    0.71530    1.000
    H69      H        0.81950    0.80720    0.74750    1.000
    H70      H        0.77040    0.84210    0.71380    1.000
    H71      H        0.73580    0.75040    0.70920    1.000
    C104     C        0.71110    0.78940    0.48930    1.000
    C105     C        0.76000    0.78740    0.45230    1.000
    H72      H        0.81560    0.78050    0.45670    1.000
    C106     C        0.73180    0.79520    0.40700    1.000
    H73      H        0.76660    0.79100    0.38110    1.000
    C107     C        0.65450    0.80860    0.40090    1.000
    C108     C        0.59740    0.80260    0.43520    1.000
    H74      H        0.54050    0.80690    0.43050    1.000
    C109     C        0.63020    0.78940    0.47960    1.000
    H75      H        0.59060    0.78020    0.50280    1.000
    C110     C        0.62560    0.82240    0.35180    1.000
    C111     C        0.72990    0.64160    0.61730    1.000
    C112     C        0.64170    0.61330    0.62930    1.000
    C113     C        0.61300    0.54620    0.64760    1.000
    C114     C        0.67750    0.51050    0.65420    1.000
    H76      H        0.66040    0.46650    0.66680    1.000
    C115     C        0.76590    0.53640    0.64330    1.000
    C116     C        0.79070    0.60370    0.62540    1.000
    C117     C        0.89410    0.62190    0.56630    1.000
    H77      H        0.86900    0.65410    0.55180    1.000
    H78      H        0.95800    0.63850    0.56560    1.000
    H79      H        0.86750    0.56690    0.54780    1.000
    C118     C        0.50370    0.61250    0.59070    1.000
    H80      H        0.46500    0.64450    0.59390    1.000
    H81      H        0.51790    0.60090    0.55740    1.000
    H82      H        0.47360    0.56360    0.59850    1.000
    C119     C        0.82880    0.49780    0.65770    1.000
    C120     C        0.82520    0.48180    0.70460    1.000
    H83      H        0.78310    0.49420    0.72450    1.000
    C121     C        0.88340    0.44820    0.72070    1.000
    H84      H        0.88090    0.43870    0.75170    1.000
    C122     C        0.94590    0.42810    0.69110    1.000
    C123     C        0.94910    0.44250    0.64490    1.000
    H85      H        0.99020    0.42880    0.62470    1.000
    C124     C        0.89110    0.47720    0.62890    1.000
    H86      H        0.89420    0.48690    0.59790    1.000
    C125     C        0.01070    0.39440    0.71040    1.000
    C126     C        0.52670    0.51720    0.66560    1.000
    C127     C        0.49210    0.56710    0.69970    1.000
    H87      H        0.52170    0.62200    0.70860    1.000
    C128     C        0.41690    0.53770    0.71990    1.000
    H88      H        0.39580    0.57270    0.74220    1.000
    C129     C        0.36880    0.45350    0.70790    1.000
    C130     C        0.40230    0.40490    0.67310    1.000
    H89      H        0.37210    0.35020    0.66350    1.000
    C131     C        0.47990    0.43560    0.65200    1.000
    H90      H        0.50040    0.40130    0.62880    1.000
    C132     C        0.28830    0.42290    0.73090    1.000
    C133     C        0.32350    0.06590    0.75740    1.000
    C134     C        0.24520    0.03180    0.78200    1.000
    C135     C        0.21410    0.08130    0.81690    1.000
    H91      H        0.24620    0.13560    0.82800    1.000
    C136     C        0.13450    0.04960    0.83570    1.000
    H92      H        0.11450    0.08280    0.85990    1.000
    C137     C        0.08510    0.96990    0.81880    1.000
    C138     C        0.11900    0.92050    0.78550    1.000
    H93      H        0.08830    0.86590    0.77620    1.000
    C139     C        0.19640    0.94940    0.76550    1.000
    H94      H        0.21620    0.91540    0.74160    1.000
    C140     C        0.99380    0.93960    0.83400    1.000
    C141     C        0.93130    0.97380    0.82420    1.000
    H95      H        0.94890    0.01730    0.81120    1.000
    C142     C        0.84070    0.94490    0.83340    1.000
    C143     C        0.81690    0.88220    0.85310    1.000
    C144     C        0.87810    0.84640    0.86390    1.000
    C145     C        0.96660    0.87620    0.85540    1.000
    C146     C        0.09140    0.88020    0.90500    1.000
    H96      H        0.13180    0.85120    0.90780    1.000
    H97      H        0.12460    0.93140    0.90090    1.000
    H98      H        0.06250    0.88740    0.93450    1.000
    C147     C        0.66400    0.80540    0.82390    1.000
    H99      H        0.60520    0.79420    0.83460    1.000
    H100     H        0.66690    0.83330    0.79900    1.000
    H101     H        0.67530    0.75630    0.81050    1.000
    C148     C        0.84960    0.77390    0.88290    1.000
    C149     C        0.81170    0.70050    0.84930    1.000
    C150     C        0.78760    0.62910    0.86280    1.000
    C151     C        0.80270    0.63490    0.91230    1.000
    H102     H        0.78810    0.58820    0.92210    1.000
    C152     C        0.83890    0.70780    0.94860    1.000
    C153     C        0.86380    0.77900    0.93320    1.000
    C154     C        0.86660    0.67970    0.77040    1.000
    H103     H        0.85240    0.67820    0.73660    1.000
    H104     H        0.92360    0.72050    0.78400    1.000
    H105     H        0.87000    0.62890    0.77190    1.000
    C155     C        0.73690    0.55040    0.82960    1.000
    C156     C        0.66130    0.53820    0.79720    1.000
    H106     H        0.64920    0.58190    0.79130    1.000
    C157     C        0.60220    0.45980    0.77310    1.000
    H107     H        0.54920    0.45200    0.75370    1.000
    C158     C        0.62530    0.39490    0.77910    1.000
    C159     C        0.70510    0.40830    0.80770    1.000
    H108     H        0.72230    0.36500    0.80980    1.000
    C160     C        0.76000    0.48440    0.83340    1.000
    H109     H        0.81230    0.49160    0.85310    1.000
    C161     C        0.56390    0.31430    0.75950    1.000
    C162     C        0.84600    0.70640    0.00130    1.000
    C163     C        0.88600    0.65780    0.01610    1.000
    H110     H        0.91650    0.63150    0.99410    1.000
    C164     C        0.88240    0.64660    0.06310    1.000
    H111     H        0.91160    0.61460    0.07260    1.000
    C165     C        0.83390    0.68430    0.09640    1.000
    C166     C        0.79400    0.73570    0.08120    1.000
    H112     H        0.76280    0.76180    0.10280    1.000
    C167     C        0.80080    0.74730    0.03510    1.000
    H113     H        0.77560    0.78230    0.02590    1.000
    C168     C        0.82830    0.67270    0.14560    1.000
    C169     C        0.77600    0.98230    0.81620    1.000
    C170     C        0.71160    0.99950    0.84380    1.000
    H114     H        0.70820    0.99010    0.87480    1.000
    C171     C        0.65040    0.03110    0.82580    1.000
    H115     H        0.60830    0.04410    0.84550    1.000
    C172     C        0.65210    0.04290    0.77970    1.000
    C173     C        0.71920    0.02590    0.75090    1.000
    H116     H        0.72180    0.03380    0.71950    1.000
    C174     C        0.78020    0.99760    0.77000    1.000
    H117     H        0.82560    0.98830    0.75170    1.000
    C175     C        0.58530    0.07600    0.75980    1.000
    C176     C        0.86310    0.91100    0.97700    1.000
    H118     H        0.85870    0.92870    0.01170    1.000
    H119     H        0.89870    0.95520    0.96610    1.000
    H120     H        0.80390    0.88940    0.95880    1.000
