# CIF file generated by openbabel 3.1.0, see https://openbabel.org
data_I
_chemical_name_common 'image0'
_cell_length_a 34.376
_cell_length_b 15.0832
_cell_length_c 29.6413
_cell_angle_alpha 90
_cell_angle_beta 100.675
_cell_angle_gamma 90
_space_group_name_H-M_alt 'P 1'
_space_group_name_Hall 'P 1'
loop_
    _symmetry_equiv_pos_as_xyz
    x,y,z
loop_
    _atom_site_label
    _atom_site_type_symbol
    _atom_site_fract_x
    _atom_site_fract_y
    _atom_site_fract_z
    _atom_site_occupancy
    Zn1      Zn       0.32989    0.36640    0.72877    1.000
    I1       I        0.37474    0.34703    0.80671    1.000
    I2       I        0.26932    0.27260    0.70108    1.000
    I3       I        0.62000    0.73986    0.57062    1.000
    I4       I        0.66018    0.55467    0.46695    1.000
    Zn2      Zn       0.63506    0.59310    0.53942    1.000
    Zn3      Zn       0.42015    0.87266    0.40726    1.000
    I5       I        0.38349    0.76154    0.44756    1.000
    I6       I        0.47317    0.84334    0.36056    1.000
    N1       N        0.36170    0.35160    0.67670    1.000
    C1       C        0.39450    0.39650    0.67900    1.000
    H1       H        0.40030    0.44180    0.70150    1.000
    C2       C        0.42090    0.38120    0.65050    1.000
    H2       H        0.44450    0.41510    0.65400    1.000
    C3       C        0.41340    0.31730    0.61690    1.000
    C4       C        0.37840    0.27100    0.61380    1.000
    H3       H        0.37180    0.22620    0.59110    1.000
    C5       C        0.35310    0.28980    0.64370    1.000
    H4       H        0.32890    0.25810    0.64090    1.000
    N2       N        0.58576    0.51310    0.54080    1.000
    C6       C        0.57240    0.50290    0.58000    1.000
    H5       H        0.58540    0.53430    0.60630    1.000
    C7       C        0.54130    0.45040    0.58450    1.000
    H6       H        0.53230    0.44690    0.61280    1.000
    C8       C        0.52315    0.40180    0.54660    1.000
    C9       C        0.53715    0.41030    0.50670    1.000
    H7       H        0.52560    0.37700    0.48040    1.000
    C10      C        0.56807    0.46730    0.50480    1.000
    H8       H        0.57700    0.47400    0.47650    1.000
    N3       N        0.44073    0.97320    0.45372    1.000
    C11      C        0.42126    0.98910    0.48760    1.000
    H9       H        0.40260    0.94650    0.49390    1.000
    C12      C        0.42686    0.06380    0.51380    1.000
    H10      H        0.41240    0.07250    0.53780    1.000
    C13      C        0.45398    0.12750    0.50516    1.000
    C14      C        0.47553    0.10900    0.47100    1.000
    H11      H        0.49510    0.14940    0.46490    1.000
    C15      C        0.46835    0.03190    0.44610    1.000
    H12      H        0.48330    0.01960    0.42290    1.000
    C16      C        0.43973    0.29990    0.58460    1.000
    N4       N        0.46853    0.35900    0.58158    1.000
    C17      C        0.49044    0.33980    0.55080    1.000
    N5       N        0.48712    0.26820    0.52366    1.000
    C18      C        0.45842    0.21200    0.53139    1.000
    N6       N        0.43410    0.22470    0.56029    1.000
    N7       N        0.67533    0.53300    0.59060    1.000
    C19      C        0.69970    0.57970    0.62250    1.000
    H13      H        0.69740    0.64250    0.62260    1.000
    C20      C        0.72780    0.53950    0.65510    1.000
    H14      H        0.74480    0.57410    0.67730    1.000
    C21      C        0.73111    0.44810    0.65530    1.000
    C22      C        0.70600    0.40020    0.62250    1.000
    H15      H        0.70750    0.33730    0.62190    1.000
    C23      C        0.67860    0.44510    0.59070    1.000
    H16      H        0.66140    0.41190    0.56800    1.000
    N8       N        0.87716    0.55330    0.86378    1.000
    C24      C        0.84999    0.59550    0.83300    1.000
    H17      H        0.84710    0.65780    0.83580    1.000
    C25      C        0.82605    0.55180    0.79730    1.000
    H18      H        0.80740    0.58360    0.77560    1.000
    C26      C        0.82983    0.46050    0.79390    1.000
    C27      C        0.85562    0.41650    0.82750    1.000
    H19      H        0.85770    0.35370    0.82720    1.000
    C28      C        0.87840    0.46580    0.86190    1.000
    H20      H        0.89590    0.43530    0.88540    1.000
    N9       N        0.81250    0.00070    0.72050    1.000
    C29      C        0.83060    0.05310    0.75380    1.000
    H21      H        0.84840    0.02740    0.77870    1.000
    C30      C        0.82470    0.14440    0.75350    1.000
    H22      H        0.83790    0.18010    0.77810    1.000
    C31      C        0.79972    0.18180    0.71750    1.000
    C32      C        0.78130    0.12840    0.68260    1.000
    H23      H        0.76370    0.15250    0.65710    1.000
    C33      C        0.78910    0.03800    0.68560    1.000
    H24      H        0.77680    0.00120    0.66100    1.000
    C34      C        0.76049    0.40230    0.69060    1.000
    N10      N        0.77979    0.45290    0.72503    1.000
    C35      C        0.80715    0.41000    0.75480    1.000
    N11      N        0.81582    0.32390    0.75197    1.000
    C36      C        0.79361    0.27980    0.71760    1.000
    N12      N        0.76591    0.31560    0.68563    1.000
    Zn4      Zn       0.31900    0.36560    0.71650    1.000
    I7       I        0.36120    0.33190    0.79480    1.000
    I8       I        0.25610    0.28570    0.68340    1.000
    I9       I        0.62370    0.73880    0.56320    1.000
    I10      I        0.65680    0.56480    0.46650    1.000
    Zn5      Zn       0.82989    0.86640    0.72877    1.000
    I11      I        0.87474    0.84703    0.80671    1.000
    I12      I        0.76932    0.77260    0.70108    1.000
    I13      I        0.12000    0.23986    0.57062    1.000
    I14      I        0.16018    0.05467    0.46695    1.000
    Zn6      Zn       0.13506    0.09310    0.53942    1.000
    Zn7      Zn       0.92015    0.37266    0.40726    1.000
    I15      I        0.88349    0.26154    0.44756    1.000
    I16      I        0.97317    0.34334    0.36056    1.000
    N13      N        0.86170    0.85160    0.67670    1.000
    C37      C        0.89450    0.89650    0.67900    1.000
    H25      H        0.90030    0.94180    0.70150    1.000
    C38      C        0.92090    0.88120    0.65050    1.000
    H26      H        0.94450    0.91510    0.65400    1.000
    C39      C        0.91340    0.81730    0.61690    1.000
    C40      C        0.87840    0.77100    0.61380    1.000
    H27      H        0.87180    0.72620    0.59110    1.000
    C41      C        0.85310    0.78980    0.64370    1.000
    H28      H        0.82890    0.75810    0.64090    1.000
    N14      N        0.08576    0.01310    0.54080    1.000
    C42      C        0.07240    0.00290    0.58000    1.000
    H29      H        0.08540    0.03430    0.60630    1.000
    C43      C        0.04130    0.95040    0.58450    1.000
    H30      H        0.03230    0.94690    0.61280    1.000
    C44      C        0.02315    0.90180    0.54660    1.000
    C45      C        0.03715    0.91030    0.50670    1.000
    H31      H        0.02560    0.87700    0.48040    1.000
    C46      C        0.06807    0.96730    0.50480    1.000
    H32      H        0.07700    0.97400    0.47650    1.000
    N15      N        0.94073    0.47320    0.45372    1.000
    C47      C        0.92126    0.48910    0.48760    1.000
    H33      H        0.90260    0.44650    0.49390    1.000
    C48      C        0.92686    0.56380    0.51380    1.000
    H34      H        0.91240    0.57250    0.53780    1.000
    C49      C        0.95398    0.62750    0.50516    1.000
    C50      C        0.97553    0.60900    0.47100    1.000
    H35      H        0.99510    0.64940    0.46490    1.000
    C51      C        0.96835    0.53190    0.44610    1.000
    H36      H        0.98330    0.51960    0.42290    1.000
    C52      C        0.93973    0.79990    0.58460    1.000
    N16      N        0.96853    0.85900    0.58158    1.000
    C53      C        0.99044    0.83980    0.55080    1.000
    N17      N        0.98712    0.76820    0.52366    1.000
    C54      C        0.95842    0.71200    0.53139    1.000
    N18      N        0.93410    0.72470    0.56029    1.000
    N19      N        0.17533    0.03300    0.59060    1.000
    C55      C        0.19970    0.07970    0.62250    1.000
    H37      H        0.19740    0.14250    0.62260    1.000
    C56      C        0.22780    0.03950    0.65510    1.000
    H38      H        0.24480    0.07410    0.67730    1.000
    C57      C        0.23111    0.94810    0.65530    1.000
    C58      C        0.20600    0.90020    0.62250    1.000
    H39      H        0.20750    0.83730    0.62190    1.000
    C59      C        0.17860    0.94510    0.59070    1.000
    H40      H        0.16140    0.91190    0.56800    1.000
    N20      N        0.37716    0.05330    0.86378    1.000
    C60      C        0.34999    0.09550    0.83300    1.000
    H41      H        0.34710    0.15780    0.83580    1.000
    C61      C        0.32605    0.05180    0.79730    1.000
    H42      H        0.30740    0.08360    0.77560    1.000
    C62      C        0.32983    0.96050    0.79390    1.000
    C63      C        0.35562    0.91650    0.82750    1.000
    H43      H        0.35770    0.85370    0.82720    1.000
    C64      C        0.37840    0.96580    0.86190    1.000
    H44      H        0.39590    0.93530    0.88540    1.000
    N21      N        0.31250    0.50070    0.72050    1.000
    C65      C        0.33060    0.55310    0.75380    1.000
    H45      H        0.34840    0.52740    0.77870    1.000
    C66      C        0.32470    0.64440    0.75350    1.000
    H46      H        0.33790    0.68010    0.77810    1.000
    C67      C        0.29972    0.68180    0.71750    1.000
    C68      C        0.28130    0.62840    0.68260    1.000
    H47      H        0.26370    0.65250    0.65710    1.000
    C69      C        0.28910    0.53800    0.68560    1.000
    H48      H        0.27680    0.50120    0.66100    1.000
    C70      C        0.26049    0.90230    0.69060    1.000
    N22      N        0.27979    0.95290    0.72503    1.000
    C71      C        0.30715    0.91000    0.75480    1.000
    N23      N        0.31582    0.82390    0.75197    1.000
    C72      C        0.29361    0.77980    0.71760    1.000
    N24      N        0.26591    0.81560    0.68563    1.000
    Zn8      Zn       0.81900    0.86560    0.71650    1.000
    I17      I        0.86120    0.83190    0.79480    1.000
    I18      I        0.75610    0.78570    0.68340    1.000
    I19      I        0.12370    0.23880    0.56320    1.000
    I20      I        0.15680    0.06480    0.46650    1.000
    Zn9      Zn       0.32989    0.63360    0.22877    1.000
    I21      I        0.37474    0.65297    0.30671    1.000
    I22      I        0.26932    0.72740    0.20108    1.000
    I23      I        0.62000    0.26014    0.07062    1.000
    I24      I        0.66018    0.44533    0.96695    1.000
    Zn10     Zn       0.63506    0.40690    0.03942    1.000
    Zn11     Zn       0.42015    0.12734    0.90726    1.000
    I25      I        0.38349    0.23846    0.94756    1.000
    I26      I        0.47317    0.15666    0.86056    1.000
    N25      N        0.36170    0.64840    0.17670    1.000
    C73      C        0.39450    0.60350    0.17900    1.000
    H49      H        0.40030    0.55820    0.20150    1.000
    C74      C        0.42090    0.61880    0.15050    1.000
    H50      H        0.44450    0.58490    0.15400    1.000
    C75      C        0.41340    0.68270    0.11690    1.000
    C76      C        0.37840    0.72900    0.11380    1.000
    H51      H        0.37180    0.77380    0.09110    1.000
    C77      C        0.35310    0.71020    0.14370    1.000
    H52      H        0.32890    0.74190    0.14090    1.000
    N26      N        0.58576    0.48690    0.04080    1.000
    C78      C        0.57240    0.49710    0.08000    1.000
    H53      H        0.58540    0.46570    0.10630    1.000
    C79      C        0.54130    0.54960    0.08450    1.000
    H54      H        0.53230    0.55310    0.11280    1.000
    C80      C        0.52315    0.59820    0.04660    1.000
    C81      C        0.53715    0.58970    0.00670    1.000
    H55      H        0.52560    0.62300    0.98040    1.000
    C82      C        0.56807    0.53270    0.00480    1.000
    H56      H        0.57700    0.52600    0.97650    1.000
    N27      N        0.44073    0.02680    0.95372    1.000
    C83      C        0.42126    0.01090    0.98760    1.000
    H57      H        0.40260    0.05350    0.99390    1.000
    C84      C        0.42686    0.93620    0.01380    1.000
    H58      H        0.41240    0.92750    0.03780    1.000
    C85      C        0.45398    0.87250    0.00516    1.000
    C86      C        0.47553    0.89100    0.97100    1.000
    H59      H        0.49510    0.85060    0.96490    1.000
    C87      C        0.46835    0.96810    0.94610    1.000
    H60      H        0.48330    0.98040    0.92290    1.000
    C88      C        0.43973    0.70010    0.08460    1.000
    N28      N        0.46853    0.64100    0.08158    1.000
    C89      C        0.49044    0.66020    0.05080    1.000
    N29      N        0.48712    0.73180    0.02366    1.000
    C90      C        0.45842    0.78800    0.03139    1.000
    N30      N        0.43410    0.77530    0.06029    1.000
    N31      N        0.67533    0.46700    0.09060    1.000
    C91      C        0.69970    0.42030    0.12250    1.000
    H61      H        0.69740    0.35750    0.12260    1.000
    C92      C        0.72780    0.46050    0.15510    1.000
    H62      H        0.74480    0.42590    0.17730    1.000
    C93      C        0.73111    0.55190    0.15530    1.000
    C94      C        0.70600    0.59980    0.12250    1.000
    H63      H        0.70750    0.66270    0.12190    1.000
    C95      C        0.67860    0.55490    0.09070    1.000
    H64      H        0.66140    0.58810    0.06800    1.000
    N32      N        0.87716    0.44670    0.36378    1.000
    C96      C        0.84999    0.40450    0.33300    1.000
    H65      H        0.84710    0.34220    0.33580    1.000
    C97      C        0.82605    0.44820    0.29730    1.000
    H66      H        0.80740    0.41640    0.27560    1.000
    C98      C        0.82983    0.53950    0.29390    1.000
    C99      C        0.85562    0.58350    0.32750    1.000
    H67      H        0.85770    0.64630    0.32720    1.000
    C100     C        0.87840    0.53420    0.36190    1.000
    H68      H        0.89590    0.56470    0.38540    1.000
    N33      N        0.81250    0.99930    0.22050    1.000
    C101     C        0.83060    0.94690    0.25380    1.000
    H69      H        0.84840    0.97260    0.27870    1.000
    C102     C        0.82470    0.85560    0.25350    1.000
    H70      H        0.83790    0.81990    0.27810    1.000
    C103     C        0.79972    0.81820    0.21750    1.000
    C104     C        0.78130    0.87160    0.18260    1.000
    H71      H        0.76370    0.84750    0.15710    1.000
    C105     C        0.78910    0.96200    0.18560    1.000
    H72      H        0.77680    0.99880    0.16100    1.000
    C106     C        0.76049    0.59770    0.19060    1.000
    N34      N        0.77979    0.54710    0.22503    1.000
    C107     C        0.80715    0.59000    0.25480    1.000
    N35      N        0.81582    0.67610    0.25197    1.000
    C108     C        0.79361    0.72020    0.21760    1.000
    N36      N        0.76591    0.68440    0.18563    1.000
    Zn12     Zn       0.31900    0.63440    0.21650    1.000
    I27      I        0.36120    0.66810    0.29480    1.000
    I28      I        0.25610    0.71430    0.18340    1.000
    I29      I        0.62370    0.26120    0.06320    1.000
    I30      I        0.65680    0.43520    0.96650    1.000
    Zn13     Zn       0.82989    0.13360    0.22877    1.000
    I31      I        0.87474    0.15297    0.30671    1.000
    I32      I        0.76932    0.22740    0.20108    1.000
    I33      I        0.12000    0.76014    0.07062    1.000
    I34      I        0.16018    0.94533    0.96695    1.000
    Zn14     Zn       0.13506    0.90690    0.03942    1.000
    Zn15     Zn       0.92015    0.62734    0.90726    1.000
    I35      I        0.88349    0.73846    0.94756    1.000
    I36      I        0.97317    0.65666    0.86056    1.000
    N37      N        0.86170    0.14840    0.17670    1.000
    C109     C        0.89450    0.10350    0.17900    1.000
    H73      H        0.90030    0.05820    0.20150    1.000
    C110     C        0.92090    0.11880    0.15050    1.000
    H74      H        0.94450    0.08490    0.15400    1.000
    C111     C        0.91340    0.18270    0.11690    1.000
    C112     C        0.87840    0.22900    0.11380    1.000
    H75      H        0.87180    0.27380    0.09110    1.000
    C113     C        0.85310    0.21020    0.14370    1.000
    H76      H        0.82890    0.24190    0.14090    1.000
    N38      N        0.08576    0.98690    0.04080    1.000
    C114     C        0.07240    0.99710    0.08000    1.000
    H77      H        0.08540    0.96570    0.10630    1.000
    C115     C        0.04130    0.04960    0.08450    1.000
    H78      H        0.03230    0.05310    0.11280    1.000
    C116     C        0.02315    0.09820    0.04660    1.000
    C117     C        0.03715    0.08970    0.00670    1.000
    H79      H        0.02560    0.12300    0.98040    1.000
    C118     C        0.06807    0.03270    0.00480    1.000
    H80      H        0.07700    0.02600    0.97650    1.000
    N39      N        0.94073    0.52680    0.95372    1.000
    C119     C        0.92126    0.51090    0.98760    1.000
    H81      H        0.90260    0.55350    0.99390    1.000
    C120     C        0.92686    0.43620    0.01380    1.000
    H82      H        0.91240    0.42750    0.03780    1.000
    C121     C        0.95398    0.37250    0.00516    1.000
    C122     C        0.97553    0.39100    0.97100    1.000
    H83      H        0.99510    0.35060    0.96490    1.000
    C123     C        0.96835    0.46810    0.94610    1.000
    H84      H        0.98330    0.48040    0.92290    1.000
    C124     C        0.93973    0.20010    0.08460    1.000
    N40      N        0.96853    0.14100    0.08158    1.000
    C125     C        0.99044    0.16020    0.05080    1.000
    N41      N        0.98712    0.23180    0.02366    1.000
    C126     C        0.95842    0.28800    0.03139    1.000
    N42      N        0.93410    0.27530    0.06029    1.000
    N43      N        0.17533    0.96700    0.09060    1.000
    C127     C        0.19970    0.92030    0.12250    1.000
    H85      H        0.19740    0.85750    0.12260    1.000
    C128     C        0.22780    0.96050    0.15510    1.000
    H86      H        0.24480    0.92590    0.17730    1.000
    C129     C        0.23111    0.05190    0.15530    1.000
    C130     C        0.20600    0.09980    0.12250    1.000
    H87      H        0.20750    0.16270    0.12190    1.000
    C131     C        0.17860    0.05490    0.09070    1.000
    H88      H        0.16140    0.08810    0.06800    1.000
    N44      N        0.37716    0.94670    0.36378    1.000
    C132     C        0.34999    0.90450    0.33300    1.000
    H89      H        0.34710    0.84220    0.33580    1.000
    C133     C        0.32605    0.94820    0.29730    1.000
    H90      H        0.30740    0.91640    0.27560    1.000
    C134     C        0.32983    0.03950    0.29390    1.000
    C135     C        0.35562    0.08350    0.32750    1.000
    H91      H        0.35770    0.14630    0.32720    1.000
    C136     C        0.37840    0.03420    0.36190    1.000
    H92      H        0.39590    0.06470    0.38540    1.000
    N45      N        0.31250    0.49930    0.22050    1.000
    C137     C        0.33060    0.44690    0.25380    1.000
    H93      H        0.34840    0.47260    0.27870    1.000
    C138     C        0.32470    0.35560    0.25350    1.000
    H94      H        0.33790    0.31990    0.27810    1.000
    C139     C        0.29972    0.31820    0.21750    1.000
    C140     C        0.28130    0.37160    0.18260    1.000
    H95      H        0.26370    0.34750    0.15710    1.000
    C141     C        0.28910    0.46200    0.18560    1.000
    H96      H        0.27680    0.49880    0.16100    1.000
    C142     C        0.26049    0.09770    0.19060    1.000
    N46      N        0.27979    0.04710    0.22503    1.000
    C143     C        0.30715    0.09000    0.25480    1.000
    N47      N        0.31582    0.17610    0.25197    1.000
    C144     C        0.29361    0.22020    0.21760    1.000
    N48      N        0.26591    0.18440    0.18563    1.000
    Zn16     Zn       0.81900    0.13440    0.21650    1.000
    I37      I        0.86120    0.16810    0.29480    1.000
    I38      I        0.75610    0.21430    0.18340    1.000
    I39      I        0.12370    0.76120    0.06320    1.000
    I40      I        0.15680    0.93520    0.96650    1.000
    Zn17     Zn       0.67011    0.36640    0.77123    1.000
    I41      I        0.62526    0.34703    0.69329    1.000
    I42      I        0.73068    0.27260    0.79892    1.000
    I43      I        0.38000    0.73986    0.92938    1.000
    I44      I        0.33982    0.55467    0.03305    1.000
    Zn18     Zn       0.36494    0.59310    0.96058    1.000
    Zn19     Zn       0.57985    0.87266    0.09274    1.000
    I45      I        0.61651    0.76154    0.05244    1.000
    I46      I        0.52683    0.84334    0.13944    1.000
    N49      N        0.63830    0.35160    0.82330    1.000
    C145     C        0.60550    0.39650    0.82100    1.000
    H97      H        0.59970    0.44180    0.79850    1.000
    C146     C        0.57910    0.38120    0.84950    1.000
    H98      H        0.55550    0.41510    0.84600    1.000
    C147     C        0.58660    0.31730    0.88310    1.000
    C148     C        0.62160    0.27100    0.88620    1.000
    H99      H        0.62820    0.22620    0.90890    1.000
    C149     C        0.64690    0.28980    0.85630    1.000
    H100     H        0.67110    0.25810    0.85910    1.000
    N50      N        0.41424    0.51310    0.95920    1.000
    C150     C        0.42760    0.50290    0.92000    1.000
    H101     H        0.41460    0.53430    0.89370    1.000
    C151     C        0.45870    0.45040    0.91550    1.000
    H102     H        0.46770    0.44690    0.88720    1.000
    C152     C        0.47685    0.40180    0.95340    1.000
    C153     C        0.46285    0.41030    0.99330    1.000
    H103     H        0.47440    0.37700    0.01960    1.000
    C154     C        0.43193    0.46730    0.99520    1.000
    H104     H        0.42300    0.47400    0.02350    1.000
    N51      N        0.55927    0.97320    0.04628    1.000
    C155     C        0.57874    0.98910    0.01240    1.000
    H105     H        0.59740    0.94650    0.00610    1.000
    C156     C        0.57314    0.06380    0.98620    1.000
    H106     H        0.58760    0.07250    0.96220    1.000
    C157     C        0.54602    0.12750    0.99484    1.000
    C158     C        0.52447    0.10900    0.02900    1.000
    H107     H        0.50490    0.14940    0.03510    1.000
    C159     C        0.53165    0.03190    0.05390    1.000
    H108     H        0.51670    0.01960    0.07710    1.000
    C160     C        0.56027    0.29990    0.91540    1.000
    N52      N        0.53147    0.35900    0.91842    1.000
    C161     C        0.50956    0.33980    0.94920    1.000
    N53      N        0.51288    0.26820    0.97634    1.000
    C162     C        0.54158    0.21200    0.96861    1.000
    N54      N        0.56590    0.22470    0.93971    1.000
    N55      N        0.32467    0.53300    0.90940    1.000
    C163     C        0.30030    0.57970    0.87750    1.000
    H109     H        0.30260    0.64250    0.87740    1.000
    C164     C        0.27220    0.53950    0.84490    1.000
    H110     H        0.25520    0.57410    0.82270    1.000
    C165     C        0.26889    0.44810    0.84470    1.000
    C166     C        0.29400    0.40020    0.87750    1.000
    H111     H        0.29250    0.33730    0.87810    1.000
    C167     C        0.32140    0.44510    0.90930    1.000
    H112     H        0.33860    0.41190    0.93200    1.000
    N56      N        0.12284    0.55330    0.63622    1.000
    C168     C        0.15001    0.59550    0.66700    1.000
    H113     H        0.15290    0.65780    0.66420    1.000
    C169     C        0.17395    0.55180    0.70270    1.000
    H114     H        0.19260    0.58360    0.72440    1.000
    C170     C        0.17017    0.46050    0.70610    1.000
    C171     C        0.14438    0.41650    0.67250    1.000
    H115     H        0.14230    0.35370    0.67280    1.000
    C172     C        0.12160    0.46580    0.63810    1.000
    H116     H        0.10410    0.43530    0.61460    1.000
    N57      N        0.18750    0.00070    0.77950    1.000
    C173     C        0.16940    0.05310    0.74620    1.000
    H117     H        0.15160    0.02740    0.72130    1.000
    C174     C        0.17530    0.14440    0.74650    1.000
    H118     H        0.16210    0.18010    0.72190    1.000
    C175     C        0.20028    0.18180    0.78250    1.000
    C176     C        0.21870    0.12840    0.81740    1.000
    H119     H        0.23630    0.15250    0.84290    1.000
    C177     C        0.21090    0.03800    0.81440    1.000
    H120     H        0.22320    0.00120    0.83900    1.000
    C178     C        0.23951    0.40230    0.80940    1.000
    N58      N        0.22021    0.45290    0.77497    1.000
    C179     C        0.19285    0.41000    0.74520    1.000
    N59      N        0.18418    0.32390    0.74803    1.000
    C180     C        0.20639    0.27980    0.78240    1.000
    N60      N        0.23409    0.31560    0.81437    1.000
    Zn20     Zn       0.68100    0.36560    0.78350    1.000
    I47      I        0.63880    0.33190    0.70520    1.000
    I48      I        0.74390    0.28570    0.81660    1.000
    I49      I        0.37630    0.73880    0.93680    1.000
    I50      I        0.34320    0.56480    0.03350    1.000
    Zn21     Zn       0.17011    0.86640    0.77123    1.000
    I51      I        0.12526    0.84703    0.69329    1.000
    I52      I        0.23068    0.77260    0.79892    1.000
    I53      I        0.88000    0.23986    0.92938    1.000
    I54      I        0.83982    0.05467    0.03305    1.000
    Zn22     Zn       0.86494    0.09310    0.96058    1.000
    Zn23     Zn       0.07985    0.37266    0.09274    1.000
    I55      I        0.11651    0.26154    0.05244    1.000
    I56      I        0.02683    0.34334    0.13944    1.000
    N61      N        0.13830    0.85160    0.82330    1.000
    C181     C        0.10550    0.89650    0.82100    1.000
    H121     H        0.09970    0.94180    0.79850    1.000
    C182     C        0.07910    0.88120    0.84950    1.000
    H122     H        0.05550    0.91510    0.84600    1.000
    C183     C        0.08660    0.81730    0.88310    1.000
    C184     C        0.12160    0.77100    0.88620    1.000
    H123     H        0.12820    0.72620    0.90890    1.000
    C185     C        0.14690    0.78980    0.85630    1.000
    H124     H        0.17110    0.75810    0.85910    1.000
    N62      N        0.91424    0.01310    0.95920    1.000
    C186     C        0.92760    0.00290    0.92000    1.000
    H125     H        0.91460    0.03430    0.89370    1.000
    C187     C        0.95870    0.95040    0.91550    1.000
    H126     H        0.96770    0.94690    0.88720    1.000
    C188     C        0.97685    0.90180    0.95340    1.000
    C189     C        0.96285    0.91030    0.99330    1.000
    H127     H        0.97440    0.87700    0.01960    1.000
    C190     C        0.93193    0.96730    0.99520    1.000
    H128     H        0.92300    0.97400    0.02350    1.000
    N63      N        0.05927    0.47320    0.04628    1.000
    C191     C        0.07874    0.48910    0.01240    1.000
    H129     H        0.09740    0.44650    0.00610    1.000
    C192     C        0.07314    0.56380    0.98620    1.000
    H130     H        0.08760    0.57250    0.96220    1.000
    C193     C        0.04602    0.62750    0.99484    1.000
    C194     C        0.02447    0.60900    0.02900    1.000
    H131     H        0.00490    0.64940    0.03510    1.000
    C195     C        0.03165    0.53190    0.05390    1.000
    H132     H        0.01670    0.51960    0.07710    1.000
    C196     C        0.06027    0.79990    0.91540    1.000
    N64      N        0.03147    0.85900    0.91842    1.000
    C197     C        0.00956    0.83980    0.94920    1.000
    N65      N        0.01288    0.76820    0.97634    1.000
    C198     C        0.04158    0.71200    0.96861    1.000
    N66      N        0.06590    0.72470    0.93971    1.000
    N67      N        0.82467    0.03300    0.90940    1.000
    C199     C        0.80030    0.07970    0.87750    1.000
    H133     H        0.80260    0.14250    0.87740    1.000
    C200     C        0.77220    0.03950    0.84490    1.000
    H134     H        0.75520    0.07410    0.82270    1.000
    C201     C        0.76889    0.94810    0.84470    1.000
    C202     C        0.79400    0.90020    0.87750    1.000
    H135     H        0.79250    0.83730    0.87810    1.000
    C203     C        0.82140    0.94510    0.90930    1.000
    H136     H        0.83860    0.91190    0.93200    1.000
    N68      N        0.62284    0.05330    0.63622    1.000
    C204     C        0.65001    0.09550    0.66700    1.000
    H137     H        0.65290    0.15780    0.66420    1.000
    C205     C        0.67395    0.05180    0.70270    1.000
    H138     H        0.69260    0.08360    0.72440    1.000
    C206     C        0.67017    0.96050    0.70610    1.000
    C207     C        0.64438    0.91650    0.67250    1.000
    H139     H        0.64230    0.85370    0.67280    1.000
    C208     C        0.62160    0.96580    0.63810    1.000
    H140     H        0.60410    0.93530    0.61460    1.000
    N69      N        0.68750    0.50070    0.77950    1.000
    C209     C        0.66940    0.55310    0.74620    1.000
    H141     H        0.65160    0.52740    0.72130    1.000
    C210     C        0.67530    0.64440    0.74650    1.000
    H142     H        0.66210    0.68010    0.72190    1.000
    C211     C        0.70028    0.68180    0.78250    1.000
    C212     C        0.71870    0.62840    0.81740    1.000
    H143     H        0.73630    0.65250    0.84290    1.000
    C213     C        0.71090    0.53800    0.81440    1.000
    H144     H        0.72320    0.50120    0.83900    1.000
    C214     C        0.73951    0.90230    0.80940    1.000
    N70      N        0.72021    0.95290    0.77497    1.000
    C215     C        0.69285    0.91000    0.74520    1.000
    N71      N        0.68418    0.82390    0.74803    1.000
    C216     C        0.70639    0.77980    0.78240    1.000
    N72      N        0.73409    0.81560    0.81437    1.000
    Zn24     Zn       0.18100    0.86560    0.78350    1.000
    I57      I        0.13880    0.83190    0.70520    1.000
    I58      I        0.24390    0.78570    0.81660    1.000
    I59      I        0.87630    0.23880    0.93680    1.000
    I60      I        0.84320    0.06480    0.03350    1.000
    Zn25     Zn       0.67011    0.63360    0.27123    1.000
    I61      I        0.62526    0.65297    0.19329    1.000
    I62      I        0.73068    0.72740    0.29892    1.000
    I63      I        0.38000    0.26014    0.42938    1.000
    I64      I        0.33982    0.44533    0.53305    1.000
    Zn26     Zn       0.36494    0.40690    0.46058    1.000
    Zn27     Zn       0.57985    0.12734    0.59274    1.000
    I65      I        0.61651    0.23846    0.55244    1.000
    I66      I        0.52683    0.15666    0.63944    1.000
    N73      N        0.63830    0.64840    0.32330    1.000
    C217     C        0.60550    0.60350    0.32100    1.000
    H145     H        0.59970    0.55820    0.29850    1.000
    C218     C        0.57910    0.61880    0.34950    1.000
    H146     H        0.55550    0.58490    0.34600    1.000
    C219     C        0.58660    0.68270    0.38310    1.000
    C220     C        0.62160    0.72900    0.38620    1.000
    H147     H        0.62820    0.77380    0.40890    1.000
    C221     C        0.64690    0.71020    0.35630    1.000
    H148     H        0.67110    0.74190    0.35910    1.000
    N74      N        0.41424    0.48690    0.45920    1.000
    C222     C        0.42760    0.49710    0.42000    1.000
    H149     H        0.41460    0.46570    0.39370    1.000
    C223     C        0.45870    0.54960    0.41550    1.000
    H150     H        0.46770    0.55310    0.38720    1.000
    C224     C        0.47685    0.59820    0.45340    1.000
    C225     C        0.46285    0.58970    0.49330    1.000
    H151     H        0.47440    0.62300    0.51960    1.000
    C226     C        0.43193    0.53270    0.49520    1.000
    H152     H        0.42300    0.52600    0.52350    1.000
    N75      N        0.55927    0.02680    0.54628    1.000
    C227     C        0.57874    0.01090    0.51240    1.000
    H153     H        0.59740    0.05350    0.50610    1.000
    C228     C        0.57314    0.93620    0.48620    1.000
    H154     H        0.58760    0.92750    0.46220    1.000
    C229     C        0.54602    0.87250    0.49484    1.000
    C230     C        0.52447    0.89100    0.52900    1.000
    H155     H        0.50490    0.85060    0.53510    1.000
    C231     C        0.53165    0.96810    0.55390    1.000
    H156     H        0.51670    0.98040    0.57710    1.000
    C232     C        0.56027    0.70010    0.41540    1.000
    N76      N        0.53147    0.64100    0.41842    1.000
    C233     C        0.50956    0.66020    0.44920    1.000
    N77      N        0.51288    0.73180    0.47634    1.000
    C234     C        0.54158    0.78800    0.46861    1.000
    N78      N        0.56590    0.77530    0.43971    1.000
    N79      N        0.32467    0.46700    0.40940    1.000
    C235     C        0.30030    0.42030    0.37750    1.000
    H157     H        0.30260    0.35750    0.37740    1.000
    C236     C        0.27220    0.46050    0.34490    1.000
    H158     H        0.25520    0.42590    0.32270    1.000
    C237     C        0.26889    0.55190    0.34470    1.000
    C238     C        0.29400    0.59980    0.37750    1.000
    H159     H        0.29250    0.66270    0.37810    1.000
    C239     C        0.32140    0.55490    0.40930    1.000
    H160     H        0.33860    0.58810    0.43200    1.000
    N80      N        0.12284    0.44670    0.13622    1.000
    C240     C        0.15001    0.40450    0.16700    1.000
    H161     H        0.15290    0.34220    0.16420    1.000
    C241     C        0.17395    0.44820    0.20270    1.000
    H162     H        0.19260    0.41640    0.22440    1.000
    C242     C        0.17017    0.53950    0.20610    1.000
    C243     C        0.14438    0.58350    0.17250    1.000
    H163     H        0.14230    0.64630    0.17280    1.000
    C244     C        0.12160    0.53420    0.13810    1.000
    H164     H        0.10410    0.56470    0.11460    1.000
    N81      N        0.18750    0.99930    0.27950    1.000
    C245     C        0.16940    0.94690    0.24620    1.000
    H165     H        0.15160    0.97260    0.22130    1.000
    C246     C        0.17530    0.85560    0.24650    1.000
    H166     H        0.16210    0.81990    0.22190    1.000
    C247     C        0.20028    0.81820    0.28250    1.000
    C248     C        0.21870    0.87160    0.31740    1.000
    H167     H        0.23630    0.84750    0.34290    1.000
    C249     C        0.21090    0.96200    0.31440    1.000
    H168     H        0.22320    0.99880    0.33900    1.000
    C250     C        0.23951    0.59770    0.30940    1.000
    N82      N        0.22021    0.54710    0.27497    1.000
    C251     C        0.19285    0.59000    0.24520    1.000
    N83      N        0.18418    0.67610    0.24803    1.000
    C252     C        0.20639    0.72020    0.28240    1.000
    N84      N        0.23409    0.68440    0.31437    1.000
    Zn28     Zn       0.68100    0.63440    0.28350    1.000
    I67      I        0.63880    0.66810    0.20520    1.000
    I68      I        0.74390    0.71430    0.31660    1.000
    I69      I        0.37630    0.26120    0.43680    1.000
    I70      I        0.34320    0.43520    0.53350    1.000
    Zn29     Zn       0.17011    0.13360    0.27123    1.000
    I71      I        0.12526    0.15297    0.19329    1.000
    I72      I        0.23068    0.22740    0.29892    1.000
    I73      I        0.88000    0.76014    0.42938    1.000
    I74      I        0.83982    0.94533    0.53305    1.000
    Zn30     Zn       0.86494    0.90690    0.46058    1.000
    Zn31     Zn       0.07985    0.62734    0.59274    1.000
    I75      I        0.11651    0.73846    0.55244    1.000
    I76      I        0.02683    0.65666    0.63944    1.000
    N85      N        0.13830    0.14840    0.32330    1.000
    C253     C        0.10550    0.10350    0.32100    1.000
    H169     H        0.09970    0.05820    0.29850    1.000
    C254     C        0.07910    0.11880    0.34950    1.000
    H170     H        0.05550    0.08490    0.34600    1.000
    C255     C        0.08660    0.18270    0.38310    1.000
    C256     C        0.12160    0.22900    0.38620    1.000
    H171     H        0.12820    0.27380    0.40890    1.000
    C257     C        0.14690    0.21020    0.35630    1.000
    H172     H        0.17110    0.24190    0.35910    1.000
    N86      N        0.91424    0.98690    0.45920    1.000
    C258     C        0.92760    0.99710    0.42000    1.000
    H173     H        0.91460    0.96570    0.39370    1.000
    C259     C        0.95870    0.04960    0.41550    1.000
    H174     H        0.96770    0.05310    0.38720    1.000
    C260     C        0.97685    0.09820    0.45340    1.000
    C261     C        0.96285    0.08970    0.49330    1.000
    H175     H        0.97440    0.12300    0.51960    1.000
    C262     C        0.93193    0.03270    0.49520    1.000
    H176     H        0.92300    0.02600    0.52350    1.000
    N87      N        0.05927    0.52680    0.54628    1.000
    C263     C        0.07874    0.51090    0.51240    1.000
    H177     H        0.09740    0.55350    0.50610    1.000
    C264     C        0.07314    0.43620    0.48620    1.000
    H178     H        0.08760    0.42750    0.46220    1.000
    C265     C        0.04602    0.37250    0.49484    1.000
    C266     C        0.02447    0.39100    0.52900    1.000
    H179     H        0.00490    0.35060    0.53510    1.000
    C267     C        0.03165    0.46810    0.55390    1.000
    H180     H        0.01670    0.48040    0.57710    1.000
    C268     C        0.06027    0.20010    0.41540    1.000
    N88      N        0.03147    0.14100    0.41842    1.000
    C269     C        0.00956    0.16020    0.44920    1.000
    N89      N        0.01288    0.23180    0.47634    1.000
    C270     C        0.04158    0.28800    0.46861    1.000
    N90      N        0.06590    0.27530    0.43971    1.000
    N91      N        0.82467    0.96700    0.40940    1.000
    C271     C        0.80030    0.92030    0.37750    1.000
    H181     H        0.80260    0.85750    0.37740    1.000
    C272     C        0.77220    0.96050    0.34490    1.000
    H182     H        0.75520    0.92590    0.32270    1.000
    C273     C        0.76889    0.05190    0.34470    1.000
    C274     C        0.79400    0.09980    0.37750    1.000
    H183     H        0.79250    0.16270    0.37810    1.000
    C275     C        0.82140    0.05490    0.40930    1.000
    H184     H        0.83860    0.08810    0.43200    1.000
    N92      N        0.62284    0.94670    0.13622    1.000
    C276     C        0.65001    0.90450    0.16700    1.000
    H185     H        0.65290    0.84220    0.16420    1.000
    C277     C        0.67395    0.94820    0.20270    1.000
    H186     H        0.69260    0.91640    0.22440    1.000
    C278     C        0.67017    0.03950    0.20610    1.000
    C279     C        0.64438    0.08350    0.17250    1.000
    H187     H        0.64230    0.14630    0.17280    1.000
    C280     C        0.62160    0.03420    0.13810    1.000
    H188     H        0.60410    0.06470    0.11460    1.000
    N93      N        0.68750    0.49930    0.27950    1.000
    C281     C        0.66940    0.44690    0.24620    1.000
    H189     H        0.65160    0.47260    0.22130    1.000
    C282     C        0.67530    0.35560    0.24650    1.000
    H190     H        0.66210    0.31990    0.22190    1.000
    C283     C        0.70028    0.31820    0.28250    1.000
    C284     C        0.71870    0.37160    0.31740    1.000
    H191     H        0.73630    0.34750    0.34290    1.000
    C285     C        0.71090    0.46200    0.31440    1.000
    H192     H        0.72320    0.49880    0.33900    1.000
    C286     C        0.73951    0.09770    0.30940    1.000
    N94      N        0.72021    0.04710    0.27497    1.000
    C287     C        0.69285    0.09000    0.24520    1.000
    N95      N        0.68418    0.17610    0.24803    1.000
    C288     C        0.70639    0.22020    0.28240    1.000
    N96      N        0.73409    0.18440    0.31437    1.000
    Zn32     Zn       0.18100    0.13440    0.28350    1.000
    I77      I        0.13880    0.16810    0.20520    1.000
    I78      I        0.24390    0.21430    0.31660    1.000
    I79      I        0.87630    0.76120    0.43680    1.000
    I80      I        0.84320    0.93520    0.53350    1.000
