# CIF file generated by openbabel 3.1.0, see https://openbabel.org
data_I
_chemical_name_common 'CAXSUR_clean5b'
_cell_length_a 19.0518
_cell_length_b 19.0518
_cell_length_c 19.0518
_cell_angle_alpha 75.0369
_cell_angle_beta 75.0369
_cell_angle_gamma 75.0369
_space_group_name_H-M_alt 'P 1'
_space_group_name_Hall 'P 1'
loop_
    _symmetry_equiv_pos_as_xyz
    x,y,z
loop_
    _atom_site_label
    _atom_site_type_symbol
    _atom_site_fract_x
    _atom_site_fract_y
    _atom_site_fract_z
    _atom_site_occupancy
    Al1      Al       0.23540    0.69610    0.53190    1.000
    Al2      Al       0.33730    0.78030    0.43010    1.000
    Al3      Al       0.53190    0.23540    0.69610    1.000
    Al4      Al       0.43010    0.33730    0.78030    1.000
    Al5      Al       0.69610    0.53190    0.23540    1.000
    Al6      Al       0.78030    0.43010    0.33730    1.000
    Al7      Al       0.76460    0.30390    0.46810    1.000
    Al8      Al       0.66270    0.21970    0.56990    1.000
    Al9      Al       0.46810    0.76460    0.30390    1.000
    Al10     Al       0.56990    0.66270    0.21970    1.000
    Al11     Al       0.30390    0.46810    0.76460    1.000
    Al12     Al       0.21970    0.56990    0.66270    1.000
    C13      C        0.13370    0.60070    0.55470    1.000
    C14      C        0.08020    0.57410    0.53010    1.000
    C15      C        0.05510    0.61600    0.46500    1.000
    C16      C        0.00900    0.58940    0.43570    1.000
    C17      C        0.98930    0.52170    0.47000    1.000
    C18      C        0.05830    0.50670    0.56600    1.000
    C19      C        0.99500    0.96100    0.52000    1.000
    C20      C        0.12300    0.91700    0.47200    1.000
    C21      C        0.13660    0.98260    0.43060    1.000
    C22      C        0.05320    0.90720    0.51920    1.000
    C23      C        0.07370    0.04770    0.43470    1.000
    C24      C        0.18700    0.85000    0.47200    1.000
    C25      C        0.31760    0.64860    0.40660    1.000
    C26      C        0.21720    0.72020    0.67420    1.000
    C27      C        0.29300    0.54660    0.52180    1.000
    C28      C        0.36650    0.70550    0.56450    1.000
    C29      C        0.55470    0.13370    0.60070    1.000
    C30      C        0.53010    0.08020    0.57410    1.000
    C31      C        0.46500    0.05510    0.61600    1.000
    C32      C        0.43570    0.00900    0.58940    1.000
    C33      C        0.47000    0.98930    0.52170    1.000
    C34      C        0.56600    0.05830    0.50670    1.000
    C35      C        0.52000    0.99500    0.96100    1.000
    C36      C        0.47200    0.12300    0.91700    1.000
    C37      C        0.43060    0.13660    0.98260    1.000
    C38      C        0.51920    0.05320    0.90720    1.000
    C39      C        0.43470    0.07370    0.04770    1.000
    C40      C        0.47200    0.18700    0.85000    1.000
    C41      C        0.40660    0.31760    0.64860    1.000
    C42      C        0.67420    0.21720    0.72020    1.000
    C43      C        0.52180    0.29300    0.54660    1.000
    C44      C        0.56450    0.36650    0.70550    1.000
    C45      C        0.60070    0.55470    0.13370    1.000
    C46      C        0.57410    0.53010    0.08020    1.000
    C47      C        0.61600    0.46500    0.05510    1.000
    C48      C        0.58940    0.43570    0.00900    1.000
    C49      C        0.52170    0.47000    0.98930    1.000
    C50      C        0.50670    0.56600    0.05830    1.000
    C51      C        0.96100    0.52000    0.99500    1.000
    C52      C        0.91700    0.47200    0.12300    1.000
    C53      C        0.98260    0.43060    0.13660    1.000
    C54      C        0.90720    0.51920    0.05320    1.000
    C55      C        0.04770    0.43470    0.07370    1.000
    C56      C        0.85000    0.47200    0.18700    1.000
    C57      C        0.64860    0.40660    0.31760    1.000
    C58      C        0.72020    0.67420    0.21720    1.000
    C59      C        0.54660    0.52180    0.29300    1.000
    C60      C        0.70550    0.56450    0.36650    1.000
    C61      C        0.86630    0.39930    0.44530    1.000
    C62      C        0.91980    0.42590    0.46990    1.000
    C63      C        0.94490    0.38400    0.53500    1.000
    C64      C        0.99100    0.41060    0.56430    1.000
    C65      C        0.01070    0.47830    0.53000    1.000
    C66      C        0.94170    0.49330    0.43400    1.000
    C67      C        0.00500    0.03900    0.48000    1.000
    C68      C        0.87700    0.08300    0.52800    1.000
    C69      C        0.86340    0.01740    0.56940    1.000
    C70      C        0.94680    0.09280    0.48080    1.000
    C71      C        0.92630    0.95230    0.56530    1.000
    C72      C        0.81300    0.15000    0.52800    1.000
    C73      C        0.68240    0.35140    0.59340    1.000
    C74      C        0.78280    0.27980    0.32580    1.000
    C75      C        0.70700    0.45340    0.47820    1.000
    C76      C        0.63350    0.29450    0.43550    1.000
    C77      C        0.44530    0.86630    0.39930    1.000
    C78      C        0.46990    0.91980    0.42590    1.000
    C79      C        0.53500    0.94490    0.38400    1.000
    C80      C        0.56430    0.99100    0.41060    1.000
    C81      C        0.53000    0.01070    0.47830    1.000
    C82      C        0.43400    0.94170    0.49330    1.000
    C83      C        0.48000    0.00500    0.03900    1.000
    C84      C        0.52800    0.87700    0.08300    1.000
    C85      C        0.56940    0.86340    0.01740    1.000
    C86      C        0.48080    0.94680    0.09280    1.000
    C87      C        0.56530    0.92630    0.95230    1.000
    C88      C        0.52800    0.81300    0.15000    1.000
    C89      C        0.59340    0.68240    0.35140    1.000
    C90      C        0.32580    0.78280    0.27980    1.000
    C91      C        0.47820    0.70700    0.45340    1.000
    C92      C        0.43550    0.63350    0.29450    1.000
    C93      C        0.39930    0.44530    0.86630    1.000
    C94      C        0.42590    0.46990    0.91980    1.000
    C95      C        0.38400    0.53500    0.94490    1.000
    C96      C        0.41060    0.56430    0.99100    1.000
    C97      C        0.47830    0.53000    0.01070    1.000
    C98      C        0.49330    0.43400    0.94170    1.000
    C99      C        0.03900    0.48000    0.00500    1.000
    C100     C        0.08300    0.52800    0.87700    1.000
    C101     C        0.01740    0.56940    0.86340    1.000
    C102     C        0.09280    0.48080    0.94680    1.000
    C103     C        0.95230    0.56530    0.92630    1.000
    C104     C        0.15000    0.52800    0.81300    1.000
    C105     C        0.35140    0.59340    0.68240    1.000
    C106     C        0.27980    0.32580    0.78280    1.000
    C107     C        0.45340    0.47820    0.70700    1.000
    C108     C        0.29450    0.43550    0.63350    1.000
    O109     O        0.16260    0.65400    0.51630    1.000
    O110     O        0.30830    0.75030    0.53530    1.000
    O111     O        0.17200    0.78850    0.51220    1.000
    O112     O        0.24950    0.85490    0.43640    1.000
    O113     O        0.27560    0.71360    0.42860    1.000
    O114     O        0.15020    0.55740    0.61360    1.000
    O115     O        0.29510    0.59450    0.56630    1.000
    O116     O        0.18870    0.68170    0.63770    1.000
    O117     O        0.51630    0.16260    0.65400    1.000
    O118     O        0.53530    0.30830    0.75030    1.000
    O119     O        0.51220    0.17200    0.78850    1.000
    O120     O        0.43640    0.24950    0.85490    1.000
    O121     O        0.42860    0.27560    0.71360    1.000
    O122     O        0.61360    0.15020    0.55740    1.000
    O123     O        0.56630    0.29510    0.59450    1.000
    O124     O        0.63770    0.18870    0.68170    1.000
    O125     O        0.65400    0.51630    0.16260    1.000
    O126     O        0.75030    0.53530    0.30830    1.000
    O127     O        0.78850    0.51220    0.17200    1.000
    O128     O        0.85490    0.43640    0.24950    1.000
    O129     O        0.71360    0.42860    0.27560    1.000
    O130     O        0.55740    0.61360    0.15020    1.000
    O131     O        0.59450    0.56630    0.29510    1.000
    O132     O        0.68170    0.63770    0.18870    1.000
    O133     O        0.83740    0.34600    0.48370    1.000
    O134     O        0.69170    0.24970    0.46470    1.000
    O135     O        0.82800    0.21150    0.48780    1.000
    O136     O        0.75050    0.14510    0.56360    1.000
    O137     O        0.72440    0.28640    0.57140    1.000
    O138     O        0.84980    0.44260    0.38640    1.000
    O139     O        0.70490    0.40550    0.43370    1.000
    O140     O        0.81130    0.31830    0.36230    1.000
    O141     O        0.48370    0.83740    0.34600    1.000
    O142     O        0.46470    0.69170    0.24970    1.000
    O143     O        0.48780    0.82800    0.21150    1.000
    O144     O        0.56360    0.75050    0.14510    1.000
    O145     O        0.57140    0.72440    0.28640    1.000
    O146     O        0.38640    0.84980    0.44260    1.000
    O147     O        0.43370    0.70490    0.40550    1.000
    O148     O        0.36230    0.81130    0.31830    1.000
    O149     O        0.34600    0.48370    0.83740    1.000
    O150     O        0.24970    0.46470    0.69170    1.000
    O151     O        0.21150    0.48780    0.82800    1.000
    O152     O        0.14510    0.56360    0.75050    1.000
    O153     O        0.28640    0.57140    0.72440    1.000
    O154     O        0.44260    0.38640    0.84980    1.000
    O155     O        0.40550    0.43370    0.70490    1.000
    O156     O        0.31830    0.36230    0.81130    1.000
    H157     H        0.07234    0.67119    0.43652    1.000
    H158     H        0.98787    0.62347    0.38382    1.000
    H159     H        0.07591    0.47481    0.62025    1.000
    H160     H        0.15637    0.97680    0.37018    1.000
    H161     H        0.18292    0.99727    0.44828    1.000
    H162     H        0.04745    0.85118    0.55744    1.000
    H163     H        0.06451    0.07318    0.37586    1.000
    H164     H        0.08953    0.09123    0.45563    1.000
    H165     H        0.31191    0.64969    0.34819    1.000
    H166     H        0.29695    0.59884    0.44664    1.000
    H167     H        0.25464    0.75597    0.63152    1.000
    H168     H        0.25066    0.67868    0.71448    1.000
    H169     H        0.32211    0.48782    0.54428    1.000
    H170     H        0.32240    0.56622    0.46231    1.000
    H171     H        0.41604    0.69333    0.51767    1.000
    H172     H        0.35016    0.65121    0.59827    1.000
    H173     H        0.43652    0.07234    0.67119    1.000
    H174     H        0.38382    0.98787    0.62347    1.000
    H175     H        0.62025    0.07591    0.47481    1.000
    H176     H        0.39472    0.19407    0.98631    1.000
    H177     H        0.55744    0.04745    0.85118    1.000
    H178     H        0.40071    0.08167    0.10488    1.000
    H179     H        0.38176    0.28293    0.62455    1.000
    H180     H        0.45677    0.33537    0.60665    1.000
    H181     H        0.71512    0.24992    0.67870    1.000
    H182     H        0.70545    0.16943    0.75780    1.000
    H183     H        0.51706    0.23324    0.55239    1.000
    H184     H        0.54823    0.31568    0.48682    1.000
    H185     H        0.56376    0.36856    0.64535    1.000
    H186     H        0.62413    0.35928    0.71141    1.000
    H187     H        0.67119    0.43652    0.07234    1.000
    H188     H        0.62347    0.38382    0.98787    1.000
    H189     H        0.47481    0.62025    0.07591    1.000
    H190     H        0.98631    0.39472    0.19407    1.000
    H191     H        0.85118    0.55744    0.04745    1.000
    H192     H        0.10488    0.40071    0.08167    1.000
    H193     H        0.66228    0.34631    0.34779    1.000
    H194     H        0.60927    0.41211    0.27952    1.000
    H195     H        0.75776    0.70549    0.16943    1.000
    H196     H        0.75533    0.63160    0.25529    1.000
    H197     H        0.56508    0.46274    0.32407    1.000
    H198     H        0.54852    0.52128    0.23283    1.000
    H199     H        0.68113    0.51892    0.41028    1.000
    H200     H        0.65861    0.60979    0.34625    1.000
    H201     H        0.92766    0.32881    0.56348    1.000
    H202     H        0.01213    0.37653    0.61618    1.000
    H203     H        0.92409    0.52519    0.37975    1.000
    H204     H        0.80593    0.01369    0.60528    1.000
    H205     H        0.95255    0.14882    0.44256    1.000
    H206     H        0.91833    0.89512    0.59929    1.000
    H207     H        0.63879    0.33717    0.64546    1.000
    H208     H        0.65375    0.38802    0.54702    1.000
    H209     H        0.82224    0.23983    0.29070    1.000
    H210     H        0.72027    0.28858    0.33133    1.000
    H211     H        0.73753    0.49883    0.44269    1.000
    H212     H        0.73724    0.42043    0.52466    1.000
    H213     H        0.58466    0.26523    0.45296    1.000
    H214     H        0.65054    0.30735    0.37236    1.000
    H215     H        0.56348    0.92766    0.32881    1.000
    H216     H        0.61618    0.01213    0.37653    1.000
    H217     H        0.37970    0.92519    0.52676    1.000
    H218     H        0.60528    0.80593    0.01369    1.000
    H219     H        0.44318    0.95083    0.14945    1.000
    H220     H        0.59936    0.91814    0.89519    1.000
    H221     H        0.65559    0.67721    0.34499    1.000
    H222     H        0.58059    0.62477    0.36289    1.000
    H223     H        0.35920    0.74330    0.24152    1.000
    H224     H        0.26283    0.79922    0.28689    1.000
    H225     H        0.52861    0.73081    0.41943    1.000
    H226     H        0.49744    0.64837    0.48500    1.000
    H227     H        0.47882    0.59378    0.32543    1.000
    H228     H        0.41845    0.60306    0.25937    1.000
    H229     H        0.32881    0.56348    0.92766    1.000
    H230     H        0.37653    0.61618    0.01213    1.000
    H231     H        0.52519    0.37975    0.92409    1.000
    H232     H        0.01369    0.60528    0.80593    1.000
    H233     H        0.14945    0.44318    0.95083    1.000
    H234     H        0.89512    0.59929    0.91833    1.000
    H235     H        0.34760    0.61094    0.62136    1.000
    H236     H        0.40062    0.54514    0.68963    1.000
    H237     H        0.29414    0.26348    0.80550    1.000
    H238     H        0.29657    0.33738    0.71964    1.000
    H239     H        0.48113    0.50166    0.64796    1.000
    H240     H        0.49770    0.44312    0.73920    1.000
    H241     H        0.27262    0.46448    0.58075    1.000
    H242     H        0.29514    0.37361    0.64478    1.000
    H243     H        0.37838    0.64397    0.40693    1.000
    H244     H        0.16939    0.75713    0.70617    1.000
    H245     H        0.23279    0.54705    0.52284    1.000
    H246     H        0.38205    0.73442    0.60203    1.000
    H247     H        0.36323    0.36894    0.66129    1.000
    H248     H        0.63160    0.25534    0.75529    1.000
    H249     H        0.46414    0.32838    0.56188    1.000
    H250     H        0.53007    0.42041    0.72220    1.000
    H251     H        0.62095    0.44334    0.35994    1.000
    H252     H        0.67870    0.71508    0.24997    1.000
    H253     H        0.48748    0.54541    0.32041    1.000
    H254     H        0.73924    0.58925    0.39173    1.000
    H255     H        0.72022    0.38230    0.60576    1.000
    H256     H        0.64792    0.47966    0.50322    1.000
    H257     H        0.61655    0.34844    0.45672    1.000
    H258     H        0.56206    0.71078    0.39962    1.000
    H259     H        0.44452    0.74351    0.49449    1.000
    H260     H        0.38477    0.65491    0.33622    1.000
    H261     H        0.35928    0.64216    0.70177    1.000
    H262     H        0.21751    0.34697    0.80018    1.000
    H263     H        0.42009    0.52579    0.73554    1.000
    H264     H        0.35326    0.44394    0.62623    1.000
