data_functionalizedCrystal
_audit_creation_method	'EQeq! by Chris Wilmer'
_symmetry_space_group_name_H-M	'P1'
_symmetry_Int_Tables_number	1
_symmetry_cell_setting	triclinic
loop_
_symmetry_equiv_pos_as_xyz
  x,y,z
_cell_length_a	5.9795
_cell_length_b	11.3592
_cell_length_c	17.0583
_cell_angle_alpha	90
_cell_angle_beta	90
_cell_angle_gamma	91.257
loop_
_atom_site_label
_atom_site_type_symbol
_atom_site_fract_x
_atom_site_fract_y
_atom_site_fract_z
_atom_site_charge
Mof_Sr	Sr	0.72232	0.90441	0.9981	1.446
Mof_Sr	Sr	0.77768	0.59559	0.4981	1.458
Mof_Sr	Sr	0.27768	0.09559	0.0019	1.446
Mof_Sr	Sr	0.22232	0.40441	0.5019	1.458
Mof_H 	H 	0.116	0.336	0.6865	0
Mof_H 	H 	0.156	0.2255	0.8125	0.004
Mof_H 	H 	0.384	0.164	0.1865	0.006
Mof_H 	H 	0.344	0.2745	0.3125	-0.002
Mof_H 	H 	0.884	0.664	0.3135	0
Mof_H 	H 	0.844	0.7745	0.1875	0.004
Mof_H 	H 	0.616	0.836	0.8135	0.006
Mof_H 	H 	0.656	0.7255	0.6875	-0.002
Mof_C 	C 	0.7836	0.1051	0.87895	0.412
Mof_C 	C 	0.8211	0.17947	0.80857	-0.145
Mof_C 	C 	0.0174	0.23223	0.78424	-0.014
Mof_C 	C 	0.9945	0.29282	0.71234	0.011
Mof_C 	C 	0.7813	0.28395	0.68302	-0.154
Mof_C 	C 	0.692	0.32906	0.60743	0.428
Mof_C 	C 	0.7164	0.3949	0.37895	0.416
Mof_C 	C 	0.6789	0.32053	0.30857	-0.155
Mof_C 	C 	0.4826	0.26777	0.28424	0.001
Mof_C 	C 	0.5055	0.20718	0.21234	-0.003
Mof_C 	C 	0.7187	0.21605	0.18302	-0.15
Mof_C 	C 	0.808	0.17094	0.10743	0.427
Mof_C 	C 	0.2164	0.8949	0.12105	0.412
Mof_C 	C 	0.1789	0.82053	0.19143	-0.145
Mof_C 	C 	0.9826	0.76777	0.21576	-0.014
Mof_C 	C 	0.0055	0.70718	0.28766	0.011
Mof_C 	C 	0.2187	0.71605	0.31698	-0.154
Mof_C 	C 	0.308	0.67094	0.39257	0.428
Mof_C 	C 	0.2836	0.6051	0.62105	0.416
Mof_C 	C 	0.3211	0.67947	0.69143	-0.155
Mof_C 	C 	0.5174	0.73223	0.71576	0.001
Mof_C 	C 	0.4945	0.79282	0.78766	-0.003
Mof_C 	C 	0.2813	0.78395	0.81698	-0.15
Mof_C 	C 	0.192	0.82906	0.89257	0.427
Mof_S 	S 	0.6075	0.20338	0.74379	0.042
Mof_S 	S 	0.8925	0.29662	0.24379	0.042
Mof_S 	S 	0.3925	0.79662	0.25621	0.042
Mof_S 	S 	0.1075	0.70338	0.75621	0.042
Mof_O 	O 	0.58663	0.0747	0.8965	-0.5
Mof_O 	O 	0.95366	0.07317	0.91648	-0.531
Mof_O 	O 	0.48731	0.31005	0.59437	-0.466
Mof_O 	O 	0.82865	0.38075	0.56214	-0.53
Mof_O 	O 	0.91337	0.4253	0.3965	-0.506
Mof_O 	O 	0.54634	0.42683	0.41648	-0.54
Mof_O 	O 	0.01269	0.18995	0.09437	-0.467
Mof_O 	O 	0.67135	0.11925	0.06214	-0.53
Mof_O 	O 	0.41337	0.9253	0.1035	-0.5
Mof_O 	O 	0.04634	0.92683	0.08352	-0.531
Mof_O 	O 	0.51269	0.68995	0.40563	-0.466
Mof_O 	O 	0.17135	0.61925	0.43786	-0.53
Mof_O 	O 	0.08663	0.5747	0.6035	-0.506
Mof_O 	O 	0.45366	0.57317	0.58352	-0.54
Mof_O 	O 	0.98731	0.81005	0.90563	-0.467
Mof_O 	O 	0.32865	0.88075	0.93786	-0.53
_end
