data_functionalizedCrystal
_audit_creation_method	'EQeq! by Chris Wilmer'
_symmetry_space_group_name_H-M	'P1'
_symmetry_Int_Tables_number	1
_symmetry_cell_setting	triclinic
loop_
_symmetry_equiv_pos_as_xyz
  x,y,z
_cell_length_a	9.356
_cell_length_b	9.796
_cell_length_c	11.415
_cell_angle_alpha	94.799
_cell_angle_beta	99.614
_cell_angle_gamma	111.738
loop_
_atom_site_label
_atom_site_type_symbol
_atom_site_fract_x
_atom_site_fract_y
_atom_site_fract_z
_atom_site_charge
Mof_Tm	Tm	0.72515	0.45516	0.01024	1.782
Mof_Tm	Tm	0.27485	0.54484	0.98976	1.782
Mof_H 	H 	0.0649	0.605	0.4207	-0.016
Mof_H 	H 	0.1482	0.7225	0.6188	0.15
Mof_H 	H 	0.82	0.896	0.5658	0.138
Mof_H 	H 	0.7286	0.7711	0.3745	-0.023
Mof_H 	H 	0.8007	0.705	0.7749	0.048
Mof_H 	H 	0.676	0.9944	0.961	0.029
Mof_H 	H 	0.0752	0.1425	0.8358	0.077
Mof_H 	H 	0.9351	0.395	0.5793	-0.015
Mof_H 	H 	0.8518	0.2775	0.3812	0.151
Mof_H 	H 	0.18	0.104	0.4342	0.139
Mof_H 	H 	0.2714	0.2289	0.6255	-0.022
Mof_H 	H 	0.1993	0.295	0.2251	0.049
Mof_H 	H 	0.324	0.0056	0.039	0.03
Mof_H 	H 	0.9248	0.8575	0.1642	0.077
Mof_C 	C 	0.8265	0.5892	0.2518	0.364
Mof_C 	C 	0.8839	0.6713	0.3737	-0.205
Mof_C 	C 	0.0133	0.6609	0.4501	0.153
Mof_C 	C 	0.065	0.7329	0.5686	-0.279
Mof_C 	C 	0.9924	0.8192	0.6107	0.286
Mof_C 	C 	0.8669	0.8353	0.5368	-0.294
Mof_C 	C 	0.814	0.7617	0.4225	0.173
Mof_C 	C 	0.949	0.9193	0.7928	0.142
Mof_C 	C 	0.82	0.8018	0.8078	-0.07
Mof_C 	C 	0.7182	0.8307	0.8736	-0.116
Mof_C 	C 	0.7474	0.9754	0.9214	0.05
Mof_C 	C 	0.8813	0.0912	0.911	-0.122
Mof_C 	C 	0.9851	0.0648	0.8447	-0.072
Mof_C 	C 	0.5816	0.7048	0.898	0.433
Mof_C 	C 	0.9173	0.2469	0.9673	0.47
Mof_C 	C 	0.1735	0.4108	0.7482	0.364
Mof_C 	C 	0.1161	0.3287	0.6263	-0.205
Mof_C 	C 	0.9867	0.3391	0.5499	0.153
Mof_C 	C 	0.935	0.2671	0.4314	-0.279
Mof_C 	C 	0.0076	0.1808	0.3893	0.286
Mof_C 	C 	0.1331	0.1647	0.4632	-0.294
Mof_C 	C 	0.186	0.2383	0.5775	0.173
Mof_C 	C 	0.051	0.0807	0.2072	0.142
Mof_C 	C 	0.18	0.1982	0.1922	-0.07
Mof_C 	C 	0.2818	0.1693	0.1264	-0.116
Mof_C 	C 	0.2526	0.0246	0.0786	0.05
Mof_C 	C 	0.1187	0.9088	0.089	-0.122
Mof_C 	C 	0.0149	0.9352	0.1553	-0.072
Mof_C 	C 	0.4184	0.2952	0.102	0.433
Mof_C 	C 	0.0827	0.7531	0.0327	0.47
Mof_O 	O 	0.8793	0.4962	0.2152	-0.392
Mof_O 	O 	0.721	0.6129	0.18	-0.415
Mof_O 	O 	0.6017	0.5897	0.9216	-0.545
Mof_O 	O 	0.4532	0.72	0.8966	-0.446
Mof_O 	O 	0.8073	0.2679	0.0061	-0.512
Mof_O 	O 	0.0495	0.3458	0.9714	-0.529
Mof_O 	O 	0.0543	0.8942	0.7285	-0.262
Mof_O 	O 	0.1207	0.5038	0.7848	-0.392
Mof_O 	O 	0.279	0.3871	0.82	-0.415
Mof_O 	O 	0.3983	0.4103	0.0784	-0.545
Mof_O 	O 	0.5468	0.28	0.1034	-0.446
Mof_O 	O 	0.1927	0.7321	0.9939	-0.512
Mof_O 	O 	0.9505	0.6542	0.0286	-0.529
Mof_O 	O 	0.9457	0.1058	0.2715	-0.262
_end
