data_functionalizedCrystal
_audit_creation_method	'EQeq! by Chris Wilmer'
_symmetry_space_group_name_H-M	'P1'
_symmetry_Int_Tables_number	1
_symmetry_cell_setting	triclinic
loop_
_symmetry_equiv_pos_as_xyz
  x,y,z
_cell_length_a	9.5364
_cell_length_b	21.8015
_cell_length_c	9.1118
_cell_angle_alpha	90
_cell_angle_beta	90
_cell_angle_gamma	90
loop_
_atom_site_label
_atom_site_type_symbol
_atom_site_fract_x
_atom_site_fract_y
_atom_site_fract_z
_atom_site_charge
Mof_Zn	Zn	0.5677	0.54838	0.78034	1.237
Mof_P 	P 	0.37981	0.66436	0.71081	0.475
Mof_H 	H 	0.2774	0.6273	0.7514	-0.07
Mof_P 	P 	0.29327	0.50047	0.94401	0.432
Mof_H 	H 	0.3099	0.5524	0.0165	-0.064
Mof_O 	O 	0.3466	0.68561	0.5563	-0.446
Mof_O 	O 	0.3873	0.71441	0.822	-0.458
Mof_O 	O 	0.5121	0.62592	0.7022	-0.431
Mof_O 	O 	0.4134	0.49568	0.8354	-0.454
Mof_O 	O 	0.1497	0.50284	0.8723	-0.415
Mof_O 	O 	0.2997	0.4485	0.0567	-0.424
Mof_Zn	Zn	0.9323	0.95162	0.78034	1.236
Mof_P 	P 	0.12019	0.83564	0.71081	0.473
Mof_H 	H 	0.2226	0.8727	0.7514	-0.07
Mof_P 	P 	0.20673	0.99953	0.94401	0.428
Mof_H 	H 	0.1901	0.9476	0.0165	-0.061
Mof_O 	O 	0.1534	0.81439	0.5563	-0.446
Mof_O 	O 	0.1127	0.78559	0.822	-0.459
Mof_O 	O 	0.9879	0.87408	0.7022	-0.429
Mof_O 	O 	0.0866	0.00432	0.8354	-0.453
Mof_O 	O 	0.3503	0.99716	0.8723	-0.415
Mof_O 	O 	0.2003	0.0515	0.0567	-0.423
Mof_Zn	Zn	0.4323	0.04838	0.71966	1.236
Mof_P 	P 	0.62019	0.16436	0.78919	0.474
Mof_H 	H 	0.7226	0.1273	0.7486	-0.069
Mof_P 	P 	0.70673	0.00047	0.55599	0.435
Mof_H 	H 	0.6901	0.0524	0.4835	-0.065
Mof_O 	O 	0.6534	0.18561	0.9437	-0.443
Mof_O 	O 	0.6127	0.21441	0.678	-0.457
Mof_O 	O 	0.4879	0.12592	0.7978	-0.43
Mof_O 	O 	0.5866	0.99568	0.6646	-0.455
Mof_O 	O 	0.8503	0.00284	0.6277	-0.414
Mof_O 	O 	0.7003	0.9485	0.4433	-0.425
Mof_Zn	Zn	0.0677	0.45162	0.71966	1.236
Mof_P 	P 	0.87981	0.33564	0.78919	0.475
Mof_H 	H 	0.7774	0.3727	0.7486	-0.069
Mof_P 	P 	0.79327	0.49953	0.55599	0.434
Mof_H 	H 	0.8099	0.4476	0.4835	-0.065
Mof_O 	O 	0.8466	0.31439	0.9437	-0.443
Mof_O 	O 	0.8873	0.28559	0.678	-0.457
Mof_O 	O 	0.0121	0.37408	0.7978	-0.432
Mof_O 	O 	0.9134	0.50432	0.6646	-0.454
Mof_O 	O 	0.6497	0.49716	0.6277	-0.415
Mof_O 	O 	0.7997	0.5515	0.4433	-0.425
Mof_Zn	Zn	0.4323	0.45162	0.21966	1.236
Mof_P 	P 	0.62019	0.33564	0.28919	0.474
Mof_H 	H 	0.7226	0.3727	0.2486	-0.07
Mof_P 	P 	0.70673	0.49953	0.05599	0.432
Mof_H 	H 	0.6901	0.4476	0.9835	-0.064
Mof_O 	O 	0.6534	0.31439	0.4437	-0.446
Mof_O 	O 	0.6127	0.28559	0.178	-0.458
Mof_O 	O 	0.4879	0.37408	0.2978	-0.431
Mof_O 	O 	0.5866	0.50432	0.1646	-0.454
Mof_O 	O 	0.8503	0.49716	0.1277	-0.415
Mof_O 	O 	0.7003	0.5515	0.9433	-0.424
Mof_Zn	Zn	0.0677	0.04838	0.21966	1.236
Mof_P 	P 	0.87981	0.16436	0.28919	0.473
Mof_H 	H 	0.7774	0.1273	0.2486	-0.07
Mof_P 	P 	0.79327	0.00047	0.05599	0.428
Mof_H 	H 	0.8099	0.0524	0.9835	-0.061
Mof_O 	O 	0.8466	0.18561	0.4437	-0.446
Mof_O 	O 	0.8873	0.21441	0.178	-0.459
Mof_O 	O 	0.0121	0.12592	0.2978	-0.429
Mof_O 	O 	0.9134	0.99568	0.1646	-0.453
Mof_O 	O 	0.6497	0.00284	0.1277	-0.415
Mof_O 	O 	0.7997	0.9485	0.9433	-0.423
Mof_Zn	Zn	0.5677	0.95162	0.28034	1.236
Mof_P 	P 	0.37981	0.83564	0.21081	0.474
Mof_H 	H 	0.2774	0.8727	0.2514	-0.069
Mof_P 	P 	0.29327	0.99953	0.44401	0.435
Mof_H 	H 	0.3099	0.9476	0.5165	-0.065
Mof_O 	O 	0.3466	0.81439	0.0563	-0.443
Mof_O 	O 	0.3873	0.78559	0.322	-0.457
Mof_O 	O 	0.5121	0.87408	0.2022	-0.43
Mof_O 	O 	0.4134	0.00432	0.3354	-0.455
Mof_O 	O 	0.1497	0.99716	0.3723	-0.414
Mof_O 	O 	0.2997	0.0515	0.5567	-0.425
Mof_Zn	Zn	0.9323	0.54838	0.28034	1.236
Mof_P 	P 	0.12019	0.66436	0.21081	0.475
Mof_H 	H 	0.2226	0.6273	0.2514	-0.069
Mof_P 	P 	0.20673	0.50047	0.44401	0.434
Mof_H 	H 	0.1901	0.5524	0.5165	-0.065
Mof_O 	O 	0.1534	0.68561	0.0563	-0.443
Mof_O 	O 	0.1127	0.71441	0.322	-0.457
Mof_O 	O 	0.9879	0.62592	0.2022	-0.432
Mof_O 	O 	0.0866	0.49568	0.3354	-0.454
Mof_O 	O 	0.3503	0.50284	0.3723	-0.415
Mof_O 	O 	0.2003	0.4485	0.5567	-0.425
Mof_Zn	Zn	0.25	0.75	0.45377	1.234
Mof_Zn	Zn	0.75	0.25	0.04623	1.232
Mof_Zn	Zn	0.75	0.25	0.54623	1.234
Mof_Zn	Zn	0.25	0.75	0.95377	1.232
_end
