# CIF file generated by openbabel 3.1.0, see https://openbabel.org
data_I
_chemical_name_common 'image0'
_cell_length_a 13.9444
_cell_length_b 18.1187
_cell_length_c 12.0758
_cell_angle_alpha 90
_cell_angle_beta 112.894
_cell_angle_gamma 90
_space_group_name_H-M_alt 'P 1'
_space_group_name_Hall 'P 1'
loop_
    _symmetry_equiv_pos_as_xyz
    x,y,z
loop_
    _atom_site_label
    _atom_site_type_symbol
    _atom_site_fract_x
    _atom_site_fract_y
    _atom_site_fract_z
    _atom_site_occupancy
    Mn1      Mn       0.41865    0.51944    0.17075    1.000
    O1       O        0.37305    0.58003    0.42353    1.000
    O2       O        0.33041    0.59542    0.22518    1.000
    O3       O        0.65771    0.92445    0.29888    1.000
    O4       O        0.60740    0.91190    0.09877    1.000
    O5       O        0.55330    0.51625    0.35394    1.000
    O6       O        0.56655    0.46024    0.19775    1.000
    C1       C        0.31791    0.60565    0.32196    1.000
    C2       C        0.22611    0.65361    0.31178    1.000
    C3       C        0.18474    0.65153    0.39991    1.000
    H1       H        0.21670    0.62290    0.46840    1.000
    C4       C        0.09587    0.69200    0.38622    1.000
    H2       H        0.06840    0.68930    0.44500    1.000
    C5       C        0.04736    0.73672    0.28522    1.000
    C6       C        0.09204    0.74094    0.19966    1.000
    H3       H        0.06290    0.77210    0.13380    1.000
    C7       C        0.17931    0.69923    0.21168    1.000
    H4       H        0.20670    0.70170    0.15280    1.000
    C8       C        0.66740    0.90005    0.20601    1.000
    C9       C        0.76239    0.85285    0.22736    1.000
    C10      C        0.84056    0.84766    0.34254    1.000
    H5       H        0.83130    0.87000    0.40690    1.000
    C11      C        0.93220    0.80936    0.36191    1.000
    H6       H        0.98300    0.80590    0.43930    1.000
    C12      C        0.94882    0.77598    0.26613    1.000
    C13      C        0.86903    0.78000    0.15127    1.000
    H7       H        0.87790    0.75730    0.08680    1.000
    C14      C        0.77669    0.81741    0.13229    1.000
    H8       H        0.72420    0.81880    0.05570    1.000
    C15      C        0.60770    0.48570    0.30210    1.000
    C16      C        0.72342    0.48583    0.36443    1.000
    C17      C        0.77098    0.52897    0.46650    1.000
    H9       H        0.73050    0.55420    0.49970    1.000
    C18      C        0.87875    0.53453    0.51910    1.000
    H10      H        0.90940    0.56420    0.58650    1.000
    C19      C        0.94229    0.49628    0.47256    1.000
    C20      C        0.89280    0.45071    0.37255    1.000
    H11      H        0.93310    0.42290    0.34210    1.000
    C21      C        0.78493    0.44611    0.31794    1.000
    H12      H        0.75380    0.41660    0.25040    1.000
    Mn2      Mn       0.58135    0.01944    0.32925    1.000
    O7       O        0.62695    0.08003    0.07647    1.000
    O8       O        0.66959    0.09542    0.27482    1.000
    O9       O        0.34229    0.42445    0.20112    1.000
    O10      O        0.39260    0.41190    0.40123    1.000
    O11      O        0.44670    0.01625    0.14606    1.000
    O12      O        0.43345    0.96024    0.30225    1.000
    C22      C        0.68209    0.10565    0.17804    1.000
    C23      C        0.77389    0.15361    0.18822    1.000
    C24      C        0.81526    0.15153    0.10009    1.000
    H13      H        0.78330    0.12290    0.03160    1.000
    C25      C        0.90413    0.19200    0.11378    1.000
    H14      H        0.93160    0.18930    0.05500    1.000
    C26      C        0.95264    0.23672    0.21478    1.000
    C27      C        0.90796    0.24094    0.30034    1.000
    H15      H        0.93710    0.27210    0.36620    1.000
    C28      C        0.82069    0.19923    0.28832    1.000
    H16      H        0.79330    0.20170    0.34720    1.000
    C29      C        0.33260    0.40005    0.29399    1.000
    C30      C        0.23761    0.35285    0.27264    1.000
    C31      C        0.15944    0.34766    0.15746    1.000
    H17      H        0.16870    0.37000    0.09310    1.000
    C32      C        0.06780    0.30936    0.13809    1.000
    H18      H        0.01700    0.30590    0.06070    1.000
    C33      C        0.05118    0.27598    0.23387    1.000
    C34      C        0.13097    0.28000    0.34873    1.000
    H19      H        0.12210    0.25730    0.41320    1.000
    C35      C        0.22331    0.31741    0.36771    1.000
    H20      H        0.27580    0.31880    0.44430    1.000
    C36      C        0.39230    0.98570    0.19790    1.000
    C37      C        0.27658    0.98583    0.13557    1.000
    C38      C        0.22902    0.02897    0.03350    1.000
    H21      H        0.26950    0.05420    0.00030    1.000
    C39      C        0.12125    0.03453    0.98090    1.000
    H22      H        0.09060    0.06420    0.91350    1.000
    C40      C        0.05771    0.99628    0.02744    1.000
    C41      C        0.10720    0.95071    0.12745    1.000
    H23      H        0.06690    0.92290    0.15790    1.000
    C42      C        0.21507    0.94611    0.18206    1.000
    H24      H        0.24620    0.91660    0.24960    1.000
    Mn3      Mn       0.58135    0.48056    0.82925    1.000
    O13      O        0.62695    0.41997    0.57647    1.000
    O14      O        0.66959    0.40458    0.77482    1.000
    O15      O        0.34229    0.07555    0.70112    1.000
    O16      O        0.39260    0.08810    0.90123    1.000
    O17      O        0.44670    0.48375    0.64606    1.000
    O18      O        0.43345    0.53976    0.80225    1.000
    C43      C        0.68209    0.39435    0.67804    1.000
    C44      C        0.77389    0.34639    0.68822    1.000
    C45      C        0.81526    0.34847    0.60009    1.000
    H25      H        0.78330    0.37710    0.53160    1.000
    C46      C        0.90413    0.30800    0.61378    1.000
    H26      H        0.93160    0.31070    0.55500    1.000
    C47      C        0.95264    0.26328    0.71478    1.000
    C48      C        0.90796    0.25906    0.80034    1.000
    H27      H        0.93710    0.22790    0.86620    1.000
    C49      C        0.82069    0.30077    0.78832    1.000
    H28      H        0.79330    0.29830    0.84720    1.000
    C50      C        0.33260    0.09995    0.79399    1.000
    C51      C        0.23761    0.14715    0.77264    1.000
    C52      C        0.15944    0.15234    0.65746    1.000
    H29      H        0.16870    0.13000    0.59310    1.000
    C53      C        0.06780    0.19064    0.63809    1.000
    H30      H        0.01700    0.19410    0.56070    1.000
    C54      C        0.05118    0.22402    0.73387    1.000
    C55      C        0.13097    0.22000    0.84873    1.000
    H31      H        0.12210    0.24270    0.91320    1.000
    C56      C        0.22331    0.18259    0.86771    1.000
    H32      H        0.27580    0.18120    0.94430    1.000
    C57      C        0.39230    0.51430    0.69790    1.000
    C58      C        0.27658    0.51417    0.63557    1.000
    C59      C        0.22902    0.47103    0.53350    1.000
    H33      H        0.26950    0.44580    0.50030    1.000
    C60      C        0.12125    0.46547    0.48090    1.000
    H34      H        0.09060    0.43580    0.41350    1.000
    C61      C        0.05771    0.50372    0.52744    1.000
    C62      C        0.10720    0.54929    0.62745    1.000
    H35      H        0.06690    0.57710    0.65790    1.000
    C63      C        0.21507    0.55389    0.68206    1.000
    H36      H        0.24620    0.58340    0.74960    1.000
    Mn4      Mn       0.41865    0.98056    0.67075    1.000
    O19      O        0.37305    0.91997    0.92353    1.000
    O20      O        0.33041    0.90458    0.72518    1.000
    O21      O        0.65771    0.57555    0.79888    1.000
    O22      O        0.60740    0.58810    0.59877    1.000
    O23      O        0.55330    0.98375    0.85394    1.000
    O24      O        0.56655    0.03976    0.69775    1.000
    C64      C        0.31791    0.89435    0.82196    1.000
    C65      C        0.22611    0.84639    0.81178    1.000
    C66      C        0.18474    0.84847    0.89991    1.000
    H37      H        0.21670    0.87710    0.96840    1.000
    C67      C        0.09587    0.80800    0.88622    1.000
    H38      H        0.06840    0.81070    0.94500    1.000
    C68      C        0.04736    0.76328    0.78522    1.000
    C69      C        0.09204    0.75906    0.69966    1.000
    H39      H        0.06290    0.72790    0.63380    1.000
    C70      C        0.17931    0.80077    0.71168    1.000
    H40      H        0.20670    0.79830    0.65280    1.000
    C71      C        0.66740    0.59995    0.70601    1.000
    C72      C        0.76239    0.64715    0.72736    1.000
    C73      C        0.84056    0.65234    0.84254    1.000
    H41      H        0.83130    0.63000    0.90690    1.000
    C74      C        0.93220    0.69064    0.86191    1.000
    H42      H        0.98300    0.69410    0.93930    1.000
    C75      C        0.94882    0.72402    0.76613    1.000
    C76      C        0.86903    0.72000    0.65127    1.000
    H43      H        0.87790    0.74270    0.58680    1.000
    C77      C        0.77669    0.68259    0.63229    1.000
    H44      H        0.72420    0.68120    0.55570    1.000
    C78      C        0.60770    0.01430    0.80210    1.000
    C79      C        0.72342    0.01417    0.86443    1.000
    C80      C        0.77098    0.97103    0.96650    1.000
    H45      H        0.73050    0.94580    0.99970    1.000
    C81      C        0.87875    0.96547    0.01910    1.000
    H46      H        0.90940    0.93580    0.08650    1.000
    C82      C        0.94229    0.00372    0.97256    1.000
    C83      C        0.89280    0.04929    0.87255    1.000
    H47      H        0.93310    0.07710    0.84210    1.000
    C84      C        0.78493    0.05389    0.81794    1.000
    H48      H        0.75380    0.08340    0.75040    1.000
    Mn5      Mn       0.50000    0.50000    0.50000    1.000
    Mn6      Mn       0.50000    0.00000    0.00000    1.000
