data_functionalizedCrystal
_audit_creation_method	'EQeq! by Chris Wilmer'
_symmetry_space_group_name_H-M	'P1'
_symmetry_Int_Tables_number	1
_symmetry_cell_setting	triclinic
loop_
_symmetry_equiv_pos_as_xyz
  x,y,z
_cell_length_a	14.868
_cell_length_b	22.523
_cell_length_c	25.174
_cell_angle_alpha	90
_cell_angle_beta	90
_cell_angle_gamma	98.458
loop_
_atom_site_label
_atom_site_type_symbol
_atom_site_fract_x
_atom_site_fract_y
_atom_site_fract_z
_atom_site_charge
Mof_Ce	Ce	0.3721	0.45896	0.52151	2.783
Mof_Ce	Ce	0.6279	0.04104	0.02151	2.768
Mof_Ce	Ce	0.6279	0.54104	0.47849	2.783
Mof_Ce	Ce	0.3721	0.95896	0.97849	2.768
Mof_H 	H 	0.5359	0.6765	0.4621	-0.1
Mof_H 	H 	0.2634	0.6396	0.4476	-0.091
Mof_H 	H 	0.3653	0.8728	0.4382	0.005
Mof_H 	H 	0.3733	0.9464	0.3656	-0.007
Mof_H 	H 	0.4227	0.7913	0.3067	-0.05
Mof_H 	H 	0.5701	0.9713	0.1891	-0.102
Mof_H 	H 	0.3096	0.9139	0.155	-0.121
Mof_H 	H 	0.5544	0.8239	0.4058	-0.243
Mof_H 	H 	0.636	0.7576	0.4824	0.44
Mof_H 	H 	0.5924	0.8156	0.4938	0.422
Mof_H 	H 	0.6822	0.8198	0.4605	0.401
Mof_H 	H 	0.6563	0.7308	0.3876	0.424
Mof_H 	H 	0.6698	0.7946	0.3612	0.393
Mof_H 	H 	0.5868	0.7468	0.345	0.411
Mof_H 	H 	0.2378	0.7774	0.3828	-0.242
Mof_H 	H 	0.2478	0.6894	0.3257	0.374
Mof_H 	H 	0.1566	0.7165	0.3233	0.362
Mof_H 	H 	0.1621	0.6584	0.3567	0.359
Mof_H 	H 	0.1267	0.6926	0.4417	0.425
Mof_H 	H 	0.1088	0.7569	0.4251	0.436
Mof_H 	H 	0.1811	0.7494	0.469	0.441
Mof_H 	H 	0.5605	0.9201	0.3233	-0.28
Mof_H 	H 	0.6724	0.9082	0.2362	0.458
Mof_H 	H 	0.6323	0.8576	0.276	0.452
Mof_H 	H 	0.7084	0.909	0.2947	0.431
Mof_H 	H 	0.6614	0.0048	0.3294	0.46
Mof_H 	H 	0.5724	0.024	0.3058	0.466
Mof_H 	H 	0.6551	0.0182	0.2685	0.474
Mof_H 	H 	0.2497	0.8527	0.2832	-0.319
Mof_H 	H 	0.1617	0.7892	0.2266	0.479
Mof_H 	H 	0.2641	0.7829	0.2173	0.498
Mof_H 	H 	0.2135	0.8198	0.1772	0.51
Mof_H 	H 	0.1831	0.9344	0.2682	0.459
Mof_H 	H 	0.1164	0.8813	0.2433	0.445
Mof_H 	H 	0.1813	0.9244	0.2065	0.462
Mof_H 	H 	0.9189	0.1238	0.935	-0.088
Mof_H 	H 	0.7575	0.2491	0.9483	-0.068
Mof_H 	H 	0.095	0.3515	0.9426	0.003
Mof_H 	H 	0.0179	0.2946	0.7979	-0.064
Mof_H 	H 	0.19	0.4111	0.8775	-0.014
Mof_H 	H 	0.1491	0.4694	0.6733	-0.091
Mof_H 	H 	0.3168	0.3472	0.693	-0.071
Mof_H 	H 	0.9197	0.3703	0.8969	-0.228
Mof_H 	H 	0.8034	0.4089	0.9457	0.376
Mof_H 	H 	0.8675	0.3765	0.9816	0.379
Mof_H 	H 	0.7706	0.3436	0.9664	0.375
Mof_H 	H 	0.8149	0.3178	0.8313	0.378
Mof_H 	H 	0.8107	0.3861	0.8414	0.374
Mof_H 	H 	0.7384	0.3371	0.8676	0.383
Mof_H 	H 	0.1113	0.2192	0.8801	-0.274
Mof_H 	H 	0.0601	0.1193	0.9471	0.44
Mof_H 	H 	0.1347	0.1745	0.9589	0.441
Mof_H 	H 	0.1531	0.1265	0.9167	0.451
Mof_H 	H 	0.0182	0.1075	0.8492	0.423
Mof_H 	H 	0.1114	0.1386	0.8263	0.424
Mof_H 	H 	0.0218	0.1651	0.8139	0.422
Mof_H 	H 	0.2362	0.2999	0.8226	-0.174
Mof_H 	H 	0.3955	0.339	0.7654	0.343
Mof_H 	H 	0.3948	0.2821	0.8014	0.356
Mof_H 	H 	0.3802	0.3436	0.8268	0.347
Mof_H 	H 	0.182	0.2305	0.7533	0.307
Mof_H 	H 	0.2652	0.2097	0.7824	0.311
Mof_H 	H 	0.2785	0.2412	0.7269	0.302
Mof_H 	H 	0.0335	0.4401	0.7979	-0.329
Mof_H 	H 	0.0335	0.537	0.7911	0.477
Mof_H 	H 	0.0703	0.5398	0.7326	0.469
Mof_H 	H 	0.1354	0.5306	0.78	0.479
Mof_H 	H 	0.9155	0.4532	0.7456	0.481
Mof_H 	H 	0.9541	0.3963	0.7248	0.49
Mof_H 	H 	0.9762	0.4575	0.6945	0.483
Mof_H 	H 	0.4641	0.8235	0.9621	-0.101
Mof_H 	H 	0.7366	0.8604	0.9476	-0.092
Mof_H 	H 	0.6347	0.6272	0.9382	0.005
Mof_H 	H 	0.6267	0.5536	0.8656	-0.007
Mof_H 	H 	0.5773	0.7087	0.8067	-0.05
Mof_H 	H 	0.4299	0.5287	0.6891	-0.102
Mof_H 	H 	0.6904	0.5861	0.655	-0.121
Mof_H 	H 	0.4456	0.6761	0.9058	-0.242
Mof_H 	H 	0.364	0.7424	0.9824	0.438
Mof_H 	H 	0.4076	0.6844	0.9938	0.419
Mof_H 	H 	0.3178	0.6802	0.9605	0.398
Mof_H 	H 	0.3437	0.7692	0.8876	0.423
Mof_H 	H 	0.3302	0.7054	0.8612	0.391
Mof_H 	H 	0.4132	0.7532	0.845	0.41
Mof_H 	H 	0.7622	0.7226	0.8828	-0.242
Mof_H 	H 	0.7522	0.8106	0.8257	0.375
Mof_H 	H 	0.8434	0.7835	0.8233	0.363
Mof_H 	H 	0.8379	0.8416	0.8567	0.36
Mof_H 	H 	0.8733	0.8074	0.9417	0.426
Mof_H 	H 	0.8912	0.7431	0.9251	0.437
Mof_H 	H 	0.8189	0.7506	0.969	0.442
Mof_H 	H 	0.4395	0.5799	0.8233	-0.278
Mof_H 	H 	0.3276	0.5918	0.7362	0.455
Mof_H 	H 	0.3677	0.6424	0.776	0.449
Mof_H 	H 	0.2916	0.591	0.7947	0.428
Mof_H 	H 	0.3386	0.4952	0.8294	0.457
Mof_H 	H 	0.4276	0.476	0.8058	0.463
Mof_H 	H 	0.3449	0.4818	0.7685	0.472
Mof_H 	H 	0.7503	0.6473	0.7832	-0.319
Mof_H 	H 	0.8383	0.7108	0.7266	0.479
Mof_H 	H 	0.7359	0.7171	0.7173	0.498
Mof_H 	H 	0.7865	0.6802	0.6772	0.51
Mof_H 	H 	0.8169	0.5656	0.7682	0.458
Mof_H 	H 	0.8836	0.6187	0.7433	0.445
Mof_H 	H 	0.8187	0.5756	0.7065	0.461
Mof_H 	H 	0.0811	0.3762	0.435	-0.089
Mof_H 	H 	0.2425	0.2509	0.4483	-0.069
Mof_H 	H 	0.905	0.1485	0.4426	0.003
Mof_H 	H 	0.9821	0.2054	0.2979	-0.064
Mof_H 	H 	0.81	0.0889	0.3775	-0.014
Mof_H 	H 	0.8509	0.0306	0.1733	-0.09
Mof_H 	H 	0.6832	0.1528	0.193	-0.07
Mof_H 	H 	0.0803	0.1297	0.3969	-0.228
Mof_H 	H 	0.1966	0.0911	0.4457	0.374
Mof_H 	H 	0.1325	0.1235	0.4816	0.377
Mof_H 	H 	0.2294	0.1564	0.4664	0.373
Mof_H 	H 	0.1851	0.1822	0.3313	0.377
Mof_H 	H 	0.1893	0.1139	0.3414	0.373
Mof_H 	H 	0.2616	0.1629	0.3676	0.382
Mof_H 	H 	0.8887	0.2808	0.3801	-0.273
Mof_H 	H 	0.9399	0.3807	0.4471	0.438
Mof_H 	H 	0.8653	0.3255	0.4589	0.439
Mof_H 	H 	0.8469	0.3735	0.4167	0.449
Mof_H 	H 	0.9818	0.3925	0.3492	0.421
Mof_H 	H 	0.8886	0.3614	0.3263	0.422
Mof_H 	H 	0.9782	0.3349	0.3139	0.42
Mof_H 	H 	0.7638	0.2001	0.3226	-0.173
Mof_H 	H 	0.6045	0.161	0.2654	0.342
Mof_H 	H 	0.6052	0.2179	0.3014	0.355
Mof_H 	H 	0.6198	0.1564	0.3268	0.346
Mof_H 	H 	0.818	0.2695	0.2533	0.306
Mof_H 	H 	0.7348	0.2903	0.2824	0.31
Mof_H 	H 	0.7215	0.2588	0.2269	0.302
Mof_H 	H 	0.9665	0.0599	0.2979	-0.323
Mof_H 	H 	0.9665	0.963	0.2911	0.47
Mof_H 	H 	0.9297	0.9602	0.2326	0.462
Mof_H 	H 	0.8646	0.9694	0.28	0.471
Mof_H 	H 	0.0845	0.0468	0.2456	0.473
Mof_H 	H 	0.0459	0.1037	0.2248	0.483
Mof_H 	H 	0.0238	0.0425	0.1945	0.475
Mof_H 	H 	0.4641	0.3235	0.5379	-0.101
Mof_H 	H 	0.7366	0.3604	0.5524	-0.092
Mof_H 	H 	0.6347	0.1272	0.5618	0.005
Mof_H 	H 	0.6267	0.0536	0.6344	-0.007
Mof_H 	H 	0.5773	0.2087	0.6933	-0.05
Mof_H 	H 	0.4299	0.0287	0.8109	-0.102
Mof_H 	H 	0.6904	0.0861	0.845	-0.121
Mof_H 	H 	0.4456	0.1761	0.5942	-0.243
Mof_H 	H 	0.364	0.2424	0.5176	0.44
Mof_H 	H 	0.4076	0.1844	0.5062	0.422
Mof_H 	H 	0.3178	0.1802	0.5395	0.401
Mof_H 	H 	0.3437	0.2692	0.6124	0.424
Mof_H 	H 	0.3302	0.2054	0.6388	0.393
Mof_H 	H 	0.4132	0.2532	0.655	0.411
Mof_H 	H 	0.7622	0.2226	0.6172	-0.242
Mof_H 	H 	0.7522	0.3106	0.6743	0.374
Mof_H 	H 	0.8434	0.2835	0.6767	0.362
Mof_H 	H 	0.8379	0.3416	0.6433	0.359
Mof_H 	H 	0.8733	0.3074	0.5583	0.425
Mof_H 	H 	0.8912	0.2431	0.5749	0.436
Mof_H 	H 	0.8189	0.2506	0.531	0.441
Mof_H 	H 	0.4395	0.0799	0.6767	-0.28
Mof_H 	H 	0.3276	0.0918	0.7638	0.458
Mof_H 	H 	0.3677	0.1424	0.724	0.452
Mof_H 	H 	0.2916	0.091	0.7053	0.431
Mof_H 	H 	0.3386	0.9952	0.6706	0.46
Mof_H 	H 	0.4276	0.976	0.6942	0.466
Mof_H 	H 	0.3449	0.9818	0.7315	0.474
Mof_H 	H 	0.7503	0.1473	0.7168	-0.319
Mof_H 	H 	0.8383	0.2108	0.7734	0.479
Mof_H 	H 	0.7359	0.2171	0.7827	0.498
Mof_H 	H 	0.7865	0.1802	0.8228	0.51
Mof_H 	H 	0.8169	0.0656	0.7318	0.459
Mof_H 	H 	0.8836	0.1187	0.7567	0.445
Mof_H 	H 	0.8187	0.0756	0.7935	0.462
Mof_H 	H 	0.0811	0.8762	0.065	-0.088
Mof_H 	H 	0.2425	0.7509	0.0517	-0.068
Mof_H 	H 	0.905	0.6485	0.0574	0.003
Mof_H 	H 	0.9821	0.7054	0.2021	-0.064
Mof_H 	H 	0.81	0.5889	0.1225	-0.014
Mof_H 	H 	0.8509	0.5306	0.3267	-0.091
Mof_H 	H 	0.6832	0.6528	0.307	-0.071
Mof_H 	H 	0.0803	0.6297	0.1031	-0.228
Mof_H 	H 	0.1966	0.5911	0.0543	0.376
Mof_H 	H 	0.1325	0.6235	0.0184	0.379
Mof_H 	H 	0.2294	0.6564	0.0336	0.375
Mof_H 	H 	0.1851	0.6822	0.1687	0.378
Mof_H 	H 	0.1893	0.6139	0.1586	0.374
Mof_H 	H 	0.2616	0.6629	0.1324	0.383
Mof_H 	H 	0.8887	0.7808	0.1199	-0.274
Mof_H 	H 	0.9399	0.8807	0.0529	0.44
Mof_H 	H 	0.8653	0.8255	0.0411	0.441
Mof_H 	H 	0.8469	0.8735	0.0833	0.451
Mof_H 	H 	0.9818	0.8925	0.1508	0.423
Mof_H 	H 	0.8886	0.8614	0.1737	0.424
Mof_H 	H 	0.9782	0.8349	0.1861	0.422
Mof_H 	H 	0.7638	0.7001	0.1774	-0.174
Mof_H 	H 	0.6045	0.661	0.2346	0.343
Mof_H 	H 	0.6052	0.7179	0.1986	0.356
Mof_H 	H 	0.6198	0.6564	0.1732	0.347
Mof_H 	H 	0.818	0.7695	0.2467	0.307
Mof_H 	H 	0.7348	0.7903	0.2176	0.311
Mof_H 	H 	0.7215	0.7588	0.2731	0.302
Mof_H 	H 	0.9665	0.5599	0.2021	-0.329
Mof_H 	H 	0.9665	0.463	0.2089	0.477
Mof_H 	H 	0.9297	0.4602	0.2674	0.469
Mof_H 	H 	0.8646	0.4694	0.22	0.479
Mof_H 	H 	0.0845	0.5468	0.2544	0.481
Mof_H 	H 	0.0459	0.6037	0.2752	0.49
Mof_H 	H 	0.0238	0.5425	0.3055	0.483
Mof_H 	H 	0.5359	0.1765	0.0379	-0.101
Mof_H 	H 	0.2634	0.1396	0.0524	-0.092
Mof_H 	H 	0.3653	0.3728	0.0618	0.005
Mof_H 	H 	0.3733	0.4464	0.1344	-0.007
Mof_H 	H 	0.4227	0.2913	0.1933	-0.05
Mof_H 	H 	0.5701	0.4713	0.3109	-0.102
Mof_H 	H 	0.3096	0.4139	0.345	-0.121
Mof_H 	H 	0.5544	0.3239	0.0942	-0.242
Mof_H 	H 	0.636	0.2576	0.0176	0.438
Mof_H 	H 	0.5924	0.3156	0.0062	0.419
Mof_H 	H 	0.6822	0.3198	0.0395	0.398
Mof_H 	H 	0.6563	0.2308	0.1124	0.423
Mof_H 	H 	0.6698	0.2946	0.1388	0.391
Mof_H 	H 	0.5868	0.2468	0.155	0.41
Mof_H 	H 	0.2378	0.2774	0.1172	-0.242
Mof_H 	H 	0.2478	0.1894	0.1743	0.375
Mof_H 	H 	0.1566	0.2165	0.1767	0.363
Mof_H 	H 	0.1621	0.1584	0.1433	0.36
Mof_H 	H 	0.1267	0.1926	0.0583	0.426
Mof_H 	H 	0.1088	0.2569	0.0749	0.437
Mof_H 	H 	0.1811	0.2494	0.031	0.442
Mof_H 	H 	0.5605	0.4201	0.1767	-0.278
Mof_H 	H 	0.6724	0.4082	0.2638	0.455
Mof_H 	H 	0.6323	0.3576	0.224	0.449
Mof_H 	H 	0.7084	0.409	0.2053	0.428
Mof_H 	H 	0.6614	0.5048	0.1706	0.457
Mof_H 	H 	0.5724	0.524	0.1942	0.463
Mof_H 	H 	0.6551	0.5182	0.2315	0.472
Mof_H 	H 	0.2497	0.3527	0.2168	-0.319
Mof_H 	H 	0.1617	0.2892	0.2734	0.479
Mof_H 	H 	0.2641	0.2829	0.2827	0.498
Mof_H 	H 	0.2135	0.3198	0.3228	0.51
Mof_H 	H 	0.1831	0.4344	0.2318	0.458
Mof_H 	H 	0.1164	0.3813	0.2567	0.445
Mof_H 	H 	0.1813	0.4244	0.2935	0.461
Mof_H 	H 	0.9189	0.6238	0.565	-0.089
Mof_H 	H 	0.7575	0.7491	0.5517	-0.069
Mof_H 	H 	0.095	0.8515	0.5574	0.003
Mof_H 	H 	0.0179	0.7946	0.7021	-0.064
Mof_H 	H 	0.19	0.9111	0.6225	-0.014
Mof_H 	H 	0.1491	0.9694	0.8267	-0.09
Mof_H 	H 	0.3168	0.8472	0.807	-0.07
Mof_H 	H 	0.9197	0.8703	0.6031	-0.228
Mof_H 	H 	0.8034	0.9089	0.5543	0.374
Mof_H 	H 	0.8675	0.8765	0.5184	0.377
Mof_H 	H 	0.7706	0.8436	0.5336	0.373
Mof_H 	H 	0.8149	0.8178	0.6687	0.377
Mof_H 	H 	0.8107	0.8861	0.6586	0.373
Mof_H 	H 	0.7384	0.8371	0.6324	0.382
Mof_H 	H 	0.1113	0.7192	0.6199	-0.273
Mof_H 	H 	0.0601	0.6193	0.5529	0.438
Mof_H 	H 	0.1347	0.6745	0.5411	0.439
Mof_H 	H 	0.1531	0.6265	0.5833	0.449
Mof_H 	H 	0.0182	0.6075	0.6508	0.421
Mof_H 	H 	0.1114	0.6386	0.6737	0.422
Mof_H 	H 	0.0218	0.6651	0.6861	0.42
Mof_H 	H 	0.2362	0.7999	0.6774	-0.173
Mof_H 	H 	0.3955	0.839	0.7346	0.342
Mof_H 	H 	0.3948	0.7821	0.6986	0.355
Mof_H 	H 	0.3802	0.8436	0.6732	0.346
Mof_H 	H 	0.182	0.7305	0.7467	0.306
Mof_H 	H 	0.2652	0.7097	0.7176	0.31
Mof_H 	H 	0.2785	0.7412	0.7731	0.302
Mof_H 	H 	0.0335	0.9401	0.7021	-0.323
Mof_H 	H 	0.0335	0.037	0.7089	0.47
Mof_H 	H 	0.0703	0.0398	0.7674	0.462
Mof_H 	H 	0.1354	0.0306	0.72	0.471
Mof_H 	H 	0.9155	0.9532	0.7544	0.473
Mof_H 	H 	0.9541	0.8963	0.7752	0.483
Mof_H 	H 	0.9762	0.9575	0.8055	0.475
Mof_C 	C 	0.401	0.5871	0.4832	0.547
Mof_C 	C 	0.3993	0.6485	0.4584	-0.337
Mof_C 	C 	0.4811	0.6876	0.451	0.298
Mof_C 	C 	0.4796	0.7437	0.4264	-0.456
Mof_C 	C 	0.3948	0.7569	0.4099	0.344
Mof_C 	C 	0.3141	0.7193	0.4158	-0.48
Mof_C 	C 	0.3173	0.6653	0.4415	0.301
Mof_C 	C 	0.3776	0.8658	0.4028	0.017
Mof_C 	C 	0.3821	0.9065	0.3628	0.021
Mof_C 	C 	0.4093	0.8205	0.3304	0.142
Mof_C 	C 	0.4162	0.9018	0.2642	0.391
Mof_C 	C 	0.5034	0.9305	0.2515	-0.536
Mof_C 	C 	0.5135	0.9516	0.1998	0.356
Mof_C 	C 	0.443	0.9447	0.1633	-0.384
Mof_C 	C 	0.3574	0.9172	0.1791	0.375
Mof_C 	C 	0.3414	0.8947	0.2298	-0.573
Mof_C 	C 	0.4597	0.9675	0.1064	0.58
Mof_C 	C 	0.5693	0.7849	0.4173	0.888
Mof_C 	C 	0.6252	0.7954	0.4682	-1.366
Mof_C 	C 	0.6257	0.7622	0.3738	-1.358
Mof_C 	C 	0.2252	0.7357	0.3951	0.892
Mof_C 	C 	0.195	0.6962	0.3454	-1.248
Mof_C 	C 	0.1543	0.7335	0.4363	-1.447
Mof_C 	C 	0.5841	0.9365	0.2891	1.021
Mof_C 	C 	0.6558	0.8995	0.2725	-1.51
Mof_C 	C 	0.6217	0.0019	0.2991	-1.528
Mof_C 	C 	0.2473	0.8646	0.2458	1.12
Mof_C 	C 	0.2191	0.8092	0.2139	-1.646
Mof_C 	C 	0.1756	0.9048	0.2405	-1.566
Mof_C 	C 	0.7585	0.1354	0.9735	0.391
Mof_C 	C 	0.8289	0.1793	0.9469	-0.287
Mof_C 	C 	0.9101	0.1635	0.9303	0.269
Mof_C 	C 	0.9801	0.2025	0.9069	-0.486
Mof_C 	C 	0.9595	0.2615	0.8998	0.309
Mof_C 	C 	0.8802	0.2814	0.914	-0.423
Mof_C 	C 	0.8129	0.238	0.9382	0.218
Mof_C 	C 	0.0916	0.3474	0.9059	0.004
Mof_C 	C 	0.0488	0.3157	0.8257	0.133
Mof_C 	C 	0.1435	0.3799	0.8699	0.032
Mof_C 	C 	0.161	0.3791	0.7719	0.319
Mof_C 	C 	0.1266	0.4249	0.7429	-0.534
Mof_C 	C 	0.1687	0.4394	0.6938	0.264
Mof_C 	C 	0.2396	0.4102	0.6745	-0.273
Mof_C 	C 	0.2698	0.3665	0.7055	0.215
Mof_C 	C 	0.2319	0.3507	0.7549	-0.396
Mof_C 	C 	0.2798	0.4256	0.6201	0.376
Mof_C 	C 	0.8616	0.3454	0.9048	0.826
Mof_C 	C 	0.8221	0.371	0.9542	-1.27
Mof_C 	C 	0.8009	0.3467	0.8569	-1.277
Mof_C 	C 	0.0678	0.1833	0.8883	0.987
Mof_C 	C 	0.1076	0.1476	0.9318	-1.442
Mof_C 	C 	0.0535	0.1453	0.8402	-1.47
Mof_C 	C 	0.2664	0.3023	0.7879	0.675
Mof_C 	C 	0.3687	0.3182	0.7961	-1.134
Mof_C 	C 	0.2461	0.2399	0.7599	-1.048
Mof_C 	C 	0.0489	0.4554	0.7621	1.151
Mof_C 	C 	0.0743	0.5216	0.7669	-1.646
Mof_C 	C 	0.9664	0.4392	0.7288	-1.66
Mof_C 	C 	0.599	0.9129	0.9832	0.546
Mof_C 	C 	0.6007	0.8515	0.9584	-0.337
Mof_C 	C 	0.5189	0.8124	0.951	0.297
Mof_C 	C 	0.5204	0.7563	0.9264	-0.455
Mof_C 	C 	0.6052	0.7431	0.9099	0.343
Mof_C 	C 	0.6859	0.7807	0.9158	-0.48
Mof_C 	C 	0.6827	0.8347	0.9415	0.301
Mof_C 	C 	0.6224	0.6342	0.9028	0.017
Mof_C 	C 	0.6179	0.5935	0.8628	0.021
Mof_C 	C 	0.5907	0.6795	0.8304	0.142
Mof_C 	C 	0.5838	0.5982	0.7642	0.389
Mof_C 	C 	0.4966	0.5695	0.7515	-0.534
Mof_C 	C 	0.4865	0.5484	0.6998	0.355
Mof_C 	C 	0.557	0.5553	0.6633	-0.384
Mof_C 	C 	0.6426	0.5828	0.6791	0.375
Mof_C 	C 	0.6586	0.6053	0.7298	-0.572
Mof_C 	C 	0.5403	0.5325	0.6064	0.581
Mof_C 	C 	0.4307	0.7151	0.9173	0.884
Mof_C 	C 	0.3748	0.7046	0.9682	-1.361
Mof_C 	C 	0.3743	0.7378	0.8738	-1.354
Mof_C 	C 	0.7748	0.7643	0.8951	0.894
Mof_C 	C 	0.805	0.8038	0.8454	-1.249
Mof_C 	C 	0.8457	0.7665	0.9363	-1.449
Mof_C 	C 	0.4159	0.5635	0.7891	1.013
Mof_C 	C 	0.3442	0.6005	0.7725	-1.501
Mof_C 	C 	0.3783	0.4981	0.7991	-1.518
Mof_C 	C 	0.7527	0.6354	0.7458	1.119
Mof_C 	C 	0.7809	0.6908	0.7139	-1.645
Mof_C 	C 	0.8244	0.5952	0.7405	-1.565
Mof_C 	C 	0.2415	0.3646	0.4735	0.391
Mof_C 	C 	0.1711	0.3207	0.4469	-0.288
Mof_C 	C 	0.0899	0.3365	0.4303	0.269
Mof_C 	C 	0.0199	0.2975	0.4069	-0.485
Mof_C 	C 	0.0405	0.2385	0.3998	0.308
Mof_C 	C 	0.1198	0.2186	0.414	-0.423
Mof_C 	C 	0.1871	0.262	0.4382	0.218
Mof_C 	C 	0.9084	0.1526	0.4059	0.004
Mof_C 	C 	0.9512	0.1843	0.3257	0.133
Mof_C 	C 	0.8565	0.1201	0.3699	0.031
Mof_C 	C 	0.839	0.1209	0.2719	0.316
Mof_C 	C 	0.8734	0.0751	0.2429	-0.526
Mof_C 	C 	0.8313	0.0606	0.1938	0.259
Mof_C 	C 	0.7604	0.0898	0.1745	-0.272
Mof_C 	C 	0.7302	0.1335	0.2055	0.213
Mof_C 	C 	0.7681	0.1493	0.2549	-0.393
Mof_C 	C 	0.7202	0.0744	0.1201	0.375
Mof_C 	C 	0.1384	0.1546	0.4048	0.824
Mof_C 	C 	0.1779	0.129	0.4542	-1.266
Mof_C 	C 	0.1991	0.1533	0.3569	-1.275
Mof_C 	C 	0.9322	0.3167	0.3883	0.984
Mof_C 	C 	0.8924	0.3524	0.4318	-1.438
Mof_C 	C 	0.9465	0.3547	0.3402	-1.465
Mof_C 	C 	0.7336	0.1977	0.2879	0.673
Mof_C 	C 	0.6313	0.1818	0.2961	-1.131
Mof_C 	C 	0.7539	0.2601	0.2599	-1.046
Mof_C 	C 	0.9511	0.0446	0.2621	1.127
Mof_C 	C 	0.9257	0.9784	0.2669	-1.617
Mof_C 	C 	0.0336	0.0608	0.2288	-1.633
Mof_C 	C 	0.599	0.4129	0.5168	0.547
Mof_C 	C 	0.6007	0.3515	0.5416	-0.337
Mof_C 	C 	0.5189	0.3124	0.549	0.298
Mof_C 	C 	0.5204	0.2563	0.5736	-0.456
Mof_C 	C 	0.6052	0.2431	0.5901	0.344
Mof_C 	C 	0.6859	0.2807	0.5842	-0.48
Mof_C 	C 	0.6827	0.3347	0.5585	0.301
Mof_C 	C 	0.6224	0.1342	0.5972	0.017
Mof_C 	C 	0.6179	0.0935	0.6372	0.021
Mof_C 	C 	0.5907	0.1795	0.6696	0.142
Mof_C 	C 	0.5838	0.0982	0.7358	0.391
Mof_C 	C 	0.4966	0.0695	0.7485	-0.536
Mof_C 	C 	0.4865	0.0484	0.8002	0.356
Mof_C 	C 	0.557	0.0553	0.8367	-0.384
Mof_C 	C 	0.6426	0.0828	0.8209	0.375
Mof_C 	C 	0.6586	0.1053	0.7702	-0.573
Mof_C 	C 	0.5403	0.0325	0.8936	0.58
Mof_C 	C 	0.4307	0.2151	0.5827	0.888
Mof_C 	C 	0.3748	0.2046	0.5318	-1.366
Mof_C 	C 	0.3743	0.2378	0.6262	-1.358
Mof_C 	C 	0.7748	0.2643	0.6049	0.892
Mof_C 	C 	0.805	0.3038	0.6546	-1.248
Mof_C 	C 	0.8457	0.2665	0.5637	-1.447
Mof_C 	C 	0.4159	0.0635	0.7109	1.021
Mof_C 	C 	0.3442	0.1005	0.7275	-1.51
Mof_C 	C 	0.3783	0.9981	0.7009	-1.528
Mof_C 	C 	0.7527	0.1354	0.7542	1.12
Mof_C 	C 	0.7809	0.1908	0.7861	-1.646
Mof_C 	C 	0.8244	0.0952	0.7595	-1.566
Mof_C 	C 	0.2415	0.8646	0.0265	0.391
Mof_C 	C 	0.1711	0.8207	0.0531	-0.287
Mof_C 	C 	0.0899	0.8365	0.0697	0.269
Mof_C 	C 	0.0199	0.7975	0.0931	-0.486
Mof_C 	C 	0.0405	0.7385	0.1002	0.309
Mof_C 	C 	0.1198	0.7186	0.086	-0.423
Mof_C 	C 	0.1871	0.762	0.0618	0.218
Mof_C 	C 	0.9084	0.6526	0.0941	0.004
Mof_C 	C 	0.9512	0.6843	0.1743	0.133
Mof_C 	C 	0.8565	0.6201	0.1301	0.032
Mof_C 	C 	0.839	0.6209	0.2281	0.319
Mof_C 	C 	0.8734	0.5751	0.2571	-0.534
Mof_C 	C 	0.8313	0.5606	0.3062	0.264
Mof_C 	C 	0.7604	0.5898	0.3255	-0.273
Mof_C 	C 	0.7302	0.6335	0.2945	0.215
Mof_C 	C 	0.7681	0.6493	0.2451	-0.396
Mof_C 	C 	0.7202	0.5744	0.3799	0.376
Mof_C 	C 	0.1384	0.6546	0.0952	0.826
Mof_C 	C 	0.1779	0.629	0.0458	-1.27
Mof_C 	C 	0.1991	0.6533	0.1431	-1.277
Mof_C 	C 	0.9322	0.8167	0.1117	0.987
Mof_C 	C 	0.8924	0.8524	0.0682	-1.442
Mof_C 	C 	0.9465	0.8547	0.1598	-1.47
Mof_C 	C 	0.7336	0.6977	0.2121	0.675
Mof_C 	C 	0.6313	0.6818	0.2039	-1.134
Mof_C 	C 	0.7539	0.7601	0.2401	-1.048
Mof_C 	C 	0.9511	0.5446	0.2379	1.151
Mof_C 	C 	0.9257	0.4784	0.2331	-1.646
Mof_C 	C 	0.0336	0.5608	0.2712	-1.66
Mof_C 	C 	0.401	0.0871	0.0168	0.546
Mof_C 	C 	0.3993	0.1485	0.0416	-0.337
Mof_C 	C 	0.4811	0.1876	0.049	0.297
Mof_C 	C 	0.4796	0.2437	0.0736	-0.455
Mof_C 	C 	0.3948	0.2569	0.0901	0.343
Mof_C 	C 	0.3141	0.2193	0.0842	-0.48
Mof_C 	C 	0.3173	0.1653	0.0585	0.301
Mof_C 	C 	0.3776	0.3658	0.0972	0.017
Mof_C 	C 	0.3821	0.4065	0.1372	0.021
Mof_C 	C 	0.4093	0.3205	0.1696	0.142
Mof_C 	C 	0.4162	0.4018	0.2358	0.389
Mof_C 	C 	0.5034	0.4305	0.2485	-0.534
Mof_C 	C 	0.5135	0.4516	0.3002	0.355
Mof_C 	C 	0.443	0.4447	0.3367	-0.384
Mof_C 	C 	0.3574	0.4172	0.3209	0.375
Mof_C 	C 	0.3414	0.3947	0.2702	-0.572
Mof_C 	C 	0.4597	0.4675	0.3936	0.581
Mof_C 	C 	0.5693	0.2849	0.0827	0.884
Mof_C 	C 	0.6252	0.2954	0.0318	-1.361
Mof_C 	C 	0.6257	0.2622	0.1262	-1.354
Mof_C 	C 	0.2252	0.2357	0.1049	0.894
Mof_C 	C 	0.195	0.1962	0.1546	-1.249
Mof_C 	C 	0.1543	0.2335	0.0637	-1.449
Mof_C 	C 	0.5841	0.4365	0.2109	1.013
Mof_C 	C 	0.6558	0.3995	0.2275	-1.501
Mof_C 	C 	0.6217	0.5019	0.2009	-1.518
Mof_C 	C 	0.2473	0.3646	0.2542	1.119
Mof_C 	C 	0.2191	0.3092	0.2861	-1.645
Mof_C 	C 	0.1756	0.4048	0.2595	-1.565
Mof_C 	C 	0.7585	0.6354	0.5265	0.391
Mof_C 	C 	0.8289	0.6793	0.5531	-0.288
Mof_C 	C 	0.9101	0.6635	0.5697	0.269
Mof_C 	C 	0.9801	0.7025	0.5931	-0.485
Mof_C 	C 	0.9595	0.7615	0.6002	0.308
Mof_C 	C 	0.8802	0.7814	0.586	-0.423
Mof_C 	C 	0.8129	0.738	0.5618	0.218
Mof_C 	C 	0.0916	0.8474	0.5941	0.004
Mof_C 	C 	0.0488	0.8157	0.6743	0.133
Mof_C 	C 	0.1435	0.8799	0.6301	0.031
Mof_C 	C 	0.161	0.8791	0.7281	0.316
Mof_C 	C 	0.1266	0.9249	0.7571	-0.526
Mof_C 	C 	0.1687	0.9394	0.8062	0.259
Mof_C 	C 	0.2396	0.9102	0.8255	-0.272
Mof_C 	C 	0.2698	0.8665	0.7945	0.213
Mof_C 	C 	0.2319	0.8507	0.7451	-0.393
Mof_C 	C 	0.2798	0.9256	0.8799	0.375
Mof_C 	C 	0.8616	0.8454	0.5952	0.824
Mof_C 	C 	0.8221	0.871	0.5458	-1.266
Mof_C 	C 	0.8009	0.8467	0.6431	-1.275
Mof_C 	C 	0.0678	0.6833	0.6117	0.984
Mof_C 	C 	0.1076	0.6476	0.5682	-1.438
Mof_C 	C 	0.0535	0.6453	0.6598	-1.465
Mof_C 	C 	0.2664	0.8023	0.7121	0.673
Mof_C 	C 	0.3687	0.8182	0.7039	-1.131
Mof_C 	C 	0.2461	0.7399	0.7401	-1.046
Mof_C 	C 	0.0489	0.9554	0.7379	1.127
Mof_C 	C 	0.0743	0.0216	0.7331	-1.617
Mof_C 	C 	0.9664	0.9392	0.7712	-1.633
Mof_N 	N 	0.3945	0.8127	0.3816	-0.184
Mof_N 	N 	0.4021	0.8774	0.3178	-0.188
Mof_N 	N 	0.1178	0.3603	0.821	-0.187
Mof_N 	N 	0.0318	0.3065	0.8775	-0.175
Mof_N 	N 	0.6055	0.6873	0.8816	-0.184
Mof_N 	N 	0.5979	0.6226	0.8178	-0.188
Mof_N 	N 	0.8822	0.1397	0.321	-0.186
Mof_N 	N 	0.9682	0.1935	0.3775	-0.175
Mof_N 	N 	0.6055	0.1873	0.6184	-0.184
Mof_N 	N 	0.5979	0.1226	0.6822	-0.188
Mof_N 	N 	0.8822	0.6397	0.179	-0.187
Mof_N 	N 	0.9682	0.6935	0.1225	-0.175
Mof_N 	N 	0.3945	0.3127	0.1184	-0.184
Mof_N 	N 	0.4021	0.3774	0.1822	-0.188
Mof_N 	N 	0.1178	0.8603	0.679	-0.186
Mof_N 	N 	0.0318	0.8065	0.6225	-0.175
Mof_O 	O 	0.3258	0.5582	0.497	-0.574
Mof_O 	O 	0.4752	0.5682	0.48913	-0.743
Mof_O 	O 	0.3918	0.9613	0.07559	-0.611
Mof_O 	O 	0.5406	0.9895	0.09525	-0.611
Mof_O 	O 	0.6828	0.1495	0.9859	-0.487
Mof_O 	O 	0.7799	0.0841	0.9828	-0.516
Mof_O 	O 	0.3355	0.3935	0.6025	-0.527
Mof_O 	O 	0.2585	0.4704	0.5954	-0.501
Mof_O 	O 	0.6742	0.9418	0.997	-0.573
Mof_O 	O 	0.5248	0.9318	0.98913	-0.742
Mof_O 	O 	0.6082	0.5387	0.57559	-0.615
Mof_O 	O 	0.4594	0.5105	0.59525	-0.616
Mof_O 	O 	0.3172	0.3505	0.4859	-0.49
Mof_O 	O 	0.2201	0.4159	0.4828	-0.519
Mof_O 	O 	0.6645	0.1065	0.1025	-0.527
Mof_O 	O 	0.7415	0.0296	0.0954	-0.501
Mof_O 	O 	0.6742	0.4418	0.503	-0.574
Mof_O 	O 	0.5248	0.4318	0.51087	-0.743
Mof_O 	O 	0.6082	0.0387	0.92441	-0.611
Mof_O 	O 	0.4594	0.0105	0.90475	-0.611
Mof_O 	O 	0.3172	0.8505	0.0141	-0.487
Mof_O 	O 	0.2201	0.9159	0.0172	-0.516
Mof_O 	O 	0.6645	0.6065	0.3975	-0.527
Mof_O 	O 	0.7415	0.5296	0.4046	-0.501
Mof_O 	O 	0.3258	0.0582	0.003	-0.573
Mof_O 	O 	0.4752	0.0682	0.01087	-0.742
Mof_O 	O 	0.3918	0.4613	0.42441	-0.615
Mof_O 	O 	0.5406	0.4895	0.40475	-0.616
Mof_O 	O 	0.6828	0.6495	0.5141	-0.49
Mof_O 	O 	0.7799	0.5841	0.5172	-0.519
Mof_O 	O 	0.3355	0.8935	0.8975	-0.527
Mof_O 	O 	0.2585	0.9704	0.9046	-0.501
Mof_N 	N 	0.4422	0.7149	0.5953	-0.04
Mof_O 	O 	0.3777	0.6576	0.6174	-0.171
Mof_O 	O 	0.5369	0.7249	0.6043	-0.167
Mof_N 	N 	0.5578	0.7851	0.0953	-0.04
Mof_O 	O 	0.6223	0.8424	0.1174	-0.17
Mof_O 	O 	0.4631	0.7751	0.1043	-0.166
Mof_N 	N 	0.5578	0.2851	0.4047	-0.04
Mof_O 	O 	0.6223	0.3424	0.3826	-0.171
Mof_O 	O 	0.4631	0.2751	0.3957	-0.167
Mof_N 	N 	0.4422	0.2149	0.9047	-0.04
Mof_O 	O 	0.3777	0.1576	0.8826	-0.17
Mof_O 	O 	0.5369	0.2249	0.8957	-0.166
_end
