data_functionalizedCrystal
_audit_creation_method	'EQeq! by Chris Wilmer'
_symmetry_space_group_name_H-M	'P1'
_symmetry_Int_Tables_number	1
_symmetry_cell_setting	triclinic
loop_
_symmetry_equiv_pos_as_xyz
  x,y,z
_cell_length_a	9.9047
_cell_length_b	11.4007
_cell_length_c	14.5357
_cell_angle_alpha	91.317
_cell_angle_beta	90
_cell_angle_gamma	90
loop_
_atom_site_label
_atom_site_type_symbol
_atom_site_fract_x
_atom_site_fract_y
_atom_site_fract_z
_atom_site_charge
Mof_Mg	Mg	0.5792	0.74472	0.36509	1.48
Mof_Mg	Mg	0.38763	0.76127	0.19041	1.483
Mof_Mg	Mg	0.0792	0.75528	0.13491	1.464
Mof_Mg	Mg	0.88763	0.73873	0.30959	1.487
Mof_Mg	Mg	0.4208	0.25528	0.63491	1.478
Mof_Mg	Mg	0.61237	0.23873	0.80959	1.48
Mof_Mg	Mg	0.9208	0.24472	0.86509	1.49
Mof_Mg	Mg	0.11237	0.26127	0.69041	1.475
Mof_Mg	Mg	0.5	0	0.5	1.475
Mof_Mg	Mg	-0	0.5	-0	1.452
Mof_Mg	Mg	0.5	0.5	0.5	1.483
Mof_Mg	Mg	-0	0	-0	1.447
Mof_H 	H 	0.463	0.0224	0.2376	-0.304
Mof_H 	H 	0.8775	0.9377	0.4581	-0.064
Mof_H 	H 	0.7869	0.4948	0.4715	-0.1
Mof_H 	H 	0.7397	0.6554	0.1272	-0.177
Mof_H 	H 	0.3478	0.8023	0.5723	-0.126
Mof_H 	H 	0.2917	0.5335	0.2785	-0.192
Mof_H 	H 	0.963	0.4776	0.2624	-0.105
Mof_H 	H 	0.3775	0.5623	0.0419	-0.182
Mof_H 	H 	0.2869	0.0052	0.0285	-0.292
Mof_H 	H 	0.2397	0.8446	0.3728	-0.147
Mof_H 	H 	0.8478	0.6977	0.9277	-0.148
Mof_H 	H 	0.7917	0.9665	0.2215	-0.177
Mof_H 	H 	0.537	0.9776	0.7624	0.034
Mof_H 	H 	0.1225	0.0623	0.5419	-0.207
Mof_H 	H 	0.2131	0.5052	0.5285	-0.151
Mof_H 	H 	0.2603	0.3446	0.8728	-0.109
Mof_H 	H 	0.6522	0.1977	0.4277	-0.139
Mof_H 	H 	0.7083	0.4665	0.7215	-0.13
Mof_H 	H 	0.037	0.5224	0.7376	-0.163
Mof_H 	H 	0.6225	0.4377	0.9581	-0.087
Mof_H 	H 	0.7131	0.9948	0.9715	0.039
Mof_H 	H 	0.7603	0.1554	0.6272	-0.143
Mof_H 	H 	0.1522	0.3023	0.0723	-0.105
Mof_H 	H 	0.2083	0.0335	0.7785	-0.133
Mof_C 	C 	0.48288	0.98074	0.29011	0.899
Mof_C 	C 	0.78649	0.92043	0.44998	0.559
Mof_C 	C 	0.77126	0.56076	0.43652	0.545
Mof_C 	C 	0.67057	0.68066	0.16617	0.583
Mof_C 	C 	0.4041	0.7592	0.53305	0.573
Mof_C 	C 	0.35896	0.55715	0.31954	0.608
Mof_C 	C 	0.98288	0.51926	0.20989	0.576
Mof_C 	C 	0.28649	0.57957	0.05002	0.608
Mof_C 	C 	0.27126	0.93924	0.06348	0.753
Mof_C 	C 	0.17057	0.81934	0.33383	0.589
Mof_C 	C 	0.9041	0.7408	0.96695	0.777
Mof_C 	C 	0.85896	0.94285	0.18046	0.72
Mof_C 	C 	0.51712	0.01926	0.70989	0.282
Mof_C 	C 	0.21351	0.07957	0.55002	0.606
Mof_C 	C 	0.22874	0.43924	0.56348	0.578
Mof_C 	C 	0.32943	0.31934	0.83383	0.565
Mof_C 	C 	0.5959	0.2408	0.46695	0.584
Mof_C 	C 	0.64104	0.44285	0.68046	0.597
Mof_C 	C 	0.01712	0.48074	0.79011	0.604
Mof_C 	C 	0.71351	0.42043	0.94998	0.557
Mof_C 	C 	0.72874	0.06076	0.93652	0.368
Mof_C 	C 	0.82943	0.18066	0.66617	0.559
Mof_C 	C 	0.0959	0.2592	0.03305	0.322
Mof_C 	C 	0.14104	0.05715	0.81954	0.458
Mof_O 	O 	0.49325	0.86979	0.28084	-0.746
Mof_O 	O 	0.4969	0.0379	0.36259	-0.661
Mof_O 	O 	0.75652	0.84016	0.38999	-0.641
Mof_O 	O 	0.70513	0.97653	0.4977	-0.452
Mof_O 	O 	0.64981	0.59784	0.43271	-0.653
Mof_O 	O 	0.87029	0.60432	0.39804	-0.457
Mof_O 	O 	0.69972	0.696	0.25121	-0.669
Mof_O 	O 	0.55814	0.69648	0.13101	-0.538
Mof_O 	O 	0.47524	0.81631	0.4755	-0.647
Mof_O 	O 	0.40442	0.65166	0.54047	-0.515
Mof_O 	O 	0.42025	0.65267	0.3028	-0.685
Mof_O 	O 	0.38076	0.4933	0.38521	-0.537
Mof_O 	O 	0.99325	0.63021	0.21916	-0.608
Mof_O 	O 	0.9969	0.4621	0.13741	-0.461
Mof_O 	O 	0.25652	0.65984	0.11001	-0.728
Mof_O 	O 	0.20513	0.52347	0.0023	-0.629
Mof_O 	O 	0.14981	0.90216	0.06729	-0.79
Mof_O 	O 	0.37029	0.89568	0.10196	-0.567
Mof_O 	O 	0.19972	0.804	0.24879	-0.703
Mof_O 	O 	0.05814	0.80352	0.36899	-0.598
Mof_O 	O 	0.97524	0.68369	0.0245	-0.725
Mof_O 	O 	0.90442	0.84834	0.95953	-0.442
Mof_O 	O 	0.92025	0.84733	0.1972	-0.656
Mof_O 	O 	0.88076	0.0067	0.11479	-0.606
Mof_O 	O 	0.50675	0.13021	0.71916	-0.607
Mof_O 	O 	0.5031	0.9621	0.63741	-0.363
Mof_O 	O 	0.24348	0.15984	0.61001	-0.708
Mof_O 	O 	0.29487	0.02347	0.5023	-0.568
Mof_O 	O 	0.35019	0.40216	0.56729	-0.671
Mof_O 	O 	0.12971	0.39568	0.60196	-0.556
Mof_O 	O 	0.30028	0.304	0.74879	-0.663
Mof_O 	O 	0.44186	0.30352	0.86899	-0.48
Mof_O 	O 	0.52476	0.18369	0.5245	-0.675
Mof_O 	O 	0.59558	0.34834	0.45953	-0.519
Mof_O 	O 	0.57975	0.34733	0.6972	-0.677
Mof_O 	O 	0.61924	0.5067	0.61479	-0.5
Mof_O 	O 	0.00675	0.36979	0.78084	-0.738
Mof_O 	O 	0.0031	0.5379	0.86259	-0.542
Mof_O 	O 	0.74348	0.34016	0.88999	-0.625
Mof_O 	O 	0.79487	0.47653	0.9977	-0.396
Mof_O 	O 	0.85019	0.09784	0.93271	-0.534
Mof_O 	O 	0.62971	0.10432	0.89804	-0.447
Mof_O 	O 	0.80028	0.196	0.75121	-0.634
Mof_O 	O 	0.94186	0.19648	0.63101	-0.425
Mof_O 	O 	0.02476	0.31631	0.9755	-0.552
Mof_O 	O 	0.09558	0.15166	0.04047	-0.579
Mof_O 	O 	0.07975	0.15267	0.8028	-0.693
Mof_O 	O 	0.11924	0.9933	0.88521	-0.39
_end
