data_functionalizedCrystal
_audit_creation_method	'EQeq! by Chris Wilmer'
_symmetry_space_group_name_H-M	'P1'
_symmetry_Int_Tables_number	1
_symmetry_cell_setting	triclinic
loop_
_symmetry_equiv_pos_as_xyz
  x,y,z
_cell_length_a	11.054
_cell_length_b	22.723
_cell_length_c	14.666
_cell_angle_alpha	90
_cell_angle_beta	96.8
_cell_angle_gamma	90
loop_
_atom_site_label
_atom_site_type_symbol
_atom_site_fract_x
_atom_site_fract_y
_atom_site_fract_z
_atom_site_charge
Mof_Cd	Cd	0.13925	0.92455	0.21106	0.362
Mof_C 	C 	0.1057	0.71143	0.7573	0.074
Mof_H 	H 	0.0908	0.7125	0.6936	0.02
Mof_C 	C 	0.0967	0.763	0.8053	-0.12
Mof_H 	H 	0.0767	0.798	0.7743	0.085
Mof_C 	C 	0.1176	0.7621	0.90013	0.048
Mof_C 	C 	0.15	0.70911	0.9421	-0.098
Mof_H 	H 	0.1666	0.7069	0.0056	0.067
Mof_C 	C 	0.1574	0.65968	0.889	0.066
Mof_H 	H 	0.1792	0.6243	0.9182	0.01
Mof_C 	C 	0.1072	0.81598	0.95316	0.112
Mof_C 	C 	0.3903	0.93255	0.1204	0.087
Mof_H 	H 	0.3319	0.9403	0.0709	0.022
Mof_C 	C 	0.5101	0.93596	0.1072	-0.13
Mof_H 	H 	0.5317	0.9463	0.0499	0.095
Mof_C 	C 	0.6002	0.92398	0.1796	0.07
Mof_C 	C 	0.562	0.90716	0.2617	-0.131
Mof_H 	H 	0.6187	0.8969	0.3111	0.093
Mof_C 	C 	0.4385	0.9056	0.2704	0.085
Mof_H 	H 	0.4146	0.895	0.3268	0.009
Mof_C 	C 	0.7284	0.93167	0.16536	0.099
Mof_N 	N 	0.1348	0.65996	0.79792	-0.153
Mof_N 	N 	0.0696	0.86742	0.91689	-0.086
Mof_N 	N 	0.0734	0.90321	0.98799	-0.058
Mof_N 	N 	0.1129	0.87453	0.06417	-0.074
Mof_N 	N 	0.1342	0.81901	0.04378	-0.098
Mof_N 	N 	0.3521	0.91856	0.20182	-0.15
Mof_N 	N 	0.7612	0.95916	0.0923	-0.081
Mof_N 	N 	0.8812	0.95899	0.10483	-0.056
Mof_N 	N 	0.9202	0.93192	0.18243	-0.057
Mof_N 	N 	0.8246	0.91404	0.22294	-0.08
Mof_N 	N 	0.1427	0.00862	0.12526	-0.125
Mof_N 	N 	0.219	0.04515	0.1347	-0.037
Mof_N 	N 	0.2931	0.0801	0.1434	-0.066
Mof_Cd	Cd	0.86075	0.42455	0.28894	0.379
Mof_C 	C 	0.8943	0.21143	0.7427	0.087
Mof_H 	H 	0.9092	0.2125	0.8064	0.022
Mof_C 	C 	0.9033	0.263	0.6947	-0.132
Mof_H 	H 	0.9233	0.298	0.7257	0.097
Mof_C 	C 	0.8824	0.2621	0.59987	0.072
Mof_C 	C 	0.85	0.20911	0.5579	-0.137
Mof_H 	H 	0.8334	0.2069	0.4944	0.091
Mof_C 	C 	0.8426	0.15968	0.611	0.09
Mof_H 	H 	0.8208	0.1243	0.5818	0.002
Mof_C 	C 	0.8928	0.31598	0.54684	0.098
Mof_C 	C 	0.6097	0.43255	0.3796	0.084
Mof_H 	H 	0.6681	0.4403	0.4291	0.023
Mof_C 	C 	0.4899	0.43596	0.3928	-0.129
Mof_H 	H 	0.4683	0.4463	0.4501	0.093
Mof_C 	C 	0.3998	0.42398	0.3204	0.064
Mof_C 	C 	0.438	0.40716	0.2383	-0.131
Mof_H 	H 	0.3813	0.3969	0.1889	0.084
Mof_C 	C 	0.5615	0.4056	0.2296	0.081
Mof_H 	H 	0.5854	0.395	0.1732	0.006
Mof_C 	C 	0.2716	0.43167	0.33464	0.095
Mof_N 	N 	0.8652	0.15996	0.70208	-0.156
Mof_N 	N 	0.9304	0.36742	0.58311	-0.078
Mof_N 	N 	0.9266	0.40321	0.51201	-0.058
Mof_N 	N 	0.8871	0.37453	0.43583	-0.065
Mof_N 	N 	0.8658	0.31901	0.45622	-0.089
Mof_N 	N 	0.6479	0.41856	0.29818	-0.151
Mof_N 	N 	0.2388	0.45916	0.4077	-0.084
Mof_N 	N 	0.1188	0.45899	0.39517	-0.071
Mof_N 	N 	0.0798	0.43192	0.31757	-0.078
Mof_N 	N 	0.1754	0.41404	0.27706	-0.092
Mof_N 	N 	0.8573	0.50862	0.37474	-0.107
Mof_N 	N 	0.781	0.54515	0.3653	-0.029
Mof_N 	N 	0.7069	0.5801	0.3566	-0.055
Mof_Cd	Cd	0.86075	0.07545	0.78894	0.376
Mof_C 	C 	0.8943	0.28857	0.2427	0.093
Mof_H 	H 	0.9092	0.2875	0.3064	0.019
Mof_C 	C 	0.9033	0.237	0.1947	-0.143
Mof_H 	H 	0.9233	0.202	0.2257	0.099
Mof_C 	C 	0.8824	0.2379	0.09987	0.088
Mof_C 	C 	0.85	0.29089	0.0579	-0.17
Mof_H 	H 	0.8334	0.2931	0.9944	0.111
Mof_C 	C 	0.8426	0.34032	0.111	0.106
Mof_H 	H 	0.8208	0.3757	0.0818	-0.004
Mof_C 	C 	0.8928	0.18402	0.04684	0.083
Mof_C 	C 	0.6097	0.06745	0.8796	0.084
Mof_H 	H 	0.6681	0.0597	0.9291	0.023
Mof_C 	C 	0.4899	0.06404	0.8928	-0.129
Mof_H 	H 	0.4683	0.0537	0.9501	0.094
Mof_C 	C 	0.3998	0.07602	0.8204	0.065
Mof_C 	C 	0.438	0.09284	0.7383	-0.131
Mof_H 	H 	0.3813	0.1031	0.6889	0.085
Mof_C 	C 	0.5615	0.0944	0.7296	0.081
Mof_H 	H 	0.5854	0.105	0.6732	0.007
Mof_C 	C 	0.2716	0.06833	0.83464	0.095
Mof_N 	N 	0.8652	0.34004	0.20208	-0.161
Mof_N 	N 	0.9304	0.13258	0.08311	-0.077
Mof_N 	N 	0.9266	0.09679	0.01201	-0.063
Mof_N 	N 	0.8871	0.12547	0.93583	-0.061
Mof_N 	N 	0.8658	0.18099	0.95622	-0.081
Mof_N 	N 	0.6479	0.08144	0.79818	-0.151
Mof_N 	N 	0.2388	0.04084	0.9077	-0.083
Mof_N 	N 	0.1188	0.04101	0.89517	-0.069
Mof_N 	N 	0.0798	0.06808	0.81757	-0.078
Mof_N 	N 	0.1754	0.08596	0.77706	-0.091
Mof_N 	N 	0.8573	0.99138	0.87474	-0.097
Mof_N 	N 	0.781	0.95485	0.8653	-0.026
Mof_N 	N 	0.7069	0.9199	0.8566	-0.049
Mof_Cd	Cd	0.13925	0.57545	0.71106	0.357
Mof_C 	C 	0.1057	0.78857	0.2573	0.08
Mof_H 	H 	0.0908	0.7875	0.1936	0.017
Mof_C 	C 	0.0967	0.737	0.3053	-0.132
Mof_H 	H 	0.0767	0.702	0.2743	0.087
Mof_C 	C 	0.1176	0.7379	0.40013	0.066
Mof_C 	C 	0.15	0.79089	0.4421	-0.137
Mof_H 	H 	0.1666	0.7931	0.5056	0.089
Mof_C 	C 	0.1574	0.84032	0.389	0.084
Mof_H 	H 	0.1792	0.8757	0.4182	0.002
Mof_C 	C 	0.1072	0.68402	0.45316	0.094
Mof_C 	C 	0.3903	0.56745	0.6204	0.087
Mof_H 	H 	0.3319	0.5597	0.5709	0.022
Mof_C 	C 	0.5101	0.56404	0.6072	-0.13
Mof_H 	H 	0.5317	0.5537	0.5499	0.095
Mof_C 	C 	0.6002	0.57602	0.6796	0.07
Mof_C 	C 	0.562	0.59284	0.7617	-0.131
Mof_H 	H 	0.6187	0.6031	0.8111	0.094
Mof_C 	C 	0.4385	0.5944	0.7704	0.085
Mof_H 	H 	0.4146	0.605	0.8268	0.009
Mof_C 	C 	0.7284	0.56833	0.66536	0.099
Mof_N 	N 	0.1348	0.84004	0.29792	-0.159
Mof_N 	N 	0.0696	0.63258	0.41689	-0.086
Mof_N 	N 	0.0734	0.59679	0.48799	-0.069
Mof_N 	N 	0.1129	0.62547	0.56417	-0.07
Mof_N 	N 	0.1342	0.68099	0.54378	-0.09
Mof_N 	N 	0.3521	0.58144	0.70182	-0.15
Mof_N 	N 	0.7612	0.54084	0.5923	-0.082
Mof_N 	N 	0.8812	0.54101	0.60483	-0.058
Mof_N 	N 	0.9202	0.56808	0.68243	-0.057
Mof_N 	N 	0.8246	0.58596	0.72294	-0.08
Mof_N 	N 	0.1427	0.49138	0.62526	-0.12
Mof_N 	N 	0.219	0.45485	0.6347	-0.034
Mof_N 	N 	0.2931	0.4199	0.6434	-0.061
Mof_Cd	Cd	-0	0	-0	0.356
Mof_Cd	Cd	1.55399e-17	0.5	0.5	0.378
_end
