# CIF file generated by openbabel 3.1.0, see https://openbabel.org
data_I
_chemical_name_common 'image0'
_cell_length_a 17.6972
_cell_length_b 17.6972
_cell_length_c 76.397
_cell_angle_alpha 90
_cell_angle_beta 90
_cell_angle_gamma 120
_space_group_name_H-M_alt 'P 1'
_space_group_name_Hall 'P 1'
loop_
    _symmetry_equiv_pos_as_xyz
    x,y,z
loop_
    _atom_site_label
    _atom_site_type_symbol
    _atom_site_fract_x
    _atom_site_fract_y
    _atom_site_fract_z
    _atom_site_occupancy
    C1       C        0.86110    0.83530    0.42061    1.000
    C2       C        0.82990    0.85890    0.43692    1.000
    C3       C        0.75630    0.82190    0.44737    1.000
    C4       C        0.66860    0.74040    0.44818    1.000
    C5       C        0.56940    0.73950    0.50545    1.000
    C6       C        0.65110    0.73290    0.50676    1.000
    C7       C        0.68840    0.69630    0.51686    1.000
    C8       C        0.66380    0.63770    0.53263    1.000
    Co1      Co       0.67204    0.83991    0.47717    1.000
    N1       N        0.88410    0.93640    0.44389    1.000
    N2       N        0.84940    0.95150    0.45789    1.000
    N3       N        0.77170    0.88230    0.45981    1.000
    N4       N        0.71130    0.77660    0.49366    1.000
    N5       N        0.77910    0.76630    0.49552    1.000
    N6       N        0.76640    0.71910    0.50938    1.000
    O1       O        0.93750    0.89300    0.41612    1.000
    O2       O        0.81440    0.76610    0.41309    1.000
    O3       O        0.64700    0.68220    0.43692    1.000
    O4       O        0.62070    0.73660    0.46083    1.000
    O5       O        0.56620    0.78170    0.49250    1.000
    O6       O        0.51260    0.70380    0.51642    1.000
    O7       O        0.59380    0.61330    0.53997    1.000
    O8       O        0.72150    0.61860    0.53710    1.000
    C9       C        0.52777    0.16863    0.75394    1.000
    C10      C        0.49657    0.19223    0.77025    1.000
    C11      C        0.42297    0.15523    0.78070    1.000
    C12      C        0.33527    0.07373    0.78151    1.000
    C13      C        0.23607    0.07283    0.83878    1.000
    C14      C        0.31777    0.06623    0.84009    1.000
    C15      C        0.35507    0.02963    0.85019    1.000
    C16      C        0.33047    0.97103    0.86596    1.000
    Co2      Co       0.33871    0.17324    0.81051    1.000
    N7       N        0.55077    0.26973    0.77722    1.000
    N8       N        0.51607    0.28483    0.79122    1.000
    N9       N        0.43837    0.21563    0.79314    1.000
    N10      N        0.37797    0.10993    0.82699    1.000
    N11      N        0.44577    0.09963    0.82885    1.000
    N12      N        0.43307    0.05243    0.84271    1.000
    O9       O        0.60417    0.22633    0.74945    1.000
    O10      O        0.48107    0.09943    0.74642    1.000
    O11      O        0.31367    0.01553    0.77025    1.000
    O12      O        0.28737    0.06993    0.79416    1.000
    O13      O        0.23287    0.11503    0.82583    1.000
    O14      O        0.17927    0.03713    0.84975    1.000
    O15      O        0.26047    0.94663    0.87330    1.000
    O16      O        0.38817    0.95193    0.87043    1.000
    C17      C        0.19443    0.50197    0.08728    1.000
    C18      C        0.16323    0.52557    0.10359    1.000
    C19      C        0.08963    0.48857    0.11404    1.000
    C20      C        0.00193    0.40707    0.11485    1.000
    C21      C        0.90273    0.40617    0.17212    1.000
    C22      C        0.98443    0.39957    0.17343    1.000
    C23      C        0.02173    0.36297    0.18353    1.000
    C24      C        0.99713    0.30437    0.19930    1.000
    Co3      Co       0.00537    0.50658    0.14384    1.000
    N13      N        0.21743    0.60307    0.11056    1.000
    N14      N        0.18273    0.61817    0.12456    1.000
    N15      N        0.10503    0.54897    0.12648    1.000
    N16      N        0.04463    0.44327    0.16033    1.000
    N17      N        0.11243    0.43297    0.16219    1.000
    N18      N        0.09973    0.38577    0.17605    1.000
    O17      O        0.27083    0.55967    0.08279    1.000
    O18      O        0.14773    0.43277    0.07976    1.000
    O19      O        0.98033    0.34887    0.10359    1.000
    O20      O        0.95403    0.40327    0.12750    1.000
    O21      O        0.89953    0.44837    0.15917    1.000
    O22      O        0.84593    0.37047    0.18309    1.000
    O23      O        0.92713    0.27997    0.20664    1.000
    O24      O        0.05483    0.28527    0.20377    1.000
    C25      C        0.16470    0.02580    0.42061    1.000
    C26      C        0.14110    0.97100    0.43692    1.000
    C27      C        0.17810    0.93440    0.44737    1.000
    C28      C        0.25960    0.92820    0.44818    1.000
    C29      C        0.26050    0.82990    0.50545    1.000
    C30      C        0.26710    0.91820    0.50676    1.000
    C31      C        0.30370    0.99210    0.51686    1.000
    C32      C        0.36230    0.02610    0.53263    1.000
    Co4      Co       0.16009    0.83213    0.47717    1.000
    N19      N        0.06360    0.94770    0.44389    1.000
    N20      N        0.04850    0.89790    0.45789    1.000
    N21      N        0.11770    0.88940    0.45981    1.000
    N22      N        0.22340    0.93470    0.49366    1.000
    N23      N        0.23370    0.01280    0.49552    1.000
    N24      N        0.28090    0.04730    0.50938    1.000
    O25      O        0.10700    0.04450    0.41612    1.000
    O26      O        0.23390    0.04830    0.41309    1.000
    O27      O        0.31780    0.96480    0.43692    1.000
    O28      O        0.26340    0.88410    0.46083    1.000
    O29      O        0.21830    0.78450    0.49250    1.000
    O30      O        0.29620    0.80880    0.51642    1.000
    O31      O        0.38670    0.98050    0.53997    1.000
    O32      O        0.38140    0.10290    0.53710    1.000
    C33      C        0.83137    0.35913    0.75394    1.000
    C34      C        0.80777    0.30433    0.77025    1.000
    C35      C        0.84477    0.26773    0.78070    1.000
    C36      C        0.92627    0.26153    0.78151    1.000
    C37      C        0.92717    0.16323    0.83878    1.000
    C38      C        0.93377    0.25153    0.84009    1.000
    C39      C        0.97037    0.32543    0.85019    1.000
    C40      C        0.02897    0.35943    0.86596    1.000
    Co5      Co       0.82676    0.16546    0.81051    1.000
    N25      N        0.73027    0.28103    0.77722    1.000
    N26      N        0.71517    0.23123    0.79122    1.000
    N27      N        0.78437    0.22273    0.79314    1.000
    N28      N        0.89007    0.26803    0.82699    1.000
    N29      N        0.90037    0.34613    0.82885    1.000
    N30      N        0.94757    0.38063    0.84271    1.000
    O33      O        0.77367    0.37783    0.74945    1.000
    O34      O        0.90057    0.38163    0.74642    1.000
    O35      O        0.98447    0.29813    0.77025    1.000
    O36      O        0.93007    0.21743    0.79416    1.000
    O37      O        0.88497    0.11783    0.82583    1.000
    O38      O        0.96287    0.14213    0.84975    1.000
    O39      O        0.05337    0.31383    0.87330    1.000
    O40      O        0.04807    0.43623    0.87043    1.000
    C41      C        0.49803    0.69247    0.08728    1.000
    C42      C        0.47443    0.63767    0.10359    1.000
    C43      C        0.51143    0.60107    0.11404    1.000
    C44      C        0.59293    0.59487    0.11485    1.000
    C45      C        0.59383    0.49657    0.17212    1.000
    C46      C        0.60043    0.58487    0.17343    1.000
    C47      C        0.63703    0.65877    0.18353    1.000
    C48      C        0.69563    0.69277    0.19930    1.000
    Co6      Co       0.49342    0.49880    0.14384    1.000
    N31      N        0.39693    0.61437    0.11056    1.000
    N32      N        0.38183    0.56457    0.12456    1.000
    N33      N        0.45103    0.55607    0.12648    1.000
    N34      N        0.55673    0.60137    0.16033    1.000
    N35      N        0.56703    0.67947    0.16219    1.000
    N36      N        0.61423    0.71397    0.17605    1.000
    O41      O        0.44033    0.71117    0.08279    1.000
    O42      O        0.56723    0.71497    0.07976    1.000
    O43      O        0.65113    0.63147    0.10359    1.000
    O44      O        0.59673    0.55077    0.12750    1.000
    O45      O        0.55163    0.45117    0.15917    1.000
    O46      O        0.62953    0.47547    0.18309    1.000
    O47      O        0.72003    0.64717    0.20664    1.000
    O48      O        0.71473    0.76957    0.20377    1.000
    C49      C        0.97420    0.13890    0.42061    1.000
    C50      C        0.02900    0.17010    0.43692    1.000
    C51      C        0.06560    0.24370    0.44737    1.000
    C52      C        0.07180    0.33140    0.44818    1.000
    C53      C        0.17010    0.43060    0.50545    1.000
    C54      C        0.08180    0.34890    0.50676    1.000
    C55      C        0.00790    0.31160    0.51686    1.000
    C56      C        0.97390    0.33620    0.53263    1.000
    Co7      Co       0.16787    0.32796    0.47717    1.000
    N37      N        0.05230    0.11590    0.44389    1.000
    N38      N        0.10210    0.15060    0.45789    1.000
    N39      N        0.11060    0.22830    0.45981    1.000
    N40      N        0.06530    0.28870    0.49366    1.000
    N41      N        0.98720    0.22090    0.49552    1.000
    N42      N        0.95270    0.23360    0.50938    1.000
    O49      O        0.95550    0.06250    0.41612    1.000
    O50      O        0.95170    0.18560    0.41309    1.000
    O51      O        0.03520    0.35300    0.43692    1.000
    O52      O        0.11590    0.37930    0.46083    1.000
    O53      O        0.21550    0.43380    0.49250    1.000
    O54      O        0.19120    0.48740    0.51642    1.000
    O55      O        0.01950    0.40620    0.53997    1.000
    O56      O        0.89710    0.27850    0.53710    1.000
    C57      C        0.64087    0.47223    0.75394    1.000
    C58      C        0.69567    0.50343    0.77025    1.000
    C59      C        0.73227    0.57703    0.78070    1.000
    C60      C        0.73847    0.66473    0.78151    1.000
    C61      C        0.83677    0.76393    0.83878    1.000
    C62      C        0.74847    0.68223    0.84009    1.000
    C63      C        0.67457    0.64493    0.85019    1.000
    C64      C        0.64057    0.66953    0.86596    1.000
    Co8      Co       0.83454    0.66129    0.81051    1.000
    N43      N        0.71897    0.44923    0.77722    1.000
    N44      N        0.76877    0.48393    0.79122    1.000
    N45      N        0.77727    0.56163    0.79314    1.000
    N46      N        0.73197    0.62203    0.82699    1.000
    N47      N        0.65387    0.55423    0.82885    1.000
    N48      N        0.61937    0.56693    0.84271    1.000
    O57      O        0.62217    0.39583    0.74945    1.000
    O58      O        0.61837    0.51893    0.74642    1.000
    O59      O        0.70187    0.68633    0.77025    1.000
    O60      O        0.78257    0.71263    0.79416    1.000
    O61      O        0.88217    0.76713    0.82583    1.000
    O62      O        0.85787    0.82073    0.84975    1.000
    O63      O        0.68617    0.73953    0.87330    1.000
    O64      O        0.56377    0.61183    0.87043    1.000
    C65      C        0.30753    0.80557    0.08728    1.000
    C66      C        0.36233    0.83677    0.10359    1.000
    C67      C        0.39893    0.91037    0.11404    1.000
    C68      C        0.40513    0.99807    0.11485    1.000
    C69      C        0.50343    0.09727    0.17212    1.000
    C70      C        0.41513    0.01557    0.17343    1.000
    C71      C        0.34123    0.97827    0.18353    1.000
    C72      C        0.30723    0.00287    0.19930    1.000
    Co9      Co       0.50120    0.99463    0.14384    1.000
    N49      N        0.38563    0.78257    0.11056    1.000
    N50      N        0.43543    0.81727    0.12456    1.000
    N51      N        0.44393    0.89497    0.12648    1.000
    N52      N        0.39863    0.95537    0.16033    1.000
    N53      N        0.32053    0.88757    0.16219    1.000
    N54      N        0.28603    0.90027    0.17605    1.000
    O65      O        0.28883    0.72917    0.08279    1.000
    O66      O        0.28503    0.85227    0.07976    1.000
    O67      O        0.36853    0.01967    0.10359    1.000
    O68      O        0.44923    0.04597    0.12750    1.000
    O69      O        0.54883    0.10047    0.15917    1.000
    O70      O        0.52453    0.15407    0.18309    1.000
    O71      O        0.35283    0.07287    0.20664    1.000
    O72      O        0.23043    0.94517    0.20377    1.000
    C73      C        0.83530    0.86110    0.07939    1.000
    C74      C        0.85890    0.82990    0.06308    1.000
    C75      C        0.82190    0.75630    0.05263    1.000
    C76      C        0.74040    0.66860    0.05182    1.000
    C77      C        0.73950    0.56940    0.99455    1.000
    C78      C        0.73290    0.65110    0.99324    1.000
    C79      C        0.69630    0.68840    0.98314    1.000
    C80      C        0.63770    0.66380    0.96737    1.000
    Co10     Co       0.83991    0.67204    0.02283    1.000
    N55      N        0.93640    0.88410    0.05611    1.000
    N56      N        0.95150    0.84940    0.04211    1.000
    N57      N        0.88230    0.77170    0.04019    1.000
    N58      N        0.77660    0.71130    0.00634    1.000
    N59      N        0.76630    0.77910    0.00448    1.000
    N60      N        0.71910    0.76640    0.99062    1.000
    O73      O        0.89300    0.93750    0.08388    1.000
    O74      O        0.76610    0.81440    0.08691    1.000
    O75      O        0.68220    0.64700    0.06308    1.000
    O76      O        0.73660    0.62070    0.03917    1.000
    O77      O        0.78170    0.56620    0.00750    1.000
    O78      O        0.70380    0.51260    0.98358    1.000
    O79      O        0.61330    0.59380    0.96003    1.000
    O80      O        0.61860    0.72150    0.96290    1.000
    C81      C        0.50197    0.19443    0.41272    1.000
    C82      C        0.52557    0.16323    0.39641    1.000
    C83      C        0.48857    0.08963    0.38596    1.000
    C84      C        0.40707    0.00193    0.38515    1.000
    C85      C        0.40617    0.90273    0.32788    1.000
    C86      C        0.39957    0.98443    0.32657    1.000
    C87      C        0.36297    0.02173    0.31647    1.000
    C88      C        0.30437    0.99713    0.30070    1.000
    Co11     Co       0.50658    0.00537    0.35616    1.000
    N61      N        0.60307    0.21743    0.38944    1.000
    N62      N        0.61817    0.18273    0.37544    1.000
    N63      N        0.54897    0.10503    0.37352    1.000
    N64      N        0.44327    0.04463    0.33967    1.000
    N65      N        0.43297    0.11243    0.33781    1.000
    N66      N        0.38577    0.09973    0.32395    1.000
    O81      O        0.55967    0.27083    0.41721    1.000
    O82      O        0.43277    0.14773    0.42024    1.000
    O83      O        0.34887    0.98033    0.39641    1.000
    O84      O        0.40327    0.95403    0.37250    1.000
    O85      O        0.44837    0.89953    0.34083    1.000
    O86      O        0.37047    0.84593    0.31691    1.000
    O87      O        0.27997    0.92713    0.29336    1.000
    O88      O        0.28527    0.05483    0.29623    1.000
    C89      C        0.16863    0.52777    0.74606    1.000
    C90      C        0.19223    0.49657    0.72975    1.000
    C91      C        0.15523    0.42297    0.71930    1.000
    C92      C        0.07373    0.33527    0.71849    1.000
    C93      C        0.07283    0.23607    0.66122    1.000
    C94      C        0.06623    0.31777    0.65991    1.000
    C95      C        0.02963    0.35507    0.64981    1.000
    C96      C        0.97103    0.33047    0.63404    1.000
    Co12     Co       0.17324    0.33871    0.68949    1.000
    N67      N        0.26973    0.55077    0.72278    1.000
    N68      N        0.28483    0.51607    0.70878    1.000
    N69      N        0.21563    0.43837    0.70686    1.000
    N70      N        0.10993    0.37797    0.67301    1.000
    N71      N        0.09963    0.44577    0.67115    1.000
    N72      N        0.05243    0.43307    0.65729    1.000
    O89      O        0.22633    0.60417    0.75055    1.000
    O90      O        0.09943    0.48107    0.75358    1.000
    O91      O        0.01553    0.31367    0.72975    1.000
    O92      O        0.06993    0.28737    0.70584    1.000
    O93      O        0.11503    0.23287    0.67417    1.000
    O94      O        0.03713    0.17927    0.65025    1.000
    O95      O        0.94663    0.26047    0.62670    1.000
    O96      O        0.95193    0.38817    0.62957    1.000
    C97      C        0.02580    0.16470    0.07939    1.000
    C98      C        0.97100    0.14110    0.06308    1.000
    C99      C        0.93440    0.17810    0.05263    1.000
    C100     C        0.92820    0.25960    0.05182    1.000
    C101     C        0.82990    0.26050    0.99455    1.000
    C102     C        0.91820    0.26710    0.99324    1.000
    C103     C        0.99210    0.30370    0.98314    1.000
    C104     C        0.02610    0.36230    0.96737    1.000
    Co13     Co       0.83213    0.16009    0.02283    1.000
    N73      N        0.94770    0.06360    0.05611    1.000
    N74      N        0.89790    0.04850    0.04211    1.000
    N75      N        0.88940    0.11770    0.04019    1.000
    N76      N        0.93470    0.22340    0.00634    1.000
    N77      N        0.01280    0.23370    0.00448    1.000
    N78      N        0.04730    0.28090    0.99062    1.000
    O97      O        0.04450    0.10700    0.08388    1.000
    O98      O        0.04830    0.23390    0.08691    1.000
    O99      O        0.96480    0.31780    0.06308    1.000
    O100     O        0.88410    0.26340    0.03917    1.000
    O101     O        0.78450    0.21830    0.00750    1.000
    O102     O        0.80880    0.29620    0.98358    1.000
    O103     O        0.98050    0.38670    0.96003    1.000
    O104     O        0.10290    0.38140    0.96290    1.000
    C105     C        0.69247    0.49803    0.41272    1.000
    C106     C        0.63767    0.47443    0.39641    1.000
    C107     C        0.60107    0.51143    0.38596    1.000
    C108     C        0.59487    0.59293    0.38515    1.000
    C109     C        0.49657    0.59383    0.32788    1.000
    C110     C        0.58487    0.60043    0.32657    1.000
    C111     C        0.65877    0.63703    0.31647    1.000
    C112     C        0.69277    0.69563    0.30070    1.000
    Co14     Co       0.49880    0.49342    0.35616    1.000
    N79      N        0.61437    0.39693    0.38944    1.000
    N80      N        0.56457    0.38183    0.37544    1.000
    N81      N        0.55607    0.45103    0.37352    1.000
    N82      N        0.60137    0.55673    0.33967    1.000
    N83      N        0.67947    0.56703    0.33781    1.000
    N84      N        0.71397    0.61423    0.32395    1.000
    O105     O        0.71117    0.44033    0.41721    1.000
    O106     O        0.71497    0.56723    0.42024    1.000
    O107     O        0.63147    0.65113    0.39641    1.000
    O108     O        0.55077    0.59673    0.37250    1.000
    O109     O        0.45117    0.55163    0.34083    1.000
    O110     O        0.47547    0.62953    0.31691    1.000
    O111     O        0.64717    0.72003    0.29336    1.000
    O112     O        0.76957    0.71473    0.29623    1.000
    C113     C        0.35913    0.83137    0.74606    1.000
    C114     C        0.30433    0.80777    0.72975    1.000
    C115     C        0.26773    0.84477    0.71930    1.000
    C116     C        0.26153    0.92627    0.71849    1.000
    C117     C        0.16323    0.92717    0.66122    1.000
    C118     C        0.25153    0.93377    0.65991    1.000
    C119     C        0.32543    0.97037    0.64981    1.000
    C120     C        0.35943    0.02897    0.63404    1.000
    Co15     Co       0.16546    0.82676    0.68949    1.000
    N85      N        0.28103    0.73027    0.72278    1.000
    N86      N        0.23123    0.71517    0.70878    1.000
    N87      N        0.22273    0.78437    0.70686    1.000
    N88      N        0.26803    0.89007    0.67301    1.000
    N89      N        0.34613    0.90037    0.67115    1.000
    N90      N        0.38063    0.94757    0.65729    1.000
    O113     O        0.37783    0.77367    0.75055    1.000
    O114     O        0.38163    0.90057    0.75358    1.000
    O115     O        0.29813    0.98447    0.72975    1.000
    O116     O        0.21743    0.93007    0.70584    1.000
    O117     O        0.11783    0.88497    0.67417    1.000
    O118     O        0.14213    0.96287    0.65025    1.000
    O119     O        0.31383    0.05337    0.62670    1.000
    O120     O        0.43623    0.04807    0.62957    1.000
    C121     C        0.13890    0.97420    0.07939    1.000
    C122     C        0.17010    0.02900    0.06308    1.000
    C123     C        0.24370    0.06560    0.05263    1.000
    C124     C        0.33140    0.07180    0.05182    1.000
    C125     C        0.43060    0.17010    0.99455    1.000
    C126     C        0.34890    0.08180    0.99324    1.000
    C127     C        0.31160    0.00790    0.98314    1.000
    C128     C        0.33620    0.97390    0.96737    1.000
    Co16     Co       0.32796    0.16787    0.02283    1.000
    N91      N        0.11590    0.05230    0.05611    1.000
    N92      N        0.15060    0.10210    0.04211    1.000
    N93      N        0.22830    0.11060    0.04019    1.000
    N94      N        0.28870    0.06530    0.00634    1.000
    N95      N        0.22090    0.98720    0.00448    1.000
    N96      N        0.23360    0.95270    0.99062    1.000
    O121     O        0.06250    0.95550    0.08388    1.000
    O122     O        0.18560    0.95170    0.08691    1.000
    O123     O        0.35300    0.03520    0.06308    1.000
    O124     O        0.37930    0.11590    0.03917    1.000
    O125     O        0.43380    0.21550    0.00750    1.000
    O126     O        0.48740    0.19120    0.98358    1.000
    O127     O        0.40620    0.01950    0.96003    1.000
    O128     O        0.27850    0.89710    0.96290    1.000
    C129     C        0.80557    0.30753    0.41272    1.000
    C130     C        0.83677    0.36233    0.39641    1.000
    C131     C        0.91037    0.39893    0.38596    1.000
    C132     C        0.99807    0.40513    0.38515    1.000
    C133     C        0.09727    0.50343    0.32788    1.000
    C134     C        0.01557    0.41513    0.32657    1.000
    C135     C        0.97827    0.34123    0.31647    1.000
    C136     C        0.00287    0.30723    0.30070    1.000
    Co17     Co       0.99463    0.50120    0.35616    1.000
    N97      N        0.78257    0.38563    0.38944    1.000
    N98      N        0.81727    0.43543    0.37544    1.000
    N99      N        0.89497    0.44393    0.37352    1.000
    N100     N        0.95537    0.39863    0.33967    1.000
    N101     N        0.88757    0.32053    0.33781    1.000
    N102     N        0.90027    0.28603    0.32395    1.000
    O129     O        0.72917    0.28883    0.41721    1.000
    O130     O        0.85227    0.28503    0.42024    1.000
    O131     O        0.01967    0.36853    0.39641    1.000
    O132     O        0.04597    0.44923    0.37250    1.000
    O133     O        0.10047    0.54883    0.34083    1.000
    O134     O        0.15407    0.52453    0.31691    1.000
    O135     O        0.07287    0.35283    0.29336    1.000
    O136     O        0.94517    0.23043    0.29623    1.000
    C137     C        0.47223    0.64087    0.74606    1.000
    C138     C        0.50343    0.69567    0.72975    1.000
    C139     C        0.57703    0.73227    0.71930    1.000
    C140     C        0.66473    0.73847    0.71849    1.000
    C141     C        0.76393    0.83677    0.66122    1.000
    C142     C        0.68223    0.74847    0.65991    1.000
    C143     C        0.64493    0.67457    0.64981    1.000
    C144     C        0.66953    0.64057    0.63404    1.000
    Co18     Co       0.66129    0.83454    0.68949    1.000
    N103     N        0.44923    0.71897    0.72278    1.000
    N104     N        0.48393    0.76877    0.70878    1.000
    N105     N        0.56163    0.77727    0.70686    1.000
    N106     N        0.62203    0.73197    0.67301    1.000
    N107     N        0.55423    0.65387    0.67115    1.000
    N108     N        0.56693    0.61937    0.65729    1.000
    O137     O        0.39583    0.62217    0.75055    1.000
    O138     O        0.51893    0.61837    0.75358    1.000
    O139     O        0.68633    0.70187    0.72975    1.000
    O140     O        0.71263    0.78257    0.70584    1.000
    O141     O        0.76713    0.88217    0.67417    1.000
    O142     O        0.82073    0.85787    0.65025    1.000
    O143     O        0.73953    0.68617    0.62670    1.000
    O144     O        0.61183    0.56377    0.62957    1.000
    C145     C        0.13890    0.16470    0.57939    1.000
    C146     C        0.17010    0.14110    0.56308    1.000
    C147     C        0.24370    0.17810    0.55263    1.000
    C148     C        0.33140    0.25960    0.55182    1.000
    C149     C        0.43060    0.26050    0.49455    1.000
    C150     C        0.34890    0.26710    0.49324    1.000
    C151     C        0.31160    0.30370    0.48314    1.000
    C152     C        0.33620    0.36230    0.46737    1.000
    Co19     Co       0.32796    0.16009    0.52283    1.000
    N109     N        0.11590    0.06360    0.55611    1.000
    N110     N        0.15060    0.04850    0.54211    1.000
    N111     N        0.22830    0.11770    0.54019    1.000
    N112     N        0.28870    0.22340    0.50634    1.000
    N113     N        0.22090    0.23370    0.50448    1.000
    N114     N        0.23360    0.28090    0.49062    1.000
    O145     O        0.06250    0.10700    0.58388    1.000
    O146     O        0.18560    0.23390    0.58691    1.000
    O147     O        0.35300    0.31780    0.56308    1.000
    O148     O        0.37930    0.26340    0.53917    1.000
    O149     O        0.43380    0.21830    0.50750    1.000
    O150     O        0.48740    0.29620    0.48358    1.000
    O151     O        0.40620    0.38670    0.46003    1.000
    O152     O        0.27850    0.38140    0.46290    1.000
    C153     C        0.80557    0.49803    0.91272    1.000
    C154     C        0.83677    0.47443    0.89641    1.000
    C155     C        0.91037    0.51143    0.88596    1.000
    C156     C        0.99807    0.59293    0.88515    1.000
    C157     C        0.09727    0.59383    0.82788    1.000
    C158     C        0.01557    0.60043    0.82657    1.000
    C159     C        0.97827    0.63703    0.81647    1.000
    C160     C        0.00287    0.69563    0.80070    1.000
    Co20     Co       0.99463    0.49342    0.85616    1.000
    N115     N        0.78257    0.39693    0.88944    1.000
    N116     N        0.81727    0.38183    0.87544    1.000
    N117     N        0.89497    0.45103    0.87352    1.000
    N118     N        0.95537    0.55673    0.83967    1.000
    N119     N        0.88757    0.56703    0.83781    1.000
    N120     N        0.90027    0.61423    0.82395    1.000
    O153     O        0.72917    0.44033    0.91721    1.000
    O154     O        0.85227    0.56723    0.92024    1.000
    O155     O        0.01967    0.65113    0.89641    1.000
    O156     O        0.04597    0.59673    0.87250    1.000
    O157     O        0.10047    0.55163    0.84083    1.000
    O158     O        0.15407    0.62953    0.81691    1.000
    O159     O        0.07287    0.72003    0.79336    1.000
    O160     O        0.94517    0.71473    0.79623    1.000
    C161     C        0.47223    0.83137    0.24606    1.000
    C162     C        0.50343    0.80777    0.22975    1.000
    C163     C        0.57703    0.84477    0.21930    1.000
    C164     C        0.66473    0.92627    0.21849    1.000
    C165     C        0.76393    0.92717    0.16122    1.000
    C166     C        0.68223    0.93377    0.15991    1.000
    C167     C        0.64493    0.97037    0.14981    1.000
    C168     C        0.66953    0.02897    0.13404    1.000
    Co21     Co       0.66129    0.82676    0.18949    1.000
    N121     N        0.44923    0.73027    0.22278    1.000
    N122     N        0.48393    0.71517    0.20878    1.000
    N123     N        0.56163    0.78437    0.20686    1.000
    N124     N        0.62203    0.89007    0.17301    1.000
    N125     N        0.55423    0.90037    0.17115    1.000
    N126     N        0.56693    0.94757    0.15729    1.000
    O161     O        0.39583    0.77367    0.25055    1.000
    O162     O        0.51893    0.90057    0.25358    1.000
    O163     O        0.68633    0.98447    0.22975    1.000
    O164     O        0.71263    0.93007    0.20584    1.000
    O165     O        0.76713    0.88497    0.17417    1.000
    O166     O        0.82073    0.96287    0.15025    1.000
    O167     O        0.73953    0.05337    0.12670    1.000
    O168     O        0.61183    0.04807    0.12957    1.000
    C169     C        0.83530    0.97420    0.57939    1.000
    C170     C        0.85890    0.02900    0.56308    1.000
    C171     C        0.82190    0.06560    0.55263    1.000
    C172     C        0.74040    0.07180    0.55182    1.000
    C173     C        0.73950    0.17010    0.49455    1.000
    C174     C        0.73290    0.08180    0.49324    1.000
    C175     C        0.69630    0.00790    0.48314    1.000
    C176     C        0.63770    0.97390    0.46737    1.000
    Co22     Co       0.83991    0.16787    0.52283    1.000
    N127     N        0.93640    0.05230    0.55611    1.000
    N128     N        0.95150    0.10210    0.54211    1.000
    N129     N        0.88230    0.11060    0.54019    1.000
    N130     N        0.77660    0.06530    0.50634    1.000
    N131     N        0.76630    0.98720    0.50448    1.000
    N132     N        0.71910    0.95270    0.49062    1.000
    O169     O        0.89300    0.95550    0.58388    1.000
    O170     O        0.76610    0.95170    0.58691    1.000
    O171     O        0.68220    0.03520    0.56308    1.000
    O172     O        0.73660    0.11590    0.53917    1.000
    O173     O        0.78170    0.21550    0.50750    1.000
    O174     O        0.70380    0.19120    0.48358    1.000
    O175     O        0.61330    0.01950    0.46003    1.000
    O176     O        0.61860    0.89710    0.46290    1.000
    C177     C        0.50197    0.30753    0.91272    1.000
    C178     C        0.52557    0.36233    0.89641    1.000
    C179     C        0.48857    0.39893    0.88596    1.000
    C180     C        0.40707    0.40513    0.88515    1.000
    C181     C        0.40617    0.50343    0.82788    1.000
    C182     C        0.39957    0.41513    0.82657    1.000
    C183     C        0.36297    0.34123    0.81647    1.000
    C184     C        0.30437    0.30723    0.80070    1.000
    Co23     Co       0.50658    0.50120    0.85616    1.000
    N133     N        0.60307    0.38563    0.88944    1.000
    N134     N        0.61817    0.43543    0.87544    1.000
    N135     N        0.54897    0.44393    0.87352    1.000
    N136     N        0.44327    0.39863    0.83967    1.000
    N137     N        0.43297    0.32053    0.83781    1.000
    N138     N        0.38577    0.28603    0.82395    1.000
    O177     O        0.55967    0.28883    0.91721    1.000
    O178     O        0.43277    0.28503    0.92024    1.000
    O179     O        0.34887    0.36853    0.89641    1.000
    O180     O        0.40327    0.44923    0.87250    1.000
    O181     O        0.44837    0.54883    0.84083    1.000
    O182     O        0.37047    0.52453    0.81691    1.000
    O183     O        0.27997    0.35283    0.79336    1.000
    O184     O        0.28527    0.23043    0.79623    1.000
    C185     C        0.16863    0.64087    0.24606    1.000
    C186     C        0.19223    0.69567    0.22975    1.000
    C187     C        0.15523    0.73227    0.21930    1.000
    C188     C        0.07373    0.73847    0.21849    1.000
    C189     C        0.07283    0.83677    0.16122    1.000
    C190     C        0.06623    0.74847    0.15991    1.000
    C191     C        0.02963    0.67457    0.14981    1.000
    C192     C        0.97103    0.64057    0.13404    1.000
    Co24     Co       0.17324    0.83454    0.18949    1.000
    N139     N        0.26973    0.71897    0.22278    1.000
    N140     N        0.28483    0.76877    0.20878    1.000
    N141     N        0.21563    0.77727    0.20686    1.000
    N142     N        0.10993    0.73197    0.17301    1.000
    N143     N        0.09963    0.65387    0.17115    1.000
    N144     N        0.05243    0.61937    0.15729    1.000
    O185     O        0.22633    0.62217    0.25055    1.000
    O186     O        0.09943    0.61837    0.25358    1.000
    O187     O        0.01553    0.70187    0.22975    1.000
    O188     O        0.06993    0.78257    0.20584    1.000
    O189     O        0.11503    0.88217    0.17417    1.000
    O190     O        0.03713    0.85787    0.15025    1.000
    O191     O        0.94663    0.68617    0.12670    1.000
    O192     O        0.95193    0.56377    0.12957    1.000
    C193     C        0.02580    0.86110    0.57939    1.000
    C194     C        0.97100    0.82990    0.56308    1.000
    C195     C        0.93440    0.75630    0.55263    1.000
    C196     C        0.92820    0.66860    0.55182    1.000
    C197     C        0.82990    0.56940    0.49455    1.000
    C198     C        0.91820    0.65110    0.49324    1.000
    C199     C        0.99210    0.68840    0.48314    1.000
    C200     C        0.02610    0.66380    0.46737    1.000
    Co25     Co       0.83213    0.67204    0.52283    1.000
    N145     N        0.94770    0.88410    0.55611    1.000
    N146     N        0.89790    0.84940    0.54211    1.000
    N147     N        0.88940    0.77170    0.54019    1.000
    N148     N        0.93470    0.71130    0.50634    1.000
    N149     N        0.01280    0.77910    0.50448    1.000
    N150     N        0.04730    0.76640    0.49062    1.000
    O193     O        0.04450    0.93750    0.58388    1.000
    O194     O        0.04830    0.81440    0.58691    1.000
    O195     O        0.96480    0.64700    0.56308    1.000
    O196     O        0.88410    0.62070    0.53917    1.000
    O197     O        0.78450    0.56620    0.50750    1.000
    O198     O        0.80880    0.51260    0.48358    1.000
    O199     O        0.98050    0.59380    0.46003    1.000
    O200     O        0.10290    0.72150    0.46290    1.000
    C201     C        0.69247    0.19443    0.91272    1.000
    C202     C        0.63767    0.16323    0.89641    1.000
    C203     C        0.60107    0.08963    0.88596    1.000
    C204     C        0.59487    0.00193    0.88515    1.000
    C205     C        0.49657    0.90273    0.82788    1.000
    C206     C        0.58487    0.98443    0.82657    1.000
    C207     C        0.65877    0.02173    0.81647    1.000
    C208     C        0.69277    0.99713    0.80070    1.000
    Co26     Co       0.49880    0.00537    0.85616    1.000
    N151     N        0.61437    0.21743    0.88944    1.000
    N152     N        0.56457    0.18273    0.87544    1.000
    N153     N        0.55607    0.10503    0.87352    1.000
    N154     N        0.60137    0.04463    0.83967    1.000
    N155     N        0.67947    0.11243    0.83781    1.000
    N156     N        0.71397    0.09973    0.82395    1.000
    O201     O        0.71117    0.27083    0.91721    1.000
    O202     O        0.71497    0.14773    0.92024    1.000
    O203     O        0.63147    0.98033    0.89641    1.000
    O204     O        0.55077    0.95403    0.87250    1.000
    O205     O        0.45117    0.89953    0.84083    1.000
    O206     O        0.47547    0.84593    0.81691    1.000
    O207     O        0.64717    0.92713    0.79336    1.000
    O208     O        0.76957    0.05483    0.79623    1.000
    C209     C        0.35913    0.52777    0.24606    1.000
    C210     C        0.30433    0.49657    0.22975    1.000
    C211     C        0.26773    0.42297    0.21930    1.000
    C212     C        0.26153    0.33527    0.21849    1.000
    C213     C        0.16323    0.23607    0.16122    1.000
    C214     C        0.25153    0.31777    0.15991    1.000
    C215     C        0.32543    0.35507    0.14981    1.000
    C216     C        0.35943    0.33047    0.13404    1.000
    Co27     Co       0.16546    0.33871    0.18949    1.000
    N157     N        0.28103    0.55077    0.22278    1.000
    N158     N        0.23123    0.51607    0.20878    1.000
    N159     N        0.22273    0.43837    0.20686    1.000
    N160     N        0.26803    0.37797    0.17301    1.000
    N161     N        0.34613    0.44577    0.17115    1.000
    N162     N        0.38063    0.43307    0.15729    1.000
    O209     O        0.37783    0.60417    0.25055    1.000
    O210     O        0.38163    0.48107    0.25358    1.000
    O211     O        0.29813    0.31367    0.22975    1.000
    O212     O        0.21743    0.28737    0.20584    1.000
    O213     O        0.11783    0.23287    0.17417    1.000
    O214     O        0.14213    0.17927    0.15025    1.000
    O215     O        0.31383    0.26047    0.12670    1.000
    O216     O        0.43623    0.38817    0.12957    1.000
    C217     C        0.16470    0.13890    0.92061    1.000
    C218     C        0.14110    0.17010    0.93692    1.000
    C219     C        0.17810    0.24370    0.94737    1.000
    C220     C        0.25960    0.33140    0.94818    1.000
    C221     C        0.26050    0.43060    0.00545    1.000
    C222     C        0.26710    0.34890    0.00676    1.000
    C223     C        0.30370    0.31160    0.01686    1.000
    C224     C        0.36230    0.33620    0.03263    1.000
    Co28     Co       0.16009    0.32796    0.97717    1.000
    N163     N        0.06360    0.11590    0.94389    1.000
    N164     N        0.04850    0.15060    0.95789    1.000
    N165     N        0.11770    0.22830    0.95981    1.000
    N166     N        0.22340    0.28870    0.99366    1.000
    N167     N        0.23370    0.22090    0.99552    1.000
    N168     N        0.28090    0.23360    0.00938    1.000
    O217     O        0.10700    0.06250    0.91612    1.000
    O218     O        0.23390    0.18560    0.91309    1.000
    O219     O        0.31780    0.35300    0.93692    1.000
    O220     O        0.26340    0.37930    0.96083    1.000
    O221     O        0.21830    0.43380    0.99250    1.000
    O222     O        0.29620    0.48740    0.01642    1.000
    O223     O        0.38670    0.40620    0.03997    1.000
    O224     O        0.38140    0.27850    0.03710    1.000
    C225     C        0.83137    0.47223    0.25394    1.000
    C226     C        0.80777    0.50343    0.27025    1.000
    C227     C        0.84477    0.57703    0.28070    1.000
    C228     C        0.92627    0.66473    0.28151    1.000
    C229     C        0.92717    0.76393    0.33878    1.000
    C230     C        0.93377    0.68223    0.34009    1.000
    C231     C        0.97037    0.64493    0.35019    1.000
    C232     C        0.02897    0.66953    0.36596    1.000
    Co29     Co       0.82676    0.66129    0.31051    1.000
    N169     N        0.73027    0.44923    0.27722    1.000
    N170     N        0.71517    0.48393    0.29122    1.000
    N171     N        0.78437    0.56163    0.29314    1.000
    N172     N        0.89007    0.62203    0.32699    1.000
    N173     N        0.90037    0.55423    0.32885    1.000
    N174     N        0.94757    0.56693    0.34271    1.000
    O225     O        0.77367    0.39583    0.24945    1.000
    O226     O        0.90057    0.51893    0.24642    1.000
    O227     O        0.98447    0.68633    0.27025    1.000
    O228     O        0.93007    0.71263    0.29416    1.000
    O229     O        0.88497    0.76713    0.32583    1.000
    O230     O        0.96287    0.82073    0.34975    1.000
    O231     O        0.05337    0.73953    0.37330    1.000
    O232     O        0.04807    0.61183    0.37043    1.000
    C233     C        0.49803    0.80557    0.58728    1.000
    C234     C        0.47443    0.83677    0.60359    1.000
    C235     C        0.51143    0.91037    0.61404    1.000
    C236     C        0.59293    0.99807    0.61485    1.000
    C237     C        0.59383    0.09727    0.67212    1.000
    C238     C        0.60043    0.01557    0.67343    1.000
    C239     C        0.63703    0.97827    0.68353    1.000
    C240     C        0.69563    0.00287    0.69930    1.000
    Co30     Co       0.49342    0.99463    0.64384    1.000
    N175     N        0.39693    0.78257    0.61056    1.000
    N176     N        0.38183    0.81727    0.62456    1.000
    N177     N        0.45103    0.89497    0.62648    1.000
    N178     N        0.55673    0.95537    0.66033    1.000
    N179     N        0.56703    0.88757    0.66219    1.000
    N180     N        0.61423    0.90027    0.67605    1.000
    O233     O        0.44033    0.72917    0.58279    1.000
    O234     O        0.56723    0.85227    0.57976    1.000
    O235     O        0.65113    0.01967    0.60359    1.000
    O236     O        0.59673    0.04597    0.62750    1.000
    O237     O        0.55163    0.10047    0.65917    1.000
    O238     O        0.62953    0.15407    0.68309    1.000
    O239     O        0.72003    0.07287    0.70664    1.000
    O240     O        0.71473    0.94517    0.70377    1.000
    C241     C        0.97420    0.83530    0.92061    1.000
    C242     C        0.02900    0.85890    0.93692    1.000
    C243     C        0.06560    0.82190    0.94737    1.000
    C244     C        0.07180    0.74040    0.94818    1.000
    C245     C        0.17010    0.73950    0.00545    1.000
    C246     C        0.08180    0.73290    0.00676    1.000
    C247     C        0.00790    0.69630    0.01686    1.000
    C248     C        0.97390    0.63770    0.03263    1.000
    Co31     Co       0.16787    0.83991    0.97717    1.000
    N181     N        0.05230    0.93640    0.94389    1.000
    N182     N        0.10210    0.95150    0.95789    1.000
    N183     N        0.11060    0.88230    0.95981    1.000
    N184     N        0.06530    0.77660    0.99366    1.000
    N185     N        0.98720    0.76630    0.99552    1.000
    N186     N        0.95270    0.71910    0.00938    1.000
    O241     O        0.95550    0.89300    0.91612    1.000
    O242     O        0.95170    0.76610    0.91309    1.000
    O243     O        0.03520    0.68220    0.93692    1.000
    O244     O        0.11590    0.73660    0.96083    1.000
    O245     O        0.21550    0.78170    0.99250    1.000
    O246     O        0.19120    0.70380    0.01642    1.000
    O247     O        0.01950    0.61330    0.03997    1.000
    O248     O        0.89710    0.61860    0.03710    1.000
    C249     C        0.64087    0.16863    0.25394    1.000
    C250     C        0.69567    0.19223    0.27025    1.000
    C251     C        0.73227    0.15523    0.28070    1.000
    C252     C        0.73847    0.07373    0.28151    1.000
    C253     C        0.83677    0.07283    0.33878    1.000
    C254     C        0.74847    0.06623    0.34009    1.000
    C255     C        0.67457    0.02963    0.35019    1.000
    C256     C        0.64057    0.97103    0.36596    1.000
    Co32     Co       0.83454    0.17324    0.31051    1.000
    N187     N        0.71897    0.26973    0.27722    1.000
    N188     N        0.76877    0.28483    0.29122    1.000
    N189     N        0.77727    0.21563    0.29314    1.000
    N190     N        0.73197    0.10993    0.32699    1.000
    N191     N        0.65387    0.09963    0.32885    1.000
    N192     N        0.61937    0.05243    0.34271    1.000
    O249     O        0.62217    0.22633    0.24945    1.000
    O250     O        0.61837    0.09943    0.24642    1.000
    O251     O        0.70187    0.01553    0.27025    1.000
    O252     O        0.78257    0.06993    0.29416    1.000
    O253     O        0.88217    0.11503    0.32583    1.000
    O254     O        0.85787    0.03713    0.34975    1.000
    O255     O        0.68617    0.94663    0.37330    1.000
    O256     O        0.56377    0.95193    0.37043    1.000
    C257     C        0.30753    0.50197    0.58728    1.000
    C258     C        0.36233    0.52557    0.60359    1.000
    C259     C        0.39893    0.48857    0.61404    1.000
    C260     C        0.40513    0.40707    0.61485    1.000
    C261     C        0.50343    0.40617    0.67212    1.000
    C262     C        0.41513    0.39957    0.67343    1.000
    C263     C        0.34123    0.36297    0.68353    1.000
    C264     C        0.30723    0.30437    0.69930    1.000
    Co33     Co       0.50120    0.50658    0.64384    1.000
    N193     N        0.38563    0.60307    0.61056    1.000
    N194     N        0.43543    0.61817    0.62456    1.000
    N195     N        0.44393    0.54897    0.62648    1.000
    N196     N        0.39863    0.44327    0.66033    1.000
    N197     N        0.32053    0.43297    0.66219    1.000
    N198     N        0.28603    0.38577    0.67605    1.000
    O257     O        0.28883    0.55967    0.58279    1.000
    O258     O        0.28503    0.43277    0.57976    1.000
    O259     O        0.36853    0.34887    0.60359    1.000
    O260     O        0.44923    0.40327    0.62750    1.000
    O261     O        0.54883    0.44837    0.65917    1.000
    O262     O        0.52453    0.37047    0.68309    1.000
    O263     O        0.35283    0.27997    0.70664    1.000
    O264     O        0.23043    0.28527    0.70377    1.000
    C265     C        0.86110    0.02580    0.92061    1.000
    C266     C        0.82990    0.97100    0.93692    1.000
    C267     C        0.75630    0.93440    0.94737    1.000
    C268     C        0.66860    0.92820    0.94818    1.000
    C269     C        0.56940    0.82990    0.00545    1.000
    C270     C        0.65110    0.91820    0.00676    1.000
    C271     C        0.68840    0.99210    0.01686    1.000
    C272     C        0.66380    0.02610    0.03263    1.000
    Co34     Co       0.67204    0.83213    0.97717    1.000
    N199     N        0.88410    0.94770    0.94389    1.000
    N200     N        0.84940    0.89790    0.95789    1.000
    N201     N        0.77170    0.88940    0.95981    1.000
    N202     N        0.71130    0.93470    0.99366    1.000
    N203     N        0.77910    0.01280    0.99552    1.000
    N204     N        0.76640    0.04730    0.00938    1.000
    O265     O        0.93750    0.04450    0.91612    1.000
    O266     O        0.81440    0.04830    0.91309    1.000
    O267     O        0.64700    0.96480    0.93692    1.000
    O268     O        0.62070    0.88410    0.96083    1.000
    O269     O        0.56620    0.78450    0.99250    1.000
    O270     O        0.51260    0.80880    0.01642    1.000
    O271     O        0.59380    0.98050    0.03997    1.000
    O272     O        0.72150    0.10290    0.03710    1.000
    C273     C        0.52777    0.35913    0.25394    1.000
    C274     C        0.49657    0.30433    0.27025    1.000
    C275     C        0.42297    0.26773    0.28070    1.000
    C276     C        0.33527    0.26153    0.28151    1.000
    C277     C        0.23607    0.16323    0.33878    1.000
    C278     C        0.31777    0.25153    0.34009    1.000
    C279     C        0.35507    0.32543    0.35019    1.000
    C280     C        0.33047    0.35943    0.36596    1.000
    Co35     Co       0.33871    0.16546    0.31051    1.000
    N205     N        0.55077    0.28103    0.27722    1.000
    N206     N        0.51607    0.23123    0.29122    1.000
    N207     N        0.43837    0.22273    0.29314    1.000
    N208     N        0.37797    0.26803    0.32699    1.000
    N209     N        0.44577    0.34613    0.32885    1.000
    N210     N        0.43307    0.38063    0.34271    1.000
    O273     O        0.60417    0.37783    0.24945    1.000
    O274     O        0.48107    0.38163    0.24642    1.000
    O275     O        0.31367    0.29813    0.27025    1.000
    O276     O        0.28737    0.21743    0.29416    1.000
    O277     O        0.23287    0.11783    0.32583    1.000
    O278     O        0.17927    0.14213    0.34975    1.000
    O279     O        0.26047    0.31383    0.37330    1.000
    O280     O        0.38817    0.43623    0.37043    1.000
    C281     C        0.19443    0.69247    0.58728    1.000
    C282     C        0.16323    0.63767    0.60359    1.000
    C283     C        0.08963    0.60107    0.61404    1.000
    C284     C        0.00193    0.59487    0.61485    1.000
    C285     C        0.90273    0.49657    0.67212    1.000
    C286     C        0.98443    0.58487    0.67343    1.000
    C287     C        0.02173    0.65877    0.68353    1.000
    C288     C        0.99713    0.69277    0.69930    1.000
    Co36     Co       0.00537    0.49880    0.64384    1.000
    N211     N        0.21743    0.61437    0.61056    1.000
    N212     N        0.18273    0.56457    0.62456    1.000
    N213     N        0.10503    0.55607    0.62648    1.000
    N214     N        0.04463    0.60137    0.66033    1.000
    N215     N        0.11243    0.67947    0.66219    1.000
    N216     N        0.09973    0.71397    0.67605    1.000
    O281     O        0.27083    0.71117    0.58279    1.000
    O282     O        0.14773    0.71497    0.57976    1.000
    O283     O        0.98033    0.63147    0.60359    1.000
    O284     O        0.95403    0.55077    0.62750    1.000
    O285     O        0.89953    0.45117    0.65917    1.000
    O286     O        0.84593    0.47547    0.68309    1.000
    O287     O        0.92713    0.64717    0.70664    1.000
    O288     O        0.05483    0.76957    0.70377    1.000
    Co37     Co       0.00000    0.00000    0.43120    1.000
    Co38     Co       0.66667    0.33333    0.76453    1.000
    Co39     Co       0.33333    0.66667    0.09786    1.000
    Co40     Co       0.00000    0.00000    0.06880    1.000
    Co41     Co       0.66667    0.33333    0.40214    1.000
    Co42     Co       0.33333    0.66667    0.73547    1.000
    Co43     Co       0.00000    0.00000    0.56880    1.000
    Co44     Co       0.66667    0.33333    0.90214    1.000
    Co45     Co       0.33333    0.66667    0.23547    1.000
    Co46     Co       0.00000    0.00000    0.93120    1.000
    Co47     Co       0.66667    0.33333    0.26453    1.000
    Co48     Co       0.33333    0.66667    0.59786    1.000
    Li1      Li       0.70118    0.66667    0.41667    1.000
    Li2      Li       0.36785    0.00000    0.75000    1.000
    Li3      Li       0.33333    0.03452    0.41667    1.000
    Li4      Li       0.00000    0.36785    0.75000    1.000
    Li5      Li       0.96548    0.29882    0.41667    1.000
    Li6      Li       0.63215    0.63215    0.75000    1.000
    Li7      Li       0.66667    0.70118    0.08333    1.000
    Li8      Li       0.03452    0.33333    0.08333    1.000
    Li9      Li       0.29882    0.96548    0.08333    1.000
    Li10     Li       0.29882    0.33333    0.58333    1.000
    Li11     Li       0.66667    0.96548    0.58333    1.000
    Li12     Li       0.03452    0.70118    0.58333    1.000
    Li13     Li       0.33333    0.29882    0.91667    1.000
    Li14     Li       0.00000    0.63215    0.25000    1.000
    Li15     Li       0.96548    0.66667    0.91667    1.000
    Li16     Li       0.63215    0.00000    0.25000    1.000
    Li17     Li       0.70118    0.03452    0.91667    1.000
    Li18     Li       0.36785    0.36785    0.25000    1.000
