# CIF file generated by openbabel 3.1.0, see https://openbabel.org
data_I
_chemical_name_common 'image0'
_cell_length_a 37.023
_cell_length_b 37.023
_cell_length_c 29.896
_cell_angle_alpha 90
_cell_angle_beta 90
_cell_angle_gamma 120
_space_group_name_H-M_alt 'P 1'
_space_group_name_Hall 'P 1'
loop_
    _symmetry_equiv_pos_as_xyz
    x,y,z
loop_
    _atom_site_label
    _atom_site_type_symbol
    _atom_site_fract_x
    _atom_site_fract_y
    _atom_site_fract_z
    _atom_site_occupancy
    Zn1      Zn       0.37547    0.65418    0.72335    1.000
    Zn2      Zn       0.16291    0.37182    0.29486    1.000
    Zn3      Zn       0.18905    0.30356    0.27877    1.000
    O1       O        0.23140    0.35570    0.32660    1.000
    O2       O        0.18360    0.36580    0.34890    1.000
    O3       O        0.18130    0.32530    0.36130    1.000
    O4       O        0.20290    0.31930    0.34250    1.000
    O5       O        0.41140    0.66210    0.77080    1.000
    O6       O        0.35810    0.60290    0.70400    1.000
    O7       O        0.32460    0.61580    0.66140    1.000
    O8       O        0.29600    0.57900    0.69000    1.000
    O9       O        0.12300    0.36580    0.26270    1.000
    O10      O        0.10760    0.35320    0.30810    1.000
    O11      O        0.08720    0.30220    0.32070    1.000
    O12      O        0.23710    0.30510    0.24660    1.000
    O13      O        0.12850    0.23400    0.21880    1.000
    O14      O        0.14420    0.24090    0.27320    1.000
    O15      O        0.18060    0.42330    0.24920    1.000
    O16      O        0.19390    0.42870    0.27720    1.000
    C1       C        0.27090    0.38610    0.54130    1.000
    C2       C        0.27930    0.42570    0.55570    1.000
    C3       C        0.29620    0.42920    0.60160    1.000
    C4       C        0.29940    0.40320    0.62950    1.000
    C5       C        0.29200    0.36360    0.60930    1.000
    C6       C        0.27560    0.35280    0.56380    1.000
    C7       C        0.29990    0.46600    0.62310    1.000
    C8       C        0.28020    0.48990    0.61020    1.000
    C9       C        0.29260    0.52860    0.63430    1.000
    C10      C        0.32030    0.55100    0.67110    1.000
    C11      C        0.33770    0.52440    0.67870    1.000
    C12      C        0.32970    0.48510    0.65930    1.000
    C13      C        0.28430    0.32210    0.67890    1.000
    C14      C        0.32160    0.28230    0.63720    1.000
    C15      C        0.29810    0.29760    0.61300    1.000
    C16      C        0.30590    0.33510    0.63620    1.000
    C17      C        0.24620    0.36990    0.49580    1.000
    C18      C        0.23140    0.32990    0.47400    1.000
    C19      C        0.21650    0.32200    0.42820    1.000
    C20      C        0.22600    0.36000    0.40460    1.000
    C21      C        0.21650    0.38690    0.43150    1.000
    C22      C        0.24830    0.40170    0.46590    1.000
    C23      C        0.20870    0.35590    0.35720    1.000
    C24      C        0.33430    0.59580    0.68450    1.000
    C25      C        0.07860    0.32840    0.29070    1.000
    C26      C        0.24980    0.55320    0.27200    1.000
    C27      C        0.22560    0.51020    0.26020    1.000
    C28      C        0.29610    0.29680    0.70570    1.000
    C29      C        0.31530    0.27510    0.68470    1.000
    Zn4      Zn       0.15468    0.29069    0.19846    1.000
    Zn5      Zn       0.22195    0.36196    0.26189    1.000
    Zn6      Zn       0.34582    0.72129    0.72335    1.000
    Zn7      Zn       0.62818    0.79109    0.29486    1.000
    Zn8      Zn       0.69644    0.88549    0.27877    1.000
    O17      O        0.64430    0.87570    0.32660    1.000
    O18      O        0.63420    0.81780    0.34890    1.000
    O19      O        0.67470    0.85600    0.36130    1.000
    O20      O        0.68070    0.88360    0.34250    1.000
    O21      O        0.33790    0.74930    0.77080    1.000
    O22      O        0.39710    0.75520    0.70400    1.000
    O23      O        0.38420    0.70880    0.66140    1.000
    O24      O        0.42100    0.71700    0.69000    1.000
    O25      O        0.63420    0.75720    0.26270    1.000
    O26      O        0.64680    0.75440    0.30810    1.000
    O27      O        0.69780    0.78500    0.32070    1.000
    O28      O        0.69490    0.93200    0.24660    1.000
    O29      O        0.76600    0.89450    0.21880    1.000
    O30      O        0.75910    0.90330    0.27320    1.000
    O31      O        0.57670    0.75730    0.24920    1.000
    O32      O        0.57130    0.76520    0.27720    1.000
    C30      C        0.61390    0.88480    0.54130    1.000
    C31      C        0.57430    0.85360    0.55570    1.000
    C32      C        0.57080    0.86700    0.60160    1.000
    C33      C        0.59680    0.89620    0.62950    1.000
    C34      C        0.63640    0.92840    0.60930    1.000
    C35      C        0.64720    0.92280    0.56380    1.000
    C36      C        0.53400    0.83390    0.62310    1.000
    C37      C        0.51010    0.79030    0.61020    1.000
    C38      C        0.47140    0.76400    0.63430    1.000
    C39      C        0.44900    0.76930    0.67110    1.000
    C40      C        0.47560    0.81330    0.67870    1.000
    C41      C        0.51490    0.84460    0.65930    1.000
    C42      C        0.67790    0.96220    0.67890    1.000
    C43      C        0.71770    0.03930    0.63720    1.000
    C44      C        0.70240    0.00050    0.61300    1.000
    C45      C        0.66490    0.97080    0.63620    1.000
    C46      C        0.63010    0.87630    0.49580    1.000
    C47      C        0.67010    0.90150    0.47400    1.000
    C48      C        0.67800    0.89450    0.42820    1.000
    C49      C        0.64000    0.86600    0.40460    1.000
    C50      C        0.61310    0.82960    0.43150    1.000
    C51      C        0.59830    0.84660    0.46590    1.000
    C52      C        0.64410    0.85280    0.35720    1.000
    C53      C        0.40420    0.73850    0.68450    1.000
    C54      C        0.67160    0.75020    0.29070    1.000
    C55      C        0.44680    0.69660    0.27200    1.000
    C56      C        0.48980    0.71540    0.26020    1.000
    C57      C        0.70320    0.99930    0.70570    1.000
    C58      C        0.72490    0.04020    0.68470    1.000
    Zn9      Zn       0.70931    0.86399    0.19846    1.000
    Zn10     Zn       0.63804    0.85999    0.26189    1.000
    Zn11     Zn       0.27871    0.62453    0.72335    1.000
    Zn12     Zn       0.20891    0.83709    0.29486    1.000
    Zn13     Zn       0.11451    0.81095    0.27877    1.000
    O33      O        0.12430    0.76860    0.32660    1.000
    O34      O        0.18220    0.81640    0.34890    1.000
    O35      O        0.14400    0.81870    0.36130    1.000
    O36      O        0.11640    0.79710    0.34250    1.000
    O37      O        0.25070    0.58860    0.77080    1.000
    O38      O        0.24480    0.64190    0.70400    1.000
    O39      O        0.29120    0.67540    0.66140    1.000
    O40      O        0.28300    0.70400    0.69000    1.000
    O41      O        0.24280    0.87700    0.26270    1.000
    O42      O        0.24560    0.89240    0.30810    1.000
    O43      O        0.21500    0.91280    0.32070    1.000
    O44      O        0.06800    0.76290    0.24660    1.000
    O45      O        0.10550    0.87150    0.21880    1.000
    O46      O        0.09670    0.85580    0.27320    1.000
    O47      O        0.24270    0.81940    0.24920    1.000
    O48      O        0.23480    0.80610    0.27720    1.000
    C59      C        0.11520    0.72910    0.54130    1.000
    C60      C        0.14640    0.72070    0.55570    1.000
    C61      C        0.13300    0.70380    0.60160    1.000
    C62      C        0.10380    0.70060    0.62950    1.000
    C63      C        0.07160    0.70800    0.60930    1.000
    C64      C        0.07720    0.72440    0.56380    1.000
    C65      C        0.16610    0.70010    0.62310    1.000
    C66      C        0.20970    0.71980    0.61020    1.000
    C67      C        0.23600    0.70740    0.63430    1.000
    C68      C        0.23070    0.67970    0.67110    1.000
    C69      C        0.18670    0.66230    0.67870    1.000
    C70      C        0.15540    0.67030    0.65930    1.000
    C71      C        0.03780    0.71570    0.67890    1.000
    C72      C        0.96070    0.67840    0.63720    1.000
    C73      C        0.99950    0.70190    0.61300    1.000
    C74      C        0.02920    0.69410    0.63620    1.000
    C75      C        0.12370    0.75380    0.49580    1.000
    C76      C        0.09850    0.76860    0.47400    1.000
    C77      C        0.10550    0.78350    0.42820    1.000
    C78      C        0.13400    0.77400    0.40460    1.000
    C79      C        0.17040    0.78350    0.43150    1.000
    C80      C        0.15340    0.75170    0.46590    1.000
    C81      C        0.14720    0.79130    0.35720    1.000
    C82      C        0.26150    0.66570    0.68450    1.000
    C83      C        0.24980    0.92140    0.29070    1.000
    C84      C        0.30340    0.75020    0.27200    1.000
    C85      C        0.28460    0.77440    0.26020    1.000
    C86      C        0.00070    0.70390    0.70570    1.000
    C87      C        0.95980    0.68470    0.68470    1.000
    Zn14     Zn       0.13601    0.84532    0.19846    1.000
    Zn15     Zn       0.14001    0.77805    0.26189    1.000
    Zn16     Zn       0.34582    0.62453    0.77665    1.000
    Zn17     Zn       0.62818    0.83709    0.20514    1.000
    Zn18     Zn       0.69644    0.81095    0.22123    1.000
    O49      O        0.64430    0.76860    0.17340    1.000
    O50      O        0.63420    0.81640    0.15110    1.000
    O51      O        0.67470    0.81870    0.13870    1.000
    O52      O        0.68070    0.79710    0.15750    1.000
    O53      O        0.33790    0.58860    0.72920    1.000
    O54      O        0.39710    0.64190    0.79600    1.000
    O55      O        0.38420    0.67540    0.83860    1.000
    O56      O        0.42100    0.70400    0.81000    1.000
    O57      O        0.63420    0.87700    0.23730    1.000
    O58      O        0.64680    0.89240    0.19190    1.000
    O59      O        0.69780    0.91280    0.17930    1.000
    O60      O        0.69490    0.76290    0.25340    1.000
    O61      O        0.76600    0.87150    0.28120    1.000
    O62      O        0.75910    0.85580    0.22680    1.000
    O63      O        0.57670    0.81940    0.25080    1.000
    O64      O        0.57130    0.80610    0.22280    1.000
    C88      C        0.61390    0.72910    0.95870    1.000
    C89      C        0.57430    0.72070    0.94430    1.000
    C90      C        0.57080    0.70380    0.89840    1.000
    C91      C        0.59680    0.70060    0.87050    1.000
    C92      C        0.63640    0.70800    0.89070    1.000
    C93      C        0.64720    0.72440    0.93620    1.000
    C94      C        0.53400    0.70010    0.87690    1.000
    C95      C        0.51010    0.71980    0.88980    1.000
    C96      C        0.47140    0.70740    0.86570    1.000
    C97      C        0.44900    0.67970    0.82890    1.000
    C98      C        0.47560    0.66230    0.82130    1.000
    C99      C        0.51490    0.67030    0.84070    1.000
    C100     C        0.67790    0.71570    0.82110    1.000
    C101     C        0.71770    0.67840    0.86280    1.000
    C102     C        0.70240    0.70190    0.88700    1.000
    C103     C        0.66490    0.69410    0.86380    1.000
    C104     C        0.63010    0.75380    0.00420    1.000
    C105     C        0.67010    0.76860    0.02600    1.000
    C106     C        0.67800    0.78350    0.07180    1.000
    C107     C        0.64000    0.77400    0.09540    1.000
    C108     C        0.61310    0.78350    0.06850    1.000
    C109     C        0.59830    0.75170    0.03410    1.000
    C110     C        0.64410    0.79130    0.14280    1.000
    C111     C        0.40420    0.66570    0.81550    1.000
    C112     C        0.67160    0.92140    0.20930    1.000
    C113     C        0.44680    0.75020    0.22800    1.000
    C114     C        0.48980    0.77440    0.23980    1.000
    C115     C        0.70320    0.70390    0.79430    1.000
    C116     C        0.72490    0.68470    0.81530    1.000
    Zn19     Zn       0.70931    0.84532    0.30154    1.000
    Zn20     Zn       0.63804    0.77805    0.23811    1.000
    Zn21     Zn       0.27871    0.65418    0.77665    1.000
    Zn22     Zn       0.20891    0.37182    0.20514    1.000
    Zn23     Zn       0.11451    0.30356    0.22123    1.000
    O65      O        0.12430    0.35570    0.17340    1.000
    O66      O        0.18220    0.36580    0.15110    1.000
    O67      O        0.14400    0.32530    0.13870    1.000
    O68      O        0.11640    0.31930    0.15750    1.000
    O69      O        0.25070    0.66210    0.72920    1.000
    O70      O        0.24480    0.60290    0.79600    1.000
    O71      O        0.29120    0.61580    0.83860    1.000
    O72      O        0.28300    0.57900    0.81000    1.000
    O73      O        0.24280    0.36580    0.23730    1.000
    O74      O        0.24560    0.35320    0.19190    1.000
    O75      O        0.21500    0.30220    0.17930    1.000
    O76      O        0.06800    0.30510    0.25340    1.000
    O77      O        0.10550    0.23400    0.28120    1.000
    O78      O        0.09670    0.24090    0.22680    1.000
    O79      O        0.24270    0.42330    0.25080    1.000
    O80      O        0.23480    0.42870    0.22280    1.000
    C117     C        0.11520    0.38610    0.95870    1.000
    C118     C        0.14640    0.42570    0.94430    1.000
    C119     C        0.13300    0.42920    0.89840    1.000
    C120     C        0.10380    0.40320    0.87050    1.000
    C121     C        0.07160    0.36360    0.89070    1.000
    C122     C        0.07720    0.35280    0.93620    1.000
    C123     C        0.16610    0.46600    0.87690    1.000
    C124     C        0.20970    0.48990    0.88980    1.000
    C125     C        0.23600    0.52860    0.86570    1.000
    C126     C        0.23070    0.55100    0.82890    1.000
    C127     C        0.18670    0.52440    0.82130    1.000
    C128     C        0.15540    0.48510    0.84070    1.000
    C129     C        0.03780    0.32210    0.82110    1.000
    C130     C        0.96070    0.28230    0.86280    1.000
    C131     C        0.99950    0.29760    0.88700    1.000
    C132     C        0.02920    0.33510    0.86380    1.000
    C133     C        0.12370    0.36990    0.00420    1.000
    C134     C        0.09850    0.32990    0.02600    1.000
    C135     C        0.10550    0.32200    0.07180    1.000
    C136     C        0.13400    0.36000    0.09540    1.000
    C137     C        0.17040    0.38690    0.06850    1.000
    C138     C        0.15340    0.40170    0.03410    1.000
    C139     C        0.14720    0.35590    0.14280    1.000
    C140     C        0.26150    0.59580    0.81550    1.000
    C141     C        0.24980    0.32840    0.20930    1.000
    C142     C        0.30340    0.55320    0.22800    1.000
    C143     C        0.28460    0.51020    0.23980    1.000
    C144     C        0.00070    0.29680    0.79430    1.000
    C145     C        0.95980    0.27510    0.81530    1.000
    Zn24     Zn       0.13601    0.29069    0.30154    1.000
    Zn25     Zn       0.14001    0.36196    0.23811    1.000
    Zn26     Zn       0.37547    0.72129    0.77665    1.000
    Zn27     Zn       0.16291    0.79109    0.20514    1.000
    Zn28     Zn       0.18905    0.88549    0.22123    1.000
    O81      O        0.23140    0.87570    0.17340    1.000
    O82      O        0.18360    0.81780    0.15110    1.000
    O83      O        0.18130    0.85600    0.13870    1.000
    O84      O        0.20290    0.88360    0.15750    1.000
    O85      O        0.41140    0.74930    0.72920    1.000
    O86      O        0.35810    0.75520    0.79600    1.000
    O87      O        0.32460    0.70880    0.83860    1.000
    O88      O        0.29600    0.71700    0.81000    1.000
    O89      O        0.12300    0.75720    0.23730    1.000
    O90      O        0.10760    0.75440    0.19190    1.000
    O91      O        0.08720    0.78500    0.17930    1.000
    O92      O        0.23710    0.93200    0.25340    1.000
    O93      O        0.12850    0.89450    0.28120    1.000
    O94      O        0.14420    0.90330    0.22680    1.000
    O95      O        0.18060    0.75730    0.25080    1.000
    O96      O        0.19390    0.76520    0.22280    1.000
    C146     C        0.27090    0.88480    0.95870    1.000
    C147     C        0.27930    0.85360    0.94430    1.000
    C148     C        0.29620    0.86700    0.89840    1.000
    C149     C        0.29940    0.89620    0.87050    1.000
    C150     C        0.29200    0.92840    0.89070    1.000
    C151     C        0.27560    0.92280    0.93620    1.000
    C152     C        0.29990    0.83390    0.87690    1.000
    C153     C        0.28020    0.79030    0.88980    1.000
    C154     C        0.29260    0.76400    0.86570    1.000
    C155     C        0.32030    0.76930    0.82890    1.000
    C156     C        0.33770    0.81330    0.82130    1.000
    C157     C        0.32970    0.84460    0.84070    1.000
    C158     C        0.28430    0.96220    0.82110    1.000
    C159     C        0.32160    0.03930    0.86280    1.000
    C160     C        0.29810    0.00050    0.88700    1.000
    C161     C        0.30590    0.97080    0.86380    1.000
    C162     C        0.24620    0.87630    0.00420    1.000
    C163     C        0.23140    0.90150    0.02600    1.000
    C164     C        0.21650    0.89450    0.07180    1.000
    C165     C        0.22600    0.86600    0.09540    1.000
    C166     C        0.21650    0.82960    0.06850    1.000
    C167     C        0.24830    0.84660    0.03410    1.000
    C168     C        0.20870    0.85280    0.14280    1.000
    C169     C        0.33430    0.73850    0.81550    1.000
    C170     C        0.07860    0.75020    0.20930    1.000
    C171     C        0.24980    0.69660    0.22800    1.000
    C172     C        0.22560    0.71540    0.23980    1.000
    C173     C        0.29610    0.99930    0.79430    1.000
    C174     C        0.31530    0.04020    0.81530    1.000
    Zn29     Zn       0.15468    0.86399    0.30154    1.000
    Zn30     Zn       0.22195    0.85999    0.23811    1.000
    Zn31     Zn       0.62453    0.34582    0.27665    1.000
    Zn32     Zn       0.83709    0.62818    0.70514    1.000
    Zn33     Zn       0.81095    0.69644    0.72123    1.000
    O97      O        0.76860    0.64430    0.67340    1.000
    O98      O        0.81640    0.63420    0.65110    1.000
    O99      O        0.81870    0.67470    0.63870    1.000
    O100     O        0.79710    0.68070    0.65750    1.000
    O101     O        0.58860    0.33790    0.22920    1.000
    O102     O        0.64190    0.39710    0.29600    1.000
    O103     O        0.67540    0.38420    0.33860    1.000
    O104     O        0.70400    0.42100    0.31000    1.000
    O105     O        0.87700    0.63420    0.73730    1.000
    O106     O        0.89240    0.64680    0.69190    1.000
    O107     O        0.91280    0.69780    0.67930    1.000
    O108     O        0.76290    0.69490    0.75340    1.000
    O109     O        0.87150    0.76600    0.78120    1.000
    O110     O        0.85580    0.75910    0.72680    1.000
    O111     O        0.81940    0.57670    0.75080    1.000
    O112     O        0.80610    0.57130    0.72280    1.000
    C175     C        0.72910    0.61390    0.45870    1.000
    C176     C        0.72070    0.57430    0.44430    1.000
    C177     C        0.70380    0.57080    0.39840    1.000
    C178     C        0.70060    0.59680    0.37050    1.000
    C179     C        0.70800    0.63640    0.39070    1.000
    C180     C        0.72440    0.64720    0.43620    1.000
    C181     C        0.70010    0.53400    0.37690    1.000
    C182     C        0.71980    0.51010    0.38980    1.000
    C183     C        0.70740    0.47140    0.36570    1.000
    C184     C        0.67970    0.44900    0.32890    1.000
    C185     C        0.66230    0.47560    0.32130    1.000
    C186     C        0.67030    0.51490    0.34070    1.000
    C187     C        0.71570    0.67790    0.32110    1.000
    C188     C        0.67840    0.71770    0.36280    1.000
    C189     C        0.70190    0.70240    0.38700    1.000
    C190     C        0.69410    0.66490    0.36380    1.000
    C191     C        0.75380    0.63010    0.50420    1.000
    C192     C        0.76860    0.67010    0.52600    1.000
    C193     C        0.78350    0.67800    0.57180    1.000
    C194     C        0.77400    0.64000    0.59540    1.000
    C195     C        0.78350    0.61310    0.56850    1.000
    C196     C        0.75170    0.59830    0.53410    1.000
    C197     C        0.79130    0.64410    0.64280    1.000
    C198     C        0.66570    0.40420    0.31550    1.000
    C199     C        0.92140    0.67160    0.70930    1.000
    C200     C        0.75020    0.44680    0.72800    1.000
    C201     C        0.77440    0.48980    0.73980    1.000
    C202     C        0.70390    0.70320    0.29430    1.000
    C203     C        0.68470    0.72490    0.31530    1.000
    Zn34     Zn       0.84532    0.70931    0.80154    1.000
    Zn35     Zn       0.77805    0.63804    0.73811    1.000
    Zn36     Zn       0.65418    0.27871    0.27665    1.000
    Zn37     Zn       0.37182    0.20891    0.70514    1.000
    Zn38     Zn       0.30356    0.11451    0.72123    1.000
    O113     O        0.35570    0.12430    0.67340    1.000
    O114     O        0.36580    0.18220    0.65110    1.000
    O115     O        0.32530    0.14400    0.63870    1.000
    O116     O        0.31930    0.11640    0.65750    1.000
    O117     O        0.66210    0.25070    0.22920    1.000
    O118     O        0.60290    0.24480    0.29600    1.000
    O119     O        0.61580    0.29120    0.33860    1.000
    O120     O        0.57900    0.28300    0.31000    1.000
    O121     O        0.36580    0.24280    0.73730    1.000
    O122     O        0.35320    0.24560    0.69190    1.000
    O123     O        0.30220    0.21500    0.67930    1.000
    O124     O        0.30510    0.06800    0.75340    1.000
    O125     O        0.23400    0.10550    0.78120    1.000
    O126     O        0.24090    0.09670    0.72680    1.000
    O127     O        0.42330    0.24270    0.75080    1.000
    O128     O        0.42870    0.23480    0.72280    1.000
    C204     C        0.38610    0.11520    0.45870    1.000
    C205     C        0.42570    0.14640    0.44430    1.000
    C206     C        0.42920    0.13300    0.39840    1.000
    C207     C        0.40320    0.10380    0.37050    1.000
    C208     C        0.36360    0.07160    0.39070    1.000
    C209     C        0.35280    0.07720    0.43620    1.000
    C210     C        0.46600    0.16610    0.37690    1.000
    C211     C        0.48990    0.20970    0.38980    1.000
    C212     C        0.52860    0.23600    0.36570    1.000
    C213     C        0.55100    0.23070    0.32890    1.000
    C214     C        0.52440    0.18670    0.32130    1.000
    C215     C        0.48510    0.15540    0.34070    1.000
    C216     C        0.32210    0.03780    0.32110    1.000
    C217     C        0.28230    0.96070    0.36280    1.000
    C218     C        0.29760    0.99950    0.38700    1.000
    C219     C        0.33510    0.02920    0.36380    1.000
    C220     C        0.36990    0.12370    0.50420    1.000
    C221     C        0.32990    0.09850    0.52600    1.000
    C222     C        0.32200    0.10550    0.57180    1.000
    C223     C        0.36000    0.13400    0.59540    1.000
    C224     C        0.38690    0.17040    0.56850    1.000
    C225     C        0.40170    0.15340    0.53410    1.000
    C226     C        0.35590    0.14720    0.64280    1.000
    C227     C        0.59580    0.26150    0.31550    1.000
    C228     C        0.32840    0.24980    0.70930    1.000
    C229     C        0.55320    0.30340    0.72800    1.000
    C230     C        0.51020    0.28460    0.73980    1.000
    C231     C        0.29680    0.00070    0.29430    1.000
    C232     C        0.27510    0.95980    0.31530    1.000
    Zn39     Zn       0.29069    0.13601    0.80154    1.000
    Zn40     Zn       0.36196    0.14001    0.73811    1.000
    Zn41     Zn       0.72129    0.37547    0.27665    1.000
    Zn42     Zn       0.79109    0.16291    0.70514    1.000
    Zn43     Zn       0.88549    0.18905    0.72123    1.000
    O129     O        0.87570    0.23140    0.67340    1.000
    O130     O        0.81780    0.18360    0.65110    1.000
    O131     O        0.85600    0.18130    0.63870    1.000
    O132     O        0.88360    0.20290    0.65750    1.000
    O133     O        0.74930    0.41140    0.22920    1.000
    O134     O        0.75520    0.35810    0.29600    1.000
    O135     O        0.70880    0.32460    0.33860    1.000
    O136     O        0.71700    0.29600    0.31000    1.000
    O137     O        0.75720    0.12300    0.73730    1.000
    O138     O        0.75440    0.10760    0.69190    1.000
    O139     O        0.78500    0.08720    0.67930    1.000
    O140     O        0.93200    0.23710    0.75340    1.000
    O141     O        0.89450    0.12850    0.78120    1.000
    O142     O        0.90330    0.14420    0.72680    1.000
    O143     O        0.75730    0.18060    0.75080    1.000
    O144     O        0.76520    0.19390    0.72280    1.000
    C233     C        0.88480    0.27090    0.45870    1.000
    C234     C        0.85360    0.27930    0.44430    1.000
    C235     C        0.86700    0.29620    0.39840    1.000
    C236     C        0.89620    0.29940    0.37050    1.000
    C237     C        0.92840    0.29200    0.39070    1.000
    C238     C        0.92280    0.27560    0.43620    1.000
    C239     C        0.83390    0.29990    0.37690    1.000
    C240     C        0.79030    0.28020    0.38980    1.000
    C241     C        0.76400    0.29260    0.36570    1.000
    C242     C        0.76930    0.32030    0.32890    1.000
    C243     C        0.81330    0.33770    0.32130    1.000
    C244     C        0.84460    0.32970    0.34070    1.000
    C245     C        0.96220    0.28430    0.32110    1.000
    C246     C        0.03930    0.32160    0.36280    1.000
    C247     C        0.00050    0.29810    0.38700    1.000
    C248     C        0.97080    0.30590    0.36380    1.000
    C249     C        0.87630    0.24620    0.50420    1.000
    C250     C        0.90150    0.23140    0.52600    1.000
    C251     C        0.89450    0.21650    0.57180    1.000
    C252     C        0.86600    0.22600    0.59540    1.000
    C253     C        0.82960    0.21650    0.56850    1.000
    C254     C        0.84660    0.24830    0.53410    1.000
    C255     C        0.85280    0.20870    0.64280    1.000
    C256     C        0.73850    0.33430    0.31550    1.000
    C257     C        0.75020    0.07860    0.70930    1.000
    C258     C        0.69660    0.24980    0.72800    1.000
    C259     C        0.71540    0.22560    0.73980    1.000
    C260     C        0.99930    0.29610    0.29430    1.000
    C261     C        0.04020    0.31530    0.31530    1.000
    Zn44     Zn       0.86399    0.15468    0.80154    1.000
    Zn45     Zn       0.85999    0.22195    0.73811    1.000
    Zn46     Zn       0.65418    0.37547    0.22335    1.000
    Zn47     Zn       0.37182    0.16291    0.79486    1.000
    Zn48     Zn       0.30356    0.18905    0.77877    1.000
    O145     O        0.35570    0.23140    0.82660    1.000
    O146     O        0.36580    0.18360    0.84890    1.000
    O147     O        0.32530    0.18130    0.86130    1.000
    O148     O        0.31930    0.20290    0.84250    1.000
    O149     O        0.66210    0.41140    0.27080    1.000
    O150     O        0.60290    0.35810    0.20400    1.000
    O151     O        0.61580    0.32460    0.16140    1.000
    O152     O        0.57900    0.29600    0.19000    1.000
    O153     O        0.36580    0.12300    0.76270    1.000
    O154     O        0.35320    0.10760    0.80810    1.000
    O155     O        0.30220    0.08720    0.82070    1.000
    O156     O        0.30510    0.23710    0.74660    1.000
    O157     O        0.23400    0.12850    0.71880    1.000
    O158     O        0.24090    0.14420    0.77320    1.000
    O159     O        0.42330    0.18060    0.74920    1.000
    O160     O        0.42870    0.19390    0.77720    1.000
    C262     C        0.38610    0.27090    0.04130    1.000
    C263     C        0.42570    0.27930    0.05570    1.000
    C264     C        0.42920    0.29620    0.10160    1.000
    C265     C        0.40320    0.29940    0.12950    1.000
    C266     C        0.36360    0.29200    0.10930    1.000
    C267     C        0.35280    0.27560    0.06380    1.000
    C268     C        0.46600    0.29990    0.12310    1.000
    C269     C        0.48990    0.28020    0.11020    1.000
    C270     C        0.52860    0.29260    0.13430    1.000
    C271     C        0.55100    0.32030    0.17110    1.000
    C272     C        0.52440    0.33770    0.17870    1.000
    C273     C        0.48510    0.32970    0.15930    1.000
    C274     C        0.32210    0.28430    0.17890    1.000
    C275     C        0.28230    0.32160    0.13720    1.000
    C276     C        0.29760    0.29810    0.11300    1.000
    C277     C        0.33510    0.30590    0.13620    1.000
    C278     C        0.36990    0.24620    0.99580    1.000
    C279     C        0.32990    0.23140    0.97400    1.000
    C280     C        0.32200    0.21650    0.92820    1.000
    C281     C        0.36000    0.22600    0.90460    1.000
    C282     C        0.38690    0.21650    0.93150    1.000
    C283     C        0.40170    0.24830    0.96590    1.000
    C284     C        0.35590    0.20870    0.85720    1.000
    C285     C        0.59580    0.33430    0.18450    1.000
    C286     C        0.32840    0.07860    0.79070    1.000
    C287     C        0.55320    0.24980    0.77200    1.000
    C288     C        0.51020    0.22560    0.76020    1.000
    C289     C        0.29680    0.29610    0.20570    1.000
    C290     C        0.27510    0.31530    0.18470    1.000
    Zn49     Zn       0.29069    0.15468    0.69846    1.000
    Zn50     Zn       0.36196    0.22195    0.76189    1.000
    Zn51     Zn       0.72129    0.34582    0.22335    1.000
    Zn52     Zn       0.79109    0.62818    0.79486    1.000
    Zn53     Zn       0.88549    0.69644    0.77877    1.000
    O161     O        0.87570    0.64430    0.82660    1.000
    O162     O        0.81780    0.63420    0.84890    1.000
    O163     O        0.85600    0.67470    0.86130    1.000
    O164     O        0.88360    0.68070    0.84250    1.000
    O165     O        0.74930    0.33790    0.27080    1.000
    O166     O        0.75520    0.39710    0.20400    1.000
    O167     O        0.70880    0.38420    0.16140    1.000
    O168     O        0.71700    0.42100    0.19000    1.000
    O169     O        0.75720    0.63420    0.76270    1.000
    O170     O        0.75440    0.64680    0.80810    1.000
    O171     O        0.78500    0.69780    0.82070    1.000
    O172     O        0.93200    0.69490    0.74660    1.000
    O173     O        0.89450    0.76600    0.71880    1.000
    O174     O        0.90330    0.75910    0.77320    1.000
    O175     O        0.75730    0.57670    0.74920    1.000
    O176     O        0.76520    0.57130    0.77720    1.000
    C291     C        0.88480    0.61390    0.04130    1.000
    C292     C        0.85360    0.57430    0.05570    1.000
    C293     C        0.86700    0.57080    0.10160    1.000
    C294     C        0.89620    0.59680    0.12950    1.000
    C295     C        0.92840    0.63640    0.10930    1.000
    C296     C        0.92280    0.64720    0.06380    1.000
    C297     C        0.83390    0.53400    0.12310    1.000
    C298     C        0.79030    0.51010    0.11020    1.000
    C299     C        0.76400    0.47140    0.13430    1.000
    C300     C        0.76930    0.44900    0.17110    1.000
    C301     C        0.81330    0.47560    0.17870    1.000
    C302     C        0.84460    0.51490    0.15930    1.000
    C303     C        0.96220    0.67790    0.17890    1.000
    C304     C        0.03930    0.71770    0.13720    1.000
    C305     C        0.00050    0.70240    0.11300    1.000
    C306     C        0.97080    0.66490    0.13620    1.000
    C307     C        0.87630    0.63010    0.99580    1.000
    C308     C        0.90150    0.67010    0.97400    1.000
    C309     C        0.89450    0.67800    0.92820    1.000
    C310     C        0.86600    0.64000    0.90460    1.000
    C311     C        0.82960    0.61310    0.93150    1.000
    C312     C        0.84660    0.59830    0.96590    1.000
    C313     C        0.85280    0.64410    0.85720    1.000
    C314     C        0.73850    0.40420    0.18450    1.000
    C315     C        0.75020    0.67160    0.79070    1.000
    C316     C        0.69660    0.44680    0.77200    1.000
    C317     C        0.71540    0.48980    0.76020    1.000
    C318     C        0.99930    0.70320    0.20570    1.000
    C319     C        0.04020    0.72490    0.18470    1.000
    Zn54     Zn       0.86399    0.70931    0.69846    1.000
    Zn55     Zn       0.85999    0.63804    0.76189    1.000
    Zn56     Zn       0.62453    0.27871    0.22335    1.000
    Zn57     Zn       0.83709    0.20891    0.79486    1.000
    Zn58     Zn       0.81095    0.11451    0.77877    1.000
    O177     O        0.76860    0.12430    0.82660    1.000
    O178     O        0.81640    0.18220    0.84890    1.000
    O179     O        0.81870    0.14400    0.86130    1.000
    O180     O        0.79710    0.11640    0.84250    1.000
    O181     O        0.58860    0.25070    0.27080    1.000
    O182     O        0.64190    0.24480    0.20400    1.000
    O183     O        0.67540    0.29120    0.16140    1.000
    O184     O        0.70400    0.28300    0.19000    1.000
    O185     O        0.87700    0.24280    0.76270    1.000
    O186     O        0.89240    0.24560    0.80810    1.000
    O187     O        0.91280    0.21500    0.82070    1.000
    O188     O        0.76290    0.06800    0.74660    1.000
    O189     O        0.87150    0.10550    0.71880    1.000
    O190     O        0.85580    0.09670    0.77320    1.000
    O191     O        0.81940    0.24270    0.74920    1.000
    O192     O        0.80610    0.23480    0.77720    1.000
    C320     C        0.72910    0.11520    0.04130    1.000
    C321     C        0.72070    0.14640    0.05570    1.000
    C322     C        0.70380    0.13300    0.10160    1.000
    C323     C        0.70060    0.10380    0.12950    1.000
    C324     C        0.70800    0.07160    0.10930    1.000
    C325     C        0.72440    0.07720    0.06380    1.000
    C326     C        0.70010    0.16610    0.12310    1.000
    C327     C        0.71980    0.20970    0.11020    1.000
    C328     C        0.70740    0.23600    0.13430    1.000
    C329     C        0.67970    0.23070    0.17110    1.000
    C330     C        0.66230    0.18670    0.17870    1.000
    C331     C        0.67030    0.15540    0.15930    1.000
    C332     C        0.71570    0.03780    0.17890    1.000
    C333     C        0.67840    0.96070    0.13720    1.000
    C334     C        0.70190    0.99950    0.11300    1.000
    C335     C        0.69410    0.02920    0.13620    1.000
    C336     C        0.75380    0.12370    0.99580    1.000
    C337     C        0.76860    0.09850    0.97400    1.000
    C338     C        0.78350    0.10550    0.92820    1.000
    C339     C        0.77400    0.13400    0.90460    1.000
    C340     C        0.78350    0.17040    0.93150    1.000
    C341     C        0.75170    0.15340    0.96590    1.000
    C342     C        0.79130    0.14720    0.85720    1.000
    C343     C        0.66570    0.26150    0.18450    1.000
    C344     C        0.92140    0.24980    0.79070    1.000
    C345     C        0.75020    0.30340    0.77200    1.000
    C346     C        0.77440    0.28460    0.76020    1.000
    C347     C        0.70390    0.00070    0.20570    1.000
    C348     C        0.68470    0.95980    0.18470    1.000
    Zn59     Zn       0.84532    0.13601    0.69846    1.000
    Zn60     Zn       0.77805    0.14001    0.76189    1.000
    Zn61     Zn       0.33333    0.66667    0.69103    1.000
    Zn62     Zn       0.33333    0.66667    0.80897    1.000
    Zn63     Zn       0.66667    0.33333    0.30897    1.000
    Zn64     Zn       0.66667    0.33333    0.19103    1.000
    O193     O        0.16635    0.33270    0.25000    1.000
    C349     C        0.11195    0.22390    0.25000    1.000
    C350     C        0.31210    0.62420    0.25000    1.000
    C351     C        0.28725    0.57450    0.25000    1.000
    C352     C        0.24540    0.49080    0.25000    1.000
    C353     C        0.22175    0.44350    0.25000    1.000
    O194     O        0.66730    0.83365    0.25000    1.000
    C354     C        0.77610    0.88805    0.25000    1.000
    C355     C        0.37580    0.68790    0.25000    1.000
    C356     C        0.42550    0.71275    0.25000    1.000
    C357     C        0.50920    0.75460    0.25000    1.000
    C358     C        0.55650    0.77825    0.25000    1.000
    O195     O        0.16635    0.83365    0.25000    1.000
    C359     C        0.11195    0.88805    0.25000    1.000
    C360     C        0.31210    0.68790    0.25000    1.000
    C361     C        0.28725    0.71275    0.25000    1.000
    C362     C        0.24540    0.75460    0.25000    1.000
    C363     C        0.22175    0.77825    0.25000    1.000
    O196     O        0.83365    0.66730    0.75000    1.000
    C364     C        0.88805    0.77610    0.75000    1.000
    C365     C        0.68790    0.37580    0.75000    1.000
    C366     C        0.71275    0.42550    0.75000    1.000
    C367     C        0.75460    0.50920    0.75000    1.000
    C368     C        0.77825    0.55650    0.75000    1.000
    O197     O        0.33270    0.16635    0.75000    1.000
    C369     C        0.22390    0.11195    0.75000    1.000
    C370     C        0.62420    0.31210    0.75000    1.000
    C371     C        0.57450    0.28725    0.75000    1.000
    C372     C        0.49080    0.24540    0.75000    1.000
    C373     C        0.44350    0.22175    0.75000    1.000
    O198     O        0.83365    0.16635    0.75000    1.000
    C374     C        0.88805    0.11195    0.75000    1.000
    C375     C        0.68790    0.31210    0.75000    1.000
    C376     C        0.71275    0.28725    0.75000    1.000
    C377     C        0.75460    0.24540    0.75000    1.000
    C378     C        0.77825    0.22175    0.75000    1.000
    O199     O        0.33333    0.66667    0.75000    1.000
    O200     O        0.66667    0.33333    0.25000    1.000
    C379     C        0.28880    0.64440    0.25000    1.000
    C380     C        0.35560    0.64440    0.25000    1.000
    C381     C        0.35560    0.71120    0.25000    1.000
    C382     C        0.71120    0.35560    0.75000    1.000
    C383     C        0.64440    0.35560    0.75000    1.000
    C384     C        0.64440    0.28880    0.75000    1.000
