# CIF file generated by openbabel 3.1.0, see https://openbabel.org
data_I
_chemical_name_common 'image0'
_cell_length_a 15.1318
_cell_length_b 15.1318
_cell_length_c 12.0523
_cell_angle_alpha 90
_cell_angle_beta 90
_cell_angle_gamma 90
_space_group_name_H-M_alt 'P 1'
_space_group_name_Hall 'P 1'
loop_
    _symmetry_equiv_pos_as_xyz
    x,y,z
loop_
    _atom_site_label
    _atom_site_type_symbol
    _atom_site_fract_x
    _atom_site_fract_y
    _atom_site_fract_z
    _atom_site_occupancy
    O1       O        0.60105    0.28981    0.75814    1.000
    O2       O        0.61865    0.37972    0.60910    1.000
    C1       C        0.59304    0.36025    0.70179    1.000
    C2       C        0.54000    0.43078    0.75990    1.000
    C3       C        0.54135    0.42957    0.87919    1.000
    H1       H        0.57318    0.38162    0.90735    1.000
    O3       O        0.10105    0.78981    0.25814    1.000
    O4       O        0.11865    0.87972    0.10910    1.000
    C4       C        0.09304    0.86025    0.20179    1.000
    C5       C        0.04000    0.93078    0.25990    1.000
    C6       C        0.04135    0.92957    0.37919    1.000
    H2       H        0.07318    0.88162    0.40735    1.000
    O5       O        0.89895    0.21019    0.25814    1.000
    O6       O        0.88135    0.12028    0.10910    1.000
    C7       C        0.90696    0.13975    0.20179    1.000
    C8       C        0.96000    0.06922    0.25990    1.000
    C9       C        0.95865    0.07043    0.37919    1.000
    H3       H        0.92682    0.11838    0.40735    1.000
    O7       O        0.39895    0.71019    0.75814    1.000
    O8       O        0.38135    0.62028    0.60910    1.000
    C10      C        0.40696    0.63975    0.70179    1.000
    C11      C        0.46000    0.56922    0.75990    1.000
    C12      C        0.45865    0.57043    0.87919    1.000
    H4       H        0.42682    0.61838    0.90735    1.000
    O9       O        0.71019    0.10105    0.00814    1.000
    O10      O        0.62028    0.11865    0.85910    1.000
    C13      C        0.63975    0.09304    0.95179    1.000
    C14      C        0.56922    0.04000    0.00990    1.000
    C15      C        0.57043    0.04135    0.12919    1.000
    H5       H        0.61838    0.07318    0.15735    1.000
    O11      O        0.21019    0.60105    0.50814    1.000
    O12      O        0.12028    0.61865    0.35910    1.000
    C16      C        0.13975    0.59304    0.45179    1.000
    C17      C        0.06922    0.54000    0.50990    1.000
    C18      C        0.07043    0.54135    0.62919    1.000
    H6       H        0.11838    0.57318    0.65735    1.000
    O13      O        0.78981    0.39895    0.50814    1.000
    O14      O        0.87972    0.38135    0.35910    1.000
    C19      C        0.86025    0.40696    0.45179    1.000
    C20      C        0.93078    0.46000    0.50990    1.000
    C21      C        0.92957    0.45865    0.62919    1.000
    H7       H        0.88162    0.42682    0.65735    1.000
    O15      O        0.28981    0.89895    0.00814    1.000
    O16      O        0.37972    0.88135    0.85910    1.000
    C22      C        0.36025    0.90696    0.95179    1.000
    C23      C        0.43078    0.96000    0.00990    1.000
    C24      C        0.42957    0.95865    0.12919    1.000
    H8       H        0.38162    0.92682    0.15735    1.000
    O17      O        0.89895    0.28981    0.99186    1.000
    O18      O        0.88135    0.37972    0.14090    1.000
    C25      C        0.90696    0.36025    0.04821    1.000
    C26      C        0.96000    0.43078    0.99010    1.000
    C27      C        0.95865    0.42957    0.87081    1.000
    H9       H        0.92682    0.38162    0.84265    1.000
    O19      O        0.39895    0.78981    0.49186    1.000
    O20      O        0.38135    0.87972    0.64090    1.000
    C28      C        0.40696    0.86025    0.54821    1.000
    C29      C        0.46000    0.93078    0.49010    1.000
    C30      C        0.45865    0.92957    0.37081    1.000
    H10      H        0.42682    0.88162    0.34265    1.000
    O21      O        0.60105    0.21019    0.49186    1.000
    O22      O        0.61865    0.12028    0.64090    1.000
    C31      C        0.59304    0.13975    0.54821    1.000
    C32      C        0.54000    0.06922    0.49010    1.000
    C33      C        0.54135    0.07043    0.37081    1.000
    H11      H        0.57318    0.11838    0.34265    1.000
    O23      O        0.10105    0.71019    0.99186    1.000
    O24      O        0.11865    0.62028    0.14090    1.000
    C34      C        0.09304    0.63975    0.04821    1.000
    C35      C        0.04000    0.56922    0.99010    1.000
    C36      C        0.04135    0.57043    0.87081    1.000
    H12      H        0.07318    0.61838    0.84265    1.000
    O25      O        0.78981    0.10105    0.74186    1.000
    O26      O        0.87972    0.11865    0.89090    1.000
    C37      C        0.86025    0.09304    0.79821    1.000
    C38      C        0.93078    0.04000    0.74010    1.000
    C39      C        0.92957    0.04135    0.62081    1.000
    H13      H        0.88162    0.07318    0.59265    1.000
    O27      O        0.28981    0.60105    0.24186    1.000
    O28      O        0.37972    0.61865    0.39090    1.000
    C40      C        0.36025    0.59304    0.29821    1.000
    C41      C        0.43078    0.54000    0.24010    1.000
    C42      C        0.42957    0.54135    0.12081    1.000
    H14      H        0.38162    0.57318    0.09265    1.000
    O29      O        0.71019    0.39895    0.24186    1.000
    O30      O        0.62028    0.38135    0.39090    1.000
    C43      C        0.63975    0.40696    0.29821    1.000
    C44      C        0.56922    0.46000    0.24010    1.000
    C45      C        0.57043    0.45865    0.12081    1.000
    H15      H        0.61838    0.42682    0.09265    1.000
    O31      O        0.21019    0.89895    0.74186    1.000
    O32      O        0.12028    0.88135    0.89090    1.000
    C46      C        0.13975    0.90696    0.79821    1.000
    C47      C        0.06922    0.96000    0.74010    1.000
    C48      C        0.07043    0.95865    0.62081    1.000
    H16      H        0.11838    0.92682    0.59265    1.000
    V1       V        0.69057    0.30943    0.50000    1.000
    V2       V        0.19057    0.80943    0.00000    1.000
    V3       V        0.80943    0.19057    0.00000    1.000
    V4       V        0.30943    0.69057    0.50000    1.000
    V5       V        0.69057    0.19057    0.75000    1.000
    V6       V        0.19057    0.69057    0.25000    1.000
    V7       V        0.80943    0.30943    0.25000    1.000
    V8       V        0.30943    0.80943    0.75000    1.000
    O33      O        0.74830    0.25000    0.62500    1.000
    H17      H        0.80600    0.25000    0.62500    1.000
    O34      O        0.24830    0.75000    0.12500    1.000
    H18      H        0.30600    0.75000    0.12500    1.000
    O35      O        0.75170    0.25000    0.12500    1.000
    H19      H        0.69400    0.25000    0.12500    1.000
    O36      O        0.25170    0.75000    0.62500    1.000
    H20      H        0.19400    0.75000    0.62500    1.000
    O37      O        0.75000    0.24830    0.87500    1.000
    H21      H        0.75000    0.30600    0.87500    1.000
    O38      O        0.25000    0.74830    0.37500    1.000
    H22      H        0.25000    0.80600    0.37500    1.000
    O39      O        0.75000    0.25170    0.37500    1.000
    H23      H        0.75000    0.19400    0.37500    1.000
    O40      O        0.25000    0.75170    0.87500    1.000
    H24      H        0.25000    0.69400    0.87500    1.000
    C49      C        0.50000    0.50000    0.70384    1.000
    C50      C        0.50000    0.50000    0.93588    1.000
    H25      H        0.50000    0.50000    0.62670    1.000
    C51      C        0.00000    0.00000    0.20384    1.000
    C52      C        0.00000    0.00000    0.43588    1.000
    H26      H        0.00000    0.00000    0.12670    1.000
    C53      C        0.50000    0.00000    0.95384    1.000
    C54      C        0.50000    0.00000    0.18588    1.000
    H27      H        0.50000    0.00000    0.87670    1.000
    C55      C        0.00000    0.50000    0.45384    1.000
    C56      C        0.00000    0.50000    0.68588    1.000
    H28      H        0.00000    0.50000    0.37670    1.000
    C57      C        0.00000    0.50000    0.04616    1.000
    C58      C        0.00000    0.50000    0.81412    1.000
    H29      H        0.00000    0.50000    0.12330    1.000
    C59      C        0.50000    0.00000    0.54616    1.000
    C60      C        0.50000    0.00000    0.31412    1.000
    H30      H        0.50000    0.00000    0.62330    1.000
    C61      C        0.00000    0.00000    0.79616    1.000
    C62      C        0.00000    0.00000    0.56412    1.000
    H31      H        0.00000    0.00000    0.87330    1.000
    C63      C        0.50000    0.50000    0.29616    1.000
    C64      C        0.50000    0.50000    0.06412    1.000
    H32      H        0.50000    0.50000    0.37330    1.000
