data_functionalizedCrystal
_audit_creation_method	'EQeq! by Chris Wilmer'
_symmetry_space_group_name_H-M	'P1'
_symmetry_Int_Tables_number	1
_symmetry_cell_setting	triclinic
loop_
_symmetry_equiv_pos_as_xyz
  x,y,z
_cell_length_a	13.4946
_cell_length_b	13.4946
_cell_length_c	14.912
_cell_angle_alpha	90
_cell_angle_beta	90
_cell_angle_gamma	120
loop_
_atom_site_label
_atom_site_type_symbol
_atom_site_fract_x
_atom_site_fract_y
_atom_site_fract_z
_atom_site_charge
Mof_La	La	0.33333	0.66666	0.66912	2.334
Mof_La	La	0.66667	0.33334	0.83088	2.336
Mof_La	La	0.66667	0.33334	0.33088	2.326
Mof_La	La	0.33333	0.66666	0.16912	2.325
Mof_Cu	Cu	0.5	0	0.5	0.899
Mof_Cu	Cu	0.5	0.5	0.5	0.928
Mof_Cu	Cu	-1.9322e-17	0.5	0.5	0.898
Mof_Cu	Cu	0.5	0	-0	0.872
Mof_Cu	Cu	-0	0.5	-0	0.871
Mof_Cu	Cu	0.5	0.5	-0	0.901
Mof_H 	H 	0.3528	0.0256	0.4233	0.035
Mof_H 	H 	0.1833	0.8638	0.4779	0.122
Mof_H 	H 	0.2553	0.9618	0.5469	0.143
Mof_H 	H 	0.3164	0.9196	0.3115	0.154
Mof_H 	H 	0.2696	0.8117	0.3736	0.148
Mof_H 	H 	0.6728	0.6472	0.4233	0.097
Mof_H 	H 	0.6805	0.8167	0.4779	0.141
Mof_H 	H 	0.7065	0.7447	0.5469	0.136
Mof_H 	H 	0.6032	0.6836	0.3115	0.144
Mof_H 	H 	0.5421	0.7304	0.3736	0.154
Mof_H 	H 	0.9744	0.3272	0.4233	0.153
Mof_H 	H 	0.1362	0.3195	0.4779	0.103
Mof_H 	H 	0.0382	0.2935	0.5469	0.086
Mof_H 	H 	0.0804	0.3968	0.3115	0.111
Mof_H 	H 	0.1883	0.4579	0.3736	0.143
Mof_H 	H 	0.3272	0.9744	0.0767	0.15
Mof_H 	H 	0.3195	0.1362	0.0221	0
Mof_H 	H 	0.2935	0.0382	0.9531	0.039
Mof_H 	H 	0.3968	0.0804	0.1885	0.108
Mof_H 	H 	0.4579	0.1883	0.1264	0.13
Mof_H 	H 	0.0256	0.3528	0.0767	0.03
Mof_H 	H 	0.8638	0.1833	0.0221	0.025
Mof_H 	H 	0.9618	0.2553	0.9531	0.098
Mof_H 	H 	0.9196	0.3164	0.1885	0.152
Mof_H 	H 	0.8117	0.2696	0.1264	0.136
Mof_H 	H 	0.6472	0.6728	0.0767	0.096
Mof_H 	H 	0.8167	0.6805	0.0221	0.043
Mof_H 	H 	0.7447	0.7065	0.9531	0.089
Mof_H 	H 	0.6836	0.6032	0.1885	0.141
Mof_H 	H 	0.7304	0.5421	0.1264	0.142
Mof_H 	H 	0.6472	0.9744	0.5767	0.153
Mof_H 	H 	0.8167	0.1362	0.5221	0.123
Mof_H 	H 	0.7447	0.0382	0.4531	0.1
Mof_H 	H 	0.6836	0.0804	0.6885	0.12
Mof_H 	H 	0.7304	0.1883	0.6264	0.149
Mof_H 	H 	0.3272	0.3528	0.5767	0.09
Mof_H 	H 	0.3195	0.1833	0.5221	0.105
Mof_H 	H 	0.2935	0.2553	0.4531	0.108
Mof_H 	H 	0.3968	0.3164	0.6885	0.131
Mof_H 	H 	0.4579	0.2696	0.6264	0.144
Mof_H 	H 	0.0256	0.6728	0.5767	0.036
Mof_H 	H 	0.8638	0.6805	0.5221	0.141
Mof_H 	H 	0.9618	0.7065	0.4531	0.158
Mof_H 	H 	0.9196	0.6032	0.6885	0.163
Mof_H 	H 	0.8117	0.5421	0.6264	0.154
Mof_H 	H 	0.6728	0.0256	0.9233	0.043
Mof_H 	H 	0.6805	0.8638	0.9779	0.237
Mof_H 	H 	0.7065	0.9618	0.0469	0.202
Mof_H 	H 	0.6032	0.9196	0.8115	0.164
Mof_H 	H 	0.5421	0.8117	0.8736	0.165
Mof_H 	H 	0.9744	0.6472	0.9233	0.156
Mof_H 	H 	0.1362	0.8167	0.9779	0.221
Mof_H 	H 	0.0382	0.7447	0.0469	0.145
Mof_H 	H 	0.0804	0.6836	0.8115	0.121
Mof_H 	H 	0.1883	0.7304	0.8736	0.16
Mof_H 	H 	0.3528	0.3272	0.9233	0.092
Mof_H 	H 	0.1833	0.3195	0.9779	0.208
Mof_H 	H 	0.2553	0.2935	0.0469	0.156
Mof_H 	H 	0.3164	0.3968	0.8115	0.133
Mof_H 	H 	0.2696	0.4579	0.8736	0.156
Mof_C 	C 	0.2729	0.8199	0.5659	0.397
Mof_C 	C 	0.2563	0.9041	0.5087	-0.305
Mof_C 	C 	0.3341	0.8877	0.3632	-0.376
Mof_C 	C 	0.4393	0.8784	0.3429	0.502
Mof_C 	C 	0.547	0.7271	0.5659	0.394
Mof_C 	C 	0.6478	0.7437	0.5087	-0.309
Mof_C 	C 	0.5536	0.6659	0.3632	-0.377
Mof_C 	C 	0.4391	0.5607	0.3429	0.499
Mof_C 	C 	0.1801	0.453	0.5659	0.376
Mof_C 	C 	0.0959	0.3522	0.5087	-0.274
Mof_C 	C 	0.1123	0.4464	0.3632	-0.359
Mof_C 	C 	0.1216	0.5609	0.3429	0.487
Mof_C 	C 	0.453	0.1801	0.9341	0.328
Mof_C 	C 	0.3522	0.0959	0.9913	-0.067
Mof_C 	C 	0.4464	0.1123	0.1368	-0.349
Mof_C 	C 	0.5609	0.1216	0.1571	0.481
Mof_C 	C 	0.8199	0.2729	0.9341	0.351
Mof_C 	C 	0.9041	0.2563	0.9913	-0.109
Mof_C 	C 	0.8877	0.3341	0.1368	-0.367
Mof_C 	C 	0.8784	0.4393	0.1571	0.495
Mof_C 	C 	0.7271	0.547	0.9341	0.348
Mof_C 	C 	0.7437	0.6478	0.9913	-0.112
Mof_C 	C 	0.6659	0.5536	0.1368	-0.367
Mof_C 	C 	0.5607	0.4391	0.1571	0.492
Mof_C 	C 	0.7271	0.1801	0.4341	0.381
Mof_C 	C 	0.7437	0.0959	0.4913	-0.286
Mof_C 	C 	0.6659	0.1123	0.6368	-0.365
Mof_C 	C 	0.5607	0.1216	0.6571	0.491
Mof_C 	C 	0.453	0.2729	0.4341	0.384
Mof_C 	C 	0.3522	0.2563	0.4913	-0.286
Mof_C 	C 	0.4464	0.3341	0.6368	-0.369
Mof_C 	C 	0.5609	0.4393	0.6571	0.495
Mof_C 	C 	0.8199	0.547	0.4341	0.402
Mof_C 	C 	0.9041	0.6478	0.4913	-0.317
Mof_C 	C 	0.8877	0.5536	0.6368	-0.382
Mof_C 	C 	0.8784	0.4391	0.6571	0.505
Mof_C 	C 	0.547	0.8199	0.0659	0.447
Mof_C 	C 	0.6478	0.9041	0.0087	-0.508
Mof_C 	C 	0.5536	0.8877	0.8632	-0.387
Mof_C 	C 	0.4391	0.8784	0.8429	0.51
Mof_C 	C 	0.1801	0.7271	0.0659	0.427
Mof_C 	C 	0.0959	0.7437	0.0087	-0.482
Mof_C 	C 	0.1123	0.6659	0.8632	-0.37
Mof_C 	C 	0.1216	0.5607	0.8429	0.496
Mof_C 	C 	0.2729	0.453	0.0659	0.433
Mof_C 	C 	0.2563	0.3522	0.0087	-0.489
Mof_C 	C 	0.3341	0.4464	0.8632	-0.375
Mof_C 	C 	0.4393	0.5609	0.8429	0.501
Mof_N 	N 	0.3495	0.9599	0.4422	-0.1
Mof_N 	N 	0.6104	0.6505	0.4422	-0.154
Mof_N 	N 	0.0401	0.3896	0.4422	-0.213
Mof_N 	N 	0.3896	0.0401	0.0578	-0.26
Mof_N 	N 	0.9599	0.3495	0.0578	-0.144
Mof_N 	N 	0.6505	0.6104	0.0578	-0.202
Mof_N 	N 	0.6505	0.0401	0.5578	-0.207
Mof_N 	N 	0.3896	0.3495	0.5578	-0.159
Mof_N 	N 	0.9599	0.6104	0.5578	-0.095
Mof_N 	N 	0.6104	0.9599	0.9422	-0.048
Mof_N 	N 	0.0401	0.6505	0.9422	-0.155
Mof_N 	N 	0.3495	0.3896	0.9422	-0.104
Mof_O 	O 	0.3643	0.817	0.556	-0.518
Mof_O 	O 	0.1987	0.7597	0.6225	-0.421
Mof_O 	O 	0.5237	0.927	0.39521	-0.407
Mof_O 	O 	0.4362	0.8234	0.2759	-0.533
Mof_O 	O 	0.4527	0.6357	0.556	-0.527
Mof_O 	O 	0.561	0.8013	0.6225	-0.407
Mof_O 	O 	0.4033	0.4763	0.39521	-0.441
Mof_O 	O 	0.3872	0.5638	0.2759	-0.543
Mof_O 	O 	0.183	0.5473	0.556	-0.529
Mof_O 	O 	0.2403	0.439	0.6225	-0.42
Mof_O 	O 	0.073	0.5967	0.39521	-0.459
Mof_O 	O 	0.1766	0.6128	0.2759	-0.548
Mof_O 	O 	0.5473	0.183	0.944	-0.495
Mof_O 	O 	0.439	0.2403	0.8775	-0.398
Mof_O 	O 	0.5967	0.073	0.10479	-0.467
Mof_O 	O 	0.6128	0.1766	0.2241	-0.548
Mof_O 	O 	0.817	0.3643	0.944	-0.485
Mof_O 	O 	0.7597	0.1987	0.8775	-0.399
Mof_O 	O 	0.927	0.5237	0.10479	-0.414
Mof_O 	O 	0.8234	0.4362	0.2241	-0.534
Mof_O 	O 	0.6357	0.4527	0.944	-0.494
Mof_O 	O 	0.8013	0.561	0.8775	-0.386
Mof_O 	O 	0.4763	0.4033	0.10479	-0.45
Mof_O 	O 	0.5638	0.3872	0.2241	-0.544
Mof_O 	O 	0.6357	0.183	0.444	-0.529
Mof_O 	O 	0.8013	0.2403	0.3775	-0.411
Mof_O 	O 	0.4763	0.073	0.60479	-0.46
Mof_O 	O 	0.5638	0.1766	0.7241	-0.551
Mof_O 	O 	0.5473	0.3643	0.444	-0.526
Mof_O 	O 	0.439	0.1987	0.3775	-0.425
Mof_O 	O 	0.5967	0.5237	0.60479	-0.436
Mof_O 	O 	0.6128	0.4362	0.7241	-0.542
Mof_O 	O 	0.817	0.4527	0.444	-0.517
Mof_O 	O 	0.7597	0.561	0.3775	-0.413
Mof_O 	O 	0.927	0.4033	0.60479	-0.408
Mof_O 	O 	0.8234	0.3872	0.7241	-0.537
Mof_O 	O 	0.4527	0.817	0.056	-0.545
Mof_O 	O 	0.561	0.7597	0.1225	-0.432
Mof_O 	O 	0.4033	0.927	0.89521	-0.392
Mof_O 	O 	0.3872	0.8234	0.7759	-0.536
Mof_O 	O 	0.183	0.6357	0.056	-0.557
Mof_O 	O 	0.2403	0.8013	0.1225	-0.432
Mof_O 	O 	0.073	0.4763	0.89521	-0.442
Mof_O 	O 	0.1766	0.5638	0.7759	-0.55
Mof_O 	O 	0.3643	0.5473	0.056	-0.554
Mof_O 	O 	0.1987	0.439	0.1225	-0.446
Mof_O 	O 	0.5237	0.5967	0.89521	-0.418
Mof_O 	O 	0.4362	0.6128	0.7759	-0.541
_end
