data_functionalizedCrystal
_audit_creation_method	'EQeq! by Chris Wilmer'
_symmetry_space_group_name_H-M	'P1'
_symmetry_Int_Tables_number	1
_symmetry_cell_setting	triclinic
loop_
_symmetry_equiv_pos_as_xyz
  x,y,z
_cell_length_a	30.1892
_cell_length_b	30.1892
_cell_length_c	30.1892
_cell_angle_alpha	90
_cell_angle_beta	90
_cell_angle_gamma	90
loop_
_atom_site_label
_atom_site_type_symbol
_atom_site_fract_x
_atom_site_fract_y
_atom_site_fract_z
_atom_site_charge
Mof_O 	O 	0.50089	0.56295	0.96252	-0.361
Mof_C 	C 	0.50231	0.65432	0.95935	-0.043
Mof_H 	H 	0.5038	0.6379	0.9333	0.091
Mof_C 	C 	0.50242	0.70184	0.95732	0.104
Mof_C 	C 	0.50492	0.7277	0.9133	-0.342
Mof_O 	O 	0.50469	0.7272	0.91729	0.256
Mof_O 	O 	0.00089	0.06295	0.46252	-0.394
Mof_C 	C 	0.00231	0.15432	0.45935	-0.072
Mof_H 	H 	0.0038	0.1379	0.4333	0.088
Mof_C 	C 	0.00242	0.20184	0.45732	0.082
Mof_C 	C 	0.00492	0.2277	0.4133	-0.345
Mof_O 	O 	0.00469	0.2272	0.41729	0.239
Mof_O 	O 	0.49911	0.43705	0.96252	-0.362
Mof_C 	C 	0.49769	0.34568	0.95935	-0.045
Mof_H 	H 	0.4962	0.3621	0.9333	0.089
Mof_C 	C 	0.49758	0.29816	0.95732	0.103
Mof_C 	C 	0.49508	0.2723	0.9133	-0.343
Mof_O 	O 	0.49531	0.2728	0.91729	0.252
Mof_O 	O 	0.99911	0.93705	0.46252	-0.342
Mof_C 	C 	0.99769	0.84568	0.45935	-0.046
Mof_H 	H 	0.9962	0.8621	0.4333	0.095
Mof_C 	C 	0.99758	0.79816	0.45732	0.106
Mof_C 	C 	0.99508	0.7723	0.4133	-0.343
Mof_O 	O 	0.99531	0.7728	0.41729	0.258
Mof_O 	O 	0.49911	0.56295	0.03748	-0.384
Mof_C 	C 	0.49769	0.65432	0.04065	-0.072
Mof_H 	H 	0.4962	0.6379	0.0667	0.093
Mof_C 	C 	0.49758	0.70184	0.04268	0.084
Mof_C 	C 	0.49508	0.7277	0.0867	-0.344
Mof_O 	O 	0.49531	0.7272	0.08271	0.247
Mof_O 	O 	0.99911	0.06295	0.53748	-0.359
Mof_C 	C 	0.99769	0.15432	0.54065	-0.044
Mof_H 	H 	0.9962	0.1379	0.5667	0.09
Mof_C 	C 	0.99758	0.20184	0.54268	0.103
Mof_C 	C 	0.99508	0.2277	0.5867	-0.343
Mof_O 	O 	0.99531	0.2272	0.58271	0.256
Mof_O 	O 	0.50089	0.43705	0.03748	-0.384
Mof_C 	C 	0.50231	0.34568	0.04065	-0.072
Mof_H 	H 	0.5038	0.3621	0.0667	0.093
Mof_C 	C 	0.50242	0.29816	0.04268	0.084
Mof_C 	C 	0.50492	0.2723	0.0867	-0.344
Mof_O 	O 	0.50469	0.2728	0.08271	0.244
Mof_O 	O 	0.00089	0.93705	0.53748	-0.375
Mof_C 	C 	0.00231	0.84568	0.54065	-0.074
Mof_H 	H 	0.0038	0.8621	0.5667	0.095
Mof_C 	C 	0.00242	0.79816	0.54268	0.085
Mof_C 	C 	0.00492	0.7723	0.5867	-0.344
Mof_O 	O 	0.00469	0.7728	0.58271	0.245
Mof_O 	O 	0.96252	0.50089	0.56295	-0.362
Mof_C 	C 	0.95935	0.50231	0.65432	-0.044
Mof_H 	H 	0.9333	0.5038	0.6379	0.09
Mof_C 	C 	0.95732	0.50242	0.70184	0.103
Mof_C 	C 	0.9133	0.50492	0.7277	-0.343
Mof_O 	O 	0.91729	0.50469	0.7272	0.255
Mof_O 	O 	0.46252	0.00089	0.06295	-0.394
Mof_C 	C 	0.45935	0.00231	0.15432	-0.072
Mof_H 	H 	0.4333	0.0038	0.1379	0.088
Mof_C 	C 	0.45732	0.00242	0.20184	0.082
Mof_C 	C 	0.4133	0.00492	0.2277	-0.345
Mof_O 	O 	0.41729	0.00469	0.2272	0.239
Mof_O 	O 	0.96252	0.49911	0.43705	-0.362
Mof_C 	C 	0.95935	0.49769	0.34568	-0.045
Mof_H 	H 	0.9333	0.4962	0.3621	0.089
Mof_C 	C 	0.95732	0.49758	0.29816	0.103
Mof_C 	C 	0.9133	0.49508	0.2723	-0.343
Mof_O 	O 	0.91729	0.49531	0.2728	0.252
Mof_O 	O 	0.46252	0.99911	0.93705	-0.342
Mof_C 	C 	0.45935	0.99769	0.84568	-0.046
Mof_H 	H 	0.4333	0.9962	0.8621	0.095
Mof_C 	C 	0.45732	0.99758	0.79816	0.106
Mof_C 	C 	0.4133	0.99508	0.7723	-0.343
Mof_O 	O 	0.41729	0.99531	0.7728	0.258
Mof_O 	O 	0.03748	0.49911	0.56295	-0.384
Mof_C 	C 	0.04065	0.49769	0.65432	-0.072
Mof_H 	H 	0.0667	0.4962	0.6379	0.093
Mof_C 	C 	0.04268	0.49758	0.70184	0.084
Mof_C 	C 	0.0867	0.49508	0.7277	-0.344
Mof_O 	O 	0.08271	0.49531	0.7272	0.247
Mof_O 	O 	0.53748	0.99911	0.06295	-0.359
Mof_C 	C 	0.54065	0.99769	0.15432	-0.044
Mof_H 	H 	0.5667	0.9962	0.1379	0.09
Mof_C 	C 	0.54268	0.99758	0.20184	0.103
Mof_C 	C 	0.5867	0.99508	0.2277	-0.343
Mof_O 	O 	0.58271	0.99531	0.2272	0.256
Mof_O 	O 	0.03748	0.50089	0.43705	-0.384
Mof_C 	C 	0.04065	0.50231	0.34568	-0.072
Mof_H 	H 	0.0667	0.5038	0.3621	0.093
Mof_C 	C 	0.04268	0.50242	0.29816	0.084
Mof_C 	C 	0.0867	0.50492	0.2723	-0.344
Mof_O 	O 	0.08271	0.50469	0.2728	0.244
Mof_O 	O 	0.53748	0.00089	0.93705	-0.375
Mof_C 	C 	0.54065	0.00231	0.84568	-0.074
Mof_H 	H 	0.5667	0.0038	0.8621	0.095
Mof_C 	C 	0.54268	0.00242	0.79816	0.085
Mof_C 	C 	0.5867	0.00492	0.7723	-0.344
Mof_O 	O 	0.58271	0.00469	0.7728	0.245
Mof_O 	O 	0.56295	0.96252	0.50089	-0.362
Mof_C 	C 	0.65432	0.95935	0.50231	-0.044
Mof_H 	H 	0.6379	0.9333	0.5038	0.09
Mof_C 	C 	0.70184	0.95732	0.50242	0.103
Mof_C 	C 	0.7277	0.9133	0.50492	-0.343
Mof_O 	O 	0.7272	0.91729	0.50469	0.255
Mof_O 	O 	0.06295	0.46252	0.00089	-0.394
Mof_C 	C 	0.15432	0.45935	0.00231	-0.072
Mof_H 	H 	0.1379	0.4333	0.0038	0.088
Mof_C 	C 	0.20184	0.45732	0.00242	0.082
Mof_C 	C 	0.2277	0.4133	0.00492	-0.345
Mof_O 	O 	0.2272	0.41729	0.00469	0.239
Mof_O 	O 	0.43705	0.96252	0.49911	-0.362
Mof_C 	C 	0.34568	0.95935	0.49769	-0.045
Mof_H 	H 	0.3621	0.9333	0.4962	0.089
Mof_C 	C 	0.29816	0.95732	0.49758	0.103
Mof_C 	C 	0.2723	0.9133	0.49508	-0.343
Mof_O 	O 	0.2728	0.91729	0.49531	0.252
Mof_O 	O 	0.93705	0.46252	0.99911	-0.342
Mof_C 	C 	0.84568	0.45935	0.99769	-0.046
Mof_H 	H 	0.8621	0.4333	0.9962	0.095
Mof_C 	C 	0.79816	0.45732	0.99758	0.106
Mof_C 	C 	0.7723	0.4133	0.99508	-0.343
Mof_O 	O 	0.7728	0.41729	0.99531	0.258
Mof_O 	O 	0.56295	0.03748	0.49911	-0.384
Mof_C 	C 	0.65432	0.04065	0.49769	-0.072
Mof_H 	H 	0.6379	0.0667	0.4962	0.093
Mof_C 	C 	0.70184	0.04268	0.49758	0.084
Mof_C 	C 	0.7277	0.0867	0.49508	-0.344
Mof_O 	O 	0.7272	0.08271	0.49531	0.247
Mof_O 	O 	0.06295	0.53748	0.99911	-0.359
Mof_C 	C 	0.15432	0.54065	0.99769	-0.044
Mof_H 	H 	0.1379	0.5667	0.9962	0.09
Mof_C 	C 	0.20184	0.54268	0.99758	0.103
Mof_C 	C 	0.2277	0.5867	0.99508	-0.343
Mof_O 	O 	0.2272	0.58271	0.99531	0.256
Mof_O 	O 	0.43705	0.03748	0.50089	-0.384
Mof_C 	C 	0.34568	0.04065	0.50231	-0.072
Mof_H 	H 	0.3621	0.0667	0.5038	0.093
Mof_C 	C 	0.29816	0.04268	0.50242	0.084
Mof_C 	C 	0.2723	0.0867	0.50492	-0.344
Mof_O 	O 	0.2728	0.08271	0.50469	0.244
Mof_O 	O 	0.93705	0.53748	0.00089	-0.375
Mof_C 	C 	0.84568	0.54065	0.00231	-0.074
Mof_H 	H 	0.8621	0.5667	0.0038	0.095
Mof_C 	C 	0.79816	0.54268	0.00242	0.085
Mof_C 	C 	0.7723	0.5867	0.00492	-0.344
Mof_O 	O 	0.7728	0.58271	0.00469	0.245
Mof_O 	O 	0.56295	0.50089	0.03748	-0.384
Mof_C 	C 	0.65432	0.50231	0.04065	-0.072
Mof_H 	H 	0.6379	0.5038	0.0667	0.093
Mof_C 	C 	0.70184	0.50242	0.04268	0.084
Mof_C 	C 	0.7277	0.50492	0.0867	-0.344
Mof_O 	O 	0.7272	0.50469	0.08271	0.247
Mof_O 	O 	0.06295	0.00089	0.53748	-0.393
Mof_C 	C 	0.15432	0.00231	0.54065	-0.072
Mof_H 	H 	0.1379	0.0038	0.5667	0.089
Mof_C 	C 	0.20184	0.00242	0.54268	0.082
Mof_C 	C 	0.2277	0.00492	0.5867	-0.345
Mof_O 	O 	0.2272	0.00469	0.58271	0.241
Mof_O 	O 	0.43705	0.49911	0.03748	-0.384
Mof_C 	C 	0.34568	0.49769	0.04065	-0.073
Mof_H 	H 	0.3621	0.4962	0.0667	0.093
Mof_C 	C 	0.29816	0.49758	0.04268	0.084
Mof_C 	C 	0.2723	0.49508	0.0867	-0.344
Mof_O 	O 	0.2728	0.49531	0.08271	0.244
Mof_O 	O 	0.93705	0.99911	0.53748	-0.341
Mof_C 	C 	0.84568	0.99769	0.54065	-0.046
Mof_H 	H 	0.8621	0.9962	0.5667	0.096
Mof_C 	C 	0.79816	0.99758	0.54268	0.106
Mof_C 	C 	0.7723	0.99508	0.5867	-0.343
Mof_O 	O 	0.7728	0.99531	0.58271	0.26
Mof_O 	O 	0.56295	0.49911	0.96252	-0.362
Mof_C 	C 	0.65432	0.49769	0.95935	-0.044
Mof_H 	H 	0.6379	0.4962	0.9333	0.09
Mof_C 	C 	0.70184	0.49758	0.95732	0.103
Mof_C 	C 	0.7277	0.49508	0.9133	-0.343
Mof_O 	O 	0.7272	0.49531	0.91729	0.255
Mof_O 	O 	0.06295	0.99911	0.46252	-0.36
Mof_C 	C 	0.15432	0.99769	0.45935	-0.044
Mof_H 	H 	0.1379	0.9962	0.4333	0.089
Mof_C 	C 	0.20184	0.99758	0.45732	0.103
Mof_C 	C 	0.2277	0.99508	0.4133	-0.343
Mof_O 	O 	0.2272	0.99531	0.41729	0.254
Mof_O 	O 	0.43705	0.50089	0.96252	-0.362
Mof_C 	C 	0.34568	0.50231	0.95935	-0.045
Mof_H 	H 	0.3621	0.5038	0.9333	0.089
Mof_C 	C 	0.29816	0.50242	0.95732	0.103
Mof_C 	C 	0.2723	0.50492	0.9133	-0.343
Mof_O 	O 	0.2728	0.50469	0.91729	0.252
Mof_O 	O 	0.93705	0.00089	0.46252	-0.376
Mof_C 	C 	0.84568	0.00231	0.45935	-0.074
Mof_H 	H 	0.8621	0.0038	0.4333	0.094
Mof_C 	C 	0.79816	0.00242	0.45732	0.085
Mof_C 	C 	0.7723	0.00492	0.4133	-0.345
Mof_O 	O 	0.7728	0.00469	0.41729	0.243
Mof_O 	O 	0.50089	0.96252	0.43705	-0.362
Mof_C 	C 	0.50231	0.95935	0.34568	-0.045
Mof_H 	H 	0.5038	0.9333	0.3621	0.089
Mof_C 	C 	0.50242	0.95732	0.29816	0.103
Mof_C 	C 	0.50492	0.9133	0.2723	-0.343
Mof_O 	O 	0.50469	0.91729	0.2728	0.252
Mof_O 	O 	0.00089	0.46252	0.93705	-0.376
Mof_C 	C 	0.00231	0.45935	0.84568	-0.074
Mof_H 	H 	0.0038	0.4333	0.8621	0.094
Mof_C 	C 	0.00242	0.45732	0.79816	0.085
Mof_C 	C 	0.00492	0.4133	0.7723	-0.345
Mof_O 	O 	0.00469	0.41729	0.7728	0.243
Mof_O 	O 	0.49911	0.96252	0.56295	-0.362
Mof_C 	C 	0.49769	0.95935	0.65432	-0.044
Mof_H 	H 	0.4962	0.9333	0.6379	0.09
Mof_C 	C 	0.49758	0.95732	0.70184	0.103
Mof_C 	C 	0.49508	0.9133	0.7277	-0.343
Mof_O 	O 	0.49531	0.91729	0.7272	0.255
Mof_O 	O 	0.99911	0.46252	0.06295	-0.36
Mof_C 	C 	0.99769	0.45935	0.15432	-0.044
Mof_H 	H 	0.9962	0.4333	0.1379	0.089
Mof_C 	C 	0.99758	0.45732	0.20184	0.103
Mof_C 	C 	0.99508	0.4133	0.2277	-0.343
Mof_O 	O 	0.99531	0.41729	0.2272	0.254
Mof_O 	O 	0.49911	0.03748	0.43705	-0.384
Mof_C 	C 	0.49769	0.04065	0.34568	-0.073
Mof_H 	H 	0.4962	0.0667	0.3621	0.093
Mof_C 	C 	0.49758	0.04268	0.29816	0.084
Mof_C 	C 	0.49508	0.0867	0.2723	-0.344
Mof_O 	O 	0.49531	0.08271	0.2728	0.244
Mof_O 	O 	0.99911	0.53748	0.93705	-0.341
Mof_C 	C 	0.99769	0.54065	0.84568	-0.046
Mof_H 	H 	0.9962	0.5667	0.8621	0.096
Mof_C 	C 	0.99758	0.54268	0.79816	0.106
Mof_C 	C 	0.99508	0.5867	0.7723	-0.343
Mof_O 	O 	0.99531	0.58271	0.7728	0.26
Mof_O 	O 	0.50089	0.03748	0.56295	-0.384
Mof_C 	C 	0.50231	0.04065	0.65432	-0.072
Mof_H 	H 	0.5038	0.0667	0.6379	0.093
Mof_C 	C 	0.50242	0.04268	0.70184	0.084
Mof_C 	C 	0.50492	0.0867	0.7277	-0.344
Mof_O 	O 	0.50469	0.08271	0.7272	0.247
Mof_O 	O 	0.00089	0.53748	0.06295	-0.393
Mof_C 	C 	0.00231	0.54065	0.15432	-0.072
Mof_H 	H 	0.0038	0.5667	0.1379	0.089
Mof_C 	C 	0.00242	0.54268	0.20184	0.082
Mof_C 	C 	0.00492	0.5867	0.2277	-0.345
Mof_O 	O 	0.00469	0.58271	0.2272	0.241
Mof_O 	O 	0.96252	0.56295	0.49911	-0.362
Mof_C 	C 	0.95935	0.65432	0.49769	-0.044
Mof_H 	H 	0.9333	0.6379	0.4962	0.09
Mof_C 	C 	0.95732	0.70184	0.49758	0.103
Mof_C 	C 	0.9133	0.7277	0.49508	-0.343
Mof_O 	O 	0.91729	0.7272	0.49531	0.255
Mof_O 	O 	0.46252	0.06295	0.99911	-0.36
Mof_C 	C 	0.45935	0.15432	0.99769	-0.044
Mof_H 	H 	0.4333	0.1379	0.9962	0.089
Mof_C 	C 	0.45732	0.20184	0.99758	0.103
Mof_C 	C 	0.4133	0.2277	0.99508	-0.343
Mof_O 	O 	0.41729	0.2272	0.99531	0.254
Mof_O 	O 	0.96252	0.43705	0.50089	-0.362
Mof_C 	C 	0.95935	0.34568	0.50231	-0.045
Mof_H 	H 	0.9333	0.3621	0.5038	0.089
Mof_C 	C 	0.95732	0.29816	0.50242	0.103
Mof_C 	C 	0.9133	0.2723	0.50492	-0.343
Mof_O 	O 	0.91729	0.2728	0.50469	0.252
Mof_O 	O 	0.46252	0.93705	0.00089	-0.376
Mof_C 	C 	0.45935	0.84568	0.00231	-0.074
Mof_H 	H 	0.4333	0.8621	0.0038	0.094
Mof_C 	C 	0.45732	0.79816	0.00242	0.085
Mof_C 	C 	0.4133	0.7723	0.00492	-0.345
Mof_O 	O 	0.41729	0.7728	0.00469	0.243
Mof_O 	O 	0.03748	0.56295	0.50089	-0.384
Mof_C 	C 	0.04065	0.65432	0.50231	-0.072
Mof_H 	H 	0.0667	0.6379	0.5038	0.093
Mof_C 	C 	0.04268	0.70184	0.50242	0.084
Mof_C 	C 	0.0867	0.7277	0.50492	-0.344
Mof_O 	O 	0.08271	0.7272	0.50469	0.247
Mof_O 	O 	0.53748	0.06295	0.00089	-0.393
Mof_C 	C 	0.54065	0.15432	0.00231	-0.072
Mof_H 	H 	0.5667	0.1379	0.0038	0.089
Mof_C 	C 	0.54268	0.20184	0.00242	0.082
Mof_C 	C 	0.5867	0.2277	0.00492	-0.345
Mof_O 	O 	0.58271	0.2272	0.00469	0.241
Mof_O 	O 	0.03748	0.43705	0.49911	-0.384
Mof_C 	C 	0.04065	0.34568	0.49769	-0.073
Mof_H 	H 	0.0667	0.3621	0.4962	0.093
Mof_C 	C 	0.04268	0.29816	0.49758	0.084
Mof_C 	C 	0.0867	0.2723	0.49508	-0.344
Mof_O 	O 	0.08271	0.2728	0.49531	0.244
Mof_O 	O 	0.53748	0.93705	0.99911	-0.341
Mof_C 	C 	0.54065	0.84568	0.99769	-0.046
Mof_H 	H 	0.5667	0.8621	0.9962	0.096
Mof_C 	C 	0.54268	0.79816	0.99758	0.106
Mof_C 	C 	0.5867	0.7723	0.99508	-0.343
Mof_O 	O 	0.58271	0.7728	0.99531	0.26
Mof_Cu	Cu	0.5	0.5	0.95673	0.921
Mof_Cu	Cu	1.71246e-33	0	0.45673	0.894
Mof_Cu	Cu	0.5	0.5	0.04327	0.914
Mof_Cu	Cu	9.37676e-33	7.33982e-33	0.54327	0.895
Mof_Cu	Cu	0.95673	0.5	0.5	0.921
Mof_Cu	Cu	0.45673	0	-0	0.894
Mof_Cu	Cu	0.04327	0.5	0.5	0.914
Mof_Cu	Cu	0.54327	0	-0	0.895
Mof_Cu	Cu	0.5	0.95673	0.5	0.921
Mof_Cu	Cu	-0	0.45673	-0	0.894
Mof_Cu	Cu	0.5	0.04327	0.5	0.914
Mof_Cu	Cu	7.33982e-33	0.54327	-0	0.895
Mof_C 	C 	0.5	0.58272	-0	0.29
Mof_C 	C 	0.5	0.63269	-0	-0.031
Mof_C 	C 	0.5	0.72317	-0	-0.036
Mof_C 	C 	-1.79521e-33	0.08272	0.5	0.289
Mof_C 	C 	1.8747e-33	0.13269	0.5	-0.034
Mof_C 	C 	-1.79521e-33	0.22317	0.5	-0.036
Mof_C 	C 	0.5	0.41728	-0	0.29
Mof_C 	C 	0.5	0.36731	-0	-0.031
Mof_C 	C 	0.5	0.27683	-0	-0.037
Mof_C 	C 	-9.13503e-33	0.91728	0.5	0.287
Mof_C 	C 	1.28844e-32	0.86731	0.5	-0.026
Mof_C 	C 	-9.13503e-33	0.77683	0.5	-0.036
Mof_C 	C 	-5.15497e-33	0.5	0.58272	0.29
Mof_C 	C 	9.71203e-33	0.5	0.63269	-0.031
Mof_C 	C 	-1.9308e-32	0.5	0.72317	-0.036
Mof_C 	C 	0.5	9.17478e-34	0.08272	0.289
Mof_C 	C 	0.5	9.17478e-34	0.13269	-0.034
Mof_C 	C 	0.5	0	0.22317	-0.036
Mof_C 	C 	1.56455e-33	0.5	0.41728	0.29
Mof_C 	C 	1.37719e-33	0.5	0.36731	-0.031
Mof_C 	C 	4.70786e-33	0.5	0.27683	-0.037
Mof_C 	C 	0.5	-7.33982e-33	0.91728	0.287
Mof_C 	C 	0.5	-7.33982e-33	0.86731	-0.026
Mof_C 	C 	0.5	0	0.77683	-0.036
Mof_C 	C 	0.58272	0	0.5	0.29
Mof_C 	C 	0.63269	0	0.5	-0.031
Mof_C 	C 	0.72317	0	0.5	-0.036
Mof_C 	C 	0.08272	0.5	-0	0.289
Mof_C 	C 	0.13269	0.5	-0	-0.034
Mof_C 	C 	0.22317	0.5	-0	-0.036
Mof_C 	C 	0.41728	0	0.5	0.29
Mof_C 	C 	0.36731	0	0.5	-0.031
Mof_C 	C 	0.27683	0	0.5	-0.037
Mof_C 	C 	0.91728	0.5	-0	0.287
Mof_C 	C 	0.86731	0.5	-0	-0.026
Mof_C 	C 	0.77683	0.5	-0	-0.036
Mof_C 	C 	0.58272	0.5	-0	0.29
Mof_C 	C 	0.63269	0.5	-0	-0.031
Mof_C 	C 	0.72317	0.5	-0	-0.036
Mof_C 	C 	0.08272	0	0.5	0.289
Mof_C 	C 	0.13269	0	0.5	-0.034
Mof_C 	C 	0.22317	0	0.5	-0.036
Mof_C 	C 	0.41728	0.5	-0	0.29
Mof_C 	C 	0.36731	0.5	-0	-0.031
Mof_C 	C 	0.27683	0.5	-0	-0.037
Mof_C 	C 	0.91728	0	0.5	0.287
Mof_C 	C 	0.86731	0	0.5	-0.026
Mof_C 	C 	0.77683	0	0.5	-0.036
Mof_C 	C 	0.5	0	0.41728	0.29
Mof_C 	C 	0.5	3.66991e-33	0.36731	-0.031
Mof_C 	C 	0.5	0	0.27683	-0.037
Mof_C 	C 	-1.12404e-32	0.5	0.91728	0.287
Mof_C 	C 	1.05917e-32	0.5	0.86731	-0.026
Mof_C 	C 	-1.1767e-32	0.5	0.77683	-0.036
Mof_C 	C 	0.5	0	0.58272	0.29
Mof_C 	C 	0.5	0	0.63269	-0.031
Mof_C 	C 	0.5	7.33982e-33	0.72317	-0.036
Mof_C 	C 	3.1015e-34	0.5	0.08272	0.289
Mof_C 	C 	3.24994e-33	0.5	0.13269	-0.034
Mof_C 	C 	8.36753e-34	0.5	0.22317	-0.036
Mof_C 	C 	-1.79521e-33	0.58272	0.5	0.29
Mof_C 	C 	1.28844e-32	0.63269	0.5	-0.031
Mof_C 	C 	-1.64749e-32	0.72317	0.5	-0.036
Mof_C 	C 	0.5	0.08272	-0	0.289
Mof_C 	C 	0.5	0.13269	-0	-0.034
Mof_C 	C 	0.5	0.22317	-0	-0.036
Mof_C 	C 	-1.79521e-33	0.41728	0.5	0.29
Mof_C 	C 	-1.79521e-33	0.36731	0.5	-0.031
Mof_C 	C 	1.8747e-33	0.27683	0.5	-0.037
Mof_C 	C 	0.5	0.91728	-0	0.287
Mof_C 	C 	0.5	0.86731	-0	-0.026
Mof_C 	C 	0.5	0.77683	-0	-0.036
_end
