data_functionalizedCrystal
_audit_creation_method	'EQeq! by Chris Wilmer'
_symmetry_space_group_name_H-M	'P1'
_symmetry_Int_Tables_number	1
_symmetry_cell_setting	triclinic
loop_
_symmetry_equiv_pos_as_xyz
  x,y,z
_cell_length_a	13.919
_cell_length_b	17.8965
_cell_length_c	16.1361
_cell_angle_alpha	90
_cell_angle_beta	98.619
_cell_angle_gamma	90
loop_
_atom_site_label
_atom_site_type_symbol
_atom_site_fract_x
_atom_site_fract_y
_atom_site_fract_z
_atom_site_charge
Mof_C 	C 	0.9946	0.3005	0.2361	-0.64
Mof_C 	C 	0.0046	0.5009	0.1666	-0.654
Mof_C 	C 	0.9946	0.4323	0.3084	-0.623
Mof_C 	C 	0.0045	0.3687	0.0878	-0.667
Mof_C 	C 	0.1396	0.397	0.2222	-0.635
Mof_C 	C 	0.8605	0.4024	0.1761	-0.608
Mof_C 	C 	0.7826	0.4474	0.4441	0.093
Mof_H 	H 	0.8149	0.4118	0.4165	-0.044
Mof_C 	C 	0.684	0.4396	0.441	-0.19
Mof_H 	H 	0.6515	0.3999	0.4121	0.079
Mof_C 	C 	0.6335	0.4911	0.4811	0.115
Mof_C 	C 	0.6857	0.5496	0.5207	-0.184
Mof_H 	H 	0.6542	0.5868	0.5467	0.086
Mof_C 	C 	0.7853	0.5529	0.5216	0.093
Mof_H 	H 	0.8194	0.5922	0.55	-0.035
Mof_C 	C 	0.5259	0.4812	0.4792	-0.087
Mof_H 	H 	0.4954	0.4442	0.4443	0.048
Mof_N 	N 	0.9914	0.2424	0.2678	-0.085
Mof_N 	N 	0.0078	0.5626	0.1512	-0.086
Mof_N 	N 	0.9925	0.4493	0.376	-0.062
Mof_N 	N 	0.0073	0.3508	0.0191	-0.111
Mof_N 	N 	0.2219	0.3961	0.2374	0.051
Mof_N 	N 	0.7771	0.4045	0.1664	0.046
Mof_N 	N 	0.8352	0.5026	0.4839	-0.262
Mof_Co	Co	0.99839	0.17827	0.38682	1.011
Mof_Cr	Cr	0.99974	0.39971	0.19847	2.791
Mof_C 	C 	0.0054	0.8005	0.2639	-0.581
Mof_C 	C 	0.9954	0.0009	0.3334	-0.56
Mof_C 	C 	0.0054	0.9323	0.1916	-0.56
Mof_C 	C 	0.9955	0.8687	0.4122	-0.501
Mof_C 	C 	0.8604	0.897	0.2778	-0.493
Mof_C 	C 	0.1395	0.9024	0.3239	-0.532
Mof_C 	C 	0.2174	0.9474	0.0559	0.156
Mof_H 	H 	0.1851	0.9118	0.0835	-0.069
Mof_C 	C 	0.316	0.9396	0.059	-0.249
Mof_H 	H 	0.3485	0.8999	0.0879	0.099
Mof_C 	C 	0.3665	0.9911	0.0189	0.168
Mof_C 	C 	0.3143	0.0496	0.9793	-0.244
Mof_H 	H 	0.3458	0.0868	0.9533	0.104
Mof_C 	C 	0.2147	0.0529	0.9784	0.156
Mof_H 	H 	0.1806	0.0922	0.95	-0.067
Mof_C 	C 	0.4741	0.9812	0.0208	-0.136
Mof_H 	H 	0.5046	0.9442	0.0557	0.069
Mof_N 	N 	0.0086	0.7424	0.2322	-0.115
Mof_N 	N 	0.9922	0.0626	0.3488	-0.103
Mof_N 	N 	0.0075	0.9493	0.124	-0.1
Mof_N 	N 	0.9927	0.8508	0.4809	-0.1
Mof_N 	N 	0.7781	0.8961	0.2626	0.031
Mof_N 	N 	0.2229	0.9045	0.3336	0.031
Mof_N 	N 	0.1648	0.0026	0.0161	-0.334
Mof_Co	Co	0.00161	0.67827	0.11318	0.987
Mof_Cr	Cr	0.00026	0.89971	0.30153	2.399
Mof_C 	C 	0.0054	0.6995	0.7639	-0.549
Mof_C 	C 	0.9954	0.4991	0.8334	-0.478
Mof_C 	C 	0.0054	0.5677	0.6916	-0.545
Mof_C 	C 	0.9955	0.6313	0.9122	-0.482
Mof_C 	C 	0.8604	0.603	0.7778	-0.478
Mof_C 	C 	0.1395	0.5976	0.8239	-0.515
Mof_C 	C 	0.2174	0.5526	0.5559	0.094
Mof_H 	H 	0.1851	0.5882	0.5835	-0.048
Mof_C 	C 	0.316	0.5604	0.559	-0.197
Mof_H 	H 	0.3485	0.6001	0.5879	0.086
Mof_C 	C 	0.3665	0.5089	0.5189	0.122
Mof_C 	C 	0.3143	0.4504	0.4793	-0.192
Mof_H 	H 	0.3458	0.4132	0.4533	0.082
Mof_C 	C 	0.2147	0.4471	0.4784	0.093
Mof_H 	H 	0.1806	0.4078	0.45	-0.053
Mof_C 	C 	0.4741	0.5188	0.5208	-0.097
Mof_H 	H 	0.5046	0.5558	0.5557	0.056
Mof_N 	N 	0.0086	0.7576	0.7322	-0.115
Mof_N 	N 	0.9922	0.4374	0.8488	-0.105
Mof_N 	N 	0.0075	0.5507	0.624	-0.111
Mof_N 	N 	0.9927	0.6492	0.9809	-0.095
Mof_N 	N 	0.7781	0.6039	0.7626	0.027
Mof_N 	N 	0.2229	0.5955	0.8336	0.027
Mof_N 	N 	0.1648	0.4974	0.5161	-0.274
Mof_Co	Co	0.00161	0.82173	0.61318	1
Mof_Cr	Cr	0.00026	0.60029	0.80153	2.296
Mof_C 	C 	0.9946	0.1995	0.7361	-0.607
Mof_C 	C 	0.0046	0.9991	0.6666	-0.586
Mof_C 	C 	0.9946	0.0677	0.8084	-0.61
Mof_C 	C 	0.0045	0.1313	0.5878	-0.643
Mof_C 	C 	0.1396	0.103	0.7222	-0.614
Mof_C 	C 	0.8605	0.0976	0.6761	-0.591
Mof_C 	C 	0.7826	0.0526	0.9441	0.015
Mof_H 	H 	0.8149	0.0882	0.9165	-0.016
Mof_C 	C 	0.684	0.0604	0.941	-0.127
Mof_H 	H 	0.6515	0.1001	0.9121	0.061
Mof_C 	C 	0.6335	0.0089	0.9811	0.057
Mof_C 	C 	0.6857	0.9504	0.0207	-0.12
Mof_H 	H 	0.6542	0.9132	0.0467	0.06
Mof_C 	C 	0.7853	0.9471	0.0216	0.024
Mof_H 	H 	0.8194	0.9078	0.05	-0.015
Mof_C 	C 	0.5259	0.0188	0.9792	-0.045
Mof_H 	H 	0.4954	0.0558	0.9443	0.035
Mof_N 	N 	0.9914	0.2576	0.7678	-0.085
Mof_N 	N 	0.0078	0.9374	0.6512	-0.088
Mof_N 	N 	0.9925	0.0507	0.876	-0.067
Mof_N 	N 	0.0073	0.1492	0.5191	-0.105
Mof_N 	N 	0.2219	0.1039	0.7374	0.047
Mof_N 	N 	0.7771	0.0955	0.6664	0.041
Mof_N 	N 	0.8352	0.9974	0.9839	-0.185
Mof_Co	Co	0.99839	0.32173	0.88682	1.027
Mof_Cr	Cr	0.99974	0.10029	0.69847	2.685
Mof_Co	Co	-1.43034e-17	0.5	0.5	1.018
Mof_Co	Co	-0	0	-0	0.989
_end
