# CIF file generated by openbabel 3.1.0, see https://openbabel.org
data_I
_chemical_name_common 'image0'
_cell_length_a 12.8688
_cell_length_b 18.0925
_cell_length_c 14.519
_cell_angle_alpha 90
_cell_angle_beta 116.053
_cell_angle_gamma 90
_space_group_name_H-M_alt 'P 1'
_space_group_name_Hall 'P 1'
loop_
    _symmetry_equiv_pos_as_xyz
    x,y,z
loop_
    _atom_site_label
    _atom_site_type_symbol
    _atom_site_fract_x
    _atom_site_fract_y
    _atom_site_fract_z
    _atom_site_occupancy
    Cd1      Cd       0.10940    0.27123    0.55718    1.000
    O1       O        0.12600    0.31981    0.42020    1.000
    O2       O        0.37023    0.63544    0.46204    1.000
    N1       N        0.71660    0.60564    0.33230    1.000
    N2       N        0.69320    0.53577    0.30980    1.000
    N3       N        0.83010    0.61623    0.35980    1.000
    O3       O        0.30140    0.36171    0.45180    1.000
    N4       N        0.78920    0.49871    0.32200    1.000
    C1       C        0.99380    0.53570    0.37510    1.000
    C2       C        0.87170    0.54960    0.35220    1.000
    C3       C        0.15190    0.44940    0.41200    1.000
    C4       C        0.18370    0.58090    0.40730    1.000
    C5       C        0.03650    0.46330    0.38890    1.000
    H1       H        0.98730    0.42390    0.38260    1.000
    C6       C        0.06710    0.59390    0.38240    1.000
    H2       H        0.03860    0.64200    0.37060    1.000
    C7       C        0.26130    0.64510    0.41800    1.000
    C8       C        0.19620    0.37100    0.42910    1.000
    C9       C        0.22520    0.50850    0.42220    1.000
    H3       H        0.30270    0.49970    0.43900    1.000
    O4       O        0.21840    0.70750    0.38553    1.000
    Cd2      Cd       0.60940    0.77123    0.05718    1.000
    O5       O        0.62600    0.81981    0.92020    1.000
    O6       O        0.87023    0.13544    0.96204    1.000
    N5       N        0.21660    0.10564    0.83230    1.000
    N6       N        0.19320    0.03577    0.80980    1.000
    N7       N        0.33010    0.11623    0.85980    1.000
    O7       O        0.80140    0.86171    0.95180    1.000
    N8       N        0.28920    0.99871    0.82200    1.000
    C10      C        0.49380    0.03570    0.87510    1.000
    C11      C        0.37170    0.04960    0.85220    1.000
    C12      C        0.65190    0.94940    0.91200    1.000
    C13      C        0.68370    0.08090    0.90730    1.000
    C14      C        0.53650    0.96330    0.88890    1.000
    H4       H        0.48730    0.92390    0.88260    1.000
    C15      C        0.56710    0.09390    0.88240    1.000
    H5       H        0.53860    0.14200    0.87060    1.000
    C16      C        0.76130    0.14510    0.91800    1.000
    C17      C        0.69620    0.87100    0.92910    1.000
    C18      C        0.72520    0.00850    0.92220    1.000
    H6       H        0.80270    0.99970    0.93900    1.000
    O8       O        0.71840    0.20750    0.88553    1.000
    Cd3      Cd       0.89060    0.27123    0.94282    1.000
    O9       O        0.87400    0.31981    0.07980    1.000
    O10      O        0.62977    0.63544    0.03796    1.000
    N9       N        0.28340    0.60564    0.16770    1.000
    N10      N        0.30680    0.53577    0.19020    1.000
    N11      N        0.16990    0.61623    0.14020    1.000
    O11      O        0.69860    0.36171    0.04820    1.000
    N12      N        0.21080    0.49871    0.17800    1.000
    C19      C        0.00620    0.53570    0.12490    1.000
    C20      C        0.12830    0.54960    0.14780    1.000
    C21      C        0.84810    0.44940    0.08800    1.000
    C22      C        0.81630    0.58090    0.09270    1.000
    C23      C        0.96350    0.46330    0.11110    1.000
    H7       H        0.01270    0.42390    0.11740    1.000
    C24      C        0.93290    0.59390    0.11760    1.000
    H8       H        0.96140    0.64200    0.12940    1.000
    C25      C        0.73870    0.64510    0.08200    1.000
    C26      C        0.80380    0.37100    0.07090    1.000
    C27      C        0.77480    0.50850    0.07780    1.000
    H9       H        0.69730    0.49970    0.06100    1.000
    O12      O        0.78160    0.70750    0.11447    1.000
    Cd4      Cd       0.39060    0.77123    0.44282    1.000
    O13      O        0.37400    0.81981    0.57980    1.000
    O14      O        0.12977    0.13544    0.53796    1.000
    N13      N        0.78340    0.10564    0.66770    1.000
    N14      N        0.80680    0.03577    0.69020    1.000
    N15      N        0.66990    0.11623    0.64020    1.000
    O15      O        0.19860    0.86171    0.54820    1.000
    N16      N        0.71080    0.99871    0.67800    1.000
    C28      C        0.50620    0.03570    0.62490    1.000
    C29      C        0.62830    0.04960    0.64780    1.000
    C30      C        0.34810    0.94940    0.58800    1.000
    C31      C        0.31630    0.08090    0.59270    1.000
    C32      C        0.46350    0.96330    0.61110    1.000
    H10      H        0.51270    0.92390    0.61740    1.000
    C33      C        0.43290    0.09390    0.61760    1.000
    H11      H        0.46140    0.14200    0.62940    1.000
    C34      C        0.23870    0.14510    0.58200    1.000
    C35      C        0.30380    0.87100    0.57090    1.000
    C36      C        0.27480    0.00850    0.57780    1.000
    H12      H        0.19730    0.99970    0.56100    1.000
    O16      O        0.28160    0.20750    0.61447    1.000
    Cd5      Cd       0.89060    0.72877    0.44282    1.000
    O17      O        0.87400    0.68019    0.57980    1.000
    O18      O        0.62977    0.36456    0.53796    1.000
    N17      N        0.28340    0.39436    0.66770    1.000
    N18      N        0.30680    0.46423    0.69020    1.000
    N19      N        0.16990    0.38377    0.64020    1.000
    O19      O        0.69860    0.63829    0.54820    1.000
    N20      N        0.21080    0.50129    0.67800    1.000
    C37      C        0.00620    0.46430    0.62490    1.000
    C38      C        0.12830    0.45040    0.64780    1.000
    C39      C        0.84810    0.55060    0.58800    1.000
    C40      C        0.81630    0.41910    0.59270    1.000
    C41      C        0.96350    0.53670    0.61110    1.000
    H13      H        0.01270    0.57610    0.61740    1.000
    C42      C        0.93290    0.40610    0.61760    1.000
    H14      H        0.96140    0.35800    0.62940    1.000
    C43      C        0.73870    0.35490    0.58200    1.000
    C44      C        0.80380    0.62900    0.57090    1.000
    C45      C        0.77480    0.49150    0.57780    1.000
    H15      H        0.69730    0.50030    0.56100    1.000
    O20      O        0.78160    0.29250    0.61447    1.000
    Cd6      Cd       0.39060    0.22877    0.94282    1.000
    O21      O        0.37400    0.18019    0.07980    1.000
    O22      O        0.12977    0.86456    0.03796    1.000
    N21      N        0.78340    0.89436    0.16770    1.000
    N22      N        0.80680    0.96423    0.19020    1.000
    N23      N        0.66990    0.88377    0.14020    1.000
    O23      O        0.19860    0.13829    0.04820    1.000
    N24      N        0.71080    0.00129    0.17800    1.000
    C46      C        0.50620    0.96430    0.12490    1.000
    C47      C        0.62830    0.95040    0.14780    1.000
    C48      C        0.34810    0.05060    0.08800    1.000
    C49      C        0.31630    0.91910    0.09270    1.000
    C50      C        0.46350    0.03670    0.11110    1.000
    H16      H        0.51270    0.07610    0.11740    1.000
    C51      C        0.43290    0.90610    0.11760    1.000
    H17      H        0.46140    0.85800    0.12940    1.000
    C52      C        0.23870    0.85490    0.08200    1.000
    C53      C        0.30380    0.12900    0.07090    1.000
    C54      C        0.27480    0.99150    0.07780    1.000
    H18      H        0.19730    0.00030    0.06100    1.000
    O24      O        0.28160    0.79250    0.11447    1.000
    Cd7      Cd       0.10940    0.72877    0.05718    1.000
    O25      O        0.12600    0.68019    0.92020    1.000
    O26      O        0.37023    0.36456    0.96204    1.000
    N25      N        0.71660    0.39436    0.83230    1.000
    N26      N        0.69320    0.46423    0.80980    1.000
    N27      N        0.83010    0.38377    0.85980    1.000
    O27      O        0.30140    0.63829    0.95180    1.000
    N28      N        0.78920    0.50129    0.82200    1.000
    C55      C        0.99380    0.46430    0.87510    1.000
    C56      C        0.87170    0.45040    0.85220    1.000
    C57      C        0.15190    0.55060    0.91200    1.000
    C58      C        0.18370    0.41910    0.90730    1.000
    C59      C        0.03650    0.53670    0.88890    1.000
    H19      H        0.98730    0.57610    0.88260    1.000
    C60      C        0.06710    0.40610    0.88240    1.000
    H20      H        0.03860    0.35800    0.87060    1.000
    C61      C        0.26130    0.35490    0.91800    1.000
    C62      C        0.19620    0.62900    0.92910    1.000
    C63      C        0.22520    0.49150    0.92220    1.000
    H21      H        0.30270    0.50030    0.93900    1.000
    O28      O        0.21840    0.29250    0.88553    1.000
    Cd8      Cd       0.60940    0.22877    0.55718    1.000
    O29      O        0.62600    0.18019    0.42020    1.000
    O30      O        0.87023    0.86456    0.46204    1.000
    N29      N        0.21660    0.89436    0.33230    1.000
    N30      N        0.19320    0.96423    0.30980    1.000
    N31      N        0.33010    0.88377    0.35980    1.000
    O31      O        0.80140    0.13829    0.45180    1.000
    N32      N        0.28920    0.00129    0.32200    1.000
    C64      C        0.49380    0.96430    0.37510    1.000
    C65      C        0.37170    0.95040    0.35220    1.000
    C66      C        0.65190    0.05060    0.41200    1.000
    C67      C        0.68370    0.91910    0.40730    1.000
    C68      C        0.53650    0.03670    0.38890    1.000
    H22      H        0.48730    0.07610    0.38260    1.000
    C69      C        0.56710    0.90610    0.38240    1.000
    H23      H        0.53860    0.85800    0.37060    1.000
    C70      C        0.76130    0.85490    0.41800    1.000
    C71      C        0.69620    0.12900    0.42910    1.000
    C72      C        0.72520    0.99150    0.42220    1.000
    H24      H        0.80270    0.00030    0.43900    1.000
    O32      O        0.71840    0.79250    0.38553    1.000
    Cd9      Cd       0.50000    0.50328    0.25000    1.000
    Cd10     Cd       0.00000    0.00328    0.75000    1.000
    Cd11     Cd       0.50000    0.49672    0.75000    1.000
    Cd12     Cd       0.00000    0.99672    0.25000    1.000
