data_functionalizedCrystal
_audit_creation_method	'EQeq! by Chris Wilmer'
_symmetry_space_group_name_H-M	'P1'
_symmetry_Int_Tables_number	1
_symmetry_cell_setting	triclinic
loop_
_symmetry_equiv_pos_as_xyz
  x,y,z
_cell_length_a	12.829
_cell_length_b	18.528
_cell_length_c	21.3237
_cell_angle_alpha	95.9025
_cell_angle_beta	107.507
_cell_angle_gamma	70.0099
loop_
_atom_site_label
_atom_site_type_symbol
_atom_site_fract_x
_atom_site_fract_y
_atom_site_fract_z
_atom_site_charge
Mof_Zn	Zn	0.82838	0.09377	0.80818	1.184
Mof_Zn	Zn	0.95252	0.1036	0.69706	1.223
Mof_Zn	Zn	0.9798	0.40623	0.80818	1.184
Mof_Zn	Zn	0.74454	0.3964	0.69706	1.225
Mof_Zn	Zn	0.17162	0.90623	0.19182	1.184
Mof_Zn	Zn	0.04748	0.8964	0.30294	1.223
Mof_Zn	Zn	0.0202	0.59377	0.19182	1.184
Mof_Zn	Zn	0.25546	0.6036	0.30294	1.225
Mof_Zn	Zn	0.09721	0.75	0.19442	1.219
Mof_Zn	Zn	0.90279	0.25	0.80558	1.219
Mof_H 	H 	0.1604	0.9877	0.9454	0.024
Mof_H 	H 	0.3427	0.9245	0.0138	0.057
Mof_H 	H 	0.4674	0.8773	0.8558	0.066
Mof_H 	H 	0.2911	0.9474	0.7892	0.028
Mof_H 	H 	0.5512	0.9388	0.0562	0.073
Mof_H 	H 	0.7362	0.8814	0.115	0.027
Mof_H 	H 	0.7619	0.6939	0.0034	0.015
Mof_H 	H 	0.5805	0.7538	0.9338	0.076
Mof_H 	H 	0.6998	0.9201	0.6938	0.004
Mof_H 	H 	0.6077	0.8417	0.622	0.083
Mof_H 	H 	0.6561	0.9219	0.4742	0.092
Mof_H 	H 	0.7727	0.9805	0.5462	0.012
Mof_H 	H 	0.6336	0.7275	0.554	0.067
Mof_H 	H 	0.5403	0.6486	0.4812	0.033
Mof_H 	H 	0.3818	0.822	0.3528	0.012
Mof_H 	H 	0.475	0.9002	0.4302	0.064
Mof_H 	H 	0.785	0.5123	0.9454	0.024
Mof_H 	H 	0.6711	0.5755	0.0138	0.061
Mof_H 	H 	0.3884	0.6227	0.8558	0.066
Mof_H 	H 	0.4981	0.5526	0.7892	0.03
Mof_H 	H 	0.505	0.5612	0.0562	0.073
Mof_H 	H 	0.3788	0.6186	0.115	0.026
Mof_H 	H 	0.2415	0.8061	0.0034	0.014
Mof_H 	H 	0.3533	0.7462	0.9338	0.074
Mof_H 	H 	0.994	0.5799	0.6938	0.003
Mof_H 	H 	0.0143	0.6583	0.622	0.083
Mof_H 	H 	0.8181	0.5781	0.4742	0.093
Mof_H 	H 	0.7735	0.5195	0.5462	0.009
Mof_H 	H 	0.9204	0.7725	0.554	0.067
Mof_H 	H 	0.9409	0.8514	0.4812	0.035
Mof_H 	H 	0.971	0.678	0.3528	0.013
Mof_H 	H 	0.9552	0.5998	0.4302	0.064
Mof_H 	H 	0.8396	0.0123	0.0546	0.024
Mof_H 	H 	0.6573	0.0755	0.9862	0.057
Mof_H 	H 	0.5326	0.1227	0.1442	0.066
Mof_H 	H 	0.7089	0.0526	0.2108	0.028
Mof_H 	H 	0.4488	0.0612	0.9438	0.073
Mof_H 	H 	0.2638	0.1186	0.885	0.027
Mof_H 	H 	0.2381	0.3061	0.9966	0.015
Mof_H 	H 	0.4195	0.2462	0.0662	0.076
Mof_H 	H 	0.3002	0.0799	0.3062	0.004
Mof_H 	H 	0.3923	0.1583	0.378	0.083
Mof_H 	H 	0.3439	0.0781	0.5258	0.092
Mof_H 	H 	0.2273	0.0195	0.4538	0.012
Mof_H 	H 	0.3664	0.2725	0.446	0.067
Mof_H 	H 	0.4597	0.3514	0.5188	0.033
Mof_H 	H 	0.6182	0.178	0.6472	0.012
Mof_H 	H 	0.525	0.0998	0.5698	0.064
Mof_H 	H 	0.215	0.4877	0.0546	0.024
Mof_H 	H 	0.3289	0.4245	0.9862	0.061
Mof_H 	H 	0.6116	0.3773	0.1442	0.066
Mof_H 	H 	0.5019	0.4474	0.2108	0.03
Mof_H 	H 	0.495	0.4388	0.9438	0.073
Mof_H 	H 	0.6212	0.3814	0.885	0.026
Mof_H 	H 	0.7585	0.1939	0.9966	0.014
Mof_H 	H 	0.6467	0.2538	0.0662	0.074
Mof_H 	H 	0.006	0.4201	0.3062	0.003
Mof_H 	H 	0.9857	0.3417	0.378	0.083
Mof_H 	H 	0.1819	0.4219	0.5258	0.093
Mof_H 	H 	0.2265	0.4805	0.4538	0.009
Mof_H 	H 	0.0796	0.2275	0.446	0.067
Mof_H 	H 	0.0591	0.1486	0.5188	0.035
Mof_H 	H 	0.029	0.322	0.6472	0.013
Mof_H 	H 	0.0448	0.4002	0.5698	0.064
Mof_C 	C 	0.092	0.0227	0.8182	0.393
Mof_C 	C 	0.20626	0.9764	0.86072	-0.127
Mof_C 	C 	0.2228	0.9672	0.928	0.038
Mof_C 	C 	0.33152	0.9277	0.96884	-0.106
Mof_C 	C 	0.4242	0.8929	0.942	0.033
Mof_C 	C 	0.4062	0.9007	0.8738	-0.11
Mof_C 	C 	0.30085	0.942	0.8337	0.038
Mof_C 	C 	0.54288	0.8538	0.98536	0.044
Mof_C 	C 	0.59358	0.8908	0.04356	-0.123
Mof_C 	C 	0.70253	0.8554	0.07946	0.056
Mof_C 	C 	0.76843	0.78	0.06546	-0.146
Mof_C 	C 	0.72048	0.7438	0.01256	0.064
Mof_C 	C 	0.61007	0.7794	0.97114	-0.128
Mof_C 	C 	0.88816	0.7435	0.10992	0.397
Mof_C 	C 	0.8069	0.0104	0.6702	0.431
Mof_C 	C 	0.74994	0.9613	0.62668	-0.193
Mof_C 	C 	0.69687	0.9182	0.64954	0.084
Mof_C 	C 	0.63858	0.8716	0.60536	-0.154
Mof_C 	C 	0.62664	0.8695	0.53908	0.09
Mof_C 	C 	0.67002	0.9158	0.51904	-0.174
Mof_C 	C 	0.73562	0.9556	0.56344	0.115
Mof_C 	C 	0.56501	0.8235	0.49922	0.021
Mof_C 	C 	0.58189	0.7479	0.51398	-0.095
Mof_C 	C 	0.52326	0.6996	0.47052	0.043
Mof_C 	C 	0.44395	0.7302	0.4147	-0.137
Mof_C 	C 	0.4285	0.8033	0.3942	0.037
Mof_C 	C 	0.4898	0.8497	0.4414	-0.098
Mof_C 	C 	0.38167	0.6826	0.36854	0.402
Mof_C 	C 	0.7262	0.4773	0.8182	0.388
Mof_C 	C 	0.65446	0.5236	0.86072	-0.121
Mof_C 	C 	0.7052	0.5328	0.928	0.038
Mof_C 	C 	0.63732	0.5723	0.96884	-0.111
Mof_C 	C 	0.5178	0.6071	0.942	0.035
Mof_C 	C 	0.4676	0.5993	0.8738	-0.11
Mof_C 	C 	0.53285	0.558	0.8337	0.037
Mof_C 	C 	0.44248	0.6462	0.98536	0.044
Mof_C 	C 	0.44998	0.6092	0.04356	-0.124
Mof_C 	C 	0.37693	0.6446	0.07946	0.055
Mof_C 	C 	0.29703	0.72	0.06546	-0.146
Mof_C 	C 	0.29208	0.7562	0.01256	0.058
Mof_C 	C 	0.36107	0.7206	0.97114	-0.121
Mof_C 	C 	0.22176	0.7565	0.10992	0.397
Mof_C 	C 	0.8633	0.4896	0.6702	0.436
Mof_C 	C 	0.87674	0.5387	0.62668	-0.2
Mof_C 	C 	0.95267	0.5818	0.64954	0.086
Mof_C 	C 	0.96678	0.6284	0.60536	-0.154
Mof_C 	C 	0.91244	0.6305	0.53908	0.092
Mof_C 	C 	0.84902	0.5842	0.51904	-0.177
Mof_C 	C 	0.82782	0.5444	0.56344	0.12
Mof_C 	C 	0.93421	0.6765	0.49922	0.02
Mof_C 	C 	0.93209	0.7521	0.51398	-0.094
Mof_C 	C 	0.94726	0.8004	0.47052	0.042
Mof_C 	C 	0.97075	0.7698	0.4147	-0.135
Mof_C 	C 	0.9657	0.6967	0.3942	0.037
Mof_C 	C 	0.9516	0.6503	0.4414	-0.096
Mof_C 	C 	0.98687	0.8174	0.36854	0.401
Mof_C 	C 	0.908	0.9773	0.1818	0.393
Mof_C 	C 	0.79374	0.0236	0.13928	-0.127
Mof_C 	C 	0.7772	0.0328	0.072	0.038
Mof_C 	C 	0.66848	0.0723	0.03116	-0.106
Mof_C 	C 	0.5758	0.1071	0.058	0.033
Mof_C 	C 	0.5938	0.0993	0.1262	-0.11
Mof_C 	C 	0.69915	0.058	0.1663	0.038
Mof_C 	C 	0.45712	0.1462	0.01464	0.044
Mof_C 	C 	0.40642	0.1092	0.95644	-0.123
Mof_C 	C 	0.29747	0.1446	0.92054	0.056
Mof_C 	C 	0.23157	0.22	0.93454	-0.146
Mof_C 	C 	0.27952	0.2562	0.98744	0.064
Mof_C 	C 	0.38993	0.2206	0.02886	-0.128
Mof_C 	C 	0.11184	0.2565	0.89008	0.397
Mof_C 	C 	0.1931	0.9896	0.3298	0.431
Mof_C 	C 	0.25006	0.0387	0.37332	-0.193
Mof_C 	C 	0.30313	0.0818	0.35046	0.084
Mof_C 	C 	0.36142	0.1284	0.39464	-0.154
Mof_C 	C 	0.37336	0.1305	0.46092	0.09
Mof_C 	C 	0.32998	0.0842	0.48096	-0.174
Mof_C 	C 	0.26438	0.0444	0.43656	0.115
Mof_C 	C 	0.43499	0.1765	0.50078	0.021
Mof_C 	C 	0.41811	0.2521	0.48602	-0.095
Mof_C 	C 	0.47674	0.3004	0.52948	0.043
Mof_C 	C 	0.55605	0.2698	0.5853	-0.137
Mof_C 	C 	0.5715	0.1967	0.6058	0.037
Mof_C 	C 	0.5102	0.1503	0.5586	-0.098
Mof_C 	C 	0.61833	0.3174	0.63146	0.402
Mof_C 	C 	0.2738	0.5227	0.1818	0.388
Mof_C 	C 	0.34554	0.4764	0.13928	-0.121
Mof_C 	C 	0.2948	0.4672	0.072	0.038
Mof_C 	C 	0.36268	0.4277	0.03116	-0.111
Mof_C 	C 	0.4822	0.3929	0.058	0.035
Mof_C 	C 	0.5324	0.4007	0.1262	-0.11
Mof_C 	C 	0.46715	0.442	0.1663	0.037
Mof_C 	C 	0.55752	0.3538	0.01464	0.044
Mof_C 	C 	0.55002	0.3908	0.95644	-0.124
Mof_C 	C 	0.62307	0.3554	0.92054	0.055
Mof_C 	C 	0.70297	0.28	0.93454	-0.146
Mof_C 	C 	0.70792	0.2438	0.98744	0.058
Mof_C 	C 	0.63893	0.2794	0.02886	-0.121
Mof_C 	C 	0.77824	0.2435	0.89008	0.397
Mof_C 	C 	0.1367	0.5104	0.3298	0.436
Mof_C 	C 	0.12326	0.4613	0.37332	-0.2
Mof_C 	C 	0.04733	0.4182	0.35046	0.086
Mof_C 	C 	0.03322	0.3716	0.39464	-0.154
Mof_C 	C 	0.08756	0.3695	0.46092	0.092
Mof_C 	C 	0.15098	0.4158	0.48096	-0.177
Mof_C 	C 	0.17218	0.4556	0.43656	0.12
Mof_C 	C 	0.06579	0.3235	0.50078	0.02
Mof_C 	C 	0.06791	0.2479	0.48602	-0.094
Mof_C 	C 	0.05274	0.1996	0.52948	0.042
Mof_C 	C 	0.02925	0.2302	0.5853	-0.135
Mof_C 	C 	0.0343	0.3033	0.6058	0.037
Mof_C 	C 	0.0484	0.3497	0.5586	-0.096
Mof_C 	C 	0.01313	0.1826	0.63146	0.401
Mof_O 	O 	0.00724	0.043	0.84368	-0.465
Mof_O 	O 	0.08758	0.03677	0.76116	-0.478
Mof_O 	O 	0.80854	0.0155	0.72948	-0.505
Mof_O 	O 	0.85864	0.04078	0.64508	-0.478
Mof_O 	O 	0.9367	0.79068	0.143	-0.489
Mof_O 	O 	0.93115	0.67323	0.1109	-0.491
Mof_O 	O 	0.39029	0.6203	0.38198	-0.436
Mof_O 	O 	0.32036	0.7064	0.31292	-0.43
Mof_O 	O 	0.09844	0.66875	0.24908	-0.671
Mof_O 	O 	0.83644	0.457	0.84368	-0.471
Mof_O 	O 	0.67358	0.46323	0.76116	-0.48
Mof_O 	O 	0.92094	0.4845	0.72948	-0.504
Mof_O 	O 	0.78644	0.45922	0.64508	-0.477
Mof_O 	O 	0.2063	0.70932	0.143	-0.493
Mof_O 	O 	0.17975	0.82677	0.1109	-0.496
Mof_O 	O 	0.99169	0.8797	0.38198	-0.433
Mof_O 	O 	0.99256	0.7936	0.31292	-0.426
Mof_O 	O 	0.15064	0.83125	0.24908	-0.672
Mof_O 	O 	0.99276	0.957	0.15632	-0.465
Mof_O 	O 	0.91242	0.96323	0.23884	-0.478
Mof_O 	O 	0.19146	0.9845	0.27052	-0.505
Mof_O 	O 	0.14136	0.95922	0.35492	-0.478
Mof_O 	O 	0.0633	0.20932	0.857	-0.489
Mof_O 	O 	0.06885	0.32677	0.8891	-0.491
Mof_O 	O 	0.60971	0.3797	0.61802	-0.436
Mof_O 	O 	0.67964	0.2936	0.68708	-0.43
Mof_O 	O 	0.90156	0.33125	0.75092	-0.671
Mof_O 	O 	0.16356	0.543	0.15632	-0.471
Mof_O 	O 	0.32642	0.53677	0.23884	-0.48
Mof_O 	O 	0.07906	0.5155	0.27052	-0.504
Mof_O 	O 	0.21356	0.54078	0.35492	-0.477
Mof_O 	O 	0.7937	0.29068	0.857	-0.493
Mof_O 	O 	0.82025	0.17323	0.8891	-0.496
Mof_O 	O 	0.00831	0.1203	0.61802	-0.433
Mof_O 	O 	0.00744	0.2064	0.68708	-0.426
Mof_O 	O 	0.84936	0.16875	0.75092	-0.672
_end
