data_functionalizedCrystal
_audit_creation_method	'EQeq! by Chris Wilmer'
_symmetry_space_group_name_H-M	'P1'
_symmetry_Int_Tables_number	1
_symmetry_cell_setting	triclinic
loop_
_symmetry_equiv_pos_as_xyz
  x,y,z
_cell_length_a	11.1967
_cell_length_b	11.1967
_cell_length_c	44.0828
_cell_angle_alpha	90
_cell_angle_beta	90
_cell_angle_gamma	120
loop_
_atom_site_label
_atom_site_type_symbol
_atom_site_fract_x
_atom_site_fract_y
_atom_site_fract_z
_atom_site_charge
Mof_H 	H 	0.653	0.795	0.7666	0.249
Mof_O 	O 	0.67544	0.5389	0.60344	-0.392
Mof_O 	O 	0.48831	0.47933	0.63013	-0.407
Mof_O 	O 	0.7067	0.7598	0.76609	-0.374
Mof_N 	N 	0.5638	0.7296	0.58612	-0.264
Mof_C 	C 	0.7609	0.5543	0.70926	0.042
Mof_C 	C 	0.6995	0.6955	0.73957	0.221
Mof_C 	C 	0.8279	0.4756	0.70584	-0.068
Mof_H 	H 	0.8746	0.4659	0.7222	0.067
Mof_C 	C 	0.686	0.4994	0.65624	-0.07
Mof_C 	C 	0.6854	0.5641	0.68415	0.01
Mof_C 	C 	0.7682	0.6229	0.73702	-0.047
Mof_C 	C 	0.6182	0.6415	0.68776	0.007
Mof_H 	H 	0.5689	0.6491	0.6716	0.04
Mof_C 	C 	0.6242	0.7055	0.71463	-0.178
Mof_H 	H 	0.579	0.7557	0.7166	0.1
Mof_C 	C 	0.5457	0.7867	0.61122	0.098
Mof_H 	H 	0.4908	0.729	0.6267	-0.015
Mof_C 	C 	0.6122	0.5072	0.62855	0.298
Mof_C 	C 	0.6834	0.0158	0.59182	0.109
Mof_C 	C 	0.7039	0.9572	0.56614	-0.145
Mof_H 	H 	0.7578	0.0127	0.5503	0.078
Mof_C 	C 	0.6434	0.8145	0.56428	0.085
Mof_H 	H 	0.6591	0.7766	0.547	-0.005
Mof_C 	C 	0.7565	0.4294	0.65362	-0.017
Mof_H 	H 	0.7594	0.3916	0.635	0.041
Mof_C 	C 	0.6048	0.9269	0.61498	-0.167
Mof_H 	H 	0.5923	0.9623	0.633	0.102
Mof_C 	C 	0.8249	0.4142	0.67898	-0.028
Mof_H 	H 	0.8682	0.362	0.6773	0.037
Mof_C 	C 	0.733	0.1682	0.5952	-0.16
Mof_H 	H 	0.7775	0.1973	0.6148	0.074
Mof_H 	H 	0.6525	0.1792	0.5956	0.078
Mof_H 	H 	0.205	0.858	0.43327	0.252
Mof_O 	O 	0.4611	0.13654	0.27011	-0.388
Mof_O 	O 	0.52067	0.00898	0.2968	-0.397
Mof_O 	O 	0.2402	0.9469	0.43276	-0.386
Mof_N 	N 	0.2704	0.8342	0.25279	-0.268
Mof_C 	C 	0.4457	0.2066	0.37593	0.04
Mof_C 	C 	0.3045	0.004	0.40624	0.238
Mof_C 	C 	0.5244	0.3523	0.37251	-0.066
Mof_H 	H 	0.5341	0.4087	0.38887	0.066
Mof_C 	C 	0.5006	0.1866	0.32291	-0.072
Mof_C 	C 	0.4359	0.1213	0.35082	0.023
Mof_C 	C 	0.3771	0.1453	0.40369	-0.052
Mof_C 	C 	0.3585	0.9767	0.35443	-0.008
Mof_H 	H 	0.3509	0.9198	0.33827	0.041
Mof_C 	C 	0.2945	0.9187	0.3813	-0.188
Mof_H 	H 	0.2443	0.8233	0.38327	0.103
Mof_C 	C 	0.2133	0.759	0.27789	0.099
Mof_H 	H 	0.271	0.7618	0.29337	-0.018
Mof_C 	C 	0.4928	0.105	0.29522	0.299
Mof_C 	C 	0.9842	0.6676	0.25849	0.113
Mof_C 	C 	0.0428	0.7467	0.23281	-0.157
Mof_H 	H 	0.9873	0.7451	0.21697	0.083
Mof_C 	C 	0.1855	0.8289	0.23095	0.09
Mof_H 	H 	0.2234	0.8825	0.21367	-0.011
Mof_C 	C 	0.5706	0.3271	0.32029	-0.014
Mof_H 	H 	0.6084	0.3678	0.30167	0.041
Mof_C 	C 	0.0731	0.6779	0.28165	-0.173
Mof_H 	H 	0.0377	0.63	0.29967	0.103
Mof_C 	C 	0.5858	0.4107	0.34565	-0.029
Mof_H 	H 	0.638	0.5062	0.34397	0.038
Mof_C 	C 	0.8318	0.5648	0.26187	-0.146
Mof_H 	H 	0.8027	0.5802	0.28147	0.069
Mof_H 	H 	0.8208	0.4733	0.26227	0.074
Mof_H 	H 	0.142	0.347	0.09993	0.252
Mof_O 	O 	0.86346	0.32456	0.93677	-0.388
Mof_O 	O 	0.99102	0.51169	0.96346	-0.397
Mof_O 	O 	0.0531	0.2933	0.09942	-0.39
Mof_N 	N 	0.1658	0.4362	0.91945	-0.276
Mof_C 	C 	0.7934	0.2391	0.04259	0.04
Mof_C 	C 	0.996	0.3005	0.0729	0.243
Mof_C 	C 	0.6477	0.1721	0.03917	-0.065
Mof_H 	H 	0.5913	0.1254	0.05553	0.067
Mof_C 	C 	0.8134	0.314	0.98957	-0.073
Mof_C 	C 	0.8787	0.3146	0.01748	0.025
Mof_C 	C 	0.8547	0.2318	0.07035	-0.051
Mof_C 	C 	0.0233	0.3818	0.02109	-0.009
Mof_H 	H 	0.0802	0.4311	0.00493	0.041
Mof_C 	C 	0.0813	0.3758	0.04796	-0.192
Mof_H 	H 	0.1767	0.421	0.04993	0.103
Mof_C 	C 	0.241	0.4543	0.94455	0.118
Mof_H 	H 	0.2382	0.5092	0.96003	-0.024
Mof_C 	C 	0.895	0.3878	0.96188	0.299
Mof_C 	C 	0.3324	0.3166	0.92515	0.161
Mof_C 	C 	0.2533	0.2961	0.89947	-0.203
Mof_H 	H 	0.2549	0.2422	0.88363	0.101
Mof_C 	C 	0.1711	0.3566	0.89761	0.111
Mof_H 	H 	0.1175	0.3409	0.88033	-0.019
Mof_C 	C 	0.6729	0.2435	0.98695	-0.013
Mof_H 	H 	0.6322	0.2406	0.96833	0.04
Mof_C 	C 	0.3221	0.3952	0.94831	-0.211
Mof_H 	H 	0.37	0.4077	0.96633	0.112
Mof_C 	C 	0.5893	0.1751	0.01231	-0.03
Mof_H 	H 	0.4938	0.1318	0.01063	0.039
Mof_C 	C 	0.4352	0.267	0.92853	-0.192
Mof_H 	H 	0.4198	0.2225	0.94813	0.084
Mof_H 	H 	0.5267	0.3475	0.92893	0.089
Mof_H 	H 	0.205	0.347	0.40007	0.25
Mof_O 	O 	0.4611	0.32456	0.56323	-0.392
Mof_O 	O 	0.52067	0.51169	0.53654	-0.407
Mof_O 	O 	0.2402	0.2933	0.40058	-0.374
Mof_N 	N 	0.2704	0.4362	0.58055	-0.264
Mof_C 	C 	0.4457	0.2391	0.45741	0.042
Mof_C 	C 	0.3045	0.3005	0.4271	0.221
Mof_C 	C 	0.5244	0.1721	0.46083	-0.068
Mof_H 	H 	0.5341	0.1254	0.44447	0.067
Mof_C 	C 	0.5006	0.314	0.51043	-0.07
Mof_C 	C 	0.4359	0.3146	0.48252	0.01
Mof_C 	C 	0.3771	0.2318	0.42965	-0.047
Mof_C 	C 	0.3585	0.3818	0.47891	0.007
Mof_H 	H 	0.3509	0.4311	0.49507	0.04
Mof_C 	C 	0.2945	0.3758	0.45204	-0.178
Mof_H 	H 	0.2443	0.421	0.45007	0.1
Mof_C 	C 	0.2133	0.4543	0.55545	0.098
Mof_H 	H 	0.271	0.5092	0.53997	-0.015
Mof_C 	C 	0.4928	0.3878	0.53812	0.298
Mof_C 	C 	0.9842	0.3166	0.57485	0.109
Mof_C 	C 	0.0428	0.2961	0.60053	-0.145
Mof_H 	H 	0.9873	0.2422	0.61637	0.078
Mof_C 	C 	0.1855	0.3566	0.60239	0.085
Mof_H 	H 	0.2234	0.3409	0.61967	-0.005
Mof_C 	C 	0.5706	0.2435	0.51305	-0.017
Mof_H 	H 	0.6084	0.2406	0.53167	0.041
Mof_C 	C 	0.0731	0.3952	0.55169	-0.167
Mof_H 	H 	0.0377	0.4077	0.53367	0.102
Mof_C 	C 	0.5858	0.1751	0.48769	-0.028
Mof_H 	H 	0.638	0.1318	0.48937	0.037
Mof_C 	C 	0.8318	0.267	0.57147	-0.16
Mof_H 	H 	0.8027	0.2225	0.55187	0.074
Mof_H 	H 	0.8208	0.3475	0.57107	0.078
Mof_H 	H 	0.142	0.795	0.7334	0.252
Mof_O 	O 	0.86346	0.5389	0.89656	-0.388
Mof_O 	O 	0.99102	0.47933	0.86987	-0.397
Mof_O 	O 	0.0531	0.7598	0.73391	-0.386
Mof_N 	N 	0.1658	0.7296	0.91388	-0.268
Mof_C 	C 	0.7934	0.5543	0.79074	0.04
Mof_C 	C 	0.996	0.6955	0.76043	0.238
Mof_C 	C 	0.6477	0.4756	0.79416	-0.066
Mof_H 	H 	0.5913	0.4659	0.7778	0.066
Mof_C 	C 	0.8134	0.4994	0.84376	-0.072
Mof_C 	C 	0.8787	0.5641	0.81585	0.023
Mof_C 	C 	0.8547	0.6229	0.76298	-0.052
Mof_C 	C 	0.0233	0.6415	0.81224	-0.008
Mof_H 	H 	0.0802	0.6491	0.8284	0.041
Mof_C 	C 	0.0813	0.7055	0.78537	-0.188
Mof_H 	H 	0.1767	0.7557	0.7834	0.103
Mof_C 	C 	0.241	0.7867	0.88878	0.099
Mof_H 	H 	0.2382	0.729	0.8733	-0.018
Mof_C 	C 	0.895	0.5072	0.87145	0.299
Mof_C 	C 	0.3324	0.0158	0.90818	0.113
Mof_C 	C 	0.2533	0.9572	0.93386	-0.157
Mof_H 	H 	0.2549	0.0127	0.9497	0.083
Mof_C 	C 	0.1711	0.8145	0.93572	0.09
Mof_H 	H 	0.1175	0.7766	0.953	-0.011
Mof_C 	C 	0.6729	0.4294	0.84638	-0.014
Mof_H 	H 	0.6322	0.3916	0.865	0.041
Mof_C 	C 	0.3221	0.9269	0.88502	-0.173
Mof_H 	H 	0.37	0.9623	0.867	0.103
Mof_C 	C 	0.5893	0.4142	0.82102	-0.029
Mof_H 	H 	0.4938	0.362	0.8227	0.038
Mof_C 	C 	0.4352	0.1682	0.9048	-0.146
Mof_H 	H 	0.4198	0.1973	0.8852	0.069
Mof_H 	H 	0.5267	0.1792	0.9044	0.074
Mof_H 	H 	0.653	0.858	0.06673	0.252
Mof_O 	O 	0.67544	0.13654	0.22989	-0.388
Mof_O 	O 	0.48831	0.00898	0.2032	-0.397
Mof_O 	O 	0.7067	0.9469	0.06724	-0.39
Mof_N 	N 	0.5638	0.8342	0.24721	-0.276
Mof_C 	C 	0.7609	0.2066	0.12407	0.04
Mof_C 	C 	0.6995	0.004	0.09376	0.243
Mof_C 	C 	0.8279	0.3523	0.12749	-0.065
Mof_H 	H 	0.8746	0.4087	0.11113	0.067
Mof_C 	C 	0.686	0.1866	0.17709	-0.073
Mof_C 	C 	0.6854	0.1213	0.14918	0.025
Mof_C 	C 	0.7682	0.1453	0.09631	-0.051
Mof_C 	C 	0.6182	0.9767	0.14557	-0.009
Mof_H 	H 	0.5689	0.9198	0.16173	0.041
Mof_C 	C 	0.6242	0.9187	0.1187	-0.192
Mof_H 	H 	0.579	0.8233	0.11673	0.103
Mof_C 	C 	0.5457	0.759	0.22211	0.118
Mof_H 	H 	0.4908	0.7618	0.20663	-0.024
Mof_C 	C 	0.6122	0.105	0.20478	0.299
Mof_C 	C 	0.6834	0.6676	0.24151	0.161
Mof_C 	C 	0.7039	0.7467	0.26719	-0.203
Mof_H 	H 	0.7578	0.7451	0.28303	0.101
Mof_C 	C 	0.6434	0.8289	0.26905	0.111
Mof_H 	H 	0.6591	0.8825	0.28633	-0.019
Mof_C 	C 	0.7565	0.3271	0.17971	-0.013
Mof_H 	H 	0.7594	0.3678	0.19833	0.04
Mof_C 	C 	0.6048	0.6779	0.21835	-0.211
Mof_H 	H 	0.5923	0.63	0.20033	0.112
Mof_C 	C 	0.8249	0.4107	0.15435	-0.03
Mof_H 	H 	0.8682	0.5062	0.15603	0.039
Mof_C 	C 	0.733	0.5648	0.23813	-0.192
Mof_H 	H 	0.7775	0.5802	0.21853	0.084
Mof_H 	H 	0.6525	0.4733	0.23773	0.089
Mof_Zn	Zn	0.48155	0.51845	0.58333	1.21
Mof_Zn	Zn	0.48155	0.9631	0.25	1.204
Mof_Zn	Zn	0.0369	0.51845	0.91667	1.204
Mof_H 	H 	0.347	0.205	0.2666	0.25
Mof_O 	O 	0.32456	0.4611	0.10344	-0.392
Mof_O 	O 	0.51169	0.52067	0.13013	-0.407
Mof_O 	O 	0.2933	0.2402	0.26609	-0.374
Mof_N 	N 	0.4362	0.2704	0.08612	-0.264
Mof_C 	C 	0.2391	0.4457	0.20926	0.042
Mof_C 	C 	0.3005	0.3045	0.23957	0.221
Mof_C 	C 	0.1721	0.5244	0.20584	-0.068
Mof_H 	H 	0.1254	0.5341	0.2222	0.067
Mof_C 	C 	0.314	0.5006	0.15624	-0.07
Mof_C 	C 	0.3146	0.4359	0.18415	0.01
Mof_C 	C 	0.2318	0.3771	0.23702	-0.047
Mof_C 	C 	0.3818	0.3585	0.18776	0.007
Mof_H 	H 	0.4311	0.3509	0.1716	0.04
Mof_C 	C 	0.3758	0.2945	0.21463	-0.178
Mof_H 	H 	0.421	0.2443	0.2166	0.1
Mof_C 	C 	0.4543	0.2133	0.11122	0.098
Mof_H 	H 	0.5092	0.271	0.1267	-0.015
Mof_C 	C 	0.3878	0.4928	0.12855	0.298
Mof_C 	C 	0.3166	0.9842	0.09182	0.109
Mof_C 	C 	0.2961	0.0428	0.06614	-0.145
Mof_H 	H 	0.2422	0.9873	0.0503	0.078
Mof_C 	C 	0.3566	0.1855	0.06428	0.085
Mof_H 	H 	0.3409	0.2234	0.047	-0.005
Mof_C 	C 	0.2435	0.5706	0.15362	-0.017
Mof_H 	H 	0.2406	0.6084	0.135	0.041
Mof_C 	C 	0.3952	0.0731	0.11498	-0.167
Mof_H 	H 	0.4077	0.0377	0.133	0.102
Mof_C 	C 	0.1751	0.5858	0.17898	-0.028
Mof_H 	H 	0.1318	0.638	0.1773	0.037
Mof_C 	C 	0.267	0.8318	0.0952	-0.16
Mof_H 	H 	0.2225	0.8027	0.1148	0.074
Mof_H 	H 	0.3475	0.8208	0.0956	0.078
Mof_H 	H 	0.795	0.142	0.93327	0.252
Mof_O 	O 	0.5389	0.86346	0.77011	-0.388
Mof_O 	O 	0.47933	0.99102	0.7968	-0.397
Mof_O 	O 	0.7598	0.0531	0.93276	-0.386
Mof_N 	N 	0.7296	0.1658	0.75279	-0.268
Mof_C 	C 	0.5543	0.7934	0.87593	0.041
Mof_C 	C 	0.6955	0.996	0.90624	0.238
Mof_C 	C 	0.4756	0.6477	0.87251	-0.066
Mof_H 	H 	0.4659	0.5913	0.88887	0.066
Mof_C 	C 	0.4994	0.8134	0.82291	-0.072
Mof_C 	C 	0.5641	0.8787	0.85082	0.023
Mof_C 	C 	0.6229	0.8547	0.90369	-0.052
Mof_C 	C 	0.6415	0.0233	0.85443	-0.008
Mof_H 	H 	0.6491	0.0802	0.83827	0.041
Mof_C 	C 	0.7055	0.0813	0.8813	-0.188
Mof_H 	H 	0.7557	0.1767	0.88327	0.103
Mof_C 	C 	0.7867	0.241	0.77789	0.099
Mof_H 	H 	0.729	0.2382	0.79337	-0.018
Mof_C 	C 	0.5072	0.895	0.79522	0.299
Mof_C 	C 	0.0158	0.3324	0.75849	0.113
Mof_C 	C 	0.9572	0.2533	0.73281	-0.157
Mof_H 	H 	0.0127	0.2549	0.71697	0.083
Mof_C 	C 	0.8145	0.1711	0.73095	0.09
Mof_H 	H 	0.7766	0.1175	0.71367	-0.011
Mof_C 	C 	0.4294	0.6729	0.82029	-0.014
Mof_H 	H 	0.3916	0.6322	0.80167	0.041
Mof_C 	C 	0.9269	0.3221	0.78165	-0.173
Mof_H 	H 	0.9623	0.37	0.79967	0.103
Mof_C 	C 	0.4142	0.5893	0.84565	-0.029
Mof_H 	H 	0.362	0.4938	0.84397	0.038
Mof_C 	C 	0.1682	0.4352	0.76187	-0.146
Mof_H 	H 	0.1973	0.4198	0.78147	0.069
Mof_H 	H 	0.1792	0.5267	0.76227	0.074
Mof_H 	H 	0.858	0.653	0.59993	0.252
Mof_O 	O 	0.13654	0.67544	0.43677	-0.389
Mof_O 	O 	0.00898	0.48831	0.46346	-0.397
Mof_O 	O 	0.9469	0.7067	0.59942	-0.39
Mof_N 	N 	0.8342	0.5638	0.41945	-0.276
Mof_C 	C 	0.2066	0.7609	0.54259	0.04
Mof_C 	C 	0.004	0.6995	0.5729	0.243
Mof_C 	C 	0.3523	0.8279	0.53917	-0.065
Mof_H 	H 	0.4087	0.8746	0.55553	0.067
Mof_C 	C 	0.1866	0.686	0.48957	-0.073
Mof_C 	C 	0.1213	0.6854	0.51748	0.025
Mof_C 	C 	0.1453	0.7682	0.57035	-0.051
Mof_C 	C 	0.9767	0.6182	0.52109	-0.009
Mof_H 	H 	0.9198	0.5689	0.50493	0.041
Mof_C 	C 	0.9187	0.6242	0.54796	-0.192
Mof_H 	H 	0.8233	0.579	0.54993	0.103
Mof_C 	C 	0.759	0.5457	0.44455	0.118
Mof_H 	H 	0.7618	0.4908	0.46003	-0.024
Mof_C 	C 	0.105	0.6122	0.46188	0.299
Mof_C 	C 	0.6676	0.6834	0.42515	0.161
Mof_C 	C 	0.7467	0.7039	0.39947	-0.203
Mof_H 	H 	0.7451	0.7578	0.38363	0.101
Mof_C 	C 	0.8289	0.6434	0.39761	0.111
Mof_H 	H 	0.8825	0.6591	0.38033	-0.019
Mof_C 	C 	0.3271	0.7565	0.48695	-0.013
Mof_H 	H 	0.3678	0.7594	0.46833	0.04
Mof_C 	C 	0.6779	0.6048	0.44831	-0.211
Mof_H 	H 	0.63	0.5923	0.46633	0.112
Mof_C 	C 	0.4107	0.8249	0.51231	-0.03
Mof_H 	H 	0.5062	0.8682	0.51063	0.039
Mof_C 	C 	0.5648	0.733	0.42853	-0.192
Mof_H 	H 	0.5802	0.7775	0.44813	0.084
Mof_H 	H 	0.4733	0.6525	0.42893	0.089
Mof_H 	H 	0.795	0.653	0.90007	0.25
Mof_O 	O 	0.5389	0.67544	0.06323	-0.392
Mof_O 	O 	0.47933	0.48831	0.03654	-0.407
Mof_O 	O 	0.7598	0.7067	0.90058	-0.374
Mof_N 	N 	0.7296	0.5638	0.08055	-0.264
Mof_C 	C 	0.5543	0.7609	0.95741	0.042
Mof_C 	C 	0.6955	0.6995	0.9271	0.221
Mof_C 	C 	0.4756	0.8279	0.96083	-0.068
Mof_H 	H 	0.4659	0.8746	0.94447	0.067
Mof_C 	C 	0.4994	0.686	0.01043	-0.07
Mof_C 	C 	0.5641	0.6854	0.98252	0.01
Mof_C 	C 	0.6229	0.7682	0.92965	-0.047
Mof_C 	C 	0.6415	0.6182	0.97891	0.007
Mof_H 	H 	0.6491	0.5689	0.99507	0.04
Mof_C 	C 	0.7055	0.6242	0.95204	-0.178
Mof_H 	H 	0.7557	0.579	0.95007	0.1
Mof_C 	C 	0.7867	0.5457	0.05545	0.098
Mof_H 	H 	0.729	0.4908	0.03997	-0.015
Mof_C 	C 	0.5072	0.6122	0.03812	0.298
Mof_C 	C 	0.0158	0.6834	0.07485	0.109
Mof_C 	C 	0.9572	0.7039	0.10053	-0.145
Mof_H 	H 	0.0127	0.7578	0.11637	0.078
Mof_C 	C 	0.8145	0.6434	0.10239	0.086
Mof_H 	H 	0.7766	0.6591	0.11967	-0.005
Mof_C 	C 	0.4294	0.7565	0.01305	-0.017
Mof_H 	H 	0.3916	0.7594	0.03167	0.041
Mof_C 	C 	0.9269	0.6048	0.05169	-0.168
Mof_H 	H 	0.9623	0.5923	0.03367	0.102
Mof_C 	C 	0.4142	0.8249	0.98769	-0.028
Mof_H 	H 	0.362	0.8682	0.98937	0.037
Mof_C 	C 	0.1682	0.733	0.07147	-0.16
Mof_H 	H 	0.1973	0.7775	0.05187	0.074
Mof_H 	H 	0.1792	0.6525	0.07107	0.078
Mof_H 	H 	0.858	0.205	0.2334	0.252
Mof_O 	O 	0.13654	0.4611	0.39656	-0.388
Mof_O 	O 	0.00898	0.52067	0.36987	-0.397
Mof_O 	O 	0.9469	0.2402	0.23391	-0.386
Mof_N 	N 	0.8342	0.2704	0.41388	-0.268
Mof_C 	C 	0.2066	0.4457	0.29074	0.041
Mof_C 	C 	0.004	0.3045	0.26043	0.238
Mof_C 	C 	0.3523	0.5244	0.29416	-0.066
Mof_H 	H 	0.4087	0.5341	0.2778	0.066
Mof_C 	C 	0.1866	0.5006	0.34376	-0.072
Mof_C 	C 	0.1213	0.4359	0.31585	0.023
Mof_C 	C 	0.1453	0.3771	0.26298	-0.052
Mof_C 	C 	0.9767	0.3585	0.31224	-0.008
Mof_H 	H 	0.9198	0.3509	0.3284	0.041
Mof_C 	C 	0.9187	0.2945	0.28537	-0.188
Mof_H 	H 	0.8233	0.2443	0.2834	0.103
Mof_C 	C 	0.759	0.2133	0.38878	0.099
Mof_H 	H 	0.7618	0.271	0.3733	-0.018
Mof_C 	C 	0.105	0.4928	0.37145	0.299
Mof_C 	C 	0.6676	0.9842	0.40818	0.113
Mof_C 	C 	0.7467	0.0428	0.43386	-0.157
Mof_H 	H 	0.7451	0.9873	0.4497	0.083
Mof_C 	C 	0.8289	0.1855	0.43572	0.09
Mof_H 	H 	0.8825	0.2234	0.453	-0.011
Mof_C 	C 	0.3271	0.5706	0.34638	-0.014
Mof_H 	H 	0.3678	0.6084	0.365	0.041
Mof_C 	C 	0.6779	0.0731	0.38502	-0.173
Mof_H 	H 	0.63	0.0377	0.367	0.103
Mof_C 	C 	0.4107	0.5858	0.32102	-0.029
Mof_H 	H 	0.5062	0.638	0.3227	0.038
Mof_C 	C 	0.5648	0.8318	0.4048	-0.146
Mof_H 	H 	0.5802	0.8027	0.3852	0.069
Mof_H 	H 	0.4733	0.8208	0.4044	0.074
Mof_H 	H 	0.347	0.142	0.56673	0.252
Mof_O 	O 	0.32456	0.86346	0.72989	-0.388
Mof_O 	O 	0.51169	0.99102	0.7032	-0.397
Mof_O 	O 	0.2933	0.0531	0.56724	-0.39
Mof_N 	N 	0.4362	0.1658	0.74721	-0.276
Mof_C 	C 	0.2391	0.7934	0.62407	0.04
Mof_C 	C 	0.3005	0.996	0.59376	0.243
Mof_C 	C 	0.1721	0.6477	0.62749	-0.065
Mof_H 	H 	0.1254	0.5913	0.61113	0.067
Mof_C 	C 	0.314	0.8134	0.67709	-0.073
Mof_C 	C 	0.3146	0.8787	0.64918	0.025
Mof_C 	C 	0.2318	0.8547	0.59631	-0.051
Mof_C 	C 	0.3818	0.0233	0.64557	-0.009
Mof_H 	H 	0.4311	0.0802	0.66173	0.041
Mof_C 	C 	0.3758	0.0813	0.6187	-0.192
Mof_H 	H 	0.421	0.1767	0.61673	0.103
Mof_C 	C 	0.4543	0.241	0.72211	0.118
Mof_H 	H 	0.5092	0.2382	0.70663	-0.024
Mof_C 	C 	0.3878	0.895	0.70478	0.299
Mof_C 	C 	0.3166	0.3324	0.74151	0.161
Mof_C 	C 	0.2961	0.2533	0.76719	-0.203
Mof_H 	H 	0.2422	0.2549	0.78303	0.101
Mof_C 	C 	0.3566	0.1711	0.76905	0.111
Mof_H 	H 	0.3409	0.1175	0.78633	-0.019
Mof_C 	C 	0.2435	0.6729	0.67971	-0.013
Mof_H 	H 	0.2406	0.6322	0.69833	0.04
Mof_C 	C 	0.3952	0.3221	0.71835	-0.211
Mof_H 	H 	0.4077	0.37	0.70033	0.112
Mof_C 	C 	0.1751	0.5893	0.65435	-0.03
Mof_H 	H 	0.1318	0.4938	0.65603	0.039
Mof_C 	C 	0.267	0.4352	0.73813	-0.192
Mof_H 	H 	0.2225	0.4198	0.71853	0.084
Mof_H 	H 	0.3475	0.5267	0.73773	0.089
Mof_Zn	Zn	0.51845	0.48155	0.08333	1.21
Mof_Zn	Zn	0.51845	0.0369	0.75	1.204
Mof_Zn	Zn	0.9631	0.48155	0.41667	1.204
_end
