data_functionalizedCrystal
_audit_creation_method	'EQeq! by Chris Wilmer'
_symmetry_space_group_name_H-M	'P1'
_symmetry_Int_Tables_number	1
_symmetry_cell_setting	triclinic
loop_
_symmetry_equiv_pos_as_xyz
  x,y,z
_cell_length_a	28.7444
_cell_length_b	9.2672
_cell_length_c	9.3295
_cell_angle_alpha	90
_cell_angle_beta	116.097
_cell_angle_gamma	90
loop_
_atom_site_label
_atom_site_type_symbol
_atom_site_fract_x
_atom_site_fract_y
_atom_site_fract_z
_atom_site_charge
Mof_Cu	Cu	0.18782	0.8307	0.3137	0.888
Mof_O 	O 	0.1282	0.073	0.3449	-0.278
Mof_O 	O 	0.139	0.1799	0.5742	-0.35
Mof_N 	N 	0.2196	0.0088	0.7398	-0.166
Mof_N 	N 	0.2559	0.9053	0.7928	-0.051
Mof_N 	N 	0.2505	0.8258	0.6685	-0.124
Mof_N 	N 	0.2114	0.8766	0.5377	-0.186
Mof_N 	N 	0.143	0.6608	0.3308	-0.227
Mof_C 	C 	0.1493	0.0886	0.4906	0.269
Mof_C 	C 	0.193	0.9887	0.584	0.017
Mof_C 	C 	0.1108	0.7196	0.3847	0.104
Mof_C 	C 	0.073	0.6439	0.408	-0.221
Mof_C 	C 	0.06843	0.4973	0.3725	0.221
Mof_C 	C 	0.101	0.433	0.3168	-0.231
Mof_C 	C 	0.1376	0.5186	0.2976	0.127
Mof_C 	C 	0.02817	0.4078	0.39506	-0.387
Mof_H 	H 	0.11428	0.82093	0.40872	-0.014
Mof_H 	H 	0.05095	0.69064	0.44685	0.103
Mof_H 	H 	0.09831	0.33191	0.29205	0.134
Mof_H 	H 	0.16012	0.47428	0.25894	0.001
Mof_H 	H 	0.04484	0.3481	0.48794	0.157
Mof_H 	H 	0.00382	0.47056	0.40866	0.138
Mof_H 	H 	0.02454	0.2539	0.2338	-0.016
Mof_Cu	Cu	0.68782	0.3307	0.3137	0.887
Mof_O 	O 	0.6282	0.573	0.3449	-0.278
Mof_O 	O 	0.639	0.6799	0.5742	-0.351
Mof_N 	N 	0.7196	0.5088	0.7398	-0.166
Mof_N 	N 	0.7559	0.4053	0.7928	-0.052
Mof_N 	N 	0.7505	0.3258	0.6685	-0.125
Mof_N 	N 	0.7114	0.3766	0.5377	-0.186
Mof_N 	N 	0.643	0.1608	0.3308	-0.229
Mof_C 	C 	0.6493	0.5886	0.4906	0.269
Mof_C 	C 	0.693	0.4887	0.584	0.017
Mof_C 	C 	0.6108	0.2196	0.3847	0.109
Mof_C 	C 	0.573	0.1439	0.408	-0.23
Mof_C 	C 	0.56843	0.9973	0.3725	0.237
Mof_C 	C 	0.601	0.933	0.3168	-0.242
Mof_C 	C 	0.6376	0.0186	0.2976	0.133
Mof_C 	C 	0.52817	0.9078	0.39506	-0.426
Mof_H 	H 	0.61428	0.32093	0.40872	-0.015
Mof_H 	H 	0.55095	0.19064	0.44685	0.107
Mof_H 	H 	0.59831	0.83191	0.29205	0.138
Mof_H 	H 	0.66012	0.97428	0.25894	-0.002
Mof_H 	H 	0.54484	0.8481	0.48794	0.17
Mof_H 	H 	0.50382	0.97056	0.40866	0.153
Mof_H 	H 	0.52454	0.7539	0.2338	-0.033
Mof_Cu	Cu	0.81218	0.8307	0.1863	0.887
Mof_O 	O 	0.8718	0.073	0.1551	-0.278
Mof_O 	O 	0.861	0.1799	0.9258	-0.352
Mof_N 	N 	0.7804	0.0088	0.7602	-0.167
Mof_N 	N 	0.7441	0.9053	0.7072	-0.052
Mof_N 	N 	0.7495	0.8258	0.8315	-0.125
Mof_N 	N 	0.7886	0.8766	0.9623	-0.186
Mof_N 	N 	0.857	0.6608	0.1692	-0.227
Mof_C 	C 	0.8507	0.0886	0.0094	0.271
Mof_C 	C 	0.807	0.9887	0.916	0.017
Mof_C 	C 	0.8892	0.7196	0.1153	0.106
Mof_C 	C 	0.927	0.6439	0.092	-0.221
Mof_C 	C 	0.93157	0.4973	0.1275	0.224
Mof_C 	C 	0.899	0.433	0.1832	-0.231
Mof_C 	C 	0.8624	0.5186	0.2024	0.128
Mof_C 	C 	0.97183	0.4078	0.10494	-0.384
Mof_H 	H 	0.88572	0.82093	0.09128	-0.014
Mof_H 	H 	0.94905	0.69064	0.05315	0.106
Mof_H 	H 	0.90169	0.33191	0.20795	0.134
Mof_H 	H 	0.83988	0.47428	0.24106	0
Mof_H 	H 	0.95516	0.3481	0.01206	0.159
Mof_H 	H 	0.99618	0.47056	0.09134	0.145
Mof_H 	H 	0.97546	0.2539	0.2662	-0.009
Mof_Cu	Cu	0.31218	0.3307	0.1863	0.887
Mof_O 	O 	0.3718	0.573	0.1551	-0.278
Mof_O 	O 	0.361	0.6799	0.9258	-0.351
Mof_N 	N 	0.2804	0.5088	0.7602	-0.166
Mof_N 	N 	0.2441	0.4053	0.7072	-0.052
Mof_N 	N 	0.2495	0.3258	0.8315	-0.125
Mof_N 	N 	0.2886	0.3766	0.9623	-0.186
Mof_N 	N 	0.357	0.1608	0.1692	-0.229
Mof_C 	C 	0.3507	0.5886	0.0094	0.269
Mof_C 	C 	0.307	0.4887	0.916	0.017
Mof_C 	C 	0.3892	0.2196	0.1153	0.109
Mof_C 	C 	0.427	0.1439	0.092	-0.229
Mof_C 	C 	0.43157	0.9973	0.1275	0.236
Mof_C 	C 	0.399	0.933	0.1832	-0.242
Mof_C 	C 	0.3624	0.0186	0.2024	0.134
Mof_C 	C 	0.47183	0.9078	0.10494	-0.425
Mof_H 	H 	0.38572	0.32093	0.09128	-0.015
Mof_H 	H 	0.44905	0.19064	0.05315	0.107
Mof_H 	H 	0.40169	0.83191	0.20795	0.138
Mof_H 	H 	0.33988	0.97428	0.24106	-0.002
Mof_H 	H 	0.45516	0.8481	0.01206	0.169
Mof_H 	H 	0.49618	0.97056	0.09134	0.152
Mof_H 	H 	0.47546	0.7539	0.2662	-0.033
Mof_Cu	Cu	0.81218	0.1693	0.6863	0.887
Mof_O 	O 	0.8718	0.927	0.6551	-0.277
Mof_O 	O 	0.861	0.8201	0.4258	-0.35
Mof_N 	N 	0.7804	0.9912	0.2602	-0.167
Mof_N 	N 	0.7441	0.0947	0.2072	-0.052
Mof_N 	N 	0.7495	0.1742	0.3315	-0.125
Mof_N 	N 	0.7886	0.1234	0.4623	-0.186
Mof_N 	N 	0.857	0.3392	0.6692	-0.227
Mof_C 	C 	0.8507	0.9114	0.5094	0.269
Mof_C 	C 	0.807	0.0113	0.416	0.017
Mof_C 	C 	0.8892	0.2804	0.6153	0.106
Mof_C 	C 	0.927	0.3561	0.592	-0.221
Mof_C 	C 	0.93157	0.5027	0.6275	0.223
Mof_C 	C 	0.899	0.567	0.6832	-0.231
Mof_C 	C 	0.8624	0.4814	0.7024	0.128
Mof_C 	C 	0.97183	0.5922	0.60494	-0.383
Mof_H 	H 	0.88572	0.17907	0.59128	-0.014
Mof_H 	H 	0.94905	0.30936	0.55315	0.106
Mof_H 	H 	0.90169	0.66809	0.70795	0.134
Mof_H 	H 	0.83988	0.52572	0.74106	0
Mof_H 	H 	0.95516	0.6519	0.51206	0.158
Mof_H 	H 	0.99618	0.52944	0.59134	0.144
Mof_H 	H 	0.97546	0.7461	0.7662	-0.009
Mof_Cu	Cu	0.31218	0.6693	0.6863	0.887
Mof_O 	O 	0.3718	0.427	0.6551	-0.278
Mof_O 	O 	0.361	0.3201	0.4258	-0.351
Mof_N 	N 	0.2804	0.4912	0.2602	-0.166
Mof_N 	N 	0.2441	0.5947	0.2072	-0.052
Mof_N 	N 	0.2495	0.6742	0.3315	-0.125
Mof_N 	N 	0.2886	0.6234	0.4623	-0.186
Mof_N 	N 	0.357	0.8392	0.6692	-0.229
Mof_C 	C 	0.3507	0.4114	0.5094	0.269
Mof_C 	C 	0.307	0.5113	0.416	0.017
Mof_C 	C 	0.3892	0.7804	0.6153	0.109
Mof_C 	C 	0.427	0.8561	0.592	-0.23
Mof_C 	C 	0.43157	0.0027	0.6275	0.237
Mof_C 	C 	0.399	0.067	0.6832	-0.242
Mof_C 	C 	0.3624	0.9814	0.7024	0.134
Mof_C 	C 	0.47183	0.0922	0.60494	-0.426
Mof_H 	H 	0.38572	0.67907	0.59128	-0.015
Mof_H 	H 	0.44905	0.80936	0.55315	0.107
Mof_H 	H 	0.40169	0.16809	0.70795	0.138
Mof_H 	H 	0.33988	0.02572	0.74106	-0.002
Mof_H 	H 	0.45516	0.1519	0.51206	0.17
Mof_H 	H 	0.49618	0.02944	0.59134	0.153
Mof_H 	H 	0.47546	0.2461	0.7662	-0.033
Mof_Cu	Cu	0.18782	0.1693	0.8137	0.887
Mof_O 	O 	0.1282	0.927	0.8449	-0.279
Mof_O 	O 	0.139	0.8201	0.0742	-0.352
Mof_N 	N 	0.2196	0.9912	0.2398	-0.167
Mof_N 	N 	0.2559	0.0947	0.2928	-0.052
Mof_N 	N 	0.2505	0.1742	0.1685	-0.125
Mof_N 	N 	0.2114	0.1234	0.0377	-0.186
Mof_N 	N 	0.143	0.3392	0.8308	-0.227
Mof_C 	C 	0.1493	0.9114	0.9906	0.27
Mof_C 	C 	0.193	0.0113	0.084	0.017
Mof_C 	C 	0.1108	0.2804	0.8847	0.104
Mof_C 	C 	0.073	0.3561	0.908	-0.221
Mof_C 	C 	0.06843	0.5027	0.8725	0.221
Mof_C 	C 	0.101	0.567	0.8168	-0.231
Mof_C 	C 	0.1376	0.4814	0.7976	0.127
Mof_C 	C 	0.02817	0.5922	0.89506	-0.387
Mof_H 	H 	0.11428	0.17907	0.90872	-0.014
Mof_H 	H 	0.05095	0.30936	0.94685	0.102
Mof_H 	H 	0.09831	0.66809	0.79205	0.133
Mof_H 	H 	0.16012	0.52572	0.75894	0.001
Mof_H 	H 	0.04484	0.6519	0.98794	0.156
Mof_H 	H 	0.00382	0.52944	0.90866	0.138
Mof_H 	H 	0.02454	0.7461	0.7338	-0.016
Mof_Cu	Cu	0.68782	0.6693	0.8137	0.887
Mof_O 	O 	0.6282	0.427	0.8449	-0.278
Mof_O 	O 	0.639	0.3201	0.0742	-0.351
Mof_N 	N 	0.7196	0.4912	0.2398	-0.166
Mof_N 	N 	0.7559	0.5947	0.2928	-0.052
Mof_N 	N 	0.7505	0.6742	0.1685	-0.125
Mof_N 	N 	0.7114	0.6234	0.0377	-0.186
Mof_N 	N 	0.643	0.8392	0.8308	-0.229
Mof_C 	C 	0.6493	0.4114	0.9906	0.269
Mof_C 	C 	0.693	0.5113	0.084	0.017
Mof_C 	C 	0.6108	0.7804	0.8847	0.109
Mof_C 	C 	0.573	0.8561	0.908	-0.229
Mof_C 	C 	0.56843	0.0027	0.8725	0.236
Mof_C 	C 	0.601	0.067	0.8168	-0.242
Mof_C 	C 	0.6376	0.9814	0.7976	0.134
Mof_C 	C 	0.52817	0.0922	0.89506	-0.425
Mof_H 	H 	0.61428	0.67907	0.90872	-0.015
Mof_H 	H 	0.55095	0.80936	0.94685	0.107
Mof_H 	H 	0.59831	0.16809	0.79205	0.138
Mof_H 	H 	0.66012	0.02572	0.75894	-0.002
Mof_H 	H 	0.54484	0.1519	0.98794	0.169
Mof_H 	H 	0.50382	0.02944	0.90866	0.152
Mof_H 	H 	0.52454	0.2461	0.7338	-0.033
Mof_C 	C 	4.38063e-34	0.3137	0.25	0.167
Mof_C 	C 	0.5	0.8137	0.25	0.228
Mof_C 	C 	1.27347e-17	0.6863	0.75	0.167
Mof_C 	C 	0.5	0.1863	0.75	0.229
_end
