data_functionalizedCrystal
_audit_creation_method	'EQeq! by Chris Wilmer'
_symmetry_space_group_name_H-M	'P1'
_symmetry_Int_Tables_number	1
_symmetry_cell_setting	triclinic
loop_
_symmetry_equiv_pos_as_xyz
  x,y,z
_cell_length_a	9.5866
_cell_length_b	9.5866
_cell_length_c	11.072
_cell_angle_alpha	91.1871
_cell_angle_beta	91.1871
_cell_angle_gamma	105.878
loop_
_atom_site_label
_atom_site_type_symbol
_atom_site_fract_x
_atom_site_fract_y
_atom_site_fract_z
_atom_site_charge
Mof_Zn	Zn	0.99495	0.00505	0.75	1.23
Mof_Zn	Zn	0.00505	0.99495	0.25	1.23
Mof_H 	H 	0.446	0.95	0.788	0.054
Mof_H 	H 	0.05	0.554	0.712	0.054
Mof_H 	H 	0.554	0.05	0.212	0.054
Mof_H 	H 	0.95	0.446	0.288	0.054
Mof_C 	C 	0.20752	0.94798	0.89966	0.324
Mof_C 	C 	0.35786	0.97862	0.95565	-0.043
Mof_C 	C 	0.46914	0.97836	0.87789	0.007
Mof_C 	C 	0.38855	0.00097	0.07962	-0.048
Mof_C 	C 	0.27417	0.00501	0.16921	0.334
Mof_C 	C 	0.05202	0.79248	0.60034	0.322
Mof_C 	C 	0.02138	0.64214	0.54435	-0.043
Mof_C 	C 	0.02164	0.53086	0.62211	0.007
Mof_C 	C 	0.99903	0.61145	0.42038	-0.048
Mof_C 	C 	0.99499	0.72583	0.33079	0.334
Mof_C 	C 	0.79248	0.05202	0.10034	0.324
Mof_C 	C 	0.64214	0.02138	0.04435	-0.043
Mof_C 	C 	0.53086	0.02164	0.12211	0.007
Mof_C 	C 	0.61145	0.99903	0.92038	-0.048
Mof_C 	C 	0.72583	0.99499	0.83079	0.334
Mof_C 	C 	0.94798	0.20752	0.39966	0.322
Mof_C 	C 	0.97862	0.35786	0.45565	-0.043
Mof_C 	C 	0.97836	0.46914	0.37789	0.007
Mof_C 	C 	0.00097	0.38855	0.57962	-0.048
Mof_C 	C 	0.00501	0.27417	0.66921	0.334
Mof_O 	O 	0.17844	0.05416	0.84694	-0.418
Mof_O 	O 	0.12594	0.82354	0.90031	-0.298
Mof_O 	O 	0.29851	0.99189	0.27795	-0.313
Mof_O 	O 	0.15639	0.02317	0.12755	-0.428
Mof_O 	O 	0.94584	0.82156	0.65306	-0.417
Mof_O 	O 	0.17646	0.87406	0.59969	-0.298
Mof_O 	O 	0.00811	0.70149	0.22205	-0.313
Mof_O 	O 	0.97683	0.84361	0.37245	-0.428
Mof_O 	O 	0.82156	0.94584	0.15306	-0.418
Mof_O 	O 	0.87406	0.17646	0.09969	-0.298
Mof_O 	O 	0.70149	0.00811	0.72205	-0.313
Mof_O 	O 	0.84361	0.97683	0.87245	-0.428
Mof_O 	O 	0.05416	0.17844	0.34694	-0.417
Mof_O 	O 	0.82354	0.12594	0.40031	-0.298
Mof_O 	O 	0.99189	0.29851	0.77795	-0.313
Mof_O 	O 	0.02317	0.15639	0.62755	-0.428
Mof_H 	H 	0.856	0.596	0.98	0.13
Mof_H 	H 	0.779	0.739	0.956	0.13
Mof_H 	H 	0.919	0.745	0.954	0.164
Mof_H 	H 	0.878	0.732	0.088	0.133
Mof_N 	N 	0.849	0.6968	0.998	-0.343
Mof_H 	H 	0.404	0.144	0.52	0.131
Mof_H 	H 	0.261	0.221	0.544	0.13
Mof_H 	H 	0.255	0.081	0.546	0.165
Mof_H 	H 	0.268	0.122	0.412	0.132
Mof_N 	N 	0.3032	0.151	0.502	-0.343
Mof_H 	H 	0.144	0.404	0.02	0.13
Mof_H 	H 	0.221	0.261	0.044	0.13
Mof_H 	H 	0.081	0.255	0.046	0.164
Mof_H 	H 	0.122	0.268	0.912	0.133
Mof_N 	N 	0.151	0.3032	0.002	-0.343
Mof_H 	H 	0.596	0.856	0.48	0.131
Mof_H 	H 	0.739	0.779	0.456	0.13
Mof_H 	H 	0.745	0.919	0.454	0.165
Mof_H 	H 	0.732	0.878	0.588	0.132
Mof_N 	N 	0.6968	0.849	0.498	-0.343
_end
