data_functionalizedCrystal
_audit_creation_method	'EQeq! by Chris Wilmer'
_symmetry_space_group_name_H-M	'P1'
_symmetry_Int_Tables_number	1
_symmetry_cell_setting	triclinic
loop_
_symmetry_equiv_pos_as_xyz
  x,y,z
_cell_length_a	12.7392
_cell_length_b	21.714
_cell_length_c	17.8196
_cell_angle_alpha	90
_cell_angle_beta	101.864
_cell_angle_gamma	90
loop_
_atom_site_label
_atom_site_type_symbol
_atom_site_fract_x
_atom_site_fract_y
_atom_site_fract_z
_atom_site_charge
Mof_C 	C 	0.9381	0.0846	0.3089	0.12
Mof_C 	C 	0.0032	0.0366	0.3449	-0.142
Mof_C 	C 	0.063	0.0038	0.3009	0.12
Mof_C 	C 	0.003	0.019	0.424	0.065
Mof_C 	C 	0.9339	0.0463	0.4653	-0.072
Mof_H 	H 	0.8872	0.0782	0.4421	0.048
Mof_C 	C 	0.0684	0.9718	0.4608	-0.071
Mof_H 	H 	0.116	0.9516	0.4342	0.046
Mof_C 	C 	0.7199	0.118	0.061	0.115
Mof_C 	C 	0.6863	0.0766	0.001	-0.142
Mof_C 	C 	0.7431	0.0734	0.9417	0.117
Mof_C 	C 	0.5923	0.0377	0.0003	0.06
Mof_C 	C 	0.5602	0.9923	0.9449	-0.072
Mof_H 	H 	0.6006	0.9862	0.9063	0.045
Mof_C 	C 	0.5283	0.044	0.0551	-0.07
Mof_H 	H 	0.5468	0.0746	0.0938	0.044
Mof_C 	C 	0.6209	0.2366	0.2977	0.118
Mof_C 	C 	0.5507	0.2604	0.3414	-0.138
Mof_C 	C 	0.475	0.3053	0.3082	0.112
Mof_C 	C 	0.5522	0.2414	0.42	0.06
Mof_C 	C 	0.6196	0.1946	0.4566	-0.071
Mof_H 	H 	0.6684	0.1751	0.4304	0.046
Mof_C 	C 	0.6156	0.1762	0.5306	-0.072
Mof_H 	H 	0.6633	0.145	0.5544	0.047
Mof_C 	C 	0.5441	0.2021	0.571	0.06
Mof_C 	C 	0.4768	0.2482	0.5345	-0.071
Mof_H 	H 	0.4264	0.2666	0.5603	0.042
Mof_C 	C 	0.4818	0.268	0.4611	-0.071
Mof_H 	H 	0.436	0.3004	0.4383	0.042
Mof_C 	C 	0.5387	0.1843	0.65	-0.139
Mof_C 	C 	0.6085	0.1406	0.6903	0.114
Mof_C 	C 	0.4665	0.2157	0.6854	0.117
Mof_Cu	Cu	0.79701	0.18803	0.21561	0.862
Mof_Cu	Cu	0.18629	0.91608	0.21222	0.86
Mof_N 	N 	0.8838	0.1237	0.2796	-0.266
Mof_N 	N 	0.1139	0.97627	0.266	-0.272
Mof_N 	N 	0.7451	0.1512	0.1124	-0.266
Mof_N 	N 	0.7858	0.06994	0.8912	-0.272
Mof_N 	N 	0.6812	0.21664	0.2636	-0.272
Mof_N 	N 	0.4088	0.3415	0.2878	-0.259
Mof_N 	N 	0.6681	0.1047	0.722	-0.258
Mof_N 	N 	0.4049	0.24569	0.7077	-0.262
Mof_C 	C 	0.5619	0.5846	0.1911	0.119
Mof_C 	C 	0.4968	0.5366	0.1551	-0.143
Mof_C 	C 	0.437	0.5038	0.1991	0.119
Mof_C 	C 	0.497	0.519	0.076	0.064
Mof_C 	C 	0.5661	0.5463	0.0347	-0.073
Mof_H 	H 	0.6128	0.5782	0.0579	0.048
Mof_C 	C 	0.4316	0.4718	0.0392	-0.071
Mof_H 	H 	0.384	0.4516	0.0658	0.046
Mof_C 	C 	0.7801	0.618	0.439	0.115
Mof_C 	C 	0.8137	0.5766	0.499	-0.142
Mof_C 	C 	0.7569	0.5734	0.5583	0.118
Mof_C 	C 	0.9077	0.5377	0.4997	0.06
Mof_C 	C 	0.9398	0.4923	0.5551	-0.072
Mof_H 	H 	0.8994	0.4862	0.5937	0.045
Mof_C 	C 	0.9717	0.544	0.4449	-0.07
Mof_H 	H 	0.9532	0.5746	0.4062	0.044
Mof_C 	C 	0.8791	0.7366	0.2023	0.118
Mof_C 	C 	0.9493	0.7604	0.1586	-0.138
Mof_C 	C 	0.025	0.8053	0.1918	0.112
Mof_C 	C 	0.9478	0.7414	0.08	0.061
Mof_C 	C 	0.8804	0.6946	0.0434	-0.071
Mof_H 	H 	0.8316	0.6751	0.0696	0.046
Mof_C 	C 	0.8844	0.6762	0.9694	-0.071
Mof_H 	H 	0.8367	0.645	0.9456	0.047
Mof_C 	C 	0.9559	0.7021	0.929	0.06
Mof_C 	C 	0.0232	0.7482	0.9655	-0.07
Mof_H 	H 	0.0736	0.7666	0.9397	0.042
Mof_C 	C 	0.0182	0.768	0.0389	-0.072
Mof_H 	H 	0.064	0.8004	0.0617	0.042
Mof_C 	C 	0.9613	0.6843	0.85	-0.139
Mof_C 	C 	0.8915	0.6406	0.8097	0.114
Mof_C 	C 	0.0335	0.7157	0.8146	0.117
Mof_Cu	Cu	0.70299	0.68803	0.28439	0.862
Mof_Cu	Cu	0.31371	0.41608	0.28778	0.86
Mof_N 	N 	0.6162	0.6237	0.2204	-0.266
Mof_N 	N 	0.3861	0.47627	0.234	-0.272
Mof_N 	N 	0.7549	0.6512	0.3876	-0.266
Mof_N 	N 	0.7142	0.56994	0.6088	-0.272
Mof_N 	N 	0.8188	0.71664	0.2364	-0.272
Mof_N 	N 	0.0912	0.8415	0.2122	-0.259
Mof_N 	N 	0.8319	0.6047	0.778	-0.258
Mof_N 	N 	0.0951	0.74569	0.7923	-0.262
Mof_C 	C 	0.0619	0.9154	0.6911	0.119
Mof_C 	C 	0.9968	0.9634	0.6551	-0.143
Mof_C 	C 	0.937	0.9962	0.6991	0.119
Mof_C 	C 	0.997	0.981	0.576	0.064
Mof_C 	C 	0.0661	0.9537	0.5347	-0.072
Mof_H 	H 	0.1128	0.9218	0.5579	0.048
Mof_C 	C 	0.9316	0.0282	0.5392	-0.071
Mof_H 	H 	0.884	0.0484	0.5658	0.046
Mof_C 	C 	0.2801	0.882	0.939	0.115
Mof_C 	C 	0.3137	0.9234	0.999	-0.142
Mof_C 	C 	0.2569	0.9266	0.0583	0.117
Mof_C 	C 	0.4077	0.9623	0.9997	0.06
Mof_C 	C 	0.4398	0.0077	0.0551	-0.072
Mof_H 	H 	0.3994	0.0138	0.0937	0.045
Mof_C 	C 	0.4717	0.956	0.9449	-0.07
Mof_H 	H 	0.4532	0.9254	0.9062	0.044
Mof_C 	C 	0.3791	0.7634	0.7023	0.118
Mof_C 	C 	0.4493	0.7396	0.6586	-0.138
Mof_C 	C 	0.525	0.6947	0.6918	0.112
Mof_C 	C 	0.4478	0.7586	0.58	0.06
Mof_C 	C 	0.3804	0.8054	0.5434	-0.071
Mof_H 	H 	0.3316	0.8249	0.5696	0.046
Mof_C 	C 	0.3844	0.8238	0.4694	-0.072
Mof_H 	H 	0.3367	0.855	0.4456	0.047
Mof_C 	C 	0.4559	0.7979	0.429	0.06
Mof_C 	C 	0.5232	0.7518	0.4655	-0.071
Mof_H 	H 	0.5736	0.7334	0.4397	0.042
Mof_C 	C 	0.5182	0.732	0.5389	-0.071
Mof_H 	H 	0.564	0.6996	0.5617	0.042
Mof_C 	C 	0.4613	0.8157	0.35	-0.139
Mof_C 	C 	0.3915	0.8594	0.3097	0.114
Mof_C 	C 	0.5335	0.7843	0.3146	0.117
Mof_Cu	Cu	0.20299	0.81197	0.78439	0.862
Mof_Cu	Cu	0.81371	0.08392	0.78778	0.86
Mof_N 	N 	0.1162	0.8763	0.7204	-0.266
Mof_N 	N 	0.8861	0.02373	0.734	-0.272
Mof_N 	N 	0.2549	0.8488	0.8876	-0.266
Mof_N 	N 	0.2142	0.93006	0.1088	-0.272
Mof_N 	N 	0.3188	0.78336	0.7364	-0.272
Mof_N 	N 	0.5912	0.6585	0.7122	-0.259
Mof_N 	N 	0.3319	0.8953	0.278	-0.258
Mof_N 	N 	0.5951	0.75431	0.2923	-0.262
Mof_C 	C 	0.4381	0.4154	0.8089	0.119
Mof_C 	C 	0.5032	0.4634	0.8449	-0.143
Mof_C 	C 	0.563	0.4962	0.8009	0.119
Mof_C 	C 	0.503	0.481	0.924	0.064
Mof_C 	C 	0.4339	0.4537	0.9653	-0.073
Mof_H 	H 	0.3872	0.4218	0.9421	0.048
Mof_C 	C 	0.5684	0.5282	0.9608	-0.071
Mof_H 	H 	0.616	0.5484	0.9342	0.046
Mof_C 	C 	0.2199	0.382	0.561	0.115
Mof_C 	C 	0.1863	0.4234	0.501	-0.142
Mof_C 	C 	0.2431	0.4266	0.4417	0.118
Mof_C 	C 	0.0923	0.4623	0.5003	0.06
Mof_C 	C 	0.0602	0.5077	0.4449	-0.072
Mof_H 	H 	0.1006	0.5138	0.4063	0.045
Mof_C 	C 	0.0283	0.456	0.5551	-0.07
Mof_H 	H 	0.0468	0.4254	0.5938	0.044
Mof_C 	C 	0.1209	0.2634	0.7977	0.118
Mof_C 	C 	0.0507	0.2396	0.8414	-0.138
Mof_C 	C 	0.975	0.1947	0.8082	0.112
Mof_C 	C 	0.0522	0.2586	0.92	0.061
Mof_C 	C 	0.1196	0.3054	0.9566	-0.071
Mof_H 	H 	0.1684	0.3249	0.9304	0.046
Mof_C 	C 	0.1156	0.3238	0.0306	-0.071
Mof_H 	H 	0.1633	0.355	0.0544	0.047
Mof_C 	C 	0.0441	0.2979	0.071	0.06
Mof_C 	C 	0.9768	0.2518	0.0345	-0.07
Mof_H 	H 	0.9264	0.2334	0.0603	0.042
Mof_C 	C 	0.9818	0.232	0.9611	-0.072
Mof_H 	H 	0.936	0.1996	0.9383	0.042
Mof_C 	C 	0.0387	0.3157	0.15	-0.139
Mof_C 	C 	0.1085	0.3594	0.1903	0.114
Mof_C 	C 	0.9665	0.2843	0.1854	0.117
Mof_Cu	Cu	0.29701	0.31197	0.71561	0.862
Mof_Cu	Cu	0.68629	0.58392	0.71222	0.86
Mof_N 	N 	0.3838	0.3763	0.7796	-0.266
Mof_N 	N 	0.6139	0.52373	0.766	-0.272
Mof_N 	N 	0.2451	0.3488	0.6124	-0.266
Mof_N 	N 	0.2858	0.43006	0.3912	-0.272
Mof_N 	N 	0.1812	0.28336	0.7636	-0.272
Mof_N 	N 	0.9088	0.1585	0.7878	-0.259
Mof_N 	N 	0.1681	0.3953	0.222	-0.258
Mof_N 	N 	0.9049	0.25431	0.2077	-0.262
_end
