data_functionalizedCrystal
_audit_creation_method	'EQeq! by Chris Wilmer'
_symmetry_space_group_name_H-M	'P1'
_symmetry_Int_Tables_number	1
_symmetry_cell_setting	triclinic
loop_
_symmetry_equiv_pos_as_xyz
  x,y,z
_cell_length_a	11.4221
_cell_length_b	21.2742
_cell_length_c	19.0647
_cell_angle_alpha	90
_cell_angle_beta	95.4192
_cell_angle_gamma	90
loop_
_atom_site_label
_atom_site_type_symbol
_atom_site_fract_x
_atom_site_fract_y
_atom_site_fract_z
_atom_site_charge
Mof_Zn	Zn	0.61566	0.98653	0.08484	1.224
Mof_O 	O 	0.7744	0.96465	0.06814	-0.454
Mof_O 	O 	0.7634	0.90544	0.16174	-0.32
Mof_O 	O 	0.3972	0.57302	0.45043	-0.521
Mof_O 	O 	0.5107	0.58012	0.54851	-0.532
Mof_O 	O 	0.3548	0.95399	0.52815	-0.257
Mof_O 	O 	0.2283	0.85707	0.58366	-0.176
Mof_O 	O 	0.0105	0.79453	0.5916	-0.159
Mof_O 	O 	0.2217	0.15763	0.45755	-0.252
Mof_N 	N 	0.0952	0.92197	0.33609	-0.128
Mof_N 	N 	0.1837	0.87298	0.43087	-0.212
Mof_H 	H 	0.20087	0.86283	0.4754	0.153
Mof_N 	N 	0.5394	0.00149	0.17452	-0.255
Mof_C 	C 	0.82	0.9283	0.1163	0.316
Mof_C 	C 	0.9504	0.91727	0.116	-0.059
Mof_C 	C 	0.0136	0.89488	0.17787	-0.048
Mof_H 	H 	0.97286	0.88489	0.21764	0.067
Mof_C 	C 	0.135	0.88717	0.1815	0.036
Mof_C 	C 	0.193	0.903	0.1232	-0.072
Mof_H 	H 	0.27615	0.89926	0.12539	0.057
Mof_C 	C 	0.1308	0.9242	0.0618	-0.031
Mof_H 	H 	0.17118	0.93367	0.02172	0.047
Mof_C 	C 	0.0102	0.9317	0.0587	-0.018
Mof_H 	H 	0.96832	0.94696	0.01676	0.05
Mof_C 	C 	0.1995	0.86064	0.24622	-0.017
Mof_C 	C 	0.1733	0.87653	0.31432	0.035
Mof_C 	C 	0.2303	0.84654	0.37367	0.063
Mof_C 	C 	0.3161	0.80002	0.36915	-0.031
Mof_C 	C 	0.3433	0.78652	0.3018	-0.041
Mof_H 	H 	0.4024	0.75616	0.29554	0.042
Mof_C 	C 	0.2871	0.81586	0.2427	-0.051
Mof_H 	H 	0.30974	0.80468	0.1977	0.044
Mof_C 	C 	0.3765	0.76873	0.43277	0.021
Mof_C 	C 	0.4312	0.80325	0.4877	-0.057
Mof_H 	H 	0.42881	0.84785	0.48552	0.069
Mof_C 	C 	0.4898	0.77399	0.5462	-0.042
Mof_H 	H 	0.52474	0.79859	0.58413	0.045
Mof_C 	C 	0.4971	0.70959	0.549	0.009
Mof_H 	H 	0.54026	0.6896	0.58783	0.036
Mof_C 	C 	0.4413	0.67389	0.49493	-0.122
Mof_C 	C 	0.3816	0.70335	0.43736	-0.015
Mof_H 	H 	0.34347	0.67862	0.40048	0.045
Mof_C 	C 	0.4516	0.60357	0.4978	0.464
Mof_C 	C 	0.1061	0.91767	0.40543	0.132
Mof_C 	C 	0.0478	0.95917	0.45294	-0.011
Mof_C 	C 	0.0304	0.02203	0.4358	-0.035
Mof_H 	H 	0.0509	0.03726	0.39171	0.058
Mof_C 	C 	0.0166	0.93733	0.5178	-0.042
Mof_H 	H 	0.02769	0.89431	0.53004	0.076
Mof_C 	C 	0.2806	0.1045	0.4406	0.306
Mof_C 	C 	0.3227	0.0936	0.3765	-0.278
Mof_H 	H 	0.31562	0.12477	0.34064	0.123
Mof_C 	C 	0.3769	0.0352	0.3647	0.166
Mof_C 	C 	0.3865	0.9904	0.4166	-0.269
Mof_H 	H 	0.42257	0.95124	0.40835	0.134
Mof_C 	C 	0.3436	0.0021	0.4814	0.313
Mof_C 	C 	0.2932	0.0593	0.4943	-0.333
Mof_H 	H 	0.26721	0.06801	0.53922	0.159
Mof_C 	C 	0.3055	0.9602	0.5934	0.042
Mof_H 	H 	0.22389	0.97608	0.58567	0.033
Mof_H 	H 	0.35244	0.9899	0.62451	0.024
Mof_C 	C 	0.3072	0.8964	0.6258	-0.017
Mof_H 	H 	0.3877	0.87871	0.62841	0.048
Mof_H 	H 	0.28295	0.899	0.67421	0.039
Mof_C 	C 	0.2163	0.7971	0.6143	0.005
Mof_H 	H 	0.20311	0.80185	0.6646	0.042
Mof_H 	H 	0.28948	0.77263	0.61152	0.032
Mof_C 	C 	0.1158	0.7633	0.5765	-0.019
Mof_H 	H 	0.12281	0.76362	0.52518	0.051
Mof_H 	H 	0.11454	0.71902	0.59254	0.043
Mof_C 	C 	0.9077	0.7588	0.5758	-0.033
Mof_H 	H 	0.91317	0.7188	0.60243	0.05
Mof_H 	H 	0.89735	0.749	0.52488	0.06
Mof_C 	C 	0.1936	0.2034	0.4039	0.051
Mof_H 	H 	0.17273	0.18241	0.3581	0.027
Mof_H 	H 	0.26217	0.23106	0.39928	0.02
Mof_C 	C 	0.4275	0.02388	0.2974	-0.001
Mof_C 	C 	0.4616	0.0725	0.2552	-0.09
Mof_H 	H 	0.44627	0.11478	0.26745	0.054
Mof_C 	C 	0.5167	0.0602	0.1965	0.046
Mof_H 	H 	0.54048	0.09472	0.16962	0.003
Mof_C 	C 	0.5042	0.9545	0.2135	0.063
Mof_H 	H 	0.51874	0.91269	0.19895	0.003
Mof_C 	C 	0.4485	0.9627	0.273	-0.096
Mof_H 	H 	0.4238	0.92726	0.298	0.065
Mof_Zn	Zn	0.38434	0.48653	0.41516	1.225
Mof_O 	O 	0.2256	0.46465	0.43186	-0.452
Mof_O 	O 	0.2366	0.40544	0.33826	-0.318
Mof_O 	O 	0.6028	0.07302	0.04957	-0.52
Mof_O 	O 	0.4893	0.08012	0.95149	-0.532
Mof_O 	O 	0.6452	0.45399	0.97185	-0.257
Mof_O 	O 	0.7717	0.35707	0.91634	-0.176
Mof_O 	O 	0.9895	0.29453	0.9084	-0.159
Mof_O 	O 	0.7783	0.65763	0.04245	-0.253
Mof_N 	N 	0.9048	0.42197	0.16391	-0.128
Mof_N 	N 	0.8163	0.37298	0.06913	-0.212
Mof_H 	H 	0.79913	0.36283	0.0246	0.153
Mof_N 	N 	0.4606	0.50149	0.32548	-0.256
Mof_C 	C 	0.18	0.4283	0.3837	0.313
Mof_C 	C 	0.0496	0.41727	0.384	-0.051
Mof_C 	C 	0.9864	0.39488	0.32213	-0.057
Mof_H 	H 	0.02714	0.38489	0.28236	0.071
Mof_C 	C 	0.865	0.38717	0.3185	0.04
Mof_C 	C 	0.807	0.403	0.3768	-0.078
Mof_H 	H 	0.72385	0.39926	0.37461	0.059
Mof_C 	C 	0.8692	0.4242	0.4382	-0.024
Mof_H 	H 	0.82882	0.43367	0.47828	0.045
Mof_C 	C 	0.9898	0.4317	0.4413	-0.028
Mof_H 	H 	0.03168	0.44696	0.48324	0.054
Mof_C 	C 	0.8005	0.36064	0.25378	-0.019
Mof_C 	C 	0.8267	0.37653	0.18568	0.035
Mof_C 	C 	0.7697	0.34654	0.12633	0.063
Mof_C 	C 	0.6839	0.30002	0.13085	-0.03
Mof_C 	C 	0.6567	0.28652	0.1982	-0.042
Mof_H 	H 	0.5976	0.25616	0.20446	0.043
Mof_C 	C 	0.7129	0.31586	0.2573	-0.05
Mof_H 	H 	0.69026	0.30468	0.3023	0.043
Mof_C 	C 	0.6235	0.26873	0.06723	0.021
Mof_C 	C 	0.5688	0.30325	0.0123	-0.056
Mof_H 	H 	0.57119	0.34785	0.01448	0.069
Mof_C 	C 	0.5102	0.27399	0.9538	-0.043
Mof_H 	H 	0.47526	0.29859	0.91587	0.046
Mof_C 	C 	0.5029	0.20959	0.951	0.009
Mof_H 	H 	0.45974	0.1896	0.91217	0.036
Mof_C 	C 	0.5587	0.17389	0.00507	-0.122
Mof_C 	C 	0.6184	0.20335	0.06264	-0.015
Mof_H 	H 	0.65653	0.17862	0.09952	0.045
Mof_C 	C 	0.5484	0.10357	0.0022	0.465
Mof_C 	C 	0.8939	0.41767	0.09457	0.132
Mof_C 	C 	0.9522	0.45917	0.04706	-0.012
Mof_C 	C 	0.9696	0.52203	0.0642	-0.032
Mof_H 	H 	0.9491	0.53726	0.10829	0.057
Mof_C 	C 	0.9834	0.43733	0.9822	-0.043
Mof_H 	H 	0.97231	0.39431	0.96996	0.076
Mof_C 	C 	0.7194	0.6045	0.0594	0.307
Mof_C 	C 	0.6773	0.5936	0.1235	-0.279
Mof_H 	H 	0.68438	0.62477	0.15936	0.123
Mof_C 	C 	0.6231	0.5352	0.1353	0.167
Mof_C 	C 	0.6135	0.4904	0.0834	-0.27
Mof_H 	H 	0.57743	0.45124	0.09165	0.134
Mof_C 	C 	0.6564	0.5021	0.0186	0.315
Mof_C 	C 	0.7068	0.5593	0.0057	-0.335
Mof_H 	H 	0.73279	0.56801	0.96078	0.16
Mof_C 	C 	0.6945	0.4602	0.9066	0.042
Mof_H 	H 	0.77611	0.47608	0.91433	0.033
Mof_H 	H 	0.64756	0.4899	0.87549	0.024
Mof_C 	C 	0.6928	0.3964	0.8742	-0.017
Mof_H 	H 	0.6123	0.37871	0.87159	0.048
Mof_H 	H 	0.71705	0.399	0.82579	0.039
Mof_C 	C 	0.7837	0.2971	0.8857	0.005
Mof_H 	H 	0.79689	0.30185	0.8354	0.041
Mof_H 	H 	0.71052	0.27263	0.88848	0.032
Mof_C 	C 	0.8842	0.2633	0.9235	-0.019
Mof_H 	H 	0.87719	0.26362	0.97482	0.05
Mof_H 	H 	0.88546	0.21902	0.90746	0.043
Mof_C 	C 	0.0923	0.2588	0.9242	-0.033
Mof_H 	H 	0.08683	0.2188	0.89757	0.05
Mof_H 	H 	0.10265	0.249	0.97512	0.06
Mof_C 	C 	0.8064	0.7034	0.0961	0.051
Mof_H 	H 	0.82727	0.68241	0.1419	0.027
Mof_H 	H 	0.73783	0.73106	0.10072	0.02
Mof_C 	C 	0.5725	0.52388	0.2026	-0.002
Mof_C 	C 	0.5384	0.5725	0.2448	-0.09
Mof_H 	H 	0.55373	0.61478	0.23255	0.054
Mof_C 	C 	0.4833	0.5602	0.3035	0.046
Mof_H 	H 	0.45952	0.59472	0.33038	0.003
Mof_C 	C 	0.4958	0.4545	0.2865	0.064
Mof_H 	H 	0.48126	0.41269	0.30105	0.003
Mof_C 	C 	0.5515	0.4627	0.227	-0.096
Mof_H 	H 	0.5762	0.42726	0.202	0.065
Mof_Zn	Zn	0.38434	0.01347	0.91516	1.225
Mof_O 	O 	0.2256	0.03535	0.93186	-0.453
Mof_O 	O 	0.2366	0.09456	0.83826	-0.319
Mof_O 	O 	0.6028	0.42698	0.54957	-0.52
Mof_O 	O 	0.4893	0.41988	0.45149	-0.531
Mof_O 	O 	0.6452	0.04601	0.47185	-0.256
Mof_O 	O 	0.7717	0.14293	0.41634	-0.176
Mof_O 	O 	0.9895	0.20547	0.4084	-0.159
Mof_O 	O 	0.7783	0.84237	0.54245	-0.252
Mof_N 	N 	0.9048	0.07803	0.66391	-0.128
Mof_N 	N 	0.8163	0.12702	0.56913	-0.212
Mof_H 	H 	0.79913	0.13717	0.5246	0.153
Mof_N 	N 	0.4606	0.99851	0.82548	-0.255
Mof_C 	C 	0.18	0.0717	0.8837	0.316
Mof_C 	C 	0.0496	0.08273	0.884	-0.059
Mof_C 	C 	0.9864	0.10512	0.82213	-0.048
Mof_H 	H 	0.02714	0.11511	0.78236	0.067
Mof_C 	C 	0.865	0.11283	0.8185	0.036
Mof_C 	C 	0.807	0.097	0.8768	-0.072
Mof_H 	H 	0.72385	0.10074	0.87461	0.057
Mof_C 	C 	0.8692	0.0758	0.9382	-0.031
Mof_H 	H 	0.82882	0.06633	0.97828	0.047
Mof_C 	C 	0.9898	0.0683	0.9413	-0.018
Mof_H 	H 	0.03168	0.05304	0.98324	0.05
Mof_C 	C 	0.8005	0.13936	0.75378	-0.017
Mof_C 	C 	0.8267	0.12347	0.68568	0.035
Mof_C 	C 	0.7697	0.15346	0.62633	0.063
Mof_C 	C 	0.6839	0.19998	0.63085	-0.031
Mof_C 	C 	0.6567	0.21348	0.6982	-0.041
Mof_H 	H 	0.5976	0.24384	0.70446	0.042
Mof_C 	C 	0.7129	0.18414	0.7573	-0.051
Mof_H 	H 	0.69026	0.19532	0.8023	0.044
Mof_C 	C 	0.6235	0.23127	0.56723	0.021
Mof_C 	C 	0.5688	0.19675	0.5123	-0.057
Mof_H 	H 	0.57119	0.15215	0.51448	0.069
Mof_C 	C 	0.5102	0.22601	0.4538	-0.042
Mof_H 	H 	0.47526	0.20141	0.41587	0.045
Mof_C 	C 	0.5029	0.29041	0.451	0.009
Mof_H 	H 	0.45974	0.3104	0.41217	0.036
Mof_C 	C 	0.5587	0.32611	0.50507	-0.122
Mof_C 	C 	0.6184	0.29665	0.56264	-0.015
Mof_H 	H 	0.65653	0.32138	0.59952	0.045
Mof_C 	C 	0.5484	0.39643	0.5022	0.464
Mof_C 	C 	0.8939	0.08233	0.59457	0.132
Mof_C 	C 	0.9522	0.04083	0.54706	-0.011
Mof_C 	C 	0.9696	0.97797	0.5642	-0.035
Mof_H 	H 	0.9491	0.96274	0.60829	0.058
Mof_C 	C 	0.9834	0.06267	0.4822	-0.042
Mof_H 	H 	0.97231	0.10569	0.46996	0.076
Mof_C 	C 	0.7194	0.8955	0.5594	0.306
Mof_C 	C 	0.6773	0.9064	0.6235	-0.278
Mof_H 	H 	0.68438	0.87523	0.65936	0.123
Mof_C 	C 	0.6231	0.9648	0.6353	0.166
Mof_C 	C 	0.6135	0.0096	0.5834	-0.269
Mof_H 	H 	0.57743	0.04876	0.59165	0.134
Mof_C 	C 	0.6564	0.9979	0.5186	0.313
Mof_C 	C 	0.7068	0.9407	0.5057	-0.333
Mof_H 	H 	0.73279	0.93199	0.46078	0.159
Mof_C 	C 	0.6945	0.0398	0.4066	0.042
Mof_H 	H 	0.77611	0.02392	0.41433	0.033
Mof_H 	H 	0.64756	0.0101	0.37549	0.024
Mof_C 	C 	0.6928	0.1036	0.3742	-0.017
Mof_H 	H 	0.6123	0.12129	0.37159	0.048
Mof_H 	H 	0.71705	0.101	0.32579	0.039
Mof_C 	C 	0.7837	0.2029	0.3857	0.005
Mof_H 	H 	0.79689	0.19815	0.3354	0.042
Mof_H 	H 	0.71052	0.22737	0.38848	0.032
Mof_C 	C 	0.8842	0.2367	0.4235	-0.019
Mof_H 	H 	0.87719	0.23638	0.47482	0.051
Mof_H 	H 	0.88546	0.28098	0.40746	0.043
Mof_C 	C 	0.0923	0.2412	0.4242	-0.033
Mof_H 	H 	0.08683	0.2812	0.39757	0.05
Mof_H 	H 	0.10265	0.251	0.47512	0.06
Mof_C 	C 	0.8064	0.7966	0.5961	0.051
Mof_H 	H 	0.82727	0.81759	0.6419	0.027
Mof_H 	H 	0.73783	0.76894	0.60072	0.02
Mof_C 	C 	0.5725	0.97612	0.7026	-0.001
Mof_C 	C 	0.5384	0.9275	0.7448	-0.09
Mof_H 	H 	0.55373	0.88522	0.73255	0.054
Mof_C 	C 	0.4833	0.9398	0.8035	0.046
Mof_H 	H 	0.45952	0.90528	0.83038	0.003
Mof_C 	C 	0.4958	0.0455	0.7865	0.063
Mof_H 	H 	0.48126	0.08731	0.80105	0.003
Mof_C 	C 	0.5515	0.0373	0.727	-0.096
Mof_H 	H 	0.5762	0.07274	0.702	0.065
Mof_Zn	Zn	0.61566	0.51347	0.58484	1.225
Mof_O 	O 	0.7744	0.53535	0.56814	-0.452
Mof_O 	O 	0.7634	0.59456	0.66174	-0.318
Mof_O 	O 	0.3972	0.92698	0.95043	-0.52
Mof_O 	O 	0.5107	0.91988	0.04851	-0.532
Mof_O 	O 	0.3548	0.54601	0.02815	-0.257
Mof_O 	O 	0.2283	0.64293	0.08366	-0.176
Mof_O 	O 	0.0105	0.70547	0.0916	-0.159
Mof_O 	O 	0.2217	0.34237	0.95755	-0.253
Mof_N 	N 	0.0952	0.57803	0.83609	-0.128
Mof_N 	N 	0.1837	0.62702	0.93087	-0.212
Mof_H 	H 	0.20087	0.63717	0.9754	0.153
Mof_N 	N 	0.5394	0.49851	0.67452	-0.256
Mof_C 	C 	0.82	0.5717	0.6163	0.313
Mof_C 	C 	0.9504	0.58273	0.616	-0.051
Mof_C 	C 	0.0136	0.60512	0.67787	-0.057
Mof_H 	H 	0.97286	0.61511	0.71764	0.071
Mof_C 	C 	0.135	0.61283	0.6815	0.04
Mof_C 	C 	0.193	0.597	0.6232	-0.078
Mof_H 	H 	0.27615	0.60074	0.62539	0.059
Mof_C 	C 	0.1308	0.5758	0.5618	-0.024
Mof_H 	H 	0.17118	0.56633	0.52172	0.045
Mof_C 	C 	0.0102	0.5683	0.5587	-0.028
Mof_H 	H 	0.96832	0.55304	0.51676	0.054
Mof_C 	C 	0.1995	0.63936	0.74622	-0.019
Mof_C 	C 	0.1733	0.62347	0.81432	0.035
Mof_C 	C 	0.2303	0.65346	0.87367	0.063
Mof_C 	C 	0.3161	0.69998	0.86915	-0.03
Mof_C 	C 	0.3433	0.71348	0.8018	-0.042
Mof_H 	H 	0.4024	0.74384	0.79554	0.043
Mof_C 	C 	0.2871	0.68414	0.7427	-0.05
Mof_H 	H 	0.30974	0.69532	0.6977	0.043
Mof_C 	C 	0.3765	0.73127	0.93277	0.021
Mof_C 	C 	0.4312	0.69675	0.9877	-0.056
Mof_H 	H 	0.42881	0.65215	0.98552	0.069
Mof_C 	C 	0.4898	0.72601	0.0462	-0.043
Mof_H 	H 	0.52474	0.70141	0.08413	0.046
Mof_C 	C 	0.4971	0.79041	0.049	0.009
Mof_H 	H 	0.54026	0.8104	0.08783	0.036
Mof_C 	C 	0.4413	0.82611	0.99493	-0.122
Mof_C 	C 	0.3816	0.79665	0.93736	-0.015
Mof_H 	H 	0.34347	0.82138	0.90048	0.045
Mof_C 	C 	0.4516	0.89643	0.9978	0.465
Mof_C 	C 	0.1061	0.58233	0.90543	0.132
Mof_C 	C 	0.0478	0.54083	0.95294	-0.012
Mof_C 	C 	0.0304	0.47797	0.9358	-0.032
Mof_H 	H 	0.0509	0.46274	0.89171	0.057
Mof_C 	C 	0.0166	0.56267	0.0178	-0.043
Mof_H 	H 	0.02769	0.60569	0.03004	0.076
Mof_C 	C 	0.2806	0.3955	0.9406	0.307
Mof_C 	C 	0.3227	0.4064	0.8765	-0.279
Mof_H 	H 	0.31562	0.37523	0.84064	0.123
Mof_C 	C 	0.3769	0.4648	0.8647	0.167
Mof_C 	C 	0.3865	0.5096	0.9166	-0.27
Mof_H 	H 	0.42257	0.54876	0.90835	0.134
Mof_C 	C 	0.3436	0.4979	0.9814	0.315
Mof_C 	C 	0.2932	0.4407	0.9943	-0.335
Mof_H 	H 	0.26721	0.43199	0.03922	0.16
Mof_C 	C 	0.3055	0.5398	0.0934	0.042
Mof_H 	H 	0.22389	0.52392	0.08567	0.033
Mof_H 	H 	0.35244	0.5101	0.12451	0.024
Mof_C 	C 	0.3072	0.6036	0.1258	-0.017
Mof_H 	H 	0.3877	0.62129	0.12841	0.048
Mof_H 	H 	0.28295	0.601	0.17421	0.039
Mof_C 	C 	0.2163	0.7029	0.1143	0.005
Mof_H 	H 	0.20311	0.69815	0.1646	0.041
Mof_H 	H 	0.28948	0.72737	0.11152	0.032
Mof_C 	C 	0.1158	0.7367	0.0765	-0.019
Mof_H 	H 	0.12281	0.73638	0.02518	0.05
Mof_H 	H 	0.11454	0.78098	0.09254	0.043
Mof_C 	C 	0.9077	0.7412	0.0758	-0.033
Mof_H 	H 	0.91317	0.7812	0.10243	0.05
Mof_H 	H 	0.89735	0.751	0.02488	0.06
Mof_C 	C 	0.1936	0.2966	0.9039	0.051
Mof_H 	H 	0.17273	0.31759	0.8581	0.027
Mof_H 	H 	0.26217	0.26894	0.89928	0.02
Mof_C 	C 	0.4275	0.47612	0.7974	-0.002
Mof_C 	C 	0.4616	0.4275	0.7552	-0.09
Mof_H 	H 	0.44627	0.38522	0.76745	0.054
Mof_C 	C 	0.5167	0.4398	0.6965	0.046
Mof_H 	H 	0.54048	0.40528	0.66962	0.003
Mof_C 	C 	0.5042	0.5455	0.7135	0.064
Mof_H 	H 	0.51874	0.58731	0.69895	0.003
Mof_C 	C 	0.4485	0.5373	0.773	-0.096
Mof_H 	H 	0.4238	0.57274	0.798	0.065
_end
