# CIF file generated by openbabel 3.1.0, see https://openbabel.org
data_I
_chemical_name_common 'image0'
_cell_length_a 13.0662
_cell_length_b 14.7659
_cell_length_c 15.3925
_cell_angle_alpha 90
_cell_angle_beta 90.296
_cell_angle_gamma 90
_space_group_name_H-M_alt 'P 1'
_space_group_name_Hall 'P 1'
loop_
    _symmetry_equiv_pos_as_xyz
    x,y,z
loop_
    _atom_site_label
    _atom_site_type_symbol
    _atom_site_fract_x
    _atom_site_fract_y
    _atom_site_fract_z
    _atom_site_occupancy
    Cu1      Cu       0.51254    0.28600    0.90876    1.000
    N1       N        0.59455    0.40318    0.04754    1.000
    N2       N        0.60208    0.32237    0.01059    1.000
    N3       N        0.66541    0.27022    0.05652    1.000
    N4       N        0.65291    0.40671    0.11814    1.000
    N5       N        0.40878    0.37453    0.95120    1.000
    N6       N        0.32414    0.34856    0.96595    1.000
    N7       N        0.24240    0.32460    0.98240    1.000
    N8       N        0.42511    0.50225    0.11446    1.000
    N9       N        0.37029    0.43172    0.14163    1.000
    N10      N        0.41436    0.57196    0.16779    1.000
    N11      N        0.35149    0.54832    0.23214    1.000
    N12      N        0.12080    0.29261    0.35366    1.000
    N13      N        0.91230    0.24892    0.31484    1.000
    C1       C        0.69525    0.32403    0.12214    1.000
    C2       C        0.76820    0.29687    0.18970    1.000
    C3       C        0.80660    0.20906    0.19366    1.000
    H1       H        0.78460    0.16450    0.15320    1.000
    C4       C        0.80270    0.35921    0.25060    1.000
    H2       H        0.77700    0.41940    0.25040    1.000
    C5       C        0.32630    0.46180    0.21377    1.000
    C6       C        0.25570    0.40510    0.26371    1.000
    C7       C        0.21010    0.33007    0.22387    1.000
    H3       H        0.22470    0.31620    0.16500    1.000
    C8       C        0.14440    0.27678    0.27014    1.000
    H4       H        0.11410    0.22620    0.24190    1.000
    C9       C        0.16480    0.36415    0.39237    1.000
    H5       H        0.14930    0.37600    0.45150    1.000
    C10      C        0.23180    0.42147    0.35000    1.000
    H6       H        0.26120    0.47160    0.37970    1.000
    C11      C        0.87450    0.33295    0.31124    1.000
    H7       H        0.89810    0.37630    0.35230    1.000
    C12      C        0.87720    0.18788    0.25742    1.000
    H8       H        0.90210    0.12750    0.26080    1.000
    Cu2      Cu       0.98746    0.78600    0.59124    1.000
    N14      N        0.90545    0.90318    0.45246    1.000
    N15      N        0.89792    0.82237    0.48941    1.000
    N16      N        0.83459    0.77022    0.44348    1.000
    N17      N        0.84709    0.90671    0.38186    1.000
    N18      N        0.09122    0.87453    0.54880    1.000
    N19      N        0.17586    0.84856    0.53405    1.000
    N20      N        0.25760    0.82460    0.51760    1.000
    N21      N        0.07489    0.00225    0.38554    1.000
    N22      N        0.12971    0.93172    0.35837    1.000
    N23      N        0.08564    0.07196    0.33221    1.000
    N24      N        0.14851    0.04832    0.26786    1.000
    N25      N        0.37920    0.79261    0.14634    1.000
    N26      N        0.58770    0.74892    0.18516    1.000
    C13      C        0.80475    0.82403    0.37786    1.000
    C14      C        0.73180    0.79687    0.31030    1.000
    C15      C        0.69340    0.70906    0.30634    1.000
    H9       H        0.71540    0.66450    0.34680    1.000
    C16      C        0.69730    0.85921    0.24940    1.000
    H10      H        0.72300    0.91940    0.24960    1.000
    C17      C        0.17370    0.96180    0.28623    1.000
    C18      C        0.24430    0.90510    0.23629    1.000
    C19      C        0.28990    0.83007    0.27613    1.000
    H11      H        0.27530    0.81620    0.33500    1.000
    C20      C        0.35560    0.77678    0.22986    1.000
    H12      H        0.38590    0.72620    0.25810    1.000
    C21      C        0.33520    0.86415    0.10763    1.000
    H13      H        0.35070    0.87600    0.04850    1.000
    C22      C        0.26820    0.92147    0.15000    1.000
    H14      H        0.23880    0.97160    0.12030    1.000
    C23      C        0.62550    0.83295    0.18876    1.000
    H15      H        0.60190    0.87630    0.14770    1.000
    C24      C        0.62280    0.68788    0.24258    1.000
    H16      H        0.59790    0.62750    0.23920    1.000
    Cu3      Cu       0.48746    0.71400    0.09124    1.000
    N27      N        0.40545    0.59682    0.95246    1.000
    N28      N        0.39792    0.67763    0.98941    1.000
    N29      N        0.33459    0.72978    0.94348    1.000
    N30      N        0.34709    0.59329    0.88186    1.000
    N31      N        0.59122    0.62547    0.04880    1.000
    N32      N        0.67586    0.65144    0.03405    1.000
    N33      N        0.75760    0.67540    0.01760    1.000
    N34      N        0.57489    0.49775    0.88554    1.000
    N35      N        0.62971    0.56828    0.85837    1.000
    N36      N        0.58564    0.42804    0.83221    1.000
    N37      N        0.64851    0.45168    0.76786    1.000
    N38      N        0.87920    0.70739    0.64634    1.000
    N39      N        0.08770    0.75108    0.68516    1.000
    C25      C        0.30475    0.67597    0.87786    1.000
    C26      C        0.23180    0.70313    0.81030    1.000
    C27      C        0.19340    0.79094    0.80634    1.000
    H17      H        0.21540    0.83550    0.84680    1.000
    C28      C        0.19730    0.64079    0.74940    1.000
    H18      H        0.22300    0.58060    0.74960    1.000
    C29      C        0.67370    0.53820    0.78623    1.000
    C30      C        0.74430    0.59490    0.73629    1.000
    C31      C        0.78990    0.66993    0.77613    1.000
    H19      H        0.77530    0.68380    0.83500    1.000
    C32      C        0.85560    0.72322    0.72986    1.000
    H20      H        0.88590    0.77380    0.75810    1.000
    C33      C        0.83520    0.63585    0.60763    1.000
    H21      H        0.85070    0.62400    0.54850    1.000
    C34      C        0.76820    0.57853    0.65000    1.000
    H22      H        0.73880    0.52840    0.62030    1.000
    C35      C        0.12550    0.66705    0.68876    1.000
    H23      H        0.10190    0.62370    0.64770    1.000
    C36      C        0.12280    0.81212    0.74258    1.000
    H24      H        0.09790    0.87250    0.73920    1.000
    Cu4      Cu       0.01254    0.21400    0.40876    1.000
    N40      N        0.09455    0.09682    0.54754    1.000
    N41      N        0.10208    0.17763    0.51059    1.000
    N42      N        0.16541    0.22978    0.55652    1.000
    N43      N        0.15291    0.09329    0.61814    1.000
    N44      N        0.90878    0.12547    0.45120    1.000
    N45      N        0.82414    0.15144    0.46595    1.000
    N46      N        0.74240    0.17540    0.48240    1.000
    N47      N        0.92511    0.99775    0.61446    1.000
    N48      N        0.87029    0.06828    0.64163    1.000
    N49      N        0.91436    0.92804    0.66779    1.000
    N50      N        0.85149    0.95168    0.73214    1.000
    N51      N        0.62080    0.20739    0.85366    1.000
    N52      N        0.41230    0.25108    0.81484    1.000
    C37      C        0.19525    0.17597    0.62214    1.000
    C38      C        0.26820    0.20313    0.68970    1.000
    C39      C        0.30660    0.29094    0.69366    1.000
    H25      H        0.28460    0.33550    0.65320    1.000
    C40      C        0.30270    0.14079    0.75060    1.000
    H26      H        0.27700    0.08060    0.75040    1.000
    C41      C        0.82630    0.03820    0.71377    1.000
    C42      C        0.75570    0.09490    0.76371    1.000
    C43      C        0.71010    0.16993    0.72387    1.000
    H27      H        0.72470    0.18380    0.66500    1.000
    C44      C        0.64440    0.22322    0.77014    1.000
    H28      H        0.61410    0.27380    0.74190    1.000
    C45      C        0.66480    0.13585    0.89237    1.000
    H29      H        0.64930    0.12400    0.95150    1.000
    C46      C        0.73180    0.07853    0.85000    1.000
    H30      H        0.76120    0.02840    0.87970    1.000
    C47      C        0.37450    0.16705    0.81124    1.000
    H31      H        0.39810    0.12370    0.85230    1.000
    C48      C        0.37720    0.31212    0.75742    1.000
    H32      H        0.40210    0.37250    0.76080    1.000
    Cu5      Cu       0.50000    0.50000    0.00000    1.000
    Cu6      Cu       0.00000    0.00000    0.50000    1.000
