data_functionalizedCrystal
_audit_creation_method	'EQeq! by Chris Wilmer'
_symmetry_space_group_name_H-M	'P1'
_symmetry_Int_Tables_number	1
_symmetry_cell_setting	triclinic
loop_
_symmetry_equiv_pos_as_xyz
  x,y,z
_cell_length_a	18.945
_cell_length_b	18.945
_cell_length_c	27.561
_cell_angle_alpha	90
_cell_angle_beta	90
_cell_angle_gamma	90
loop_
_atom_site_label
_atom_site_type_symbol
_atom_site_fract_x
_atom_site_fract_y
_atom_site_fract_z
_atom_site_charge
Mof_O 	O 	0.86855	0.76446	0.75031	-0.4
Mof_O 	O 	0.7864	0.687	0.68714	-0.431
Mof_C 	C 	0.8652	0.7369	0.79314	0.367
Mof_C 	C 	0.9358	0.7369	0.81815	-0.091
Mof_C 	C 	0.936	0.7305	0.86902	-0.034
Mof_H 	H 	0.8937	0.7275	0.886	0.049
Mof_C 	C 	0.9681	0.8622	0.947	-0.18
Mof_C 	C 	0.9708	0.5934	0.9477	-0.182
Mof_H 	H 	0.9512	0.8997	0.9673	0.061
Mof_H 	H 	0.9512	0.869	0.9145	0.076
Mof_H 	H 	0.9512	0.8178	0.9592	0.104
Mof_H 	H 	0.954	0.5568	0.9688	0.065
Mof_H 	H 	0.954	0.585	0.9153	0.077
Mof_H 	H 	0.954	0.6383	0.9588	0.112
Mof_O 	O 	0.36855	0.26446	0.25031	-0.398
Mof_O 	O 	0.2864	0.187	0.18714	-0.431
Mof_C 	C 	0.3652	0.2369	0.29314	0.364
Mof_C 	C 	0.4358	0.2369	0.31815	-0.086
Mof_C 	C 	0.436	0.2305	0.36902	-0.027
Mof_H 	H 	0.3937	0.2275	0.386	0.046
Mof_C 	C 	0.4681	0.3622	0.447	-0.196
Mof_C 	C 	0.4708	0.0934	0.4477	-0.197
Mof_H 	H 	0.4512	0.3997	0.4673	0.065
Mof_H 	H 	0.4512	0.369	0.4145	0.081
Mof_H 	H 	0.4512	0.3178	0.4592	0.112
Mof_H 	H 	0.454	0.0568	0.4688	0.071
Mof_H 	H 	0.454	0.085	0.4153	0.084
Mof_H 	H 	0.454	0.1383	0.4588	0.12
Mof_O 	O 	0.13145	0.23554	0.75031	-0.397
Mof_O 	O 	0.2136	0.313	0.68714	-0.43
Mof_C 	C 	0.1348	0.2631	0.79314	0.365
Mof_C 	C 	0.0642	0.2631	0.81815	-0.086
Mof_C 	C 	0.064	0.2695	0.86902	-0.03
Mof_H 	H 	0.1063	0.2725	0.886	0.046
Mof_C 	C 	0.0319	0.1378	0.947	-0.21
Mof_C 	C 	0.0292	0.4066	0.9477	-0.208
Mof_H 	H 	0.0488	0.1003	0.9673	0.07
Mof_H 	H 	0.0488	0.131	0.9145	0.087
Mof_H 	H 	0.0488	0.1822	0.9592	0.114
Mof_H 	H 	0.046	0.4432	0.9688	0.074
Mof_H 	H 	0.046	0.415	0.9153	0.087
Mof_H 	H 	0.046	0.3617	0.9588	0.121
Mof_O 	O 	0.63145	0.73554	0.25031	-0.399
Mof_O 	O 	0.7136	0.813	0.18714	-0.432
Mof_C 	C 	0.6348	0.7631	0.29314	0.364
Mof_C 	C 	0.5642	0.7631	0.31815	-0.087
Mof_C 	C 	0.564	0.7695	0.36902	-0.026
Mof_H 	H 	0.6063	0.7725	0.386	0.045
Mof_C 	C 	0.5319	0.6378	0.447	-0.196
Mof_C 	C 	0.5292	0.9066	0.4477	-0.195
Mof_H 	H 	0.5488	0.6003	0.4673	0.065
Mof_H 	H 	0.5488	0.631	0.4145	0.081
Mof_H 	H 	0.5488	0.6822	0.4592	0.112
Mof_H 	H 	0.546	0.9432	0.4688	0.067
Mof_H 	H 	0.546	0.915	0.4153	0.081
Mof_H 	H 	0.546	0.8617	0.4588	0.119
Mof_O 	O 	0.23554	0.86855	0.75031	-0.4
Mof_O 	O 	0.313	0.7864	0.68714	-0.432
Mof_C 	C 	0.2631	0.8652	0.79314	0.366
Mof_C 	C 	0.2631	0.9358	0.81815	-0.092
Mof_C 	C 	0.2695	0.936	0.86902	-0.035
Mof_H 	H 	0.2725	0.8937	0.886	0.048
Mof_C 	C 	0.1378	0.9681	0.947	-0.18
Mof_C 	C 	0.4066	0.9708	0.9477	-0.183
Mof_H 	H 	0.1003	0.9512	0.9673	0.059
Mof_H 	H 	0.131	0.9512	0.9145	0.075
Mof_H 	H 	0.1822	0.9512	0.9592	0.103
Mof_H 	H 	0.4432	0.954	0.9688	0.064
Mof_H 	H 	0.415	0.954	0.9153	0.076
Mof_H 	H 	0.3617	0.954	0.9588	0.111
Mof_O 	O 	0.73554	0.36855	0.25031	-0.399
Mof_O 	O 	0.813	0.2864	0.18714	-0.432
Mof_C 	C 	0.7631	0.3652	0.29314	0.364
Mof_C 	C 	0.7631	0.4358	0.31815	-0.087
Mof_C 	C 	0.7695	0.436	0.36902	-0.027
Mof_H 	H 	0.7725	0.3937	0.386	0.045
Mof_C 	C 	0.6378	0.4681	0.447	-0.196
Mof_C 	C 	0.9066	0.4708	0.4477	-0.195
Mof_H 	H 	0.6003	0.4512	0.4673	0.065
Mof_H 	H 	0.631	0.4512	0.4145	0.081
Mof_H 	H 	0.6822	0.4512	0.4592	0.112
Mof_H 	H 	0.9432	0.454	0.4688	0.067
Mof_H 	H 	0.915	0.454	0.4153	0.081
Mof_H 	H 	0.8617	0.454	0.4588	0.119
Mof_O 	O 	0.76446	0.13145	0.75031	-0.398
Mof_O 	O 	0.687	0.2136	0.68714	-0.431
Mof_C 	C 	0.7369	0.1348	0.79314	0.365
Mof_C 	C 	0.7369	0.0642	0.81815	-0.087
Mof_C 	C 	0.7305	0.064	0.86902	-0.03
Mof_H 	H 	0.7275	0.1063	0.886	0.046
Mof_C 	C 	0.8622	0.0319	0.947	-0.211
Mof_C 	C 	0.5934	0.0292	0.9477	-0.208
Mof_H 	H 	0.8997	0.0488	0.9673	0.071
Mof_H 	H 	0.869	0.0488	0.9145	0.087
Mof_H 	H 	0.8178	0.0488	0.9592	0.115
Mof_H 	H 	0.5568	0.046	0.9688	0.074
Mof_H 	H 	0.585	0.046	0.9153	0.087
Mof_H 	H 	0.6383	0.046	0.9588	0.121
Mof_O 	O 	0.26446	0.63145	0.25031	-0.398
Mof_O 	O 	0.187	0.7136	0.18714	-0.431
Mof_C 	C 	0.2369	0.6348	0.29314	0.364
Mof_C 	C 	0.2369	0.5642	0.31815	-0.086
Mof_C 	C 	0.2305	0.564	0.36902	-0.027
Mof_H 	H 	0.2275	0.6063	0.386	0.045
Mof_C 	C 	0.3622	0.5319	0.447	-0.196
Mof_C 	C 	0.0934	0.5292	0.4477	-0.198
Mof_H 	H 	0.3997	0.5488	0.4673	0.065
Mof_H 	H 	0.369	0.5488	0.4145	0.081
Mof_H 	H 	0.3178	0.5488	0.4592	0.112
Mof_H 	H 	0.0568	0.546	0.4688	0.071
Mof_H 	H 	0.085	0.546	0.4153	0.084
Mof_H 	H 	0.1383	0.546	0.4588	0.12
Mof_O 	O 	0.13145	0.76446	0.24969	-0.398
Mof_O 	O 	0.2136	0.687	0.31286	-0.431
Mof_C 	C 	0.1348	0.7369	0.20686	0.365
Mof_C 	C 	0.0642	0.7369	0.18185	-0.087
Mof_C 	C 	0.064	0.7305	0.13098	-0.03
Mof_H 	H 	0.1063	0.7275	0.114	0.046
Mof_C 	C 	0.0319	0.8622	0.053	-0.211
Mof_C 	C 	0.0292	0.5934	0.0523	-0.208
Mof_H 	H 	0.0488	0.8997	0.0327	0.071
Mof_H 	H 	0.0488	0.869	0.0855	0.087
Mof_H 	H 	0.0488	0.8178	0.0408	0.115
Mof_H 	H 	0.046	0.5568	0.0312	0.074
Mof_H 	H 	0.046	0.585	0.0847	0.087
Mof_H 	H 	0.046	0.6383	0.0412	0.121
Mof_O 	O 	0.63145	0.26446	0.74969	-0.398
Mof_O 	O 	0.7136	0.187	0.81286	-0.431
Mof_C 	C 	0.6348	0.2369	0.70686	0.364
Mof_C 	C 	0.5642	0.2369	0.68185	-0.086
Mof_C 	C 	0.564	0.2305	0.63098	-0.027
Mof_H 	H 	0.6063	0.2275	0.614	0.045
Mof_C 	C 	0.5319	0.3622	0.553	-0.196
Mof_C 	C 	0.5292	0.0934	0.5523	-0.198
Mof_H 	H 	0.5488	0.3997	0.5327	0.065
Mof_H 	H 	0.5488	0.369	0.5855	0.081
Mof_H 	H 	0.5488	0.3178	0.5408	0.112
Mof_H 	H 	0.546	0.0568	0.5312	0.071
Mof_H 	H 	0.546	0.085	0.5847	0.084
Mof_H 	H 	0.546	0.1383	0.5412	0.12
Mof_O 	O 	0.86855	0.23554	0.24969	-0.4
Mof_O 	O 	0.7864	0.313	0.31286	-0.432
Mof_C 	C 	0.8652	0.2631	0.20686	0.366
Mof_C 	C 	0.9358	0.2631	0.18185	-0.092
Mof_C 	C 	0.936	0.2695	0.13098	-0.035
Mof_H 	H 	0.8937	0.2725	0.114	0.048
Mof_C 	C 	0.9681	0.1378	0.053	-0.18
Mof_C 	C 	0.9708	0.4066	0.0523	-0.183
Mof_H 	H 	0.9512	0.1003	0.0327	0.059
Mof_H 	H 	0.9512	0.131	0.0855	0.075
Mof_H 	H 	0.9512	0.1822	0.0408	0.103
Mof_H 	H 	0.954	0.4432	0.0312	0.064
Mof_H 	H 	0.954	0.415	0.0847	0.076
Mof_H 	H 	0.954	0.3617	0.0412	0.111
Mof_O 	O 	0.36855	0.73554	0.74969	-0.399
Mof_O 	O 	0.2864	0.813	0.81286	-0.432
Mof_C 	C 	0.3652	0.7631	0.70686	0.364
Mof_C 	C 	0.4358	0.7631	0.68185	-0.087
Mof_C 	C 	0.436	0.7695	0.63098	-0.027
Mof_H 	H 	0.3937	0.7725	0.614	0.045
Mof_C 	C 	0.4681	0.6378	0.553	-0.196
Mof_C 	C 	0.4708	0.9066	0.5523	-0.195
Mof_H 	H 	0.4512	0.6003	0.5327	0.065
Mof_H 	H 	0.4512	0.631	0.5855	0.081
Mof_H 	H 	0.4512	0.6822	0.5408	0.112
Mof_H 	H 	0.454	0.9432	0.5312	0.067
Mof_H 	H 	0.454	0.915	0.5847	0.081
Mof_H 	H 	0.454	0.8617	0.5412	0.119
Mof_O 	O 	0.76446	0.86855	0.24969	-0.401
Mof_O 	O 	0.687	0.7864	0.31286	-0.432
Mof_C 	C 	0.7369	0.8652	0.20686	0.366
Mof_C 	C 	0.7369	0.9358	0.18185	-0.092
Mof_C 	C 	0.7305	0.936	0.13098	-0.035
Mof_H 	H 	0.7275	0.8937	0.114	0.048
Mof_C 	C 	0.8622	0.9681	0.053	-0.181
Mof_C 	C 	0.5934	0.9708	0.0523	-0.183
Mof_H 	H 	0.8997	0.9512	0.0327	0.06
Mof_H 	H 	0.869	0.9512	0.0855	0.075
Mof_H 	H 	0.8178	0.9512	0.0408	0.103
Mof_H 	H 	0.5568	0.954	0.0312	0.064
Mof_H 	H 	0.585	0.954	0.0847	0.076
Mof_H 	H 	0.6383	0.954	0.0412	0.111
Mof_O 	O 	0.26446	0.36855	0.74969	-0.398
Mof_O 	O 	0.187	0.2864	0.81286	-0.431
Mof_C 	C 	0.2369	0.3652	0.70686	0.364
Mof_C 	C 	0.2369	0.4358	0.68185	-0.086
Mof_C 	C 	0.2305	0.436	0.63098	-0.027
Mof_H 	H 	0.2275	0.3937	0.614	0.046
Mof_C 	C 	0.3622	0.4681	0.553	-0.196
Mof_C 	C 	0.0934	0.4708	0.5523	-0.197
Mof_H 	H 	0.3997	0.4512	0.5327	0.065
Mof_H 	H 	0.369	0.4512	0.5855	0.081
Mof_H 	H 	0.3178	0.4512	0.5408	0.112
Mof_H 	H 	0.0568	0.454	0.5312	0.071
Mof_H 	H 	0.085	0.454	0.5847	0.084
Mof_H 	H 	0.1383	0.454	0.5412	0.12
Mof_O 	O 	0.23554	0.13145	0.24969	-0.397
Mof_O 	O 	0.313	0.2136	0.31286	-0.43
Mof_C 	C 	0.2631	0.1348	0.20686	0.365
Mof_C 	C 	0.2631	0.0642	0.18185	-0.086
Mof_C 	C 	0.2695	0.064	0.13098	-0.03
Mof_H 	H 	0.2725	0.1063	0.114	0.046
Mof_C 	C 	0.1378	0.0319	0.053	-0.21
Mof_C 	C 	0.4066	0.0292	0.0523	-0.208
Mof_H 	H 	0.1003	0.0488	0.0327	0.07
Mof_H 	H 	0.131	0.0488	0.0855	0.087
Mof_H 	H 	0.1822	0.0488	0.0408	0.114
Mof_H 	H 	0.4432	0.046	0.0312	0.074
Mof_H 	H 	0.415	0.046	0.0847	0.087
Mof_H 	H 	0.3617	0.046	0.0412	0.121
Mof_O 	O 	0.73554	0.63145	0.74969	-0.399
Mof_O 	O 	0.813	0.7136	0.81286	-0.432
Mof_C 	C 	0.7631	0.6348	0.70686	0.364
Mof_C 	C 	0.7631	0.5642	0.68185	-0.087
Mof_C 	C 	0.7695	0.564	0.63098	-0.026
Mof_H 	H 	0.7725	0.6063	0.614	0.045
Mof_C 	C 	0.6378	0.5319	0.553	-0.196
Mof_C 	C 	0.9066	0.5292	0.5523	-0.195
Mof_H 	H 	0.6003	0.5488	0.5327	0.065
Mof_H 	H 	0.631	0.5488	0.5855	0.081
Mof_H 	H 	0.6822	0.5488	0.5408	0.112
Mof_H 	H 	0.9432	0.546	0.5312	0.067
Mof_H 	H 	0.915	0.546	0.5847	0.081
Mof_H 	H 	0.8617	0.546	0.5412	0.119
Mof_O 	O 	0.13145	0.23554	0.24969	-0.397
Mof_O 	O 	0.2136	0.313	0.31286	-0.43
Mof_C 	C 	0.1348	0.2631	0.20686	0.365
Mof_C 	C 	0.0642	0.2631	0.18185	-0.086
Mof_C 	C 	0.064	0.2695	0.13098	-0.03
Mof_H 	H 	0.1063	0.2725	0.114	0.046
Mof_C 	C 	0.0319	0.1378	0.053	-0.21
Mof_C 	C 	0.0292	0.4066	0.0523	-0.208
Mof_H 	H 	0.0488	0.1003	0.0327	0.07
Mof_H 	H 	0.0488	0.131	0.0855	0.087
Mof_H 	H 	0.0488	0.1822	0.0408	0.114
Mof_H 	H 	0.046	0.4432	0.0312	0.074
Mof_H 	H 	0.046	0.415	0.0847	0.087
Mof_H 	H 	0.046	0.3617	0.0412	0.121
Mof_O 	O 	0.63145	0.73554	0.74969	-0.399
Mof_O 	O 	0.7136	0.813	0.81286	-0.432
Mof_C 	C 	0.6348	0.7631	0.70686	0.364
Mof_C 	C 	0.5642	0.7631	0.68185	-0.087
Mof_C 	C 	0.564	0.7695	0.63098	-0.026
Mof_H 	H 	0.6063	0.7725	0.614	0.045
Mof_C 	C 	0.5319	0.6378	0.553	-0.196
Mof_C 	C 	0.5292	0.9066	0.5523	-0.195
Mof_H 	H 	0.5488	0.6003	0.5327	0.065
Mof_H 	H 	0.5488	0.631	0.5855	0.081
Mof_H 	H 	0.5488	0.6822	0.5408	0.112
Mof_H 	H 	0.546	0.9432	0.5312	0.067
Mof_H 	H 	0.546	0.915	0.5847	0.081
Mof_H 	H 	0.546	0.8617	0.5412	0.119
Mof_O 	O 	0.86855	0.76446	0.24969	-0.401
Mof_O 	O 	0.7864	0.687	0.31286	-0.432
Mof_C 	C 	0.8652	0.7369	0.20686	0.366
Mof_C 	C 	0.9358	0.7369	0.18185	-0.092
Mof_C 	C 	0.936	0.7305	0.13098	-0.035
Mof_H 	H 	0.8937	0.7275	0.114	0.048
Mof_C 	C 	0.9681	0.8622	0.053	-0.181
Mof_C 	C 	0.9708	0.5934	0.0523	-0.183
Mof_H 	H 	0.9512	0.8997	0.0327	0.06
Mof_H 	H 	0.9512	0.869	0.0855	0.075
Mof_H 	H 	0.9512	0.8178	0.0408	0.103
Mof_H 	H 	0.954	0.5568	0.0312	0.064
Mof_H 	H 	0.954	0.585	0.0847	0.076
Mof_H 	H 	0.954	0.6383	0.0412	0.111
Mof_O 	O 	0.36855	0.26446	0.74969	-0.398
Mof_O 	O 	0.2864	0.187	0.81286	-0.431
Mof_C 	C 	0.3652	0.2369	0.70686	0.364
Mof_C 	C 	0.4358	0.2369	0.68185	-0.086
Mof_C 	C 	0.436	0.2305	0.63098	-0.027
Mof_H 	H 	0.3937	0.2275	0.614	0.046
Mof_C 	C 	0.4681	0.3622	0.553	-0.196
Mof_C 	C 	0.4708	0.0934	0.5523	-0.197
Mof_H 	H 	0.4512	0.3997	0.5327	0.065
Mof_H 	H 	0.4512	0.369	0.5855	0.081
Mof_H 	H 	0.4512	0.3178	0.5408	0.112
Mof_H 	H 	0.454	0.0568	0.5312	0.071
Mof_H 	H 	0.454	0.085	0.5847	0.084
Mof_H 	H 	0.454	0.1383	0.5412	0.12
Mof_O 	O 	0.76446	0.13145	0.24969	-0.398
Mof_O 	O 	0.687	0.2136	0.31286	-0.431
Mof_C 	C 	0.7369	0.1348	0.20686	0.365
Mof_C 	C 	0.7369	0.0642	0.18185	-0.087
Mof_C 	C 	0.7305	0.064	0.13098	-0.03
Mof_H 	H 	0.7275	0.1063	0.114	0.046
Mof_C 	C 	0.8622	0.0319	0.053	-0.211
Mof_C 	C 	0.5934	0.0292	0.0523	-0.208
Mof_H 	H 	0.8997	0.0488	0.0327	0.071
Mof_H 	H 	0.869	0.0488	0.0855	0.087
Mof_H 	H 	0.8178	0.0488	0.0408	0.115
Mof_H 	H 	0.5568	0.046	0.0312	0.074
Mof_H 	H 	0.585	0.046	0.0847	0.087
Mof_H 	H 	0.6383	0.046	0.0412	0.121
Mof_O 	O 	0.26446	0.63145	0.74969	-0.398
Mof_O 	O 	0.187	0.7136	0.81286	-0.431
Mof_C 	C 	0.2369	0.6348	0.70686	0.364
Mof_C 	C 	0.2369	0.5642	0.68185	-0.086
Mof_C 	C 	0.2305	0.564	0.63098	-0.027
Mof_H 	H 	0.2275	0.6063	0.614	0.045
Mof_C 	C 	0.3622	0.5319	0.553	-0.196
Mof_C 	C 	0.0934	0.5292	0.5523	-0.198
Mof_H 	H 	0.3997	0.5488	0.5327	0.065
Mof_H 	H 	0.369	0.5488	0.5855	0.081
Mof_H 	H 	0.3178	0.5488	0.5408	0.112
Mof_H 	H 	0.0568	0.546	0.5312	0.071
Mof_H 	H 	0.085	0.546	0.5847	0.084
Mof_H 	H 	0.1383	0.546	0.5412	0.12
Mof_O 	O 	0.23554	0.86855	0.24969	-0.4
Mof_O 	O 	0.313	0.7864	0.31286	-0.432
Mof_C 	C 	0.2631	0.8652	0.20686	0.366
Mof_C 	C 	0.2631	0.9358	0.18185	-0.092
Mof_C 	C 	0.2695	0.936	0.13098	-0.035
Mof_H 	H 	0.2725	0.8937	0.114	0.048
Mof_C 	C 	0.1378	0.9681	0.053	-0.18
Mof_C 	C 	0.4066	0.9708	0.0523	-0.183
Mof_H 	H 	0.1003	0.9512	0.0327	0.059
Mof_H 	H 	0.131	0.9512	0.0855	0.075
Mof_H 	H 	0.1822	0.9512	0.0408	0.103
Mof_H 	H 	0.4432	0.954	0.0312	0.064
Mof_H 	H 	0.415	0.954	0.0847	0.076
Mof_H 	H 	0.3617	0.954	0.0412	0.111
Mof_O 	O 	0.73554	0.36855	0.74969	-0.399
Mof_O 	O 	0.813	0.2864	0.81286	-0.432
Mof_C 	C 	0.7631	0.3652	0.70686	0.364
Mof_C 	C 	0.7631	0.4358	0.68185	-0.087
Mof_C 	C 	0.7695	0.436	0.63098	-0.027
Mof_H 	H 	0.7725	0.3937	0.614	0.045
Mof_C 	C 	0.6378	0.4681	0.553	-0.196
Mof_C 	C 	0.9066	0.4708	0.5523	-0.195
Mof_H 	H 	0.6003	0.4512	0.5327	0.065
Mof_H 	H 	0.631	0.4512	0.5855	0.081
Mof_H 	H 	0.6822	0.4512	0.5408	0.112
Mof_H 	H 	0.9432	0.454	0.5312	0.067
Mof_H 	H 	0.915	0.454	0.5847	0.081
Mof_H 	H 	0.8617	0.454	0.5412	0.119
Mof_O 	O 	0.86855	0.23554	0.75031	-0.4
Mof_O 	O 	0.7864	0.313	0.68714	-0.432
Mof_C 	C 	0.8652	0.2631	0.79314	0.366
Mof_C 	C 	0.9358	0.2631	0.81815	-0.092
Mof_C 	C 	0.936	0.2695	0.86902	-0.035
Mof_H 	H 	0.8937	0.2725	0.886	0.048
Mof_C 	C 	0.9681	0.1378	0.947	-0.18
Mof_C 	C 	0.9708	0.4066	0.9477	-0.183
Mof_H 	H 	0.9512	0.1003	0.9673	0.059
Mof_H 	H 	0.9512	0.131	0.9145	0.075
Mof_H 	H 	0.9512	0.1822	0.9592	0.103
Mof_H 	H 	0.954	0.4432	0.9688	0.064
Mof_H 	H 	0.954	0.415	0.9153	0.076
Mof_H 	H 	0.954	0.3617	0.9588	0.111
Mof_O 	O 	0.36855	0.73554	0.25031	-0.399
Mof_O 	O 	0.2864	0.813	0.18714	-0.432
Mof_C 	C 	0.3652	0.7631	0.29314	0.364
Mof_C 	C 	0.4358	0.7631	0.31815	-0.087
Mof_C 	C 	0.436	0.7695	0.36902	-0.027
Mof_H 	H 	0.3937	0.7725	0.386	0.045
Mof_C 	C 	0.4681	0.6378	0.447	-0.196
Mof_C 	C 	0.4708	0.9066	0.4477	-0.195
Mof_H 	H 	0.4512	0.6003	0.4673	0.065
Mof_H 	H 	0.4512	0.631	0.4145	0.081
Mof_H 	H 	0.4512	0.6822	0.4592	0.112
Mof_H 	H 	0.454	0.9432	0.4688	0.067
Mof_H 	H 	0.454	0.915	0.4153	0.081
Mof_H 	H 	0.454	0.8617	0.4588	0.119
Mof_O 	O 	0.13145	0.76446	0.75031	-0.398
Mof_O 	O 	0.2136	0.687	0.68714	-0.431
Mof_C 	C 	0.1348	0.7369	0.79314	0.365
Mof_C 	C 	0.0642	0.7369	0.81815	-0.087
Mof_C 	C 	0.064	0.7305	0.86902	-0.03
Mof_H 	H 	0.1063	0.7275	0.886	0.046
Mof_C 	C 	0.0319	0.8622	0.947	-0.211
Mof_C 	C 	0.0292	0.5934	0.9477	-0.208
Mof_H 	H 	0.0488	0.8997	0.9673	0.071
Mof_H 	H 	0.0488	0.869	0.9145	0.087
Mof_H 	H 	0.0488	0.8178	0.9592	0.115
Mof_H 	H 	0.046	0.5568	0.9688	0.074
Mof_H 	H 	0.046	0.585	0.9153	0.087
Mof_H 	H 	0.046	0.6383	0.9588	0.121
Mof_O 	O 	0.63145	0.26446	0.25031	-0.398
Mof_O 	O 	0.7136	0.187	0.18714	-0.431
Mof_C 	C 	0.6348	0.2369	0.29314	0.364
Mof_C 	C 	0.5642	0.2369	0.31815	-0.086
Mof_C 	C 	0.564	0.2305	0.36902	-0.027
Mof_H 	H 	0.6063	0.2275	0.386	0.045
Mof_C 	C 	0.5319	0.3622	0.447	-0.196
Mof_C 	C 	0.5292	0.0934	0.4477	-0.198
Mof_H 	H 	0.5488	0.3997	0.4673	0.065
Mof_H 	H 	0.5488	0.369	0.4145	0.081
Mof_H 	H 	0.5488	0.3178	0.4592	0.112
Mof_H 	H 	0.546	0.0568	0.4688	0.071
Mof_H 	H 	0.546	0.085	0.4153	0.084
Mof_H 	H 	0.546	0.1383	0.4588	0.12
Mof_O 	O 	0.23554	0.13145	0.75031	-0.397
Mof_O 	O 	0.313	0.2136	0.68714	-0.43
Mof_C 	C 	0.2631	0.1348	0.79314	0.365
Mof_C 	C 	0.2631	0.0642	0.81815	-0.086
Mof_C 	C 	0.2695	0.064	0.86902	-0.03
Mof_H 	H 	0.2725	0.1063	0.886	0.046
Mof_C 	C 	0.1378	0.0319	0.947	-0.21
Mof_C 	C 	0.4066	0.0292	0.9477	-0.208
Mof_H 	H 	0.1003	0.0488	0.9673	0.07
Mof_H 	H 	0.131	0.0488	0.9145	0.087
Mof_H 	H 	0.1822	0.0488	0.9592	0.114
Mof_H 	H 	0.4432	0.046	0.9688	0.074
Mof_H 	H 	0.415	0.046	0.9153	0.087
Mof_H 	H 	0.3617	0.046	0.9588	0.121
Mof_O 	O 	0.73554	0.63145	0.25031	-0.399
Mof_O 	O 	0.813	0.7136	0.18714	-0.432
Mof_C 	C 	0.7631	0.6348	0.29314	0.364
Mof_C 	C 	0.7631	0.5642	0.31815	-0.087
Mof_C 	C 	0.7695	0.564	0.36902	-0.026
Mof_H 	H 	0.7725	0.6063	0.386	0.045
Mof_C 	C 	0.6378	0.5319	0.447	-0.196
Mof_C 	C 	0.9066	0.5292	0.4477	-0.195
Mof_H 	H 	0.6003	0.5488	0.4673	0.065
Mof_H 	H 	0.631	0.5488	0.4145	0.081
Mof_H 	H 	0.6822	0.5488	0.4592	0.112
Mof_H 	H 	0.9432	0.546	0.4688	0.067
Mof_H 	H 	0.915	0.546	0.4153	0.081
Mof_H 	H 	0.8617	0.546	0.4588	0.119
Mof_O 	O 	0.76446	0.86855	0.75031	-0.401
Mof_O 	O 	0.687	0.7864	0.68714	-0.432
Mof_C 	C 	0.7369	0.8652	0.79314	0.366
Mof_C 	C 	0.7369	0.9358	0.81815	-0.092
Mof_C 	C 	0.7305	0.936	0.86902	-0.035
Mof_H 	H 	0.7275	0.8937	0.886	0.048
Mof_C 	C 	0.8622	0.9681	0.947	-0.181
Mof_C 	C 	0.5934	0.9708	0.9477	-0.183
Mof_H 	H 	0.8997	0.9512	0.9673	0.06
Mof_H 	H 	0.869	0.9512	0.9145	0.075
Mof_H 	H 	0.8178	0.9512	0.9592	0.103
Mof_H 	H 	0.5568	0.954	0.9688	0.064
Mof_H 	H 	0.585	0.954	0.9153	0.076
Mof_H 	H 	0.6383	0.954	0.9588	0.111
Mof_O 	O 	0.26446	0.36855	0.25031	-0.398
Mof_O 	O 	0.187	0.2864	0.18714	-0.431
Mof_C 	C 	0.2369	0.3652	0.29314	0.364
Mof_C 	C 	0.2369	0.4358	0.31815	-0.086
Mof_C 	C 	0.2305	0.436	0.36902	-0.027
Mof_H 	H 	0.2275	0.3937	0.386	0.046
Mof_C 	C 	0.3622	0.4681	0.447	-0.196
Mof_C 	C 	0.0934	0.4708	0.4477	-0.197
Mof_H 	H 	0.3997	0.4512	0.4673	0.065
Mof_H 	H 	0.369	0.4512	0.4145	0.081
Mof_H 	H 	0.3178	0.4512	0.4592	0.112
Mof_H 	H 	0.0568	0.454	0.4688	0.071
Mof_H 	H 	0.085	0.454	0.4153	0.084
Mof_H 	H 	0.1383	0.454	0.4588	0.12
Mof_Cu	Cu	0.78116	0.78116	0.71259	0.906
Mof_Cu	Cu	0.28116	0.28116	0.21259	0.906
Mof_Cu	Cu	0.21884	0.21884	0.71259	0.907
Mof_Cu	Cu	0.71884	0.71884	0.21259	0.906
Mof_Cu	Cu	0.21884	0.78116	0.71259	0.906
Mof_Cu	Cu	0.71884	0.28116	0.21259	0.906
Mof_Cu	Cu	0.78116	0.21884	0.71259	0.906
Mof_Cu	Cu	0.28116	0.71884	0.21259	0.906
Mof_Cu	Cu	0.21884	0.78116	0.28741	0.906
Mof_Cu	Cu	0.71884	0.28116	0.78741	0.906
Mof_Cu	Cu	0.78116	0.21884	0.28741	0.906
Mof_Cu	Cu	0.28116	0.71884	0.78741	0.906
Mof_Cu	Cu	0.78116	0.78116	0.28741	0.906
Mof_Cu	Cu	0.28116	0.28116	0.78741	0.906
Mof_Cu	Cu	0.21884	0.21884	0.28741	0.907
Mof_Cu	Cu	0.71884	0.71884	0.78741	0.906
Mof_C 	C 	1.45353e-32	0.7415	0.7934	0.035
Mof_C 	C 	4.87477e-33	0.7288	0.8937	-0.004
Mof_H 	H 	4.14494e-33	0.7477	0.7599	0.048
Mof_C 	C 	-5.02525e-33	0.7292	0.9501	0.004
Mof_C 	C 	-4.89925e-33	0.7927	0.9732	-0.077
Mof_C 	C 	1.55133e-32	0.6659	0.9727	-0.093
Mof_C 	C 	0.5	0.2415	0.2934	0.026
Mof_C 	C 	0.5	0.2288	0.3937	-0.014
Mof_H 	H 	0.5	0.2477	0.2599	0.049
Mof_C 	C 	0.5	0.2292	0.4501	0.009
Mof_C 	C 	0.5	0.2927	0.4732	-0.084
Mof_C 	C 	0.5	0.1659	0.4727	-0.101
Mof_C 	C 	4.32767e-33	0.2585	0.7934	0.035
Mof_C 	C 	1.50824e-32	0.2712	0.8937	-0.003
Mof_H 	H 	1.43526e-32	0.2523	0.7599	0.049
Mof_C 	C 	2.55977e-32	0.2708	0.9501	0.004
Mof_C 	C 	5.30841e-33	0.2073	0.9732	-0.077
Mof_C 	C 	-4.90198e-33	0.3341	0.9727	-0.093
Mof_C 	C 	0.5	0.7585	0.2934	0.026
Mof_C 	C 	0.5	0.7712	0.3937	-0.014
Mof_H 	H 	0.5	0.7523	0.2599	0.049
Mof_C 	C 	0.5	0.7708	0.4501	0.009
Mof_C 	C 	0.5	0.7073	0.4732	-0.084
Mof_C 	C 	0.5	0.8341	0.4727	-0.101
Mof_C 	C 	0.2585	1.02077e-32	0.7934	0.035
Mof_C 	C 	0.2712	1.02077e-32	0.8937	-0.003
Mof_H 	H 	0.2523	1.02077e-32	0.7599	0.049
Mof_C 	C 	0.2708	1.02077e-32	0.9501	0.004
Mof_C 	C 	0.2073	0	0.9732	-0.077
Mof_C 	C 	0.3341	1.02077e-32	0.9727	-0.093
Mof_C 	C 	0.7585	0.5	0.2934	0.026
Mof_C 	C 	0.7712	0.5	0.3937	-0.014
Mof_H 	H 	0.7523	0.5	0.2599	0.049
Mof_C 	C 	0.7708	0.5	0.4501	0.009
Mof_C 	C 	0.7073	0.5	0.4732	-0.084
Mof_C 	C 	0.8341	0.5	0.4727	-0.101
Mof_C 	C 	0.7415	1.02077e-32	0.7934	0.035
Mof_C 	C 	0.7288	1.02077e-32	0.8937	-0.004
Mof_H 	H 	0.7477	1.02077e-32	0.7599	0.048
Mof_C 	C 	0.7292	1.02077e-32	0.9501	0.004
Mof_C 	C 	0.7927	0	0.9732	-0.077
Mof_C 	C 	0.6659	1.02077e-32	0.9727	-0.093
Mof_C 	C 	0.2415	0.5	0.2934	0.026
Mof_C 	C 	0.2288	0.5	0.3937	-0.014
Mof_H 	H 	0.2477	0.5	0.2599	0.049
Mof_C 	C 	0.2292	0.5	0.4501	0.009
Mof_C 	C 	0.2927	0.5	0.4732	-0.084
Mof_C 	C 	0.1659	0.5	0.4727	-0.101
Mof_C 	C 	8.78266e-33	0.7415	0.2066	0.035
Mof_C 	C 	-8.35188e-33	0.7288	0.1063	-0.004
Mof_H 	H 	-3.79418e-33	0.7477	0.2401	0.048
Mof_C 	C 	-1.64175e-33	0.7292	0.0499	0.004
Mof_C 	C 	-9.10451e-33	0.7927	0.0268	-0.077
Mof_C 	C 	5.25274e-33	0.6659	0.0273	-0.093
Mof_C 	C 	0.5	0.2415	0.7066	0.026
Mof_C 	C 	0.5	0.2288	0.6063	-0.014
Mof_H 	H 	0.5	0.2477	0.7401	0.049
Mof_C 	C 	0.5	0.2292	0.5499	0.009
Mof_C 	C 	0.5	0.2927	0.5268	-0.084
Mof_C 	C 	0.5	0.1659	0.5273	-0.101
Mof_C 	C 	3.67883e-33	0.2585	0.2066	0.035
Mof_C 	C 	4.4077e-33	0.2712	0.1063	-0.003
Mof_H 	H 	1.30965e-33	0.2523	0.2401	0.049
Mof_C 	C 	9.10163e-34	0.2708	0.0499	0.004
Mof_C 	C 	-1.44876e-33	0.2073	0.0268	-0.077
Mof_C 	C 	-2.403e-33	0.3341	0.0273	-0.093
Mof_C 	C 	0.5	0.7585	0.7066	0.026
Mof_C 	C 	0.5	0.7712	0.6063	-0.014
Mof_H 	H 	0.5	0.7523	0.7401	0.049
Mof_C 	C 	0.5	0.7708	0.5499	0.009
Mof_C 	C 	0.5	0.7073	0.5268	-0.084
Mof_C 	C 	0.5	0.8341	0.5273	-0.101
Mof_C 	C 	0.7415	2.55192e-33	0.2066	0.035
Mof_C 	C 	0.7288	0	0.1063	-0.004
Mof_H 	H 	0.7477	0	0.2401	0.048
Mof_C 	C 	0.7292	6.37979e-34	0.0499	0.004
Mof_C 	C 	0.7927	0	0.0268	-0.077
Mof_C 	C 	0.6659	3.18989e-34	0.0273	-0.093
Mof_C 	C 	0.2415	0.5	0.7066	0.026
Mof_C 	C 	0.2288	0.5	0.6063	-0.014
Mof_H 	H 	0.2477	0.5	0.7401	0.049
Mof_C 	C 	0.2292	0.5	0.5499	0.009
Mof_C 	C 	0.2927	0.5	0.5268	-0.084
Mof_C 	C 	0.1659	0.5	0.5273	-0.101
Mof_C 	C 	0.2585	2.55192e-33	0.2066	0.035
Mof_C 	C 	0.2712	0	0.1063	-0.003
Mof_H 	H 	0.2523	0	0.2401	0.049
Mof_C 	C 	0.2708	6.37979e-34	0.0499	0.004
Mof_C 	C 	0.2073	0	0.0268	-0.077
Mof_C 	C 	0.3341	3.18989e-34	0.0273	-0.093
Mof_C 	C 	0.7585	0.5	0.7066	0.026
Mof_C 	C 	0.7712	0.5	0.6063	-0.014
Mof_H 	H 	0.7523	0.5	0.7401	0.049
Mof_C 	C 	0.7708	0.5	0.5499	0.009
Mof_C 	C 	0.7073	0.5	0.5268	-0.084
Mof_C 	C 	0.8341	0.5	0.5273	-0.101
_end
