# CIF file generated by openbabel 3.1.0, see https://openbabel.org
data_I
_chemical_name_common 'image0'
_cell_length_a 18.656
_cell_length_b 18.656
_cell_length_c 9.378
_cell_angle_alpha 90
_cell_angle_beta 90
_cell_angle_gamma 90
_space_group_name_H-M_alt 'P 1'
_space_group_name_Hall 'P 1'
loop_
    _symmetry_equiv_pos_as_xyz
    x,y,z
loop_
    _atom_site_label
    _atom_site_type_symbol
    _atom_site_fract_x
    _atom_site_fract_y
    _atom_site_fract_z
    _atom_site_occupancy
    P1       P        0.06709    0.83381    0.09038    1.000
    O1       O        0.99760    0.84250    0.00380    1.000
    O2       O        0.05700    0.87060    0.23440    1.000
    O3       O        0.13070    0.86620    0.01000    1.000
    O4       O        0.08280    0.75540    0.11860    1.000
    Al1      Al       0.95449    0.83422    0.84140    1.000
    P2       P        0.83429    0.95085    0.83970    1.000
    O5       O        0.87250    0.87710    0.84380    1.000
    O6       O        0.84220    0.98570    0.98850    1.000
    O7       O        0.75480    0.93850    0.80300    1.000
    O8       O        0.86640    0.99930    0.72090    1.000
    Al2      Al       0.16654    0.93612    0.91440    1.000
    P3       P        0.05613    0.93438    0.66366    1.000
    O9       O        0.12510    0.94000    0.75170    1.000
    O10      O        0.01620    0.00570    0.67690    1.000
    O11      O        0.00980    0.87140    0.71150    1.000
    O12      O        0.07780    0.92180    0.50770    1.000
    Al3      Al       0.06386    0.94801    0.33450    1.000
    P4       P        0.43291    0.66619    0.09038    1.000
    O13      O        0.50240    0.65750    0.00380    1.000
    O14      O        0.44300    0.62940    0.23440    1.000
    O15      O        0.36930    0.63380    0.01000    1.000
    O16      O        0.41720    0.74460    0.11860    1.000
    Al4      Al       0.54551    0.66578    0.84140    1.000
    P5       P        0.66571    0.54915    0.83970    1.000
    O17      O        0.62750    0.62290    0.84380    1.000
    O18      O        0.65780    0.51430    0.98850    1.000
    O19      O        0.74520    0.56150    0.80300    1.000
    O20      O        0.63360    0.50070    0.72090    1.000
    Al5      Al       0.33346    0.56388    0.91440    1.000
    P6       P        0.44387    0.56562    0.66366    1.000
    O21      O        0.37490    0.56000    0.75170    1.000
    O22      O        0.48380    0.49430    0.67690    1.000
    O23      O        0.49020    0.62860    0.71150    1.000
    O24      O        0.42220    0.57820    0.50770    1.000
    Al6      Al       0.43614    0.55199    0.33450    1.000
    P7       P        0.66619    0.06709    0.09038    1.000
    O25      O        0.65750    0.99760    0.00380    1.000
    O26      O        0.62940    0.05700    0.23440    1.000
    O27      O        0.63380    0.13070    0.01000    1.000
    O28      O        0.74460    0.08280    0.11860    1.000
    Al7      Al       0.66578    0.95449    0.84140    1.000
    P8       P        0.54915    0.83429    0.83970    1.000
    O29      O        0.62290    0.87250    0.84380    1.000
    O30      O        0.51430    0.84220    0.98850    1.000
    O31      O        0.56150    0.75480    0.80300    1.000
    O32      O        0.50070    0.86640    0.72090    1.000
    Al8      Al       0.56388    0.16654    0.91440    1.000
    P9       P        0.56562    0.05613    0.66366    1.000
    O33      O        0.56000    0.12510    0.75170    1.000
    O34      O        0.49430    0.01620    0.67690    1.000
    O35      O        0.62860    0.00980    0.71150    1.000
    O36      O        0.57820    0.07780    0.50770    1.000
    Al9      Al       0.55199    0.06386    0.33450    1.000
    P10      P        0.83381    0.43291    0.09038    1.000
    O37      O        0.84250    0.50240    0.00380    1.000
    O38      O        0.87060    0.44300    0.23440    1.000
    O39      O        0.86620    0.36930    0.01000    1.000
    O40      O        0.75540    0.41720    0.11860    1.000
    Al10     Al       0.83422    0.54551    0.84140    1.000
    P11      P        0.95085    0.66571    0.83970    1.000
    O41      O        0.87710    0.62750    0.84380    1.000
    O42      O        0.98570    0.65780    0.98850    1.000
    O43      O        0.93850    0.74520    0.80300    1.000
    O44      O        0.99930    0.63360    0.72090    1.000
    Al11     Al       0.93612    0.33346    0.91440    1.000
    P12      P        0.93438    0.44387    0.66366    1.000
    O45      O        0.94000    0.37490    0.75170    1.000
    O46      O        0.00570    0.48380    0.67690    1.000
    O47      O        0.87140    0.49020    0.71150    1.000
    O48      O        0.92180    0.42220    0.50770    1.000
    Al12     Al       0.94801    0.43614    0.33450    1.000
    P13      P        0.93291    0.16619    0.90962    1.000
    O49      O        0.00240    0.15750    0.99620    1.000
    O50      O        0.94300    0.12940    0.76560    1.000
    O51      O        0.86930    0.13380    0.99000    1.000
    O52      O        0.91720    0.24460    0.88140    1.000
    Al13     Al       0.04551    0.16578    0.15860    1.000
    P14      P        0.16571    0.04915    0.16030    1.000
    O53      O        0.12750    0.12290    0.15620    1.000
    O54      O        0.15780    0.01430    0.01150    1.000
    O55      O        0.24520    0.06150    0.19700    1.000
    O56      O        0.13360    0.00070    0.27910    1.000
    Al14     Al       0.83346    0.06388    0.08560    1.000
    P15      P        0.94387    0.06562    0.33634    1.000
    O57      O        0.87490    0.06000    0.24830    1.000
    O58      O        0.98380    0.99430    0.32310    1.000
    O59      O        0.99020    0.12860    0.28850    1.000
    O60      O        0.92220    0.07820    0.49230    1.000
    Al15     Al       0.93614    0.05199    0.66550    1.000
    P16      P        0.56709    0.33381    0.90962    1.000
    O61      O        0.49760    0.34250    0.99620    1.000
    O62      O        0.55700    0.37060    0.76560    1.000
    O63      O        0.63070    0.36620    0.99000    1.000
    O64      O        0.58280    0.25540    0.88140    1.000
    Al16     Al       0.45449    0.33422    0.15860    1.000
    P17      P        0.33429    0.45085    0.16030    1.000
    O65      O        0.37250    0.37710    0.15620    1.000
    O66      O        0.34220    0.48570    0.01150    1.000
    O67      O        0.25480    0.43850    0.19700    1.000
    O68      O        0.36640    0.49930    0.27910    1.000
    Al17     Al       0.66654    0.43612    0.08560    1.000
    P18      P        0.55613    0.43438    0.33634    1.000
    O69      O        0.62510    0.44000    0.24830    1.000
    O70      O        0.51620    0.50570    0.32310    1.000
    O71      O        0.50980    0.37140    0.28850    1.000
    O72      O        0.57780    0.42180    0.49230    1.000
    Al18     Al       0.56386    0.44801    0.66550    1.000
    P19      P        0.33381    0.93291    0.90962    1.000
    O73      O        0.34250    0.00240    0.99620    1.000
    O74      O        0.37060    0.94300    0.76560    1.000
    O75      O        0.36620    0.86930    0.99000    1.000
    O76      O        0.25540    0.91720    0.88140    1.000
    Al19     Al       0.33422    0.04551    0.15860    1.000
    P20      P        0.45085    0.16571    0.16030    1.000
    O77      O        0.37710    0.12750    0.15620    1.000
    O78      O        0.48570    0.15780    0.01150    1.000
    O79      O        0.43850    0.24520    0.19700    1.000
    O80      O        0.49930    0.13360    0.27910    1.000
    Al20     Al       0.43612    0.83346    0.08560    1.000
    P21      P        0.43438    0.94387    0.33634    1.000
    O81      O        0.44000    0.87490    0.24830    1.000
    O82      O        0.50570    0.98380    0.32310    1.000
    O83      O        0.37140    0.99020    0.28850    1.000
    O84      O        0.42180    0.92220    0.49230    1.000
    Al21     Al       0.44801    0.93614    0.66550    1.000
    P22      P        0.16619    0.56709    0.90962    1.000
    O85      O        0.15750    0.49760    0.99620    1.000
    O86      O        0.12940    0.55700    0.76560    1.000
    O87      O        0.13380    0.63070    0.99000    1.000
    O88      O        0.24460    0.58280    0.88140    1.000
    Al22     Al       0.16578    0.45449    0.15860    1.000
    P23      P        0.04915    0.33429    0.16030    1.000
    O89      O        0.12290    0.37250    0.15620    1.000
    O90      O        0.01430    0.34220    0.01150    1.000
    O91      O        0.06150    0.25480    0.19700    1.000
    O92      O        0.00070    0.36640    0.27910    1.000
    Al23     Al       0.06388    0.66654    0.08560    1.000
    P24      P        0.06562    0.55613    0.33634    1.000
    O93      O        0.06000    0.62510    0.24830    1.000
    O94      O        0.99430    0.51620    0.32310    1.000
    O95      O        0.12860    0.50980    0.28850    1.000
    O96      O        0.07820    0.57780    0.49230    1.000
    Al24     Al       0.05199    0.56386    0.66550    1.000
