# CIF file generated by openbabel 3.1.0, see https://openbabel.org
data_I
_chemical_name_common 'RESWUI01_clean'
_cell_length_a 8.5139
_cell_length_b 10.2165
_cell_length_c 11.0721
_cell_angle_alpha 64.208
_cell_angle_beta 71.563
_cell_angle_gamma 80.752
_space_group_name_H-M_alt 'P 1'
_space_group_name_Hall 'P 1'
loop_
    _symmetry_equiv_pos_as_xyz
    x,y,z
loop_
    _atom_site_label
    _atom_site_type_symbol
    _atom_site_fract_x
    _atom_site_fract_y
    _atom_site_fract_z
    _atom_site_occupancy
    Er1      Er       0.86651    0.06379    0.83768    1.000
    Er2      Er       0.13349    0.93621    0.16231    1.000
    H1       H        0.99400    0.47350    0.22150    1.000
    H2       H        0.05160    0.72640    0.81040    1.000
    H3       H        0.46170    0.14960    0.61740    1.000
    H4       H        0.27410    0.88430    0.51490    1.000
    H5       H        0.77910    0.45200    0.41520    1.000
    H6       H        0.36070    0.36580    0.73350    1.000
    H7       H        0.00600    0.52650    0.77850    1.000
    H8       H        0.94840    0.27360    0.18960    1.000
    H9       H        0.53830    0.85040    0.38260    1.000
    H10      H        0.72590    0.11570    0.48510    1.000
    H11      H        0.22090    0.54800    0.58480    1.000
    H12      H        0.63930    0.63420    0.26650    1.000
    C1       C        0.05600    0.74640    0.04280    1.000
    C2       C        0.02760    0.61920    0.01950    1.000
    C3       C        0.99650    0.48430    0.13120    1.000
    C4       C        0.03070    0.63440    0.88750    1.000
    C5       C        0.17360    0.04650    0.66140    1.000
    C6       C        0.34270    0.02110    0.57780    1.000
    C7       C        0.47760    0.08890    0.56930    1.000
    C8       C        0.36560    0.93140    0.50870    1.000
    C9       C        0.67730    0.27250    0.67870    1.000
    C10      C        0.58450    0.39190    0.58730    1.000
    C11      C        0.66480    0.47150    0.45010    1.000
    C12      C        0.41780    0.42010    0.63870    1.000
    C13      C        0.94400    0.25360    0.95720    1.000
    C14      C        0.97240    0.38080    0.98050    1.000
    C15      C        0.00350    0.51570    0.86880    1.000
    C16      C        0.96930    0.36560    0.11250    1.000
    C17      C        0.82640    0.95350    0.33860    1.000
    C18      C        0.65730    0.97890    0.42220    1.000
    C19      C        0.52240    0.91110    0.43070    1.000
    C20      C        0.63440    0.06860    0.49130    1.000
    C21      C        0.32270    0.72750    0.32130    1.000
    C22      C        0.41550    0.60810    0.41270    1.000
    C23      C        0.33520    0.52850    0.54990    1.000
    C24      C        0.58220    0.57990    0.36130    1.000
    O1       O        0.01590    0.87280    0.96700    1.000
    O2       O        0.12180    0.72350    0.13650    1.000
    O3       O        0.05150    0.98920    0.66340    1.000
    O4       O        0.15500    0.12240    0.73020    1.000
    O5       O        0.82660    0.24620    0.62680    1.000
    O6       O        0.60500    0.19650    0.80590    1.000
    O7       O        0.98410    0.12720    0.03300    1.000
    O8       O        0.87820    0.27650    0.86350    1.000
    O9       O        0.94850    0.01080    0.33660    1.000
    O10      O        0.84500    0.87760    0.26980    1.000
    O11      O        0.17340    0.75380    0.37320    1.000
    O12      O        0.39500    0.80350    0.19410    1.000
