data_functionalizedCrystal
_audit_creation_method	'EQeq! by Chris Wilmer'
_symmetry_space_group_name_H-M	'P1'
_symmetry_Int_Tables_number	1
_symmetry_cell_setting	triclinic
loop_
_symmetry_equiv_pos_as_xyz
  x,y,z
_cell_length_a	28.9234
_cell_length_b	28.9234
_cell_length_c	28.9234
_cell_angle_alpha	90
_cell_angle_beta	90
_cell_angle_gamma	90
loop_
_atom_site_label
_atom_site_type_symbol
_atom_site_fract_x
_atom_site_fract_y
_atom_site_fract_z
_atom_site_charge
Mof_O 	O 	0.37467	0.49295	0.04999	-0.59
Mof_O 	O 	0.37505	0.55534	0.00514	-0.655
Mof_C 	C 	0.3761	0.53736	0.04569	0.744
Mof_O 	O 	0.3779	0.56138	0.08219	-1.084
Mof_O 	O 	0.37467	0.99295	0.54999	-0.509
Mof_O 	O 	0.37505	0.05534	0.50514	-0.618
Mof_C 	C 	0.3761	0.03736	0.54569	0.666
Mof_O 	O 	0.3779	0.06138	0.58219	-1.072
Mof_O 	O 	0.87467	0.49295	0.54999	-0.572
Mof_O 	O 	0.87505	0.55534	0.50514	-0.619
Mof_C 	C 	0.8761	0.53736	0.54569	0.746
Mof_O 	O 	0.8779	0.56138	0.58219	-1.084
Mof_O 	O 	0.87467	0.99295	0.04999	-0.52
Mof_O 	O 	0.87505	0.05534	0.00514	-0.648
Mof_C 	C 	0.8761	0.03736	0.04569	0.671
Mof_O 	O 	0.8779	0.06138	0.08219	-1.075
Mof_O 	O 	0.87533	0.25705	0.54999	-0.571
Mof_O 	O 	0.87495	0.19466	0.50514	-0.617
Mof_C 	C 	0.8739	0.21264	0.54569	0.744
Mof_O 	O 	0.8721	0.18862	0.58219	-1.08
Mof_O 	O 	0.87533	0.75705	0.04999	-0.585
Mof_O 	O 	0.87495	0.69466	0.00514	-0.651
Mof_C 	C 	0.8739	0.71264	0.04569	0.747
Mof_O 	O 	0.8721	0.68862	0.08219	-1.087
Mof_O 	O 	0.37533	0.25705	0.04999	-0.589
Mof_O 	O 	0.37495	0.19466	0.00514	-0.653
Mof_C 	C 	0.3739	0.21264	0.04569	0.742
Mof_O 	O 	0.3721	0.18862	0.08219	-1.079
Mof_O 	O 	0.37533	0.75705	0.54999	-0.576
Mof_O 	O 	0.37495	0.69466	0.50514	-0.621
Mof_C 	C 	0.3739	0.71264	0.54569	0.744
Mof_O 	O 	0.3721	0.68862	0.58219	-1.083
Mof_O 	O 	0.37533	0.99295	0.20001	-0.508
Mof_O 	O 	0.37495	0.05534	0.24486	-0.617
Mof_C 	C 	0.3739	0.03736	0.20431	0.664
Mof_O 	O 	0.3721	0.06138	0.16781	-1.067
Mof_O 	O 	0.37533	0.49295	0.70001	-0.575
Mof_O 	O 	0.37495	0.55534	0.74486	-0.621
Mof_C 	C 	0.3739	0.53736	0.70431	0.743
Mof_O 	O 	0.3721	0.56138	0.66781	-1.083
Mof_O 	O 	0.87533	0.99295	0.70001	-0.504
Mof_O 	O 	0.87495	0.05534	0.74486	-0.614
Mof_C 	C 	0.8739	0.03736	0.70431	0.669
Mof_O 	O 	0.8721	0.06138	0.66781	-1.074
Mof_O 	O 	0.87533	0.49295	0.20001	-0.57
Mof_O 	O 	0.87495	0.55534	0.24486	-0.618
Mof_C 	C 	0.8739	0.53736	0.20431	0.744
Mof_O 	O 	0.8721	0.56138	0.16781	-1.08
Mof_O 	O 	0.87467	0.75705	0.70001	-0.57
Mof_O 	O 	0.87505	0.69466	0.74486	-0.618
Mof_C 	C 	0.8761	0.71264	0.70431	0.746
Mof_O 	O 	0.8779	0.68862	0.66781	-1.083
Mof_O 	O 	0.87467	0.25705	0.20001	-0.568
Mof_O 	O 	0.87505	0.19466	0.24486	-0.616
Mof_C 	C 	0.8761	0.21264	0.20431	0.742
Mof_O 	O 	0.8779	0.18862	0.16781	-1.074
Mof_O 	O 	0.37467	0.75705	0.20001	-0.573
Mof_O 	O 	0.37505	0.69466	0.24486	-0.619
Mof_C 	C 	0.3761	0.71264	0.20431	0.742
Mof_O 	O 	0.3779	0.68862	0.16781	-1.077
Mof_O 	O 	0.37467	0.25705	0.70001	-0.573
Mof_O 	O 	0.37505	0.19466	0.74486	-0.619
Mof_C 	C 	0.3761	0.21264	0.70431	0.742
Mof_O 	O 	0.3779	0.18862	0.66781	-1.077
Mof_O 	O 	0.04999	0.37467	0.49295	-0.589
Mof_O 	O 	0.00514	0.37505	0.55534	-0.654
Mof_C 	C 	0.04569	0.3761	0.53736	0.745
Mof_O 	O 	0.08219	0.3779	0.56138	-1.083
Mof_O 	O 	0.04999	0.87467	0.99295	-0.519
Mof_O 	O 	0.00514	0.87505	0.05534	-0.647
Mof_C 	C 	0.04569	0.8761	0.03736	0.672
Mof_O 	O 	0.08219	0.8779	0.06138	-1.074
Mof_O 	O 	0.54999	0.37467	0.99295	-0.508
Mof_O 	O 	0.50514	0.37505	0.05534	-0.617
Mof_C 	C 	0.54569	0.3761	0.03736	0.667
Mof_O 	O 	0.58219	0.3779	0.06138	-1.071
Mof_O 	O 	0.54999	0.87467	0.49295	-0.571
Mof_O 	O 	0.50514	0.87505	0.55534	-0.618
Mof_C 	C 	0.54569	0.8761	0.53736	0.747
Mof_O 	O 	0.58219	0.8779	0.56138	-1.083
Mof_O 	O 	0.54999	0.87533	0.25705	-0.57
Mof_O 	O 	0.50514	0.87495	0.19466	-0.616
Mof_C 	C 	0.54569	0.8739	0.21264	0.745
Mof_O 	O 	0.58219	0.8721	0.18862	-1.079
Mof_O 	O 	0.54999	0.37533	0.75705	-0.575
Mof_O 	O 	0.50514	0.37495	0.69466	-0.62
Mof_C 	C 	0.54569	0.3739	0.71264	0.745
Mof_O 	O 	0.58219	0.3721	0.68862	-1.082
Mof_O 	O 	0.04999	0.87533	0.75705	-0.584
Mof_O 	O 	0.00514	0.87495	0.69466	-0.65
Mof_C 	C 	0.04569	0.8739	0.71264	0.748
Mof_O 	O 	0.08219	0.8721	0.68862	-1.086
Mof_O 	O 	0.04999	0.37533	0.25705	-0.588
Mof_O 	O 	0.00514	0.37495	0.19466	-0.652
Mof_C 	C 	0.04569	0.3739	0.21264	0.743
Mof_O 	O 	0.08219	0.3721	0.18862	-1.078
Mof_O 	O 	0.20001	0.37533	0.99295	-0.507
Mof_O 	O 	0.24486	0.37495	0.05534	-0.616
Mof_C 	C 	0.20431	0.3739	0.03736	0.665
Mof_O 	O 	0.16781	0.3721	0.06138	-1.066
Mof_O 	O 	0.20001	0.87533	0.49295	-0.569
Mof_O 	O 	0.24486	0.87495	0.55534	-0.617
Mof_C 	C 	0.20431	0.8739	0.53736	0.745
Mof_O 	O 	0.16781	0.8721	0.56138	-1.079
Mof_O 	O 	0.70001	0.37533	0.49295	-0.574
Mof_O 	O 	0.74486	0.37495	0.55534	-0.62
Mof_C 	C 	0.70431	0.3739	0.53736	0.744
Mof_O 	O 	0.66781	0.3721	0.56138	-1.082
Mof_O 	O 	0.70001	0.87533	0.99295	-0.503
Mof_O 	O 	0.74486	0.87495	0.05534	-0.613
Mof_C 	C 	0.70431	0.8739	0.03736	0.67
Mof_O 	O 	0.66781	0.8721	0.06138	-1.073
Mof_O 	O 	0.70001	0.87467	0.75705	-0.569
Mof_O 	O 	0.74486	0.87505	0.69466	-0.617
Mof_C 	C 	0.70431	0.8761	0.71264	0.747
Mof_O 	O 	0.66781	0.8779	0.68862	-1.083
Mof_O 	O 	0.70001	0.37467	0.25705	-0.573
Mof_O 	O 	0.74486	0.37505	0.19466	-0.619
Mof_C 	C 	0.70431	0.3761	0.21264	0.742
Mof_O 	O 	0.66781	0.3779	0.18862	-1.077
Mof_O 	O 	0.20001	0.87467	0.25705	-0.568
Mof_O 	O 	0.24486	0.87505	0.19466	-0.616
Mof_C 	C 	0.20431	0.8761	0.21264	0.742
Mof_O 	O 	0.16781	0.8779	0.18862	-1.074
Mof_O 	O 	0.20001	0.37467	0.75705	-0.573
Mof_O 	O 	0.24486	0.37505	0.69466	-0.619
Mof_C 	C 	0.20431	0.3761	0.71264	0.742
Mof_O 	O 	0.16781	0.3779	0.68862	-1.077
Mof_O 	O 	0.49295	0.04999	0.37467	-0.589
Mof_O 	O 	0.55534	0.00514	0.37505	-0.654
Mof_C 	C 	0.53736	0.04569	0.3761	0.745
Mof_O 	O 	0.56138	0.08219	0.3779	-1.083
Mof_O 	O 	0.49295	0.54999	0.87467	-0.571
Mof_O 	O 	0.55534	0.50514	0.87505	-0.618
Mof_C 	C 	0.53736	0.54569	0.8761	0.747
Mof_O 	O 	0.56138	0.58219	0.8779	-1.083
Mof_O 	O 	0.99295	0.04999	0.87467	-0.519
Mof_O 	O 	0.05534	0.00514	0.87505	-0.647
Mof_C 	C 	0.03736	0.04569	0.8761	0.672
Mof_O 	O 	0.06138	0.08219	0.8779	-1.074
Mof_O 	O 	0.99295	0.54999	0.37467	-0.508
Mof_O 	O 	0.05534	0.50514	0.37505	-0.617
Mof_C 	C 	0.03736	0.54569	0.3761	0.667
Mof_O 	O 	0.06138	0.58219	0.3779	-1.071
Mof_O 	O 	0.25705	0.54999	0.87533	-0.57
Mof_O 	O 	0.19466	0.50514	0.87495	-0.616
Mof_C 	C 	0.21264	0.54569	0.8739	0.745
Mof_O 	O 	0.18862	0.58219	0.8721	-1.079
Mof_O 	O 	0.25705	0.04999	0.37533	-0.588
Mof_O 	O 	0.19466	0.00514	0.37495	-0.652
Mof_C 	C 	0.21264	0.04569	0.3739	0.743
Mof_O 	O 	0.18862	0.08219	0.3721	-1.078
Mof_O 	O 	0.75705	0.54999	0.37533	-0.575
Mof_O 	O 	0.69466	0.50514	0.37495	-0.62
Mof_C 	C 	0.71264	0.54569	0.3739	0.745
Mof_O 	O 	0.68862	0.58219	0.3721	-1.082
Mof_O 	O 	0.75705	0.04999	0.87533	-0.584
Mof_O 	O 	0.69466	0.00514	0.87495	-0.65
Mof_C 	C 	0.71264	0.04569	0.8739	0.748
Mof_O 	O 	0.68862	0.08219	0.8721	-1.086
Mof_O 	O 	0.99295	0.20001	0.37533	-0.507
Mof_O 	O 	0.05534	0.24486	0.37495	-0.616
Mof_C 	C 	0.03736	0.20431	0.3739	0.665
Mof_O 	O 	0.06138	0.16781	0.3721	-1.066
Mof_O 	O 	0.99295	0.70001	0.87533	-0.503
Mof_O 	O 	0.05534	0.74486	0.87495	-0.613
Mof_C 	C 	0.03736	0.70431	0.8739	0.67
Mof_O 	O 	0.06138	0.66781	0.8721	-1.073
Mof_O 	O 	0.49295	0.20001	0.87533	-0.569
Mof_O 	O 	0.55534	0.24486	0.87495	-0.617
Mof_C 	C 	0.53736	0.20431	0.8739	0.745
Mof_O 	O 	0.56138	0.16781	0.8721	-1.079
Mof_O 	O 	0.49295	0.70001	0.37533	-0.574
Mof_O 	O 	0.55534	0.74486	0.37495	-0.62
Mof_C 	C 	0.53736	0.70431	0.3739	0.744
Mof_O 	O 	0.56138	0.66781	0.3721	-1.082
Mof_O 	O 	0.75705	0.70001	0.87467	-0.569
Mof_O 	O 	0.69466	0.74486	0.87505	-0.617
Mof_C 	C 	0.71264	0.70431	0.8761	0.747
Mof_O 	O 	0.68862	0.66781	0.8779	-1.083
Mof_O 	O 	0.75705	0.20001	0.37467	-0.573
Mof_O 	O 	0.69466	0.24486	0.37505	-0.619
Mof_C 	C 	0.71264	0.20431	0.3761	0.742
Mof_O 	O 	0.68862	0.16781	0.3779	-1.077
Mof_O 	O 	0.25705	0.70001	0.37467	-0.573
Mof_O 	O 	0.19466	0.74486	0.37505	-0.619
Mof_C 	C 	0.21264	0.70431	0.3761	0.742
Mof_O 	O 	0.18862	0.66781	0.3779	-1.077
Mof_O 	O 	0.25705	0.20001	0.87467	-0.568
Mof_O 	O 	0.19466	0.24486	0.87505	-0.616
Mof_C 	C 	0.21264	0.20431	0.8761	0.742
Mof_O 	O 	0.18862	0.16781	0.8779	-1.074
Mof_O 	O 	0.24295	0.62467	0.95001	-0.562
Mof_O 	O 	0.30534	0.62505	0.99486	-0.587
Mof_C 	C 	0.28736	0.6261	0.95431	0.744
Mof_O 	O 	0.31138	0.6279	0.91781	-1.081
Mof_O 	O 	0.24295	0.12467	0.45001	-0.58
Mof_O 	O 	0.30534	0.12505	0.49486	-0.625
Mof_C 	C 	0.28736	0.1261	0.45431	0.742
Mof_O 	O 	0.31138	0.1279	0.41781	-1.08
Mof_O 	O 	0.74295	0.62467	0.45001	-0.576
Mof_O 	O 	0.80534	0.62505	0.49486	-0.622
Mof_C 	C 	0.78736	0.6261	0.45431	0.748
Mof_O 	O 	0.81138	0.6279	0.41781	-1.088
Mof_O 	O 	0.74295	0.12467	0.95001	-0.567
Mof_O 	O 	0.80534	0.12505	0.99486	-0.591
Mof_C 	C 	0.78736	0.1261	0.95431	0.744
Mof_O 	O 	0.81138	0.1279	0.91781	-1.084
Mof_O 	O 	0.00705	0.12533	0.45001	-0.645
Mof_O 	O 	0.94466	0.12495	0.49486	-0.628
Mof_C 	C 	0.96264	0.1239	0.45431	0.819
Mof_O 	O 	0.93862	0.1221	0.41781	-1.091
Mof_O 	O 	0.00705	0.62533	0.95001	-0.627
Mof_O 	O 	0.94466	0.62495	0.99486	-0.591
Mof_C 	C 	0.96264	0.6239	0.95431	0.821
Mof_O 	O 	0.93862	0.6221	0.91781	-1.09
Mof_O 	O 	0.50705	0.12533	0.95001	-0.566
Mof_O 	O 	0.44466	0.12495	0.99486	-0.589
Mof_C 	C 	0.46264	0.1239	0.95431	0.741
Mof_O 	O 	0.43862	0.1221	0.91781	-1.079
Mof_O 	O 	0.50705	0.62533	0.45001	-0.575
Mof_O 	O 	0.44466	0.62495	0.49486	-0.621
Mof_C 	C 	0.46264	0.6239	0.45431	0.745
Mof_O 	O 	0.43862	0.6221	0.41781	-1.082
Mof_O 	O 	0.74295	0.62533	0.79999	-0.577
Mof_O 	O 	0.80534	0.62495	0.75514	-0.623
Mof_C 	C 	0.78736	0.6239	0.79569	0.75
Mof_O 	O 	0.81138	0.6221	0.83219	-1.092
Mof_O 	O 	0.74295	0.12533	0.29999	-0.581
Mof_O 	O 	0.80534	0.12495	0.25514	-0.626
Mof_C 	C 	0.78736	0.1239	0.29569	0.745
Mof_O 	O 	0.81138	0.1221	0.33219	-1.086
Mof_O 	O 	0.24295	0.62533	0.29999	-0.577
Mof_O 	O 	0.30534	0.62495	0.25514	-0.622
Mof_C 	C 	0.28736	0.6239	0.29569	0.745
Mof_O 	O 	0.31138	0.6221	0.33219	-1.082
Mof_O 	O 	0.24295	0.12533	0.79999	-0.582
Mof_O 	O 	0.30534	0.12495	0.75514	-0.625
Mof_C 	C 	0.28736	0.1239	0.79569	0.745
Mof_O 	O 	0.31138	0.1221	0.83219	-1.086
Mof_O 	O 	0.50705	0.12467	0.29999	-0.581
Mof_O 	O 	0.44466	0.12505	0.25514	-0.625
Mof_C 	C 	0.46264	0.1261	0.29569	0.742
Mof_O 	O 	0.43862	0.1279	0.33219	-1.08
Mof_O 	O 	0.50705	0.62467	0.79999	-0.577
Mof_O 	O 	0.44466	0.62505	0.75514	-0.622
Mof_C 	C 	0.46264	0.6261	0.79569	0.747
Mof_O 	O 	0.43862	0.6279	0.83219	-1.087
Mof_O 	O 	0.00705	0.12467	0.79999	-0.647
Mof_O 	O 	0.94466	0.12505	0.75514	-0.629
Mof_C 	C 	0.96264	0.1261	0.79569	0.821
Mof_O 	O 	0.93862	0.1279	0.83219	-1.095
Mof_O 	O 	0.00705	0.62467	0.29999	-0.642
Mof_O 	O 	0.94466	0.62505	0.25514	-0.626
Mof_C 	C 	0.96264	0.6261	0.29569	0.823
Mof_O 	O 	0.93862	0.6279	0.33219	-1.092
Mof_O 	O 	0.12467	0.29999	0.50705	-0.581
Mof_O 	O 	0.12505	0.25514	0.44466	-0.625
Mof_C 	C 	0.1261	0.29569	0.46264	0.742
Mof_O 	O 	0.1279	0.33219	0.43862	-1.08
Mof_O 	O 	0.12467	0.79999	0.00705	-0.647
Mof_O 	O 	0.12505	0.75514	0.94466	-0.629
Mof_C 	C 	0.1261	0.79569	0.96264	0.821
Mof_O 	O 	0.1279	0.83219	0.93862	-1.095
Mof_O 	O 	0.62467	0.29999	0.00705	-0.642
Mof_O 	O 	0.62505	0.25514	0.94466	-0.626
Mof_C 	C 	0.6261	0.29569	0.96264	0.823
Mof_O 	O 	0.6279	0.33219	0.93862	-1.092
Mof_O 	O 	0.62467	0.79999	0.50705	-0.577
Mof_O 	O 	0.62505	0.75514	0.44466	-0.622
Mof_C 	C 	0.6261	0.79569	0.46264	0.747
Mof_O 	O 	0.6279	0.83219	0.43862	-1.087
Mof_O 	O 	0.62533	0.79999	0.74295	-0.577
Mof_O 	O 	0.62495	0.75514	0.80534	-0.623
Mof_C 	C 	0.6239	0.79569	0.78736	0.75
Mof_O 	O 	0.6221	0.83219	0.81138	-1.092
Mof_O 	O 	0.62533	0.29999	0.24295	-0.577
Mof_O 	O 	0.62495	0.25514	0.30534	-0.622
Mof_C 	C 	0.6239	0.29569	0.28736	0.745
Mof_O 	O 	0.6221	0.33219	0.31138	-1.082
Mof_O 	O 	0.12533	0.79999	0.24295	-0.582
Mof_O 	O 	0.12495	0.75514	0.30534	-0.625
Mof_C 	C 	0.1239	0.79569	0.28736	0.745
Mof_O 	O 	0.1221	0.83219	0.31138	-1.086
Mof_O 	O 	0.12533	0.29999	0.74295	-0.581
Mof_O 	O 	0.12495	0.25514	0.80534	-0.626
Mof_C 	C 	0.1239	0.29569	0.78736	0.745
Mof_O 	O 	0.1221	0.33219	0.81138	-1.086
Mof_O 	O 	0.12533	0.45001	0.00705	-0.645
Mof_O 	O 	0.12495	0.49486	0.94466	-0.628
Mof_C 	C 	0.1239	0.45431	0.96264	0.819
Mof_O 	O 	0.1221	0.41781	0.93862	-1.091
Mof_O 	O 	0.12533	0.95001	0.50705	-0.566
Mof_O 	O 	0.12495	0.99486	0.44466	-0.589
Mof_C 	C 	0.1239	0.95431	0.46264	0.741
Mof_O 	O 	0.1221	0.91781	0.43862	-1.079
Mof_O 	O 	0.62533	0.45001	0.50705	-0.575
Mof_O 	O 	0.62495	0.49486	0.44466	-0.621
Mof_C 	C 	0.6239	0.45431	0.46264	0.745
Mof_O 	O 	0.6221	0.41781	0.43862	-1.082
Mof_O 	O 	0.62533	0.95001	0.00705	-0.627
Mof_O 	O 	0.62495	0.99486	0.94466	-0.591
Mof_C 	C 	0.6239	0.95431	0.96264	0.821
Mof_O 	O 	0.6221	0.91781	0.93862	-1.09
Mof_O 	O 	0.62467	0.95001	0.24295	-0.562
Mof_O 	O 	0.62505	0.99486	0.30534	-0.587
Mof_C 	C 	0.6261	0.95431	0.28736	0.744
Mof_O 	O 	0.6279	0.91781	0.31138	-1.081
Mof_O 	O 	0.62467	0.45001	0.74295	-0.576
Mof_O 	O 	0.62505	0.49486	0.80534	-0.622
Mof_C 	C 	0.6261	0.45431	0.78736	0.748
Mof_O 	O 	0.6279	0.41781	0.81138	-1.088
Mof_O 	O 	0.12467	0.95001	0.74295	-0.567
Mof_O 	O 	0.12505	0.99486	0.80534	-0.591
Mof_C 	C 	0.1261	0.95431	0.78736	0.744
Mof_O 	O 	0.1279	0.91781	0.81138	-1.084
Mof_O 	O 	0.12467	0.45001	0.24295	-0.58
Mof_O 	O 	0.12505	0.49486	0.30534	-0.625
Mof_C 	C 	0.1261	0.45431	0.28736	0.742
Mof_O 	O 	0.1279	0.41781	0.31138	-1.08
Mof_O 	O 	0.79999	0.74295	0.62533	-0.577
Mof_O 	O 	0.75514	0.80534	0.62495	-0.623
Mof_C 	C 	0.79569	0.78736	0.6239	0.75
Mof_O 	O 	0.83219	0.81138	0.6221	-1.092
Mof_O 	O 	0.79999	0.24295	0.12533	-0.582
Mof_O 	O 	0.75514	0.30534	0.12495	-0.625
Mof_C 	C 	0.79569	0.28736	0.1239	0.745
Mof_O 	O 	0.83219	0.31138	0.1221	-1.086
Mof_O 	O 	0.29999	0.74295	0.12533	-0.581
Mof_O 	O 	0.25514	0.80534	0.12495	-0.626
Mof_C 	C 	0.29569	0.78736	0.1239	0.745
Mof_O 	O 	0.33219	0.81138	0.1221	-1.086
Mof_O 	O 	0.29999	0.24295	0.62533	-0.577
Mof_O 	O 	0.25514	0.30534	0.62495	-0.622
Mof_C 	C 	0.29569	0.28736	0.6239	0.745
Mof_O 	O 	0.33219	0.31138	0.6221	-1.082
Mof_O 	O 	0.29999	0.50705	0.12467	-0.581
Mof_O 	O 	0.25514	0.44466	0.12505	-0.625
Mof_C 	C 	0.29569	0.46264	0.1261	0.742
Mof_O 	O 	0.33219	0.43862	0.1279	-1.08
Mof_O 	O 	0.29999	0.00705	0.62467	-0.642
Mof_O 	O 	0.25514	0.94466	0.62505	-0.626
Mof_C 	C 	0.29569	0.96264	0.6261	0.823
Mof_O 	O 	0.33219	0.93862	0.6279	-1.092
Mof_O 	O 	0.79999	0.50705	0.62467	-0.577
Mof_O 	O 	0.75514	0.44466	0.62505	-0.622
Mof_C 	C 	0.79569	0.46264	0.6261	0.747
Mof_O 	O 	0.83219	0.43862	0.6279	-1.087
Mof_O 	O 	0.79999	0.00705	0.12467	-0.647
Mof_O 	O 	0.75514	0.94466	0.12505	-0.629
Mof_C 	C 	0.79569	0.96264	0.1261	0.821
Mof_O 	O 	0.83219	0.93862	0.1279	-1.095
Mof_O 	O 	0.95001	0.24295	0.62467	-0.562
Mof_O 	O 	0.99486	0.30534	0.62505	-0.587
Mof_C 	C 	0.95431	0.28736	0.6261	0.744
Mof_O 	O 	0.91781	0.31138	0.6279	-1.081
Mof_O 	O 	0.95001	0.74295	0.12467	-0.567
Mof_O 	O 	0.99486	0.80534	0.12505	-0.591
Mof_C 	C 	0.95431	0.78736	0.1261	0.744
Mof_O 	O 	0.91781	0.81138	0.1279	-1.084
Mof_O 	O 	0.45001	0.24295	0.12467	-0.58
Mof_O 	O 	0.49486	0.30534	0.12505	-0.625
Mof_C 	C 	0.45431	0.28736	0.1261	0.742
Mof_O 	O 	0.41781	0.31138	0.1279	-1.08
Mof_O 	O 	0.45001	0.74295	0.62467	-0.576
Mof_O 	O 	0.49486	0.80534	0.62505	-0.622
Mof_C 	C 	0.45431	0.78736	0.6261	0.748
Mof_O 	O 	0.41781	0.81138	0.6279	-1.088
Mof_O 	O 	0.45001	0.00705	0.12533	-0.645
Mof_O 	O 	0.49486	0.94466	0.12495	-0.628
Mof_C 	C 	0.45431	0.96264	0.1239	0.819
Mof_O 	O 	0.41781	0.93862	0.1221	-1.091
Mof_O 	O 	0.45001	0.50705	0.62533	-0.575
Mof_O 	O 	0.49486	0.44466	0.62495	-0.621
Mof_C 	C 	0.45431	0.46264	0.6239	0.745
Mof_O 	O 	0.41781	0.43862	0.6221	-1.082
Mof_O 	O 	0.95001	0.00705	0.62533	-0.627
Mof_O 	O 	0.99486	0.94466	0.62495	-0.591
Mof_C 	C 	0.95431	0.96264	0.6239	0.821
Mof_O 	O 	0.91781	0.93862	0.6221	-1.09
Mof_O 	O 	0.95001	0.50705	0.12533	-0.566
Mof_O 	O 	0.99486	0.44466	0.12495	-0.589
Mof_C 	C 	0.95431	0.46264	0.1239	0.741
Mof_O 	O 	0.91781	0.43862	0.1221	-1.079
Mof_O 	O 	0.62533	0.50705	0.95001	-0.562
Mof_O 	O 	0.62495	0.44466	0.99486	-0.586
Mof_C 	C 	0.6239	0.46264	0.95431	0.744
Mof_O 	O 	0.6221	0.43862	0.91781	-1.081
Mof_O 	O 	0.62533	0.00705	0.45001	-0.641
Mof_O 	O 	0.62495	0.94466	0.49486	-0.625
Mof_C 	C 	0.6239	0.96264	0.45431	0.823
Mof_O 	O 	0.6221	0.93862	0.41781	-1.092
Mof_O 	O 	0.12533	0.50705	0.45001	-0.58
Mof_O 	O 	0.12495	0.44466	0.49486	-0.624
Mof_C 	C 	0.1239	0.46264	0.45431	0.742
Mof_O 	O 	0.1221	0.43862	0.41781	-1.081
Mof_O 	O 	0.12533	0.00705	0.95001	-0.631
Mof_O 	O 	0.12495	0.94466	0.99486	-0.594
Mof_C 	C 	0.1239	0.96264	0.95431	0.817
Mof_O 	O 	0.1221	0.93862	0.91781	-1.089
Mof_O 	O 	0.12467	0.74295	0.45001	-0.581
Mof_O 	O 	0.12505	0.80534	0.49486	-0.626
Mof_C 	C 	0.1261	0.78736	0.45431	0.745
Mof_O 	O 	0.1279	0.81138	0.41781	-1.085
Mof_O 	O 	0.12467	0.24295	0.95001	-0.567
Mof_O 	O 	0.12505	0.30534	0.99486	-0.59
Mof_C 	C 	0.1261	0.28736	0.95431	0.741
Mof_O 	O 	0.1279	0.31138	0.91781	-1.078
Mof_O 	O 	0.62467	0.74295	0.95001	-0.562
Mof_O 	O 	0.62505	0.80534	0.99486	-0.588
Mof_C 	C 	0.6261	0.78736	0.95431	0.746
Mof_O 	O 	0.6279	0.81138	0.91781	-1.086
Mof_O 	O 	0.62467	0.24295	0.45001	-0.576
Mof_O 	O 	0.62505	0.30534	0.49486	-0.621
Mof_C 	C 	0.6261	0.28736	0.45431	0.745
Mof_O 	O 	0.6279	0.31138	0.41781	-1.082
Mof_O 	O 	0.62467	0.00705	0.79999	-0.643
Mof_O 	O 	0.62505	0.94466	0.75514	-0.626
Mof_C 	C 	0.6261	0.96264	0.79569	0.825
Mof_O 	O 	0.6279	0.93862	0.83219	-1.097
Mof_O 	O 	0.62467	0.50705	0.29999	-0.576
Mof_O 	O 	0.62505	0.44466	0.25514	-0.622
Mof_C 	C 	0.6261	0.46264	0.29569	0.745
Mof_O 	O 	0.6279	0.43862	0.33219	-1.082
Mof_O 	O 	0.12467	0.00705	0.29999	-0.646
Mof_O 	O 	0.12505	0.94466	0.25514	-0.629
Mof_C 	C 	0.1261	0.96264	0.29569	0.819
Mof_O 	O 	0.1279	0.93862	0.33219	-1.09
Mof_O 	O 	0.12467	0.50705	0.79999	-0.581
Mof_O 	O 	0.12505	0.44466	0.75514	-0.625
Mof_C 	C 	0.1261	0.46264	0.79569	0.745
Mof_O 	O 	0.1279	0.43862	0.83219	-1.085
Mof_O 	O 	0.12533	0.24295	0.29999	-0.581
Mof_O 	O 	0.12495	0.30534	0.25514	-0.625
Mof_C 	C 	0.1239	0.28736	0.29569	0.742
Mof_O 	O 	0.1221	0.31138	0.33219	-1.081
Mof_O 	O 	0.12533	0.74295	0.79999	-0.582
Mof_O 	O 	0.12495	0.80534	0.75514	-0.626
Mof_C 	C 	0.1239	0.78736	0.79569	0.747
Mof_O 	O 	0.1221	0.81138	0.83219	-1.091
Mof_O 	O 	0.62533	0.24295	0.79999	-0.577
Mof_O 	O 	0.62495	0.30534	0.75514	-0.622
Mof_C 	C 	0.6239	0.28736	0.79569	0.748
Mof_O 	O 	0.6221	0.31138	0.83219	-1.087
Mof_O 	O 	0.62533	0.74295	0.29999	-0.577
Mof_O 	O 	0.62495	0.80534	0.25514	-0.623
Mof_C 	C 	0.6239	0.78736	0.29569	0.748
Mof_O 	O 	0.6221	0.81138	0.33219	-1.088
Mof_O 	O 	0.95001	0.62533	0.50705	-0.562
Mof_O 	O 	0.99486	0.62495	0.44466	-0.586
Mof_C 	C 	0.95431	0.6239	0.46264	0.744
Mof_O 	O 	0.91781	0.6221	0.43862	-1.081
Mof_O 	O 	0.95001	0.12533	0.00705	-0.631
Mof_O 	O 	0.99486	0.12495	0.94466	-0.594
Mof_C 	C 	0.95431	0.1239	0.96264	0.817
Mof_O 	O 	0.91781	0.1221	0.93862	-1.089
Mof_O 	O 	0.45001	0.62533	0.00705	-0.641
Mof_O 	O 	0.49486	0.62495	0.94466	-0.625
Mof_C 	C 	0.45431	0.6239	0.96264	0.823
Mof_O 	O 	0.41781	0.6221	0.93862	-1.092
Mof_O 	O 	0.45001	0.12533	0.50705	-0.58
Mof_O 	O 	0.49486	0.12495	0.44466	-0.624
Mof_C 	C 	0.45431	0.1239	0.46264	0.742
Mof_O 	O 	0.41781	0.1221	0.43862	-1.081
Mof_O 	O 	0.45001	0.12467	0.74295	-0.581
Mof_O 	O 	0.49486	0.12505	0.80534	-0.626
Mof_C 	C 	0.45431	0.1261	0.78736	0.745
Mof_O 	O 	0.41781	0.1279	0.81138	-1.085
Mof_O 	O 	0.45001	0.62467	0.24295	-0.576
Mof_O 	O 	0.49486	0.62505	0.30534	-0.621
Mof_C 	C 	0.45431	0.6261	0.28736	0.745
Mof_O 	O 	0.41781	0.6279	0.31138	-1.082
Mof_O 	O 	0.95001	0.12467	0.24295	-0.567
Mof_O 	O 	0.99486	0.12505	0.30534	-0.59
Mof_C 	C 	0.95431	0.1261	0.28736	0.741
Mof_O 	O 	0.91781	0.1279	0.31138	-1.078
Mof_O 	O 	0.95001	0.62467	0.74295	-0.562
Mof_O 	O 	0.99486	0.62505	0.80534	-0.588
Mof_C 	C 	0.95431	0.6261	0.78736	0.746
Mof_O 	O 	0.91781	0.6279	0.81138	-1.086
Mof_O 	O 	0.79999	0.62467	0.00705	-0.643
Mof_O 	O 	0.75514	0.62505	0.94466	-0.626
Mof_C 	C 	0.79569	0.6261	0.96264	0.825
Mof_O 	O 	0.83219	0.6279	0.93862	-1.097
Mof_O 	O 	0.79999	0.12467	0.50705	-0.581
Mof_O 	O 	0.75514	0.12505	0.44466	-0.625
Mof_C 	C 	0.79569	0.1261	0.46264	0.745
Mof_O 	O 	0.83219	0.1279	0.43862	-1.085
Mof_O 	O 	0.29999	0.62467	0.50705	-0.576
Mof_O 	O 	0.25514	0.62505	0.44466	-0.622
Mof_C 	C 	0.29569	0.6261	0.46264	0.745
Mof_O 	O 	0.33219	0.6279	0.43862	-1.082
Mof_O 	O 	0.29999	0.12467	0.00705	-0.646
Mof_O 	O 	0.25514	0.12505	0.94466	-0.629
Mof_C 	C 	0.29569	0.1261	0.96264	0.819
Mof_O 	O 	0.33219	0.1279	0.93862	-1.09
Mof_O 	O 	0.29999	0.12533	0.24295	-0.581
Mof_O 	O 	0.25514	0.12495	0.30534	-0.625
Mof_C 	C 	0.29569	0.1239	0.28736	0.742
Mof_O 	O 	0.33219	0.1221	0.31138	-1.081
Mof_O 	O 	0.29999	0.62533	0.74295	-0.577
Mof_O 	O 	0.25514	0.62495	0.80534	-0.623
Mof_C 	C 	0.29569	0.6239	0.78736	0.748
Mof_O 	O 	0.33219	0.6221	0.81138	-1.088
Mof_O 	O 	0.79999	0.12533	0.74295	-0.582
Mof_O 	O 	0.75514	0.12495	0.80534	-0.626
Mof_C 	C 	0.79569	0.1239	0.78736	0.747
Mof_O 	O 	0.83219	0.1221	0.81138	-1.091
Mof_O 	O 	0.79999	0.62533	0.24295	-0.577
Mof_O 	O 	0.75514	0.62495	0.30534	-0.622
Mof_C 	C 	0.79569	0.6239	0.28736	0.748
Mof_O 	O 	0.83219	0.6221	0.31138	-1.087
Mof_O 	O 	0.50705	0.95001	0.62533	-0.562
Mof_O 	O 	0.44466	0.99486	0.62495	-0.586
Mof_C 	C 	0.46264	0.95431	0.6239	0.744
Mof_O 	O 	0.43862	0.91781	0.6221	-1.081
Mof_O 	O 	0.50705	0.45001	0.12533	-0.58
Mof_O 	O 	0.44466	0.49486	0.12495	-0.624
Mof_C 	C 	0.46264	0.45431	0.1239	0.742
Mof_O 	O 	0.43862	0.41781	0.1221	-1.081
Mof_O 	O 	0.00705	0.95001	0.12533	-0.631
Mof_O 	O 	0.94466	0.99486	0.12495	-0.594
Mof_C 	C 	0.96264	0.95431	0.1239	0.817
Mof_O 	O 	0.93862	0.91781	0.1221	-1.089
Mof_O 	O 	0.00705	0.45001	0.62533	-0.641
Mof_O 	O 	0.94466	0.49486	0.62495	-0.625
Mof_C 	C 	0.96264	0.45431	0.6239	0.823
Mof_O 	O 	0.93862	0.41781	0.6221	-1.092
Mof_O 	O 	0.74295	0.45001	0.12467	-0.581
Mof_O 	O 	0.80534	0.49486	0.12505	-0.626
Mof_C 	C 	0.78736	0.45431	0.1261	0.745
Mof_O 	O 	0.81138	0.41781	0.1279	-1.085
Mof_O 	O 	0.74295	0.95001	0.62467	-0.562
Mof_O 	O 	0.80534	0.99486	0.62505	-0.588
Mof_C 	C 	0.78736	0.95431	0.6261	0.746
Mof_O 	O 	0.81138	0.91781	0.6279	-1.086
Mof_O 	O 	0.24295	0.45001	0.62467	-0.576
Mof_O 	O 	0.30534	0.49486	0.62505	-0.621
Mof_C 	C 	0.28736	0.45431	0.6261	0.745
Mof_O 	O 	0.31138	0.41781	0.6279	-1.082
Mof_O 	O 	0.24295	0.95001	0.12467	-0.567
Mof_O 	O 	0.30534	0.99486	0.12505	-0.59
Mof_C 	C 	0.28736	0.95431	0.1261	0.741
Mof_O 	O 	0.31138	0.91781	0.1279	-1.078
Mof_O 	O 	0.00705	0.79999	0.62467	-0.643
Mof_O 	O 	0.94466	0.75514	0.62505	-0.626
Mof_C 	C 	0.96264	0.79569	0.6261	0.825
Mof_O 	O 	0.93862	0.83219	0.6279	-1.097
Mof_O 	O 	0.00705	0.29999	0.12467	-0.646
Mof_O 	O 	0.94466	0.25514	0.12505	-0.629
Mof_C 	C 	0.96264	0.29569	0.1261	0.819
Mof_O 	O 	0.93862	0.33219	0.1279	-1.09
Mof_O 	O 	0.50705	0.79999	0.12467	-0.581
Mof_O 	O 	0.44466	0.75514	0.12505	-0.625
Mof_C 	C 	0.46264	0.79569	0.1261	0.745
Mof_O 	O 	0.43862	0.83219	0.1279	-1.085
Mof_O 	O 	0.50705	0.29999	0.62467	-0.576
Mof_O 	O 	0.44466	0.25514	0.62505	-0.622
Mof_C 	C 	0.46264	0.29569	0.6261	0.745
Mof_O 	O 	0.43862	0.33219	0.6279	-1.082
Mof_O 	O 	0.24295	0.29999	0.12533	-0.581
Mof_O 	O 	0.30534	0.25514	0.12495	-0.625
Mof_C 	C 	0.28736	0.29569	0.1239	0.742
Mof_O 	O 	0.31138	0.33219	0.1221	-1.081
Mof_O 	O 	0.24295	0.79999	0.62533	-0.577
Mof_O 	O 	0.30534	0.75514	0.62495	-0.622
Mof_C 	C 	0.28736	0.79569	0.6239	0.748
Mof_O 	O 	0.31138	0.83219	0.6221	-1.087
Mof_O 	O 	0.74295	0.29999	0.62533	-0.577
Mof_O 	O 	0.80534	0.25514	0.62495	-0.623
Mof_C 	C 	0.78736	0.29569	0.6239	0.748
Mof_O 	O 	0.81138	0.33219	0.6221	-1.088
Mof_O 	O 	0.74295	0.79999	0.12533	-0.582
Mof_O 	O 	0.80534	0.75514	0.12495	-0.626
Mof_C 	C 	0.78736	0.79569	0.1239	0.747
Mof_O 	O 	0.81138	0.83219	0.1221	-1.091
Mof_O 	O 	0.75705	0.37533	0.04999	-0.589
Mof_O 	O 	0.69466	0.37495	0.00514	-0.654
Mof_C 	C 	0.71264	0.3739	0.04569	0.745
Mof_O 	O 	0.68862	0.3721	0.08219	-1.084
Mof_O 	O 	0.75705	0.87533	0.54999	-0.57
Mof_O 	O 	0.69466	0.87495	0.50514	-0.617
Mof_C 	C 	0.71264	0.8739	0.54569	0.747
Mof_O 	O 	0.68862	0.8721	0.58219	-1.084
Mof_O 	O 	0.25705	0.37533	0.54999	-0.574
Mof_O 	O 	0.19466	0.37495	0.50514	-0.619
Mof_C 	C 	0.21264	0.3739	0.54569	0.742
Mof_O 	O 	0.18862	0.3721	0.58219	-1.077
Mof_O 	O 	0.25705	0.87533	0.04999	-0.584
Mof_O 	O 	0.19466	0.87495	0.00514	-0.649
Mof_C 	C 	0.21264	0.8739	0.04569	0.746
Mof_O 	O 	0.18862	0.8721	0.08219	-1.081
Mof_O 	O 	0.99295	0.87467	0.54999	-0.504
Mof_O 	O 	0.05534	0.87505	0.50514	-0.615
Mof_C 	C 	0.03736	0.8761	0.54569	0.67
Mof_O 	O 	0.06138	0.8779	0.58219	-1.072
Mof_O 	O 	0.99295	0.37467	0.04999	-0.522
Mof_O 	O 	0.05534	0.37505	0.00514	-0.65
Mof_C 	C 	0.03736	0.3761	0.04569	0.668
Mof_O 	O 	0.06138	0.3779	0.08219	-1.072
Mof_O 	O 	0.49295	0.87467	0.04999	-0.585
Mof_O 	O 	0.55534	0.87505	0.00514	-0.651
Mof_C 	C 	0.53736	0.8761	0.04569	0.748
Mof_O 	O 	0.56138	0.8779	0.08219	-1.085
Mof_O 	O 	0.49295	0.37467	0.54999	-0.575
Mof_O 	O 	0.55534	0.37505	0.50514	-0.621
Mof_C 	C 	0.53736	0.3761	0.54569	0.745
Mof_O 	O 	0.56138	0.3779	0.58219	-1.082
Mof_O 	O 	0.25705	0.37467	0.20001	-0.573
Mof_O 	O 	0.19466	0.37505	0.24486	-0.619
Mof_C 	C 	0.21264	0.3761	0.20431	0.739
Mof_O 	O 	0.18862	0.3779	0.16781	-1.072
Mof_O 	O 	0.25705	0.87467	0.70001	-0.569
Mof_O 	O 	0.19466	0.87505	0.74486	-0.616
Mof_C 	C 	0.21264	0.8761	0.70431	0.745
Mof_O 	O 	0.18862	0.8779	0.66781	-1.078
Mof_O 	O 	0.75705	0.37467	0.70001	-0.574
Mof_O 	O 	0.69466	0.37505	0.74486	-0.62
Mof_C 	C 	0.71264	0.3761	0.70431	0.744
Mof_O 	O 	0.68862	0.3779	0.66781	-1.082
Mof_O 	O 	0.75705	0.87467	0.20001	-0.569
Mof_O 	O 	0.69466	0.87505	0.24486	-0.617
Mof_C 	C 	0.71264	0.8761	0.20431	0.745
Mof_O 	O 	0.68862	0.8779	0.16781	-1.079
Mof_O 	O 	0.49295	0.87533	0.70001	-0.57
Mof_O 	O 	0.55534	0.87495	0.74486	-0.617
Mof_C 	C 	0.53736	0.8739	0.70431	0.747
Mof_O 	O 	0.56138	0.8721	0.66781	-1.084
Mof_O 	O 	0.49295	0.37533	0.20001	-0.574
Mof_O 	O 	0.55534	0.37495	0.24486	-0.62
Mof_C 	C 	0.53736	0.3739	0.20431	0.742
Mof_O 	O 	0.56138	0.3721	0.16781	-1.077
Mof_O 	O 	0.99295	0.87533	0.20001	-0.503
Mof_O 	O 	0.05534	0.87495	0.24486	-0.613
Mof_C 	C 	0.03736	0.8739	0.20431	0.668
Mof_O 	O 	0.06138	0.8721	0.16781	-1.068
Mof_O 	O 	0.99295	0.37533	0.70001	-0.507
Mof_O 	O 	0.05534	0.37495	0.74486	-0.617
Mof_C 	C 	0.03736	0.3739	0.70431	0.667
Mof_O 	O 	0.06138	0.3721	0.66781	-1.071
Mof_O 	O 	0.87533	0.70001	0.49295	-0.57
Mof_O 	O 	0.87495	0.74486	0.55534	-0.617
Mof_C 	C 	0.8739	0.70431	0.53736	0.747
Mof_O 	O 	0.8721	0.66781	0.56138	-1.084
Mof_O 	O 	0.87533	0.20001	0.99295	-0.503
Mof_O 	O 	0.87495	0.24486	0.05534	-0.613
Mof_C 	C 	0.8739	0.20431	0.03736	0.668
Mof_O 	O 	0.8721	0.16781	0.06138	-1.068
Mof_O 	O 	0.37533	0.70001	0.99295	-0.507
Mof_O 	O 	0.37495	0.74486	0.05534	-0.617
Mof_C 	C 	0.3739	0.70431	0.03736	0.667
Mof_O 	O 	0.3721	0.66781	0.06138	-1.071
Mof_O 	O 	0.37533	0.20001	0.49295	-0.574
Mof_O 	O 	0.37495	0.24486	0.55534	-0.62
Mof_C 	C 	0.3739	0.20431	0.53736	0.742
Mof_O 	O 	0.3721	0.16781	0.56138	-1.077
Mof_O 	O 	0.37467	0.20001	0.25705	-0.573
Mof_O 	O 	0.37505	0.24486	0.19466	-0.619
Mof_C 	C 	0.3761	0.20431	0.21264	0.739
Mof_O 	O 	0.3779	0.16781	0.18862	-1.072
Mof_O 	O 	0.37467	0.70001	0.75705	-0.574
Mof_O 	O 	0.37505	0.74486	0.69466	-0.62
Mof_C 	C 	0.3761	0.70431	0.71264	0.744
Mof_O 	O 	0.3779	0.66781	0.68862	-1.082
Mof_O 	O 	0.87467	0.20001	0.75705	-0.569
Mof_O 	O 	0.87505	0.24486	0.69466	-0.617
Mof_C 	C 	0.8761	0.20431	0.71264	0.745
Mof_O 	O 	0.8779	0.16781	0.68862	-1.079
Mof_O 	O 	0.87467	0.70001	0.25705	-0.569
Mof_O 	O 	0.87505	0.74486	0.19466	-0.616
Mof_C 	C 	0.8761	0.70431	0.21264	0.745
Mof_O 	O 	0.8779	0.66781	0.18862	-1.078
Mof_O 	O 	0.87467	0.54999	0.99295	-0.504
Mof_O 	O 	0.87505	0.50514	0.05534	-0.615
Mof_C 	C 	0.8761	0.54569	0.03736	0.67
Mof_O 	O 	0.8779	0.58219	0.06138	-1.072
Mof_O 	O 	0.87467	0.04999	0.49295	-0.585
Mof_O 	O 	0.87505	0.00514	0.55534	-0.651
Mof_C 	C 	0.8761	0.04569	0.53736	0.748
Mof_O 	O 	0.8779	0.08219	0.56138	-1.085
Mof_O 	O 	0.37467	0.54999	0.49295	-0.575
Mof_O 	O 	0.37505	0.50514	0.55534	-0.621
Mof_C 	C 	0.3761	0.54569	0.53736	0.745
Mof_O 	O 	0.3779	0.58219	0.56138	-1.082
Mof_O 	O 	0.37467	0.04999	0.99295	-0.522
Mof_O 	O 	0.37505	0.00514	0.05534	-0.65
Mof_C 	C 	0.3761	0.04569	0.03736	0.668
Mof_O 	O 	0.3779	0.08219	0.06138	-1.072
Mof_O 	O 	0.37533	0.04999	0.75705	-0.589
Mof_O 	O 	0.37495	0.00514	0.69466	-0.654
Mof_C 	C 	0.3739	0.04569	0.71264	0.745
Mof_O 	O 	0.3721	0.08219	0.68862	-1.084
Mof_O 	O 	0.37533	0.54999	0.25705	-0.574
Mof_O 	O 	0.37495	0.50514	0.19466	-0.619
Mof_C 	C 	0.3739	0.54569	0.21264	0.742
Mof_O 	O 	0.3721	0.58219	0.18862	-1.077
Mof_O 	O 	0.87533	0.04999	0.25705	-0.584
Mof_O 	O 	0.87495	0.00514	0.19466	-0.649
Mof_C 	C 	0.8739	0.04569	0.21264	0.746
Mof_O 	O 	0.8721	0.08219	0.18862	-1.081
Mof_O 	O 	0.87533	0.54999	0.75705	-0.57
Mof_O 	O 	0.87495	0.50514	0.69466	-0.617
Mof_C 	C 	0.8739	0.54569	0.71264	0.747
Mof_O 	O 	0.8721	0.58219	0.68862	-1.084
Mof_O 	O 	0.20001	0.25705	0.37467	-0.573
Mof_O 	O 	0.24486	0.19466	0.37505	-0.619
Mof_C 	C 	0.20431	0.21264	0.3761	0.739
Mof_O 	O 	0.16781	0.18862	0.3779	-1.072
Mof_O 	O 	0.20001	0.75705	0.87467	-0.569
Mof_O 	O 	0.24486	0.69466	0.87505	-0.617
Mof_C 	C 	0.20431	0.71264	0.8761	0.745
Mof_O 	O 	0.16781	0.68862	0.8779	-1.079
Mof_O 	O 	0.70001	0.25705	0.87467	-0.569
Mof_O 	O 	0.74486	0.19466	0.87505	-0.616
Mof_C 	C 	0.70431	0.21264	0.8761	0.745
Mof_O 	O 	0.66781	0.18862	0.8779	-1.078
Mof_O 	O 	0.70001	0.75705	0.37467	-0.574
Mof_O 	O 	0.74486	0.69466	0.37505	-0.62
Mof_C 	C 	0.70431	0.71264	0.3761	0.744
Mof_O 	O 	0.66781	0.68862	0.3779	-1.082
Mof_O 	O 	0.70001	0.49295	0.87533	-0.57
Mof_O 	O 	0.74486	0.55534	0.87495	-0.617
Mof_C 	C 	0.70431	0.53736	0.8739	0.747
Mof_O 	O 	0.66781	0.56138	0.8721	-1.084
Mof_O 	O 	0.70001	0.99295	0.37533	-0.507
Mof_O 	O 	0.74486	0.05534	0.37495	-0.617
Mof_C 	C 	0.70431	0.03736	0.3739	0.667
Mof_O 	O 	0.66781	0.06138	0.3721	-1.071
Mof_O 	O 	0.20001	0.49295	0.37533	-0.574
Mof_O 	O 	0.24486	0.55534	0.37495	-0.62
Mof_C 	C 	0.20431	0.53736	0.3739	0.742
Mof_O 	O 	0.16781	0.56138	0.3721	-1.077
Mof_O 	O 	0.20001	0.99295	0.87533	-0.503
Mof_O 	O 	0.24486	0.05534	0.87495	-0.613
Mof_C 	C 	0.20431	0.03736	0.8739	0.668
Mof_O 	O 	0.16781	0.06138	0.8721	-1.068
Mof_O 	O 	0.04999	0.75705	0.37533	-0.589
Mof_O 	O 	0.00514	0.69466	0.37495	-0.654
Mof_C 	C 	0.04569	0.71264	0.3739	0.745
Mof_O 	O 	0.08219	0.68862	0.3721	-1.084
Mof_O 	O 	0.04999	0.25705	0.87533	-0.584
Mof_O 	O 	0.00514	0.19466	0.87495	-0.649
Mof_C 	C 	0.04569	0.21264	0.8739	0.746
Mof_O 	O 	0.08219	0.18862	0.8721	-1.081
Mof_O 	O 	0.54999	0.75705	0.87533	-0.57
Mof_O 	O 	0.50514	0.69466	0.87495	-0.617
Mof_C 	C 	0.54569	0.71264	0.8739	0.747
Mof_O 	O 	0.58219	0.68862	0.8721	-1.084
Mof_O 	O 	0.54999	0.25705	0.37533	-0.574
Mof_O 	O 	0.50514	0.19466	0.37495	-0.619
Mof_C 	C 	0.54569	0.21264	0.3739	0.742
Mof_O 	O 	0.58219	0.18862	0.3721	-1.077
Mof_O 	O 	0.54999	0.99295	0.87467	-0.504
Mof_O 	O 	0.50514	0.05534	0.87505	-0.615
Mof_C 	C 	0.54569	0.03736	0.8761	0.67
Mof_O 	O 	0.58219	0.06138	0.8779	-1.072
Mof_O 	O 	0.54999	0.49295	0.37467	-0.575
Mof_O 	O 	0.50514	0.55534	0.37505	-0.621
Mof_C 	C 	0.54569	0.53736	0.3761	0.745
Mof_O 	O 	0.58219	0.56138	0.3779	-1.082
Mof_O 	O 	0.04999	0.99295	0.37467	-0.522
Mof_O 	O 	0.00514	0.05534	0.37505	-0.65
Mof_C 	C 	0.04569	0.03736	0.3761	0.668
Mof_O 	O 	0.08219	0.06138	0.3779	-1.072
Mof_O 	O 	0.04999	0.49295	0.87467	-0.585
Mof_O 	O 	0.00514	0.55534	0.87505	-0.651
Mof_C 	C 	0.04569	0.53736	0.8761	0.748
Mof_O 	O 	0.08219	0.56138	0.8779	-1.085
Mof_Mg	Mg	0.37412	0.5	0.12412	1.464
Mof_Mg	Mg	0.37412	-8.34627e-33	0.62412	1.458
Mof_Mg	Mg	0.87412	0.5	0.62412	1.464
Mof_Mg	Mg	0.87412	-1.04328e-33	0.12412	1.458
Mof_Mg	Mg	0.87588	0.25	0.62412	1.464
Mof_Mg	Mg	0.87588	0.75	0.12412	1.464
Mof_Mg	Mg	0.37588	0.25	0.12412	1.464
Mof_Mg	Mg	0.37588	0.75	0.62412	1.464
Mof_Mg	Mg	0.37588	0	0.12588	1.458
Mof_Mg	Mg	0.37588	0.5	0.62588	1.464
Mof_Mg	Mg	0.87588	-8.34627e-33	0.62588	1.458
Mof_Mg	Mg	0.87588	0.5	0.12588	1.464
Mof_Mg	Mg	0.87412	0.75	0.62588	1.464
Mof_Mg	Mg	0.87412	0.25	0.12588	1.464
Mof_Mg	Mg	0.37412	0.75	0.12588	1.464
Mof_Mg	Mg	0.37412	0.25	0.62588	1.464
Mof_Mg	Mg	0.12412	0.37412	0.5	1.464
Mof_Mg	Mg	0.12412	0.87412	-0	1.458
Mof_Mg	Mg	0.62412	0.37412	-0	1.458
Mof_Mg	Mg	0.62412	0.87412	0.5	1.464
Mof_Mg	Mg	0.62412	0.87588	0.25	1.464
Mof_Mg	Mg	0.62412	0.37588	0.75	1.464
Mof_Mg	Mg	0.12412	0.87588	0.75	1.464
Mof_Mg	Mg	0.12412	0.37588	0.25	1.464
Mof_Mg	Mg	0.12588	0.37588	-0	1.458
Mof_Mg	Mg	0.12588	0.87588	0.5	1.464
Mof_Mg	Mg	0.62588	0.37588	0.5	1.464
Mof_Mg	Mg	0.62588	0.87588	-0	1.458
Mof_Mg	Mg	0.62588	0.87412	0.75	1.464
Mof_Mg	Mg	0.62588	0.37412	0.25	1.464
Mof_Mg	Mg	0.12588	0.87412	0.25	1.464
Mof_Mg	Mg	0.12588	0.37412	0.75	1.464
Mof_Mg	Mg	0.5	0.12412	0.37412	1.464
Mof_Mg	Mg	0.5	0.62412	0.87412	1.464
Mof_Mg	Mg	-5.06884e-33	0.12412	0.87412	1.458
Mof_Mg	Mg	-2.77041e-33	0.62412	0.37412	1.458
Mof_Mg	Mg	0.25	0.62412	0.87588	1.464
Mof_Mg	Mg	0.25	0.12412	0.37588	1.464
Mof_Mg	Mg	0.75	0.62412	0.37588	1.464
Mof_Mg	Mg	0.75	0.12412	0.87588	1.464
Mof_Mg	Mg	-2.76381e-33	0.12588	0.37588	1.458
Mof_Mg	Mg	1.16303e-32	0.62588	0.87588	1.458
Mof_Mg	Mg	0.5	0.12588	0.87588	1.464
Mof_Mg	Mg	0.5	0.62588	0.37588	1.464
Mof_Mg	Mg	0.75	0.62588	0.87412	1.464
Mof_Mg	Mg	0.75	0.12588	0.37412	1.464
Mof_Mg	Mg	0.25	0.62588	0.37412	1.464
Mof_Mg	Mg	0.25	0.12588	0.87412	1.464
Mof_Mg	Mg	0.62588	0.5	0.87588	1.464
Mof_Mg	Mg	0.62588	-4.17313e-33	0.37588	1.458
Mof_Mg	Mg	0.12588	0.5	0.37588	1.464
Mof_Mg	Mg	0.12588	0	0.87588	1.458
Mof_Mg	Mg	0.12412	0.75	0.37588	1.464
Mof_Mg	Mg	0.12412	0.25	0.87588	1.464
Mof_Mg	Mg	0.62412	0.75	0.87588	1.464
Mof_Mg	Mg	0.62412	0.25	0.37588	1.464
Mof_Mg	Mg	0.62412	0	0.87412	1.458
Mof_Mg	Mg	0.62412	0.5	0.37412	1.464
Mof_Mg	Mg	0.12412	0	0.37412	1.458
Mof_Mg	Mg	0.12412	0.5	0.87412	1.464
Mof_Mg	Mg	0.12588	0.25	0.37412	1.464
Mof_Mg	Mg	0.12588	0.75	0.87412	1.464
Mof_Mg	Mg	0.62588	0.25	0.87412	1.464
Mof_Mg	Mg	0.62588	0.75	0.37412	1.464
Mof_Mg	Mg	0.87588	0.62588	0.5	1.464
Mof_Mg	Mg	0.87588	0.12588	-0	1.458
Mof_Mg	Mg	0.37588	0.62588	-0	1.458
Mof_Mg	Mg	0.37588	0.12588	0.5	1.464
Mof_Mg	Mg	0.37588	0.12412	0.75	1.464
Mof_Mg	Mg	0.37588	0.62412	0.25	1.464
Mof_Mg	Mg	0.87588	0.12412	0.25	1.464
Mof_Mg	Mg	0.87588	0.62412	0.75	1.464
Mof_Mg	Mg	0.87412	0.62412	-0	1.458
Mof_Mg	Mg	0.87412	0.12412	0.5	1.464
Mof_Mg	Mg	0.37412	0.62412	0.5	1.464
Mof_Mg	Mg	0.37412	0.12412	-0	1.458
Mof_Mg	Mg	0.37412	0.12588	0.25	1.464
Mof_Mg	Mg	0.37412	0.62588	0.75	1.464
Mof_Mg	Mg	0.87412	0.12588	0.75	1.464
Mof_Mg	Mg	0.87412	0.62588	0.25	1.464
Mof_Mg	Mg	0.5	0.87588	0.62588	1.464
Mof_Mg	Mg	0.5	0.37588	0.12588	1.464
Mof_Mg	Mg	-1.61459e-33	0.87588	0.12588	1.458
Mof_Mg	Mg	-5.99959e-33	0.37588	0.62588	1.458
Mof_Mg	Mg	0.75	0.37588	0.12412	1.464
Mof_Mg	Mg	0.75	0.87588	0.62412	1.464
Mof_Mg	Mg	0.25	0.37588	0.62412	1.464
Mof_Mg	Mg	0.25	0.87588	0.12412	1.464
Mof_Mg	Mg	-6.00619e-33	0.87412	0.62412	1.458
Mof_Mg	Mg	-5.77908e-34	0.37412	0.12412	1.458
Mof_Mg	Mg	0.5	0.87412	0.12412	1.464
Mof_Mg	Mg	0.5	0.37412	0.62412	1.464
Mof_Mg	Mg	0.25	0.37412	0.12588	1.464
Mof_Mg	Mg	0.25	0.87412	0.62588	1.464
Mof_Mg	Mg	0.75	0.37412	0.62588	1.464
Mof_Mg	Mg	0.75	0.87412	0.12588	1.464
Mof_Na	Na	0.375	0.625	0.125	3.171
Mof_Na	Na	0.875	0.125	0.625	3.198
Mof_Na	Na	0.375	0.125	0.125	3.136
Mof_Na	Na	0.375	0.625	0.625	3.207
Mof_Na	Na	0.875	0.625	0.625	3.233
Mof_Na	Na	0.875	0.125	0.125	3.163
Mof_Na	Na	0.125	0.375	0.625	3.171
Mof_Na	Na	0.125	0.875	0.125	3.163
Mof_Na	Na	0.625	0.875	0.125	3.198
Mof_Na	Na	0.625	0.375	0.625	3.207
Mof_Na	Na	0.125	0.375	0.125	3.136
Mof_Na	Na	0.625	0.875	0.625	3.233
Mof_Na	Na	0.625	0.125	0.375	3.171
Mof_Na	Na	0.125	0.625	0.875	3.198
Mof_Na	Na	0.125	0.125	0.375	3.136
Mof_Na	Na	0.625	0.625	0.875	3.233
Mof_Na	Na	0.375	0.625	0.875	3.247
Mof_Na	Na	0.875	0.125	0.375	3.219
Mof_Na	Na	0.875	0.625	0.875	3.282
Mof_Na	Na	0.375	0.125	0.375	3.183
Mof_Na	Na	0.125	0.375	0.375	3.183
Mof_Na	Na	0.125	0.875	0.875	3.254
Mof_Na	Na	0.625	0.875	0.875	3.282
Mof_Na	Na	0.625	0.375	0.375	3.211
Mof_Na	Na	0.125	0.375	0.875	3.219
Mof_Na	Na	0.625	0.875	0.375	3.247
Mof_Na	Na	0.875	0.875	0.625	3.282
Mof_Na	Na	0.375	0.375	0.125	3.183
Mof_Na	Na	0.875	0.375	0.625	3.247
Mof_Na	Na	0.875	0.875	0.125	3.254
Mof_Na	Na	0.375	0.875	0.125	3.219
Mof_Na	Na	0.375	0.375	0.625	3.211
Mof_Na	Na	0.625	0.375	0.875	3.246
Mof_Na	Na	0.125	0.875	0.375	3.219
Mof_Na	Na	0.875	0.625	0.375	3.246
Mof_Na	Na	0.875	0.125	0.875	3.254
Mof_Na	Na	0.375	0.125	0.875	3.219
Mof_Na	Na	0.375	0.625	0.375	3.211
Mof_Na	Na	0.375	0.875	0.625	3.246
Mof_Na	Na	0.875	0.375	0.125	3.219
Mof_Na	Na	0.625	0.375	0.125	3.171
Mof_Na	Na	0.125	0.875	0.625	3.198
Mof_Na	Na	0.875	0.625	0.125	3.198
Mof_Na	Na	0.375	0.125	0.625	3.171
Mof_Na	Na	0.125	0.625	0.375	3.171
Mof_Na	Na	0.125	0.125	0.875	3.163
Mof_Na	Na	0.625	0.125	0.875	3.198
Mof_Na	Na	0.625	0.625	0.375	3.207
_end
