# CIF file generated by openbabel 3.1.0, see https://openbabel.org
data_I
_chemical_name_common 'image0'
_cell_length_a 8.3219
_cell_length_b 15.4318
_cell_length_c 28.647
_cell_angle_alpha 90
_cell_angle_beta 93.449
_cell_angle_gamma 90
_space_group_name_H-M_alt 'P 1'
_space_group_name_Hall 'P 1'
loop_
    _symmetry_equiv_pos_as_xyz
    x,y,z
loop_
    _atom_site_label
    _atom_site_type_symbol
    _atom_site_fract_x
    _atom_site_fract_y
    _atom_site_fract_z
    _atom_site_occupancy
    Tb1      Tb       0.77314    0.01306    0.71417    1.000
    O1       O        0.65630    0.93510    0.64960    1.000
    O2       O        0.60040    0.88570    0.71910    1.000
    O3       O        0.38630    0.53600    0.29060    1.000
    O4       O        0.17040    0.45550    0.28890    1.000
    O5       O        0.86420    0.09370    0.64730    1.000
    O6       O        0.93050    0.14900    0.71770    1.000
    N1       N        0.31170    0.58130    0.53440    1.000
    N2       N        0.19100    0.44170    0.53290    1.000
    N3       N        0.24050    0.51570    0.60620    1.000
    C1       C        0.58900    0.87840    0.67660    1.000
    C2       C        0.51600    0.80190    0.65090    1.000
    C3       C        0.50800    0.79490    0.60300    1.000
    H1       H        0.55120    0.84050    0.58530    1.000
    C4       C        0.44000    0.72380    0.57920    1.000
    H2       H        0.43730    0.72010    0.54610    1.000
    C5       C        0.37300    0.65590    0.60700    1.000
    C6       C        0.38200    0.66290    0.65370    1.000
    H3       H        0.33640    0.61730    0.67080    1.000
    C7       C        0.45400    0.73160    0.67970    1.000
    H4       H        0.46190    0.73260    0.71290    1.000
    C8       C        0.30600    0.58050    0.58000    1.000
    C9       C        0.25600    0.50900    0.51120    1.000
    C10      C        0.18300    0.44800    0.57920    1.000
    C11      C        0.26500    0.50440    0.46110    1.000
    C12      C        0.36400    0.56100    0.43820    1.000
    H5       H        0.42740    0.60240    0.45570    1.000
    C13      C        0.37100    0.55690    0.38860    1.000
    H6       H        0.44040    0.59430    0.37290    1.000
    C14      C        0.27200    0.49580    0.36270    1.000
    C15      C        0.17900    0.44100    0.38640    1.000
    H7       H        0.11460    0.39990    0.36920    1.000
    C16      C        0.17400    0.44210    0.43480    1.000
    H8       H        0.11050    0.40120    0.45010    1.000
    C17      C        0.27800    0.49350    0.31190    1.000
    C18      C        0.12100    0.37320    0.60530    1.000
    C19      C        0.10300    0.29350    0.58180    1.000
    H9       H        0.13410    0.28760    0.55060    1.000
    C20      C        0.03800    0.22210    0.60520    1.000
    H10      H        0.02840    0.16780    0.58970    1.000
    C21      C        0.98800    0.22940    0.64910    1.000
    C22      C        0.00600    0.31110    0.67350    1.000
    H11      H        0.97630    0.31680    0.70490    1.000
    C23      C        0.06600    0.38070    0.65000    1.000
    H12      H        0.07040    0.43580    0.66480    1.000
    C24      C        0.92800    0.15250    0.67350    1.000
    Tb2      Tb       0.27314    0.48694    0.21417    1.000
    O7       O        0.15630    0.56490    0.14960    1.000
    O8       O        0.10040    0.61430    0.21910    1.000
    O9       O        0.88630    0.96400    0.79060    1.000
    O10      O        0.67040    0.04450    0.78890    1.000
    O11      O        0.36420    0.40630    0.14730    1.000
    O12      O        0.43050    0.35100    0.21770    1.000
    N4       N        0.81170    0.91870    0.03440    1.000
    N5       N        0.69100    0.05830    0.03290    1.000
    N6       N        0.74050    0.98430    0.10620    1.000
    C25      C        0.08900    0.62160    0.17660    1.000
    C26      C        0.01600    0.69810    0.15090    1.000
    C27      C        0.00800    0.70510    0.10300    1.000
    H13      H        0.05120    0.65950    0.08530    1.000
    C28      C        0.94000    0.77620    0.07920    1.000
    H14      H        0.93730    0.77990    0.04610    1.000
    C29      C        0.87300    0.84410    0.10700    1.000
    C30      C        0.88200    0.83710    0.15370    1.000
    H15      H        0.83640    0.88270    0.17080    1.000
    C31      C        0.95400    0.76840    0.17970    1.000
    H16      H        0.96190    0.76740    0.21290    1.000
    C32      C        0.80600    0.91950    0.08000    1.000
    C33      C        0.75600    0.99100    0.01120    1.000
    C34      C        0.68300    0.05200    0.07920    1.000
    C35      C        0.76500    0.99560    0.96110    1.000
    C36      C        0.86400    0.93900    0.93820    1.000
    H17      H        0.92740    0.89760    0.95570    1.000
    C37      C        0.87100    0.94310    0.88860    1.000
    H18      H        0.94040    0.90570    0.87290    1.000
    C38      C        0.77200    0.00420    0.86270    1.000
    C39      C        0.67900    0.05900    0.88640    1.000
    H19      H        0.61460    0.10010    0.86920    1.000
    C40      C        0.67400    0.05790    0.93480    1.000
    H20      H        0.61050    0.09880    0.95010    1.000
    C41      C        0.77800    0.00650    0.81190    1.000
    C42      C        0.62100    0.12680    0.10530    1.000
    C43      C        0.60300    0.20650    0.08180    1.000
    H21      H        0.63410    0.21240    0.05060    1.000
    C44      C        0.53800    0.27790    0.10520    1.000
    H22      H        0.52840    0.33220    0.08970    1.000
    C45      C        0.48800    0.27060    0.14910    1.000
    C46      C        0.50600    0.18890    0.17350    1.000
    H23      H        0.47630    0.18320    0.20490    1.000
    C47      C        0.56600    0.11930    0.15000    1.000
    H24      H        0.57040    0.06420    0.16480    1.000
    C48      C        0.42800    0.34750    0.17350    1.000
    Tb3      Tb       0.72686    0.51306    0.78583    1.000
    O13      O        0.84370    0.43510    0.85040    1.000
    O14      O        0.89960    0.38570    0.78090    1.000
    O15      O        0.11370    0.03600    0.20940    1.000
    O16      O        0.32960    0.95550    0.21110    1.000
    O17      O        0.63580    0.59370    0.85270    1.000
    O18      O        0.56950    0.64900    0.78230    1.000
    N7       N        0.18830    0.08130    0.96560    1.000
    N8       N        0.30900    0.94170    0.96710    1.000
    N9       N        0.25950    0.01570    0.89380    1.000
    C49      C        0.91100    0.37840    0.82340    1.000
    C50      C        0.98400    0.30190    0.84910    1.000
    C51      C        0.99200    0.29490    0.89700    1.000
    H25      H        0.94880    0.34050    0.91470    1.000
    C52      C        0.06000    0.22380    0.92080    1.000
    H26      H        0.06270    0.22010    0.95390    1.000
    C53      C        0.12700    0.15590    0.89300    1.000
    C54      C        0.11800    0.16290    0.84630    1.000
    H27      H        0.16360    0.11730    0.82920    1.000
    C55      C        0.04600    0.23160    0.82030    1.000
    H28      H        0.03810    0.23260    0.78710    1.000
    C56      C        0.19400    0.08050    0.92000    1.000
    C57      C        0.24400    0.00900    0.98880    1.000
    C58      C        0.31700    0.94800    0.92080    1.000
    C59      C        0.23500    0.00440    0.03890    1.000
    C60      C        0.13600    0.06100    0.06180    1.000
    H29      H        0.07260    0.10240    0.04430    1.000
    C61      C        0.12900    0.05690    0.11140    1.000
    H30      H        0.05960    0.09430    0.12710    1.000
    C62      C        0.22800    0.99580    0.13730    1.000
    C63      C        0.32100    0.94100    0.11360    1.000
    H31      H        0.38540    0.89990    0.13080    1.000
    C64      C        0.32600    0.94210    0.06520    1.000
    H32      H        0.38950    0.90120    0.04990    1.000
    C65      C        0.22200    0.99350    0.18810    1.000
    C66      C        0.37900    0.87320    0.89470    1.000
    C67      C        0.39700    0.79350    0.91820    1.000
    H33      H        0.36590    0.78760    0.94940    1.000
    C68      C        0.46200    0.72210    0.89480    1.000
    H34      H        0.47160    0.66780    0.91030    1.000
    C69      C        0.51200    0.72940    0.85090    1.000
    C70      C        0.49400    0.81110    0.82650    1.000
    H35      H        0.52370    0.81680    0.79510    1.000
    C71      C        0.43400    0.88070    0.85000    1.000
    H36      H        0.42960    0.93580    0.83520    1.000
    C72      C        0.57200    0.65250    0.82650    1.000
    Tb4      Tb       0.22686    0.98694    0.28583    1.000
    O19      O        0.34370    0.06490    0.35040    1.000
    O20      O        0.39960    0.11430    0.28090    1.000
    O21      O        0.61370    0.46400    0.70940    1.000
    O22      O        0.82960    0.54450    0.71110    1.000
    O23      O        0.13580    0.90630    0.35270    1.000
    O24      O        0.06950    0.85100    0.28230    1.000
    N10      N        0.68830    0.41870    0.46560    1.000
    N11      N        0.80900    0.55830    0.46710    1.000
    N12      N        0.75950    0.48430    0.39380    1.000
    C73      C        0.41100    0.12160    0.32340    1.000
    C74      C        0.48400    0.19810    0.34910    1.000
    C75      C        0.49200    0.20510    0.39700    1.000
    H37      H        0.44880    0.15950    0.41470    1.000
    C76      C        0.56000    0.27620    0.42080    1.000
    H38      H        0.56270    0.27990    0.45390    1.000
    C77      C        0.62700    0.34410    0.39300    1.000
    C78      C        0.61800    0.33710    0.34630    1.000
    H39      H        0.66360    0.38270    0.32920    1.000
    C79      C        0.54600    0.26840    0.32030    1.000
    H40      H        0.53810    0.26740    0.28710    1.000
    C80      C        0.69400    0.41950    0.42000    1.000
    C81      C        0.74400    0.49100    0.48880    1.000
    C82      C        0.81700    0.55200    0.42080    1.000
    C83      C        0.73500    0.49560    0.53890    1.000
    C84      C        0.63600    0.43900    0.56180    1.000
    H41      H        0.57260    0.39760    0.54430    1.000
    C85      C        0.62900    0.44310    0.61140    1.000
    H42      H        0.55960    0.40570    0.62710    1.000
    C86      C        0.72800    0.50420    0.63730    1.000
    C87      C        0.82100    0.55900    0.61360    1.000
    H43      H        0.88540    0.60010    0.63080    1.000
    C88      C        0.82600    0.55790    0.56520    1.000
    H44      H        0.88950    0.59880    0.54990    1.000
    C89      C        0.72200    0.50650    0.68810    1.000
    C90      C        0.87900    0.62680    0.39470    1.000
    C91      C        0.89700    0.70650    0.41820    1.000
    H45      H        0.86590    0.71240    0.44940    1.000
    C92      C        0.96200    0.77790    0.39480    1.000
    H46      H        0.97160    0.83220    0.41030    1.000
    C93      C        0.01200    0.77060    0.35090    1.000
    C94      C        0.99400    0.68890    0.32650    1.000
    H47      H        0.02370    0.68320    0.29510    1.000
    C95      C        0.93400    0.61930    0.35000    1.000
    H48      H        0.92960    0.56420    0.33520    1.000
    C96      C        0.07200    0.84750    0.32650    1.000
