data_functionalizedCrystal
_audit_creation_method	'EQeq! by Chris Wilmer'
_symmetry_space_group_name_H-M	'P1'
_symmetry_Int_Tables_number	1
_symmetry_cell_setting	triclinic
loop_
_symmetry_equiv_pos_as_xyz
  x,y,z
_cell_length_a	11.6985
_cell_length_b	11.6985
_cell_length_c	27.669
_cell_angle_alpha	90
_cell_angle_beta	90
_cell_angle_gamma	90
loop_
_atom_site_label
_atom_site_type_symbol
_atom_site_fract_x
_atom_site_fract_y
_atom_site_fract_z
_atom_site_charge
Mof_Li	Li	0.2282	0.2162	0.0815	-4.23
Mof_C 	C 	0.1521	0.5763	0.01006	0.228
Mof_C 	C 	0.1385	0.463	0.02294	-0.081
Mof_C 	C 	0.1176	0.4336	0.07185	0.072
Mof_C 	C 	0.1156	0.6308	0.0851	-0.156
Mof_H 	H 	0.1035	0.6889	0.1075	0.035
Mof_C 	C 	0.175	0.4773	0.9464	0.195
Mof_H 	H 	0.1884	0.4568	0.9144	0.16
Mof_N 	N 	0.1036	0.5244	0.10221	0.013
Mof_N 	N 	0.1421	0.6649	0.04103	-0.23
Mof_N 	N 	0.1525	0.3997	0.98104	-0.109
Mof_N 	N 	0.1768	0.5851	0.96125	-0.63
Mof_O 	O 	0.1119	0.3318	0.08731	-0.539
Mof_H 	H 	0.0871	0.5132	0.1321	-0.912
Mof_H 	H 	0.1524	0.7385	0.0326	0.157
Mof_H 	H 	0.1901	0.6457	0.9446	1.538
Mof_Li	Li	0.7282	0.7162	0.5815	-3.924
Mof_C 	C 	0.6521	0.0763	0.51006	1.017
Mof_C 	C 	0.6385	0.963	0.52294	-0.656
Mof_C 	C 	0.6176	0.9336	0.57185	0.229
Mof_C 	C 	0.6156	0.1308	0.5851	0.353
Mof_H 	H 	0.6035	0.1889	0.6075	0.048
Mof_C 	C 	0.675	0.9773	0.4464	-0.279
Mof_H 	H 	0.6884	0.9568	0.4144	0.157
Mof_N 	N 	0.6036	0.0244	0.60221	0.006
Mof_N 	N 	0.6421	0.1649	0.54103	-0.377
Mof_N 	N 	0.6525	0.8997	0.48104	0.083
Mof_N 	N 	0.6768	0.0851	0.46125	-0.399
Mof_O 	O 	0.6119	0.8318	0.58731	-1.099
Mof_H 	H 	0.5871	0.0132	0.6321	-0.132
Mof_H 	H 	0.6524	0.2385	0.5326	0.302
Mof_H 	H 	0.6901	0.1457	0.4446	1.43
Mof_Li	Li	0.2718	0.7838	0.5815	-1.212
Mof_C 	C 	0.3479	0.4237	0.51006	0.241
Mof_C 	C 	0.3615	0.537	0.52294	-0.322
Mof_C 	C 	0.3824	0.5664	0.57185	0.796
Mof_C 	C 	0.3844	0.3692	0.5851	0.345
Mof_H 	H 	0.3965	0.3111	0.6075	-0.019
Mof_C 	C 	0.325	0.5227	0.4464	0.119
Mof_H 	H 	0.3116	0.5432	0.4144	-0.048
Mof_N 	N 	0.3964	0.4756	0.60221	-0.718
Mof_N 	N 	0.3579	0.3351	0.54103	-0.322
Mof_N 	N 	0.3475	0.6003	0.48104	-0.107
Mof_N 	N 	0.3232	0.4149	0.46125	-0.399
Mof_O 	O 	0.3881	0.6682	0.58731	-1.635
Mof_H 	H 	0.4129	0.4868	0.6321	1.219
Mof_H 	H 	0.3476	0.2615	0.5326	0.149
Mof_H 	H 	0.3099	0.3543	0.4446	0.396
Mof_Li	Li	0.7718	0.2838	0.0815	-4.693
Mof_C 	C 	0.8479	0.9237	0.01006	0.11
Mof_C 	C 	0.8615	0.037	0.02294	0.276
Mof_C 	C 	0.8824	0.0664	0.07185	1.636
Mof_C 	C 	0.8844	0.8692	0.0851	1.012
Mof_H 	H 	0.8965	0.8111	0.1075	0.074
Mof_C 	C 	0.825	0.0227	0.9464	1.28
Mof_H 	H 	0.8116	0.0432	0.9144	-0.157
Mof_N 	N 	0.8964	0.9756	0.10221	-1.996
Mof_N 	N 	0.8579	0.8351	0.04103	-0.34
Mof_N 	N 	0.8475	0.1003	0.98104	-0.077
Mof_N 	N 	0.8232	0.9149	0.96125	-1.033
Mof_O 	O 	0.8881	0.1682	0.08731	0.003
Mof_H 	H 	0.9129	0.9868	0.1321	4.896
Mof_H 	H 	0.8476	0.7615	0.0326	0.379
Mof_H 	H 	0.8099	0.8543	0.9446	1.826
Mof_Li	Li	0.5338	0.4782	0.3315	-1.836
Mof_C 	C 	0.1737	0.4021	0.26006	-0.052
Mof_C 	C 	0.287	0.3885	0.27294	-0.149
Mof_C 	C 	0.3164	0.3676	0.32185	0.724
Mof_C 	C 	0.1192	0.3656	0.3351	0.119
Mof_H 	H 	0.0611	0.3535	0.3575	-0.2
Mof_C 	C 	0.2727	0.425	0.1964	-0.136
Mof_H 	H 	0.2932	0.4384	0.1644	0.183
Mof_N 	N 	0.2256	0.3536	0.35221	-0.495
Mof_N 	N 	0.0851	0.3921	0.29103	-0.217
Mof_N 	N 	0.3503	0.4025	0.23104	-0.034
Mof_N 	N 	0.1649	0.4268	0.21125	0.118
Mof_O 	O 	0.4182	0.3619	0.33731	-1.958
Mof_H 	H 	0.2368	0.3371	0.3821	0.426
Mof_H 	H 	0.0115	0.4024	0.2826	-0.249
Mof_H 	H 	0.1043	0.4401	0.1946	-1.045
Mof_Li	Li	0.0338	0.9782	0.8315	5.785
Mof_C 	C 	0.6737	0.9021	0.76006	0.137
Mof_C 	C 	0.787	0.8885	0.77294	-0.285
Mof_C 	C 	0.8164	0.8676	0.82185	0.756
Mof_C 	C 	0.6192	0.8656	0.8351	0.345
Mof_H 	H 	0.5611	0.8535	0.8575	0.01
Mof_C 	C 	0.7727	0.925	0.6964	-0.038
Mof_H 	H 	0.7932	0.9384	0.6644	0.14
Mof_N 	N 	0.7256	0.8536	0.85221	-0.781
Mof_N 	N 	0.5851	0.8921	0.79103	-0.297
Mof_N 	N 	0.8503	0.9025	0.73104	0.097
Mof_N 	N 	0.6649	0.9268	0.71125	-0.088
Mof_O 	O 	0.9182	0.8619	0.83731	-1.312
Mof_H 	H 	0.7368	0.8371	0.8821	1.615
Mof_H 	H 	0.5115	0.9024	0.7826	0.097
Mof_H 	H 	0.6043	0.9401	0.6946	-0.564
Mof_Li	Li	0.9662	0.5218	0.8315	-11.439
Mof_C 	C 	0.3263	0.5979	0.76006	0.336
Mof_C 	C 	0.213	0.6115	0.77294	0.025
Mof_C 	C 	0.1836	0.6324	0.82185	0.241
Mof_C 	C 	0.3808	0.6344	0.8351	0.396
Mof_H 	H 	0.4389	0.6465	0.8575	0.07
Mof_C 	C 	0.2273	0.575	0.6964	0.313
Mof_H 	H 	0.2068	0.5616	0.6644	-0.158
Mof_N 	N 	0.2744	0.6464	0.85221	-0.608
Mof_N 	N 	0.4149	0.6079	0.79103	-0.286
Mof_N 	N 	0.1497	0.5975	0.73104	-0.237
Mof_N 	N 	0.3351	0.5732	0.71125	-0.61
Mof_O 	O 	0.0818	0.6381	0.83731	0.964
Mof_H 	H 	0.2632	0.6629	0.8821	1.463
Mof_H 	H 	0.4885	0.5976	0.7826	0.252
Mof_H 	H 	0.3957	0.5599	0.6946	1.249
Mof_Li	Li	0.4662	0.0218	0.3315	-6.782
Mof_C 	C 	0.8263	0.0979	0.26006	1.205
Mof_C 	C 	0.713	0.1115	0.27294	-0.389
Mof_C 	C 	0.6836	0.1324	0.32185	1.007
Mof_C 	C 	0.8808	0.1344	0.3351	0.693
Mof_H 	H 	0.9389	0.1465	0.3575	0.251
Mof_C 	C 	0.7273	0.075	0.1964	1.204
Mof_H 	H 	0.7068	0.0616	0.1644	-0.059
Mof_N 	N 	0.7744	0.1464	0.35221	-0.784
Mof_N 	N 	0.9149	0.1079	0.29103	-0.473
Mof_N 	N 	0.6497	0.0975	0.23104	-0.034
Mof_N 	N 	0.8351	0.0732	0.21125	-1.912
Mof_O 	O 	0.5818	0.1381	0.33731	-1.003
Mof_H 	H 	0.7632	0.1629	0.3821	1.501
Mof_H 	H 	0.9885	0.0976	0.2826	0.891
Mof_H 	H 	0.8957	0.0599	0.1946	5.64
Mof_Li	Li	0.7718	0.7838	0.9185	-4.597
Mof_C 	C 	0.8479	0.4237	0.98994	0.681
Mof_C 	C 	0.8615	0.537	0.97706	-0.184
Mof_C 	C 	0.8824	0.5664	0.92815	1.041
Mof_C 	C 	0.8844	0.3692	0.9149	1.01
Mof_H 	H 	0.8965	0.3111	0.8925	0.082
Mof_C 	C 	0.825	0.5227	0.0536	0.61
Mof_H 	H 	0.8116	0.5432	0.0856	-0.059
Mof_N 	N 	0.8964	0.4756	0.89779	-1.399
Mof_N 	N 	0.8579	0.3351	0.95897	-0.402
Mof_N 	N 	0.8475	0.6003	0.01896	0.038
Mof_N 	N 	0.8232	0.4149	0.03875	-0.774
Mof_O 	O 	0.8881	0.6682	0.91269	0.424
Mof_H 	H 	0.9129	0.4868	0.8679	4.011
Mof_H 	H 	0.8476	0.2615	0.9674	0.411
Mof_H 	H 	0.8099	0.3543	0.0554	1.831
Mof_Li	Li	0.2718	0.2838	0.4185	-1.192
Mof_C 	C 	0.3479	0.9237	0.48994	-0.298
Mof_C 	C 	0.3615	0.037	0.47706	0.106
Mof_C 	C 	0.3824	0.0664	0.42815	1.396
Mof_C 	C 	0.3844	0.8692	0.4149	0.348
Mof_H 	H 	0.3965	0.8111	0.3925	-0.024
Mof_C 	C 	0.325	0.0227	0.5536	0.794
Mof_H 	H 	0.3116	0.0432	0.5856	-0.154
Mof_N 	N 	0.3964	0.9756	0.39779	-1.297
Mof_N 	N 	0.3579	0.8351	0.45897	-0.264
Mof_N 	N 	0.3475	0.1003	0.51896	-0.218
Mof_N 	N 	0.3232	0.9149	0.53875	-0.668
Mof_O 	O 	0.3881	0.1682	0.41269	-2.121
Mof_H 	H 	0.4129	0.9868	0.3679	2.063
Mof_H 	H 	0.3476	0.7615	0.4674	0.121
Mof_H 	H 	0.3099	0.8543	0.5554	0.438
Mof_Li	Li	0.7282	0.2162	0.4185	-3.954
Mof_C 	C 	0.6521	0.5763	0.48994	0.464
Mof_C 	C 	0.6385	0.463	0.47706	-0.213
Mof_C 	C 	0.6176	0.4336	0.42815	0.819
Mof_C 	C 	0.6156	0.6308	0.4149	0.351
Mof_H 	H 	0.6035	0.6889	0.3925	0.044
Mof_C 	C 	0.675	0.4773	0.5536	0.411
Mof_H 	H 	0.6884	0.4568	0.5856	0.052
Mof_N 	N 	0.6036	0.5244	0.39779	-0.565
Mof_N 	N 	0.6421	0.6649	0.45897	-0.316
Mof_N 	N 	0.6525	0.3997	0.51896	-0.029
Mof_N 	N 	0.6768	0.5851	0.53875	-0.669
Mof_O 	O 	0.6119	0.3318	0.41269	-1.575
Mof_H 	H 	0.5871	0.5132	0.3679	0.695
Mof_H 	H 	0.6524	0.7385	0.4674	0.271
Mof_H 	H 	0.6901	0.6457	0.5554	1.454
Mof_Li	Li	0.2282	0.7162	0.9185	-4.157
Mof_C 	C 	0.1521	0.0763	0.98994	0.76
Mof_C 	C 	0.1385	0.963	0.97706	-0.508
Mof_C 	C 	0.1176	0.9336	0.92815	-0.478
Mof_C 	C 	0.1156	0.1308	0.9149	-0.142
Mof_H 	H 	0.1035	0.1889	0.8925	0.033
Mof_C 	C 	0.175	0.9773	0.0536	-0.473
Mof_H 	H 	0.1884	0.9568	0.0856	0.268
Mof_N 	N 	0.1036	0.0244	0.89779	0.546
Mof_N 	N 	0.1421	0.1649	0.95897	-0.292
Mof_N 	N 	0.1525	0.8997	0.01896	0.003
Mof_N 	N 	0.1768	0.0851	0.03875	-0.363
Mof_O 	O 	0.1119	0.8318	0.91269	-0.104
Mof_H 	H 	0.0871	0.0132	0.8679	-1.651
Mof_H 	H 	0.1524	0.2385	0.9674	0.186
Mof_H 	H 	0.1901	0.1457	0.0554	1.532
Mof_Li	Li	0.4662	0.5218	0.6685	-3.443
Mof_C 	C 	0.8263	0.5979	0.73994	0.987
Mof_C 	C 	0.713	0.6115	0.72706	-0.427
Mof_C 	C 	0.6836	0.6324	0.67815	0.916
Mof_C 	C 	0.8808	0.6344	0.6649	0.595
Mof_H 	H 	0.9389	0.6465	0.6425	0.21
Mof_C 	C 	0.7273	0.575	0.8036	0.912
Mof_H 	H 	0.7068	0.5616	0.8356	-0.08
Mof_N 	N 	0.7744	0.6464	0.64779	-0.779
Mof_N 	N 	0.9149	0.6079	0.70897	-0.442
Mof_N 	N 	0.6497	0.5975	0.76896	-0.075
Mof_N 	N 	0.8351	0.5732	0.78875	-1.522
Mof_O 	O 	0.5818	0.6381	0.66269	-1.231
Mof_H 	H 	0.7632	0.6629	0.6179	1.429
Mof_H 	H 	0.9885	0.5976	0.7174	0.777
Mof_H 	H 	0.8957	0.5599	0.8054	4.331
Mof_Li	Li	0.9662	0.0218	0.1685	-14.927
Mof_C 	C 	0.3263	0.0979	0.23994	0.545
Mof_C 	C 	0.213	0.1115	0.22706	0.073
Mof_C 	C 	0.1836	0.1324	0.17815	0.319
Mof_C 	C 	0.3808	0.1344	0.1649	0.494
Mof_H 	H 	0.4389	0.1465	0.1425	0.113
Mof_C 	C 	0.2273	0.075	0.3036	0.596
Mof_H 	H 	0.2068	0.0616	0.3356	-0.14
Mof_N 	N 	0.2744	0.1464	0.14779	-0.613
Mof_N 	N 	0.4149	0.1079	0.20897	-0.315
Mof_N 	N 	0.1497	0.0975	0.26896	-0.197
Mof_N 	N 	0.3351	0.0732	0.28875	-0.984
Mof_O 	O 	0.0818	0.1381	0.16269	1.25
Mof_H 	H 	0.2632	0.1629	0.1179	1.548
Mof_H 	H 	0.4885	0.0976	0.2174	0.362
Mof_H 	H 	0.3957	0.0599	0.3054	2.502
Mof_Li	Li	0.0338	0.4782	0.1685	2.798
Mof_C 	C 	0.6737	0.4021	0.23994	0.346
Mof_C 	C 	0.787	0.3885	0.22706	-0.25
Mof_C 	C 	0.8164	0.3676	0.17815	0.852
Mof_C 	C 	0.6192	0.3656	0.1649	0.444
Mof_H 	H 	0.5611	0.3535	0.1425	0.05
Mof_C 	C 	0.7727	0.425	0.3036	0.241
Mof_H 	H 	0.7932	0.4384	0.3356	0.163
Mof_N 	N 	0.7256	0.3536	0.14779	-0.792
Mof_N 	N 	0.5851	0.3921	0.20897	-0.328
Mof_N 	N 	0.8503	0.4025	0.26896	0.141
Mof_N 	N 	0.6649	0.4268	0.28875	-0.455
Mof_O 	O 	0.9182	0.3619	0.16269	-1.102
Mof_H 	H 	0.7368	0.3371	0.1179	1.71
Mof_H 	H 	0.5115	0.4024	0.2174	0.205
Mof_H 	H 	0.6043	0.4401	0.3054	0.665
Mof_Li	Li	0.5338	0.9782	0.6685	1.441
Mof_C 	C 	0.1737	0.9021	0.73994	-0.238
Mof_C 	C 	0.287	0.8885	0.72706	-0.196
Mof_C 	C 	0.3164	0.8676	0.67815	0.641
Mof_C 	C 	0.1192	0.8656	0.6649	0.033
Mof_H 	H 	0.0611	0.8535	0.6425	-0.233
Mof_C 	C 	0.2727	0.925	0.8036	-0.39
Mof_H 	H 	0.2932	0.9384	0.8356	0.157
Mof_N 	N 	0.2256	0.8536	0.64779	-0.496
Mof_N 	N 	0.0851	0.8921	0.70897	-0.192
Mof_N 	N 	0.3503	0.9025	0.76896	-0.076
Mof_N 	N 	0.1649	0.9268	0.78875	0.451
Mof_O 	O 	0.4182	0.8619	0.66269	-2.174
Mof_H 	H 	0.2368	0.8371	0.6179	0.374
Mof_H 	H 	0.0115	0.9024	0.7174	-0.339
Mof_H 	H 	0.1043	0.9401	0.8054	-2.166
Mof_Li	Li	-2.22474e-33	0.25	0.125	4.362
Mof_Li	Li	0.5	0.75	0.625	7.594
Mof_Li	Li	0.5	0.25	0.375	9.899
Mof_Li	Li	-1.89064e-32	0.75	0.875	2.23
_end
