# CIF file generated by openbabel 3.1.0, see https://openbabel.org
data_I
_chemical_name_common 'KEGYAX_clean'
_cell_length_a 6.3632
_cell_length_b 9.4906
_cell_length_c 15.1002
_cell_angle_alpha 96.575
_cell_angle_beta 93.094
_cell_angle_gamma 100.221
_space_group_name_H-M_alt 'P 1'
_space_group_name_Hall 'P 1'
loop_
    _symmetry_equiv_pos_as_xyz
    x,y,z
loop_
    _atom_site_label
    _atom_site_type_symbol
    _atom_site_fract_x
    _atom_site_fract_y
    _atom_site_fract_z
    _atom_site_occupancy
    Ag1      Ag       0.62477    0.13980    0.98749    1.000
    Ag2      Ag       0.13808    0.58685    0.57397    1.000
    Ag3      Ag       0.44510    0.59046    0.41613    1.000
    Ag4      Ag       0.37523    0.86020    0.01251    1.000
    Ag5      Ag       0.86192    0.41315    0.42603    1.000
    Ag6      Ag       0.55490    0.40954    0.58387    1.000
    H1       H        0.17800    0.60100    0.20100    1.000
    H2       H        0.54900    0.11000    0.42300    1.000
    H3       H        0.11400    0.11500    0.10000    1.000
    H4       H        0.76980    0.00320    0.26530    1.000
    H5       H        0.77760    0.76940    0.25780    1.000
    H6       H        0.86740    0.90580    0.39010    1.000
    H7       H        0.18580    0.00660    0.45650    1.000
    H8       H        0.00050    0.13670    0.38090    1.000
    H9       H        0.01430    0.18970    0.24210    1.000
    H10      H        0.82200    0.39900    0.79900    1.000
    H11      H        0.45100    0.89000    0.57700    1.000
    H12      H        0.88600    0.88500    0.90000    1.000
    H13      H        0.23020    0.99680    0.73470    1.000
    H14      H        0.22240    0.23060    0.74220    1.000
    H15      H        0.13260    0.09420    0.60990    1.000
    H16      H        0.81420    0.99340    0.54350    1.000
    H17      H        0.99950    0.86330    0.61910    1.000
    H18      H        0.98570    0.81030    0.75790    1.000
    C1       C        0.88340    0.97460    0.22980    1.000
    C2       C        0.91800    0.83330    0.26400    1.000
    C3       C        0.98560    0.86480    0.36510    1.000
    C4       C        0.18100    0.98540    0.39130    1.000
    C5       C        0.13410    0.12280    0.35470    1.000
    C6       C        0.07220    0.10390    0.25340    1.000
    C7       C        0.78380    0.95270    0.13450    1.000
    C8       C        0.06170    0.75710    0.20700    1.000
    C9       C        0.98610    0.73120    0.41190    1.000
    C10      C        0.39350    0.93680    0.37160    1.000
    C11      C        0.28770    0.26320    0.38890    1.000
    C12      C        0.26880    0.10770    0.20040    1.000
    C13      C        0.11660    0.02540    0.77020    1.000
    C14      C        0.08200    0.16670    0.73600    1.000
    C15      C        0.01440    0.13520    0.63490    1.000
    C16      C        0.81900    0.01460    0.60870    1.000
    C17      C        0.86590    0.87720    0.64530    1.000
    C18      C        0.92780    0.89610    0.74660    1.000
    C19      C        0.21620    0.04730    0.86550    1.000
    C20      C        0.93830    0.24290    0.79300    1.000
    C21      C        0.01390    0.26880    0.58810    1.000
    C22      C        0.60650    0.06320    0.62840    1.000
    C23      C        0.71230    0.73680    0.61110    1.000
    C24      C        0.73120    0.89230    0.79960    1.000
    O1       O        0.83390    0.05220    0.08600    1.000
    O2       O        0.64650    0.84020    0.11000    1.000
    O3       O        0.15050    0.80930    0.14680    1.000
    O4       O        0.06950    0.62460    0.22500    1.000
    O5       O        0.12150    0.73930    0.47640    1.000
    O6       O        0.83930    0.62500    0.38660    1.000
    O7       O        0.40580    0.82070    0.33270    1.000
    O8       O        0.56980    0.02560    0.40730    1.000
    O9       O        0.43480    0.26210    0.44790    1.000
    O10      O        0.24930    0.37630    0.36010    1.000
    O11      O        0.44520    0.11510    0.23620    1.000
    O12      O        0.24540    0.11820    0.11440    1.000
    O13      O        0.16610    0.94780    0.91400    1.000
    O14      O        0.35350    0.15980    0.89000    1.000
    O15      O        0.84950    0.19070    0.85320    1.000
    O16      O        0.93050    0.37540    0.77500    1.000
    O17      O        0.87850    0.26070    0.52360    1.000
    O18      O        0.16070    0.37500    0.61340    1.000
    O19      O        0.59420    0.17930    0.66730    1.000
    O20      O        0.43020    0.97440    0.59270    1.000
    O21      O        0.56520    0.73790    0.55210    1.000
    O22      O        0.75070    0.62370    0.63990    1.000
    O23      O        0.55480    0.88490    0.76380    1.000
    O24      O        0.75460    0.88180    0.88560    1.000
