data_functionalizedCrystal
_audit_creation_method	'EQeq! by Chris Wilmer'
_symmetry_space_group_name_H-M	'P1'
_symmetry_Int_Tables_number	1
_symmetry_cell_setting	triclinic
loop_
_symmetry_equiv_pos_as_xyz
  x,y,z
_cell_length_a	16.8701
_cell_length_b	16.8701
_cell_length_c	16.8701
_cell_angle_alpha	90
_cell_angle_beta	90
_cell_angle_gamma	90
loop_
_atom_site_label
_atom_site_type_symbol
_atom_site_fract_x
_atom_site_fract_y
_atom_site_fract_z
_atom_site_charge
Mof_O 	O 	0.01704	0.59499	0.30414	-0.442
Mof_O 	O 	0.51704	0.09499	0.80414	-0.37
Mof_O 	O 	0.98296	0.40501	0.30414	-0.207
Mof_O 	O 	0.48296	0.90501	0.80414	-0.21
Mof_O 	O 	0.98296	0.59499	0.69586	-0.185
Mof_O 	O 	0.48296	0.09499	0.19586	-0.393
Mof_O 	O 	0.01704	0.40501	0.69586	-0.441
Mof_O 	O 	0.51704	0.90501	0.19586	-0.231
Mof_O 	O 	0.30414	0.01704	0.59499	-0.443
Mof_O 	O 	0.80414	0.51704	0.09499	-0.371
Mof_O 	O 	0.30414	0.98296	0.40501	-0.208
Mof_O 	O 	0.80414	0.48296	0.90501	-0.21
Mof_O 	O 	0.69586	0.98296	0.59499	-0.185
Mof_O 	O 	0.19586	0.48296	0.09499	-0.393
Mof_O 	O 	0.69586	0.01704	0.40501	-0.441
Mof_O 	O 	0.19586	0.51704	0.90501	-0.231
Mof_O 	O 	0.59499	0.30414	0.01704	-0.443
Mof_O 	O 	0.09499	0.80414	0.51704	-0.371
Mof_O 	O 	0.40501	0.30414	0.98296	-0.208
Mof_O 	O 	0.90501	0.80414	0.48296	-0.21
Mof_O 	O 	0.59499	0.69586	0.98296	-0.185
Mof_O 	O 	0.09499	0.19586	0.48296	-0.393
Mof_O 	O 	0.40501	0.69586	0.01704	-0.441
Mof_O 	O 	0.90501	0.19586	0.51704	-0.231
Mof_O 	O 	0.59499	0.01704	0.30414	-0.443
Mof_O 	O 	0.09499	0.51704	0.80414	-0.371
Mof_O 	O 	0.40501	0.98296	0.30414	-0.208
Mof_O 	O 	0.90501	0.48296	0.80414	-0.21
Mof_O 	O 	0.59499	0.98296	0.69586	-0.185
Mof_O 	O 	0.09499	0.48296	0.19586	-0.393
Mof_O 	O 	0.40501	0.01704	0.69586	-0.441
Mof_O 	O 	0.90501	0.51704	0.19586	-0.231
Mof_O 	O 	0.01704	0.30414	0.59499	-0.443
Mof_O 	O 	0.51704	0.80414	0.09499	-0.371
Mof_O 	O 	0.98296	0.30414	0.40501	-0.208
Mof_O 	O 	0.48296	0.80414	0.90501	-0.21
Mof_O 	O 	0.98296	0.69586	0.59499	-0.185
Mof_O 	O 	0.48296	0.19586	0.09499	-0.393
Mof_O 	O 	0.01704	0.69586	0.40501	-0.441
Mof_O 	O 	0.51704	0.19586	0.90501	-0.231
Mof_O 	O 	0.30414	0.59499	0.01704	-0.443
Mof_O 	O 	0.80414	0.09499	0.51704	-0.371
Mof_O 	O 	0.30414	0.40501	0.98296	-0.208
Mof_O 	O 	0.80414	0.90501	0.48296	-0.21
Mof_O 	O 	0.69586	0.59499	0.98296	-0.185
Mof_O 	O 	0.19586	0.09499	0.48296	-0.393
Mof_O 	O 	0.69586	0.40501	0.01704	-0.441
Mof_O 	O 	0.19586	0.90501	0.51704	-0.231
Mof_Ga	Ga	1.8747e-33	0.5	0.5	2.478
Mof_Ga	Ga	0.5	0	-0	1.388
Mof_Ga	Ga	0.5	0	0.5	2.478
Mof_Ga	Ga	-0	0.5	-0	1.388
Mof_Ga	Ga	0.5	0.5	-0	2.478
Mof_Ga	Ga	1.8747e-33	0	0.5	1.388
Mof_Fe	Fe	6.19507e-33	0.5	0.25	0.62
Mof_Fe	Fe	8.06977e-33	0.5	0.75	0.647
Mof_Fe	Fe	0.5	0	0.25	0.62
Mof_Fe	Fe	0.25	0	0.5	0.62
Mof_Fe	Fe	0.75	0	0.5	0.647
Mof_Fe	Fe	0.25	0.5	-0	0.62
Mof_Fe	Fe	0.5	0.25	-0	0.62
Mof_Fe	Fe	0.5	0.75	-0	0.647
Mof_Fe	Fe	1.8747e-33	0.25	0.5	0.62
Mof_Fe	Fe	0.5	0	0.75	0.647
Mof_Fe	Fe	7.13242e-33	0.75	0.5	0.647
Mof_Fe	Fe	0.75	0.5	-0	0.647
Mof_P 	P 	0.06541	0.62451	0.37549	0.628
Mof_O 	O 	0.14853	0.64631	0.35369	-0.215
Mof_O 	O 	0.06784	0.56019	0.43981	-0.809
Mof_P 	P 	0.56541	0.12451	0.87549	0.578
Mof_O 	O 	0.64853	0.14631	0.85369	-0.164
Mof_O 	O 	0.56784	0.06019	0.93981	-0.464
Mof_P 	P 	0.93459	0.37549	0.37549	0.617
Mof_O 	O 	0.85147	0.35369	0.35369	-0.183
Mof_O 	O 	0.93216	0.43981	0.43981	-0.625
Mof_P 	P 	0.43459	0.87549	0.87549	0.581
Mof_O 	O 	0.35147	0.85369	0.85369	-0.094
Mof_O 	O 	0.43216	0.93981	0.93981	-0.265
Mof_P 	P 	0.93459	0.62451	0.62451	0.62
Mof_O 	O 	0.85147	0.64631	0.64631	-0.143
Mof_O 	O 	0.93216	0.56019	0.56019	-0.626
Mof_P 	P 	0.43459	0.12451	0.12451	0.577
Mof_O 	O 	0.35147	0.14631	0.14631	-0.307
Mof_O 	O 	0.43216	0.06019	0.06019	-0.697
Mof_P 	P 	0.06541	0.37549	0.62451	0.628
Mof_O 	O 	0.14853	0.35369	0.64631	-0.215
Mof_O 	O 	0.06784	0.43981	0.56019	-0.809
Mof_P 	P 	0.56541	0.87549	0.12451	0.578
Mof_O 	O 	0.64853	0.85369	0.14631	-0.164
Mof_O 	O 	0.56784	0.93981	0.06019	-0.464
Mof_P 	P 	0.37549	0.06541	0.62451	0.628
Mof_O 	O 	0.35369	0.14853	0.64631	-0.215
Mof_O 	O 	0.43981	0.06784	0.56019	-0.809
Mof_P 	P 	0.87549	0.56541	0.12451	0.578
Mof_O 	O 	0.85369	0.64853	0.14631	-0.164
Mof_O 	O 	0.93981	0.56784	0.06019	-0.464
Mof_P 	P 	0.37549	0.93459	0.37549	0.617
Mof_O 	O 	0.35369	0.85147	0.35369	-0.183
Mof_O 	O 	0.43981	0.93216	0.43981	-0.625
Mof_P 	P 	0.87549	0.43459	0.87549	0.581
Mof_O 	O 	0.85369	0.35147	0.85369	-0.094
Mof_O 	O 	0.93981	0.43216	0.93981	-0.265
Mof_P 	P 	0.62451	0.93459	0.62451	0.62
Mof_O 	O 	0.64631	0.85147	0.64631	-0.143
Mof_O 	O 	0.56019	0.93216	0.56019	-0.626
Mof_P 	P 	0.12451	0.43459	0.12451	0.577
Mof_O 	O 	0.14631	0.35147	0.14631	-0.307
Mof_O 	O 	0.06019	0.43216	0.06019	-0.697
Mof_P 	P 	0.62451	0.06541	0.37549	0.628
Mof_O 	O 	0.64631	0.14853	0.35369	-0.215
Mof_O 	O 	0.56019	0.06784	0.43981	-0.809
Mof_P 	P 	0.12451	0.56541	0.87549	0.578
Mof_O 	O 	0.14631	0.64853	0.85369	-0.164
Mof_O 	O 	0.06019	0.56784	0.93981	-0.464
Mof_P 	P 	0.62451	0.37549	0.06541	0.628
Mof_O 	O 	0.64631	0.35369	0.14853	-0.215
Mof_O 	O 	0.56019	0.43981	0.06784	-0.809
Mof_P 	P 	0.12451	0.87549	0.56541	0.578
Mof_O 	O 	0.14631	0.85369	0.64853	-0.164
Mof_O 	O 	0.06019	0.93981	0.56784	-0.464
Mof_P 	P 	0.37549	0.37549	0.93459	0.617
Mof_O 	O 	0.35369	0.35369	0.85147	-0.183
Mof_O 	O 	0.43981	0.43981	0.93216	-0.625
Mof_P 	P 	0.87549	0.87549	0.43459	0.581
Mof_O 	O 	0.85369	0.85369	0.35147	-0.094
Mof_O 	O 	0.93981	0.93981	0.43216	-0.265
Mof_P 	P 	0.62451	0.62451	0.93459	0.62
Mof_O 	O 	0.64631	0.64631	0.85147	-0.143
Mof_O 	O 	0.56019	0.56019	0.93216	-0.626
Mof_P 	P 	0.12451	0.12451	0.43459	0.577
Mof_O 	O 	0.14631	0.14631	0.35147	-0.307
Mof_O 	O 	0.06019	0.06019	0.43216	-0.697
Mof_P 	P 	0.37549	0.62451	0.06541	0.628
Mof_O 	O 	0.35369	0.64631	0.14853	-0.215
Mof_O 	O 	0.43981	0.56019	0.06784	-0.809
Mof_P 	P 	0.87549	0.12451	0.56541	0.578
Mof_O 	O 	0.85369	0.14631	0.64853	-0.164
Mof_O 	O 	0.93981	0.06019	0.56784	-0.464
_end
