# CIF file generated by openbabel 3.1.0, see https://openbabel.org
data_I
_chemical_name_common 'image0'
_cell_length_a 13.166
_cell_length_b 34.112
_cell_length_c 10.078
_cell_angle_alpha 90
_cell_angle_beta 90
_cell_angle_gamma 90
_space_group_name_H-M_alt 'P 1'
_space_group_name_Hall 'P 1'
loop_
    _symmetry_equiv_pos_as_xyz
    x,y,z
loop_
    _atom_site_label
    _atom_site_type_symbol
    _atom_site_fract_x
    _atom_site_fract_y
    _atom_site_fract_z
    _atom_site_occupancy
    O1       O        0.18530    0.79177    0.19520    1.000
    O2       O        0.90380    0.21780    0.36650    1.000
    O3       O        0.02820    0.21760    0.51060    1.000
    O4       O        0.20730    0.80560    0.40630    1.000
    N1       N        0.13750    0.97940    0.18710    1.000
    H1       H        0.13350    0.99300    0.25890    1.000
    N2       N        0.13030    0.98560    0.95590    1.000
    N3       N        0.10910    0.06660    0.99190    1.000
    H2       H        0.10370    0.09210    0.00270    1.000
    N4       N        0.13300    0.05610    0.21900    1.000
    H3       H        0.17320    0.04280    0.27300    1.000
    C1       C        0.19090    0.81460    0.28860    1.000
    C2       C        0.17130    0.85790    0.26000    1.000
    C3       C        0.12080    0.01090    0.85010    1.000
    C4       C        0.16510    0.87190    0.13230    1.000
    H4       H        0.16780    0.85380    0.06080    1.000
    C5       C        0.14970    0.93780    0.20780    1.000
    C6       C        0.15530    0.92420    0.33690    1.000
    H5       H        0.15170    0.94240    0.40820    1.000
    C7       C        0.15490    0.91140    0.10420    1.000
    H6       H        0.15160    0.92030    0.01490    1.000
    C8       C        0.10960    0.05070    0.86450    1.000
    C9       C        0.13070    0.00050    0.07370    1.000
    C10      C        0.98870    0.10600    0.23470    1.000
    H7       H        0.94510    0.09030    0.18140    1.000
    C11      C        0.95410    0.14130    0.27980    1.000
    H8       H        0.88800    0.15030    0.25690    1.000
    C12      C        0.11140    0.02050    0.61260    1.000
    H9       H        0.11240    0.01030    0.52500    1.000
    C13      C        0.16600    0.88550    0.36390    1.000
    H10      H        0.16980    0.87680    0.45340    1.000
    C14      C        0.01780    0.16420    0.36050    1.000
    C15      C        0.12370    0.99520    0.71970    1.000
    H11      H        0.13370    0.96790    0.70580    1.000
    C16      C        0.98110    0.20310    0.41610    1.000
    C17      C        0.11700    0.04310    0.09800    1.000
    C18      C        0.09610    0.07610    0.76060    1.000
    H12      H        0.08590    0.10330    0.77570    1.000
    C19      C        0.09780    0.06090    0.63180    1.000
    H13      H        0.08970    0.07790    0.55770    1.000
    C20      C        0.08580    0.09200    0.26430    1.000
    C21      C        0.15110    0.11580    0.34510    1.000
    H14      H        0.21860    0.10760    0.36370    1.000
    C22      C        0.11490    0.15060    0.39530    1.000
    H15      H        0.15580    0.16550    0.45420    1.000
    N5       N        0.09800    0.05320    0.23400    1.000
    O5       O        0.31470    0.70823    0.19520    1.000
    O6       O        0.59620    0.28220    0.36650    1.000
    O7       O        0.47180    0.28240    0.51060    1.000
    O8       O        0.29270    0.69440    0.40630    1.000
    N6       N        0.36250    0.52060    0.18710    1.000
    H16      H        0.36650    0.50700    0.25890    1.000
    N7       N        0.36970    0.51440    0.95590    1.000
    N8       N        0.39090    0.43340    0.99190    1.000
    H17      H        0.39630    0.40790    0.00270    1.000
    N9       N        0.36700    0.44390    0.21900    1.000
    H18      H        0.32680    0.45720    0.27300    1.000
    C23      C        0.30910    0.68540    0.28860    1.000
    C24      C        0.32870    0.64210    0.26000    1.000
    C25      C        0.37920    0.48910    0.85010    1.000
    C26      C        0.33490    0.62810    0.13230    1.000
    H19      H        0.33220    0.64620    0.06080    1.000
    C27      C        0.35030    0.56220    0.20780    1.000
    C28      C        0.34470    0.57580    0.33690    1.000
    H20      H        0.34830    0.55760    0.40820    1.000
    C29      C        0.34510    0.58860    0.10420    1.000
    H21      H        0.34840    0.57970    0.01490    1.000
    C30      C        0.39040    0.44930    0.86450    1.000
    C31      C        0.36930    0.49950    0.07370    1.000
    C32      C        0.51130    0.39400    0.23470    1.000
    H22      H        0.55490    0.40970    0.18140    1.000
    C33      C        0.54590    0.35870    0.27980    1.000
    H23      H        0.61200    0.34970    0.25690    1.000
    C34      C        0.38860    0.47950    0.61260    1.000
    H24      H        0.38760    0.48970    0.52500    1.000
    C35      C        0.33400    0.61450    0.36390    1.000
    H25      H        0.33020    0.62320    0.45340    1.000
    C36      C        0.48220    0.33580    0.36050    1.000
    C37      C        0.37630    0.50480    0.71970    1.000
    H26      H        0.36630    0.53210    0.70580    1.000
    C38      C        0.51890    0.29690    0.41610    1.000
    C39      C        0.38300    0.45690    0.09800    1.000
    C40      C        0.40390    0.42390    0.76060    1.000
    H27      H        0.41410    0.39670    0.77570    1.000
    C41      C        0.40220    0.43910    0.63180    1.000
    H28      H        0.41030    0.42210    0.55770    1.000
    C42      C        0.41420    0.40800    0.26430    1.000
    C43      C        0.34890    0.38420    0.34510    1.000
    H29      H        0.28140    0.39240    0.36370    1.000
    C44      C        0.38510    0.34940    0.39530    1.000
    H30      H        0.34420    0.33450    0.45420    1.000
    N10      N        0.40200    0.44680    0.23400    1.000
    O9       O        0.81470    0.29177    0.30480    1.000
    O10      O        0.09620    0.71780    0.13350    1.000
    O11      O        0.97180    0.71760    0.98940    1.000
    O12      O        0.79270    0.30560    0.09370    1.000
    N11      N        0.86250    0.47940    0.31290    1.000
    H31      H        0.86650    0.49300    0.24110    1.000
    N12      N        0.86970    0.48560    0.54410    1.000
    N13      N        0.89090    0.56660    0.50810    1.000
    H32      H        0.89630    0.59210    0.49730    1.000
    N14      N        0.86700    0.55610    0.28100    1.000
    H33      H        0.82680    0.54280    0.22700    1.000
    C45      C        0.80910    0.31460    0.21140    1.000
    C46      C        0.82870    0.35790    0.24000    1.000
    C47      C        0.87920    0.51090    0.64990    1.000
    C48      C        0.83490    0.37190    0.36770    1.000
    H34      H        0.83220    0.35380    0.43920    1.000
    C49      C        0.85030    0.43780    0.29220    1.000
    C50      C        0.84470    0.42420    0.16310    1.000
    H35      H        0.84830    0.44240    0.09180    1.000
    C51      C        0.84510    0.41140    0.39580    1.000
    H36      H        0.84840    0.42030    0.48510    1.000
    C52      C        0.89040    0.55070    0.63550    1.000
    C53      C        0.86930    0.50050    0.42630    1.000
    C54      C        0.01130    0.60600    0.26530    1.000
    H37      H        0.05490    0.59030    0.31860    1.000
    C55      C        0.04590    0.64130    0.22020    1.000
    H38      H        0.11200    0.65030    0.24310    1.000
    C56      C        0.88860    0.52050    0.88740    1.000
    H39      H        0.88760    0.51030    0.97500    1.000
    C57      C        0.83400    0.38550    0.13610    1.000
    H40      H        0.83020    0.37680    0.04660    1.000
    C58      C        0.98220    0.66420    0.13950    1.000
    C59      C        0.87630    0.49520    0.78030    1.000
    H41      H        0.86630    0.46790    0.79420    1.000
    C60      C        0.01890    0.70310    0.08390    1.000
    C61      C        0.88300    0.54310    0.40200    1.000
    C62      C        0.90390    0.57610    0.73940    1.000
    H42      H        0.91410    0.60330    0.72430    1.000
    C63      C        0.90220    0.56090    0.86820    1.000
    H43      H        0.91030    0.57790    0.94230    1.000
    C64      C        0.91420    0.59200    0.23570    1.000
    C65      C        0.84890    0.61580    0.15490    1.000
    H44      H        0.78140    0.60760    0.13630    1.000
    C66      C        0.88510    0.65060    0.10470    1.000
    H45      H        0.84420    0.66550    0.04580    1.000
    N15      N        0.90200    0.55320    0.26600    1.000
    O13      O        0.68530    0.20823    0.30480    1.000
    O14      O        0.40380    0.78220    0.13350    1.000
    O15      O        0.52820    0.78240    0.98940    1.000
    O16      O        0.70730    0.19440    0.09370    1.000
    N16      N        0.63750    0.02060    0.31290    1.000
    H46      H        0.63350    0.00700    0.24110    1.000
    N17      N        0.63030    0.01440    0.54410    1.000
    N18      N        0.60910    0.93340    0.50810    1.000
    H47      H        0.60370    0.90790    0.49730    1.000
    N19      N        0.63300    0.94390    0.28100    1.000
    H48      H        0.67320    0.95720    0.22700    1.000
    C67      C        0.69090    0.18540    0.21140    1.000
    C68      C        0.67130    0.14210    0.24000    1.000
    C69      C        0.62080    0.98910    0.64990    1.000
    C70      C        0.66510    0.12810    0.36770    1.000
    H49      H        0.66780    0.14620    0.43920    1.000
    C71      C        0.64970    0.06220    0.29220    1.000
    C72      C        0.65530    0.07580    0.16310    1.000
    H50      H        0.65170    0.05760    0.09180    1.000
    C73      C        0.65490    0.08860    0.39580    1.000
    H51      H        0.65160    0.07970    0.48510    1.000
    C74      C        0.60960    0.94930    0.63550    1.000
    C75      C        0.63070    0.99950    0.42630    1.000
    C76      C        0.48870    0.89400    0.26530    1.000
    H52      H        0.44510    0.90970    0.31860    1.000
    C77      C        0.45410    0.85870    0.22020    1.000
    H53      H        0.38800    0.84970    0.24310    1.000
    C78      C        0.61140    0.97950    0.88740    1.000
    H54      H        0.61240    0.98970    0.97500    1.000
    C79      C        0.66600    0.11450    0.13610    1.000
    H55      H        0.66980    0.12320    0.04660    1.000
    C80      C        0.51780    0.83580    0.13950    1.000
    C81      C        0.62370    0.00480    0.78030    1.000
    H56      H        0.63370    0.03210    0.79420    1.000
    C82      C        0.48110    0.79690    0.08390    1.000
    C83      C        0.61700    0.95690    0.40200    1.000
    C84      C        0.59610    0.92390    0.73940    1.000
    H57      H        0.58590    0.89670    0.72430    1.000
    C85      C        0.59780    0.93910    0.86820    1.000
    H58      H        0.58970    0.92210    0.94230    1.000
    C86      C        0.58580    0.90800    0.23570    1.000
    C87      C        0.65110    0.88420    0.15490    1.000
    H59      H        0.71860    0.89240    0.13630    1.000
    C88      C        0.61490    0.84940    0.10470    1.000
    H60      H        0.65580    0.83450    0.04580    1.000
    N20      N        0.59800    0.94680    0.26600    1.000
    O17      O        0.81470    0.20823    0.80480    1.000
    O18      O        0.09620    0.78220    0.63350    1.000
    O19      O        0.97180    0.78240    0.48940    1.000
    O20      O        0.79270    0.19440    0.59370    1.000
    N21      N        0.86250    0.02060    0.81290    1.000
    H61      H        0.86650    0.00700    0.74110    1.000
    N22      N        0.86970    0.01440    0.04410    1.000
    N23      N        0.89090    0.93340    0.00810    1.000
    H62      H        0.89630    0.90790    0.99730    1.000
    N24      N        0.86700    0.94390    0.78100    1.000
    H63      H        0.82680    0.95720    0.72700    1.000
    C89      C        0.80910    0.18540    0.71140    1.000
    C90      C        0.82870    0.14210    0.74000    1.000
    C91      C        0.87920    0.98910    0.14990    1.000
    C92      C        0.83490    0.12810    0.86770    1.000
    H64      H        0.83220    0.14620    0.93920    1.000
    C93      C        0.85030    0.06220    0.79220    1.000
    C94      C        0.84470    0.07580    0.66310    1.000
    H65      H        0.84830    0.05760    0.59180    1.000
    C95      C        0.84510    0.08860    0.89580    1.000
    H66      H        0.84840    0.07970    0.98510    1.000
    C96      C        0.89040    0.94930    0.13550    1.000
    C97      C        0.86930    0.99950    0.92630    1.000
    C98      C        0.01130    0.89400    0.76530    1.000
    H67      H        0.05490    0.90970    0.81860    1.000
    C99      C        0.04590    0.85870    0.72020    1.000
    H68      H        0.11200    0.84970    0.74310    1.000
    C100     C        0.88860    0.97950    0.38740    1.000
    H69      H        0.88760    0.98970    0.47500    1.000
    C101     C        0.83400    0.11450    0.63610    1.000
    H70      H        0.83020    0.12320    0.54660    1.000
    C102     C        0.98220    0.83580    0.63950    1.000
    C103     C        0.87630    0.00480    0.28030    1.000
    H71      H        0.86630    0.03210    0.29420    1.000
    C104     C        0.01890    0.79690    0.58390    1.000
    C105     C        0.88300    0.95690    0.90200    1.000
    C106     C        0.90390    0.92390    0.23940    1.000
    H72      H        0.91410    0.89670    0.22430    1.000
    C107     C        0.90220    0.93910    0.36820    1.000
    H73      H        0.91030    0.92210    0.44230    1.000
    C108     C        0.91420    0.90800    0.73570    1.000
    C109     C        0.84890    0.88420    0.65490    1.000
    H74      H        0.78140    0.89240    0.63630    1.000
    C110     C        0.88510    0.84940    0.60470    1.000
    H75      H        0.84420    0.83450    0.54580    1.000
    N25      N        0.90200    0.94680    0.76600    1.000
    O21      O        0.68530    0.29177    0.80480    1.000
    O22      O        0.40380    0.71780    0.63350    1.000
    O23      O        0.52820    0.71760    0.48940    1.000
    O24      O        0.70730    0.30560    0.59370    1.000
    N26      N        0.63750    0.47940    0.81290    1.000
    H76      H        0.63350    0.49300    0.74110    1.000
    N27      N        0.63030    0.48560    0.04410    1.000
    N28      N        0.60910    0.56660    0.00810    1.000
    H77      H        0.60370    0.59210    0.99730    1.000
    N29      N        0.63300    0.55610    0.78100    1.000
    H78      H        0.67320    0.54280    0.72700    1.000
    C111     C        0.69090    0.31460    0.71140    1.000
    C112     C        0.67130    0.35790    0.74000    1.000
    C113     C        0.62080    0.51090    0.14990    1.000
    C114     C        0.66510    0.37190    0.86770    1.000
    H79      H        0.66780    0.35380    0.93920    1.000
    C115     C        0.64970    0.43780    0.79220    1.000
    C116     C        0.65530    0.42420    0.66310    1.000
    H80      H        0.65170    0.44240    0.59180    1.000
    C117     C        0.65490    0.41140    0.89580    1.000
    H81      H        0.65160    0.42030    0.98510    1.000
    C118     C        0.60960    0.55070    0.13550    1.000
    C119     C        0.63070    0.50050    0.92630    1.000
    C120     C        0.48870    0.60600    0.76530    1.000
    H82      H        0.44510    0.59030    0.81860    1.000
    C121     C        0.45410    0.64130    0.72020    1.000
    H83      H        0.38800    0.65030    0.74310    1.000
    C122     C        0.61140    0.52050    0.38740    1.000
    H84      H        0.61240    0.51030    0.47500    1.000
    C123     C        0.66600    0.38550    0.63610    1.000
    H85      H        0.66980    0.37680    0.54660    1.000
    C124     C        0.51780    0.66420    0.63950    1.000
    C125     C        0.62370    0.49520    0.28030    1.000
    H86      H        0.63370    0.46790    0.29420    1.000
    C126     C        0.48110    0.70310    0.58390    1.000
    C127     C        0.61700    0.54310    0.90200    1.000
    C128     C        0.59610    0.57610    0.23940    1.000
    H87      H        0.58590    0.60330    0.22430    1.000
    C129     C        0.59780    0.56090    0.36820    1.000
    H88      H        0.58970    0.57790    0.44230    1.000
    C130     C        0.58580    0.59200    0.73570    1.000
    C131     C        0.65110    0.61580    0.65490    1.000
    H89      H        0.71860    0.60760    0.63630    1.000
    C132     C        0.61490    0.65060    0.60470    1.000
    H90      H        0.65580    0.66550    0.54580    1.000
    N30      N        0.59800    0.55320    0.76600    1.000
    O25      O        0.18530    0.70823    0.69520    1.000
    O26      O        0.90380    0.28220    0.86650    1.000
    O27      O        0.02820    0.28240    0.01060    1.000
    O28      O        0.20730    0.69440    0.90630    1.000
    N31      N        0.13750    0.52060    0.68710    1.000
    H91      H        0.13350    0.50700    0.75890    1.000
    N32      N        0.13030    0.51440    0.45590    1.000
    N33      N        0.10910    0.43340    0.49190    1.000
    H92      H        0.10370    0.40790    0.50270    1.000
    N34      N        0.13300    0.44390    0.71900    1.000
    H93      H        0.17320    0.45720    0.77300    1.000
    C133     C        0.19090    0.68540    0.78860    1.000
    C134     C        0.17130    0.64210    0.76000    1.000
    C135     C        0.12080    0.48910    0.35010    1.000
    C136     C        0.16510    0.62810    0.63230    1.000
    H94      H        0.16780    0.64620    0.56080    1.000
    C137     C        0.14970    0.56220    0.70780    1.000
    C138     C        0.15530    0.57580    0.83690    1.000
    H95      H        0.15170    0.55760    0.90820    1.000
    C139     C        0.15490    0.58860    0.60420    1.000
    H96      H        0.15160    0.57970    0.51490    1.000
    C140     C        0.10960    0.44930    0.36450    1.000
    C141     C        0.13070    0.49950    0.57370    1.000
    C142     C        0.98870    0.39400    0.73470    1.000
    H97      H        0.94510    0.40970    0.68140    1.000
    C143     C        0.95410    0.35870    0.77980    1.000
    H98      H        0.88800    0.34970    0.75690    1.000
    C144     C        0.11140    0.47950    0.11260    1.000
    H99      H        0.11240    0.48970    0.02500    1.000
    C145     C        0.16600    0.61450    0.86390    1.000
    H100     H        0.16980    0.62320    0.95340    1.000
    C146     C        0.01780    0.33580    0.86050    1.000
    C147     C        0.12370    0.50480    0.21970    1.000
    H101     H        0.13370    0.53210    0.20580    1.000
    C148     C        0.98110    0.29690    0.91610    1.000
    C149     C        0.11700    0.45690    0.59800    1.000
    C150     C        0.09610    0.42390    0.26060    1.000
    H102     H        0.08590    0.39670    0.27570    1.000
    C151     C        0.09780    0.43910    0.13180    1.000
    H103     H        0.08970    0.42210    0.05770    1.000
    C152     C        0.08580    0.40800    0.76430    1.000
    C153     C        0.15110    0.38420    0.84510    1.000
    H104     H        0.21860    0.39240    0.86370    1.000
    C154     C        0.11490    0.34940    0.89530    1.000
    H105     H        0.15580    0.33450    0.95420    1.000
    N35      N        0.09800    0.44680    0.73400    1.000
    O29      O        0.31470    0.79177    0.69520    1.000
    O30      O        0.59620    0.21780    0.86650    1.000
    O31      O        0.47180    0.21760    0.01060    1.000
    O32      O        0.29270    0.80560    0.90630    1.000
    N36      N        0.36250    0.97940    0.68710    1.000
    H106     H        0.36650    0.99300    0.75890    1.000
    N37      N        0.36970    0.98560    0.45590    1.000
    N38      N        0.39090    0.06660    0.49190    1.000
    H107     H        0.39630    0.09210    0.50270    1.000
    N39      N        0.36700    0.05610    0.71900    1.000
    H108     H        0.32680    0.04280    0.77300    1.000
    C155     C        0.30910    0.81460    0.78860    1.000
    C156     C        0.32870    0.85790    0.76000    1.000
    C157     C        0.37920    0.01090    0.35010    1.000
    C158     C        0.33490    0.87190    0.63230    1.000
    H109     H        0.33220    0.85380    0.56080    1.000
    C159     C        0.35030    0.93780    0.70780    1.000
    C160     C        0.34470    0.92420    0.83690    1.000
    H110     H        0.34830    0.94240    0.90820    1.000
    C161     C        0.34510    0.91140    0.60420    1.000
    H111     H        0.34840    0.92030    0.51490    1.000
    C162     C        0.39040    0.05070    0.36450    1.000
    C163     C        0.36930    0.00050    0.57370    1.000
    C164     C        0.51130    0.10600    0.73470    1.000
    H112     H        0.55490    0.09030    0.68140    1.000
    C165     C        0.54590    0.14130    0.77980    1.000
    H113     H        0.61200    0.15030    0.75690    1.000
    C166     C        0.38860    0.02050    0.11260    1.000
    H114     H        0.38760    0.01030    0.02500    1.000
    C167     C        0.33400    0.88550    0.86390    1.000
    H115     H        0.33020    0.87680    0.95340    1.000
    C168     C        0.48220    0.16420    0.86050    1.000
    C169     C        0.37630    0.99520    0.21970    1.000
    H116     H        0.36630    0.96790    0.20580    1.000
    C170     C        0.51890    0.20310    0.91610    1.000
    C171     C        0.38300    0.04310    0.59800    1.000
    C172     C        0.40390    0.07610    0.26060    1.000
    H117     H        0.41410    0.10330    0.27570    1.000
    C173     C        0.40220    0.06090    0.13180    1.000
    H118     H        0.41030    0.07790    0.05770    1.000
    C174     C        0.41420    0.09200    0.76430    1.000
    C175     C        0.34890    0.11580    0.84510    1.000
    H119     H        0.28140    0.10760    0.86370    1.000
    C176     C        0.38510    0.15060    0.89530    1.000
    H120     H        0.34420    0.16550    0.95420    1.000
    N40      N        0.40200    0.05320    0.73400    1.000
    Eu1      Eu       0.25000    0.75000    0.03590    1.000
    Eu2      Eu       0.75000    0.25000    0.46410    1.000
    Eu3      Eu       0.75000    0.25000    0.96410    1.000
    Eu4      Eu       0.25000    0.75000    0.53590    1.000
