# CIF file generated by openbabel 3.1.0, see https://openbabel.org
data_I
_chemical_name_common 'image0'
_cell_length_a 15.631
_cell_length_b 18.456
_cell_length_c 27.517
_cell_angle_alpha 80.164
_cell_angle_beta 89.994
_cell_angle_gamma 76.264
_space_group_name_H-M_alt 'P 1'
_space_group_name_Hall 'P 1'
loop_
    _symmetry_equiv_pos_as_xyz
    x,y,z
loop_
    _atom_site_label
    _atom_site_type_symbol
    _atom_site_fract_x
    _atom_site_fract_y
    _atom_site_fract_z
    _atom_site_occupancy
    Ca1      Ca       0.58984    0.33511    0.58634    1.000
    Ca2      Ca       0.04931    0.82457    0.08797    1.000
    C1       C        0.70340    0.20530    0.62220    1.000
    C2       C        0.75850    0.12790    0.64750    1.000
    C3       C        0.74560    0.09500    0.69590    1.000
    H1       H        0.70290    0.12010    0.71470    1.000
    C4       C        0.79900    0.02310    0.71500    1.000
    H2       H        0.79070    0.00060    0.74700    1.000
    C5       C        0.86540    0.98330    0.68730    1.000
    C6       C        0.87890    0.02070    0.64070    1.000
    H3       H        0.92370    0.99640    0.62270    1.000
    C7       C        0.82790    0.09450    0.61880    1.000
    H4       H        0.83940    0.11880    0.58800    1.000
    C8       C        0.91500    0.90940    0.70820    1.000
    C9       C        0.94070    0.89290    0.75860    1.000
    H5       H        0.92820    0.93310    0.77590    1.000
    C10      C        0.98290    0.82270    0.78500    1.000
    C11      C        0.00020    0.75960    0.75690    1.000
    C12      C        0.97510    0.77420    0.70590    1.000
    C13      C        0.93080    0.84720    0.68320    1.000
    C14      C        0.00410    0.81440    0.83500    1.000
    C15      C        0.04320    0.86810    0.85310    1.000
    H6       H        0.06230    0.90440    0.83100    1.000
    C16      C        0.05270    0.86610    0.90380    1.000
    H7       H        0.07890    0.90080    0.91500    1.000
    C17      C        0.02480    0.81550    0.93650    1.000
    C18      C        0.98630    0.75950    0.92120    1.000
    H8       H        0.96820    0.72360    0.94420    1.000
    C19      C        0.97680    0.76030    0.87110    1.000
    H9       H        0.95180    0.72440    0.86060    1.000
    C20      C        0.02720    0.81840    0.98940    1.000
    C21      C        0.99090    0.70660    0.68160    1.000
    C22      C        0.07470    0.67280    0.66880    1.000
    C23      C        0.09060    0.60980    0.64590    1.000
    C24      C        0.01750    0.58230    0.63050    1.000
    H10      H        0.02680    0.54040    0.61480    1.000
    C25      C        0.93030    0.62170    0.64020    1.000
    C26      C        0.91930    0.68150    0.66670    1.000
    C27      C        0.80680    0.67770    0.72320    1.000
    H11      H        0.74780    0.70340    0.72920    1.000
    H12      H        0.84540    0.67690    0.75060    1.000
    H13      H        0.80810    0.62670    0.71940    1.000
    C28      C        0.19760    0.73130    0.64010    1.000
    H14      H        0.25560    0.72980    0.65240    1.000
    H15      H        0.16860    0.78240    0.62580    1.000
    H16      H        0.20200    0.69970    0.61540    1.000
    C29      C        0.12920    0.67430    0.79990    1.000
    H17      H        0.14460    0.62620    0.82170    1.000
    H18      H        0.13280    0.71380    0.81780    1.000
    H19      H        0.16920    0.67430    0.77340    1.000
    C30      C        0.18140    0.56670    0.63420    1.000
    C31      C        0.24030    0.53690    0.67520    1.000
    H20      H        0.22670    0.54780    0.70640    1.000
    C32      C        0.32190    0.48920    0.66590    1.000
    H21      H        0.36280    0.46740    0.69190    1.000
    C33      C        0.34170    0.47450    0.62000    1.000
    C34      C        0.28560    0.50790    0.58130    1.000
    H22      H        0.30190    0.50090    0.54960    1.000
    C35      C        0.20460    0.55210    0.58830    1.000
    H23      H        0.16480    0.57240    0.56150    1.000
    C36      C        0.42810    0.42720    0.61140    1.000
    C37      C        0.85690    0.58670    0.62690    1.000
    C38      C        0.86470    0.50600    0.64130    1.000
    H24      H        0.91300    0.47470    0.66020    1.000
    C39      C        0.79610    0.47750    0.62560    1.000
    H25      H        0.79950    0.42590    0.63420    1.000
    C40      C        0.72550    0.52210    0.59840    1.000
    C41      C        0.71620    0.60060    0.58370    1.000
    H26      H        0.66800    0.63040    0.56400    1.000
    C42      C        0.78290    0.63300    0.59990    1.000
    H27      H        0.77680    0.68510    0.59250    1.000
    C43      C        0.65660    0.47910    0.58160    1.000
    C44      C        0.55120    0.32740    0.48940    1.000
    C45      C        0.53220    0.31770    0.44110    1.000
    C46      C        0.49530    0.25900    0.43050    1.000
    H28      H        0.48690    0.22050    0.45530    1.000
    C47      C        0.47190    0.26130    0.38120    1.000
    H29      H        0.44700    0.22270    0.37470    1.000
    C48      C        0.48150    0.31440    0.34100    1.000
    C49      C        0.52080    0.37120    0.35420    1.000
    H30      H        0.52960    0.40890    0.32910    1.000
    C50      C        0.54620    0.37390    0.40110    1.000
    H31      H        0.57250    0.41200    0.40710    1.000
    C51      C        0.44830    0.32050    0.29090    1.000
    C52      C        0.46780    0.25380    0.26690    1.000
    C53      C        0.43470    0.26250    0.22030    1.000
    C54      C        0.38380    0.33120    0.19290    1.000
    C55      C        0.36140    0.39410    0.21830    1.000
    C56      C        0.39870    0.38540    0.26550    1.000
    H32      H        0.38830    0.42780    0.28070    1.000
    C57      C        0.25220    0.34610    0.14080    1.000
    H33      H        0.23520    0.36030    0.10630    1.000
    H34      H        0.22450    0.38620    0.15780    1.000
    H35      H        0.23400    0.30090    0.15420    1.000
    C58      C        0.60340    0.17860    0.30280    1.000
    H36      H        0.62510    0.13490    0.32790    1.000
    H37      H        0.61040    0.22310    0.31440    1.000
    H38      H        0.63600    0.17300    0.27350    1.000
    C59      C        0.30790    0.47030    0.19390    1.000
    C60      C        0.32390    0.49850    0.14530    1.000
    H39      H        0.36650    0.46960    0.12830    1.000
    C61      C        0.27510    0.57150    0.12180    1.000
    H40      H        0.28650    0.59210    0.08990    1.000
    C62      C        0.20580    0.61300    0.15000    1.000
    C63      C        0.19020    0.58070    0.19700    1.000
    H41      H        0.14580    0.60730    0.21420    1.000
    C64      C        0.24000    0.50800    0.22000    1.000
    H42      H        0.22760    0.48630    0.25150    1.000
    C65      C        0.14830    0.68720    0.12700    1.000
    C66      C        0.38530    0.15440    0.19230    1.000
    C67      C        0.39640    0.08850    0.17320    1.000
    C68      C        0.48240    0.05710    0.15790    1.000
    H43      H        0.49260    0.01230    0.14530    1.000
    C69      C        0.55070    0.09150    0.16150    1.000
    C70      C        0.53230    0.16200    0.17770    1.000
    C71      C        0.45040    0.19050    0.19550    1.000
    C72      C        0.59730    0.26870    0.15070    1.000
    H44      H        0.64870    0.28680    0.15590    1.000
    H45      H        0.54560    0.30500    0.15760    1.000
    H46      H        0.59360    0.26170    0.11710    1.000
    C73      C        0.28710    0.14390    0.25850    1.000
    H47      H        0.22530    0.15440    0.26470    1.000
    H48      H        0.31800    0.15930    0.28350    1.000
    H49      H        0.30910    0.09060    0.25900    1.000
    C74      C        0.64010    0.05970    0.14450    1.000
    C75      C        0.67970    0.98300    0.16540    1.000
    H50      H        0.65030    0.95720    0.18920    1.000
    C76      C        0.76290    0.94520    0.15080    1.000
    H51      H        0.79390    0.89890    0.16850    1.000
    C77      C        0.79630    0.98030    0.10870    1.000
    C78      C        0.75760    0.05150    0.08750    1.000
    H52      H        0.78330    0.07540    0.06090    1.000
    C79      C        0.67710    0.09130    0.10530    1.000
    H53      H        0.65010    0.14000    0.08930    1.000
    C80      C        0.88170    0.94330    0.09240    1.000
    C81      C        0.31920    0.05540    0.16200    1.000
    C82      C        0.24670    0.09930    0.13760    1.000
    H54      H        0.23680    0.15170    0.13350    1.000
    C83      C        0.18490    0.06660    0.11810    1.000
    H55      H        0.13400    0.09760    0.10140    1.000
    C84      C        0.19830    0.99390    0.12300    1.000
    C85      C        0.27070    0.94240    0.15020    1.000
    H56      H        0.27640    0.89030    0.15550    1.000
    C86      C        0.33360    0.97500    0.16880    1.000
    H57      H        0.38460    0.94420    0.18550    1.000
    C87      C        0.13340    0.95480    0.10000    1.000
    C88      C        0.97830    0.85210    0.59030    1.000
    H58      H        0.01340    0.80100    0.59400    1.000
    H59      H        0.01590    0.88580    0.59260    1.000
    H60      H        0.94730    0.86590    0.55870    1.000
    O1       O        0.63220    0.22980    0.64560    1.000
    O2       O        0.72820    0.24390    0.58620    1.000
    O3       O        0.06120    0.87030    0.00420    1.000
    O4       O        0.99910    0.77240    0.02180    1.000
    O5       O        0.47460    0.37480    0.64780    1.000
    O6       O        0.45680    0.42730    0.56660    1.000
    O7       O        0.65730    0.41820    0.60190    1.000
    O8       O        0.60950    0.52400    0.53980    1.000
    O9       O        0.03870    0.68750    0.77960    1.000
    O10      O        0.90940    0.85810    0.63280    1.000
    O11      O        0.83600    0.71740    0.67840    1.000
    O12      O        0.14450    0.70250    0.68240    1.000
    O13      O        0.53990    0.27610    0.52630    1.000
    O14      O        0.58500    0.38010    0.49940    1.000
    O15      O        0.07990    0.71980    0.14770    1.000
    O16      O        0.17720    0.72210    0.08750    1.000
    O17      O        0.08830    0.99670    0.06430    1.000
    O18      O        0.13300    0.88720    0.11890    1.000
    O19      O        0.90050    0.96910    0.04770    1.000
    O20      O        0.92270    0.87880    0.11560    1.000
    O21      O        0.51370    0.18550    0.29190    1.000
    O22      O        0.35100    0.33170    0.14720    1.000
    O23      O        0.60350    0.19490    0.18440    1.000
    O24      O        0.30030    0.18580    0.21010    1.000
    Cd1      Cd       0.41016    0.66489    0.41366    1.000
    Cd2      Cd       0.95069    0.17543    0.91203    1.000
    C89      C        0.29660    0.79470    0.37780    1.000
    C90      C        0.24150    0.87210    0.35250    1.000
    C91      C        0.25440    0.90500    0.30410    1.000
    H61      H        0.29710    0.87990    0.28530    1.000
    C92      C        0.20100    0.97690    0.28500    1.000
    H62      H        0.20930    0.99940    0.25300    1.000
    C93      C        0.13460    0.01670    0.31270    1.000
    C94      C        0.12110    0.97930    0.35930    1.000
    H63      H        0.07630    0.00360    0.37730    1.000
    C95      C        0.17210    0.90550    0.38120    1.000
    H64      H        0.16060    0.88120    0.41200    1.000
    C96      C        0.08500    0.09060    0.29180    1.000
    C97      C        0.05930    0.10710    0.24140    1.000
    H65      H        0.07180    0.06690    0.22410    1.000
    C98      C        0.01710    0.17730    0.21500    1.000
    C99      C        0.99980    0.24040    0.24310    1.000
    C100     C        0.02490    0.22580    0.29410    1.000
    C101     C        0.06920    0.15280    0.31680    1.000
    C102     C        0.99590    0.18560    0.16500    1.000
    C103     C        0.95680    0.13190    0.14690    1.000
    H66      H        0.93770    0.09560    0.16900    1.000
    C104     C        0.94730    0.13390    0.09620    1.000
    H67      H        0.92110    0.09920    0.08500    1.000
    C105     C        0.97520    0.18450    0.06350    1.000
    C106     C        0.01370    0.24050    0.07880    1.000
    H68      H        0.03180    0.27640    0.05580    1.000
    C107     C        0.02320    0.23970    0.12890    1.000
    H69      H        0.04820    0.27560    0.13940    1.000
    C108     C        0.97280    0.18160    0.01060    1.000
    C109     C        0.00910    0.29340    0.31840    1.000
    C110     C        0.92530    0.32720    0.33120    1.000
    C111     C        0.90940    0.39020    0.35410    1.000
    C112     C        0.98250    0.41770    0.36950    1.000
    H70      H        0.97320    0.45960    0.38520    1.000
    C113     C        0.06970    0.37830    0.35980    1.000
    C114     C        0.08070    0.31850    0.33330    1.000
    C115     C        0.19320    0.32230    0.27680    1.000
    H71      H        0.25220    0.29660    0.27080    1.000
    H72      H        0.15460    0.32310    0.24940    1.000
    H73      H        0.19190    0.37330    0.28060    1.000
    C116     C        0.80240    0.26870    0.35990    1.000
    H74      H        0.74440    0.27020    0.34760    1.000
    H75      H        0.83140    0.21760    0.37420    1.000
    H76      H        0.79800    0.30030    0.38460    1.000
    C117     C        0.87080    0.32570    0.20010    1.000
    H77      H        0.85540    0.37380    0.17830    1.000
    H78      H        0.86720    0.28620    0.18220    1.000
    H79      H        0.83080    0.32570    0.22660    1.000
    C118     C        0.81860    0.43330    0.36580    1.000
    C119     C        0.75970    0.46310    0.32480    1.000
    H80      H        0.77330    0.45220    0.29360    1.000
    C120     C        0.67810    0.51080    0.33410    1.000
    H81      H        0.63720    0.53260    0.30810    1.000
    C121     C        0.65830    0.52550    0.38000    1.000
    C122     C        0.71440    0.49210    0.41870    1.000
    H82      H        0.69810    0.49910    0.45040    1.000
    C123     C        0.79540    0.44790    0.41170    1.000
    H83      H        0.83520    0.42760    0.43850    1.000
    C124     C        0.57190    0.57280    0.38860    1.000
    C125     C        0.14310    0.41330    0.37310    1.000
    C126     C        0.13530    0.49400    0.35870    1.000
    H84      H        0.08700    0.52530    0.33980    1.000
    C127     C        0.20390    0.52250    0.37440    1.000
    H85      H        0.20050    0.57410    0.36580    1.000
    C128     C        0.27450    0.47790    0.40160    1.000
    C129     C        0.28380    0.39940    0.41630    1.000
    H86      H        0.33200    0.36960    0.43600    1.000
    C130     C        0.21710    0.36700    0.40010    1.000
    H87      H        0.22320    0.31490    0.40750    1.000
    C131     C        0.34340    0.52090    0.41840    1.000
    C132     C        0.44880    0.67260    0.51060    1.000
    C133     C        0.46780    0.68230    0.55890    1.000
    C134     C        0.50470    0.74100    0.56950    1.000
    H88      H        0.51310    0.77950    0.54470    1.000
    C135     C        0.52810    0.73870    0.61880    1.000
    H89      H        0.55300    0.77730    0.62530    1.000
    C136     C        0.51850    0.68560    0.65900    1.000
    C137     C        0.47920    0.62880    0.64580    1.000
    H90      H        0.47040    0.59110    0.67090    1.000
    C138     C        0.45380    0.62610    0.59890    1.000
    H91      H        0.42750    0.58800    0.59290    1.000
    C139     C        0.55170    0.67950    0.70910    1.000
    C140     C        0.53220    0.74620    0.73310    1.000
    C141     C        0.56530    0.73750    0.77970    1.000
    C142     C        0.61620    0.66880    0.80710    1.000
    C143     C        0.63860    0.60590    0.78170    1.000
    C144     C        0.60130    0.61460    0.73450    1.000
    H92      H        0.61170    0.57220    0.71930    1.000
    C145     C        0.74780    0.65390    0.85920    1.000
    H93      H        0.76480    0.63970    0.89370    1.000
    H94      H        0.77550    0.61380    0.84220    1.000
    H95      H        0.76600    0.69910    0.84580    1.000
    C146     C        0.39660    0.82140    0.69720    1.000
    H96      H        0.37490    0.86510    0.67210    1.000
    H97      H        0.38960    0.77690    0.68560    1.000
    H98      H        0.36400    0.82700    0.72650    1.000
    C147     C        0.69210    0.52970    0.80610    1.000
    C148     C        0.67610    0.50150    0.85470    1.000
    H99      H        0.63350    0.53040    0.87170    1.000
    C149     C        0.72490    0.42850    0.87820    1.000
    H100     H        0.71350    0.40790    0.91010    1.000
    C150     C        0.79420    0.38700    0.85000    1.000
    C151     C        0.80980    0.41930    0.80300    1.000
    H101     H        0.85420    0.39270    0.78580    1.000
    C152     C        0.76000    0.49200    0.78000    1.000
    H102     H        0.77240    0.51370    0.74850    1.000
    C153     C        0.85170    0.31280    0.87300    1.000
    C154     C        0.61470    0.84560    0.80770    1.000
    C155     C        0.60360    0.91150    0.82680    1.000
    C156     C        0.51760    0.94290    0.84210    1.000
    H103     H        0.50740    0.98770    0.85470    1.000
    C157     C        0.44930    0.90850    0.83850    1.000
    C158     C        0.46770    0.83800    0.82230    1.000
    C159     C        0.54960    0.80950    0.80450    1.000
    C160     C        0.40270    0.73130    0.84930    1.000
    H104     H        0.35130    0.71320    0.84410    1.000
    H105     H        0.45440    0.69500    0.84240    1.000
    H106     H        0.40640    0.73830    0.88290    1.000
    C161     C        0.71290    0.85610    0.74150    1.000
    H107     H        0.77470    0.84560    0.73530    1.000
    H108     H        0.68200    0.84070    0.71650    1.000
    H109     H        0.69090    0.90940    0.74100    1.000
    C162     C        0.35990    0.94030    0.85550    1.000
    C163     C        0.32030    0.01700    0.83460    1.000
    H110     H        0.34970    0.04280    0.81080    1.000
    C164     C        0.23710    0.05480    0.84920    1.000
    H111     H        0.20610    0.10110    0.83150    1.000
    C165     C        0.20370    0.01970    0.89130    1.000
    C166     C        0.24240    0.94850    0.91250    1.000
    H112     H        0.21670    0.92460    0.93910    1.000
    C167     C        0.32290    0.90870    0.89470    1.000
    H113     H        0.34990    0.86000    0.91070    1.000
    C168     C        0.11830    0.05670    0.90760    1.000
    C169     C        0.68080    0.94460    0.83800    1.000
    C170     C        0.75330    0.90070    0.86240    1.000
    H114     H        0.76320    0.84830    0.86650    1.000
    C171     C        0.81510    0.93340    0.88190    1.000
    H115     H        0.86600    0.90240    0.89860    1.000
    C172     C        0.80170    0.00610    0.87700    1.000
    C173     C        0.72930    0.05760    0.84980    1.000
    H116     H        0.72360    0.10970    0.84450    1.000
    C174     C        0.66640    0.02500    0.83120    1.000
    H117     H        0.61540    0.05580    0.81450    1.000
    C175     C        0.86660    0.04520    0.90000    1.000
    C176     C        0.02170    0.14790    0.40970    1.000
    H118     H        0.98660    0.19900    0.40600    1.000
    H119     H        0.98410    0.11420    0.40740    1.000
    H120     H        0.05270    0.13410    0.44130    1.000
    O25      O        0.36780    0.77020    0.35440    1.000
    O26      O        0.27180    0.75610    0.41380    1.000
    O27      O        0.93880    0.12970    0.99580    1.000
    O28      O        0.00090    0.22760    0.97820    1.000
    O29      O        0.52540    0.62520    0.35220    1.000
    O30      O        0.54320    0.57270    0.43340    1.000
    O31      O        0.34270    0.58180    0.39810    1.000
    O32      O        0.39050    0.47600    0.46020    1.000
    O33      O        0.96130    0.31250    0.22040    1.000
    O34      O        0.09060    0.14190    0.36720    1.000
    O35      O        0.16400    0.28260    0.32160    1.000
    O36      O        0.85550    0.29750    0.31760    1.000
    O37      O        0.46010    0.72390    0.47370    1.000
    O38      O        0.41500    0.61990    0.50060    1.000
    O39      O        0.92010    0.28020    0.85230    1.000
    O40      O        0.82280    0.27790    0.91250    1.000
    O41      O        0.91170    0.00330    0.93570    1.000
    O42      O        0.86700    0.11280    0.88110    1.000
    O43      O        0.09950    0.03090    0.95230    1.000
    O44      O        0.07730    0.12120    0.88440    1.000
    O45      O        0.48630    0.81450    0.70810    1.000
    O46      O        0.64900    0.66830    0.85280    1.000
    O47      O        0.39650    0.80510    0.81560    1.000
    O48      O        0.69970    0.81420    0.78990    1.000
    Ca3      Ca       0.50000    0.50000    0.50000    1.000
    Ca4      Ca       0.00000    0.00000    0.00000    1.000
