data_functionalizedCrystal
_audit_creation_method	'EQeq! by Chris Wilmer'
_symmetry_space_group_name_H-M	'P1'
_symmetry_Int_Tables_number	1
_symmetry_cell_setting	triclinic
loop_
_symmetry_equiv_pos_as_xyz
  x,y,z
_cell_length_a	7.3285
_cell_length_b	7.3285
_cell_length_c	24.431
_cell_angle_alpha	90
_cell_angle_beta	90
_cell_angle_gamma	120
loop_
_atom_site_label
_atom_site_type_symbol
_atom_site_fract_x
_atom_site_fract_y
_atom_site_fract_z
_atom_site_charge
Mof_O 	O 	0.3375	0.4506	0.1322	-0.338
Mof_O 	O 	0.922	0.2982	0.9649	-0.311
Mof_O 	O 	0.1411	0.4173	0.0338	-0.352
Mof_C 	C 	0.0324	0.4299	0.9986	0.437
Mof_H 	H 	0.0331	0.5571	0.9969	-0.085
Mof_O 	O 	0.5494	0.8869	0.46553	-0.304
Mof_O 	O 	0.7018	0.6238	0.29823	-0.333
Mof_O 	O 	0.5827	0.7238	0.36713	-0.335
Mof_C 	C 	0.5701	0.6025	0.33193	0.467
Mof_H 	H 	0.4429	0.476	0.33023	-0.093
Mof_O 	O 	0.1131	0.6625	0.79887	-0.324
Mof_O 	O 	0.3762	0.078	0.63157	-0.362
Mof_O 	O 	0.2762	0.8589	0.70047	-0.352
Mof_C 	C 	0.3975	0.9676	0.66527	0.497
Mof_H 	H 	0.524	0.9669	0.66357	-0.094
Mof_O 	O 	0.6625	0.5494	0.6322	-0.326
Mof_O 	O 	0.078	0.7018	0.4649	-0.356
Mof_O 	O 	0.8589	0.5827	0.5338	-0.345
Mof_C 	C 	0.9676	0.5701	0.4986	0.496
Mof_H 	H 	0.9669	0.4429	0.4969	-0.096
Mof_O 	O 	0.4506	0.1131	0.96553	-0.316
Mof_O 	O 	0.2982	0.3762	0.79823	-0.346
Mof_O 	O 	0.4173	0.2762	0.86713	-0.35
Mof_C 	C 	0.4299	0.3975	0.83193	0.468
Mof_H 	H 	0.5571	0.524	0.83023	-0.089
Mof_O 	O 	0.8869	0.3375	0.29887	-0.311
Mof_O 	O 	0.6238	0.922	0.13157	-0.305
Mof_O 	O 	0.7238	0.1411	0.20047	-0.331
Mof_C 	C 	0.6025	0.0324	0.16527	0.417
Mof_H 	H 	0.476	0.0331	0.16357	-0.084
Mof_O 	O 	0.4506	0.3375	0.20113	-0.338
Mof_O 	O 	0.2982	0.922	0.36843	-0.31
Mof_O 	O 	0.4173	0.1411	0.29953	-0.339
Mof_C 	C 	0.4299	0.0324	0.33473	0.416
Mof_H 	H 	0.5571	0.0331	0.33643	-0.081
Mof_O 	O 	0.8869	0.5494	0.8678	-0.303
Mof_O 	O 	0.6238	0.7018	0.0351	-0.329
Mof_O 	O 	0.7238	0.5827	0.9662	-0.321
Mof_C 	C 	0.6025	0.5701	0.0014	0.444
Mof_H 	H 	0.476	0.4429	0.0031	-0.089
Mof_O 	O 	0.6625	0.1131	0.53447	-0.324
Mof_O 	O 	0.078	0.3762	0.70177	-0.363
Mof_O 	O 	0.8589	0.2762	0.63287	-0.352
Mof_C 	C 	0.9676	0.3975	0.66807	0.499
Mof_H 	H 	0.9669	0.524	0.66977	-0.095
Mof_O 	O 	0.5494	0.6625	0.70113	-0.326
Mof_O 	O 	0.7018	0.078	0.86843	-0.353
Mof_O 	O 	0.5827	0.8589	0.79953	-0.345
Mof_C 	C 	0.5701	0.9676	0.83473	0.494
Mof_H 	H 	0.4429	0.9669	0.83643	-0.095
Mof_O 	O 	0.1131	0.4506	0.3678	-0.329
Mof_O 	O 	0.3762	0.2982	0.5351	-0.346
Mof_O 	O 	0.2762	0.4173	0.4662	-0.35
Mof_C 	C 	0.3975	0.4299	0.5014	0.468
Mof_H 	H 	0.524	0.5571	0.5031	-0.089
Mof_O 	O 	0.3375	0.8869	0.03447	-0.309
Mof_O 	O 	0.922	0.6238	0.20177	-0.305
Mof_O 	O 	0.1411	0.7238	0.13287	-0.332
Mof_C 	C 	0.0324	0.6025	0.16807	0.417
Mof_H 	H 	0.0331	0.476	0.16977	-0.084
Mof_Cu	Cu	0.36451	0.68226	0.08333	0.954
Mof_Cu	Cu	0.31774	0.68226	0.41667	0.955
Mof_Cu	Cu	0.31774	0.63549	0.75	0.956
Mof_Cu	Cu	0.63549	0.31774	0.58333	0.956
Mof_Cu	Cu	0.68226	0.31774	0.91667	0.955
Mof_Cu	Cu	0.68225	0.36451	0.25	0.954
Mof_C 	C 	0.477	0.477	0.16667	0.392
Mof_H 	H 	0.6039	0.6039	0.16667	-0.065
Mof_C 	C 	0.523	0	0.5	0.352
Mof_H 	H 	0.3961	0	0.5	-0.063
Mof_C 	C 	9.95233e-18	0.523	0.83333	0.351
Mof_H 	H 	-1.50597e-17	0.3961	0.83333	-0.063
Mof_C 	C 	0.523	0.523	0.66667	0.389
Mof_H 	H 	0.3961	0.3961	0.66667	-0.069
Mof_C 	C 	0.477	0	-0	0.335
Mof_H 	H 	0.6039	0	-0	-0.059
Mof_C 	C 	1.39865e-17	0.477	0.33333	0.356
Mof_H 	H 	-3.60374e-17	0.6039	0.33333	-0.061
_end
