data_functionalizedCrystal
_audit_creation_method	'EQeq! by Chris Wilmer'
_symmetry_space_group_name_H-M	'P1'
_symmetry_Int_Tables_number	1
_symmetry_cell_setting	triclinic
loop_
_symmetry_equiv_pos_as_xyz
  x,y,z
_cell_length_a	13.3503
_cell_length_b	13.3503
_cell_length_c	14.3853
_cell_angle_alpha	90
_cell_angle_beta	90
_cell_angle_gamma	120
loop_
_atom_site_label
_atom_site_type_symbol
_atom_site_fract_x
_atom_site_fract_y
_atom_site_fract_z
_atom_site_charge
Mof_Dy	Dy	0.33333	0.66666	0.8325	2.215
Mof_Dy	Dy	0.66667	0.33334	0.6675	2.216
Mof_Dy	Dy	0.66667	0.33334	0.1675	2.21
Mof_Dy	Dy	0.33333	0.66666	0.3325	2.21
Mof_Cu	Cu	-0	0.5	-0	0.872
Mof_Cu	Cu	0.5	0	-0	0.87
Mof_Cu	Cu	0.5	0.5	-0	0.901
Mof_Cu	Cu	0.5	0.5	0.5	0.929
Mof_Cu	Cu	0.5	0	0.5	0.898
Mof_Cu	Cu	-1.47784e-17	0.5	0.5	0.899
Mof_H 	H 	0.9762	0.6498	0.0784	0.156
Mof_H 	H 	0.138	0.8202	0.0219	0.021
Mof_H 	H 	0.0398	0.747	0.95	0.052
Mof_H 	H 	0.0858	0.6876	0.1944	0.128
Mof_H 	H 	0.194	0.7343	0.129	0.148
Mof_H 	H 	0.6736	0.0238	0.0784	0.034
Mof_H 	H 	0.6822	0.862	0.0219	0.043
Mof_H 	H 	0.7072	0.9602	0.95	0.112
Mof_H 	H 	0.6018	0.9142	0.1944	0.17
Mof_H 	H 	0.5403	0.806	0.129	0.152
Mof_H 	H 	0.3502	0.3264	0.0784	0.091
Mof_H 	H 	0.1798	0.3178	0.0219	-0.001
Mof_H 	H 	0.253	0.2928	0.95	0.059
Mof_H 	H 	0.3124	0.3982	0.1944	0.138
Mof_H 	H 	0.2657	0.4597	0.129	0.142
Mof_H 	H 	0.3264	0.3502	0.4216	0.092
Mof_H 	H 	0.3178	0.1798	0.4781	0.104
Mof_H 	H 	0.2928	0.253	0.55	0.108
Mof_H 	H 	0.3982	0.3124	0.3056	0.141
Mof_H 	H 	0.4597	0.2657	0.371	0.155
Mof_H 	H 	0.6498	0.9762	0.4216	0.16
Mof_H 	H 	0.8202	0.138	0.4781	0.121
Mof_H 	H 	0.747	0.0398	0.55	0.098
Mof_H 	H 	0.6876	0.0858	0.3056	0.13
Mof_H 	H 	0.7343	0.194	0.371	0.16
Mof_H 	H 	0.0238	0.6736	0.4216	0.039
Mof_H 	H 	0.862	0.6822	0.4781	0.141
Mof_H 	H 	0.9602	0.7072	0.55	0.158
Mof_H 	H 	0.9142	0.6018	0.3056	0.172
Mof_H 	H 	0.806	0.5403	0.371	0.164
Mof_H 	H 	0.0238	0.3502	0.9216	0.041
Mof_H 	H 	0.862	0.1798	0.9781	0.222
Mof_H 	H 	0.9602	0.253	0.05	0.191
Mof_H 	H 	0.9142	0.3124	0.8056	0.167
Mof_H 	H 	0.806	0.2657	0.871	0.171
Mof_H 	H 	0.3264	0.9762	0.9216	0.156
Mof_H 	H 	0.3178	0.138	0.9781	0.208
Mof_H 	H 	0.2928	0.0398	0.05	0.134
Mof_H 	H 	0.3982	0.0858	0.8056	0.126
Mof_H 	H 	0.4597	0.194	0.871	0.167
Mof_H 	H 	0.6498	0.6736	0.9216	0.101
Mof_H 	H 	0.8202	0.6822	0.9781	0.24
Mof_H 	H 	0.747	0.7072	0.05	0.183
Mof_H 	H 	0.6876	0.6018	0.8056	0.158
Mof_H 	H 	0.7343	0.5403	0.871	0.177
Mof_H 	H 	0.6736	0.6498	0.5784	0.1
Mof_H 	H 	0.6822	0.8202	0.5219	0.142
Mof_H 	H 	0.7072	0.747	0.45	0.136
Mof_H 	H 	0.6018	0.6876	0.6944	0.156
Mof_H 	H 	0.5403	0.7343	0.629	0.166
Mof_H 	H 	0.3502	0.0238	0.5784	0.033
Mof_H 	H 	0.1798	0.862	0.5219	0.124
Mof_H 	H 	0.253	0.9602	0.45	0.146
Mof_H 	H 	0.3124	0.9142	0.6944	0.166
Mof_H 	H 	0.2657	0.806	0.629	0.16
Mof_H 	H 	0.9762	0.3264	0.5784	0.153
Mof_H 	H 	0.138	0.3178	0.5219	0.103
Mof_H 	H 	0.0398	0.2928	0.45	0.085
Mof_H 	H 	0.0858	0.3982	0.6944	0.125
Mof_H 	H 	0.194	0.4597	0.629	0.155
Mof_C 	C 	0.185	0.7317	0.9301	0.341
Mof_C 	C 	0.0982	0.7465	0.9898	-0.079
Mof_C 	C 	0.1263	0.5629	0.1609	0.491
Mof_C 	C 	0.1172	0.6693	0.1405	-0.368
Mof_C 	C 	0.5467	0.815	0.9301	0.364
Mof_C 	C 	0.6483	0.9018	0.9898	-0.119
Mof_C 	C 	0.4366	0.8737	0.1609	0.505
Mof_C 	C 	0.5521	0.8828	0.1405	-0.383
Mof_C 	C 	0.2683	0.4533	0.9301	0.342
Mof_C 	C 	0.2535	0.3517	0.9898	-0.072
Mof_C 	C 	0.4371	0.5634	0.1609	0.496
Mof_C 	C 	0.3307	0.4479	0.1405	-0.371
Mof_C 	C 	0.4533	0.2683	0.5699	0.391
Mof_C 	C 	0.3517	0.2535	0.5102	-0.283
Mof_C 	C 	0.5634	0.4371	0.3391	0.503
Mof_C 	C 	0.4479	0.3307	0.3595	-0.38
Mof_C 	C 	0.7317	0.185	0.5699	0.387
Mof_C 	C 	0.7465	0.0982	0.5102	-0.282
Mof_C 	C 	0.5629	0.1263	0.3391	0.498
Mof_C 	C 	0.6693	0.1172	0.3595	-0.377
Mof_C 	C 	0.815	0.5467	0.5699	0.409
Mof_C 	C 	0.9018	0.6483	0.5102	-0.316
Mof_C 	C 	0.8737	0.4366	0.3391	0.512
Mof_C 	C 	0.8828	0.5521	0.3595	-0.391
Mof_C 	C 	0.815	0.2683	0.0699	0.45
Mof_C 	C 	0.9018	0.2535	0.0102	-0.5
Mof_C 	C 	0.8737	0.4371	0.8391	0.515
Mof_C 	C 	0.8828	0.3307	0.8595	-0.392
Mof_C 	C 	0.4533	0.185	0.0699	0.431
Mof_C 	C 	0.3517	0.0982	0.0102	-0.478
Mof_C 	C 	0.5634	0.1263	0.8391	0.502
Mof_C 	C 	0.4479	0.1172	0.8595	-0.379
Mof_C 	C 	0.7317	0.5467	0.0699	0.447
Mof_C 	C 	0.7465	0.6483	0.0102	-0.503
Mof_C 	C 	0.5629	0.4366	0.8391	0.513
Mof_C 	C 	0.6693	0.5521	0.8595	-0.394
Mof_C 	C 	0.5467	0.7317	0.4301	0.401
Mof_C 	C 	0.6483	0.7465	0.4898	-0.307
Mof_C 	C 	0.4366	0.5629	0.6609	0.507
Mof_C 	C 	0.5521	0.6693	0.6405	-0.39
Mof_C 	C 	0.2683	0.815	0.4301	0.405
Mof_C 	C 	0.2535	0.9018	0.4898	-0.304
Mof_C 	C 	0.4371	0.8737	0.6609	0.51
Mof_C 	C 	0.3307	0.8828	0.6405	-0.388
Mof_C 	C 	0.185	0.4533	0.4301	0.383
Mof_C 	C 	0.0982	0.3517	0.4898	-0.271
Mof_C 	C 	0.1263	0.5634	0.6609	0.497
Mof_C 	C 	0.1172	0.4479	0.6405	-0.374
Mof_N 	N 	0.0422	0.6526	0.0582	-0.259
Mof_N 	N 	0.6104	0.9578	0.0582	-0.141
Mof_N 	N 	0.3474	0.3896	0.0582	-0.21
Mof_N 	N 	0.3896	0.3474	0.4418	-0.159
Mof_N 	N 	0.6526	0.0422	0.4418	-0.212
Mof_N 	N 	0.9578	0.6104	0.4418	-0.097
Mof_N 	N 	0.9578	0.3474	0.9418	-0.047
Mof_N 	N 	0.3896	0.0422	0.9418	-0.156
Mof_N 	N 	0.6526	0.6104	0.9418	-0.1
Mof_N 	N 	0.6104	0.6526	0.5582	-0.154
Mof_N 	N 	0.3474	0.9578	0.5582	-0.096
Mof_N 	N 	0.0422	0.3896	0.5582	-0.211
Mof_O 	O 	0.1888	0.6399	0.9405	-0.5
Mof_O 	O 	0.2457	0.8065	0.872	-0.373
Mof_O 	O 	0.1845	0.5654	0.2295	-0.552
Mof_O 	O 	0.0751	0.4768	0.1082	-0.469
Mof_O 	O 	0.4511	0.8112	0.9405	-0.492
Mof_O 	O 	0.5608	0.7543	0.872	-0.377
Mof_O 	O 	0.3809	0.8155	0.2295	-0.538
Mof_O 	O 	0.4017	0.9249	0.1082	-0.414
Mof_O 	O 	0.3601	0.5489	0.9405	-0.498
Mof_O 	O 	0.1935	0.4392	0.872	-0.386
Mof_O 	O 	0.4346	0.6191	0.2295	-0.543
Mof_O 	O 	0.5232	0.5983	0.1082	-0.444
Mof_O 	O 	0.5489	0.3601	0.5595	-0.531
Mof_O 	O 	0.4392	0.1935	0.628	-0.409
Mof_O 	O 	0.6191	0.4346	0.2705	-0.542
Mof_O 	O 	0.5983	0.5232	0.3918	-0.436
Mof_O 	O 	0.6399	0.1888	0.5595	-0.534
Mof_O 	O 	0.8065	0.2457	0.628	-0.396
Mof_O 	O 	0.5654	0.1845	0.2705	-0.551
Mof_O 	O 	0.4768	0.0751	0.3918	-0.461
Mof_O 	O 	0.8112	0.4511	0.5595	-0.524
Mof_O 	O 	0.7543	0.5608	0.628	-0.398
Mof_O 	O 	0.8155	0.3809	0.2705	-0.538
Mof_O 	O 	0.9249	0.4017	0.3918	-0.407
Mof_O 	O 	0.8112	0.3601	0.0595	-0.55
Mof_O 	O 	0.7543	0.1935	0.128	-0.426
Mof_O 	O 	0.8155	0.4346	0.7705	-0.537
Mof_O 	O 	0.9249	0.5232	0.8918	-0.388
Mof_O 	O 	0.5489	0.1888	0.0595	-0.561
Mof_O 	O 	0.4392	0.2457	0.128	-0.426
Mof_O 	O 	0.6191	0.1845	0.7705	-0.551
Mof_O 	O 	0.5983	0.0751	0.8918	-0.439
Mof_O 	O 	0.6399	0.4511	0.0595	-0.559
Mof_O 	O 	0.8065	0.5608	0.128	-0.413
Mof_O 	O 	0.5654	0.3809	0.7705	-0.546
Mof_O 	O 	0.4768	0.4017	0.8918	-0.421
Mof_O 	O 	0.4511	0.6399	0.4405	-0.532
Mof_O 	O 	0.5608	0.8065	0.372	-0.392
Mof_O 	O 	0.3809	0.5654	0.7295	-0.548
Mof_O 	O 	0.4017	0.4768	0.6082	-0.44
Mof_O 	O 	0.3601	0.8112	0.4405	-0.522
Mof_O 	O 	0.1935	0.7543	0.372	-0.406
Mof_O 	O 	0.4346	0.8155	0.7295	-0.538
Mof_O 	O 	0.5232	0.9249	0.6082	-0.403
Mof_O 	O 	0.1888	0.5489	0.4405	-0.533
Mof_O 	O 	0.2457	0.4392	0.372	-0.405
Mof_O 	O 	0.1845	0.6191	0.7295	-0.551
Mof_O 	O 	0.0751	0.5983	0.6082	-0.457
_end
