data_functionalizedCrystal
_audit_creation_method	'EQeq! by Chris Wilmer'
_symmetry_space_group_name_H-M	'P1'
_symmetry_Int_Tables_number	1
_symmetry_cell_setting	triclinic
loop_
_symmetry_equiv_pos_as_xyz
  x,y,z
_cell_length_a	15.3904
_cell_length_b	15.3904
_cell_length_c	9.8586
_cell_angle_alpha	90
_cell_angle_beta	90
_cell_angle_gamma	90
loop_
_atom_site_label
_atom_site_type_symbol
_atom_site_fract_x
_atom_site_fract_y
_atom_site_fract_z
_atom_site_charge
Mof_C 	C 	0.1948	0.6879	0.1208	-0.231
Mof_H 	H 	0.1777	0.7127	0.2049	0.106
Mof_C 	C 	0.2444	0.6132	0.1197	0.188
Mof_H 	H 	0.262	0.5877	0.2031	-0.018
Mof_O 	O 	0.3736	0.4694	0.1223	-0.654
Mof_C 	C 	0.8052	0.3121	0.1208	-0.278
Mof_H 	H 	0.8223	0.2873	0.2049	0.132
Mof_C 	C 	0.7556	0.3868	0.1197	0.229
Mof_H 	H 	0.738	0.4123	0.2031	-0.027
Mof_O 	O 	0.6264	0.5306	0.1223	-0.655
Mof_C 	C 	0.3121	0.1948	0.1208	-0.212
Mof_H 	H 	0.2873	0.1777	0.2049	0.097
Mof_C 	C 	0.3868	0.2444	0.1197	0.176
Mof_H 	H 	0.4123	0.262	0.2031	-0.014
Mof_O 	O 	0.5306	0.3736	0.1223	-0.653
Mof_C 	C 	0.6879	0.8052	0.1208	-0.284
Mof_H 	H 	0.7127	0.8223	0.2049	0.136
Mof_C 	C 	0.6132	0.7556	0.1197	0.235
Mof_H 	H 	0.5877	0.738	0.2031	-0.029
Mof_O 	O 	0.4694	0.6264	0.1223	-0.655
Mof_C 	C 	0.8052	0.6879	0.3792	-0.288
Mof_H 	H 	0.8223	0.7127	0.2951	0.137
Mof_C 	C 	0.7556	0.6132	0.3803	0.237
Mof_H 	H 	0.738	0.5877	0.2969	-0.03
Mof_O 	O 	0.6264	0.4694	0.3777	-0.655
Mof_C 	C 	0.1948	0.3121	0.3792	-0.206
Mof_H 	H 	0.1777	0.2873	0.2951	0.095
Mof_C 	C 	0.2444	0.3868	0.3803	0.173
Mof_H 	H 	0.262	0.4123	0.2969	-0.013
Mof_O 	O 	0.3736	0.5306	0.3777	-0.653
Mof_C 	C 	0.6879	0.1948	0.3792	-0.228
Mof_H 	H 	0.7127	0.1777	0.2951	0.106
Mof_C 	C 	0.6132	0.2444	0.3803	0.188
Mof_H 	H 	0.5877	0.262	0.2969	-0.018
Mof_O 	O 	0.4694	0.3736	0.3777	-0.653
Mof_C 	C 	0.3121	0.8052	0.3792	-0.278
Mof_H 	H 	0.2873	0.8223	0.2951	0.132
Mof_C 	C 	0.3868	0.7556	0.3803	0.23
Mof_H 	H 	0.4123	0.738	0.2969	-0.028
Mof_O 	O 	0.5306	0.6264	0.3777	-0.655
Mof_C 	C 	0.8052	0.3121	0.8792	-0.28
Mof_H 	H 	0.8223	0.2873	0.7951	0.133
Mof_C 	C 	0.7556	0.3868	0.8803	0.227
Mof_H 	H 	0.738	0.4123	0.7969	-0.027
Mof_O 	O 	0.6264	0.5306	0.8777	-0.657
Mof_C 	C 	0.1948	0.6879	0.8792	-0.234
Mof_H 	H 	0.1777	0.7127	0.7951	0.107
Mof_C 	C 	0.2444	0.6132	0.8803	0.185
Mof_H 	H 	0.262	0.5877	0.7969	-0.017
Mof_O 	O 	0.3736	0.4694	0.8777	-0.657
Mof_C 	C 	0.6879	0.8052	0.8792	-0.284
Mof_H 	H 	0.7127	0.8223	0.7951	0.136
Mof_C 	C 	0.6132	0.7556	0.8803	0.233
Mof_H 	H 	0.5877	0.738	0.7969	-0.029
Mof_O 	O 	0.4694	0.6264	0.8777	-0.657
Mof_C 	C 	0.3121	0.1948	0.8792	-0.219
Mof_H 	H 	0.2873	0.1777	0.7951	0.098
Mof_C 	C 	0.3868	0.2444	0.8803	0.171
Mof_H 	H 	0.4123	0.262	0.7969	-0.013
Mof_O 	O 	0.5306	0.3736	0.8777	-0.656
Mof_C 	C 	0.1948	0.3121	0.6208	-0.206
Mof_H 	H 	0.1777	0.2873	0.7049	0.094
Mof_C 	C 	0.2444	0.3868	0.6197	0.173
Mof_H 	H 	0.262	0.4123	0.7031	-0.013
Mof_O 	O 	0.3736	0.5306	0.6223	-0.653
Mof_C 	C 	0.8052	0.6879	0.6208	-0.288
Mof_H 	H 	0.8223	0.7127	0.7049	0.137
Mof_C 	C 	0.7556	0.6132	0.6197	0.237
Mof_H 	H 	0.738	0.5877	0.7031	-0.03
Mof_O 	O 	0.6264	0.4694	0.6223	-0.655
Mof_C 	C 	0.3121	0.8052	0.6208	-0.278
Mof_H 	H 	0.2873	0.8223	0.7049	0.132
Mof_C 	C 	0.3868	0.7556	0.6197	0.23
Mof_H 	H 	0.4123	0.738	0.7031	-0.028
Mof_O 	O 	0.5306	0.6264	0.6223	-0.655
Mof_C 	C 	0.6879	0.1948	0.6208	-0.228
Mof_H 	H 	0.7127	0.1777	0.7049	0.105
Mof_C 	C 	0.6132	0.2444	0.6197	0.188
Mof_H 	H 	0.5877	0.262	0.7031	-0.019
Mof_O 	O 	0.4694	0.3736	0.6223	-0.653
Mof_Sm	Sm	0.5	0.5	0.25	3.14
Mof_Sm	Sm	0.5	0.5	0.75	3.139
Mof_S 	S 	0.32117	0.47399	-0	0.87
Mof_O 	O 	0.253	0.4104	-0	-0.354
Mof_C 	C 	0.2684	0.5755	-0	-0.28
Mof_C 	C 	0.1697	0.7271	-0	0.172
Mof_C 	C 	0.2591	0.8945	-0	-0.236
Mof_H 	H 	0.2999	0.8481	-0	0.145
Mof_N 	N 	0.1304	0.97	-0	-0.349
Mof_C 	C 	0.1171	0.809	-0	-0.15
Mof_C 	C 	0.1635	0.8867	-0	0.099
Mof_C 	C 	0.0274	0.8037	-0	-0.095
Mof_C 	C 	0.2774	0.9799	-0	0.26
Mof_H 	H 	0.3339	0.0047	-0	-0.097
Mof_S 	S 	0.67883	0.52601	-0	0.879
Mof_O 	O 	0.747	0.5896	-0	-0.354
Mof_C 	C 	0.7316	0.4245	-0	-0.304
Mof_C 	C 	0.8303	0.2729	-0	0.247
Mof_C 	C 	0.7409	0.1055	-0	0.032
Mof_H 	H 	0.7001	0.1519	-0	0.041
Mof_N 	N 	0.8696	0.03	-0	-0.472
Mof_C 	C 	0.8829	0.191	-0	-0.283
Mof_C 	C 	0.8365	0.1133	-0	0.079
Mof_C 	C 	0.9726	0.1963	-0	0.315
Mof_C 	C 	0.7226	0.0201	-0	-0.368
Mof_H 	H 	0.6661	0.9953	-0	0.207
Mof_S 	S 	0.52601	0.32117	-0	0.866
Mof_O 	O 	0.5896	0.253	-0	-0.354
Mof_C 	C 	0.4245	0.2684	-0	-0.269
Mof_C 	C 	0.2729	0.1697	-0	0.146
Mof_C 	C 	0.1055	0.2591	-0	0.09
Mof_H 	H 	0.1519	0.2999	-0	0.02
Mof_N 	N 	0.03	0.1304	-0	-0.484
Mof_C 	C 	0.191	0.1171	-0	-0.102
Mof_C 	C 	0.1133	0.1635	-0	-0.012
Mof_C 	C 	0.1963	0.0274	-0	-0.142
Mof_C 	C 	0.0201	0.2774	-0	-0.422
Mof_H 	H 	0.9953	0.3339	-0	0.23
Mof_S 	S 	0.47399	0.67883	-0	0.881
Mof_O 	O 	0.4104	0.747	-0	-0.353
Mof_C 	C 	0.5755	0.7316	-0	-0.31
Mof_C 	C 	0.7271	0.8303	-0	0.256
Mof_C 	C 	0.8945	0.7409	-0	-0.249
Mof_H 	H 	0.8481	0.7001	-0	0.149
Mof_N 	N 	0.97	0.8696	-0	-0.36
Mof_C 	C 	0.809	0.8829	-0	-0.301
Mof_C 	C 	0.8867	0.8365	-0	0.164
Mof_C 	C 	0.8037	0.9726	-0	0.294
Mof_C 	C 	0.9799	0.7226	-0	0.227
Mof_H 	H 	0.0047	0.6661	-0	-0.081
Mof_S 	S 	0.67883	0.47399	0.5	0.879
Mof_O 	O 	0.747	0.4104	0.5	-0.353
Mof_C 	C 	0.7316	0.5755	0.5	-0.312
Mof_C 	C 	0.8303	0.7271	0.5	0.261
Mof_C 	C 	0.7409	0.8945	0.5	-0.259
Mof_H 	H 	0.7001	0.8481	0.5	0.153
Mof_N 	N 	0.8696	0.97	0.5	-0.356
Mof_C 	C 	0.8829	0.809	0.5	-0.307
Mof_C 	C 	0.8365	0.8867	0.5	0.17
Mof_C 	C 	0.9726	0.8037	0.5	0.307
Mof_C 	C 	0.7226	0.9799	0.5	0.247
Mof_H 	H 	0.6661	0.0047	0.5	-0.091
Mof_S 	S 	0.32117	0.52601	0.5	0.862
Mof_O 	O 	0.253	0.5896	0.5	-0.355
Mof_C 	C 	0.2684	0.4245	0.5	-0.272
Mof_C 	C 	0.1697	0.2729	0.5	0.133
Mof_C 	C 	0.2591	0.1055	0.5	0.1
Mof_H 	H 	0.2999	0.1519	0.5	0.015
Mof_N 	N 	0.1304	0.03	0.5	-0.488
Mof_C 	C 	0.1171	0.191	0.5	-0.094
Mof_C 	C 	0.1635	0.1133	0.5	-0.019
Mof_C 	C 	0.0274	0.1963	0.5	-0.158
Mof_C 	C 	0.2774	0.0201	0.5	-0.442
Mof_H 	H 	0.3339	0.9953	0.5	0.239
Mof_S 	S 	0.47399	0.32117	0.5	0.865
Mof_O 	O 	0.4104	0.253	0.5	-0.354
Mof_C 	C 	0.5755	0.2684	0.5	-0.283
Mof_C 	C 	0.7271	0.1697	0.5	0.166
Mof_C 	C 	0.8945	0.2591	0.5	-0.245
Mof_H 	H 	0.8481	0.2999	0.5	0.148
Mof_N 	N 	0.97	0.1304	0.5	-0.345
Mof_C 	C 	0.809	0.1171	0.5	-0.145
Mof_C 	C 	0.8867	0.1635	0.5	0.098
Mof_C 	C 	0.8037	0.0274	0.5	-0.108
Mof_C 	C 	0.9799	0.2774	0.5	0.279
Mof_H 	H 	0.0047	0.3339	0.5	-0.108
Mof_S 	S 	0.52601	0.67883	0.5	0.878
Mof_O 	O 	0.5896	0.747	0.5	-0.353
Mof_C 	C 	0.4245	0.7316	0.5	-0.307
Mof_C 	C 	0.2729	0.8303	0.5	0.246
Mof_C 	C 	0.1055	0.7409	0.5	0.04
Mof_H 	H 	0.1519	0.7001	0.5	0.037
Mof_N 	N 	0.03	0.8696	0.5	-0.476
Mof_C 	C 	0.191	0.8829	0.5	-0.287
Mof_C 	C 	0.1133	0.8365	0.5	0.078
Mof_C 	C 	0.1963	0.9726	0.5	0.326
Mof_C 	C 	0.0201	0.7226	0.5	-0.387
Mof_H 	H 	0.9953	0.6661	0.5	0.216
Mof_O 	O 	6.00436e-34	0	0.25	-1.181
Mof_O 	O 	1.80131e-33	0	0.75	-1.185
Mof_V 	V 	8.86994e-34	6.7564e-34	0.088	1.51
Mof_V 	V 	9.89519e-34	0	0.412	1.507
Mof_V 	V 	2.19039e-33	0	0.912	1.504
Mof_V 	V 	-1.29033e-33	0	0.588	1.507
_end
