data_functionalizedCrystal
_audit_creation_method	'EQeq! by Chris Wilmer'
_symmetry_space_group_name_H-M	'P1'
_symmetry_Int_Tables_number	1
_symmetry_cell_setting	triclinic
loop_
_symmetry_equiv_pos_as_xyz
  x,y,z
_cell_length_a	30.63
_cell_length_b	30.63
_cell_length_c	27.811
_cell_angle_alpha	90
_cell_angle_beta	90
_cell_angle_gamma	90
loop_
_atom_site_label
_atom_site_type_symbol
_atom_site_fract_x
_atom_site_fract_y
_atom_site_fract_z
_atom_site_charge
Mof_O 	O 	0.22714	0.83624	0.77744	-0.407
Mof_O 	O 	0.19273	0.87061	0.83729	-0.404
Mof_O 	O 	0.27645	0.9556	0.95079	-0.376
Mof_O 	O 	0.34991	0.95497	0.94989	-0.369
Mof_O 	O 	0.11622	0.81957	0.71313	-0.403
Mof_O 	O 	0.08088	0.85437	0.77206	-0.399
Mof_C 	C 	0.22607	0.85671	0.81677	0.36
Mof_C 	C 	0.26933	0.86743	0.83928	-0.08
Mof_C 	C 	0.27167	0.89643	0.87747	0.02
Mof_H 	H 	0.2456	0.9074	0.8914	0.06
Mof_C 	C 	0.31177	0.90945	0.89542	-0.07
Mof_C 	C 	0.34971	0.8936	0.87553	-0.02
Mof_H 	H 	0.3771	0.903	0.8877	0.062
Mof_C 	C 	0.34834	0.86361	0.8373	0.005
Mof_C 	C 	0.30723	0.8509	0.8194	-0.022
Mof_H 	H 	0.3056	0.8308	0.7935	0.057
Mof_C 	C 	0.31281	0.94183	0.93542	0.342
Mof_C 	C 	0.38763	0.84786	0.8161	0.014
Mof_C 	C 	0.4205	0.8349	0.7972	-0.053
Mof_C 	C 	0.46014	0.82081	0.7763	0.112
Mof_C 	C 	0.461	0.793	0.7366	-0.147
Mof_H 	H 	0.4344	0.7843	0.7221	0.093
Mof_C 	C 	0.08198	0.83236	0.7339	0.352
Mof_C 	C 	0.03951	0.81816	0.71292	-0.071
Mof_C 	C 	0.03906	0.7878	0.67588	-0.028
Mof_H 	H 	0.066	0.777	0.6637	0.062
Mof_C 	C 	0.9848	0.7149	0.5865	0.015
Mof_C 	C 	0.9778	0.6927	0.5432	0.075
Mof_C 	C 	0.9486	0.6516	0.5421	-0.022
Mof_O 	O 	0.77286	0.16376	0.77744	-0.408
Mof_O 	O 	0.80727	0.12939	0.83729	-0.406
Mof_O 	O 	0.72355	0.0444	0.95079	-0.389
Mof_O 	O 	0.65009	0.04503	0.94989	-0.382
Mof_O 	O 	0.88378	0.18043	0.71313	-0.403
Mof_O 	O 	0.91912	0.14563	0.77206	-0.396
Mof_C 	C 	0.77393	0.14329	0.81677	0.36
Mof_C 	C 	0.73067	0.13257	0.83928	-0.083
Mof_C 	C 	0.72833	0.10357	0.87747	0.022
Mof_H 	H 	0.7544	0.0926	0.8914	0.057
Mof_C 	C 	0.68823	0.09055	0.89542	-0.075
Mof_C 	C 	0.65029	0.1064	0.87553	-0.019
Mof_H 	H 	0.6229	0.097	0.8877	0.059
Mof_C 	C 	0.65166	0.13639	0.8373	0.003
Mof_C 	C 	0.69277	0.1491	0.8194	-0.02
Mof_H 	H 	0.6944	0.1692	0.7935	0.056
Mof_C 	C 	0.68719	0.05817	0.93542	0.343
Mof_C 	C 	0.61237	0.15214	0.8161	0.013
Mof_C 	C 	0.5795	0.1651	0.7972	-0.054
Mof_C 	C 	0.53986	0.17919	0.7763	0.111
Mof_C 	C 	0.539	0.207	0.7366	-0.147
Mof_H 	H 	0.5656	0.2157	0.7221	0.093
Mof_C 	C 	0.91802	0.16764	0.7339	0.35
Mof_C 	C 	0.96049	0.18184	0.71292	-0.059
Mof_C 	C 	0.96094	0.2122	0.67588	-0.01
Mof_H 	H 	0.934	0.223	0.6637	0.059
Mof_C 	C 	0.0152	0.2851	0.5865	-0
Mof_C 	C 	0.0222	0.3073	0.5432	-0.082
Mof_C 	C 	0.0514	0.3484	0.5421	0.013
Mof_O 	O 	0.16376	0.22714	0.77744	-0.408
Mof_O 	O 	0.12939	0.19273	0.83729	-0.407
Mof_O 	O 	0.0444	0.27645	0.95079	-0.389
Mof_O 	O 	0.04503	0.34991	0.94989	-0.382
Mof_O 	O 	0.18043	0.11622	0.71313	-0.405
Mof_O 	O 	0.14563	0.08088	0.77206	-0.403
Mof_C 	C 	0.14329	0.22607	0.81677	0.36
Mof_C 	C 	0.13257	0.26933	0.83928	-0.083
Mof_C 	C 	0.10357	0.27167	0.87747	0.022
Mof_H 	H 	0.0926	0.2456	0.8914	0.056
Mof_C 	C 	0.09055	0.31177	0.89542	-0.076
Mof_C 	C 	0.1064	0.34971	0.87553	-0.019
Mof_H 	H 	0.097	0.3771	0.8877	0.059
Mof_C 	C 	0.13639	0.34834	0.8373	0.003
Mof_C 	C 	0.1491	0.30723	0.8194	-0.02
Mof_H 	H 	0.1692	0.3056	0.7935	0.056
Mof_C 	C 	0.05817	0.31281	0.93542	0.343
Mof_C 	C 	0.15214	0.38763	0.8161	0.013
Mof_C 	C 	0.1651	0.4205	0.7972	-0.054
Mof_C 	C 	0.17919	0.46014	0.7763	0.111
Mof_C 	C 	0.207	0.461	0.7366	-0.147
Mof_H 	H 	0.2157	0.4344	0.7221	0.093
Mof_C 	C 	0.16764	0.08198	0.7339	0.352
Mof_C 	C 	0.18184	0.03951	0.71292	-0.073
Mof_C 	C 	0.2122	0.03906	0.67588	-0.027
Mof_H 	H 	0.223	0.066	0.6637	0.061
Mof_C 	C 	0.2851	0.9848	0.5865	0.014
Mof_C 	C 	0.3073	0.9778	0.5432	0.075
Mof_C 	C 	0.3484	0.9486	0.5421	-0.023
Mof_O 	O 	0.83624	0.77286	0.77744	-0.408
Mof_O 	O 	0.87061	0.80727	0.83729	-0.403
Mof_O 	O 	0.9556	0.72355	0.95079	-0.377
Mof_O 	O 	0.95497	0.65009	0.94989	-0.37
Mof_O 	O 	0.81957	0.88378	0.71313	-0.402
Mof_O 	O 	0.85437	0.91912	0.77206	-0.393
Mof_C 	C 	0.85671	0.77393	0.81677	0.359
Mof_C 	C 	0.86743	0.73067	0.83928	-0.08
Mof_C 	C 	0.89643	0.72833	0.87747	0.02
Mof_H 	H 	0.9074	0.7544	0.8914	0.06
Mof_C 	C 	0.90945	0.68823	0.89542	-0.07
Mof_C 	C 	0.8936	0.65029	0.87553	-0.021
Mof_H 	H 	0.903	0.6229	0.8877	0.062
Mof_C 	C 	0.86361	0.65166	0.8373	0.006
Mof_C 	C 	0.8509	0.69277	0.8194	-0.022
Mof_H 	H 	0.8308	0.6944	0.7935	0.057
Mof_C 	C 	0.94183	0.68719	0.93542	0.341
Mof_C 	C 	0.84786	0.61237	0.8161	0.014
Mof_C 	C 	0.8349	0.5795	0.7972	-0.053
Mof_C 	C 	0.82081	0.53986	0.7763	0.112
Mof_C 	C 	0.793	0.539	0.7366	-0.147
Mof_H 	H 	0.7843	0.5656	0.7221	0.093
Mof_C 	C 	0.83236	0.91802	0.7339	0.35
Mof_C 	C 	0.81816	0.96049	0.71292	-0.056
Mof_C 	C 	0.7878	0.96094	0.67588	-0.011
Mof_H 	H 	0.777	0.934	0.6637	0.06
Mof_C 	C 	0.7149	0.0152	0.5865	0
Mof_C 	C 	0.6927	0.0222	0.5432	-0.082
Mof_C 	C 	0.6516	0.0514	0.5421	0.013
Mof_O 	O 	0.77286	0.83624	0.22256	-0.409
Mof_O 	O 	0.80727	0.87061	0.16271	-0.41
Mof_O 	O 	0.72355	0.9556	0.04921	-0.403
Mof_O 	O 	0.65009	0.95497	0.05011	-0.396
Mof_O 	O 	0.88378	0.81957	0.28687	-0.402
Mof_O 	O 	0.91912	0.85437	0.22794	-0.396
Mof_C 	C 	0.77393	0.85671	0.18323	0.36
Mof_C 	C 	0.73067	0.86743	0.16072	-0.087
Mof_C 	C 	0.72833	0.89643	0.12253	0.024
Mof_H 	H 	0.7544	0.9074	0.1086	0.052
Mof_C 	C 	0.68823	0.90945	0.10458	-0.082
Mof_C 	C 	0.65029	0.8936	0.12447	-0.018
Mof_H 	H 	0.6229	0.903	0.1123	0.056
Mof_C 	C 	0.65166	0.86361	0.1627	0
Mof_C 	C 	0.69277	0.8509	0.1806	-0.02
Mof_H 	H 	0.6944	0.8308	0.2065	0.055
Mof_C 	C 	0.68719	0.94183	0.06458	0.344
Mof_C 	C 	0.61237	0.84786	0.1839	0.013
Mof_C 	C 	0.5795	0.8349	0.2028	-0.054
Mof_C 	C 	0.53986	0.82081	0.2237	0.112
Mof_C 	C 	0.539	0.793	0.2634	-0.147
Mof_H 	H 	0.5656	0.7843	0.2779	0.093
Mof_C 	C 	0.91802	0.83236	0.2661	0.351
Mof_C 	C 	0.96049	0.81816	0.28708	-0.057
Mof_C 	C 	0.96094	0.7878	0.32412	-0.01
Mof_H 	H 	0.934	0.777	0.3363	0.059
Mof_C 	C 	0.0152	0.7149	0.4135	-0.001
Mof_C 	C 	0.0222	0.6927	0.4568	-0.082
Mof_C 	C 	0.0514	0.6516	0.4579	0.013
Mof_O 	O 	0.22714	0.16376	0.22256	-0.41
Mof_O 	O 	0.19273	0.12939	0.16271	-0.414
Mof_O 	O 	0.27645	0.0444	0.04921	-0.417
Mof_O 	O 	0.34991	0.04503	0.05011	-0.409
Mof_O 	O 	0.11622	0.18043	0.28687	-0.405
Mof_O 	O 	0.08088	0.14563	0.22794	-0.406
Mof_C 	C 	0.22607	0.14329	0.18323	0.362
Mof_C 	C 	0.26933	0.13257	0.16072	-0.091
Mof_C 	C 	0.27167	0.10357	0.12253	0.026
Mof_H 	H 	0.2456	0.0926	0.1086	0.047
Mof_C 	C 	0.31177	0.09055	0.10458	-0.088
Mof_C 	C 	0.34971	0.1064	0.12447	-0.015
Mof_H 	H 	0.3771	0.097	0.1123	0.053
Mof_C 	C 	0.34834	0.13639	0.1627	-0.003
Mof_C 	C 	0.30723	0.1491	0.1806	-0.018
Mof_H 	H 	0.3056	0.1692	0.2065	0.054
Mof_C 	C 	0.31281	0.05817	0.06458	0.347
Mof_C 	C 	0.38763	0.15214	0.1839	0.013
Mof_C 	C 	0.4205	0.1651	0.2028	-0.056
Mof_C 	C 	0.46014	0.17919	0.2237	0.111
Mof_C 	C 	0.461	0.207	0.2634	-0.147
Mof_H 	H 	0.4344	0.2157	0.2779	0.093
Mof_C 	C 	0.08198	0.16764	0.2661	0.353
Mof_C 	C 	0.03951	0.18184	0.28708	-0.075
Mof_C 	C 	0.03906	0.2122	0.32412	-0.026
Mof_H 	H 	0.066	0.223	0.3363	0.061
Mof_C 	C 	0.9848	0.2851	0.4135	0.015
Mof_C 	C 	0.9778	0.3073	0.4568	0.074
Mof_C 	C 	0.9486	0.3484	0.4579	-0.022
Mof_O 	O 	0.83624	0.22714	0.22256	-0.409
Mof_O 	O 	0.87061	0.19273	0.16271	-0.411
Mof_O 	O 	0.9556	0.27645	0.04921	-0.404
Mof_O 	O 	0.95497	0.34991	0.05011	-0.396
Mof_O 	O 	0.81957	0.11622	0.28687	-0.404
Mof_O 	O 	0.85437	0.08088	0.22794	-0.403
Mof_C 	C 	0.85671	0.22607	0.18323	0.361
Mof_C 	C 	0.86743	0.26933	0.16072	-0.088
Mof_C 	C 	0.89643	0.27167	0.12253	0.024
Mof_H 	H 	0.9074	0.2456	0.1086	0.051
Mof_C 	C 	0.90945	0.31177	0.10458	-0.082
Mof_C 	C 	0.8936	0.34971	0.12447	-0.017
Mof_H 	H 	0.903	0.3771	0.1123	0.056
Mof_C 	C 	0.86361	0.34834	0.1627	-0
Mof_C 	C 	0.8509	0.30723	0.1806	-0.019
Mof_H 	H 	0.8308	0.3056	0.2065	0.055
Mof_C 	C 	0.94183	0.31281	0.06458	0.345
Mof_C 	C 	0.84786	0.38763	0.1839	0.013
Mof_C 	C 	0.8349	0.4205	0.2028	-0.054
Mof_C 	C 	0.82081	0.46014	0.2237	0.112
Mof_C 	C 	0.793	0.461	0.2634	-0.147
Mof_H 	H 	0.7843	0.4344	0.2779	0.093
Mof_C 	C 	0.83236	0.08198	0.2661	0.353
Mof_C 	C 	0.81816	0.03951	0.28708	-0.072
Mof_C 	C 	0.7878	0.03906	0.32412	-0.027
Mof_H 	H 	0.777	0.066	0.3363	0.062
Mof_C 	C 	0.7149	0.9848	0.4135	0.016
Mof_C 	C 	0.6927	0.9778	0.4568	0.074
Mof_C 	C 	0.6516	0.9486	0.4579	-0.022
Mof_O 	O 	0.16376	0.77286	0.22256	-0.409
Mof_O 	O 	0.12939	0.80727	0.16271	-0.413
Mof_O 	O 	0.0444	0.72355	0.04921	-0.416
Mof_O 	O 	0.04503	0.65009	0.05011	-0.409
Mof_O 	O 	0.18043	0.88378	0.28687	-0.403
Mof_O 	O 	0.14563	0.91912	0.22794	-0.399
Mof_C 	C 	0.14329	0.77393	0.18323	0.361
Mof_C 	C 	0.13257	0.73067	0.16072	-0.09
Mof_C 	C 	0.10357	0.72833	0.12253	0.026
Mof_H 	H 	0.0926	0.7544	0.1086	0.048
Mof_C 	C 	0.09055	0.68823	0.10458	-0.088
Mof_C 	C 	0.1064	0.65029	0.12447	-0.016
Mof_H 	H 	0.097	0.6229	0.1123	0.053
Mof_C 	C 	0.13639	0.65166	0.1627	-0.003
Mof_C 	C 	0.1491	0.69277	0.1806	-0.018
Mof_H 	H 	0.1692	0.6944	0.2065	0.054
Mof_C 	C 	0.05817	0.68719	0.06458	0.346
Mof_C 	C 	0.15214	0.61237	0.1839	0.013
Mof_C 	C 	0.1651	0.5795	0.2028	-0.056
Mof_C 	C 	0.17919	0.53986	0.2237	0.111
Mof_C 	C 	0.207	0.539	0.2634	-0.147
Mof_H 	H 	0.2157	0.5656	0.2779	0.093
Mof_C 	C 	0.16764	0.91802	0.2661	0.351
Mof_C 	C 	0.18184	0.96049	0.28708	-0.06
Mof_C 	C 	0.2122	0.96094	0.32412	-0.009
Mof_H 	H 	0.223	0.934	0.3363	0.058
Mof_C 	C 	0.2851	0.0152	0.4135	-0.001
Mof_C 	C 	0.3073	0.0222	0.4568	-0.082
Mof_C 	C 	0.3484	0.0514	0.4579	0.013
Mof_O 	O 	0.77286	0.16376	0.22256	-0.409
Mof_O 	O 	0.80727	0.12939	0.16271	-0.413
Mof_O 	O 	0.72355	0.0444	0.04921	-0.416
Mof_O 	O 	0.65009	0.04503	0.05011	-0.409
Mof_O 	O 	0.88378	0.18043	0.28687	-0.403
Mof_O 	O 	0.91912	0.14563	0.22794	-0.399
Mof_C 	C 	0.77393	0.14329	0.18323	0.361
Mof_C 	C 	0.73067	0.13257	0.16072	-0.09
Mof_C 	C 	0.72833	0.10357	0.12253	0.026
Mof_H 	H 	0.7544	0.0926	0.1086	0.048
Mof_C 	C 	0.68823	0.09055	0.10458	-0.088
Mof_C 	C 	0.65029	0.1064	0.12447	-0.016
Mof_H 	H 	0.6229	0.097	0.1123	0.053
Mof_C 	C 	0.65166	0.13639	0.1627	-0.003
Mof_C 	C 	0.69277	0.1491	0.1806	-0.018
Mof_H 	H 	0.6944	0.1692	0.2065	0.054
Mof_C 	C 	0.68719	0.05817	0.06458	0.346
Mof_C 	C 	0.61237	0.15214	0.1839	0.013
Mof_C 	C 	0.5795	0.1651	0.2028	-0.056
Mof_C 	C 	0.53986	0.17919	0.2237	0.111
Mof_C 	C 	0.539	0.207	0.2634	-0.147
Mof_H 	H 	0.5656	0.2157	0.2779	0.093
Mof_C 	C 	0.91802	0.16764	0.2661	0.351
Mof_C 	C 	0.96049	0.18184	0.28708	-0.06
Mof_C 	C 	0.96094	0.2122	0.32412	-0.009
Mof_H 	H 	0.934	0.223	0.3363	0.058
Mof_C 	C 	0.0152	0.2851	0.4135	-0.001
Mof_C 	C 	0.0222	0.3073	0.4568	-0.082
Mof_C 	C 	0.0514	0.3484	0.4579	0.013
Mof_O 	O 	0.22714	0.83624	0.22256	-0.409
Mof_O 	O 	0.19273	0.87061	0.16271	-0.411
Mof_O 	O 	0.27645	0.9556	0.04921	-0.404
Mof_O 	O 	0.34991	0.95497	0.05011	-0.396
Mof_O 	O 	0.11622	0.81957	0.28687	-0.404
Mof_O 	O 	0.08088	0.85437	0.22794	-0.403
Mof_C 	C 	0.22607	0.85671	0.18323	0.361
Mof_C 	C 	0.26933	0.86743	0.16072	-0.088
Mof_C 	C 	0.27167	0.89643	0.12253	0.024
Mof_H 	H 	0.2456	0.9074	0.1086	0.051
Mof_C 	C 	0.31177	0.90945	0.10458	-0.082
Mof_C 	C 	0.34971	0.8936	0.12447	-0.017
Mof_H 	H 	0.3771	0.903	0.1123	0.056
Mof_C 	C 	0.34834	0.86361	0.1627	-0
Mof_C 	C 	0.30723	0.8509	0.1806	-0.019
Mof_H 	H 	0.3056	0.8308	0.2065	0.055
Mof_C 	C 	0.31281	0.94183	0.06458	0.345
Mof_C 	C 	0.38763	0.84786	0.1839	0.013
Mof_C 	C 	0.4205	0.8349	0.2028	-0.054
Mof_C 	C 	0.46014	0.82081	0.2237	0.112
Mof_C 	C 	0.461	0.793	0.2634	-0.147
Mof_H 	H 	0.4344	0.7843	0.2779	0.093
Mof_C 	C 	0.08198	0.83236	0.2661	0.353
Mof_C 	C 	0.03951	0.81816	0.28708	-0.072
Mof_C 	C 	0.03906	0.7878	0.32412	-0.027
Mof_H 	H 	0.066	0.777	0.3363	0.062
Mof_C 	C 	0.9848	0.7149	0.4135	0.016
Mof_C 	C 	0.9778	0.6927	0.4568	0.074
Mof_C 	C 	0.9486	0.6516	0.4579	-0.022
Mof_O 	O 	0.83624	0.77286	0.22256	-0.409
Mof_O 	O 	0.87061	0.80727	0.16271	-0.41
Mof_O 	O 	0.9556	0.72355	0.04921	-0.403
Mof_O 	O 	0.95497	0.65009	0.05011	-0.396
Mof_O 	O 	0.81957	0.88378	0.28687	-0.402
Mof_O 	O 	0.85437	0.91912	0.22794	-0.396
Mof_C 	C 	0.85671	0.77393	0.18323	0.36
Mof_C 	C 	0.86743	0.73067	0.16072	-0.087
Mof_C 	C 	0.89643	0.72833	0.12253	0.024
Mof_H 	H 	0.9074	0.7544	0.1086	0.052
Mof_C 	C 	0.90945	0.68823	0.10458	-0.082
Mof_C 	C 	0.8936	0.65029	0.12447	-0.018
Mof_H 	H 	0.903	0.6229	0.1123	0.056
Mof_C 	C 	0.86361	0.65166	0.1627	0
Mof_C 	C 	0.8509	0.69277	0.1806	-0.02
Mof_H 	H 	0.8308	0.6944	0.2065	0.055
Mof_C 	C 	0.94183	0.68719	0.06458	0.344
Mof_C 	C 	0.84786	0.61237	0.1839	0.013
Mof_C 	C 	0.8349	0.5795	0.2028	-0.054
Mof_C 	C 	0.82081	0.53986	0.2237	0.112
Mof_C 	C 	0.793	0.539	0.2634	-0.147
Mof_H 	H 	0.7843	0.5656	0.2779	0.093
Mof_C 	C 	0.83236	0.91802	0.2661	0.351
Mof_C 	C 	0.81816	0.96049	0.28708	-0.057
Mof_C 	C 	0.7878	0.96094	0.32412	-0.01
Mof_H 	H 	0.777	0.934	0.3363	0.059
Mof_C 	C 	0.7149	0.0152	0.4135	-0.001
Mof_C 	C 	0.6927	0.0222	0.4568	-0.082
Mof_C 	C 	0.6516	0.0514	0.4579	0.013
Mof_O 	O 	0.16376	0.22714	0.22256	-0.41
Mof_O 	O 	0.12939	0.19273	0.16271	-0.414
Mof_O 	O 	0.0444	0.27645	0.04921	-0.417
Mof_O 	O 	0.04503	0.34991	0.05011	-0.409
Mof_O 	O 	0.18043	0.11622	0.28687	-0.405
Mof_O 	O 	0.14563	0.08088	0.22794	-0.406
Mof_C 	C 	0.14329	0.22607	0.18323	0.362
Mof_C 	C 	0.13257	0.26933	0.16072	-0.091
Mof_C 	C 	0.10357	0.27167	0.12253	0.026
Mof_H 	H 	0.0926	0.2456	0.1086	0.047
Mof_C 	C 	0.09055	0.31177	0.10458	-0.088
Mof_C 	C 	0.1064	0.34971	0.12447	-0.015
Mof_H 	H 	0.097	0.3771	0.1123	0.053
Mof_C 	C 	0.13639	0.34834	0.1627	-0.003
Mof_C 	C 	0.1491	0.30723	0.1806	-0.018
Mof_H 	H 	0.1692	0.3056	0.2065	0.054
Mof_C 	C 	0.05817	0.31281	0.06458	0.347
Mof_C 	C 	0.15214	0.38763	0.1839	0.013
Mof_C 	C 	0.1651	0.4205	0.2028	-0.056
Mof_C 	C 	0.17919	0.46014	0.2237	0.111
Mof_C 	C 	0.207	0.461	0.2634	-0.147
Mof_H 	H 	0.2157	0.4344	0.2779	0.093
Mof_C 	C 	0.16764	0.08198	0.2661	0.353
Mof_C 	C 	0.18184	0.03951	0.28708	-0.075
Mof_C 	C 	0.2122	0.03906	0.32412	-0.026
Mof_H 	H 	0.223	0.066	0.3363	0.061
Mof_C 	C 	0.2851	0.9848	0.4135	0.015
Mof_C 	C 	0.3073	0.9778	0.4568	0.074
Mof_C 	C 	0.3484	0.9486	0.4579	-0.022
Mof_O 	O 	0.22714	0.16376	0.77744	-0.408
Mof_O 	O 	0.19273	0.12939	0.83729	-0.407
Mof_O 	O 	0.27645	0.0444	0.95079	-0.389
Mof_O 	O 	0.34991	0.04503	0.94989	-0.382
Mof_O 	O 	0.11622	0.18043	0.71313	-0.405
Mof_O 	O 	0.08088	0.14563	0.77206	-0.403
Mof_C 	C 	0.22607	0.14329	0.81677	0.36
Mof_C 	C 	0.26933	0.13257	0.83928	-0.083
Mof_C 	C 	0.27167	0.10357	0.87747	0.022
Mof_H 	H 	0.2456	0.0926	0.8914	0.056
Mof_C 	C 	0.31177	0.09055	0.89542	-0.076
Mof_C 	C 	0.34971	0.1064	0.87553	-0.019
Mof_H 	H 	0.3771	0.097	0.8877	0.059
Mof_C 	C 	0.34834	0.13639	0.8373	0.003
Mof_C 	C 	0.30723	0.1491	0.8194	-0.02
Mof_H 	H 	0.3056	0.1692	0.7935	0.056
Mof_C 	C 	0.31281	0.05817	0.93542	0.343
Mof_C 	C 	0.38763	0.15214	0.8161	0.013
Mof_C 	C 	0.4205	0.1651	0.7972	-0.054
Mof_C 	C 	0.46014	0.17919	0.7763	0.111
Mof_C 	C 	0.461	0.207	0.7366	-0.147
Mof_H 	H 	0.4344	0.2157	0.7221	0.093
Mof_C 	C 	0.08198	0.16764	0.7339	0.352
Mof_C 	C 	0.03951	0.18184	0.71292	-0.073
Mof_C 	C 	0.03906	0.2122	0.67588	-0.027
Mof_H 	H 	0.066	0.223	0.6637	0.061
Mof_C 	C 	0.9848	0.2851	0.5865	0.014
Mof_C 	C 	0.9778	0.3073	0.5432	0.075
Mof_C 	C 	0.9486	0.3484	0.5421	-0.023
Mof_O 	O 	0.77286	0.83624	0.77744	-0.408
Mof_O 	O 	0.80727	0.87061	0.83729	-0.403
Mof_O 	O 	0.72355	0.9556	0.95079	-0.377
Mof_O 	O 	0.65009	0.95497	0.94989	-0.37
Mof_O 	O 	0.88378	0.81957	0.71313	-0.402
Mof_O 	O 	0.91912	0.85437	0.77206	-0.393
Mof_C 	C 	0.77393	0.85671	0.81677	0.359
Mof_C 	C 	0.73067	0.86743	0.83928	-0.08
Mof_C 	C 	0.72833	0.89643	0.87747	0.02
Mof_H 	H 	0.7544	0.9074	0.8914	0.06
Mof_C 	C 	0.68823	0.90945	0.89542	-0.07
Mof_C 	C 	0.65029	0.8936	0.87553	-0.021
Mof_H 	H 	0.6229	0.903	0.8877	0.062
Mof_C 	C 	0.65166	0.86361	0.8373	0.006
Mof_C 	C 	0.69277	0.8509	0.8194	-0.022
Mof_H 	H 	0.6944	0.8308	0.7935	0.057
Mof_C 	C 	0.68719	0.94183	0.93542	0.341
Mof_C 	C 	0.61237	0.84786	0.8161	0.014
Mof_C 	C 	0.5795	0.8349	0.7972	-0.053
Mof_C 	C 	0.53986	0.82081	0.7763	0.112
Mof_C 	C 	0.539	0.793	0.7366	-0.147
Mof_H 	H 	0.5656	0.7843	0.7221	0.093
Mof_C 	C 	0.91802	0.83236	0.7339	0.35
Mof_C 	C 	0.96049	0.81816	0.71292	-0.056
Mof_C 	C 	0.96094	0.7878	0.67588	-0.011
Mof_H 	H 	0.934	0.777	0.6637	0.06
Mof_C 	C 	0.0152	0.7149	0.5865	0
Mof_C 	C 	0.0222	0.6927	0.5432	-0.082
Mof_C 	C 	0.0514	0.6516	0.5421	0.013
Mof_O 	O 	0.16376	0.77286	0.77744	-0.408
Mof_O 	O 	0.12939	0.80727	0.83729	-0.406
Mof_O 	O 	0.0444	0.72355	0.95079	-0.389
Mof_O 	O 	0.04503	0.65009	0.94989	-0.382
Mof_O 	O 	0.18043	0.88378	0.71313	-0.403
Mof_O 	O 	0.14563	0.91912	0.77206	-0.396
Mof_C 	C 	0.14329	0.77393	0.81677	0.36
Mof_C 	C 	0.13257	0.73067	0.83928	-0.083
Mof_C 	C 	0.10357	0.72833	0.87747	0.022
Mof_H 	H 	0.0926	0.7544	0.8914	0.057
Mof_C 	C 	0.09055	0.68823	0.89542	-0.075
Mof_C 	C 	0.1064	0.65029	0.87553	-0.019
Mof_H 	H 	0.097	0.6229	0.8877	0.059
Mof_C 	C 	0.13639	0.65166	0.8373	0.003
Mof_C 	C 	0.1491	0.69277	0.8194	-0.02
Mof_H 	H 	0.1692	0.6944	0.7935	0.056
Mof_C 	C 	0.05817	0.68719	0.93542	0.343
Mof_C 	C 	0.15214	0.61237	0.8161	0.013
Mof_C 	C 	0.1651	0.5795	0.7972	-0.054
Mof_C 	C 	0.17919	0.53986	0.7763	0.111
Mof_C 	C 	0.207	0.539	0.7366	-0.147
Mof_H 	H 	0.2157	0.5656	0.7221	0.093
Mof_C 	C 	0.16764	0.91802	0.7339	0.35
Mof_C 	C 	0.18184	0.96049	0.71292	-0.059
Mof_C 	C 	0.2122	0.96094	0.67588	-0.01
Mof_H 	H 	0.223	0.934	0.6637	0.059
Mof_C 	C 	0.2851	0.0152	0.5865	-0
Mof_C 	C 	0.3073	0.0222	0.5432	-0.082
Mof_C 	C 	0.3484	0.0514	0.5421	0.013
Mof_O 	O 	0.83624	0.22714	0.77744	-0.408
Mof_O 	O 	0.87061	0.19273	0.83729	-0.405
Mof_O 	O 	0.9556	0.27645	0.95079	-0.377
Mof_O 	O 	0.95497	0.34991	0.94989	-0.37
Mof_O 	O 	0.81957	0.11622	0.71313	-0.404
Mof_O 	O 	0.85437	0.08088	0.77206	-0.4
Mof_C 	C 	0.85671	0.22607	0.81677	0.359
Mof_C 	C 	0.86743	0.26933	0.83928	-0.081
Mof_C 	C 	0.89643	0.27167	0.87747	0.02
Mof_H 	H 	0.9074	0.2456	0.8914	0.06
Mof_C 	C 	0.90945	0.31177	0.89542	-0.07
Mof_C 	C 	0.8936	0.34971	0.87553	-0.02
Mof_H 	H 	0.903	0.3771	0.8877	0.062
Mof_C 	C 	0.86361	0.34834	0.8373	0.005
Mof_C 	C 	0.8509	0.30723	0.8194	-0.022
Mof_H 	H 	0.8308	0.3056	0.7935	0.057
Mof_C 	C 	0.94183	0.31281	0.93542	0.342
Mof_C 	C 	0.84786	0.38763	0.8161	0.014
Mof_C 	C 	0.8349	0.4205	0.7972	-0.053
Mof_C 	C 	0.82081	0.46014	0.7763	0.112
Mof_C 	C 	0.793	0.461	0.7366	-0.147
Mof_H 	H 	0.7843	0.4344	0.7221	0.093
Mof_C 	C 	0.83236	0.08198	0.7339	0.352
Mof_C 	C 	0.81816	0.03951	0.71292	-0.071
Mof_C 	C 	0.7878	0.03906	0.67588	-0.028
Mof_H 	H 	0.777	0.066	0.6637	0.062
Mof_C 	C 	0.7149	0.9848	0.5865	0.015
Mof_C 	C 	0.6927	0.9778	0.5432	0.075
Mof_C 	C 	0.6516	0.9486	0.5421	-0.022
Mof_Cu	Cu	0.17514	0.82486	0.7394	0.908
Mof_Cu	Cu	0.13376	0.86624	0.80999	0.906
Mof_Cu	Cu	0.82486	0.17514	0.7394	0.908
Mof_Cu	Cu	0.86624	0.13376	0.80999	0.906
Mof_Cu	Cu	0.17514	0.17514	0.7394	0.908
Mof_Cu	Cu	0.13376	0.13376	0.80999	0.904
Mof_Cu	Cu	0.82486	0.82486	0.7394	0.908
Mof_Cu	Cu	0.86624	0.86624	0.80999	0.907
Mof_Cu	Cu	0.82486	0.82486	0.2606	0.908
Mof_Cu	Cu	0.86624	0.86624	0.19001	0.905
Mof_Cu	Cu	0.17514	0.17514	0.2606	0.908
Mof_Cu	Cu	0.13376	0.13376	0.19001	0.902
Mof_Cu	Cu	0.82486	0.17514	0.2606	0.908
Mof_Cu	Cu	0.86624	0.13376	0.19001	0.903
Mof_Cu	Cu	0.17514	0.82486	0.2606	0.908
Mof_Cu	Cu	0.13376	0.86624	0.19001	0.903
Mof_Cu	Cu	0.357	0	-0	0.877
Mof_Cu	Cu	0.2702	0	-0	0.884
Mof_Cu	Cu	0.643	0	-0	0.877
Mof_Cu	Cu	0.7298	0	-0	0.885
Mof_Cu	Cu	-0	0.357	-0	0.877
Mof_Cu	Cu	1.93495e-33	0.2702	-0	0.884
Mof_Cu	Cu	-0	0.643	-0	0.877
Mof_Cu	Cu	7.7398e-33	0.7298	-0	0.885
Mof_C 	C 	0.5	0.8349	0.7953	-0.159
Mof_H 	H 	0.5	0.8546	0.8217	0.095
Mof_C 	C 	0.5	0.778	0.7182	0.075
Mof_H 	H 	0.5	0.7572	0.6929	0.016
Mof_C 	C 	0.5	0.1651	0.7953	-0.159
Mof_H 	H 	0.5	0.1454	0.8217	0.093
Mof_C 	C 	0.5	0.222	0.7182	0.075
Mof_H 	H 	0.5	0.2428	0.6929	0.016
Mof_C 	C 	0.1651	0.5	0.7953	-0.159
Mof_H 	H 	0.1454	0.5	0.8217	0.093
Mof_C 	C 	0.222	0.5	0.7182	0.075
Mof_H 	H 	0.2428	0.5	0.6929	0.016
Mof_C 	C 	0.8349	0.5	0.7953	-0.159
Mof_H 	H 	0.8546	0.5	0.8217	0.095
Mof_C 	C 	0.778	0.5	0.7182	0.075
Mof_H 	H 	0.7572	0.5	0.6929	0.016
Mof_C 	C 	0.5	0.8349	0.2047	-0.159
Mof_H 	H 	0.5	0.8546	0.1783	0.094
Mof_C 	C 	0.5	0.778	0.2818	0.075
Mof_H 	H 	0.5	0.7572	0.3071	0.016
Mof_C 	C 	0.5	0.1651	0.2047	-0.159
Mof_H 	H 	0.5	0.1454	0.1783	0.092
Mof_C 	C 	0.5	0.222	0.2818	0.075
Mof_H 	H 	0.5	0.2428	0.3071	0.016
Mof_C 	C 	0.8349	0.5	0.2047	-0.159
Mof_H 	H 	0.8546	0.5	0.1783	0.094
Mof_C 	C 	0.778	0.5	0.2818	0.075
Mof_H 	H 	0.7572	0.5	0.3071	0.016
Mof_C 	C 	0.1651	0.5	0.2047	-0.159
Mof_H 	H 	0.1454	0.5	0.1783	0.092
Mof_C 	C 	0.222	0.5	0.2818	0.075
Mof_H 	H 	0.2428	0.5	0.3071	0.016
Mof_C 	C 	2.49231e-33	0.8333	0.7321	-0.005
Mof_H 	H 	2.5798e-33	0.8536	0.7578	0.059
Mof_C 	C 	-5.50622e-33	0.7726	0.6561	0.01
Mof_C 	C 	2.10728e-33	0.742	0.619	-0.03
Mof_C 	C 	2.49231e-33	0.1667	0.7321	-0.005
Mof_H 	H 	2.5798e-33	0.1464	0.7578	0.056
Mof_C 	C 	2.23358e-33	0.2274	0.6561	0.008
Mof_C 	C 	-5.63252e-33	0.258	0.619	-0.03
Mof_C 	C 	0.1667	0	0.7321	-0.005
Mof_H 	H 	0.1464	0	0.7578	0.056
Mof_C 	C 	0.2274	0	0.6561	0.008
Mof_C 	C 	0.258	3.8699e-33	0.619	-0.03
Mof_C 	C 	0.8333	0	0.7321	-0.005
Mof_H 	H 	0.8536	0	0.7578	0.059
Mof_C 	C 	0.7726	0	0.6561	0.01
Mof_C 	C 	0.742	3.8699e-33	0.619	-0.03
Mof_C 	C 	4.78192e-33	0.8333	0.2679	-0.005
Mof_H 	H 	-4.98032e-33	0.8536	0.2422	0.056
Mof_C 	C 	1.17075e-33	0.7726	0.3439	0.009
Mof_C 	C 	-2.57285e-33	0.742	0.381	-0.029
Mof_C 	C 	-2.95788e-33	0.1667	0.2679	-0.004
Mof_H 	H 	8.24528e-34	0.1464	0.2422	0.053
Mof_C 	C 	1.17075e-33	0.2274	0.3439	0.007
Mof_C 	C 	-2.57285e-33	0.258	0.381	-0.03
Mof_C 	C 	0.8333	-1.93495e-33	0.2679	-0.005
Mof_H 	H 	0.8536	0	0.2422	0.056
Mof_C 	C 	0.7726	0	0.3439	0.009
Mof_C 	C 	0.742	0	0.381	-0.029
Mof_C 	C 	0.1667	-1.93495e-33	0.2679	-0.004
Mof_H 	H 	0.1464	0	0.2422	0.053
Mof_C 	C 	0.2274	0	0.3439	0.007
Mof_C 	C 	0.258	0	0.381	-0.03
Mof_C 	C 	0.9874	0.7122	0.5	-0.158
Mof_C 	C 	0.9346	0.6343	0.5	0.017
Mof_C 	C 	0.0126	0.2878	0.5	0.162
Mof_C 	C 	0.0654	0.3657	0.5	-0.019
Mof_C 	C 	0.2878	0.9874	0.5	-0.158
Mof_C 	C 	0.3657	0.9346	0.5	0.017
Mof_C 	C 	0.7122	0.0126	0.5	0.163
Mof_C 	C 	0.6343	0.0654	0.5	-0.019
Mof_C 	C 	0.0126	0.7122	0.5	0.163
Mof_C 	C 	0.0654	0.6343	0.5	-0.019
Mof_C 	C 	0.9874	0.2878	0.5	-0.158
Mof_C 	C 	0.9346	0.3657	0.5	0.017
Mof_C 	C 	0.7122	0.9874	0.5	-0.158
Mof_C 	C 	0.6343	0.9346	0.5	0.017
Mof_C 	C 	0.2878	0.0126	0.5	0.162
Mof_C 	C 	0.3657	0.0654	0.5	-0.019
Mof_O 	O 	0.72714	0.33624	0.27744	-0.409
Mof_O 	O 	0.69273	0.37061	0.33729	-0.409
Mof_O 	O 	0.77645	0.4556	0.45079	-0.403
Mof_O 	O 	0.84991	0.45497	0.44989	-0.396
Mof_O 	O 	0.61622	0.31957	0.21313	-0.407
Mof_O 	O 	0.58088	0.35437	0.27206	-0.403
Mof_C 	C 	0.72607	0.35671	0.31677	0.361
Mof_C 	C 	0.76933	0.36743	0.33928	-0.087
Mof_C 	C 	0.77167	0.39643	0.37747	0.024
Mof_H 	H 	0.7456	0.4074	0.3914	0.053
Mof_C 	C 	0.81177	0.40945	0.39542	-0.081
Mof_C 	C 	0.84971	0.3936	0.37553	-0.017
Mof_H 	H 	0.8771	0.403	0.3877	0.058
Mof_C 	C 	0.84834	0.36361	0.3373	0
Mof_C 	C 	0.80723	0.3509	0.3194	-0.019
Mof_H 	H 	0.8056	0.3308	0.2935	0.055
Mof_C 	C 	0.81281	0.44183	0.43542	0.346
Mof_C 	C 	0.88763	0.34786	0.3161	0.016
Mof_C 	C 	0.9205	0.3349	0.2972	-0.055
Mof_C 	C 	0.96014	0.32081	0.2763	0.125
Mof_C 	C 	0.961	0.293	0.2366	-0.119
Mof_H 	H 	0.9344	0.2843	0.2221	0.086
Mof_C 	C 	0.58198	0.33236	0.2339	0.355
Mof_C 	C 	0.53951	0.31816	0.21292	-0.079
Mof_C 	C 	0.53906	0.2878	0.17588	-0.025
Mof_H 	H 	0.566	0.277	0.1637	0.059
Mof_C 	C 	0.4848	0.2149	0.0865	-0.002
Mof_C 	C 	0.4778	0.1927	0.0432	-0.001
Mof_C 	C 	0.4486	0.1516	0.0421	-0.001
Mof_O 	O 	0.27286	0.66376	0.27744	-0.409
Mof_O 	O 	0.30727	0.62939	0.33729	-0.409
Mof_O 	O 	0.22355	0.5444	0.45079	-0.404
Mof_O 	O 	0.15009	0.54503	0.44989	-0.398
Mof_O 	O 	0.38378	0.68043	0.21313	-0.407
Mof_O 	O 	0.41912	0.64563	0.27206	-0.403
Mof_C 	C 	0.27393	0.64329	0.31677	0.361
Mof_C 	C 	0.23067	0.63257	0.33928	-0.087
Mof_C 	C 	0.22833	0.60357	0.37747	0.024
Mof_H 	H 	0.2544	0.5926	0.3914	0.053
Mof_C 	C 	0.18823	0.59055	0.39542	-0.082
Mof_C 	C 	0.15029	0.6064	0.37553	-0.016
Mof_H 	H 	0.1229	0.597	0.3877	0.055
Mof_C 	C 	0.15166	0.63639	0.3373	-0
Mof_C 	C 	0.19277	0.6491	0.3194	-0.019
Mof_H 	H 	0.1944	0.6692	0.2935	0.055
Mof_C 	C 	0.18719	0.55817	0.43542	0.347
Mof_C 	C 	0.11237	0.65214	0.3161	0.013
Mof_C 	C 	0.0795	0.6651	0.2972	-0.056
Mof_C 	C 	0.03986	0.67919	0.2763	0.111
Mof_C 	C 	0.039	0.707	0.2366	-0.137
Mof_H 	H 	0.0656	0.7157	0.2221	0.089
Mof_C 	C 	0.41802	0.66764	0.2339	0.355
Mof_C 	C 	0.46049	0.68184	0.21292	-0.08
Mof_C 	C 	0.46094	0.7122	0.17588	-0.026
Mof_H 	H 	0.434	0.723	0.1637	0.059
Mof_C 	C 	0.5152	0.7851	0.0865	-0.002
Mof_C 	C 	0.5222	0.8073	0.0432	-0.001
Mof_C 	C 	0.5514	0.8484	0.0421	0
Mof_O 	O 	0.66376	0.72714	0.27744	-0.409
Mof_O 	O 	0.62939	0.69273	0.33729	-0.409
Mof_O 	O 	0.5444	0.77645	0.45079	-0.403
Mof_O 	O 	0.54503	0.84991	0.44989	-0.396
Mof_O 	O 	0.68043	0.61622	0.21313	-0.407
Mof_O 	O 	0.64563	0.58088	0.27206	-0.403
Mof_C 	C 	0.64329	0.72607	0.31677	0.361
Mof_C 	C 	0.63257	0.76933	0.33928	-0.087
Mof_C 	C 	0.60357	0.77167	0.37747	0.024
Mof_H 	H 	0.5926	0.7456	0.3914	0.053
Mof_C 	C 	0.59055	0.81177	0.39542	-0.081
Mof_C 	C 	0.6064	0.84971	0.37553	-0.017
Mof_H 	H 	0.597	0.8771	0.3877	0.058
Mof_C 	C 	0.63639	0.84834	0.3373	0
Mof_C 	C 	0.6491	0.80723	0.3194	-0.019
Mof_H 	H 	0.6692	0.8056	0.2935	0.055
Mof_C 	C 	0.55817	0.81281	0.43542	0.346
Mof_C 	C 	0.65214	0.88763	0.3161	0.016
Mof_C 	C 	0.6651	0.9205	0.2972	-0.055
Mof_C 	C 	0.67919	0.96014	0.2763	0.125
Mof_C 	C 	0.707	0.961	0.2366	-0.118
Mof_H 	H 	0.7157	0.9344	0.2221	0.086
Mof_C 	C 	0.66764	0.58198	0.2339	0.355
Mof_C 	C 	0.68184	0.53951	0.21292	-0.08
Mof_C 	C 	0.7122	0.53906	0.17588	-0.026
Mof_H 	H 	0.723	0.566	0.1637	0.059
Mof_C 	C 	0.7851	0.4848	0.0865	-0.002
Mof_C 	C 	0.8073	0.4778	0.0432	-0.002
Mof_C 	C 	0.8484	0.4486	0.0421	0
Mof_O 	O 	0.33624	0.27286	0.27744	-0.409
Mof_O 	O 	0.37061	0.30727	0.33729	-0.409
Mof_O 	O 	0.4556	0.22355	0.45079	-0.404
Mof_O 	O 	0.45497	0.15009	0.44989	-0.398
Mof_O 	O 	0.31957	0.38378	0.21313	-0.407
Mof_O 	O 	0.35437	0.41912	0.27206	-0.403
Mof_C 	C 	0.35671	0.27393	0.31677	0.361
Mof_C 	C 	0.36743	0.23067	0.33928	-0.087
Mof_C 	C 	0.39643	0.22833	0.37747	0.024
Mof_H 	H 	0.4074	0.2544	0.3914	0.053
Mof_C 	C 	0.40945	0.18823	0.39542	-0.082
Mof_C 	C 	0.3936	0.15029	0.37553	-0.016
Mof_H 	H 	0.403	0.1229	0.3877	0.055
Mof_C 	C 	0.36361	0.15166	0.3373	-0
Mof_C 	C 	0.3509	0.19277	0.3194	-0.019
Mof_H 	H 	0.3308	0.1944	0.2935	0.055
Mof_C 	C 	0.44183	0.18719	0.43542	0.347
Mof_C 	C 	0.34786	0.11237	0.3161	0.013
Mof_C 	C 	0.3349	0.0795	0.2972	-0.056
Mof_C 	C 	0.32081	0.03986	0.2763	0.112
Mof_C 	C 	0.293	0.039	0.2366	-0.137
Mof_H 	H 	0.2843	0.0656	0.2221	0.089
Mof_C 	C 	0.33236	0.41802	0.2339	0.355
Mof_C 	C 	0.31816	0.46049	0.21292	-0.079
Mof_C 	C 	0.2878	0.46094	0.17588	-0.025
Mof_H 	H 	0.277	0.434	0.1637	0.059
Mof_C 	C 	0.2149	0.5152	0.0865	-0.002
Mof_C 	C 	0.1927	0.5222	0.0432	-0.001
Mof_C 	C 	0.1516	0.5514	0.0421	-0.001
Mof_O 	O 	0.27286	0.33624	0.72256	-0.408
Mof_O 	O 	0.30727	0.37061	0.66271	-0.409
Mof_O 	O 	0.22355	0.4556	0.54921	-0.404
Mof_O 	O 	0.15009	0.45497	0.55011	-0.398
Mof_O 	O 	0.38378	0.31957	0.78687	-0.403
Mof_O 	O 	0.41912	0.35437	0.72794	-0.402
Mof_C 	C 	0.27393	0.35671	0.68323	0.36
Mof_C 	C 	0.23067	0.36743	0.66072	-0.087
Mof_C 	C 	0.22833	0.39643	0.62253	0.024
Mof_H 	H 	0.2544	0.4074	0.6086	0.053
Mof_C 	C 	0.18823	0.40945	0.60458	-0.082
Mof_C 	C 	0.15029	0.3936	0.62447	-0.017
Mof_H 	H 	0.1229	0.403	0.6123	0.055
Mof_C 	C 	0.15166	0.36361	0.6627	-0
Mof_C 	C 	0.19277	0.3509	0.6806	-0.019
Mof_H 	H 	0.1944	0.3308	0.7065	0.055
Mof_C 	C 	0.18719	0.44183	0.56458	0.347
Mof_C 	C 	0.11237	0.34786	0.6839	0.013
Mof_C 	C 	0.0795	0.3349	0.7028	-0.055
Mof_C 	C 	0.03986	0.32081	0.7237	0.111
Mof_C 	C 	0.039	0.293	0.7634	-0.136
Mof_H 	H 	0.0656	0.2843	0.7779	0.089
Mof_C 	C 	0.41802	0.33236	0.7661	0.355
Mof_C 	C 	0.46049	0.31816	0.78708	-0.076
Mof_C 	C 	0.46094	0.2878	0.82412	-0.024
Mof_H 	H 	0.434	0.277	0.8363	0.063
Mof_C 	C 	0.5152	0.2149	0.9135	-0.003
Mof_C 	C 	0.5222	0.1927	0.9568	0.02
Mof_C 	C 	0.5514	0.1516	0.9579	0.038
Mof_O 	O 	0.72714	0.66376	0.72256	-0.408
Mof_O 	O 	0.69273	0.62939	0.66271	-0.409
Mof_O 	O 	0.77645	0.5444	0.54921	-0.403
Mof_O 	O 	0.84991	0.54503	0.55011	-0.396
Mof_O 	O 	0.61622	0.68043	0.78687	-0.403
Mof_O 	O 	0.58088	0.64563	0.72794	-0.402
Mof_C 	C 	0.72607	0.64329	0.68323	0.36
Mof_C 	C 	0.76933	0.63257	0.66072	-0.086
Mof_C 	C 	0.77167	0.60357	0.62253	0.024
Mof_H 	H 	0.7456	0.5926	0.6086	0.053
Mof_C 	C 	0.81177	0.59055	0.60458	-0.081
Mof_C 	C 	0.84971	0.6064	0.62447	-0.017
Mof_H 	H 	0.8771	0.597	0.6123	0.058
Mof_C 	C 	0.84834	0.63639	0.6627	0.001
Mof_C 	C 	0.80723	0.6491	0.6806	-0.019
Mof_H 	H 	0.8056	0.6692	0.7065	0.056
Mof_C 	C 	0.81281	0.55817	0.56458	0.346
Mof_C 	C 	0.88763	0.65214	0.6839	0.016
Mof_C 	C 	0.9205	0.6651	0.7028	-0.054
Mof_C 	C 	0.96014	0.67919	0.7237	0.124
Mof_C 	C 	0.961	0.707	0.7634	-0.118
Mof_H 	H 	0.9344	0.7157	0.7779	0.086
Mof_C 	C 	0.58198	0.66764	0.7661	0.355
Mof_C 	C 	0.53951	0.68184	0.78708	-0.076
Mof_C 	C 	0.53906	0.7122	0.82412	-0.024
Mof_H 	H 	0.566	0.723	0.8363	0.063
Mof_C 	C 	0.4848	0.7851	0.9135	-0.002
Mof_C 	C 	0.4778	0.8073	0.9568	0.02
Mof_C 	C 	0.4486	0.8484	0.9579	0.039
Mof_O 	O 	0.33624	0.72714	0.72256	-0.408
Mof_O 	O 	0.37061	0.69273	0.66271	-0.409
Mof_O 	O 	0.4556	0.77645	0.54921	-0.403
Mof_O 	O 	0.45497	0.84991	0.55011	-0.396
Mof_O 	O 	0.31957	0.61622	0.78687	-0.403
Mof_O 	O 	0.35437	0.58088	0.72794	-0.402
Mof_C 	C 	0.35671	0.72607	0.68323	0.36
Mof_C 	C 	0.36743	0.76933	0.66072	-0.086
Mof_C 	C 	0.39643	0.77167	0.62253	0.024
Mof_H 	H 	0.4074	0.7456	0.6086	0.053
Mof_C 	C 	0.40945	0.81177	0.60458	-0.081
Mof_C 	C 	0.3936	0.84971	0.62447	-0.017
Mof_H 	H 	0.403	0.8771	0.6123	0.058
Mof_C 	C 	0.36361	0.84834	0.6627	0.001
Mof_C 	C 	0.3509	0.80723	0.6806	-0.019
Mof_H 	H 	0.3308	0.8056	0.7065	0.055
Mof_C 	C 	0.44183	0.81281	0.56458	0.346
Mof_C 	C 	0.34786	0.88763	0.6839	0.016
Mof_C 	C 	0.3349	0.9205	0.7028	-0.054
Mof_C 	C 	0.32081	0.96014	0.7237	0.124
Mof_C 	C 	0.293	0.961	0.7634	-0.118
Mof_H 	H 	0.2843	0.9344	0.7779	0.086
Mof_C 	C 	0.33236	0.58198	0.7661	0.355
Mof_C 	C 	0.31816	0.53951	0.78708	-0.076
Mof_C 	C 	0.2878	0.53906	0.82412	-0.024
Mof_H 	H 	0.277	0.566	0.8363	0.063
Mof_C 	C 	0.2149	0.4848	0.9135	-0.003
Mof_C 	C 	0.1927	0.4778	0.9568	0.02
Mof_C 	C 	0.1516	0.4486	0.9579	0.038
Mof_O 	O 	0.66376	0.27286	0.72256	-0.408
Mof_O 	O 	0.62939	0.30727	0.66271	-0.409
Mof_O 	O 	0.5444	0.22355	0.54921	-0.404
Mof_O 	O 	0.54503	0.15009	0.55011	-0.398
Mof_O 	O 	0.68043	0.38378	0.78687	-0.403
Mof_O 	O 	0.64563	0.41912	0.72794	-0.402
Mof_C 	C 	0.64329	0.27393	0.68323	0.36
Mof_C 	C 	0.63257	0.23067	0.66072	-0.087
Mof_C 	C 	0.60357	0.22833	0.62253	0.024
Mof_H 	H 	0.5926	0.2544	0.6086	0.053
Mof_C 	C 	0.59055	0.18823	0.60458	-0.082
Mof_C 	C 	0.6064	0.15029	0.62447	-0.017
Mof_H 	H 	0.597	0.1229	0.6123	0.055
Mof_C 	C 	0.63639	0.15166	0.6627	-0
Mof_C 	C 	0.6491	0.19277	0.6806	-0.019
Mof_H 	H 	0.6692	0.1944	0.7065	0.055
Mof_C 	C 	0.55817	0.18719	0.56458	0.347
Mof_C 	C 	0.65214	0.11237	0.6839	0.013
Mof_C 	C 	0.6651	0.0795	0.7028	-0.055
Mof_C 	C 	0.67919	0.03986	0.7237	0.111
Mof_C 	C 	0.707	0.039	0.7634	-0.136
Mof_H 	H 	0.7157	0.0656	0.7779	0.089
Mof_C 	C 	0.66764	0.41802	0.7661	0.355
Mof_C 	C 	0.68184	0.46049	0.78708	-0.076
Mof_C 	C 	0.7122	0.46094	0.82412	-0.024
Mof_H 	H 	0.723	0.434	0.8363	0.063
Mof_C 	C 	0.7851	0.5152	0.9135	-0.002
Mof_C 	C 	0.8073	0.5222	0.9568	0.02
Mof_C 	C 	0.8484	0.5514	0.9579	0.038
Mof_O 	O 	0.27286	0.66376	0.72256	-0.408
Mof_O 	O 	0.30727	0.62939	0.66271	-0.409
Mof_O 	O 	0.22355	0.5444	0.54921	-0.404
Mof_O 	O 	0.15009	0.54503	0.55011	-0.398
Mof_O 	O 	0.38378	0.68043	0.78687	-0.403
Mof_O 	O 	0.41912	0.64563	0.72794	-0.402
Mof_C 	C 	0.27393	0.64329	0.68323	0.36
Mof_C 	C 	0.23067	0.63257	0.66072	-0.087
Mof_C 	C 	0.22833	0.60357	0.62253	0.024
Mof_H 	H 	0.2544	0.5926	0.6086	0.053
Mof_C 	C 	0.18823	0.59055	0.60458	-0.082
Mof_C 	C 	0.15029	0.6064	0.62447	-0.017
Mof_H 	H 	0.1229	0.597	0.6123	0.055
Mof_C 	C 	0.15166	0.63639	0.6627	-0
Mof_C 	C 	0.19277	0.6491	0.6806	-0.019
Mof_H 	H 	0.1944	0.6692	0.7065	0.055
Mof_C 	C 	0.18719	0.55817	0.56458	0.347
Mof_C 	C 	0.11237	0.65214	0.6839	0.013
Mof_C 	C 	0.0795	0.6651	0.7028	-0.055
Mof_C 	C 	0.03986	0.67919	0.7237	0.111
Mof_C 	C 	0.039	0.707	0.7634	-0.136
Mof_H 	H 	0.0656	0.7157	0.7779	0.089
Mof_C 	C 	0.41802	0.66764	0.7661	0.355
Mof_C 	C 	0.46049	0.68184	0.78708	-0.076
Mof_C 	C 	0.46094	0.7122	0.82412	-0.024
Mof_H 	H 	0.434	0.723	0.8363	0.063
Mof_C 	C 	0.5152	0.7851	0.9135	-0.002
Mof_C 	C 	0.5222	0.8073	0.9568	0.02
Mof_C 	C 	0.5514	0.8484	0.9579	0.038
Mof_O 	O 	0.72714	0.33624	0.72256	-0.408
Mof_O 	O 	0.69273	0.37061	0.66271	-0.409
Mof_O 	O 	0.77645	0.4556	0.54921	-0.403
Mof_O 	O 	0.84991	0.45497	0.55011	-0.396
Mof_O 	O 	0.61622	0.31957	0.78687	-0.403
Mof_O 	O 	0.58088	0.35437	0.72794	-0.402
Mof_C 	C 	0.72607	0.35671	0.68323	0.36
Mof_C 	C 	0.76933	0.36743	0.66072	-0.086
Mof_C 	C 	0.77167	0.39643	0.62253	0.024
Mof_H 	H 	0.7456	0.4074	0.6086	0.053
Mof_C 	C 	0.81177	0.40945	0.60458	-0.081
Mof_C 	C 	0.84971	0.3936	0.62447	-0.017
Mof_H 	H 	0.8771	0.403	0.6123	0.058
Mof_C 	C 	0.84834	0.36361	0.6627	0.001
Mof_C 	C 	0.80723	0.3509	0.6806	-0.019
Mof_H 	H 	0.8056	0.3308	0.7065	0.055
Mof_C 	C 	0.81281	0.44183	0.56458	0.346
Mof_C 	C 	0.88763	0.34786	0.6839	0.016
Mof_C 	C 	0.9205	0.3349	0.7028	-0.054
Mof_C 	C 	0.96014	0.32081	0.7237	0.124
Mof_C 	C 	0.961	0.293	0.7634	-0.118
Mof_H 	H 	0.9344	0.2843	0.7779	0.086
Mof_C 	C 	0.58198	0.33236	0.7661	0.355
Mof_C 	C 	0.53951	0.31816	0.78708	-0.076
Mof_C 	C 	0.53906	0.2878	0.82412	-0.024
Mof_H 	H 	0.566	0.277	0.8363	0.063
Mof_C 	C 	0.4848	0.2149	0.9135	-0.003
Mof_C 	C 	0.4778	0.1927	0.9568	0.02
Mof_C 	C 	0.4486	0.1516	0.9579	0.038
Mof_O 	O 	0.33624	0.27286	0.72256	-0.408
Mof_O 	O 	0.37061	0.30727	0.66271	-0.409
Mof_O 	O 	0.4556	0.22355	0.54921	-0.404
Mof_O 	O 	0.45497	0.15009	0.55011	-0.398
Mof_O 	O 	0.31957	0.38378	0.78687	-0.403
Mof_O 	O 	0.35437	0.41912	0.72794	-0.402
Mof_C 	C 	0.35671	0.27393	0.68323	0.36
Mof_C 	C 	0.36743	0.23067	0.66072	-0.087
Mof_C 	C 	0.39643	0.22833	0.62253	0.024
Mof_H 	H 	0.4074	0.2544	0.6086	0.053
Mof_C 	C 	0.40945	0.18823	0.60458	-0.082
Mof_C 	C 	0.3936	0.15029	0.62447	-0.017
Mof_H 	H 	0.403	0.1229	0.6123	0.055
Mof_C 	C 	0.36361	0.15166	0.6627	-0
Mof_C 	C 	0.3509	0.19277	0.6806	-0.019
Mof_H 	H 	0.3308	0.1944	0.7065	0.055
Mof_C 	C 	0.44183	0.18719	0.56458	0.347
Mof_C 	C 	0.34786	0.11237	0.6839	0.013
Mof_C 	C 	0.3349	0.0795	0.7028	-0.055
Mof_C 	C 	0.32081	0.03986	0.7237	0.111
Mof_C 	C 	0.293	0.039	0.7634	-0.136
Mof_H 	H 	0.2843	0.0656	0.7779	0.089
Mof_C 	C 	0.33236	0.41802	0.7661	0.355
Mof_C 	C 	0.31816	0.46049	0.78708	-0.076
Mof_C 	C 	0.2878	0.46094	0.82412	-0.024
Mof_H 	H 	0.277	0.434	0.8363	0.063
Mof_C 	C 	0.2149	0.5152	0.9135	-0.003
Mof_C 	C 	0.1927	0.5222	0.9568	0.02
Mof_C 	C 	0.1516	0.5514	0.9579	0.038
Mof_O 	O 	0.66376	0.72714	0.72256	-0.408
Mof_O 	O 	0.62939	0.69273	0.66271	-0.409
Mof_O 	O 	0.5444	0.77645	0.54921	-0.403
Mof_O 	O 	0.54503	0.84991	0.55011	-0.396
Mof_O 	O 	0.68043	0.61622	0.78687	-0.403
Mof_O 	O 	0.64563	0.58088	0.72794	-0.402
Mof_C 	C 	0.64329	0.72607	0.68323	0.36
Mof_C 	C 	0.63257	0.76933	0.66072	-0.086
Mof_C 	C 	0.60357	0.77167	0.62253	0.024
Mof_H 	H 	0.5926	0.7456	0.6086	0.053
Mof_C 	C 	0.59055	0.81177	0.60458	-0.081
Mof_C 	C 	0.6064	0.84971	0.62447	-0.017
Mof_H 	H 	0.597	0.8771	0.6123	0.058
Mof_C 	C 	0.63639	0.84834	0.6627	0.001
Mof_C 	C 	0.6491	0.80723	0.6806	-0.019
Mof_H 	H 	0.6692	0.8056	0.7065	0.056
Mof_C 	C 	0.55817	0.81281	0.56458	0.346
Mof_C 	C 	0.65214	0.88763	0.6839	0.016
Mof_C 	C 	0.6651	0.9205	0.7028	-0.054
Mof_C 	C 	0.67919	0.96014	0.7237	0.124
Mof_C 	C 	0.707	0.961	0.7634	-0.118
Mof_H 	H 	0.7157	0.9344	0.7779	0.086
Mof_C 	C 	0.66764	0.58198	0.7661	0.355
Mof_C 	C 	0.68184	0.53951	0.78708	-0.076
Mof_C 	C 	0.7122	0.53906	0.82412	-0.024
Mof_H 	H 	0.723	0.566	0.8363	0.063
Mof_C 	C 	0.7851	0.4848	0.9135	-0.002
Mof_C 	C 	0.8073	0.4778	0.9568	0.02
Mof_C 	C 	0.8484	0.4486	0.9579	0.039
Mof_O 	O 	0.72714	0.66376	0.27744	-0.409
Mof_O 	O 	0.69273	0.62939	0.33729	-0.409
Mof_O 	O 	0.77645	0.5444	0.45079	-0.403
Mof_O 	O 	0.84991	0.54503	0.44989	-0.396
Mof_O 	O 	0.61622	0.68043	0.21313	-0.407
Mof_O 	O 	0.58088	0.64563	0.27206	-0.403
Mof_C 	C 	0.72607	0.64329	0.31677	0.361
Mof_C 	C 	0.76933	0.63257	0.33928	-0.087
Mof_C 	C 	0.77167	0.60357	0.37747	0.024
Mof_H 	H 	0.7456	0.5926	0.3914	0.053
Mof_C 	C 	0.81177	0.59055	0.39542	-0.081
Mof_C 	C 	0.84971	0.6064	0.37553	-0.017
Mof_H 	H 	0.8771	0.597	0.3877	0.058
Mof_C 	C 	0.84834	0.63639	0.3373	0
Mof_C 	C 	0.80723	0.6491	0.3194	-0.019
Mof_H 	H 	0.8056	0.6692	0.2935	0.055
Mof_C 	C 	0.81281	0.55817	0.43542	0.346
Mof_C 	C 	0.88763	0.65214	0.3161	0.016
Mof_C 	C 	0.9205	0.6651	0.2972	-0.055
Mof_C 	C 	0.96014	0.67919	0.2763	0.125
Mof_C 	C 	0.961	0.707	0.2366	-0.118
Mof_H 	H 	0.9344	0.7157	0.2221	0.086
Mof_C 	C 	0.58198	0.66764	0.2339	0.355
Mof_C 	C 	0.53951	0.68184	0.21292	-0.08
Mof_C 	C 	0.53906	0.7122	0.17588	-0.026
Mof_H 	H 	0.566	0.723	0.1637	0.059
Mof_C 	C 	0.4848	0.7851	0.0865	-0.002
Mof_C 	C 	0.4778	0.8073	0.0432	-0.002
Mof_C 	C 	0.4486	0.8484	0.0421	0
Mof_O 	O 	0.27286	0.33624	0.27744	-0.409
Mof_O 	O 	0.30727	0.37061	0.33729	-0.409
Mof_O 	O 	0.22355	0.4556	0.45079	-0.404
Mof_O 	O 	0.15009	0.45497	0.44989	-0.398
Mof_O 	O 	0.38378	0.31957	0.21313	-0.407
Mof_O 	O 	0.41912	0.35437	0.27206	-0.403
Mof_C 	C 	0.27393	0.35671	0.31677	0.361
Mof_C 	C 	0.23067	0.36743	0.33928	-0.087
Mof_C 	C 	0.22833	0.39643	0.37747	0.024
Mof_H 	H 	0.2544	0.4074	0.3914	0.053
Mof_C 	C 	0.18823	0.40945	0.39542	-0.082
Mof_C 	C 	0.15029	0.3936	0.37553	-0.016
Mof_H 	H 	0.1229	0.403	0.3877	0.055
Mof_C 	C 	0.15166	0.36361	0.3373	-0
Mof_C 	C 	0.19277	0.3509	0.3194	-0.019
Mof_H 	H 	0.1944	0.3308	0.2935	0.055
Mof_C 	C 	0.18719	0.44183	0.43542	0.347
Mof_C 	C 	0.11237	0.34786	0.3161	0.013
Mof_C 	C 	0.0795	0.3349	0.2972	-0.056
Mof_C 	C 	0.03986	0.32081	0.2763	0.112
Mof_C 	C 	0.039	0.293	0.2366	-0.137
Mof_H 	H 	0.0656	0.2843	0.2221	0.089
Mof_C 	C 	0.41802	0.33236	0.2339	0.355
Mof_C 	C 	0.46049	0.31816	0.21292	-0.079
Mof_C 	C 	0.46094	0.2878	0.17588	-0.025
Mof_H 	H 	0.434	0.277	0.1637	0.059
Mof_C 	C 	0.5152	0.2149	0.0865	-0.002
Mof_C 	C 	0.5222	0.1927	0.0432	-0.001
Mof_C 	C 	0.5514	0.1516	0.0421	-0.001
Mof_O 	O 	0.66376	0.27286	0.27744	-0.409
Mof_O 	O 	0.62939	0.30727	0.33729	-0.409
Mof_O 	O 	0.5444	0.22355	0.45079	-0.404
Mof_O 	O 	0.54503	0.15009	0.44989	-0.398
Mof_O 	O 	0.68043	0.38378	0.21313	-0.407
Mof_O 	O 	0.64563	0.41912	0.27206	-0.403
Mof_C 	C 	0.64329	0.27393	0.31677	0.361
Mof_C 	C 	0.63257	0.23067	0.33928	-0.087
Mof_C 	C 	0.60357	0.22833	0.37747	0.024
Mof_H 	H 	0.5926	0.2544	0.3914	0.053
Mof_C 	C 	0.59055	0.18823	0.39542	-0.082
Mof_C 	C 	0.6064	0.15029	0.37553	-0.016
Mof_H 	H 	0.597	0.1229	0.3877	0.055
Mof_C 	C 	0.63639	0.15166	0.3373	-0
Mof_C 	C 	0.6491	0.19277	0.3194	-0.019
Mof_H 	H 	0.6692	0.1944	0.2935	0.055
Mof_C 	C 	0.55817	0.18719	0.43542	0.347
Mof_C 	C 	0.65214	0.11237	0.3161	0.013
Mof_C 	C 	0.6651	0.0795	0.2972	-0.056
Mof_C 	C 	0.67919	0.03986	0.2763	0.111
Mof_C 	C 	0.707	0.039	0.2366	-0.137
Mof_H 	H 	0.7157	0.0656	0.2221	0.089
Mof_C 	C 	0.66764	0.41802	0.2339	0.355
Mof_C 	C 	0.68184	0.46049	0.21292	-0.08
Mof_C 	C 	0.7122	0.46094	0.17588	-0.026
Mof_H 	H 	0.723	0.434	0.1637	0.059
Mof_C 	C 	0.7851	0.5152	0.0865	-0.002
Mof_C 	C 	0.8073	0.5222	0.0432	-0.001
Mof_C 	C 	0.8484	0.5514	0.0421	0
Mof_O 	O 	0.33624	0.72714	0.27744	-0.409
Mof_O 	O 	0.37061	0.69273	0.33729	-0.409
Mof_O 	O 	0.4556	0.77645	0.45079	-0.403
Mof_O 	O 	0.45497	0.84991	0.44989	-0.396
Mof_O 	O 	0.31957	0.61622	0.21313	-0.407
Mof_O 	O 	0.35437	0.58088	0.27206	-0.403
Mof_C 	C 	0.35671	0.72607	0.31677	0.361
Mof_C 	C 	0.36743	0.76933	0.33928	-0.087
Mof_C 	C 	0.39643	0.77167	0.37747	0.024
Mof_H 	H 	0.4074	0.7456	0.3914	0.053
Mof_C 	C 	0.40945	0.81177	0.39542	-0.081
Mof_C 	C 	0.3936	0.84971	0.37553	-0.017
Mof_H 	H 	0.403	0.8771	0.3877	0.058
Mof_C 	C 	0.36361	0.84834	0.3373	0
Mof_C 	C 	0.3509	0.80723	0.3194	-0.019
Mof_H 	H 	0.3308	0.8056	0.2935	0.055
Mof_C 	C 	0.44183	0.81281	0.43542	0.346
Mof_C 	C 	0.34786	0.88763	0.3161	0.016
Mof_C 	C 	0.3349	0.9205	0.2972	-0.055
Mof_C 	C 	0.32081	0.96014	0.2763	0.125
Mof_C 	C 	0.293	0.961	0.2366	-0.119
Mof_H 	H 	0.2843	0.9344	0.2221	0.086
Mof_C 	C 	0.33236	0.58198	0.2339	0.355
Mof_C 	C 	0.31816	0.53951	0.21292	-0.079
Mof_C 	C 	0.2878	0.53906	0.17588	-0.025
Mof_H 	H 	0.277	0.566	0.1637	0.059
Mof_C 	C 	0.2149	0.4848	0.0865	-0.002
Mof_C 	C 	0.1927	0.4778	0.0432	-0.001
Mof_C 	C 	0.1516	0.4486	0.0421	-0.001
Mof_Cu	Cu	0.67514	0.32486	0.2394	0.908
Mof_Cu	Cu	0.63376	0.36624	0.30999	0.904
Mof_Cu	Cu	0.32486	0.67514	0.2394	0.908
Mof_Cu	Cu	0.36624	0.63376	0.30999	0.904
Mof_Cu	Cu	0.67514	0.67514	0.2394	0.908
Mof_Cu	Cu	0.63376	0.63376	0.30999	0.904
Mof_Cu	Cu	0.32486	0.32486	0.2394	0.908
Mof_Cu	Cu	0.36624	0.36624	0.30999	0.904
Mof_Cu	Cu	0.32486	0.32486	0.7606	0.909
Mof_Cu	Cu	0.36624	0.36624	0.69001	0.904
Mof_Cu	Cu	0.67514	0.67514	0.7606	0.909
Mof_Cu	Cu	0.63376	0.63376	0.69001	0.904
Mof_Cu	Cu	0.32486	0.67514	0.7606	0.909
Mof_Cu	Cu	0.36624	0.63376	0.69001	0.904
Mof_Cu	Cu	0.67514	0.32486	0.7606	0.909
Mof_Cu	Cu	0.63376	0.36624	0.69001	0.904
Mof_Cu	Cu	0.857	0.5	0.5	0.902
Mof_Cu	Cu	0.7702	0.5	0.5	0.909
Mof_Cu	Cu	0.143	0.5	0.5	0.901
Mof_Cu	Cu	0.2298	0.5	0.5	0.91
Mof_Cu	Cu	0.5	0.857	0.5	0.902
Mof_Cu	Cu	0.5	0.7702	0.5	0.909
Mof_Cu	Cu	0.5	0.143	0.5	0.901
Mof_Cu	Cu	0.5	0.2298	0.5	0.91
Mof_C 	C 	6.81015e-33	0.3349	0.2953	-0.18
Mof_H 	H 	-2.77473e-33	0.3546	0.3217	0.094
Mof_C 	C 	2.67777e-33	0.278	0.2182	0.042
Mof_H 	H 	6.56695e-34	0.2572	0.1929	0.021
Mof_C 	C 	2.94025e-33	0.6651	0.2953	-0.18
Mof_H 	H 	1.09517e-33	0.6454	0.3217	0.094
Mof_C 	C 	-1.19213e-33	0.722	0.2182	0.042
Mof_H 	H 	-3.21321e-33	0.7428	0.1929	0.021
Mof_C 	C 	0.6651	-1.93495e-33	0.2953	-0.18
Mof_H 	H 	0.6454	0	0.3217	0.094
Mof_C 	C 	0.722	0	0.2182	0.042
Mof_H 	H 	0.7428	0	0.1929	0.021
Mof_C 	C 	0.3349	-1.93495e-33	0.2953	-0.18
Mof_H 	H 	0.3546	0	0.3217	0.094
Mof_C 	C 	0.278	0	0.2182	0.042
Mof_H 	H 	0.2572	0	0.1929	0.021
Mof_C 	C 	1.01388e-32	0.3349	0.7047	-0.179
Mof_H 	H 	-5.43065e-33	0.3546	0.6783	0.094
Mof_C 	C 	-5.0783e-33	0.278	0.7818	0.042
Mof_H 	H 	-4.99217e-33	0.2572	0.8071	0.022
Mof_C 	C 	-5.34077e-33	0.6651	0.7047	-0.179
Mof_H 	H 	1.0049e-32	0.6454	0.6783	0.094
Mof_C 	C 	2.6615e-33	0.722	0.7818	0.041
Mof_H 	H 	2.74763e-33	0.7428	0.8071	0.023
Mof_C 	C 	0.3349	0	0.7047	-0.179
Mof_H 	H 	0.3546	0	0.6783	0.094
Mof_C 	C 	0.278	-7.7398e-33	0.7818	0.042
Mof_H 	H 	0.2572	0	0.8071	0.022
Mof_C 	C 	0.6651	0	0.7047	-0.179
Mof_H 	H 	0.6454	0	0.6783	0.094
Mof_C 	C 	0.722	-7.7398e-33	0.7818	0.041
Mof_H 	H 	0.7428	0	0.8071	0.023
Mof_C 	C 	0.5	0.3333	0.2321	0.022
Mof_H 	H 	0.5	0.3536	0.2578	0.052
Mof_C 	C 	0.5	0.2726	0.1561	0.019
Mof_C 	C 	0.5	0.242	0.119	-0.017
Mof_C 	C 	0.5	0.6667	0.2321	0.022
Mof_H 	H 	0.5	0.6464	0.2578	0.052
Mof_C 	C 	0.5	0.7274	0.1561	0.019
Mof_C 	C 	0.5	0.758	0.119	-0.017
Mof_C 	C 	0.6667	0.5	0.2321	0.022
Mof_H 	H 	0.6464	0.5	0.2578	0.052
Mof_C 	C 	0.7274	0.5	0.1561	0.019
Mof_C 	C 	0.758	0.5	0.119	-0.017
Mof_C 	C 	0.3333	0.5	0.2321	0.022
Mof_H 	H 	0.3536	0.5	0.2578	0.052
Mof_C 	C 	0.2726	0.5	0.1561	0.019
Mof_C 	C 	0.242	0.5	0.119	-0.017
Mof_C 	C 	0.5	0.3333	0.7679	0.022
Mof_H 	H 	0.5	0.3536	0.7422	0.054
Mof_C 	C 	0.5	0.2726	0.8439	0.021
Mof_C 	C 	0.5	0.242	0.881	-0.007
Mof_C 	C 	0.5	0.6667	0.7679	0.022
Mof_H 	H 	0.5	0.6464	0.7422	0.054
Mof_C 	C 	0.5	0.7274	0.8439	0.021
Mof_C 	C 	0.5	0.758	0.881	-0.007
Mof_C 	C 	0.3333	0.5	0.7679	0.022
Mof_H 	H 	0.3536	0.5	0.7422	0.054
Mof_C 	C 	0.2726	0.5	0.8439	0.021
Mof_C 	C 	0.242	0.5	0.881	-0.007
Mof_C 	C 	0.6667	0.5	0.7679	0.022
Mof_H 	H 	0.6464	0.5	0.7422	0.054
Mof_C 	C 	0.7274	0.5	0.8439	0.021
Mof_C 	C 	0.758	0.5	0.881	-0.007
Mof_C 	C 	0.4874	0.2122	-0	-0.024
Mof_C 	C 	0.4346	0.1343	-0	-0.055
Mof_C 	C 	0.5126	0.7878	-0	-0.024
Mof_C 	C 	0.5654	0.8657	-0	-0.052
Mof_C 	C 	0.7878	0.4874	-0	-0.024
Mof_C 	C 	0.8657	0.4346	-0	-0.052
Mof_C 	C 	0.2122	0.5126	-0	-0.024
Mof_C 	C 	0.1343	0.5654	-0	-0.055
Mof_C 	C 	0.5126	0.2122	-0	-0.024
Mof_C 	C 	0.5654	0.1343	-0	-0.055
Mof_C 	C 	0.4874	0.7878	-0	-0.024
Mof_C 	C 	0.4346	0.8657	-0	-0.052
Mof_C 	C 	0.2122	0.4874	-0	-0.024
Mof_C 	C 	0.1343	0.4346	-0	-0.055
Mof_C 	C 	0.7878	0.5126	-0	-0.024
Mof_C 	C 	0.8657	0.5654	-0	-0.052
_end
