data_functionalizedCrystal
_audit_creation_method	'EQeq! by Chris Wilmer'
_symmetry_space_group_name_H-M	'P1'
_symmetry_Int_Tables_number	1
_symmetry_cell_setting	triclinic
loop_
_symmetry_equiv_pos_as_xyz
  x,y,z
_cell_length_a	32.9201
_cell_length_b	32.9201
_cell_length_c	9.992
_cell_angle_alpha	90
_cell_angle_beta	90
_cell_angle_gamma	120
loop_
_atom_site_label
_atom_site_type_symbol
_atom_site_fract_x
_atom_site_fract_y
_atom_site_fract_z
_atom_site_charge
Mof_Ag	Ag	0.23929	0.0881	0.9129	0.575
Mof_N 	N 	0.26872	0.04872	0.0128	-0.199
Mof_H 	H 	0.2518	0.0374	0.0918	0.079
Mof_N 	N 	0.2066	0.1039	0.7381	-0.177
Mof_H 	H 	0.2077	0.1318	0.7609	0.089
Mof_C 	C 	0.32638	0.12427	0.1142	0.026
Mof_C 	C 	0.3179	0.1278	0.2479	-0.062
Mof_H 	H 	0.3072	0.1012	0.3047	0.037
Mof_C 	C 	0.34172	0.1635	0.0338	-0.079
Mof_H 	H 	0.3475	0.1615	0.9415	0.04
Mof_C 	C 	0.3184	0.0786	0.0546	-0.108
Mof_H 	H 	0.3391	0.0853	0.9761	0.049
Mof_H 	H 	0.3265	0.0616	0.1215	0.051
Mof_C 	C 	0.2631	0.0067	0.9404	-0.083
Mof_H 	H 	0.2721	0.9885	0.0005	0.042
Mof_H 	H 	0.2845	0.0169	0.8623	0.037
Mof_C 	C 	0.2135	0.9758	0.8937	-0.019
Mof_C 	C 	0.18	0.9413	0.975	0.014
Mof_H 	H 	0.1893	0.9376	0.0621	0.006
Mof_N 	N 	0.22273	0.13536	0.0609	-0.171
Mof_C 	C 	0.2043	0.1223	0.1821	0.058
Mof_H 	H 	0.1923	0.0906	0.2081	-0.004
Mof_C 	C 	0.202	0.1529	0.272	-0.095
Mof_H 	H 	0.1892	0.1423	0.3587	0.06
Mof_C 	C 	0.1991	0.9806	0.7649	-0.039
Mof_H 	H 	0.2205	0.0037	0.7047	0.018
Mof_C 	C 	0.285	0.142	0.6424	0.011
Mof_C 	C 	0.3085	0.19	0.6667	-0.072
Mof_H 	H 	0.2914	0.2062	0.6678	0.037
Mof_C 	C 	0.3098	0.1183	0.6436	-0.08
Mof_H 	H 	0.2941	0.0854	0.629	0.033
Mof_C 	C 	0.2327	0.1142	0.6156	-0.096
Mof_H 	H 	0.2238	0.1324	0.5559	0.056
Mof_H 	H 	0.225	0.0846	0.5696	0.047
Mof_C 	C 	0.1567	0.0699	0.724	-0.177
Mof_H 	H 	0.1527	0.0388	0.7089	0.029
Mof_H 	H 	0.1441	0.0771	0.6475	-0.164
Mof_C 	C 	0.1305	0.0678	0.8403	-0.056
Mof_C 	C 	0.1116	0.0955	0.861	-0.529
Mof_H 	H 	0.1157	0.1199	0.7952	0.098
Mof_N 	N 	0.0855	0.0893	0.975	-0.295
Mof_C 	C 	0.0804	0.0563	0.058	0.029
Mof_H 	H 	0.0606	0.0516	0.1361	0.027
Mof_C 	C 	0.0734	0.1003	0.955	0.146
Mof_H 	H 	0.0926	0.0967	0.8867	0.389
Mof_C 	C 	0.1238	0.0324	0.9371	-0.035
Mof_H 	H 	0.1373	0.0126	0.9203	0.037
Mof_H 	H 	0.1423	0.0716	0.8055	0.18
Mof_H 	H 	0.1548	0.0393	0.7272	0.033
Mof_C 	C 	0.1237	0.0643	0.6197	0.483
Mof_C 	C 	0.1253	0.0454	0.4945	-0.354
Mof_H 	H 	0.1471	0.0341	0.4812	0.16
Mof_N 	N 	0.0979	0.0425	0.3909	-0.232
Mof_C 	C 	0.0685	0.0586	0.418	-0.554
Mof_H 	H 	0.0486	0.0572	0.3454	0.223
Mof_C 	C 	0.064	0.0764	0.538	0.36
Mof_H 	H 	0.0407	0.086	0.5496	0.318
Mof_C 	C 	0.0934	0.0808	0.638	-0.424
Mof_H 	H 	0.093	0.0956	0.7226	0.196
Mof_Ag	Ag	0.90595	0.42144	0.24623	0.575
Mof_N 	N 	0.93539	0.38205	0.34613	-0.198
Mof_H 	H 	0.91847	0.37073	0.42513	0.08
Mof_N 	N 	0.87327	0.43723	0.07143	-0.176
Mof_H 	H 	0.87437	0.46513	0.09423	0.09
Mof_C 	C 	0.99305	0.4576	0.44753	0.026
Mof_C 	C 	0.98457	0.46113	0.58123	-0.061
Mof_H 	H 	0.97387	0.43453	0.63803	0.038
Mof_C 	C 	0.00839	0.49683	0.36713	-0.077
Mof_H 	H 	0.01417	0.49483	0.27483	0.041
Mof_C 	C 	0.98507	0.41193	0.38793	-0.107
Mof_H 	H 	0.00577	0.41863	0.30943	0.05
Mof_H 	H 	0.99317	0.39493	0.45483	0.052
Mof_C 	C 	0.92977	0.34003	0.27373	-0.082
Mof_H 	H 	0.93877	0.32183	0.33383	0.042
Mof_H 	H 	0.95117	0.35023	0.19563	0.038
Mof_C 	C 	0.88017	0.30913	0.22703	-0.019
Mof_C 	C 	0.84667	0.27463	0.30833	0.015
Mof_H 	H 	0.85597	0.27093	0.39543	0.007
Mof_N 	N 	0.8894	0.46869	0.39423	-0.17
Mof_C 	C 	0.87097	0.45563	0.51543	0.059
Mof_H 	H 	0.85897	0.42393	0.54143	-0.003
Mof_C 	C 	0.86867	0.48623	0.60533	-0.094
Mof_H 	H 	0.85587	0.47563	0.69203	0.061
Mof_C 	C 	0.86577	0.31393	0.09823	-0.038
Mof_H 	H 	0.88717	0.33703	0.03803	0.019
Mof_C 	C 	0.95167	0.47533	0.97573	0.012
Mof_C 	C 	0.97517	0.52333	3e-05	-0.071
Mof_H 	H 	0.95807	0.53953	0.00113	0.038
Mof_C 	C 	0.97647	0.45163	0.97693	-0.079
Mof_H 	H 	0.96077	0.41873	0.96233	0.034
Mof_C 	C 	0.89937	0.44753	0.94893	-0.095
Mof_H 	H 	0.89047	0.46573	0.88923	0.057
Mof_H 	H 	0.89167	0.41793	0.90293	0.048
Mof_C 	C 	0.82337	0.40323	0.05733	-0.177
Mof_H 	H 	0.81937	0.37213	0.04223	0.029
Mof_H 	H 	0.81077	0.41043	0.98083	-0.165
Mof_C 	C 	0.79717	0.40113	0.17363	-0.056
Mof_C 	C 	0.77827	0.42883	0.19433	-0.529
Mof_H 	H 	0.78237	0.45323	0.12853	0.098
Mof_N 	N 	0.75217	0.42263	0.30833	-0.296
Mof_C 	C 	0.74707	0.38963	0.39133	0.029
Mof_H 	H 	0.72727	0.38493	0.46943	0.027
Mof_C 	C 	0.74007	0.43363	0.28833	0.147
Mof_H 	H 	0.75927	0.43003	0.22003	0.389
Mof_C 	C 	0.79047	0.36573	0.27043	-0.035
Mof_H 	H 	0.80397	0.34593	0.25363	0.037
Mof_H 	H 	0.80897	0.40493	0.13883	0.18
Mof_H 	H 	0.82147	0.37263	0.06053	0.033
Mof_C 	C 	0.79037	0.39763	0.95303	0.485
Mof_C 	C 	0.79197	0.37873	0.82783	-0.355
Mof_H 	H 	0.81377	0.36743	0.81453	0.16
Mof_N 	N 	0.76457	0.37583	0.72423	-0.232
Mof_C 	C 	0.73517	0.39193	0.75133	-0.554
Mof_H 	H 	0.71527	0.39053	0.67873	0.223
Mof_C 	C 	0.73067	0.40973	0.87133	0.36
Mof_H 	H 	0.70737	0.41933	0.88293	0.318
Mof_C 	C 	0.76007	0.41413	0.97133	-0.424
Mof_H 	H 	0.75967	0.42893	0.05593	0.196
Mof_Ag	Ag	0.57262	0.75477	0.57957	0.576
Mof_N 	N 	0.60205	0.71539	0.67947	-0.198
Mof_H 	H 	0.58513	0.70407	0.75847	0.08
Mof_N 	N 	0.53993	0.77057	0.40477	-0.176
Mof_H 	H 	0.54103	0.79847	0.42757	0.09
Mof_C 	C 	0.65971	0.79094	0.78087	0.026
Mof_C 	C 	0.65123	0.79447	0.91457	-0.061
Mof_H 	H 	0.64053	0.76787	0.97137	0.038
Mof_C 	C 	0.67505	0.83017	0.70047	-0.077
Mof_H 	H 	0.68083	0.82817	0.60817	0.041
Mof_C 	C 	0.65173	0.74527	0.72127	-0.107
Mof_H 	H 	0.67243	0.75197	0.64277	0.05
Mof_H 	H 	0.65983	0.72827	0.78817	0.052
Mof_C 	C 	0.59643	0.67337	0.60707	-0.082
Mof_H 	H 	0.60543	0.65517	0.66717	0.043
Mof_H 	H 	0.61783	0.68357	0.52897	0.038
Mof_C 	C 	0.54683	0.64247	0.56037	-0.018
Mof_C 	C 	0.51333	0.60797	0.64167	0.015
Mof_H 	H 	0.52263	0.60427	0.72877	0.007
Mof_N 	N 	0.55606	0.80203	0.72757	-0.17
Mof_C 	C 	0.53763	0.78897	0.84877	0.059
Mof_H 	H 	0.52563	0.75727	0.87477	-0.003
Mof_C 	C 	0.53533	0.81957	0.93867	-0.095
Mof_H 	H 	0.52253	0.80897	0.02537	0.062
Mof_C 	C 	0.53243	0.64727	0.43157	-0.038
Mof_H 	H 	0.55383	0.67037	0.37137	0.019
Mof_C 	C 	0.61833	0.80867	0.30907	0.012
Mof_C 	C 	0.64183	0.85667	0.33337	-0.071
Mof_H 	H 	0.62473	0.87287	0.33447	0.038
Mof_C 	C 	0.64313	0.78497	0.31027	-0.079
Mof_H 	H 	0.62743	0.75207	0.29567	0.034
Mof_C 	C 	0.56603	0.78087	0.28227	-0.095
Mof_H 	H 	0.55713	0.79907	0.22257	0.057
Mof_H 	H 	0.55833	0.75127	0.23627	0.048
Mof_C 	C 	0.49003	0.73657	0.39067	-0.177
Mof_H 	H 	0.48603	0.70547	0.37557	0.029
Mof_H 	H 	0.47743	0.74377	0.31417	-0.164
Mof_C 	C 	0.46383	0.73447	0.50697	-0.056
Mof_C 	C 	0.44493	0.76217	0.52767	-0.529
Mof_H 	H 	0.44903	0.78657	0.46187	0.098
Mof_N 	N 	0.41883	0.75597	0.64167	-0.295
Mof_C 	C 	0.41373	0.72297	0.72467	0.029
Mof_H 	H 	0.39393	0.71827	0.80277	0.027
Mof_C 	C 	0.40673	0.76697	0.62167	0.146
Mof_H 	H 	0.42593	0.76337	0.55337	0.389
Mof_C 	C 	0.45713	0.69907	0.60377	-0.035
Mof_H 	H 	0.47063	0.67927	0.58697	0.037
Mof_H 	H 	0.47563	0.73827	0.47217	0.18
Mof_H 	H 	0.48813	0.70597	0.39387	0.033
Mof_C 	C 	0.45703	0.73097	0.28637	0.483
Mof_C 	C 	0.45863	0.71207	0.16117	-0.354
Mof_H 	H 	0.48043	0.70077	0.14787	0.16
Mof_N 	N 	0.43123	0.70917	0.05757	-0.232
Mof_C 	C 	0.40183	0.72527	0.08467	-0.554
Mof_H 	H 	0.38193	0.72387	0.01207	0.223
Mof_C 	C 	0.39733	0.74307	0.20467	0.36
Mof_H 	H 	0.37403	0.75267	0.21627	0.318
Mof_C 	C 	0.42673	0.74747	0.30467	-0.424
Mof_H 	H 	0.42633	0.76227	0.38927	0.196
Mof_Ag	Ag	0.9119	0.15119	0.9129	0.575
Mof_N 	N 	0.95128	0.22	0.0128	-0.198
Mof_H 	H 	0.9626	0.2144	0.0918	0.08
Mof_N 	N 	0.8961	0.1027	0.7381	-0.176
Mof_H 	H 	0.8682	0.0759	0.7609	0.09
Mof_C 	C 	0.87573	0.20211	0.1142	0.027
Mof_C 	C 	0.8722	0.1901	0.2479	-0.061
Mof_H 	H 	0.8988	0.206	0.3047	0.038
Mof_C 	C 	0.8365	0.17822	0.0338	-0.078
Mof_H 	H 	0.8385	0.186	0.9415	0.041
Mof_C 	C 	0.9214	0.2398	0.0546	-0.107
Mof_H 	H 	0.9147	0.2538	0.9761	0.05
Mof_H 	H 	0.9384	0.2649	0.1215	0.052
Mof_C 	C 	0.9933	0.2564	0.9404	-0.082
Mof_H 	H 	0.0115	0.2836	0.0005	0.043
Mof_H 	H 	0.9831	0.2676	0.8623	0.038
Mof_C 	C 	0.0242	0.2377	0.8937	-0.018
Mof_C 	C 	0.0587	0.2387	0.975	0.014
Mof_H 	H 	0.0624	0.2517	0.0621	0.007
Mof_N 	N 	0.86464	0.08737	0.0609	-0.17
Mof_C 	C 	0.8777	0.082	0.1821	0.059
Mof_H 	H 	0.9094	0.1017	0.2081	-0.003
Mof_C 	C 	0.8471	0.0491	0.272	-0.094
Mof_H 	H 	0.8577	0.0469	0.3587	0.061
Mof_C 	C 	0.0194	0.2185	0.7649	-0.038
Mof_H 	H 	0.9963	0.2168	0.7047	0.019
Mof_C 	C 	0.858	0.143	0.6424	0.012
Mof_C 	C 	0.81	0.1185	0.6667	-0.071
Mof_H 	H 	0.7938	0.0852	0.6678	0.038
Mof_C 	C 	0.8817	0.1915	0.6436	-0.079
Mof_H 	H 	0.9146	0.2087	0.629	0.034
Mof_C 	C 	0.8858	0.1185	0.6156	-0.095
Mof_H 	H 	0.8676	0.0914	0.5559	0.057
Mof_H 	H 	0.9154	0.1404	0.5696	0.048
Mof_C 	C 	0.9301	0.0868	0.724	-0.177
Mof_H 	H 	0.9612	0.1139	0.7089	0.029
Mof_H 	H 	0.9229	0.067	0.6475	-0.164
Mof_C 	C 	0.9322	0.0627	0.8403	-0.056
Mof_C 	C 	0.9045	0.0161	0.861	-0.529
Mof_H 	H 	0.8801	0.9958	0.7952	0.098
Mof_N 	N 	0.9107	0.9962	0.975	-0.296
Mof_C 	C 	0.9437	0.0241	0.058	0.029
Mof_H 	H 	0.9484	0.009	0.1361	0.027
Mof_C 	C 	0.8997	0.9731	0.955	0.147
Mof_H 	H 	0.9033	0.9959	0.8867	0.389
Mof_C 	C 	0.9676	0.0914	0.9371	-0.035
Mof_H 	H 	0.9874	0.1247	0.9203	0.037
Mof_H 	H 	0.9284	0.0707	0.8055	0.18
Mof_H 	H 	0.9607	0.1155	0.7272	0.033
Mof_C 	C 	0.9357	0.0594	0.6197	0.483
Mof_C 	C 	0.9546	0.0799	0.4945	-0.354
Mof_H 	H 	0.9659	0.113	0.4812	0.16
Mof_N 	N 	0.9575	0.0554	0.3909	-0.232
Mof_C 	C 	0.9414	0.0099	0.418	-0.554
Mof_H 	H 	0.9428	0.9914	0.3454	0.223
Mof_C 	C 	0.9236	0.9876	0.538	0.36
Mof_H 	H 	0.914	0.9547	0.5496	0.318
Mof_C 	C 	0.9192	0.0126	0.638	-0.424
Mof_H 	H 	0.9044	0.9974	0.7226	0.196
Mof_Ag	Ag	0.57856	0.48452	0.24623	0.575
Mof_N 	N 	0.61795	0.55333	0.34613	-0.198
Mof_H 	H 	0.62927	0.54773	0.42513	0.08
Mof_N 	N 	0.56277	0.43603	0.07143	-0.176
Mof_H 	H 	0.53487	0.40923	0.09423	0.09
Mof_C 	C 	0.5424	0.53544	0.44753	0.026
Mof_C 	C 	0.53887	0.52343	0.58123	-0.061
Mof_H 	H 	0.56547	0.53933	0.63803	0.038
Mof_C 	C 	0.50317	0.51155	0.36713	-0.077
Mof_H 	H 	0.50517	0.51933	0.27483	0.041
Mof_C 	C 	0.58807	0.57313	0.38793	-0.107
Mof_H 	H 	0.58137	0.58713	0.30943	0.05
Mof_H 	H 	0.60507	0.59823	0.45483	0.052
Mof_C 	C 	0.65997	0.58973	0.27373	-0.082
Mof_H 	H 	0.67817	0.61693	0.33383	0.042
Mof_H 	H 	0.64977	0.60093	0.19563	0.038
Mof_C 	C 	0.69087	0.57103	0.22703	-0.019
Mof_C 	C 	0.72537	0.57203	0.30833	0.015
Mof_H 	H 	0.72907	0.58503	0.39543	0.007
Mof_N 	N 	0.53131	0.4207	0.39423	-0.17
Mof_C 	C 	0.54437	0.41533	0.51543	0.059
Mof_H 	H 	0.57607	0.43503	0.54143	-0.003
Mof_C 	C 	0.51377	0.38243	0.60533	-0.094
Mof_H 	H 	0.52437	0.38023	0.69203	0.061
Mof_C 	C 	0.68607	0.55183	0.09823	-0.038
Mof_H 	H 	0.66297	0.55013	0.03803	0.019
Mof_C 	C 	0.52467	0.47633	0.97573	0.012
Mof_C 	C 	0.47667	0.45183	3e-05	-0.071
Mof_H 	H 	0.46047	0.41853	0.00113	0.038
Mof_C 	C 	0.54837	0.52483	0.97693	-0.079
Mof_H 	H 	0.58127	0.54203	0.96233	0.034
Mof_C 	C 	0.55247	0.45183	0.94893	-0.095
Mof_H 	H 	0.53427	0.42473	0.88923	0.057
Mof_H 	H 	0.58207	0.47373	0.90293	0.048
Mof_C 	C 	0.59677	0.42013	0.05733	-0.177
Mof_H 	H 	0.62787	0.44723	0.04223	0.029
Mof_H 	H 	0.58957	0.40033	0.98083	-0.165
Mof_C 	C 	0.59887	0.39603	0.17363	-0.056
Mof_C 	C 	0.57117	0.34943	0.19433	-0.529
Mof_H 	H 	0.54677	0.32913	0.12853	0.098
Mof_N 	N 	0.57737	0.32953	0.30833	-0.296
Mof_C 	C 	0.61037	0.35743	0.39133	0.029
Mof_H 	H 	0.61507	0.34233	0.46943	0.027
Mof_C 	C 	0.56637	0.30643	0.28833	0.147
Mof_H 	H 	0.56997	0.32923	0.22003	0.389
Mof_C 	C 	0.63427	0.42473	0.27043	-0.035
Mof_H 	H 	0.65407	0.45803	0.25363	0.037
Mof_H 	H 	0.59507	0.40403	0.13883	0.18
Mof_H 	H 	0.62737	0.44883	0.06053	0.033
Mof_C 	C 	0.60237	0.39273	0.95303	0.485
Mof_C 	C 	0.62127	0.41323	0.82783	-0.355
Mof_H 	H 	0.63257	0.44633	0.81453	0.16
Mof_N 	N 	0.62417	0.38873	0.72423	-0.232
Mof_C 	C 	0.60807	0.34323	0.75133	-0.554
Mof_H 	H 	0.60947	0.32473	0.67873	0.223
Mof_C 	C 	0.59027	0.32093	0.87133	0.36
Mof_H 	H 	0.58067	0.28803	0.88293	0.318
Mof_C 	C 	0.58587	0.34593	0.97133	-0.424
Mof_H 	H 	0.57107	0.33073	0.05593	0.196
Mof_Ag	Ag	0.24523	0.81785	0.57957	0.576
Mof_N 	N 	0.28461	0.88667	0.67947	-0.198
Mof_H 	H 	0.29593	0.88107	0.75847	0.08
Mof_N 	N 	0.22943	0.76937	0.40477	-0.176
Mof_H 	H 	0.20153	0.74257	0.42757	0.09
Mof_C 	C 	0.20906	0.86878	0.78087	0.026
Mof_C 	C 	0.20553	0.85677	0.91457	-0.061
Mof_H 	H 	0.23213	0.87267	0.97137	0.038
Mof_C 	C 	0.16983	0.84489	0.70047	-0.077
Mof_H 	H 	0.17183	0.85267	0.60817	0.041
Mof_C 	C 	0.25473	0.90647	0.72127	-0.107
Mof_H 	H 	0.24803	0.92047	0.64277	0.05
Mof_H 	H 	0.27173	0.93157	0.78817	0.052
Mof_C 	C 	0.32663	0.92307	0.60707	-0.082
Mof_H 	H 	0.34483	0.95027	0.66717	0.043
Mof_H 	H 	0.31643	0.93427	0.52897	0.038
Mof_C 	C 	0.35753	0.90437	0.56037	-0.018
Mof_C 	C 	0.39203	0.90537	0.64167	0.015
Mof_H 	H 	0.39573	0.91837	0.72877	0.007
Mof_N 	N 	0.19797	0.75404	0.72757	-0.17
Mof_C 	C 	0.21103	0.74867	0.84877	0.059
Mof_H 	H 	0.24273	0.76837	0.87477	-0.003
Mof_C 	C 	0.18043	0.71577	0.93867	-0.095
Mof_H 	H 	0.19103	0.71357	0.02537	0.062
Mof_C 	C 	0.35273	0.88517	0.43157	-0.038
Mof_H 	H 	0.32963	0.88347	0.37137	0.019
Mof_C 	C 	0.19133	0.80967	0.30907	0.012
Mof_C 	C 	0.14333	0.78517	0.33337	-0.071
Mof_H 	H 	0.12713	0.75187	0.33447	0.038
Mof_C 	C 	0.21503	0.85817	0.31027	-0.079
Mof_H 	H 	0.24793	0.87537	0.29567	0.034
Mof_C 	C 	0.21913	0.78517	0.28227	-0.095
Mof_H 	H 	0.20093	0.75807	0.22257	0.057
Mof_H 	H 	0.24873	0.80707	0.23627	0.048
Mof_C 	C 	0.26343	0.75347	0.39067	-0.177
Mof_H 	H 	0.29453	0.78057	0.37557	0.029
Mof_H 	H 	0.25623	0.73367	0.31417	-0.164
Mof_C 	C 	0.26553	0.72937	0.50697	-0.056
Mof_C 	C 	0.23783	0.68277	0.52767	-0.529
Mof_H 	H 	0.21343	0.66247	0.46187	0.098
Mof_N 	N 	0.24403	0.66287	0.64167	-0.295
Mof_C 	C 	0.27703	0.69077	0.72467	0.029
Mof_H 	H 	0.28173	0.67567	0.80277	0.027
Mof_C 	C 	0.23303	0.63977	0.62167	0.146
Mof_H 	H 	0.23663	0.66257	0.55337	0.389
Mof_C 	C 	0.30093	0.75807	0.60377	-0.035
Mof_H 	H 	0.32073	0.79137	0.58697	0.037
Mof_H 	H 	0.26173	0.73737	0.47217	0.18
Mof_H 	H 	0.29403	0.78217	0.39387	0.033
Mof_C 	C 	0.26903	0.72607	0.28637	0.483
Mof_C 	C 	0.28793	0.74657	0.16117	-0.354
Mof_H 	H 	0.29923	0.77967	0.14787	0.16
Mof_N 	N 	0.29083	0.72207	0.05757	-0.232
Mof_C 	C 	0.27473	0.67657	0.08467	-0.554
Mof_H 	H 	0.27613	0.65807	0.01207	0.223
Mof_C 	C 	0.25693	0.65427	0.20467	0.36
Mof_H 	H 	0.24733	0.62137	0.21627	0.318
Mof_C 	C 	0.25253	0.67927	0.30467	-0.424
Mof_H 	H 	0.23773	0.66407	0.38927	0.196
Mof_Ag	Ag	0.84881	0.76071	0.9129	0.576
Mof_N 	N 	0.78	0.73128	0.0128	-0.198
Mof_H 	H 	0.7856	0.7482	0.0918	0.08
Mof_N 	N 	0.8973	0.7934	0.7381	-0.176
Mof_H 	H 	0.9241	0.7923	0.7609	0.09
Mof_C 	C 	0.79789	0.67362	0.1142	0.027
Mof_C 	C 	0.8099	0.6821	0.2479	-0.061
Mof_H 	H 	0.794	0.6928	0.3047	0.038
Mof_C 	C 	0.82178	0.65828	0.0338	-0.078
Mof_H 	H 	0.814	0.6525	0.9415	0.041
Mof_C 	C 	0.7602	0.6816	0.0546	-0.107
Mof_H 	H 	0.7462	0.6609	0.9761	0.05
Mof_H 	H 	0.7351	0.6735	0.1215	0.052
Mof_C 	C 	0.7436	0.7369	0.9404	-0.082
Mof_H 	H 	0.7164	0.7279	0.0005	0.043
Mof_H 	H 	0.7324	0.7155	0.8623	0.038
Mof_C 	C 	0.7623	0.7865	0.8937	-0.018
Mof_C 	C 	0.7613	0.82	0.975	0.014
Mof_H 	H 	0.7483	0.8107	0.0621	0.007
Mof_N 	N 	0.91263	0.77727	0.0609	-0.17
Mof_C 	C 	0.918	0.7957	0.1821	0.059
Mof_H 	H 	0.8983	0.8077	0.2081	-0.003
Mof_C 	C 	0.9509	0.798	0.272	-0.094
Mof_H 	H 	0.9531	0.8108	0.3587	0.061
Mof_C 	C 	0.7815	0.8009	0.7649	-0.038
Mof_H 	H 	0.7832	0.7795	0.7047	0.019
Mof_C 	C 	0.857	0.715	0.6424	0.012
Mof_C 	C 	0.8815	0.6915	0.6667	-0.071
Mof_H 	H 	0.9148	0.7086	0.6678	0.038
Mof_C 	C 	0.8085	0.6902	0.6436	-0.079
Mof_H 	H 	0.7913	0.7059	0.629	0.034
Mof_C 	C 	0.8815	0.7673	0.6156	-0.095
Mof_H 	H 	0.9086	0.7762	0.5559	0.057
Mof_H 	H 	0.8596	0.775	0.5696	0.048
Mof_C 	C 	0.9132	0.8433	0.724	-0.177
Mof_H 	H 	0.8861	0.8473	0.7089	0.029
Mof_H 	H 	0.933	0.8559	0.6475	-0.164
Mof_C 	C 	0.9373	0.8695	0.8403	-0.056
Mof_C 	C 	0.9839	0.8884	0.861	-0.529
Mof_H 	H 	0.0042	0.8843	0.7952	0.098
Mof_N 	N 	0.0038	0.9145	0.975	-0.295
Mof_C 	C 	0.9759	0.9196	0.058	0.029
Mof_H 	H 	0.991	0.9394	0.1361	0.027
Mof_C 	C 	0.0269	0.9266	0.955	0.146
Mof_H 	H 	0.0041	0.9074	0.8867	0.389
Mof_C 	C 	0.9086	0.8762	0.9371	-0.035
Mof_H 	H 	0.8753	0.8627	0.9203	0.037
Mof_H 	H 	0.9293	0.8577	0.8055	0.18
Mof_H 	H 	0.8845	0.8452	0.7272	0.033
Mof_C 	C 	0.9406	0.8763	0.6197	0.484
Mof_C 	C 	0.9201	0.8747	0.4945	-0.354
Mof_H 	H 	0.887	0.8529	0.4812	0.16
Mof_N 	N 	0.9446	0.9021	0.3909	-0.232
Mof_C 	C 	0.9901	0.9315	0.418	-0.554
Mof_H 	H 	0.0086	0.9514	0.3454	0.223
Mof_C 	C 	0.0124	0.936	0.538	0.36
Mof_H 	H 	0.0453	0.9593	0.5496	0.318
Mof_C 	C 	0.9874	0.9066	0.638	-0.424
Mof_H 	H 	0.0026	0.907	0.7226	0.196
Mof_Ag	Ag	0.51548	0.09405	0.24623	0.575
Mof_N 	N 	0.44667	0.06461	0.34613	-0.198
Mof_H 	H 	0.45227	0.08153	0.42513	0.08
Mof_N 	N 	0.56397	0.12673	0.07143	-0.176
Mof_H 	H 	0.59077	0.12563	0.09423	0.09
Mof_C 	C 	0.46456	0.00695	0.44753	0.026
Mof_C 	C 	0.47657	0.01543	0.58123	-0.061
Mof_H 	H 	0.46067	0.02613	0.63803	0.038
Mof_C 	C 	0.48845	0.99161	0.36713	-0.077
Mof_H 	H 	0.48067	0.98583	0.27483	0.041
Mof_C 	C 	0.42687	0.01493	0.38793	-0.107
Mof_H 	H 	0.41287	0.99423	0.30943	0.05
Mof_H 	H 	0.40177	0.00683	0.45483	0.052
Mof_C 	C 	0.41027	0.07023	0.27373	-0.082
Mof_H 	H 	0.38307	0.06123	0.33383	0.043
Mof_H 	H 	0.39907	0.04883	0.19563	0.038
Mof_C 	C 	0.42897	0.11983	0.22703	-0.019
Mof_C 	C 	0.42797	0.15333	0.30833	0.015
Mof_H 	H 	0.41497	0.14403	0.39543	0.007
Mof_N 	N 	0.5793	0.1106	0.39423	-0.17
Mof_C 	C 	0.58467	0.12903	0.51543	0.059
Mof_H 	H 	0.56497	0.14103	0.54143	-0.003
Mof_C 	C 	0.61757	0.13133	0.60533	-0.094
Mof_H 	H 	0.61977	0.14413	0.69203	0.061
Mof_C 	C 	0.44817	0.13423	0.09823	-0.038
Mof_H 	H 	0.44987	0.11283	0.03803	0.019
Mof_C 	C 	0.52367	0.04833	0.97573	0.012
Mof_C 	C 	0.54817	0.02483	3e-05	-0.071
Mof_H 	H 	0.58147	0.04193	0.00113	0.038
Mof_C 	C 	0.47517	0.02353	0.97693	-0.079
Mof_H 	H 	0.45797	0.03923	0.96233	0.034
Mof_C 	C 	0.54817	0.10063	0.94893	-0.095
Mof_H 	H 	0.57527	0.10953	0.88923	0.057
Mof_H 	H 	0.52627	0.10833	0.90293	0.048
Mof_C 	C 	0.57987	0.17663	0.05733	-0.177
Mof_H 	H 	0.55277	0.18063	0.04223	0.029
Mof_H 	H 	0.59967	0.18923	0.98083	-0.165
Mof_C 	C 	0.60397	0.20283	0.17363	-0.056
Mof_C 	C 	0.65057	0.22173	0.19433	-0.529
Mof_H 	H 	0.67087	0.21763	0.12853	0.098
Mof_N 	N 	0.67047	0.24783	0.30833	-0.296
Mof_C 	C 	0.64257	0.25293	0.39133	0.029
Mof_H 	H 	0.65767	0.27273	0.46943	0.027
Mof_C 	C 	0.69357	0.25993	0.28833	0.147
Mof_H 	H 	0.67077	0.24073	0.22003	0.389
Mof_C 	C 	0.57527	0.20953	0.27043	-0.035
Mof_H 	H 	0.54197	0.19603	0.25363	0.037
Mof_H 	H 	0.59597	0.19103	0.13883	0.18
Mof_H 	H 	0.55117	0.17853	0.06053	0.033
Mof_C 	C 	0.60727	0.20963	0.95303	0.485
Mof_C 	C 	0.58677	0.20803	0.82783	-0.355
Mof_H 	H 	0.55367	0.18623	0.81453	0.16
Mof_N 	N 	0.61127	0.23543	0.72423	-0.232
Mof_C 	C 	0.65677	0.26483	0.75133	-0.554
Mof_H 	H 	0.67527	0.28473	0.67873	0.223
Mof_C 	C 	0.67907	0.26933	0.87133	0.36
Mof_H 	H 	0.71197	0.29263	0.88293	0.318
Mof_C 	C 	0.65407	0.23993	0.97133	-0.424
Mof_H 	H 	0.66927	0.24033	0.05593	0.196
Mof_Ag	Ag	0.18215	0.42738	0.57957	0.576
Mof_N 	N 	0.11333	0.39795	0.67947	-0.198
Mof_H 	H 	0.11893	0.41487	0.75847	0.08
Mof_N 	N 	0.23063	0.46007	0.40477	-0.176
Mof_H 	H 	0.25743	0.45897	0.42757	0.09
Mof_C 	C 	0.13122	0.34029	0.78087	0.026
Mof_C 	C 	0.14323	0.34877	0.91457	-0.061
Mof_H 	H 	0.12733	0.35947	0.97137	0.038
Mof_C 	C 	0.15511	0.32495	0.70047	-0.077
Mof_H 	H 	0.14733	0.31917	0.60817	0.041
Mof_C 	C 	0.09353	0.34827	0.72127	-0.107
Mof_H 	H 	0.07953	0.32757	0.64277	0.05
Mof_H 	H 	0.06843	0.34017	0.78817	0.052
Mof_C 	C 	0.07693	0.40357	0.60707	-0.082
Mof_H 	H 	0.04973	0.39457	0.66717	0.043
Mof_H 	H 	0.06573	0.38217	0.52897	0.038
Mof_C 	C 	0.09563	0.45317	0.56037	-0.018
Mof_C 	C 	0.09463	0.48667	0.64167	0.015
Mof_H 	H 	0.08163	0.47737	0.72877	0.007
Mof_N 	N 	0.24596	0.44394	0.72757	-0.17
Mof_C 	C 	0.25133	0.46237	0.84877	0.059
Mof_H 	H 	0.23163	0.47437	0.87477	-0.003
Mof_C 	C 	0.28423	0.46467	0.93867	-0.095
Mof_H 	H 	0.28643	0.47747	0.02537	0.062
Mof_C 	C 	0.11483	0.46757	0.43157	-0.038
Mof_H 	H 	0.11653	0.44617	0.37137	0.019
Mof_C 	C 	0.19033	0.38167	0.30907	0.012
Mof_C 	C 	0.21483	0.35817	0.33337	-0.071
Mof_H 	H 	0.24813	0.37527	0.33447	0.038
Mof_C 	C 	0.14183	0.35687	0.31027	-0.079
Mof_H 	H 	0.12463	0.37257	0.29567	0.034
Mof_C 	C 	0.21483	0.43397	0.28227	-0.095
Mof_H 	H 	0.24193	0.44287	0.22257	0.057
Mof_H 	H 	0.19293	0.44167	0.23627	0.048
Mof_C 	C 	0.24653	0.50997	0.39067	-0.177
Mof_H 	H 	0.21943	0.51397	0.37557	0.029
Mof_H 	H 	0.26633	0.52257	0.31417	-0.164
Mof_C 	C 	0.27063	0.53617	0.50697	-0.056
Mof_C 	C 	0.31723	0.55507	0.52767	-0.529
Mof_H 	H 	0.33753	0.55097	0.46187	0.098
Mof_N 	N 	0.33713	0.58117	0.64167	-0.295
Mof_C 	C 	0.30923	0.58627	0.72467	0.029
Mof_H 	H 	0.32433	0.60607	0.80277	0.027
Mof_C 	C 	0.36023	0.59327	0.62167	0.146
Mof_H 	H 	0.33743	0.57407	0.55337	0.389
Mof_C 	C 	0.24193	0.54287	0.60377	-0.035
Mof_H 	H 	0.20863	0.52937	0.58697	0.037
Mof_H 	H 	0.26263	0.52437	0.47217	0.18
Mof_H 	H 	0.21783	0.51187	0.39387	0.033
Mof_C 	C 	0.27393	0.54297	0.28637	0.483
Mof_C 	C 	0.25343	0.54137	0.16117	-0.354
Mof_H 	H 	0.22033	0.51957	0.14787	0.16
Mof_N 	N 	0.27793	0.56877	0.05757	-0.232
Mof_C 	C 	0.32343	0.59817	0.08467	-0.554
Mof_H 	H 	0.34193	0.61807	0.01207	0.223
Mof_C 	C 	0.34573	0.60267	0.20467	0.36
Mof_H 	H 	0.37863	0.62597	0.21627	0.318
Mof_C 	C 	0.32073	0.57327	0.30467	-0.424
Mof_H 	H 	0.33593	0.57367	0.38927	0.196
Mof_Ag	Ag	0.76071	0.9119	0.0871	0.576
Mof_N 	N 	0.73128	0.95128	0.9872	-0.198
Mof_H 	H 	0.7482	0.9626	0.9082	0.08
Mof_N 	N 	0.7934	0.8961	0.2619	-0.176
Mof_H 	H 	0.7923	0.8682	0.2391	0.09
Mof_C 	C 	0.67362	0.87573	0.8858	0.027
Mof_C 	C 	0.6821	0.8722	0.7521	-0.061
Mof_H 	H 	0.6928	0.8988	0.6953	0.038
Mof_C 	C 	0.65828	0.8365	0.9662	-0.078
Mof_H 	H 	0.6525	0.8385	0.0585	0.041
Mof_C 	C 	0.6816	0.9214	0.9454	-0.107
Mof_H 	H 	0.6609	0.9147	0.0239	0.05
Mof_H 	H 	0.6735	0.9384	0.8785	0.052
Mof_C 	C 	0.7369	0.9933	0.0596	-0.082
Mof_H 	H 	0.7279	0.0115	0.9995	0.043
Mof_H 	H 	0.7155	0.9831	0.1377	0.038
Mof_C 	C 	0.7865	0.0242	0.1063	-0.018
Mof_C 	C 	0.82	0.0587	0.025	0.015
Mof_H 	H 	0.8107	0.0624	0.9379	0.007
Mof_N 	N 	0.77727	0.86464	0.9391	-0.17
Mof_C 	C 	0.7957	0.8777	0.8179	0.059
Mof_H 	H 	0.8077	0.9094	0.7919	-0.003
Mof_C 	C 	0.798	0.8471	0.728	-0.094
Mof_H 	H 	0.8108	0.8577	0.6413	0.061
Mof_C 	C 	0.8009	0.0194	0.2351	-0.038
Mof_H 	H 	0.7795	0.9963	0.2953	0.019
Mof_C 	C 	0.715	0.858	0.3576	0.012
Mof_C 	C 	0.6915	0.81	0.3333	-0.071
Mof_H 	H 	0.7086	0.7938	0.3322	0.038
Mof_C 	C 	0.6902	0.8817	0.3564	-0.079
Mof_H 	H 	0.7059	0.9146	0.371	0.034
Mof_C 	C 	0.7673	0.8858	0.3844	-0.095
Mof_H 	H 	0.7762	0.8676	0.4441	0.057
Mof_H 	H 	0.775	0.9154	0.4304	0.048
Mof_C 	C 	0.8433	0.9301	0.276	-0.177
Mof_H 	H 	0.8473	0.9612	0.2911	0.029
Mof_H 	H 	0.8559	0.9229	0.3525	-0.164
Mof_C 	C 	0.8695	0.9322	0.1597	-0.056
Mof_C 	C 	0.8884	0.9045	0.139	-0.529
Mof_H 	H 	0.8843	0.8801	0.2048	0.098
Mof_N 	N 	0.9145	0.9107	0.025	-0.295
Mof_C 	C 	0.9196	0.9437	0.942	0.029
Mof_H 	H 	0.9394	0.9484	0.8639	0.027
Mof_C 	C 	0.9266	0.8997	0.045	0.146
Mof_H 	H 	0.9074	0.9033	0.1133	0.389
Mof_C 	C 	0.8762	0.9676	0.0629	-0.035
Mof_H 	H 	0.8627	0.9874	0.0797	0.037
Mof_H 	H 	0.8577	0.9284	0.1945	0.18
Mof_H 	H 	0.8452	0.9607	0.2728	0.033
Mof_C 	C 	0.8763	0.9357	0.3803	0.483
Mof_C 	C 	0.8747	0.9546	0.5055	-0.354
Mof_H 	H 	0.8529	0.9659	0.5188	0.16
Mof_N 	N 	0.9021	0.9575	0.6091	-0.232
Mof_C 	C 	0.9315	0.9414	0.582	-0.554
Mof_H 	H 	0.9514	0.9428	0.6546	0.223
Mof_C 	C 	0.936	0.9236	0.462	0.36
Mof_H 	H 	0.9593	0.914	0.4504	0.318
Mof_C 	C 	0.9066	0.9192	0.362	-0.424
Mof_H 	H 	0.907	0.9044	0.2774	0.196
Mof_Ag	Ag	0.42738	0.24523	0.42043	0.576
Mof_N 	N 	0.39795	0.28461	0.32053	-0.198
Mof_H 	H 	0.41487	0.29593	0.24153	0.08
Mof_N 	N 	0.46007	0.22943	0.59523	-0.176
Mof_H 	H 	0.45897	0.20153	0.57243	0.09
Mof_C 	C 	0.34029	0.20906	0.21913	0.026
Mof_C 	C 	0.34877	0.20553	0.08543	-0.061
Mof_H 	H 	0.35947	0.23213	0.02863	0.038
Mof_C 	C 	0.32495	0.16983	0.29953	-0.077
Mof_H 	H 	0.31917	0.17183	0.39183	0.041
Mof_C 	C 	0.34827	0.25473	0.27873	-0.107
Mof_H 	H 	0.32757	0.24803	0.35723	0.05
Mof_H 	H 	0.34017	0.27173	0.21183	0.052
Mof_C 	C 	0.40357	0.32663	0.39293	-0.082
Mof_H 	H 	0.39457	0.34483	0.33283	0.043
Mof_H 	H 	0.38217	0.31643	0.47103	0.038
Mof_C 	C 	0.45317	0.35753	0.43963	-0.018
Mof_C 	C 	0.48667	0.39203	0.35833	0.015
Mof_H 	H 	0.47737	0.39573	0.27123	0.007
Mof_N 	N 	0.44394	0.19797	0.27243	-0.17
Mof_C 	C 	0.46237	0.21103	0.15123	0.059
Mof_H 	H 	0.47437	0.24273	0.12523	-0.003
Mof_C 	C 	0.46467	0.18043	0.06133	-0.095
Mof_H 	H 	0.47747	0.19103	0.97463	0.062
Mof_C 	C 	0.46757	0.35273	0.56843	-0.038
Mof_H 	H 	0.44617	0.32963	0.62863	0.019
Mof_C 	C 	0.38167	0.19133	0.69093	0.012
Mof_C 	C 	0.35817	0.14333	0.66663	-0.071
Mof_H 	H 	0.37527	0.12713	0.66553	0.038
Mof_C 	C 	0.35687	0.21503	0.68973	-0.079
Mof_H 	H 	0.37257	0.24793	0.70433	0.034
Mof_C 	C 	0.43397	0.21913	0.71773	-0.095
Mof_H 	H 	0.44287	0.20093	0.77743	0.057
Mof_H 	H 	0.44167	0.24873	0.76373	0.048
Mof_C 	C 	0.50997	0.26343	0.60933	-0.177
Mof_H 	H 	0.51397	0.29453	0.62443	0.029
Mof_H 	H 	0.52257	0.25623	0.68583	-0.164
Mof_C 	C 	0.53617	0.26553	0.49303	-0.056
Mof_C 	C 	0.55507	0.23783	0.47233	-0.529
Mof_H 	H 	0.55097	0.21343	0.53813	0.098
Mof_N 	N 	0.58117	0.24403	0.35833	-0.295
Mof_C 	C 	0.58627	0.27703	0.27533	0.029
Mof_H 	H 	0.60607	0.28173	0.19723	0.027
Mof_C 	C 	0.59327	0.23303	0.37833	0.146
Mof_H 	H 	0.57407	0.23663	0.44663	0.389
Mof_C 	C 	0.54287	0.30093	0.39623	-0.035
Mof_H 	H 	0.52937	0.32073	0.41303	0.037
Mof_H 	H 	0.52437	0.26173	0.52783	0.18
Mof_H 	H 	0.51187	0.29403	0.60613	0.033
Mof_C 	C 	0.54297	0.26903	0.71363	0.483
Mof_C 	C 	0.54137	0.28793	0.83883	-0.354
Mof_H 	H 	0.51957	0.29923	0.85213	0.16
Mof_N 	N 	0.56877	0.29083	0.94243	-0.232
Mof_C 	C 	0.59817	0.27473	0.91533	-0.554
Mof_H 	H 	0.61807	0.27613	0.98793	0.223
Mof_C 	C 	0.60267	0.25693	0.79533	0.36
Mof_H 	H 	0.62597	0.24733	0.78373	0.318
Mof_C 	C 	0.57327	0.25253	0.69533	-0.424
Mof_H 	H 	0.57367	0.23773	0.61073	0.196
Mof_Ag	Ag	0.09405	0.57856	0.75377	0.575
Mof_N 	N 	0.06461	0.61795	0.65387	-0.198
Mof_H 	H 	0.08153	0.62927	0.57487	0.08
Mof_N 	N 	0.12673	0.56277	0.92857	-0.176
Mof_H 	H 	0.12563	0.53487	0.90577	0.09
Mof_C 	C 	0.00695	0.5424	0.55247	0.026
Mof_C 	C 	0.01543	0.53887	0.41877	-0.061
Mof_H 	H 	0.02613	0.56547	0.36197	0.038
Mof_C 	C 	0.99161	0.50317	0.63287	-0.077
Mof_H 	H 	0.98583	0.50517	0.72517	0.041
Mof_C 	C 	0.01493	0.58807	0.61207	-0.107
Mof_H 	H 	0.99423	0.58137	0.69057	0.05
Mof_H 	H 	0.00683	0.60507	0.54517	0.052
Mof_C 	C 	0.07023	0.65997	0.72627	-0.082
Mof_H 	H 	0.06123	0.67817	0.66617	0.042
Mof_H 	H 	0.04883	0.64977	0.80437	0.038
Mof_C 	C 	0.11983	0.69087	0.77297	-0.019
Mof_C 	C 	0.15333	0.72537	0.69167	0.015
Mof_H 	H 	0.14403	0.72907	0.60457	0.007
Mof_N 	N 	0.1106	0.53131	0.60577	-0.17
Mof_C 	C 	0.12903	0.54437	0.48457	0.059
Mof_H 	H 	0.14103	0.57607	0.45857	-0.003
Mof_C 	C 	0.13133	0.51377	0.39467	-0.094
Mof_H 	H 	0.14413	0.52437	0.30797	0.061
Mof_C 	C 	0.13423	0.68607	0.90177	-0.038
Mof_H 	H 	0.11283	0.66297	0.96197	0.019
Mof_C 	C 	0.04833	0.52467	0.02427	0.012
Mof_C 	C 	0.02483	0.47667	0.99997	-0.071
Mof_H 	H 	0.04193	0.46047	0.99887	0.038
Mof_C 	C 	0.02353	0.54837	0.02307	-0.079
Mof_H 	H 	0.03923	0.58127	0.03767	0.034
Mof_C 	C 	0.10063	0.55247	0.05107	-0.095
Mof_H 	H 	0.10953	0.53427	0.11077	0.057
Mof_H 	H 	0.10833	0.58207	0.09707	0.048
Mof_C 	C 	0.17663	0.59677	0.94267	-0.177
Mof_H 	H 	0.18063	0.62787	0.95777	0.029
Mof_H 	H 	0.18923	0.58957	0.01917	-0.165
Mof_C 	C 	0.20283	0.59887	0.82637	-0.056
Mof_C 	C 	0.22173	0.57117	0.80567	-0.529
Mof_H 	H 	0.21763	0.54677	0.87147	0.098
Mof_N 	N 	0.24783	0.57737	0.69167	-0.296
Mof_C 	C 	0.25293	0.61037	0.60867	0.029
Mof_H 	H 	0.27273	0.61507	0.53057	0.027
Mof_C 	C 	0.25993	0.56637	0.71167	0.147
Mof_H 	H 	0.24073	0.56997	0.77997	0.389
Mof_C 	C 	0.20953	0.63427	0.72957	-0.035
Mof_H 	H 	0.19603	0.65407	0.74637	0.037
Mof_H 	H 	0.19103	0.59507	0.86117	0.18
Mof_H 	H 	0.17853	0.62737	0.93947	0.033
Mof_C 	C 	0.20963	0.60237	0.04697	0.485
Mof_C 	C 	0.20803	0.62127	0.17217	-0.355
Mof_H 	H 	0.18623	0.63257	0.18547	0.16
Mof_N 	N 	0.23543	0.62417	0.27577	-0.232
Mof_C 	C 	0.26483	0.60807	0.24867	-0.554
Mof_H 	H 	0.28473	0.60947	0.32127	0.223
Mof_C 	C 	0.26933	0.59027	0.12867	0.36
Mof_H 	H 	0.29263	0.58067	0.11707	0.318
Mof_C 	C 	0.23993	0.58587	0.02867	-0.424
Mof_H 	H 	0.24033	0.57107	0.94407	0.196
Mof_Ag	Ag	0.0881	0.84881	0.0871	0.575
Mof_N 	N 	0.04872	0.78	0.9872	-0.198
Mof_H 	H 	0.0374	0.7856	0.9082	0.08
Mof_N 	N 	0.1039	0.8973	0.2619	-0.176
Mof_H 	H 	0.1318	0.9241	0.2391	0.09
Mof_C 	C 	0.12427	0.79789	0.8858	0.027
Mof_C 	C 	0.1278	0.8099	0.7521	-0.061
Mof_H 	H 	0.1012	0.794	0.6953	0.038
Mof_C 	C 	0.1635	0.82178	0.9662	-0.078
Mof_H 	H 	0.1615	0.814	0.0585	0.041
Mof_C 	C 	0.0786	0.7602	0.9454	-0.107
Mof_H 	H 	0.0853	0.7462	0.0239	0.05
Mof_H 	H 	0.0616	0.7351	0.8785	0.052
Mof_C 	C 	0.0067	0.7436	0.0596	-0.082
Mof_H 	H 	0.9885	0.7164	0.9995	0.043
Mof_H 	H 	0.0169	0.7324	0.1377	0.038
Mof_C 	C 	0.9758	0.7623	0.1063	-0.018
Mof_C 	C 	0.9413	0.7613	0.025	0.014
Mof_H 	H 	0.9376	0.7483	0.9379	0.007
Mof_N 	N 	0.13536	0.91263	0.9391	-0.17
Mof_C 	C 	0.1223	0.918	0.8179	0.059
Mof_H 	H 	0.0906	0.8983	0.7919	-0.003
Mof_C 	C 	0.1529	0.9509	0.728	-0.094
Mof_H 	H 	0.1423	0.9531	0.6413	0.061
Mof_C 	C 	0.9806	0.7815	0.2351	-0.038
Mof_H 	H 	0.0037	0.7832	0.2953	0.019
Mof_C 	C 	0.142	0.857	0.3576	0.012
Mof_C 	C 	0.19	0.8815	0.3333	-0.071
Mof_H 	H 	0.2062	0.9148	0.3322	0.038
Mof_C 	C 	0.1183	0.8085	0.3564	-0.079
Mof_H 	H 	0.0854	0.7913	0.371	0.034
Mof_C 	C 	0.1142	0.8815	0.3844	-0.095
Mof_H 	H 	0.1324	0.9086	0.4441	0.057
Mof_H 	H 	0.0846	0.8596	0.4304	0.048
Mof_C 	C 	0.0699	0.9132	0.276	-0.177
Mof_H 	H 	0.0388	0.8861	0.2911	0.029
Mof_H 	H 	0.0771	0.933	0.3525	-0.164
Mof_C 	C 	0.0678	0.9373	0.1597	-0.056
Mof_C 	C 	0.0955	0.9839	0.139	-0.529
Mof_H 	H 	0.1199	0.0042	0.2048	0.098
Mof_N 	N 	0.0893	0.0038	0.025	-0.296
Mof_C 	C 	0.0563	0.9759	0.942	0.029
Mof_H 	H 	0.0516	0.991	0.8639	0.027
Mof_C 	C 	0.1003	0.0269	0.045	0.147
Mof_H 	H 	0.0967	0.0041	0.1133	0.389
Mof_C 	C 	0.0324	0.9086	0.0629	-0.035
Mof_H 	H 	0.0126	0.8753	0.0797	0.037
Mof_H 	H 	0.0716	0.9293	0.1945	0.18
Mof_H 	H 	0.0393	0.8845	0.2728	0.033
Mof_C 	C 	0.0643	0.9406	0.3803	0.483
Mof_C 	C 	0.0454	0.9201	0.5055	-0.354
Mof_H 	H 	0.0341	0.887	0.5188	0.16
Mof_N 	N 	0.0425	0.9446	0.6091	-0.232
Mof_C 	C 	0.0586	0.9901	0.582	-0.554
Mof_H 	H 	0.0572	0.0086	0.6546	0.223
Mof_C 	C 	0.0764	0.0124	0.462	0.36
Mof_H 	H 	0.086	0.0453	0.4504	0.318
Mof_C 	C 	0.0808	0.9874	0.362	-0.424
Mof_H 	H 	0.0956	0.0026	0.2774	0.196
Mof_Ag	Ag	0.75477	0.18215	0.42043	0.576
Mof_N 	N 	0.71539	0.11333	0.32053	-0.198
Mof_H 	H 	0.70407	0.11893	0.24153	0.08
Mof_N 	N 	0.77057	0.23063	0.59523	-0.176
Mof_H 	H 	0.79847	0.25743	0.57243	0.09
Mof_C 	C 	0.79094	0.13122	0.21913	0.026
Mof_C 	C 	0.79447	0.14323	0.08543	-0.061
Mof_H 	H 	0.76787	0.12733	0.02863	0.038
Mof_C 	C 	0.83017	0.15511	0.29953	-0.077
Mof_H 	H 	0.82817	0.14733	0.39183	0.041
Mof_C 	C 	0.74527	0.09353	0.27873	-0.107
Mof_H 	H 	0.75197	0.07953	0.35723	0.05
Mof_H 	H 	0.72827	0.06843	0.21183	0.052
Mof_C 	C 	0.67337	0.07693	0.39293	-0.082
Mof_H 	H 	0.65517	0.04973	0.33283	0.043
Mof_H 	H 	0.68357	0.06573	0.47103	0.038
Mof_C 	C 	0.64247	0.09563	0.43963	-0.018
Mof_C 	C 	0.60797	0.09463	0.35833	0.015
Mof_H 	H 	0.60427	0.08163	0.27123	0.007
Mof_N 	N 	0.80203	0.24596	0.27243	-0.17
Mof_C 	C 	0.78897	0.25133	0.15123	0.059
Mof_H 	H 	0.75727	0.23163	0.12523	-0.003
Mof_C 	C 	0.81957	0.28423	0.06133	-0.095
Mof_H 	H 	0.80897	0.28643	0.97463	0.062
Mof_C 	C 	0.64727	0.11483	0.56843	-0.038
Mof_H 	H 	0.67037	0.11653	0.62863	0.019
Mof_C 	C 	0.80867	0.19033	0.69093	0.012
Mof_C 	C 	0.85667	0.21483	0.66663	-0.071
Mof_H 	H 	0.87287	0.24813	0.66553	0.038
Mof_C 	C 	0.78497	0.14183	0.68973	-0.079
Mof_H 	H 	0.75207	0.12463	0.70433	0.034
Mof_C 	C 	0.78087	0.21483	0.71773	-0.095
Mof_H 	H 	0.79907	0.24193	0.77743	0.057
Mof_H 	H 	0.75127	0.19293	0.76373	0.048
Mof_C 	C 	0.73657	0.24653	0.60933	-0.177
Mof_H 	H 	0.70547	0.21943	0.62443	0.029
Mof_H 	H 	0.74377	0.26633	0.68583	-0.164
Mof_C 	C 	0.73447	0.27063	0.49303	-0.056
Mof_C 	C 	0.76217	0.31723	0.47233	-0.529
Mof_H 	H 	0.78657	0.33753	0.53813	0.098
Mof_N 	N 	0.75597	0.33713	0.35833	-0.295
Mof_C 	C 	0.72297	0.30923	0.27533	0.029
Mof_H 	H 	0.71827	0.32433	0.19723	0.027
Mof_C 	C 	0.76697	0.36023	0.37833	0.146
Mof_H 	H 	0.76337	0.33743	0.44663	0.389
Mof_C 	C 	0.69907	0.24193	0.39623	-0.035
Mof_H 	H 	0.67927	0.20863	0.41303	0.037
Mof_H 	H 	0.73827	0.26263	0.52783	0.18
Mof_H 	H 	0.70597	0.21783	0.60613	0.033
Mof_C 	C 	0.73097	0.27393	0.71363	0.483
Mof_C 	C 	0.71207	0.25343	0.83883	-0.354
Mof_H 	H 	0.70077	0.22033	0.85213	0.16
Mof_N 	N 	0.70917	0.27793	0.94243	-0.232
Mof_C 	C 	0.72527	0.32343	0.91533	-0.554
Mof_H 	H 	0.72387	0.34193	0.98793	0.223
Mof_C 	C 	0.74307	0.34573	0.79533	0.36
Mof_H 	H 	0.75267	0.37863	0.78373	0.318
Mof_C 	C 	0.74747	0.32073	0.69533	-0.424
Mof_H 	H 	0.76227	0.33593	0.61073	0.196
Mof_Ag	Ag	0.42144	0.51548	0.75377	0.575
Mof_N 	N 	0.38205	0.44667	0.65387	-0.198
Mof_H 	H 	0.37073	0.45227	0.57487	0.08
Mof_N 	N 	0.43723	0.56397	0.92857	-0.176
Mof_H 	H 	0.46513	0.59077	0.90577	0.09
Mof_C 	C 	0.4576	0.46456	0.55247	0.026
Mof_C 	C 	0.46113	0.47657	0.41877	-0.061
Mof_H 	H 	0.43453	0.46067	0.36197	0.038
Mof_C 	C 	0.49683	0.48845	0.63287	-0.077
Mof_H 	H 	0.49483	0.48067	0.72517	0.041
Mof_C 	C 	0.41193	0.42687	0.61207	-0.107
Mof_H 	H 	0.41863	0.41287	0.69057	0.05
Mof_H 	H 	0.39493	0.40177	0.54517	0.052
Mof_C 	C 	0.34003	0.41027	0.72627	-0.082
Mof_H 	H 	0.32183	0.38307	0.66617	0.042
Mof_H 	H 	0.35023	0.39907	0.80437	0.038
Mof_C 	C 	0.30913	0.42897	0.77297	-0.019
Mof_C 	C 	0.27463	0.42797	0.69167	0.015
Mof_H 	H 	0.27093	0.41497	0.60457	0.007
Mof_N 	N 	0.46869	0.5793	0.60577	-0.17
Mof_C 	C 	0.45563	0.58467	0.48457	0.059
Mof_H 	H 	0.42393	0.56497	0.45857	-0.003
Mof_C 	C 	0.48623	0.61757	0.39467	-0.094
Mof_H 	H 	0.47563	0.61977	0.30797	0.061
Mof_C 	C 	0.31393	0.44817	0.90177	-0.038
Mof_H 	H 	0.33703	0.44987	0.96197	0.019
Mof_C 	C 	0.47533	0.52367	0.02427	0.012
Mof_C 	C 	0.52333	0.54817	0.99997	-0.071
Mof_H 	H 	0.53953	0.58147	0.99887	0.038
Mof_C 	C 	0.45163	0.47517	0.02307	-0.079
Mof_H 	H 	0.41873	0.45797	0.03767	0.034
Mof_C 	C 	0.44753	0.54817	0.05107	-0.095
Mof_H 	H 	0.46573	0.57527	0.11077	0.057
Mof_H 	H 	0.41793	0.52627	0.09707	0.048
Mof_C 	C 	0.40323	0.57987	0.94267	-0.177
Mof_H 	H 	0.37213	0.55277	0.95777	0.029
Mof_H 	H 	0.41043	0.59967	0.01917	-0.165
Mof_C 	C 	0.40113	0.60397	0.82637	-0.056
Mof_C 	C 	0.42883	0.65057	0.80567	-0.529
Mof_H 	H 	0.45323	0.67087	0.87147	0.098
Mof_N 	N 	0.42263	0.67047	0.69167	-0.296
Mof_C 	C 	0.38963	0.64257	0.60867	0.029
Mof_H 	H 	0.38493	0.65767	0.53057	0.027
Mof_C 	C 	0.43363	0.69357	0.71167	0.147
Mof_H 	H 	0.43003	0.67077	0.77997	0.389
Mof_C 	C 	0.36573	0.57527	0.72957	-0.035
Mof_H 	H 	0.34593	0.54197	0.74637	0.037
Mof_H 	H 	0.40493	0.59597	0.86117	0.18
Mof_H 	H 	0.37263	0.55117	0.93947	0.033
Mof_C 	C 	0.39763	0.60727	0.04697	0.485
Mof_C 	C 	0.37873	0.58677	0.17217	-0.355
Mof_H 	H 	0.36743	0.55367	0.18547	0.16
Mof_N 	N 	0.37583	0.61127	0.27577	-0.232
Mof_C 	C 	0.39193	0.65677	0.24867	-0.554
Mof_H 	H 	0.39053	0.67527	0.32127	0.223
Mof_C 	C 	0.40973	0.67907	0.12867	0.36
Mof_H 	H 	0.41933	0.71197	0.11707	0.318
Mof_C 	C 	0.41413	0.65407	0.02867	-0.424
Mof_H 	H 	0.42893	0.66927	0.94407	0.196
Mof_Ag	Ag	0.15119	0.23929	0.0871	0.576
Mof_N 	N 	0.22	0.26872	0.9872	-0.198
Mof_H 	H 	0.2144	0.2518	0.9082	0.08
Mof_N 	N 	0.1027	0.2066	0.2619	-0.176
Mof_H 	H 	0.0759	0.2077	0.2391	0.09
Mof_C 	C 	0.20211	0.32638	0.8858	0.027
Mof_C 	C 	0.1901	0.3179	0.7521	-0.061
Mof_H 	H 	0.206	0.3072	0.6953	0.038
Mof_C 	C 	0.17822	0.34172	0.9662	-0.078
Mof_H 	H 	0.186	0.3475	0.0585	0.041
Mof_C 	C 	0.2398	0.3184	0.9454	-0.107
Mof_H 	H 	0.2538	0.3391	0.0239	0.05
Mof_H 	H 	0.2649	0.3265	0.8785	0.052
Mof_C 	C 	0.2564	0.2631	0.0596	-0.082
Mof_H 	H 	0.2836	0.2721	0.9995	0.043
Mof_H 	H 	0.2676	0.2845	0.1377	0.038
Mof_C 	C 	0.2377	0.2135	0.1063	-0.018
Mof_C 	C 	0.2387	0.18	0.025	0.014
Mof_H 	H 	0.2517	0.1893	0.9379	0.007
Mof_N 	N 	0.08737	0.22273	0.9391	-0.17
Mof_C 	C 	0.082	0.2043	0.8179	0.059
Mof_H 	H 	0.1017	0.1923	0.7919	-0.003
Mof_C 	C 	0.0491	0.202	0.728	-0.094
Mof_H 	H 	0.0469	0.1892	0.6413	0.061
Mof_C 	C 	0.2185	0.1991	0.2351	-0.038
Mof_H 	H 	0.2168	0.2205	0.2953	0.019
Mof_C 	C 	0.143	0.285	0.3576	0.012
Mof_C 	C 	0.1185	0.3085	0.3333	-0.071
Mof_H 	H 	0.0852	0.2914	0.3322	0.038
Mof_C 	C 	0.1915	0.3098	0.3564	-0.079
Mof_H 	H 	0.2087	0.2941	0.371	0.034
Mof_C 	C 	0.1185	0.2327	0.3844	-0.095
Mof_H 	H 	0.0914	0.2238	0.4441	0.057
Mof_H 	H 	0.1404	0.225	0.4304	0.048
Mof_C 	C 	0.0868	0.1567	0.276	-0.177
Mof_H 	H 	0.1139	0.1527	0.2911	0.029
Mof_H 	H 	0.067	0.1441	0.3525	-0.164
Mof_C 	C 	0.0627	0.1305	0.1597	-0.056
Mof_C 	C 	0.0161	0.1116	0.139	-0.529
Mof_H 	H 	0.9958	0.1157	0.2048	0.098
Mof_N 	N 	0.9962	0.0855	0.025	-0.295
Mof_C 	C 	0.0241	0.0804	0.942	0.029
Mof_H 	H 	0.009	0.0606	0.8639	0.027
Mof_C 	C 	0.9731	0.0734	0.045	0.146
Mof_H 	H 	0.9959	0.0926	0.1133	0.389
Mof_C 	C 	0.0914	0.1238	0.0629	-0.035
Mof_H 	H 	0.1247	0.1373	0.0797	0.037
Mof_H 	H 	0.0707	0.1423	0.1945	0.18
Mof_H 	H 	0.1155	0.1548	0.2728	0.033
Mof_C 	C 	0.0594	0.1237	0.3803	0.484
Mof_C 	C 	0.0799	0.1253	0.5055	-0.354
Mof_H 	H 	0.113	0.1471	0.5188	0.16
Mof_N 	N 	0.0554	0.0979	0.6091	-0.232
Mof_C 	C 	0.0099	0.0685	0.582	-0.554
Mof_H 	H 	0.9914	0.0486	0.6546	0.223
Mof_C 	C 	0.9876	0.064	0.462	0.36
Mof_H 	H 	0.9547	0.0407	0.4504	0.318
Mof_C 	C 	0.0126	0.0934	0.362	-0.424
Mof_H 	H 	0.9974	0.093	0.2774	0.196
Mof_Ag	Ag	0.81785	0.57262	0.42043	0.576
Mof_N 	N 	0.88667	0.60205	0.32053	-0.198
Mof_H 	H 	0.88107	0.58513	0.24153	0.08
Mof_N 	N 	0.76937	0.53993	0.59523	-0.176
Mof_H 	H 	0.74257	0.54103	0.57243	0.09
Mof_C 	C 	0.86878	0.65971	0.21913	0.026
Mof_C 	C 	0.85677	0.65123	0.08543	-0.061
Mof_H 	H 	0.87267	0.64053	0.02863	0.038
Mof_C 	C 	0.84489	0.67505	0.29953	-0.077
Mof_H 	H 	0.85267	0.68083	0.39183	0.041
Mof_C 	C 	0.90647	0.65173	0.27873	-0.107
Mof_H 	H 	0.92047	0.67243	0.35723	0.05
Mof_H 	H 	0.93157	0.65983	0.21183	0.052
Mof_C 	C 	0.92307	0.59643	0.39293	-0.082
Mof_H 	H 	0.95027	0.60543	0.33283	0.043
Mof_H 	H 	0.93427	0.61783	0.47103	0.038
Mof_C 	C 	0.90437	0.54683	0.43963	-0.018
Mof_C 	C 	0.90537	0.51333	0.35833	0.015
Mof_H 	H 	0.91837	0.52263	0.27123	0.007
Mof_N 	N 	0.75404	0.55606	0.27243	-0.17
Mof_C 	C 	0.74867	0.53763	0.15123	0.059
Mof_H 	H 	0.76837	0.52563	0.12523	-0.003
Mof_C 	C 	0.71577	0.53533	0.06133	-0.095
Mof_H 	H 	0.71357	0.52253	0.97463	0.062
Mof_C 	C 	0.88517	0.53243	0.56843	-0.038
Mof_H 	H 	0.88347	0.55383	0.62863	0.019
Mof_C 	C 	0.80967	0.61833	0.69093	0.012
Mof_C 	C 	0.78517	0.64183	0.66663	-0.071
Mof_H 	H 	0.75187	0.62473	0.66553	0.038
Mof_C 	C 	0.85817	0.64313	0.68973	-0.079
Mof_H 	H 	0.87537	0.62743	0.70433	0.034
Mof_C 	C 	0.78517	0.56603	0.71773	-0.095
Mof_H 	H 	0.75807	0.55713	0.77743	0.057
Mof_H 	H 	0.80707	0.55833	0.76373	0.048
Mof_C 	C 	0.75347	0.49003	0.60933	-0.177
Mof_H 	H 	0.78057	0.48603	0.62443	0.029
Mof_H 	H 	0.73367	0.47743	0.68583	-0.164
Mof_C 	C 	0.72937	0.46383	0.49303	-0.056
Mof_C 	C 	0.68277	0.44493	0.47233	-0.529
Mof_H 	H 	0.66247	0.44903	0.53813	0.098
Mof_N 	N 	0.66287	0.41883	0.35833	-0.295
Mof_C 	C 	0.69077	0.41373	0.27533	0.029
Mof_H 	H 	0.67567	0.39393	0.19723	0.027
Mof_C 	C 	0.63977	0.40673	0.37833	0.146
Mof_H 	H 	0.66257	0.42593	0.44663	0.389
Mof_C 	C 	0.75807	0.45713	0.39623	-0.035
Mof_H 	H 	0.79137	0.47063	0.41303	0.037
Mof_H 	H 	0.73737	0.47563	0.52783	0.18
Mof_H 	H 	0.78217	0.48813	0.60613	0.033
Mof_C 	C 	0.72607	0.45703	0.71363	0.483
Mof_C 	C 	0.74657	0.45863	0.83883	-0.354
Mof_H 	H 	0.77967	0.48043	0.85213	0.16
Mof_N 	N 	0.72207	0.43123	0.94243	-0.232
Mof_C 	C 	0.67657	0.40183	0.91533	-0.554
Mof_H 	H 	0.65807	0.38193	0.98793	0.223
Mof_C 	C 	0.65427	0.39733	0.79533	0.36
Mof_H 	H 	0.62137	0.37403	0.78373	0.318
Mof_C 	C 	0.67927	0.42673	0.69533	-0.424
Mof_H 	H 	0.66407	0.42633	0.61073	0.196
Mof_Ag	Ag	0.48452	0.90595	0.75377	0.575
Mof_N 	N 	0.55333	0.93539	0.65387	-0.198
Mof_H 	H 	0.54773	0.91847	0.57487	0.08
Mof_N 	N 	0.43603	0.87327	0.92857	-0.176
Mof_H 	H 	0.40923	0.87437	0.90577	0.09
Mof_C 	C 	0.53544	0.99305	0.55247	0.026
Mof_C 	C 	0.52343	0.98457	0.41877	-0.061
Mof_H 	H 	0.53933	0.97387	0.36197	0.038
Mof_C 	C 	0.51155	0.00839	0.63287	-0.077
Mof_H 	H 	0.51933	0.01417	0.72517	0.041
Mof_C 	C 	0.57313	0.98507	0.61207	-0.107
Mof_H 	H 	0.58713	0.00577	0.69057	0.05
Mof_H 	H 	0.59823	0.99317	0.54517	0.052
Mof_C 	C 	0.58973	0.92977	0.72627	-0.082
Mof_H 	H 	0.61693	0.93877	0.66617	0.043
Mof_H 	H 	0.60093	0.95117	0.80437	0.038
Mof_C 	C 	0.57103	0.88017	0.77297	-0.019
Mof_C 	C 	0.57203	0.84667	0.69167	0.015
Mof_H 	H 	0.58503	0.85597	0.60457	0.007
Mof_N 	N 	0.4207	0.8894	0.60577	-0.17
Mof_C 	C 	0.41533	0.87097	0.48457	0.059
Mof_H 	H 	0.43503	0.85897	0.45857	-0.003
Mof_C 	C 	0.38243	0.86867	0.39467	-0.094
Mof_H 	H 	0.38023	0.85587	0.30797	0.061
Mof_C 	C 	0.55183	0.86577	0.90177	-0.038
Mof_H 	H 	0.55013	0.88717	0.96197	0.019
Mof_C 	C 	0.47633	0.95167	0.02427	0.012
Mof_C 	C 	0.45183	0.97517	0.99997	-0.071
Mof_H 	H 	0.41853	0.95807	0.99887	0.038
Mof_C 	C 	0.52483	0.97647	0.02307	-0.079
Mof_H 	H 	0.54203	0.96077	0.03767	0.034
Mof_C 	C 	0.45183	0.89937	0.05107	-0.095
Mof_H 	H 	0.42473	0.89047	0.11077	0.057
Mof_H 	H 	0.47373	0.89167	0.09707	0.048
Mof_C 	C 	0.42013	0.82337	0.94267	-0.177
Mof_H 	H 	0.44723	0.81937	0.95777	0.029
Mof_H 	H 	0.40033	0.81077	0.01917	-0.165
Mof_C 	C 	0.39603	0.79717	0.82637	-0.056
Mof_C 	C 	0.34943	0.77827	0.80567	-0.529
Mof_H 	H 	0.32913	0.78237	0.87147	0.098
Mof_N 	N 	0.32953	0.75217	0.69167	-0.296
Mof_C 	C 	0.35743	0.74707	0.60867	0.029
Mof_H 	H 	0.34233	0.72727	0.53057	0.027
Mof_C 	C 	0.30643	0.74007	0.71167	0.147
Mof_H 	H 	0.32923	0.75927	0.77997	0.389
Mof_C 	C 	0.42473	0.79047	0.72957	-0.035
Mof_H 	H 	0.45803	0.80397	0.74637	0.037
Mof_H 	H 	0.40403	0.80897	0.86117	0.18
Mof_H 	H 	0.44883	0.82147	0.93947	0.033
Mof_C 	C 	0.39273	0.79037	0.04697	0.485
Mof_C 	C 	0.41323	0.79197	0.17217	-0.355
Mof_H 	H 	0.44633	0.81377	0.18547	0.16
Mof_N 	N 	0.38873	0.76457	0.27577	-0.232
Mof_C 	C 	0.34323	0.73517	0.24867	-0.554
Mof_H 	H 	0.32473	0.71527	0.32127	0.223
Mof_C 	C 	0.32093	0.73067	0.12867	0.36
Mof_H 	H 	0.28803	0.70737	0.11707	0.318
Mof_C 	C 	0.34593	0.76007	0.02867	-0.424
Mof_H 	H 	0.33073	0.75967	0.94407	0.196
_end
