data_functionalizedCrystal
_audit_creation_method	'EQeq! by Chris Wilmer'
_symmetry_space_group_name_H-M	'P1'
_symmetry_Int_Tables_number	1
_symmetry_cell_setting	triclinic
loop_
_symmetry_equiv_pos_as_xyz
  x,y,z
_cell_length_a	10.0936
_cell_length_b	12.5108
_cell_length_c	15.1721
_cell_angle_alpha	90
_cell_angle_beta	90
_cell_angle_gamma	90
loop_
_atom_site_label
_atom_site_type_symbol
_atom_site_fract_x
_atom_site_fract_y
_atom_site_fract_z
_atom_site_charge
Mof_Cd	Cd	-0	0.5	-0	0.392
Mof_Cd	Cd	0.5	0.5	0.5	0.439
Mof_Cd	Cd	9.40578e-33	0	0.5	0.392
Mof_Cd	Cd	0.5	0	-0	0.393
Mof_H 	H 	0.3789	0.7593	0.0579	0.047
Mof_H 	H 	0.6375	0.7762	0.8707	0.044
Mof_H 	H 	0.5187	0.498	0.8874	0.081
Mof_H 	H 	0.4442	0.4792	0.7292	0.032
Mof_H 	H 	0.7159	0.6489	0.616	0.029
Mof_H 	H 	0.1211	0.2407	0.5579	0.036
Mof_H 	H 	0.8625	0.2238	0.3707	0.041
Mof_H 	H 	0.9813	0.502	0.3874	0.084
Mof_H 	H 	0.0558	0.5208	0.2292	-0.002
Mof_H 	H 	0.7841	0.3511	0.116	0.022
Mof_H 	H 	0.6211	0.2593	0.4421	0.029
Mof_H 	H 	0.3625	0.2762	0.6293	0.041
Mof_H 	H 	0.4813	0.998	0.6126	0.103
Mof_H 	H 	0.5558	0.9792	0.7708	0.064
Mof_H 	H 	0.2841	0.1489	0.884	0.029
Mof_H 	H 	0.8789	0.7407	0.9421	0.014
Mof_H 	H 	0.1375	0.7238	0.1293	0.04
Mof_H 	H 	0.0187	0.002	0.1126	0.038
Mof_H 	H 	0.9442	0.0208	0.2708	0.03
Mof_H 	H 	0.2159	0.8511	0.384	0.027
Mof_H 	H 	0.6211	0.2407	0.9421	0.017
Mof_H 	H 	0.3625	0.2238	0.1293	0.04
Mof_H 	H 	0.4813	0.502	0.1126	0.074
Mof_H 	H 	0.5558	0.5208	0.2708	0.03
Mof_H 	H 	0.2841	0.3511	0.384	0.023
Mof_H 	H 	0.8789	0.7593	0.4421	0.027
Mof_H 	H 	0.1375	0.7762	0.6293	0.042
Mof_H 	H 	0.0187	0.498	0.6126	0.07
Mof_H 	H 	0.9442	0.4792	0.7708	0.063
Mof_H 	H 	0.2159	0.6489	0.884	0.031
Mof_H 	H 	0.3789	0.7407	0.5579	0.031
Mof_H 	H 	0.6375	0.7238	0.3707	0.04
Mof_H 	H 	0.5187	0.002	0.3874	0.051
Mof_H 	H 	0.4442	0.0208	0.2292	-0.003
Mof_H 	H 	0.7159	0.8511	0.116	0.025
Mof_H 	H 	0.1211	0.2593	0.0579	0.05
Mof_H 	H 	0.8625	0.2762	0.8707	0.043
Mof_H 	H 	0.9813	0.998	0.8874	0.109
Mof_H 	H 	0.0558	0.9792	0.7292	0.033
Mof_H 	H 	0.7841	0.1489	0.616	0.026
Mof_C 	C 	0.4359	0.7399	0.0124	0.049
Mof_C 	C 	0.5763	0.7511	0.9116	0.109
Mof_C 	C 	0.5848	0.5535	0.87552	-0.023
Mof_C 	C 	0.721	0.5096	0.9055	0.316
Mof_C 	C 	0.5161	0.524	0.7189	0.107
Mof_C 	C 	0.665	0.6161	0.6594	0.106
Mof_C 	C 	0.0641	0.2601	0.5124	0.073
Mof_C 	C 	0.9237	0.2489	0.4116	0.107
Mof_C 	C 	0.9152	0.4465	0.37552	-0.023
Mof_C 	C 	0.779	0.4904	0.4055	0.317
Mof_C 	C 	0.9839	0.476	0.2189	0.154
Mof_C 	C 	0.835	0.3839	0.1594	0.105
Mof_C 	C 	0.5641	0.2399	0.4876	0.103
Mof_C 	C 	0.4237	0.2511	0.5884	0.102
Mof_C 	C 	0.4152	0.0535	0.62448	-0.056
Mof_C 	C 	0.279	0.0096	0.5945	0.293
Mof_C 	C 	0.4839	0.024	0.7811	0.058
Mof_C 	C 	0.335	0.1161	0.8406	0.102
Mof_C 	C 	0.9359	0.7601	0.9876	0.179
Mof_C 	C 	0.0763	0.7489	0.0884	0.097
Mof_C 	C 	0.0848	0.9465	0.12448	0.004
Mof_C 	C 	0.221	0.9904	0.0945	0.339
Mof_C 	C 	0.0161	0.976	0.2811	0.109
Mof_C 	C 	0.165	0.8839	0.3406	0.106
Mof_C 	C 	0.5641	0.2601	0.9876	0.157
Mof_C 	C 	0.4237	0.2489	0.0884	0.098
Mof_C 	C 	0.4152	0.4465	0.12448	-0.028
Mof_C 	C 	0.279	0.4904	0.0945	0.315
Mof_C 	C 	0.4839	0.476	0.2811	0.105
Mof_C 	C 	0.335	0.3839	0.3406	0.103
Mof_C 	C 	0.9359	0.7399	0.4876	0.128
Mof_C 	C 	0.0763	0.7511	0.5884	0.1
Mof_C 	C 	0.0848	0.5535	0.62448	-0.028
Mof_C 	C 	0.221	0.5096	0.5945	0.316
Mof_C 	C 	0.0161	0.524	0.7811	0.06
Mof_C 	C 	0.165	0.6161	0.8406	0.104
Mof_C 	C 	0.4359	0.7601	0.5124	0.102
Mof_C 	C 	0.5763	0.7489	0.4116	0.105
Mof_C 	C 	0.5848	0.9465	0.37552	0.006
Mof_C 	C 	0.721	0.9904	0.4055	0.337
Mof_C 	C 	0.5161	0.976	0.2189	0.157
Mof_C 	C 	0.665	0.8839	0.1594	0.108
Mof_C 	C 	0.0641	0.2399	0.0124	0.019
Mof_C 	C 	0.9237	0.2511	0.9116	0.111
Mof_C 	C 	0.9152	0.0535	0.87552	-0.048
Mof_C 	C 	0.779	0.0096	0.9055	0.296
Mof_C 	C 	0.9839	0.024	0.7189	0.105
Mof_C 	C 	0.835	0.1161	0.6594	0.104
Mof_N 	N 	0.5411	0.65044	0.92032	-0.078
Mof_N 	N 	0.4487	0.6412	0.98536	-0.062
Mof_N 	N 	0.5123	0.8118	0.969	-0.114
Mof_N 	N 	0.5885	0.56983	0.78077	-0.083
Mof_N 	N 	0.6874	0.6288	0.74346	-0.079
Mof_N 	N 	0.5608	0.551	0.64056	-0.147
Mof_N 	N 	0.9589	0.34956	0.42032	-0.07
Mof_N 	N 	0.0513	0.3588	0.48536	-0.094
Mof_N 	N 	0.9877	0.1882	0.469	-0.123
Mof_N 	N 	0.9115	0.43017	0.28077	-0.09
Mof_N 	N 	0.8126	0.3712	0.24346	-0.082
Mof_N 	N 	0.9392	0.449	0.14056	-0.148
Mof_N 	N 	0.4589	0.15044	0.57968	-0.076
Mof_N 	N 	0.5513	0.1412	0.51464	-0.091
Mof_N 	N 	0.4877	0.3118	0.531	-0.141
Mof_N 	N 	0.4115	0.06983	0.71923	-0.073
Mof_N 	N 	0.3126	0.1288	0.75654	-0.084
Mof_N 	N 	0.4392	0.051	0.85944	-0.135
Mof_N 	N 	0.0411	0.84956	0.07968	-0.093
Mof_N 	N 	0.9487	0.8588	0.01464	-0.098
Mof_N 	N 	0.0123	0.6882	0.031	-0.173
Mof_N 	N 	0.0885	0.93017	0.21923	-0.086
Mof_N 	N 	0.1874	0.8712	0.25654	-0.082
Mof_N 	N 	0.0608	0.949	0.35944	-0.143
Mof_N 	N 	0.4589	0.34956	0.07968	-0.081
Mof_N 	N 	0.5513	0.3588	0.01464	-0.11
Mof_N 	N 	0.4877	0.1882	0.031	-0.161
Mof_N 	N 	0.4115	0.43017	0.21923	-0.083
Mof_N 	N 	0.3126	0.3712	0.25654	-0.085
Mof_N 	N 	0.4392	0.449	0.35944	-0.147
Mof_N 	N 	0.0411	0.65044	0.57968	-0.088
Mof_N 	N 	0.9487	0.6412	0.51464	-0.08
Mof_N 	N 	0.0123	0.8118	0.531	-0.149
Mof_N 	N 	0.0885	0.56983	0.71923	-0.076
Mof_N 	N 	0.1874	0.6288	0.75654	-0.082
Mof_N 	N 	0.0608	0.551	0.85944	-0.136
Mof_N 	N 	0.5411	0.84956	0.42032	-0.083
Mof_N 	N 	0.4487	0.8588	0.48536	-0.082
Mof_N 	N 	0.5123	0.6882	0.469	-0.142
Mof_N 	N 	0.5885	0.93017	0.28077	-0.093
Mof_N 	N 	0.6874	0.8712	0.24346	-0.079
Mof_N 	N 	0.5608	0.949	0.14056	-0.149
Mof_N 	N 	0.9589	0.15044	0.92032	-0.066
Mof_N 	N 	0.0513	0.1412	0.98536	-0.073
Mof_N 	N 	0.9877	0.3118	0.969	-0.1
Mof_N 	N 	0.9115	0.06983	0.78077	-0.08
Mof_N 	N 	0.8126	0.1288	0.74346	-0.082
Mof_N 	N 	0.9392	0.051	0.64056	-0.14
Mof_O 	O 	0.7776	0.55289	0.96912	-0.243
Mof_O 	O 	0.7593	0.43288	0.86127	-0.24
Mof_O 	O 	0.7224	0.44711	0.46912	-0.262
Mof_O 	O 	0.7407	0.56712	0.36127	-0.246
Mof_O 	O 	0.2224	0.05289	0.53088	-0.265
Mof_O 	O 	0.2407	0.93288	0.63873	-0.223
Mof_O 	O 	0.2776	0.94711	0.03088	-0.268
Mof_O 	O 	0.2593	0.06712	0.13873	-0.272
Mof_O 	O 	0.2224	0.44711	0.03088	-0.274
Mof_O 	O 	0.2407	0.56712	0.13873	-0.249
Mof_O 	O 	0.2776	0.55289	0.53088	-0.266
Mof_O 	O 	0.2593	0.43288	0.63873	-0.247
Mof_O 	O 	0.7776	0.94711	0.46912	-0.252
Mof_O 	O 	0.7593	0.06712	0.36127	-0.264
Mof_O 	O 	0.7224	0.05289	0.96912	-0.248
Mof_O 	O 	0.7407	0.93288	0.86127	-0.221
_end
