# CIF file generated by openbabel 3.1.0, see https://openbabel.org
data_I
_chemical_name_common 'image0'
_cell_length_a 10.837
_cell_length_b 18.131
_cell_length_c 17.561
_cell_angle_alpha 90
_cell_angle_beta 104.301
_cell_angle_gamma 90
_space_group_name_H-M_alt 'P 1'
_space_group_name_Hall 'P 1'
loop_
    _symmetry_equiv_pos_as_xyz
    x,y,z
loop_
    _atom_site_label
    _atom_site_type_symbol
    _atom_site_fract_x
    _atom_site_fract_y
    _atom_site_fract_z
    _atom_site_occupancy
    Cu1      Cu       0.95558    0.14045    0.62506    1.000
    Cu2      Cu       0.55272    0.13269    0.86997    1.000
    N1       N        0.84570    0.11399    0.70282    1.000
    N2       N        0.67820    0.11334    0.80299    1.000
    C1       C        0.72230    0.09640    0.67750    1.000
    H1       H        0.69010    0.08370    0.62380    1.000
    C2       C        0.63970    0.09610    0.72610    1.000
    H2       H        0.55300    0.08320    0.70470    1.000
    C3       C        0.80350    0.12852    0.82910    1.000
    H3       H        0.83660    0.13910    0.88330    1.000
    C4       C        0.88560    0.12924    0.78010    1.000
    H4       H        0.97280    0.14080    0.80160    1.000
    N3       N        0.13390    0.15082    0.69451    1.000
    N4       N        0.37770    0.14672    0.79713    1.000
    C5       C        0.17830    0.09050    0.73660    1.000
    H5       H        0.12580    0.04790    0.73130    1.000
    C6       C        0.29780    0.08840    0.78750    1.000
    H6       H        0.32460    0.04460    0.81670    1.000
    C7       C        0.33350    0.20620    0.75420    1.000
    H7       H        0.38660    0.24840    0.75810    1.000
    C8       C        0.21220    0.20840    0.70380    1.000
    H8       H        0.18450    0.25230    0.67530    1.000
    N5       N        0.98230    0.05348    0.55336    1.000
    C9       C        0.07420    0.05710    0.51750    1.000
    H9       H        0.13190    0.09740    0.52860    1.000
    C10      C        0.90940    0.99560    0.53620    1.000
    H10      H        0.84220    0.98930    0.56160    1.000
    N6       N        0.83840    0.20841    0.55122    1.000
    N7       N        0.65460    0.29429    0.44902    1.000
    C11      C        0.78470    0.26720    0.57610    1.000
    H11      H        0.80900    0.27990    0.63020    1.000
    C12      C        0.69480    0.31000    0.52540    1.000
    H12      H        0.66070    0.35180    0.54560    1.000
    C13      C        0.70730    0.23460    0.42480    1.000
    H13      H        0.68140    0.22090    0.37100    1.000
    C14      C        0.79780    0.19260    0.47500    1.000
    H14      H        0.83240    0.15100    0.45470    1.000
    N8       N        0.51890    0.05018    0.94356    1.000
    C15      C        0.59090    0.98928    0.96112    1.000
    H15      H        0.65580    0.98010    0.93460    1.000
    C16      C        0.57210    0.93950    0.01740    1.000
    H16      H        0.62500    0.89710    0.02860    1.000
    Cu3      Cu       0.04442    0.64045    0.87494    1.000
    Cu4      Cu       0.44728    0.63269    0.63003    1.000
    N9       N        0.15430    0.61399    0.79718    1.000
    N10      N        0.32180    0.61334    0.69701    1.000
    C17      C        0.27770    0.59640    0.82250    1.000
    H17      H        0.30990    0.58370    0.87620    1.000
    C18      C        0.36030    0.59610    0.77390    1.000
    H18      H        0.44700    0.58320    0.79530    1.000
    C19      C        0.19650    0.62852    0.67090    1.000
    H19      H        0.16340    0.63910    0.61670    1.000
    C20      C        0.11440    0.62924    0.71990    1.000
    H20      H        0.02720    0.64080    0.69840    1.000
    N11      N        0.86610    0.65082    0.80549    1.000
    N12      N        0.62230    0.64672    0.70287    1.000
    C21      C        0.82170    0.59050    0.76340    1.000
    H21      H        0.87420    0.54790    0.76870    1.000
    C22      C        0.70220    0.58840    0.71250    1.000
    H22      H        0.67540    0.54460    0.68330    1.000
    C23      C        0.66650    0.70620    0.74580    1.000
    H23      H        0.61340    0.74840    0.74190    1.000
    C24      C        0.78780    0.70840    0.79620    1.000
    H24      H        0.81550    0.75230    0.82470    1.000
    N13      N        0.01770    0.55348    0.94664    1.000
    C25      C        0.92580    0.55710    0.98250    1.000
    H25      H        0.86810    0.59740    0.97140    1.000
    C26      C        0.09060    0.49560    0.96380    1.000
    H26      H        0.15780    0.48930    0.93840    1.000
    N14      N        0.16160    0.70841    0.94878    1.000
    N15      N        0.34540    0.79429    0.05098    1.000
    C27      C        0.21530    0.76720    0.92390    1.000
    H27      H        0.19100    0.77990    0.86980    1.000
    C28      C        0.30520    0.81000    0.97460    1.000
    H28      H        0.33930    0.85180    0.95440    1.000
    C29      C        0.29270    0.73460    0.07520    1.000
    H29      H        0.31860    0.72090    0.12900    1.000
    C30      C        0.20220    0.69260    0.02500    1.000
    H30      H        0.16760    0.65100    0.04530    1.000
    N16      N        0.48110    0.55018    0.55644    1.000
    C31      C        0.40910    0.48928    0.53888    1.000
    H31      H        0.34420    0.48010    0.56540    1.000
    C32      C        0.42790    0.43950    0.48260    1.000
    H32      H        0.37500    0.39710    0.47140    1.000
    Cu5      Cu       0.04442    0.85955    0.37494    1.000
    Cu6      Cu       0.44728    0.86731    0.13003    1.000
    N17      N        0.15430    0.88601    0.29718    1.000
    N18      N        0.32180    0.88666    0.19701    1.000
    C33      C        0.27770    0.90360    0.32250    1.000
    H33      H        0.30990    0.91630    0.37620    1.000
    C34      C        0.36030    0.90390    0.27390    1.000
    H34      H        0.44700    0.91680    0.29530    1.000
    C35      C        0.19650    0.87148    0.17090    1.000
    H35      H        0.16340    0.86090    0.11670    1.000
    C36      C        0.11440    0.87076    0.21990    1.000
    H36      H        0.02720    0.85920    0.19840    1.000
    N19      N        0.86610    0.84918    0.30549    1.000
    N20      N        0.62230    0.85328    0.20287    1.000
    C37      C        0.82170    0.90950    0.26340    1.000
    H37      H        0.87420    0.95210    0.26870    1.000
    C38      C        0.70220    0.91160    0.21250    1.000
    H38      H        0.67540    0.95540    0.18330    1.000
    C39      C        0.66650    0.79380    0.24580    1.000
    H39      H        0.61340    0.75160    0.24190    1.000
    C40      C        0.78780    0.79160    0.29620    1.000
    H40      H        0.81550    0.74770    0.32470    1.000
    N21      N        0.01770    0.94652    0.44664    1.000
    C41      C        0.92580    0.94290    0.48250    1.000
    H41      H        0.86810    0.90260    0.47140    1.000
    C42      C        0.09060    0.00440    0.46380    1.000
    H42      H        0.15780    0.01070    0.43840    1.000
    N22      N        0.16160    0.79159    0.44878    1.000
    N23      N        0.34540    0.70571    0.55098    1.000
    C43      C        0.21530    0.73280    0.42390    1.000
    H43      H        0.19100    0.72010    0.36980    1.000
    C44      C        0.30520    0.69000    0.47460    1.000
    H44      H        0.33930    0.64820    0.45440    1.000
    C45      C        0.29270    0.76540    0.57520    1.000
    H45      H        0.31860    0.77910    0.62900    1.000
    C46      C        0.20220    0.80740    0.52500    1.000
    H46      H        0.16760    0.84900    0.54530    1.000
    N24      N        0.48110    0.94982    0.05644    1.000
    C47      C        0.40910    0.01072    0.03888    1.000
    H47      H        0.34420    0.01990    0.06540    1.000
    C48      C        0.42790    0.06050    0.98260    1.000
    H48      H        0.37500    0.10290    0.97140    1.000
    Cu7      Cu       0.95558    0.35955    0.12506    1.000
    Cu8      Cu       0.55272    0.36731    0.36997    1.000
    N25      N        0.84570    0.38601    0.20282    1.000
    N26      N        0.67820    0.38666    0.30299    1.000
    C49      C        0.72230    0.40360    0.17750    1.000
    H49      H        0.69010    0.41630    0.12380    1.000
    C50      C        0.63970    0.40390    0.22610    1.000
    H50      H        0.55300    0.41680    0.20470    1.000
    C51      C        0.80350    0.37148    0.32910    1.000
    H51      H        0.83660    0.36090    0.38330    1.000
    C52      C        0.88560    0.37076    0.28010    1.000
    H52      H        0.97280    0.35920    0.30160    1.000
    N27      N        0.13390    0.34918    0.19451    1.000
    N28      N        0.37770    0.35328    0.29713    1.000
    C53      C        0.17830    0.40950    0.23660    1.000
    H53      H        0.12580    0.45210    0.23130    1.000
    C54      C        0.29780    0.41160    0.28750    1.000
    H54      H        0.32460    0.45540    0.31670    1.000
    C55      C        0.33350    0.29380    0.25420    1.000
    H55      H        0.38660    0.25160    0.25810    1.000
    C56      C        0.21220    0.29160    0.20380    1.000
    H56      H        0.18450    0.24770    0.17530    1.000
    N29      N        0.98230    0.44652    0.05336    1.000
    C57      C        0.07420    0.44290    0.01750    1.000
    H57      H        0.13190    0.40260    0.02860    1.000
    C58      C        0.90940    0.50440    0.03620    1.000
    H58      H        0.84220    0.51070    0.06160    1.000
    N30      N        0.83840    0.29159    0.05122    1.000
    N31      N        0.65460    0.20571    0.94902    1.000
    C59      C        0.78470    0.23280    0.07610    1.000
    H59      H        0.80900    0.22010    0.13020    1.000
    C60      C        0.69480    0.19000    0.02540    1.000
    H60      H        0.66070    0.14820    0.04560    1.000
    C61      C        0.70730    0.26540    0.92480    1.000
    H61      H        0.68140    0.27910    0.87100    1.000
    C62      C        0.79780    0.30740    0.97500    1.000
    H62      H        0.83240    0.34900    0.95470    1.000
    N32      N        0.51890    0.44982    0.44356    1.000
    C63      C        0.59090    0.51072    0.46112    1.000
    H63      H        0.65580    0.51990    0.43460    1.000
    C64      C        0.57210    0.56050    0.51740    1.000
    H64      H        0.62500    0.60290    0.52860    1.000
