# CIF file generated by openbabel 3.1.0, see https://openbabel.org
data_I
_chemical_name_common 'image0'
_cell_length_a 10.1
_cell_length_b 10.796
_cell_length_c 10.982
_cell_angle_alpha 90
_cell_angle_beta 90
_cell_angle_gamma 90
_space_group_name_H-M_alt 'P 1'
_space_group_name_Hall 'P 1'
loop_
    _symmetry_equiv_pos_as_xyz
    x,y,z
loop_
    _atom_site_label
    _atom_site_type_symbol
    _atom_site_fract_x
    _atom_site_fract_y
    _atom_site_fract_z
    _atom_site_occupancy
    Co1      Co       0.35434    0.00172    0.28591    1.000
    P1       P        0.35797    0.02994    0.56779    1.000
    P2       P        0.43194    0.73315    0.20513    1.000
    O1       O        0.46394    0.86841    0.22430    1.000
    O2       O        0.30092    0.97330    0.68262    1.000
    O3       O        0.50788    0.02470    0.57124    1.000
    O4       O        0.30980    0.69130    0.27417    1.000
    O5       O        0.55330    0.65750    0.23190    1.000
    O6       O        0.29970    0.97210    0.45440    1.000
    H1       H        0.33200    0.15990    0.56700    1.000
    H2       H        0.40400    0.72500    0.07810    1.000
    Co2      Co       0.14566    0.99828    0.78591    1.000
    P3       P        0.14203    0.97006    0.06779    1.000
    P4       P        0.06806    0.26685    0.70513    1.000
    O7       O        0.03606    0.13159    0.72430    1.000
    O8       O        0.19908    0.02670    0.18262    1.000
    O9       O        0.99212    0.97530    0.07124    1.000
    O10      O        0.19020    0.30870    0.77417    1.000
    O11      O        0.94670    0.34250    0.73190    1.000
    O12      O        0.20030    0.02790    0.95440    1.000
    H3       H        0.16800    0.84010    0.06700    1.000
    H4       H        0.09600    0.27500    0.57810    1.000
    Co3      Co       0.64566    0.50172    0.21409    1.000
    P5       P        0.64203    0.52994    0.93221    1.000
    P6       P        0.56806    0.23315    0.29487    1.000
    O13      O        0.53606    0.36841    0.27570    1.000
    O14      O        0.69908    0.47330    0.81738    1.000
    O15      O        0.49212    0.52470    0.92876    1.000
    O16      O        0.69020    0.19130    0.22583    1.000
    O17      O        0.44670    0.15750    0.26810    1.000
    O18      O        0.70030    0.47210    0.04560    1.000
    H5       H        0.66800    0.65990    0.93300    1.000
    H6       H        0.59600    0.22500    0.42190    1.000
    Co4      Co       0.85434    0.49828    0.71409    1.000
    P7       P        0.85797    0.47006    0.43221    1.000
    P8       P        0.93194    0.76685    0.79487    1.000
    O19      O        0.96394    0.63159    0.77570    1.000
    O20      O        0.80092    0.52670    0.31738    1.000
    O21      O        0.00788    0.47530    0.42876    1.000
    O22      O        0.80980    0.80870    0.72583    1.000
    O23      O        0.05330    0.84250    0.76810    1.000
    O24      O        0.79970    0.52790    0.54560    1.000
    H7       H        0.83200    0.34010    0.43300    1.000
    H8       H        0.90400    0.77500    0.92190    1.000
