# CIF file generated by openbabel 3.1.0, see https://openbabel.org
data_I
_chemical_name_common 'image0'
_cell_length_a 10.67
_cell_length_b 11.4911
_cell_length_c 13.4448
_cell_angle_alpha 69.159
_cell_angle_beta 78.913
_cell_angle_gamma 63.132
_space_group_name_H-M_alt 'P 1'
_space_group_name_Hall 'P 1'
loop_
    _symmetry_equiv_pos_as_xyz
    x,y,z
loop_
    _atom_site_label
    _atom_site_type_symbol
    _atom_site_fract_x
    _atom_site_fract_y
    _atom_site_fract_z
    _atom_site_occupancy
    U1       U        0.62675    0.71024    0.83613    1.000
    Sm1      Sm       0.60537    0.22611    0.75293    1.000
    C1       C        0.00240    0.34070    0.85080    1.000
    C2       C        0.11430    0.31370    0.90830    1.000
    H1       H        0.09900    0.36030    0.95670    1.000
    C3       C        0.24920    0.21650    0.89250    1.000
    C4       C        0.26950    0.14050    0.82490    1.000
    C5       C        0.15330    0.16150    0.77510    1.000
    H2       H        0.16530    0.10580    0.73490    1.000
    C6       C        0.02090    0.26390    0.78470    1.000
    C7       C        0.62550    0.00000    0.45010    1.000
    H3       H        0.70980    0.99990    0.41540    1.000
    C8       C        0.61860    0.87470    0.50710    1.000
    C9       C        0.49000    0.87500    0.55640    1.000
    C10      C        0.86680    0.46260    0.85720    1.000
    C11      C        0.36120    0.19490    0.95790    1.000
    C12      C        0.41040    0.03810    0.79970    1.000
    C13      C        0.90280    0.28680    0.72420    1.000
    C14      C        0.47130    0.74490    0.62120    1.000
    C15      C        0.74630    0.74630    0.50990    1.000
    O1       O        0.85360    0.53440    0.91280    1.000
    O2       O        0.76740    0.49260    0.80080    1.000
    O3       O        0.82470    0.22850    0.76910    1.000
    O4       O        0.89140    0.36130    0.62600    1.000
    O5       O        0.41970    0.91710    0.82200    1.000
    O6       O        0.50400    0.07190    0.75690    1.000
    O7       O        0.48180    0.17460    0.91890    1.000
    O8       O        0.32400    0.20110    0.05200    1.000
    O9       O        0.50590    0.69440    0.71690    1.000
    O10      O        0.41560    0.70130    0.57870    1.000
    O11      O        0.73610    0.63280    0.53560    1.000
    O12      O        0.86260    0.74990    0.47860    1.000
    U2       U        0.37325    0.28976    0.16387    1.000
    Sm2      Sm       0.39463    0.77389    0.24707    1.000
    C16      C        0.99760    0.65930    0.14920    1.000
    C17      C        0.88570    0.68630    0.09170    1.000
    H4       H        0.90100    0.63970    0.04330    1.000
    C18      C        0.75080    0.78350    0.10750    1.000
    C19      C        0.73050    0.85950    0.17510    1.000
    C20      C        0.84670    0.83850    0.22490    1.000
    H5       H        0.83470    0.89420    0.26510    1.000
    C21      C        0.97910    0.73610    0.21530    1.000
    C22      C        0.37450    0.00000    0.54990    1.000
    H6       H        0.29020    0.00010    0.58460    1.000
    C23      C        0.38140    0.12530    0.49290    1.000
    C24      C        0.51000    0.12500    0.44360    1.000
    C25      C        0.13320    0.53740    0.14280    1.000
    C26      C        0.63880    0.80510    0.04210    1.000
    C27      C        0.58960    0.96190    0.20030    1.000
    C28      C        0.09720    0.71320    0.27580    1.000
    C29      C        0.52870    0.25510    0.37880    1.000
    C30      C        0.25370    0.25370    0.49010    1.000
    O13      O        0.14640    0.46560    0.08720    1.000
    O14      O        0.23260    0.50740    0.19920    1.000
    O15      O        0.17530    0.77150    0.23090    1.000
    O16      O        0.10860    0.63870    0.37400    1.000
    O17      O        0.58030    0.08290    0.17800    1.000
    O18      O        0.49600    0.92810    0.24310    1.000
    O19      O        0.51820    0.82540    0.08110    1.000
    O20      O        0.67600    0.79890    0.94800    1.000
    O21      O        0.49410    0.30560    0.28310    1.000
    O22      O        0.58440    0.29870    0.42130    1.000
    O23      O        0.26390    0.36720    0.46440    1.000
    O24      O        0.13740    0.25010    0.52140    1.000
    U3       U        0.00000    0.50000    0.50000    1.000
