data_functionalizedCrystal
_audit_creation_method	'EQeq! by Chris Wilmer'
_symmetry_space_group_name_H-M	'P1'
_symmetry_Int_Tables_number	1
_symmetry_cell_setting	triclinic
loop_
_symmetry_equiv_pos_as_xyz
  x,y,z
_cell_length_a	13.515
_cell_length_b	16.1819
_cell_length_c	16.1819
_cell_angle_alpha	79.957
_cell_angle_beta	65.317
_cell_angle_gamma	65.3171
loop_
_atom_site_label
_atom_site_type_symbol
_atom_site_fract_x
_atom_site_fract_y
_atom_site_fract_z
_atom_site_charge
Mof_Cd	Cd	0.58834	0.79197	0.79444	0.412
Mof_H 	H 	0.4542	0.0037	0.7393	0.038
Mof_H 	H 	0.7469	0.5888	0.7656	0.059
Mof_H 	H 	0.4653	0.1642	0.6002	0.064
Mof_H 	H 	0.5766	0.7034	0.0042	0.032
Mof_H 	H 	0.3646	0.1492	0.6874	0.063
Mof_H 	H 	0.8051	0.413	0.7672	0.068
Mof_H 	H 	0.6223	0.8732	0.4596	0.067
Mof_H 	H 	0.9634	0.2848	0.5872	0.038
Mof_H 	H 	0.6413	0.5676	0.0732	0.061
Mof_H 	H 	0.2231	0.0944	0.7198	0.095
Mof_H 	H 	0.3329	0.3851	0.6361	0.01
Mof_H 	H 	0.3497	0.2014	0.5248	0.127
Mof_H 	H 	0.1545	0.4376	0.6212	0.085
Mof_H 	H 	0.1929	0.2873	0.8841	0.021
Mof_H 	H 	0.1543	0.2725	0.5237	0.091
Mof_H 	H 	0.0315	0.1057	0.7797	0.026
Mof_H 	H 	0.5132	0.0289	0.4747	0.052
Mof_H 	H 	0.0099	0.3467	0.8737	0.092
Mof_H 	H 	0.9567	0.4522	0.682	0.126
Mof_H 	H 	0.8686	0.3628	0.8342	0.066
Mof_H 	H 	0.6475	0.7883	0.5837	0.035
Mof_H 	H 	0.7672	0.4352	0.9848	0.056
Mof_C 	C 	0.5231	0.99393	0.52487	-0.04
Mof_C 	C 	0.3986	0.2941	0.7717	0.292
Mof_C 	C 	0.40763	0.13635	0.62279	-0.078
Mof_C 	C 	0.62585	0.65144	0.96846	0.037
Mof_C 	C 	0.85133	0.20149	0.72785	0.281
Mof_C 	C 	0.47238	0.03449	0.60975	0.022
Mof_C 	C 	0.28179	0.33091	0.76211	-0.125
Mof_C 	C 	0.17167	0.13267	0.69239	-0.164
Mof_C 	C 	0.84898	0.41812	0.79932	-0.086
Mof_C 	C 	0.07462	0.35278	0.82498	-0.172
Mof_C 	C 	0.6645	0.57029	0.01031	-0.063
Mof_C 	C 	0.12995	0.2393	0.5758	-0.159
Mof_C 	C 	0.18462	0.31868	0.83188	0.063
Mof_C 	C 	0.7397	0.49093	0.95747	-0.055
Mof_C 	C 	0.77175	0.49773	0.86377	0.032
Mof_C 	C 	0.21211	0.18253	0.61565	0.156
Mof_C 	C 	0.01571	0.24556	0.61342	0.032
Mof_C 	C 	0.60205	0.85035	0.59075	0.042
Mof_C 	C 	0.97465	0.19566	0.68924	-0.092
Mof_C 	C 	0.58823	0.90107	0.51587	-0.073
Mof_C 	C 	0.26884	0.37623	0.68309	0.065
Mof_C 	C 	0.72658	0.58367	0.82817	-0.008
Mof_C 	C 	0.06139	0.3961	0.74512	0.154
Mof_C 	C 	0.16144	0.40794	0.67438	-0.177
Mof_C 	C 	0.05618	0.13942	0.72822	0.045
Mof_C 	C 	0.48879	0.97782	0.682	-0.003
Mof_N 	N 	0.55242	0.88711	0.67365	-0.126
Mof_N 	N 	0.32589	0.17814	0.57788	-0.201
Mof_N 	N 	0.95783	0.42628	0.73286	-0.196
Mof_N 	N 	0.65569	0.65953	0.87849	-0.125
Mof_O 	O 	0.47951	0.32222	0.72016	-0.264
Mof_O 	O 	0.41601	0.23282	0.83096	-0.274
Mof_O 	O 	0.77812	0.25475	0.69349	-0.262
Mof_O 	O 	0.81899	0.15065	0.79577	-0.258
Mof_Cd	Cd	0.61969	0.20556	0.79197	0.411
Mof_H 	H 	0.8628	0.2203	0.1057	0.017
Mof_H 	H 	0.7911	0.9268	0.5676	0.057
Mof_H 	H 	0.4489	0.4752	0.2014	0.128
Mof_H 	H 	0.6643	0.2344	0.5888	0.058
Mof_H 	H 	0.72	0.9958	0.7034	0.038
Mof_H 	H 	0.5198	0.1159	0.2873	0.019
Mof_H 	H 	0.7819	0.2328	0.413	0.069
Mof_H 	H 	0.5911	0.318	0.4522	0.124
Mof_H 	H 	0.3705	0.3998	0.1642	0.064
Mof_H 	H 	0.4862	0.3126	0.1492	0.063
Mof_H 	H 	0.5421	0.2607	0.0037	0.037
Mof_H 	H 	0.7976	0.0152	0.4352	0.058
Mof_H 	H 	0.7686	0.1658	0.3628	0.065
Mof_H 	H 	0.4079	0.3788	0.4376	0.089
Mof_H 	H 	0.6825	0.2802	0.0944	0.105
Mof_H 	H 	0.5045	0.5404	0.8732	0.067
Mof_H 	H 	0.6434	0.1263	0.3467	0.097
Mof_H 	H 	0.5642	0.4163	0.7883	0.034
Mof_H 	H 	0.4579	0.5253	0.0289	0.051
Mof_H 	H 	0.7518	0.4128	0.2848	0.012
Mof_H 	H 	0.5732	0.4763	0.2725	0.105
Mof_H 	H 	0.282	0.3639	0.3851	0.008
Mof_C 	C 	0.76937	0.04253	0.49093	-0.065
Mof_C 	C 	0.45602	0.37721	0.13635	-0.076
Mof_C 	C 	0.48297	0.47513	0.99393	-0.039
Mof_C 	C 	0.82969	0.31076	0.19566	-0.139
Mof_C 	C 	0.5476	0.40925	0.85035	0.043
Mof_C 	C 	0.3073	0.2283	0.2941	0.294
Mof_C 	C 	0.5107	0.48413	0.90107	-0.073
Mof_C 	C 	0.4967	0.16812	0.31868	0.068
Mof_C 	C 	0.5726	0.17502	0.35278	-0.178
Mof_C 	C 	0.35493	0.31691	0.37623	0.07
Mof_C 	C 	0.73052	0.13623	0.49773	0.037
Mof_C 	C 	0.73873	0.38658	0.24556	0.092
Mof_C 	C 	0.69566	0.30761	0.13267	-0.193
Mof_C 	C 	0.54251	0.25488	0.3961	0.166
Mof_C 	C 	0.68975	0.17183	0.58367	-0.011
Mof_C 	C 	0.49313	0.39025	0.03449	0.021
Mof_C 	C 	0.63075	0.4242	0.2393	-0.196
Mof_C 	C 	0.94718	0.27215	0.20149	0.305
Mof_C 	C 	0.3873	0.23789	0.33091	-0.128
Mof_C 	C 	0.60536	0.38435	0.18253	0.178
Mof_C 	C 	0.7329	0.20068	0.41812	-0.089
Mof_C 	C 	0.76521	0.98969	0.57029	-0.047
Mof_C 	C 	0.72271	0.03154	0.65144	0.024
Mof_C 	C 	0.8044	0.27178	0.13942	0.085
Mof_C 	C 	0.43062	0.32562	0.40794	-0.183
Mof_C 	C 	0.53339	0.318	0.97782	-0.002
Mof_N 	N 	0.56047	0.32635	0.88711	-0.126
Mof_N 	N 	0.49597	0.42212	0.17814	-0.205
Mof_N 	N 	0.68478	0.12151	0.65953	-0.122
Mof_N 	N 	0.61589	0.26714	0.42628	-0.201
Mof_O 	O 	0.96713	0.30651	0.25475	-0.264
Mof_O 	O 	0.35117	0.16904	0.23282	-0.275
Mof_O 	O 	0.03036	0.20423	0.15065	-0.271
Mof_O 	O 	0.19827	0.27984	0.32222	-0.266
Mof_Cd	Cd	0.17475	0.20803	0.20555	0.409
Mof_H 	H 	0.3541	0.6149	0.3639	0.009
Mof_H 	H 	0.9853	0.587	0.2328	0.079
Mof_H 	H 	0.0909	0.5478	0.318	0.121
Mof_H 	H 	0.0195	0.2117	0.4163	0.028
Mof_H 	H 	0.2133	0.5624	0.3788	0.087
Mof_H 	H 	0.9169	0.8943	0.2203	0.032
Mof_H 	H 	0.2297	0.8358	0.3998	0.064
Mof_H 	H 	0.2012	0.8508	0.3126	0.064
Mof_H 	H 	0.1872	0.5648	0.0152	0.057
Mof_H 	H 	0.2821	0.4324	0.9268	0.057
Mof_H 	H 	0.0373	0.9056	0.2802	0.077
Mof_H 	H 	0.1972	0.9963	0.2607	0.037
Mof_H 	H 	0.0168	0.9711	0.5253	0.045
Mof_H 	H 	0.0759	0.7986	0.4752	0.124
Mof_H 	H 	0.2842	0.2966	0.9958	0.036
Mof_H 	H 	0.8354	0.7152	0.4128	0.024
Mof_H 	H 	0.3643	0.7127	0.1159	0.019
Mof_H 	H 	0.9505	0.7275	0.4763	0.093
Mof_H 	H 	0.1013	0.4112	0.2344	0.058
Mof_H 	H 	0.0656	0.6372	0.1658	0.067
Mof_H 	H 	0.9551	0.1268	0.5404	0.081
Mof_H 	H 	0.2303	0.6533	0.1263	0.096
Mof_C 	C 	0.92382	0.86058	0.27178	0.044
Mof_C 	C 	0.01029	0.81747	0.38435	0.131
Mof_C 	C 	0.1881	0.50907	0.04253	-0.067
Mof_C 	C 	0.16677	0.86365	0.37721	-0.077
Mof_C 	C 	0.2451	0.42971	0.98969	-0.05
Mof_C 	C 	0.24376	0.59206	0.32562	-0.182
Mof_C 	C 	0.94505	0.7607	0.4242	-0.153
Mof_C 	C 	0.85955	0.80434	0.31076	-0.11
Mof_C 	C 	0.99673	0.86733	0.30761	-0.129
Mof_C 	C 	0.4644	0.7059	0.2283	0.293
Mof_C 	C 	0.24575	0.34856	0.03154	0.026
Mof_C 	C 	0.25238	0.64722	0.17502	-0.177
Mof_C 	C 	0.37481	0.66909	0.23789	-0.127
Mof_C 	C 	0.33518	0.68132	0.16812	0.066
Mof_C 	C 	0.06642	0.58188	0.20068	-0.107
Mof_C 	C 	0.0419	0.00607	0.47513	-0.028
Mof_C 	C 	0.32816	0.62377	0.31691	0.069
Mof_C 	C 	0.00517	0.09893	0.48413	-0.099
Mof_C 	C 	0.20261	0.6039	0.25488	0.163
Mof_C 	C 	0.87469	0.75444	0.38658	0.06
Mof_C 	C 	0.13325	0.50227	0.13623	0.039
Mof_C 	C 	0.78067	0.79851	0.27215	0.287
Mof_C 	C 	0.04315	0.14965	0.40925	0.054
Mof_C 	C 	0.14861	0.02218	0.318	-0.002
Mof_C 	C 	0.11662	0.96551	0.39025	0.017
Mof_C 	C 	0.13842	0.41633	0.17183	-0.015
Mof_N 	N 	0.11697	0.57372	0.26714	-0.198
Mof_N 	N 	0.11318	0.11289	0.32635	-0.129
Mof_N 	N 	0.08191	0.82186	0.42212	-0.196
Mof_N 	N 	0.19371	0.34047	0.12151	-0.122
Mof_O 	O 	0.47979	0.76718	0.16904	-0.275
Mof_O 	O 	0.72636	0.74525	0.30651	-0.263
Mof_O 	O 	0.76541	0.84935	0.20423	-0.26
Mof_O 	O 	0.52189	0.67778	0.27984	-0.265
Mof_Cd	Cd	0.61723	0.79444	0.20802	0.411
Mof_H 	H 	0.0571	0.7198	0.9056	0.101
Mof_H 	H 	0.3613	0.682	0.5478	0.125
Mof_H 	H 	0.4277	0.7672	0.587	0.067
Mof_H 	H 	0.4494	0.5872	0.7152	0.013
Mof_H 	H 	0.4875	0.7656	0.4112	0.057
Mof_H 	H 	0.322	0.5237	0.7275	0.104
Mof_H 	H 	0.0121	0.4747	0.9711	0.041
Mof_H 	H 	0.1255	0.5248	0.7986	0.128
Mof_H 	H 	0.9345	0.6002	0.8358	0.063
Mof_H 	H 	0.1888	0.7797	0.8943	0.015
Mof_H 	H 	0.1164	0.8737	0.6533	0.101
Mof_H 	H 	0.9181	0.4596	0.1268	0.072
Mof_H 	H 	0.8065	0.7393	0.9963	0.04
Mof_H 	H 	0.4192	0.0042	0.2966	0.033
Mof_H 	H 	0.248	0.9848	0.5648	0.055
Mof_H 	H 	0.031	0.6361	0.6149	0.01
Mof_H 	H 	0.2972	0.8342	0.6372	0.063
Mof_H 	H 	0.2855	0.0732	0.4324	0.06
Mof_H 	H 	0.948	0.6874	0.8508	0.062
Mof_H 	H 	0.923	0.8841	0.7127	0.017
Mof_H 	H 	0.7688	0.5837	0.2117	0.033
Mof_H 	H 	0.2243	0.6212	0.5624	0.087
Mof_C 	C 	0.3517	0.79932	0.58188	-0.085
Mof_C 	C 	0.8297	0.7717	0.7059	0.292
Mof_C 	C 	0.42082	0.72785	0.79851	0.296
Mof_C 	C 	0.9561	0.76211	0.66909	-0.12
Mof_C 	C 	0.17224	0.61565	0.81747	0.176
Mof_C 	C 	0.30283	0.95747	0.50907	-0.057
Mof_C 	C 	0.16418	0.67438	0.59206	-0.181
Mof_C 	C 	0.36448	0.86377	0.50227	0.031
Mof_C 	C 	0.2156	0.72822	0.86058	0.083
Mof_C 	C 	0.33611	0.68924	0.80434	-0.137
Mof_C 	C 	0.96958	0.62279	0.86365	-0.064
Mof_C 	C 	0.9835	0.83188	0.68132	0.082
Mof_C 	C 	0.37087	0.61342	0.75444	0.09
Mof_C 	C 	0.95203	0.52487	0.00607	-0.022
Mof_C 	C 	0.19349	0.74512	0.6039	0.168
Mof_C 	C 	0.32519	0.01031	0.42971	-0.059
Mof_C 	C 	0.04807	0.68309	0.62377	0.058
Mof_C 	C 	0.8072	0.59075	0.14965	0.047
Mof_C 	C 	0.91787	0.60975	0.96551	0.019
Mof_C 	C 	0.1004	0.82498	0.64722	-0.193
Mof_C 	C 	0.82921	0.682	0.02218	-0.005
Mof_C 	C 	0.8959	0.51587	0.09893	-0.082
Mof_C 	C 	0.40569	0.96846	0.34856	0.034
Mof_C 	C 	0.13594	0.69239	0.86733	-0.192
Mof_C 	C 	0.44525	0.82817	0.41633	-0.008
Mof_C 	C 	0.29425	0.5758	0.7607	-0.195
Mof_N 	N 	0.09623	0.57788	0.82186	-0.21
Mof_N 	N 	0.77393	0.67365	0.11289	-0.127
Mof_N 	N 	0.30931	0.73286	0.57372	-0.202
Mof_N 	N 	0.46582	0.87849	0.34047	-0.124
Mof_O 	O 	0.75303	0.83096	0.76718	-0.274
Mof_O 	O 	0.38524	0.79577	0.84935	-0.264
Mof_O 	O 	0.80033	0.72016	0.67778	-0.263
Mof_O 	O 	0.52839	0.69349	0.74525	-0.266
_end
