# CIF file generated by openbabel 3.1.0, see https://openbabel.org
data_I
_chemical_name_common 'image0'
_cell_length_a 11.003
_cell_length_b 12.486
_cell_length_c 15.925
_cell_angle_alpha 100.091
_cell_angle_beta 106.028
_cell_angle_gamma 95.762
_space_group_name_H-M_alt 'P 1'
_space_group_name_Hall 'P 1'
loop_
    _symmetry_equiv_pos_as_xyz
    x,y,z
loop_
    _atom_site_label
    _atom_site_type_symbol
    _atom_site_fract_x
    _atom_site_fract_y
    _atom_site_fract_z
    _atom_site_occupancy
    Gd1      Gd       0.05985    0.24120    0.62837    1.000
    Gd2      Gd       0.49636    0.74142    0.11713    1.000
    O1       O        0.86150    0.88620    0.88840    1.000
    O2       O        0.89370    0.08350    0.62840    1.000
    O3       O        0.09560    0.06130    0.67170    1.000
    O4       O        0.96220    0.87770    0.51540    1.000
    O5       O        0.91960    0.70030    0.50820    1.000
    O6       O        0.29800    0.77660    0.15420    1.000
    O7       O        0.27650    0.72310    0.01230    1.000
    O8       O        0.71190    0.79100    0.13490    1.000
    O9       O        0.87030    0.72130    0.21740    1.000
    O10      O        0.41120    0.37880    0.39940    1.000
    O11      O        0.59490    0.57640    0.17030    1.000
    O12      O        0.38580    0.56420    0.12330    1.000
    O13      O        0.48810    0.37540    0.01950    1.000
    O14      O        0.49510    0.20290    0.02460    1.000
    O15      O        0.87800    0.32120    0.67000    1.000
    O16      O        0.84900    0.25670    0.52900    1.000
    O17      O        0.44700    0.21420    0.72980    1.000
    O18      O        0.27070    0.22320    0.62700    1.000
    C1       C        0.89210    0.86200    0.81030    1.000
    C2       C        0.92280    0.94490    0.77590    1.000
    H1       H        0.93140    0.01670    0.80760    1.000
    C3       C        0.94330    0.92570    0.69020    1.000
    C4       C        0.92840    0.82050    0.64320    1.000
    C5       C        0.89520    0.73370    0.68020    1.000
    H2       H        0.88460    0.66170    0.64840    1.000
    C6       C        0.87760    0.75270    0.76380    1.000
    H3       H        0.85670    0.69430    0.78890    1.000
    C7       C        0.97820    0.02940    0.65930    1.000
    C8       C        0.93920    0.79840    0.55120    1.000
    C9       C        0.91850    0.84030    0.95940    1.000
    C10      C        0.04140    0.81590    0.97510    1.000
    H4       H        0.08810    0.82510    0.93560    1.000
    C11      C        0.09330    0.77700    0.05210    1.000
    C12      C        0.02550    0.76430    0.11210    1.000
    H5       H        0.06310    0.74120    0.16440    1.000
    C13      C        0.90050    0.78640    0.09300    1.000
    C14      C        0.84710    0.82530    0.01650    1.000
    H6       H        0.76390    0.84110    0.00400    1.000
    C15      C        0.22990    0.75810    0.07400    1.000
    C16      C        0.82140    0.76550    0.15300    1.000
    C17      C        0.44120    0.35770    0.32100    1.000
    C18      C        0.45280    0.44400    0.28040    1.000
    H7       H        0.45110    0.51520    0.30900    1.000
    C19      C        0.46760    0.42320    0.19450    1.000
    C20      C        0.47540    0.32140    0.15340    1.000
    C21      C        0.46110    0.23310    0.19420    1.000
    H8       H        0.46200    0.16220    0.16450    1.000
    C22      C        0.44550    0.24990    0.27870    1.000
    H9       H        0.43820    0.19140    0.30680    1.000
    C23      C        0.48560    0.52630    0.15960    1.000
    C24      C        0.48890    0.29880    0.06150    1.000
    C25      C        0.47680    0.33770    0.47070    1.000
    C26      C        0.60660    0.33560    0.49250    1.000
    H10      H        0.65380    0.35720    0.45630    1.000
    C27      C        0.66500    0.30080    0.56920    1.000
    C28      C        0.59620    0.27230    0.62440    1.000
    H11      H        0.63730    0.25220    0.67740    1.000
    C29      C        0.46620    0.27360    0.60080    1.000
    C30      C        0.40660    0.30730    0.52460    1.000
    H12      H        0.31910    0.30970    0.50920    1.000
    C31      C        0.80500    0.29480    0.59110    1.000
    C32      C        0.38600    0.23410    0.65590    1.000
    K1       K        0.78170    0.02420    0.44486    1.000
    K2       K        0.26880    0.49040    0.94218    1.000
    Gd3      Gd       0.94015    0.75880    0.37163    1.000
    Gd4      Gd       0.50364    0.25858    0.88287    1.000
    O19      O        0.13850    0.11380    0.11160    1.000
    O20      O        0.10630    0.91650    0.37160    1.000
    O21      O        0.90440    0.93870    0.32830    1.000
    O22      O        0.03780    0.12230    0.48460    1.000
    O23      O        0.08040    0.29970    0.49180    1.000
    O24      O        0.70200    0.22340    0.84580    1.000
    O25      O        0.72350    0.27690    0.98770    1.000
    O26      O        0.28810    0.20900    0.86510    1.000
    O27      O        0.12970    0.27870    0.78260    1.000
    O28      O        0.58880    0.62120    0.60060    1.000
    O29      O        0.40510    0.42360    0.82970    1.000
    O30      O        0.61420    0.43580    0.87670    1.000
    O31      O        0.51190    0.62460    0.98050    1.000
    O32      O        0.50490    0.79710    0.97540    1.000
    O33      O        0.12200    0.67880    0.33000    1.000
    O34      O        0.15100    0.74330    0.47100    1.000
    O35      O        0.55300    0.78580    0.27020    1.000
    O36      O        0.72930    0.77680    0.37300    1.000
    C33      C        0.10790    0.13800    0.18970    1.000
    C34      C        0.07720    0.05510    0.22410    1.000
    H13      H        0.06860    0.98330    0.19240    1.000
    C35      C        0.05670    0.07430    0.30980    1.000
    C36      C        0.07160    0.17950    0.35680    1.000
    C37      C        0.10480    0.26630    0.31980    1.000
    H14      H        0.11540    0.33830    0.35160    1.000
    C38      C        0.12240    0.24730    0.23620    1.000
    H15      H        0.14330    0.30570    0.21110    1.000
    C39      C        0.02180    0.97060    0.34070    1.000
    C40      C        0.06080    0.20160    0.44880    1.000
    C41      C        0.08150    0.15970    0.04060    1.000
    C42      C        0.95860    0.18410    0.02490    1.000
    H16      H        0.91190    0.17490    0.06440    1.000
    C43      C        0.90670    0.22300    0.94790    1.000
    C44      C        0.97450    0.23570    0.88790    1.000
    H17      H        0.93690    0.25880    0.83560    1.000
    C45      C        0.09950    0.21360    0.90700    1.000
    C46      C        0.15290    0.17470    0.98350    1.000
    H18      H        0.23610    0.15890    0.99600    1.000
    C47      C        0.77010    0.24190    0.92600    1.000
    C48      C        0.17860    0.23450    0.84700    1.000
    C49      C        0.55880    0.64230    0.67900    1.000
    C50      C        0.54720    0.55600    0.71960    1.000
    H19      H        0.54890    0.48480    0.69100    1.000
    C51      C        0.53240    0.57680    0.80550    1.000
    C52      C        0.52460    0.67860    0.84660    1.000
    C53      C        0.53890    0.76690    0.80580    1.000
    H20      H        0.53800    0.83780    0.83550    1.000
    C54      C        0.55450    0.75010    0.72130    1.000
    H21      H        0.56180    0.80860    0.69320    1.000
    C55      C        0.51440    0.47370    0.84040    1.000
    C56      C        0.51110    0.70120    0.93850    1.000
    C57      C        0.52320    0.66230    0.52930    1.000
    C58      C        0.39340    0.66440    0.50750    1.000
    H22      H        0.34620    0.64280    0.54370    1.000
    C59      C        0.33500    0.69920    0.43080    1.000
    C60      C        0.40380    0.72770    0.37560    1.000
    H23      H        0.36270    0.74780    0.32260    1.000
    C61      C        0.53380    0.72640    0.39920    1.000
    C62      C        0.59340    0.69270    0.47540    1.000
    H24      H        0.68090    0.69030    0.49080    1.000
    C63      C        0.19500    0.70520    0.40890    1.000
    C64      C        0.61400    0.76590    0.34410    1.000
    K3       K        0.21830    0.97580    0.55514    1.000
    K4       K        0.73120    0.50960    0.05782    1.000
