# CIF file generated by openbabel 3.1.0, see https://openbabel.org
data_I
_chemical_name_common 'image0'
_cell_length_a 8.7142
_cell_length_b 10.8075
_cell_length_c 18.074
_cell_angle_alpha 90
_cell_angle_beta 90
_cell_angle_gamma 90
_space_group_name_H-M_alt 'P 1'
_space_group_name_Hall 'P 1'
loop_
    _symmetry_equiv_pos_as_xyz
    x,y,z
loop_
    _atom_site_label
    _atom_site_type_symbol
    _atom_site_fract_x
    _atom_site_fract_y
    _atom_site_fract_z
    _atom_site_occupancy
    Co1      Co       0.84020    0.67345    0.87976    1.000
    Co2      Co       0.83880    0.95076    0.95588    1.000
    Cl1      Cl       0.71080    0.86460    0.84610    1.000
    P1       P        0.84170    0.28190    0.53307    1.000
    N1       N        0.72280    0.29750    0.67820    1.000
    H1       H        0.82370    0.28640    0.68930    1.000
    C1       C        0.65400    0.37790    0.73820    1.000
    H2       H        0.56140    0.41810    0.71930    1.000
    C2       C        0.61200    0.29080    0.79930    1.000
    H3       H        0.68390    0.29820    0.83990    1.000
    H4       H        0.50980    0.31000    0.81770    1.000
    C3       C        0.61500    0.16280    0.76870    1.000
    H5       H        0.51800    0.12160    0.77790    1.000
    H6       H        0.69610    0.11520    0.79210    1.000
    C4       C        0.64370    0.17270    0.68630    1.000
    H7       H        0.54810    0.17070    0.65890    1.000
    H8       H        0.70930    0.10610    0.66920    1.000
    C5       C        0.76540    0.47540    0.76490    1.000
    C6       C        0.71500    0.34960    0.60240    1.000
    H9       H        0.73740    0.43740    0.60550    1.000
    H10      H        0.61020    0.34150    0.58490    1.000
    O1       O        0.71320    0.54700    0.81390    1.000
    O2       O        0.90130    0.47580    0.74020    1.000
    O3       O        0.00760    0.29650    0.55950    1.000
    O4       O        0.79910    0.14590    0.52600    1.000
    O5       O        0.80700    0.35900    0.46450    1.000
    Co3      Co       0.65980    0.32655    0.37976    1.000
    Co4      Co       0.66120    0.04924    0.45588    1.000
    Cl2      Cl       0.78920    0.13540    0.34610    1.000
    P2       P        0.65830    0.71810    0.03307    1.000
    N2       N        0.77720    0.70250    0.17820    1.000
    H11      H        0.67630    0.71360    0.18930    1.000
    C7       C        0.84600    0.62210    0.23820    1.000
    H12      H        0.93860    0.58190    0.21930    1.000
    C8       C        0.88800    0.70920    0.29930    1.000
    H13      H        0.81610    0.70180    0.33990    1.000
    H14      H        0.99020    0.69000    0.31770    1.000
    C9       C        0.88500    0.83720    0.26870    1.000
    H15      H        0.98200    0.87840    0.27790    1.000
    H16      H        0.80390    0.88480    0.29210    1.000
    C10      C        0.85630    0.82730    0.18630    1.000
    H17      H        0.95190    0.82930    0.15890    1.000
    H18      H        0.79070    0.89390    0.16920    1.000
    C11      C        0.73460    0.52460    0.26490    1.000
    C12      C        0.78500    0.65040    0.10240    1.000
    H19      H        0.76260    0.56260    0.10550    1.000
    H20      H        0.88980    0.65850    0.08490    1.000
    O6       O        0.78680    0.45300    0.31390    1.000
    O7       O        0.59870    0.52420    0.24020    1.000
    O8       O        0.49240    0.70350    0.05950    1.000
    O9       O        0.70090    0.85410    0.02600    1.000
    O10      O        0.69300    0.64100    0.96450    1.000
    Co5      Co       0.15980    0.17345    0.62024    1.000
    Co6      Co       0.16120    0.45076    0.54412    1.000
    Cl3      Cl       0.28920    0.36460    0.65390    1.000
    P3       P        0.15830    0.78190    0.96693    1.000
    N3       N        0.27720    0.79750    0.82180    1.000
    H21      H        0.17630    0.78640    0.81070    1.000
    C13      C        0.34600    0.87790    0.76180    1.000
    H22      H        0.43860    0.91810    0.78070    1.000
    C14      C        0.38800    0.79080    0.70070    1.000
    H23      H        0.31610    0.79820    0.66010    1.000
    H24      H        0.49020    0.81000    0.68230    1.000
    C15      C        0.38500    0.66280    0.73130    1.000
    H25      H        0.48200    0.62160    0.72210    1.000
    H26      H        0.30390    0.61520    0.70790    1.000
    C16      C        0.35630    0.67270    0.81370    1.000
    H27      H        0.45190    0.67070    0.84110    1.000
    H28      H        0.29070    0.60610    0.83080    1.000
    C17      C        0.23460    0.97540    0.73510    1.000
    C18      C        0.28500    0.84960    0.89760    1.000
    H29      H        0.26260    0.93740    0.89450    1.000
    H30      H        0.38980    0.84150    0.91510    1.000
    O11      O        0.28680    0.04700    0.68610    1.000
    O12      O        0.09870    0.97580    0.75980    1.000
    O13      O        0.99240    0.79650    0.94050    1.000
    O14      O        0.20090    0.64590    0.97400    1.000
    O15      O        0.19300    0.85900    0.03550    1.000
    Co7      Co       0.34020    0.82655    0.12024    1.000
    Co8      Co       0.33880    0.54924    0.04412    1.000
    Cl4      Cl       0.21080    0.63540    0.15390    1.000
    P4       P        0.34170    0.21810    0.46693    1.000
    N4       N        0.22280    0.20250    0.32180    1.000
    H31      H        0.32370    0.21360    0.31070    1.000
    C19      C        0.15400    0.12210    0.26180    1.000
    H32      H        0.06140    0.08190    0.28070    1.000
    C20      C        0.11200    0.20920    0.20070    1.000
    H33      H        0.18390    0.20180    0.16010    1.000
    H34      H        0.00980    0.19000    0.18230    1.000
    C21      C        0.11500    0.33720    0.23130    1.000
    H35      H        0.01800    0.37840    0.22210    1.000
    H36      H        0.19610    0.38480    0.20790    1.000
    C22      C        0.14370    0.32730    0.31370    1.000
    H37      H        0.04810    0.32930    0.34110    1.000
    H38      H        0.20930    0.39390    0.33080    1.000
    C23      C        0.26540    0.02460    0.23510    1.000
    C24      C        0.21500    0.15040    0.39760    1.000
    H39      H        0.23740    0.06260    0.39450    1.000
    H40      H        0.11020    0.15850    0.41510    1.000
    O16      O        0.21320    0.95300    0.18610    1.000
    O17      O        0.40130    0.02420    0.25980    1.000
    O18      O        0.50760    0.20350    0.44050    1.000
    O19      O        0.29910    0.35410    0.47400    1.000
    O20      O        0.30700    0.14100    0.53550    1.000
