# CIF file generated by openbabel 3.1.0, see https://openbabel.org
data_I
_chemical_name_common 'TEQPEM_clean'
_cell_length_a 20.627
_cell_length_b 20.627
_cell_length_c 20.627
_cell_angle_alpha 60
_cell_angle_beta 60
_cell_angle_gamma 60
_space_group_name_H-M_alt 'P 1'
_space_group_name_Hall 'P 1'
loop_
    _symmetry_equiv_pos_as_xyz
    x,y,z
loop_
    _atom_site_label
    _atom_site_type_symbol
    _atom_site_fract_x
    _atom_site_fract_y
    _atom_site_fract_z
    _atom_site_occupancy
    Zn1      Zn       0.13471    0.28843    0.28843    1.000
    Zn2      Zn       0.28843    0.13471    0.28843    1.000
    Zn3      Zn       0.28843    0.28843    0.13471    1.000
    Zn4      Zn       0.28843    0.28843    0.28843    1.000
    Zn5      Zn       0.71157    0.86529    0.71157    1.000
    Zn6      Zn       0.86529    0.71157    0.71157    1.000
    Zn7      Zn       0.71157    0.71157    0.86529    1.000
    Zn8      Zn       0.71157    0.71157    0.71157    1.000
    C9       C        0.96900    0.03100    0.50000    1.000
    C10      C        0.03100    0.96900    0.50000    1.000
    C11      C        0.50000    0.50000    0.96900    1.000
    C12      C        0.50000    0.50000    0.03100    1.000
    C13      C        0.96900    0.50000    0.50000    1.000
    C14      C        0.03100    0.50000    0.50000    1.000
    C15      C        0.50000    0.96900    0.03100    1.000
    C16      C        0.50000    0.03100    0.96900    1.000
    C17      C        0.96900    0.50000    0.03100    1.000
    C18      C        0.03100    0.50000    0.96900    1.000
    C19      C        0.50000    0.03100    0.50000    1.000
    C20      C        0.50000    0.96900    0.50000    1.000
    C21      C        0.12720    0.12720    0.37280    1.000
    C22      C        0.07800    0.07800    0.42200    1.000
    C23      C        0.37280    0.37280    0.12720    1.000
    C24      C        0.42200    0.42200    0.07800    1.000
    C25      C        0.12720    0.37280    0.37280    1.000
    C26      C        0.07800    0.42200    0.42200    1.000
    C27      C        0.37280    0.12720    0.12720    1.000
    C28      C        0.42200    0.07800    0.07800    1.000
    C29      C        0.12720    0.37280    0.12720    1.000
    C30      C        0.07800    0.42200    0.07800    1.000
    C31      C        0.37280    0.12720    0.37280    1.000
    C32      C        0.42200    0.07800    0.42200    1.000
    C33      C        0.87280    0.87280    0.62720    1.000
    C34      C        0.92200    0.92200    0.57800    1.000
    C35      C        0.62720    0.62720    0.87280    1.000
    C36      C        0.57800    0.57800    0.92200    1.000
    C37      C        0.62720    0.87280    0.62720    1.000
    C38      C        0.57800    0.92200    0.57800    1.000
    C39      C        0.87280    0.62720    0.87280    1.000
    C40      C        0.92200    0.57800    0.92200    1.000
    C41      C        0.62720    0.87280    0.87280    1.000
    C42      C        0.57800    0.92200    0.92200    1.000
    C43      C        0.87280    0.62720    0.62720    1.000
    C44      C        0.92200    0.57800    0.57800    1.000
    C45      C        0.97640    0.12880    0.44740    1.000
    S46      S        0.12880    0.97640    0.44740    1.000
    S47      S        0.44740    0.44740    0.97640    1.000
    C48      C        0.44740    0.44740    0.12880    1.000
    C49      C        0.97640    0.44740    0.44740    1.000
    S50      S        0.12880    0.44740    0.44740    1.000
    S51      S        0.44740    0.97640    0.12880    1.000
    C52      C        0.44740    0.12880    0.97640    1.000
    S53      S        0.97640    0.44740    0.12880    1.000
    C54      C        0.12880    0.44740    0.97640    1.000
    S55      S        0.44740    0.12880    0.44740    1.000
    C56      C        0.44740    0.97640    0.44740    1.000
    C57      C        0.87120    0.02360    0.55260    1.000
    S58      S        0.02360    0.87120    0.55260    1.000
    C59      C        0.55260    0.55260    0.02360    1.000
    S60      S        0.55260    0.55260    0.87120    1.000
    S61      S        0.55260    0.02360    0.55260    1.000
    C62      C        0.55260    0.87120    0.55260    1.000
    C63      C        0.02360    0.55260    0.87120    1.000
    S64      S        0.87120    0.55260    0.02360    1.000
    C65      C        0.55260    0.02360    0.87120    1.000
    S66      S        0.55260    0.87120    0.02360    1.000
    C67      C        0.87120    0.55260    0.55260    1.000
    S68      S        0.02360    0.55260    0.55260    1.000
    O69      O        0.25000    0.25000    0.25000    1.000
    O70      O        0.75000    0.75000    0.75000    1.000
    O71      O        0.09450    0.20050    0.35250    1.000
    O72      O        0.20050    0.09450    0.35250    1.000
    O73      O        0.35250    0.35250    0.09450    1.000
    O74      O        0.35250    0.35250    0.20050    1.000
    O75      O        0.09450    0.35250    0.35250    1.000
    O76      O        0.20050    0.35250    0.35250    1.000
    O77      O        0.35250    0.09450    0.20050    1.000
    O78      O        0.35250    0.20050    0.09450    1.000
    O79      O        0.09450    0.35250    0.20050    1.000
    O80      O        0.20050    0.35250    0.09450    1.000
    O81      O        0.35250    0.20050    0.35250    1.000
    O82      O        0.35250    0.09450    0.35250    1.000
    O83      O        0.79950    0.90550    0.64750    1.000
    O84      O        0.90550    0.79950    0.64750    1.000
    O85      O        0.64750    0.64750    0.90550    1.000
    O86      O        0.64750    0.64750    0.79950    1.000
    O87      O        0.64750    0.90550    0.64750    1.000
    O88      O        0.64750    0.79950    0.64750    1.000
    O89      O        0.90550    0.64750    0.79950    1.000
    O90      O        0.79950    0.64750    0.90550    1.000
    O91      O        0.64750    0.90550    0.79950    1.000
    O92      O        0.64750    0.79950    0.90550    1.000
    O93      O        0.79950    0.64750    0.64750    1.000
    O94      O        0.90550    0.64750    0.64750    1.000
    C95      C        0.44828    0.44828    0.18318    1.000
    C96      C        0.55172    0.55172    0.07973    1.000
    H97      H        0.48116    0.48941    0.16342    1.000
    H98      H        0.47978    0.38569    0.21764    1.000
    H99      H        0.38476    0.47060    0.22285    1.000
    H100     H        0.52027    0.50933    0.13391    1.000
    H101     H        0.51879    0.61401    0.08395    1.000
    H102     H        0.61524    0.53096    0.07746    1.000
    C103     C        0.95328    0.42512    0.42512    1.000
    C104     C        0.81682    0.55172    0.55172    1.000
    H105     H        0.97070    0.35770    0.45232    1.000
    H106     H        0.98017    0.44279    0.35767    1.000
    H107     H        0.88584    0.45258    0.44309    1.000
    H108     H        0.81035    0.49054    0.58974    1.000
    H109     H        0.82420    0.56535    0.48808    1.000
    H110     H        0.76154    0.59841    0.57648    1.000
    C111     C        0.42512    0.19649    0.95328    1.000
    C112     C        0.57488    0.04672    0.80351    1.000
    H113     H        0.40567    0.21863    0.90076    1.000
    H114     H        0.47484    0.21893    0.93345    1.000
    H115     H        0.52267    0.09167    0.78130    1.000
    H116     H        0.61960    0.07653    0.78116    1.000
    C117     C        0.42512    0.95328    0.42512    1.000
    C118     C        0.55172    0.81682    0.55172    1.000
    H119     H        0.44327    0.88582    0.45242    1.000
    H120     H        0.45215    0.97089    0.35768    1.000
    H121     H        0.35765    0.98000    0.44298    1.000
    H122     H        0.58352    0.76084    0.59273    1.000
    H123     H        0.58316    0.81471    0.48866    1.000
    H124     H        0.48762    0.82053    0.57291    1.000
    C125     C        0.18318    0.44828    0.92027    1.000
    C126     C        0.04672    0.57488    0.80351    1.000
    H127     H        0.16407    0.47422    0.86662    1.000
    H128     H        0.22651    0.38514    0.92522    1.000
    H129     H        0.21333    0.48634    0.91285    1.000
    H130     H        0.07679    0.52267    0.78116    1.000
    H131     H        0.09145    0.60463    0.78130    1.000
    C132     C        0.92027    0.18318    0.44828    1.000
    C133     C        0.81682    0.07973    0.55172    1.000
    H134     H        0.86812    0.16567    0.50121    1.000
    H135     H        0.90755    0.20768    0.39102    1.000
    H136     H        0.92902    0.23056    0.45347    1.000
    H137     H        0.76327    0.06519    0.60463    1.000
    H138     H        0.80450    0.10388    0.49432    1.000
    H139     H        0.82832    0.12625    0.55535    1.000
    H140     H        0.37256    0.21958    0.00250    1.000
    H141     H        0.99505    0.61963    0.78040    1.000
    H142     H        0.60466    0.99509    0.78040    1.000
