data_functionalizedCrystal
_audit_creation_method	'EQeq! by Chris Wilmer'
_symmetry_space_group_name_H-M	'P1'
_symmetry_Int_Tables_number	1
_symmetry_cell_setting	triclinic
loop_
_symmetry_equiv_pos_as_xyz
  x,y,z
_cell_length_a	23.166
_cell_length_b	23.166
_cell_length_c	34.931
_cell_angle_alpha	90
_cell_angle_beta	90
_cell_angle_gamma	90
loop_
_atom_site_label
_atom_site_type_symbol
_atom_site_fract_x
_atom_site_fract_y
_atom_site_fract_z
_atom_site_charge
Mof_N 	N 	0.23046	0.08597	0.63974	-0.204
Mof_C 	C 	0.2134	0.1192	0.66856	0.101
Mof_H 	H 	0.2411	0.1411	0.6813	-0.024
Mof_C 	C 	0.1567	0.1232	0.68069	-0.18
Mof_H 	H 	0.1468	0.148	0.7006	0.09
Mof_C 	C 	0.11487	0.09006	0.66313	0.111
Mof_C 	C 	0.13302	0.0556	0.63295	-0.183
Mof_H 	H 	0.1066	0.0326	0.6199	0.091
Mof_C 	C 	0.1903	0.0556	0.62231	0.108
Mof_H 	H 	0.2012	0.0328	0.6016	-0.02
Mof_C 	C 	0.05376	0.09157	0.67541	-0.04
Mof_C 	C 	0.03083	0.09648	0.71143	-0.032
Mof_C 	C 	0.0644	0.09457	0.74782	0.119
Mof_C 	C 	0.085	0.0445	0.76174	-0.189
Mof_H 	H 	0.0788	0.0102	0.7486	0.094
Mof_C 	C 	0.1159	0.0446	0.79628	0.106
Mof_H 	H 	0.1314	0.0098	0.8046	-0.023
Mof_N 	N 	0.1244	0.09043	0.81781	-0.22
Mof_C 	C 	0.1036	0.138	0.80423	0.116
Mof_H 	H 	0.1089	0.1714	0.8185	-0.034
Mof_C 	C 	0.0739	0.1428	0.76959	-0.195
Mof_H 	H 	0.0606	0.1786	0.7614	0.089
Mof_N 	N 	0.73046	0.58597	0.13974	-0.204
Mof_C 	C 	0.7134	0.6192	0.16856	0.101
Mof_H 	H 	0.7411	0.6411	0.1813	-0.024
Mof_C 	C 	0.6567	0.6232	0.18069	-0.18
Mof_H 	H 	0.6468	0.648	0.2006	0.09
Mof_C 	C 	0.61487	0.59006	0.16313	0.111
Mof_C 	C 	0.63302	0.5556	0.13295	-0.183
Mof_H 	H 	0.6066	0.5326	0.1199	0.091
Mof_C 	C 	0.6903	0.5556	0.12231	0.108
Mof_H 	H 	0.7012	0.5328	0.1016	-0.02
Mof_C 	C 	0.55376	0.59157	0.17541	-0.04
Mof_C 	C 	0.53083	0.59648	0.21143	-0.033
Mof_C 	C 	0.5644	0.59457	0.24782	0.119
Mof_C 	C 	0.585	0.5445	0.26174	-0.189
Mof_H 	H 	0.5788	0.5102	0.2486	0.094
Mof_C 	C 	0.6159	0.5446	0.29628	0.106
Mof_H 	H 	0.6314	0.5098	0.3046	-0.023
Mof_N 	N 	0.6244	0.59043	0.31781	-0.22
Mof_C 	C 	0.6036	0.638	0.30423	0.116
Mof_H 	H 	0.6089	0.6714	0.3185	-0.034
Mof_C 	C 	0.5739	0.6428	0.26959	-0.195
Mof_H 	H 	0.5606	0.6786	0.2614	0.089
Mof_N 	N 	0.26954	0.91403	0.13974	-0.204
Mof_C 	C 	0.2866	0.8808	0.16856	0.101
Mof_H 	H 	0.2589	0.8589	0.1813	-0.024
Mof_C 	C 	0.3433	0.8768	0.18069	-0.18
Mof_H 	H 	0.3532	0.852	0.2006	0.091
Mof_C 	C 	0.38513	0.90994	0.16313	0.112
Mof_C 	C 	0.36698	0.9444	0.13295	-0.182
Mof_H 	H 	0.3934	0.9674	0.1199	0.092
Mof_C 	C 	0.3097	0.9444	0.12231	0.109
Mof_H 	H 	0.2988	0.9672	0.1016	-0.019
Mof_C 	C 	0.44624	0.90843	0.17541	-0.039
Mof_C 	C 	0.46917	0.90352	0.21143	-0.032
Mof_C 	C 	0.4356	0.90543	0.24782	0.12
Mof_C 	C 	0.415	0.9555	0.26174	-0.188
Mof_H 	H 	0.4212	0.9898	0.2486	0.095
Mof_C 	C 	0.3841	0.9554	0.29628	0.107
Mof_H 	H 	0.3686	0.9902	0.3046	-0.022
Mof_N 	N 	0.3756	0.90957	0.31781	-0.219
Mof_C 	C 	0.3964	0.862	0.30423	0.117
Mof_H 	H 	0.3911	0.8286	0.3185	-0.033
Mof_C 	C 	0.4261	0.8572	0.26959	-0.194
Mof_H 	H 	0.4394	0.8214	0.2614	0.09
Mof_N 	N 	0.76954	0.41403	0.63974	-0.203
Mof_C 	C 	0.7866	0.3808	0.66856	0.102
Mof_H 	H 	0.7589	0.3589	0.6813	-0.023
Mof_C 	C 	0.8433	0.3768	0.68069	-0.179
Mof_H 	H 	0.8532	0.352	0.7006	0.091
Mof_C 	C 	0.88513	0.40994	0.66313	0.112
Mof_C 	C 	0.86698	0.4444	0.63295	-0.182
Mof_H 	H 	0.8934	0.4674	0.6199	0.092
Mof_C 	C 	0.8097	0.4444	0.62231	0.109
Mof_H 	H 	0.7988	0.4672	0.6016	-0.019
Mof_C 	C 	0.94624	0.40843	0.67541	-0.039
Mof_C 	C 	0.96917	0.40352	0.71143	-0.032
Mof_C 	C 	0.9356	0.40543	0.74782	0.12
Mof_C 	C 	0.915	0.4555	0.76174	-0.188
Mof_H 	H 	0.9212	0.4898	0.7486	0.095
Mof_C 	C 	0.8841	0.4554	0.79628	0.107
Mof_H 	H 	0.8686	0.4902	0.8046	-0.022
Mof_N 	N 	0.8756	0.40957	0.81781	-0.219
Mof_C 	C 	0.8964	0.362	0.80423	0.117
Mof_H 	H 	0.8911	0.3286	0.8185	-0.034
Mof_C 	C 	0.9261	0.3572	0.76959	-0.194
Mof_H 	H 	0.9394	0.3214	0.7614	0.09
Mof_N 	N 	0.16403	0.98046	0.88974	-0.203
Mof_C 	C 	0.1308	0.9634	0.91856	0.102
Mof_H 	H 	0.1089	0.9911	0.9313	-0.023
Mof_C 	C 	0.1268	0.9067	0.93069	-0.179
Mof_H 	H 	0.102	0.8968	0.9506	0.091
Mof_C 	C 	0.15994	0.86487	0.91313	0.112
Mof_C 	C 	0.1944	0.88302	0.88295	-0.182
Mof_H 	H 	0.2174	0.8566	0.8699	0.092
Mof_C 	C 	0.1944	0.9403	0.87231	0.109
Mof_H 	H 	0.2172	0.9512	0.8516	-0.019
Mof_C 	C 	0.15843	0.80376	0.92541	-0.039
Mof_C 	C 	0.15352	0.78083	0.96143	-0.032
Mof_C 	C 	0.15543	0.8144	0.99782	0.12
Mof_C 	C 	0.2055	0.835	0.01174	-0.188
Mof_H 	H 	0.2398	0.8288	0.9986	0.095
Mof_C 	C 	0.2054	0.8659	0.04628	0.107
Mof_H 	H 	0.2402	0.8814	0.0546	-0.022
Mof_N 	N 	0.15957	0.8744	0.06781	-0.219
Mof_C 	C 	0.112	0.8536	0.05423	0.117
Mof_H 	H 	0.0786	0.8589	0.0685	-0.033
Mof_C 	C 	0.1072	0.8239	0.01959	-0.194
Mof_H 	H 	0.0714	0.8106	0.0114	0.09
Mof_N 	N 	0.66403	0.48046	0.38974	-0.203
Mof_C 	C 	0.6308	0.4634	0.41856	0.102
Mof_H 	H 	0.6089	0.4911	0.4313	-0.023
Mof_C 	C 	0.6268	0.4067	0.43069	-0.179
Mof_H 	H 	0.602	0.3968	0.4506	0.091
Mof_C 	C 	0.65994	0.36487	0.41313	0.112
Mof_C 	C 	0.6944	0.38302	0.38295	-0.182
Mof_H 	H 	0.7174	0.3566	0.3699	0.092
Mof_C 	C 	0.6944	0.4403	0.37231	0.109
Mof_H 	H 	0.7172	0.4512	0.3516	-0.019
Mof_C 	C 	0.65843	0.30376	0.42541	-0.039
Mof_C 	C 	0.65352	0.28083	0.46143	-0.032
Mof_C 	C 	0.65543	0.3144	0.49782	0.12
Mof_C 	C 	0.7055	0.335	0.51174	-0.188
Mof_H 	H 	0.7398	0.3288	0.4986	0.095
Mof_C 	C 	0.7054	0.3659	0.54628	0.107
Mof_H 	H 	0.7402	0.3814	0.5546	-0.022
Mof_N 	N 	0.65957	0.3744	0.56781	-0.219
Mof_C 	C 	0.612	0.3536	0.55423	0.117
Mof_H 	H 	0.5786	0.3589	0.5685	-0.033
Mof_C 	C 	0.6072	0.3239	0.51959	-0.194
Mof_H 	H 	0.5714	0.3106	0.5114	0.09
Mof_N 	N 	0.33597	0.01954	0.38974	-0.203
Mof_C 	C 	0.3692	0.0366	0.41856	0.102
Mof_H 	H 	0.3911	0.0089	0.4313	-0.023
Mof_C 	C 	0.3732	0.0933	0.43069	-0.179
Mof_H 	H 	0.398	0.1032	0.4506	0.091
Mof_C 	C 	0.34006	0.13513	0.41313	0.112
Mof_C 	C 	0.3056	0.11698	0.38295	-0.182
Mof_H 	H 	0.2826	0.1434	0.3699	0.092
Mof_C 	C 	0.3056	0.0597	0.37231	0.109
Mof_H 	H 	0.2828	0.0488	0.3516	-0.019
Mof_C 	C 	0.34157	0.19624	0.42541	-0.039
Mof_C 	C 	0.34648	0.21917	0.46143	-0.032
Mof_C 	C 	0.34457	0.1856	0.49782	0.12
Mof_C 	C 	0.2945	0.165	0.51174	-0.188
Mof_H 	H 	0.2602	0.1712	0.4986	0.095
Mof_C 	C 	0.2946	0.1341	0.54628	0.107
Mof_H 	H 	0.2598	0.1186	0.5546	-0.022
Mof_N 	N 	0.34043	0.1256	0.56781	-0.219
Mof_C 	C 	0.388	0.1464	0.55423	0.117
Mof_H 	H 	0.4214	0.1411	0.5685	-0.033
Mof_C 	C 	0.3928	0.1761	0.51959	-0.194
Mof_H 	H 	0.4286	0.1894	0.5114	0.09
Mof_N 	N 	0.83597	0.51954	0.88974	-0.203
Mof_C 	C 	0.8692	0.5366	0.91856	0.102
Mof_H 	H 	0.8911	0.5089	0.9313	-0.023
Mof_C 	C 	0.8732	0.5933	0.93069	-0.179
Mof_H 	H 	0.898	0.6032	0.9506	0.091
Mof_C 	C 	0.84006	0.63513	0.91313	0.112
Mof_C 	C 	0.8056	0.61698	0.88295	-0.182
Mof_H 	H 	0.7826	0.6434	0.8699	0.092
Mof_C 	C 	0.8056	0.5597	0.87231	0.109
Mof_H 	H 	0.7828	0.5488	0.8516	-0.019
Mof_C 	C 	0.84157	0.69624	0.92541	-0.039
Mof_C 	C 	0.84648	0.71917	0.96143	-0.032
Mof_C 	C 	0.84457	0.6856	0.99782	0.12
Mof_C 	C 	0.7945	0.665	0.01174	-0.188
Mof_H 	H 	0.7602	0.6712	0.9986	0.095
Mof_C 	C 	0.7946	0.6341	0.04628	0.107
Mof_H 	H 	0.7598	0.6186	0.0546	-0.022
Mof_N 	N 	0.84043	0.6256	0.06781	-0.219
Mof_C 	C 	0.888	0.6464	0.05423	0.117
Mof_H 	H 	0.9214	0.6411	0.0685	-0.034
Mof_C 	C 	0.8928	0.6761	0.01959	-0.194
Mof_H 	H 	0.9286	0.6894	0.0114	0.09
Mof_N 	N 	0.26954	0.08597	0.86026	-0.203
Mof_C 	C 	0.2866	0.1192	0.83144	0.102
Mof_H 	H 	0.2589	0.1411	0.8187	-0.023
Mof_C 	C 	0.3433	0.1232	0.81931	-0.179
Mof_H 	H 	0.3532	0.148	0.7994	0.091
Mof_C 	C 	0.38513	0.09006	0.83687	0.112
Mof_C 	C 	0.36698	0.0556	0.86705	-0.182
Mof_H 	H 	0.3934	0.0326	0.8801	0.092
Mof_C 	C 	0.3097	0.0556	0.87769	0.109
Mof_H 	H 	0.2988	0.0328	0.8984	-0.019
Mof_C 	C 	0.44624	0.09157	0.82459	-0.039
Mof_C 	C 	0.46917	0.09648	0.78857	-0.032
Mof_C 	C 	0.4356	0.09457	0.75218	0.12
Mof_C 	C 	0.415	0.0445	0.73826	-0.188
Mof_H 	H 	0.4212	0.0102	0.7514	0.095
Mof_C 	C 	0.3841	0.0446	0.70372	0.107
Mof_H 	H 	0.3686	0.0098	0.6954	-0.022
Mof_N 	N 	0.3756	0.09043	0.68219	-0.219
Mof_C 	C 	0.3964	0.138	0.69577	0.117
Mof_H 	H 	0.3911	0.1714	0.6815	-0.033
Mof_C 	C 	0.4261	0.1428	0.73041	-0.194
Mof_H 	H 	0.4394	0.1786	0.7386	0.09
Mof_N 	N 	0.76954	0.58597	0.36026	-0.203
Mof_C 	C 	0.7866	0.6192	0.33144	0.102
Mof_H 	H 	0.7589	0.6411	0.3187	-0.023
Mof_C 	C 	0.8433	0.6232	0.31931	-0.179
Mof_H 	H 	0.8532	0.648	0.2994	0.091
Mof_C 	C 	0.88513	0.59006	0.33687	0.112
Mof_C 	C 	0.86698	0.5556	0.36705	-0.182
Mof_H 	H 	0.8934	0.5326	0.3801	0.092
Mof_C 	C 	0.8097	0.5556	0.37769	0.109
Mof_H 	H 	0.7988	0.5328	0.3984	-0.019
Mof_C 	C 	0.94624	0.59157	0.32459	-0.039
Mof_C 	C 	0.96917	0.59648	0.28857	-0.032
Mof_C 	C 	0.9356	0.59457	0.25218	0.12
Mof_C 	C 	0.915	0.5445	0.23826	-0.188
Mof_H 	H 	0.9212	0.5102	0.2514	0.095
Mof_C 	C 	0.8841	0.5446	0.20372	0.107
Mof_H 	H 	0.8686	0.5098	0.1954	-0.022
Mof_N 	N 	0.8756	0.59043	0.18219	-0.219
Mof_C 	C 	0.8964	0.638	0.19577	0.117
Mof_H 	H 	0.8911	0.6714	0.1815	-0.034
Mof_C 	C 	0.9261	0.6428	0.23041	-0.194
Mof_H 	H 	0.9394	0.6786	0.2386	0.09
Mof_N 	N 	0.23046	0.91403	0.36026	-0.203
Mof_C 	C 	0.2134	0.8808	0.33144	0.102
Mof_H 	H 	0.2411	0.8589	0.3187	-0.023
Mof_C 	C 	0.1567	0.8768	0.31931	-0.179
Mof_H 	H 	0.1468	0.852	0.2994	0.091
Mof_C 	C 	0.11487	0.90994	0.33687	0.112
Mof_C 	C 	0.13302	0.9444	0.36705	-0.182
Mof_H 	H 	0.1066	0.9674	0.3801	0.092
Mof_C 	C 	0.1903	0.9444	0.37769	0.109
Mof_H 	H 	0.2012	0.9672	0.3984	-0.019
Mof_C 	C 	0.05376	0.90843	0.32459	-0.039
Mof_C 	C 	0.03083	0.90352	0.28857	-0.031
Mof_C 	C 	0.0644	0.90543	0.25218	0.12
Mof_C 	C 	0.085	0.9555	0.23826	-0.188
Mof_H 	H 	0.0788	0.9898	0.2514	0.095
Mof_C 	C 	0.1159	0.9554	0.20372	0.107
Mof_H 	H 	0.1314	0.9902	0.1954	-0.022
Mof_N 	N 	0.1244	0.90957	0.18219	-0.219
Mof_C 	C 	0.1036	0.862	0.19577	0.117
Mof_H 	H 	0.1089	0.8286	0.1815	-0.033
Mof_C 	C 	0.0739	0.8572	0.23041	-0.194
Mof_H 	H 	0.0606	0.8214	0.2386	0.09
Mof_N 	N 	0.73046	0.41403	0.86026	-0.203
Mof_C 	C 	0.7134	0.3808	0.83144	0.102
Mof_H 	H 	0.7411	0.3589	0.8187	-0.023
Mof_C 	C 	0.6567	0.3768	0.81931	-0.179
Mof_H 	H 	0.6468	0.352	0.7994	0.091
Mof_C 	C 	0.61487	0.40994	0.83687	0.112
Mof_C 	C 	0.63302	0.4444	0.86705	-0.182
Mof_H 	H 	0.6066	0.4674	0.8801	0.092
Mof_C 	C 	0.6903	0.4444	0.87769	0.109
Mof_H 	H 	0.7012	0.4672	0.8984	-0.019
Mof_C 	C 	0.55376	0.40843	0.82459	-0.039
Mof_C 	C 	0.53083	0.40352	0.78857	-0.032
Mof_C 	C 	0.5644	0.40543	0.75218	0.12
Mof_C 	C 	0.585	0.4555	0.73826	-0.188
Mof_H 	H 	0.5788	0.4898	0.7514	0.095
Mof_C 	C 	0.6159	0.4554	0.70372	0.107
Mof_H 	H 	0.6314	0.4902	0.6954	-0.022
Mof_N 	N 	0.6244	0.40957	0.68219	-0.219
Mof_C 	C 	0.6036	0.362	0.69577	0.117
Mof_H 	H 	0.6089	0.3286	0.6815	-0.033
Mof_C 	C 	0.5739	0.3572	0.73041	-0.194
Mof_H 	H 	0.5606	0.3214	0.7386	0.09
Mof_N 	N 	0.33597	0.98046	0.61026	-0.203
Mof_C 	C 	0.3692	0.9634	0.58144	0.102
Mof_H 	H 	0.3911	0.9911	0.5687	-0.023
Mof_C 	C 	0.3732	0.9067	0.56931	-0.179
Mof_H 	H 	0.398	0.8968	0.5494	0.091
Mof_C 	C 	0.34006	0.86487	0.58687	0.112
Mof_C 	C 	0.3056	0.88302	0.61705	-0.182
Mof_H 	H 	0.2826	0.8566	0.6301	0.092
Mof_C 	C 	0.3056	0.9403	0.62769	0.109
Mof_H 	H 	0.2828	0.9512	0.6484	-0.019
Mof_C 	C 	0.34157	0.80376	0.57459	-0.039
Mof_C 	C 	0.34648	0.78083	0.53857	-0.032
Mof_C 	C 	0.34457	0.8144	0.50218	0.12
Mof_C 	C 	0.2945	0.835	0.48826	-0.188
Mof_H 	H 	0.2602	0.8288	0.5014	0.095
Mof_C 	C 	0.2946	0.8659	0.45372	0.107
Mof_H 	H 	0.2598	0.8814	0.4454	-0.022
Mof_N 	N 	0.34043	0.8744	0.43219	-0.219
Mof_C 	C 	0.388	0.8536	0.44577	0.117
Mof_H 	H 	0.4214	0.8589	0.4315	-0.033
Mof_C 	C 	0.3928	0.8239	0.48041	-0.194
Mof_H 	H 	0.4286	0.8106	0.4886	0.09
Mof_N 	N 	0.83597	0.48046	0.11026	-0.203
Mof_C 	C 	0.8692	0.4634	0.08144	0.102
Mof_H 	H 	0.8911	0.4911	0.0687	-0.023
Mof_C 	C 	0.8732	0.4067	0.06931	-0.179
Mof_H 	H 	0.898	0.3968	0.0494	0.091
Mof_C 	C 	0.84006	0.36487	0.08687	0.112
Mof_C 	C 	0.8056	0.38302	0.11705	-0.182
Mof_H 	H 	0.7826	0.3566	0.1301	0.092
Mof_C 	C 	0.8056	0.4403	0.12769	0.109
Mof_H 	H 	0.7828	0.4512	0.1484	-0.019
Mof_C 	C 	0.84157	0.30376	0.07459	-0.039
Mof_C 	C 	0.84648	0.28083	0.03857	-0.032
Mof_C 	C 	0.84457	0.3144	0.00218	0.12
Mof_C 	C 	0.7945	0.335	0.98826	-0.188
Mof_H 	H 	0.7602	0.3288	0.0014	0.095
Mof_C 	C 	0.7946	0.3659	0.95372	0.107
Mof_H 	H 	0.7598	0.3814	0.9454	-0.022
Mof_N 	N 	0.84043	0.3744	0.93219	-0.219
Mof_C 	C 	0.888	0.3536	0.94577	0.117
Mof_H 	H 	0.9214	0.3589	0.9315	-0.034
Mof_C 	C 	0.8928	0.3239	0.98041	-0.194
Mof_H 	H 	0.9286	0.3106	0.9886	0.09
Mof_N 	N 	0.16403	0.01954	0.11026	-0.203
Mof_C 	C 	0.1308	0.0366	0.08144	0.102
Mof_H 	H 	0.1089	0.0089	0.0687	-0.023
Mof_C 	C 	0.1268	0.0933	0.06931	-0.179
Mof_H 	H 	0.102	0.1032	0.0494	0.091
Mof_C 	C 	0.15994	0.13513	0.08687	0.112
Mof_C 	C 	0.1944	0.11698	0.11705	-0.182
Mof_H 	H 	0.2174	0.1434	0.1301	0.092
Mof_C 	C 	0.1944	0.0597	0.12769	0.109
Mof_H 	H 	0.2172	0.0488	0.1484	-0.019
Mof_C 	C 	0.15843	0.19624	0.07459	-0.039
Mof_C 	C 	0.15352	0.21917	0.03857	-0.032
Mof_C 	C 	0.15543	0.1856	0.00218	0.12
Mof_C 	C 	0.2055	0.165	0.98826	-0.188
Mof_H 	H 	0.2398	0.1712	0.0014	0.095
Mof_C 	C 	0.2054	0.1341	0.95372	0.107
Mof_H 	H 	0.2402	0.1186	0.9454	-0.022
Mof_N 	N 	0.15957	0.1256	0.93219	-0.219
Mof_C 	C 	0.112	0.1464	0.94577	0.117
Mof_H 	H 	0.0786	0.1411	0.9315	-0.033
Mof_C 	C 	0.1072	0.1761	0.98041	-0.194
Mof_H 	H 	0.0714	0.1894	0.9886	0.09
Mof_N 	N 	0.66403	0.51954	0.61026	-0.203
Mof_C 	C 	0.6308	0.5366	0.58144	0.102
Mof_H 	H 	0.6089	0.5089	0.5687	-0.023
Mof_C 	C 	0.6268	0.5933	0.56931	-0.179
Mof_H 	H 	0.602	0.6032	0.5494	0.091
Mof_C 	C 	0.65994	0.63513	0.58687	0.112
Mof_C 	C 	0.6944	0.61698	0.61705	-0.182
Mof_H 	H 	0.7174	0.6434	0.6301	0.092
Mof_C 	C 	0.6944	0.5597	0.62769	0.109
Mof_H 	H 	0.7172	0.5488	0.6484	-0.019
Mof_C 	C 	0.65843	0.69624	0.57459	-0.039
Mof_C 	C 	0.65352	0.71917	0.53857	-0.032
Mof_C 	C 	0.65543	0.6856	0.50218	0.12
Mof_C 	C 	0.7055	0.665	0.48826	-0.188
Mof_H 	H 	0.7398	0.6712	0.5014	0.095
Mof_C 	C 	0.7054	0.6341	0.45372	0.107
Mof_H 	H 	0.7402	0.6186	0.4454	-0.022
Mof_N 	N 	0.65957	0.6256	0.43219	-0.219
Mof_C 	C 	0.612	0.6464	0.44577	0.117
Mof_H 	H 	0.5786	0.6411	0.4315	-0.033
Mof_C 	C 	0.6072	0.6761	0.48041	-0.194
Mof_H 	H 	0.5714	0.6894	0.4886	0.09
Mof_N 	N 	0.76954	0.91403	0.36026	-0.203
Mof_C 	C 	0.7866	0.8808	0.33144	0.102
Mof_H 	H 	0.7589	0.8589	0.3187	-0.023
Mof_C 	C 	0.8433	0.8768	0.31931	-0.179
Mof_H 	H 	0.8532	0.852	0.2994	0.091
Mof_C 	C 	0.88513	0.90994	0.33687	0.112
Mof_C 	C 	0.86698	0.9444	0.36705	-0.182
Mof_H 	H 	0.8934	0.9674	0.3801	0.092
Mof_C 	C 	0.8097	0.9444	0.37769	0.109
Mof_H 	H 	0.7988	0.9672	0.3984	-0.019
Mof_C 	C 	0.94624	0.90843	0.32459	-0.039
Mof_C 	C 	0.96917	0.90352	0.28857	-0.032
Mof_C 	C 	0.9356	0.90543	0.25218	0.12
Mof_C 	C 	0.915	0.9555	0.23826	-0.188
Mof_H 	H 	0.9212	0.9898	0.2514	0.095
Mof_C 	C 	0.8841	0.9554	0.20372	0.107
Mof_H 	H 	0.8686	0.9902	0.1954	-0.022
Mof_N 	N 	0.8756	0.90957	0.18219	-0.219
Mof_C 	C 	0.8964	0.862	0.19577	0.117
Mof_H 	H 	0.8911	0.8286	0.1815	-0.034
Mof_C 	C 	0.9261	0.8572	0.23041	-0.194
Mof_H 	H 	0.9394	0.8214	0.2386	0.09
Mof_N 	N 	0.26954	0.41403	0.86026	-0.203
Mof_C 	C 	0.2866	0.3808	0.83144	0.102
Mof_H 	H 	0.2589	0.3589	0.8187	-0.023
Mof_C 	C 	0.3433	0.3768	0.81931	-0.179
Mof_H 	H 	0.3532	0.352	0.7994	0.091
Mof_C 	C 	0.38513	0.40994	0.83687	0.112
Mof_C 	C 	0.36698	0.4444	0.86705	-0.182
Mof_H 	H 	0.3934	0.4674	0.8801	0.092
Mof_C 	C 	0.3097	0.4444	0.87769	0.109
Mof_H 	H 	0.2988	0.4672	0.8984	-0.019
Mof_C 	C 	0.44624	0.40843	0.82459	-0.039
Mof_C 	C 	0.46917	0.40352	0.78857	-0.032
Mof_C 	C 	0.4356	0.40543	0.75218	0.12
Mof_C 	C 	0.415	0.4555	0.73826	-0.188
Mof_H 	H 	0.4212	0.4898	0.7514	0.095
Mof_C 	C 	0.3841	0.4554	0.70372	0.107
Mof_H 	H 	0.3686	0.4902	0.6954	-0.022
Mof_N 	N 	0.3756	0.40957	0.68219	-0.219
Mof_C 	C 	0.3964	0.362	0.69577	0.117
Mof_H 	H 	0.3911	0.3286	0.6815	-0.033
Mof_C 	C 	0.4261	0.3572	0.73041	-0.194
Mof_H 	H 	0.4394	0.3214	0.7386	0.09
Mof_N 	N 	0.73046	0.08597	0.86026	-0.203
Mof_C 	C 	0.7134	0.1192	0.83144	0.102
Mof_H 	H 	0.7411	0.1411	0.8187	-0.023
Mof_C 	C 	0.6567	0.1232	0.81931	-0.179
Mof_H 	H 	0.6468	0.148	0.7994	0.091
Mof_C 	C 	0.61487	0.09006	0.83687	0.112
Mof_C 	C 	0.63302	0.0556	0.86705	-0.182
Mof_H 	H 	0.6066	0.0326	0.8801	0.092
Mof_C 	C 	0.6903	0.0556	0.87769	0.109
Mof_H 	H 	0.7012	0.0328	0.8984	-0.019
Mof_C 	C 	0.55376	0.09157	0.82459	-0.039
Mof_C 	C 	0.53083	0.09648	0.78857	-0.032
Mof_C 	C 	0.5644	0.09457	0.75218	0.12
Mof_C 	C 	0.585	0.0445	0.73826	-0.188
Mof_H 	H 	0.5788	0.0102	0.7514	0.095
Mof_C 	C 	0.6159	0.0446	0.70372	0.107
Mof_H 	H 	0.6314	0.0098	0.6954	-0.022
Mof_N 	N 	0.6244	0.09043	0.68219	-0.219
Mof_C 	C 	0.6036	0.138	0.69577	0.117
Mof_H 	H 	0.6089	0.1714	0.6815	-0.033
Mof_C 	C 	0.5739	0.1428	0.73041	-0.194
Mof_H 	H 	0.5606	0.1786	0.7386	0.09
Mof_N 	N 	0.23046	0.58597	0.36026	-0.203
Mof_C 	C 	0.2134	0.6192	0.33144	0.102
Mof_H 	H 	0.2411	0.6411	0.3187	-0.023
Mof_C 	C 	0.1567	0.6232	0.31931	-0.179
Mof_H 	H 	0.1468	0.648	0.2994	0.091
Mof_C 	C 	0.11487	0.59006	0.33687	0.112
Mof_C 	C 	0.13302	0.5556	0.36705	-0.182
Mof_H 	H 	0.1066	0.5326	0.3801	0.092
Mof_C 	C 	0.1903	0.5556	0.37769	0.109
Mof_H 	H 	0.2012	0.5328	0.3984	-0.019
Mof_C 	C 	0.05376	0.59157	0.32459	-0.039
Mof_C 	C 	0.03083	0.59648	0.28857	-0.031
Mof_C 	C 	0.0644	0.59457	0.25218	0.12
Mof_C 	C 	0.085	0.5445	0.23826	-0.188
Mof_H 	H 	0.0788	0.5102	0.2514	0.095
Mof_C 	C 	0.1159	0.5446	0.20372	0.107
Mof_H 	H 	0.1314	0.5098	0.1954	-0.022
Mof_N 	N 	0.1244	0.59043	0.18219	-0.219
Mof_C 	C 	0.1036	0.638	0.19577	0.117
Mof_H 	H 	0.1089	0.6714	0.1815	-0.033
Mof_C 	C 	0.0739	0.6428	0.23041	-0.194
Mof_H 	H 	0.0606	0.6786	0.2386	0.09
Mof_N 	N 	0.83597	0.01954	0.11026	-0.203
Mof_C 	C 	0.8692	0.0366	0.08144	0.102
Mof_H 	H 	0.8911	0.0089	0.0687	-0.023
Mof_C 	C 	0.8732	0.0933	0.06931	-0.179
Mof_H 	H 	0.898	0.1032	0.0494	0.091
Mof_C 	C 	0.84006	0.13513	0.08687	0.112
Mof_C 	C 	0.8056	0.11698	0.11705	-0.182
Mof_H 	H 	0.7826	0.1434	0.1301	0.092
Mof_C 	C 	0.8056	0.0597	0.12769	0.109
Mof_H 	H 	0.7828	0.0488	0.1484	-0.019
Mof_C 	C 	0.84157	0.19624	0.07459	-0.039
Mof_C 	C 	0.84648	0.21917	0.03857	-0.032
Mof_C 	C 	0.84457	0.1856	0.00218	0.12
Mof_C 	C 	0.7945	0.165	0.98826	-0.188
Mof_H 	H 	0.7602	0.1712	0.0014	0.095
Mof_C 	C 	0.7946	0.1341	0.95372	0.107
Mof_H 	H 	0.7598	0.1186	0.9454	-0.022
Mof_N 	N 	0.84043	0.1256	0.93219	-0.219
Mof_C 	C 	0.888	0.1464	0.94577	0.117
Mof_H 	H 	0.9214	0.1411	0.9315	-0.034
Mof_C 	C 	0.8928	0.1761	0.98041	-0.194
Mof_H 	H 	0.9286	0.1894	0.9886	0.09
Mof_N 	N 	0.33597	0.51954	0.61026	-0.203
Mof_C 	C 	0.3692	0.5366	0.58144	0.102
Mof_H 	H 	0.3911	0.5089	0.5687	-0.023
Mof_C 	C 	0.3732	0.5933	0.56931	-0.179
Mof_H 	H 	0.398	0.6032	0.5494	0.091
Mof_C 	C 	0.34006	0.63513	0.58687	0.112
Mof_C 	C 	0.3056	0.61698	0.61705	-0.182
Mof_H 	H 	0.2826	0.6434	0.6301	0.092
Mof_C 	C 	0.3056	0.5597	0.62769	0.109
Mof_H 	H 	0.2828	0.5488	0.6484	-0.019
Mof_C 	C 	0.34157	0.69624	0.57459	-0.039
Mof_C 	C 	0.34648	0.71917	0.53857	-0.032
Mof_C 	C 	0.34457	0.6856	0.50218	0.12
Mof_C 	C 	0.2945	0.665	0.48826	-0.188
Mof_H 	H 	0.2602	0.6712	0.5014	0.095
Mof_C 	C 	0.2946	0.6341	0.45372	0.107
Mof_H 	H 	0.2598	0.6186	0.4454	-0.022
Mof_N 	N 	0.34043	0.6256	0.43219	-0.219
Mof_C 	C 	0.388	0.6464	0.44577	0.117
Mof_H 	H 	0.4214	0.6411	0.4315	-0.033
Mof_C 	C 	0.3928	0.6761	0.48041	-0.194
Mof_H 	H 	0.4286	0.6894	0.4886	0.09
Mof_N 	N 	0.66403	0.98046	0.61026	-0.203
Mof_C 	C 	0.6308	0.9634	0.58144	0.102
Mof_H 	H 	0.6089	0.9911	0.5687	-0.023
Mof_C 	C 	0.6268	0.9067	0.56931	-0.179
Mof_H 	H 	0.602	0.8968	0.5494	0.091
Mof_C 	C 	0.65994	0.86487	0.58687	0.112
Mof_C 	C 	0.6944	0.88302	0.61705	-0.182
Mof_H 	H 	0.7174	0.8566	0.6301	0.092
Mof_C 	C 	0.6944	0.9403	0.62769	0.109
Mof_H 	H 	0.7172	0.9512	0.6484	-0.019
Mof_C 	C 	0.65843	0.80376	0.57459	-0.039
Mof_C 	C 	0.65352	0.78083	0.53857	-0.032
Mof_C 	C 	0.65543	0.8144	0.50218	0.12
Mof_C 	C 	0.7055	0.835	0.48826	-0.188
Mof_H 	H 	0.7398	0.8288	0.5014	0.095
Mof_C 	C 	0.7054	0.8659	0.45372	0.107
Mof_H 	H 	0.7402	0.8814	0.4454	-0.022
Mof_N 	N 	0.65957	0.8744	0.43219	-0.219
Mof_C 	C 	0.612	0.8536	0.44577	0.117
Mof_H 	H 	0.5786	0.8589	0.4315	-0.033
Mof_C 	C 	0.6072	0.8239	0.48041	-0.194
Mof_H 	H 	0.5714	0.8106	0.4886	0.09
Mof_N 	N 	0.16403	0.48046	0.11026	-0.203
Mof_C 	C 	0.1308	0.4634	0.08144	0.102
Mof_H 	H 	0.1089	0.4911	0.0687	-0.023
Mof_C 	C 	0.1268	0.4067	0.06931	-0.179
Mof_H 	H 	0.102	0.3968	0.0494	0.091
Mof_C 	C 	0.15994	0.36487	0.08687	0.112
Mof_C 	C 	0.1944	0.38302	0.11705	-0.182
Mof_H 	H 	0.2174	0.3566	0.1301	0.092
Mof_C 	C 	0.1944	0.4403	0.12769	0.109
Mof_H 	H 	0.2172	0.4512	0.1484	-0.019
Mof_C 	C 	0.15843	0.30376	0.07459	-0.039
Mof_C 	C 	0.15352	0.28083	0.03857	-0.032
Mof_C 	C 	0.15543	0.3144	0.00218	0.12
Mof_C 	C 	0.2055	0.335	0.98826	-0.188
Mof_H 	H 	0.2398	0.3288	0.0014	0.095
Mof_C 	C 	0.2054	0.3659	0.95372	0.107
Mof_H 	H 	0.2402	0.3814	0.9454	-0.022
Mof_N 	N 	0.15957	0.3744	0.93219	-0.219
Mof_C 	C 	0.112	0.3536	0.94577	0.117
Mof_H 	H 	0.0786	0.3589	0.9315	-0.033
Mof_C 	C 	0.1072	0.3239	0.98041	-0.194
Mof_H 	H 	0.0714	0.3106	0.9886	0.09
Mof_N 	N 	0.73046	0.91403	0.13974	-0.203
Mof_C 	C 	0.7134	0.8808	0.16856	0.102
Mof_H 	H 	0.7411	0.8589	0.1813	-0.023
Mof_C 	C 	0.6567	0.8768	0.18069	-0.179
Mof_H 	H 	0.6468	0.852	0.2006	0.091
Mof_C 	C 	0.61487	0.90994	0.16313	0.112
Mof_C 	C 	0.63302	0.9444	0.13295	-0.182
Mof_H 	H 	0.6066	0.9674	0.1199	0.092
Mof_C 	C 	0.6903	0.9444	0.12231	0.109
Mof_H 	H 	0.7012	0.9672	0.1016	-0.019
Mof_C 	C 	0.55376	0.90843	0.17541	-0.039
Mof_C 	C 	0.53083	0.90352	0.21143	-0.032
Mof_C 	C 	0.5644	0.90543	0.24782	0.12
Mof_C 	C 	0.585	0.9555	0.26174	-0.188
Mof_H 	H 	0.5788	0.9898	0.2486	0.095
Mof_C 	C 	0.6159	0.9554	0.29628	0.107
Mof_H 	H 	0.6314	0.9902	0.3046	-0.022
Mof_N 	N 	0.6244	0.90957	0.31781	-0.219
Mof_C 	C 	0.6036	0.862	0.30423	0.117
Mof_H 	H 	0.6089	0.8286	0.3185	-0.033
Mof_C 	C 	0.5739	0.8572	0.26959	-0.194
Mof_H 	H 	0.5606	0.8214	0.2614	0.09
Mof_N 	N 	0.23046	0.41403	0.63974	-0.203
Mof_C 	C 	0.2134	0.3808	0.66856	0.102
Mof_H 	H 	0.2411	0.3589	0.6813	-0.023
Mof_C 	C 	0.1567	0.3768	0.68069	-0.179
Mof_H 	H 	0.1468	0.352	0.7006	0.091
Mof_C 	C 	0.11487	0.40994	0.66313	0.112
Mof_C 	C 	0.13302	0.4444	0.63295	-0.182
Mof_H 	H 	0.1066	0.4674	0.6199	0.092
Mof_C 	C 	0.1903	0.4444	0.62231	0.109
Mof_H 	H 	0.2012	0.4672	0.6016	-0.019
Mof_C 	C 	0.05376	0.40843	0.67541	-0.039
Mof_C 	C 	0.03083	0.40352	0.71143	-0.031
Mof_C 	C 	0.0644	0.40543	0.74782	0.12
Mof_C 	C 	0.085	0.4555	0.76174	-0.188
Mof_H 	H 	0.0788	0.4898	0.7486	0.095
Mof_C 	C 	0.1159	0.4554	0.79628	0.107
Mof_H 	H 	0.1314	0.4902	0.8046	-0.022
Mof_N 	N 	0.1244	0.40957	0.81781	-0.219
Mof_C 	C 	0.1036	0.362	0.80423	0.117
Mof_H 	H 	0.1089	0.3286	0.8185	-0.033
Mof_C 	C 	0.0739	0.3572	0.76959	-0.194
Mof_H 	H 	0.0606	0.3214	0.7614	0.09
Mof_N 	N 	0.76954	0.08597	0.63974	-0.203
Mof_C 	C 	0.7866	0.1192	0.66856	0.102
Mof_H 	H 	0.7589	0.1411	0.6813	-0.023
Mof_C 	C 	0.8433	0.1232	0.68069	-0.179
Mof_H 	H 	0.8532	0.148	0.7006	0.091
Mof_C 	C 	0.88513	0.09006	0.66313	0.112
Mof_C 	C 	0.86698	0.0556	0.63295	-0.182
Mof_H 	H 	0.8934	0.0326	0.6199	0.092
Mof_C 	C 	0.8097	0.0556	0.62231	0.109
Mof_H 	H 	0.7988	0.0328	0.6016	-0.019
Mof_C 	C 	0.94624	0.09157	0.67541	-0.039
Mof_C 	C 	0.96917	0.09648	0.71143	-0.032
Mof_C 	C 	0.9356	0.09457	0.74782	0.12
Mof_C 	C 	0.915	0.0445	0.76174	-0.188
Mof_H 	H 	0.9212	0.0102	0.7486	0.095
Mof_C 	C 	0.8841	0.0446	0.79628	0.107
Mof_H 	H 	0.8686	0.0098	0.8046	-0.022
Mof_N 	N 	0.8756	0.09043	0.81781	-0.219
Mof_C 	C 	0.8964	0.138	0.80423	0.117
Mof_H 	H 	0.8911	0.1714	0.8185	-0.034
Mof_C 	C 	0.9261	0.1428	0.76959	-0.194
Mof_H 	H 	0.9394	0.1786	0.7614	0.09
Mof_N 	N 	0.26954	0.58597	0.13974	-0.203
Mof_C 	C 	0.2866	0.6192	0.16856	0.102
Mof_H 	H 	0.2589	0.6411	0.1813	-0.023
Mof_C 	C 	0.3433	0.6232	0.18069	-0.179
Mof_H 	H 	0.3532	0.648	0.2006	0.091
Mof_C 	C 	0.38513	0.59006	0.16313	0.112
Mof_C 	C 	0.36698	0.5556	0.13295	-0.182
Mof_H 	H 	0.3934	0.5326	0.1199	0.092
Mof_C 	C 	0.3097	0.5556	0.12231	0.109
Mof_H 	H 	0.2988	0.5328	0.1016	-0.019
Mof_C 	C 	0.44624	0.59157	0.17541	-0.039
Mof_C 	C 	0.46917	0.59648	0.21143	-0.032
Mof_C 	C 	0.4356	0.59457	0.24782	0.12
Mof_C 	C 	0.415	0.5445	0.26174	-0.188
Mof_H 	H 	0.4212	0.5102	0.2486	0.095
Mof_C 	C 	0.3841	0.5446	0.29628	0.107
Mof_H 	H 	0.3686	0.5098	0.3046	-0.022
Mof_N 	N 	0.3756	0.59043	0.31781	-0.219
Mof_C 	C 	0.3964	0.638	0.30423	0.117
Mof_H 	H 	0.3911	0.6714	0.3185	-0.033
Mof_C 	C 	0.4261	0.6428	0.26959	-0.194
Mof_H 	H 	0.4394	0.6786	0.2614	0.09
Mof_N 	N 	0.66403	0.01954	0.38974	-0.203
Mof_C 	C 	0.6308	0.0366	0.41856	0.102
Mof_H 	H 	0.6089	0.0089	0.4313	-0.023
Mof_C 	C 	0.6268	0.0933	0.43069	-0.179
Mof_H 	H 	0.602	0.1032	0.4506	0.091
Mof_C 	C 	0.65994	0.13513	0.41313	0.112
Mof_C 	C 	0.6944	0.11698	0.38295	-0.182
Mof_H 	H 	0.7174	0.1434	0.3699	0.092
Mof_C 	C 	0.6944	0.0597	0.37231	0.109
Mof_H 	H 	0.7172	0.0488	0.3516	-0.019
Mof_C 	C 	0.65843	0.19624	0.42541	-0.039
Mof_C 	C 	0.65352	0.21917	0.46143	-0.032
Mof_C 	C 	0.65543	0.1856	0.49782	0.12
Mof_C 	C 	0.7055	0.165	0.51174	-0.188
Mof_H 	H 	0.7398	0.1712	0.4986	0.095
Mof_C 	C 	0.7054	0.1341	0.54628	0.107
Mof_H 	H 	0.7402	0.1186	0.5546	-0.022
Mof_N 	N 	0.65957	0.1256	0.56781	-0.219
Mof_C 	C 	0.612	0.1464	0.55423	0.117
Mof_H 	H 	0.5786	0.1411	0.5685	-0.033
Mof_C 	C 	0.6072	0.1761	0.51959	-0.194
Mof_H 	H 	0.5714	0.1894	0.5114	0.09
Mof_N 	N 	0.16403	0.51954	0.88974	-0.203
Mof_C 	C 	0.1308	0.5366	0.91856	0.102
Mof_H 	H 	0.1089	0.5089	0.9313	-0.023
Mof_C 	C 	0.1268	0.5933	0.93069	-0.179
Mof_H 	H 	0.102	0.6032	0.9506	0.091
Mof_C 	C 	0.15994	0.63513	0.91313	0.112
Mof_C 	C 	0.1944	0.61698	0.88295	-0.182
Mof_H 	H 	0.2174	0.6434	0.8699	0.092
Mof_C 	C 	0.1944	0.5597	0.87231	0.109
Mof_H 	H 	0.2172	0.5488	0.8516	-0.019
Mof_C 	C 	0.15843	0.69624	0.92541	-0.039
Mof_C 	C 	0.15352	0.71917	0.96143	-0.032
Mof_C 	C 	0.15543	0.6856	0.99782	0.12
Mof_C 	C 	0.2055	0.665	0.01174	-0.188
Mof_H 	H 	0.2398	0.6712	0.9986	0.095
Mof_C 	C 	0.2054	0.6341	0.04628	0.107
Mof_H 	H 	0.2402	0.6186	0.0546	-0.022
Mof_N 	N 	0.15957	0.6256	0.06781	-0.219
Mof_C 	C 	0.112	0.6464	0.05423	0.117
Mof_H 	H 	0.0786	0.6411	0.0685	-0.033
Mof_C 	C 	0.1072	0.6761	0.01959	-0.194
Mof_H 	H 	0.0714	0.6894	0.0114	0.09
Mof_N 	N 	0.83597	0.98046	0.88974	-0.203
Mof_C 	C 	0.8692	0.9634	0.91856	0.102
Mof_H 	H 	0.8911	0.9911	0.9313	-0.023
Mof_C 	C 	0.8732	0.9067	0.93069	-0.179
Mof_H 	H 	0.898	0.8968	0.9506	0.091
Mof_C 	C 	0.84006	0.86487	0.91313	0.112
Mof_C 	C 	0.8056	0.88302	0.88295	-0.182
Mof_H 	H 	0.7826	0.8566	0.8699	0.092
Mof_C 	C 	0.8056	0.9403	0.87231	0.109
Mof_H 	H 	0.7828	0.9512	0.8516	-0.019
Mof_C 	C 	0.84157	0.80376	0.92541	-0.039
Mof_C 	C 	0.84648	0.78083	0.96143	-0.032
Mof_C 	C 	0.84457	0.8144	0.99782	0.12
Mof_C 	C 	0.7945	0.835	0.01174	-0.188
Mof_H 	H 	0.7602	0.8288	0.9986	0.095
Mof_C 	C 	0.7946	0.8659	0.04628	0.107
Mof_H 	H 	0.7598	0.8814	0.0546	-0.022
Mof_N 	N 	0.84043	0.8744	0.06781	-0.219
Mof_C 	C 	0.888	0.8536	0.05423	0.117
Mof_H 	H 	0.9214	0.8589	0.0685	-0.034
Mof_C 	C 	0.8928	0.8239	0.01959	-0.194
Mof_H 	H 	0.9286	0.8106	0.0114	0.09
Mof_N 	N 	0.33597	0.48046	0.38974	-0.203
Mof_C 	C 	0.3692	0.4634	0.41856	0.102
Mof_H 	H 	0.3911	0.4911	0.4313	-0.023
Mof_C 	C 	0.3732	0.4067	0.43069	-0.179
Mof_H 	H 	0.398	0.3968	0.4506	0.091
Mof_C 	C 	0.34006	0.36487	0.41313	0.112
Mof_C 	C 	0.3056	0.38302	0.38295	-0.182
Mof_H 	H 	0.2826	0.3566	0.3699	0.092
Mof_C 	C 	0.3056	0.4403	0.37231	0.109
Mof_H 	H 	0.2828	0.4512	0.3516	-0.019
Mof_C 	C 	0.34157	0.30376	0.42541	-0.039
Mof_C 	C 	0.34648	0.28083	0.46143	-0.032
Mof_C 	C 	0.34457	0.3144	0.49782	0.12
Mof_C 	C 	0.2945	0.335	0.51174	-0.188
Mof_H 	H 	0.2602	0.3288	0.4986	0.095
Mof_C 	C 	0.2946	0.3659	0.54628	0.107
Mof_H 	H 	0.2598	0.3814	0.5546	-0.022
Mof_N 	N 	0.34043	0.3744	0.56781	-0.219
Mof_C 	C 	0.388	0.3536	0.55423	0.117
Mof_H 	H 	0.4214	0.3589	0.5685	-0.033
Mof_C 	C 	0.3928	0.3239	0.51959	-0.194
Mof_H 	H 	0.4286	0.3106	0.5114	0.09
Mof_Ag	Ag	0.3305	0.0805	0.625	0.609
Mof_Ag	Ag	0.8305	0.5805	0.125	0.609
Mof_Ag	Ag	0.1695	0.9195	0.125	0.609
Mof_Ag	Ag	0.6695	0.4195	0.625	0.609
Mof_Ag	Ag	0.1695	0.0805	0.875	0.609
Mof_Ag	Ag	0.6695	0.5805	0.375	0.609
Mof_Ag	Ag	0.3305	0.9195	0.375	0.609
Mof_Ag	Ag	0.8305	0.4195	0.875	0.609
Mof_Ag	Ag	0.6695	0.9195	0.375	0.609
Mof_Ag	Ag	0.1695	0.4195	0.875	0.609
Mof_Ag	Ag	0.8305	0.0805	0.875	0.609
Mof_Ag	Ag	0.3305	0.5805	0.375	0.609
Mof_Ag	Ag	0.8305	0.9195	0.125	0.609
Mof_Ag	Ag	0.3305	0.4195	0.625	0.609
Mof_Ag	Ag	0.6695	0.0805	0.625	0.609
Mof_Ag	Ag	0.1695	0.5805	0.125	0.609
Mof_S 	S 	3.62257e-33	0.08796	0.64076	-0.009
Mof_S 	S 	0.5	0.58796	0.14076	-0.01
Mof_S 	S 	0.5	0.91204	0.14076	-0.01
Mof_S 	S 	-7.15019e-33	0.41204	0.64076	-0.009
Mof_S 	S 	0.16204	0.75	0.89076	-0.01
Mof_S 	S 	0.33796	0.25	0.39076	-0.01
Mof_S 	S 	0.5	0.08796	0.85924	-0.01
Mof_S 	S 	2.03098e-33	0.58796	0.35924	-0.009
Mof_S 	S 	7.41737e-33	0.91204	0.35924	-0.009
Mof_S 	S 	0.5	0.41204	0.85924	-0.01
Mof_S 	S 	0.33796	0.75	0.60924	-0.01
Mof_S 	S 	0.16204	0.25	0.10924	-0.01
Mof_S 	S 	0.83796	0.25	0.10924	-0.01
Mof_S 	S 	0.66204	0.75	0.60924	-0.01
Mof_S 	S 	0.66204	0.25	0.39076	-0.01
Mof_S 	S 	0.83796	0.75	0.89076	-0.01
_end
