data_functionalizedCrystal
_audit_creation_method	'EQeq! by Chris Wilmer'
_symmetry_space_group_name_H-M	'P1'
_symmetry_Int_Tables_number	1
_symmetry_cell_setting	triclinic
loop_
_symmetry_equiv_pos_as_xyz
  x,y,z
_cell_length_a	24.9427
_cell_length_b	16.9411
_cell_length_c	25.2889
_cell_angle_alpha	90
_cell_angle_beta	105.208
_cell_angle_gamma	90
loop_
_atom_site_label
_atom_site_type_symbol
_atom_site_fract_x
_atom_site_fract_y
_atom_site_fract_z
_atom_site_charge
Mof_Gd	Gd	0.21815	0.81764	0.05243	1.617
Mof_Gd	Gd	0.40874	0.89948	0.7381	1.678
Mof_O 	O 	0.12362	0.8762	0.04171	-0.343
Mof_O 	O 	0.15039	0.7754	0.09801	-0.402
Mof_O 	O 	0.33782	0.9825	0.76081	-0.404
Mof_O 	O 	0.21363	0.9137	0.98139	-0.409
Mof_O 	O 	0.25176	0.81279	0.94939	-0.501
Mof_O 	O 	0.15152	0.7522	0.98077	-0.429
Mof_O 	O 	0.02815	0.6787	0.20631	-0.507
Mof_O 	O 	0.93665	0.688	0.17329	-0.455
Mof_O 	O 	0.04795	0.4878	0.80633	-0.501
Mof_O 	O 	0.36959	0.8845	0.81797	-0.375
Mof_O 	O 	0.95884	0.4907	0.80647	-0.435
Mof_C 	C 	0.23784	0.884	0.94798	0.398
Mof_C 	C 	0.14579	0.6944	0.94862	0.432
Mof_C 	C 	0.114	0.8246	0.07382	0.291
Mof_N 	N 	0.9193	0.9129	0.0342	-0.013
Mof_C 	C 	0.3384	0.943	0.8033	0.301
Mof_N 	N 	0.94243	0.7138	0.9327	-0.01
Mof_N 	N 	0.234	0.1508	0.8675	-0.01
Mof_C 	C 	0.0079	0.5142	0.82176	0.466
Mof_C 	C 	0.9855	0.7052	0.1734	0.46
Mof_C 	C 	0.07501	0.6065	0.88527	0.067
Mof_H 	H 	0.1044	0.5822	0.8738	0.014
Mof_C 	C 	0.0574	0.8216	0.0842	-0.036
Mof_C 	C 	0.02076	0.5805	0.86333	-0.127
Mof_C 	C 	0.08733	0.6677	0.92389	-0.119
Mof_C 	C 	0.97722	0.6147	0.87972	-0.015
Mof_H 	H 	0.9401	0.5967	0.8657	0.073
Mof_C 	C 	0.25198	0.9388	0.90645	-0.077
Mof_C 	C 	0.9522	0.8114	0.1024	-0.042
Mof_H 	H 	0.916	0.8078	0.1078	0.085
Mof_C 	C 	0.995	0.7628	0.13125	-0.097
Mof_C 	C 	0.3005	0.9678	0.8378	-0.042
Mof_C 	C 	0.0431	0.7035	0.9398	-0.018
Mof_H 	H 	0.0496	0.7455	0.9656	0.075
Mof_C 	C 	0.9895	0.6758	0.917	0.066
Mof_C 	C 	0.2322	0.0157	0.9026	-0.059
Mof_H 	H 	0.2077	0.0326	0.9235	0.099
Mof_C 	C 	0.2869	0.9149	0.87457	0.006
Mof_H 	H 	0.3014	0.8627	0.8778	0.041
Mof_C 	C 	0.2488	0.0668	0.8678	0.098
Mof_C 	C 	0.2812	0.044	0.8338	-0.067
Mof_H 	H 	0.2899	0.08	0.8084	0.085
Mof_C 	C 	0.0159	0.8717	0.0564	-0.066
Mof_H 	H 	0.0228	0.9098	0.0314	0.104
Mof_C 	C 	0.9639	0.8648	0.0659	0.105
Mof_C 	C 	0.04704	0.7669	0.12154	0.015
Mof_H 	H 	0.0758	0.7324	0.1404	0.054
Mof_O 	O 	0.18388	0.6577	0.93514	-0.466
Mof_O 	O 	0.928	0.9557	0.9977	-0.093
Mof_O 	O 	0.8737	0.9081	0.0435	-0.099
Mof_O 	O 	0.2539	0.1974	0.8416	-0.123
Mof_O 	O 	0.8953	0.6878	0.9136	-0.098
Mof_O 	O 	0.9527	0.78	0.9577	-0.066
Mof_O 	O 	0.201	0.1702	0.8935	-0.11
Mof_O 	O 	0.5489	0.7447	0.0273	-0.035
Mof_Gd	Gd	0.71815	0.31764	0.05243	1.621
Mof_Gd	Gd	0.90874	0.39948	0.7381	1.68
Mof_O 	O 	0.62362	0.3762	0.04171	-0.342
Mof_O 	O 	0.65039	0.2754	0.09801	-0.401
Mof_O 	O 	0.83782	0.4825	0.76081	-0.404
Mof_O 	O 	0.71363	0.4137	0.98139	-0.41
Mof_O 	O 	0.75176	0.31279	0.94939	-0.501
Mof_O 	O 	0.65152	0.2522	0.98077	-0.429
Mof_O 	O 	0.52815	0.1787	0.20631	-0.506
Mof_O 	O 	0.43665	0.188	0.17329	-0.454
Mof_O 	O 	0.54795	0.9878	0.80633	-0.498
Mof_O 	O 	0.86959	0.3845	0.81797	-0.375
Mof_O 	O 	0.45884	0.9907	0.80647	-0.433
Mof_C 	C 	0.73784	0.384	0.94798	0.4
Mof_C 	C 	0.64579	0.1944	0.94862	0.434
Mof_C 	C 	0.614	0.3246	0.07382	0.292
Mof_N 	N 	0.4193	0.4129	0.0342	-0.012
Mof_C 	C 	0.8384	0.443	0.8033	0.303
Mof_N 	N 	0.44243	0.2138	0.9327	-0.01
Mof_N 	N 	0.734	0.6508	0.8675	-0.01
Mof_C 	C 	0.5079	0.0142	0.82176	0.462
Mof_C 	C 	0.4855	0.2052	0.1734	0.46
Mof_C 	C 	0.57501	0.1065	0.88527	0.067
Mof_H 	H 	0.6044	0.0822	0.8738	0.014
Mof_C 	C 	0.5574	0.3216	0.0842	-0.035
Mof_C 	C 	0.52076	0.0805	0.86333	-0.126
Mof_C 	C 	0.58733	0.1677	0.92389	-0.119
Mof_C 	C 	0.47722	0.1147	0.87972	-0.016
Mof_H 	H 	0.4401	0.0967	0.8657	0.072
Mof_C 	C 	0.75198	0.4388	0.90645	-0.081
Mof_C 	C 	0.4522	0.3114	0.1024	-0.043
Mof_H 	H 	0.416	0.3078	0.1078	0.086
Mof_C 	C 	0.495	0.2628	0.13125	-0.096
Mof_C 	C 	0.8005	0.4678	0.8378	-0.045
Mof_C 	C 	0.5431	0.2035	0.9398	-0.017
Mof_H 	H 	0.5496	0.2455	0.9656	0.075
Mof_C 	C 	0.4895	0.1758	0.917	0.066
Mof_C 	C 	0.7322	0.5157	0.9026	-0.054
Mof_H 	H 	0.7077	0.5326	0.9235	0.098
Mof_C 	C 	0.7869	0.4149	0.87457	0.009
Mof_H 	H 	0.8014	0.3627	0.8778	0.041
Mof_C 	C 	0.7488	0.5668	0.8678	0.095
Mof_C 	C 	0.7812	0.544	0.8338	-0.063
Mof_H 	H 	0.7899	0.58	0.8084	0.084
Mof_C 	C 	0.5159	0.3717	0.0564	-0.067
Mof_H 	H 	0.5228	0.4098	0.0314	0.105
Mof_C 	C 	0.4639	0.3648	0.0659	0.107
Mof_C 	C 	0.54704	0.2669	0.12154	0.014
Mof_H 	H 	0.5758	0.2324	0.1404	0.054
Mof_O 	O 	0.68388	0.1577	0.93514	-0.466
Mof_O 	O 	0.428	0.4557	0.9977	-0.095
Mof_O 	O 	0.3737	0.4081	0.0435	-0.098
Mof_O 	O 	0.7539	0.6974	0.8416	-0.123
Mof_O 	O 	0.3953	0.1878	0.9136	-0.098
Mof_O 	O 	0.4527	0.28	0.9577	-0.065
Mof_O 	O 	0.701	0.6702	0.8935	-0.11
Mof_O 	O 	0.0489	0.2447	0.0273	-0.032
Mof_Gd	Gd	0.78185	0.81764	0.44757	1.62
Mof_Gd	Gd	0.59126	0.89948	0.7619	1.68
Mof_O 	O 	0.87638	0.8762	0.45829	-0.342
Mof_O 	O 	0.84961	0.7754	0.40199	-0.401
Mof_O 	O 	0.66218	0.9825	0.73919	-0.403
Mof_O 	O 	0.78637	0.9137	0.51861	-0.409
Mof_O 	O 	0.74824	0.81279	0.55061	-0.501
Mof_O 	O 	0.84848	0.7522	0.51923	-0.429
Mof_O 	O 	0.97185	0.6787	0.29369	-0.506
Mof_O 	O 	0.06335	0.688	0.32671	-0.454
Mof_O 	O 	0.95205	0.4878	0.69367	-0.5
Mof_O 	O 	0.63041	0.8845	0.68203	-0.374
Mof_O 	O 	0.04116	0.4907	0.69353	-0.435
Mof_C 	C 	0.76216	0.884	0.55202	0.4
Mof_C 	C 	0.85421	0.6944	0.55138	0.434
Mof_C 	C 	0.886	0.8246	0.42618	0.292
Mof_N 	N 	0.0807	0.9129	0.4658	-0.012
Mof_C 	C 	0.6616	0.943	0.6967	0.302
Mof_N 	N 	0.05757	0.7138	0.5673	-0.01
Mof_N 	N 	0.766	0.1508	0.6325	-0.01
Mof_C 	C 	0.9921	0.5142	0.67824	0.466
Mof_C 	C 	0.0145	0.7052	0.3266	0.46
Mof_C 	C 	0.92499	0.6065	0.61473	0.067
Mof_H 	H 	0.8956	0.5822	0.6262	0.014
Mof_C 	C 	0.9426	0.8216	0.4158	-0.035
Mof_C 	C 	0.97924	0.5805	0.63667	-0.127
Mof_C 	C 	0.91267	0.6677	0.57611	-0.119
Mof_C 	C 	0.02278	0.6147	0.62028	-0.015
Mof_H 	H 	0.0599	0.5967	0.6343	0.073
Mof_C 	C 	0.74802	0.9388	0.59355	-0.08
Mof_C 	C 	0.0478	0.8114	0.3976	-0.043
Mof_H 	H 	0.084	0.8078	0.3922	0.086
Mof_C 	C 	0.005	0.7628	0.36875	-0.096
Mof_C 	C 	0.6995	0.9678	0.6622	-0.044
Mof_C 	C 	0.9569	0.7035	0.5602	-0.017
Mof_H 	H 	0.9504	0.7455	0.5344	0.075
Mof_C 	C 	0.0105	0.6758	0.583	0.066
Mof_C 	C 	0.7678	0.0157	0.5974	-0.056
Mof_H 	H 	0.7923	0.0326	0.5765	0.098
Mof_C 	C 	0.7131	0.9149	0.62543	0.008
Mof_H 	H 	0.6986	0.8627	0.6222	0.041
Mof_C 	C 	0.7512	0.0668	0.6322	0.096
Mof_C 	C 	0.7188	0.044	0.6662	-0.065
Mof_H 	H 	0.7101	0.08	0.6916	0.084
Mof_C 	C 	0.9841	0.8717	0.4436	-0.067
Mof_H 	H 	0.9772	0.9098	0.4686	0.105
Mof_C 	C 	0.0361	0.8648	0.4341	0.107
Mof_C 	C 	0.95296	0.7669	0.37846	0.014
Mof_H 	H 	0.9242	0.7324	0.3596	0.054
Mof_O 	O 	0.81612	0.6577	0.56486	-0.466
Mof_O 	O 	0.072	0.9557	0.5023	-0.095
Mof_O 	O 	0.1263	0.9081	0.4565	-0.098
Mof_O 	O 	0.7461	0.1974	0.6584	-0.123
Mof_O 	O 	0.1047	0.6878	0.5864	-0.098
Mof_O 	O 	0.0473	0.78	0.5423	-0.067
Mof_O 	O 	0.799	0.1702	0.6065	-0.11
Mof_O 	O 	0.4511	0.7447	0.4727	-0.032
Mof_Gd	Gd	0.28185	0.31764	0.44757	1.62
Mof_Gd	Gd	0.09126	0.39948	0.7619	1.68
Mof_O 	O 	0.37638	0.3762	0.45829	-0.342
Mof_O 	O 	0.34961	0.2754	0.40199	-0.401
Mof_O 	O 	0.16218	0.4825	0.73919	-0.404
Mof_O 	O 	0.28637	0.4137	0.51861	-0.41
Mof_O 	O 	0.24824	0.31279	0.55061	-0.501
Mof_O 	O 	0.34848	0.2522	0.51923	-0.429
Mof_O 	O 	0.47185	0.1787	0.29369	-0.506
Mof_O 	O 	0.56335	0.188	0.32671	-0.454
Mof_O 	O 	0.45205	0.9878	0.69367	-0.499
Mof_O 	O 	0.13041	0.3845	0.68203	-0.375
Mof_O 	O 	0.54116	0.9907	0.69353	-0.434
Mof_C 	C 	0.26216	0.384	0.55202	0.4
Mof_C 	C 	0.35421	0.1944	0.55138	0.434
Mof_C 	C 	0.386	0.3246	0.42618	0.292
Mof_N 	N 	0.5807	0.4129	0.4658	-0.012
Mof_C 	C 	0.1616	0.443	0.6967	0.303
Mof_N 	N 	0.55757	0.2138	0.5673	-0.01
Mof_N 	N 	0.266	0.6508	0.6325	-0.01
Mof_C 	C 	0.4921	0.0142	0.67824	0.464
Mof_C 	C 	0.5145	0.2052	0.3266	0.46
Mof_C 	C 	0.42499	0.1065	0.61473	0.067
Mof_H 	H 	0.3956	0.0822	0.6262	0.014
Mof_C 	C 	0.4426	0.3216	0.4158	-0.035
Mof_C 	C 	0.47924	0.0805	0.63667	-0.126
Mof_C 	C 	0.41267	0.1677	0.57611	-0.119
Mof_C 	C 	0.52278	0.1147	0.62028	-0.015
Mof_H 	H 	0.5599	0.0967	0.6343	0.073
Mof_C 	C 	0.24802	0.4388	0.59355	-0.081
Mof_C 	C 	0.5478	0.3114	0.3976	-0.043
Mof_H 	H 	0.584	0.3078	0.3922	0.086
Mof_C 	C 	0.505	0.2628	0.36875	-0.096
Mof_C 	C 	0.1995	0.4678	0.6622	-0.045
Mof_C 	C 	0.4569	0.2035	0.5602	-0.017
Mof_H 	H 	0.4504	0.2455	0.5344	0.075
Mof_C 	C 	0.5105	0.1758	0.583	0.066
Mof_C 	C 	0.2678	0.5157	0.5974	-0.054
Mof_H 	H 	0.2923	0.5326	0.5765	0.098
Mof_C 	C 	0.2131	0.4149	0.62543	0.009
Mof_H 	H 	0.1986	0.3627	0.6222	0.04
Mof_C 	C 	0.2512	0.5668	0.6322	0.095
Mof_C 	C 	0.2188	0.544	0.6662	-0.063
Mof_H 	H 	0.2101	0.58	0.6916	0.084
Mof_C 	C 	0.4841	0.3717	0.4436	-0.067
Mof_H 	H 	0.4772	0.4098	0.4686	0.105
Mof_C 	C 	0.5361	0.3648	0.4341	0.107
Mof_C 	C 	0.45296	0.2669	0.37846	0.014
Mof_H 	H 	0.4242	0.2324	0.3596	0.054
Mof_O 	O 	0.31612	0.1577	0.56486	-0.466
Mof_O 	O 	0.572	0.4557	0.5023	-0.095
Mof_O 	O 	0.6263	0.4081	0.4565	-0.098
Mof_O 	O 	0.2461	0.6974	0.6584	-0.123
Mof_O 	O 	0.6047	0.1878	0.5864	-0.098
Mof_O 	O 	0.5473	0.28	0.5423	-0.067
Mof_O 	O 	0.299	0.6702	0.6065	-0.11
Mof_O 	O 	0.9511	0.2447	0.4727	-0.032
Mof_Gd	Gd	0.78185	0.18236	0.94757	1.618
Mof_Gd	Gd	0.59126	0.10052	0.2619	1.679
Mof_O 	O 	0.87638	0.1238	0.95829	-0.342
Mof_O 	O 	0.84961	0.2246	0.90199	-0.401
Mof_O 	O 	0.66218	0.0175	0.23919	-0.403
Mof_O 	O 	0.78637	0.0863	0.01861	-0.408
Mof_O 	O 	0.74824	0.18721	0.05061	-0.5
Mof_O 	O 	0.84848	0.2478	0.01923	-0.428
Mof_O 	O 	0.97185	0.3213	0.79369	-0.506
Mof_O 	O 	0.06335	0.312	0.82671	-0.454
Mof_O 	O 	0.95205	0.5122	0.19367	-0.5
Mof_O 	O 	0.63041	0.1155	0.18203	-0.374
Mof_O 	O 	0.04116	0.5093	0.19353	-0.434
Mof_C 	C 	0.76216	0.116	0.05202	0.399
Mof_C 	C 	0.85421	0.3056	0.05138	0.433
Mof_C 	C 	0.886	0.1754	0.92618	0.292
Mof_N 	N 	0.0807	0.0871	0.9658	-0.013
Mof_C 	C 	0.6616	0.057	0.1967	0.301
Mof_N 	N 	0.05757	0.2862	0.0673	-0.01
Mof_N 	N 	0.766	0.8492	0.1325	-0.01
Mof_C 	C 	0.9921	0.4858	0.17824	0.466
Mof_C 	C 	0.0145	0.2948	0.8266	0.46
Mof_C 	C 	0.92499	0.3935	0.11473	0.067
Mof_H 	H 	0.8956	0.4178	0.1262	0.014
Mof_C 	C 	0.9426	0.1784	0.9158	-0.036
Mof_C 	C 	0.97924	0.4195	0.13667	-0.127
Mof_C 	C 	0.91267	0.3323	0.07611	-0.119
Mof_C 	C 	0.02278	0.3853	0.12028	-0.015
Mof_H 	H 	0.0599	0.4033	0.1343	0.073
Mof_C 	C 	0.74802	0.0612	0.09355	-0.077
Mof_C 	C 	0.0478	0.1886	0.8976	-0.042
Mof_H 	H 	0.084	0.1922	0.8922	0.085
Mof_C 	C 	0.005	0.2372	0.86875	-0.097
Mof_C 	C 	0.6995	0.0322	0.1622	-0.042
Mof_C 	C 	0.9569	0.2965	0.0602	-0.018
Mof_H 	H 	0.9504	0.2545	0.0344	0.075
Mof_C 	C 	0.0105	0.3242	0.083	0.066
Mof_C 	C 	0.7678	0.9843	0.0974	-0.059
Mof_H 	H 	0.7923	0.9674	0.0765	0.099
Mof_C 	C 	0.7131	0.0851	0.12543	0.006
Mof_H 	H 	0.6986	0.1373	0.1222	0.041
Mof_C 	C 	0.7512	0.9332	0.1322	0.098
Mof_C 	C 	0.7188	0.956	0.1662	-0.067
Mof_H 	H 	0.7101	0.92	0.1916	0.085
Mof_C 	C 	0.9841	0.1283	0.9436	-0.066
Mof_H 	H 	0.9772	0.0902	0.9686	0.104
Mof_C 	C 	0.0361	0.1352	0.9341	0.105
Mof_C 	C 	0.95296	0.2331	0.87846	0.015
Mof_H 	H 	0.9242	0.2676	0.8596	0.054
Mof_O 	O 	0.81612	0.3423	0.06486	-0.466
Mof_O 	O 	0.072	0.0443	0.0023	-0.093
Mof_O 	O 	0.1263	0.0919	0.9565	-0.099
Mof_O 	O 	0.7461	0.8026	0.1584	-0.123
Mof_O 	O 	0.1047	0.3122	0.0864	-0.098
Mof_O 	O 	0.0473	0.22	0.0423	-0.066
Mof_O 	O 	0.799	0.8298	0.1065	-0.11
Mof_O 	O 	0.4511	0.2553	0.9727	-0.035
Mof_Gd	Gd	0.28185	0.68236	0.94757	1.621
Mof_Gd	Gd	0.09126	0.60052	0.2619	1.68
Mof_O 	O 	0.37638	0.6238	0.95829	-0.342
Mof_O 	O 	0.34961	0.7246	0.90199	-0.401
Mof_O 	O 	0.16218	0.5175	0.23919	-0.404
Mof_O 	O 	0.28637	0.5863	0.01861	-0.41
Mof_O 	O 	0.24824	0.68721	0.05061	-0.501
Mof_O 	O 	0.34848	0.7478	0.01923	-0.429
Mof_O 	O 	0.47185	0.8213	0.79369	-0.506
Mof_O 	O 	0.56335	0.812	0.82671	-0.454
Mof_O 	O 	0.45205	0.0122	0.19367	-0.498
Mof_O 	O 	0.13041	0.6155	0.18203	-0.375
Mof_O 	O 	0.54116	0.0093	0.19353	-0.433
Mof_C 	C 	0.26216	0.616	0.05202	0.4
Mof_C 	C 	0.35421	0.8056	0.05138	0.434
Mof_C 	C 	0.386	0.6754	0.92618	0.292
Mof_N 	N 	0.5807	0.5871	0.9658	-0.012
Mof_C 	C 	0.1616	0.557	0.1967	0.303
Mof_N 	N 	0.55757	0.7862	0.0673	-0.01
Mof_N 	N 	0.266	0.3492	0.1325	-0.01
Mof_C 	C 	0.4921	0.9858	0.17824	0.462
Mof_C 	C 	0.5145	0.7948	0.8266	0.46
Mof_C 	C 	0.42499	0.8935	0.11473	0.067
Mof_H 	H 	0.3956	0.9178	0.1262	0.014
Mof_C 	C 	0.4426	0.6784	0.9158	-0.035
Mof_C 	C 	0.47924	0.9195	0.13667	-0.126
Mof_C 	C 	0.41267	0.8323	0.07611	-0.119
Mof_C 	C 	0.52278	0.8853	0.12028	-0.016
Mof_H 	H 	0.5599	0.9033	0.1343	0.072
Mof_C 	C 	0.24802	0.5612	0.09355	-0.081
Mof_C 	C 	0.5478	0.6886	0.8976	-0.043
Mof_H 	H 	0.584	0.6922	0.8922	0.086
Mof_C 	C 	0.505	0.7372	0.86875	-0.096
Mof_C 	C 	0.1995	0.5322	0.1622	-0.045
Mof_C 	C 	0.4569	0.7965	0.0602	-0.017
Mof_H 	H 	0.4504	0.7545	0.0344	0.075
Mof_C 	C 	0.5105	0.8242	0.083	0.066
Mof_C 	C 	0.2678	0.4843	0.0974	-0.054
Mof_H 	H 	0.2923	0.4674	0.0765	0.098
Mof_C 	C 	0.2131	0.5851	0.12543	0.009
Mof_H 	H 	0.1986	0.6373	0.1222	0.041
Mof_C 	C 	0.2512	0.4332	0.1322	0.095
Mof_C 	C 	0.2188	0.456	0.1662	-0.063
Mof_H 	H 	0.2101	0.42	0.1916	0.084
Mof_C 	C 	0.4841	0.6283	0.9436	-0.067
Mof_H 	H 	0.4772	0.5902	0.9686	0.105
Mof_C 	C 	0.5361	0.6352	0.9341	0.107
Mof_C 	C 	0.45296	0.7331	0.87846	0.014
Mof_H 	H 	0.4242	0.7676	0.8596	0.054
Mof_O 	O 	0.31612	0.8423	0.06486	-0.466
Mof_O 	O 	0.572	0.5443	0.0023	-0.095
Mof_O 	O 	0.6263	0.5919	0.9565	-0.098
Mof_O 	O 	0.2461	0.3026	0.1584	-0.123
Mof_O 	O 	0.6047	0.8122	0.0864	-0.098
Mof_O 	O 	0.5473	0.72	0.0423	-0.065
Mof_O 	O 	0.299	0.3298	0.1065	-0.11
Mof_O 	O 	0.9511	0.7553	0.9727	-0.032
Mof_Gd	Gd	0.21815	0.18236	0.55243	1.62
Mof_Gd	Gd	0.40874	0.10052	0.2381	1.68
Mof_O 	O 	0.12362	0.1238	0.54171	-0.342
Mof_O 	O 	0.15039	0.2246	0.59801	-0.401
Mof_O 	O 	0.33782	0.0175	0.26081	-0.403
Mof_O 	O 	0.21363	0.0863	0.48139	-0.409
Mof_O 	O 	0.25176	0.18721	0.44939	-0.501
Mof_O 	O 	0.15152	0.2478	0.48077	-0.429
Mof_O 	O 	0.02815	0.3213	0.70631	-0.506
Mof_O 	O 	0.93665	0.312	0.67329	-0.454
Mof_O 	O 	0.04795	0.5122	0.30633	-0.5
Mof_O 	O 	0.36959	0.1155	0.31797	-0.374
Mof_O 	O 	0.95884	0.5093	0.30647	-0.435
Mof_C 	C 	0.23784	0.116	0.44798	0.4
Mof_C 	C 	0.14579	0.3056	0.44862	0.434
Mof_C 	C 	0.114	0.1754	0.57382	0.292
Mof_N 	N 	0.9193	0.0871	0.5342	-0.012
Mof_C 	C 	0.3384	0.057	0.3033	0.302
Mof_N 	N 	0.94243	0.2862	0.4327	-0.01
Mof_N 	N 	0.234	0.8492	0.3675	-0.01
Mof_C 	C 	0.0079	0.4858	0.32176	0.466
Mof_C 	C 	0.9855	0.2948	0.6734	0.46
Mof_C 	C 	0.07501	0.3935	0.38527	0.067
Mof_H 	H 	0.1044	0.4178	0.3738	0.014
Mof_C 	C 	0.0574	0.1784	0.5842	-0.035
Mof_C 	C 	0.02076	0.4195	0.36333	-0.127
Mof_C 	C 	0.08733	0.3323	0.42389	-0.119
Mof_C 	C 	0.97722	0.3853	0.37972	-0.015
Mof_H 	H 	0.9401	0.4033	0.3657	0.073
Mof_C 	C 	0.25198	0.0612	0.40645	-0.08
Mof_C 	C 	0.9522	0.1886	0.6024	-0.043
Mof_H 	H 	0.916	0.1922	0.6078	0.086
Mof_C 	C 	0.995	0.2372	0.63125	-0.096
Mof_C 	C 	0.3005	0.0322	0.3378	-0.044
Mof_C 	C 	0.0431	0.2965	0.4398	-0.017
Mof_H 	H 	0.0496	0.2545	0.4656	0.075
Mof_C 	C 	0.9895	0.3242	0.417	0.066
Mof_C 	C 	0.2322	0.9843	0.4026	-0.056
Mof_H 	H 	0.2077	0.9674	0.4235	0.098
Mof_C 	C 	0.2869	0.0851	0.37457	0.008
Mof_H 	H 	0.3014	0.1373	0.3778	0.041
Mof_C 	C 	0.2488	0.9332	0.3678	0.096
Mof_C 	C 	0.2812	0.956	0.3338	-0.065
Mof_H 	H 	0.2899	0.92	0.3084	0.084
Mof_C 	C 	0.0159	0.1283	0.5564	-0.067
Mof_H 	H 	0.0228	0.0902	0.5314	0.105
Mof_C 	C 	0.9639	0.1352	0.5659	0.107
Mof_C 	C 	0.04704	0.2331	0.62154	0.014
Mof_H 	H 	0.0758	0.2676	0.6404	0.054
Mof_O 	O 	0.18388	0.3423	0.43514	-0.466
Mof_O 	O 	0.928	0.0443	0.4977	-0.095
Mof_O 	O 	0.8737	0.0919	0.5435	-0.098
Mof_O 	O 	0.2539	0.8026	0.3416	-0.123
Mof_O 	O 	0.8953	0.3122	0.4136	-0.098
Mof_O 	O 	0.9527	0.22	0.4577	-0.067
Mof_O 	O 	0.201	0.8298	0.3935	-0.11
Mof_O 	O 	0.5489	0.2553	0.5273	-0.032
Mof_Gd	Gd	0.71815	0.68236	0.55243	1.62
Mof_Gd	Gd	0.90874	0.60052	0.2381	1.68
Mof_O 	O 	0.62362	0.6238	0.54171	-0.342
Mof_O 	O 	0.65039	0.7246	0.59801	-0.401
Mof_O 	O 	0.83782	0.5175	0.26081	-0.404
Mof_O 	O 	0.71363	0.5863	0.48139	-0.41
Mof_O 	O 	0.75176	0.68721	0.44939	-0.501
Mof_O 	O 	0.65152	0.7478	0.48077	-0.429
Mof_O 	O 	0.52815	0.8213	0.70631	-0.506
Mof_O 	O 	0.43665	0.812	0.67329	-0.454
Mof_O 	O 	0.54795	0.0122	0.30633	-0.499
Mof_O 	O 	0.86959	0.6155	0.31797	-0.375
Mof_O 	O 	0.45884	0.0093	0.30647	-0.434
Mof_C 	C 	0.73784	0.616	0.44798	0.4
Mof_C 	C 	0.64579	0.8056	0.44862	0.434
Mof_C 	C 	0.614	0.6754	0.57382	0.292
Mof_N 	N 	0.4193	0.5871	0.5342	-0.012
Mof_C 	C 	0.8384	0.557	0.3033	0.303
Mof_N 	N 	0.44243	0.7862	0.4327	-0.01
Mof_N 	N 	0.734	0.3492	0.3675	-0.01
Mof_C 	C 	0.5079	0.9858	0.32176	0.464
Mof_C 	C 	0.4855	0.7948	0.6734	0.46
Mof_C 	C 	0.57501	0.8935	0.38527	0.067
Mof_H 	H 	0.6044	0.9178	0.3738	0.014
Mof_C 	C 	0.5574	0.6784	0.5842	-0.035
Mof_C 	C 	0.52076	0.9195	0.36333	-0.126
Mof_C 	C 	0.58733	0.8323	0.42389	-0.119
Mof_C 	C 	0.47722	0.8853	0.37972	-0.015
Mof_H 	H 	0.4401	0.9033	0.3657	0.073
Mof_C 	C 	0.75198	0.5612	0.40645	-0.081
Mof_C 	C 	0.4522	0.6886	0.6024	-0.043
Mof_H 	H 	0.416	0.6922	0.6078	0.086
Mof_C 	C 	0.495	0.7372	0.63125	-0.096
Mof_C 	C 	0.8005	0.5322	0.3378	-0.045
Mof_C 	C 	0.5431	0.7965	0.4398	-0.017
Mof_H 	H 	0.5496	0.7545	0.4656	0.075
Mof_C 	C 	0.4895	0.8242	0.417	0.066
Mof_C 	C 	0.7322	0.4843	0.4026	-0.054
Mof_H 	H 	0.7077	0.4674	0.4235	0.098
Mof_C 	C 	0.7869	0.5851	0.37457	0.009
Mof_H 	H 	0.8014	0.6373	0.3778	0.04
Mof_C 	C 	0.7488	0.4332	0.3678	0.095
Mof_C 	C 	0.7812	0.456	0.3338	-0.063
Mof_H 	H 	0.7899	0.42	0.3084	0.084
Mof_C 	C 	0.5159	0.6283	0.5564	-0.067
Mof_H 	H 	0.5228	0.5902	0.5314	0.105
Mof_C 	C 	0.4639	0.6352	0.5659	0.107
Mof_C 	C 	0.54704	0.7331	0.62154	0.014
Mof_H 	H 	0.5758	0.7676	0.6404	0.054
Mof_O 	O 	0.68388	0.8423	0.43514	-0.466
Mof_O 	O 	0.428	0.5443	0.4977	-0.095
Mof_O 	O 	0.3737	0.5919	0.5435	-0.098
Mof_O 	O 	0.7539	0.3026	0.3416	-0.123
Mof_O 	O 	0.3953	0.8122	0.4136	-0.098
Mof_O 	O 	0.4527	0.72	0.4577	-0.067
Mof_O 	O 	0.701	0.3298	0.3935	-0.11
Mof_O 	O 	0.0489	0.7553	0.5273	-0.032
_end
