# CIF file generated by openbabel 3.1.0, see https://openbabel.org
data_I
_chemical_name_common 'MURCAD_clean'
_cell_length_a 10.154
_cell_length_b 10.154
_cell_length_c 15.5121
_cell_angle_alpha 72.0821
_cell_angle_beta 72.0821
_cell_angle_gamma 86.5078
_space_group_name_H-M_alt 'P 1'
_space_group_name_Hall 'P 1'
loop_
    _symmetry_equiv_pos_as_xyz
    x,y,z
loop_
    _atom_site_label
    _atom_site_type_symbol
    _atom_site_fract_x
    _atom_site_fract_y
    _atom_site_fract_z
    _atom_site_occupancy
    Cu1      Cu       0.55399    0.00801    0.31352    1.000
    Cu2      Cu       0.99199    0.44601    0.18648    1.000
    Cu3      Cu       0.44601    0.99199    0.68648    1.000
    Cu4      Cu       0.00801    0.55399    0.81352    1.000
    H1       H        0.83800    0.15400    0.02600    1.000
    H2       H        0.77600    0.20000    0.31100    1.000
    H3       H        0.42900    0.25700    0.37400    1.000
    H4       H        0.57200    0.23200    0.40600    1.000
    H5       H        0.43800    0.27800    0.21700    1.000
    H6       H        0.59700    0.24900    0.15400    1.000
    H7       H        0.40200    0.48400    0.27300    1.000
    H8       H        0.84600    0.16200    0.47400    1.000
    H9       H        0.80000    0.22400    0.18900    1.000
    H10      H        0.74300    0.57100    0.12600    1.000
    H11      H        0.76800    0.42800    0.09400    1.000
    H12      H        0.72200    0.56200    0.28300    1.000
    H13      H        0.75100    0.40300    0.34600    1.000
    H14      H        0.51600    0.59800    0.22700    1.000
    H15      H        0.16200    0.84600    0.97400    1.000
    H16      H        0.22400    0.80000    0.68900    1.000
    H17      H        0.57100    0.74300    0.62600    1.000
    H18      H        0.42800    0.76800    0.59400    1.000
    H19      H        0.56200    0.72200    0.78300    1.000
    H20      H        0.40300    0.75100    0.84600    1.000
    H21      H        0.59800    0.51600    0.72700    1.000
    H22      H        0.15400    0.83800    0.52600    1.000
    H23      H        0.20000    0.77600    0.81100    1.000
    H24      H        0.25700    0.42900    0.87400    1.000
    H25      H        0.23200    0.57200    0.90600    1.000
    H26      H        0.27800    0.43800    0.71700    1.000
    H27      H        0.24900    0.59700    0.65400    1.000
    H28      H        0.48400    0.40200    0.77300    1.000
    C1       C        0.87960    0.96180    0.07670    1.000
    C2       C        0.98080    0.86500    0.06110    1.000
    C3       C        0.90190    0.09450    0.01590    1.000
    C4       C        0.74710    0.92250    0.15630    1.000
    C5       C        0.96830    0.72050    0.12850    1.000
    C6       C        0.52850    0.27630    0.35880    1.000
    C7       C        0.54700    0.29540    0.19640    1.000
    C8       C        0.03820    0.12040    0.42330    1.000
    C9       C        0.13500    0.01920    0.43890    1.000
    C10      C        0.90550    0.09810    0.48410    1.000
    C11      C        0.07750    0.25290    0.34370    1.000
    C12      C        0.27950    0.03170    0.37150    1.000
    C13      C        0.72370    0.47150    0.14120    1.000
    C14      C        0.70460    0.45300    0.30360    1.000
    C15      C        0.12040    0.03820    0.92330    1.000
    C16      C        0.01920    0.13500    0.93890    1.000
    C17      C        0.09810    0.90550    0.98410    1.000
    C18      C        0.25290    0.07750    0.84370    1.000
    C19      C        0.03170    0.27950    0.87150    1.000
    C20      C        0.47150    0.72370    0.64120    1.000
    C21      C        0.45300    0.70460    0.80360    1.000
    C22      C        0.96180    0.87960    0.57670    1.000
    C23      C        0.86500    0.98080    0.56110    1.000
    C24      C        0.09450    0.90190    0.51590    1.000
    C25      C        0.92250    0.74710    0.65630    1.000
    C26      C        0.72050    0.96830    0.62850    1.000
    C27      C        0.27630    0.52850    0.85880    1.000
    C28      C        0.29540    0.54700    0.69640    1.000
    C29      C        0.74910    0.25090    0.25000    1.000
    C30      C        0.50580    0.49420    0.25000    1.000
    C31      C        0.25090    0.74910    0.75000    1.000
    C32      C        0.49420    0.50580    0.75000    1.000
    N1       N        0.59710    0.21930    0.27860    1.000
    N2       N        0.55700    0.42500    0.33130    1.000
    N3       N        0.78070    0.40290    0.22140    1.000
    N4       N        0.57500    0.44300    0.16870    1.000
    N5       N        0.40290    0.78070    0.72140    1.000
    N6       N        0.44300    0.57500    0.66870    1.000
    N7       N        0.21930    0.59710    0.77860    1.000
    N8       N        0.42500    0.55700    0.83130    1.000
    O1       O        0.70380    0.01160    0.19910    1.000
    O2       O        0.68640    0.81100    0.17310    1.000
    O3       O        0.98630    0.62350    0.08920    1.000
    O4       O        0.94620    0.70040    0.21310    1.000
    O5       O        0.98840    0.29620    0.30090    1.000
    O6       O        0.18900    0.31360    0.32690    1.000
    O7       O        0.37650    0.01370    0.41080    1.000
    O8       O        0.29960    0.05380    0.28690    1.000
    O9       O        0.29620    0.98840    0.80090    1.000
    O10      O        0.31360    0.18900    0.82690    1.000
    O11      O        0.01370    0.37650    0.91080    1.000
    O12      O        0.05380    0.29960    0.78690    1.000
    O13      O        0.01160    0.70380    0.69910    1.000
    O14      O        0.81100    0.68640    0.67310    1.000
    O15      O        0.62350    0.98630    0.58920    1.000
    O16      O        0.70040    0.94620    0.71310    1.000
