# CIF file generated by openbabel 3.1.0, see https://openbabel.org
data_I
_chemical_name_common 'image0'
_cell_length_a 16.7033
_cell_length_b 20.0195
_cell_length_c 17.4602
_cell_angle_alpha 90
_cell_angle_beta 100.423
_cell_angle_gamma 90
_space_group_name_H-M_alt 'P 1'
_space_group_name_Hall 'P 1'
loop_
    _symmetry_equiv_pos_as_xyz
    x,y,z
loop_
    _atom_site_label
    _atom_site_type_symbol
    _atom_site_fract_x
    _atom_site_fract_y
    _atom_site_fract_z
    _atom_site_occupancy
    Co1      Co       0.96851    0.33096    0.74136    1.000
    Co2      Co       0.86543    0.36639    0.54754    1.000
    Co3      Co       0.09065    0.35220    0.93744    1.000
    S1       S        0.45430    0.22236    0.73844    1.000
    S2       S        0.60746    0.48977    0.95545    1.000
    S3       S        0.45469    0.43097    0.65249    1.000
    O1       O        0.48590    0.23910    0.15890    1.000
    O2       O        0.09090    0.35580    0.74670    1.000
    O3       O        0.94890    0.39740    0.82830    1.000
    O4       O        0.50260    0.75750    0.67280    1.000
    O5       O        0.56040    0.90800    0.83970    1.000
    O6       O        0.84410    0.30660    0.73060    1.000
    O7       O        0.59090    0.95750    0.95050    1.000
    O8       O        0.44850    0.20070    0.03580    1.000
    O9       O        0.78570    0.32720    0.60540    1.000
    O10      O        0.40980    0.75520    0.56460    1.000
    O11      O        0.99040    0.39310    0.95770    1.000
    O12      O        0.15550    0.38910    0.86420    1.000
    O13      O        0.40110    0.21520    0.66390    1.000
    O14      O        0.43060    0.26480    0.79750    1.000
    O15      O        0.55740    0.50440    0.88090    1.000
    O16      O        0.61620    0.53830    0.01740    1.000
    O17      O        0.52460    0.41490    0.71080    1.000
    O18      O        0.44430    0.40150    0.57610    1.000
    C1       C        0.78470    0.30870    0.67600    1.000
    C2       C        0.70300    0.28690    0.69220    1.000
    C3       C        0.64000    0.27540    0.62960    1.000
    H1       H        0.64860    0.28140    0.57890    1.000
    C4       C        0.56400    0.25480    0.64310    1.000
    H2       H        0.52230    0.24580    0.60140    1.000
    C5       C        0.55080    0.24790    0.71960    1.000
    C6       C        0.61310    0.26000    0.78310    1.000
    H3       H        0.60390    0.25600    0.83390    1.000
    C7       C        0.68840    0.27790    0.76840    1.000
    H4       H        0.73100    0.28420    0.81020    1.000
    C8       C        0.47420    0.14270    0.78020    1.000
    C9       C        0.47650    0.08860    0.73090    1.000
    H5       H        0.46250    0.09340    0.67710    1.000
    C10      C        0.50010    0.02790    0.76390    1.000
    H6       H        0.50060    0.99050    0.73240    1.000
    C11      C        0.52310    0.02220    0.84410    1.000
    C12      C        0.52100    0.07570    0.89300    1.000
    H7       H        0.53660    0.07090    0.94660    1.000
    C13      C        0.49560    0.13670    0.86100    1.000
    H8       H        0.49270    0.17350    0.89290    1.000
    C14      C        0.55730    0.95850    0.87880    1.000
    C15      C        0.93750    0.40440    0.89750    1.000
    C16      C        0.85640    0.42930    0.91190    1.000
    C17      C        0.78990    0.42510    0.85100    1.000
    H9       H        0.79650    0.40990    0.80210    1.000
    C18      C        0.71380    0.44380    0.86460    1.000
    H10      H        0.66840    0.43980    0.82540    1.000
    C19      C        0.70580    0.46870    0.93740    1.000
    C20      C        0.77130    0.47540    0.99770    1.000
    H11      H        0.76500    0.49330    0.04540    1.000
    C21      C        0.84720    0.45460    0.98450    1.000
    H12      H        0.89220    0.45750    0.02440    1.000
    C22      C        0.57270    0.41610    0.99230    1.000
    C23      C        0.53210    0.36980    0.94150    1.000
    H13      H        0.52430    0.37670    0.88800    1.000
    C24      C        0.50310    0.31300    0.97150    1.000
    H14      H        0.47540    0.28120    0.93800    1.000
    C25      C        0.51510    0.30270    0.05240    1.000
    C26      C        0.55610    0.34950    0.10210    1.000
    H15      H        0.56420    0.34260    0.15560    1.000
    C27      C        0.58520    0.40670    0.07280    1.000
    H16      H        0.61280    0.43860    0.10630    1.000
    C28      C        0.48150    0.24190    0.08580    1.000
    C29      C        0.15050    0.37770    0.79140    1.000
    C30      C        0.22670    0.39240    0.75660    1.000
    C31      C        0.29620    0.41550    0.80370    1.000
    H17      H        0.29660    0.42300    0.85640    1.000
    C32      C        0.36600    0.42790    0.77260    1.000
    H18      H        0.41240    0.44490    0.80410    1.000
    C33      C        0.36620    0.41460    0.69380    1.000
    C34      C        0.29790    0.38910    0.64680    1.000
    H19      H        0.29820    0.37970    0.59470    1.000
    C35      C        0.22850    0.37780    0.67850    1.000
    H20      H        0.18240    0.36010    0.64720    1.000
    C36      C        0.45220    0.51850    0.64110    1.000
    C37      C        0.48870    0.55650    0.70410    1.000
    H21      H        0.51260    0.53630    0.75050    1.000
    C38      C        0.48870    0.62400    0.69650    1.000
    H22      H        0.51320    0.65040    0.73800    1.000
    C39      C        0.45230    0.65360    0.62680    1.000
    C40      C        0.41330    0.61480    0.56550    1.000
    H23      H        0.38640    0.63490    0.52000    1.000
    C41      C        0.41470    0.54690    0.57250    1.000
    H24      H        0.39040    0.52020    0.53120    1.000
    C42      C        0.45490    0.72750    0.62180    1.000
    Co4      Co       0.53149    0.83096    0.75864    1.000
    Co5      Co       0.63457    0.86639    0.95246    1.000
    Co6      Co       0.40935    0.85220    0.56256    1.000
    S4       S        0.04570    0.72236    0.76156    1.000
    S5       S        0.89254    0.98977    0.54455    1.000
    S6       S        0.04531    0.93097    0.84751    1.000
    O19      O        0.01410    0.73910    0.34110    1.000
    O20      O        0.40910    0.85580    0.75330    1.000
    O21      O        0.55110    0.89740    0.67170    1.000
    O22      O        0.99740    0.25750    0.82720    1.000
    O23      O        0.93960    0.40800    0.66030    1.000
    O24      O        0.65590    0.80660    0.76940    1.000
    O25      O        0.90910    0.45750    0.54950    1.000
    O26      O        0.05150    0.70070    0.46420    1.000
    O27      O        0.71430    0.82720    0.89460    1.000
    O28      O        0.09020    0.25520    0.93540    1.000
    O29      O        0.50960    0.89310    0.54230    1.000
    O30      O        0.34450    0.88910    0.63580    1.000
    O31      O        0.09890    0.71520    0.83610    1.000
    O32      O        0.06940    0.76480    0.70250    1.000
    O33      O        0.94260    0.00440    0.61910    1.000
    O34      O        0.88380    0.03830    0.48260    1.000
    O35      O        0.97540    0.91490    0.78920    1.000
    O36      O        0.05570    0.90150    0.92390    1.000
    C43      C        0.71530    0.80870    0.82400    1.000
    C44      C        0.79700    0.78690    0.80780    1.000
    C45      C        0.86000    0.77540    0.87040    1.000
    H25      H        0.85140    0.78140    0.92110    1.000
    C46      C        0.93600    0.75480    0.85690    1.000
    H26      H        0.97770    0.74580    0.89860    1.000
    C47      C        0.94920    0.74790    0.78040    1.000
    C48      C        0.88690    0.76000    0.71690    1.000
    H27      H        0.89610    0.75600    0.66610    1.000
    C49      C        0.81160    0.77790    0.73160    1.000
    H28      H        0.76900    0.78420    0.68980    1.000
    C50      C        0.02580    0.64270    0.71980    1.000
    C51      C        0.02350    0.58860    0.76910    1.000
    H29      H        0.03750    0.59340    0.82290    1.000
    C52      C        0.99990    0.52790    0.73610    1.000
    H30      H        0.99940    0.49050    0.76760    1.000
    C53      C        0.97690    0.52220    0.65590    1.000
    C54      C        0.97900    0.57570    0.60700    1.000
    H31      H        0.96340    0.57090    0.55340    1.000
    C55      C        0.00440    0.63670    0.63900    1.000
    H32      H        0.00730    0.67350    0.60710    1.000
    C56      C        0.94270    0.45850    0.62120    1.000
    C57      C        0.56250    0.90440    0.60250    1.000
    C58      C        0.64360    0.92930    0.58810    1.000
    C59      C        0.71010    0.92510    0.64900    1.000
    H33      H        0.70350    0.90990    0.69790    1.000
    C60      C        0.78620    0.94380    0.63540    1.000
    H34      H        0.83160    0.93980    0.67460    1.000
    C61      C        0.79420    0.96870    0.56260    1.000
    C62      C        0.72870    0.97540    0.50230    1.000
    H35      H        0.73500    0.99330    0.45460    1.000
    C63      C        0.65280    0.95460    0.51550    1.000
    H36      H        0.60780    0.95750    0.47560    1.000
    C64      C        0.92730    0.91610    0.50770    1.000
    C65      C        0.96790    0.86980    0.55850    1.000
    H37      H        0.97570    0.87670    0.61200    1.000
    C66      C        0.99690    0.81300    0.52850    1.000
    H38      H        0.02460    0.78120    0.56200    1.000
    C67      C        0.98490    0.80270    0.44760    1.000
    C68      C        0.94390    0.84950    0.39790    1.000
    H39      H        0.93580    0.84260    0.34440    1.000
    C69      C        0.91480    0.90670    0.42720    1.000
    H40      H        0.88720    0.93860    0.39370    1.000
    C70      C        0.01850    0.74190    0.41420    1.000
    C71      C        0.34950    0.87770    0.70860    1.000
    C72      C        0.27330    0.89240    0.74340    1.000
    C73      C        0.20380    0.91550    0.69630    1.000
    H41      H        0.20340    0.92300    0.64360    1.000
    C74      C        0.13400    0.92790    0.72740    1.000
    H42      H        0.08760    0.94490    0.69590    1.000
    C75      C        0.13380    0.91460    0.80620    1.000
    C76      C        0.20210    0.88910    0.85320    1.000
    H43      H        0.20180    0.87970    0.90530    1.000
    C77      C        0.27150    0.87780    0.82150    1.000
    H44      H        0.31760    0.86010    0.85280    1.000
    C78      C        0.04780    0.01850    0.85890    1.000
    C79      C        0.01130    0.05650    0.79590    1.000
    H45      H        0.98740    0.03630    0.74950    1.000
    C80      C        0.01130    0.12400    0.80350    1.000
    H46      H        0.98680    0.15040    0.76200    1.000
    C81      C        0.04770    0.15360    0.87320    1.000
    C82      C        0.08670    0.11480    0.93450    1.000
    H47      H        0.11360    0.13490    0.98000    1.000
    C83      C        0.08530    0.04690    0.92750    1.000
    H48      H        0.10960    0.02020    0.96880    1.000
    C84      C        0.04510    0.22750    0.87820    1.000
    Co7      Co       0.03149    0.66904    0.25864    1.000
    Co8      Co       0.13457    0.63361    0.45246    1.000
    Co9      Co       0.90935    0.64780    0.06256    1.000
    S7       S        0.54570    0.77764    0.26156    1.000
    S8       S        0.39254    0.51023    0.04455    1.000
    S9       S        0.54531    0.56903    0.34751    1.000
    O37      O        0.51410    0.76090    0.84110    1.000
    O38      O        0.90910    0.64420    0.25330    1.000
    O39      O        0.05110    0.60260    0.17170    1.000
    O40      O        0.49740    0.24250    0.32720    1.000
    O41      O        0.43960    0.09200    0.16030    1.000
    O42      O        0.15590    0.69340    0.26940    1.000
    O43      O        0.40910    0.04250    0.04950    1.000
    O44      O        0.55150    0.79930    0.96420    1.000
    O45      O        0.21430    0.67280    0.39460    1.000
    O46      O        0.59020    0.24480    0.43540    1.000
    O47      O        0.00960    0.60690    0.04230    1.000
    O48      O        0.84450    0.61090    0.13580    1.000
    O49      O        0.59890    0.78480    0.33610    1.000
    O50      O        0.56940    0.73520    0.20250    1.000
    O51      O        0.44260    0.49560    0.11910    1.000
    O52      O        0.38380    0.46170    0.98260    1.000
    O53      O        0.47540    0.58510    0.28920    1.000
    O54      O        0.55570    0.59850    0.42390    1.000
    C85      C        0.21530    0.69130    0.32400    1.000
    C86      C        0.29700    0.71310    0.30780    1.000
    C87      C        0.36000    0.72460    0.37040    1.000
    H49      H        0.35140    0.71860    0.42110    1.000
    C88      C        0.43600    0.74520    0.35690    1.000
    H50      H        0.47770    0.75420    0.39860    1.000
    C89      C        0.44920    0.75210    0.28040    1.000
    C90      C        0.38690    0.74000    0.21690    1.000
    H51      H        0.39610    0.74400    0.16610    1.000
    C91      C        0.31160    0.72210    0.23160    1.000
    H52      H        0.26900    0.71580    0.18980    1.000
    C92      C        0.52580    0.85730    0.21980    1.000
    C93      C        0.52350    0.91140    0.26910    1.000
    H53      H        0.53750    0.90660    0.32290    1.000
    C94      C        0.49990    0.97210    0.23610    1.000
    H54      H        0.49940    0.00950    0.26760    1.000
    C95      C        0.47690    0.97780    0.15590    1.000
    C96      C        0.47900    0.92430    0.10700    1.000
    H55      H        0.46340    0.92910    0.05340    1.000
    C97      C        0.50440    0.86330    0.13900    1.000
    H56      H        0.50730    0.82650    0.10710    1.000
    C98      C        0.44270    0.04150    0.12120    1.000
    C99      C        0.06250    0.59560    0.10250    1.000
    C100     C        0.14360    0.57070    0.08810    1.000
    C101     C        0.21010    0.57490    0.14900    1.000
    H57      H        0.20350    0.59010    0.19790    1.000
    C102     C        0.28620    0.55620    0.13540    1.000
    H58      H        0.33160    0.56020    0.17460    1.000
    C103     C        0.29420    0.53130    0.06260    1.000
    C104     C        0.22870    0.52460    0.00230    1.000
    H59      H        0.23500    0.50670    0.95460    1.000
    C105     C        0.15280    0.54540    0.01550    1.000
    H60      H        0.10780    0.54250    0.97560    1.000
    C106     C        0.42730    0.58390    0.00770    1.000
    C107     C        0.46790    0.63020    0.05850    1.000
    H61      H        0.47570    0.62330    0.11200    1.000
    C108     C        0.49690    0.68700    0.02850    1.000
    H62      H        0.52460    0.71880    0.06200    1.000
    C109     C        0.48490    0.69730    0.94760    1.000
    C110     C        0.44390    0.65050    0.89790    1.000
    H63      H        0.43580    0.65740    0.84440    1.000
    C111     C        0.41480    0.59330    0.92720    1.000
    H64      H        0.38720    0.56140    0.89370    1.000
    C112     C        0.51850    0.75810    0.91420    1.000
    C113     C        0.84950    0.62230    0.20860    1.000
    C114     C        0.77330    0.60760    0.24340    1.000
    C115     C        0.70380    0.58450    0.19630    1.000
    H65      H        0.70340    0.57700    0.14360    1.000
    C116     C        0.63400    0.57210    0.22740    1.000
    H66      H        0.58760    0.55510    0.19590    1.000
    C117     C        0.63380    0.58540    0.30620    1.000
    C118     C        0.70210    0.61090    0.35320    1.000
    H67      H        0.70180    0.62030    0.40530    1.000
    C119     C        0.77150    0.62220    0.32150    1.000
    H68      H        0.81760    0.63990    0.35280    1.000
    C120     C        0.54780    0.48150    0.35890    1.000
    C121     C        0.51130    0.44350    0.29590    1.000
    H69      H        0.48740    0.46370    0.24950    1.000
    C122     C        0.51130    0.37600    0.30350    1.000
    H70      H        0.48680    0.34960    0.26200    1.000
    C123     C        0.54770    0.34640    0.37320    1.000
    C124     C        0.58670    0.38520    0.43450    1.000
    H71      H        0.61360    0.36510    0.48000    1.000
    C125     C        0.58530    0.45310    0.42750    1.000
    H72      H        0.60960    0.47980    0.46880    1.000
    C126     C        0.54510    0.27250    0.37820    1.000
    Co10     Co       0.46851    0.16904    0.24136    1.000
    Co11     Co       0.36543    0.13361    0.04754    1.000
    Co12     Co       0.59065    0.14780    0.43744    1.000
    S10      S        0.95430    0.27764    0.23844    1.000
    S11      S        0.10746    0.01023    0.45545    1.000
    S12      S        0.95469    0.06903    0.15249    1.000
    O55      O        0.98590    0.26090    0.65890    1.000
    O56      O        0.59090    0.14420    0.24670    1.000
    O57      O        0.44890    0.10260    0.32830    1.000
    O58      O        0.00260    0.74250    0.17280    1.000
    O59      O        0.06040    0.59200    0.33970    1.000
    O60      O        0.34410    0.19340    0.23060    1.000
    O61      O        0.09090    0.54250    0.45050    1.000
    O62      O        0.94850    0.29930    0.53580    1.000
    O63      O        0.28570    0.17280    0.10540    1.000
    O64      O        0.90980    0.74480    0.06460    1.000
    O65      O        0.49040    0.10690    0.45770    1.000
    O66      O        0.65550    0.11090    0.36420    1.000
    O67      O        0.90110    0.28480    0.16390    1.000
    O68      O        0.93060    0.23520    0.29750    1.000
    O69      O        0.05740    0.99560    0.38090    1.000
    O70      O        0.11620    0.96170    0.51740    1.000
    O71      O        0.02460    0.08510    0.21080    1.000
    O72      O        0.94430    0.09850    0.07610    1.000
    C127     C        0.28470    0.19130    0.17600    1.000
    C128     C        0.20300    0.21310    0.19220    1.000
    C129     C        0.14000    0.22460    0.12960    1.000
    H73      H        0.14860    0.21860    0.07890    1.000
    C130     C        0.06400    0.24520    0.14310    1.000
    H74      H        0.02230    0.25420    0.10140    1.000
    C131     C        0.05080    0.25210    0.21960    1.000
    C132     C        0.11310    0.24000    0.28310    1.000
    H75      H        0.10390    0.24400    0.33390    1.000
    C133     C        0.18840    0.22210    0.26840    1.000
    H76      H        0.23100    0.21580    0.31020    1.000
    C134     C        0.97420    0.35730    0.28020    1.000
    C135     C        0.97650    0.41140    0.23090    1.000
    H77      H        0.96250    0.40660    0.17710    1.000
    C136     C        0.00010    0.47210    0.26390    1.000
    H78      H        0.00060    0.50950    0.23240    1.000
    C137     C        0.02310    0.47780    0.34410    1.000
    C138     C        0.02100    0.42430    0.39300    1.000
    H79      H        0.03660    0.42910    0.44660    1.000
    C139     C        0.99560    0.36330    0.36100    1.000
    H80      H        0.99270    0.32650    0.39290    1.000
    C140     C        0.05730    0.54150    0.37880    1.000
    C141     C        0.43750    0.09560    0.39750    1.000
    C142     C        0.35640    0.07070    0.41190    1.000
    C143     C        0.28990    0.07490    0.35100    1.000
    H81      H        0.29650    0.09010    0.30210    1.000
    C144     C        0.21380    0.05620    0.36460    1.000
    H82      H        0.16840    0.06020    0.32540    1.000
    C145     C        0.20580    0.03130    0.43740    1.000
    C146     C        0.27130    0.02460    0.49770    1.000
    H83      H        0.26500    0.00670    0.54540    1.000
    C147     C        0.34720    0.04540    0.48450    1.000
    H84      H        0.39220    0.04250    0.52440    1.000
    C148     C        0.07270    0.08390    0.49230    1.000
    C149     C        0.03210    0.13020    0.44150    1.000
    H85      H        0.02430    0.12330    0.38800    1.000
    C150     C        0.00310    0.18700    0.47150    1.000
    H86      H        0.97540    0.21880    0.43800    1.000
    C151     C        0.01510    0.19730    0.55240    1.000
    C152     C        0.05610    0.15050    0.60210    1.000
    H87      H        0.06420    0.15740    0.65560    1.000
    C153     C        0.08520    0.09330    0.57280    1.000
    H88      H        0.11280    0.06140    0.60630    1.000
    C154     C        0.98150    0.25810    0.58580    1.000
    C155     C        0.65050    0.12230    0.29140    1.000
    C156     C        0.72670    0.10760    0.25660    1.000
    C157     C        0.79620    0.08450    0.30370    1.000
    H89      H        0.79660    0.07700    0.35640    1.000
    C158     C        0.86600    0.07210    0.27260    1.000
    H90      H        0.91240    0.05510    0.30410    1.000
    C159     C        0.86620    0.08540    0.19380    1.000
    C160     C        0.79790    0.11090    0.14680    1.000
    H91      H        0.79820    0.12030    0.09470    1.000
    C161     C        0.72850    0.12220    0.17850    1.000
    H92      H        0.68240    0.13990    0.14720    1.000
    C162     C        0.95220    0.98150    0.14110    1.000
    C163     C        0.98870    0.94350    0.20410    1.000
    H93      H        0.01260    0.96370    0.25050    1.000
    C164     C        0.98870    0.87600    0.19650    1.000
    H94      H        0.01320    0.84960    0.23800    1.000
    C165     C        0.95230    0.84640    0.12680    1.000
    C166     C        0.91330    0.88520    0.06550    1.000
    H95      H        0.88640    0.86510    0.02000    1.000
    C167     C        0.91470    0.95310    0.07250    1.000
    H96      H        0.89040    0.97980    0.03120    1.000
    C168     C        0.95490    0.77250    0.12180    1.000
