data_functionalizedCrystal
_audit_creation_method	'EQeq! by Chris Wilmer'
_symmetry_space_group_name_H-M	'P1'
_symmetry_Int_Tables_number	1
_symmetry_cell_setting	triclinic
loop_
_symmetry_equiv_pos_as_xyz
  x,y,z
_cell_length_a	7.2039
_cell_length_b	8.7309
_cell_length_c	16.234
_cell_angle_alpha	90
_cell_angle_beta	90
_cell_angle_gamma	90
loop_
_atom_site_label
_atom_site_type_symbol
_atom_site_fract_x
_atom_site_fract_y
_atom_site_fract_z
_atom_site_charge
Mof_Zn	Zn	0.25785	0.45765	0.95897	1.201
Mof_Zn	Zn	0.24215	0.54235	0.45897	1.202
Mof_Zn	Zn	0.74215	0.95765	0.54103	1.202
Mof_Zn	Zn	0.75785	0.04235	0.04103	1.201
Mof_H 	H 	0.0922	0.6742	0.6164	-0.048
Mof_H 	H 	0.8433	0.5225	0.9194	-0.036
Mof_H 	H 	0.809	0.6275	0.6802	0.006
Mof_H 	H 	0.6692	0.6051	0.8086	0.053
Mof_H 	H 	0.2759	0.4692	0.779	-0.018
Mof_H 	H 	0.234	0.4671	0.5416	-0.12
Mof_H 	H 	0.0365	0.444	0.5658	0.071
Mof_H 	H 	0.3161	0.7418	0.6921	0.213
Mof_H 	H 	0.4187	0.5869	0.6788	0.2
Mof_H 	H 	0.4078	0.3258	0.1164	-0.048
Mof_H 	H 	0.6567	0.4775	0.4194	-0.035
Mof_H 	H 	0.691	0.3725	0.1802	0.007
Mof_H 	H 	0.8308	0.3949	0.3086	0.052
Mof_H 	H 	0.2241	0.5308	0.279	-0.018
Mof_H 	H 	0.266	0.5329	0.0416	-0.119
Mof_H 	H 	0.4635	0.556	0.0658	0.072
Mof_H 	H 	0.1839	0.2582	0.1921	0.214
Mof_H 	H 	0.0813	0.4131	0.1788	0.2
Mof_H 	H 	0.9078	0.1742	0.8836	-0.047
Mof_H 	H 	0.1567	0.0225	0.5806	-0.035
Mof_H 	H 	0.191	0.1275	0.8198	0.007
Mof_H 	H 	0.3308	0.1051	0.6914	0.052
Mof_H 	H 	0.7241	0.9692	0.721	-0.02
Mof_H 	H 	0.766	0.9671	0.9584	-0.12
Mof_H 	H 	0.9635	0.944	0.9342	0.071
Mof_H 	H 	0.6839	0.2418	0.8079	0.213
Mof_H 	H 	0.5813	0.0869	0.8212	0.2
Mof_H 	H 	0.5922	0.8258	0.3836	-0.047
Mof_H 	H 	0.3433	0.9775	0.0806	-0.035
Mof_H 	H 	0.309	0.8725	0.3198	0.007
Mof_H 	H 	0.1692	0.8949	0.1914	0.053
Mof_H 	H 	0.7759	0.0308	0.221	-0.018
Mof_H 	H 	0.734	0.0329	0.4584	-0.12
Mof_H 	H 	0.5365	0.056	0.4342	0.071
Mof_H 	H 	0.8161	0.7582	0.3079	0.212
Mof_H 	H 	0.9187	0.9131	0.3212	0.199
Mof_C 	C 	0.1645	0.5873	0.6371	0.266
Mof_C 	C 	0.0621	0.5556	0.7165	-0.137
Mof_C 	C 	0.8991	0.5303	0.8679	0.072
Mof_C 	C 	0.8771	0.5935	0.7253	0.047
Mof_C 	C 	0.7939	0.5805	0.8017	-0.147
Mof_C 	C 	0.1537	0.5015	0.7852	0.058
Mof_C 	C 	0.3389	0.6614	0.6521	-0.619
Mof_C 	C 	0.4499	0.7321	0.5829	0.551
Mof_C 	C 	0.3355	0.4127	0.1371	0.265
Mof_C 	C 	0.4379	0.4444	0.2165	-0.134
Mof_C 	C 	0.6009	0.4697	0.3679	0.069
Mof_C 	C 	0.6229	0.4065	0.2253	0.044
Mof_C 	C 	0.7061	0.4195	0.3017	-0.144
Mof_C 	C 	0.3463	0.4985	0.2852	0.058
Mof_C 	C 	0.1611	0.3386	0.1521	-0.619
Mof_C 	C 	0.0501	0.2679	0.0829	0.552
Mof_C 	C 	0.8355	0.0873	0.8629	0.266
Mof_C 	C 	0.9379	0.0556	0.7835	-0.133
Mof_C 	C 	0.1009	0.0303	0.6321	0.069
Mof_C 	C 	0.1229	0.0935	0.7747	0.041
Mof_C 	C 	0.2061	0.0805	0.6983	-0.143
Mof_C 	C 	0.8463	0.0015	0.7148	0.06
Mof_C 	C 	0.6611	0.1614	0.8479	-0.619
Mof_C 	C 	0.5501	0.2321	0.9171	0.551
Mof_C 	C 	0.6645	0.9127	0.3629	0.263
Mof_C 	C 	0.5621	0.9444	0.2835	-0.133
Mof_C 	C 	0.3991	0.9697	0.1321	0.07
Mof_C 	C 	0.3771	0.9065	0.2747	0.044
Mof_C 	C 	0.2939	0.9195	0.1983	-0.144
Mof_C 	C 	0.6537	0.9985	0.2148	0.058
Mof_C 	C 	0.8389	0.8386	0.3479	-0.617
Mof_C 	C 	0.9499	0.7679	0.4171	0.549
Mof_N 	N 	0.0773	0.4928	0.8603	-0.265
Mof_N 	N 	0.1423	0.4872	0.5737	-0.282
Mof_N 	N 	0.4227	0.5072	0.3603	-0.263
Mof_N 	N 	0.3577	0.5128	0.0737	-0.282
Mof_N 	N 	0.9227	0.9928	0.6397	-0.264
Mof_N 	N 	0.8577	0.9872	0.9263	-0.282
Mof_N 	N 	0.5773	0.0072	0.1397	-0.263
Mof_N 	N 	0.6423	0.0128	0.4263	-0.281
Mof_O 	O 	0.5721	0.8241	0.6053	-0.541
Mof_O 	O 	0.421	0.6984	0.5094	-0.529
Mof_O 	O 	0.9279	0.1759	0.1053	-0.542
Mof_O 	O 	0.079	0.3016	0.0094	-0.528
Mof_O 	O 	0.4279	0.3241	0.8947	-0.541
Mof_O 	O 	0.579	0.1984	0.9906	-0.528
Mof_O 	O 	0.0721	0.6759	0.3947	-0.54
Mof_O 	O 	0.921	0.8016	0.4906	-0.528
_end
