data_functionalizedCrystal
_audit_creation_method	'EQeq! by Chris Wilmer'
_symmetry_space_group_name_H-M	'P1'
_symmetry_Int_Tables_number	1
_symmetry_cell_setting	triclinic
loop_
_symmetry_equiv_pos_as_xyz
  x,y,z
_cell_length_a	21.665
_cell_length_b	27.475
_cell_length_c	14.277
_cell_angle_alpha	90
_cell_angle_beta	103.073
_cell_angle_gamma	90
loop_
_atom_site_label
_atom_site_type_symbol
_atom_site_fract_x
_atom_site_fract_y
_atom_site_fract_z
_atom_site_charge
Mof_Co	Co	0.10911	0.17587	0.57897	1.151
Mof_C 	C 	0.6776	0.0685	0.0642	-0.029
Mof_C 	C 	0.6891	0.1173	0.0498	0.062
Mof_H 	H 	0.6618	0.1349	0.9998	0.024
Mof_C 	C 	0.7405	0.14056	0.1087	-0.145
Mof_H 	H 	0.7484	0.174	0.0989	0.082
Mof_C 	C 	0.7805	0.1149	0.182	0.147
Mof_C 	C 	0.769	0.066	0.1964	-0.13
Mof_H 	H 	0.7963	0.0484	0.2465	0.074
Mof_C 	C 	0.7175	0.04277	0.1375	0.023
Mof_H 	H 	0.7097	0.0094	0.1473	0.019
Mof_N 	N 	0.9243	0.1796	0.2739	0.026
Mof_C 	C 	0.8736	0.1686	0.2016	-0.027
Mof_H 	H 	0.866	0.1804	0.1375	0.007
Mof_N 	N 	0.8355	0.1377	0.2373	-0.056
Mof_C 	C 	0.8627	0.1296	0.3316	-0.119
Mof_H 	H 	0.8463	0.1094	0.3742	0.066
Mof_C 	C 	0.9176	0.1555	0.3542	-0.01
Mof_H 	H 	0.9462	0.1566	0.4153	0.036
Mof_C 	C 	0.2447	0.2021	0.5944	0.005
Mof_H 	H 	0.2321	0.2306	0.5574	0.025
Mof_C 	C 	0.3051	0.1912	0.6392	0
Mof_H 	H 	0.3418	0.2107	0.6426	0.048
Mof_C 	C 	0.2406	0.1337	0.6623	0.106
Mof_H 	H 	0.225	0.1049	0.6856	-0.009
Mof_C 	C 	0.3547	0.1196	0.7366	0.123
Mof_C 	C 	0.4084	0.1444	0.7793	-0.116
Mof_H 	H 	0.4105	0.1786	0.7714	0.079
Mof_C 	C 	0.46	0.1195	0.8342	0.005
Mof_H 	H 	0.4967	0.1372	0.8647	0.05
Mof_C 	C 	0.4588	0.0694	0.8454	-0.045
Mof_C 	C 	0.4029	0.0457	0.803	0.014
Mof_H 	H 	0.4	0.0116	0.8122	0.025
Mof_C 	C 	0.3513	0.0698	0.7481	-0.126
Mof_H 	H 	0.314	0.0524	0.7187	0.074
Mof_C 	C 	0.5173	0.0423	0.8931	0.099
Mof_C 	C 	0.5695	0.0659	0.9521	-0.152
Mof_H 	H 	0.5663	0.0996	0.965	0.096
Mof_C 	C 	0.6253	0.0418	0.992	0.077
Mof_C 	C 	0.6303	0.9928	0.9672	-0.147
Mof_H 	H 	0.6695	0.9763	0.9887	0.08
Mof_C 	C 	0.5792	0.9679	0.9121	0.096
Mof_C 	C 	0.5222	0.9929	0.8762	-0.153
Mof_H 	H 	0.4867	0.9758	0.8399	0.085
Mof_C 	C 	0.5834	0.9159	0.8839	-0.056
Mof_C 	C 	0.6307	0.8995	0.8408	0.015
Mof_H 	H 	0.6623	0.9217	0.8309	0.024
Mof_C 	C 	0.6333	0.8514	0.8116	-0.132
Mof_H 	H 	0.6664	0.8408	0.7828	0.078
Mof_C 	C 	0.5867	0.8192	0.8253	0.13
Mof_C 	C 	0.5403	0.8346	0.8717	-0.131
Mof_H 	H 	0.5098	0.8121	0.8842	0.1
Mof_C 	C 	0.5385	0.8826	0.8998	0.022
Mof_H 	H 	0.5061	0.8931	0.9304	0.032
Mof_C 	C 	0.5991	0.7572	0.7094	0.095
Mof_H 	H 	0.6097	0.7792	0.6642	-0.001
Mof_C 	C 	0.5781	0.6913	0.7777	0.014
Mof_H 	H 	0.5717	0.6579	0.7896	0.024
Mof_C 	C 	0.5721	0.7287	0.8386	-0.006
Mof_H 	H 	0.5605	0.7267	0.8988	0.051
Mof_C 	C 	0.0637	0.0912	0.5623	0.3
Mof_C 	C 	0.0305	0.0437	0.5282	-0.135
Mof_C 	C 	0.0336	0.0062	0.5944	0.038
Mof_H 	H 	0.0571	0.0099	0.6588	0.026
Mof_C 	C 	0.9986	0.037	0.4359	0.074
Mof_H 	H 	0.9981	0.0624	0.3906	0.025
Mof_N 	N 	0.2049	0.1665	0.6101	-0.245
Mof_N 	N 	0.3019	0.1457	0.6787	-0.142
Mof_N 	N 	0.5946	0.7092	0.6972	-0.252
Mof_N 	N 	0.5869	0.7703	0.7926	-0.14
Mof_O 	O 	0.061	0.1239	0.4989	-0.442
Mof_O 	O 	0.0946	0.0965	0.6487	-0.346
Mof_O 	O 	0.1113	0.2306	0.4865	-0.467
Mof_O 	O 	0.0391	0.2656	0.3501	-0.478
Mof_O 	O 	0.0641	0.3083	0.4999	-0.322
Mof_O 	O 	0.0009	0.2351	0.4848	-0.393
Mof_S 	S 	0.0522	0.26062	0.45725	0.696
Mof_C 	C 	0.6887	0.0625	0.0293	0.017
Mof_C 	C 	0.7481	0.054	0.0106	-0.06
Mof_H 	H 	0.752	0.0335	0.9587	0.046
Mof_C 	C 	0.8016	0.0754	0.0679	-0.023
Mof_H 	H 	0.8421	0.0696	0.0551	0.046
Mof_C 	C 	0.7958	0.1054	0.1438	-0.025
Mof_C 	C 	0.7365	0.1139	0.1625	-0.001
Mof_H 	H 	0.7325	0.1344	0.2144	0.023
Mof_C 	C 	0.683	0.0925	0.1052	-0.085
Mof_H 	H 	0.6424	0.0983	0.118	0.062
Mof_N 	N 	0.9397	0.1723	0.2482	-0.273
Mof_C 	C 	0.8833	0.1638	0.1752	0.096
Mof_H 	H 	0.8705	0.1814	0.1168	-0.011
Mof_N 	N 	0.8497	0.1242	0.206	-0.099
Mof_C 	C 	0.8853	0.1081	0.298	0.128
Mof_H 	H 	0.8739	0.0824	0.3352	-0.014
Mof_C 	C 	0.9409	0.1378	0.324	-0.036
Mof_H 	H 	0.973	0.1352	0.3815	0.046
Mof_Co	Co	0.60911	0.67587	0.57897	1.152
Mof_C 	C 	0.1776	0.5685	0.0642	-0.031
Mof_C 	C 	0.1891	0.6173	0.0498	0.071
Mof_H 	H 	0.1618	0.6349	0.9998	0.023
Mof_C 	C 	0.2405	0.64056	0.1087	-0.158
Mof_H 	H 	0.2484	0.674	0.0989	0.088
Mof_C 	C 	0.2805	0.6149	0.182	0.155
Mof_C 	C 	0.269	0.566	0.1964	-0.138
Mof_H 	H 	0.2963	0.5484	0.2465	0.077
Mof_C 	C 	0.2175	0.54277	0.1375	0.031
Mof_H 	H 	0.2097	0.5094	0.1473	0.017
Mof_N 	N 	0.4243	0.6796	0.2739	0.03
Mof_C 	C 	0.3736	0.6686	0.2016	-0.027
Mof_H 	H 	0.366	0.6804	0.1375	0.006
Mof_N 	N 	0.3355	0.6377	0.2373	-0.056
Mof_C 	C 	0.3627	0.6296	0.3316	-0.117
Mof_H 	H 	0.3463	0.6094	0.3742	0.065
Mof_C 	C 	0.4176	0.6555	0.3542	-0.008
Mof_H 	H 	0.4462	0.6566	0.4153	0.03
Mof_C 	C 	0.7447	0.7021	0.5944	0.006
Mof_H 	H 	0.7321	0.7306	0.5574	0.025
Mof_C 	C 	0.8051	0.6912	0.6392	0
Mof_H 	H 	0.8418	0.7107	0.6426	0.049
Mof_C 	C 	0.7406	0.6337	0.6623	0.105
Mof_H 	H 	0.725	0.6049	0.6856	-0.008
Mof_C 	C 	0.8547	0.6196	0.7366	0.115
Mof_C 	C 	0.9084	0.6444	0.7793	-0.102
Mof_H 	H 	0.9105	0.6786	0.7714	0.078
Mof_C 	C 	0.96	0.6195	0.8342	-0.01
Mof_H 	H 	0.9967	0.6372	0.8647	0.066
Mof_C 	C 	0.9588	0.5694	0.8454	-0.015
Mof_C 	C 	0.9029	0.5457	0.803	-0.002
Mof_H 	H 	0.9	0.5116	0.8122	0.032
Mof_C 	C 	0.8513	0.5698	0.7481	-0.114
Mof_H 	H 	0.814	0.5524	0.7187	0.07
Mof_C 	C 	0.0173	0.5423	0.8931	0.084
Mof_C 	C 	0.0695	0.5659	0.9521	-0.15
Mof_H 	H 	0.0663	0.5996	0.965	0.089
Mof_C 	C 	0.1253	0.5418	0.992	0.081
Mof_C 	C 	0.1303	0.4928	0.9672	-0.157
Mof_H 	H 	0.1695	0.4763	0.9887	0.083
Mof_C 	C 	0.0792	0.4679	0.9121	0.112
Mof_C 	C 	0.0222	0.4929	0.8762	-0.196
Mof_H 	H 	0.9867	0.4758	0.8399	0.115
Mof_C 	C 	0.0834	0.4159	0.8839	-0.067
Mof_C 	C 	0.1307	0.3995	0.8408	0.019
Mof_H 	H 	0.1623	0.4217	0.8309	0.022
Mof_C 	C 	0.1333	0.3514	0.8116	-0.136
Mof_H 	H 	0.1664	0.3408	0.7828	0.078
Mof_C 	C 	0.0867	0.3192	0.8253	0.128
Mof_C 	C 	0.0403	0.3346	0.8717	-0.136
Mof_H 	H 	0.0098	0.3121	0.8842	0.091
Mof_C 	C 	0.0385	0.3826	0.8998	0.025
Mof_H 	H 	0.0061	0.3931	0.9304	0.022
Mof_C 	C 	0.0991	0.2572	0.7094	0.091
Mof_H 	H 	0.1097	0.2792	0.6642	-0.002
Mof_C 	C 	0.0781	0.1913	0.7777	0.01
Mof_H 	H 	0.0717	0.1579	0.7896	0.02
Mof_C 	C 	0.0721	0.2287	0.8386	-0.008
Mof_H 	H 	0.0605	0.2267	0.8988	0.046
Mof_C 	C 	0.5637	0.5912	0.5623	0.277
Mof_C 	C 	0.5305	0.5437	0.5282	-0.052
Mof_C 	C 	0.5336	0.5062	0.5944	-0.031
Mof_H 	H 	0.5571	0.5099	0.6588	0.052
Mof_C 	C 	0.4986	0.537	0.4359	-0.024
Mof_H 	H 	0.4981	0.5624	0.3906	0.049
Mof_N 	N 	0.7049	0.6665	0.6101	-0.245
Mof_N 	N 	0.8019	0.6457	0.6787	-0.14
Mof_N 	N 	0.0946	0.2092	0.6972	-0.253
Mof_N 	N 	0.0869	0.2703	0.7926	-0.141
Mof_O 	O 	0.561	0.6239	0.4989	-0.427
Mof_O 	O 	0.5946	0.5965	0.6487	-0.337
Mof_O 	O 	0.6113	0.7306	0.4865	-0.466
Mof_O 	O 	0.5391	0.7656	0.3501	-0.469
Mof_O 	O 	0.5641	0.8083	0.4999	-0.312
Mof_O 	O 	0.5009	0.7351	0.4848	-0.378
Mof_S 	S 	0.5522	0.76062	0.45725	0.693
Mof_C 	C 	0.1887	0.5625	0.0293	0.021
Mof_C 	C 	0.2481	0.554	0.0106	-0.074
Mof_H 	H 	0.252	0.5335	0.9587	0.052
Mof_C 	C 	0.3016	0.5754	0.0679	-0.012
Mof_H 	H 	0.3421	0.5696	0.0551	0.04
Mof_C 	C 	0.2958	0.6054	0.1438	-0.035
Mof_C 	C 	0.2365	0.6139	0.1625	0.015
Mof_H 	H 	0.2325	0.6344	0.2144	0.017
Mof_C 	C 	0.183	0.5925	0.1052	-0.097
Mof_H 	H 	0.1424	0.5983	0.118	0.064
Mof_N 	N 	0.4397	0.6723	0.2482	-0.283
Mof_C 	C 	0.3833	0.6638	0.1752	0.096
Mof_H 	H 	0.3705	0.6814	0.1168	-0.01
Mof_N 	N 	0.3497	0.6242	0.206	-0.097
Mof_C 	C 	0.3853	0.6081	0.298	0.125
Mof_H 	H 	0.3739	0.5824	0.3352	-0.014
Mof_C 	C 	0.4409	0.6378	0.324	-0.041
Mof_H 	H 	0.473	0.6352	0.3815	0.038
Mof_Co	Co	0.89089	0.17587	0.92103	1.152
Mof_C 	C 	0.3224	0.0685	0.4358	-0.027
Mof_C 	C 	0.3109	0.1173	0.4502	0.062
Mof_H 	H 	0.3382	0.1349	0.5002	0.027
Mof_C 	C 	0.2595	0.14056	0.3913	-0.148
Mof_H 	H 	0.2516	0.174	0.4011	0.084
Mof_C 	C 	0.2195	0.1149	0.318	0.147
Mof_C 	C 	0.231	0.066	0.3036	-0.131
Mof_H 	H 	0.2037	0.0484	0.2535	0.075
Mof_C 	C 	0.2825	0.04277	0.3625	0.025
Mof_H 	H 	0.2903	0.0094	0.3527	0.019
Mof_N 	N 	0.0757	0.1796	0.2261	0.032
Mof_C 	C 	0.1264	0.1686	0.2984	-0.029
Mof_H 	H 	0.134	0.1804	0.3625	0.005
Mof_N 	N 	0.1645	0.1377	0.2627	-0.055
Mof_C 	C 	0.1373	0.1296	0.1684	-0.114
Mof_H 	H 	0.1537	0.1094	0.1258	0.063
Mof_C 	C 	0.0824	0.1555	0.1458	-0.009
Mof_H 	H 	0.0538	0.1566	0.0847	0.024
Mof_C 	C 	0.7553	0.2021	0.9056	0.005
Mof_H 	H 	0.7679	0.2306	0.9426	0.024
Mof_C 	C 	0.6949	0.1912	0.8608	-0
Mof_H 	H 	0.6582	0.2107	0.8574	0.048
Mof_C 	C 	0.7594	0.1337	0.8377	0.105
Mof_H 	H 	0.775	0.1049	0.8144	-0.009
Mof_C 	C 	0.6453	0.1196	0.7634	0.123
Mof_C 	C 	0.5916	0.1444	0.7207	-0.116
Mof_H 	H 	0.5895	0.1786	0.7286	0.079
Mof_C 	C 	0.54	0.1195	0.6658	0.006
Mof_H 	H 	0.5033	0.1372	0.6353	0.05
Mof_C 	C 	0.5412	0.0694	0.6546	-0.046
Mof_C 	C 	0.5971	0.0457	0.697	0.015
Mof_H 	H 	0.6	0.0116	0.6878	0.025
Mof_C 	C 	0.6487	0.0698	0.7519	-0.126
Mof_H 	H 	0.686	0.0524	0.7813	0.074
Mof_C 	C 	0.4827	0.0423	0.6069	0.101
Mof_C 	C 	0.4305	0.0659	0.5479	-0.154
Mof_H 	H 	0.4337	0.0996	0.535	0.097
Mof_C 	C 	0.3747	0.0418	0.508	0.081
Mof_C 	C 	0.3697	0.9928	0.5328	-0.149
Mof_H 	H 	0.3305	0.9763	0.5113	0.081
Mof_C 	C 	0.4208	0.9679	0.5879	0.098
Mof_C 	C 	0.4778	0.9929	0.6238	-0.154
Mof_H 	H 	0.5133	0.9758	0.6601	0.086
Mof_C 	C 	0.4166	0.9159	0.6161	-0.056
Mof_C 	C 	0.3693	0.8995	0.6592	0.015
Mof_H 	H 	0.3377	0.9217	0.6691	0.024
Mof_C 	C 	0.3667	0.8514	0.6884	-0.132
Mof_H 	H 	0.3336	0.8408	0.7172	0.077
Mof_C 	C 	0.4133	0.8192	0.6747	0.13
Mof_C 	C 	0.4597	0.8346	0.6283	-0.131
Mof_H 	H 	0.4902	0.8121	0.6158	0.1
Mof_C 	C 	0.4615	0.8826	0.6002	0.022
Mof_H 	H 	0.4939	0.8931	0.5696	0.032
Mof_C 	C 	0.4009	0.7572	0.7906	0.095
Mof_H 	H 	0.3903	0.7792	0.8358	-0.001
Mof_C 	C 	0.4219	0.6913	0.7223	0.014
Mof_H 	H 	0.4283	0.6579	0.7104	0.024
Mof_C 	C 	0.4279	0.7287	0.6614	-0.006
Mof_H 	H 	0.4395	0.7267	0.6012	0.052
Mof_C 	C 	0.9363	0.0912	0.9377	0.249
Mof_C 	C 	0.9695	0.0437	0.9718	0.026
Mof_C 	C 	0.9664	0.0062	0.9056	-0.099
Mof_H 	H 	0.9429	0.0099	0.8412	0.078
Mof_C 	C 	0.0014	0.037	0.0641	-0.117
Mof_H 	H 	0.0019	0.0624	0.1094	0.07
Mof_N 	N 	0.7951	0.1665	0.8899	-0.246
Mof_N 	N 	0.6981	0.1457	0.8213	-0.142
Mof_N 	N 	0.4054	0.7092	0.8028	-0.252
Mof_N 	N 	0.4131	0.7703	0.7074	-0.14
Mof_O 	O 	0.939	0.1239	0.0011	-0.408
Mof_O 	O 	0.9054	0.0965	0.8513	-0.328
Mof_O 	O 	0.8887	0.2306	0.0135	-0.463
Mof_O 	O 	0.9609	0.2656	0.1499	-0.455
Mof_O 	O 	0.9359	0.3083	0.0001	-0.302
Mof_O 	O 	0.9991	0.2351	0.0152	-0.36
Mof_S 	S 	0.9478	0.26062	0.04275	0.69
Mof_C 	C 	0.3113	0.0625	0.4707	0.017
Mof_C 	C 	0.2519	0.054	0.4894	-0.068
Mof_H 	H 	0.248	0.0335	0.5413	0.05
Mof_C 	C 	0.1984	0.0754	0.4321	-0.018
Mof_H 	H 	0.1579	0.0696	0.4449	0.041
Mof_C 	C 	0.2042	0.1054	0.3562	-0.027
Mof_C 	C 	0.2635	0.1139	0.3375	0.006
Mof_H 	H 	0.2675	0.1344	0.2856	0.02
Mof_C 	C 	0.317	0.0925	0.3948	-0.088
Mof_H 	H 	0.3576	0.0983	0.382	0.063
Mof_N 	N 	0.0603	0.1723	0.2518	-0.29
Mof_C 	C 	0.1167	0.1638	0.3248	0.097
Mof_H 	H 	0.1295	0.1814	0.3832	-0.01
Mof_N 	N 	0.1503	0.1242	0.294	-0.098
Mof_C 	C 	0.1147	0.1081	0.202	0.12
Mof_H 	H 	0.1261	0.0824	0.1648	-0.013
Mof_C 	C 	0.0591	0.1378	0.176	-0.043
Mof_H 	H 	0.027	0.1352	0.1185	0.03
Mof_Co	Co	0.39089	0.67587	0.92103	1.152
Mof_C 	C 	0.8224	0.5685	0.4358	-0.028
Mof_C 	C 	0.8109	0.6173	0.4502	0.062
Mof_H 	H 	0.8382	0.6349	0.5002	0.027
Mof_C 	C 	0.7595	0.64056	0.3913	-0.147
Mof_H 	H 	0.7516	0.674	0.4011	0.084
Mof_C 	C 	0.7195	0.6149	0.318	0.148
Mof_C 	C 	0.731	0.566	0.3036	-0.131
Mof_H 	H 	0.7037	0.5484	0.2535	0.075
Mof_C 	C 	0.7825	0.54277	0.3625	0.025
Mof_H 	H 	0.7903	0.5094	0.3527	0.019
Mof_N 	N 	0.5757	0.6796	0.2261	0.031
Mof_C 	C 	0.6264	0.6686	0.2984	-0.027
Mof_H 	H 	0.634	0.6804	0.3625	0.006
Mof_N 	N 	0.6645	0.6377	0.2627	-0.055
Mof_C 	C 	0.6373	0.6296	0.1684	-0.117
Mof_H 	H 	0.6537	0.6094	0.1258	0.065
Mof_C 	C 	0.5824	0.6555	0.1458	-0.009
Mof_H 	H 	0.5538	0.6566	0.0847	0.03
Mof_C 	C 	0.2553	0.7021	0.9056	0.005
Mof_H 	H 	0.2679	0.7306	0.9426	0.025
Mof_C 	C 	0.1949	0.6912	0.8608	0.001
Mof_H 	H 	0.1582	0.7107	0.8574	0.047
Mof_C 	C 	0.2594	0.6337	0.8377	0.106
Mof_H 	H 	0.275	0.6049	0.8144	-0.009
Mof_C 	C 	0.1453	0.6196	0.7634	0.132
Mof_C 	C 	0.0916	0.6444	0.7207	-0.132
Mof_H 	H 	0.0895	0.6786	0.7286	0.081
Mof_C 	C 	0.04	0.6195	0.6658	0.024
Mof_H 	H 	0.0033	0.6372	0.6353	0.032
Mof_C 	C 	0.0412	0.5694	0.6546	-0.079
Mof_C 	C 	0.0971	0.5457	0.697	0.033
Mof_H 	H 	0.1	0.5116	0.6878	0.017
Mof_C 	C 	0.1487	0.5698	0.7519	-0.14
Mof_H 	H 	0.186	0.5524	0.7813	0.078
Mof_C 	C 	0.9827	0.5423	0.6069	0.121
Mof_C 	C 	0.9305	0.5659	0.5479	-0.158
Mof_H 	H 	0.9337	0.5996	0.535	0.106
Mof_C 	C 	0.8747	0.5418	0.508	0.081
Mof_C 	C 	0.8697	0.4928	0.5328	-0.143
Mof_H 	H 	0.8305	0.4763	0.5113	0.079
Mof_C 	C 	0.9208	0.4679	0.5879	0.083
Mof_C 	C 	0.9778	0.4929	0.6238	-0.113
Mof_H 	H 	0.0133	0.4758	0.6601	0.055
Mof_C 	C 	0.9166	0.4159	0.6161	-0.045
Mof_C 	C 	0.8693	0.3995	0.6592	0.011
Mof_H 	H 	0.8377	0.4217	0.6691	0.025
Mof_C 	C 	0.8667	0.3514	0.6884	-0.129
Mof_H 	H 	0.8336	0.3408	0.7172	0.077
Mof_C 	C 	0.9133	0.3192	0.6747	0.132
Mof_C 	C 	0.9597	0.3346	0.6283	-0.126
Mof_H 	H 	0.9902	0.3121	0.6158	0.108
Mof_C 	C 	0.9615	0.3826	0.6002	0.02
Mof_H 	H 	0.9939	0.3931	0.5696	0.042
Mof_C 	C 	0.9009	0.2572	0.7906	0.099
Mof_H 	H 	0.8903	0.2792	0.8358	-0.001
Mof_C 	C 	0.9219	0.1913	0.7223	0.018
Mof_H 	H 	0.9283	0.1579	0.7104	0.027
Mof_C 	C 	0.9279	0.2287	0.6614	-0.003
Mof_H 	H 	0.9395	0.2267	0.6012	0.058
Mof_C 	C 	0.4363	0.5912	0.9377	0.277
Mof_C 	C 	0.4695	0.5437	0.9718	-0.054
Mof_C 	C 	0.4664	0.5062	0.9056	-0.029
Mof_H 	H 	0.4429	0.5099	0.8412	0.052
Mof_C 	C 	0.5014	0.537	0.0641	-0.021
Mof_H 	H 	0.5019	0.5624	0.1094	0.048
Mof_N 	N 	0.2951	0.6665	0.8899	-0.246
Mof_N 	N 	0.1981	0.6457	0.8213	-0.144
Mof_N 	N 	0.9054	0.2092	0.8028	-0.251
Mof_N 	N 	0.9131	0.2703	0.7074	-0.139
Mof_O 	O 	0.439	0.6239	0.0011	-0.427
Mof_O 	O 	0.4054	0.5965	0.8513	-0.337
Mof_O 	O 	0.3887	0.7306	0.0135	-0.466
Mof_O 	O 	0.4609	0.7656	0.1499	-0.469
Mof_O 	O 	0.4359	0.8083	0.0001	-0.312
Mof_O 	O 	0.4991	0.7351	0.0152	-0.377
Mof_S 	S 	0.4478	0.76062	0.04275	0.693
Mof_C 	C 	0.8113	0.5625	0.4707	0.018
Mof_C 	C 	0.7519	0.554	0.4894	-0.068
Mof_H 	H 	0.748	0.5335	0.5413	0.05
Mof_C 	C 	0.6984	0.5754	0.4321	-0.018
Mof_H 	H 	0.6579	0.5696	0.4449	0.042
Mof_C 	C 	0.7042	0.6054	0.3562	-0.028
Mof_C 	C 	0.7635	0.6139	0.3375	0.005
Mof_H 	H 	0.7675	0.6344	0.2856	0.021
Mof_C 	C 	0.817	0.5925	0.3948	-0.088
Mof_H 	H 	0.8576	0.5983	0.382	0.065
Mof_N 	N 	0.5603	0.6723	0.2518	-0.284
Mof_C 	C 	0.6167	0.6638	0.3248	0.096
Mof_H 	H 	0.6295	0.6814	0.3832	-0.01
Mof_N 	N 	0.6503	0.6242	0.294	-0.098
Mof_C 	C 	0.6147	0.6081	0.202	0.125
Mof_H 	H 	0.6261	0.5824	0.1648	-0.014
Mof_C 	C 	0.5591	0.6378	0.176	-0.04
Mof_H 	H 	0.527	0.6352	0.1185	0.038
Mof_Co	Co	0.89089	0.82413	0.42103	1.153
Mof_C 	C 	0.3224	0.9315	0.9358	-0.028
Mof_C 	C 	0.3109	0.8827	0.9502	0.063
Mof_H 	H 	0.3382	0.8651	0.0002	0.026
Mof_C 	C 	0.2595	0.85944	0.8913	-0.149
Mof_H 	H 	0.2516	0.826	0.9011	0.085
Mof_C 	C 	0.2195	0.8851	0.818	0.148
Mof_C 	C 	0.231	0.934	0.8036	-0.132
Mof_H 	H 	0.2037	0.9516	0.7535	0.075
Mof_C 	C 	0.2825	0.95723	0.8625	0.026
Mof_H 	H 	0.2903	0.9906	0.8527	0.019
Mof_N 	N 	0.0757	0.8204	0.7261	0.032
Mof_C 	C 	0.1264	0.8314	0.7984	-0.028
Mof_H 	H 	0.134	0.8196	0.8625	0.005
Mof_N 	N 	0.1645	0.8623	0.7627	-0.055
Mof_C 	C 	0.1373	0.8704	0.6684	-0.114
Mof_H 	H 	0.1537	0.8906	0.6258	0.063
Mof_C 	C 	0.0824	0.8445	0.6458	-0.009
Mof_H 	H 	0.0538	0.8434	0.5847	0.025
Mof_C 	C 	0.7553	0.7979	0.4056	0.005
Mof_H 	H 	0.7679	0.7694	0.4426	0.025
Mof_C 	C 	0.6949	0.8088	0.3608	0
Mof_H 	H 	0.6582	0.7893	0.3574	0.048
Mof_C 	C 	0.7594	0.8663	0.3377	0.106
Mof_H 	H 	0.775	0.8951	0.3144	-0.008
Mof_C 	C 	0.6453	0.8804	0.2634	0.123
Mof_C 	C 	0.5916	0.8556	0.2207	-0.116
Mof_H 	H 	0.5895	0.8214	0.2286	0.079
Mof_C 	C 	0.54	0.8805	0.1658	0.006
Mof_H 	H 	0.5033	0.8628	0.1353	0.05
Mof_C 	C 	0.5412	0.9306	0.1546	-0.045
Mof_C 	C 	0.5971	0.9543	0.197	0.014
Mof_H 	H 	0.6	0.9884	0.1878	0.025
Mof_C 	C 	0.6487	0.9302	0.2519	-0.126
Mof_H 	H 	0.686	0.9476	0.2813	0.074
Mof_C 	C 	0.4827	0.9577	0.1069	0.1
Mof_C 	C 	0.4305	0.9341	0.0479	-0.153
Mof_H 	H 	0.4337	0.9004	0.035	0.097
Mof_C 	C 	0.3747	0.9582	0.008	0.08
Mof_C 	C 	0.3697	0.0072	0.0328	-0.148
Mof_H 	H 	0.3305	0.0237	0.0113	0.08
Mof_C 	C 	0.4208	0.0321	0.0879	0.097
Mof_C 	C 	0.4778	0.0071	0.1238	-0.154
Mof_H 	H 	0.5133	0.0242	0.1601	0.085
Mof_C 	C 	0.4166	0.0841	0.1161	-0.056
Mof_C 	C 	0.3693	0.1005	0.1592	0.015
Mof_H 	H 	0.3377	0.0783	0.1691	0.024
Mof_C 	C 	0.3667	0.1486	0.1884	-0.132
Mof_H 	H 	0.3336	0.1592	0.2172	0.077
Mof_C 	C 	0.4133	0.1808	0.1747	0.13
Mof_C 	C 	0.4597	0.1654	0.1283	-0.131
Mof_H 	H 	0.4902	0.1879	0.1158	0.1
Mof_C 	C 	0.4615	0.1174	0.1002	0.022
Mof_H 	H 	0.4939	0.1069	0.0696	0.033
Mof_C 	C 	0.4009	0.2428	0.2906	0.095
Mof_H 	H 	0.3903	0.2208	0.3358	-0.001
Mof_C 	C 	0.4219	0.3087	0.2223	0.014
Mof_H 	H 	0.4283	0.3421	0.2104	0.024
Mof_C 	C 	0.4279	0.2713	0.1614	-0.006
Mof_H 	H 	0.4395	0.2733	0.1012	0.052
Mof_C 	C 	0.9363	0.9088	0.4377	0.253
Mof_C 	C 	0.9695	0.9563	0.4718	0.031
Mof_C 	C 	0.9664	0.9938	0.4056	-0.101
Mof_H 	H 	0.9429	0.9901	0.3412	0.079
Mof_C 	C 	0.0014	0.963	0.5641	-0.122
Mof_H 	H 	0.0019	0.9376	0.6094	0.073
Mof_N 	N 	0.7951	0.8335	0.3899	-0.246
Mof_N 	N 	0.6981	0.8543	0.3213	-0.142
Mof_N 	N 	0.4054	0.2908	0.3028	-0.252
Mof_N 	N 	0.4131	0.2297	0.2074	-0.14
Mof_O 	O 	0.939	0.8761	0.5011	-0.412
Mof_O 	O 	0.9054	0.9035	0.3513	-0.328
Mof_O 	O 	0.8887	0.7694	0.5135	-0.464
Mof_O 	O 	0.9609	0.7344	0.6499	-0.456
Mof_O 	O 	0.9359	0.6917	0.5001	-0.303
Mof_O 	O 	0.9991	0.7649	0.5152	-0.361
Mof_S 	S 	0.9478	0.73938	0.54275	0.69
Mof_C 	C 	0.3113	0.9375	0.9707	0.018
Mof_C 	C 	0.2519	0.946	0.9894	-0.068
Mof_H 	H 	0.248	0.9665	0.0413	0.049
Mof_C 	C 	0.1984	0.9246	0.9321	-0.018
Mof_H 	H 	0.1579	0.9304	0.9449	0.041
Mof_C 	C 	0.2042	0.8946	0.8562	-0.028
Mof_C 	C 	0.2635	0.8861	0.8375	0.007
Mof_H 	H 	0.2675	0.8656	0.7856	0.02
Mof_C 	C 	0.317	0.9075	0.8948	-0.089
Mof_H 	H 	0.3576	0.9017	0.882	0.063
Mof_N 	N 	0.0603	0.8277	0.7518	-0.289
Mof_C 	C 	0.1167	0.8362	0.8248	0.097
Mof_H 	H 	0.1295	0.8186	0.8832	-0.01
Mof_N 	N 	0.1503	0.8758	0.794	-0.098
Mof_C 	C 	0.1147	0.8919	0.702	0.12
Mof_H 	H 	0.1261	0.9176	0.6648	-0.013
Mof_C 	C 	0.0591	0.8622	0.676	-0.042
Mof_H 	H 	0.027	0.8648	0.6185	0.03
Mof_Co	Co	0.39089	0.32413	0.42103	1.152
Mof_C 	C 	0.8224	0.4315	0.9358	-0.033
Mof_C 	C 	0.8109	0.3827	0.9502	0.072
Mof_H 	H 	0.8382	0.3651	0.0002	0.025
Mof_C 	C 	0.7595	0.35944	0.8913	-0.163
Mof_H 	H 	0.7516	0.326	0.9011	0.089
Mof_C 	C 	0.7195	0.3851	0.818	0.157
Mof_C 	C 	0.731	0.434	0.8036	-0.141
Mof_H 	H 	0.7037	0.4516	0.7535	0.079
Mof_C 	C 	0.7825	0.45723	0.8625	0.034
Mof_H 	H 	0.7903	0.4906	0.8527	0.016
Mof_N 	N 	0.5757	0.3204	0.7261	0.03
Mof_C 	C 	0.6264	0.3314	0.7984	-0.027
Mof_H 	H 	0.634	0.3196	0.8625	0.006
Mof_N 	N 	0.6645	0.3623	0.7627	-0.057
Mof_C 	C 	0.6373	0.3704	0.6684	-0.117
Mof_H 	H 	0.6537	0.3906	0.6258	0.065
Mof_C 	C 	0.5824	0.3445	0.6458	-0.008
Mof_H 	H 	0.5538	0.3434	0.5847	0.03
Mof_C 	C 	0.2553	0.2979	0.4056	0.005
Mof_H 	H 	0.2679	0.2694	0.4426	0.025
Mof_C 	C 	0.1949	0.3088	0.3608	0.001
Mof_H 	H 	0.1582	0.2893	0.3574	0.047
Mof_C 	C 	0.2594	0.3663	0.3377	0.106
Mof_H 	H 	0.275	0.3951	0.3144	-0.009
Mof_C 	C 	0.1453	0.3804	0.2634	0.133
Mof_C 	C 	0.0916	0.3556	0.2207	-0.134
Mof_H 	H 	0.0895	0.3214	0.2286	0.081
Mof_C 	C 	0.04	0.3805	0.1658	0.025
Mof_H 	H 	0.0033	0.3628	0.1353	0.031
Mof_C 	C 	0.0412	0.4306	0.1546	-0.082
Mof_C 	C 	0.0971	0.4543	0.197	0.035
Mof_H 	H 	0.1	0.4884	0.1878	0.016
Mof_C 	C 	0.1487	0.4302	0.2519	-0.141
Mof_H 	H 	0.186	0.4476	0.2813	0.079
Mof_C 	C 	0.9827	0.4577	0.1069	0.123
Mof_C 	C 	0.9305	0.4341	0.0479	-0.158
Mof_H 	H 	0.9337	0.4004	0.035	0.107
Mof_C 	C 	0.8747	0.4582	0.008	0.082
Mof_C 	C 	0.8697	0.5072	0.0328	-0.143
Mof_H 	H 	0.8305	0.5237	0.0113	0.079
Mof_C 	C 	0.9208	0.5321	0.0879	0.082
Mof_C 	C 	0.9778	0.5071	0.1238	-0.109
Mof_H 	H 	0.0133	0.5242	0.1601	0.052
Mof_C 	C 	0.9166	0.5841	0.1161	-0.044
Mof_C 	C 	0.8693	0.6005	0.1592	0.01
Mof_H 	H 	0.8377	0.5783	0.1691	0.026
Mof_C 	C 	0.8667	0.6486	0.1884	-0.128
Mof_H 	H 	0.8336	0.6592	0.2172	0.077
Mof_C 	C 	0.9133	0.6808	0.1747	0.133
Mof_C 	C 	0.9597	0.6654	0.1283	-0.125
Mof_H 	H 	0.9902	0.6879	0.1158	0.109
Mof_C 	C 	0.9615	0.6174	0.1002	0.02
Mof_H 	H 	0.9939	0.6069	0.0696	0.043
Mof_C 	C 	0.9009	0.7428	0.2906	0.099
Mof_H 	H 	0.8903	0.7208	0.3358	-0.001
Mof_C 	C 	0.9219	0.8087	0.2223	0.018
Mof_H 	H 	0.9283	0.8421	0.2104	0.028
Mof_C 	C 	0.9279	0.7713	0.1614	-0.003
Mof_H 	H 	0.9395	0.7733	0.1012	0.058
Mof_C 	C 	0.4363	0.4088	0.4377	0.277
Mof_C 	C 	0.4695	0.4563	0.4718	-0.052
Mof_C 	C 	0.4664	0.4938	0.4056	-0.031
Mof_H 	H 	0.4429	0.4901	0.3412	0.052
Mof_C 	C 	0.5014	0.463	0.5641	-0.024
Mof_H 	H 	0.5019	0.4376	0.6094	0.049
Mof_N 	N 	0.2951	0.3335	0.3899	-0.246
Mof_N 	N 	0.1981	0.3543	0.3213	-0.144
Mof_N 	N 	0.9054	0.7908	0.3028	-0.251
Mof_N 	N 	0.9131	0.7297	0.2074	-0.138
Mof_O 	O 	0.439	0.3761	0.5011	-0.427
Mof_O 	O 	0.4054	0.4035	0.3513	-0.337
Mof_O 	O 	0.3887	0.2694	0.5135	-0.466
Mof_O 	O 	0.4609	0.2344	0.6499	-0.469
Mof_O 	O 	0.4359	0.1917	0.5001	-0.312
Mof_O 	O 	0.4991	0.2649	0.5152	-0.378
Mof_S 	S 	0.4478	0.23938	0.54275	0.693
Mof_C 	C 	0.8113	0.4375	0.9707	0.025
Mof_C 	C 	0.7519	0.446	0.9894	-0.082
Mof_H 	H 	0.748	0.4665	0.0413	0.056
Mof_C 	C 	0.6984	0.4246	0.9321	-0.006
Mof_H 	H 	0.6579	0.4304	0.9449	0.038
Mof_C 	C 	0.7042	0.3946	0.8562	-0.04
Mof_C 	C 	0.7635	0.3861	0.8375	0.022
Mof_H 	H 	0.7675	0.3656	0.7856	0.015
Mof_C 	C 	0.817	0.4075	0.8948	-0.103
Mof_H 	H 	0.8576	0.4017	0.882	0.068
Mof_N 	N 	0.5603	0.3277	0.7518	-0.283
Mof_C 	C 	0.6167	0.3362	0.8248	0.097
Mof_H 	H 	0.6295	0.3186	0.8832	-0.01
Mof_N 	N 	0.6503	0.3758	0.794	-0.096
Mof_C 	C 	0.6147	0.3919	0.702	0.125
Mof_H 	H 	0.6261	0.4176	0.6648	-0.014
Mof_C 	C 	0.5591	0.3622	0.676	-0.042
Mof_H 	H 	0.527	0.3648	0.6185	0.038
Mof_Co	Co	0.10911	0.82413	0.07897	1.151
Mof_C 	C 	0.6776	0.9315	0.5642	-0.029
Mof_C 	C 	0.6891	0.8827	0.5498	0.067
Mof_H 	H 	0.6618	0.8651	0.4998	0.025
Mof_C 	C 	0.7405	0.85944	0.6087	-0.152
Mof_H 	H 	0.7484	0.826	0.5989	0.086
Mof_C 	C 	0.7805	0.8851	0.682	0.152
Mof_C 	C 	0.769	0.934	0.6964	-0.134
Mof_H 	H 	0.7963	0.9516	0.7465	0.077
Mof_C 	C 	0.7175	0.95723	0.6375	0.028
Mof_H 	H 	0.7097	0.9906	0.6473	0.018
Mof_N 	N 	0.9243	0.8204	0.7739	0.027
Mof_C 	C 	0.8736	0.8314	0.7016	-0.026
Mof_H 	H 	0.866	0.8196	0.6375	0.007
Mof_N 	N 	0.8355	0.8623	0.7373	-0.056
Mof_C 	C 	0.8627	0.8704	0.8316	-0.118
Mof_H 	H 	0.8463	0.8906	0.8742	0.066
Mof_C 	C 	0.9176	0.8445	0.8542	-0.009
Mof_H 	H 	0.9462	0.8434	0.9153	0.035
Mof_C 	C 	0.2447	0.7979	0.0944	0.005
Mof_H 	H 	0.2321	0.7694	0.0574	0.025
Mof_C 	C 	0.3051	0.8088	0.1392	0
Mof_H 	H 	0.3418	0.7893	0.1426	0.048
Mof_C 	C 	0.2406	0.8663	0.1623	0.106
Mof_H 	H 	0.225	0.8951	0.1856	-0.009
Mof_C 	C 	0.3547	0.8804	0.2366	0.123
Mof_C 	C 	0.4084	0.8556	0.2793	-0.116
Mof_H 	H 	0.4105	0.8214	0.2714	0.079
Mof_C 	C 	0.46	0.8805	0.3342	0.006
Mof_H 	H 	0.4967	0.8628	0.3647	0.05
Mof_C 	C 	0.4588	0.9306	0.3454	-0.046
Mof_C 	C 	0.4029	0.9543	0.303	0.015
Mof_H 	H 	0.4	0.9884	0.3122	0.025
Mof_C 	C 	0.3513	0.9302	0.2481	-0.126
Mof_H 	H 	0.314	0.9476	0.2187	0.074
Mof_C 	C 	0.5173	0.9577	0.3931	0.101
Mof_C 	C 	0.5695	0.9341	0.4521	-0.154
Mof_H 	H 	0.5663	0.9004	0.465	0.097
Mof_C 	C 	0.6253	0.9582	0.492	0.081
Mof_C 	C 	0.6303	0.0072	0.4672	-0.15
Mof_H 	H 	0.6695	0.0237	0.4887	0.081
Mof_C 	C 	0.5792	0.0321	0.4121	0.098
Mof_C 	C 	0.5222	0.0071	0.3762	-0.155
Mof_H 	H 	0.4867	0.0242	0.3399	0.086
Mof_C 	C 	0.5834	0.0841	0.3839	-0.056
Mof_C 	C 	0.6307	0.1005	0.3408	0.015
Mof_H 	H 	0.6623	0.0783	0.3309	0.024
Mof_C 	C 	0.6333	0.1486	0.3116	-0.132
Mof_H 	H 	0.6664	0.1592	0.2828	0.078
Mof_C 	C 	0.5867	0.1808	0.3253	0.13
Mof_C 	C 	0.5403	0.1654	0.3717	-0.131
Mof_H 	H 	0.5098	0.1879	0.3842	0.1
Mof_C 	C 	0.5385	0.1174	0.3998	0.022
Mof_H 	H 	0.5061	0.1069	0.4304	0.032
Mof_C 	C 	0.5991	0.2428	0.2094	0.095
Mof_H 	H 	0.6097	0.2208	0.1642	-0.001
Mof_C 	C 	0.5781	0.3087	0.2777	0.014
Mof_H 	H 	0.5717	0.3421	0.2896	0.024
Mof_C 	C 	0.5721	0.2713	0.3386	-0.006
Mof_H 	H 	0.5605	0.2733	0.3988	0.052
Mof_C 	C 	0.0637	0.9088	0.0623	0.297
Mof_C 	C 	0.0305	0.9563	0.0282	-0.131
Mof_C 	C 	0.0336	0.9938	0.0944	0.034
Mof_H 	H 	0.0571	0.9901	0.1588	0.027
Mof_C 	C 	0.9986	0.963	0.9359	0.069
Mof_H 	H 	0.9981	0.9376	0.8906	0.026
Mof_N 	N 	0.2049	0.8335	0.1101	-0.246
Mof_N 	N 	0.3019	0.8543	0.1787	-0.142
Mof_N 	N 	0.5946	0.2908	0.1972	-0.252
Mof_N 	N 	0.5869	0.2297	0.2926	-0.14
Mof_O 	O 	0.061	0.8761	0.9989	-0.439
Mof_O 	O 	0.0946	0.9035	0.1487	-0.346
Mof_O 	O 	0.1113	0.7694	0.9865	-0.466
Mof_O 	O 	0.0391	0.7344	0.8501	-0.477
Mof_O 	O 	0.0641	0.6917	0.9999	-0.321
Mof_O 	O 	0.0009	0.7649	0.9848	-0.392
Mof_S 	S 	0.0522	0.73938	0.95725	0.696
Mof_C 	C 	0.6887	0.9375	0.5293	0.019
Mof_C 	C 	0.7481	0.946	0.5106	-0.07
Mof_H 	H 	0.752	0.9665	0.4587	0.051
Mof_C 	C 	0.8016	0.9246	0.5679	-0.015
Mof_H 	H 	0.8421	0.9304	0.5551	0.043
Mof_C 	C 	0.7958	0.8946	0.6438	-0.031
Mof_C 	C 	0.7365	0.8861	0.6625	0.009
Mof_H 	H 	0.7325	0.8656	0.7144	0.019
Mof_C 	C 	0.683	0.9075	0.6052	-0.093
Mof_H 	H 	0.6424	0.9017	0.618	0.064
Mof_N 	N 	0.9397	0.8277	0.7482	-0.273
Mof_C 	C 	0.8833	0.8362	0.6752	0.096
Mof_H 	H 	0.8705	0.8186	0.6168	-0.011
Mof_N 	N 	0.8497	0.8758	0.706	-0.098
Mof_C 	C 	0.8853	0.8919	0.798	0.128
Mof_H 	H 	0.8739	0.9176	0.8352	-0.014
Mof_C 	C 	0.9409	0.8622	0.824	-0.037
Mof_H 	H 	0.973	0.8648	0.8815	0.045
Mof_Co	Co	0.60911	0.32413	0.07897	1.153
Mof_C 	C 	0.1776	0.4315	0.5642	-0.029
Mof_C 	C 	0.1891	0.3827	0.5498	0.067
Mof_H 	H 	0.1618	0.3651	0.4998	0.025
Mof_C 	C 	0.2405	0.35944	0.6087	-0.153
Mof_H 	H 	0.2484	0.326	0.5989	0.086
Mof_C 	C 	0.2805	0.3851	0.682	0.151
Mof_C 	C 	0.269	0.434	0.6964	-0.134
Mof_H 	H 	0.2963	0.4516	0.7465	0.076
Mof_C 	C 	0.2175	0.45723	0.6375	0.028
Mof_H 	H 	0.2097	0.4906	0.6473	0.018
Mof_N 	N 	0.4243	0.3204	0.7739	0.03
Mof_C 	C 	0.3736	0.3314	0.7016	-0.027
Mof_H 	H 	0.366	0.3196	0.6375	0.006
Mof_N 	N 	0.3355	0.3623	0.7373	-0.056
Mof_C 	C 	0.3627	0.3704	0.8316	-0.117
Mof_H 	H 	0.3463	0.3906	0.8742	0.065
Mof_C 	C 	0.4176	0.3445	0.8542	-0.009
Mof_H 	H 	0.4462	0.3434	0.9153	0.03
Mof_C 	C 	0.7447	0.2979	0.0944	0.006
Mof_H 	H 	0.7321	0.2694	0.0574	0.026
Mof_C 	C 	0.8051	0.3088	0.1392	0
Mof_H 	H 	0.8418	0.2893	0.1426	0.049
Mof_C 	C 	0.7406	0.3663	0.1623	0.106
Mof_H 	H 	0.725	0.3951	0.1856	-0.008
Mof_C 	C 	0.8547	0.3804	0.2366	0.114
Mof_C 	C 	0.9084	0.3556	0.2793	-0.1
Mof_H 	H 	0.9105	0.3214	0.2714	0.078
Mof_C 	C 	0.96	0.3805	0.3342	-0.011
Mof_H 	H 	0.9967	0.3628	0.3647	0.068
Mof_C 	C 	0.9588	0.4306	0.3454	-0.011
Mof_C 	C 	0.9029	0.4543	0.303	-0.004
Mof_H 	H 	0.9	0.4884	0.3122	0.033
Mof_C 	C 	0.8513	0.4302	0.2481	-0.113
Mof_H 	H 	0.814	0.4476	0.2187	0.069
Mof_C 	C 	0.0173	0.4577	0.3931	0.082
Mof_C 	C 	0.0695	0.4341	0.4521	-0.15
Mof_H 	H 	0.0663	0.4004	0.465	0.088
Mof_C 	C 	0.1253	0.4582	0.492	0.081
Mof_C 	C 	0.1303	0.5072	0.4672	-0.158
Mof_H 	H 	0.1695	0.5237	0.4887	0.084
Mof_C 	C 	0.0792	0.5321	0.4121	0.114
Mof_C 	C 	0.0222	0.5071	0.3762	-0.2
Mof_H 	H 	0.9867	0.5242	0.3399	0.119
Mof_C 	C 	0.0834	0.5841	0.3839	-0.068
Mof_C 	C 	0.1307	0.6005	0.3408	0.02
Mof_H 	H 	0.1623	0.5783	0.3309	0.021
Mof_C 	C 	0.1333	0.6486	0.3116	-0.136
Mof_H 	H 	0.1664	0.6592	0.2828	0.079
Mof_C 	C 	0.0867	0.6808	0.3253	0.128
Mof_C 	C 	0.0403	0.6654	0.3717	-0.137
Mof_H 	H 	0.0098	0.6879	0.3842	0.091
Mof_C 	C 	0.0385	0.6174	0.3998	0.025
Mof_H 	H 	0.0061	0.6069	0.4304	0.021
Mof_C 	C 	0.0991	0.7428	0.2094	0.091
Mof_H 	H 	0.1097	0.7208	0.1642	-0.003
Mof_C 	C 	0.0781	0.8087	0.2777	0.01
Mof_H 	H 	0.0717	0.8421	0.2896	0.02
Mof_C 	C 	0.0721	0.7713	0.3386	-0.009
Mof_H 	H 	0.0605	0.7733	0.3988	0.046
Mof_C 	C 	0.5637	0.4088	0.0623	0.278
Mof_C 	C 	0.5305	0.4563	0.0282	-0.049
Mof_C 	C 	0.5336	0.4938	0.0944	-0.033
Mof_H 	H 	0.5571	0.4901	0.1588	0.053
Mof_C 	C 	0.4986	0.463	0.9359	-0.028
Mof_H 	H 	0.4981	0.4376	0.8906	0.05
Mof_N 	N 	0.7049	0.3335	0.1101	-0.245
Mof_N 	N 	0.8019	0.3543	0.1787	-0.14
Mof_N 	N 	0.0946	0.7908	0.1972	-0.253
Mof_N 	N 	0.0869	0.7297	0.2926	-0.141
Mof_O 	O 	0.561	0.3761	0.9989	-0.428
Mof_O 	O 	0.5946	0.4035	0.1487	-0.337
Mof_O 	O 	0.6113	0.2694	0.9865	-0.467
Mof_O 	O 	0.5391	0.2344	0.8501	-0.469
Mof_O 	O 	0.5641	0.1917	0.9999	-0.313
Mof_O 	O 	0.5009	0.2649	0.9848	-0.378
Mof_S 	S 	0.5522	0.23938	0.95725	0.694
Mof_C 	C 	0.1887	0.4375	0.5293	0.019
Mof_C 	C 	0.2481	0.446	0.5106	-0.07
Mof_H 	H 	0.252	0.4665	0.4587	0.051
Mof_C 	C 	0.3016	0.4246	0.5679	-0.016
Mof_H 	H 	0.3421	0.4304	0.5551	0.041
Mof_C 	C 	0.2958	0.3946	0.6438	-0.031
Mof_C 	C 	0.2365	0.3861	0.6625	0.01
Mof_H 	H 	0.2325	0.3656	0.7144	0.019
Mof_C 	C 	0.183	0.4075	0.6052	-0.092
Mof_H 	H 	0.1424	0.4017	0.618	0.062
Mof_N 	N 	0.4397	0.3277	0.7482	-0.284
Mof_C 	C 	0.3833	0.3362	0.6752	0.096
Mof_H 	H 	0.3705	0.3186	0.6168	-0.01
Mof_N 	N 	0.3497	0.3758	0.706	-0.098
Mof_C 	C 	0.3853	0.3919	0.798	0.125
Mof_H 	H 	0.3739	0.4176	0.8352	-0.014
Mof_C 	C 	0.4409	0.3622	0.824	-0.041
Mof_H 	H 	0.473	0.3648	0.8815	0.038
Mof_Co	Co	6.86675e-18	0.21984	0.25	1.157
Mof_Co	Co	0.5	0.71984	0.25	1.17
Mof_Co	Co	1.37335e-17	0.78016	0.75	1.158
Mof_Co	Co	0.5	0.28016	0.75	1.17
_end
