# CIF file generated by openbabel 3.1.0, see https://openbabel.org
data_I
_chemical_name_common 'image0'
_cell_length_a 12.702
_cell_length_b 9.365
_cell_length_c 11.253
_cell_angle_alpha 90
_cell_angle_beta 90
_cell_angle_gamma 90
_space_group_name_H-M_alt 'P 1'
_space_group_name_Hall 'P 1'
loop_
    _symmetry_equiv_pos_as_xyz
    x,y,z
loop_
    _atom_site_label
    _atom_site_type_symbol
    _atom_site_fract_x
    _atom_site_fract_y
    _atom_site_fract_z
    _atom_site_occupancy
    P1       P        0.42472    0.51160    0.20056    1.000
    O1       O        0.23780    0.86820    0.11240    1.000
    O2       O        0.51410    0.53060    0.10950    1.000
    H1       H        0.56970    0.50320    0.13860    1.000
    O3       O        0.37320    0.36780    0.17670    1.000
    O4       O        0.34490    0.62990    0.17680    1.000
    O5       O        0.15340    0.01480    0.95590    1.000
    O6       O        0.03100    0.47730    0.32470    1.000
    P2       P        0.07528    0.48840    0.20056    1.000
    O7       O        0.26220    0.13180    0.11240    1.000
    O8       O        0.98590    0.46940    0.10950    1.000
    H2       H        0.93030    0.49680    0.13860    1.000
    O9       O        0.12680    0.63220    0.17670    1.000
    O10      O        0.15510    0.37010    0.17680    1.000
    O11      O        0.34660    0.98520    0.95590    1.000
    O12      O        0.46900    0.52270    0.32470    1.000
    P3       P        0.07528    0.01160    0.29944    1.000
    O13      O        0.26220    0.36820    0.38760    1.000
    O14      O        0.98590    0.03060    0.39050    1.000
    H3       H        0.93030    0.00320    0.36140    1.000
    O15      O        0.12680    0.86780    0.32330    1.000
    O16      O        0.15510    0.12990    0.32320    1.000
    O17      O        0.34660    0.51480    0.54410    1.000
    O18      O        0.46900    0.97730    0.17530    1.000
    P4       P        0.42472    0.98840    0.29944    1.000
    O19      O        0.23780    0.63180    0.38760    1.000
    O20      O        0.51410    0.96940    0.39050    1.000
    H4       H        0.56970    0.99680    0.36140    1.000
    O21      O        0.37320    0.13220    0.32330    1.000
    O22      O        0.34490    0.87010    0.32320    1.000
    O23      O        0.15340    0.48520    0.54410    1.000
    O24      O        0.03100    0.02270    0.17530    1.000
    P5       P        0.57528    0.48840    0.79944    1.000
    O25      O        0.76220    0.13180    0.88760    1.000
    O26      O        0.48590    0.46940    0.89050    1.000
    H5       H        0.43030    0.49680    0.86140    1.000
    O27      O        0.62680    0.63220    0.82330    1.000
    O28      O        0.65510    0.37010    0.82320    1.000
    O29      O        0.84660    0.98520    0.04410    1.000
    O30      O        0.96900    0.52270    0.67530    1.000
    P6       P        0.92472    0.51160    0.79944    1.000
    O31      O        0.73780    0.86820    0.88760    1.000
    O32      O        0.01410    0.53060    0.89050    1.000
    H6       H        0.06970    0.50320    0.86140    1.000
    O33      O        0.87320    0.36780    0.82330    1.000
    O34      O        0.84490    0.62990    0.82320    1.000
    O35      O        0.65340    0.01480    0.04410    1.000
    O36      O        0.53100    0.47730    0.67530    1.000
    P7       P        0.92472    0.98840    0.70056    1.000
    O37      O        0.73780    0.63180    0.61240    1.000
    O38      O        0.01410    0.96940    0.60950    1.000
    H7       H        0.06970    0.99680    0.63860    1.000
    O39      O        0.87320    0.13220    0.67670    1.000
    O40      O        0.84490    0.87010    0.67680    1.000
    O41      O        0.65340    0.48520    0.45590    1.000
    O42      O        0.53100    0.02270    0.82470    1.000
    P8       P        0.57528    0.01160    0.70056    1.000
    O43      O        0.76220    0.36820    0.61240    1.000
    O44      O        0.48590    0.03060    0.60950    1.000
    H8       H        0.43030    0.00320    0.63860    1.000
    O45      O        0.62680    0.86780    0.67670    1.000
    O46      O        0.65510    0.12990    0.67680    1.000
    O47      O        0.84660    0.51480    0.45590    1.000
    O48      O        0.96900    0.97730    0.82470    1.000
    Ti1      Ti       0.25799    0.25000    0.25000    1.000
    Ti2      Ti       0.24201    0.75000    0.25000    1.000
    Ti3      Ti       0.74201    0.75000    0.75000    1.000
    Ti4      Ti       0.75799    0.25000    0.75000    1.000
    Ti5      Ti       0.00000    0.00000    0.00000    1.000
    Ti6      Ti       0.50000    0.00000    0.00000    1.000
    Ti7      Ti       0.50000    0.50000    0.50000    1.000
    Ti8      Ti       0.00000    0.50000    0.50000    1.000
    P9       P        0.25000    0.00000    0.03370    1.000
    P10      P        0.25000    0.50000    0.46630    1.000
    P11      P        0.75000    0.00000    0.96630    1.000
    P12      P        0.75000    0.50000    0.53370    1.000
