data_functionalizedCrystal
_audit_creation_method	'EQeq! by Chris Wilmer'
_symmetry_space_group_name_H-M	'P1'
_symmetry_Int_Tables_number	1
_symmetry_cell_setting	triclinic
loop_
_symmetry_equiv_pos_as_xyz
  x,y,z
_cell_length_a	15.5527
_cell_length_b	10.0841
_cell_length_c	18.7813
_cell_angle_alpha	90
_cell_angle_beta	104.423
_cell_angle_gamma	90
loop_
_atom_site_label
_atom_site_type_symbol
_atom_site_fract_x
_atom_site_fract_y
_atom_site_fract_z
_atom_site_charge
Mof_V 	V 	0.24928	0.96938	0.28488	1.71
Mof_V 	V 	0.83101	0.89017	0.4143	1.719
Mof_P 	P 	0.20151	0.12821	0.41982	0.515
Mof_P 	P 	0.83145	0.18035	0.34034	0.473
Mof_O 	O 	0.81674	0.08138	0.39774	-0.534
Mof_O 	O 	0.28366	0.21078	0.42164	-0.611
Mof_O 	O 	0.20246	0.0665	0.49461	-0.527
Mof_O 	O 	0.19472	0.01211	0.36587	-0.521
Mof_O 	O 	0.82489	0.11553	0.2655	-0.578
Mof_O 	O 	0.76455	0.29342	0.33479	-0.548
Mof_O 	O 	0.21641	0.86748	0.19255	-1.289
Mof_C 	C 	0.10549	0.23119	0.39149	-0.392
Mof_H 	H 	0.1065	0.2987	0.43	0.091
Mof_H 	H 	0.1084	0.2784	0.346	0.099
Mof_C 	C 	0.0173	0.1551	0.37729	0.173
Mof_H 	H 	0.0096	0.101	0.3321	-0.039
Mof_H 	H 	0.0182	0.0945	0.4189	-0.096
Mof_C 	C 	0.93988	0.252	0.36848	-0.362
Mof_H 	H 	0.9451	0.2979	0.416	0.084
Mof_H 	H 	0.9455	0.3201	0.3319	0.064
Mof_H 	H 	0.227	0.801	0.2003	0.578
Mof_V 	V 	0.74928	0.46938	0.28488	1.711
Mof_V 	V 	0.33101	0.39017	0.4143	1.718
Mof_P 	P 	0.70151	0.62821	0.41982	0.514
Mof_P 	P 	0.33145	0.68035	0.34034	0.472
Mof_O 	O 	0.31674	0.58138	0.39774	-0.537
Mof_O 	O 	0.78366	0.71078	0.42164	-0.612
Mof_O 	O 	0.70246	0.5665	0.49461	-0.528
Mof_O 	O 	0.69472	0.51211	0.36587	-0.524
Mof_O 	O 	0.32489	0.61553	0.2655	-0.58
Mof_O 	O 	0.26455	0.79342	0.33479	-0.549
Mof_O 	O 	0.71641	0.36748	0.19255	-1.285
Mof_C 	C 	0.60549	0.73119	0.39149	-0.393
Mof_H 	H 	0.6065	0.7987	0.43	0.091
Mof_H 	H 	0.6084	0.7784	0.346	0.099
Mof_C 	C 	0.5173	0.6551	0.37729	0.175
Mof_H 	H 	0.5096	0.601	0.3321	-0.04
Mof_H 	H 	0.5182	0.5945	0.4189	-0.096
Mof_C 	C 	0.43988	0.752	0.36848	-0.363
Mof_H 	H 	0.4451	0.7979	0.416	0.085
Mof_H 	H 	0.4455	0.8201	0.3319	0.064
Mof_H 	H 	0.727	0.301	0.2003	0.578
Mof_V 	V 	0.75072	0.96938	0.21512	1.708
Mof_V 	V 	0.16899	0.89017	0.0857	1.714
Mof_P 	P 	0.79849	0.12821	0.08018	0.514
Mof_P 	P 	0.16855	0.18035	0.15966	0.472
Mof_O 	O 	0.18326	0.08138	0.10226	-0.534
Mof_O 	O 	0.71634	0.21078	0.07836	-0.61
Mof_O 	O 	0.79754	0.0665	0.00539	-0.523
Mof_O 	O 	0.80528	0.01211	0.13413	-0.52
Mof_O 	O 	0.17511	0.11553	0.2345	-0.578
Mof_O 	O 	0.23545	0.29342	0.16521	-0.547
Mof_O 	O 	0.78359	0.86748	0.30745	-1.288
Mof_C 	C 	0.89451	0.23119	0.10851	-0.393
Mof_H 	H 	0.8935	0.2987	0.07	0.092
Mof_H 	H 	0.8916	0.2784	0.154	0.099
Mof_C 	C 	0.9827	0.1551	0.12271	0.175
Mof_H 	H 	0.9904	0.101	0.1679	-0.039
Mof_H 	H 	0.9818	0.0945	0.0811	-0.094
Mof_C 	C 	0.06012	0.252	0.13152	-0.364
Mof_H 	H 	0.0549	0.2979	0.084	0.084
Mof_H 	H 	0.0545	0.3201	0.1681	0.064
Mof_H 	H 	0.773	0.801	0.2997	0.578
Mof_V 	V 	0.25072	0.46938	0.21512	1.711
Mof_V 	V 	0.66899	0.39017	0.0857	1.719
Mof_P 	P 	0.29849	0.62821	0.08018	0.513
Mof_P 	P 	0.66855	0.68035	0.15966	0.471
Mof_O 	O 	0.68326	0.58138	0.10226	-0.537
Mof_O 	O 	0.21634	0.71078	0.07836	-0.615
Mof_O 	O 	0.29754	0.5665	0.00539	-0.53
Mof_O 	O 	0.30528	0.51211	0.13413	-0.524
Mof_O 	O 	0.67511	0.61553	0.2345	-0.58
Mof_O 	O 	0.73545	0.79342	0.16521	-0.551
Mof_O 	O 	0.28359	0.36748	0.30745	-1.285
Mof_C 	C 	0.39451	0.73119	0.10851	-0.392
Mof_H 	H 	0.3935	0.7987	0.07	0.089
Mof_H 	H 	0.3916	0.7784	0.154	0.098
Mof_C 	C 	0.4827	0.6551	0.12271	0.173
Mof_H 	H 	0.4904	0.601	0.1679	-0.039
Mof_H 	H 	0.4818	0.5945	0.0811	-0.096
Mof_C 	C 	0.56012	0.752	0.13152	-0.362
Mof_H 	H 	0.5549	0.7979	0.084	0.082
Mof_H 	H 	0.5545	0.8201	0.1681	0.063
Mof_H 	H 	0.273	0.301	0.2997	0.577
Mof_V 	V 	0.75072	0.03062	0.71512	1.709
Mof_V 	V 	0.16899	0.10983	0.5857	1.718
Mof_P 	P 	0.79849	0.87179	0.58018	0.514
Mof_P 	P 	0.16855	0.81965	0.65966	0.472
Mof_O 	O 	0.18326	0.91862	0.60226	-0.535
Mof_O 	O 	0.71634	0.78922	0.57836	-0.612
Mof_O 	O 	0.79754	0.9335	0.50539	-0.528
Mof_O 	O 	0.80528	0.98789	0.63413	-0.522
Mof_O 	O 	0.17511	0.88447	0.7345	-0.578
Mof_O 	O 	0.23545	0.70658	0.66521	-0.548
Mof_O 	O 	0.78359	0.13252	0.80745	-1.289
Mof_C 	C 	0.89451	0.76881	0.60851	-0.392
Mof_H 	H 	0.8935	0.7013	0.57	0.091
Mof_H 	H 	0.8916	0.7216	0.654	0.099
Mof_C 	C 	0.9827	0.8449	0.62271	0.173
Mof_H 	H 	0.9904	0.899	0.6679	-0.039
Mof_H 	H 	0.9818	0.9055	0.5811	-0.096
Mof_C 	C 	0.06012	0.748	0.63152	-0.362
Mof_H 	H 	0.0549	0.7021	0.584	0.084
Mof_H 	H 	0.0545	0.6799	0.6681	0.064
Mof_H 	H 	0.773	0.199	0.7997	0.578
Mof_V 	V 	0.25072	0.53062	0.71512	1.711
Mof_V 	V 	0.66899	0.60983	0.5857	1.718
Mof_P 	P 	0.29849	0.37179	0.58018	0.514
Mof_P 	P 	0.66855	0.31965	0.65966	0.472
Mof_O 	O 	0.68326	0.41862	0.60226	-0.537
Mof_O 	O 	0.21634	0.28922	0.57836	-0.612
Mof_O 	O 	0.29754	0.4335	0.50539	-0.528
Mof_O 	O 	0.30528	0.48789	0.63413	-0.524
Mof_O 	O 	0.67511	0.38447	0.7345	-0.58
Mof_O 	O 	0.73545	0.20658	0.66521	-0.549
Mof_O 	O 	0.28359	0.63252	0.80745	-1.285
Mof_C 	C 	0.39451	0.26881	0.60851	-0.393
Mof_H 	H 	0.3935	0.2013	0.57	0.091
Mof_H 	H 	0.3916	0.2216	0.654	0.099
Mof_C 	C 	0.4827	0.3449	0.62271	0.175
Mof_H 	H 	0.4904	0.399	0.6679	-0.04
Mof_H 	H 	0.4818	0.4055	0.5811	-0.096
Mof_C 	C 	0.56012	0.248	0.63152	-0.363
Mof_H 	H 	0.5549	0.2021	0.584	0.085
Mof_H 	H 	0.5545	0.1799	0.6681	0.064
Mof_H 	H 	0.273	0.699	0.7997	0.578
Mof_V 	V 	0.24928	0.03062	0.78488	1.708
Mof_V 	V 	0.83101	0.10983	0.9143	1.714
Mof_P 	P 	0.20151	0.87179	0.91982	0.514
Mof_P 	P 	0.83145	0.81965	0.84034	0.472
Mof_O 	O 	0.81674	0.91862	0.89774	-0.534
Mof_O 	O 	0.28366	0.78922	0.92164	-0.61
Mof_O 	O 	0.20246	0.9335	0.99461	-0.523
Mof_O 	O 	0.19472	0.98789	0.86587	-0.52
Mof_O 	O 	0.82489	0.88447	0.7655	-0.578
Mof_O 	O 	0.76455	0.70658	0.83479	-0.547
Mof_O 	O 	0.21641	0.13252	0.69255	-1.288
Mof_C 	C 	0.10549	0.76881	0.89149	-0.393
Mof_H 	H 	0.1065	0.7013	0.93	0.092
Mof_H 	H 	0.1084	0.7216	0.846	0.099
Mof_C 	C 	0.0173	0.8449	0.87729	0.175
Mof_H 	H 	0.0096	0.899	0.8321	-0.039
Mof_H 	H 	0.0182	0.9055	0.9189	-0.094
Mof_C 	C 	0.93988	0.748	0.86848	-0.364
Mof_H 	H 	0.9451	0.7021	0.916	0.084
Mof_H 	H 	0.9455	0.6799	0.8319	0.064
Mof_H 	H 	0.227	0.199	0.7003	0.578
Mof_V 	V 	0.74928	0.53062	0.78488	1.711
Mof_V 	V 	0.33101	0.60983	0.9143	1.719
Mof_P 	P 	0.70151	0.37179	0.91982	0.513
Mof_P 	P 	0.33145	0.31965	0.84034	0.471
Mof_O 	O 	0.31674	0.41862	0.89774	-0.537
Mof_O 	O 	0.78366	0.28922	0.92164	-0.615
Mof_O 	O 	0.70246	0.4335	0.99461	-0.53
Mof_O 	O 	0.69472	0.48789	0.86587	-0.524
Mof_O 	O 	0.32489	0.38447	0.7655	-0.58
Mof_O 	O 	0.26455	0.20658	0.83479	-0.551
Mof_O 	O 	0.71641	0.63252	0.69255	-1.285
Mof_C 	C 	0.60549	0.26881	0.89149	-0.392
Mof_H 	H 	0.6065	0.2013	0.93	0.089
Mof_H 	H 	0.6084	0.2216	0.846	0.098
Mof_C 	C 	0.5173	0.3449	0.87729	0.173
Mof_H 	H 	0.5096	0.399	0.8321	-0.039
Mof_H 	H 	0.5182	0.4055	0.9189	-0.096
Mof_C 	C 	0.43988	0.248	0.86848	-0.362
Mof_H 	H 	0.4451	0.2021	0.916	0.082
Mof_H 	H 	0.4455	0.1799	0.8319	0.063
Mof_H 	H 	0.727	0.699	0.7003	0.577
_end
