# CIF file generated by openbabel 3.1.0, see https://openbabel.org
data_I
_chemical_name_common 'image0'
_cell_length_a 16.1871
_cell_length_b 16.3069
_cell_length_c 9.9762
_cell_angle_alpha 90
_cell_angle_beta 114.628
_cell_angle_gamma 90
_space_group_name_H-M_alt 'P 1'
_space_group_name_Hall 'P 1'
loop_
    _symmetry_equiv_pos_as_xyz
    x,y,z
loop_
    _atom_site_label
    _atom_site_type_symbol
    _atom_site_fract_x
    _atom_site_fract_y
    _atom_site_fract_z
    _atom_site_occupancy
    C1       C        0.42040    0.15280    0.33370    1.000
    H1       H        0.42850    0.09630    0.33650    1.000
    C2       C        0.49310    0.20128    0.41610    1.000
    H2       H        0.54940    0.17800    0.47270    1.000
    C3       C        0.48120    0.28580    0.41380    1.000
    C4       C        0.39700    0.31810    0.32490    1.000
    H3       H        0.38760    0.37450    0.32000    1.000
    C5       C        0.32740    0.26580    0.24410    1.000
    H4       H        0.27110    0.28790    0.18400    1.000
    C6       C        0.55850    0.34190    0.50390    1.000
    C7       C        0.19750    0.98755    0.89650    1.000
    N1       N        0.33776    0.18363    0.24880    1.000
    N2       N        0.24226    0.04886    0.98790    1.000
    N3       N        0.31426    0.06762    0.95550    1.000
    N4       N        0.31316    0.02070    0.85190    1.000
    N5       N        0.23977    0.96870    0.81040    1.000
    N6       N        0.12380    0.94967    0.89700    1.000
    H5       H        0.09970    0.90930    0.83810    1.000
    H6       H        0.10080    0.96580    0.95620    1.000
    O1       O        0.63509    0.30625    0.57480    1.000
    O2       O        0.54619    0.41627    0.50490    1.000
    Zn1      Zn       0.22743    0.10838    0.14975    1.000
    C8       C        0.92040    0.65280    0.33370    1.000
    H7       H        0.92850    0.59630    0.33650    1.000
    C9       C        0.99310    0.70128    0.41610    1.000
    H8       H        0.04940    0.67800    0.47270    1.000
    C10      C        0.98120    0.78580    0.41380    1.000
    C11      C        0.89700    0.81810    0.32490    1.000
    H9       H        0.88760    0.87450    0.32000    1.000
    C12      C        0.82740    0.76580    0.24410    1.000
    H10      H        0.77110    0.78790    0.18400    1.000
    C13      C        0.05850    0.84190    0.50390    1.000
    C14      C        0.69750    0.48755    0.89650    1.000
    N7       N        0.83776    0.68363    0.24880    1.000
    N8       N        0.74226    0.54886    0.98790    1.000
    N9       N        0.81426    0.56762    0.95550    1.000
    N10      N        0.81316    0.52070    0.85190    1.000
    N11      N        0.73977    0.46870    0.81040    1.000
    N12      N        0.62380    0.44967    0.89700    1.000
    H11      H        0.59970    0.40930    0.83810    1.000
    H12      H        0.60080    0.46580    0.95620    1.000
    O3       O        0.13509    0.80625    0.57480    1.000
    O4       O        0.04619    0.91627    0.50490    1.000
    Zn2      Zn       0.72743    0.60838    0.14975    1.000
    C15      C        0.42040    0.84720    0.83370    1.000
    H13      H        0.42850    0.90370    0.83650    1.000
    C16      C        0.49310    0.79872    0.91610    1.000
    H14      H        0.54940    0.82200    0.97270    1.000
    C17      C        0.48120    0.71420    0.91380    1.000
    C18      C        0.39700    0.68190    0.82490    1.000
    H15      H        0.38760    0.62550    0.82000    1.000
    C19      C        0.32740    0.73420    0.74410    1.000
    H16      H        0.27110    0.71210    0.68400    1.000
    C20      C        0.55850    0.65810    0.00390    1.000
    C21      C        0.19750    0.01245    0.39650    1.000
    N13      N        0.33776    0.81637    0.74880    1.000
    N14      N        0.24226    0.95114    0.48790    1.000
    N15      N        0.31426    0.93238    0.45550    1.000
    N16      N        0.31316    0.97930    0.35190    1.000
    N17      N        0.23977    0.03130    0.31040    1.000
    N18      N        0.12380    0.05033    0.39700    1.000
    H17      H        0.09970    0.09070    0.33810    1.000
    H18      H        0.10080    0.03420    0.45620    1.000
    O5       O        0.63509    0.69375    0.07480    1.000
    O6       O        0.54619    0.58373    0.00490    1.000
    Zn3      Zn       0.22743    0.89162    0.64975    1.000
    C22      C        0.92040    0.34720    0.83370    1.000
    H19      H        0.92850    0.40370    0.83650    1.000
    C23      C        0.99310    0.29872    0.91610    1.000
    H20      H        0.04940    0.32200    0.97270    1.000
    C24      C        0.98120    0.21420    0.91380    1.000
    C25      C        0.89700    0.18190    0.82490    1.000
    H21      H        0.88760    0.12550    0.82000    1.000
    C26      C        0.82740    0.23420    0.74410    1.000
    H22      H        0.77110    0.21210    0.68400    1.000
    C27      C        0.05850    0.15810    0.00390    1.000
    C28      C        0.69750    0.51245    0.39650    1.000
    N19      N        0.83776    0.31637    0.74880    1.000
    N20      N        0.74226    0.45114    0.48790    1.000
    N21      N        0.81426    0.43238    0.45550    1.000
    N22      N        0.81316    0.47930    0.35190    1.000
    N23      N        0.73977    0.53130    0.31040    1.000
    N24      N        0.62380    0.55033    0.39700    1.000
    H23      H        0.59970    0.59070    0.33810    1.000
    H24      H        0.60080    0.53420    0.45620    1.000
    O7       O        0.13509    0.19375    0.07480    1.000
    O8       O        0.04619    0.08373    0.00490    1.000
    Zn4      Zn       0.72743    0.39162    0.64975    1.000
    C29      C        0.57960    0.15280    0.16630    1.000
    H25      H        0.57150    0.09630    0.16350    1.000
    C30      C        0.50690    0.20128    0.08390    1.000
    H26      H        0.45060    0.17800    0.02730    1.000
    C31      C        0.51880    0.28580    0.08620    1.000
    C32      C        0.60300    0.31810    0.17510    1.000
    H27      H        0.61240    0.37450    0.18000    1.000
    C33      C        0.67260    0.26580    0.25590    1.000
    H28      H        0.72890    0.28790    0.31600    1.000
    C34      C        0.44150    0.34190    0.99610    1.000
    C35      C        0.80250    0.98755    0.60350    1.000
    N25      N        0.66224    0.18363    0.25120    1.000
    N26      N        0.75774    0.04886    0.51210    1.000
    N27      N        0.68574    0.06762    0.54450    1.000
    N28      N        0.68684    0.02070    0.64810    1.000
    N29      N        0.76023    0.96870    0.68960    1.000
    N30      N        0.87620    0.94967    0.60300    1.000
    H29      H        0.90030    0.90930    0.66190    1.000
    H30      H        0.89920    0.96580    0.54380    1.000
    O9       O        0.36491    0.30625    0.92520    1.000
    O10      O        0.45381    0.41627    0.99510    1.000
    Zn5      Zn       0.77257    0.10838    0.35025    1.000
    C36      C        0.07960    0.65280    0.16630    1.000
    H31      H        0.07150    0.59630    0.16350    1.000
    C37      C        0.00690    0.70128    0.08390    1.000
    H32      H        0.95060    0.67800    0.02730    1.000
    C38      C        0.01880    0.78580    0.08620    1.000
    C39      C        0.10300    0.81810    0.17510    1.000
    H33      H        0.11240    0.87450    0.18000    1.000
    C40      C        0.17260    0.76580    0.25590    1.000
    H34      H        0.22890    0.78790    0.31600    1.000
    C41      C        0.94150    0.84190    0.99610    1.000
    C42      C        0.30250    0.48755    0.60350    1.000
    N31      N        0.16224    0.68363    0.25120    1.000
    N32      N        0.25774    0.54886    0.51210    1.000
    N33      N        0.18574    0.56762    0.54450    1.000
    N34      N        0.18684    0.52070    0.64810    1.000
    N35      N        0.26023    0.46870    0.68960    1.000
    N36      N        0.37620    0.44967    0.60300    1.000
    H35      H        0.40030    0.40930    0.66190    1.000
    H36      H        0.39920    0.46580    0.54380    1.000
    O11      O        0.86491    0.80625    0.92520    1.000
    O12      O        0.95381    0.91627    0.99510    1.000
    Zn6      Zn       0.27257    0.60838    0.35025    1.000
    C43      C        0.57960    0.84720    0.66630    1.000
    H37      H        0.57150    0.90370    0.66350    1.000
    C44      C        0.50690    0.79872    0.58390    1.000
    H38      H        0.45060    0.82200    0.52730    1.000
    C45      C        0.51880    0.71420    0.58620    1.000
    C46      C        0.60300    0.68190    0.67510    1.000
    H39      H        0.61240    0.62550    0.68000    1.000
    C47      C        0.67260    0.73420    0.75590    1.000
    H40      H        0.72890    0.71210    0.81600    1.000
    C48      C        0.44150    0.65810    0.49610    1.000
    C49      C        0.80250    0.01245    0.10350    1.000
    N37      N        0.66224    0.81637    0.75120    1.000
    N38      N        0.75774    0.95114    0.01210    1.000
    N39      N        0.68574    0.93238    0.04450    1.000
    N40      N        0.68684    0.97930    0.14810    1.000
    N41      N        0.76023    0.03130    0.18960    1.000
    N42      N        0.87620    0.05033    0.10300    1.000
    H41      H        0.90030    0.09070    0.16190    1.000
    H42      H        0.89920    0.03420    0.04380    1.000
    O13      O        0.36491    0.69375    0.42520    1.000
    O14      O        0.45381    0.58373    0.49510    1.000
    Zn7      Zn       0.77257    0.89162    0.85025    1.000
    C50      C        0.07960    0.34720    0.66630    1.000
    H43      H        0.07150    0.40370    0.66350    1.000
    C51      C        0.00690    0.29872    0.58390    1.000
    H44      H        0.95060    0.32200    0.52730    1.000
    C52      C        0.01880    0.21420    0.58620    1.000
    C53      C        0.10300    0.18190    0.67510    1.000
    H45      H        0.11240    0.12550    0.68000    1.000
    C54      C        0.17260    0.23420    0.75590    1.000
    H46      H        0.22890    0.21210    0.81600    1.000
    C55      C        0.94150    0.15810    0.49610    1.000
    C56      C        0.30250    0.51245    0.10350    1.000
    N43      N        0.16224    0.31637    0.75120    1.000
    N44      N        0.25774    0.45114    0.01210    1.000
    N45      N        0.18574    0.43238    0.04450    1.000
    N46      N        0.18684    0.47930    0.14810    1.000
    N47      N        0.26023    0.53130    0.18960    1.000
    N48      N        0.37620    0.55033    0.10300    1.000
    H47      H        0.40030    0.59070    0.16190    1.000
    H48      H        0.39920    0.53420    0.04380    1.000
    O15      O        0.86491    0.19375    0.42520    1.000
    O16      O        0.95381    0.08373    0.49510    1.000
    Zn8      Zn       0.27257    0.39162    0.85025    1.000
