data_functionalizedCrystal
_audit_creation_method	'EQeq! by Chris Wilmer'
_symmetry_space_group_name_H-M	'P1'
_symmetry_Int_Tables_number	1
_symmetry_cell_setting	triclinic
loop_
_symmetry_equiv_pos_as_xyz
  x,y,z
_cell_length_a	44.26
_cell_length_b	15.016
_cell_length_c	14.974
_cell_angle_alpha	90
_cell_angle_beta	94.012
_cell_angle_gamma	90
loop_
_atom_site_label
_atom_site_type_symbol
_atom_site_fract_x
_atom_site_fract_y
_atom_site_fract_z
_atom_site_charge
Mof_Zn	Zn	0.21687	0.25056	0.99564	1.223
Mof_O 	O 	0.22433	0.33005	0.10173	-0.489
Mof_O 	O 	0.2309	0.64876	0.41842	-0.495
Mof_O 	O 	0.2741	0.33068	0.10691	-0.482
Mof_O 	O 	0.28066	0.64441	0.4233	-0.475
Mof_N 	N 	0.17294	0.2591	0.96	-0.267
Mof_C 	C 	0.27969	0.4694	0.3479	0.048
Mof_C 	C 	0.25355	0.5717	0.2431	0.044
Mof_C 	C 	0.25347	0.5354	0.338	-0.135
Mof_C 	C 	0.2507	0.4128	0.2159	-0.137
Mof_C 	C 	0.25246	0.5069	0.1792	0.046
Mof_C 	C 	0.22367	0.4116	0.2733	0.049
Mof_C 	C 	0.22532	0.477	0.3397	0.045
Mof_C 	C 	0.20347	0.4814	0.4	-0.081
Mof_H 	H 	0.2046	0.5253	0.4457	0.071
Mof_C 	C 	0.27796	0.403	0.2832	0.048
Mof_C 	C 	0.2539	0.6184	0.0664	-0.025
Mof_H 	H 	0.2542	0.6344	0.0051	0.041
Mof_C 	C 	0.25483	0.6598	0.2194	-0.076
Mof_H 	H 	0.2557	0.7046	0.2643	0.063
Mof_C 	C 	0.30232	0.4674	0.4153	-0.083
Mof_H 	H 	0.3038	0.5133	0.4591	0.076
Mof_C 	C 	0.2548	0.6833	0.1308	-0.025
Mof_H 	H 	0.2554	0.7444	0.1142	0.041
Mof_C 	C 	0.29852	0.3348	0.2879	-0.081
Mof_H 	H 	0.2973	0.2889	0.244	0.072
Mof_C 	C 	0.32088	0.3327	0.3556	-0.022
Mof_H 	H 	0.3351	0.2852	0.3588	0.036
Mof_C 	C 	0.24957	0.3508	0.1358	0.424
Mof_C 	C 	0.25516	0.6152	0.4	0.419
Mof_C 	C 	0.32294	0.3985	0.419	-0.023
Mof_H 	H 	0.3386	0.3967	0.4657	0.038
Mof_C 	C 	0.20007	0.3521	0.2682	-0.086
Mof_H 	H 	0.199	0.3071	0.2236	0.076
Mof_C 	C 	0.16424	0.2976	0.8817	0.1
Mof_H 	H 	0.179	0.3287	0.8505	-0.004
Mof_C 	C 	0.25261	0.5302	0.0904	-0.076
Mof_H 	H 	0.2518	0.4854	0.0456	0.064
Mof_C 	C 	0.1779	0.358	0.3281	-0.022
Mof_H 	H 	0.1613	0.3179	0.3237	0.036
Mof_C 	C 	0.13534	0.2943	0.8448	-0.178
Mof_H 	H 	0.1301	0.3216	0.7886	0.091
Mof_C 	C 	0.17971	0.4214	0.3938	-0.026
Mof_H 	H 	0.1645	0.4243	0.4355	0.038
Mof_C 	C 	0.12253	0.2117	0.9713	-0.181
Mof_H 	H 	0.1081	0.1814	0.0042	0.093
Mof_C 	C 	0.15209	0.217	0.0037	0.108
Mof_H 	H 	0.158	0.1897	0.0594	-0.013
Mof_C 	C 	0.08344	0.246	0.8522	-0.086
Mof_C 	C 	0.05888	0.2459	0.8195	0.031
Mof_C 	C 	0.0278	0.2461	0.7817	-0.039
Mof_C 	C 	0.02319	0.2933	0.6924	0.019
Mof_C 	C 	0.00674	0.2937	0.8421	0.018
Mof_C 	C 	0.11386	0.2509	0.8901	0.135
Mof_C 	C 	0.02958	0.076	0.7846	-0.067
Mof_H 	H 	0.05	0.0764	0.8086	0.056
Mof_C 	C 	0.04485	0.3326	0.6451	-0.067
Mof_H 	H 	0.0655	0.331	0.667	0.054
Mof_C 	C 	0.03653	0.3747	0.5654	-0.027
Mof_H 	H 	0.0516	0.403	0.5333	0.037
Mof_C 	C 	0.00704	0.3767	0.5314	-0.033
Mof_H 	H 	0.0016	0.406	0.4764	0.04
Mof_C 	C 	0.01496	0.9967	0.7674	-0.029
Mof_H 	H 	0.0252	0.942	0.7793	0.038
Mof_C 	C 	0.01474	0.3348	0.9211	-0.065
Mof_H 	H 	0.0353	0.335	0.9439	0.055
Mof_C 	C 	0.01492	0.1529	0.7674	0.019
Mof_Zn	Zn	0.71687	0.75056	0.99564	1.224
Mof_O 	O 	0.72433	0.83005	0.10173	-0.488
Mof_O 	O 	0.7309	0.14876	0.41842	-0.495
Mof_O 	O 	0.7741	0.83068	0.10691	-0.482
Mof_O 	O 	0.78066	0.14441	0.4233	-0.475
Mof_N 	N 	0.67294	0.7591	0.96	-0.267
Mof_C 	C 	0.77969	0.9694	0.3479	0.048
Mof_C 	C 	0.75355	0.0717	0.2431	0.044
Mof_C 	C 	0.75347	0.0354	0.338	-0.135
Mof_C 	C 	0.7507	0.9128	0.2159	-0.137
Mof_C 	C 	0.75246	0.0069	0.1792	0.046
Mof_C 	C 	0.72367	0.9116	0.2733	0.049
Mof_C 	C 	0.72532	0.977	0.3397	0.045
Mof_C 	C 	0.70347	0.9814	0.4	-0.081
Mof_H 	H 	0.7046	0.0253	0.4457	0.071
Mof_C 	C 	0.77796	0.903	0.2832	0.048
Mof_C 	C 	0.7539	0.1184	0.0664	-0.025
Mof_H 	H 	0.7542	0.1344	0.0051	0.041
Mof_C 	C 	0.75483	0.1598	0.2194	-0.075
Mof_H 	H 	0.7557	0.2046	0.2643	0.063
Mof_C 	C 	0.80232	0.9674	0.4153	-0.083
Mof_H 	H 	0.8038	0.0133	0.4591	0.076
Mof_C 	C 	0.7548	0.1833	0.1308	-0.025
Mof_H 	H 	0.7554	0.2444	0.1142	0.041
Mof_C 	C 	0.79852	0.8348	0.2879	-0.081
Mof_H 	H 	0.7973	0.7889	0.244	0.072
Mof_C 	C 	0.82088	0.8327	0.3556	-0.022
Mof_H 	H 	0.8351	0.7852	0.3588	0.037
Mof_C 	C 	0.74957	0.8508	0.1358	0.424
Mof_C 	C 	0.75516	0.1152	0.4	0.419
Mof_C 	C 	0.82294	0.8985	0.419	-0.023
Mof_H 	H 	0.8386	0.8967	0.4657	0.038
Mof_C 	C 	0.70007	0.8521	0.2682	-0.086
Mof_H 	H 	0.699	0.8071	0.2236	0.076
Mof_C 	C 	0.66424	0.7976	0.8817	0.1
Mof_H 	H 	0.679	0.8287	0.8505	-0.005
Mof_C 	C 	0.75261	0.0302	0.0904	-0.077
Mof_H 	H 	0.7518	0.9854	0.0456	0.064
Mof_C 	C 	0.6779	0.858	0.3281	-0.022
Mof_H 	H 	0.6613	0.8179	0.3237	0.036
Mof_C 	C 	0.63534	0.7943	0.8448	-0.178
Mof_H 	H 	0.6301	0.8216	0.7886	0.091
Mof_C 	C 	0.67971	0.9214	0.3938	-0.026
Mof_H 	H 	0.6645	0.9243	0.4355	0.038
Mof_C 	C 	0.62253	0.7117	0.9713	-0.182
Mof_H 	H 	0.6081	0.6814	0.0042	0.093
Mof_C 	C 	0.65209	0.717	0.0037	0.108
Mof_H 	H 	0.658	0.6897	0.0594	-0.013
Mof_C 	C 	0.58344	0.746	0.8522	-0.086
Mof_C 	C 	0.55888	0.7459	0.8195	0.032
Mof_C 	C 	0.5278	0.7461	0.7817	-0.039
Mof_C 	C 	0.52319	0.7933	0.6924	0.019
Mof_C 	C 	0.50674	0.7937	0.8421	0.018
Mof_C 	C 	0.61386	0.7509	0.8901	0.136
Mof_C 	C 	0.52958	0.576	0.7846	-0.067
Mof_H 	H 	0.55	0.5764	0.8086	0.056
Mof_C 	C 	0.54485	0.8326	0.6451	-0.067
Mof_H 	H 	0.5655	0.831	0.667	0.054
Mof_C 	C 	0.53653	0.8747	0.5654	-0.027
Mof_H 	H 	0.5516	0.903	0.5333	0.037
Mof_C 	C 	0.50704	0.8767	0.5314	-0.033
Mof_H 	H 	0.5016	0.906	0.4764	0.04
Mof_C 	C 	0.51496	0.4967	0.7674	-0.028
Mof_H 	H 	0.5252	0.442	0.7793	0.038
Mof_C 	C 	0.51474	0.8348	0.9211	-0.064
Mof_H 	H 	0.5353	0.835	0.9439	0.055
Mof_C 	C 	0.51492	0.6529	0.7674	0.02
Mof_Zn	Zn	0.78313	0.25056	0.50436	1.224
Mof_O 	O 	0.77567	0.33005	0.39827	-0.488
Mof_O 	O 	0.7691	0.64876	0.08158	-0.495
Mof_O 	O 	0.7259	0.33068	0.39309	-0.482
Mof_O 	O 	0.71934	0.64441	0.0767	-0.475
Mof_N 	N 	0.82706	0.2591	0.54	-0.267
Mof_C 	C 	0.72031	0.4694	0.1521	0.048
Mof_C 	C 	0.74645	0.5717	0.2569	0.044
Mof_C 	C 	0.74653	0.5354	0.162	-0.135
Mof_C 	C 	0.7493	0.4128	0.2841	-0.137
Mof_C 	C 	0.74754	0.5069	0.3208	0.046
Mof_C 	C 	0.77633	0.4116	0.2267	0.049
Mof_C 	C 	0.77468	0.477	0.1603	0.045
Mof_C 	C 	0.79653	0.4814	0.1	-0.081
Mof_H 	H 	0.7954	0.5253	0.0543	0.071
Mof_C 	C 	0.72204	0.403	0.2168	0.048
Mof_C 	C 	0.7461	0.6184	0.4336	-0.025
Mof_H 	H 	0.7458	0.6344	0.4949	0.041
Mof_C 	C 	0.74517	0.6598	0.2806	-0.075
Mof_H 	H 	0.7443	0.7046	0.2357	0.063
Mof_C 	C 	0.69768	0.4674	0.0847	-0.083
Mof_H 	H 	0.6962	0.5133	0.0409	0.077
Mof_C 	C 	0.7452	0.6833	0.3692	-0.025
Mof_H 	H 	0.7446	0.7444	0.3858	0.041
Mof_C 	C 	0.70148	0.3348	0.2121	-0.081
Mof_H 	H 	0.7027	0.2889	0.256	0.072
Mof_C 	C 	0.67912	0.3327	0.1444	-0.022
Mof_H 	H 	0.6649	0.2852	0.1412	0.037
Mof_C 	C 	0.75043	0.3508	0.3642	0.424
Mof_C 	C 	0.74484	0.6152	0.1	0.419
Mof_C 	C 	0.67706	0.3985	0.081	-0.023
Mof_H 	H 	0.6614	0.3967	0.0343	0.038
Mof_C 	C 	0.79993	0.3521	0.2318	-0.086
Mof_H 	H 	0.801	0.3071	0.2764	0.076
Mof_C 	C 	0.83576	0.2976	0.6183	0.1
Mof_H 	H 	0.821	0.3287	0.6495	-0.005
Mof_C 	C 	0.74739	0.5302	0.4096	-0.076
Mof_H 	H 	0.7482	0.4854	0.4544	0.063
Mof_C 	C 	0.8221	0.358	0.1719	-0.022
Mof_H 	H 	0.8387	0.3179	0.1763	0.036
Mof_C 	C 	0.86466	0.2943	0.6552	-0.178
Mof_H 	H 	0.8699	0.3216	0.7114	0.091
Mof_C 	C 	0.82029	0.4214	0.1062	-0.026
Mof_H 	H 	0.8355	0.4243	0.0645	0.038
Mof_C 	C 	0.87747	0.2117	0.5287	-0.181
Mof_H 	H 	0.8919	0.1814	0.4958	0.093
Mof_C 	C 	0.84791	0.217	0.4963	0.108
Mof_H 	H 	0.842	0.1897	0.4406	-0.013
Mof_C 	C 	0.91656	0.246	0.6478	-0.086
Mof_C 	C 	0.94112	0.2459	0.6805	0.031
Mof_C 	C 	0.9722	0.2461	0.7183	-0.038
Mof_C 	C 	0.97681	0.2933	0.8076	0.018
Mof_C 	C 	0.99326	0.2937	0.6579	0.017
Mof_C 	C 	0.88614	0.2509	0.6099	0.135
Mof_C 	C 	0.97042	0.076	0.7154	-0.067
Mof_H 	H 	0.95	0.0764	0.6914	0.056
Mof_C 	C 	0.95515	0.3326	0.8549	-0.067
Mof_H 	H 	0.9345	0.331	0.833	0.054
Mof_C 	C 	0.96347	0.3747	0.9346	-0.027
Mof_H 	H 	0.9484	0.403	0.9667	0.037
Mof_C 	C 	0.99296	0.3767	0.9686	-0.033
Mof_H 	H 	0.9984	0.406	0.0236	0.04
Mof_C 	C 	0.98504	0.9967	0.7326	-0.029
Mof_H 	H 	0.9748	0.942	0.7207	0.038
Mof_C 	C 	0.98526	0.3348	0.5789	-0.064
Mof_H 	H 	0.9647	0.335	0.5561	0.055
Mof_C 	C 	0.98508	0.1529	0.7326	0.019
Mof_Zn	Zn	0.28313	0.75056	0.50436	1.224
Mof_O 	O 	0.27567	0.83005	0.39827	-0.488
Mof_O 	O 	0.2691	0.14876	0.08158	-0.495
Mof_O 	O 	0.2259	0.83068	0.39309	-0.482
Mof_O 	O 	0.21934	0.14441	0.0767	-0.475
Mof_N 	N 	0.32706	0.7591	0.54	-0.267
Mof_C 	C 	0.22031	0.9694	0.1521	0.048
Mof_C 	C 	0.24645	0.0717	0.2569	0.044
Mof_C 	C 	0.24653	0.0354	0.162	-0.135
Mof_C 	C 	0.2493	0.9128	0.2841	-0.137
Mof_C 	C 	0.24754	0.0069	0.3208	0.046
Mof_C 	C 	0.27633	0.9116	0.2267	0.049
Mof_C 	C 	0.27468	0.977	0.1603	0.045
Mof_C 	C 	0.29653	0.9814	0.1	-0.081
Mof_H 	H 	0.2954	0.0253	0.0543	0.071
Mof_C 	C 	0.22204	0.903	0.2168	0.048
Mof_C 	C 	0.2461	0.1184	0.4336	-0.025
Mof_H 	H 	0.2458	0.1344	0.4949	0.041
Mof_C 	C 	0.24517	0.1598	0.2806	-0.076
Mof_H 	H 	0.2443	0.2046	0.2357	0.063
Mof_C 	C 	0.19768	0.9674	0.0847	-0.083
Mof_H 	H 	0.1962	0.0133	0.0409	0.076
Mof_C 	C 	0.2452	0.1833	0.3692	-0.025
Mof_H 	H 	0.2446	0.2444	0.3858	0.041
Mof_C 	C 	0.20148	0.8348	0.2121	-0.081
Mof_H 	H 	0.2027	0.7889	0.256	0.072
Mof_C 	C 	0.17912	0.8327	0.1444	-0.022
Mof_H 	H 	0.1649	0.7852	0.1412	0.037
Mof_C 	C 	0.25043	0.8508	0.3642	0.424
Mof_C 	C 	0.24484	0.1152	0.1	0.419
Mof_C 	C 	0.17706	0.8985	0.081	-0.024
Mof_H 	H 	0.1614	0.8967	0.0343	0.038
Mof_C 	C 	0.29993	0.8521	0.2318	-0.086
Mof_H 	H 	0.301	0.8071	0.2764	0.076
Mof_C 	C 	0.33576	0.7976	0.6183	0.1
Mof_H 	H 	0.321	0.8287	0.6495	-0.005
Mof_C 	C 	0.24739	0.0302	0.4096	-0.076
Mof_H 	H 	0.2482	0.9854	0.4544	0.063
Mof_C 	C 	0.3221	0.858	0.1719	-0.022
Mof_H 	H 	0.3387	0.8179	0.1763	0.036
Mof_C 	C 	0.36466	0.7943	0.6552	-0.178
Mof_H 	H 	0.3699	0.8216	0.7114	0.091
Mof_C 	C 	0.32029	0.9214	0.1062	-0.026
Mof_H 	H 	0.3355	0.9243	0.0645	0.038
Mof_C 	C 	0.37747	0.7117	0.5287	-0.181
Mof_H 	H 	0.3919	0.6814	0.4958	0.093
Mof_C 	C 	0.34791	0.717	0.4963	0.108
Mof_H 	H 	0.342	0.6897	0.4406	-0.013
Mof_C 	C 	0.41656	0.746	0.6478	-0.086
Mof_C 	C 	0.44112	0.7459	0.6805	0.031
Mof_C 	C 	0.4722	0.7461	0.7183	-0.039
Mof_C 	C 	0.47681	0.7933	0.8076	0.019
Mof_C 	C 	0.49326	0.7937	0.6579	0.018
Mof_C 	C 	0.38614	0.7509	0.6099	0.135
Mof_C 	C 	0.47042	0.576	0.7154	-0.067
Mof_H 	H 	0.45	0.5764	0.6914	0.056
Mof_C 	C 	0.45515	0.8326	0.8549	-0.067
Mof_H 	H 	0.4345	0.831	0.833	0.054
Mof_C 	C 	0.46347	0.8747	0.9346	-0.027
Mof_H 	H 	0.4484	0.903	0.9667	0.037
Mof_C 	C 	0.49296	0.8767	0.9686	-0.033
Mof_H 	H 	0.4984	0.906	0.0236	0.04
Mof_C 	C 	0.48504	0.4967	0.7326	-0.028
Mof_H 	H 	0.4748	0.442	0.7207	0.038
Mof_C 	C 	0.48526	0.8348	0.5789	-0.064
Mof_H 	H 	0.4647	0.835	0.5561	0.055
Mof_C 	C 	0.48508	0.6529	0.7326	0.019
Mof_Zn	Zn	0.78313	0.74944	0.00436	1.224
Mof_O 	O 	0.77567	0.66995	0.89827	-0.488
Mof_O 	O 	0.7691	0.35124	0.58158	-0.495
Mof_O 	O 	0.7259	0.66932	0.89309	-0.482
Mof_O 	O 	0.71934	0.35559	0.5767	-0.475
Mof_N 	N 	0.82706	0.7409	0.04	-0.267
Mof_C 	C 	0.72031	0.5306	0.6521	0.048
Mof_C 	C 	0.74645	0.4283	0.7569	0.044
Mof_C 	C 	0.74653	0.4646	0.662	-0.135
Mof_C 	C 	0.7493	0.5872	0.7841	-0.137
Mof_C 	C 	0.74754	0.4931	0.8208	0.046
Mof_C 	C 	0.77633	0.5884	0.7267	0.049
Mof_C 	C 	0.77468	0.523	0.6603	0.045
Mof_C 	C 	0.79653	0.5186	0.6	-0.081
Mof_H 	H 	0.7954	0.4747	0.5543	0.071
Mof_C 	C 	0.72204	0.597	0.7168	0.048
Mof_C 	C 	0.7461	0.3816	0.9336	-0.025
Mof_H 	H 	0.7458	0.3656	0.9949	0.041
Mof_C 	C 	0.74517	0.3402	0.7806	-0.076
Mof_H 	H 	0.7443	0.2954	0.7357	0.063
Mof_C 	C 	0.69768	0.5326	0.5847	-0.083
Mof_H 	H 	0.6962	0.4867	0.5409	0.076
Mof_C 	C 	0.7452	0.3167	0.8692	-0.025
Mof_H 	H 	0.7446	0.2556	0.8858	0.041
Mof_C 	C 	0.70148	0.6652	0.7121	-0.081
Mof_H 	H 	0.7027	0.7111	0.756	0.072
Mof_C 	C 	0.67912	0.6673	0.6444	-0.022
Mof_H 	H 	0.6649	0.7148	0.6412	0.036
Mof_C 	C 	0.75043	0.6492	0.8642	0.424
Mof_C 	C 	0.74484	0.3848	0.6	0.419
Mof_C 	C 	0.67706	0.6015	0.581	-0.023
Mof_H 	H 	0.6614	0.6033	0.5343	0.038
Mof_C 	C 	0.79993	0.6479	0.7318	-0.086
Mof_H 	H 	0.801	0.6929	0.7764	0.076
Mof_C 	C 	0.83576	0.7024	0.1183	0.1
Mof_H 	H 	0.821	0.6713	0.1495	-0.004
Mof_C 	C 	0.74739	0.4698	0.9096	-0.076
Mof_H 	H 	0.7482	0.5146	0.9544	0.064
Mof_C 	C 	0.8221	0.642	0.6719	-0.022
Mof_H 	H 	0.8387	0.6821	0.6763	0.036
Mof_C 	C 	0.86466	0.7057	0.1552	-0.178
Mof_H 	H 	0.8699	0.6784	0.2114	0.091
Mof_C 	C 	0.82029	0.5786	0.6062	-0.026
Mof_H 	H 	0.8355	0.5757	0.5645	0.038
Mof_C 	C 	0.87747	0.7883	0.0287	-0.181
Mof_H 	H 	0.8919	0.8186	0.9958	0.093
Mof_C 	C 	0.84791	0.783	0.9963	0.108
Mof_H 	H 	0.842	0.8103	0.9406	-0.013
Mof_C 	C 	0.91656	0.754	0.1478	-0.086
Mof_C 	C 	0.94112	0.7541	0.1805	0.031
Mof_C 	C 	0.9722	0.7539	0.2183	-0.039
Mof_C 	C 	0.97681	0.7067	0.3076	0.019
Mof_C 	C 	0.99326	0.7063	0.1579	0.018
Mof_C 	C 	0.88614	0.7491	0.1099	0.135
Mof_C 	C 	0.97042	0.924	0.2154	-0.067
Mof_H 	H 	0.95	0.9236	0.1914	0.056
Mof_C 	C 	0.95515	0.6674	0.3549	-0.067
Mof_H 	H 	0.9345	0.669	0.333	0.054
Mof_C 	C 	0.96347	0.6253	0.4346	-0.027
Mof_H 	H 	0.9484	0.597	0.4667	0.037
Mof_C 	C 	0.99296	0.6233	0.4686	-0.033
Mof_H 	H 	0.9984	0.594	0.5236	0.04
Mof_C 	C 	0.98504	0.0033	0.2326	-0.029
Mof_H 	H 	0.9748	0.058	0.2207	0.038
Mof_C 	C 	0.98526	0.6652	0.0789	-0.065
Mof_H 	H 	0.9647	0.665	0.0561	0.055
Mof_C 	C 	0.98508	0.8471	0.2326	0.019
Mof_Zn	Zn	0.28313	0.24944	0.00436	1.224
Mof_O 	O 	0.27567	0.16995	0.89827	-0.488
Mof_O 	O 	0.2691	0.85124	0.58158	-0.495
Mof_O 	O 	0.2259	0.16932	0.89309	-0.482
Mof_O 	O 	0.21934	0.85559	0.5767	-0.475
Mof_N 	N 	0.32706	0.2409	0.04	-0.267
Mof_C 	C 	0.22031	0.0306	0.6521	0.048
Mof_C 	C 	0.24645	0.9283	0.7569	0.044
Mof_C 	C 	0.24653	0.9646	0.662	-0.135
Mof_C 	C 	0.2493	0.0872	0.7841	-0.137
Mof_C 	C 	0.24754	0.9931	0.8208	0.046
Mof_C 	C 	0.27633	0.0884	0.7267	0.049
Mof_C 	C 	0.27468	0.023	0.6603	0.045
Mof_C 	C 	0.29653	0.0186	0.6	-0.081
Mof_H 	H 	0.2954	0.9747	0.5543	0.071
Mof_C 	C 	0.22204	0.097	0.7168	0.048
Mof_C 	C 	0.2461	0.8816	0.9336	-0.025
Mof_H 	H 	0.2458	0.8656	0.9949	0.041
Mof_C 	C 	0.24517	0.8402	0.7806	-0.075
Mof_H 	H 	0.2443	0.7954	0.7357	0.063
Mof_C 	C 	0.19768	0.0326	0.5847	-0.083
Mof_H 	H 	0.1962	0.9867	0.5409	0.076
Mof_C 	C 	0.2452	0.8167	0.8692	-0.025
Mof_H 	H 	0.2446	0.7556	0.8858	0.041
Mof_C 	C 	0.20148	0.1652	0.7121	-0.081
Mof_H 	H 	0.2027	0.2111	0.756	0.072
Mof_C 	C 	0.17912	0.1673	0.6444	-0.022
Mof_H 	H 	0.1649	0.2148	0.6412	0.037
Mof_C 	C 	0.25043	0.1492	0.8642	0.424
Mof_C 	C 	0.24484	0.8848	0.6	0.419
Mof_C 	C 	0.17706	0.1015	0.581	-0.023
Mof_H 	H 	0.1614	0.1033	0.5343	0.038
Mof_C 	C 	0.29993	0.1479	0.7318	-0.086
Mof_H 	H 	0.301	0.1929	0.7764	0.076
Mof_C 	C 	0.33576	0.2024	0.1183	0.1
Mof_H 	H 	0.321	0.1713	0.1495	-0.005
Mof_C 	C 	0.24739	0.9698	0.9096	-0.077
Mof_H 	H 	0.2482	0.0146	0.9544	0.064
Mof_C 	C 	0.3221	0.142	0.6719	-0.022
Mof_H 	H 	0.3387	0.1821	0.6763	0.036
Mof_C 	C 	0.36466	0.2057	0.1552	-0.178
Mof_H 	H 	0.3699	0.1784	0.2114	0.091
Mof_C 	C 	0.32029	0.0786	0.6062	-0.026
Mof_H 	H 	0.3355	0.0757	0.5645	0.038
Mof_C 	C 	0.37747	0.2883	0.0287	-0.182
Mof_H 	H 	0.3919	0.3186	0.9958	0.093
Mof_C 	C 	0.34791	0.283	0.9963	0.108
Mof_H 	H 	0.342	0.3103	0.9406	-0.013
Mof_C 	C 	0.41656	0.254	0.1478	-0.086
Mof_C 	C 	0.44112	0.2541	0.1805	0.032
Mof_C 	C 	0.4722	0.2539	0.2183	-0.039
Mof_C 	C 	0.47681	0.2067	0.3076	0.019
Mof_C 	C 	0.49326	0.2063	0.1579	0.018
Mof_C 	C 	0.38614	0.2491	0.1099	0.136
Mof_C 	C 	0.47042	0.424	0.2154	-0.067
Mof_H 	H 	0.45	0.4236	0.1914	0.056
Mof_C 	C 	0.45515	0.1674	0.3549	-0.067
Mof_H 	H 	0.4345	0.169	0.333	0.054
Mof_C 	C 	0.46347	0.1253	0.4346	-0.027
Mof_H 	H 	0.4484	0.097	0.4667	0.037
Mof_C 	C 	0.49296	0.1233	0.4686	-0.033
Mof_H 	H 	0.4984	0.094	0.5236	0.04
Mof_C 	C 	0.48504	0.5033	0.2326	-0.028
Mof_H 	H 	0.4748	0.558	0.2207	0.038
Mof_C 	C 	0.48526	0.1652	0.0789	-0.064
Mof_H 	H 	0.4647	0.165	0.0561	0.055
Mof_C 	C 	0.48508	0.3471	0.2326	0.02
Mof_Zn	Zn	0.21687	0.74944	0.49564	1.224
Mof_O 	O 	0.22433	0.66995	0.60173	-0.488
Mof_O 	O 	0.2309	0.35124	0.91842	-0.495
Mof_O 	O 	0.2741	0.66932	0.60691	-0.482
Mof_O 	O 	0.28066	0.35559	0.9233	-0.475
Mof_N 	N 	0.17294	0.7409	0.46	-0.267
Mof_C 	C 	0.27969	0.5306	0.8479	0.048
Mof_C 	C 	0.25355	0.4283	0.7431	0.044
Mof_C 	C 	0.25347	0.4646	0.838	-0.135
Mof_C 	C 	0.2507	0.5872	0.7159	-0.137
Mof_C 	C 	0.25246	0.4931	0.6792	0.046
Mof_C 	C 	0.22367	0.5884	0.7733	0.049
Mof_C 	C 	0.22532	0.523	0.8397	0.045
Mof_C 	C 	0.20347	0.5186	0.9	-0.081
Mof_H 	H 	0.2046	0.4747	0.9457	0.071
Mof_C 	C 	0.27796	0.597	0.7832	0.048
Mof_C 	C 	0.2539	0.3816	0.5664	-0.025
Mof_H 	H 	0.2542	0.3656	0.5051	0.041
Mof_C 	C 	0.25483	0.3402	0.7194	-0.075
Mof_H 	H 	0.2557	0.2954	0.7643	0.063
Mof_C 	C 	0.30232	0.5326	0.9153	-0.083
Mof_H 	H 	0.3038	0.4867	0.9591	0.077
Mof_C 	C 	0.2548	0.3167	0.6308	-0.025
Mof_H 	H 	0.2554	0.2556	0.6142	0.041
Mof_C 	C 	0.29852	0.6652	0.7879	-0.081
Mof_H 	H 	0.2973	0.7111	0.744	0.072
Mof_C 	C 	0.32088	0.6673	0.8556	-0.022
Mof_H 	H 	0.3351	0.7148	0.8588	0.037
Mof_C 	C 	0.24957	0.6492	0.6358	0.424
Mof_C 	C 	0.25516	0.3848	0.9	0.419
Mof_C 	C 	0.32294	0.6015	0.919	-0.023
Mof_H 	H 	0.3386	0.6033	0.9657	0.038
Mof_C 	C 	0.20007	0.6479	0.7682	-0.086
Mof_H 	H 	0.199	0.6929	0.7236	0.076
Mof_C 	C 	0.16424	0.7024	0.3817	0.1
Mof_H 	H 	0.179	0.6713	0.3505	-0.005
Mof_C 	C 	0.25261	0.4698	0.5904	-0.076
Mof_H 	H 	0.2518	0.5146	0.5456	0.063
Mof_C 	C 	0.1779	0.642	0.8281	-0.022
Mof_H 	H 	0.1613	0.6821	0.8237	0.036
Mof_C 	C 	0.13534	0.7057	0.3448	-0.178
Mof_H 	H 	0.1301	0.6784	0.2886	0.091
Mof_C 	C 	0.17971	0.5786	0.8938	-0.026
Mof_H 	H 	0.1645	0.5757	0.9355	0.038
Mof_C 	C 	0.12253	0.7883	0.4713	-0.181
Mof_H 	H 	0.1081	0.8186	0.5042	0.093
Mof_C 	C 	0.15209	0.783	0.5037	0.108
Mof_H 	H 	0.158	0.8103	0.5594	-0.013
Mof_C 	C 	0.08344	0.754	0.3522	-0.086
Mof_C 	C 	0.05888	0.7541	0.3195	0.031
Mof_C 	C 	0.0278	0.7539	0.2817	-0.038
Mof_C 	C 	0.02319	0.7067	0.1924	0.018
Mof_C 	C 	0.00674	0.7063	0.3421	0.017
Mof_C 	C 	0.11386	0.7491	0.3901	0.135
Mof_C 	C 	0.02958	0.924	0.2846	-0.067
Mof_H 	H 	0.05	0.9236	0.3086	0.056
Mof_C 	C 	0.04485	0.6674	0.1451	-0.067
Mof_H 	H 	0.0655	0.669	0.167	0.054
Mof_C 	C 	0.03653	0.6253	0.0654	-0.027
Mof_H 	H 	0.0516	0.597	0.0333	0.037
Mof_C 	C 	0.00704	0.6233	0.0314	-0.033
Mof_H 	H 	0.0016	0.594	0.9764	0.04
Mof_C 	C 	0.01496	0.0033	0.2674	-0.029
Mof_H 	H 	0.0252	0.058	0.2793	0.038
Mof_C 	C 	0.01474	0.6652	0.4211	-0.064
Mof_H 	H 	0.0353	0.665	0.4439	0.055
Mof_C 	C 	0.01492	0.8471	0.2674	0.019
Mof_Zn	Zn	0.71687	0.24944	0.49564	1.224
Mof_O 	O 	0.72433	0.16995	0.60173	-0.488
Mof_O 	O 	0.7309	0.85124	0.91842	-0.495
Mof_O 	O 	0.7741	0.16932	0.60691	-0.482
Mof_O 	O 	0.78066	0.85559	0.9233	-0.475
Mof_N 	N 	0.67294	0.2409	0.46	-0.267
Mof_C 	C 	0.77969	0.0306	0.8479	0.048
Mof_C 	C 	0.75355	0.9283	0.7431	0.044
Mof_C 	C 	0.75347	0.9646	0.838	-0.135
Mof_C 	C 	0.7507	0.0872	0.7159	-0.137
Mof_C 	C 	0.75246	0.9931	0.6792	0.046
Mof_C 	C 	0.72367	0.0884	0.7733	0.049
Mof_C 	C 	0.72532	0.023	0.8397	0.045
Mof_C 	C 	0.70347	0.0186	0.9	-0.081
Mof_H 	H 	0.7046	0.9747	0.9457	0.071
Mof_C 	C 	0.77796	0.097	0.7832	0.048
Mof_C 	C 	0.7539	0.8816	0.5664	-0.025
Mof_H 	H 	0.7542	0.8656	0.5051	0.041
Mof_C 	C 	0.75483	0.8402	0.7194	-0.076
Mof_H 	H 	0.7557	0.7954	0.7643	0.063
Mof_C 	C 	0.80232	0.0326	0.9153	-0.083
Mof_H 	H 	0.8038	0.9867	0.9591	0.076
Mof_C 	C 	0.7548	0.8167	0.6308	-0.025
Mof_H 	H 	0.7554	0.7556	0.6142	0.041
Mof_C 	C 	0.79852	0.1652	0.7879	-0.081
Mof_H 	H 	0.7973	0.2111	0.744	0.072
Mof_C 	C 	0.82088	0.1673	0.8556	-0.022
Mof_H 	H 	0.8351	0.2148	0.8588	0.037
Mof_C 	C 	0.74957	0.1492	0.6358	0.424
Mof_C 	C 	0.75516	0.8848	0.9	0.419
Mof_C 	C 	0.82294	0.1015	0.919	-0.024
Mof_H 	H 	0.8386	0.1033	0.9657	0.038
Mof_C 	C 	0.70007	0.1479	0.7682	-0.086
Mof_H 	H 	0.699	0.1929	0.7236	0.076
Mof_C 	C 	0.66424	0.2024	0.3817	0.1
Mof_H 	H 	0.679	0.1713	0.3505	-0.005
Mof_C 	C 	0.75261	0.9698	0.5904	-0.076
Mof_H 	H 	0.7518	0.0146	0.5456	0.063
Mof_C 	C 	0.6779	0.142	0.8281	-0.022
Mof_H 	H 	0.6613	0.1821	0.8237	0.036
Mof_C 	C 	0.63534	0.2057	0.3448	-0.178
Mof_H 	H 	0.6301	0.1784	0.2886	0.091
Mof_C 	C 	0.67971	0.0786	0.8938	-0.026
Mof_H 	H 	0.6645	0.0757	0.9355	0.038
Mof_C 	C 	0.62253	0.2883	0.4713	-0.181
Mof_H 	H 	0.6081	0.3186	0.5042	0.093
Mof_C 	C 	0.65209	0.283	0.5037	0.108
Mof_H 	H 	0.658	0.3103	0.5594	-0.013
Mof_C 	C 	0.58344	0.254	0.3522	-0.086
Mof_C 	C 	0.55888	0.2541	0.3195	0.031
Mof_C 	C 	0.5278	0.2539	0.2817	-0.039
Mof_C 	C 	0.52319	0.2067	0.1924	0.019
Mof_C 	C 	0.50674	0.2063	0.3421	0.018
Mof_C 	C 	0.61386	0.2491	0.3901	0.135
Mof_C 	C 	0.52958	0.424	0.2846	-0.067
Mof_H 	H 	0.55	0.4236	0.3086	0.056
Mof_C 	C 	0.54485	0.1674	0.1451	-0.067
Mof_H 	H 	0.5655	0.169	0.167	0.054
Mof_C 	C 	0.53653	0.1253	0.0654	-0.027
Mof_H 	H 	0.5516	0.097	0.0333	0.037
Mof_C 	C 	0.50704	0.1233	0.0314	-0.033
Mof_H 	H 	0.5016	0.094	0.9764	0.04
Mof_C 	C 	0.51496	0.5033	0.2674	-0.028
Mof_H 	H 	0.5252	0.558	0.2793	0.038
Mof_C 	C 	0.51474	0.1652	0.4211	-0.064
Mof_H 	H 	0.5353	0.165	0.4439	0.055
Mof_C 	C 	0.51492	0.3471	0.2674	0.019
_end
