data_functionalizedCrystal
_audit_creation_method	'EQeq! by Chris Wilmer'
_symmetry_space_group_name_H-M	'P1'
_symmetry_Int_Tables_number	1
_symmetry_cell_setting	triclinic
loop_
_symmetry_equiv_pos_as_xyz
  x,y,z
_cell_length_a	17.3188
_cell_length_b	17.3188
_cell_length_c	18.311
_cell_angle_alpha	92.5031
_cell_angle_beta	92.5031
_cell_angle_gamma	32.7565
loop_
_atom_site_label
_atom_site_type_symbol
_atom_site_fract_x
_atom_site_fract_y
_atom_site_fract_z
_atom_site_charge
Mof_Co	Co	0.64911	0.04569	0.013	1.174
Mof_O 	O 	0.53896	0.15356	0.9209	-0.43
Mof_O 	O 	0.40425	0.16505	0.94209	-0.434
Mof_O 	O 	0.15626	0.52506	0.5992	-0.448
Mof_O 	O 	0.08822	0.45882	0.59962	-0.446
Mof_O 	O 	0.83745	0.80625	0.0915	-0.278
Mof_O 	O 	0.70573	0.88713	0.9936	-0.466
Mof_C 	C 	0.3676	0.2584	0.8316	-0.068
Mof_C 	C 	0.27642	0.27782	0.8046	-0.027
Mof_H 	H 	0.2613	0.2467	0.831	0.057
Mof_C 	C 	0.20725	0.34405	0.7376	-0.011
Mof_H 	H 	0.1473	0.3553	0.719	0.048
Mof_C 	C 	0.22679	0.39299	0.6987	-0.085
Mof_C 	C 	0.31609	0.37469	0.7259	-0.007
Mof_H 	H 	0.3303	0.4069	0.6997	0.046
Mof_C 	C 	0.3859	0.3081	0.7926	-0.026
Mof_H 	H 	0.4458	0.297	0.8109	0.058
Mof_C 	C 	0.44313	0.18693	0.9038	0.367
Mof_C 	C 	0.14993	0.46533	0.6266	0.38
Mof_C 	C 	0.019	0.5252	0.0655	-0.115
Mof_H 	H 	0.0317	0.5429	0.1095	0.076
Mof_C 	C 	0.90769	0.63749	0.0179	0.013
Mof_C 	C 	0.89	0.6112	0.9525	-0.068
Mof_H 	H 	0.8166	0.6856	0.9205	0.08
Mof_C 	C 	0.81201	0.78501	0.0376	0.277
Mof_C 	C 	0.0478	0.8878	0.978	0.134
Mof_H 	H 	0.0821	0.8105	0.9629	-0.005
Mof_C 	C 	0.911	0.0112	0.0013	-0.244
Mof_C 	C 	0.1358	0.8788	0.9771	-0.173
Mof_H 	H 	0.2291	0.7945	0.9611	0.104
Mof_C 	C 	0.8347	0.9967	0.9922	0.517
Mof_O 	O 	0.7426	0.0654	0.0329	-0.521
Mof_O 	O 	0.8659	0.9169	0.9447	-0.319
Mof_N 	N 	0.5361	0.5341	0.751	-0.172
Mof_H 	H 	0.4645	0.5595	0.7476	0.08
Mof_H 	H 	0.5005	0.6103	0.7397	0.11
Mof_C 	C 	0.652	0.414	0.698	-0.335
Mof_H 	H 	0.6144	0.444	0.649	0.126
Mof_H 	H 	0.6866	0.3336	0.7088	0.135
Mof_H 	H 	0.7291	0.3847	0.7027	0.147
Mof_Co	Co	0.95431	0.35089	0.487	1.199
Mof_O 	O 	0.84644	0.46104	0.5791	-0.428
Mof_O 	O 	0.83495	0.59575	0.55791	-0.427
Mof_O 	O 	0.47494	0.84374	0.9008	-0.434
Mof_O 	O 	0.54118	0.91178	0.90038	-0.419
Mof_O 	O 	0.19375	0.16255	0.4085	-0.334
Mof_O 	O 	0.11287	0.29427	0.5064	-0.529
Mof_C 	C 	0.7416	0.6324	0.6684	-0.07
Mof_C 	C 	0.72218	0.72358	0.6954	-0.011
Mof_H 	H 	0.7533	0.7387	0.669	0.064
Mof_C 	C 	0.65595	0.79275	0.7624	-0.015
Mof_H 	H 	0.6447	0.8527	0.781	0.063
Mof_C 	C 	0.60701	0.77321	0.8013	-0.069
Mof_C 	C 	0.62531	0.68391	0.7741	-0.015
Mof_H 	H 	0.5931	0.6697	0.8003	0.057
Mof_C 	C 	0.6919	0.6141	0.7074	-0.01
Mof_H 	H 	0.703	0.5542	0.6891	0.051
Mof_C 	C 	0.81307	0.55687	0.5962	0.376
Mof_C 	C 	0.53467	0.85007	0.8734	0.378
Mof_C 	C 	0.4748	0.981	0.4345	0.092
Mof_H 	H 	0.4571	0.9683	0.3905	0.028
Mof_C 	C 	0.36251	0.09231	0.4821	-0.15
Mof_C 	C 	0.3888	0.11	0.5475	0.065
Mof_H 	H 	0.3144	0.1834	0.5795	0.025
Mof_C 	C 	0.21499	0.18799	0.4624	0.349
Mof_C 	C 	0.1122	0.9522	0.522	-0.168
Mof_H 	H 	0.1895	0.9179	0.5371	0.11
Mof_C 	C 	0.9888	0.089	0.4987	0.074
Mof_C 	C 	0.1212	0.8642	0.5229	0.126
Mof_H 	H 	0.2055	0.7709	0.5389	-0.003
Mof_C 	C 	0.0033	0.1653	0.5078	0.244
Mof_O 	O 	0.9346	0.2574	0.4671	-0.392
Mof_O 	O 	0.0831	0.1341	0.5553	-0.303
Mof_N 	N 	0.4659	0.4639	0.749	-0.181
Mof_H 	H 	0.4405	0.5355	0.7524	0.085
Mof_H 	H 	0.3897	0.4995	0.7603	0.111
Mof_C 	C 	0.512	0.404	0.671	-0.313
Mof_H 	H 	0.4367	0.4793	0.6371	0.126
Mof_H 	H 	0.5322	0.3324	0.6662	0.128
Mof_H 	H 	0.5961	0.3617	0.6596	0.118
Mof_Co	Co	0.35089	0.95431	0.987	1.203
Mof_O 	O 	0.46104	0.84644	0.0791	-0.435
Mof_O 	O 	0.59575	0.83495	0.05791	-0.433
Mof_O 	O 	0.84374	0.47494	0.4008	-0.436
Mof_O 	O 	0.91178	0.54118	0.40038	-0.419
Mof_O 	O 	0.16255	0.19375	0.9085	-0.333
Mof_O 	O 	0.29427	0.11287	0.0064	-0.546
Mof_C 	C 	0.6324	0.7416	0.1684	-0.073
Mof_C 	C 	0.72358	0.72218	0.1954	-0.009
Mof_H 	H 	0.7387	0.7533	0.169	0.064
Mof_C 	C 	0.79275	0.65595	0.2624	-0.016
Mof_H 	H 	0.8527	0.6447	0.281	0.065
Mof_C 	C 	0.77321	0.60701	0.3013	-0.068
Mof_C 	C 	0.68391	0.62531	0.2741	-0.017
Mof_H 	H 	0.6697	0.5931	0.3003	0.057
Mof_C 	C 	0.6141	0.6919	0.2074	-0.009
Mof_H 	H 	0.5542	0.703	0.1891	0.049
Mof_C 	C 	0.55687	0.81307	0.0962	0.377
Mof_C 	C 	0.85007	0.53467	0.3734	0.378
Mof_C 	C 	0.981	0.4748	0.9345	0.075
Mof_H 	H 	0.9683	0.4571	0.8905	0.037
Mof_C 	C 	0.09231	0.36251	0.9821	-0.121
Mof_C 	C 	0.11	0.3888	0.0475	0.022
Mof_H 	H 	0.1834	0.3144	0.0795	0.037
Mof_C 	C 	0.18799	0.21499	0.9624	0.363
Mof_C 	C 	0.9522	0.1122	0.022	-0.203
Mof_H 	H 	0.9179	0.1895	0.0371	0.122
Mof_C 	C 	0.089	0.9888	0.9987	0.113
Mof_C 	C 	0.8642	0.1212	0.0229	0.16
Mof_H 	H 	0.7709	0.2055	0.0389	-0.017
Mof_C 	C 	0.1653	0.0033	0.0078	0.209
Mof_O 	O 	0.2574	0.9346	0.9671	-0.376
Mof_O 	O 	0.1341	0.0831	0.0553	-0.301
Mof_N 	N 	0.4639	0.4659	0.249	-0.183
Mof_H 	H 	0.5355	0.4405	0.2524	0.085
Mof_H 	H 	0.4995	0.3897	0.2603	0.111
Mof_C 	C 	0.404	0.512	0.171	-0.307
Mof_H 	H 	0.4793	0.4367	0.1371	0.122
Mof_H 	H 	0.3324	0.5322	0.1662	0.123
Mof_H 	H 	0.3617	0.5961	0.1596	0.114
Mof_Co	Co	0.04569	0.64911	0.513	1.18
Mof_O 	O 	0.15356	0.53896	0.4209	-0.441
Mof_O 	O 	0.16505	0.40425	0.44209	-0.445
Mof_O 	O 	0.52506	0.15626	0.0992	-0.449
Mof_O 	O 	0.45882	0.08822	0.09962	-0.446
Mof_O 	O 	0.80625	0.83745	0.5915	-0.279
Mof_O 	O 	0.88713	0.70573	0.4936	-0.479
Mof_C 	C 	0.2584	0.3676	0.3316	-0.073
Mof_C 	C 	0.27782	0.27642	0.3046	-0.024
Mof_H 	H 	0.2467	0.2613	0.331	0.055
Mof_C 	C 	0.34405	0.20725	0.2376	-0.013
Mof_H 	H 	0.3553	0.1473	0.219	0.049
Mof_C 	C 	0.39299	0.22679	0.1987	-0.083
Mof_C 	C 	0.37469	0.31609	0.2259	-0.01
Mof_H 	H 	0.4069	0.3303	0.1997	0.047
Mof_C 	C 	0.3081	0.3859	0.2926	-0.023
Mof_H 	H 	0.297	0.4458	0.3109	0.055
Mof_C 	C 	0.18693	0.44313	0.4038	0.37
Mof_C 	C 	0.46533	0.14993	0.1266	0.378
Mof_C 	C 	0.5252	0.019	0.5655	-0.128
Mof_H 	H 	0.5429	0.0317	0.6095	0.086
Mof_C 	C 	0.63749	0.90769	0.5179	0.034
Mof_C 	C 	0.6112	0.89	0.4525	-0.106
Mof_H 	H 	0.6856	0.8166	0.4205	0.091
Mof_C 	C 	0.78501	0.81201	0.5376	0.286
Mof_C 	C 	0.8878	0.0478	0.478	0.098
Mof_H 	H 	0.8105	0.0821	0.4629	0.006
Mof_C 	C 	0.0112	0.911	0.5013	-0.208
Mof_C 	C 	0.8788	0.1358	0.4771	-0.138
Mof_H 	H 	0.7945	0.2291	0.4611	0.09
Mof_C 	C 	0.9967	0.8347	0.4922	0.488
Mof_O 	O 	0.0654	0.7426	0.5329	-0.507
Mof_O 	O 	0.9169	0.8659	0.4447	-0.316
Mof_N 	N 	0.5341	0.5361	0.251	-0.175
Mof_H 	H 	0.5595	0.4645	0.2476	0.08
Mof_H 	H 	0.6103	0.5005	0.2397	0.11
Mof_C 	C 	0.414	0.652	0.198	-0.326
Mof_H 	H 	0.444	0.6144	0.149	0.121
Mof_H 	H 	0.3336	0.6866	0.2088	0.13
Mof_H 	H 	0.3847	0.7291	0.2027	0.141
Mof_Co	Co	0.5	0	-0	1.168
Mof_Co	Co	-7.77899e-17	0.5	0.5	1.173
_end
