# CIF file generated by openbabel 3.1.0, see https://openbabel.org
data_I
_chemical_name_common 'image0'
_cell_length_a 15.165
_cell_length_b 26.907
_cell_length_c 23.715
_cell_angle_alpha 90
_cell_angle_beta 106.91
_cell_angle_gamma 90
_space_group_name_H-M_alt 'P 1'
_space_group_name_Hall 'P 1'
loop_
    _symmetry_equiv_pos_as_xyz
    x,y,z
loop_
    _atom_site_label
    _atom_site_type_symbol
    _atom_site_fract_x
    _atom_site_fract_y
    _atom_site_fract_z
    _atom_site_occupancy
    W1       W        0.36878    0.62042    0.54343    1.000
    Cu1      Cu       0.27167    0.55000    0.57722    1.000
    Cu2      Cu       0.26015    0.65649    0.60510    1.000
    Cu3      Cu       0.19231    0.62327    0.48064    1.000
    S1       S        0.28350    0.55822    0.48705    1.000
    Cu4      Cu       0.16079    0.76883    0.74164    1.000
    S2       S        0.37164    0.60023    0.63817    1.000
    S3       S        0.27451    0.68886    0.52167    1.000
    Cu5      Cu       0.13589    0.39661    0.63495    1.000
    N1       N        0.57560    0.58550    0.55400    1.000
    N2       N        0.48520    0.67670    0.58560    1.000
    N3       N        0.51160    0.64290    0.46950    1.000
    N4       N        0.49270    0.56850    0.55780    1.000
    C1       C        0.06930    0.61990    0.43100    1.000
    N5       N        0.21660    0.49180    0.59810    1.000
    C2       C        0.18450    0.45600    0.61140    1.000
    N6       N        0.41850    0.63950    0.46400    1.000
    N7       N        0.56750    0.67610    0.57120    1.000
    N8       N        0.24160    0.82080    0.78420    1.000
    N9       N        0.99500    0.61360    0.40330    1.000
    N10      N        0.19790    0.72180    0.69210    1.000
    C3       C        0.21900    0.69520    0.65910    1.000
    C4       C        0.64240    0.55130    0.57300    1.000
    C5       C        0.28930    0.85070    0.81250    1.000
    C6       C        0.60130    0.50930    0.58790    1.000
    H1       H        0.62990    0.47910    0.60110    1.000
    C7       C        0.50930    0.52080    0.57900    1.000
    C8       C        0.62390    0.71210    0.60150    1.000
    C9       C        0.52340    0.65160    0.41620    1.000
    C10      C        0.44040    0.48600    0.59000    1.000
    H2       H        0.41460    0.49990    0.61890    1.000
    H3       H        0.46970    0.45490    0.60410    1.000
    H4       H        0.39230    0.48050    0.55390    1.000
    C11      C        0.37380    0.64700    0.40670    1.000
    C12      C        0.43780    0.65540    0.37610    1.000
    H5       H        0.42510    0.66230    0.33610    1.000
    C13      C        0.49380    0.71450    0.62480    1.000
    C14      C        0.74080    0.55890    0.57500    1.000
    H6       H        0.74520    0.56170    0.53550    1.000
    H7       H        0.77680    0.53100    0.59420    1.000
    H8       H        0.76360    0.58870    0.59640    1.000
    C15      C        0.42290    0.73040    0.65440    1.000
    H9       H        0.37160    0.74550    0.62580    1.000
    H10      H        0.44990    0.75400    0.68490    1.000
    H11      H        0.40200    0.70190    0.67120    1.000
    C16      C        0.03730    0.76840    0.74790    1.000
    B1       B        0.58440    0.63760    0.52860    1.000
    C17      C        0.27180    0.64910    0.37960    1.000
    H12      H        0.24650    0.61630    0.37830    1.000
    H13      H        0.25830    0.66200    0.34020    1.000
    H14      H        0.24500    0.67030    0.40270    1.000
    C18      C        0.57910    0.73560    0.63520    1.000
    H15      H        0.60210    0.76170    0.66100    1.000
    C19      C        0.61580    0.65960    0.40720    1.000
    H16      H        0.64220    0.68980    0.42640    1.000
    H17      H        0.60920    0.66210    0.36580    1.000
    H18      H        0.65540    0.63220    0.42350    1.000
    C20      C        0.71790    0.72100    0.59380    1.000
    H19      H        0.73870    0.75370    0.60750    1.000
    H20      H        0.71450    0.71800    0.55290    1.000
    H21      H        0.76050    0.69680    0.61620    1.000
    W2       W        0.86878    0.12042    0.54343    1.000
    Cu6      Cu       0.77167    0.05000    0.57722    1.000
    Cu7      Cu       0.76015    0.15649    0.60510    1.000
    Cu8      Cu       0.69231    0.12327    0.48064    1.000
    S4       S        0.78350    0.05822    0.48705    1.000
    Cu9      Cu       0.66079    0.26883    0.74164    1.000
    S5       S        0.87164    0.10023    0.63817    1.000
    S6       S        0.77451    0.18886    0.52167    1.000
    Cu10     Cu       0.63589    0.89661    0.63495    1.000
    N11      N        0.07560    0.08550    0.55400    1.000
    N12      N        0.98520    0.17670    0.58560    1.000
    N13      N        0.01160    0.14290    0.46950    1.000
    N14      N        0.99270    0.06850    0.55780    1.000
    C21      C        0.56930    0.11990    0.43100    1.000
    N15      N        0.71660    0.99180    0.59810    1.000
    C22      C        0.68450    0.95600    0.61140    1.000
    N16      N        0.91850    0.13950    0.46400    1.000
    N17      N        0.06750    0.17610    0.57120    1.000
    N18      N        0.74160    0.32080    0.78420    1.000
    N19      N        0.49500    0.11360    0.40330    1.000
    N20      N        0.69790    0.22180    0.69210    1.000
    C23      C        0.71900    0.19520    0.65910    1.000
    C24      C        0.14240    0.05130    0.57300    1.000
    C25      C        0.78930    0.35070    0.81250    1.000
    C26      C        0.10130    0.00930    0.58790    1.000
    H22      H        0.12990    0.97910    0.60110    1.000
    C27      C        0.00930    0.02080    0.57900    1.000
    C28      C        0.12390    0.21210    0.60150    1.000
    C29      C        0.02340    0.15160    0.41620    1.000
    C30      C        0.94040    0.98600    0.59000    1.000
    H23      H        0.91460    0.99990    0.61890    1.000
    H24      H        0.96970    0.95490    0.60410    1.000
    H25      H        0.89230    0.98050    0.55390    1.000
    C31      C        0.87380    0.14700    0.40670    1.000
    C32      C        0.93780    0.15540    0.37610    1.000
    H26      H        0.92510    0.16230    0.33610    1.000
    C33      C        0.99380    0.21450    0.62480    1.000
    C34      C        0.24080    0.05890    0.57500    1.000
    H27      H        0.24520    0.06170    0.53550    1.000
    H28      H        0.27680    0.03100    0.59420    1.000
    H29      H        0.26360    0.08870    0.59640    1.000
    C35      C        0.92290    0.23040    0.65440    1.000
    H30      H        0.87160    0.24550    0.62580    1.000
    H31      H        0.94990    0.25400    0.68490    1.000
    H32      H        0.90200    0.20190    0.67120    1.000
    C36      C        0.53730    0.26840    0.74790    1.000
    B2       B        0.08440    0.13760    0.52860    1.000
    C37      C        0.77180    0.14910    0.37960    1.000
    H33      H        0.74650    0.11630    0.37830    1.000
    H34      H        0.75830    0.16200    0.34020    1.000
    H35      H        0.74500    0.17030    0.40270    1.000
    C38      C        0.07910    0.23560    0.63520    1.000
    H36      H        0.10210    0.26170    0.66100    1.000
    C39      C        0.11580    0.15960    0.40720    1.000
    H37      H        0.14220    0.18980    0.42640    1.000
    H38      H        0.10920    0.16210    0.36580    1.000
    H39      H        0.15540    0.13220    0.42350    1.000
    C40      C        0.21790    0.22100    0.59380    1.000
    H40      H        0.23870    0.25370    0.60750    1.000
    H41      H        0.21450    0.21800    0.55290    1.000
    H42      H        0.26050    0.19680    0.61620    1.000
    W3       W        0.63122    0.62042    0.95657    1.000
    Cu11     Cu       0.72833    0.55000    0.92278    1.000
    Cu12     Cu       0.73985    0.65649    0.89490    1.000
    Cu13     Cu       0.80769    0.62327    0.01936    1.000
    S7       S        0.71650    0.55822    0.01295    1.000
    Cu14     Cu       0.83921    0.76883    0.75836    1.000
    S8       S        0.62836    0.60023    0.86183    1.000
    S9       S        0.72549    0.68886    0.97833    1.000
    Cu15     Cu       0.86411    0.39661    0.86505    1.000
    N21      N        0.42440    0.58550    0.94600    1.000
    N22      N        0.51480    0.67670    0.91440    1.000
    N23      N        0.48840    0.64290    0.03050    1.000
    N24      N        0.50730    0.56850    0.94220    1.000
    C41      C        0.93070    0.61990    0.06900    1.000
    N25      N        0.78340    0.49180    0.90190    1.000
    C42      C        0.81550    0.45600    0.88860    1.000
    N26      N        0.58150    0.63950    0.03600    1.000
    N27      N        0.43250    0.67610    0.92880    1.000
    N28      N        0.75840    0.82080    0.71580    1.000
    N29      N        0.00500    0.61360    0.09670    1.000
    N30      N        0.80210    0.72180    0.80790    1.000
    C43      C        0.78100    0.69520    0.84090    1.000
    C44      C        0.35760    0.55130    0.92700    1.000
    C45      C        0.71070    0.85070    0.68750    1.000
    C46      C        0.39870    0.50930    0.91210    1.000
    H43      H        0.37010    0.47910    0.89890    1.000
    C47      C        0.49070    0.52080    0.92100    1.000
    C48      C        0.37610    0.71210    0.89850    1.000
    C49      C        0.47660    0.65160    0.08380    1.000
    C50      C        0.55960    0.48600    0.91000    1.000
    H44      H        0.58540    0.49990    0.88110    1.000
    H45      H        0.53030    0.45490    0.89590    1.000
    H46      H        0.60770    0.48050    0.94610    1.000
    C51      C        0.62620    0.64700    0.09330    1.000
    C52      C        0.56220    0.65540    0.12390    1.000
    H47      H        0.57490    0.66230    0.16390    1.000
    C53      C        0.50620    0.71450    0.87520    1.000
    C54      C        0.25920    0.55890    0.92500    1.000
    H48      H        0.25480    0.56170    0.96450    1.000
    H49      H        0.22320    0.53100    0.90580    1.000
    H50      H        0.23640    0.58870    0.90360    1.000
    C55      C        0.57710    0.73040    0.84560    1.000
    H51      H        0.62840    0.74550    0.87420    1.000
    H52      H        0.55010    0.75400    0.81510    1.000
    H53      H        0.59800    0.70190    0.82880    1.000
    C56      C        0.96270    0.76840    0.75210    1.000
    B3       B        0.41560    0.63760    0.97140    1.000
    C57      C        0.72820    0.64910    0.12040    1.000
    H54      H        0.75350    0.61630    0.12170    1.000
    H55      H        0.74170    0.66200    0.15980    1.000
    H56      H        0.75500    0.67030    0.09730    1.000
    C58      C        0.42090    0.73560    0.86480    1.000
    H57      H        0.39790    0.76170    0.83900    1.000
    C59      C        0.38420    0.65960    0.09280    1.000
    H58      H        0.35780    0.68980    0.07360    1.000
    H59      H        0.39080    0.66210    0.13420    1.000
    H60      H        0.34460    0.63220    0.07650    1.000
    C60      C        0.28210    0.72100    0.90620    1.000
    H61      H        0.26130    0.75370    0.89250    1.000
    H62      H        0.28550    0.71800    0.94710    1.000
    H63      H        0.23950    0.69680    0.88380    1.000
    W4       W        0.13122    0.12042    0.95657    1.000
    Cu16     Cu       0.22833    0.05000    0.92278    1.000
    Cu17     Cu       0.23985    0.15649    0.89490    1.000
    Cu18     Cu       0.30769    0.12327    0.01936    1.000
    S10      S        0.21650    0.05822    0.01295    1.000
    Cu19     Cu       0.33921    0.26883    0.75836    1.000
    S11      S        0.12836    0.10023    0.86183    1.000
    S12      S        0.22549    0.18886    0.97833    1.000
    Cu20     Cu       0.36411    0.89661    0.86505    1.000
    N31      N        0.92440    0.08550    0.94600    1.000
    N32      N        0.01480    0.17670    0.91440    1.000
    N33      N        0.98840    0.14290    0.03050    1.000
    N34      N        0.00730    0.06850    0.94220    1.000
    C61      C        0.43070    0.11990    0.06900    1.000
    N35      N        0.28340    0.99180    0.90190    1.000
    C62      C        0.31550    0.95600    0.88860    1.000
    N36      N        0.08150    0.13950    0.03600    1.000
    N37      N        0.93250    0.17610    0.92880    1.000
    N38      N        0.25840    0.32080    0.71580    1.000
    N39      N        0.50500    0.11360    0.09670    1.000
    N40      N        0.30210    0.22180    0.80790    1.000
    C63      C        0.28100    0.19520    0.84090    1.000
    C64      C        0.85760    0.05130    0.92700    1.000
    C65      C        0.21070    0.35070    0.68750    1.000
    C66      C        0.89870    0.00930    0.91210    1.000
    H64      H        0.87010    0.97910    0.89890    1.000
    C67      C        0.99070    0.02080    0.92100    1.000
    C68      C        0.87610    0.21210    0.89850    1.000
    C69      C        0.97660    0.15160    0.08380    1.000
    C70      C        0.05960    0.98600    0.91000    1.000
    H65      H        0.08540    0.99990    0.88110    1.000
    H66      H        0.03030    0.95490    0.89590    1.000
    H67      H        0.10770    0.98050    0.94610    1.000
    C71      C        0.12620    0.14700    0.09330    1.000
    C72      C        0.06220    0.15540    0.12390    1.000
    H68      H        0.07490    0.16230    0.16390    1.000
    C73      C        0.00620    0.21450    0.87520    1.000
    C74      C        0.75920    0.05890    0.92500    1.000
    H69      H        0.75480    0.06170    0.96450    1.000
    H70      H        0.72320    0.03100    0.90580    1.000
    H71      H        0.73640    0.08870    0.90360    1.000
    C75      C        0.07710    0.23040    0.84560    1.000
    H72      H        0.12840    0.24550    0.87420    1.000
    H73      H        0.05010    0.25400    0.81510    1.000
    H74      H        0.09800    0.20190    0.82880    1.000
    C76      C        0.46270    0.26840    0.75210    1.000
    B4       B        0.91560    0.13760    0.97140    1.000
    C77      C        0.22820    0.14910    0.12040    1.000
    H75      H        0.25350    0.11630    0.12170    1.000
    H76      H        0.24170    0.16200    0.15980    1.000
    H77      H        0.25500    0.17030    0.09730    1.000
    C78      C        0.92090    0.23560    0.86480    1.000
    H78      H        0.89790    0.26170    0.83900    1.000
    C79      C        0.88420    0.15960    0.09280    1.000
    H79      H        0.85780    0.18980    0.07360    1.000
    H80      H        0.89080    0.16210    0.13420    1.000
    H81      H        0.84460    0.13220    0.07650    1.000
    C80      C        0.78210    0.22100    0.90620    1.000
    H82      H        0.76130    0.25370    0.89250    1.000
    H83      H        0.78550    0.21800    0.94710    1.000
    H84      H        0.73950    0.19680    0.88380    1.000
    W5       W        0.63122    0.37958    0.45657    1.000
    Cu21     Cu       0.72833    0.45000    0.42278    1.000
    Cu22     Cu       0.73985    0.34351    0.39490    1.000
    Cu23     Cu       0.80769    0.37673    0.51936    1.000
    S13      S        0.71650    0.44178    0.51295    1.000
    Cu24     Cu       0.83921    0.23117    0.25836    1.000
    S14      S        0.62836    0.39977    0.36183    1.000
    S15      S        0.72549    0.31114    0.47833    1.000
    Cu25     Cu       0.86411    0.60339    0.36505    1.000
    N41      N        0.42440    0.41450    0.44600    1.000
    N42      N        0.51480    0.32330    0.41440    1.000
    N43      N        0.48840    0.35710    0.53050    1.000
    N44      N        0.50730    0.43150    0.44220    1.000
    C81      C        0.93070    0.38010    0.56900    1.000
    N45      N        0.78340    0.50820    0.40190    1.000
    C82      C        0.81550    0.54400    0.38860    1.000
    N46      N        0.58150    0.36050    0.53600    1.000
    N47      N        0.43250    0.32390    0.42880    1.000
    N48      N        0.75840    0.17920    0.21580    1.000
    N49      N        0.00500    0.38640    0.59670    1.000
    N50      N        0.80210    0.27820    0.30790    1.000
    C83      C        0.78100    0.30480    0.34090    1.000
    C84      C        0.35760    0.44870    0.42700    1.000
    C85      C        0.71070    0.14930    0.18750    1.000
    C86      C        0.39870    0.49070    0.41210    1.000
    H85      H        0.37010    0.52090    0.39890    1.000
    C87      C        0.49070    0.47920    0.42100    1.000
    C88      C        0.37610    0.28790    0.39850    1.000
    C89      C        0.47660    0.34840    0.58380    1.000
    C90      C        0.55960    0.51400    0.41000    1.000
    H86      H        0.58540    0.50010    0.38110    1.000
    H87      H        0.53030    0.54510    0.39590    1.000
    H88      H        0.60770    0.51950    0.44610    1.000
    C91      C        0.62620    0.35300    0.59330    1.000
    C92      C        0.56220    0.34460    0.62390    1.000
    H89      H        0.57490    0.33770    0.66390    1.000
    C93      C        0.50620    0.28550    0.37520    1.000
    C94      C        0.25920    0.44110    0.42500    1.000
    H90      H        0.25480    0.43830    0.46450    1.000
    H91      H        0.22320    0.46900    0.40580    1.000
    H92      H        0.23640    0.41130    0.40360    1.000
    C95      C        0.57710    0.26960    0.34560    1.000
    H93      H        0.62840    0.25450    0.37420    1.000
    H94      H        0.55010    0.24600    0.31510    1.000
    H95      H        0.59800    0.29810    0.32880    1.000
    C96      C        0.96270    0.23160    0.25210    1.000
    B5       B        0.41560    0.36240    0.47140    1.000
    C97      C        0.72820    0.35090    0.62040    1.000
    H96      H        0.75350    0.38370    0.62170    1.000
    H97      H        0.74170    0.33800    0.65980    1.000
    H98      H        0.75500    0.32970    0.59730    1.000
    C98      C        0.42090    0.26440    0.36480    1.000
    H99      H        0.39790    0.23830    0.33900    1.000
    C99      C        0.38420    0.34040    0.59280    1.000
    H100     H        0.35780    0.31020    0.57360    1.000
    H101     H        0.39080    0.33790    0.63420    1.000
    H102     H        0.34460    0.36780    0.57650    1.000
    C100     C        0.28210    0.27900    0.40620    1.000
    H103     H        0.26130    0.24630    0.39250    1.000
    H104     H        0.28550    0.28200    0.44710    1.000
    H105     H        0.23950    0.30320    0.38380    1.000
    W6       W        0.13122    0.87958    0.45657    1.000
    Cu26     Cu       0.22833    0.95000    0.42278    1.000
    Cu27     Cu       0.23985    0.84351    0.39490    1.000
    Cu28     Cu       0.30769    0.87673    0.51936    1.000
    S16      S        0.21650    0.94178    0.51295    1.000
    Cu29     Cu       0.33921    0.73117    0.25836    1.000
    S17      S        0.12836    0.89977    0.36183    1.000
    S18      S        0.22549    0.81114    0.47833    1.000
    Cu30     Cu       0.36411    0.10339    0.36505    1.000
    N51      N        0.92440    0.91450    0.44600    1.000
    N52      N        0.01480    0.82330    0.41440    1.000
    N53      N        0.98840    0.85710    0.53050    1.000
    N54      N        0.00730    0.93150    0.44220    1.000
    C101     C        0.43070    0.88010    0.56900    1.000
    N55      N        0.28340    0.00820    0.40190    1.000
    C102     C        0.31550    0.04400    0.38860    1.000
    N56      N        0.08150    0.86050    0.53600    1.000
    N57      N        0.93250    0.82390    0.42880    1.000
    N58      N        0.25840    0.67920    0.21580    1.000
    N59      N        0.50500    0.88640    0.59670    1.000
    N60      N        0.30210    0.77820    0.30790    1.000
    C103     C        0.28100    0.80480    0.34090    1.000
    C104     C        0.85760    0.94870    0.42700    1.000
    C105     C        0.21070    0.64930    0.18750    1.000
    C106     C        0.89870    0.99070    0.41210    1.000
    H106     H        0.87010    0.02090    0.39890    1.000
    C107     C        0.99070    0.97920    0.42100    1.000
    C108     C        0.87610    0.78790    0.39850    1.000
    C109     C        0.97660    0.84840    0.58380    1.000
    C110     C        0.05960    0.01400    0.41000    1.000
    H107     H        0.08540    0.00010    0.38110    1.000
    H108     H        0.03030    0.04510    0.39590    1.000
    H109     H        0.10770    0.01950    0.44610    1.000
    C111     C        0.12620    0.85300    0.59330    1.000
    C112     C        0.06220    0.84460    0.62390    1.000
    H110     H        0.07490    0.83770    0.66390    1.000
    C113     C        0.00620    0.78550    0.37520    1.000
    C114     C        0.75920    0.94110    0.42500    1.000
    H111     H        0.75480    0.93830    0.46450    1.000
    H112     H        0.72320    0.96900    0.40580    1.000
    H113     H        0.73640    0.91130    0.40360    1.000
    C115     C        0.07710    0.76960    0.34560    1.000
    H114     H        0.12840    0.75450    0.37420    1.000
    H115     H        0.05010    0.74600    0.31510    1.000
    H116     H        0.09800    0.79810    0.32880    1.000
    C116     C        0.46270    0.73160    0.25210    1.000
    B6       B        0.91560    0.86240    0.47140    1.000
    C117     C        0.22820    0.85090    0.62040    1.000
    H117     H        0.25350    0.88370    0.62170    1.000
    H118     H        0.24170    0.83800    0.65980    1.000
    H119     H        0.25500    0.82970    0.59730    1.000
    C118     C        0.92090    0.76440    0.36480    1.000
    H120     H        0.89790    0.73830    0.33900    1.000
    C119     C        0.88420    0.84040    0.59280    1.000
    H121     H        0.85780    0.81020    0.57360    1.000
    H122     H        0.89080    0.83790    0.63420    1.000
    H123     H        0.84460    0.86780    0.57650    1.000
    C120     C        0.78210    0.77900    0.40620    1.000
    H124     H        0.76130    0.74630    0.39250    1.000
    H125     H        0.78550    0.78200    0.44710    1.000
    H126     H        0.73950    0.80320    0.38380    1.000
    W7       W        0.36878    0.37958    0.04343    1.000
    Cu31     Cu       0.27167    0.45000    0.07722    1.000
    Cu32     Cu       0.26015    0.34351    0.10510    1.000
    Cu33     Cu       0.19231    0.37673    0.98064    1.000
    S19      S        0.28350    0.44178    0.98705    1.000
    Cu34     Cu       0.16079    0.23117    0.24164    1.000
    S20      S        0.37164    0.39977    0.13817    1.000
    S21      S        0.27451    0.31114    0.02167    1.000
    Cu35     Cu       0.13589    0.60339    0.13495    1.000
    N61      N        0.57560    0.41450    0.05400    1.000
    N62      N        0.48520    0.32330    0.08560    1.000
    N63      N        0.51160    0.35710    0.96950    1.000
    N64      N        0.49270    0.43150    0.05780    1.000
    C121     C        0.06930    0.38010    0.93100    1.000
    N65      N        0.21660    0.50820    0.09810    1.000
    C122     C        0.18450    0.54400    0.11140    1.000
    N66      N        0.41850    0.36050    0.96400    1.000
    N67      N        0.56750    0.32390    0.07120    1.000
    N68      N        0.24160    0.17920    0.28420    1.000
    N69      N        0.99500    0.38640    0.90330    1.000
    N70      N        0.19790    0.27820    0.19210    1.000
    C123     C        0.21900    0.30480    0.15910    1.000
    C124     C        0.64240    0.44870    0.07300    1.000
    C125     C        0.28930    0.14930    0.31250    1.000
    C126     C        0.60130    0.49070    0.08790    1.000
    H127     H        0.62990    0.52090    0.10110    1.000
    C127     C        0.50930    0.47920    0.07900    1.000
    C128     C        0.62390    0.28790    0.10150    1.000
    C129     C        0.52340    0.34840    0.91620    1.000
    C130     C        0.44040    0.51400    0.09000    1.000
    H128     H        0.41460    0.50010    0.11890    1.000
    H129     H        0.46970    0.54510    0.10410    1.000
    H130     H        0.39230    0.51950    0.05390    1.000
    C131     C        0.37380    0.35300    0.90670    1.000
    C132     C        0.43780    0.34460    0.87610    1.000
    H131     H        0.42510    0.33770    0.83610    1.000
    C133     C        0.49380    0.28550    0.12480    1.000
    C134     C        0.74080    0.44110    0.07500    1.000
    H132     H        0.74520    0.43830    0.03550    1.000
    H133     H        0.77680    0.46900    0.09420    1.000
    H134     H        0.76360    0.41130    0.09640    1.000
    C135     C        0.42290    0.26960    0.15440    1.000
    H135     H        0.37160    0.25450    0.12580    1.000
    H136     H        0.44990    0.24600    0.18490    1.000
    H137     H        0.40200    0.29810    0.17120    1.000
    C136     C        0.03730    0.23160    0.24790    1.000
    B7       B        0.58440    0.36240    0.02860    1.000
    C137     C        0.27180    0.35090    0.87960    1.000
    H138     H        0.24650    0.38370    0.87830    1.000
    H139     H        0.25830    0.33800    0.84020    1.000
    H140     H        0.24500    0.32970    0.90270    1.000
    C138     C        0.57910    0.26440    0.13520    1.000
    H141     H        0.60210    0.23830    0.16100    1.000
    C139     C        0.61580    0.34040    0.90720    1.000
    H142     H        0.64220    0.31020    0.92640    1.000
    H143     H        0.60920    0.33790    0.86580    1.000
    H144     H        0.65540    0.36780    0.92350    1.000
    C140     C        0.71790    0.27900    0.09380    1.000
    H145     H        0.73870    0.24630    0.10750    1.000
    H146     H        0.71450    0.28200    0.05290    1.000
    H147     H        0.76050    0.30320    0.11620    1.000
    W8       W        0.86878    0.87958    0.04343    1.000
    Cu36     Cu       0.77167    0.95000    0.07722    1.000
    Cu37     Cu       0.76015    0.84351    0.10510    1.000
    Cu38     Cu       0.69231    0.87673    0.98064    1.000
    S22      S        0.78350    0.94178    0.98705    1.000
    Cu39     Cu       0.66079    0.73117    0.24164    1.000
    S23      S        0.87164    0.89977    0.13817    1.000
    S24      S        0.77451    0.81114    0.02167    1.000
    Cu40     Cu       0.63589    0.10339    0.13495    1.000
    N71      N        0.07560    0.91450    0.05400    1.000
    N72      N        0.98520    0.82330    0.08560    1.000
    N73      N        0.01160    0.85710    0.96950    1.000
    N74      N        0.99270    0.93150    0.05780    1.000
    C141     C        0.56930    0.88010    0.93100    1.000
    N75      N        0.71660    0.00820    0.09810    1.000
    C142     C        0.68450    0.04400    0.11140    1.000
    N76      N        0.91850    0.86050    0.96400    1.000
    N77      N        0.06750    0.82390    0.07120    1.000
    N78      N        0.74160    0.67920    0.28420    1.000
    N79      N        0.49500    0.88640    0.90330    1.000
    N80      N        0.69790    0.77820    0.19210    1.000
    C143     C        0.71900    0.80480    0.15910    1.000
    C144     C        0.14240    0.94870    0.07300    1.000
    C145     C        0.78930    0.64930    0.31250    1.000
    C146     C        0.10130    0.99070    0.08790    1.000
    H148     H        0.12990    0.02090    0.10110    1.000
    C147     C        0.00930    0.97920    0.07900    1.000
    C148     C        0.12390    0.78790    0.10150    1.000
    C149     C        0.02340    0.84840    0.91620    1.000
    C150     C        0.94040    0.01400    0.09000    1.000
    H149     H        0.91460    0.00010    0.11890    1.000
    H150     H        0.96970    0.04510    0.10410    1.000
    H151     H        0.89230    0.01950    0.05390    1.000
    C151     C        0.87380    0.85300    0.90670    1.000
    C152     C        0.93780    0.84460    0.87610    1.000
    H152     H        0.92510    0.83770    0.83610    1.000
    C153     C        0.99380    0.78550    0.12480    1.000
    C154     C        0.24080    0.94110    0.07500    1.000
    H153     H        0.24520    0.93830    0.03550    1.000
    H154     H        0.27680    0.96900    0.09420    1.000
    H155     H        0.26360    0.91130    0.09640    1.000
    C155     C        0.92290    0.76960    0.15440    1.000
    H156     H        0.87160    0.75450    0.12580    1.000
    H157     H        0.94990    0.74600    0.18490    1.000
    H158     H        0.90200    0.79810    0.17120    1.000
    C156     C        0.53730    0.73160    0.24790    1.000
    B8       B        0.08440    0.86240    0.02860    1.000
    C157     C        0.77180    0.85090    0.87960    1.000
    H159     H        0.74650    0.88370    0.87830    1.000
    H160     H        0.75830    0.83800    0.84020    1.000
    H161     H        0.74500    0.82970    0.90270    1.000
    C158     C        0.07910    0.76440    0.13520    1.000
    H162     H        0.10210    0.73830    0.16100    1.000
    C159     C        0.11580    0.84040    0.90720    1.000
    H163     H        0.14220    0.81020    0.92640    1.000
    H164     H        0.10920    0.83790    0.86580    1.000
    H165     H        0.15540    0.86780    0.92350    1.000
    C160     C        0.21790    0.77900    0.09380    1.000
    H166     H        0.23870    0.74630    0.10750    1.000
    H167     H        0.21450    0.78200    0.05290    1.000
    H168     H        0.26050    0.80320    0.11620    1.000
