data_functionalizedCrystal
_audit_creation_method	'EQeq! by Chris Wilmer'
_symmetry_space_group_name_H-M	'P1'
_symmetry_Int_Tables_number	1
_symmetry_cell_setting	triclinic
loop_
_symmetry_equiv_pos_as_xyz
  x,y,z
_cell_length_a	10.934
_cell_length_b	11.7927
_cell_length_c	19.2152
_cell_angle_alpha	90
_cell_angle_beta	90
_cell_angle_gamma	90
loop_
_atom_site_label
_atom_site_type_symbol
_atom_site_fract_x
_atom_site_fract_y
_atom_site_fract_z
_atom_site_charge
Mof_Gd	Gd	0.3621	0.84276	0.42584	1.569
Mof_Gd	Gd	0.88086	0.02944	0.21137	1.688
Mof_Gd	Gd	0.6379	0.15724	0.92584	1.522
Mof_Gd	Gd	0.11914	0.97056	0.71137	1.683
Mof_Gd	Gd	0.1379	0.34276	0.42584	1.573
Mof_Gd	Gd	0.61914	0.52944	0.21137	1.703
Mof_Gd	Gd	0.8621	0.65724	0.92584	1.524
Mof_Gd	Gd	0.38086	0.47056	0.71137	1.696
Mof_H 	H 	0.1458	0.9969	0.3216	-0.036
Mof_H 	H 	0.2707	0.7493	0.1563	0.08
Mof_H 	H 	0.6294	0.8986	0.3113	-0.017
Mof_H 	H 	0.4932	0.2606	0.3257	0.04
Mof_H 	H 	0.8542	0.0031	0.8216	-0.036
Mof_H 	H 	0.7293	0.2507	0.6563	0.075
Mof_H 	H 	0.3706	0.1014	0.8113	-0.018
Mof_H 	H 	0.5068	0.7394	0.8257	0.038
Mof_H 	H 	0.3542	0.4969	0.3216	-0.035
Mof_H 	H 	0.2293	0.2493	0.1563	0.08
Mof_H 	H 	0.8706	0.3986	0.3113	-0.017
Mof_H 	H 	0.0068	0.7606	0.3257	0.032
Mof_H 	H 	0.6458	0.5031	0.8216	-0.035
Mof_H 	H 	0.7707	0.7507	0.6563	0.076
Mof_H 	H 	0.1294	0.6014	0.8113	-0.018
Mof_H 	H 	0.9932	0.2394	0.8257	0.034
Mof_C 	C 	0.1685	0.943	0.2888	0.142
Mof_C 	C 	0.135	0.8593	0.1847	0.003
Mof_C 	C 	0.2429	0.7969	0.1914	-0.046
Mof_C 	C 	0.305	0.8098	0.2521	-0.012
Mof_C 	C 	0.4139	0.7328	0.2696	0.385
Mof_C 	C 	0.0524	0.8411	0.1223	0.316
Mof_C 	C 	0.6016	0.9729	0.3142	0.13
Mof_C 	C 	0.6266	0.1583	0.2864	-0.06
Mof_C 	C 	0.521	0.1862	0.3224	-0.004
Mof_C 	C 	0.4601	0.0973	0.3528	-0.04
Mof_C 	C 	0.3396	0.1164	0.391	0.381
Mof_C 	C 	0.7035	0.2497	0.2509	0.42
Mof_C 	C 	0.7005	0.0692	0.0804	0.267
Mof_C 	C 	0.8226	0.1207	0.055	0.297
Mof_C 	C 	0.8315	0.057	0.7888	0.14
Mof_C 	C 	0.865	0.1407	0.6847	-0.002
Mof_C 	C 	0.7571	0.2031	0.6914	-0.044
Mof_C 	C 	0.695	0.1902	0.7521	-0.014
Mof_C 	C 	0.5861	0.2672	0.7696	0.385
Mof_C 	C 	0.9476	0.1589	0.6223	0.319
Mof_C 	C 	0.3984	0.0271	0.8142	0.126
Mof_C 	C 	0.3734	0.8417	0.7864	-0.062
Mof_C 	C 	0.479	0.8138	0.8224	-0.006
Mof_C 	C 	0.5399	0.9027	0.8528	-0.043
Mof_C 	C 	0.6604	0.8836	0.891	0.377
Mof_C 	C 	0.2965	0.7503	0.7509	0.419
Mof_C 	C 	0.2995	0.9308	0.5804	0.282
Mof_C 	C 	0.1774	0.8793	0.555	0.235
Mof_C 	C 	0.3315	0.443	0.2888	0.142
Mof_C 	C 	0.365	0.3593	0.1847	0.001
Mof_C 	C 	0.2571	0.2969	0.1914	-0.045
Mof_C 	C 	0.195	0.3098	0.2521	-0.012
Mof_C 	C 	0.0861	0.2328	0.2696	0.384
Mof_C 	C 	0.4476	0.3411	0.1223	0.325
Mof_C 	C 	0.8984	0.4729	0.3142	0.126
Mof_C 	C 	0.8734	0.6583	0.2864	-0.063
Mof_C 	C 	0.979	0.6862	0.3224	0.01
Mof_C 	C 	0.0399	0.5973	0.3528	-0.048
Mof_C 	C 	0.1604	0.6164	0.391	0.383
Mof_C 	C 	0.7965	0.7497	0.2509	0.421
Mof_C 	C 	0.7995	0.5692	0.0804	0.267
Mof_C 	C 	0.6774	0.6207	0.055	0.3
Mof_C 	C 	0.6685	0.557	0.7888	0.14
Mof_C 	C 	0.635	0.6407	0.6847	-0.003
Mof_C 	C 	0.7429	0.7031	0.6914	-0.043
Mof_C 	C 	0.805	0.6902	0.7521	-0.013
Mof_C 	C 	0.9139	0.7672	0.7696	0.384
Mof_C 	C 	0.5524	0.6589	0.6223	0.326
Mof_C 	C 	0.1016	0.5271	0.8142	0.12
Mof_C 	C 	0.1266	0.3417	0.7864	-0.064
Mof_C 	C 	0.021	0.3138	0.8224	0.002
Mof_C 	C 	0.9601	0.4027	0.8528	-0.047
Mof_C 	C 	0.8396	0.3836	0.891	0.378
Mof_C 	C 	0.2035	0.2503	0.7509	0.419
Mof_C 	C 	0.2005	0.4308	0.5804	0.283
Mof_C 	C 	0.3226	0.3793	0.555	0.235
Mof_N 	N 	0.2698	0.8835	0.3016	-0.187
Mof_N 	N 	0.0971	0.9318	0.2331	-0.202
Mof_N 	N 	0.4992	0.9908	0.3512	-0.191
Mof_N 	N 	0.6669	0.0514	0.2813	-0.185
Mof_N 	N 	0.7302	0.1165	0.8016	-0.184
Mof_N 	N 	0.9029	0.0682	0.7331	-0.202
Mof_N 	N 	0.5008	0.0092	0.8512	-0.191
Mof_N 	N 	0.3331	0.9486	0.7813	-0.185
Mof_N 	N 	0.2302	0.3835	0.3016	-0.187
Mof_N 	N 	0.4029	0.4318	0.2331	-0.201
Mof_N 	N 	0.0008	0.4908	0.3512	-0.189
Mof_N 	N 	0.8331	0.5514	0.2813	-0.183
Mof_N 	N 	0.7698	0.6165	0.8016	-0.184
Mof_N 	N 	0.5971	0.5682	0.7331	-0.201
Mof_N 	N 	0.9992	0.5092	0.8512	-0.189
Mof_N 	N 	0.1669	0.4486	0.7813	-0.183
Mof_O 	O 	0.4538	0.7405	0.3314	-0.455
Mof_O 	O 	0.4507	0.6673	0.2237	-0.407
Mof_O 	O 	0.9541	0.8985	0.1219	-0.368
Mof_O 	O 	0.0867	0.772	0.0793	-0.261
Mof_O 	O 	0.2954	0.0354	0.4254	-0.427
Mof_O 	O 	0.2915	0.2123	0.3833	-0.411
Mof_O 	O 	0.8002	0.2176	0.222	-0.429
Mof_O 	O 	0.6658	0.3488	0.2549	-0.475
Mof_O 	O 	0.6107	0.0825	0.0423	-0.35
Mof_O 	O 	0.7047	0.0151	0.1372	-0.361
Mof_O 	O 	0.8269	0.1536	0.9935	-0.398
Mof_O 	O 	0.9091	0.1249	0.1003	-0.339
Mof_O 	O 	0.5462	0.2595	0.8314	-0.454
Mof_O 	O 	0.5493	0.3327	0.7237	-0.409
Mof_O 	O 	0.0459	0.1015	0.6219	-0.377
Mof_O 	O 	0.9133	0.228	0.5793	-0.277
Mof_O 	O 	0.7046	0.9646	0.9254	-0.433
Mof_O 	O 	0.7085	0.7877	0.8833	-0.408
Mof_O 	O 	0.1998	0.7824	0.722	-0.43
Mof_O 	O 	0.3342	0.6512	0.7549	-0.476
Mof_O 	O 	0.3893	0.9175	0.5423	-0.382
Mof_O 	O 	0.2953	0.9849	0.6372	-0.368
Mof_O 	O 	0.1731	0.8464	0.4935	-0.35
Mof_O 	O 	0.0909	0.8751	0.6003	-0.332
Mof_O 	O 	0.0462	0.2405	0.3314	-0.453
Mof_O 	O 	0.0493	0.1673	0.2237	-0.402
Mof_O 	O 	0.5459	0.3985	0.1219	-0.377
Mof_O 	O 	0.4133	0.272	0.0793	-0.262
Mof_O 	O 	0.2046	0.5354	0.4254	-0.43
Mof_O 	O 	0.2085	0.7123	0.3833	-0.412
Mof_O 	O 	0.6998	0.7176	0.222	-0.429
Mof_O 	O 	0.8342	0.8488	0.2549	-0.471
Mof_O 	O 	0.8893	0.5825	0.0423	-0.349
Mof_O 	O 	0.7953	0.5151	0.1372	-0.361
Mof_O 	O 	0.6731	0.6536	0.9935	-0.399
Mof_O 	O 	0.5909	0.6249	0.1003	-0.338
Mof_O 	O 	0.9538	0.7595	0.8314	-0.452
Mof_O 	O 	0.9507	0.8327	0.7237	-0.404
Mof_O 	O 	0.4541	0.6015	0.6219	-0.385
Mof_O 	O 	0.5867	0.728	0.5793	-0.277
Mof_O 	O 	0.7954	0.4646	0.9254	-0.436
Mof_O 	O 	0.7915	0.2877	0.8833	-0.409
Mof_O 	O 	0.3002	0.2824	0.722	-0.43
Mof_O 	O 	0.1658	0.1512	0.7549	-0.473
Mof_O 	O 	0.1107	0.4175	0.5423	-0.382
Mof_O 	O 	0.2047	0.4849	0.6372	-0.368
Mof_O 	O 	0.3269	0.3464	0.4935	-0.349
Mof_O 	O 	0.4091	0.3751	0.6003	-0.331
_end
