data_functionalizedCrystal
_audit_creation_method	'EQeq! by Chris Wilmer'
_symmetry_space_group_name_H-M	'P1'
_symmetry_Int_Tables_number	1
_symmetry_cell_setting	triclinic
loop_
_symmetry_equiv_pos_as_xyz
  x,y,z
_cell_length_a	13.0455
_cell_length_b	13.0455
_cell_length_c	16.685
_cell_angle_alpha	109.471
_cell_angle_beta	109.471
_cell_angle_gamma	93.7056
loop_
_atom_site_label
_atom_site_type_symbol
_atom_site_fract_x
_atom_site_fract_y
_atom_site_fract_z
_atom_site_charge
Mof_Cd	Cd	0.84799	0.60301	0.0598	0.308
Mof_Cd	Cd	0.60301	0.84799	0.5598	0.329
Mof_C 	C 	0.0336	0.5144	0.981	0.098
Mof_C 	C 	0.8335	0.4325	0.857	0.017
Mof_C 	C 	0.0709	0.4551	0.908	-0.031
Mof_C 	C 	0.8802	0.3738	0.794	-0.036
Mof_C 	C 	0.9981	0.3899	0.814	0.021
Mof_C 	C 	0.0253	0.3107	0.732	0.032
Mof_C 	C 	0.1388	0.2772	0.785	-0.195
Mof_C 	C 	0.2476	0.3332	0.808	0.32
Mof_C 	C 	0.1213	0.1687	0.782	0.282
Mof_C 	C 	0.3331	0.2829	0.845	0.201
Mof_C 	C 	0.2183	0.1297	0.816	0.161
Mof_C 	C 	0.3245	0.1835	0.855	-0.115
Mof_C 	C 	0.4103	0.1177	0.878	-0.057
Mof_C 	C 	0.4564	0.0696	0.806	0.091
Mof_C 	C 	0.572	0.074	0.828	-0.085
Mof_C 	C 	0.3853	0.0027	0.724	-0.014
Mof_C 	C 	0.5977	0.0103	0.749	0.119
Mof_C 	C 	0.4255	0.9425	0.654	0.002
Mof_C 	C 	0.8745	0.8535	0.208	0.077
Mof_C 	C 	0.727	0.727	0.194	0.043
Mof_C 	C 	0.856	0.942	0.263	-0.11
Mof_C 	C 	0.7026	0.8214	0.258	-0.06
Mof_C 	C 	0.764	0.926	0.292	0.045
Mof_C 	C 	0.7283	0.0237	0.358	0.011
Mof_C 	C 	0.7313	0.1287	0.331	-0.131
Mof_C 	C 	0.8135	0.2205	0.375	0.201
Mof_C 	C 	0.641	0.137	0.263	0.199
Mof_C 	C 	0.8066	0.3154	0.351	0.254
Mof_C 	C 	0.6264	0.2216	0.239	0.299
Mof_C 	C 	0.7123	0.3217	0.279	-0.144
Mof_C 	C 	0.6942	0.4158	0.246	-0.031
Mof_C 	C 	0.6819	0.5121	0.322	0.074
Mof_C 	C 	0.7529	0.6151	0.366	-0.064
Mof_C 	C 	0.5823	0.4977	0.338	-0.055
Mof_C 	C 	0.7265	0.7055	0.429	0.048
Mof_C 	C 	0.5591	0.5969	0.406	0.055
Mof_C 	C 	0.5144	0.0336	0.481	0.066
Mof_C 	C 	0.4325	0.8335	0.357	0.011
Mof_C 	C 	0.4551	0.0709	0.408	-0.021
Mof_C 	C 	0.3738	0.8802	0.294	-0.034
Mof_C 	C 	0.3899	0.9981	0.314	0.013
Mof_C 	C 	0.3107	0.0253	0.232	0.037
Mof_C 	C 	0.2772	0.1388	0.285	-0.196
Mof_C 	C 	0.3332	0.2476	0.308	0.319
Mof_C 	C 	0.1687	0.1213	0.282	0.28
Mof_C 	C 	0.2829	0.3331	0.345	0.198
Mof_C 	C 	0.1297	0.2183	0.316	0.159
Mof_C 	C 	0.1835	0.3245	0.355	-0.114
Mof_C 	C 	0.1177	0.4103	0.378	-0.058
Mof_C 	C 	0.0696	0.4564	0.306	0.09
Mof_C 	C 	0.074	0.572	0.328	-0.086
Mof_C 	C 	0.0027	0.3853	0.224	-0.017
Mof_C 	C 	0.0103	0.5977	0.249	0.116
Mof_C 	C 	0.9425	0.4255	0.154	0.001
Mof_C 	C 	0.8535	0.8745	0.708	0.079
Mof_C 	C 	0.727	0.727	0.694	0.047
Mof_C 	C 	0.942	0.856	0.763	-0.107
Mof_C 	C 	0.8214	0.7026	0.758	-0.06
Mof_C 	C 	0.926	0.764	0.792	0.049
Mof_C 	C 	0.0237	0.7283	0.858	0.007
Mof_C 	C 	0.1287	0.7313	0.831	-0.129
Mof_C 	C 	0.2205	0.8135	0.875	0.202
Mof_C 	C 	0.137	0.641	0.763	0.2
Mof_C 	C 	0.3154	0.8066	0.851	0.255
Mof_C 	C 	0.2216	0.6264	0.739	0.3
Mof_C 	C 	0.3217	0.7123	0.779	-0.143
Mof_C 	C 	0.4158	0.6942	0.746	-0.031
Mof_C 	C 	0.5121	0.6819	0.822	0.076
Mof_C 	C 	0.6151	0.7529	0.866	-0.063
Mof_C 	C 	0.4977	0.5823	0.838	-0.054
Mof_C 	C 	0.7055	0.7265	0.929	0.052
Mof_C 	C 	0.5969	0.5591	0.906	0.059
Mof_N 	N 	0.9247	0.5051	0.951	-0.146
Mof_N 	N 	0.8164	0.7496	0.174	-0.151
Mof_N 	N 	0.5419	0.9563	0.672	-0.176
Mof_N 	N 	0.6329	0.6931	0.448	-0.142
Mof_N 	N 	0.5051	0.9247	0.451	-0.148
Mof_N 	N 	0.7496	0.8164	0.674	-0.15
Mof_N 	N 	0.9563	0.5419	0.172	-0.177
Mof_N 	N 	0.6931	0.6329	0.948	-0.136
Mof_F 	F 	0.2606	0.43	0.8072	-0.427
Mof_F 	F 	0.0149	0.1107	0.7537	-0.408
Mof_F 	F 	0.4338	0.3444	0.8735	-0.419
Mof_F 	F 	0.1907	0.0205	0.82	-0.369
Mof_F 	F 	0.9146	0.2358	0.4531	-0.365
Mof_F 	F 	0.5587	0.0443	0.2195	-0.385
Mof_F 	F 	0.892	0.4048	0.3993	-0.415
Mof_F 	F 	0.5427	0.2275	0.1762	-0.42
Mof_F 	F 	0.43	0.2606	0.3072	-0.429
Mof_F 	F 	0.1107	0.0149	0.2537	-0.41
Mof_F 	F 	0.3444	0.4338	0.3735	-0.422
Mof_F 	F 	0.0205	0.1907	0.32	-0.371
Mof_F 	F 	0.2358	0.9146	0.9531	-0.359
Mof_F 	F 	0.0443	0.5587	0.7195	-0.382
Mof_F 	F 	0.4048	0.892	0.8993	-0.412
Mof_F 	F 	0.2275	0.5427	0.6762	-0.415
Mof_H 	H 	0.09662	0.56138	0.05379	0.008
Mof_H 	H 	0.7396	0.42227	0.835	0.038
Mof_H 	H 	0.16324	0.45827	0.92329	0.079
Mof_H 	H 	0.82402	0.31035	0.72369	0.058
Mof_H 	H 	0.6332	0.12364	0.90101	0.077
Mof_H 	H 	0.29238	0.99228	0.70825	0.057
Mof_H 	H 	0.6876	0.00745	0.75694	0.023
Mof_H 	H 	0.36424	0.88345	0.58377	0.034
Mof_H 	H 	0.94623	0.86048	0.18431	0.037
Mof_H 	H 	0.67208	0.64132	0.16449	0.023
Mof_H 	H 	0.91044	0.02641	0.28601	0.141
Mof_H 	H 	0.63091	0.80828	0.28044	0.054
Mof_H 	H 	0.83177	0.62801	0.35228	0.059
Mof_H 	H 	0.52236	0.41417	0.30071	0.136
Mof_H 	H 	0.78415	0.79034	0.46469	0.021
Mof_H 	H 	0.48003	0.58828	0.42025	0.067
Mof_H 	H 	0.56138	0.09662	0.55379	0.031
Mof_H 	H 	0.42227	0.7396	0.335	0.036
Mof_H 	H 	0.45827	0.16324	0.42329	0.072
Mof_H 	H 	0.31035	0.82402	0.22369	0.053
Mof_H 	H 	0.12364	0.6332	0.40101	0.073
Mof_H 	H 	0.99228	0.29238	0.20825	0.056
Mof_H 	H 	0.00745	0.6876	0.25694	0.022
Mof_H 	H 	0.88345	0.36424	0.08377	0.028
Mof_H 	H 	0.86048	0.94623	0.68431	0.04
Mof_H 	H 	0.64132	0.67208	0.66449	0.026
Mof_H 	H 	0.02641	0.91044	0.78601	0.141
Mof_H 	H 	0.80828	0.63091	0.78044	0.055
Mof_H 	H 	0.62801	0.83177	0.85228	0.06
Mof_H 	H 	0.41417	0.52236	0.80071	0.138
Mof_H 	H 	0.79034	0.78415	0.96469	0.028
Mof_H 	H 	0.58828	0.48003	0.92025	0.072
Mof_H 	H 	0.04036	0.35719	0.68871	0.134
Mof_H 	H 	0.95395	0.23629	0.6882	0.066
Mof_H 	H 	0.1372	0.31831	0.85641	0.091
Mof_H 	H 	0.32437	0.21971	0.92729	0.1
Mof_H 	H 	0.37308	0.04711	0.892	0.166
Mof_H 	H 	0.48343	0.1725	0.94283	0.099
Mof_H 	H 	0.78782	0.04701	0.43199	0.07
Mof_H 	H 	0.64053	0.99483	0.35155	0.049
Mof_H 	H 	0.77117	0.08917	0.27993	0.089
Mof_H 	H 	0.75047	0.28284	0.2265	0.073
Mof_H 	H 	0.61549	0.38879	0.18154	0.083
Mof_H 	H 	0.7684	0.44098	0.23027	0.047
Mof_H 	H 	0.23404	0.95635	0.18883	0.061
Mof_H 	H 	0.35783	0.03685	0.18808	0.129
Mof_H 	H 	0.31831	0.1372	0.35641	0.091
Mof_H 	H 	0.21971	0.32437	0.42729	0.096
Mof_H 	H 	0.17298	0.48147	0.44413	0.094
Mof_H 	H 	0.04504	0.37368	0.39005	0.164
Mof_H 	H 	0.99449	0.64067	0.85167	0.052
Mof_H 	H 	0.04744	0.78794	0.93201	0.075
Mof_H 	H 	0.08917	0.77117	0.77993	0.089
Mof_H 	H 	0.28284	0.75047	0.7265	0.075
Mof_H 	H 	0.44187	0.76856	0.73081	0.049
Mof_H 	H 	0.38809	0.61587	0.68117	0.087
_end
