data_functionalizedCrystal
_audit_creation_method	'EQeq! by Chris Wilmer'
_symmetry_space_group_name_H-M	'P1'
_symmetry_Int_Tables_number	1
_symmetry_cell_setting	triclinic
loop_
_symmetry_equiv_pos_as_xyz
  x,y,z
_cell_length_a	16.2945
_cell_length_b	16.2945
_cell_length_c	17.4321
_cell_angle_alpha	90
_cell_angle_beta	90
_cell_angle_gamma	90
loop_
_atom_site_label
_atom_site_type_symbol
_atom_site_fract_x
_atom_site_fract_y
_atom_site_fract_z
_atom_site_charge
Mof_Mn	Mn	0.2392	0.7737	0.21873	0.786
Mof_N 	N 	0.2251	0.7808	0.34515	-0.205
Mof_N 	N 	0.12006	0.70549	0.21184	-0.193
Mof_N 	N 	0.17497	0.89328	0.20958	-0.217
Mof_N 	N 	0.86072	0.66258	0.27065	-0.194
Mof_N 	N 	0.19433	0.15468	0.26681	-0.213
Mof_N 	N 	0.2621	0.7543	0.59381	-0.207
Mof_C 	C 	0.15368	0.95822	0.22246	0.188
Mof_C 	C 	0.16362	0.09362	0.25158	0.184
Mof_N 	N 	0.1761	0.7755	0.4788	-0.05
Mof_C 	C 	0.2037	0.7752	0.409	0.049
Mof_C 	C 	0.2225	0.7616	0.5375	0.047
Mof_N 	N 	0.9948	0.6221	0.2218	-0.289
Mof_C 	C 	0.0591	0.6692	0.2197	0.038
Mof_C 	C 	0.9252	0.6479	0.2485	0.039
Mof_N 	N 	0.1209	0.02915	0.2347	-0.18
Mof_N 	N 	0.1962	0.8116	0.4797	-0.006
Mof_C 	C 	0.2153	0.7948	0.4092	0.059
Mof_C 	C 	0.2811	0.7334	0.0382	0.066
Mof_N 	N 	0.186	0.7334	0.4755	-0.089
Mof_C 	C 	0.2119	0.7512	0.4066	0.027
Mof_C 	C 	0.2406	0.7366	0.0329	0.023
Mof_N 	N 	0.2346	0.8327	0.478	-0.123
Mof_C 	C 	0.237	0.803	0.4086	0.05
Mof_C 	C 	0.2871	0.758	0.0357	0.054
Mof_N 	N 	0.4875	0.8608	0.3041	0.094
Mof_C 	C 	0.0555	0.6799	0.2032	0.035
Mof_C 	C 	0.423	0.8463	0.2637	0.068
Mof_N 	N 	0.5032	0.881	0.2449	0.071
Mof_C 	C 	0.0631	0.6674	0.2355	0.059
Mof_C 	C 	0.4288	0.8539	0.2356	0.029
Mof_Mn	Mn	0.7608	0.2263	0.21873	0.786
Mof_N 	N 	0.7749	0.2192	0.34515	-0.205
Mof_N 	N 	0.87994	0.29451	0.21184	-0.193
Mof_N 	N 	0.82503	0.10672	0.20958	-0.217
Mof_N 	N 	0.13928	0.33742	0.27065	-0.194
Mof_N 	N 	0.80567	0.84532	0.26681	-0.213
Mof_N 	N 	0.7379	0.2457	0.59381	-0.207
Mof_C 	C 	0.84632	0.04178	0.22246	0.188
Mof_C 	C 	0.83638	0.90638	0.25158	0.184
Mof_N 	N 	0.8239	0.2245	0.4788	-0.05
Mof_C 	C 	0.7963	0.2248	0.409	0.049
Mof_C 	C 	0.7775	0.2384	0.5375	0.047
Mof_N 	N 	0.0052	0.3779	0.2218	-0.289
Mof_C 	C 	0.9409	0.3308	0.2197	0.038
Mof_C 	C 	0.0748	0.3521	0.2485	0.039
Mof_N 	N 	0.8791	0.97085	0.2347	-0.18
Mof_N 	N 	0.8038	0.1884	0.4797	-0.006
Mof_C 	C 	0.7847	0.2052	0.4092	0.059
Mof_C 	C 	0.7189	0.2666	0.0382	0.066
Mof_N 	N 	0.814	0.2666	0.4755	-0.089
Mof_C 	C 	0.7881	0.2488	0.4066	0.027
Mof_C 	C 	0.7594	0.2634	0.0329	0.023
Mof_N 	N 	0.7654	0.1673	0.478	-0.123
Mof_C 	C 	0.763	0.197	0.4086	0.05
Mof_C 	C 	0.7129	0.242	0.0357	0.054
Mof_N 	N 	0.5125	0.1392	0.3041	0.094
Mof_C 	C 	0.9445	0.3201	0.2032	0.035
Mof_C 	C 	0.577	0.1537	0.2637	0.068
Mof_N 	N 	0.4968	0.119	0.2449	0.071
Mof_C 	C 	0.9369	0.3326	0.2355	0.059
Mof_C 	C 	0.5712	0.1461	0.2356	0.029
Mof_Mn	Mn	0.7737	0.7608	0.78127	0.786
Mof_N 	N 	0.7808	0.7749	0.65485	-0.205
Mof_N 	N 	0.70549	0.87994	0.78816	-0.193
Mof_N 	N 	0.89328	0.82503	0.79042	-0.217
Mof_N 	N 	0.66258	0.13928	0.72935	-0.194
Mof_N 	N 	0.15468	0.80567	0.73319	-0.213
Mof_N 	N 	0.7543	0.7379	0.40619	-0.207
Mof_C 	C 	0.95822	0.84632	0.77754	0.188
Mof_C 	C 	0.09362	0.83638	0.74842	0.184
Mof_N 	N 	0.7755	0.8239	0.5212	-0.05
Mof_C 	C 	0.7752	0.7963	0.591	0.049
Mof_C 	C 	0.7616	0.7775	0.4625	0.047
Mof_N 	N 	0.6221	0.0052	0.7782	-0.289
Mof_C 	C 	0.6692	0.9409	0.7803	0.038
Mof_C 	C 	0.6479	0.0748	0.7515	0.039
Mof_N 	N 	0.02915	0.8791	0.7653	-0.18
Mof_N 	N 	0.8116	0.8038	0.5203	-0.006
Mof_C 	C 	0.7948	0.7847	0.5908	0.059
Mof_C 	C 	0.7334	0.7189	0.9618	0.066
Mof_N 	N 	0.7334	0.814	0.5245	-0.089
Mof_C 	C 	0.7512	0.7881	0.5934	0.027
Mof_C 	C 	0.7366	0.7594	0.9671	0.023
Mof_N 	N 	0.8327	0.7654	0.522	-0.123
Mof_C 	C 	0.803	0.763	0.5914	0.05
Mof_C 	C 	0.758	0.7129	0.9643	0.054
Mof_N 	N 	0.8608	0.5125	0.6959	0.094
Mof_C 	C 	0.6799	0.9445	0.7968	0.035
Mof_C 	C 	0.8463	0.577	0.7363	0.068
Mof_N 	N 	0.881	0.4968	0.7551	0.071
Mof_C 	C 	0.6674	0.9369	0.7645	0.059
Mof_C 	C 	0.8539	0.5712	0.7644	0.029
Mof_Mn	Mn	0.2263	0.2392	0.78127	0.786
Mof_N 	N 	0.2192	0.2251	0.65485	-0.205
Mof_N 	N 	0.29451	0.12006	0.78816	-0.193
Mof_N 	N 	0.10672	0.17497	0.79042	-0.217
Mof_N 	N 	0.33742	0.86072	0.72935	-0.194
Mof_N 	N 	0.84532	0.19433	0.73319	-0.213
Mof_N 	N 	0.2457	0.2621	0.40619	-0.207
Mof_C 	C 	0.04178	0.15368	0.77754	0.188
Mof_C 	C 	0.90638	0.16362	0.74842	0.184
Mof_N 	N 	0.2245	0.1761	0.5212	-0.05
Mof_C 	C 	0.2248	0.2037	0.591	0.049
Mof_C 	C 	0.2384	0.2225	0.4625	0.047
Mof_N 	N 	0.3779	0.9948	0.7782	-0.289
Mof_C 	C 	0.3308	0.0591	0.7803	0.038
Mof_C 	C 	0.3521	0.9252	0.7515	0.039
Mof_N 	N 	0.97085	0.1209	0.7653	-0.18
Mof_N 	N 	0.1884	0.1962	0.5203	-0.006
Mof_C 	C 	0.2052	0.2153	0.5908	0.059
Mof_C 	C 	0.2666	0.2811	0.9618	0.066
Mof_N 	N 	0.2666	0.186	0.5245	-0.089
Mof_C 	C 	0.2488	0.2119	0.5934	0.027
Mof_C 	C 	0.2634	0.2406	0.9671	0.023
Mof_N 	N 	0.1673	0.2346	0.522	-0.123
Mof_C 	C 	0.197	0.237	0.5914	0.05
Mof_C 	C 	0.242	0.2871	0.9643	0.054
Mof_N 	N 	0.1392	0.4875	0.6959	0.094
Mof_C 	C 	0.3201	0.0555	0.7968	0.035
Mof_C 	C 	0.1537	0.423	0.7363	0.068
Mof_N 	N 	0.119	0.5032	0.7551	0.071
Mof_C 	C 	0.3326	0.0631	0.7645	0.059
Mof_C 	C 	0.1461	0.4288	0.7644	0.029
Mof_Mn	Mn	0.2608	0.2737	0.28127	0.786
Mof_N 	N 	0.2749	0.2808	0.15485	-0.205
Mof_N 	N 	0.37994	0.20549	0.28816	-0.193
Mof_N 	N 	0.32503	0.39328	0.29042	-0.217
Mof_N 	N 	0.63928	0.16258	0.22935	-0.194
Mof_N 	N 	0.30567	0.65468	0.23319	-0.213
Mof_N 	N 	0.2379	0.2543	0.90619	-0.207
Mof_C 	C 	0.34632	0.45822	0.27754	0.188
Mof_C 	C 	0.33638	0.59362	0.24842	0.184
Mof_N 	N 	0.3239	0.2755	0.0212	-0.05
Mof_C 	C 	0.2963	0.2752	0.091	0.049
Mof_C 	C 	0.2775	0.2616	0.9625	0.047
Mof_N 	N 	0.5052	0.1221	0.2782	-0.289
Mof_C 	C 	0.4409	0.1692	0.2803	0.038
Mof_C 	C 	0.5748	0.1479	0.2515	0.039
Mof_N 	N 	0.3791	0.52915	0.2653	-0.18
Mof_N 	N 	0.3038	0.3116	0.0203	-0.006
Mof_C 	C 	0.2847	0.2948	0.0908	0.059
Mof_C 	C 	0.2189	0.2334	0.4618	0.066
Mof_N 	N 	0.314	0.2334	0.0245	-0.089
Mof_C 	C 	0.2881	0.2512	0.0934	0.027
Mof_C 	C 	0.2594	0.2366	0.4671	0.023
Mof_N 	N 	0.2654	0.3327	0.022	-0.123
Mof_C 	C 	0.263	0.303	0.0914	0.05
Mof_C 	C 	0.2129	0.258	0.4643	0.054
Mof_N 	N 	0.0125	0.3608	0.1959	0.094
Mof_C 	C 	0.4445	0.1799	0.2968	0.035
Mof_C 	C 	0.077	0.3463	0.2363	0.068
Mof_N 	N 	0.9968	0.381	0.2551	0.071
Mof_C 	C 	0.4369	0.1674	0.2645	0.059
Mof_C 	C 	0.0712	0.3539	0.2644	0.029
Mof_Mn	Mn	0.7392	0.7263	0.28127	0.786
Mof_N 	N 	0.7251	0.7192	0.15485	-0.205
Mof_N 	N 	0.62006	0.79451	0.28816	-0.193
Mof_N 	N 	0.67497	0.60672	0.29042	-0.217
Mof_N 	N 	0.36072	0.83742	0.22935	-0.194
Mof_N 	N 	0.69433	0.34532	0.23319	-0.213
Mof_N 	N 	0.7621	0.7457	0.90619	-0.207
Mof_C 	C 	0.65368	0.54178	0.27754	0.188
Mof_C 	C 	0.66362	0.40638	0.24842	0.184
Mof_N 	N 	0.6761	0.7245	0.0212	-0.05
Mof_C 	C 	0.7037	0.7248	0.091	0.049
Mof_C 	C 	0.7225	0.7384	0.9625	0.047
Mof_N 	N 	0.4948	0.8779	0.2782	-0.289
Mof_C 	C 	0.5591	0.8308	0.2803	0.038
Mof_C 	C 	0.4252	0.8521	0.2515	0.039
Mof_N 	N 	0.6209	0.47085	0.2653	-0.18
Mof_N 	N 	0.6962	0.6884	0.0203	-0.006
Mof_C 	C 	0.7153	0.7052	0.0908	0.059
Mof_C 	C 	0.7811	0.7666	0.4618	0.066
Mof_N 	N 	0.686	0.7666	0.0245	-0.089
Mof_C 	C 	0.7119	0.7488	0.0934	0.027
Mof_C 	C 	0.7406	0.7634	0.4671	0.023
Mof_N 	N 	0.7346	0.6673	0.022	-0.123
Mof_C 	C 	0.737	0.697	0.0914	0.05
Mof_C 	C 	0.7871	0.742	0.4643	0.054
Mof_N 	N 	0.9875	0.6392	0.1959	0.094
Mof_C 	C 	0.5555	0.8201	0.2968	0.035
Mof_C 	C 	0.923	0.6537	0.2363	0.068
Mof_N 	N 	0.0032	0.619	0.2551	0.071
Mof_C 	C 	0.5631	0.8326	0.2645	0.059
Mof_C 	C 	0.9288	0.6461	0.2644	0.029
Mof_Mn	Mn	0.7263	0.2608	0.71873	0.786
Mof_N 	N 	0.7192	0.2749	0.84515	-0.205
Mof_N 	N 	0.79451	0.37994	0.71184	-0.193
Mof_N 	N 	0.60672	0.32503	0.70958	-0.217
Mof_N 	N 	0.83742	0.63928	0.77065	-0.194
Mof_N 	N 	0.34532	0.30567	0.76681	-0.213
Mof_N 	N 	0.7457	0.2379	0.09381	-0.207
Mof_C 	C 	0.54178	0.34632	0.72246	0.188
Mof_C 	C 	0.40638	0.33638	0.75158	0.184
Mof_N 	N 	0.7245	0.3239	0.9788	-0.05
Mof_C 	C 	0.7248	0.2963	0.909	0.049
Mof_C 	C 	0.7384	0.2775	0.0375	0.047
Mof_N 	N 	0.8779	0.5052	0.7218	-0.289
Mof_C 	C 	0.8308	0.4409	0.7197	0.038
Mof_C 	C 	0.8521	0.5748	0.7485	0.039
Mof_N 	N 	0.47085	0.3791	0.7347	-0.18
Mof_N 	N 	0.6884	0.3038	0.9797	-0.006
Mof_C 	C 	0.7052	0.2847	0.9092	0.059
Mof_C 	C 	0.7666	0.2189	0.5382	0.066
Mof_N 	N 	0.7666	0.314	0.9755	-0.089
Mof_C 	C 	0.7488	0.2881	0.9066	0.027
Mof_C 	C 	0.7634	0.2594	0.5329	0.023
Mof_N 	N 	0.6673	0.2654	0.978	-0.123
Mof_C 	C 	0.697	0.263	0.9086	0.05
Mof_C 	C 	0.742	0.2129	0.5357	0.054
Mof_N 	N 	0.6392	0.0125	0.8041	0.094
Mof_C 	C 	0.8201	0.4445	0.7032	0.035
Mof_C 	C 	0.6537	0.077	0.7637	0.068
Mof_N 	N 	0.619	0.9968	0.7449	0.071
Mof_C 	C 	0.8326	0.4369	0.7355	0.059
Mof_C 	C 	0.6461	0.0712	0.7356	0.029
Mof_Mn	Mn	0.2737	0.7392	0.71873	0.786
Mof_N 	N 	0.2808	0.7251	0.84515	-0.205
Mof_N 	N 	0.20549	0.62006	0.71184	-0.193
Mof_N 	N 	0.39328	0.67497	0.70958	-0.217
Mof_N 	N 	0.16258	0.36072	0.77065	-0.194
Mof_N 	N 	0.65468	0.69433	0.76681	-0.213
Mof_N 	N 	0.2543	0.7621	0.09381	-0.207
Mof_C 	C 	0.45822	0.65368	0.72246	0.188
Mof_C 	C 	0.59362	0.66362	0.75158	0.184
Mof_N 	N 	0.2755	0.6761	0.9788	-0.05
Mof_C 	C 	0.2752	0.7037	0.909	0.049
Mof_C 	C 	0.2616	0.7225	0.0375	0.047
Mof_N 	N 	0.1221	0.4948	0.7218	-0.289
Mof_C 	C 	0.1692	0.5591	0.7197	0.038
Mof_C 	C 	0.1479	0.4252	0.7485	0.039
Mof_N 	N 	0.52915	0.6209	0.7347	-0.18
Mof_N 	N 	0.3116	0.6962	0.9797	-0.006
Mof_C 	C 	0.2948	0.7153	0.9092	0.059
Mof_C 	C 	0.2334	0.7811	0.5382	0.066
Mof_N 	N 	0.2334	0.686	0.9755	-0.089
Mof_C 	C 	0.2512	0.7119	0.9066	0.027
Mof_C 	C 	0.2366	0.7406	0.5329	0.023
Mof_N 	N 	0.3327	0.7346	0.978	-0.123
Mof_C 	C 	0.303	0.737	0.9086	0.05
Mof_C 	C 	0.258	0.7871	0.5357	0.054
Mof_N 	N 	0.3608	0.9875	0.8041	0.094
Mof_C 	C 	0.1799	0.5555	0.7032	0.035
Mof_C 	C 	0.3463	0.923	0.7637	0.068
Mof_N 	N 	0.381	0.0032	0.7449	0.071
Mof_C 	C 	0.1674	0.5631	0.7355	0.059
Mof_C 	C 	0.3539	0.9288	0.7356	0.029
_end
