data_functionalizedCrystal
_audit_creation_method	'EQeq! by Chris Wilmer'
_symmetry_space_group_name_H-M	'P1'
_symmetry_Int_Tables_number	1
_symmetry_cell_setting	triclinic
loop_
_symmetry_equiv_pos_as_xyz
  x,y,z
_cell_length_a	15.2768
_cell_length_b	10.2216
_cell_length_c	18.6279
_cell_angle_alpha	90
_cell_angle_beta	103.252
_cell_angle_gamma	90
loop_
_atom_site_label
_atom_site_type_symbol
_atom_site_fract_x
_atom_site_fract_y
_atom_site_fract_z
_atom_site_charge
Mof_V 	V 	0.7487	0.04535	0.21455	1.732
Mof_V 	V 	0.83739	0.11735	0.4144	1.74
Mof_P 	P 	0.66366	0.3319	0.16526	0.477
Mof_P 	P 	0.28813	0.37985	0.07714	0.511
Mof_O 	O 	0.73201	0.2215	0.16855	-0.561
Mof_O 	O 	0.29047	0.5028	0.12522	-0.528
Mof_O 	O 	0.6739	0.3995	0.23989	-0.562
Mof_O 	O 	0.7907	0.1422	0.30808	-2.036
Mof_O 	O 	0.67346	0.427	0.10409	-0.507
Mof_O 	O 	0.20484	0.2982	0.07682	-0.619
Mof_O 	O 	0.29221	0.4287	0.00033	-0.532
Mof_C 	C 	0.5538	0.2603	0.1432	-0.365
Mof_H 	H 	0.5493	0.2038	0.0993	0.081
Mof_H 	H 	0.5477	0.2031	0.1847	0.071
Mof_C 	C 	0.3856	0.2809	0.1117	-0.402
Mof_H 	H 	0.3788	0.2378	0.1577	0.103
Mof_H 	H 	0.3881	0.2113	0.0753	0.096
Mof_C 	C 	0.4747	0.3556	0.1277	0.184
Mof_H 	H 	0.4778	0.411	0.0847	-0.095
Mof_H 	H 	0.4781	0.4134	0.1708	-0.04
Mof_H 	H 	0.788	0.2	0.303	1.23
Mof_V 	V 	0.2487	0.54535	0.21455	1.734
Mof_V 	V 	0.33739	0.61735	0.4144	1.741
Mof_P 	P 	0.16366	0.8319	0.16526	0.479
Mof_P 	P 	0.78813	0.87985	0.07714	0.516
Mof_O 	O 	0.23201	0.7215	0.16855	-0.559
Mof_O 	O 	0.79047	0.0028	0.12522	-0.532
Mof_O 	O 	0.1739	0.8995	0.23989	-0.559
Mof_O 	O 	0.2907	0.6422	0.30808	-2.033
Mof_O 	O 	0.17346	0.927	0.10409	-0.503
Mof_O 	O 	0.70484	0.7982	0.07682	-0.615
Mof_O 	O 	0.79221	0.9287	0.00033	-0.526
Mof_C 	C 	0.0538	0.7603	0.1432	-0.366
Mof_H 	H 	0.0493	0.7038	0.0993	0.082
Mof_H 	H 	0.0477	0.7031	0.1847	0.072
Mof_C 	C 	0.8856	0.7809	0.1117	-0.404
Mof_H 	H 	0.8788	0.7378	0.1577	0.104
Mof_H 	H 	0.8881	0.7113	0.0753	0.098
Mof_C 	C 	0.9747	0.8556	0.1277	0.186
Mof_H 	H 	0.9778	0.911	0.0847	-0.094
Mof_H 	H 	0.9781	0.9134	0.1708	-0.039
Mof_H 	H 	0.288	0.7	0.303	1.23
Mof_V 	V 	0.2513	0.04535	0.28545	1.733
Mof_V 	V 	0.16261	0.11735	0.0856	1.739
Mof_P 	P 	0.33634	0.3319	0.33474	0.479
Mof_P 	P 	0.71187	0.37985	0.42286	0.512
Mof_O 	O 	0.26799	0.2215	0.33145	-0.559
Mof_O 	O 	0.70953	0.5028	0.37478	-0.527
Mof_O 	O 	0.3261	0.3995	0.26011	-0.561
Mof_O 	O 	0.2093	0.1422	0.19192	-2.036
Mof_O 	O 	0.32654	0.427	0.39591	-0.505
Mof_O 	O 	0.79516	0.2982	0.42318	-0.616
Mof_O 	O 	0.70779	0.4287	0.49967	-0.529
Mof_C 	C 	0.4462	0.2603	0.3568	-0.365
Mof_H 	H 	0.4507	0.2038	0.4007	0.082
Mof_H 	H 	0.4523	0.2031	0.3153	0.072
Mof_C 	C 	0.6144	0.2809	0.3883	-0.403
Mof_H 	H 	0.6212	0.2378	0.3423	0.103
Mof_H 	H 	0.6119	0.2113	0.4247	0.098
Mof_C 	C 	0.5253	0.3556	0.3723	0.185
Mof_H 	H 	0.5222	0.411	0.4153	-0.095
Mof_H 	H 	0.5219	0.4134	0.3292	-0.04
Mof_H 	H 	0.212	0.2	0.197	1.231
Mof_V 	V 	0.7513	0.54535	0.28545	1.734
Mof_V 	V 	0.66261	0.61735	0.0856	1.741
Mof_P 	P 	0.83634	0.8319	0.33474	0.479
Mof_P 	P 	0.21187	0.87985	0.42286	0.513
Mof_O 	O 	0.76799	0.7215	0.33145	-0.559
Mof_O 	O 	0.20953	0.0028	0.37478	-0.528
Mof_O 	O 	0.8261	0.8995	0.26011	-0.558
Mof_O 	O 	0.7093	0.6422	0.19192	-2.033
Mof_O 	O 	0.82654	0.927	0.39591	-0.504
Mof_O 	O 	0.29516	0.7982	0.42318	-0.616
Mof_O 	O 	0.20779	0.9287	0.49967	-0.53
Mof_C 	C 	0.9462	0.7603	0.3568	-0.364
Mof_H 	H 	0.9507	0.7038	0.4007	0.082
Mof_H 	H 	0.9523	0.7031	0.3153	0.072
Mof_C 	C 	0.1144	0.7809	0.3883	-0.403
Mof_H 	H 	0.1212	0.7378	0.3423	0.103
Mof_H 	H 	0.1119	0.7113	0.4247	0.098
Mof_C 	C 	0.0253	0.8556	0.3723	0.184
Mof_H 	H 	0.0222	0.911	0.4153	-0.095
Mof_H 	H 	0.0219	0.9134	0.3292	-0.04
Mof_H 	H 	0.712	0.7	0.197	1.23
Mof_V 	V 	0.2513	0.95465	0.78545	1.733
Mof_V 	V 	0.16261	0.88265	0.5856	1.741
Mof_P 	P 	0.33634	0.6681	0.83474	0.478
Mof_P 	P 	0.71187	0.62015	0.92286	0.512
Mof_O 	O 	0.26799	0.7785	0.83145	-0.56
Mof_O 	O 	0.70953	0.4972	0.87478	-0.527
Mof_O 	O 	0.3261	0.6005	0.76011	-0.561
Mof_O 	O 	0.2093	0.8578	0.69192	-2.035
Mof_O 	O 	0.32654	0.573	0.89591	-0.506
Mof_O 	O 	0.79516	0.7018	0.92318	-0.618
Mof_O 	O 	0.70779	0.5713	0.99967	-0.531
Mof_C 	C 	0.4462	0.7397	0.8568	-0.364
Mof_H 	H 	0.4507	0.7962	0.9007	0.081
Mof_H 	H 	0.4523	0.7969	0.8153	0.071
Mof_C 	C 	0.6144	0.7191	0.8883	-0.402
Mof_H 	H 	0.6212	0.7622	0.8423	0.103
Mof_H 	H 	0.6119	0.7887	0.9247	0.096
Mof_C 	C 	0.5253	0.6444	0.8723	0.184
Mof_H 	H 	0.5222	0.589	0.9153	-0.095
Mof_H 	H 	0.5219	0.5866	0.8292	-0.04
Mof_H 	H 	0.212	0.8	0.697	1.23
Mof_V 	V 	0.7513	0.45465	0.78545	1.734
Mof_V 	V 	0.66261	0.38265	0.5856	1.741
Mof_P 	P 	0.83634	0.1681	0.83474	0.479
Mof_P 	P 	0.21187	0.12015	0.92286	0.516
Mof_O 	O 	0.76799	0.2785	0.83145	-0.559
Mof_O 	O 	0.20953	0.9972	0.87478	-0.532
Mof_O 	O 	0.8261	0.1005	0.76011	-0.559
Mof_O 	O 	0.7093	0.3578	0.69192	-2.033
Mof_O 	O 	0.82654	0.073	0.89591	-0.503
Mof_O 	O 	0.29516	0.2018	0.92318	-0.615
Mof_O 	O 	0.20779	0.0713	0.99967	-0.526
Mof_C 	C 	0.9462	0.2397	0.8568	-0.366
Mof_H 	H 	0.9507	0.2962	0.9007	0.082
Mof_H 	H 	0.9523	0.2969	0.8153	0.072
Mof_C 	C 	0.1144	0.2191	0.8883	-0.404
Mof_H 	H 	0.1212	0.2622	0.8423	0.104
Mof_H 	H 	0.1119	0.2887	0.9247	0.098
Mof_C 	C 	0.0253	0.1444	0.8723	0.186
Mof_H 	H 	0.0222	0.089	0.9153	-0.094
Mof_H 	H 	0.0219	0.0866	0.8292	-0.039
Mof_H 	H 	0.712	0.3	0.697	1.23
Mof_V 	V 	0.7487	0.95465	0.71455	1.733
Mof_V 	V 	0.83739	0.88265	0.9144	1.739
Mof_P 	P 	0.66366	0.6681	0.66526	0.479
Mof_P 	P 	0.28813	0.62015	0.57714	0.512
Mof_O 	O 	0.73201	0.7785	0.66855	-0.559
Mof_O 	O 	0.29047	0.4972	0.62522	-0.527
Mof_O 	O 	0.6739	0.6005	0.73989	-0.561
Mof_O 	O 	0.7907	0.8578	0.80808	-2.036
Mof_O 	O 	0.67346	0.573	0.60409	-0.505
Mof_O 	O 	0.20484	0.7018	0.57682	-0.616
Mof_O 	O 	0.29221	0.5713	0.50033	-0.529
Mof_C 	C 	0.5538	0.7397	0.6432	-0.365
Mof_H 	H 	0.5493	0.7962	0.5993	0.082
Mof_H 	H 	0.5477	0.7969	0.6847	0.072
Mof_C 	C 	0.3856	0.7191	0.6117	-0.403
Mof_H 	H 	0.3788	0.7622	0.6577	0.103
Mof_H 	H 	0.3881	0.7887	0.5753	0.098
Mof_C 	C 	0.4747	0.6444	0.6277	0.185
Mof_H 	H 	0.4778	0.589	0.5847	-0.095
Mof_H 	H 	0.4781	0.5866	0.6708	-0.04
Mof_H 	H 	0.788	0.8	0.803	1.231
Mof_V 	V 	0.2487	0.45465	0.71455	1.734
Mof_V 	V 	0.33739	0.38265	0.9144	1.741
Mof_P 	P 	0.16366	0.1681	0.66526	0.479
Mof_P 	P 	0.78813	0.12015	0.57714	0.513
Mof_O 	O 	0.23201	0.2785	0.66855	-0.559
Mof_O 	O 	0.79047	0.9972	0.62522	-0.528
Mof_O 	O 	0.1739	0.1005	0.73989	-0.558
Mof_O 	O 	0.2907	0.3578	0.80808	-2.033
Mof_O 	O 	0.17346	0.073	0.60409	-0.504
Mof_O 	O 	0.70484	0.2018	0.57682	-0.616
Mof_O 	O 	0.79221	0.0713	0.50033	-0.53
Mof_C 	C 	0.0538	0.2397	0.6432	-0.364
Mof_H 	H 	0.0493	0.2962	0.5993	0.082
Mof_H 	H 	0.0477	0.2969	0.6847	0.072
Mof_C 	C 	0.8856	0.2191	0.6117	-0.403
Mof_H 	H 	0.8788	0.2622	0.6577	0.103
Mof_H 	H 	0.8881	0.2887	0.5753	0.098
Mof_C 	C 	0.9747	0.1444	0.6277	0.184
Mof_H 	H 	0.9778	0.089	0.5847	-0.095
Mof_H 	H 	0.9781	0.0866	0.6708	-0.04
Mof_H 	H 	0.288	0.3	0.803	1.23
_end
