data_functionalizedCrystal
_audit_creation_method	'EQeq! by Chris Wilmer'
_symmetry_space_group_name_H-M	'P1'
_symmetry_Int_Tables_number	1
_symmetry_cell_setting	triclinic
loop_
_symmetry_equiv_pos_as_xyz
  x,y,z
_cell_length_a	23.571
_cell_length_b	15.673
_cell_length_c	16.082
_cell_angle_alpha	90
_cell_angle_beta	124.154
_cell_angle_gamma	90
loop_
_atom_site_label
_atom_site_type_symbol
_atom_site_fract_x
_atom_site_fract_y
_atom_site_fract_z
_atom_site_charge
Mof_Dy	Dy	0.81048	0.67198	0.62354	1.885
Mof_C 	C 	0.1328	0.0395	0.3265	-0.168
Mof_C 	C 	0.1436	0.9573	0.3627	0.038
Mof_H 	H 	0.1799	0.946	0.4304	0.045
Mof_C 	C 	0.1024	0.8911	0.3025	-0.012
Mof_C 	C 	0.0479	0.9069	0.2034	0.184
Mof_C 	C 	0.0344	0.99	0.1675	-0.191
Mof_H 	H 	0.996	0.0019	0.1016	0.111
Mof_C 	C 	0.077	0.0554	0.2278	0.105
Mof_H 	H 	0.0683	0.1119	0.2021	0.012
Mof_C 	C 	0.0194	0.8102	0.0735	0.186
Mof_C 	C 	0.085	0.8106	0.0957	-0.103
Mof_H 	H 	0.1216	0.8348	0.1568	0.094
Mof_C 	C 	0.0972	0.7753	0.028	-0.08
Mof_C 	C 	0.0435	0.7406	0.9379	-0.007
Mof_H 	H 	0.0514	0.7183	0.8903	0.032
Mof_C 	C 	0.9777	0.7392	0.9184	-0.022
Mof_C 	C 	0.9662	0.7734	0.9874	-0.128
Mof_H 	H 	0.9218	0.7712	0.975	0.116
Mof_C 	C 	0.1797	0.1108	0.3907	0.481
Mof_C 	C 	0.1693	0.7742	0.0553	0.423
Mof_C 	C 	0.919	0.7038	0.8201	0.289
Mof_N 	N 	0.1177	0.8054	0.3448	0.011
Mof_O 	O 	0.1725	0.1797	0.3456	-0.483
Mof_O 	O 	0.2221	0.0958	0.4821	-0.521
Mof_O 	O 	0.1533	0.7995	0.437	-0.111
Mof_O 	O 	0.0949	0.7437	0.2888	-0.104
Mof_O 	O 	0.2143	0.8126	0.133	-0.467
Mof_O 	O 	0.1825	0.7342	0.9995	-0.562
Mof_O 	O 	0.9295	0.679	0.7547	-0.44
Mof_O 	O 	0.8605	0.701	0.8043	-0.381
Mof_O 	O 	0.0035	0.8439	0.1387	-0.221
Mof_Dy	Dy	0.31048	0.17198	0.62354	1.884
Mof_C 	C 	0.6328	0.5395	0.3265	-0.168
Mof_C 	C 	0.6436	0.4573	0.3627	0.037
Mof_H 	H 	0.6799	0.446	0.4304	0.044
Mof_C 	C 	0.6024	0.3911	0.3025	-0.012
Mof_C 	C 	0.5479	0.4069	0.2034	0.181
Mof_C 	C 	0.5344	0.49	0.1675	-0.189
Mof_H 	H 	0.496	0.5019	0.1016	0.109
Mof_C 	C 	0.577	0.5554	0.2278	0.101
Mof_H 	H 	0.5683	0.6119	0.2021	0.011
Mof_C 	C 	0.5194	0.3102	0.0735	0.188
Mof_C 	C 	0.585	0.3106	0.0957	-0.106
Mof_H 	H 	0.6216	0.3348	0.1568	0.095
Mof_C 	C 	0.5972	0.2753	0.028	-0.077
Mof_C 	C 	0.5435	0.2406	0.9379	-0.01
Mof_H 	H 	0.5514	0.2183	0.8903	0.033
Mof_C 	C 	0.4777	0.2392	0.9184	-0.02
Mof_C 	C 	0.4662	0.2734	0.9874	-0.131
Mof_H 	H 	0.4218	0.2712	0.975	0.117
Mof_C 	C 	0.6797	0.6108	0.3907	0.48
Mof_C 	C 	0.6693	0.2742	0.0553	0.424
Mof_C 	C 	0.419	0.2038	0.8201	0.288
Mof_N 	N 	0.6177	0.3054	0.3448	0.011
Mof_O 	O 	0.6725	0.6797	0.3456	-0.483
Mof_O 	O 	0.7221	0.5958	0.4821	-0.521
Mof_O 	O 	0.6533	0.2995	0.437	-0.111
Mof_O 	O 	0.5949	0.2437	0.2888	-0.104
Mof_O 	O 	0.7143	0.3126	0.133	-0.467
Mof_O 	O 	0.6825	0.2342	0.9995	-0.563
Mof_O 	O 	0.4295	0.179	0.7547	-0.44
Mof_O 	O 	0.3605	0.201	0.8043	-0.381
Mof_O 	O 	0.5035	0.3439	0.1387	-0.221
Mof_Dy	Dy	0.18952	0.67198	0.87646	1.884
Mof_C 	C 	0.8672	0.0395	0.1735	-0.167
Mof_C 	C 	0.8564	0.9573	0.1373	0.035
Mof_H 	H 	0.8201	0.946	0.0696	0.044
Mof_C 	C 	0.8976	0.8911	0.1975	-0.012
Mof_C 	C 	0.9521	0.9069	0.2966	0.182
Mof_C 	C 	0.9656	0.99	0.3325	-0.191
Mof_H 	H 	0.004	0.0019	0.3984	0.11
Mof_C 	C 	0.923	0.0554	0.2722	0.102
Mof_H 	H 	0.9317	0.1119	0.2979	0.011
Mof_C 	C 	0.9806	0.8102	0.4265	0.186
Mof_C 	C 	0.915	0.8106	0.4043	-0.105
Mof_H 	H 	0.8784	0.8348	0.3432	0.094
Mof_C 	C 	0.9028	0.7753	0.472	-0.079
Mof_C 	C 	0.9565	0.7406	0.5621	-0.008
Mof_H 	H 	0.9486	0.7183	0.6097	0.032
Mof_C 	C 	0.0223	0.7392	0.5816	-0.021
Mof_C 	C 	0.0338	0.7734	0.5126	-0.129
Mof_H 	H 	0.0782	0.7712	0.525	0.117
Mof_C 	C 	0.8203	0.1108	0.1093	0.48
Mof_C 	C 	0.8307	0.7742	0.4447	0.424
Mof_C 	C 	0.081	0.7038	0.6799	0.289
Mof_N 	N 	0.8823	0.8054	0.1552	0.011
Mof_O 	O 	0.8275	0.1797	0.1544	-0.483
Mof_O 	O 	0.7779	0.0958	0.0179	-0.52
Mof_O 	O 	0.8467	0.7995	0.063	-0.112
Mof_O 	O 	0.9051	0.7437	0.2112	-0.104
Mof_O 	O 	0.7857	0.8126	0.367	-0.467
Mof_O 	O 	0.8175	0.7342	0.5005	-0.563
Mof_O 	O 	0.0705	0.679	0.7453	-0.44
Mof_O 	O 	0.1395	0.701	0.6957	-0.381
Mof_O 	O 	0.9965	0.8439	0.3613	-0.221
Mof_Dy	Dy	0.68952	0.17198	0.87646	1.883
Mof_C 	C 	0.3672	0.5395	0.1735	-0.168
Mof_C 	C 	0.3564	0.4573	0.1373	0.037
Mof_H 	H 	0.3201	0.446	0.0696	0.044
Mof_C 	C 	0.3976	0.3911	0.1975	-0.012
Mof_C 	C 	0.4521	0.4069	0.2966	0.181
Mof_C 	C 	0.4656	0.49	0.3325	-0.189
Mof_H 	H 	0.504	0.5019	0.3984	0.109
Mof_C 	C 	0.423	0.5554	0.2722	0.101
Mof_H 	H 	0.4317	0.6119	0.2979	0.011
Mof_C 	C 	0.4806	0.3102	0.4265	0.187
Mof_C 	C 	0.415	0.3106	0.4043	-0.105
Mof_H 	H 	0.3784	0.3348	0.3432	0.094
Mof_C 	C 	0.4028	0.2753	0.472	-0.079
Mof_C 	C 	0.4565	0.2406	0.5621	-0.008
Mof_H 	H 	0.4486	0.2183	0.6097	0.032
Mof_C 	C 	0.5223	0.2392	0.5816	-0.021
Mof_C 	C 	0.5338	0.2734	0.5126	-0.129
Mof_H 	H 	0.5782	0.2712	0.525	0.117
Mof_C 	C 	0.3203	0.6108	0.1093	0.48
Mof_C 	C 	0.3307	0.2742	0.4447	0.424
Mof_C 	C 	0.581	0.2038	0.6799	0.289
Mof_N 	N 	0.3823	0.3054	0.1552	0.011
Mof_O 	O 	0.3275	0.6797	0.1544	-0.483
Mof_O 	O 	0.2779	0.5958	0.0179	-0.521
Mof_O 	O 	0.3467	0.2995	0.063	-0.111
Mof_O 	O 	0.4051	0.2437	0.2112	-0.104
Mof_O 	O 	0.2857	0.3126	0.367	-0.467
Mof_O 	O 	0.3175	0.2342	0.5005	-0.563
Mof_O 	O 	0.5705	0.179	0.7453	-0.44
Mof_O 	O 	0.6395	0.201	0.6957	-0.381
Mof_O 	O 	0.4965	0.3439	0.3613	-0.221
Mof_Dy	Dy	0.18952	0.32802	0.37646	1.884
Mof_C 	C 	0.8672	0.9605	0.6735	-0.169
Mof_C 	C 	0.8564	0.0427	0.6373	0.037
Mof_H 	H 	0.8201	0.054	0.5696	0.044
Mof_C 	C 	0.8976	0.1089	0.6975	-0.013
Mof_C 	C 	0.9521	0.0931	0.7966	0.183
Mof_C 	C 	0.9656	0.01	0.8325	-0.192
Mof_H 	H 	0.004	0.9981	0.8984	0.11
Mof_C 	C 	0.923	0.9446	0.7722	0.104
Mof_H 	H 	0.9317	0.8881	0.7979	0.011
Mof_C 	C 	0.9806	0.1898	0.9265	0.185
Mof_C 	C 	0.915	0.1894	0.9043	-0.104
Mof_H 	H 	0.8784	0.1652	0.8432	0.094
Mof_C 	C 	0.9028	0.2247	0.972	-0.08
Mof_C 	C 	0.9565	0.2594	0.0621	-0.007
Mof_H 	H 	0.9486	0.2817	0.1097	0.032
Mof_C 	C 	0.0223	0.2608	0.0816	-0.022
Mof_C 	C 	0.0338	0.2266	0.0126	-0.128
Mof_H 	H 	0.0782	0.2288	0.025	0.116
Mof_C 	C 	0.8203	0.8892	0.6093	0.481
Mof_C 	C 	0.8307	0.2258	0.9447	0.423
Mof_C 	C 	0.081	0.2962	0.1799	0.289
Mof_N 	N 	0.8823	0.1946	0.6552	0.011
Mof_O 	O 	0.8275	0.8203	0.6544	-0.483
Mof_O 	O 	0.7779	0.9042	0.5179	-0.521
Mof_O 	O 	0.8467	0.2005	0.563	-0.111
Mof_O 	O 	0.9051	0.2563	0.7112	-0.104
Mof_O 	O 	0.7857	0.1874	0.867	-0.467
Mof_O 	O 	0.8175	0.2658	0.0005	-0.562
Mof_O 	O 	0.0705	0.321	0.2453	-0.44
Mof_O 	O 	0.1395	0.299	0.1957	-0.381
Mof_O 	O 	0.9965	0.1561	0.8613	-0.221
Mof_Dy	Dy	0.68952	0.82802	0.37646	1.884
Mof_C 	C 	0.3672	0.4605	0.6735	-0.168
Mof_C 	C 	0.3564	0.5427	0.6373	0.037
Mof_H 	H 	0.3201	0.554	0.5696	0.044
Mof_C 	C 	0.3976	0.6089	0.6975	-0.012
Mof_C 	C 	0.4521	0.5931	0.7966	0.181
Mof_C 	C 	0.4656	0.51	0.8325	-0.189
Mof_H 	H 	0.504	0.4981	0.8984	0.109
Mof_C 	C 	0.423	0.4446	0.7722	0.101
Mof_H 	H 	0.4317	0.3881	0.7979	0.011
Mof_C 	C 	0.4806	0.6898	0.9265	0.188
Mof_C 	C 	0.415	0.6894	0.9043	-0.106
Mof_H 	H 	0.3784	0.6652	0.8432	0.095
Mof_C 	C 	0.4028	0.7247	0.972	-0.077
Mof_C 	C 	0.4565	0.7594	0.0621	-0.01
Mof_H 	H 	0.4486	0.7817	0.1097	0.033
Mof_C 	C 	0.5223	0.7608	0.0816	-0.02
Mof_C 	C 	0.5338	0.7266	0.0126	-0.131
Mof_H 	H 	0.5782	0.7288	0.025	0.117
Mof_C 	C 	0.3203	0.3892	0.6093	0.48
Mof_C 	C 	0.3307	0.7258	0.9447	0.424
Mof_C 	C 	0.581	0.7962	0.1799	0.288
Mof_N 	N 	0.3823	0.6946	0.6552	0.011
Mof_O 	O 	0.3275	0.3203	0.6544	-0.483
Mof_O 	O 	0.2779	0.4042	0.5179	-0.521
Mof_O 	O 	0.3467	0.7005	0.563	-0.111
Mof_O 	O 	0.4051	0.7563	0.7112	-0.104
Mof_O 	O 	0.2857	0.6874	0.867	-0.467
Mof_O 	O 	0.3175	0.7658	0.0005	-0.563
Mof_O 	O 	0.5705	0.821	0.2453	-0.44
Mof_O 	O 	0.6395	0.799	0.1957	-0.381
Mof_O 	O 	0.4965	0.6561	0.8613	-0.221
Mof_Dy	Dy	0.81048	0.32802	0.12354	1.884
Mof_C 	C 	0.1328	0.9605	0.8265	-0.167
Mof_C 	C 	0.1436	0.0427	0.8627	0.035
Mof_H 	H 	0.1799	0.054	0.9304	0.044
Mof_C 	C 	0.1024	0.1089	0.8025	-0.012
Mof_C 	C 	0.0479	0.0931	0.7034	0.182
Mof_C 	C 	0.0344	0.01	0.6675	-0.191
Mof_H 	H 	0.996	0.9981	0.6016	0.11
Mof_C 	C 	0.077	0.9446	0.7278	0.102
Mof_H 	H 	0.0683	0.8881	0.7021	0.011
Mof_C 	C 	0.0194	0.1898	0.5735	0.186
Mof_C 	C 	0.085	0.1894	0.5957	-0.105
Mof_H 	H 	0.1216	0.1652	0.6568	0.094
Mof_C 	C 	0.0972	0.2247	0.528	-0.079
Mof_C 	C 	0.0435	0.2594	0.4379	-0.008
Mof_H 	H 	0.0514	0.2817	0.3903	0.032
Mof_C 	C 	0.9777	0.2608	0.4184	-0.021
Mof_C 	C 	0.9662	0.2266	0.4874	-0.129
Mof_H 	H 	0.9218	0.2288	0.475	0.117
Mof_C 	C 	0.1797	0.8892	0.8907	0.48
Mof_C 	C 	0.1693	0.2258	0.5553	0.424
Mof_C 	C 	0.919	0.2962	0.3201	0.289
Mof_N 	N 	0.1177	0.1946	0.8448	0.011
Mof_O 	O 	0.1725	0.8203	0.8456	-0.483
Mof_O 	O 	0.2221	0.9042	0.9821	-0.52
Mof_O 	O 	0.1533	0.2005	0.937	-0.112
Mof_O 	O 	0.0949	0.2563	0.7888	-0.104
Mof_O 	O 	0.2143	0.1874	0.633	-0.467
Mof_O 	O 	0.1825	0.2658	0.4995	-0.563
Mof_O 	O 	0.9295	0.321	0.2547	-0.44
Mof_O 	O 	0.8605	0.299	0.3043	-0.381
Mof_O 	O 	0.0035	0.1561	0.6387	-0.221
Mof_Dy	Dy	0.31048	0.82802	0.12354	1.883
Mof_C 	C 	0.6328	0.4605	0.8265	-0.168
Mof_C 	C 	0.6436	0.5427	0.8627	0.037
Mof_H 	H 	0.6799	0.554	0.9304	0.044
Mof_C 	C 	0.6024	0.6089	0.8025	-0.012
Mof_C 	C 	0.5479	0.5931	0.7034	0.181
Mof_C 	C 	0.5344	0.51	0.6675	-0.189
Mof_H 	H 	0.496	0.4981	0.6016	0.109
Mof_C 	C 	0.577	0.4446	0.7278	0.101
Mof_H 	H 	0.5683	0.3881	0.7021	0.011
Mof_C 	C 	0.5194	0.6898	0.5735	0.187
Mof_C 	C 	0.585	0.6894	0.5957	-0.105
Mof_H 	H 	0.6216	0.6652	0.6568	0.094
Mof_C 	C 	0.5972	0.7247	0.528	-0.079
Mof_C 	C 	0.5435	0.7594	0.4379	-0.008
Mof_H 	H 	0.5514	0.7817	0.3903	0.032
Mof_C 	C 	0.4777	0.7608	0.4184	-0.021
Mof_C 	C 	0.4662	0.7266	0.4874	-0.129
Mof_H 	H 	0.4218	0.7288	0.475	0.117
Mof_C 	C 	0.6797	0.3892	0.8907	0.48
Mof_C 	C 	0.6693	0.7258	0.5553	0.424
Mof_C 	C 	0.419	0.7962	0.3201	0.289
Mof_N 	N 	0.6177	0.6946	0.8448	0.011
Mof_O 	O 	0.6725	0.3203	0.8456	-0.483
Mof_O 	O 	0.7221	0.4042	0.9821	-0.521
Mof_O 	O 	0.6533	0.7005	0.937	-0.111
Mof_O 	O 	0.5949	0.7563	0.7888	-0.104
Mof_O 	O 	0.7143	0.6874	0.633	-0.467
Mof_O 	O 	0.6825	0.7658	0.4995	-0.563
Mof_O 	O 	0.4295	0.821	0.2547	-0.44
Mof_O 	O 	0.3605	0.799	0.3043	-0.381
Mof_O 	O 	0.5035	0.6561	0.6387	-0.221
_end
