data_functionalizedCrystal
_audit_creation_method	'EQeq! by Chris Wilmer'
_symmetry_space_group_name_H-M	'P1'
_symmetry_Int_Tables_number	1
_symmetry_cell_setting	triclinic
loop_
_symmetry_equiv_pos_as_xyz
  x,y,z
_cell_length_a	9.8139
_cell_length_b	23.6796
_cell_length_c	21.3151
_cell_angle_alpha	90
_cell_angle_beta	98.069
_cell_angle_gamma	90
loop_
_atom_site_label
_atom_site_type_symbol
_atom_site_fract_x
_atom_site_fract_y
_atom_site_fract_z
_atom_site_charge
Mof_Cu	Cu	0.46604	0.01485	0.89772	0.899
Mof_O 	O 	0.5994	0.96492	0.94648	-0.396
Mof_N 	N 	0.6711	0.01214	0.69721	-0.237
Mof_C 	C 	0.6177	0.9644	0.67	0.064
Mof_H 	H 	0.5776	0.9388	0.6949	-0.009
Mof_O 	O 	0.3127	0.96657	0.91142	-0.586
Mof_H 	H 	0.3156	0.9334	0.927	0.296
Mof_H 	H 	0.3624	0.9652	0.8819	0.127
Mof_Cu	Cu	0.62304	0.1365	0.91205	0.933
Mof_O 	O 	0.4751	0.90335	0.99447	-0.36
Mof_N 	N 	0.8781	0.71766	0.5556	-0.199
Mof_C 	C 	0.6191	0.9516	0.6073	-0.11
Mof_H 	H 	0.5809	0.9179	0.5906	0.101
Mof_Cu	Cu	0.65442	0.0348	0.78833	0.848
Mof_N 	N 	0.7531	0.00104	0.46602	-0.231
Mof_H 	H 	0.8081	0.026	0.4848	0.157
Mof_C 	C 	0.6775	0.9888	0.5691	0.03
Mof_O 	O 	0.6962	0.7122	0.9925	-0.113
Mof_N 	N 	0.8572	0.89604	0.422	-0.219
Mof_H 	H 	0.7971	0.8723	0.4047	0.133
Mof_C 	C 	0.731	0.0383	0.5965	-0.111
Mof_H 	H 	0.7693	0.0651	0.5723	0.088
Mof_O 	O 	0.9113	0.70552	0.0265	-0.105
Mof_O 	O 	0.1985	0.86812	0.03859	-0.38
Mof_N 	N 	0.8081	0.73297	0.0088	-0.013
Mof_C 	C 	0.7274	0.0477	0.6596	0.071
Mof_H 	H 	0.7665	0.0808	0.6774	0.008
Mof_O 	O 	0.1143	0.95427	0.04956	-0.248
Mof_N 	N 	0.1043	0.30656	0.8281	-0.006
Mof_C 	C 	0.6687	0.9738	0.4998	0.208
Mof_O 	O 	0.3259	0.06901	0.86252	-0.416
Mof_C 	C 	0.756	0.9903	0.3985	0.097
Mof_H 	H 	0.6685	0.9729	0.3807	0.018
Mof_O 	O 	0.442	0.1511	0.86674	-0.412
Mof_C 	C 	0.7722	0.0456	0.3636	-0.254
Mof_H 	H 	0.6945	0.07	0.3677	0.132
Mof_H 	H 	0.8552	0.0646	0.3828	0.129
Mof_C 	C 	0.7803	0.0354	0.2936	0.036
Mof_H 	H 	0.6939	0.0197	0.2734	-0.007
Mof_H 	H 	0.7949	0.0711	0.2732	0.022
Mof_O 	O 	0.2196	0.32679	0.8309	-0.131
Mof_O 	O 	0.9998	0.33446	0.8239	-0.132
Mof_C 	C 	0.8967	0.9952	0.2852	-0.155
Mof_H 	H 	0.9839	0.0124	0.3019	0.081
Mof_H 	H 	0.8971	0.9881	0.2404	0.08
Mof_O 	O 	0.7128	0.16408	0.81275	-0.332
Mof_C 	C 	0.8805	0.9394	0.3193	-0.105
Mof_H 	H 	0.7973	0.9205	0.3	0.058
Mof_H 	H 	0.9581	0.915	0.315	0.069
Mof_O 	O 	0.8145	0.08303	0.79305	-0.403
Mof_C 	C 	0.8729	0.94958	0.3894	0.014
Mof_H 	H 	0.9598	0.9668	0.4083	0.049
Mof_C 	C 	0.9314	0.8824	0.4769	0.217
Mof_C 	C 	0.9019	0.82547	0.5048	0.018
Mof_C 	C 	0.9477	0.8139	0.5673	-0.089
Mof_H 	H 	0.9888	0.8421	0.5939	0.083
Mof_C 	C 	0.9324	0.7604	0.5902	0.077
Mof_H 	H 	0.9623	0.7538	0.6329	0.019
Mof_C 	C 	0.8282	0.7291	0.4955	0.063
Mof_H 	H 	0.7857	0.7001	0.4705	0.019
Mof_C 	C 	0.8362	0.7818	0.4684	-0.088
Mof_H 	H 	0.7984	0.7881	0.4264	0.064
Mof_O 	O 	0.586	0.93767	0.47728	-0.213
Mof_C 	C 	0.5841	0.92	0.9767	0.314
Mof_O 	O 	0.0225	0.91171	0.50511	-0.236
Mof_C 	C 	0.7128	0.88506	0.9922	-0.039
Mof_O 	O 	0.6258	0.05804	0.87875	-0.51
Mof_C 	C 	0.8421	0.91037	0.0022	-0.033
Mof_H 	H 	0.8497	0.9494	0.9988	0.089
Mof_C 	C 	0.9602	0.87763	0.0171	-0.025
Mof_C 	C 	0.9482	0.8192	0.0179	-0.091
Mof_H 	H 	0.0264	0.7966	0.0255	0.096
Mof_C 	C 	0.8202	0.795	0.0072	0.109
Mof_C 	C 	0.7013	0.82654	0.9958	-0.086
Mof_H 	H 	0.6155	0.8092	0.9905	0.084
Mof_C 	C 	0.1009	0.9039	0.0361	0.32
Mof_C 	C 	0.3339	0.1217	0.8569	0.344
Mof_C 	C 	0.2036	0.15494	0.8389	-0.052
Mof_C 	C 	0.2117	0.21338	0.8375	-0.073
Mof_H 	H 	0.297	0.2312	0.8432	0.092
Mof_C 	C 	0.0924	0.24474	0.8277	0.106
Mof_C 	C 	0.9646	0.22028	0.819	-0.081
Mof_H 	H 	0.8855	0.2423	0.814	0.091
Mof_C 	C 	0.9563	0.16202	0.8179	-0.042
Mof_C 	C 	0.0753	0.12946	0.8277	-0.012
Mof_H 	H 	0.0688	0.0903	0.8267	0.059
Mof_C 	C 	0.8158	0.1348	0.8069	0.32
Mof_Cu	Cu	0.03396	0.51485	0.60228	0.901
Mof_O 	O 	0.9006	0.46492	0.55352	-0.396
Mof_N 	N 	0.8289	0.51214	0.80279	-0.235
Mof_C 	C 	0.8823	0.4644	0.83	0.064
Mof_H 	H 	0.9224	0.4388	0.8051	-0.007
Mof_O 	O 	0.1873	0.46657	0.58858	-0.585
Mof_H 	H 	0.1844	0.4334	0.573	0.296
Mof_H 	H 	0.1376	0.4652	0.6181	0.127
Mof_Cu	Cu	0.87696	0.6365	0.58795	0.933
Mof_O 	O 	0.0249	0.40335	0.50553	-0.361
Mof_N 	N 	0.6219	0.21766	0.9444	-0.199
Mof_C 	C 	0.8809	0.4516	0.8927	-0.11
Mof_H 	H 	0.9191	0.4179	0.9094	0.101
Mof_Cu	Cu	0.84558	0.5348	0.71167	0.848
Mof_N 	N 	0.7469	0.50104	0.03398	-0.231
Mof_H 	H 	0.6919	0.526	0.0152	0.157
Mof_C 	C 	0.8225	0.4888	0.9309	0.03
Mof_O 	O 	0.8038	0.2122	0.5075	-0.113
Mof_N 	N 	0.6428	0.39604	0.078	-0.22
Mof_H 	H 	0.7029	0.3723	0.0953	0.133
Mof_C 	C 	0.769	0.5383	0.9035	-0.11
Mof_H 	H 	0.7307	0.5651	0.9277	0.088
Mof_O 	O 	0.5887	0.20552	0.4735	-0.104
Mof_O 	O 	0.3015	0.36812	0.46141	-0.38
Mof_N 	N 	0.6919	0.23297	0.4912	-0.012
Mof_C 	C 	0.7726	0.5477	0.8404	0.07
Mof_H 	H 	0.7335	0.5808	0.8226	0.008
Mof_O 	O 	0.3857	0.45427	0.45044	-0.247
Mof_N 	N 	0.3957	0.80656	0.6719	-0.006
Mof_C 	C 	0.8313	0.4738	0.0002	0.208
Mof_O 	O 	0.1741	0.56901	0.63748	-0.415
Mof_C 	C 	0.744	0.4903	0.1015	0.096
Mof_H 	H 	0.8315	0.4729	0.1193	0.019
Mof_O 	O 	0.058	0.6511	0.63326	-0.412
Mof_C 	C 	0.7278	0.5456	0.1364	-0.251
Mof_H 	H 	0.8055	0.57	0.1323	0.131
Mof_H 	H 	0.6448	0.5646	0.1172	0.128
Mof_C 	C 	0.7197	0.5354	0.2064	0.029
Mof_H 	H 	0.8061	0.5197	0.2266	-0.005
Mof_H 	H 	0.7051	0.5711	0.2268	0.024
Mof_O 	O 	0.2804	0.82679	0.6691	-0.131
Mof_O 	O 	0.5002	0.83446	0.6761	-0.132
Mof_C 	C 	0.6033	0.4952	0.2148	-0.146
Mof_H 	H 	0.5161	0.5124	0.1981	0.077
Mof_H 	H 	0.6029	0.4881	0.2596	0.077
Mof_O 	O 	0.7872	0.66408	0.68725	-0.332
Mof_C 	C 	0.6195	0.4394	0.1807	-0.11
Mof_H 	H 	0.7027	0.4205	0.2	0.06
Mof_H 	H 	0.5419	0.415	0.185	0.071
Mof_O 	O 	0.6855	0.58303	0.70695	-0.403
Mof_C 	C 	0.6271	0.44958	0.1106	0.016
Mof_H 	H 	0.5402	0.4668	0.0917	0.049
Mof_C 	C 	0.5686	0.3824	0.0231	0.219
Mof_C 	C 	0.5981	0.32547	0.9952	0.015
Mof_C 	C 	0.5523	0.3139	0.9327	-0.088
Mof_H 	H 	0.5112	0.3421	0.9061	0.083
Mof_C 	C 	0.5676	0.2604	0.9098	0.076
Mof_H 	H 	0.5377	0.2538	0.8671	0.019
Mof_C 	C 	0.6718	0.2291	0.0045	0.063
Mof_H 	H 	0.7143	0.2001	0.0295	0.019
Mof_C 	C 	0.6638	0.2818	0.0316	-0.086
Mof_H 	H 	0.7016	0.2881	0.0736	0.064
Mof_O 	O 	0.914	0.43767	0.02272	-0.213
Mof_C 	C 	0.9159	0.42	0.5233	0.316
Mof_O 	O 	0.4775	0.41171	0.99489	-0.238
Mof_C 	C 	0.7872	0.38506	0.5078	-0.043
Mof_O 	O 	0.8742	0.55804	0.62125	-0.509
Mof_C 	C 	0.6579	0.41037	0.4978	-0.026
Mof_H 	H 	0.6503	0.4494	0.5012	0.085
Mof_C 	C 	0.5398	0.37763	0.4829	-0.027
Mof_C 	C 	0.5518	0.3192	0.4821	-0.088
Mof_H 	H 	0.4736	0.2966	0.4745	0.095
Mof_C 	C 	0.6798	0.295	0.4928	0.109
Mof_C 	C 	0.7987	0.32654	0.5042	-0.086
Mof_H 	H 	0.8845	0.3092	0.5095	0.084
Mof_C 	C 	0.3991	0.4039	0.4639	0.321
Mof_C 	C 	0.1661	0.6217	0.6431	0.344
Mof_C 	C 	0.2964	0.65494	0.6611	-0.051
Mof_C 	C 	0.2883	0.71338	0.6625	-0.073
Mof_H 	H 	0.203	0.7312	0.6568	0.092
Mof_C 	C 	0.4076	0.74474	0.6723	0.107
Mof_C 	C 	0.5354	0.72028	0.681	-0.082
Mof_H 	H 	0.6145	0.7423	0.686	0.092
Mof_C 	C 	0.5437	0.66202	0.6821	-0.043
Mof_C 	C 	0.4247	0.62946	0.6723	-0.012
Mof_H 	H 	0.4312	0.5903	0.6733	0.059
Mof_C 	C 	0.6842	0.6348	0.6931	0.32
Mof_Cu	Cu	0.53396	0.98515	0.10228	0.9
Mof_O 	O 	0.4006	0.03508	0.05352	-0.395
Mof_N 	N 	0.3289	0.98786	0.30279	-0.236
Mof_C 	C 	0.3823	0.0356	0.33	0.065
Mof_H 	H 	0.4224	0.0612	0.3051	-0.008
Mof_O 	O 	0.6873	0.03343	0.08858	-0.585
Mof_H 	H 	0.6844	0.0666	0.073	0.296
Mof_H 	H 	0.6376	0.0348	0.1181	0.127
Mof_Cu	Cu	0.37696	0.8635	0.08795	0.933
Mof_O 	O 	0.5249	0.09665	0.00553	-0.36
Mof_N 	N 	0.1219	0.28234	0.4444	-0.199
Mof_C 	C 	0.3809	0.0484	0.3927	-0.11
Mof_H 	H 	0.4191	0.0821	0.4094	0.101
Mof_Cu	Cu	0.34558	0.9652	0.21167	0.848
Mof_N 	N 	0.2469	0.99896	0.53398	-0.231
Mof_H 	H 	0.1919	0.974	0.5152	0.157
Mof_C 	C 	0.3225	0.0112	0.4309	0.03
Mof_O 	O 	0.3038	0.2878	0.0075	-0.113
Mof_N 	N 	0.1428	0.10396	0.578	-0.219
Mof_H 	H 	0.2029	0.1277	0.5953	0.133
Mof_C 	C 	0.269	0.9617	0.4035	-0.111
Mof_H 	H 	0.2307	0.9349	0.4277	0.088
Mof_O 	O 	0.0887	0.29448	0.9735	-0.105
Mof_O 	O 	0.8015	0.13188	0.96141	-0.38
Mof_N 	N 	0.1919	0.26703	0.9912	-0.013
Mof_C 	C 	0.2726	0.9523	0.3404	0.071
Mof_H 	H 	0.2335	0.9192	0.3226	0.008
Mof_O 	O 	0.8857	0.04573	0.95044	-0.248
Mof_N 	N 	0.8957	0.69344	0.1719	-0.006
Mof_C 	C 	0.3313	0.0262	0.5002	0.208
Mof_O 	O 	0.6741	0.93099	0.13748	-0.416
Mof_C 	C 	0.244	0.0097	0.6015	0.097
Mof_H 	H 	0.3315	0.0271	0.6193	0.018
Mof_O 	O 	0.558	0.8489	0.13326	-0.412
Mof_C 	C 	0.2278	0.9544	0.6364	-0.254
Mof_H 	H 	0.3055	0.93	0.6323	0.132
Mof_H 	H 	0.1448	0.9354	0.6172	0.129
Mof_C 	C 	0.2197	0.9646	0.7064	0.036
Mof_H 	H 	0.3061	0.9803	0.7266	-0.007
Mof_H 	H 	0.2051	0.9289	0.7268	0.022
Mof_O 	O 	0.7804	0.67321	0.1691	-0.131
Mof_O 	O 	0.0002	0.66554	0.1761	-0.132
Mof_C 	C 	0.1033	0.0048	0.7148	-0.155
Mof_H 	H 	0.0161	0.9876	0.6981	0.081
Mof_H 	H 	0.1029	0.0119	0.7596	0.08
Mof_O 	O 	0.2872	0.83592	0.18725	-0.332
Mof_C 	C 	0.1195	0.0606	0.6807	-0.105
Mof_H 	H 	0.2027	0.0795	0.7	0.058
Mof_H 	H 	0.0419	0.085	0.685	0.069
Mof_O 	O 	0.1855	0.91697	0.20695	-0.403
Mof_C 	C 	0.1271	0.05042	0.6106	0.014
Mof_H 	H 	0.0402	0.0332	0.5917	0.049
Mof_C 	C 	0.0686	0.1176	0.5231	0.217
Mof_C 	C 	0.0981	0.17453	0.4952	0.018
Mof_C 	C 	0.0523	0.1861	0.4327	-0.089
Mof_H 	H 	0.0112	0.1579	0.4061	0.083
Mof_C 	C 	0.0676	0.2396	0.4098	0.077
Mof_H 	H 	0.0377	0.2462	0.3671	0.019
Mof_C 	C 	0.1718	0.2709	0.5045	0.063
Mof_H 	H 	0.2143	0.2999	0.5295	0.019
Mof_C 	C 	0.1638	0.2182	0.5316	-0.088
Mof_H 	H 	0.2016	0.2119	0.5736	0.064
Mof_O 	O 	0.414	0.06233	0.52272	-0.213
Mof_C 	C 	0.4159	0.08	0.0233	0.314
Mof_O 	O 	0.9775	0.08829	0.49489	-0.236
Mof_C 	C 	0.2872	0.11494	0.0078	-0.039
Mof_O 	O 	0.3742	0.94196	0.12125	-0.51
Mof_C 	C 	0.1579	0.08963	0.9978	-0.033
Mof_H 	H 	0.1503	0.0506	0.0012	0.089
Mof_C 	C 	0.0398	0.12237	0.9829	-0.025
Mof_C 	C 	0.0518	0.1808	0.9821	-0.091
Mof_H 	H 	0.9736	0.2034	0.9745	0.096
Mof_C 	C 	0.1798	0.205	0.9928	0.109
Mof_C 	C 	0.2987	0.17346	0.0042	-0.086
Mof_H 	H 	0.3845	0.1908	0.0095	0.084
Mof_C 	C 	0.8991	0.0961	0.9639	0.32
Mof_C 	C 	0.6661	0.8783	0.1431	0.344
Mof_C 	C 	0.7964	0.84506	0.1611	-0.052
Mof_C 	C 	0.7883	0.78662	0.1625	-0.073
Mof_H 	H 	0.703	0.7688	0.1568	0.092
Mof_C 	C 	0.9076	0.75526	0.1723	0.106
Mof_C 	C 	0.0354	0.77972	0.181	-0.081
Mof_H 	H 	0.1145	0.7577	0.186	0.091
Mof_C 	C 	0.0437	0.83798	0.1821	-0.042
Mof_C 	C 	0.9247	0.87054	0.1723	-0.012
Mof_H 	H 	0.9312	0.9097	0.1733	0.059
Mof_C 	C 	0.1842	0.8652	0.1931	0.32
Mof_Cu	Cu	0.96604	0.48515	0.39772	0.901
Mof_O 	O 	0.0994	0.53508	0.44648	-0.396
Mof_N 	N 	0.1711	0.48786	0.19721	-0.235
Mof_C 	C 	0.1177	0.5356	0.17	0.064
Mof_H 	H 	0.0776	0.5612	0.1949	-0.007
Mof_O 	O 	0.8127	0.53343	0.41142	-0.585
Mof_H 	H 	0.8156	0.5666	0.427	0.296
Mof_H 	H 	0.8624	0.5348	0.3819	0.127
Mof_Cu	Cu	0.12304	0.3635	0.41205	0.933
Mof_O 	O 	0.9751	0.59665	0.49447	-0.361
Mof_N 	N 	0.3781	0.78234	0.0556	-0.199
Mof_C 	C 	0.1191	0.5484	0.1073	-0.11
Mof_H 	H 	0.0809	0.5821	0.0906	0.101
Mof_Cu	Cu	0.15442	0.4652	0.28833	0.848
Mof_N 	N 	0.2531	0.49896	0.96602	-0.231
Mof_H 	H 	0.3081	0.474	0.9848	0.157
Mof_C 	C 	0.1775	0.5112	0.0691	0.03
Mof_O 	O 	0.1962	0.7878	0.4925	-0.113
Mof_N 	N 	0.3572	0.60396	0.922	-0.22
Mof_H 	H 	0.2971	0.6277	0.9047	0.133
Mof_C 	C 	0.231	0.4617	0.0965	-0.11
Mof_H 	H 	0.2693	0.4349	0.0723	0.088
Mof_O 	O 	0.4113	0.79448	0.5265	-0.104
Mof_O 	O 	0.6985	0.63188	0.53859	-0.38
Mof_N 	N 	0.3081	0.76703	0.5088	-0.012
Mof_C 	C 	0.2274	0.4523	0.1596	0.07
Mof_H 	H 	0.2665	0.4192	0.1774	0.008
Mof_O 	O 	0.6143	0.54573	0.54956	-0.247
Mof_N 	N 	0.6043	0.19344	0.3281	-0.006
Mof_C 	C 	0.1687	0.5262	0.9998	0.208
Mof_O 	O 	0.8259	0.43099	0.36252	-0.415
Mof_C 	C 	0.256	0.5097	0.8985	0.096
Mof_H 	H 	0.1685	0.5271	0.8807	0.019
Mof_O 	O 	0.942	0.3489	0.36674	-0.412
Mof_C 	C 	0.2722	0.4544	0.8636	-0.251
Mof_H 	H 	0.1945	0.43	0.8677	0.131
Mof_H 	H 	0.3552	0.4354	0.8828	0.128
Mof_C 	C 	0.2803	0.4646	0.7936	0.029
Mof_H 	H 	0.1939	0.4803	0.7734	-0.005
Mof_H 	H 	0.2949	0.4289	0.7732	0.024
Mof_O 	O 	0.7196	0.17321	0.3309	-0.131
Mof_O 	O 	0.4998	0.16554	0.3239	-0.132
Mof_C 	C 	0.3967	0.5048	0.7852	-0.146
Mof_H 	H 	0.4839	0.4876	0.8019	0.077
Mof_H 	H 	0.3971	0.5119	0.7404	0.077
Mof_O 	O 	0.2128	0.33592	0.31275	-0.332
Mof_C 	C 	0.3805	0.5606	0.8193	-0.11
Mof_H 	H 	0.2973	0.5795	0.8	0.06
Mof_H 	H 	0.4581	0.585	0.815	0.071
Mof_O 	O 	0.3145	0.41697	0.29305	-0.403
Mof_C 	C 	0.3729	0.55042	0.8894	0.016
Mof_H 	H 	0.4598	0.5332	0.9083	0.049
Mof_C 	C 	0.4314	0.6176	0.9769	0.219
Mof_C 	C 	0.4019	0.67453	0.0048	0.015
Mof_C 	C 	0.4477	0.6861	0.0673	-0.088
Mof_H 	H 	0.4888	0.6579	0.0939	0.083
Mof_C 	C 	0.4324	0.7396	0.0902	0.076
Mof_H 	H 	0.4623	0.7462	0.1329	0.019
Mof_C 	C 	0.3282	0.7709	0.9955	0.063
Mof_H 	H 	0.2857	0.7999	0.9705	0.019
Mof_C 	C 	0.3362	0.7182	0.9684	-0.086
Mof_H 	H 	0.2984	0.7119	0.9264	0.064
Mof_O 	O 	0.086	0.56233	0.97728	-0.213
Mof_C 	C 	0.0841	0.58	0.4767	0.316
Mof_O 	O 	0.5225	0.58829	0.00511	-0.238
Mof_C 	C 	0.2128	0.61494	0.4922	-0.043
Mof_O 	O 	0.1258	0.44196	0.37875	-0.509
Mof_C 	C 	0.3421	0.58963	0.5022	-0.026
Mof_H 	H 	0.3497	0.5506	0.4988	0.085
Mof_C 	C 	0.4602	0.62237	0.5171	-0.027
Mof_C 	C 	0.4482	0.6808	0.5179	-0.088
Mof_H 	H 	0.5264	0.7034	0.5255	0.095
Mof_C 	C 	0.3202	0.705	0.5072	0.109
Mof_C 	C 	0.2013	0.67346	0.4958	-0.086
Mof_H 	H 	0.1155	0.6908	0.4905	0.084
Mof_C 	C 	0.6009	0.5961	0.5361	0.321
Mof_C 	C 	0.8339	0.3783	0.3569	0.344
Mof_C 	C 	0.7036	0.34506	0.3389	-0.051
Mof_C 	C 	0.7117	0.28662	0.3375	-0.073
Mof_H 	H 	0.797	0.2688	0.3432	0.092
Mof_C 	C 	0.5924	0.25526	0.3277	0.107
Mof_C 	C 	0.4646	0.27972	0.319	-0.082
Mof_H 	H 	0.3855	0.2577	0.314	0.092
Mof_C 	C 	0.4563	0.33798	0.3179	-0.043
Mof_C 	C 	0.5753	0.37054	0.3277	-0.012
Mof_H 	H 	0.5688	0.4097	0.3267	0.059
Mof_C 	C 	0.3158	0.3652	0.3069	0.32
_end
