# CIF file generated by openbabel 3.1.0, see https://openbabel.org
data_I
_chemical_name_common 'MUDLON_clean'
_cell_length_a 15.7272
_cell_length_b 23.555
_cell_length_c 23.555
_cell_angle_alpha 64.5617
_cell_angle_beta 70.498
_cell_angle_gamma 70.498
_space_group_name_H-M_alt 'P 1'
_space_group_name_Hall 'P 1'
loop_
    _symmetry_equiv_pos_as_xyz
    x,y,z
loop_
    _atom_site_label
    _atom_site_type_symbol
    _atom_site_fract_x
    _atom_site_fract_y
    _atom_site_fract_z
    _atom_site_occupancy
    Mg1      Mg       0.16901    0.49487    0.49487    1.000
    Mg2      Mg       0.65875    0.00513    0.00513    1.000
    H1       H        0.94230    0.64380    0.24660    1.000
    H2       H        0.00410    0.59830    0.33630    1.000
    H3       H        0.24130    0.52330    0.23670    1.000
    H4       H        0.17820    0.56860    0.14660    1.000
    H5       H        0.04980    0.73470    0.13670    1.000
    H6       H        0.96310    0.84090    0.11670    1.000
    H7       H        0.79460    0.80170    0.04990    1.000
    H8       H        0.87510    0.69540    0.07660    1.000
    H9       H        0.02280    0.51780    0.16220    1.000
    H10      H        0.06420    0.45900    0.09760    1.000
    H11      H        0.10780    0.61230    0.94230    1.000
    H12      H        0.06730    0.67500    0.00740    1.000
    H13      H        0.33270    0.85620    0.25340    1.000
    H14      H        0.43870    0.90170    0.16370    1.000
    H15      H        0.50130    0.97670    0.26330    1.000
    H16      H        0.39340    0.93140    0.35340    1.000
    H17      H        0.42120    0.76530    0.36330    1.000
    H18      H        0.42070    0.65910    0.38330    1.000
    H19      H        0.14620    0.69830    0.45010    1.000
    H20      H        0.14710    0.80460    0.42340    1.000
    H21      H        0.20280    0.98220    0.33780    1.000
    H22      H        0.12080    0.04100    0.40240    1.000
    H23      H        0.16240    0.88770    0.55770    1.000
    H24      H        0.24970    0.82500    0.49260    1.000
    H25      H        0.33270    0.25340    0.85620    1.000
    H26      H        0.43870    0.16370    0.90170    1.000
    H27      H        0.50130    0.26330    0.97670    1.000
    H28      H        0.39340    0.35340    0.93140    1.000
    H29      H        0.42120    0.36330    0.76530    1.000
    H30      H        0.42070    0.38330    0.65910    1.000
    H31      H        0.14620    0.45010    0.69830    1.000
    H32      H        0.14710    0.42340    0.80460    1.000
    H33      H        0.20280    0.33780    0.98220    1.000
    H34      H        0.12080    0.40240    0.04100    1.000
    H35      H        0.16240    0.55770    0.88770    1.000
    H36      H        0.24970    0.49260    0.82500    1.000
    H37      H        0.94230    0.24660    0.64380    1.000
    H38      H        0.00410    0.33630    0.59830    1.000
    H39      H        0.24130    0.23670    0.52330    1.000
    H40      H        0.17820    0.14660    0.56860    1.000
    H41      H        0.04980    0.13670    0.73470    1.000
    H42      H        0.96310    0.11670    0.84090    1.000
    H43      H        0.79460    0.04990    0.80170    1.000
    H44      H        0.87510    0.07660    0.69540    1.000
    H45      H        0.02280    0.16220    0.51780    1.000
    H46      H        0.06420    0.09760    0.45900    1.000
    H47      H        0.10780    0.94230    0.61230    1.000
    H48      H        0.06730    0.00740    0.67500    1.000
    C1       C        0.05386    0.61049    0.18819    1.000
    C2       C        0.00257    0.61919    0.24447    1.000
    C3       C        0.04000    0.59157    0.29843    1.000
    C4       C        0.12748    0.55502    0.29762    1.000
    C5       C        0.18057    0.54713    0.23913    1.000
    C6       C        0.14293    0.57457    0.18497    1.000
    C7       C        0.17409    0.52421    0.35221    1.000
    C8       C        0.96479    0.70491    0.11411    1.000
    C9       C        0.99596    0.74784    0.12184    1.000
    C10      C        0.94595    0.81225    0.10725    1.000
    C11      C        0.87143    0.83341    0.07893    1.000
    C12      C        0.84504    0.78847    0.06845    1.000
    C13      C        0.89230    0.72460    0.08500    1.000
    C14      C        0.81587    0.90193    0.05853    1.000
    C15      C        0.03895    0.60205    0.09245    1.000
    C16      C        0.04049    0.53781    0.11781    1.000
    C17      C        0.06763    0.50217    0.07877    1.000
    C18      C        0.10018    0.52812    0.01212    1.000
    C19      C        0.09390    0.59230    0.98690    1.000
    C20      C        0.06660    0.63130    0.02610    1.000
    C21      C        0.35254    0.88951    0.31181    1.000
    C22      C        0.36623    0.88081    0.25553    1.000
    C23      C        0.43000    0.90843    0.20157    1.000
    C24      C        0.48012    0.94498    0.20238    1.000
    C25      C        0.46683    0.95287    0.26087    1.000
    C26      C        0.40247    0.92543    0.31503    1.000
    C27      C        0.55051    0.97579    0.14779    1.000
    C28      C        0.28381    0.79509    0.38589    1.000
    C29      C        0.36564    0.75216    0.37816    1.000
    C30      C        0.36545    0.68775    0.39275    1.000
    C31      C        0.28377    0.66659    0.42107    1.000
    C32      C        0.20196    0.71153    0.43155    1.000
    C33      C        0.20190    0.77540    0.41500    1.000
    C34      C        0.27633    0.59807    0.44147    1.000
    C35      C        0.23345    0.89795    0.40755    1.000
    C36      C        0.19611    0.96219    0.38219    1.000
    C37      C        0.14857    0.99783    0.42123    1.000
    C38      C        0.14042    0.97188    0.48788    1.000
    C39      C        0.17310    0.90770    0.51310    1.000
    C40      C        0.22400    0.86870    0.47390    1.000
    C41      C        0.35254    0.31181    0.88951    1.000
    C42      C        0.36623    0.25553    0.88081    1.000
    C43      C        0.43000    0.20157    0.90843    1.000
    C44      C        0.48012    0.20238    0.94498    1.000
    C45      C        0.46683    0.26087    0.95287    1.000
    C46      C        0.40247    0.31503    0.92543    1.000
    C47      C        0.55051    0.14779    0.97579    1.000
    C48      C        0.28381    0.38589    0.79509    1.000
    C49      C        0.36564    0.37816    0.75216    1.000
    C50      C        0.36545    0.39275    0.68775    1.000
    C51      C        0.28377    0.42107    0.66659    1.000
    C52      C        0.20196    0.43155    0.71153    1.000
    C53      C        0.20190    0.41500    0.77540    1.000
    C54      C        0.27633    0.44147    0.59807    1.000
    C55      C        0.23345    0.40755    0.89795    1.000
    C56      C        0.19611    0.38219    0.96219    1.000
    C57      C        0.14857    0.42123    0.99783    1.000
    C58      C        0.14042    0.48788    0.97188    1.000
    C59      C        0.17310    0.51310    0.90770    1.000
    C60      C        0.22400    0.47390    0.86870    1.000
    C61      C        0.05386    0.18819    0.61049    1.000
    C62      C        0.00257    0.24447    0.61919    1.000
    C63      C        0.04000    0.29843    0.59157    1.000
    C64      C        0.12748    0.29762    0.55502    1.000
    C65      C        0.18057    0.23913    0.54713    1.000
    C66      C        0.14293    0.18497    0.57457    1.000
    C67      C        0.17409    0.35221    0.52421    1.000
    C68      C        0.96479    0.11411    0.70491    1.000
    C69      C        0.99596    0.12184    0.74784    1.000
    C70      C        0.94595    0.10725    0.81225    1.000
    C71      C        0.87143    0.07893    0.83341    1.000
    C72      C        0.84504    0.06845    0.78847    1.000
    C73      C        0.89230    0.08500    0.72460    1.000
    C74      C        0.81587    0.05853    0.90193    1.000
    C75      C        0.03895    0.09245    0.60205    1.000
    C76      C        0.04049    0.11781    0.53781    1.000
    C77      C        0.06763    0.07877    0.50217    1.000
    C78      C        0.10018    0.01212    0.52812    1.000
    C79      C        0.09390    0.98690    0.59230    1.000
    C80      C        0.06660    0.02610    0.63130    1.000
    N1       N        0.01603    0.63917    0.13197    1.000
    N2       N        0.28717    0.86083    0.36803    1.000
    N3       N        0.28717    0.36803    0.86083    1.000
    N4       N        0.01603    0.13197    0.63917    1.000
    O1       O        0.74844    0.91855    0.03757    1.000
    O2       O        0.85398    0.93920    0.06624    1.000
    O3       O        0.12420    0.52598    0.40762    1.000
    O4       O        0.25866    0.50004    0.34184    1.000
    O5       O        0.20456    0.58145    0.46243    1.000
    O6       O        0.35942    0.56080    0.43376    1.000
    O7       O        0.55780    0.97402    0.09238    1.000
    O8       O        0.60054    0.99996    0.15816    1.000
    O9       O        0.20456    0.46243    0.58145    1.000
    O10      O        0.35942    0.43376    0.56080    1.000
    O11      O        0.55780    0.09238    0.97402    1.000
    O12      O        0.60054    0.15816    0.99996    1.000
    O13      O        0.74844    0.03757    0.91855    1.000
    O14      O        0.85398    0.06624    0.93920    1.000
    O15      O        0.12420    0.40762    0.52598    1.000
    O16      O        0.25866    0.34184    0.50004    1.000
    Mg3      Mg       0.34125    0.99487    0.99487    1.000
    Mg4      Mg       0.83099    0.50513    0.50513    1.000
    H49      H        0.66730    0.74660    0.14380    1.000
    H50      H        0.56130    0.83630    0.09830    1.000
    H51      H        0.49870    0.73670    0.02330    1.000
    H52      H        0.60660    0.64660    0.06860    1.000
    H53      H        0.57880    0.63670    0.23470    1.000
    H54      H        0.57930    0.61670    0.34090    1.000
    H55      H        0.85380    0.54990    0.30170    1.000
    H56      H        0.85290    0.57660    0.19540    1.000
    H57      H        0.79720    0.66220    0.01780    1.000
    H58      H        0.87920    0.59760    0.95900    1.000
    H59      H        0.83760    0.44230    0.11230    1.000
    H60      H        0.75030    0.50740    0.17500    1.000
    H61      H        0.05770    0.75340    0.35620    1.000
    H62      H        0.99590    0.66370    0.40170    1.000
    H63      H        0.75870    0.76330    0.47670    1.000
    H64      H        0.82180    0.85340    0.43140    1.000
    H65      H        0.95020    0.86330    0.26530    1.000
    H66      H        0.03690    0.88330    0.15910    1.000
    H67      H        0.20540    0.95010    0.19830    1.000
    H68      H        0.12490    0.92340    0.30460    1.000
    H69      H        0.97720    0.83780    0.48220    1.000
    H70      H        0.93580    0.90240    0.54100    1.000
    H71      H        0.89220    0.05770    0.38770    1.000
    H72      H        0.93270    0.99260    0.32500    1.000
    H73      H        0.05770    0.35620    0.75340    1.000
    H74      H        0.99590    0.40170    0.66370    1.000
    H75      H        0.75870    0.47670    0.76330    1.000
    H76      H        0.82180    0.43140    0.85340    1.000
    H77      H        0.95020    0.26530    0.86330    1.000
    H78      H        0.03690    0.15910    0.88330    1.000
    H79      H        0.20540    0.19830    0.95010    1.000
    H80      H        0.12490    0.30460    0.92340    1.000
    H81      H        0.97720    0.48220    0.83780    1.000
    H82      H        0.93580    0.54100    0.90240    1.000
    H83      H        0.89220    0.38770    0.05770    1.000
    H84      H        0.93270    0.32500    0.99260    1.000
    H85      H        0.66730    0.14380    0.74660    1.000
    H86      H        0.56130    0.09830    0.83630    1.000
    H87      H        0.49870    0.02330    0.73670    1.000
    H88      H        0.60660    0.06860    0.64660    1.000
    H89      H        0.57880    0.23470    0.63670    1.000
    H90      H        0.57930    0.34090    0.61670    1.000
    H91      H        0.85380    0.30170    0.54990    1.000
    H92      H        0.85290    0.19540    0.57660    1.000
    H93      H        0.79720    0.01780    0.66220    1.000
    H94      H        0.87920    0.95900    0.59760    1.000
    H95      H        0.83760    0.11230    0.44230    1.000
    H96      H        0.75030    0.17500    0.50740    1.000
    C81      C        0.64746    0.68819    0.11049    1.000
    C82      C        0.63377    0.74447    0.11919    1.000
    C83      C        0.57000    0.79843    0.09157    1.000
    C84      C        0.51988    0.79762    0.05502    1.000
    C85      C        0.53317    0.73913    0.04713    1.000
    C86      C        0.59753    0.68497    0.07457    1.000
    C87      C        0.44949    0.85221    0.02421    1.000
    C88      C        0.71619    0.61411    0.20491    1.000
    C89      C        0.63436    0.62184    0.24784    1.000
    C90      C        0.63455    0.60725    0.31225    1.000
    C91      C        0.71623    0.57893    0.33341    1.000
    C92      C        0.79804    0.56845    0.28847    1.000
    C93      C        0.79810    0.58500    0.22460    1.000
    C94      C        0.72367    0.55853    0.40193    1.000
    C95      C        0.76655    0.59245    0.10205    1.000
    C96      C        0.80389    0.61781    0.03781    1.000
    C97      C        0.85143    0.57877    0.00217    1.000
    C98      C        0.85958    0.51212    0.02812    1.000
    C99      C        0.82690    0.48690    0.09230    1.000
    C100     C        0.77600    0.52610    0.13130    1.000
    C101     C        0.94614    0.81181    0.38951    1.000
    C102     C        0.99743    0.75553    0.38081    1.000
    C103     C        0.96000    0.70157    0.40843    1.000
    C104     C        0.87252    0.70238    0.44498    1.000
    C105     C        0.81943    0.76087    0.45287    1.000
    C106     C        0.85707    0.81503    0.42543    1.000
    C107     C        0.82591    0.64779    0.47579    1.000
    C108     C        0.03521    0.88589    0.29509    1.000
    C109     C        0.00404    0.87816    0.25216    1.000
    C110     C        0.05405    0.89275    0.18775    1.000
    C111     C        0.12857    0.92107    0.16659    1.000
    C112     C        0.15496    0.93155    0.21153    1.000
    C113     C        0.10770    0.91500    0.27540    1.000
    C114     C        0.18413    0.94147    0.09807    1.000
    C115     C        0.96105    0.90755    0.39795    1.000
    C116     C        0.95951    0.88219    0.46219    1.000
    C117     C        0.93237    0.92123    0.49783    1.000
    C118     C        0.89982    0.98788    0.47188    1.000
    C119     C        0.90610    0.01310    0.40770    1.000
    C120     C        0.93340    0.97390    0.36870    1.000
    C121     C        0.94614    0.38951    0.81181    1.000
    C122     C        0.99743    0.38081    0.75553    1.000
    C123     C        0.96000    0.40843    0.70157    1.000
    C124     C        0.87252    0.44498    0.70238    1.000
    C125     C        0.81943    0.45287    0.76087    1.000
    C126     C        0.85707    0.42543    0.81503    1.000
    C127     C        0.82591    0.47579    0.64779    1.000
    C128     C        0.03521    0.29509    0.88589    1.000
    C129     C        0.00404    0.25216    0.87816    1.000
    C130     C        0.05405    0.18775    0.89275    1.000
    C131     C        0.12857    0.16659    0.92107    1.000
    C132     C        0.15496    0.21153    0.93155    1.000
    C133     C        0.10770    0.27540    0.91500    1.000
    C134     C        0.18413    0.09807    0.94147    1.000
    C135     C        0.96105    0.39795    0.90755    1.000
    C136     C        0.95951    0.46219    0.88219    1.000
    C137     C        0.93237    0.49783    0.92123    1.000
    C138     C        0.89982    0.47188    0.98788    1.000
    C139     C        0.90610    0.40770    0.01310    1.000
    C140     C        0.93340    0.36870    0.97390    1.000
    C141     C        0.64746    0.11049    0.68819    1.000
    C142     C        0.63377    0.11919    0.74447    1.000
    C143     C        0.57000    0.09157    0.79843    1.000
    C144     C        0.51988    0.05502    0.79762    1.000
    C145     C        0.53317    0.04713    0.73913    1.000
    C146     C        0.59753    0.07457    0.68497    1.000
    C147     C        0.44949    0.02421    0.85221    1.000
    C148     C        0.71619    0.20491    0.61411    1.000
    C149     C        0.63436    0.24784    0.62184    1.000
    C150     C        0.63455    0.31225    0.60725    1.000
    C151     C        0.71623    0.33341    0.57893    1.000
    C152     C        0.79804    0.28847    0.56845    1.000
    C153     C        0.79810    0.22460    0.58500    1.000
    C154     C        0.72367    0.40193    0.55853    1.000
    C155     C        0.76655    0.10205    0.59245    1.000
    C156     C        0.80389    0.03781    0.61781    1.000
    C157     C        0.85143    0.00217    0.57877    1.000
    C158     C        0.85958    0.02812    0.51212    1.000
    C159     C        0.82690    0.09230    0.48690    1.000
    C160     C        0.77600    0.13130    0.52610    1.000
    N5       N        0.71283    0.63197    0.13917    1.000
    N6       N        0.98397    0.86803    0.36083    1.000
    N7       N        0.98397    0.36083    0.86803    1.000
    N8       N        0.71283    0.13917    0.63197    1.000
    O17      O        0.79544    0.53757    0.41855    1.000
    O18      O        0.64058    0.56624    0.43920    1.000
    O19      O        0.44220    0.90762    0.02598    1.000
    O20      O        0.39946    0.84184    0.00004    1.000
    O21      O        0.25156    0.96243    0.08145    1.000
    O22      O        0.14602    0.93376    0.06080    1.000
    O23      O        0.87580    0.59238    0.47402    1.000
    O24      O        0.74134    0.65816    0.49996    1.000
    O25      O        0.25156    0.08145    0.96243    1.000
    O26      O        0.14602    0.06080    0.93376    1.000
    O27      O        0.87580    0.47402    0.59238    1.000
    O28      O        0.74134    0.49996    0.65816    1.000
    O29      O        0.79544    0.41855    0.53757    1.000
    O30      O        0.64058    0.43920    0.56624    1.000
    O31      O        0.44220    0.02598    0.90762    1.000
    O32      O        0.39946    0.00004    0.84184    1.000
