data_functionalizedCrystal
_audit_creation_method	'EQeq! by Chris Wilmer'
_symmetry_space_group_name_H-M	'P1'
_symmetry_Int_Tables_number	1
_symmetry_cell_setting	triclinic
loop_
_symmetry_equiv_pos_as_xyz
  x,y,z
_cell_length_a	18.8266
_cell_length_b	18.8266
_cell_length_c	25.4638
_cell_angle_alpha	90
_cell_angle_beta	90
_cell_angle_gamma	90
loop_
_atom_site_label
_atom_site_type_symbol
_atom_site_fract_x
_atom_site_fract_y
_atom_site_fract_z
_atom_site_charge
Mof_Mn	Mn	0.5	0.5	0.39216	0.717
Mof_Mn	Mn	5.46881e-34	0	0.10784	0.65
Mof_Mn	Mn	0.6014	0.3986	0.5	0.727
Mof_Mn	Mn	0.8986	0.8986	-0	0.74
Mof_Mn	Mn	4.52435e-33	0	0.89216	0.656
Mof_Mn	Mn	0.1014	0.1014	-0	0.708
Mof_Mn	Mn	0.3986	0.6014	0.5	0.727
Mof_Mn	Mn	0.5	0.5	0.60784	0.719
Mof_Si	Si	3.80342e-33	0.5	0.75	0.766
Mof_Si	Si	0.5	-2.79694e-33	0.25	0.766
Mof_Si	Si	4.06475e-33	0.5	0.25	0.766
Mof_Si	Si	0.5	-1.11878e-32	0.75	0.766
Mof_H 	H 	0.7552	0.563	0.2927	0.088
Mof_H 	H 	0.0661	0.3504	0.8986	0.066
Mof_H 	H 	0.5683	0.8609	0.2452	-0.015
Mof_H 	H 	0.0683	0.6391	0.7452	-0.045
Mof_H 	H 	0.1496	0.5661	0.6014	0.089
Mof_H 	H 	0.2448	0.437	0.2927	0.089
Mof_H 	H 	0.955	0.4405	0.6495	-0.014
Mof_H 	H 	0.5661	0.1496	0.6014	0.089
Mof_H 	H 	0.9339	0.6496	0.8986	0.116
Mof_H 	H 	0.2552	0.937	0.2073	0.063
Mof_H 	H 	0.0595	0.455	0.8505	0.002
Mof_H 	H 	0.6496	0.9339	0.1014	0.111
Mof_H 	H 	0.5683	0.8609	0.7548	-0.014
Mof_H 	H 	0.3609	0.9317	0.2548	0.001
Mof_H 	H 	0.437	0.2448	0.7073	0.09
Mof_H 	H 	0.9339	0.6496	0.1014	0.111
Mof_H 	H 	0.6496	0.9339	0.8986	0.116
Mof_H 	H 	0.0683	0.6391	0.2548	-0.045
Mof_H 	H 	0.455	0.0595	0.1495	-0.001
Mof_H 	H 	0.5661	0.1496	0.3986	0.089
Mof_H 	H 	0.0661	0.3504	0.1014	0.062
Mof_H 	H 	0.955	0.4405	0.3505	-0.014
Mof_H 	H 	0.4405	0.955	0.6495	-0.014
Mof_H 	H 	0.7552	0.563	0.7073	0.089
Mof_H 	H 	0.5595	0.045	0.6495	-0.034
Mof_H 	H 	0.8504	0.4339	0.6014	0.089
Mof_H 	H 	0.7448	0.063	0.7927	0.117
Mof_H 	H 	0.9405	0.545	0.8505	-0.048
Mof_H 	H 	0.937	0.2552	0.7927	0.063
Mof_H 	H 	0.1391	0.4317	0.2452	-0.03
Mof_H 	H 	0.7448	0.063	0.2073	0.115
Mof_H 	H 	0.545	0.9405	0.1495	-0.05
Mof_H 	H 	0.6391	0.0683	0.2548	-0.045
Mof_H 	H 	0.4339	0.8504	0.6014	0.089
Mof_H 	H 	0.0595	0.455	0.1495	-0.001
Mof_H 	H 	0.8504	0.4339	0.3986	0.089
Mof_H 	H 	0.2552	0.937	0.7927	0.063
Mof_H 	H 	0.9317	0.3609	0.7452	0.002
Mof_H 	H 	0.563	0.7552	0.7073	0.089
Mof_H 	H 	0.063	0.7448	0.7927	0.117
Mof_H 	H 	0.9317	0.3609	0.2548	0.001
Mof_H 	H 	0.3504	0.0661	0.8986	0.066
Mof_H 	H 	0.3609	0.9317	0.7452	0.002
Mof_H 	H 	0.937	0.2552	0.2073	0.063
Mof_H 	H 	0.3504	0.0661	0.1014	0.062
Mof_H 	H 	0.563	0.7552	0.2927	0.088
Mof_H 	H 	0.1391	0.4317	0.7548	-0.029
Mof_H 	H 	0.4405	0.955	0.3505	-0.014
Mof_H 	H 	0.4339	0.8504	0.3986	0.089
Mof_H 	H 	0.5595	0.045	0.3505	-0.034
Mof_H 	H 	0.8609	0.5683	0.7548	-0.014
Mof_H 	H 	0.545	0.9405	0.8505	-0.048
Mof_H 	H 	0.063	0.7448	0.2073	0.115
Mof_H 	H 	0.8609	0.5683	0.2452	-0.015
Mof_H 	H 	0.1496	0.5661	0.3986	0.089
Mof_H 	H 	0.4317	0.1391	0.2452	-0.03
Mof_H 	H 	0.2448	0.437	0.7073	0.09
Mof_H 	H 	0.437	0.2448	0.2927	0.089
Mof_H 	H 	0.455	0.0595	0.8505	0.002
Mof_H 	H 	0.9405	0.545	0.1495	-0.05
Mof_H 	H 	0.6391	0.0683	0.7452	-0.045
Mof_H 	H 	0.045	0.5595	0.6495	-0.034
Mof_H 	H 	0.045	0.5595	0.3505	-0.034
Mof_H 	H 	0.4317	0.1391	0.7548	-0.029
Mof_C 	C 	0.0075	0.2266	0.8811	0.088
Mof_C 	C 	0.5858	0.9651	0.1617	0.226
Mof_C 	C 	0.7266	0.4925	0.6189	0.096
Mof_C 	C 	0.2734	0.5075	0.3811	0.09
Mof_C 	C 	0.1477	0.5384	0.3674	-0.17
Mof_C 	C 	0.3589	0.9596	0.2237	0.064
Mof_C 	C 	0.462	0.2041	0.6953	-0.168
Mof_C 	C 	0.0858	0.5349	0.6617	0.141
Mof_C 	C 	0.919	0.5031	0.7081	-0.281
Mof_C 	C 	0.9616	0.6477	0.1326	-0.226
Mof_C 	C 	0.462	0.2041	0.3047	-0.168
Mof_C 	C 	0.7928	0.4991	0.6495	0.073
Mof_C 	C 	0.3523	0.0384	0.1326	-0.097
Mof_C 	C 	0.5858	0.9651	0.8383	0.229
Mof_C 	C 	0.4651	0.9142	0.3383	0.126
Mof_C 	C 	0.9969	0.419	0.7919	-0.215
Mof_C 	C 	0.4142	0.0349	0.8383	0.037
Mof_C 	C 	0.2734	0.5075	0.6189	0.09
Mof_C 	C 	0.9925	0.7734	0.1189	0.097
Mof_C 	C 	0.1411	0.4596	0.2763	0.135
Mof_C 	C 	0.8589	0.5404	0.2763	0.123
Mof_C 	C 	0.8523	0.4616	0.6326	-0.154
Mof_C 	C 	0.7734	0.9925	0.8811	0.099
Mof_C 	C 	0.9651	0.5858	0.8383	0.229
Mof_C 	C 	0.2041	0.462	0.3047	-0.168
Mof_C 	C 	0.4969	0.081	0.2919	-0.316
Mof_C 	C 	0.2041	0.462	0.6953	-0.168
Mof_C 	C 	0.2928	0.0009	0.1495	-0.003
Mof_C 	C 	0.9616	0.6477	0.8674	-0.227
Mof_C 	C 	0.2072	0.5009	0.6495	0.079
Mof_C 	C 	0.9651	0.5858	0.1617	0.226
Mof_C 	C 	0.4969	0.081	0.7081	-0.316
Mof_C 	C 	0.5384	0.1477	0.6326	-0.17
Mof_C 	C 	0.7041	0.038	0.1953	-0.252
Mof_C 	C 	0.4925	0.7266	0.6189	0.096
Mof_C 	C 	0.0384	0.3523	0.8674	-0.095
Mof_C 	C 	0.419	0.9969	0.2081	-0.217
Mof_C 	C 	0.0009	0.2928	0.1495	-0.003
Mof_C 	C 	0.5349	0.0858	0.6617	0.141
Mof_C 	C 	0.5009	0.2072	0.6495	0.079
Mof_C 	C 	0.0404	0.6411	0.7763	0.195
Mof_C 	C 	0.3589	0.9596	0.7763	0.064
Mof_C 	C 	0.0858	0.5349	0.3383	0.141
Mof_C 	C 	0.8589	0.5404	0.7237	0.123
Mof_C 	C 	0.2266	0.0075	0.8811	0.088
Mof_C 	C 	0.1411	0.4596	0.7237	0.135
Mof_C 	C 	0.0075	0.2266	0.1189	0.086
Mof_C 	C 	0.4616	0.8523	0.3674	-0.154
Mof_C 	C 	0.0384	0.3523	0.1326	-0.097
Mof_C 	C 	0.9142	0.4651	0.3383	0.126
Mof_C 	C 	0.2928	0.0009	0.8505	-0.002
Mof_C 	C 	0.7266	0.4925	0.3811	0.095
Mof_C 	C 	0.9991	0.7072	0.8505	0.155
Mof_C 	C 	0.5009	0.2072	0.3505	0.078
Mof_C 	C 	0.6411	0.0404	0.7763	0.195
Mof_C 	C 	0.038	0.7041	0.8047	-0.254
Mof_C 	C 	0.581	0.0031	0.7919	-0.381
Mof_C 	C 	0.4142	0.0349	0.1617	0.037
Mof_C 	C 	0.0349	0.4142	0.8383	0.037
Mof_C 	C 	0.4596	0.1411	0.7237	0.135
Mof_C 	C 	0.081	0.4969	0.2919	-0.316
Mof_C 	C 	0.7041	0.038	0.8047	-0.254
Mof_C 	C 	0.5031	0.919	0.7081	-0.281
Mof_C 	C 	0.5404	0.8589	0.2763	0.123
Mof_C 	C 	0.4991	0.7928	0.6495	0.073
Mof_C 	C 	0.2266	0.0075	0.1189	0.086
Mof_C 	C 	0.4596	0.1411	0.2763	0.135
Mof_C 	C 	0.2072	0.5009	0.3505	0.078
Mof_C 	C 	0.0031	0.581	0.7919	-0.381
Mof_C 	C 	0.7959	0.538	0.3047	-0.153
Mof_C 	C 	0.5075	0.2734	0.6189	0.09
Mof_C 	C 	0.5384	0.1477	0.3674	-0.17
Mof_C 	C 	0.7959	0.538	0.6953	-0.153
Mof_C 	C 	0.5349	0.0858	0.3383	0.141
Mof_C 	C 	0.5404	0.8589	0.7237	0.123
Mof_C 	C 	0.0349	0.4142	0.1617	0.037
Mof_C 	C 	0.5031	0.919	0.2919	-0.282
Mof_C 	C 	0.9142	0.4651	0.6617	0.126
Mof_C 	C 	0.538	0.7959	0.6953	-0.153
Mof_C 	C 	0.962	0.2959	0.1953	-0.066
Mof_C 	C 	0.7734	0.9925	0.1189	0.097
Mof_C 	C 	0.081	0.4969	0.7081	-0.316
Mof_C 	C 	0.581	0.0031	0.2081	-0.379
Mof_C 	C 	0.038	0.7041	0.1953	-0.252
Mof_C 	C 	0.3523	0.0384	0.8674	-0.095
Mof_C 	C 	0.538	0.7959	0.3047	-0.153
Mof_C 	C 	0.919	0.5031	0.2919	-0.282
Mof_C 	C 	0.9991	0.7072	0.1495	0.151
Mof_C 	C 	0.2959	0.962	0.8047	-0.064
Mof_C 	C 	0.7928	0.4991	0.3505	0.072
Mof_C 	C 	0.4616	0.8523	0.6326	-0.154
Mof_C 	C 	0.5075	0.2734	0.3811	0.09
Mof_C 	C 	0.6477	0.9616	0.1326	-0.226
Mof_C 	C 	0.9596	0.3589	0.2237	0.064
Mof_C 	C 	0.0009	0.2928	0.8505	-0.002
Mof_C 	C 	0.0031	0.581	0.2081	-0.379
Mof_C 	C 	0.1477	0.5384	0.6326	-0.17
Mof_C 	C 	0.6411	0.0404	0.2237	0.192
Mof_C 	C 	0.2959	0.962	0.1953	-0.066
Mof_C 	C 	0.0404	0.6411	0.2237	0.192
Mof_C 	C 	0.4925	0.7266	0.3811	0.095
Mof_C 	C 	0.7072	0.9991	0.8505	0.155
Mof_C 	C 	0.7072	0.9991	0.1495	0.151
Mof_C 	C 	0.962	0.2959	0.8047	-0.064
Mof_C 	C 	0.419	0.9969	0.7919	-0.215
Mof_C 	C 	0.9596	0.3589	0.7763	0.064
Mof_C 	C 	0.8523	0.4616	0.3674	-0.154
Mof_C 	C 	0.4991	0.7928	0.3505	0.072
Mof_C 	C 	0.9925	0.7734	0.8811	0.099
Mof_C 	C 	0.6477	0.9616	0.8674	-0.227
Mof_C 	C 	0.9969	0.419	0.2081	-0.217
Mof_C 	C 	0.4651	0.9142	0.6617	0.126
Mof_N 	N 	0.4829	0.3356	0.63761	-0.099
Mof_N 	N 	0.0421	0.2204	0.07498	-0.106
Mof_N 	N 	0.49625	0.6172	0.6006	-0.11
Mof_N 	N 	0.7204	0.4579	0.42502	-0.101
Mof_N 	N 	0.7204	0.4579	0.57498	-0.101
Mof_N 	N 	0.5171	0.6644	0.63761	-0.098
Mof_N 	N 	0.5394	0.3487	0.43675	-0.112
Mof_N 	N 	0.1513	0.0394	0.06325	-0.114
Mof_N 	N 	0.7796	0.9579	0.92502	-0.096
Mof_N 	N 	0.1513	0.0394	0.93675	-0.108
Mof_N 	N 	0.9579	0.7796	0.92502	-0.096
Mof_N 	N 	0.00375	0.1172	0.1006	-0.123
Mof_N 	N 	0.6644	0.5171	0.36239	-0.099
Mof_N 	N 	0.6172	0.49625	0.6006	-0.11
Mof_N 	N 	0.4829	0.3356	0.36239	-0.1
Mof_N 	N 	0.50375	0.3828	0.3994	-0.111
Mof_N 	N 	0.8356	0.0171	0.13761	-0.118
Mof_N 	N 	0.4579	0.7204	0.57498	-0.101
Mof_N 	N 	0.5171	0.6644	0.36239	-0.099
Mof_N 	N 	0.2796	0.5421	0.42502	-0.102
Mof_N 	N 	0.99625	0.8828	0.8994	-0.078
Mof_N 	N 	0.7796	0.9579	0.07498	-0.101
Mof_N 	N 	0.0171	0.8356	0.13761	-0.118
Mof_N 	N 	0.5421	0.2796	0.42502	-0.102
Mof_N 	N 	0.4606	0.6513	0.43675	-0.111
Mof_N 	N 	0.2796	0.5421	0.57498	-0.102
Mof_N 	N 	0.1644	0.9829	0.13761	-0.074
Mof_N 	N 	0.9606	0.8487	0.93675	-0.1
Mof_N 	N 	0.2204	0.0421	0.92502	-0.101
Mof_N 	N 	0.1172	0.00375	0.1006	-0.123
Mof_N 	N 	0.6513	0.4606	0.56325	-0.111
Mof_N 	N 	0.1644	0.9829	0.86239	-0.073
Mof_N 	N 	0.5421	0.2796	0.57498	-0.102
Mof_N 	N 	0.8487	0.9606	0.93675	-0.1
Mof_N 	N 	0.0171	0.8356	0.86239	-0.118
Mof_N 	N 	0.0394	0.1513	0.06325	-0.114
Mof_N 	N 	0.3487	0.5394	0.43675	-0.112
Mof_N 	N 	0.5394	0.3487	0.56325	-0.112
Mof_N 	N 	0.8487	0.9606	0.06325	-0.106
Mof_N 	N 	0.2204	0.0421	0.07498	-0.106
Mof_N 	N 	0.3828	0.50375	0.6006	-0.111
Mof_N 	N 	0.49625	0.6172	0.3994	-0.11
Mof_N 	N 	0.9579	0.7796	0.07498	-0.101
Mof_N 	N 	0.4579	0.7204	0.42502	-0.101
Mof_N 	N 	0.3356	0.4829	0.63761	-0.099
Mof_N 	N 	0.1172	0.00375	0.8994	-0.122
Mof_N 	N 	0.0421	0.2204	0.92502	-0.101
Mof_N 	N 	0.00375	0.1172	0.8994	-0.122
Mof_N 	N 	0.8828	0.99625	0.1006	-0.08
Mof_N 	N 	0.9829	0.1644	0.86239	-0.073
Mof_N 	N 	0.9606	0.8487	0.06325	-0.106
Mof_N 	N 	0.6172	0.49625	0.3994	-0.11
Mof_N 	N 	0.99625	0.8828	0.1006	-0.08
Mof_N 	N 	0.50375	0.3828	0.6006	-0.111
Mof_N 	N 	0.0394	0.1513	0.93675	-0.108
Mof_N 	N 	0.6513	0.4606	0.43675	-0.111
Mof_N 	N 	0.3487	0.5394	0.56325	-0.112
Mof_N 	N 	0.6644	0.5171	0.63761	-0.098
Mof_N 	N 	0.9829	0.1644	0.13761	-0.074
Mof_N 	N 	0.4606	0.6513	0.56325	-0.111
Mof_N 	N 	0.3828	0.50375	0.3994	-0.111
Mof_N 	N 	0.3356	0.4829	0.36239	-0.1
Mof_N 	N 	0.8356	0.0171	0.86239	-0.118
Mof_N 	N 	0.8828	0.99625	0.8994	-0.078
Mof_Cl	Cl	0.5	0.5	0.5	-0.562
Mof_Cl	Cl	-0	0	-0	-0.604
_end
