data_functionalizedCrystal
_audit_creation_method	'EQeq! by Chris Wilmer'
_symmetry_space_group_name_H-M	'P1'
_symmetry_Int_Tables_number	1
_symmetry_cell_setting	triclinic
loop_
_symmetry_equiv_pos_as_xyz
  x,y,z
_cell_length_a	30.554
_cell_length_b	16.306
_cell_length_c	21.656
_cell_angle_alpha	90
_cell_angle_beta	134.437
_cell_angle_gamma	90
loop_
_atom_site_label
_atom_site_type_symbol
_atom_site_fract_x
_atom_site_fract_y
_atom_site_fract_z
_atom_site_charge
Mof_Gd	Gd	0.82557	0.13065	0.955	1.4
Mof_Gd	Gd	0.60982	0.38048	0.6969	1.328
Mof_O 	O 	0.7466	0.2299	0.8519	-0.453
Mof_O 	O 	0.7176	0.3498	0.7864	-0.424
Mof_O 	O 	0.9323	0.1421	0.0406	-0.477
Mof_O 	O 	0.0167	0.199	0.0876	-0.472
Mof_O 	O 	0.8669	0.9871	0.8598	-0.442
Mof_O 	O 	0.8205	0.1001	0.8443	-0.447
Mof_O 	O 	0.8534	0.874	0.663	-0.429
Mof_O 	O 	0.8138	0.939	0.538	-0.459
Mof_N 	N 	0.8617	0.2585	0.9373	-0.155
Mof_C 	C 	0.8212	0.3185	0.8821	-0.085
Mof_C 	C 	0.8409	0.3869	0.8718	0.021
Mof_H 	H 	0.8126	0.4288	0.8331	0.018
Mof_C 	C 	0.9012	0.3953	0.9167	-0.099
Mof_H 	H 	0.915	0.4431	0.9095	0.048
Mof_C 	C 	0.9417	0.3353	0.972	0.024
Mof_H 	H 	0.9838	0.3411	0.0034	0.011
Mof_C 	C 	0.9219	0.2669	0.9823	-0.1
Mof_C 	C 	0.758	0.2981	0.8376	0.382
Mof_C 	C 	0.9603	0.199	0.041	0.404
Mof_N 	N 	0.8311	0.0057	0.7088	-0.158
Mof_C 	C 	0.8164	0.0654	0.7353	-0.086
Mof_C 	C 	0.7819	0.1305	0.683	0.014
Mof_H 	H 	0.7716	0.1723	0.7016	0.022
Mof_C 	C 	0.7623	0.1358	0.6042	-0.087
Mof_H 	H 	0.7382	0.1813	0.5676	0.044
Mof_C 	C 	0.777	0.0761	0.5776	0.006
Mof_H 	H 	0.7633	0.0798	0.5225	0.015
Mof_C 	C 	0.8115	0.011	0.6299	-0.07
Mof_C 	C 	0.836	0.05	0.818	0.385
Mof_C 	C 	0.828	0.939	0.61	0.315
Mof_Gd	Gd	0.32557	0.63065	0.955	1.405
Mof_Gd	Gd	0.10982	0.88048	0.6969	1.33
Mof_O 	O 	0.2466	0.7299	0.8519	-0.453
Mof_O 	O 	0.2176	0.8498	0.7864	-0.423
Mof_O 	O 	0.4323	0.6421	0.0406	-0.478
Mof_O 	O 	0.5167	0.699	0.0876	-0.471
Mof_O 	O 	0.3669	0.4871	0.8598	-0.443
Mof_O 	O 	0.3205	0.6001	0.8443	-0.447
Mof_O 	O 	0.3534	0.374	0.663	-0.428
Mof_O 	O 	0.3138	0.439	0.538	-0.459
Mof_N 	N 	0.3617	0.7585	0.9373	-0.155
Mof_C 	C 	0.3212	0.8185	0.8821	-0.085
Mof_C 	C 	0.3409	0.8869	0.8718	0.023
Mof_H 	H 	0.3126	0.9288	0.8331	0.018
Mof_C 	C 	0.4012	0.8953	0.9167	-0.102
Mof_H 	H 	0.415	0.9431	0.9095	0.049
Mof_C 	C 	0.4417	0.8353	0.972	0.029
Mof_H 	H 	0.4838	0.8411	0.0034	0.008
Mof_C 	C 	0.4219	0.7669	0.9823	-0.099
Mof_C 	C 	0.258	0.7981	0.8376	0.382
Mof_C 	C 	0.4603	0.699	0.041	0.403
Mof_N 	N 	0.3311	0.5057	0.7088	-0.158
Mof_C 	C 	0.3164	0.5654	0.7353	-0.087
Mof_C 	C 	0.2819	0.6305	0.683	0.014
Mof_H 	H 	0.2716	0.6723	0.7016	0.022
Mof_C 	C 	0.2623	0.6358	0.6042	-0.087
Mof_H 	H 	0.2382	0.6813	0.5676	0.044
Mof_C 	C 	0.277	0.5761	0.5776	0.005
Mof_H 	H 	0.2633	0.5798	0.5225	0.015
Mof_C 	C 	0.3115	0.511	0.6299	-0.07
Mof_C 	C 	0.336	0.55	0.818	0.387
Mof_C 	C 	0.328	0.439	0.61	0.315
Mof_Gd	Gd	0.17443	0.13065	0.545	1.403
Mof_Gd	Gd	0.39018	0.38048	0.8031	1.329
Mof_O 	O 	0.2534	0.2299	0.6481	-0.453
Mof_O 	O 	0.2824	0.3498	0.7136	-0.423
Mof_O 	O 	0.0677	0.1421	0.4594	-0.478
Mof_O 	O 	0.9833	0.199	0.4124	-0.471
Mof_O 	O 	0.1331	0.9871	0.6402	-0.442
Mof_O 	O 	0.1795	0.1001	0.6557	-0.447
Mof_O 	O 	0.1466	0.874	0.837	-0.429
Mof_O 	O 	0.1862	0.939	0.962	-0.458
Mof_N 	N 	0.1383	0.2585	0.5627	-0.155
Mof_C 	C 	0.1788	0.3185	0.6179	-0.085
Mof_C 	C 	0.1591	0.3869	0.6282	0.021
Mof_H 	H 	0.1874	0.4288	0.6669	0.018
Mof_C 	C 	0.0988	0.3953	0.5833	-0.1
Mof_H 	H 	0.085	0.4431	0.5905	0.048
Mof_C 	C 	0.0583	0.3353	0.528	0.025
Mof_H 	H 	0.0162	0.3411	0.4966	0.01
Mof_C 	C 	0.0781	0.2669	0.5177	-0.099
Mof_C 	C 	0.242	0.2981	0.6624	0.382
Mof_C 	C 	0.0397	0.199	0.459	0.403
Mof_N 	N 	0.1689	0.0057	0.7912	-0.158
Mof_C 	C 	0.1836	0.0654	0.7647	-0.087
Mof_C 	C 	0.2181	0.1305	0.817	0.014
Mof_H 	H 	0.2284	0.1723	0.7984	0.022
Mof_C 	C 	0.2377	0.1358	0.8958	-0.088
Mof_H 	H 	0.2618	0.1813	0.9324	0.044
Mof_C 	C 	0.223	0.0761	0.9224	0.007
Mof_H 	H 	0.2367	0.0798	0.9775	0.015
Mof_C 	C 	0.1885	0.011	0.8701	-0.072
Mof_C 	C 	0.164	0.05	0.682	0.386
Mof_C 	C 	0.172	0.939	0.89	0.317
Mof_Gd	Gd	0.67443	0.63065	0.545	1.404
Mof_Gd	Gd	0.89018	0.88048	0.8031	1.33
Mof_O 	O 	0.7534	0.7299	0.6481	-0.453
Mof_O 	O 	0.7824	0.8498	0.7136	-0.423
Mof_O 	O 	0.5677	0.6421	0.4594	-0.478
Mof_O 	O 	0.4833	0.699	0.4124	-0.471
Mof_O 	O 	0.6331	0.4871	0.6402	-0.443
Mof_O 	O 	0.6795	0.6001	0.6557	-0.447
Mof_O 	O 	0.6466	0.374	0.837	-0.429
Mof_O 	O 	0.6862	0.439	0.962	-0.459
Mof_N 	N 	0.6383	0.7585	0.5627	-0.155
Mof_C 	C 	0.6788	0.8185	0.6179	-0.085
Mof_C 	C 	0.6591	0.8869	0.6282	0.021
Mof_H 	H 	0.6874	0.9288	0.6669	0.018
Mof_C 	C 	0.5988	0.8953	0.5833	-0.1
Mof_H 	H 	0.585	0.9431	0.5905	0.048
Mof_C 	C 	0.5583	0.8353	0.528	0.025
Mof_H 	H 	0.5162	0.8411	0.4966	0.01
Mof_C 	C 	0.5781	0.7669	0.5177	-0.099
Mof_C 	C 	0.742	0.7981	0.6624	0.382
Mof_C 	C 	0.5397	0.699	0.459	0.403
Mof_N 	N 	0.6689	0.5057	0.7912	-0.158
Mof_C 	C 	0.6836	0.5654	0.7647	-0.087
Mof_C 	C 	0.7181	0.6305	0.817	0.014
Mof_H 	H 	0.7284	0.6723	0.7984	0.022
Mof_C 	C 	0.7377	0.6358	0.8958	-0.087
Mof_H 	H 	0.7618	0.6813	0.9324	0.044
Mof_C 	C 	0.723	0.5761	0.9224	0.006
Mof_H 	H 	0.7367	0.5798	0.9775	0.016
Mof_C 	C 	0.6885	0.511	0.8701	-0.07
Mof_C 	C 	0.664	0.55	0.682	0.387
Mof_C 	C 	0.672	0.439	0.89	0.315
Mof_Gd	Gd	0.17443	0.86935	0.045	1.401
Mof_Gd	Gd	0.39018	0.61952	0.3031	1.329
Mof_O 	O 	0.2534	0.7701	0.1481	-0.452
Mof_O 	O 	0.2824	0.6502	0.2136	-0.423
Mof_O 	O 	0.0677	0.8579	0.9594	-0.477
Mof_O 	O 	0.9833	0.801	0.9124	-0.472
Mof_O 	O 	0.1331	0.0129	0.1402	-0.442
Mof_O 	O 	0.1795	0.8999	0.1557	-0.447
Mof_O 	O 	0.1466	0.126	0.337	-0.429
Mof_O 	O 	0.1862	0.061	0.462	-0.459
Mof_N 	N 	0.1383	0.7415	0.0627	-0.155
Mof_C 	C 	0.1788	0.6815	0.1179	-0.085
Mof_C 	C 	0.1591	0.6131	0.1282	0.021
Mof_H 	H 	0.1874	0.5712	0.1669	0.018
Mof_C 	C 	0.0988	0.6047	0.0833	-0.099
Mof_H 	H 	0.085	0.5569	0.0905	0.048
Mof_C 	C 	0.0583	0.6647	0.028	0.024
Mof_H 	H 	0.0162	0.6589	0.9966	0.011
Mof_C 	C 	0.0781	0.7331	0.0177	-0.1
Mof_C 	C 	0.242	0.7019	0.1624	0.382
Mof_C 	C 	0.0397	0.801	0.959	0.404
Mof_N 	N 	0.1689	0.9943	0.2912	-0.158
Mof_C 	C 	0.1836	0.9346	0.2647	-0.086
Mof_C 	C 	0.2181	0.8695	0.317	0.014
Mof_H 	H 	0.2284	0.8277	0.2984	0.022
Mof_C 	C 	0.2377	0.8642	0.3958	-0.087
Mof_H 	H 	0.2618	0.8187	0.4324	0.044
Mof_C 	C 	0.223	0.9239	0.4224	0.006
Mof_H 	H 	0.2367	0.9202	0.4775	0.015
Mof_C 	C 	0.1885	0.989	0.3701	-0.07
Mof_C 	C 	0.164	0.95	0.182	0.385
Mof_C 	C 	0.172	0.061	0.39	0.315
Mof_Gd	Gd	0.67443	0.36935	0.045	1.405
Mof_Gd	Gd	0.89018	0.11952	0.3031	1.33
Mof_O 	O 	0.7534	0.2701	0.1481	-0.453
Mof_O 	O 	0.7824	0.1502	0.2136	-0.423
Mof_O 	O 	0.5677	0.3579	0.9594	-0.478
Mof_O 	O 	0.4833	0.301	0.9124	-0.471
Mof_O 	O 	0.6331	0.5129	0.1402	-0.443
Mof_O 	O 	0.6795	0.3999	0.1557	-0.447
Mof_O 	O 	0.6466	0.626	0.337	-0.428
Mof_O 	O 	0.6862	0.561	0.462	-0.459
Mof_N 	N 	0.6383	0.2415	0.0627	-0.155
Mof_C 	C 	0.6788	0.1815	0.1179	-0.085
Mof_C 	C 	0.6591	0.1131	0.1282	0.023
Mof_H 	H 	0.6874	0.0712	0.1669	0.018
Mof_C 	C 	0.5988	0.1047	0.0833	-0.102
Mof_H 	H 	0.585	0.0569	0.0905	0.049
Mof_C 	C 	0.5583	0.1647	0.028	0.029
Mof_H 	H 	0.5162	0.1589	0.9966	0.008
Mof_C 	C 	0.5781	0.2331	0.0177	-0.099
Mof_C 	C 	0.742	0.2019	0.1624	0.382
Mof_C 	C 	0.5397	0.301	0.959	0.403
Mof_N 	N 	0.6689	0.4943	0.2912	-0.158
Mof_C 	C 	0.6836	0.4346	0.2647	-0.087
Mof_C 	C 	0.7181	0.3695	0.317	0.014
Mof_H 	H 	0.7284	0.3277	0.2984	0.022
Mof_C 	C 	0.7377	0.3642	0.3958	-0.087
Mof_H 	H 	0.7618	0.3187	0.4324	0.044
Mof_C 	C 	0.723	0.4239	0.4224	0.005
Mof_H 	H 	0.7367	0.4202	0.4775	0.015
Mof_C 	C 	0.6885	0.489	0.3701	-0.07
Mof_C 	C 	0.664	0.45	0.182	0.387
Mof_C 	C 	0.672	0.561	0.39	0.315
Mof_Gd	Gd	0.82557	0.86935	0.455	1.403
Mof_Gd	Gd	0.60982	0.61952	0.1969	1.329
Mof_O 	O 	0.7466	0.7701	0.3519	-0.453
Mof_O 	O 	0.7176	0.6502	0.2864	-0.423
Mof_O 	O 	0.9323	0.8579	0.5406	-0.478
Mof_O 	O 	0.0167	0.801	0.5876	-0.471
Mof_O 	O 	0.8669	0.0129	0.3598	-0.442
Mof_O 	O 	0.8205	0.8999	0.3443	-0.447
Mof_O 	O 	0.8534	0.126	0.163	-0.429
Mof_O 	O 	0.8138	0.061	0.038	-0.458
Mof_N 	N 	0.8617	0.7415	0.4373	-0.155
Mof_C 	C 	0.8212	0.6815	0.3821	-0.085
Mof_C 	C 	0.8409	0.6131	0.3718	0.021
Mof_H 	H 	0.8126	0.5712	0.3331	0.018
Mof_C 	C 	0.9012	0.6047	0.4167	-0.1
Mof_H 	H 	0.915	0.5569	0.4095	0.048
Mof_C 	C 	0.9417	0.6647	0.472	0.025
Mof_H 	H 	0.9838	0.6589	0.5034	0.01
Mof_C 	C 	0.9219	0.7331	0.4823	-0.099
Mof_C 	C 	0.758	0.7019	0.3376	0.382
Mof_C 	C 	0.9603	0.801	0.541	0.403
Mof_N 	N 	0.8311	0.9943	0.2088	-0.158
Mof_C 	C 	0.8164	0.9346	0.2353	-0.087
Mof_C 	C 	0.7819	0.8695	0.183	0.014
Mof_H 	H 	0.7716	0.8277	0.2016	0.022
Mof_C 	C 	0.7623	0.8642	0.1042	-0.088
Mof_H 	H 	0.7382	0.8187	0.0676	0.044
Mof_C 	C 	0.777	0.9239	0.0776	0.007
Mof_H 	H 	0.7633	0.9202	0.0225	0.015
Mof_C 	C 	0.8115	0.989	0.1299	-0.072
Mof_C 	C 	0.836	0.95	0.318	0.386
Mof_C 	C 	0.828	0.061	0.11	0.317
Mof_Gd	Gd	0.32557	0.36935	0.455	1.404
Mof_Gd	Gd	0.10982	0.11952	0.1969	1.33
Mof_O 	O 	0.2466	0.2701	0.3519	-0.453
Mof_O 	O 	0.2176	0.1502	0.2864	-0.423
Mof_O 	O 	0.4323	0.3579	0.5406	-0.478
Mof_O 	O 	0.5167	0.301	0.5876	-0.471
Mof_O 	O 	0.3669	0.5129	0.3598	-0.443
Mof_O 	O 	0.3205	0.3999	0.3443	-0.447
Mof_O 	O 	0.3534	0.626	0.163	-0.429
Mof_O 	O 	0.3138	0.561	0.038	-0.459
Mof_N 	N 	0.3617	0.2415	0.4373	-0.155
Mof_C 	C 	0.3212	0.1815	0.3821	-0.085
Mof_C 	C 	0.3409	0.1131	0.3718	0.021
Mof_H 	H 	0.3126	0.0712	0.3331	0.018
Mof_C 	C 	0.4012	0.1047	0.4167	-0.1
Mof_H 	H 	0.415	0.0569	0.4095	0.048
Mof_C 	C 	0.4417	0.1647	0.472	0.025
Mof_H 	H 	0.4838	0.1589	0.5034	0.01
Mof_C 	C 	0.4219	0.2331	0.4823	-0.099
Mof_C 	C 	0.258	0.2019	0.3376	0.382
Mof_C 	C 	0.4603	0.301	0.541	0.403
Mof_N 	N 	0.3311	0.4943	0.2088	-0.158
Mof_C 	C 	0.3164	0.4346	0.2353	-0.087
Mof_C 	C 	0.2819	0.3695	0.183	0.014
Mof_H 	H 	0.2716	0.3277	0.2016	0.022
Mof_C 	C 	0.2623	0.3642	0.1042	-0.087
Mof_H 	H 	0.2382	0.3187	0.0676	0.044
Mof_C 	C 	0.277	0.4239	0.0776	0.006
Mof_H 	H 	0.2633	0.4202	0.0225	0.016
Mof_C 	C 	0.3115	0.489	0.1299	-0.07
Mof_C 	C 	0.336	0.45	0.318	0.387
Mof_C 	C 	0.328	0.561	0.11	0.315
_end
