data_functionalizedCrystal
_audit_creation_method	'EQeq! by Chris Wilmer'
_symmetry_space_group_name_H-M	'P1'
_symmetry_Int_Tables_number	1
_symmetry_cell_setting	triclinic
loop_
_symmetry_equiv_pos_as_xyz
  x,y,z
_cell_length_a	19.3867
_cell_length_b	19.3867
_cell_length_c	20.8268
_cell_angle_alpha	90
_cell_angle_beta	90
_cell_angle_gamma	120
loop_
_atom_site_label
_atom_site_type_symbol
_atom_site_fract_x
_atom_site_fract_y
_atom_site_fract_z
_atom_site_charge
Mof_Co	Co	0.28741	0.56752	0.52202	1.182
Mof_Co	Co	0.71989	0.28741	0.68868	1.182
Mof_Co	Co	0.64155	0.27354	0.52277	1.13
Mof_Co	Co	0.43248	0.71989	0.85535	1.182
Mof_Co	Co	0.27354	0.63199	0.35611	1.13
Mof_Co	Co	0.63199	0.35845	0.18944	1.13
Mof_Co	Co	0.35845	0.72646	0.02277	1.13
Mof_Co	Co	0.28011	0.71259	0.18868	1.183
Mof_Co	Co	0.36801	0.64155	0.68944	1.131
Mof_Co	Co	0.56752	0.28011	0.35535	1.183
Mof_Co	Co	0.72646	0.36801	0.85611	1.132
Mof_Co	Co	0.71259	0.43248	0.02202	1.181
Mof_H 	H 	0.9342	0.1514	0.7482	0.073
Mof_H 	H 	0.8404	0.1939	0.7374	0.03
Mof_H 	H 	0.351	0.4031	0.71603	0.028
Mof_H 	H 	0.0579	0.3166	0.14053	0.075
Mof_H 	H 	0.7863	0.6687	0.77653	0.081
Mof_H 	H 	0.649	0.5969	0.21603	0.027
Mof_H 	H 	0.8396	0.1746	0.62687	0.025
Mof_H 	H 	0.2136	0.4834	0.7577	-0
Mof_H 	H 	0.5382	0.8821	0.23413	0.022
Mof_H 	H 	0.6926	0.7319	0.22773	0.077
Mof_H 	H 	0.8254	0.665	0.9602	0.027
Mof_H 	H 	0.2681	0.9607	0.56107	0.077
Mof_H 	H 	0.335	0.1604	0.29353	0.025
Mof_H 	H 	0.2694	0.4694	0.27973	0.005
Mof_H 	H 	0.8799	0.0808	0.60987	0.074
Mof_H 	H 	0.5306	0.8	0.61307	0.005
Mof_H 	H 	0.6759	0.9347	0.23493	0.074
Mof_H 	H 	0.6834	0.7413	0.47387	0.075
Mof_H 	H 	0.1201	0.9192	0.10987	0.074
Mof_H 	H 	0.8734	0.6549	0.2598	0.082
Mof_H 	H 	0.3404	0.8865	0.8103	0.021
Mof_H 	H 	0.0521	0.649	0.3827	0.028
Mof_H 	H 	0.2587	0.9421	0.8072	0.075
Mof_H 	H 	0.2588	0.3241	0.9016	0.075
Mof_H 	H 	0.2185	0.8734	0.42647	0.083
Mof_H 	H 	0.6465	0.8404	0.90407	0.03
Mof_H 	H 	0.2995	0.0339	0.98167	0.083
Mof_H 	H 	0.5166	0.7302	0.09103	-0.001
Mof_H 	H 	0.1179	0.6561	0.56747	0.022
Mof_H 	H 	0.3241	0.0653	0.73493	0.074
Mof_H 	H 	0.7412	0.6759	0.4016	0.074
Mof_H 	H 	0.0339	0.7344	0.815	0.076
Mof_H 	H 	0.3313	0.1176	0.10987	0.081
Mof_H 	H 	0.8824	0.2137	0.4432	0.081
Mof_H 	H 	0.3451	0.2185	0.59313	0.083
Mof_H 	H 	0.7413	0.0579	0.3072	0.075
Mof_H 	H 	0.7005	0.9661	0.48167	0.077
Mof_H 	H 	0.4539	0.3404	0.97697	0.027
Mof_H 	H 	0.3535	0.1596	0.40407	0.03
Mof_H 	H 	0.0658	0.8486	0.2482	0.073
Mof_H 	H 	0.1514	0.2172	0.58153	0.073
Mof_H 	H 	0.7864	0.5166	0.2577	-0.001
Mof_H 	H 	0.6006	0.6631	0.66463	0.031
Mof_H 	H 	0.3074	0.2681	0.72773	0.077
Mof_H 	H 	0.2698	0.7864	0.42437	-0.001
Mof_H 	H 	0.3166	0.2587	0.97387	0.081
Mof_H 	H 	0.1135	0.4539	0.14363	0.02
Mof_H 	H 	0.9479	0.351	0.8827	0.028
Mof_H 	H 	0.1176	0.7863	0.9432	0.082
Mof_H 	H 	0.3369	0.9375	0.99797	0.037
Mof_H 	H 	0.1266	0.3451	0.7598	0.083
Mof_H 	H 	0.4834	0.2698	0.59103	-0
Mof_H 	H 	0.6561	0.5382	0.4008	0.022
Mof_H 	H 	0.3994	0.3369	0.16463	0.03
Mof_H 	H 	0.2	0.7306	0.9464	0.007
Mof_H 	H 	0.8	0.2694	0.4464	0.005
Mof_H 	H 	0.9192	0.7991	0.9432	0.075
Mof_H 	H 	0.1596	0.8061	0.2374	0.03
Mof_H 	H 	0.1939	0.3535	0.57073	0.03
Mof_H 	H 	0.2656	0.2995	0.14833	0.076
Mof_H 	H 	0.7828	0.9342	0.91487	0.074
Mof_H 	H 	0.7319	0.0393	0.06107	0.077
Mof_H 	H 	0.0393	0.3074	0.8944	0.078
Mof_H 	H 	0.4618	0.1179	0.73413	0.022
Mof_H 	H 	0.4031	0.0521	0.54937	0.028
Mof_H 	H 	0.8821	0.3439	0.06747	0.022
Mof_H 	H 	0.7306	0.5306	0.77973	0.006
Mof_H 	H 	0.7302	0.2136	0.92437	-0
Mof_H 	H 	0.665	0.8396	0.79353	0.025
Mof_H 	H 	0.3439	0.4618	0.9008	0.023
Mof_H 	H 	0.9661	0.2656	0.315	0.076
Mof_H 	H 	0.6549	0.7815	0.09313	0.082
Mof_H 	H 	0.9607	0.6926	0.3944	0.077
Mof_H 	H 	0.4694	0.2	0.11307	0.005
Mof_H 	H 	0.1746	0.335	0.4602	0.025
Mof_H 	H 	0.9375	0.6006	0.8313	0.031
Mof_H 	H 	0.9347	0.2588	0.06827	0.075
Mof_H 	H 	0.8061	0.6465	0.07073	0.028
Mof_H 	H 	0.2009	0.1201	0.27653	0.074
Mof_H 	H 	0.7815	0.1266	0.92647	0.083
Mof_H 	H 	0.8865	0.5461	0.64363	0.021
Mof_H 	H 	0.6596	0.1135	0.3103	0.02
Mof_H 	H 	0.2137	0.3313	0.27653	0.081
Mof_H 	H 	0.6631	0.0625	0.49797	0.03
Mof_H 	H 	0.7344	0.7005	0.64833	0.077
Mof_H 	H 	0.5969	0.9479	0.04937	0.028
Mof_H 	H 	0.8486	0.7828	0.08153	0.073
Mof_H 	H 	0.5461	0.6596	0.47697	0.021
Mof_H 	H 	0.7991	0.8799	0.77653	0.074
Mof_H 	H 	0.6687	0.8824	0.60987	0.081
Mof_H 	H 	0.1604	0.8254	0.12687	0.025
Mof_H 	H 	0.0625	0.3994	0.3313	0.031
Mof_H 	H 	0.9421	0.6834	0.64053	0.075
Mof_H 	H 	0.2172	0.0658	0.41487	0.073
Mof_H 	H 	0.0653	0.7412	0.56827	0.074
Mof_H 	H 	0.0808	0.2009	0.4432	0.074
Mof_C 	C 	0.0845	0.9941	0.67783	-0.003
Mof_C 	C 	0.3474	0.2462	0.00187	-0.139
Mof_C 	C 	0.6437	0.893	0.20593	-0.131
Mof_C 	C 	0.284	0.2852	0.69603	-0.125
Mof_C 	C 	0.0049	0.7756	0.3231	0.075
Mof_C 	C 	0.2263	0.4385	0.25153	0.064
Mof_C 	C 	0.7289	0.008	0.51157	-0.123
Mof_C 	C 	0.862	0.3	0.03867	0.054
Mof_C 	C 	0.3563	0.107	0.70593	-0.131
Mof_C 	C 	0.1316	0.3099	0.20713	0.081
Mof_C 	C 	0.1652	0.9241	0.08777	-0.124
Mof_C 	C 	0.7193	0.1853	0.57787	0.378
Mof_C 	C 	0.3793	0.2538	0.23193	-0.125
Mof_C 	C 	0.1843	0.321	0.8307	0.081
Mof_C 	C 	0.131	0.2337	0.8326	-0.026
Mof_C 	C 	0.7775	0.5489	0.2871	0.071
Mof_C 	C 	0.1709	0.3687	0.7881	-0.134
Mof_C 	C 	0.0904	0.0845	0.8445	-0.002
Mof_C 	C 	0.9261	0.9107	0.51717	-0.003
Mof_C 	C 	0.7878	0.2263	0.4182	0.064
Mof_C 	C 	0.336	0.1197	0.43627	0.046
Mof_C 	C 	0.2196	0.2073	0.21193	0.075
Mof_C 	C 	0.8063	0.8572	0.16333	-0.025
Mof_C 	C 	0.1319	0.3208	0.431	0.051
Mof_C 	C 	0.679	0.8633	0.16403	0.081
Mof_C 	C 	0.9155	0.0059	0.17783	-0.003
Mof_C 	C 	0.7063	0.0653	0.52157	0.052
Mof_C 	C 	0.3332	0.7699	0.8801	0.349
Mof_C 	C 	0.2852	0.0012	0.52937	-0.125
Mof_C 	C 	0.8065	0.6438	0.74903	-0.132
Mof_C 	C 	0.5242	0.7197	0.54587	-0.14
Mof_C 	C 	0.2867	0.486	0.8288	-0.147
Mof_C 	C 	0.2937	0.9347	0.02157	0.045
Mof_C 	C 	0.9442	0.3095	0.8561	0.056
Mof_C 	C 	0.1027	0.869	0.49927	-0.026
Mof_C 	C 	0.2122	0.7737	0.9182	0.064
Mof_C 	C 	0.6207	0.7462	0.73193	-0.125
Mof_C 	C 	0.0973	0.2222	0.20093	-0.025
Mof_C 	C 	0.7756	0.7707	0.15643	0.075
Mof_C 	C 	0.4511	0.2286	0.62043	0.071
Mof_C 	C 	0.2807	0.8147	0.07787	0.377
Mof_C 	C 	0.2462	0.8988	0.8352	-0.132
Mof_C 	C 	0.3907	0.1162	0.47737	-0.128
Mof_C 	C 	0.1428	0.9491	0.49667	-0.025
Mof_C 	C 	0.9241	0.7589	0.9211	-0.123
Mof_C 	C 	0.6905	0.6347	0.18943	0.056
Mof_C 	C 	0.893	0.2493	0.03927	-0.138
Mof_C 	C 	0.0739	0.0893	0.01717	-0.003
Mof_C 	C 	0.1249	0.9027	0.8676	-0.026
Mof_C 	C 	0.866	0.8208	0.70253	-0.024
Mof_C 	C 	0.7927	0.0123	0.54527	0.074
Mof_C 	C 	0.5489	0.7714	0.12043	0.071
Mof_C 	C 	0.6901	0.8217	0.54047	0.081
Mof_C 	C 	0.1794	0.7024	0.3037	0.383
Mof_C 	C 	0.6668	0.2301	0.3801	0.349
Mof_C 	C 	0.7663	0.8973	0.16593	-0.026
Mof_C 	C 	0.2953	0.8661	0.8377	0.06
Mof_C 	C 	0.8217	0.1316	0.3738	0.081
Mof_C 	C 	0.3099	0.1783	0.04047	0.082
Mof_C 	C 	0.1627	0.8065	0.9157	-0.131
Mof_C 	C 	0.2791	0.2711	0.17823	-0.123
Mof_C 	C 	0.7714	0.2225	0.95377	0.072
Mof_C 	C 	0.3405	0.5733	0.8317	0.362
Mof_C 	C 	0.9548	0.134	0.3692	-0.024
Mof_C 	C 	0.0893	0.0154	0.8505	-0.002
Mof_C 	C 	0.2803	0.8045	0.8792	-0.139
Mof_C 	C 	0.8572	0.0509	0.99667	-0.021
Mof_C 	C 	0.8157	0.679	0.3307	0.081
Mof_C 	C 	0.8838	0.2745	0.8107	-0.128
Mof_C 	C 	0.3653	0.0558	0.52277	0.056
Mof_C 	C 	0.0558	0.6905	0.3561	0.055
Mof_C 	C 	0.2538	0.8745	0.06527	-0.124
Mof_C 	C 	0.7148	0.9988	0.02937	-0.131
Mof_C 	C 	0.8147	0.534	0.9112	0.378
Mof_C 	C 	0.5708	0.7047	0.50437	0.06
Mof_C 	C 	0.486	0.1993	0.66213	-0.147
Mof_C 	C 	0.2745	0.3907	0.64403	-0.128
Mof_C 	C 	0.9988	0.284	0.8627	-0.125
Mof_C 	C 	0.008	0.2791	0.3449	-0.122
Mof_C 	C 	0.0452	0.866	0.8692	-0.024
Mof_C 	C 	0.8007	0.2867	0.99547	-0.143
Mof_C 	C 	0.523	0.8206	0.97037	0.389
Mof_C 	C 	0.2328	0.6595	0.49837	0.362
Mof_C 	C 	0.716	0.7148	0.19603	-0.125
Mof_C 	C 	0.534	0.7193	0.74453	0.378
Mof_C 	C 	0.466	0.2807	0.24453	0.378
Mof_C 	C 	0.3208	0.1889	0.26433	0.051
Mof_C 	C 	0.4292	0.2953	0.00437	0.052
Mof_C 	C 	0.4367	0.6668	0.54677	0.349
Mof_C 	C 	0.7255	0.6093	0.14403	-0.129
Mof_C 	C 	0.0123	0.2196	0.3786	0.075
Mof_C 	C 	0.7133	0.514	0.3288	-0.147
Mof_C 	C 	0.514	0.8007	0.16213	-0.148
Mof_C 	C 	0.1197	0.7837	0.2696	0.046
Mof_C 	C 	0.1162	0.7255	0.3107	-0.128
Mof_C 	C 	0.2301	0.5633	0.21343	0.349
Mof_C 	C 	0.7024	0.523	0.13703	0.383
Mof_C 	C 	0.7707	0.9951	0.98977	0.081
Mof_C 	C 	0.1367	0.8157	0.49737	0.081
Mof_C 	C 	0.1783	0.8684	0.8738	0.081
Mof_C 	C 	0.7462	0.1255	0.56527	-0.125
Mof_C 	C 	0.1792	0.0452	0.03587	-0.025
Mof_C 	C 	0.2493	0.3563	0.8726	-0.131
Mof_C 	C 	0.1955	0.4758	0.21253	-0.141
Mof_C 	C 	0.9491	0.8063	0.33	-0.025
Mof_C 	C 	0.1853	0.466	0.4112	0.378
Mof_C 	C 	0.1255	0.3793	0.3986	-0.125
Mof_C 	C 	0.6093	0.8838	0.97737	-0.123
Mof_C 	C 	0.5733	0.2328	0.66503	0.362
Mof_C 	C 	0.2163	0.336	0.60293	0.046
Mof_C 	C 	0.7	0.562	0.372	0.059
Mof_C 	C 	0.641	0.7063	0.68823	0.052
Mof_C 	C 	0.0154	0.9261	0.68383	-0.003
Mof_C 	C 	0.2244	0.2293	0.65643	0.075
Mof_C 	C 	0.8681	0.6792	0.931	0.051
Mof_C 	C 	0.6313	0.8022	0.12143	-0.135
Mof_C 	C 	0.4267	0.7672	0.16503	0.362
Mof_C 	C 	0.3095	0.3653	0.68943	0.056
Mof_C 	C 	0.0059	0.0904	0.01117	-0.001
Mof_C 	C 	0.8348	0.0759	0.58777	-0.123
Mof_C 	C 	0.6438	0.8373	0.58237	-0.132
Mof_C 	C 	0.6526	0.7538	0.50187	-0.132
Mof_C 	C 	0.477	0.1794	0.47037	0.383
Mof_C 	C 	0.9877	0.7804	0.8786	0.075
Mof_C 	C 	0.8111	0.1319	0.59767	0.051
Mof_C 	C 	0.4385	0.2122	0.08487	0.063
Mof_C 	C 	0.869	0.7663	0.3326	-0.026
Mof_C 	C 	0.5615	0.7878	0.58487	0.064
Mof_C 	C 	0.134	0.1792	0.20253	-0.024
Mof_C 	C 	0.321	0.1367	0.66403	0.081
Mof_C 	C 	0.9027	0.7778	0.70093	-0.026
Mof_C 	C 	0.8745	0.6207	0.8986	-0.124
Mof_C 	C 	0.7451	0.9363	0.94267	-0.122
Mof_C 	C 	0.2225	0.4511	0.7871	0.071
Mof_C 	C 	0.1339	0.4292	0.17103	0.06
Mof_C 	C 	0.5633	0.3332	0.04677	0.348
Mof_C 	C 	0.8373	0.1935	0.4157	-0.132
Mof_C 	C 	0.9846	0.0739	0.18383	-0.003
Mof_C 	C 	0.562	0.862	0.20533	0.059
Mof_C 	C 	0.7699	0.4367	0.71343	0.349
Mof_C 	C 	0.2549	0.0637	0.44267	-0.122
Mof_C 	C 	0.0012	0.716	0.3627	-0.125
Mof_C 	C 	0.2073	0.9877	0.04527	0.076
Mof_C 	C 	0.9096	0.9155	0.3445	-0.003
Mof_C 	C 	0.9363	0.1912	0.776	-0.122
Mof_C 	C 	0.8022	0.1709	0.95477	-0.136
Mof_C 	C 	0.8684	0.6901	0.70713	0.081
Mof_C 	C 	0.8973	0.131	0.99927	-0.023
Mof_C 	C 	0.0653	0.359	0.3549	0.052
Mof_C 	C 	0.2411	0.1652	0.25443	-0.123
Mof_C 	C 	0.1993	0.7133	0.49547	-0.147
Mof_C 	C 	0.6595	0.4267	0.3317	0.362
Mof_C 	C 	0.7672	0.3405	0.99837	0.368
Mof_C 	C 	0.0759	0.2411	0.4211	-0.123
Mof_C 	C 	0.7804	0.7927	0.71193	0.075
Mof_C 	C 	0.8633	0.1843	0.99737	0.088
Mof_C 	C 	0.8661	0.5708	0.67103	0.06
Mof_C 	C 	0.7778	0.8751	0.53427	-0.026
Mof_C 	C 	0.2711	0.992	0.01157	-0.13
Mof_C 	C 	0.438	0.138	0.70533	0.059
Mof_C 	C 	0.2293	0.0049	0.48977	0.075
Mof_C 	C 	0.2337	0.1027	0.66593	-0.026
Mof_C 	C 	0.8988	0.6526	0.66853	-0.132
Mof_C 	C 	0.6792	0.8111	0.76433	0.051
Mof_C 	C 	0.3562	0.1627	0.08237	-0.133
Mof_C 	C 	0.7589	0.8348	0.75443	-0.123
Mof_C 	C 	0.8088	0.7451	0.10933	-0.122
Mof_C 	C 	0.8751	0.0973	0.3676	-0.026
Mof_C 	C 	0.359	0.2937	0.18823	0.052
Mof_C 	C 	0.8291	0.6313	0.2881	-0.135
Mof_C 	C 	0.9941	0.9096	0.51117	-0.003
Mof_C 	C 	0.8803	0.2163	0.7696	0.046
Mof_C 	C 	0.7197	0.1955	0.3792	-0.14
Mof_C 	C 	0.9951	0.2244	0.8231	0.075
Mof_C 	C 	0.3	0.438	0.872	0.059
Mof_C 	C 	0.7737	0.5615	0.75153	0.064
Mof_C 	C 	0.1935	0.3562	0.24903	-0.132
Mof_C 	C 	0.2222	0.1249	0.03427	-0.027
Mof_C 	C 	0.7047	0.1339	0.3377	0.06
Mof_C 	C 	0.1012	0.3474	0.16853	-0.132
Mof_C 	C 	0.992	0.7209	0.8449	-0.122
Mof_C 	C 	0.9107	0.9846	0.3505	-0.003
Mof_C 	C 	0.1978	0.8291	0.45477	-0.135
Mof_C 	C 	0.4758	0.2803	0.04587	-0.138
Mof_C 	C 	0.7837	0.664	0.10293	0.046
Mof_C 	C 	0.664	0.8803	0.93627	0.046
Mof_C 	C 	0.9347	0.641	0.8549	0.052
Mof_C 	C 	0.6347	0.9442	0.02277	0.05
Mof_C 	C 	0.2286	0.7775	0.45377	0.071
Mof_C 	C 	0.3687	0.1978	0.62143	-0.135
Mof_C 	C 	0.0509	0.1937	0.83	-0.024
Mof_C 	C 	0.138	0.7	0.53867	0.059
Mof_C 	C 	0.0637	0.8088	0.276	-0.122
Mof_C 	C 	0.1912	0.2549	0.60933	-0.122
Mof_C 	C 	0.8208	0.9548	0.53587	-0.024
Mof_C 	C 	0.7209	0.7289	0.67823	-0.123
Mof_C 	C 	0.2976	0.477	0.63703	0.383
Mof_C 	C 	0.1889	0.8681	0.09767	0.05
Mof_C 	C 	0.1937	0.1428	0.66333	-0.025
Mof_C 	C 	0.8206	0.2976	0.8037	0.383
Mof_C 	C 	0.107	0.7507	0.53927	-0.131
Mof_C 	C 	0.7507	0.6437	0.3726	-0.131
Mof_C 	C 	0.8045	0.5242	0.71253	-0.14
Mof_C 	C 	0.7538	0.1012	0.3352	-0.132
Mof_S 	S 	0.07612	0.07649	0.18942	-0.002
Mof_S 	S 	0.83167	0.82426	0.52305	-0.007
Mof_S 	S 	0.99799	0.82116	0.50681	-0.007
Mof_S 	S 	0.92351	0.99963	0.52276	-0.003
Mof_S 	S 	0.9971	0.91073	0.33573	-0.003
Mof_S 	S 	0.82116	0.82317	0.34014	-0.007
Mof_S 	S 	0.00201	0.17884	0.00681	-0.013
Mof_S 	S 	0.82426	0.99259	0.35638	-0.007
Mof_S 	S 	0.08637	0.9971	0.5024	-0.003
Mof_S 	S 	0.17884	0.17683	0.84014	-0.005
Mof_S 	S 	0.0029	0.08927	0.83573	-0.002
Mof_S 	S 	0.08927	0.08637	0.66906	-0.003
Mof_S 	S 	0.17683	0.99799	0.67347	-0.007
Mof_S 	S 	0.99963	0.07612	0.35609	-0.003
Mof_S 	S 	0.91363	0.0029	0.0024	-0.011
Mof_S 	S 	0.82317	0.00201	0.17347	-0.008
Mof_S 	S 	0.99259	0.16833	0.18971	-0.008
Mof_S 	S 	0.92388	0.92351	0.68942	-0.003
Mof_S 	S 	0.00741	0.83167	0.68971	-0.007
Mof_S 	S 	0.16833	0.17574	0.02305	-0.01
Mof_S 	S 	0.17574	0.00741	0.85638	-0.006
Mof_S 	S 	0.91073	0.91363	0.16906	-0.003
Mof_S 	S 	0.07649	0.00037	0.02276	-0.005
Mof_S 	S 	0.00037	0.92388	0.85609	-0.002
Mof_O 	O 	0.3288	0.8127	0.03967	-0.438
Mof_O 	O 	0.7377	0.5079	0.09323	-0.465
Mof_O 	O 	0.6155	0.2107	0.3359	-0.436
Mof_O 	O 	0.3896	0.6031	0.8775	-0.428
Mof_O 	O 	0.3969	0.7865	0.21083	-0.429
Mof_O 	O 	0.8207	0.3482	0.8412	-0.426
Mof_O 	O 	0.5216	0.7497	0.79473	-0.451
Mof_O 	O 	0.2818	0.6624	0.45657	-0.512
Mof_O 	O 	0.5952	0.3845	0.00257	-0.438
Mof_O 	O 	0.1873	0.5161	0.373	-0.437
Mof_O 	O 	0.5275	0.1793	0.50787	-0.426
Mof_O 	O 	0.6712	0.1873	0.53967	-0.437
Mof_O 	O 	0.2135	0.6104	0.54417	-0.429
Mof_O 	O 	0.4839	0.6712	0.70633	-0.437
Mof_O 	O 	0.7893	0.4048	0.66923	-0.435
Mof_O 	O 	0.4725	0.8207	0.00787	-0.432
Mof_O 	O 	0.4921	0.2298	0.42657	-0.464
Mof_O 	O 	0.2623	0.4921	0.59323	-0.464
Mof_O 	O 	0.6735	0.2805	0.4239	-0.486
Mof_O 	O 	0.4784	0.2503	0.29473	-0.451
Mof_O 	O 	0.3265	0.7195	0.9239	-0.483
Mof_O 	O 	0.1793	0.6518	0.3412	-0.426
Mof_O 	O 	0.5079	0.7702	0.92657	-0.464
Mof_O 	O 	0.6624	0.3806	0.2899	-0.512
Mof_O 	O 	0.7702	0.2623	0.7599	-0.464
Mof_O 	O 	0.7865	0.3896	0.04417	-0.435
Mof_O 	O 	0.7719	0.5216	0.9614	-0.448
Mof_O 	O 	0.4048	0.6155	0.50257	-0.435
Mof_O 	O 	0.6194	0.2818	0.62323	-0.511
Mof_O 	O 	0.7195	0.393	0.75723	-0.485
Mof_O 	O 	0.3845	0.7893	0.8359	-0.435
Mof_O 	O 	0.6031	0.2135	0.71083	-0.429
Mof_O 	O 	0.3376	0.6194	0.7899	-0.511
Mof_O 	O 	0.2107	0.5952	0.16923	-0.436
Mof_O 	O 	0.607	0.3265	0.09057	-0.486
Mof_O 	O 	0.2805	0.607	0.25723	-0.486
Mof_O 	O 	0.8127	0.4839	0.873	-0.436
Mof_O 	O 	0.5161	0.3288	0.20633	-0.437
Mof_O 	O 	0.393	0.6735	0.59057	-0.486
Mof_O 	O 	0.7182	0.3376	0.95657	-0.511
Mof_O 	O 	0.6104	0.3969	0.3775	-0.429
Mof_O 	O 	0.2298	0.7377	0.2599	-0.464
Mof_O 	O 	0.6518	0.4725	0.17453	-0.427
Mof_O 	O 	0.3482	0.5275	0.67453	-0.426
Mof_O 	O 	0.2503	0.7719	0.12807	-0.451
Mof_O 	O 	0.3806	0.7182	0.12323	-0.512
Mof_O 	O 	0.7497	0.2281	0.62807	-0.451
Mof_O 	O 	0.2281	0.4784	0.4614	-0.451
_end
