# CIF file generated by openbabel 3.1.0, see https://openbabel.org
data_I
_chemical_name_common 'image0'
_cell_length_a 12.7593
_cell_length_b 15.0296
_cell_length_c 16.9098
_cell_angle_alpha 114.509
_cell_angle_beta 94.816
_cell_angle_gamma 90.432
_space_group_name_H-M_alt 'P 1'
_space_group_name_Hall 'P 1'
loop_
    _symmetry_equiv_pos_as_xyz
    x,y,z
loop_
    _atom_site_label
    _atom_site_type_symbol
    _atom_site_fract_x
    _atom_site_fract_y
    _atom_site_fract_z
    _atom_site_occupancy
    C1       C        0.83990    0.04050    0.59250    1.000
    H1       H        0.86870    0.97450    0.56840    1.000
    H2       H        0.76230    0.03310    0.58040    1.000
    C2       C        0.87010    0.09100    0.69050    1.000
    H3       H        0.94600    0.11060    0.70080    1.000
    H4       H        0.85930    0.04350    0.71600    1.000
    C3       C        0.80820    0.18130    0.73790    1.000
    H5       H        0.82540    0.23340    0.71900    1.000
    H6       H        0.73170    0.16460    0.72410    1.000
    C4       C        0.83760    0.21660    0.83510    1.000
    H7       H        0.82640    0.16250    0.85290    1.000
    H8       H        0.91280    0.23870    0.84950    1.000
    C5       C        0.78550    0.33390    0.96980    1.000
    C6       C        0.84980    0.29300    0.01590    1.000
    H9       H        0.88830    0.23710    0.98560    1.000
    C7       C        0.85680    0.33550    0.10680    1.000
    C8       C        0.80240    0.41840    0.15200    1.000
    H10      H        0.80710    0.44710    0.21400    1.000
    C9       C        0.74000    0.45890    0.10340    1.000
    C10      C        0.73210    0.41630    0.01340    1.000
    H11      H        0.68950    0.44410    0.98140    1.000
    C11      C        0.68350    0.54970    0.15070    1.000
    C12      C        0.92980    0.29240    0.15410    1.000
    C13      C        0.22380    0.08310    0.15670    1.000
    C14      C        0.29470    0.00320    0.10770    1.000
    C15      C        0.30040    0.97940    0.01970    1.000
    H12      H        0.26340    0.01560    0.99260    1.000
    C16      C        0.36070    0.90260    0.97160    1.000
    C17      C        0.40990    0.84740    0.01140    1.000
    H13      H        0.44780    0.79230    0.97780    1.000
    C18      C        0.40450    0.87140    0.09790    1.000
    C19      C        0.34660    0.95130    0.14920    1.000
    H14      H        0.34340    0.96880    0.20980    1.000
    C20      C        0.45870    0.81150    0.14190    1.000
    C21      C        0.33640    0.94040    0.84680    1.000
    H15      H        0.36800    0.00720    0.88090    1.000
    H16      H        0.25890    0.94330    0.84620    1.000
    C22      C        0.36790    0.90020    0.75460    1.000
    H17      H        0.44500    0.89300    0.75640    1.000
    H18      H        0.35110    0.94790    0.72950    1.000
    C23      C        0.31320    0.80150    0.69490    1.000
    H19      H        0.33650    0.75160    0.71580    1.000
    H20      H        0.23620    0.80630    0.69780    1.000
    C24      C        0.33760    0.76930    0.60100    1.000
    H21      H        0.30890    0.81520    0.57720    1.000
    H22      H        0.41470    0.76760    0.59730    1.000
    C25      C        0.30050    0.62680    0.46560    1.000
    C26      C        0.35950    0.66490    0.42060    1.000
    H23      H        0.39660    0.72650    0.45040    1.000
    C27      C        0.36340    0.61090    0.33050    1.000
    C28      C        0.30830    0.52100    0.28540    1.000
    H24      H        0.30910    0.48670    0.22400    1.000
    C29      C        0.25250    0.48250    0.33140    1.000
    C30      C        0.24750    0.53420    0.42190    1.000
    H25      H        0.20900    0.50720    0.45300    1.000
    C31      C        0.19640    0.38490    0.28720    1.000
    C32      C        0.43380    0.64940    0.28490    1.000
    O1       O        0.77360    0.29550    0.88050    1.000
    O2       O        0.64470    0.59630    0.10690    1.000
    O3       O        0.67380    0.58240    0.23070    1.000
    O4       O        0.94440    0.32890    0.23640    1.000
    O5       O        0.98220    0.22050    0.10910    1.000
    O6       O        0.16650    0.11990    0.11470    1.000
    O7       O        0.22120    0.11330    0.23770    1.000
    O8       O        0.47150    0.84290    0.22230    1.000
    O9       O        0.49520    0.73060    0.09310    1.000
    O10      O        0.37430    0.87520    0.88560    1.000
    O11      O        0.28850    0.67250    0.55240    1.000
    O12      O        0.17800    0.34620    0.20600    1.000
    O13      O        0.16710    0.34160    0.33230    1.000
    O14      O        0.43470    0.60690    0.20240    1.000
    O15      O        0.49610    0.72110    0.32770    1.000
    C33      C        0.97360    0.12050    0.28940    1.000
    C34      C        0.91750    0.06870    0.33130    1.000
    C35      C        0.92370    0.10630    0.42170    1.000
    H26      H        0.96430    0.16510    0.45600    1.000
    C36      C        0.86960    0.05740    0.46300    1.000
    C37      C        0.80860    0.97330    0.41160    1.000
    H27      H        0.77170    0.94000    0.43850    1.000
    C38      C        0.80080    0.93750    0.32150    1.000
    C39      C        0.85460    0.98270    0.28120    1.000
    H28      H        0.84980    0.95640    0.21930    1.000
    C40      C        0.72720    0.85110    0.26930    1.000
    O16      O        0.97270    0.08740    0.20700    1.000
    O17      O        0.02550    0.19970    0.33470    1.000
    O18      O        0.70240    0.82820    0.19070    1.000
    O19      O        0.68780    0.80600    0.30930    1.000
    O20      O        0.88230    0.09960    0.55180    1.000
    In1      In       0.08178    0.21821    0.22132    1.000
    In2      In       0.57124    0.71066    0.20879    1.000
    C41      C        0.16010    0.95950    0.40750    1.000
    H29      H        0.13130    0.02550    0.43160    1.000
    H30      H        0.23770    0.96690    0.41960    1.000
    C42      C        0.12990    0.90900    0.30950    1.000
    H31      H        0.05400    0.88940    0.29920    1.000
    H32      H        0.14070    0.95650    0.28400    1.000
    C43      C        0.19180    0.81870    0.26210    1.000
    H33      H        0.17460    0.76660    0.28100    1.000
    H34      H        0.26830    0.83540    0.27590    1.000
    C44      C        0.16240    0.78340    0.16490    1.000
    H35      H        0.17360    0.83750    0.14710    1.000
    H36      H        0.08720    0.76130    0.15050    1.000
    C45      C        0.21450    0.66610    0.03020    1.000
    C46      C        0.15020    0.70700    0.98410    1.000
    H37      H        0.11170    0.76290    0.01440    1.000
    C47      C        0.14320    0.66450    0.89320    1.000
    C48      C        0.19760    0.58160    0.84800    1.000
    H38      H        0.19290    0.55290    0.78600    1.000
    C49      C        0.26000    0.54110    0.89660    1.000
    C50      C        0.26790    0.58370    0.98660    1.000
    H39      H        0.31050    0.55590    0.01860    1.000
    C51      C        0.31650    0.45030    0.84930    1.000
    C52      C        0.07020    0.70760    0.84590    1.000
    C53      C        0.77620    0.91690    0.84330    1.000
    C54      C        0.70530    0.99680    0.89230    1.000
    C55      C        0.69960    0.02060    0.98030    1.000
    H40      H        0.73660    0.98440    0.00740    1.000
    C56      C        0.63930    0.09740    0.02840    1.000
    C57      C        0.59010    0.15260    0.98860    1.000
    H41      H        0.55220    0.20770    0.02220    1.000
    C58      C        0.59550    0.12860    0.90210    1.000
    C59      C        0.65340    0.04870    0.85080    1.000
    H42      H        0.65660    0.03120    0.79020    1.000
    C60      C        0.54130    0.18850    0.85810    1.000
    C61      C        0.66360    0.05960    0.15320    1.000
    H43      H        0.63200    0.99280    0.11910    1.000
    H44      H        0.74110    0.05670    0.15380    1.000
    C62      C        0.63210    0.09980    0.24540    1.000
    H45      H        0.55500    0.10700    0.24360    1.000
    H46      H        0.64890    0.05210    0.27050    1.000
    C63      C        0.68680    0.19850    0.30510    1.000
    H47      H        0.66350    0.24840    0.28420    1.000
    H48      H        0.76380    0.19370    0.30220    1.000
    C64      C        0.66240    0.23070    0.39900    1.000
    H49      H        0.69110    0.18480    0.42280    1.000
    H50      H        0.58530    0.23240    0.40270    1.000
    C65      C        0.69950    0.37320    0.53440    1.000
    C66      C        0.64050    0.33510    0.57940    1.000
    H51      H        0.60340    0.27350    0.54960    1.000
    C67      C        0.63660    0.38910    0.66950    1.000
    C68      C        0.69170    0.47900    0.71460    1.000
    H52      H        0.69090    0.51330    0.77600    1.000
    C69      C        0.74750    0.51750    0.66860    1.000
    C70      C        0.75250    0.46580    0.57810    1.000
    H53      H        0.79100    0.49280    0.54700    1.000
    C71      C        0.80360    0.61510    0.71280    1.000
    C72      C        0.56620    0.35060    0.71510    1.000
    O21      O        0.22640    0.70450    0.11950    1.000
    O22      O        0.35530    0.40370    0.89310    1.000
    O23      O        0.32620    0.41760    0.76930    1.000
    O24      O        0.05560    0.67110    0.76360    1.000
    O25      O        0.01780    0.77950    0.89090    1.000
    O26      O        0.83350    0.88010    0.88530    1.000
    O27      O        0.77880    0.88670    0.76230    1.000
    O28      O        0.52850    0.15710    0.77770    1.000
    O29      O        0.50480    0.26940    0.90690    1.000
    O30      O        0.62570    0.12480    0.11440    1.000
    O31      O        0.71150    0.32750    0.44760    1.000
    O32      O        0.82200    0.65380    0.79400    1.000
    O33      O        0.83290    0.65840    0.66770    1.000
    O34      O        0.56530    0.39310    0.79760    1.000
    O35      O        0.50390    0.27890    0.67230    1.000
    C73      C        0.02640    0.87950    0.71060    1.000
    C74      C        0.08250    0.93130    0.66870    1.000
    C75      C        0.07630    0.89370    0.57830    1.000
    H54      H        0.03570    0.83490    0.54400    1.000
    C76      C        0.13040    0.94260    0.53700    1.000
    C77      C        0.19140    0.02670    0.58840    1.000
    H55      H        0.22830    0.06000    0.56150    1.000
    C78      C        0.19920    0.06250    0.67850    1.000
    C79      C        0.14540    0.01730    0.71880    1.000
    H56      H        0.15020    0.04360    0.78070    1.000
    C80      C        0.27280    0.14890    0.73070    1.000
    O36      O        0.02730    0.91260    0.79300    1.000
    O37      O        0.97450    0.80030    0.66530    1.000
    O38      O        0.29760    0.17180    0.80930    1.000
    O39      O        0.31220    0.19400    0.69070    1.000
    O40      O        0.11770    0.90040    0.44820    1.000
    In3      In       0.91822    0.78179    0.77868    1.000
    In4      In       0.42876    0.28934    0.79121    1.000
