data_functionalizedCrystal
_audit_creation_method	'EQeq! by Chris Wilmer'
_symmetry_space_group_name_H-M	'P1'
_symmetry_Int_Tables_number	1
_symmetry_cell_setting	triclinic
loop_
_symmetry_equiv_pos_as_xyz
  x,y,z
_cell_length_a	11.966
_cell_length_b	19.2155
_cell_length_c	19.2155
_cell_angle_alpha	84.4366
_cell_angle_beta	71.8586
_cell_angle_gamma	71.8586
loop_
_atom_site_label
_atom_site_type_symbol
_atom_site_fract_x
_atom_site_fract_y
_atom_site_fract_z
_atom_site_charge
Mof_Tb	Tb	0.48132	0.20114	0.63722	2.424
Mof_Tb	Tb	0.42976	0.02148	0.6053	2.229
Mof_Tb	Tb	0.81967	0.29886	0.86278	2.426
Mof_Tb	Tb	0.55654	0.47852	0.8947	2.233
Mof_Tb	Tb	0.11853	0.36278	0.70115	2.421
Mof_Tb	Tb	0.03506	0.3947	0.52148	2.232
Mof_Tb	Tb	0.68246	0.13722	0.79885	2.425
Mof_Tb	Tb	0.45124	0.1053	0.97852	2.21
Mof_Tb	Tb	0.51868	0.79886	0.36278	2.425
Mof_Tb	Tb	0.57024	0.97852	0.3947	2.23
Mof_Tb	Tb	0.18033	0.70114	0.13722	2.427
Mof_Tb	Tb	0.44346	0.52148	0.1053	2.234
Mof_Tb	Tb	0.88147	0.63722	0.29885	2.422
Mof_Tb	Tb	0.96494	0.6053	0.47852	2.233
Mof_Tb	Tb	0.31754	0.86278	0.20115	2.425
Mof_Tb	Tb	0.54876	0.8947	0.02148	2.21
Mof_H 	H 	0.6487	0.2102	0.4396	0.149
Mof_H 	H 	0.7657	0.1436	0.4374	0.159
Mof_H 	H 	0.7993	0.0929	0.5499	0.127
Mof_H 	H 	0.8609	0.1561	0.5357	0.138
Mof_H 	H 	0.5435	0.9407	0.7753	0.125
Mof_H 	H 	0.6766	0.9123	0.7213	0.141
Mof_H 	H 	0.4613	0.8387	0.6827	0.122
Mof_H 	H 	0.4839	0.8498	0.7566	0.125
Mof_H 	H 	0.0528	0.1501	0.6705	0.157
Mof_H 	H 	0.1178	0.0996	0.7248	0.146
Mof_H 	H 	0.0991	0.0736	0.5516	0.136
Mof_H 	H 	0.1466	0.1415	0.5483	0.127
Mof_H 	H 	0.6935	0.2366	0.5302	0.085
Mof_H 	H 	0.6096	0.8866	0.6426	0.078
Mof_H 	H 	0.1691	0.0269	0.6359	0.082
Mof_H 	H 	0.7985	0.2898	0.0604	0.149
Mof_H 	H 	0.8467	0.3564	0.0626	0.158
Mof_H 	H 	0.9421	0.4071	0.9501	0.122
Mof_H 	H 	0.0527	0.3439	0.9643	0.129
Mof_H 	H 	0.7595	0.5593	0.7247	0.125
Mof_H 	H 	0.8102	0.5877	0.7787	0.142
Mof_H 	H 	0.4827	0.6613	0.8173	0.123
Mof_H 	H 	0.5903	0.6502	0.7434	0.125
Mof_H 	H 	0.3734	0.3499	0.8295	0.158
Mof_H 	H 	0.4422	0.4004	0.7752	0.148
Mof_H 	H 	0.2243	0.4264	0.9484	0.136
Mof_H 	H 	0.3364	0.3585	0.9517	0.127
Mof_H 	H 	0.9603	0.2634	0.9698	0.087
Mof_H 	H 	0.6388	0.6134	0.8574	0.078
Mof_H 	H 	0.3319	0.4731	0.8641	0.083
Mof_H 	H 	0.0883	0.5604	0.7102	0.148
Mof_H 	H 	0.2031	0.5626	0.6436	0.158
Mof_H 	H 	0.3492	0.4501	0.5929	0.126
Mof_H 	H 	0.3966	0.4643	0.6561	0.138
Mof_H 	H 	0.3188	0.2247	0.4407	0.125
Mof_H 	H 	0.3979	0.2787	0.4123	0.142
Mof_H 	H 	0.144	0.3173	0.3387	0.123
Mof_H 	H 	0.2405	0.2434	0.3498	0.125
Mof_H 	H 	0.7233	0.3295	0.6501	0.158
Mof_H 	H 	0.8426	0.2752	0.5996	0.148
Mof_H 	H 	0.6507	0.4484	0.5736	0.136
Mof_H 	H 	0.6949	0.4517	0.6415	0.128
Mof_H 	H 	0.2237	0.4698	0.7366	0.085
Mof_H 	H 	0.2522	0.3574	0.3866	0.078
Mof_H 	H 	0.805	0.3641	0.5269	0.083
Mof_H 	H 	0.8589	0.9396	0.7898	0.149
Mof_H 	H 	0.9093	0.9374	0.8564	0.16
Mof_H 	H 	0.8922	0.0499	0.9071	0.122
Mof_H 	H 	0.017	0.0357	0.8439	0.129
Mof_H 	H 	0.4842	0.2753	0.0593	0.124
Mof_H 	H 	0.5889	0.2213	0.0877	0.141
Mof_H 	H 	0.3	0.1827	0.1613	0.122
Mof_H 	H 	0.3337	0.2566	0.1502	0.125
Mof_H 	H 	0.2029	0.1705	0.8499	0.157
Mof_H 	H 	0.2174	0.2248	0.9004	0.147
Mof_H 	H 	0.1727	0.0516	0.9264	0.136
Mof_H 	H 	0.2881	0.0483	0.8585	0.129
Mof_H 	H 	0.9301	0.0302	0.7634	0.086
Mof_H 	H 	0.4962	0.1426	0.1134	0.078
Mof_H 	H 	0.196	0.1359	0.9731	0.079
Mof_H 	H 	0.3513	0.7898	0.5604	0.149
Mof_H 	H 	0.2343	0.8564	0.5626	0.159
Mof_H 	H 	0.2007	0.9071	0.4501	0.127
Mof_H 	H 	0.1391	0.8439	0.4643	0.138
Mof_H 	H 	0.4565	0.0593	0.2247	0.125
Mof_H 	H 	0.3234	0.0877	0.2787	0.141
Mof_H 	H 	0.5387	0.1613	0.3173	0.122
Mof_H 	H 	0.5161	0.1502	0.2434	0.125
Mof_H 	H 	0.9472	0.8499	0.3295	0.157
Mof_H 	H 	0.8822	0.9004	0.2752	0.146
Mof_H 	H 	0.9009	0.9264	0.4484	0.136
Mof_H 	H 	0.8534	0.8585	0.4517	0.127
Mof_H 	H 	0.3065	0.7634	0.4698	0.085
Mof_H 	H 	0.3904	0.1134	0.3574	0.078
Mof_H 	H 	0.8309	0.9731	0.3641	0.082
Mof_H 	H 	0.2015	0.7102	0.9396	0.149
Mof_H 	H 	0.1533	0.6436	0.9374	0.158
Mof_H 	H 	0.0579	0.5929	0.0499	0.122
Mof_H 	H 	0.9473	0.6561	0.0357	0.129
Mof_H 	H 	0.2405	0.4407	0.2753	0.125
Mof_H 	H 	0.1898	0.4123	0.2213	0.142
Mof_H 	H 	0.5173	0.3387	0.1827	0.123
Mof_H 	H 	0.4097	0.3498	0.2566	0.125
Mof_H 	H 	0.6266	0.6501	0.1705	0.158
Mof_H 	H 	0.5578	0.5996	0.2248	0.148
Mof_H 	H 	0.7757	0.5736	0.0516	0.136
Mof_H 	H 	0.6636	0.6415	0.0483	0.127
Mof_H 	H 	0.0397	0.7366	0.0302	0.087
Mof_H 	H 	0.3612	0.3866	0.1426	0.078
Mof_H 	H 	0.6681	0.5269	0.1359	0.083
Mof_H 	H 	0.9117	0.4396	0.2898	0.148
Mof_H 	H 	0.7969	0.4374	0.3564	0.158
Mof_H 	H 	0.6508	0.5499	0.4071	0.126
Mof_H 	H 	0.6034	0.5357	0.3439	0.138
Mof_H 	H 	0.6812	0.7753	0.5593	0.125
Mof_H 	H 	0.6021	0.7213	0.5877	0.142
Mof_H 	H 	0.856	0.6827	0.6613	0.123
Mof_H 	H 	0.7595	0.7566	0.6502	0.125
Mof_H 	H 	0.2767	0.6705	0.3499	0.158
Mof_H 	H 	0.1574	0.7248	0.4004	0.148
Mof_H 	H 	0.3493	0.5516	0.4264	0.136
Mof_H 	H 	0.3051	0.5483	0.3585	0.128
Mof_H 	H 	0.7763	0.5302	0.2634	0.085
Mof_H 	H 	0.7478	0.6426	0.6134	0.078
Mof_H 	H 	0.195	0.6359	0.4731	0.083
Mof_H 	H 	0.1411	0.0604	0.2102	0.149
Mof_H 	H 	0.0907	0.0626	0.1436	0.16
Mof_H 	H 	0.1078	0.9501	0.0929	0.122
Mof_H 	H 	0.983	0.9643	0.1561	0.129
Mof_H 	H 	0.5158	0.7247	0.9407	0.124
Mof_H 	H 	0.4111	0.7787	0.9123	0.141
Mof_H 	H 	0.7	0.8173	0.8387	0.122
Mof_H 	H 	0.6663	0.7434	0.8498	0.125
Mof_H 	H 	0.7971	0.8295	0.1501	0.157
Mof_H 	H 	0.7826	0.7752	0.0996	0.147
Mof_H 	H 	0.8273	0.9484	0.0736	0.136
Mof_H 	H 	0.7119	0.9517	0.1415	0.129
Mof_H 	H 	0.0699	0.9698	0.2366	0.086
Mof_H 	H 	0.5038	0.8574	0.8866	0.078
Mof_H 	H 	0.804	0.8641	0.0269	0.079
Mof_C 	C 	0.6057	0.11582	0.47778	0.592
Mof_C 	C 	0.68207	0.1676	0.46646	-0.408
Mof_C 	C 	0.7863	0.1433	0.5617	-0.348
Mof_C 	C 	0.76168	0.15024	0.6426	0.461
Mof_C 	C 	0.59957	0.02277	0.71189	0.594
Mof_C 	C 	0.5941	0.9443	0.7253	-0.37
Mof_C 	C 	0.4591	0.875	0.7152	-0.331
Mof_C 	C 	0.3316	0.9257	0.7413	0.423
Mof_C 	C 	0.20702	0.17405	0.67251	0.642
Mof_C 	C 	0.1321	0.1227	0.6769	-0.421
Mof_C 	C 	0.1695	0.0885	0.5515	-0.346
Mof_C 	C 	0.275	0.0568	0.4854	0.467
Mof_C 	C 	0.6993	0.38418	0.02222	0.592
Mof_C 	C 	0.81613	0.3324	0.03354	-0.408
Mof_C 	C 	0.9913	0.3567	0.9383	-0.33
Mof_C 	C 	0.05452	0.34976	0.8574	0.452
Mof_C 	C 	0.83423	0.47723	0.78811	0.598
Mof_C 	C 	0.7637	0.5557	0.7747	-0.374
Mof_C 	C 	0.5493	0.625	0.7848	-0.332
Mof_C 	C 	0.4986	0.5743	0.7587	0.424
Mof_C 	C 	0.55358	0.32595	0.82749	0.643
Mof_C 	C 	0.4317	0.3773	0.8231	-0.422
Mof_C 	C 	0.3095	0.4115	0.9485	-0.35
Mof_C 	C 	0.3172	0.4432	0.0146	0.471
Mof_C 	C 	0.08348	0.52222	0.61582	0.592
Mof_C 	C 	0.14853	0.53354	0.6676	-0.408
Mof_C 	C 	0.348	0.4383	0.6433	-0.347
Mof_C 	C 	0.40428	0.3574	0.65024	0.46
Mof_C 	C 	0.31146	0.28811	0.52277	0.598
Mof_C 	C 	0.3194	0.2747	0.4443	-0.375
Mof_C 	C 	0.1743	0.2848	0.375	-0.332
Mof_C 	C 	0.0729	0.2587	0.4257	0.424
Mof_C 	C 	0.87953	0.32749	0.67405	0.643
Mof_C 	C 	0.809	0.3231	0.6227	-0.422
Mof_C 	C 	0.721	0.4485	0.5885	-0.346
Mof_C 	C 	0.7604	0.5146	0.5568	0.468
Mof_C 	C 	0.72152	0.97778	0.88418	0.599
Mof_C 	C 	0.84967	0.96646	0.8324	-0.406
Mof_C 	C 	0.9296	0.0617	0.8567	-0.334
Mof_C 	C 	0.91192	0.1426	0.84976	0.457
Mof_C 	C 	0.62234	0.21189	0.97723	0.592
Mof_C 	C 	0.5384	0.2253	0.0557	-0.368
Mof_C 	C 	0.3341	0.2152	0.125	-0.33
Mof_C 	C 	0.2573	0.2413	0.0743	0.422
Mof_C 	C 	0.38107	0.17251	0.82595	0.642
Mof_C 	C 	0.2548	0.1769	0.8773	-0.422
Mof_C 	C 	0.258	0.0515	0.9115	-0.357
Mof_C 	C 	0.3318	0.9854	0.9432	0.476
Mof_C 	C 	0.3943	0.88418	0.52222	0.592
Mof_C 	C 	0.31793	0.8324	0.53354	-0.408
Mof_C 	C 	0.2137	0.8567	0.4383	-0.348
Mof_C 	C 	0.23832	0.84976	0.3574	0.461
Mof_C 	C 	0.40043	0.97723	0.28811	0.594
Mof_C 	C 	0.4059	0.0557	0.2747	-0.37
Mof_C 	C 	0.5409	0.125	0.2848	-0.331
Mof_C 	C 	0.6684	0.0743	0.2587	0.423
Mof_C 	C 	0.79298	0.82595	0.32749	0.642
Mof_C 	C 	0.8679	0.8773	0.3231	-0.421
Mof_C 	C 	0.8305	0.9115	0.4485	-0.346
Mof_C 	C 	0.725	0.9432	0.5146	0.467
Mof_C 	C 	0.3007	0.61582	0.97778	0.592
Mof_C 	C 	0.18387	0.6676	0.96646	-0.408
Mof_C 	C 	0.0087	0.6433	0.0617	-0.33
Mof_C 	C 	0.94548	0.65024	0.1426	0.452
Mof_C 	C 	0.16577	0.52277	0.21189	0.598
Mof_C 	C 	0.2363	0.4443	0.2253	-0.374
Mof_C 	C 	0.4507	0.375	0.2152	-0.332
Mof_C 	C 	0.5014	0.4257	0.2413	0.424
Mof_C 	C 	0.44642	0.67405	0.17251	0.643
Mof_C 	C 	0.5683	0.6227	0.1769	-0.422
Mof_C 	C 	0.6905	0.5885	0.0515	-0.35
Mof_C 	C 	0.6828	0.5568	0.9854	0.471
Mof_C 	C 	0.91652	0.47778	0.38418	0.592
Mof_C 	C 	0.85147	0.46646	0.3324	-0.408
Mof_C 	C 	0.652	0.5617	0.3567	-0.347
Mof_C 	C 	0.59572	0.6426	0.34976	0.46
Mof_C 	C 	0.68854	0.71189	0.47723	0.598
Mof_C 	C 	0.6806	0.7253	0.5557	-0.375
Mof_C 	C 	0.8257	0.7152	0.625	-0.332
Mof_C 	C 	0.9271	0.7413	0.5743	0.424
Mof_C 	C 	0.12047	0.67251	0.32595	0.643
Mof_C 	C 	0.191	0.6769	0.3773	-0.422
Mof_C 	C 	0.279	0.5515	0.4115	-0.346
Mof_C 	C 	0.2396	0.4854	0.4432	0.468
Mof_C 	C 	0.27848	0.02222	0.11582	0.599
Mof_C 	C 	0.15033	0.03354	0.1676	-0.406
Mof_C 	C 	0.0704	0.9383	0.1433	-0.334
Mof_C 	C 	0.08808	0.8574	0.15024	0.457
Mof_C 	C 	0.37766	0.78811	0.02277	0.592
Mof_C 	C 	0.4616	0.7747	0.9443	-0.368
Mof_C 	C 	0.6659	0.7848	0.875	-0.33
Mof_C 	C 	0.7427	0.7587	0.9257	0.422
Mof_C 	C 	0.61893	0.82749	0.17405	0.642
Mof_C 	C 	0.7452	0.8231	0.1227	-0.422
Mof_C 	C 	0.742	0.9485	0.0885	-0.357
Mof_C 	C 	0.6682	0.0146	0.0568	0.476
Mof_N 	N 	0.68353	0.19114	0.537	-0.181
Mof_N 	N 	0.54524	0.91692	0.6758	-0.168
Mof_N 	N 	0.19776	0.06608	0.6196	-0.162
Mof_N 	N 	0.91167	0.30886	0.963	-0.183
Mof_N 	N 	0.63796	0.58308	0.8242	-0.168
Mof_N 	N 	0.38344	0.43392	0.8804	-0.161
Mof_N 	N 	0.22053	0.463	0.69114	-0.181
Mof_N 	N 	0.22104	0.3242	0.41692	-0.168
Mof_N 	N 	0.81736	0.3804	0.56608	-0.162
Mof_N 	N 	0.87467	0.037	0.80886	-0.184
Mof_N 	N 	0.46216	0.1758	0.08308	-0.167
Mof_N 	N 	0.26384	0.1196	0.93392	-0.16
Mof_N 	N 	0.31647	0.80886	0.463	-0.181
Mof_N 	N 	0.45476	0.08308	0.3242	-0.168
Mof_N 	N 	0.80224	0.93392	0.3804	-0.162
Mof_N 	N 	0.08833	0.69114	0.037	-0.183
Mof_N 	N 	0.36204	0.41692	0.1758	-0.168
Mof_N 	N 	0.61656	0.56608	0.1196	-0.161
Mof_N 	N 	0.77947	0.537	0.30886	-0.181
Mof_N 	N 	0.77896	0.6758	0.58308	-0.168
Mof_N 	N 	0.18264	0.6196	0.43392	-0.162
Mof_N 	N 	0.12533	0.963	0.19114	-0.184
Mof_N 	N 	0.53784	0.8242	0.91692	-0.167
Mof_N 	N 	0.73616	0.8804	0.06608	-0.16
Mof_O 	O 	0.5385	0.10946	0.54194	-0.705
Mof_O 	O 	0.61333	0.08317	0.42217	-0.582
Mof_O 	O 	0.6498	0.18032	0.68068	-0.721
Mof_O 	O 	0.84264	0.12597	0.67295	-0.483
Mof_O 	O 	0.53185	0.06424	0.67586	-0.678
Mof_O 	O 	0.66618	0.04025	0.74079	-0.606
Mof_O 	O 	0.2484	0.8966	0.7762	-0.285
Mof_O 	O 	0.31471	0.99128	0.7229	-0.508
Mof_O 	O 	0.32322	0.14769	0.64487	-0.753
Mof_O 	O 	0.15461	0.2362	0.69738	-0.637
Mof_O 	O 	0.2544	0.0448	0.43	-0.36
Mof_O 	O 	0.38467	0.04434	0.48992	-0.674
Mof_O 	O 	0.6899	0.39054	0.95806	-0.706
Mof_O 	O 	0.61867	0.41683	0.07783	-0.583
Mof_O 	O 	0.0108	0.31968	0.81932	-0.722
Mof_O 	O 	0.14156	0.37403	0.82705	-0.482
Mof_O 	O 	0.77195	0.43576	0.82414	-0.679
Mof_O 	O 	0.94722	0.45975	0.75921	-0.605
Mof_O 	O 	0.4212	0.6034	0.7238	-0.287
Mof_O 	O 	0.52889	0.50872	0.7771	-0.512
Mof_O 	O 	0.61578	0.35231	0.85513	-0.753
Mof_O 	O 	0.58819	0.2638	0.80262	-0.637
Mof_O 	O 	0.2292	0.4552	0.07	-0.361
Mof_O 	O 	0.41893	0.45566	0.01008	-0.676
Mof_O 	O 	0.08044	0.45806	0.60946	-0.706
Mof_O 	O 	0.0355	0.57783	0.58317	-0.583
Mof_O 	O 	0.33048	0.31932	0.68032	-0.721
Mof_O 	O 	0.51559	0.32705	0.62597	-0.484
Mof_O 	O 	0.20771	0.32414	0.56424	-0.679
Mof_O 	O 	0.40697	0.25921	0.54025	-0.606
Mof_O 	O 	0.0246	0.2238	0.3966	-0.287
Mof_O 	O 	0.03761	0.2771	0.49128	-0.512
Mof_O 	O 	0.96809	0.35513	0.64769	-0.752
Mof_O 	O 	0.85199	0.30262	0.7362	-0.637
Mof_O 	O 	0.6844	0.57	0.5448	-0.361
Mof_O 	O 	0.87459	0.51008	0.54434	-0.675
Mof_O 	O 	0.64796	0.04194	0.89054	-0.709
Mof_O 	O 	0.6965	0.92217	0.91683	-0.579
Mof_O 	O 	0.83012	0.18068	0.81968	-0.72
Mof_O 	O 	0.96861	0.17295	0.87403	-0.481
Mof_O 	O 	0.59609	0.17586	0.93576	-0.677
Mof_O 	O 	0.70643	0.24079	0.95975	-0.606
Mof_O 	O 	0.145	0.2762	0.1034	-0.284
Mof_O 	O 	0.30599	0.2229	0.00872	-0.505
Mof_O 	O 	0.47091	0.14487	0.85231	-0.751
Mof_O 	O 	0.39081	0.19738	0.7638	-0.637
Mof_O 	O 	0.2992	0.93	0.9552	-0.36
Mof_O 	O 	0.42901	0.98992	0.95566	-0.668
Mof_O 	O 	0.4615	0.89054	0.45806	-0.705
Mof_O 	O 	0.38667	0.91683	0.57783	-0.582
Mof_O 	O 	0.3502	0.81968	0.31932	-0.721
Mof_O 	O 	0.15736	0.87403	0.32705	-0.483
Mof_O 	O 	0.46815	0.93576	0.32414	-0.678
Mof_O 	O 	0.33382	0.95975	0.25921	-0.606
Mof_O 	O 	0.7516	0.1034	0.2238	-0.285
Mof_O 	O 	0.68529	0.00872	0.2771	-0.508
Mof_O 	O 	0.67678	0.85231	0.35513	-0.753
Mof_O 	O 	0.84539	0.7638	0.30262	-0.637
Mof_O 	O 	0.7456	0.9552	0.57	-0.36
Mof_O 	O 	0.61533	0.95566	0.51008	-0.674
Mof_O 	O 	0.3101	0.60946	0.04194	-0.706
Mof_O 	O 	0.38133	0.58317	0.92217	-0.583
Mof_O 	O 	0.9892	0.68032	0.18068	-0.722
Mof_O 	O 	0.85844	0.62597	0.17295	-0.482
Mof_O 	O 	0.22805	0.56424	0.17586	-0.679
Mof_O 	O 	0.05278	0.54025	0.24079	-0.605
Mof_O 	O 	0.5788	0.3966	0.2762	-0.287
Mof_O 	O 	0.47111	0.49128	0.2229	-0.512
Mof_O 	O 	0.38422	0.64769	0.14487	-0.753
Mof_O 	O 	0.41181	0.7362	0.19738	-0.637
Mof_O 	O 	0.7708	0.5448	0.93	-0.361
Mof_O 	O 	0.58107	0.54434	0.98992	-0.676
Mof_O 	O 	0.91956	0.54194	0.39054	-0.706
Mof_O 	O 	0.9645	0.42217	0.41683	-0.583
Mof_O 	O 	0.66952	0.68068	0.31968	-0.721
Mof_O 	O 	0.48441	0.67295	0.37403	-0.484
Mof_O 	O 	0.79229	0.67586	0.43576	-0.679
Mof_O 	O 	0.59303	0.74079	0.45975	-0.606
Mof_O 	O 	0.9754	0.7762	0.6034	-0.287
Mof_O 	O 	0.96239	0.7229	0.50872	-0.512
Mof_O 	O 	0.03191	0.64487	0.35231	-0.752
Mof_O 	O 	0.14801	0.69738	0.2638	-0.637
Mof_O 	O 	0.3156	0.43	0.4552	-0.361
Mof_O 	O 	0.12541	0.48992	0.45566	-0.675
Mof_O 	O 	0.35204	0.95806	0.10946	-0.709
Mof_O 	O 	0.3035	0.07783	0.08317	-0.579
Mof_O 	O 	0.16988	0.81932	0.18032	-0.72
Mof_O 	O 	0.03139	0.82705	0.12597	-0.481
Mof_O 	O 	0.40391	0.82414	0.06424	-0.677
Mof_O 	O 	0.29357	0.75921	0.04025	-0.606
Mof_O 	O 	0.855	0.7238	0.8966	-0.284
Mof_O 	O 	0.69401	0.7771	0.99128	-0.505
Mof_O 	O 	0.52909	0.85513	0.14769	-0.751
Mof_O 	O 	0.60919	0.80262	0.2362	-0.637
Mof_O 	O 	0.7008	0.07	0.0448	-0.36
Mof_O 	O 	0.57099	0.01008	0.04434	-0.668
_end
