# CIF file generated by openbabel 3.1.0, see https://openbabel.org
data_I
_chemical_name_common 'image0'
_cell_length_a 8.8545
_cell_length_b 10.672
_cell_length_c 15.389
_cell_angle_alpha 76.4
_cell_angle_beta 78.58
_cell_angle_gamma 79.92
_space_group_name_H-M_alt 'P 1'
_space_group_name_Hall 'P 1'
loop_
    _symmetry_equiv_pos_as_xyz
    x,y,z
loop_
    _atom_site_label
    _atom_site_type_symbol
    _atom_site_fract_x
    _atom_site_fract_y
    _atom_site_fract_z
    _atom_site_occupancy
    Ni1      Ni       0.80774    0.92526    0.62692    1.000
    C1       C        0.82430    0.85130    0.45600    1.000
    C2       C        0.81260    0.87060    0.35700    1.000
    H1       H        0.86920    0.94170    0.32330    1.000
    H2       H        0.86400    0.79270    0.33580    1.000
    N1       N        0.65370    0.89870    0.33560    1.000
    C3       C        0.53940    0.98960    0.36040    1.000
    H3       H        0.54920    0.04780    0.39480    1.000
    N2       N        0.41200    0.98640    0.33020    1.000
    C4       C        0.44580    0.88710    0.28500    1.000
    H4       H        0.37700    0.86110    0.25640    1.000
    C5       C        0.59550    0.83170    0.28820    1.000
    H5       H        0.64740    0.76180    0.26290    1.000
    P1       P        0.71541    0.72695    0.53786    1.000
    O1       O        0.77220    0.59710    0.51540    1.000
    O2       O        0.72690    0.75000    0.62940    1.000
    O3       O        0.53750    0.76160    0.52830    1.000
    H6       H        0.52770    0.76300    0.47620    1.000
    P2       P        0.03409    0.81387    0.47125    1.000
    O4       O        0.09100    0.67120    0.47360    1.000
    O5       O        0.03270    0.85410    0.56080    1.000
    O6       O        0.11720    0.90030    0.39110    1.000
    O7       O        0.76540    0.97120    0.48800    1.000
    H7       H        0.82850    0.02590    0.47270    1.000
    N3       N        0.99590    0.52850    0.35920    1.000
    C6       C        0.87960    0.49530    0.33070    1.000
    H8       H        0.81110    0.44490    0.37230    1.000
    C7       C        0.85640    0.53240    0.24220    1.000
    H9       H        0.76900    0.51220    0.22620    1.000
    C8       C        0.95730    0.59700    0.17880    1.000
    C9       C        0.08710    0.62650    0.20720    1.000
    H10      H        0.16220    0.66960    0.16540    1.000
    C10      C        0.10050    0.59060    0.29740    1.000
    H11      H        0.18570    0.61040    0.31600    1.000
    C11      C        0.93050    0.64010    0.08240    1.000
    H12      H        0.87920    0.58390    0.06450    1.000
    C12      C        0.96140    0.73150    0.02420    1.000
    H13      H        0.02100    0.78430    0.03940    1.000
    C13      C        0.92300    0.77460    0.93510    1.000
    C14      C        0.92040    0.89900    0.89050    1.000
    H14      H        0.93910    0.95930    0.92060    1.000
    C15      C        0.89240    0.94200    0.80490    1.000
    H15      H        0.89380    0.02950    0.77800    1.000
    C16      C        0.84410    0.74200    0.80180    1.000
    H16      H        0.80930    0.68580    0.77450    1.000
    C17      C        0.87570    0.69660    0.89170    1.000
    H17      H        0.86350    0.61140    0.92110    1.000
    N4       N        0.86170    0.85880    0.75620    1.000
    Ni2      Ni       0.19226    0.07474    0.37308    1.000
    C18      C        0.17570    0.14870    0.54400    1.000
    C19      C        0.18740    0.12940    0.64300    1.000
    H18      H        0.13080    0.05830    0.67670    1.000
    H19      H        0.13600    0.20730    0.66420    1.000
    N5       N        0.34630    0.10130    0.66440    1.000
    C20      C        0.46060    0.01040    0.63960    1.000
    H20      H        0.45080    0.95220    0.60520    1.000
    N6       N        0.58800    0.01360    0.66980    1.000
    C21      C        0.55420    0.11290    0.71500    1.000
    H21      H        0.62300    0.13890    0.74360    1.000
    C22      C        0.40450    0.16830    0.71180    1.000
    H22      H        0.35260    0.23820    0.73710    1.000
    P3       P        0.28459    0.27305    0.46214    1.000
    O8       O        0.22780    0.40290    0.48460    1.000
    O9       O        0.27310    0.25000    0.37060    1.000
    O10      O        0.46250    0.23840    0.47170    1.000
    H23      H        0.47230    0.23700    0.52380    1.000
    P4       P        0.96591    0.18613    0.52875    1.000
    O11      O        0.90900    0.32880    0.52640    1.000
    O12      O        0.96730    0.14590    0.43920    1.000
    O13      O        0.88280    0.09970    0.60890    1.000
    O14      O        0.23460    0.02880    0.51200    1.000
    H24      H        0.17150    0.97410    0.52730    1.000
    N7       N        0.00410    0.47150    0.64080    1.000
    C23      C        0.12040    0.50470    0.66930    1.000
    H25      H        0.18890    0.55510    0.62770    1.000
    C24      C        0.14360    0.46760    0.75780    1.000
    H26      H        0.23100    0.48780    0.77380    1.000
    C25      C        0.04270    0.40300    0.82120    1.000
    C26      C        0.91290    0.37350    0.79280    1.000
    H27      H        0.83780    0.33040    0.83460    1.000
    C27      C        0.89950    0.40940    0.70260    1.000
    H28      H        0.81430    0.38960    0.68400    1.000
    C28      C        0.06950    0.35990    0.91760    1.000
    H29      H        0.12080    0.41610    0.93550    1.000
    C29      C        0.03860    0.26850    0.97580    1.000
    H30      H        0.97900    0.21570    0.96060    1.000
    C30      C        0.07700    0.22540    0.06490    1.000
    C31      C        0.07960    0.10100    0.10950    1.000
    H31      H        0.06090    0.04070    0.07940    1.000
    C32      C        0.10760    0.05800    0.19510    1.000
    H32      H        0.10620    0.97050    0.22200    1.000
    C33      C        0.15590    0.25800    0.19820    1.000
    H33      H        0.19070    0.31420    0.22550    1.000
    C34      C        0.12430    0.30340    0.10830    1.000
    H34      H        0.13650    0.38860    0.07890    1.000
    N8       N        0.13830    0.14120    0.24380    1.000
    Ni3      Ni       0.00000    0.50000    0.50000    1.000
