data_functionalizedCrystal
_audit_creation_method	'EQeq! by Chris Wilmer'
_symmetry_space_group_name_H-M	'P1'
_symmetry_Int_Tables_number	1
_symmetry_cell_setting	triclinic
loop_
_symmetry_equiv_pos_as_xyz
  x,y,z
_cell_length_a	9.433
_cell_length_b	16.264
_cell_length_c	24.124
_cell_angle_alpha	108.312
_cell_angle_beta	90
_cell_angle_gamma	90
loop_
_atom_site_label
_atom_site_type_symbol
_atom_site_fract_x
_atom_site_fract_y
_atom_site_fract_z
_atom_site_charge
Mof_Ca	Ca	0.99415	0.5	0.75	1.424
Mof_Ca	Ca	-0	0.5	0.5	0.931
Mof_Ca	Ca	-0	0	-0	0.83
Mof_Ca	Ca	-0	0.5	-0	0.871
Mof_Ca	Ca	0.00585	0.5	0.25	1.163
Mof_Ca	Ca	-1.43689e-32	0	0.5	0.888
Mof_Ce	Ce	0.50883	0.70229	0.40331	2.672
Mof_Ce	Ce	0.50883	0.29771	0.09669	2.638
Mof_Ce	Ce	0.49117	0.29771	0.59669	2.67
Mof_Ce	Ce	0.49117	0.70229	0.90331	2.704
Mof_H 	H 	0.367	0.575	0.033	0.001
Mof_H 	H 	0.585	0.172	0.817	0.044
Mof_H 	H 	0.136	0.363	0.69	0.416
Mof_H 	H 	0.2811	0.2902	0.3041	0.031
Mof_H 	H 	0.472	0.976	0.364	0.092
Mof_H 	H 	0.002	0.63	0.291	0.103
Mof_H 	H 	0.321	0.903	0.127	0.044
Mof_H 	H 	0.711	0.636	0.143	0.036
Mof_H 	H 	0.528	0.024	0.636	0.005
Mof_H 	H 	0.585	0.828	0.683	0.049
Mof_H 	H 	0.472	0.024	0.136	0.001
Mof_H 	H 	0.37	0.979	0.934	0.075
Mof_H 	H 	0.679	0.097	0.873	0.03
Mof_H 	H 	0.7189	0.7098	0.6959	0.054
Mof_H 	H 	0.37	0.021	0.566	-0.023
Mof_H 	H 	0.2811	0.7098	0.1959	0.034
Mof_H 	H 	0.377	0.875	0.746	0.047
Mof_H 	H 	0.5336	0.6821	0.0931	0.059
Mof_H 	H 	0.377	0.125	0.754	0.034
Mof_H 	H 	0.289	0.364	0.857	0.02
Mof_H 	H 	0.998	0.63	0.791	0.364
Mof_H 	H 	0.623	0.875	0.246	0.058
Mof_H 	H 	0.679	0.903	0.627	0.059
Mof_H 	H 	0.63	0.979	0.434	0.068
Mof_H 	H 	0.136	0.637	0.81	0.416
Mof_H 	H 	0.633	0.425	0.967	0.034
Mof_H 	H 	0.4664	0.3179	0.9069	0.057
Mof_H 	H 	0.7189	0.2902	0.8041	0.053
Mof_H 	H 	0.4664	0.6821	0.5931	0.057
Mof_H 	H 	0.864	0.637	0.31	0.295
Mof_H 	H 	0.321	0.097	0.373	0.01
Mof_H 	H 	0.415	0.172	0.317	0.039
Mof_H 	H 	0.864	0.363	0.19	0.294
Mof_H 	H 	0.998	0.37	0.709	0.366
Mof_H 	H 	0.289	0.636	0.643	0.016
Mof_H 	H 	0.623	0.125	0.254	0.045
Mof_H 	H 	0.711	0.364	0.357	0.037
Mof_H 	H 	0.5336	0.3179	0.4069	0.06
Mof_H 	H 	0.002	0.37	0.209	0.1
Mof_H 	H 	0.633	0.575	0.533	0.019
Mof_H 	H 	0.367	0.425	0.467	0.011
Mof_H 	H 	0.528	0.976	0.864	0.09
Mof_H 	H 	0.63	0.021	0.066	-0.023
Mof_H 	H 	0.415	0.828	0.183	0.044
Mof_C 	C 	0.6884	0.8337	0.3408	0.339
Mof_C 	C 	0.2865	0.5262	0.838	0.408
Mof_C 	C 	0.2948	0.3615	0.2164	0.401
Mof_C 	C 	0.5593	0.7959	0.7114	-0.037
Mof_C 	C 	0.5308	0.973	0.6017	0.002
Mof_C 	C 	0.3832	0.2948	0.2317	-0.065
Mof_C 	C 	0.6168	0.7052	0.7683	-0.054
Mof_C 	C 	0.356	0.7332	0.221	-0.009
Mof_C 	C 	0.3771	0.4026	0.8723	0.021
Mof_C 	C 	0.6884	0.1663	0.1592	0.344
Mof_C 	C 	0.5794	0.104	0.4889	-0.067
Mof_C 	C 	0.4262	0.0311	0.94	-0.06
Mof_C 	C 	0.6115	0.8342	0.5427	-0.038
Mof_C 	C 	0.5534	0.1711	0.251	-0.019
Mof_C 	C 	0.4275	0.2014	0.7043	-0.04
Mof_C 	C 	0.3885	0.1658	0.4573	-0.07
Mof_C 	C 	0.4721	0.6258	0.5946	-0.085
Mof_C 	C 	0.5534	0.8289	0.249	-0.019
Mof_C 	C 	0.4231	0.5703	0.0634	0.021
Mof_C 	C 	0.4201	0.4867	0.0665	-0.099
Mof_C 	C 	0.644	0.2668	0.779	-0.008
Mof_C 	C 	0.313	0.8857	0.4637	0.418
Mof_C 	C 	0.6229	0.5974	0.1277	0.019
Mof_C 	C 	0.3136	0.4207	0.0336	0.408
Mof_C 	C 	0.3885	0.8342	0.0427	-0.041
Mof_C 	C 	0.3116	0.8337	0.8408	0.346
Mof_C 	C 	0.6243	0.9046	0.5929	-0.035
Mof_C 	C 	0.4466	0.8289	0.749	-0.017
Mof_C 	C 	0.5279	0.3742	0.4054	-0.081
Mof_C 	C 	0.3877	0.4873	0.8715	-0.084
Mof_C 	C 	0.4206	0.896	0.5111	-0.095
Mof_C 	C 	0.4275	0.7986	0.7957	-0.033
Mof_C 	C 	0.5769	0.4297	0.9366	0.014
Mof_C 	C 	0.5308	0.027	0.8983	-0.105
Mof_C 	C 	0.4407	0.2041	0.2886	-0.047
Mof_C 	C 	0.687	0.1143	0.5363	0.4
Mof_C 	C 	0.5794	0.896	0.0111	-0.123
Mof_C 	C 	0.5738	0.0311	0.44	-0.04
Mof_C 	C 	0.6123	0.5127	0.1285	-0.075
Mof_C 	C 	0.6864	0.5793	0.9664	0.4
Mof_C 	C 	0.5279	0.6258	0.0946	-0.089
Mof_C 	C 	0.2865	0.4738	0.662	0.407
Mof_C 	C 	0.6123	0.4873	0.3715	-0.073
Mof_C 	C 	0.5769	0.5703	0.5634	0.02
Mof_C 	C 	0.5738	0.9689	0.06	0.065
Mof_C 	C 	0.5799	0.5133	0.9335	-0.072
Mof_C 	C 	0.687	0.8857	0.9637	0.447
Mof_C 	C 	0.7135	0.5262	0.338	0.392
Mof_C 	C 	0.4407	0.7959	0.2114	-0.041
Mof_C 	C 	0.4201	0.5133	0.4335	-0.093
Mof_C 	C 	0.3877	0.5127	0.6285	-0.09
Mof_C 	C 	0.7064	0.244	0.9707	0.386
Mof_C 	C 	0.6115	0.1658	0.9573	-0.06
Mof_C 	C 	0.4721	0.3742	0.9054	-0.072
Mof_C 	C 	0.4206	0.104	0.9889	-0.026
Mof_C 	C 	0.6864	0.4207	0.5336	0.405
Mof_C 	C 	0.6168	0.2948	0.7317	-0.056
Mof_C 	C 	0.5799	0.4867	0.5665	-0.085
Mof_C 	C 	0.4262	0.9689	0.56	0.053
Mof_C 	C 	0.4466	0.1711	0.751	-0.016
Mof_C 	C 	0.7064	0.756	0.5293	0.335
Mof_C 	C 	0.3832	0.7052	0.2683	-0.063
Mof_C 	C 	0.3757	0.9046	0.0929	-0.04
Mof_C 	C 	0.313	0.1143	0.0363	0.359
Mof_C 	C 	0.4692	0.027	0.3983	-0.122
Mof_C 	C 	0.4231	0.4297	0.4366	0.018
Mof_C 	C 	0.2948	0.6385	0.2836	0.402
Mof_C 	C 	0.356	0.2668	0.279	-0.01
Mof_C 	C 	0.5725	0.7986	0.2957	-0.029
Mof_C 	C 	0.5593	0.2041	0.7886	-0.042
Mof_C 	C 	0.7052	0.3615	0.7164	0.41
Mof_C 	C 	0.3136	0.5793	0.4664	0.412
Mof_C 	C 	0.3771	0.5974	0.6277	0.024
Mof_C 	C 	0.3757	0.0954	0.4071	0.011
Mof_C 	C 	0.644	0.7332	0.721	-0.007
Mof_C 	C 	0.6229	0.4026	0.3723	0.019
Mof_C 	C 	0.7135	0.4738	0.162	0.391
Mof_C 	C 	0.2936	0.756	0.0293	0.291
Mof_C 	C 	0.2936	0.244	0.4707	0.344
Mof_C 	C 	0.4692	0.973	0.1017	-0.002
Mof_C 	C 	0.3116	0.1663	0.6592	0.353
Mof_C 	C 	0.7052	0.6385	0.7836	0.411
Mof_C 	C 	0.5725	0.2014	0.2043	-0.035
Mof_C 	C 	0.6243	0.0954	0.9071	0.013
Mof_N 	N 	0.4861	0.5417	0.9022	-0.222
Mof_N 	N 	0.487	0.8305	0.0019	-0.234
Mof_N 	N 	0.5106	0.262	0.6944	-0.226
Mof_N 	N 	0.5139	0.5417	0.4022	-0.22
Mof_N 	N 	0.513	0.8305	0.5019	-0.223
Mof_N 	N 	0.487	0.1695	0.4981	-0.223
Mof_N 	N 	0.5139	0.4583	0.0978	-0.218
Mof_N 	N 	0.513	0.1695	0.9981	-0.214
Mof_N 	N 	0.4894	0.262	0.1944	-0.225
Mof_N 	N 	0.5106	0.738	0.8056	-0.228
Mof_N 	N 	0.4861	0.4583	0.5978	-0.219
Mof_N 	N 	0.4894	0.738	0.3056	-0.227
Mof_O 	O 	0.0767	0.6509	0.7907	-0.923
Mof_O 	O 	0.2111	0.25	0.4318	-0.321
Mof_O 	O 	0.9233	0.6509	0.2907	-0.504
Mof_O 	O 	0.7736	0.8855	0.3321	-0.242
Mof_O 	O 	0.6856	0.193	0.11465	-0.502
Mof_O 	O 	0.7973	0.4007	0.75129	-0.428
Mof_O 	O 	0.8091	0.5194	0.19075	-0.384
Mof_O 	O 	0.8091	0.4806	0.30925	-0.384
Mof_O 	O 	0.7736	0.1145	0.1679	-0.263
Mof_O 	O 	0.6929	0.2992	0.0208	-0.543
Mof_O 	O 	0.9233	0.3491	0.2093	-0.502
Mof_O 	O 	0.7889	0.75	0.5682	-0.266
Mof_O 	O 	0.7973	0.5993	0.74871	-0.428
Mof_O 	O 	0.3219	0.3724	0.16788	-0.552
Mof_O 	O 	0.3317	0.3439	0.0349	-0.554
Mof_O 	O 	0.1909	0.4806	0.80925	-0.468
Mof_O 	O 	0.6856	0.807	0.38535	-0.494
Mof_O 	O 	0.3317	0.6561	0.4651	-0.545
Mof_O 	O 	0.2178	0.9407	0.4714	-0.431
Mof_O 	O 	0.3083	0.605	0.8427	-0.589
Mof_O 	O 	0.2176	0.4441	0.00709	-0.475
Mof_O 	O 	0.2264	0.8855	0.8321	-0.279
Mof_O 	O 	0.2264	0.1145	0.6679	-0.307
Mof_O 	O 	0.2027	0.5993	0.24871	-0.423
Mof_O 	O 	0.3277	0.8211	0.41858	-0.536
Mof_O 	O 	0.2027	0.4007	0.25129	-0.424
Mof_O 	O 	0.6683	0.6561	0.9651	-0.511
Mof_O 	O 	0.2178	0.0593	0.0286	-0.46
Mof_O 	O 	0.6723	0.8211	0.91858	-0.517
Mof_O 	O 	0.3071	0.2992	0.5208	-0.533
Mof_O 	O 	0.2111	0.75	0.0682	-0.305
Mof_O 	O 	0.6929	0.7008	0.4792	-0.506
Mof_O 	O 	0.7822	0.9407	0.9714	-0.365
Mof_O 	O 	0.6781	0.3724	0.66788	-0.55
Mof_O 	O 	0.0767	0.3491	0.7093	-0.929
Mof_O 	O 	0.7824	0.5559	0.99291	-0.39
Mof_O 	O 	0.3144	0.807	0.88535	-0.51
Mof_O 	O 	0.2176	0.5559	0.49291	-0.469
Mof_O 	O 	0.6917	0.605	0.3427	-0.555
Mof_O 	O 	0.3071	0.7008	0.9792	-0.489
Mof_O 	O 	0.7889	0.25	0.9318	-0.273
Mof_O 	O 	0.7824	0.4441	0.50709	-0.42
Mof_O 	O 	0.6917	0.395	0.1573	-0.552
Mof_O 	O 	0.6723	0.1789	0.58142	-0.516
Mof_O 	O 	0.3277	0.1789	0.08142	-0.531
Mof_O 	O 	0.3219	0.6276	0.33212	-0.554
Mof_O 	O 	0.1909	0.5194	0.69075	-0.47
Mof_O 	O 	0.6781	0.6276	0.83212	-0.551
Mof_O 	O 	0.6683	0.3439	0.5349	-0.524
Mof_O 	O 	0.3083	0.395	0.6573	-0.588
Mof_O 	O 	0.3144	0.193	0.61465	-0.523
Mof_O 	O 	0.7822	0.0593	0.5286	-0.415
_end
