data_functionalizedCrystal
_audit_creation_method	'EQeq! by Chris Wilmer'
_symmetry_space_group_name_H-M	'P1'
_symmetry_Int_Tables_number	1
_symmetry_cell_setting	triclinic
loop_
_symmetry_equiv_pos_as_xyz
  x,y,z
_cell_length_a	26.423
_cell_length_b	26.423
_cell_length_c	5.0845
_cell_angle_alpha	90
_cell_angle_beta	90
_cell_angle_gamma	90
loop_
_atom_site_label
_atom_site_type_symbol
_atom_site_fract_x
_atom_site_fract_y
_atom_site_fract_z
_atom_site_charge
Mof_Zn	Zn	0.27328	0.21436	0.8984	1.226
Mof_O 	O 	0.2202	0.2521	0.0707	-0.792
Mof_H 	H 	0.1993	0.2632	0.9577	0.288
Mof_N 	N 	0.2532	0.1421	0.881	-0.281
Mof_C 	C 	0.2698	0.1061	0.034	0.107
Mof_H 	H 	0.2957	0.1098	0.1563	-0.013
Mof_N 	N 	0.244	0.0625	0.9896	-0.158
Mof_C 	C 	0.2148	0.1209	0.7333	0.052
Mof_O 	O 	0.2764	0.8341	0.388	-0.53
Mof_C 	C 	0.1848	0.1429	0.5424	-0.138
Mof_H 	H 	0.1891	0.1768	0.4973	0.042
Mof_O 	O 	0.3163	0.875	0.696	-0.216
Mof_C 	C 	0.1483	0.1138	0.4197	0.049
Mof_C 	C 	0.118	0.1348	0.227	-0.095
Mof_H 	H 	0.1227	0.1686	0.1817	0.06
Mof_C 	C 	0.0807	0.1073	0.098	-0.013
Mof_H 	H 	0.0607	0.1225	0.9703	0.026
Mof_C 	C 	0.0737	0.0567	0.164	-0.034
Mof_H 	H 	0.049	0.0375	0.0793	0.036
Mof_C 	C 	0.104	0.0354	0.356	-0.085
Mof_H 	H 	0.0994	0.0016	0.401	0.058
Mof_C 	C 	0.1412	0.0632	0.4847	0.042
Mof_C 	C 	0.1708	0.0409	0.6767	-0.129
Mof_H 	H 	0.1668	0.007	0.7203	0.075
Mof_C 	C 	0.2065	0.0707	0.802	0.071
Mof_C 	C 	0.2576	0.014	0.106	0.149
Mof_C 	C 	0.2837	0.9236	0.333	-0.153
Mof_C 	C 	0.2791	0.0128	0.354	-0.189
Mof_H 	H 	0.2846	0.043	0.4434	0.102
Mof_C 	C 	0.2925	0.9678	0.472	0.116
Mof_H 	H 	0.3069	0.9671	0.6388	0.005
Mof_C 	C 	0.2623	0.9232	0.086	0.084
Mof_H 	H 	0.2565	0.893	0.9967	0.016
Mof_C 	C 	0.2496	0.969	0.975	-0.139
Mof_H 	H 	0.2353	0.9697	0.808	0.08
Mof_C 	C 	0.2976	0.8734	0.457	0.445
Mof_O 	O 	0.3427	0.8684	0.534	-0.217
Mof_C 	C 	0.3071	0.0056	0.176	-0.008
Mof_H 	H 	0.3312	0.0306	0.146	0.04
Mof_C 	C 	0.3217	0.9597	0.291	-0.048
Mof_H 	H 	0.3552	0.9536	0.3387	0.063
Mof_C 	C 	0.2325	0.929	0.265	-0.042
Mof_H 	H 	0.2082	0.9041	0.2925	0.041
Mof_C 	C 	0.222	0.9762	0.153	-0.037
Mof_H 	H 	0.1887	0.9829	0.1056	0.041
Mof_Zn	Zn	0.77328	0.71436	0.3984	1.229
Mof_O 	O 	0.7202	0.7521	0.5707	-0.811
Mof_H 	H 	0.6993	0.7632	0.4577	0.306
Mof_N 	N 	0.7532	0.6421	0.381	-0.274
Mof_C 	C 	0.7698	0.6061	0.534	0.107
Mof_H 	H 	0.7957	0.6098	0.6563	-0.015
Mof_N 	N 	0.744	0.5625	0.4896	-0.163
Mof_C 	C 	0.7148	0.6209	0.2333	0.036
Mof_O 	O 	0.7764	0.3341	0.888	-0.526
Mof_C 	C 	0.6848	0.6429	0.0424	-0.088
Mof_H 	H 	0.6891	0.6768	0.9973	0.018
Mof_O 	O 	0.8163	0.375	0.196	-0.221
Mof_C 	C 	0.6483	0.6138	0.9197	0.007
Mof_C 	C 	0.618	0.6348	0.727	-0.06
Mof_H 	H 	0.6227	0.6686	0.6817	0.046
Mof_C 	C 	0.5807	0.6073	0.598	-0.05
Mof_H 	H 	0.5607	0.6225	0.4703	0.042
Mof_C 	C 	0.5737	0.5567	0.664	-0.006
Mof_H 	H 	0.549	0.5375	0.5793	0.027
Mof_C 	C 	0.604	0.5354	0.856	-0.108
Mof_H 	H 	0.5994	0.5016	0.901	0.066
Mof_C 	C 	0.6412	0.5632	0.9847	0.061
Mof_C 	C 	0.6708	0.5409	0.1767	-0.141
Mof_H 	H 	0.6668	0.507	0.2203	0.078
Mof_C 	C 	0.7065	0.5707	0.302	0.083
Mof_C 	C 	0.7576	0.514	0.606	0.166
Mof_C 	C 	0.7837	0.4236	0.833	-0.159
Mof_C 	C 	0.7791	0.5128	0.854	0.007
Mof_H 	H 	0.7846	0.543	0.9434	0.031
Mof_C 	C 	0.7925	0.4678	0.972	-0.082
Mof_H 	H 	0.8069	0.4671	0.1388	0.077
Mof_C 	C 	0.7623	0.4232	0.586	0.087
Mof_H 	H 	0.7565	0.393	0.4967	0.006
Mof_C 	C 	0.7496	0.469	0.475	-0.136
Mof_H 	H 	0.7353	0.4697	0.308	0.08
Mof_C 	C 	0.7976	0.3734	0.957	0.448
Mof_O 	O 	0.8427	0.3684	0.034	-0.215
Mof_C 	C 	0.8071	0.5056	0.676	-0.208
Mof_H 	H 	0.8312	0.5306	0.646	0.111
Mof_C 	C 	0.8217	0.4597	0.791	0.144
Mof_H 	H 	0.8552	0.4536	0.8387	-0.005
Mof_C 	C 	0.7325	0.429	0.765	-0.012
Mof_H 	H 	0.7082	0.4041	0.7925	0.034
Mof_C 	C 	0.722	0.4762	0.653	-0.069
Mof_H 	H 	0.6887	0.4829	0.6056	0.052
Mof_Zn	Zn	0.72672	0.78564	0.8984	1.227
Mof_O 	O 	0.7798	0.7479	0.0707	-0.791
Mof_H 	H 	0.8007	0.7368	0.9577	0.289
Mof_N 	N 	0.7468	0.8579	0.881	-0.28
Mof_C 	C 	0.7302	0.8939	0.034	0.107
Mof_H 	H 	0.7043	0.8902	0.1563	-0.013
Mof_N 	N 	0.756	0.9375	0.9896	-0.158
Mof_C 	C 	0.7852	0.8791	0.7333	0.052
Mof_O 	O 	0.7236	0.1659	0.388	-0.53
Mof_C 	C 	0.8152	0.8571	0.5424	-0.138
Mof_H 	H 	0.8109	0.8232	0.4973	0.042
Mof_O 	O 	0.6837	0.125	0.696	-0.216
Mof_C 	C 	0.8517	0.8862	0.4197	0.049
Mof_C 	C 	0.882	0.8652	0.227	-0.095
Mof_H 	H 	0.8773	0.8314	0.1817	0.06
Mof_C 	C 	0.9193	0.8927	0.098	-0.013
Mof_H 	H 	0.9393	0.8775	0.9703	0.026
Mof_C 	C 	0.9263	0.9433	0.164	-0.034
Mof_H 	H 	0.951	0.9625	0.0793	0.036
Mof_C 	C 	0.896	0.9646	0.356	-0.085
Mof_H 	H 	0.9006	0.9984	0.401	0.058
Mof_C 	C 	0.8588	0.9368	0.4847	0.042
Mof_C 	C 	0.8292	0.9591	0.6767	-0.129
Mof_H 	H 	0.8332	0.993	0.7203	0.075
Mof_C 	C 	0.7935	0.9293	0.802	0.071
Mof_C 	C 	0.7424	0.986	0.106	0.149
Mof_C 	C 	0.7163	0.0764	0.333	-0.153
Mof_C 	C 	0.7209	0.9872	0.354	-0.189
Mof_H 	H 	0.7154	0.957	0.4434	0.102
Mof_C 	C 	0.7075	0.0322	0.472	0.116
Mof_H 	H 	0.6931	0.0329	0.6388	0.005
Mof_C 	C 	0.7377	0.0768	0.086	0.084
Mof_H 	H 	0.7435	0.107	0.9967	0.016
Mof_C 	C 	0.7504	0.031	0.975	-0.139
Mof_H 	H 	0.7647	0.0303	0.808	0.08
Mof_C 	C 	0.7024	0.1266	0.457	0.445
Mof_O 	O 	0.6573	0.1316	0.534	-0.217
Mof_C 	C 	0.6929	0.9944	0.176	-0.008
Mof_H 	H 	0.6688	0.9694	0.146	0.04
Mof_C 	C 	0.6783	0.0403	0.291	-0.048
Mof_H 	H 	0.6448	0.0464	0.3387	0.063
Mof_C 	C 	0.7675	0.071	0.265	-0.042
Mof_H 	H 	0.7918	0.0959	0.2925	0.041
Mof_C 	C 	0.778	0.0238	0.153	-0.037
Mof_H 	H 	0.8113	0.0171	0.1056	0.041
Mof_Zn	Zn	0.22672	0.28564	0.3984	1.229
Mof_O 	O 	0.2798	0.2479	0.5707	-0.811
Mof_H 	H 	0.3007	0.2368	0.4577	0.306
Mof_N 	N 	0.2468	0.3579	0.381	-0.274
Mof_C 	C 	0.2302	0.3939	0.534	0.107
Mof_H 	H 	0.2043	0.3902	0.6563	-0.015
Mof_N 	N 	0.256	0.4375	0.4896	-0.163
Mof_C 	C 	0.2852	0.3791	0.2333	0.036
Mof_O 	O 	0.2236	0.6659	0.888	-0.526
Mof_C 	C 	0.3152	0.3571	0.0424	-0.088
Mof_H 	H 	0.3109	0.3232	0.9973	0.018
Mof_O 	O 	0.1837	0.625	0.196	-0.221
Mof_C 	C 	0.3517	0.3862	0.9197	0.007
Mof_C 	C 	0.382	0.3652	0.727	-0.06
Mof_H 	H 	0.3773	0.3314	0.6817	0.046
Mof_C 	C 	0.4193	0.3927	0.598	-0.05
Mof_H 	H 	0.4393	0.3775	0.4703	0.042
Mof_C 	C 	0.4263	0.4433	0.664	-0.006
Mof_H 	H 	0.451	0.4625	0.5793	0.027
Mof_C 	C 	0.396	0.4646	0.856	-0.108
Mof_H 	H 	0.4006	0.4984	0.901	0.066
Mof_C 	C 	0.3588	0.4368	0.9847	0.061
Mof_C 	C 	0.3292	0.4591	0.1767	-0.141
Mof_H 	H 	0.3332	0.493	0.2203	0.078
Mof_C 	C 	0.2935	0.4293	0.302	0.083
Mof_C 	C 	0.2424	0.486	0.606	0.166
Mof_C 	C 	0.2163	0.5764	0.833	-0.159
Mof_C 	C 	0.2209	0.4872	0.854	0.007
Mof_H 	H 	0.2154	0.457	0.9434	0.031
Mof_C 	C 	0.2075	0.5322	0.972	-0.082
Mof_H 	H 	0.1931	0.5329	0.1388	0.077
Mof_C 	C 	0.2377	0.5768	0.586	0.087
Mof_H 	H 	0.2435	0.607	0.4967	0.006
Mof_C 	C 	0.2504	0.531	0.475	-0.136
Mof_H 	H 	0.2647	0.5303	0.308	0.08
Mof_C 	C 	0.2024	0.6266	0.957	0.448
Mof_O 	O 	0.1573	0.6316	0.034	-0.215
Mof_C 	C 	0.1929	0.4944	0.676	-0.208
Mof_H 	H 	0.1688	0.4694	0.646	0.111
Mof_C 	C 	0.1783	0.5403	0.791	0.144
Mof_H 	H 	0.1448	0.5464	0.8387	-0.005
Mof_C 	C 	0.2675	0.571	0.765	-0.012
Mof_H 	H 	0.2918	0.5959	0.7925	0.034
Mof_C 	C 	0.278	0.5238	0.653	-0.069
Mof_H 	H 	0.3113	0.5171	0.6056	0.052
Mof_Zn	Zn	0.21436	0.72672	0.1016	1.227
Mof_O 	O 	0.2521	0.7798	0.9293	-0.791
Mof_H 	H 	0.2632	0.8007	0.0423	0.289
Mof_N 	N 	0.1421	0.7468	0.119	-0.28
Mof_C 	C 	0.1061	0.7302	0.966	0.107
Mof_H 	H 	0.1098	0.7043	0.8437	-0.013
Mof_N 	N 	0.0625	0.756	0.0104	-0.158
Mof_C 	C 	0.1209	0.7852	0.2667	0.052
Mof_O 	O 	0.8341	0.7236	0.612	-0.53
Mof_C 	C 	0.1429	0.8152	0.4576	-0.138
Mof_H 	H 	0.1768	0.8109	0.5027	0.042
Mof_O 	O 	0.875	0.6837	0.304	-0.216
Mof_C 	C 	0.1138	0.8517	0.5803	0.049
Mof_C 	C 	0.1348	0.882	0.773	-0.095
Mof_H 	H 	0.1686	0.8773	0.8183	0.06
Mof_C 	C 	0.1073	0.9193	0.902	-0.013
Mof_H 	H 	0.1225	0.9393	0.0297	0.026
Mof_C 	C 	0.0567	0.9263	0.836	-0.034
Mof_H 	H 	0.0375	0.951	0.9207	0.036
Mof_C 	C 	0.0354	0.896	0.644	-0.085
Mof_H 	H 	0.0016	0.9006	0.599	0.058
Mof_C 	C 	0.0632	0.8588	0.5153	0.042
Mof_C 	C 	0.0409	0.8292	0.3233	-0.129
Mof_H 	H 	0.007	0.8332	0.2797	0.075
Mof_C 	C 	0.0707	0.7935	0.198	0.071
Mof_C 	C 	0.014	0.7424	0.894	0.149
Mof_C 	C 	0.9236	0.7163	0.667	-0.153
Mof_C 	C 	0.0128	0.7209	0.646	-0.189
Mof_H 	H 	0.043	0.7154	0.5566	0.102
Mof_C 	C 	0.9678	0.7075	0.528	0.116
Mof_H 	H 	0.9671	0.6931	0.3612	0.005
Mof_C 	C 	0.9232	0.7377	0.914	0.084
Mof_H 	H 	0.893	0.7435	0.0033	0.016
Mof_C 	C 	0.969	0.7504	0.025	-0.139
Mof_H 	H 	0.9697	0.7647	0.192	0.08
Mof_C 	C 	0.8734	0.7024	0.543	0.445
Mof_O 	O 	0.8684	0.6573	0.466	-0.217
Mof_C 	C 	0.0056	0.6929	0.824	-0.008
Mof_H 	H 	0.0306	0.6688	0.854	0.04
Mof_C 	C 	0.9597	0.6783	0.709	-0.048
Mof_H 	H 	0.9536	0.6448	0.6613	0.063
Mof_C 	C 	0.929	0.7675	0.735	-0.042
Mof_H 	H 	0.9041	0.7918	0.7075	0.041
Mof_C 	C 	0.9762	0.778	0.847	-0.037
Mof_H 	H 	0.9829	0.8113	0.8944	0.041
Mof_Zn	Zn	0.71436	0.22672	0.6016	1.229
Mof_O 	O 	0.7521	0.2798	0.4293	-0.811
Mof_H 	H 	0.7632	0.3007	0.5423	0.306
Mof_N 	N 	0.6421	0.2468	0.619	-0.274
Mof_C 	C 	0.6061	0.2302	0.466	0.107
Mof_H 	H 	0.6098	0.2043	0.3437	-0.015
Mof_N 	N 	0.5625	0.256	0.5104	-0.163
Mof_C 	C 	0.6209	0.2852	0.7667	0.036
Mof_O 	O 	0.3341	0.2236	0.112	-0.526
Mof_C 	C 	0.6429	0.3152	0.9576	-0.088
Mof_H 	H 	0.6768	0.3109	0.0027	0.018
Mof_O 	O 	0.375	0.1837	0.804	-0.221
Mof_C 	C 	0.6138	0.3517	0.0803	0.007
Mof_C 	C 	0.6348	0.382	0.273	-0.06
Mof_H 	H 	0.6686	0.3773	0.3183	0.046
Mof_C 	C 	0.6073	0.4193	0.402	-0.05
Mof_H 	H 	0.6225	0.4393	0.5297	0.042
Mof_C 	C 	0.5567	0.4263	0.336	-0.006
Mof_H 	H 	0.5375	0.451	0.4207	0.027
Mof_C 	C 	0.5354	0.396	0.144	-0.108
Mof_H 	H 	0.5016	0.4006	0.099	0.066
Mof_C 	C 	0.5632	0.3588	0.0153	0.061
Mof_C 	C 	0.5409	0.3292	0.8233	-0.141
Mof_H 	H 	0.507	0.3332	0.7797	0.078
Mof_C 	C 	0.5707	0.2935	0.698	0.083
Mof_C 	C 	0.514	0.2424	0.394	0.166
Mof_C 	C 	0.4236	0.2163	0.167	-0.159
Mof_C 	C 	0.5128	0.2209	0.146	0.007
Mof_H 	H 	0.543	0.2154	0.0566	0.031
Mof_C 	C 	0.4678	0.2075	0.028	-0.082
Mof_H 	H 	0.4671	0.1931	0.8612	0.077
Mof_C 	C 	0.4232	0.2377	0.414	0.087
Mof_H 	H 	0.393	0.2435	0.5033	0.006
Mof_C 	C 	0.469	0.2504	0.525	-0.136
Mof_H 	H 	0.4697	0.2647	0.692	0.08
Mof_C 	C 	0.3734	0.2024	0.043	0.448
Mof_O 	O 	0.3684	0.1573	0.966	-0.215
Mof_C 	C 	0.5056	0.1929	0.324	-0.208
Mof_H 	H 	0.5306	0.1688	0.354	0.111
Mof_C 	C 	0.4597	0.1783	0.209	0.144
Mof_H 	H 	0.4536	0.1448	0.1613	-0.005
Mof_C 	C 	0.429	0.2675	0.235	-0.012
Mof_H 	H 	0.4041	0.2918	0.2075	0.034
Mof_C 	C 	0.4762	0.278	0.347	-0.069
Mof_H 	H 	0.4829	0.3113	0.3944	0.052
Mof_Zn	Zn	0.78564	0.27328	0.1016	1.227
Mof_O 	O 	0.7479	0.2202	0.9293	-0.791
Mof_H 	H 	0.7368	0.1993	0.0423	0.289
Mof_N 	N 	0.8579	0.2532	0.119	-0.28
Mof_C 	C 	0.8939	0.2698	0.966	0.107
Mof_H 	H 	0.8902	0.2957	0.8437	-0.013
Mof_N 	N 	0.9375	0.244	0.0104	-0.158
Mof_C 	C 	0.8791	0.2148	0.2667	0.052
Mof_O 	O 	0.1659	0.2764	0.612	-0.53
Mof_C 	C 	0.8571	0.1848	0.4576	-0.138
Mof_H 	H 	0.8232	0.1891	0.5027	0.042
Mof_O 	O 	0.125	0.3163	0.304	-0.216
Mof_C 	C 	0.8862	0.1483	0.5803	0.049
Mof_C 	C 	0.8652	0.118	0.773	-0.095
Mof_H 	H 	0.8314	0.1227	0.8183	0.06
Mof_C 	C 	0.8927	0.0807	0.902	-0.013
Mof_H 	H 	0.8775	0.0607	0.0297	0.026
Mof_C 	C 	0.9433	0.0737	0.836	-0.034
Mof_H 	H 	0.9625	0.049	0.9207	0.036
Mof_C 	C 	0.9646	0.104	0.644	-0.085
Mof_H 	H 	0.9984	0.0994	0.599	0.058
Mof_C 	C 	0.9368	0.1412	0.5153	0.042
Mof_C 	C 	0.9591	0.1708	0.3233	-0.129
Mof_H 	H 	0.993	0.1668	0.2797	0.075
Mof_C 	C 	0.9293	0.2065	0.198	0.071
Mof_C 	C 	0.986	0.2576	0.894	0.149
Mof_C 	C 	0.0764	0.2837	0.667	-0.153
Mof_C 	C 	0.9872	0.2791	0.646	-0.189
Mof_H 	H 	0.957	0.2846	0.5566	0.102
Mof_C 	C 	0.0322	0.2925	0.528	0.116
Mof_H 	H 	0.0329	0.3069	0.3612	0.005
Mof_C 	C 	0.0768	0.2623	0.914	0.084
Mof_H 	H 	0.107	0.2565	0.0033	0.016
Mof_C 	C 	0.031	0.2496	0.025	-0.139
Mof_H 	H 	0.0303	0.2353	0.192	0.08
Mof_C 	C 	0.1266	0.2976	0.543	0.445
Mof_O 	O 	0.1316	0.3427	0.466	-0.217
Mof_C 	C 	0.9944	0.3071	0.824	-0.008
Mof_H 	H 	0.9694	0.3312	0.854	0.04
Mof_C 	C 	0.0403	0.3217	0.709	-0.048
Mof_H 	H 	0.0464	0.3552	0.6613	0.063
Mof_C 	C 	0.071	0.2325	0.735	-0.042
Mof_H 	H 	0.0959	0.2082	0.7075	0.041
Mof_C 	C 	0.0238	0.222	0.847	-0.037
Mof_H 	H 	0.0171	0.1887	0.8944	0.041
Mof_Zn	Zn	0.28564	0.77328	0.6016	1.229
Mof_O 	O 	0.2479	0.7202	0.4293	-0.811
Mof_H 	H 	0.2368	0.6993	0.5423	0.306
Mof_N 	N 	0.3579	0.7532	0.619	-0.274
Mof_C 	C 	0.3939	0.7698	0.466	0.107
Mof_H 	H 	0.3902	0.7957	0.3437	-0.015
Mof_N 	N 	0.4375	0.744	0.5104	-0.163
Mof_C 	C 	0.3791	0.7148	0.7667	0.036
Mof_O 	O 	0.6659	0.7764	0.112	-0.526
Mof_C 	C 	0.3571	0.6848	0.9576	-0.088
Mof_H 	H 	0.3232	0.6891	0.0027	0.018
Mof_O 	O 	0.625	0.8163	0.804	-0.221
Mof_C 	C 	0.3862	0.6483	0.0803	0.007
Mof_C 	C 	0.3652	0.618	0.273	-0.06
Mof_H 	H 	0.3314	0.6227	0.3183	0.046
Mof_C 	C 	0.3927	0.5807	0.402	-0.05
Mof_H 	H 	0.3775	0.5607	0.5297	0.042
Mof_C 	C 	0.4433	0.5737	0.336	-0.006
Mof_H 	H 	0.4625	0.549	0.4207	0.027
Mof_C 	C 	0.4646	0.604	0.144	-0.108
Mof_H 	H 	0.4984	0.5994	0.099	0.066
Mof_C 	C 	0.4368	0.6412	0.0153	0.061
Mof_C 	C 	0.4591	0.6708	0.8233	-0.141
Mof_H 	H 	0.493	0.6668	0.7797	0.078
Mof_C 	C 	0.4293	0.7065	0.698	0.083
Mof_C 	C 	0.486	0.7576	0.394	0.166
Mof_C 	C 	0.5764	0.7837	0.167	-0.159
Mof_C 	C 	0.4872	0.7791	0.146	0.007
Mof_H 	H 	0.457	0.7846	0.0566	0.031
Mof_C 	C 	0.5322	0.7925	0.028	-0.082
Mof_H 	H 	0.5329	0.8069	0.8612	0.077
Mof_C 	C 	0.5768	0.7623	0.414	0.087
Mof_H 	H 	0.607	0.7565	0.5033	0.006
Mof_C 	C 	0.531	0.7496	0.525	-0.136
Mof_H 	H 	0.5303	0.7353	0.692	0.08
Mof_C 	C 	0.6266	0.7976	0.043	0.448
Mof_O 	O 	0.6316	0.8427	0.966	-0.215
Mof_C 	C 	0.4944	0.8071	0.324	-0.208
Mof_H 	H 	0.4694	0.8312	0.354	0.111
Mof_C 	C 	0.5403	0.8217	0.209	0.144
Mof_H 	H 	0.5464	0.8552	0.1613	-0.005
Mof_C 	C 	0.571	0.7325	0.235	-0.012
Mof_H 	H 	0.5959	0.7082	0.2075	0.034
Mof_C 	C 	0.5238	0.722	0.347	-0.069
Mof_H 	H 	0.5171	0.6887	0.3944	0.052
_end
