data_functionalizedCrystal
_audit_creation_method	'EQeq! by Chris Wilmer'
_symmetry_space_group_name_H-M	'P1'
_symmetry_Int_Tables_number	1
_symmetry_cell_setting	triclinic
loop_
_symmetry_equiv_pos_as_xyz
  x,y,z
_cell_length_a	18.894
_cell_length_b	31.681
_cell_length_c	13.876
_cell_angle_alpha	90
_cell_angle_beta	90
_cell_angle_gamma	90
loop_
_atom_site_label
_atom_site_type_symbol
_atom_site_fract_x
_atom_site_fract_y
_atom_site_fract_z
_atom_site_charge
Mof_O 	O 	0.1892	0.0082	0.4445	-0.289
Mof_Mn	Mn	0.26214	0.91663	0.47499	0.914
Mof_O 	O 	0.2231	0.8601	0.4193	-0.356
Mof_O 	O 	0.3368	0.861	0.4463	-0.328
Mof_N 	N 	0.2553	0.8992	0.6277	-0.194
Mof_N 	N 	0.3241	0.9603	0.5442	-0.211
Mof_N 	N 	0.3088	0.9512	0.3595	-0.202
Mof_N 	N 	0.545	0.1511	0.8457	-0.155
Mof_N 	N 	0.5741	0.2002	0.9525	-0.226
Mof_C 	C 	0.2977	0.9448	0.2652	0.104
Mof_H 	H 	0.2693	0.9222	0.2464	-0.009
Mof_C 	C 	0.3256	0.9619	0.6405	0.087
Mof_O 	O 	0.1656	0.9417	0.4861	-0.383
Mof_C 	C 	0.3957	0.0222	0.5364	-0.161
Mof_H 	H 	0.4202	0.042	0.4998	0.087
Mof_C 	C 	0.3614	0.9934	0.6885	-0.168
Mof_H 	H 	0.3621	0.9939	0.7555	0.096
Mof_C 	C 	0.3497	0.9844	0.3865	0.072
Mof_C 	C 	0.3577	0.9897	0.4915	0.084
Mof_C 	C 	0.4063	0.0761	0.772	0.056
Mof_H 	H 	0.3632	0.0661	0.7948	0.016
Mof_C 	C 	0.2857	0.927	0.688	0.075
Mof_C 	C 	0.3962	0.0244	0.6362	0.117
Mof_C 	C 	0.2809	0.8412	0.425	0.296
Mof_C 	C 	0.4337	0.0596	0.6871	-0.083
Mof_C 	C 	0.523	0.1794	0.9102	0.125
Mof_H 	H 	0.4754	0.184	0.9238	-0.008
Mof_C 	C 	0.2214	0.7719	0.4041	-0.025
Mof_H 	H 	0.1789	0.7864	0.3966	0.062
Mof_C 	C 	0.216	0.8678	0.6638	0.109
Mof_H 	H 	0.1955	0.8486	0.6216	-0.002
Mof_C 	C 	0.2831	0.7941	0.4149	-0.056
Mof_C 	C 	0.4413	0.1069	0.8235	-0.17
Mof_H 	H 	0.4221	0.1176	0.8802	0.108
Mof_C 	C 	0.5055	0.1217	0.7897	0.159
Mof_C 	C 	0.4963	0.0769	0.6522	0.054
Mof_H 	H 	0.5143	0.0676	0.5935	0.014
Mof_C 	C 	0.3268	0.9704	0.1945	-0.157
Mof_H 	H 	0.3184	0.9653	0.1295	0.098
Mof_C 	C 	0.532	0.1074	0.703	-0.172
Mof_H 	H 	0.5741	0.1184	0.6789	0.107
Mof_C 	C 	0.3686	0.0035	0.2237	0.075
Mof_H 	H 	0.3891	0.0212	0.178	0.013
Mof_C 	C 	0.3803	0.0105	0.3202	-0.137
Mof_H 	H 	0.4088	0.0328	0.3401	0.079
Mof_C 	C 	0.2371	0.891	0.8226	0.088
Mof_H 	H 	0.2319	0.888	0.8889	0.005
Mof_C 	C 	0.2769	0.9235	0.7863	-0.154
Mof_H 	H 	0.2977	0.943	0.8276	0.104
Mof_C 	C 	0.3462	0.7718	0.4235	-0.026
Mof_H 	H 	0.3887	0.7864	0.4293	0.054
Mof_C 	C 	0.2049	0.863	0.7615	-0.167
Mof_H 	H 	0.1765	0.8414	0.7851	0.096
Mof_C 	C 	0.6328	0.1833	0.915	0.016
Mof_H 	H 	0.6787	0.1917	0.9294	0.032
Mof_C 	C 	0.6158	0.1527	0.853	0.005
Mof_H 	H 	0.6476	0.1354	0.8205	0.033
Mof_C 	C 	0.0711	0.9902	0.4853	-0.069
Mof_C 	C 	0.1486	0.9801	0.4698	0.331
Mof_C 	C 	0.0468	0.0307	0.47	-0.024
Mof_H 	H 	0.0781	0.0516	0.4498	0.048
Mof_C 	C 	0.0235	0.9596	0.5157	-0.021
Mof_H 	H 	0.0393	0.9322	0.5264	0.051
Mof_O 	O 	0.3108	0.9918	0.9445	-0.29
Mof_Mn	Mn	0.23786	0.08337	0.97499	0.911
Mof_O 	O 	0.2769	0.1399	0.9193	-0.357
Mof_O 	O 	0.1632	0.139	0.9463	-0.33
Mof_N 	N 	0.2447	0.1008	0.1277	-0.195
Mof_N 	N 	0.1759	0.0397	0.0442	-0.21
Mof_N 	N 	0.1912	0.0488	0.8595	-0.204
Mof_N 	N 	0.955	0.8489	0.3457	-0.156
Mof_N 	N 	0.9259	0.7998	0.4525	-0.227
Mof_C 	C 	0.2023	0.0552	0.7652	0.103
Mof_H 	H 	0.2307	0.0778	0.7464	-0.009
Mof_C 	C 	0.1744	0.0381	0.1405	0.087
Mof_O 	O 	0.3344	0.0583	0.9861	-0.383
Mof_C 	C 	0.1043	0.9778	0.0364	-0.154
Mof_H 	H 	0.0798	0.958	0.9998	0.083
Mof_C 	C 	0.1386	0.0066	0.1885	-0.166
Mof_H 	H 	0.1379	0.0061	0.2555	0.096
Mof_C 	C 	0.1503	0.0156	0.8865	0.074
Mof_C 	C 	0.1423	0.0103	0.9915	0.078
Mof_C 	C 	0.0937	0.9239	0.272	0.057
Mof_H 	H 	0.1368	0.9339	0.2948	0.015
Mof_C 	C 	0.2143	0.073	0.188	0.076
Mof_C 	C 	0.1038	0.9756	0.1362	0.115
Mof_C 	C 	0.2191	0.1588	0.925	0.296
Mof_C 	C 	0.0663	0.9404	0.1871	-0.085
Mof_C 	C 	0.977	0.8206	0.4102	0.124
Mof_H 	H 	0.0246	0.816	0.4238	-0.008
Mof_C 	C 	0.2786	0.2281	0.9041	-0.025
Mof_H 	H 	0.3211	0.2136	0.8966	0.062
Mof_C 	C 	0.284	0.1322	0.1638	0.109
Mof_H 	H 	0.3045	0.1514	0.1216	-0.001
Mof_C 	C 	0.2169	0.2059	0.9149	-0.056
Mof_C 	C 	0.0587	0.8931	0.3235	-0.17
Mof_H 	H 	0.0779	0.8824	0.3802	0.108
Mof_C 	C 	0.9945	0.8783	0.2897	0.16
Mof_C 	C 	0.0037	0.9231	0.1522	0.062
Mof_H 	H 	0.9857	0.9324	0.0935	0.011
Mof_C 	C 	0.1732	0.0296	0.6945	-0.157
Mof_H 	H 	0.1816	0.0347	0.6295	0.098
Mof_C 	C 	0.968	0.8926	0.203	-0.177
Mof_H 	H 	0.9259	0.8816	0.1789	0.109
Mof_C 	C 	0.1314	0.9965	0.7237	0.075
Mof_H 	H 	0.1109	0.9788	0.678	0.012
Mof_C 	C 	0.1197	0.9895	0.8202	-0.138
Mof_H 	H 	0.0912	0.9672	0.8401	0.079
Mof_C 	C 	0.2629	0.109	0.3226	0.088
Mof_H 	H 	0.2681	0.112	0.3889	0.005
Mof_C 	C 	0.2231	0.0765	0.2863	-0.155
Mof_H 	H 	0.2023	0.057	0.3276	0.105
Mof_C 	C 	0.1538	0.2282	0.9235	-0.026
Mof_H 	H 	0.1113	0.2136	0.9293	0.054
Mof_C 	C 	0.2951	0.137	0.2615	-0.167
Mof_H 	H 	0.3235	0.1586	0.2851	0.096
Mof_C 	C 	0.8672	0.8167	0.415	0.016
Mof_H 	H 	0.8213	0.8083	0.4294	0.032
Mof_C 	C 	0.8842	0.8473	0.353	0.005
Mof_H 	H 	0.8524	0.8646	0.3205	0.033
Mof_C 	C 	0.4289	0.0098	0.9853	-0.07
Mof_C 	C 	0.3514	0.0199	0.9698	0.331
Mof_C 	C 	0.4532	0.9693	0.97	-0.024
Mof_H 	H 	0.4219	0.9484	0.9498	0.048
Mof_C 	C 	0.4765	0.0404	0.0157	-0.019
Mof_H 	H 	0.4607	0.0678	0.0264	0.051
Mof_O 	O 	0.8108	0.5082	0.5555	-0.29
Mof_Mn	Mn	0.73786	0.41663	0.52501	0.913
Mof_O 	O 	0.7769	0.3601	0.5807	-0.357
Mof_O 	O 	0.6632	0.361	0.5537	-0.329
Mof_N 	N 	0.7447	0.3992	0.3723	-0.195
Mof_N 	N 	0.6759	0.4603	0.4558	-0.212
Mof_N 	N 	0.6912	0.4512	0.6405	-0.203
Mof_N 	N 	0.455	0.6511	0.1543	-0.156
Mof_N 	N 	0.4259	0.7002	0.0475	-0.227
Mof_C 	C 	0.7023	0.4448	0.7348	0.102
Mof_H 	H 	0.7307	0.4222	0.7536	-0.009
Mof_C 	C 	0.6744	0.4619	0.3595	0.088
Mof_O 	O 	0.8344	0.4417	0.5139	-0.383
Mof_C 	C 	0.6043	0.5222	0.4636	-0.161
Mof_H 	H 	0.5798	0.542	0.5002	0.087
Mof_C 	C 	0.6386	0.4934	0.3115	-0.169
Mof_H 	H 	0.6379	0.4939	0.2445	0.096
Mof_C 	C 	0.6503	0.4844	0.6135	0.073
Mof_C 	C 	0.6423	0.4897	0.5085	0.084
Mof_C 	C 	0.5937	0.5761	0.228	0.056
Mof_H 	H 	0.6368	0.5661	0.2052	0.016
Mof_C 	C 	0.7143	0.427	0.312	0.075
Mof_C 	C 	0.6038	0.5244	0.3638	0.118
Mof_C 	C 	0.7191	0.3412	0.575	0.296
Mof_C 	C 	0.5663	0.5596	0.3129	-0.083
Mof_C 	C 	0.477	0.6794	0.0898	0.125
Mof_H 	H 	0.5246	0.684	0.0762	-0.008
Mof_C 	C 	0.7786	0.2719	0.5959	-0.025
Mof_H 	H 	0.8211	0.2864	0.6034	0.062
Mof_C 	C 	0.784	0.3678	0.3362	0.109
Mof_H 	H 	0.8045	0.3486	0.3784	-0.002
Mof_C 	C 	0.7169	0.2941	0.5851	-0.056
Mof_C 	C 	0.5587	0.6069	0.1765	-0.17
Mof_H 	H 	0.5779	0.6176	0.1198	0.108
Mof_C 	C 	0.4945	0.6217	0.2103	0.159
Mof_C 	C 	0.5037	0.5769	0.3478	0.054
Mof_H 	H 	0.4857	0.5676	0.4065	0.014
Mof_C 	C 	0.6732	0.4704	0.8055	-0.156
Mof_H 	H 	0.6816	0.4653	0.8705	0.098
Mof_C 	C 	0.468	0.6074	0.297	-0.172
Mof_H 	H 	0.4259	0.6184	0.3211	0.107
Mof_C 	C 	0.6314	0.5035	0.7763	0.074
Mof_H 	H 	0.6109	0.5212	0.822	0.013
Mof_C 	C 	0.6197	0.5105	0.6798	-0.137
Mof_H 	H 	0.5912	0.5328	0.6599	0.079
Mof_C 	C 	0.7629	0.391	0.1774	0.088
Mof_H 	H 	0.7681	0.388	0.1111	0.005
Mof_C 	C 	0.7231	0.4235	0.2137	-0.154
Mof_H 	H 	0.7023	0.443	0.1724	0.104
Mof_C 	C 	0.6538	0.2718	0.5765	-0.026
Mof_H 	H 	0.6113	0.2864	0.5707	0.054
Mof_C 	C 	0.7951	0.363	0.2385	-0.167
Mof_H 	H 	0.8235	0.3414	0.2149	0.096
Mof_C 	C 	0.3672	0.6833	0.085	0.016
Mof_H 	H 	0.3213	0.6917	0.0706	0.032
Mof_C 	C 	0.3842	0.6527	0.147	0.005
Mof_H 	H 	0.3524	0.6354	0.1795	0.033
Mof_C 	C 	0.9289	0.4902	0.5147	-0.069
Mof_C 	C 	0.8514	0.4801	0.5302	0.331
Mof_C 	C 	0.9532	0.5307	0.53	-0.024
Mof_H 	H 	0.9219	0.5516	0.5502	0.048
Mof_C 	C 	0.9765	0.4596	0.4843	-0.02
Mof_H 	H 	0.9607	0.4322	0.4736	0.051
Mof_O 	O 	0.6892	0.4918	0.0555	-0.29
Mof_Mn	Mn	0.76214	0.58337	0.02501	0.911
Mof_O 	O 	0.7231	0.6399	0.0807	-0.357
Mof_O 	O 	0.8368	0.639	0.0537	-0.329
Mof_N 	N 	0.7553	0.6008	0.8723	-0.195
Mof_N 	N 	0.8241	0.5397	0.9558	-0.21
Mof_N 	N 	0.8088	0.5488	0.1405	-0.204
Mof_N 	N 	0.045	0.3489	0.6543	-0.156
Mof_N 	N 	0.0741	0.2998	0.5475	-0.227
Mof_C 	C 	0.7977	0.5552	0.2348	0.103
Mof_H 	H 	0.7693	0.5778	0.2536	-0.009
Mof_C 	C 	0.8256	0.5381	0.8595	0.087
Mof_O 	O 	0.6656	0.5583	0.0139	-0.383
Mof_C 	C 	0.8957	0.4778	0.9636	-0.153
Mof_H 	H 	0.9202	0.458	0.0002	0.083
Mof_C 	C 	0.8614	0.5066	0.8115	-0.167
Mof_H 	H 	0.8621	0.5061	0.7445	0.096
Mof_C 	C 	0.8497	0.5156	0.1135	0.074
Mof_C 	C 	0.8577	0.5103	0.0085	0.079
Mof_C 	C 	0.9063	0.4239	0.728	0.058
Mof_H 	H 	0.8632	0.4339	0.7052	0.015
Mof_C 	C 	0.7857	0.573	0.812	0.076
Mof_C 	C 	0.8962	0.4756	0.8638	0.116
Mof_C 	C 	0.7809	0.6588	0.075	0.296
Mof_C 	C 	0.9337	0.4404	0.8129	-0.085
Mof_C 	C 	0.023	0.3206	0.5898	0.124
Mof_H 	H 	0.9754	0.316	0.5762	-0.008
Mof_C 	C 	0.7214	0.7281	0.0959	-0.025
Mof_H 	H 	0.6789	0.7136	0.1034	0.062
Mof_C 	C 	0.716	0.6322	0.8362	0.109
Mof_H 	H 	0.6955	0.6514	0.8784	-0.002
Mof_C 	C 	0.7831	0.7059	0.0851	-0.056
Mof_C 	C 	0.9413	0.3931	0.6765	-0.17
Mof_H 	H 	0.9221	0.3824	0.6198	0.108
Mof_C 	C 	0.0055	0.3783	0.7103	0.16
Mof_C 	C 	0.9963	0.4231	0.8478	0.062
Mof_H 	H 	0.0143	0.4324	0.9065	0.01
Mof_C 	C 	0.8268	0.5296	0.3055	-0.157
Mof_H 	H 	0.8184	0.5347	0.3705	0.098
Mof_C 	C 	0.032	0.3926	0.797	-0.178
Mof_H 	H 	0.0741	0.3816	0.8211	0.109
Mof_C 	C 	0.8686	0.4965	0.2763	0.075
Mof_H 	H 	0.8891	0.4788	0.322	0.012
Mof_C 	C 	0.8803	0.4895	0.1798	-0.138
Mof_H 	H 	0.9088	0.4672	0.1599	0.079
Mof_C 	C 	0.7371	0.609	0.6774	0.088
Mof_H 	H 	0.7319	0.612	0.6111	0.005
Mof_C 	C 	0.7769	0.5765	0.7137	-0.155
Mof_H 	H 	0.7977	0.557	0.6724	0.105
Mof_C 	C 	0.8462	0.7282	0.0765	-0.026
Mof_H 	H 	0.8887	0.7136	0.0707	0.054
Mof_C 	C 	0.7049	0.637	0.7385	-0.167
Mof_H 	H 	0.6765	0.6586	0.7149	0.096
Mof_C 	C 	0.1328	0.3167	0.585	0.016
Mof_H 	H 	0.1787	0.3083	0.5706	0.032
Mof_C 	C 	0.1158	0.3473	0.647	0.005
Mof_H 	H 	0.1476	0.3646	0.6795	0.033
Mof_C 	C 	0.5711	0.5098	0.0147	-0.069
Mof_C 	C 	0.6486	0.5199	0.0302	0.331
Mof_C 	C 	0.5468	0.4693	0.03	-0.025
Mof_H 	H 	0.5781	0.4484	0.0502	0.048
Mof_C 	C 	0.5235	0.5404	0.9843	-0.02
Mof_H 	H 	0.5393	0.5678	0.9736	0.051
Mof_O 	O 	0.8108	0.9918	0.5555	-0.29
Mof_Mn	Mn	0.73786	0.08337	0.52501	0.913
Mof_O 	O 	0.7769	0.1399	0.5807	-0.357
Mof_O 	O 	0.6632	0.139	0.5537	-0.329
Mof_N 	N 	0.7447	0.1008	0.3723	-0.195
Mof_N 	N 	0.6759	0.0397	0.4558	-0.212
Mof_N 	N 	0.6912	0.0488	0.6405	-0.203
Mof_N 	N 	0.455	0.8489	0.1543	-0.156
Mof_N 	N 	0.4259	0.7998	0.0475	-0.227
Mof_C 	C 	0.7023	0.0552	0.7348	0.103
Mof_H 	H 	0.7307	0.0778	0.7536	-0.009
Mof_C 	C 	0.6744	0.0381	0.3595	0.087
Mof_O 	O 	0.8344	0.0583	0.5139	-0.383
Mof_C 	C 	0.6043	0.9778	0.4636	-0.161
Mof_H 	H 	0.5798	0.958	0.5002	0.087
Mof_C 	C 	0.6386	0.0066	0.3115	-0.168
Mof_H 	H 	0.6379	0.0061	0.2445	0.096
Mof_C 	C 	0.6503	0.0156	0.6135	0.072
Mof_C 	C 	0.6423	0.0103	0.5085	0.084
Mof_C 	C 	0.5937	0.9239	0.228	0.056
Mof_H 	H 	0.6368	0.9339	0.2052	0.016
Mof_C 	C 	0.7143	0.073	0.312	0.075
Mof_C 	C 	0.6038	0.9756	0.3638	0.117
Mof_C 	C 	0.7191	0.1588	0.575	0.296
Mof_C 	C 	0.5663	0.9404	0.3129	-0.083
Mof_C 	C 	0.477	0.8206	0.0898	0.125
Mof_H 	H 	0.5246	0.816	0.0762	-0.008
Mof_C 	C 	0.7786	0.2281	0.5959	-0.025
Mof_H 	H 	0.8211	0.2136	0.6034	0.062
Mof_C 	C 	0.784	0.1322	0.3362	0.109
Mof_H 	H 	0.8045	0.1514	0.3784	-0.002
Mof_C 	C 	0.7169	0.2059	0.5851	-0.056
Mof_C 	C 	0.5587	0.8931	0.1765	-0.17
Mof_H 	H 	0.5779	0.8824	0.1198	0.108
Mof_C 	C 	0.4945	0.8783	0.2103	0.159
Mof_C 	C 	0.5037	0.9231	0.3478	0.054
Mof_H 	H 	0.4857	0.9324	0.4065	0.014
Mof_C 	C 	0.6732	0.0296	0.8055	-0.157
Mof_H 	H 	0.6816	0.0347	0.8705	0.098
Mof_C 	C 	0.468	0.8926	0.297	-0.172
Mof_H 	H 	0.4259	0.8816	0.3211	0.107
Mof_C 	C 	0.6314	0.9965	0.7763	0.075
Mof_H 	H 	0.6109	0.9788	0.822	0.013
Mof_C 	C 	0.6197	0.9895	0.6798	-0.137
Mof_H 	H 	0.5912	0.9672	0.6599	0.079
Mof_C 	C 	0.7629	0.109	0.1774	0.088
Mof_H 	H 	0.7681	0.112	0.1111	0.005
Mof_C 	C 	0.7231	0.0765	0.2137	-0.154
Mof_H 	H 	0.7023	0.057	0.1724	0.104
Mof_C 	C 	0.6538	0.2282	0.5765	-0.026
Mof_H 	H 	0.6113	0.2136	0.5707	0.054
Mof_C 	C 	0.7951	0.137	0.2385	-0.167
Mof_H 	H 	0.8235	0.1586	0.2149	0.096
Mof_C 	C 	0.3672	0.8167	0.085	0.016
Mof_H 	H 	0.3213	0.8083	0.0706	0.032
Mof_C 	C 	0.3842	0.8473	0.147	0.005
Mof_H 	H 	0.3524	0.8646	0.1795	0.033
Mof_C 	C 	0.9289	0.0098	0.5147	-0.069
Mof_C 	C 	0.8514	0.0199	0.5302	0.331
Mof_C 	C 	0.9532	0.9693	0.53	-0.024
Mof_H 	H 	0.9219	0.9484	0.5502	0.048
Mof_C 	C 	0.9765	0.0404	0.4843	-0.021
Mof_H 	H 	0.9607	0.0678	0.4736	0.051
Mof_O 	O 	0.6892	0.0082	0.0555	-0.29
Mof_Mn	Mn	0.76214	0.91663	0.02501	0.911
Mof_O 	O 	0.7231	0.8601	0.0807	-0.357
Mof_O 	O 	0.8368	0.861	0.0537	-0.33
Mof_N 	N 	0.7553	0.8992	0.8723	-0.195
Mof_N 	N 	0.8241	0.9603	0.9558	-0.21
Mof_N 	N 	0.8088	0.9512	0.1405	-0.204
Mof_N 	N 	0.045	0.1511	0.6543	-0.156
Mof_N 	N 	0.0741	0.2002	0.5475	-0.227
Mof_C 	C 	0.7977	0.9448	0.2348	0.103
Mof_H 	H 	0.7693	0.9222	0.2536	-0.009
Mof_C 	C 	0.8256	0.9619	0.8595	0.087
Mof_O 	O 	0.6656	0.9417	0.0139	-0.383
Mof_C 	C 	0.8957	0.0222	0.9636	-0.154
Mof_H 	H 	0.9202	0.042	0.0002	0.083
Mof_C 	C 	0.8614	0.9934	0.8115	-0.166
Mof_H 	H 	0.8621	0.9939	0.7445	0.096
Mof_C 	C 	0.8497	0.9844	0.1135	0.074
Mof_C 	C 	0.8577	0.9897	0.0085	0.078
Mof_C 	C 	0.9063	0.0761	0.728	0.057
Mof_H 	H 	0.8632	0.0661	0.7052	0.015
Mof_C 	C 	0.7857	0.927	0.812	0.076
Mof_C 	C 	0.8962	0.0244	0.8638	0.115
Mof_C 	C 	0.7809	0.8412	0.075	0.296
Mof_C 	C 	0.9337	0.0596	0.8129	-0.085
Mof_C 	C 	0.023	0.1794	0.5898	0.124
Mof_H 	H 	0.9754	0.184	0.5762	-0.008
Mof_C 	C 	0.7214	0.7719	0.0959	-0.025
Mof_H 	H 	0.6789	0.7864	0.1034	0.062
Mof_C 	C 	0.716	0.8678	0.8362	0.109
Mof_H 	H 	0.6955	0.8486	0.8784	-0.001
Mof_C 	C 	0.7831	0.7941	0.0851	-0.056
Mof_C 	C 	0.9413	0.1069	0.6765	-0.17
Mof_H 	H 	0.9221	0.1176	0.6198	0.108
Mof_C 	C 	0.0055	0.1217	0.7103	0.16
Mof_C 	C 	0.9963	0.0769	0.8478	0.062
Mof_H 	H 	0.0143	0.0676	0.9065	0.011
Mof_C 	C 	0.8268	0.9704	0.3055	-0.157
Mof_H 	H 	0.8184	0.9653	0.3705	0.098
Mof_C 	C 	0.032	0.1074	0.797	-0.177
Mof_H 	H 	0.0741	0.1184	0.8211	0.109
Mof_C 	C 	0.8686	0.0035	0.2763	0.075
Mof_H 	H 	0.8891	0.0212	0.322	0.012
Mof_C 	C 	0.8803	0.0105	0.1798	-0.138
Mof_H 	H 	0.9088	0.0328	0.1599	0.079
Mof_C 	C 	0.7371	0.891	0.6774	0.088
Mof_H 	H 	0.7319	0.888	0.6111	0.005
Mof_C 	C 	0.7769	0.9235	0.7137	-0.155
Mof_H 	H 	0.7977	0.943	0.6724	0.105
Mof_C 	C 	0.8462	0.7718	0.0765	-0.026
Mof_H 	H 	0.8887	0.7864	0.0707	0.054
Mof_C 	C 	0.7049	0.863	0.7385	-0.167
Mof_H 	H 	0.6765	0.8414	0.7149	0.096
Mof_C 	C 	0.1328	0.1833	0.585	0.016
Mof_H 	H 	0.1787	0.1917	0.5706	0.032
Mof_C 	C 	0.1158	0.1527	0.647	0.005
Mof_H 	H 	0.1476	0.1354	0.6795	0.033
Mof_C 	C 	0.5711	0.9902	0.0147	-0.07
Mof_C 	C 	0.6486	0.9801	0.0302	0.331
Mof_C 	C 	0.5468	0.0307	0.03	-0.024
Mof_H 	H 	0.5781	0.0516	0.0502	0.048
Mof_C 	C 	0.5235	0.9596	0.9843	-0.019
Mof_H 	H 	0.5393	0.9322	0.9736	0.051
Mof_O 	O 	0.1892	0.4918	0.4445	-0.29
Mof_Mn	Mn	0.26214	0.58337	0.47499	0.913
Mof_O 	O 	0.2231	0.6399	0.4193	-0.357
Mof_O 	O 	0.3368	0.639	0.4463	-0.329
Mof_N 	N 	0.2553	0.6008	0.6277	-0.195
Mof_N 	N 	0.3241	0.5397	0.5442	-0.212
Mof_N 	N 	0.3088	0.5488	0.3595	-0.203
Mof_N 	N 	0.545	0.3489	0.8457	-0.156
Mof_N 	N 	0.5741	0.2998	0.9525	-0.227
Mof_C 	C 	0.2977	0.5552	0.2652	0.102
Mof_H 	H 	0.2693	0.5778	0.2464	-0.009
Mof_C 	C 	0.3256	0.5381	0.6405	0.088
Mof_O 	O 	0.1656	0.5583	0.4861	-0.383
Mof_C 	C 	0.3957	0.4778	0.5364	-0.161
Mof_H 	H 	0.4202	0.458	0.4998	0.087
Mof_C 	C 	0.3614	0.5066	0.6885	-0.169
Mof_H 	H 	0.3621	0.5061	0.7555	0.096
Mof_C 	C 	0.3497	0.5156	0.3865	0.073
Mof_C 	C 	0.3577	0.5103	0.4915	0.084
Mof_C 	C 	0.4063	0.4239	0.772	0.056
Mof_H 	H 	0.3632	0.4339	0.7948	0.016
Mof_C 	C 	0.2857	0.573	0.688	0.075
Mof_C 	C 	0.3962	0.4756	0.6362	0.118
Mof_C 	C 	0.2809	0.6588	0.425	0.296
Mof_C 	C 	0.4337	0.4404	0.6871	-0.083
Mof_C 	C 	0.523	0.3206	0.9102	0.125
Mof_H 	H 	0.4754	0.316	0.9238	-0.008
Mof_C 	C 	0.2214	0.7281	0.4041	-0.025
Mof_H 	H 	0.1789	0.7136	0.3966	0.062
Mof_C 	C 	0.216	0.6322	0.6638	0.109
Mof_H 	H 	0.1955	0.6514	0.6216	-0.002
Mof_C 	C 	0.2831	0.7059	0.4149	-0.056
Mof_C 	C 	0.4413	0.3931	0.8235	-0.17
Mof_H 	H 	0.4221	0.3824	0.8802	0.108
Mof_C 	C 	0.5055	0.3783	0.7897	0.159
Mof_C 	C 	0.4963	0.4231	0.6522	0.054
Mof_H 	H 	0.5143	0.4324	0.5935	0.014
Mof_C 	C 	0.3268	0.5296	0.1945	-0.156
Mof_H 	H 	0.3184	0.5347	0.1295	0.098
Mof_C 	C 	0.532	0.3926	0.703	-0.172
Mof_H 	H 	0.5741	0.3816	0.6789	0.107
Mof_C 	C 	0.3686	0.4965	0.2237	0.074
Mof_H 	H 	0.3891	0.4788	0.178	0.013
Mof_C 	C 	0.3803	0.4895	0.3202	-0.137
Mof_H 	H 	0.4088	0.4672	0.3401	0.079
Mof_C 	C 	0.2371	0.609	0.8226	0.088
Mof_H 	H 	0.2319	0.612	0.8889	0.005
Mof_C 	C 	0.2769	0.5765	0.7863	-0.154
Mof_H 	H 	0.2977	0.557	0.8276	0.104
Mof_C 	C 	0.3462	0.7282	0.4235	-0.026
Mof_H 	H 	0.3887	0.7136	0.4293	0.054
Mof_C 	C 	0.2049	0.637	0.7615	-0.167
Mof_H 	H 	0.1765	0.6586	0.7851	0.096
Mof_C 	C 	0.6328	0.3167	0.915	0.016
Mof_H 	H 	0.6787	0.3083	0.9294	0.032
Mof_C 	C 	0.6158	0.3473	0.853	0.005
Mof_H 	H 	0.6476	0.3646	0.8205	0.033
Mof_C 	C 	0.0711	0.5098	0.4853	-0.069
Mof_C 	C 	0.1486	0.5199	0.4698	0.331
Mof_C 	C 	0.0468	0.4693	0.47	-0.024
Mof_H 	H 	0.0781	0.4484	0.4498	0.048
Mof_C 	C 	0.0235	0.5404	0.5157	-0.02
Mof_H 	H 	0.0393	0.5678	0.5264	0.051
Mof_O 	O 	0.3108	0.5082	0.9445	-0.29
Mof_Mn	Mn	0.23786	0.41663	0.97499	0.911
Mof_O 	O 	0.2769	0.3601	0.9193	-0.357
Mof_O 	O 	0.1632	0.361	0.9463	-0.329
Mof_N 	N 	0.2447	0.3992	0.1277	-0.195
Mof_N 	N 	0.1759	0.4603	0.0442	-0.21
Mof_N 	N 	0.1912	0.4512	0.8595	-0.204
Mof_N 	N 	0.955	0.6511	0.3457	-0.156
Mof_N 	N 	0.9259	0.7002	0.4525	-0.227
Mof_C 	C 	0.2023	0.4448	0.7652	0.103
Mof_H 	H 	0.2307	0.4222	0.7464	-0.009
Mof_C 	C 	0.1744	0.4619	0.1405	0.087
Mof_O 	O 	0.3344	0.4417	0.9861	-0.383
Mof_C 	C 	0.1043	0.5222	0.0364	-0.153
Mof_H 	H 	0.0798	0.542	0.9998	0.083
Mof_C 	C 	0.1386	0.4934	0.1885	-0.167
Mof_H 	H 	0.1379	0.4939	0.2555	0.096
Mof_C 	C 	0.1503	0.4844	0.8865	0.074
Mof_C 	C 	0.1423	0.4897	0.9915	0.079
Mof_C 	C 	0.0937	0.5761	0.272	0.058
Mof_H 	H 	0.1368	0.5661	0.2948	0.015
Mof_C 	C 	0.2143	0.427	0.188	0.076
Mof_C 	C 	0.1038	0.5244	0.1362	0.116
Mof_C 	C 	0.2191	0.3412	0.925	0.296
Mof_C 	C 	0.0663	0.5596	0.1871	-0.085
Mof_C 	C 	0.977	0.6794	0.4102	0.124
Mof_H 	H 	0.0246	0.684	0.4238	-0.008
Mof_C 	C 	0.2786	0.2719	0.9041	-0.025
Mof_H 	H 	0.3211	0.2864	0.8966	0.062
Mof_C 	C 	0.284	0.3678	0.1638	0.109
Mof_H 	H 	0.3045	0.3486	0.1216	-0.002
Mof_C 	C 	0.2169	0.2941	0.9149	-0.056
Mof_C 	C 	0.0587	0.6069	0.3235	-0.17
Mof_H 	H 	0.0779	0.6176	0.3802	0.108
Mof_C 	C 	0.9945	0.6217	0.2897	0.16
Mof_C 	C 	0.0037	0.5769	0.1522	0.062
Mof_H 	H 	0.9857	0.5676	0.0935	0.01
Mof_C 	C 	0.1732	0.4704	0.6945	-0.157
Mof_H 	H 	0.1816	0.4653	0.6295	0.098
Mof_C 	C 	0.968	0.6074	0.203	-0.178
Mof_H 	H 	0.9259	0.6184	0.1789	0.109
Mof_C 	C 	0.1314	0.5035	0.7237	0.075
Mof_H 	H 	0.1109	0.5212	0.678	0.012
Mof_C 	C 	0.1197	0.5105	0.8202	-0.138
Mof_H 	H 	0.0912	0.5328	0.8401	0.079
Mof_C 	C 	0.2629	0.391	0.3226	0.088
Mof_H 	H 	0.2681	0.388	0.3889	0.005
Mof_C 	C 	0.2231	0.4235	0.2863	-0.155
Mof_H 	H 	0.2023	0.443	0.3276	0.105
Mof_C 	C 	0.1538	0.2718	0.9235	-0.026
Mof_H 	H 	0.1113	0.2864	0.9293	0.054
Mof_C 	C 	0.2951	0.363	0.2615	-0.167
Mof_H 	H 	0.3235	0.3414	0.2851	0.096
Mof_C 	C 	0.8672	0.6833	0.415	0.016
Mof_H 	H 	0.8213	0.6917	0.4294	0.032
Mof_C 	C 	0.8842	0.6527	0.353	0.005
Mof_H 	H 	0.8524	0.6354	0.3205	0.033
Mof_C 	C 	0.4289	0.4902	0.9853	-0.069
Mof_C 	C 	0.3514	0.4801	0.9698	0.331
Mof_C 	C 	0.4532	0.5307	0.97	-0.025
Mof_H 	H 	0.4219	0.5516	0.9498	0.048
Mof_C 	C 	0.4765	0.4596	0.0157	-0.02
Mof_H 	H 	0.4607	0.4322	0.0264	0.051
Mof_O 	O 	0.0055	0.25	0.3531	-0.392
Mof_C 	C 	0.942	0.25	0.383	0.323
Mof_C 	C 	0.8841	0.25	0.3091	-0.063
Mof_C 	C 	0.9007	0.25	0.2117	-0.03
Mof_H 	H 	0.9477	0.25	0.192	0.057
Mof_Mn	Mn	0.57368	0.25	0.0421	0.919
Mof_O 	O 	0.9281	0.25	0.4698	-0.301
Mof_O 	O 	0.6555	0.25	0.1276	-0.394
Mof_O 	O 	0.7352	0.25	0.0103	-0.283
Mof_C 	C 	0.7755	0.25	0.1719	-0.074
Mof_C 	C 	0.7594	0.25	0.2685	-0.017
Mof_H 	H 	0.7123	0.25	0.2881	0.056
Mof_C 	C 	0.7191	0.25	0.098	0.329
Mof_C 	C 	0.8134	0.25	0.3378	-0.033
Mof_H 	H 	0.802	0.25	0.403	0.058
Mof_C 	C 	0.8468	0.25	0.1434	-0.025
Mof_H 	H 	0.8581	0.25	0.0782	0.053
Mof_O 	O 	0.4945	0.75	0.8531	-0.393
Mof_C 	C 	0.558	0.75	0.883	0.324
Mof_C 	C 	0.6159	0.75	0.8091	-0.063
Mof_C 	C 	0.5993	0.75	0.7117	-0.03
Mof_H 	H 	0.5523	0.75	0.692	0.058
Mof_Mn	Mn	0.92632	0.75	0.5421	0.919
Mof_O 	O 	0.5719	0.75	0.9698	-0.301
Mof_O 	O 	0.8445	0.75	0.6276	-0.393
Mof_O 	O 	0.7648	0.75	0.5103	-0.283
Mof_C 	C 	0.7245	0.75	0.6719	-0.074
Mof_C 	C 	0.7406	0.75	0.7685	-0.017
Mof_H 	H 	0.7877	0.75	0.7881	0.056
Mof_C 	C 	0.7809	0.75	0.598	0.329
Mof_C 	C 	0.6866	0.75	0.8378	-0.032
Mof_H 	H 	0.698	0.75	0.903	0.058
Mof_C 	C 	0.6532	0.75	0.6434	-0.025
Mof_H 	H 	0.6419	0.75	0.5782	0.053
Mof_O 	O 	0.9945	0.75	0.6469	-0.392
Mof_C 	C 	0.058	0.75	0.617	0.323
Mof_C 	C 	0.1159	0.75	0.6909	-0.063
Mof_C 	C 	0.0993	0.75	0.7883	-0.03
Mof_H 	H 	0.0523	0.75	0.808	0.057
Mof_Mn	Mn	0.42632	0.75	0.9579	0.919
Mof_O 	O 	0.0719	0.75	0.5302	-0.301
Mof_O 	O 	0.3445	0.75	0.8724	-0.394
Mof_O 	O 	0.2648	0.75	0.9897	-0.283
Mof_C 	C 	0.2245	0.75	0.8281	-0.074
Mof_C 	C 	0.2406	0.75	0.7315	-0.017
Mof_H 	H 	0.2877	0.75	0.7119	0.056
Mof_C 	C 	0.2809	0.75	0.902	0.329
Mof_C 	C 	0.1866	0.75	0.6622	-0.033
Mof_H 	H 	0.198	0.75	0.597	0.058
Mof_C 	C 	0.1532	0.75	0.8566	-0.025
Mof_H 	H 	0.1419	0.75	0.9218	0.053
Mof_O 	O 	0.5055	0.25	0.1469	-0.393
Mof_C 	C 	0.442	0.25	0.117	0.324
Mof_C 	C 	0.3841	0.25	0.1909	-0.063
Mof_C 	C 	0.4007	0.25	0.2883	-0.03
Mof_H 	H 	0.4477	0.25	0.308	0.058
Mof_Mn	Mn	0.07368	0.25	0.4579	0.919
Mof_O 	O 	0.4281	0.25	0.0302	-0.301
Mof_O 	O 	0.1555	0.25	0.3724	-0.393
Mof_O 	O 	0.2352	0.25	0.4897	-0.283
Mof_C 	C 	0.2755	0.25	0.3281	-0.074
Mof_C 	C 	0.2594	0.25	0.2315	-0.017
Mof_H 	H 	0.2123	0.25	0.2119	0.056
Mof_C 	C 	0.2191	0.25	0.402	0.329
Mof_C 	C 	0.3134	0.25	0.1622	-0.032
Mof_H 	H 	0.302	0.25	0.097	0.058
Mof_C 	C 	0.3468	0.25	0.3566	-0.025
Mof_H 	H 	0.3581	0.25	0.4218	0.053
_end
