data_functionalizedCrystal
_audit_creation_method	'EQeq! by Chris Wilmer'
_symmetry_space_group_name_H-M	'P1'
_symmetry_Int_Tables_number	1
_symmetry_cell_setting	triclinic
loop_
_symmetry_equiv_pos_as_xyz
  x,y,z
_cell_length_a	6.9035
_cell_length_b	15.9959
_cell_length_c	14.3406
_cell_angle_alpha	90
_cell_angle_beta	90
_cell_angle_gamma	90
loop_
_atom_site_label
_atom_site_type_symbol
_atom_site_fract_x
_atom_site_fract_y
_atom_site_fract_z
_atom_site_charge
Mof_H 	H 	0.70334	0.55495	0.55515	0.041
Mof_C 	C 	0.82627	0.53218	0.53229	0.015
Mof_O 	O 	0.84082	0.66219	0.66276	-0.379
Mof_H 	H 	0.20334	0.05495	0.05515	0.041
Mof_C 	C 	0.32627	0.03218	0.03229	-0.006
Mof_O 	O 	0.34082	0.16219	0.16276	-0.399
Mof_H 	H 	0.29666	0.94505	0.55515	0.045
Mof_C 	C 	0.17373	0.96782	0.53229	-0.004
Mof_O 	O 	0.15918	0.83781	0.66276	-0.394
Mof_H 	H 	0.79666	0.44505	0.05515	0.052
Mof_C 	C 	0.67373	0.46782	0.03229	-0.003
Mof_O 	O 	0.65918	0.33781	0.16276	-0.393
Mof_H 	H 	0.29666	0.05495	0.44485	0.046
Mof_C 	C 	0.17373	0.03218	0.46771	-0.003
Mof_O 	O 	0.15918	0.16219	0.33724	-0.394
Mof_H 	H 	0.79666	0.55495	0.94485	0.052
Mof_C 	C 	0.67373	0.53218	0.96771	-0.003
Mof_O 	O 	0.65918	0.66219	0.83724	-0.393
Mof_H 	H 	0.70334	0.44505	0.44485	0.042
Mof_C 	C 	0.82627	0.46782	0.46771	0.016
Mof_O 	O 	0.84082	0.33781	0.33724	-0.378
Mof_H 	H 	0.20334	0.94505	0.94485	0.042
Mof_C 	C 	0.32627	0.96782	0.96771	-0.005
Mof_O 	O 	0.34082	0.83781	0.83724	-0.398
Mof_H 	H 	0.29666	0.44505	0.44485	0.046
Mof_C 	C 	0.17373	0.46782	0.46771	-0.003
Mof_O 	O 	0.15918	0.33781	0.33724	-0.394
Mof_H 	H 	0.79666	0.94505	0.94485	0.052
Mof_C 	C 	0.67373	0.96782	0.96771	-0.003
Mof_O 	O 	0.65918	0.83781	0.83724	-0.393
Mof_H 	H 	0.70334	0.05495	0.44485	0.043
Mof_C 	C 	0.82627	0.03218	0.46771	0.016
Mof_O 	O 	0.84082	0.16219	0.33724	-0.378
Mof_H 	H 	0.20334	0.55495	0.94485	0.042
Mof_C 	C 	0.32627	0.53218	0.96771	-0.005
Mof_O 	O 	0.34082	0.66219	0.83724	-0.398
Mof_H 	H 	0.70334	0.94505	0.55515	0.043
Mof_C 	C 	0.82627	0.96782	0.53229	0.016
Mof_O 	O 	0.84082	0.83781	0.66276	-0.378
Mof_H 	H 	0.20334	0.44505	0.05515	0.042
Mof_C 	C 	0.32627	0.46782	0.03229	-0.005
Mof_O 	O 	0.34082	0.33781	0.16276	-0.398
Mof_H 	H 	0.29666	0.55495	0.55515	0.046
Mof_C 	C 	0.17373	0.53218	0.53229	-0.003
Mof_O 	O 	0.15918	0.66219	0.66276	-0.394
Mof_H 	H 	0.79666	0.05495	0.05515	0.052
Mof_C 	C 	0.67373	0.03218	0.03229	-0.003
Mof_O 	O 	0.65918	0.16219	0.16276	-0.393
Mof_H 	H 	0.5	0.25	0.38215	0.204
Mof_H 	H 	6.87072e-33	0.75	0.88215	0.2
Mof_H 	H 	0.5	0.75	0.61785	0.204
Mof_H 	H 	9.17887e-34	0.25	0.11785	0.2
Mof_Fe	Fe	0.75	0.25	0.25	1.138
Mof_Fe	Fe	0.25	0.25	0.25	1.124
Mof_Fe	Fe	0.25	0.75	0.75	1.124
Mof_Fe	Fe	0.75	0.75	0.75	1.138
Mof_C 	C 	4.39737e-33	0.56436	0.56459	-0.12
Mof_C 	C 	-1.10093e-32	0.63268	0.63314	0.385
Mof_C 	C 	0.5	0.06436	0.06459	-0.101
Mof_C 	C 	0.5	0.13268	0.13314	0.405
Mof_C 	C 	3.62786e-32	0.93564	0.56459	-0.12
Mof_C 	C 	2.08719e-32	0.86732	0.63314	0.385
Mof_C 	C 	0.5	0.43564	0.06459	-0.101
Mof_C 	C 	0.5	0.36732	0.13314	0.405
Mof_C 	C 	-4.57907e-33	0.06436	0.43541	-0.12
Mof_C 	C 	2.85733e-33	0.13268	0.36686	0.385
Mof_C 	C 	0.5	0.56436	0.93541	-0.101
Mof_C 	C 	0.5	0.63268	0.86686	0.405
Mof_C 	C 	-4.57907e-33	0.43564	0.43541	-0.12
Mof_C 	C 	2.85733e-33	0.36732	0.36686	0.385
Mof_C 	C 	0.5	0.93564	0.93541	-0.101
Mof_C 	C 	0.5	0.86732	0.86686	0.405
Mof_O 	O 	0.5	0.75	0.68758	-0.52
Mof_O 	O 	5.44614e-33	0.25	0.18758	-0.529
Mof_O 	O 	0.5	0.25	0.31242	-0.52
Mof_O 	O 	3.82088e-32	0.75	0.81242	-0.529
_end
