data_functionalizedCrystal
_audit_creation_method	'EQeq! by Chris Wilmer'
_symmetry_space_group_name_H-M	'P1'
_symmetry_Int_Tables_number	1
_symmetry_cell_setting	triclinic
loop_
_symmetry_equiv_pos_as_xyz
  x,y,z
_cell_length_a	28.526
_cell_length_b	28.526
_cell_length_c	28.526
_cell_angle_alpha	90
_cell_angle_beta	90
_cell_angle_gamma	90
loop_
_atom_site_label
_atom_site_type_symbol
_atom_site_fract_x
_atom_site_fract_y
_atom_site_fract_z
_atom_site_charge
Mof_N 	N 	0.4513	0.0861	0.0522	-0.146
Mof_N 	N 	0.4197	0.1169	0.0588	-0.1
Mof_C 	C 	0.3515	0.172	0.114	0.119
Mof_C 	C 	0.3302	0.1484	0.0905	-0.108
Mof_C 	C 	0.313	0.1934	0.1346	-0.046
Mof_C 	C 	0.2861	0.169	0.1107	0.048
Mof_N 	N 	0.5487	0.9139	0.0522	-0.142
Mof_N 	N 	0.5803	0.8831	0.0588	-0.098
Mof_C 	C 	0.6485	0.828	0.114	0.127
Mof_C 	C 	0.6698	0.8516	0.0905	-0.111
Mof_C 	C 	0.687	0.8066	0.1346	-0.049
Mof_C 	C 	0.7139	0.831	0.1107	0.054
Mof_N 	N 	0.5487	0.0861	0.9478	-0.133
Mof_N 	N 	0.5803	0.1169	0.9412	-0.088
Mof_C 	C 	0.6485	0.172	0.886	0.13
Mof_C 	C 	0.6698	0.1484	0.9095	-0.102
Mof_C 	C 	0.687	0.1934	0.8654	-0.047
Mof_C 	C 	0.7139	0.169	0.8893	0.059
Mof_N 	N 	0.4513	0.9139	0.9478	-0.129
Mof_N 	N 	0.4197	0.8831	0.9412	-0.087
Mof_C 	C 	0.3515	0.828	0.886	0.133
Mof_C 	C 	0.3302	0.8516	0.9095	-0.103
Mof_C 	C 	0.313	0.8066	0.8654	-0.049
Mof_C 	C 	0.2861	0.831	0.8893	0.061
Mof_N 	N 	0.0522	0.4513	0.0861	-0.146
Mof_N 	N 	0.0588	0.4197	0.1169	-0.1
Mof_C 	C 	0.114	0.3515	0.172	0.119
Mof_C 	C 	0.0905	0.3302	0.1484	-0.108
Mof_C 	C 	0.1346	0.313	0.1934	-0.046
Mof_C 	C 	0.1107	0.2861	0.169	0.048
Mof_N 	N 	0.0522	0.5487	0.9139	-0.142
Mof_N 	N 	0.0588	0.5803	0.8831	-0.098
Mof_C 	C 	0.114	0.6485	0.828	0.127
Mof_C 	C 	0.0905	0.6698	0.8516	-0.111
Mof_C 	C 	0.1346	0.687	0.8066	-0.049
Mof_C 	C 	0.1107	0.7139	0.831	0.054
Mof_N 	N 	0.9478	0.5487	0.0861	-0.133
Mof_N 	N 	0.9412	0.5803	0.1169	-0.088
Mof_C 	C 	0.886	0.6485	0.172	0.13
Mof_C 	C 	0.9095	0.6698	0.1484	-0.102
Mof_C 	C 	0.8654	0.687	0.1934	-0.047
Mof_C 	C 	0.8893	0.7139	0.169	0.059
Mof_N 	N 	0.9478	0.4513	0.9139	-0.128
Mof_N 	N 	0.9412	0.4197	0.8831	-0.086
Mof_C 	C 	0.886	0.3515	0.828	0.134
Mof_C 	C 	0.9095	0.3302	0.8516	-0.102
Mof_C 	C 	0.8654	0.313	0.8066	-0.048
Mof_C 	C 	0.8893	0.2861	0.831	0.062
Mof_N 	N 	0.0861	0.0522	0.4513	-0.145
Mof_N 	N 	0.1169	0.0588	0.4197	-0.099
Mof_C 	C 	0.172	0.114	0.3515	0.12
Mof_C 	C 	0.1484	0.0905	0.3302	-0.107
Mof_C 	C 	0.1934	0.1346	0.313	-0.045
Mof_C 	C 	0.169	0.1107	0.2861	0.049
Mof_N 	N 	0.9139	0.0522	0.5487	-0.141
Mof_N 	N 	0.8831	0.0588	0.5803	-0.097
Mof_C 	C 	0.828	0.114	0.6485	0.128
Mof_C 	C 	0.8516	0.0905	0.6698	-0.11
Mof_C 	C 	0.8066	0.1346	0.687	-0.048
Mof_C 	C 	0.831	0.1107	0.7139	0.055
Mof_N 	N 	0.0861	0.9478	0.5487	-0.132
Mof_N 	N 	0.1169	0.9412	0.5803	-0.087
Mof_C 	C 	0.172	0.886	0.6485	0.131
Mof_C 	C 	0.1484	0.9095	0.6698	-0.101
Mof_C 	C 	0.1934	0.8654	0.687	-0.046
Mof_C 	C 	0.169	0.8893	0.7139	0.06
Mof_N 	N 	0.9139	0.9478	0.4513	-0.128
Mof_N 	N 	0.8831	0.9412	0.4197	-0.086
Mof_C 	C 	0.828	0.886	0.3515	0.134
Mof_C 	C 	0.8516	0.9095	0.3302	-0.102
Mof_C 	C 	0.8066	0.8654	0.313	-0.048
Mof_C 	C 	0.831	0.8893	0.2861	0.062
Mof_N 	N 	0.0861	0.4513	0.9478	-0.132
Mof_N 	N 	0.1169	0.4197	0.9412	-0.088
Mof_C 	C 	0.172	0.3515	0.886	0.128
Mof_C 	C 	0.1484	0.3302	0.9095	-0.1
Mof_C 	C 	0.1934	0.313	0.8654	-0.045
Mof_C 	C 	0.169	0.2861	0.8893	0.058
Mof_N 	N 	0.9139	0.5487	0.9478	-0.128
Mof_N 	N 	0.8831	0.5803	0.9412	-0.086
Mof_C 	C 	0.828	0.6485	0.886	0.137
Mof_C 	C 	0.8516	0.6698	0.9095	-0.103
Mof_C 	C 	0.8066	0.687	0.8654	-0.049
Mof_C 	C 	0.831	0.7139	0.8893	0.064
Mof_N 	N 	0.0861	0.5487	0.0522	-0.145
Mof_N 	N 	0.1169	0.5803	0.0588	-0.099
Mof_C 	C 	0.172	0.6485	0.114	0.122
Mof_C 	C 	0.1484	0.6698	0.0905	-0.109
Mof_C 	C 	0.1934	0.687	0.1346	-0.046
Mof_C 	C 	0.169	0.7139	0.1107	0.051
Mof_N 	N 	0.9139	0.4513	0.0522	-0.141
Mof_N 	N 	0.8831	0.4197	0.0588	-0.098
Mof_C 	C 	0.828	0.3515	0.114	0.126
Mof_C 	C 	0.8516	0.3302	0.0905	-0.109
Mof_C 	C 	0.8066	0.313	0.1346	-0.047
Mof_C 	C 	0.831	0.2861	0.1107	0.053
Mof_N 	N 	0.4513	0.0522	0.9139	-0.141
Mof_N 	N 	0.4197	0.0588	0.8831	-0.098
Mof_C 	C 	0.3515	0.114	0.828	0.126
Mof_C 	C 	0.3302	0.0905	0.8516	-0.109
Mof_C 	C 	0.313	0.1346	0.8066	-0.047
Mof_C 	C 	0.2861	0.1107	0.831	0.053
Mof_N 	N 	0.5487	0.0522	0.0861	-0.145
Mof_N 	N 	0.5803	0.0588	0.1169	-0.099
Mof_C 	C 	0.6485	0.114	0.172	0.122
Mof_C 	C 	0.6698	0.0905	0.1484	-0.109
Mof_C 	C 	0.687	0.1346	0.1934	-0.046
Mof_C 	C 	0.7139	0.1107	0.169	0.051
Mof_N 	N 	0.5487	0.9478	0.9139	-0.128
Mof_N 	N 	0.5803	0.9412	0.8831	-0.086
Mof_C 	C 	0.6485	0.886	0.828	0.137
Mof_C 	C 	0.6698	0.9095	0.8516	-0.103
Mof_C 	C 	0.687	0.8654	0.8066	-0.049
Mof_C 	C 	0.7139	0.8893	0.831	0.064
Mof_N 	N 	0.4513	0.9478	0.0861	-0.132
Mof_N 	N 	0.4197	0.9412	0.1169	-0.088
Mof_C 	C 	0.3515	0.886	0.172	0.128
Mof_C 	C 	0.3302	0.9095	0.1484	-0.1
Mof_C 	C 	0.313	0.8654	0.1934	-0.045
Mof_C 	C 	0.2861	0.8893	0.169	0.058
Mof_N 	N 	0.0522	0.0861	0.5487	-0.145
Mof_N 	N 	0.0588	0.1169	0.5803	-0.099
Mof_C 	C 	0.114	0.172	0.6485	0.122
Mof_C 	C 	0.0905	0.1484	0.6698	-0.109
Mof_C 	C 	0.1346	0.1934	0.687	-0.046
Mof_C 	C 	0.1107	0.169	0.7139	0.051
Mof_N 	N 	0.0522	0.9139	0.4513	-0.141
Mof_N 	N 	0.0588	0.8831	0.4197	-0.098
Mof_C 	C 	0.114	0.828	0.3515	0.126
Mof_C 	C 	0.0905	0.8516	0.3302	-0.109
Mof_C 	C 	0.1346	0.8066	0.313	-0.047
Mof_C 	C 	0.1107	0.831	0.2861	0.053
Mof_N 	N 	0.9478	0.0861	0.4513	-0.132
Mof_N 	N 	0.9412	0.1169	0.4197	-0.088
Mof_C 	C 	0.886	0.172	0.3515	0.128
Mof_C 	C 	0.9095	0.1484	0.3302	-0.1
Mof_C 	C 	0.8654	0.1934	0.313	-0.045
Mof_C 	C 	0.8893	0.169	0.2861	0.058
Mof_N 	N 	0.9478	0.9139	0.5487	-0.128
Mof_N 	N 	0.9412	0.8831	0.5803	-0.086
Mof_C 	C 	0.886	0.828	0.6485	0.137
Mof_C 	C 	0.9095	0.8516	0.6698	-0.103
Mof_C 	C 	0.8654	0.8066	0.687	-0.049
Mof_C 	C 	0.8893	0.831	0.7139	0.064
Mof_N 	N 	0.5487	0.9139	0.9478	-0.128
Mof_N 	N 	0.5803	0.8831	0.9412	-0.086
Mof_C 	C 	0.6485	0.828	0.886	0.137
Mof_C 	C 	0.6698	0.8516	0.9095	-0.103
Mof_C 	C 	0.687	0.8066	0.8654	-0.049
Mof_C 	C 	0.7139	0.831	0.8893	0.064
Mof_N 	N 	0.4513	0.0861	0.9478	-0.132
Mof_N 	N 	0.4197	0.1169	0.9412	-0.088
Mof_C 	C 	0.3515	0.172	0.886	0.128
Mof_C 	C 	0.3302	0.1484	0.9095	-0.1
Mof_C 	C 	0.313	0.1934	0.8654	-0.045
Mof_C 	C 	0.2861	0.169	0.8893	0.058
Mof_N 	N 	0.4513	0.9139	0.0522	-0.141
Mof_N 	N 	0.4197	0.8831	0.0588	-0.098
Mof_C 	C 	0.3515	0.828	0.114	0.126
Mof_C 	C 	0.3302	0.8516	0.0905	-0.109
Mof_C 	C 	0.313	0.8066	0.1346	-0.047
Mof_C 	C 	0.2861	0.831	0.1107	0.053
Mof_N 	N 	0.5487	0.0861	0.0522	-0.145
Mof_N 	N 	0.5803	0.1169	0.0588	-0.099
Mof_C 	C 	0.6485	0.172	0.114	0.122
Mof_C 	C 	0.6698	0.1484	0.0905	-0.109
Mof_C 	C 	0.687	0.1934	0.1346	-0.046
Mof_C 	C 	0.7139	0.169	0.1107	0.051
Mof_N 	N 	0.9478	0.5487	0.9139	-0.128
Mof_N 	N 	0.9412	0.5803	0.8831	-0.086
Mof_C 	C 	0.886	0.6485	0.828	0.137
Mof_C 	C 	0.9095	0.6698	0.8516	-0.103
Mof_C 	C 	0.8654	0.687	0.8066	-0.049
Mof_C 	C 	0.8893	0.7139	0.831	0.064
Mof_N 	N 	0.9478	0.4513	0.0861	-0.132
Mof_N 	N 	0.9412	0.4197	0.1169	-0.088
Mof_C 	C 	0.886	0.3515	0.172	0.128
Mof_C 	C 	0.9095	0.3302	0.1484	-0.1
Mof_C 	C 	0.8654	0.313	0.1934	-0.045
Mof_C 	C 	0.8893	0.2861	0.169	0.058
Mof_N 	N 	0.0522	0.4513	0.9139	-0.141
Mof_N 	N 	0.0588	0.4197	0.8831	-0.098
Mof_C 	C 	0.114	0.3515	0.828	0.126
Mof_C 	C 	0.0905	0.3302	0.8516	-0.109
Mof_C 	C 	0.1346	0.313	0.8066	-0.047
Mof_C 	C 	0.1107	0.2861	0.831	0.053
Mof_N 	N 	0.0522	0.5487	0.0861	-0.145
Mof_N 	N 	0.0588	0.5803	0.1169	-0.099
Mof_C 	C 	0.114	0.6485	0.172	0.122
Mof_C 	C 	0.0905	0.6698	0.1484	-0.109
Mof_C 	C 	0.1346	0.687	0.1934	-0.046
Mof_C 	C 	0.1107	0.7139	0.169	0.051
Mof_N 	N 	0.9139	0.9478	0.5487	-0.128
Mof_N 	N 	0.8831	0.9412	0.5803	-0.086
Mof_C 	C 	0.828	0.886	0.6485	0.137
Mof_C 	C 	0.8516	0.9095	0.6698	-0.103
Mof_C 	C 	0.8066	0.8654	0.687	-0.049
Mof_C 	C 	0.831	0.8893	0.7139	0.064
Mof_N 	N 	0.0861	0.9478	0.4513	-0.132
Mof_N 	N 	0.1169	0.9412	0.4197	-0.088
Mof_C 	C 	0.172	0.886	0.3515	0.128
Mof_C 	C 	0.1484	0.9095	0.3302	-0.1
Mof_C 	C 	0.1934	0.8654	0.313	-0.045
Mof_C 	C 	0.169	0.8893	0.2861	0.058
Mof_N 	N 	0.9139	0.0522	0.4513	-0.141
Mof_N 	N 	0.8831	0.0588	0.4197	-0.098
Mof_C 	C 	0.828	0.114	0.3515	0.126
Mof_C 	C 	0.8516	0.0905	0.3302	-0.109
Mof_C 	C 	0.8066	0.1346	0.313	-0.047
Mof_C 	C 	0.831	0.1107	0.2861	0.053
Mof_N 	N 	0.0861	0.0522	0.5487	-0.145
Mof_N 	N 	0.1169	0.0588	0.5803	-0.099
Mof_C 	C 	0.172	0.114	0.6485	0.122
Mof_C 	C 	0.1484	0.0905	0.6698	-0.109
Mof_C 	C 	0.1934	0.1346	0.687	-0.046
Mof_C 	C 	0.169	0.1107	0.7139	0.051
Mof_N 	N 	0.9139	0.5487	0.0522	-0.141
Mof_N 	N 	0.8831	0.5803	0.0588	-0.097
Mof_C 	C 	0.828	0.6485	0.114	0.128
Mof_C 	C 	0.8516	0.6698	0.0905	-0.11
Mof_C 	C 	0.8066	0.687	0.1346	-0.048
Mof_C 	C 	0.831	0.7139	0.1107	0.055
Mof_N 	N 	0.0861	0.4513	0.0522	-0.145
Mof_N 	N 	0.1169	0.4197	0.0588	-0.099
Mof_C 	C 	0.172	0.3515	0.114	0.12
Mof_C 	C 	0.1484	0.3302	0.0905	-0.107
Mof_C 	C 	0.1934	0.313	0.1346	-0.045
Mof_C 	C 	0.169	0.2861	0.1107	0.049
Mof_N 	N 	0.9139	0.4513	0.9478	-0.128
Mof_N 	N 	0.8831	0.4197	0.9412	-0.086
Mof_C 	C 	0.828	0.3515	0.886	0.134
Mof_C 	C 	0.8516	0.3302	0.9095	-0.102
Mof_C 	C 	0.8066	0.313	0.8654	-0.048
Mof_C 	C 	0.831	0.2861	0.8893	0.062
Mof_N 	N 	0.0861	0.5487	0.9478	-0.132
Mof_N 	N 	0.1169	0.5803	0.9412	-0.087
Mof_C 	C 	0.172	0.6485	0.886	0.131
Mof_C 	C 	0.1484	0.6698	0.9095	-0.101
Mof_C 	C 	0.1934	0.687	0.8654	-0.046
Mof_C 	C 	0.169	0.7139	0.8893	0.06
Mof_N 	N 	0.5487	0.9478	0.0861	-0.132
Mof_N 	N 	0.5803	0.9412	0.1169	-0.087
Mof_C 	C 	0.6485	0.886	0.172	0.131
Mof_C 	C 	0.6698	0.9095	0.1484	-0.101
Mof_C 	C 	0.687	0.8654	0.1934	-0.046
Mof_C 	C 	0.7139	0.8893	0.169	0.06
Mof_N 	N 	0.4513	0.9478	0.9139	-0.128
Mof_N 	N 	0.4197	0.9412	0.8831	-0.086
Mof_C 	C 	0.3515	0.886	0.828	0.134
Mof_C 	C 	0.3302	0.9095	0.8516	-0.102
Mof_C 	C 	0.313	0.8654	0.8066	-0.048
Mof_C 	C 	0.2861	0.8893	0.831	0.062
Mof_N 	N 	0.4513	0.0522	0.0861	-0.145
Mof_N 	N 	0.4197	0.0588	0.1169	-0.099
Mof_C 	C 	0.3515	0.114	0.172	0.12
Mof_C 	C 	0.3302	0.0905	0.1484	-0.107
Mof_C 	C 	0.313	0.1346	0.1934	-0.045
Mof_C 	C 	0.2861	0.1107	0.169	0.049
Mof_N 	N 	0.5487	0.0522	0.9139	-0.141
Mof_N 	N 	0.5803	0.0588	0.8831	-0.097
Mof_C 	C 	0.6485	0.114	0.828	0.128
Mof_C 	C 	0.6698	0.0905	0.8516	-0.11
Mof_C 	C 	0.687	0.1346	0.8066	-0.048
Mof_C 	C 	0.7139	0.1107	0.831	0.055
Mof_N 	N 	0.9478	0.9139	0.4513	-0.128
Mof_N 	N 	0.9412	0.8831	0.4197	-0.086
Mof_C 	C 	0.886	0.828	0.3515	0.134
Mof_C 	C 	0.9095	0.8516	0.3302	-0.102
Mof_C 	C 	0.8654	0.8066	0.313	-0.048
Mof_C 	C 	0.8893	0.831	0.2861	0.062
Mof_N 	N 	0.9478	0.0861	0.5487	-0.132
Mof_N 	N 	0.9412	0.1169	0.5803	-0.087
Mof_C 	C 	0.886	0.172	0.6485	0.131
Mof_C 	C 	0.9095	0.1484	0.6698	-0.101
Mof_C 	C 	0.8654	0.1934	0.687	-0.046
Mof_C 	C 	0.8893	0.169	0.7139	0.06
Mof_N 	N 	0.0522	0.9139	0.5487	-0.141
Mof_N 	N 	0.0588	0.8831	0.5803	-0.097
Mof_C 	C 	0.114	0.828	0.6485	0.128
Mof_C 	C 	0.0905	0.8516	0.6698	-0.11
Mof_C 	C 	0.1346	0.8066	0.687	-0.048
Mof_C 	C 	0.1107	0.831	0.7139	0.055
Mof_N 	N 	0.0522	0.0861	0.4513	-0.145
Mof_N 	N 	0.0588	0.1169	0.4197	-0.099
Mof_C 	C 	0.114	0.172	0.3515	0.12
Mof_C 	C 	0.0905	0.1484	0.3302	-0.107
Mof_C 	C 	0.1346	0.1934	0.313	-0.045
Mof_C 	C 	0.1107	0.169	0.2861	0.049
Mof_Cu	Cu	0.5	0.0894	-0	0.869
Mof_Cu	Cu	0.5	0.9106	-0	0.874
Mof_Cu	Cu	-1.8398e-33	0.5	0.0894	0.869
Mof_Cu	Cu	1.21142e-32	0.5	0.9106	0.874
Mof_Cu	Cu	0.0894	0	0.5	0.869
Mof_Cu	Cu	0.9106	0	0.5	0.874
Mof_Cu	Cu	0.0894	0.5	-0	0.869
Mof_Cu	Cu	0.9106	0.5	-0	0.874
Mof_Cu	Cu	0.5	0	0.9106	0.874
Mof_Cu	Cu	0.5	0	0.0894	0.869
Mof_Cu	Cu	-2.47529e-33	0.0894	0.5	0.869
Mof_Cu	Cu	1.05747e-32	0.9106	0.5	0.874
Mof_Cl	Cl	0.5	0	-0	-0.734
Mof_Cl	Cl	-0	0.5	-0	-0.734
Mof_Cl	Cl	1.8747e-33	0	0.5	-0.734
Mof_N 	N 	0.2374	0.2374	0.176	-0.111
Mof_N 	N 	0.2096	0.2096	0.151	-0.061
Mof_N 	N 	0.7626	0.7626	0.176	-0.111
Mof_N 	N 	0.7904	0.7904	0.151	-0.058
Mof_N 	N 	0.7626	0.2374	0.824	-0.11
Mof_N 	N 	0.7904	0.2096	0.849	-0.056
Mof_N 	N 	0.2374	0.7626	0.824	-0.11
Mof_N 	N 	0.2096	0.7904	0.849	-0.056
Mof_N 	N 	0.176	0.2374	0.2374	-0.111
Mof_N 	N 	0.151	0.2096	0.2096	-0.061
Mof_N 	N 	0.176	0.7626	0.7626	-0.111
Mof_N 	N 	0.151	0.7904	0.7904	-0.058
Mof_N 	N 	0.824	0.7626	0.2374	-0.11
Mof_N 	N 	0.849	0.7904	0.2096	-0.056
Mof_N 	N 	0.824	0.2374	0.7626	-0.11
Mof_N 	N 	0.849	0.2096	0.7904	-0.056
Mof_N 	N 	0.2374	0.176	0.2374	-0.111
Mof_N 	N 	0.2096	0.151	0.2096	-0.061
Mof_N 	N 	0.7626	0.176	0.7626	-0.111
Mof_N 	N 	0.7904	0.151	0.7904	-0.058
Mof_N 	N 	0.2374	0.824	0.7626	-0.11
Mof_N 	N 	0.2096	0.849	0.7904	-0.056
Mof_N 	N 	0.7626	0.824	0.2374	-0.11
Mof_N 	N 	0.7904	0.849	0.2096	-0.056
Mof_N 	N 	0.2374	0.2374	0.824	-0.11
Mof_N 	N 	0.2096	0.2096	0.849	-0.057
Mof_N 	N 	0.7626	0.7626	0.824	-0.11
Mof_N 	N 	0.7904	0.7904	0.849	-0.054
Mof_N 	N 	0.2374	0.7626	0.176	-0.111
Mof_N 	N 	0.2096	0.7904	0.151	-0.059
Mof_N 	N 	0.7626	0.2374	0.176	-0.111
Mof_N 	N 	0.7904	0.2096	0.151	-0.059
Mof_N 	N 	0.2374	0.176	0.7626	-0.111
Mof_N 	N 	0.2096	0.151	0.7904	-0.059
Mof_N 	N 	0.7626	0.176	0.2374	-0.111
Mof_N 	N 	0.7904	0.151	0.2096	-0.059
Mof_N 	N 	0.7626	0.824	0.7626	-0.11
Mof_N 	N 	0.7904	0.849	0.7904	-0.054
Mof_N 	N 	0.2374	0.824	0.2374	-0.11
Mof_N 	N 	0.2096	0.849	0.2096	-0.057
Mof_N 	N 	0.176	0.2374	0.7626	-0.111
Mof_N 	N 	0.151	0.2096	0.7904	-0.059
Mof_N 	N 	0.176	0.7626	0.2374	-0.111
Mof_N 	N 	0.151	0.7904	0.2096	-0.059
Mof_N 	N 	0.824	0.2374	0.2374	-0.11
Mof_N 	N 	0.849	0.2096	0.2096	-0.057
Mof_N 	N 	0.824	0.7626	0.7626	-0.11
Mof_N 	N 	0.849	0.7904	0.7904	-0.054
Mof_C 	C 	0.4004	0.0991	0.0991	0.114
Mof_C 	C 	0.368	0.1311	0.1311	-0.207
Mof_C 	C 	0.351	0.1119	0.1119	0.177
Mof_C 	C 	0.2936	0.171	0.171	0.008
Mof_C 	C 	0.261	0.141	0.141	-0.012
Mof_C 	C 	0.2565	0.1983	0.1983	0.129
Mof_C 	C 	0.5996	0.9009	0.0991	0.118
Mof_C 	C 	0.632	0.8689	0.1311	-0.224
Mof_C 	C 	0.649	0.8881	0.1119	0.195
Mof_C 	C 	0.7064	0.829	0.171	0.007
Mof_C 	C 	0.739	0.859	0.141	-0.006
Mof_C 	C 	0.7435	0.8017	0.1983	0.13
Mof_C 	C 	0.5996	0.0991	0.9009	0.118
Mof_C 	C 	0.632	0.1311	0.8689	-0.224
Mof_C 	C 	0.649	0.1119	0.8881	0.195
Mof_C 	C 	0.7064	0.171	0.829	0.007
Mof_C 	C 	0.739	0.141	0.859	-0.006
Mof_C 	C 	0.7435	0.1983	0.8017	0.13
Mof_C 	C 	0.4004	0.9009	0.9009	0.123
Mof_C 	C 	0.368	0.8689	0.8689	-0.234
Mof_C 	C 	0.351	0.8881	0.8881	0.204
Mof_C 	C 	0.2936	0.829	0.829	0.006
Mof_C 	C 	0.261	0.859	0.859	-0.004
Mof_C 	C 	0.2565	0.8017	0.8017	0.13
Mof_C 	C 	0.0991	0.4004	0.0991	0.114
Mof_C 	C 	0.1311	0.368	0.1311	-0.207
Mof_C 	C 	0.1119	0.351	0.1119	0.177
Mof_C 	C 	0.171	0.2936	0.171	0.008
Mof_C 	C 	0.141	0.261	0.141	-0.012
Mof_C 	C 	0.1983	0.2565	0.1983	0.129
Mof_C 	C 	0.0991	0.5996	0.9009	0.118
Mof_C 	C 	0.1311	0.632	0.8689	-0.224
Mof_C 	C 	0.1119	0.649	0.8881	0.195
Mof_C 	C 	0.171	0.7064	0.829	0.007
Mof_C 	C 	0.141	0.739	0.859	-0.006
Mof_C 	C 	0.1983	0.7435	0.8017	0.13
Mof_C 	C 	0.9009	0.5996	0.0991	0.118
Mof_C 	C 	0.8689	0.632	0.1311	-0.224
Mof_C 	C 	0.8881	0.649	0.1119	0.195
Mof_C 	C 	0.829	0.7064	0.171	0.007
Mof_C 	C 	0.859	0.739	0.141	-0.006
Mof_C 	C 	0.8017	0.7435	0.1983	0.13
Mof_C 	C 	0.9009	0.4004	0.9009	0.123
Mof_C 	C 	0.8689	0.368	0.8689	-0.234
Mof_C 	C 	0.8881	0.351	0.8881	0.204
Mof_C 	C 	0.829	0.2936	0.829	0.006
Mof_C 	C 	0.859	0.261	0.859	-0.004
Mof_C 	C 	0.8017	0.2565	0.8017	0.13
Mof_C 	C 	0.0991	0.0991	0.4004	0.114
Mof_C 	C 	0.1311	0.1311	0.368	-0.207
Mof_C 	C 	0.1119	0.1119	0.351	0.177
Mof_C 	C 	0.171	0.171	0.2936	0.008
Mof_C 	C 	0.141	0.141	0.261	-0.012
Mof_C 	C 	0.1983	0.1983	0.2565	0.129
Mof_C 	C 	0.9009	0.0991	0.5996	0.118
Mof_C 	C 	0.8689	0.1311	0.632	-0.224
Mof_C 	C 	0.8881	0.1119	0.649	0.195
Mof_C 	C 	0.829	0.171	0.7064	0.007
Mof_C 	C 	0.859	0.141	0.739	-0.006
Mof_C 	C 	0.8017	0.1983	0.7435	0.13
Mof_C 	C 	0.0991	0.9009	0.5996	0.118
Mof_C 	C 	0.1311	0.8689	0.632	-0.224
Mof_C 	C 	0.1119	0.8881	0.649	0.195
Mof_C 	C 	0.171	0.829	0.7064	0.007
Mof_C 	C 	0.141	0.859	0.739	-0.006
Mof_C 	C 	0.1983	0.8017	0.7435	0.13
Mof_C 	C 	0.9009	0.9009	0.4004	0.123
Mof_C 	C 	0.8689	0.8689	0.368	-0.234
Mof_C 	C 	0.8881	0.8881	0.351	0.204
Mof_C 	C 	0.829	0.829	0.2936	0.006
Mof_C 	C 	0.859	0.859	0.261	-0.004
Mof_C 	C 	0.8017	0.8017	0.2565	0.13
Mof_C 	C 	0.0991	0.4004	0.9009	0.118
Mof_C 	C 	0.1311	0.368	0.8689	-0.22
Mof_C 	C 	0.1119	0.351	0.8881	0.191
Mof_C 	C 	0.171	0.2936	0.829	0.007
Mof_C 	C 	0.141	0.261	0.859	-0.008
Mof_C 	C 	0.1983	0.2565	0.8017	0.129
Mof_C 	C 	0.9009	0.5996	0.9009	0.123
Mof_C 	C 	0.8689	0.632	0.8689	-0.238
Mof_C 	C 	0.8881	0.649	0.8881	0.208
Mof_C 	C 	0.829	0.7064	0.829	0.006
Mof_C 	C 	0.859	0.739	0.859	-0.002
Mof_C 	C 	0.8017	0.7435	0.8017	0.131
Mof_C 	C 	0.0991	0.5996	0.0991	0.114
Mof_C 	C 	0.1311	0.632	0.1311	-0.211
Mof_C 	C 	0.1119	0.649	0.1119	0.182
Mof_C 	C 	0.171	0.7064	0.171	0.008
Mof_C 	C 	0.141	0.739	0.141	-0.01
Mof_C 	C 	0.1983	0.7435	0.1983	0.129
Mof_C 	C 	0.9009	0.4004	0.0991	0.118
Mof_C 	C 	0.8689	0.368	0.1311	-0.22
Mof_C 	C 	0.8881	0.351	0.1119	0.191
Mof_C 	C 	0.829	0.2936	0.171	0.007
Mof_C 	C 	0.859	0.261	0.141	-0.008
Mof_C 	C 	0.8017	0.2565	0.1983	0.129
Mof_C 	C 	0.4004	0.0991	0.9009	0.118
Mof_C 	C 	0.368	0.1311	0.8689	-0.22
Mof_C 	C 	0.351	0.1119	0.8881	0.191
Mof_C 	C 	0.2936	0.171	0.829	0.007
Mof_C 	C 	0.261	0.141	0.859	-0.008
Mof_C 	C 	0.2565	0.1983	0.8017	0.129
Mof_C 	C 	0.5996	0.0991	0.0991	0.114
Mof_C 	C 	0.632	0.1311	0.1311	-0.211
Mof_C 	C 	0.649	0.1119	0.1119	0.182
Mof_C 	C 	0.7064	0.171	0.171	0.008
Mof_C 	C 	0.739	0.141	0.141	-0.01
Mof_C 	C 	0.7435	0.1983	0.1983	0.129
Mof_C 	C 	0.5996	0.9009	0.9009	0.123
Mof_C 	C 	0.632	0.8689	0.8689	-0.238
Mof_C 	C 	0.649	0.8881	0.8881	0.208
Mof_C 	C 	0.7064	0.829	0.829	0.006
Mof_C 	C 	0.739	0.859	0.859	-0.002
Mof_C 	C 	0.7435	0.8017	0.8017	0.131
Mof_C 	C 	0.4004	0.9009	0.0991	0.118
Mof_C 	C 	0.368	0.8689	0.1311	-0.22
Mof_C 	C 	0.351	0.8881	0.1119	0.191
Mof_C 	C 	0.2936	0.829	0.171	0.007
Mof_C 	C 	0.261	0.859	0.141	-0.008
Mof_C 	C 	0.2565	0.8017	0.1983	0.129
Mof_C 	C 	0.0991	0.0991	0.5996	0.114
Mof_C 	C 	0.1311	0.1311	0.632	-0.211
Mof_C 	C 	0.1119	0.1119	0.649	0.182
Mof_C 	C 	0.171	0.171	0.7064	0.008
Mof_C 	C 	0.141	0.141	0.739	-0.01
Mof_C 	C 	0.1983	0.1983	0.7435	0.129
Mof_C 	C 	0.0991	0.9009	0.4004	0.118
Mof_C 	C 	0.1311	0.8689	0.368	-0.22
Mof_C 	C 	0.1119	0.8881	0.351	0.191
Mof_C 	C 	0.171	0.829	0.2936	0.007
Mof_C 	C 	0.141	0.859	0.261	-0.008
Mof_C 	C 	0.1983	0.8017	0.2565	0.129
Mof_C 	C 	0.9009	0.0991	0.4004	0.118
Mof_C 	C 	0.8689	0.1311	0.368	-0.22
Mof_C 	C 	0.8881	0.1119	0.351	0.191
Mof_C 	C 	0.829	0.171	0.2936	0.007
Mof_C 	C 	0.859	0.141	0.261	-0.008
Mof_C 	C 	0.8017	0.1983	0.2565	0.129
Mof_C 	C 	0.9009	0.9009	0.5996	0.123
Mof_C 	C 	0.8689	0.8689	0.632	-0.238
Mof_C 	C 	0.8881	0.8881	0.649	0.208
Mof_C 	C 	0.829	0.829	0.7064	0.006
Mof_C 	C 	0.859	0.859	0.739	-0.002
Mof_C 	C 	0.8017	0.8017	0.7435	0.131
Mof_N 	N 	0.9513	0.5861	0.5522	-0.131
Mof_N 	N 	0.9197	0.6169	0.5588	-0.09
Mof_C 	C 	0.8515	0.672	0.614	0.137
Mof_C 	C 	0.8302	0.6484	0.5905	-0.111
Mof_C 	C 	0.813	0.6934	0.6346	-0.05
Mof_C 	C 	0.7861	0.669	0.6107	0.059
Mof_N 	N 	0.0487	0.4139	0.5522	-0.144
Mof_N 	N 	0.0803	0.3831	0.5588	-0.095
Mof_C 	C 	0.1485	0.328	0.614	0.12
Mof_C 	C 	0.1698	0.3516	0.5905	-0.101
Mof_C 	C 	0.187	0.3066	0.6346	-0.045
Mof_C 	C 	0.2139	0.331	0.6107	0.054
Mof_N 	N 	0.0487	0.5861	0.4478	-0.144
Mof_N 	N 	0.0803	0.6169	0.4412	-0.095
Mof_C 	C 	0.1485	0.672	0.386	0.121
Mof_C 	C 	0.1698	0.6484	0.4095	-0.101
Mof_C 	C 	0.187	0.6934	0.3654	-0.044
Mof_C 	C 	0.2139	0.669	0.3893	0.054
Mof_N 	N 	0.9513	0.4139	0.4478	-0.131
Mof_N 	N 	0.9197	0.3831	0.4412	-0.09
Mof_C 	C 	0.8515	0.328	0.386	0.136
Mof_C 	C 	0.8302	0.3516	0.4095	-0.11
Mof_C 	C 	0.813	0.3066	0.3654	-0.05
Mof_C 	C 	0.7861	0.331	0.3893	0.059
Mof_N 	N 	0.5522	0.9513	0.5861	-0.131
Mof_N 	N 	0.5588	0.9197	0.6169	-0.09
Mof_C 	C 	0.614	0.8515	0.672	0.137
Mof_C 	C 	0.5905	0.8302	0.6484	-0.111
Mof_C 	C 	0.6346	0.813	0.6934	-0.05
Mof_C 	C 	0.6107	0.7861	0.669	0.059
Mof_N 	N 	0.5522	0.0487	0.4139	-0.144
Mof_N 	N 	0.5588	0.0803	0.3831	-0.095
Mof_C 	C 	0.614	0.1485	0.328	0.12
Mof_C 	C 	0.5905	0.1698	0.3516	-0.101
Mof_C 	C 	0.6346	0.187	0.3066	-0.045
Mof_C 	C 	0.6107	0.2139	0.331	0.054
Mof_N 	N 	0.4478	0.0487	0.5861	-0.144
Mof_N 	N 	0.4412	0.0803	0.6169	-0.095
Mof_C 	C 	0.386	0.1485	0.672	0.121
Mof_C 	C 	0.4095	0.1698	0.6484	-0.101
Mof_C 	C 	0.3654	0.187	0.6934	-0.044
Mof_C 	C 	0.3893	0.2139	0.669	0.054
Mof_N 	N 	0.4478	0.9513	0.4139	-0.131
Mof_N 	N 	0.4412	0.9197	0.3831	-0.09
Mof_C 	C 	0.386	0.8515	0.328	0.136
Mof_C 	C 	0.4095	0.8302	0.3516	-0.11
Mof_C 	C 	0.3654	0.813	0.3066	-0.05
Mof_C 	C 	0.3893	0.7861	0.331	0.059
Mof_N 	N 	0.5861	0.5522	0.9513	-0.131
Mof_N 	N 	0.6169	0.5588	0.9197	-0.09
Mof_C 	C 	0.672	0.614	0.8515	0.137
Mof_C 	C 	0.6484	0.5905	0.8302	-0.111
Mof_C 	C 	0.6934	0.6346	0.813	-0.05
Mof_C 	C 	0.669	0.6107	0.7861	0.059
Mof_N 	N 	0.4139	0.5522	0.0487	-0.144
Mof_N 	N 	0.3831	0.5588	0.0803	-0.095
Mof_C 	C 	0.328	0.614	0.1485	0.12
Mof_C 	C 	0.3516	0.5905	0.1698	-0.101
Mof_C 	C 	0.3066	0.6346	0.187	-0.045
Mof_C 	C 	0.331	0.6107	0.2139	0.054
Mof_N 	N 	0.5861	0.4478	0.0487	-0.144
Mof_N 	N 	0.6169	0.4412	0.0803	-0.095
Mof_C 	C 	0.672	0.386	0.1485	0.121
Mof_C 	C 	0.6484	0.4095	0.1698	-0.101
Mof_C 	C 	0.6934	0.3654	0.187	-0.044
Mof_C 	C 	0.669	0.3893	0.2139	0.054
Mof_N 	N 	0.4139	0.4478	0.9513	-0.131
Mof_N 	N 	0.3831	0.4412	0.9197	-0.09
Mof_C 	C 	0.328	0.386	0.8515	0.136
Mof_C 	C 	0.3516	0.4095	0.8302	-0.11
Mof_C 	C 	0.3066	0.3654	0.813	-0.05
Mof_C 	C 	0.331	0.3893	0.7861	0.059
Mof_N 	N 	0.5861	0.9513	0.4478	-0.131
Mof_N 	N 	0.6169	0.9197	0.4412	-0.09
Mof_C 	C 	0.672	0.8515	0.386	0.136
Mof_C 	C 	0.6484	0.8302	0.4095	-0.11
Mof_C 	C 	0.6934	0.813	0.3654	-0.049
Mof_C 	C 	0.669	0.7861	0.3893	0.059
Mof_N 	N 	0.4139	0.0487	0.4478	-0.144
Mof_N 	N 	0.3831	0.0803	0.4412	-0.095
Mof_C 	C 	0.328	0.1485	0.386	0.12
Mof_C 	C 	0.3516	0.1698	0.4095	-0.101
Mof_C 	C 	0.3066	0.187	0.3654	-0.045
Mof_C 	C 	0.331	0.2139	0.3893	0.054
Mof_N 	N 	0.5861	0.0487	0.5522	-0.144
Mof_N 	N 	0.6169	0.0803	0.5588	-0.095
Mof_C 	C 	0.672	0.1485	0.614	0.121
Mof_C 	C 	0.6484	0.1698	0.5905	-0.101
Mof_C 	C 	0.6934	0.187	0.6346	-0.045
Mof_C 	C 	0.669	0.2139	0.6107	0.054
Mof_N 	N 	0.4139	0.9513	0.5522	-0.131
Mof_N 	N 	0.3831	0.9197	0.5588	-0.09
Mof_C 	C 	0.328	0.8515	0.614	0.136
Mof_C 	C 	0.3516	0.8302	0.5905	-0.11
Mof_C 	C 	0.3066	0.813	0.6346	-0.05
Mof_C 	C 	0.331	0.7861	0.6107	0.059
Mof_N 	N 	0.9513	0.5522	0.4139	-0.131
Mof_N 	N 	0.9197	0.5588	0.3831	-0.09
Mof_C 	C 	0.8515	0.614	0.328	0.136
Mof_C 	C 	0.8302	0.5905	0.3516	-0.11
Mof_C 	C 	0.813	0.6346	0.3066	-0.05
Mof_C 	C 	0.7861	0.6107	0.331	0.059
Mof_N 	N 	0.0487	0.5522	0.5861	-0.144
Mof_N 	N 	0.0803	0.5588	0.6169	-0.095
Mof_C 	C 	0.1485	0.614	0.672	0.121
Mof_C 	C 	0.1698	0.5905	0.6484	-0.101
Mof_C 	C 	0.187	0.6346	0.6934	-0.045
Mof_C 	C 	0.2139	0.6107	0.669	0.054
Mof_N 	N 	0.0487	0.4478	0.4139	-0.144
Mof_N 	N 	0.0803	0.4412	0.3831	-0.095
Mof_C 	C 	0.1485	0.386	0.328	0.12
Mof_C 	C 	0.1698	0.4095	0.3516	-0.101
Mof_C 	C 	0.187	0.3654	0.3066	-0.045
Mof_C 	C 	0.2139	0.3893	0.331	0.054
Mof_N 	N 	0.9513	0.4478	0.5861	-0.131
Mof_N 	N 	0.9197	0.4412	0.6169	-0.09
Mof_C 	C 	0.8515	0.386	0.672	0.136
Mof_C 	C 	0.8302	0.4095	0.6484	-0.11
Mof_C 	C 	0.813	0.3654	0.6934	-0.049
Mof_C 	C 	0.7861	0.3893	0.669	0.059
Mof_N 	N 	0.5522	0.5861	0.0487	-0.144
Mof_N 	N 	0.5588	0.6169	0.0803	-0.095
Mof_C 	C 	0.614	0.672	0.1485	0.121
Mof_C 	C 	0.5905	0.6484	0.1698	-0.101
Mof_C 	C 	0.6346	0.6934	0.187	-0.045
Mof_C 	C 	0.6107	0.669	0.2139	0.054
Mof_N 	N 	0.5522	0.4139	0.9513	-0.131
Mof_N 	N 	0.5588	0.3831	0.9197	-0.09
Mof_C 	C 	0.614	0.328	0.8515	0.136
Mof_C 	C 	0.5905	0.3516	0.8302	-0.11
Mof_C 	C 	0.6346	0.3066	0.813	-0.05
Mof_C 	C 	0.6107	0.331	0.7861	0.059
Mof_N 	N 	0.4478	0.5861	0.9513	-0.131
Mof_N 	N 	0.4412	0.6169	0.9197	-0.09
Mof_C 	C 	0.386	0.672	0.8515	0.136
Mof_C 	C 	0.4095	0.6484	0.8302	-0.11
Mof_C 	C 	0.3654	0.6934	0.813	-0.049
Mof_C 	C 	0.3893	0.669	0.7861	0.059
Mof_N 	N 	0.4478	0.4139	0.0487	-0.144
Mof_N 	N 	0.4412	0.3831	0.0803	-0.095
Mof_C 	C 	0.386	0.328	0.1485	0.12
Mof_C 	C 	0.4095	0.3516	0.1698	-0.101
Mof_C 	C 	0.3654	0.3066	0.187	-0.045
Mof_C 	C 	0.3893	0.331	0.2139	0.054
Mof_N 	N 	0.0487	0.4139	0.4478	-0.144
Mof_N 	N 	0.0803	0.3831	0.4412	-0.095
Mof_C 	C 	0.1485	0.328	0.386	0.12
Mof_C 	C 	0.1698	0.3516	0.4095	-0.101
Mof_C 	C 	0.187	0.3066	0.3654	-0.045
Mof_C 	C 	0.2139	0.331	0.3893	0.054
Mof_N 	N 	0.9513	0.5861	0.4478	-0.131
Mof_N 	N 	0.9197	0.6169	0.4412	-0.09
Mof_C 	C 	0.8515	0.672	0.386	0.136
Mof_C 	C 	0.8302	0.6484	0.4095	-0.11
Mof_C 	C 	0.813	0.6934	0.3654	-0.049
Mof_C 	C 	0.7861	0.669	0.3893	0.059
Mof_N 	N 	0.9513	0.4139	0.5522	-0.131
Mof_N 	N 	0.9197	0.3831	0.5588	-0.09
Mof_C 	C 	0.8515	0.328	0.614	0.136
Mof_C 	C 	0.8302	0.3516	0.5905	-0.11
Mof_C 	C 	0.813	0.3066	0.6346	-0.05
Mof_C 	C 	0.7861	0.331	0.6107	0.059
Mof_N 	N 	0.0487	0.5861	0.5522	-0.144
Mof_N 	N 	0.0803	0.6169	0.5588	-0.095
Mof_C 	C 	0.1485	0.672	0.614	0.121
Mof_C 	C 	0.1698	0.6484	0.5905	-0.101
Mof_C 	C 	0.187	0.6934	0.6346	-0.045
Mof_C 	C 	0.2139	0.669	0.6107	0.054
Mof_N 	N 	0.4478	0.0487	0.4139	-0.144
Mof_N 	N 	0.4412	0.0803	0.3831	-0.095
Mof_C 	C 	0.386	0.1485	0.328	0.12
Mof_C 	C 	0.4095	0.1698	0.3516	-0.101
Mof_C 	C 	0.3654	0.187	0.3066	-0.045
Mof_C 	C 	0.3893	0.2139	0.331	0.054
Mof_N 	N 	0.4478	0.9513	0.5861	-0.131
Mof_N 	N 	0.4412	0.9197	0.6169	-0.09
Mof_C 	C 	0.386	0.8515	0.672	0.136
Mof_C 	C 	0.4095	0.8302	0.6484	-0.11
Mof_C 	C 	0.3654	0.813	0.6934	-0.049
Mof_C 	C 	0.3893	0.7861	0.669	0.059
Mof_N 	N 	0.5522	0.9513	0.4139	-0.131
Mof_N 	N 	0.5588	0.9197	0.3831	-0.09
Mof_C 	C 	0.614	0.8515	0.328	0.136
Mof_C 	C 	0.5905	0.8302	0.3516	-0.11
Mof_C 	C 	0.6346	0.813	0.3066	-0.05
Mof_C 	C 	0.6107	0.7861	0.331	0.059
Mof_N 	N 	0.5522	0.0487	0.5861	-0.144
Mof_N 	N 	0.5588	0.0803	0.6169	-0.095
Mof_C 	C 	0.614	0.1485	0.672	0.121
Mof_C 	C 	0.5905	0.1698	0.6484	-0.101
Mof_C 	C 	0.6346	0.187	0.6934	-0.045
Mof_C 	C 	0.6107	0.2139	0.669	0.054
Mof_N 	N 	0.4139	0.4478	0.0487	-0.144
Mof_N 	N 	0.3831	0.4412	0.0803	-0.095
Mof_C 	C 	0.328	0.386	0.1485	0.12
Mof_C 	C 	0.3516	0.4095	0.1698	-0.101
Mof_C 	C 	0.3066	0.3654	0.187	-0.045
Mof_C 	C 	0.331	0.3893	0.2139	0.054
Mof_N 	N 	0.5861	0.4478	0.9513	-0.131
Mof_N 	N 	0.6169	0.4412	0.9197	-0.09
Mof_C 	C 	0.672	0.386	0.8515	0.136
Mof_C 	C 	0.6484	0.4095	0.8302	-0.11
Mof_C 	C 	0.6934	0.3654	0.813	-0.049
Mof_C 	C 	0.669	0.3893	0.7861	0.059
Mof_N 	N 	0.4139	0.5522	0.9513	-0.131
Mof_N 	N 	0.3831	0.5588	0.9197	-0.09
Mof_C 	C 	0.328	0.614	0.8515	0.136
Mof_C 	C 	0.3516	0.5905	0.8302	-0.11
Mof_C 	C 	0.3066	0.6346	0.813	-0.05
Mof_C 	C 	0.331	0.6107	0.7861	0.059
Mof_N 	N 	0.5861	0.5522	0.0487	-0.144
Mof_N 	N 	0.6169	0.5588	0.0803	-0.095
Mof_C 	C 	0.672	0.614	0.1485	0.121
Mof_C 	C 	0.6484	0.5905	0.1698	-0.101
Mof_C 	C 	0.6934	0.6346	0.187	-0.045
Mof_C 	C 	0.669	0.6107	0.2139	0.054
Mof_N 	N 	0.4139	0.0487	0.5522	-0.144
Mof_N 	N 	0.3831	0.0803	0.5588	-0.095
Mof_C 	C 	0.328	0.1485	0.614	0.12
Mof_C 	C 	0.3516	0.1698	0.5905	-0.101
Mof_C 	C 	0.3066	0.187	0.6346	-0.045
Mof_C 	C 	0.331	0.2139	0.6107	0.054
Mof_N 	N 	0.5861	0.9513	0.5522	-0.131
Mof_N 	N 	0.6169	0.9197	0.5588	-0.09
Mof_C 	C 	0.672	0.8515	0.614	0.137
Mof_C 	C 	0.6484	0.8302	0.5905	-0.111
Mof_C 	C 	0.6934	0.813	0.6346	-0.05
Mof_C 	C 	0.669	0.7861	0.6107	0.059
Mof_N 	N 	0.4139	0.9513	0.4478	-0.131
Mof_N 	N 	0.3831	0.9197	0.4412	-0.09
Mof_C 	C 	0.328	0.8515	0.386	0.136
Mof_C 	C 	0.3516	0.8302	0.4095	-0.11
Mof_C 	C 	0.3066	0.813	0.3654	-0.05
Mof_C 	C 	0.331	0.7861	0.3893	0.059
Mof_N 	N 	0.5861	0.0487	0.4478	-0.144
Mof_N 	N 	0.6169	0.0803	0.4412	-0.095
Mof_C 	C 	0.672	0.1485	0.386	0.121
Mof_C 	C 	0.6484	0.1698	0.4095	-0.101
Mof_C 	C 	0.6934	0.187	0.3654	-0.044
Mof_C 	C 	0.669	0.2139	0.3893	0.054
Mof_N 	N 	0.0487	0.4478	0.5861	-0.144
Mof_N 	N 	0.0803	0.4412	0.6169	-0.095
Mof_C 	C 	0.1485	0.386	0.672	0.121
Mof_C 	C 	0.1698	0.4095	0.6484	-0.101
Mof_C 	C 	0.187	0.3654	0.6934	-0.044
Mof_C 	C 	0.2139	0.3893	0.669	0.054
Mof_N 	N 	0.9513	0.4478	0.4139	-0.131
Mof_N 	N 	0.9197	0.4412	0.3831	-0.09
Mof_C 	C 	0.8515	0.386	0.328	0.136
Mof_C 	C 	0.8302	0.4095	0.3516	-0.11
Mof_C 	C 	0.813	0.3654	0.3066	-0.05
Mof_C 	C 	0.7861	0.3893	0.331	0.059
Mof_N 	N 	0.9513	0.5522	0.5861	-0.131
Mof_N 	N 	0.9197	0.5588	0.6169	-0.09
Mof_C 	C 	0.8515	0.614	0.672	0.137
Mof_C 	C 	0.8302	0.5905	0.6484	-0.111
Mof_C 	C 	0.813	0.6346	0.6934	-0.05
Mof_C 	C 	0.7861	0.6107	0.669	0.059
Mof_N 	N 	0.0487	0.5522	0.4139	-0.144
Mof_N 	N 	0.0803	0.5588	0.3831	-0.095
Mof_C 	C 	0.1485	0.614	0.328	0.12
Mof_C 	C 	0.1698	0.5905	0.3516	-0.101
Mof_C 	C 	0.187	0.6346	0.3066	-0.045
Mof_C 	C 	0.2139	0.6107	0.331	0.054
Mof_N 	N 	0.4478	0.4139	0.9513	-0.131
Mof_N 	N 	0.4412	0.3831	0.9197	-0.09
Mof_C 	C 	0.386	0.328	0.8515	0.136
Mof_C 	C 	0.4095	0.3516	0.8302	-0.11
Mof_C 	C 	0.3654	0.3066	0.813	-0.05
Mof_C 	C 	0.3893	0.331	0.7861	0.059
Mof_N 	N 	0.4478	0.5861	0.0487	-0.144
Mof_N 	N 	0.4412	0.6169	0.0803	-0.095
Mof_C 	C 	0.386	0.672	0.1485	0.121
Mof_C 	C 	0.4095	0.6484	0.1698	-0.101
Mof_C 	C 	0.3654	0.6934	0.187	-0.044
Mof_C 	C 	0.3893	0.669	0.2139	0.054
Mof_N 	N 	0.5522	0.4139	0.0487	-0.144
Mof_N 	N 	0.5588	0.3831	0.0803	-0.095
Mof_C 	C 	0.614	0.328	0.1485	0.12
Mof_C 	C 	0.5905	0.3516	0.1698	-0.101
Mof_C 	C 	0.6346	0.3066	0.187	-0.045
Mof_C 	C 	0.6107	0.331	0.2139	0.054
Mof_N 	N 	0.5522	0.5861	0.9513	-0.131
Mof_N 	N 	0.5588	0.6169	0.9197	-0.09
Mof_C 	C 	0.614	0.672	0.8515	0.137
Mof_C 	C 	0.5905	0.6484	0.8302	-0.111
Mof_C 	C 	0.6346	0.6934	0.813	-0.05
Mof_C 	C 	0.6107	0.669	0.7861	0.059
Mof_Cu	Cu	1.8747e-33	0.5894	0.5	0.869
Mof_Cu	Cu	-2.47529e-33	0.4106	0.5	0.869
Mof_Cu	Cu	0.5	-4.34999e-33	0.5894	0.869
Mof_Cu	Cu	0.5	-4.34999e-33	0.4106	0.869
Mof_Cu	Cu	0.5894	0.5	-0	0.869
Mof_Cu	Cu	0.4106	0.5	-0	0.869
Mof_Cu	Cu	0.5894	0	0.5	0.869
Mof_Cu	Cu	0.4106	0	0.5	0.869
Mof_Cu	Cu	-2.81048e-33	0.5	0.4106	0.869
Mof_Cu	Cu	-2.14009e-33	0.5	0.5894	0.869
Mof_Cu	Cu	0.5	0.5894	-0	0.869
Mof_Cu	Cu	0.5	0.4106	-0	0.869
Mof_Cl	Cl	1.8747e-33	0.5	0.5	-0.707
Mof_Cl	Cl	0.5	0	0.5	-0.707
Mof_Cl	Cl	0.5	0.5	-0	-0.707
Mof_N 	N 	0.7374	0.7374	0.676	-0.11
Mof_N 	N 	0.7096	0.7096	0.651	-0.057
Mof_N 	N 	0.2626	0.2626	0.676	-0.111
Mof_N 	N 	0.2904	0.2904	0.651	-0.058
Mof_N 	N 	0.2626	0.7374	0.324	-0.111
Mof_N 	N 	0.2904	0.7096	0.349	-0.058
Mof_N 	N 	0.7374	0.2626	0.324	-0.111
Mof_N 	N 	0.7096	0.2904	0.349	-0.058
Mof_N 	N 	0.676	0.7374	0.7374	-0.11
Mof_N 	N 	0.651	0.7096	0.7096	-0.057
Mof_N 	N 	0.676	0.2626	0.2626	-0.111
Mof_N 	N 	0.651	0.2904	0.2904	-0.058
Mof_N 	N 	0.324	0.2626	0.7374	-0.111
Mof_N 	N 	0.349	0.2904	0.7096	-0.058
Mof_N 	N 	0.324	0.7374	0.2626	-0.111
Mof_N 	N 	0.349	0.7096	0.2904	-0.058
Mof_N 	N 	0.7374	0.676	0.7374	-0.11
Mof_N 	N 	0.7096	0.651	0.7096	-0.057
Mof_N 	N 	0.2626	0.676	0.2626	-0.111
Mof_N 	N 	0.2904	0.651	0.2904	-0.058
Mof_N 	N 	0.7374	0.324	0.2626	-0.111
Mof_N 	N 	0.7096	0.349	0.2904	-0.058
Mof_N 	N 	0.2626	0.324	0.7374	-0.111
Mof_N 	N 	0.2904	0.349	0.7096	-0.058
Mof_N 	N 	0.7374	0.7374	0.324	-0.11
Mof_N 	N 	0.7096	0.7096	0.349	-0.057
Mof_N 	N 	0.2626	0.2626	0.324	-0.111
Mof_N 	N 	0.2904	0.2904	0.349	-0.058
Mof_N 	N 	0.7374	0.2626	0.676	-0.111
Mof_N 	N 	0.7096	0.2904	0.651	-0.058
Mof_N 	N 	0.2626	0.7374	0.676	-0.111
Mof_N 	N 	0.2904	0.7096	0.651	-0.058
Mof_N 	N 	0.7374	0.676	0.2626	-0.111
Mof_N 	N 	0.7096	0.651	0.2904	-0.058
Mof_N 	N 	0.2626	0.676	0.7374	-0.111
Mof_N 	N 	0.2904	0.651	0.7096	-0.058
Mof_N 	N 	0.2626	0.324	0.2626	-0.111
Mof_N 	N 	0.2904	0.349	0.2904	-0.058
Mof_N 	N 	0.7374	0.324	0.7374	-0.11
Mof_N 	N 	0.7096	0.349	0.7096	-0.057
Mof_N 	N 	0.676	0.7374	0.2626	-0.111
Mof_N 	N 	0.651	0.7096	0.2904	-0.058
Mof_N 	N 	0.676	0.2626	0.7374	-0.111
Mof_N 	N 	0.651	0.2904	0.7096	-0.058
Mof_N 	N 	0.324	0.7374	0.7374	-0.11
Mof_N 	N 	0.349	0.7096	0.7096	-0.057
Mof_N 	N 	0.324	0.2626	0.2626	-0.111
Mof_N 	N 	0.349	0.2904	0.2904	-0.058
Mof_C 	C 	0.9004	0.5991	0.5991	0.12
Mof_C 	C 	0.868	0.6311	0.6311	-0.229
Mof_C 	C 	0.851	0.6119	0.6119	0.2
Mof_C 	C 	0.7936	0.671	0.671	0.01
Mof_C 	C 	0.761	0.641	0.641	-0.01
Mof_C 	C 	0.7565	0.6983	0.6983	0.129
Mof_C 	C 	0.0996	0.4009	0.5991	0.116
Mof_C 	C 	0.132	0.3689	0.6311	-0.216
Mof_C 	C 	0.149	0.3881	0.6119	0.186
Mof_C 	C 	0.2064	0.329	0.671	0.005
Mof_C 	C 	0.239	0.359	0.641	-0.006
Mof_C 	C 	0.2435	0.3017	0.6983	0.13
Mof_C 	C 	0.0996	0.5991	0.4009	0.116
Mof_C 	C 	0.132	0.6311	0.3689	-0.216
Mof_C 	C 	0.149	0.6119	0.3881	0.186
Mof_C 	C 	0.2064	0.671	0.329	0.005
Mof_C 	C 	0.239	0.641	0.359	-0.006
Mof_C 	C 	0.2435	0.6983	0.3017	0.13
Mof_C 	C 	0.9004	0.4009	0.4009	0.12
Mof_C 	C 	0.868	0.3689	0.3689	-0.228
Mof_C 	C 	0.851	0.3881	0.3881	0.199
Mof_C 	C 	0.7936	0.329	0.329	0.01
Mof_C 	C 	0.761	0.359	0.359	-0.009
Mof_C 	C 	0.7565	0.3017	0.3017	0.129
Mof_C 	C 	0.5991	0.9004	0.5991	0.12
Mof_C 	C 	0.6311	0.868	0.6311	-0.229
Mof_C 	C 	0.6119	0.851	0.6119	0.2
Mof_C 	C 	0.671	0.7936	0.671	0.01
Mof_C 	C 	0.641	0.761	0.641	-0.01
Mof_C 	C 	0.6983	0.7565	0.6983	0.129
Mof_C 	C 	0.5991	0.0996	0.4009	0.116
Mof_C 	C 	0.6311	0.132	0.3689	-0.216
Mof_C 	C 	0.6119	0.149	0.3881	0.186
Mof_C 	C 	0.671	0.2064	0.329	0.005
Mof_C 	C 	0.641	0.239	0.359	-0.006
Mof_C 	C 	0.6983	0.2435	0.3017	0.13
Mof_C 	C 	0.4009	0.0996	0.5991	0.116
Mof_C 	C 	0.3689	0.132	0.6311	-0.216
Mof_C 	C 	0.3881	0.149	0.6119	0.186
Mof_C 	C 	0.329	0.2064	0.671	0.005
Mof_C 	C 	0.359	0.239	0.641	-0.006
Mof_C 	C 	0.3017	0.2435	0.6983	0.13
Mof_C 	C 	0.4009	0.9004	0.4009	0.12
Mof_C 	C 	0.3689	0.868	0.3689	-0.228
Mof_C 	C 	0.3881	0.851	0.3881	0.199
Mof_C 	C 	0.329	0.7936	0.329	0.01
Mof_C 	C 	0.359	0.761	0.359	-0.009
Mof_C 	C 	0.3017	0.7565	0.3017	0.129
Mof_C 	C 	0.5991	0.5991	0.9004	0.12
Mof_C 	C 	0.6311	0.6311	0.868	-0.229
Mof_C 	C 	0.6119	0.6119	0.851	0.2
Mof_C 	C 	0.671	0.671	0.7936	0.01
Mof_C 	C 	0.641	0.641	0.761	-0.01
Mof_C 	C 	0.6983	0.6983	0.7565	0.129
Mof_C 	C 	0.4009	0.5991	0.0996	0.116
Mof_C 	C 	0.3689	0.6311	0.132	-0.216
Mof_C 	C 	0.3881	0.6119	0.149	0.186
Mof_C 	C 	0.329	0.671	0.2064	0.005
Mof_C 	C 	0.359	0.641	0.239	-0.006
Mof_C 	C 	0.3017	0.6983	0.2435	0.13
Mof_C 	C 	0.5991	0.4009	0.0996	0.116
Mof_C 	C 	0.6311	0.3689	0.132	-0.216
Mof_C 	C 	0.6119	0.3881	0.149	0.186
Mof_C 	C 	0.671	0.329	0.2064	0.005
Mof_C 	C 	0.641	0.359	0.239	-0.006
Mof_C 	C 	0.6983	0.3017	0.2435	0.13
Mof_C 	C 	0.4009	0.4009	0.9004	0.12
Mof_C 	C 	0.3689	0.3689	0.868	-0.228
Mof_C 	C 	0.3881	0.3881	0.851	0.199
Mof_C 	C 	0.329	0.329	0.7936	0.01
Mof_C 	C 	0.359	0.359	0.761	-0.009
Mof_C 	C 	0.3017	0.3017	0.7565	0.129
Mof_C 	C 	0.5991	0.9004	0.4009	0.12
Mof_C 	C 	0.6311	0.868	0.3689	-0.228
Mof_C 	C 	0.6119	0.851	0.3881	0.199
Mof_C 	C 	0.671	0.7936	0.329	0.01
Mof_C 	C 	0.641	0.761	0.359	-0.009
Mof_C 	C 	0.6983	0.7565	0.3017	0.129
Mof_C 	C 	0.4009	0.0996	0.4009	0.116
Mof_C 	C 	0.3689	0.132	0.3689	-0.216
Mof_C 	C 	0.3881	0.149	0.3881	0.186
Mof_C 	C 	0.329	0.2064	0.329	0.005
Mof_C 	C 	0.359	0.239	0.359	-0.006
Mof_C 	C 	0.3017	0.2435	0.3017	0.13
Mof_C 	C 	0.5991	0.0996	0.5991	0.116
Mof_C 	C 	0.6311	0.132	0.6311	-0.217
Mof_C 	C 	0.6119	0.149	0.6119	0.187
Mof_C 	C 	0.671	0.2064	0.671	0.005
Mof_C 	C 	0.641	0.239	0.641	-0.006
Mof_C 	C 	0.6983	0.2435	0.6983	0.13
Mof_C 	C 	0.4009	0.9004	0.5991	0.12
Mof_C 	C 	0.3689	0.868	0.6311	-0.228
Mof_C 	C 	0.3881	0.851	0.6119	0.199
Mof_C 	C 	0.329	0.7936	0.671	0.01
Mof_C 	C 	0.359	0.761	0.641	-0.009
Mof_C 	C 	0.3017	0.7565	0.6983	0.129
Mof_C 	C 	0.9004	0.5991	0.4009	0.12
Mof_C 	C 	0.868	0.6311	0.3689	-0.228
Mof_C 	C 	0.851	0.6119	0.3881	0.199
Mof_C 	C 	0.7936	0.671	0.329	0.01
Mof_C 	C 	0.761	0.641	0.359	-0.009
Mof_C 	C 	0.7565	0.6983	0.3017	0.129
Mof_C 	C 	0.0996	0.5991	0.5991	0.116
Mof_C 	C 	0.132	0.6311	0.6311	-0.217
Mof_C 	C 	0.149	0.6119	0.6119	0.187
Mof_C 	C 	0.2064	0.671	0.671	0.005
Mof_C 	C 	0.239	0.641	0.641	-0.006
Mof_C 	C 	0.2435	0.6983	0.6983	0.13
Mof_C 	C 	0.0996	0.4009	0.4009	0.116
Mof_C 	C 	0.132	0.3689	0.3689	-0.216
Mof_C 	C 	0.149	0.3881	0.3881	0.186
Mof_C 	C 	0.2064	0.329	0.329	0.005
Mof_C 	C 	0.239	0.359	0.359	-0.006
Mof_C 	C 	0.2435	0.3017	0.3017	0.13
Mof_C 	C 	0.9004	0.4009	0.5991	0.12
Mof_C 	C 	0.868	0.3689	0.6311	-0.228
Mof_C 	C 	0.851	0.3881	0.6119	0.199
Mof_C 	C 	0.7936	0.329	0.671	0.01
Mof_C 	C 	0.761	0.359	0.641	-0.009
Mof_C 	C 	0.7565	0.3017	0.6983	0.129
Mof_C 	C 	0.5991	0.5991	0.0996	0.116
Mof_C 	C 	0.6311	0.6311	0.132	-0.217
Mof_C 	C 	0.6119	0.6119	0.149	0.187
Mof_C 	C 	0.671	0.671	0.2064	0.005
Mof_C 	C 	0.641	0.641	0.239	-0.006
Mof_C 	C 	0.6983	0.6983	0.2435	0.13
Mof_C 	C 	0.5991	0.4009	0.9004	0.12
Mof_C 	C 	0.6311	0.3689	0.868	-0.228
Mof_C 	C 	0.6119	0.3881	0.851	0.199
Mof_C 	C 	0.671	0.329	0.7936	0.01
Mof_C 	C 	0.641	0.359	0.761	-0.009
Mof_C 	C 	0.6983	0.3017	0.7565	0.129
Mof_C 	C 	0.4009	0.5991	0.9004	0.12
Mof_C 	C 	0.3689	0.6311	0.868	-0.228
Mof_C 	C 	0.3881	0.6119	0.851	0.199
Mof_C 	C 	0.329	0.671	0.7936	0.01
Mof_C 	C 	0.359	0.641	0.761	-0.009
Mof_C 	C 	0.3017	0.6983	0.7565	0.129
Mof_C 	C 	0.4009	0.4009	0.0996	0.116
Mof_C 	C 	0.3689	0.3689	0.132	-0.216
Mof_C 	C 	0.3881	0.3881	0.149	0.186
Mof_C 	C 	0.329	0.329	0.2064	0.005
Mof_C 	C 	0.359	0.359	0.239	-0.006
Mof_C 	C 	0.3017	0.3017	0.2435	0.13
_end
