# CIF file generated by openbabel 3.1.0, see https://openbabel.org
data_I
_chemical_name_common 'image0'
_cell_length_a 11.2208
_cell_length_b 11.7575
_cell_length_c 16.2014
_cell_angle_alpha 90
_cell_angle_beta 129.17
_cell_angle_gamma 90
_space_group_name_H-M_alt 'P 1'
_space_group_name_Hall 'P 1'
loop_
    _symmetry_equiv_pos_as_xyz
    x,y,z
loop_
    _atom_site_label
    _atom_site_type_symbol
    _atom_site_fract_x
    _atom_site_fract_y
    _atom_site_fract_z
    _atom_site_occupancy
    Zn1      Zn       0.17659    0.02719    0.01762    1.000
    S1       S        0.02169    0.97379    0.78517    1.000
    O1       O        0.06269    0.92963    0.88587    1.000
    O2       O        0.86555    0.94595    0.69596    1.000
    O3       O        0.06260    0.09157    0.79461    1.000
    O4       O        0.21350    0.57976    0.62536    1.000
    O5       O        0.97498    0.64971    0.53342    1.000
    O6       O        0.64156    0.85211    0.86878    1.000
    O7       O        0.60734    0.98590    0.94563    1.000
    C1       C        0.14160    0.89782    0.76806    1.000
    C2       C        0.08280    0.80947    0.69552    1.000
    H1       H        0.97740    0.78930    0.65370    1.000
    C3       C        0.17950    0.75024    0.68415    1.000
    C4       C        0.11730    0.65266    0.60838    1.000
    C5       C        0.33320    0.78114    0.74468    1.000
    H2       H        0.39890    0.74110    0.73670    1.000
    C6       C        0.39130    0.87061    0.81703    1.000
    C7       C        0.29590    0.92857    0.82967    1.000
    H3       H        0.33550    0.98870    0.87990    1.000
    C8       C        0.55630    0.90431    0.88079    1.000
    Zn2      Zn       0.82341    0.52719    0.48238    1.000
    S2       S        0.97831    0.47379    0.71483    1.000
    O8       O        0.93731    0.42963    0.61413    1.000
    O9       O        0.13445    0.44595    0.80404    1.000
    O10      O        0.93740    0.59157    0.70539    1.000
    O11      O        0.78650    0.07976    0.87464    1.000
    O12      O        0.02502    0.14971    0.96658    1.000
    O13      O        0.35844    0.35211    0.63122    1.000
    O14      O        0.39266    0.48590    0.55437    1.000
    C9       C        0.85840    0.39782    0.73194    1.000
    C10      C        0.91720    0.30947    0.80448    1.000
    H4       H        0.02260    0.28930    0.84630    1.000
    C11      C        0.82050    0.25024    0.81585    1.000
    C12      C        0.88270    0.15266    0.89162    1.000
    C13      C        0.66680    0.28114    0.75532    1.000
    H5       H        0.60110    0.24110    0.76330    1.000
    C14      C        0.60870    0.37061    0.68297    1.000
    C15      C        0.70410    0.42857    0.67033    1.000
    H6       H        0.66450    0.48870    0.62010    1.000
    C16      C        0.44370    0.40431    0.61921    1.000
    Zn3      Zn       0.82341    0.97281    0.98238    1.000
    S3       S        0.97831    0.02621    0.21483    1.000
    O15      O        0.93731    0.07037    0.11413    1.000
    O16      O        0.13445    0.05405    0.30404    1.000
    O17      O        0.93740    0.90843    0.20539    1.000
    O18      O        0.78650    0.42024    0.37464    1.000
    O19      O        0.02502    0.35029    0.46658    1.000
    O20      O        0.35844    0.14789    0.13122    1.000
    O21      O        0.39266    0.01410    0.05437    1.000
    C17      C        0.85840    0.10218    0.23194    1.000
    C18      C        0.91720    0.19053    0.30448    1.000
    H7       H        0.02260    0.21070    0.34630    1.000
    C19      C        0.82050    0.24976    0.31585    1.000
    C20      C        0.88270    0.34734    0.39162    1.000
    C21      C        0.66680    0.21886    0.25532    1.000
    H8       H        0.60110    0.25890    0.26330    1.000
    C22      C        0.60870    0.12939    0.18297    1.000
    C23      C        0.70410    0.07143    0.17033    1.000
    H9       H        0.66450    0.01130    0.12010    1.000
    C24      C        0.44370    0.09569    0.11921    1.000
    Zn4      Zn       0.17659    0.47281    0.51762    1.000
    S4       S        0.02169    0.52621    0.28517    1.000
    O22      O        0.06269    0.57037    0.38587    1.000
    O23      O        0.86555    0.55405    0.19596    1.000
    O24      O        0.06260    0.40843    0.29461    1.000
    O25      O        0.21350    0.92024    0.12536    1.000
    O26      O        0.97498    0.85029    0.03342    1.000
    O27      O        0.64156    0.64789    0.36878    1.000
    O28      O        0.60734    0.51410    0.44563    1.000
    C25      C        0.14160    0.60218    0.26806    1.000
    C26      C        0.08280    0.69053    0.19552    1.000
    H10      H        0.97740    0.71070    0.15370    1.000
    C27      C        0.17950    0.74976    0.18415    1.000
    C28      C        0.11730    0.84734    0.10838    1.000
    C29      C        0.33320    0.71886    0.24468    1.000
    H11      H        0.39890    0.75890    0.23670    1.000
    C30      C        0.39130    0.62939    0.31703    1.000
    C31      C        0.29590    0.57143    0.32967    1.000
    H12      H        0.33550    0.51130    0.37990    1.000
    C32      C        0.55630    0.59569    0.38079    1.000
