data_functionalizedCrystal
_audit_creation_method	'EQeq! by Chris Wilmer'
_symmetry_space_group_name_H-M	'P1'
_symmetry_Int_Tables_number	1
_symmetry_cell_setting	triclinic
loop_
_symmetry_equiv_pos_as_xyz
  x,y,z
_cell_length_a	16.1326
_cell_length_b	25.4852
_cell_length_c	19.1105
_cell_angle_alpha	90
_cell_angle_beta	90.059
_cell_angle_gamma	90
loop_
_atom_site_label
_atom_site_type_symbol
_atom_site_fract_x
_atom_site_fract_y
_atom_site_fract_z
_atom_site_charge
Mof_U 	U 	0.82961	0.78715	0.42404	-0.052
Mof_U 	U 	0.01106	0.98084	0.28037	-0.046
Mof_U 	U 	0.62486	0.97477	0.29312	-0.075
Mof_U 	U 	0.81134	0.81823	0.09358	-0.042
Mof_U 	U 	0.69902	0.17584	0.59756	-0.21
Mof_U 	U 	0.50004	0.01312	0.78181	-0.015
Mof_U 	U 	0.8866	0.0227	0.80508	-0.022
Mof_U 	U 	0.6703	0.20919	0.92869	-0.046
Mof_Rb	Rb	0.83209	0.95227	0.42166	3.414
Mof_Rb	Rb	0.65694	0.81866	0.26956	4.276
Mof_Rb	Rb	0.98448	0.82776	0.24948	3.795
Mof_Rb	Rb	0.64319	0.10305	0.12072	2.869
Mof_Rb	Rb	0.70319	0.01453	0.66115	3.504
Mof_Rb	Rb	0.84656	0.17711	0.78042	3.554
Mof_Rb	Rb	0.52023	0.16831	0.75279	3.809
Mof_Rb	Rb	0.7819	0.98234	0.01823	4.595
Mof_O 	O 	0.8312	0.8312	0.3519	-0.769
Mof_O 	O 	0.9214	0.94	0.2732	-0.585
Mof_O 	O 	0.7173	0.9374	0.2938	-0.606
Mof_O 	O 	0.8044	0.8531	0.1735	-0.616
Mof_O 	O 	0.5885	0.0546	0.7746	-0.649
Mof_O 	O 	0.7949	0.0605	0.7991	-0.607
Mof_O 	O 	0.6671	0.1638	0.8605	-0.59
Mof_O 	O 	0.9811	0.7798	0.4201	-0.373
Mof_O 	O 	0.931	0.8458	0.478	-0.467
Mof_O 	O 	0.0741	0.9055	0.346	-0.537
Mof_O 	O 	0.0077	0.9659	0.4061	-0.585
Mof_O 	O 	0.7626	0.8547	0.4967	-0.555
Mof_O 	O 	0.6795	0.8067	0.4359	-0.493
Mof_O 	O 	0.5536	0.897	0.3438	-0.587
Mof_O 	O 	0.6107	0.9518	0.4178	-0.412
Mof_O 	O 	0.7409	0.729	0.3532	-0.501
Mof_O 	O 	0.8743	0.7186	0.3408	-0.34
Mof_O 	O 	0.7639	0.7422	0.1607	-0.439
Mof_O 	O 	0.8988	0.752	0.1541	-0.555
Mof_O 	O 	0.9184	0.0432	0.3451	-0.422
Mof_O 	O 	0.9362	0.0559	0.2313	-0.205
Mof_O 	O 	0.6921	0.037	0.3712	-0.376
Mof_O 	O 	0.7042	0.0543	0.2596	-0.445
Mof_O 	O 	0.0205	0.9837	0.1503	-0.295
Mof_O 	O 	0.0831	0.918	0.2033	-0.535
Mof_O 	O 	0.9607	0.8449	0.0922	-0.511
Mof_O 	O 	0.8729	0.8925	0.0332	-0.716
Mof_O 	O 	0.6267	0.989	0.1634	-0.639
Mof_O 	O 	0.5755	0.9147	0.2027	-0.562
Mof_O 	O 	0.7063	0.8801	0.0464	-0.65
Mof_O 	O 	0.6609	0.808	0.0931	-0.392
Mof_O 	O 	0.5495	0.1492	0.5894	-0.513
Mof_O 	O 	0.6403	0.1005	0.5364	-0.402
Mof_O 	O 	0.427	0.0761	0.7038	-0.532
Mof_O 	O 	0.5008	0.0137	0.6518	-0.425
Mof_O 	O 	0.8063	0.1132	0.5576	-0.442
Mof_O 	O 	0.8496	0.1852	0.6041	-0.432
Mof_O 	O 	0.9439	0.0801	0.7147	-0.475
Mof_O 	O 	0.8842	0.0097	0.6766	-0.572
Mof_O 	O 	0.7409	0.2526	0.6675	-0.522
Mof_O 	O 	0.6107	0.2421	0.6514	-0.554
Mof_O 	O 	0.7559	0.2667	0.8561	-0.476
Mof_O 	O 	0.6227	0.2747	0.8417	-0.36
Mof_O 	O 	0.5845	0.9435	0.7301	-0.524
Mof_O 	O 	0.5831	0.9458	0.8451	-0.294
Mof_O 	O 	0.7987	0.9482	0.768	-0.553
Mof_O 	O 	0.8197	0.9588	0.8814	-0.744
Mof_O 	O 	0.4995	0.0283	0.9089	-0.232
Mof_O 	O 	0.4348	0.0875	0.8477	-0.488
Mof_O 	O 	0.52	0.2132	0.9194	-0.374
Mof_O 	O 	0.5693	0.1533	0.9907	-0.491
Mof_O 	O 	0.896	0.0468	0.9312	-0.623
Mof_O 	O 	0.9527	0.1003	0.8553	-0.554
Mof_O 	O 	0.7403	0.1446	0.0063	-0.608
Mof_O 	O 	0.8198	0.1924	0.9391	-0.475
Mof_O 	O 	0.7217	0.0087	0.515	-0.782
Mof_O 	O 	0.6033	0.728	0.1839	-0.605
Mof_O 	O 	0.564	0.7363	0.3488	-0.721
Mof_O 	O 	0.0369	0.7272	0.2985	-0.849
Mof_O 	O 	0.0825	0.7696	0.1401	-0.639
Mof_O 	O 	0.8056	0.9838	0.1552	-0.553
Mof_O 	O 	0.6491	0.0424	0.9817	-0.72
Mof_C 	C 	0.0804	0.84	0.4694	-0.101
Mof_H 	H 	0.1169	0.8283	0.4301	0.007
Mof_C 	C 	0.0809	0.9009	0.4726	-0.148
Mof_H 	H 	0.0439	0.9129	0.5113	-0.001
Mof_C 	C 	0.1711	0.9201	0.4869	-0.038
Mof_H 	H 	0.2075	0.9098	0.4476	0.031
Mof_H 	H 	0.1718	0.9589	0.4904	0.014
Mof_C 	C 	0.2044	0.8959	0.5562	-0.095
Mof_H 	H 	0.2628	0.9068	0.5633	0.036
Mof_H 	H 	0.1715	0.9093	0.5961	0.036
Mof_C 	C 	0.1995	0.8356	0.5546	-0.091
Mof_H 	H 	0.2389	0.822	0.5194	0.054
Mof_H 	H 	0.216	0.8215	0.6009	0.038
Mof_C 	C 	0.112	0.8163	0.5369	-0.058
Mof_H 	H 	0.1125	0.7776	0.5325	0.045
Mof_H 	H 	0.0739	0.8257	0.5755	0.033
Mof_C 	C 	0.9908	0.8204	0.4556	0.296
Mof_C 	C 	0.052	0.9249	0.404	0.352
Mof_C 	C 	0.6177	0.8646	0.5176	-0.081
Mof_H 	H 	0.6348	0.8989	0.5384	-0.079
Mof_C 	C 	0.5442	0.8743	0.4666	-0.187
Mof_H 	H 	0.5249	0.84	0.447	0.041
Mof_C 	C 	0.4747	0.8995	0.5072	0.049
Mof_H 	H 	0.4948	0.9329	0.5274	-0.024
Mof_H 	H 	0.4287	0.9078	0.4747	-0.005
Mof_C 	C 	0.4425	0.8659	0.5645	-0.175
Mof_H 	H 	0.4168	0.8339	0.5445	0.072
Mof_H 	H 	0.3994	0.8851	0.5909	0.063
Mof_C 	C 	0.5129	0.8503	0.6139	-0.02
Mof_H 	H 	0.492	0.8237	0.6473	0.011
Mof_H 	H 	0.5299	0.8815	0.6413	0.008
Mof_C 	C 	0.5888	0.8281	0.5764	-0.104
Mof_H 	H 	0.5751	0.7933	0.5566	0.054
Mof_H 	H 	0.6344	0.8234	0.6105	0.021
Mof_C 	C 	0.6904	0.841	0.481	0.341
Mof_C 	C 	0.5714	0.9106	0.4062	0.337
Mof_C 	C 	0.7871	0.6658	0.2679	-0.07
Mof_H 	H 	0.7291	0.6701	0.2504	-0.047
Mof_C 	C 	0.8446	0.6725	0.2074	-0.152
Mof_H 	H 	0.9028	0.6688	0.2248	-0
Mof_C 	C 	0.8275	0.628	0.1537	-0
Mof_H 	H 	0.7706	0.6322	0.135	0.017
Mof_H 	H 	0.8666	0.6317	0.114	0.01
Mof_C 	C 	0.836	0.5758	0.1832	-0.132
Mof_H 	H 	0.894	0.5702	0.1982	0.071
Mof_H 	H 	0.8226	0.5493	0.147	0.056
Mof_C 	C 	0.7778	0.5685	0.2463	-0.062
Mof_H 	H 	0.7194	0.5703	0.2306	0.045
Mof_H 	H 	0.7873	0.5337	0.2678	0.04
Mof_C 	C 	0.7947	0.6115	0.2998	-0.076
Mof_H 	H 	0.7549	0.6082	0.3389	0.03
Mof_H 	H 	0.8512	0.607	0.3191	0.042
Mof_C 	C 	0.8021	0.7067	0.3233	0.265
Mof_C 	C 	0.8365	0.7247	0.1724	0.332
Mof_C 	C 	0.8481	0.1183	0.29	-0.015
Mof_H 	H 	0.8242	0.1244	0.2424	-0.036
Mof_C 	C 	0.7771	0.1128	0.3421	-0.216
Mof_H 	H 	0.7999	0.1083	0.3904	0.062
Mof_C 	C 	0.7211	0.161	0.3398	0.115
Mof_H 	H 	0.6966	0.1649	0.2925	-0.115
Mof_H 	H 	0.6755	0.1572	0.374	-0.024
Mof_C 	C 	0.7728	0.2087	0.3574	-0.233
Mof_H 	H 	0.792	0.2059	0.4065	0.101
Mof_H 	H 	0.7377	0.2404	0.3537	0.073
Mof_C 	C 	0.8478	0.215	0.3097	0.033
Mof_H 	H 	0.829	0.2224	0.2614	-0.022
Mof_H 	H 	0.8818	0.245	0.3258	0.003
Mof_C 	C 	0.8995	0.1658	0.3103	-0.163
Mof_H 	H 	0.9229	0.1604	0.3577	0.072
Mof_H 	H 	0.9462	0.1697	0.2772	0.064
Mof_C 	C 	0.9019	0.0696	0.2874	0.288
Mof_C 	C 	0.7231	0.0647	0.3226	0.332
Mof_C 	C 	0.0882	0.9213	0.0774	-0.13
Mof_H 	H 	0.1115	0.8852	0.0837	0.039
Mof_C 	C 	0.0165	0.9182	0.0274	-0.099
Mof_H 	H 	0.9935	0.9544	0.0218	-0.073
Mof_C 	C 	0.0418	0.8988	0.956	-0.075
Mof_H 	H 	0.9929	0.8979	0.9248	0.02
Mof_H 	H 	0.0642	0.8628	0.9598	0.039
Mof_C 	C 	0.1099	0.9364	0.9242	-0.063
Mof_H 	H 	0.1262	0.9238	0.8772	0.027
Mof_H 	H 	0.0872	0.9723	0.9194	0.021
Mof_C 	C 	0.1863	0.9372	0.9729	-0.126
Mof_H 	H 	0.2293	0.9607	0.9535	0.04
Mof_H 	H 	0.2101	0.9015	0.9768	0.054
Mof_C 	C 	0.1578	0.9575	0.0481	-0.028
Mof_H 	H 	0.2057	0.9575	0.0805	0.02
Mof_H 	H 	0.1369	0.994	0.0443	0.021
Mof_C 	C 	0.0607	0.9414	0.1475	0.31
Mof_C 	C 	0.9475	0.8832	0.0519	0.421
Mof_C 	C 	0.5549	0.9315	0.0813	-0.138
Mof_H 	H 	0.5889	0.9492	0.0445	-0.12
Mof_C 	C 	0.5578	0.8722	0.0686	-0.157
Mof_H 	H 	0.5279	0.8544	0.1079	0.038
Mof_C 	C 	0.5163	0.8556	0.999	-0.03
Mof_H 	H 	0.5181	0.817	0.9939	0.028
Mof_H 	H 	0.546	0.8715	0.959	0.014
Mof_C 	C 	0.4241	0.8751	0.0004	-0.076
Mof_H 	H 	0.3966	0.8658	0.9558	0.031
Mof_H 	H 	0.394	0.8573	0.0388	0.055
Mof_C 	C 	0.42	0.9329	0.0108	-0.121
Mof_H 	H 	0.3611	0.9435	0.0133	0.044
Mof_H 	H 	0.4447	0.9503	0.9695	0.057
Mof_C 	C 	0.4643	0.9527	0.0765	0.015
Mof_H 	H 	0.433	0.9414	0.1184	-0.004
Mof_H 	H 	0.4654	0.9915	0.0759	-0.069
Mof_C 	C 	0.5888	0.947	0.153	0.394
Mof_C 	C 	0.6476	0.853	0.0685	0.4
Mof_C 	C 	0.4966	0.0737	0.526	-0.104
Mof_H 	H 	0.52	0.0375	0.5218	0.026
Mof_C 	C 	0.4253	0.0722	0.5774	-0.133
Mof_H 	H 	0.4033	0.1086	0.5831	0.029
Mof_C 	C 	0.3557	0.0373	0.5469	-0.043
Mof_H 	H 	0.3758	0.0007	0.5436	0.052
Mof_H 	H 	0.3077	0.0377	0.5791	0.038
Mof_C 	C 	0.3283	0.0554	0.4759	-0.099
Mof_H 	H 	0.3035	0.0908	0.4795	0.054
Mof_H 	H 	0.2856	0.0312	0.4574	0.058
Mof_C 	C 	0.4037	0.057	0.4248	-0.092
Mof_H 	H 	0.4259	0.0211	0.4183	0.067
Mof_H 	H 	0.3853	0.0702	0.3785	0.038
Mof_C 	C 	0.4702	0.0921	0.4533	-0.048
Mof_H 	H 	0.4494	0.1285	0.456	0.037
Mof_H 	H 	0.5186	0.0916	0.4215	0.038
Mof_C 	C 	0.5659	0.1107	0.554	0.298
Mof_C 	C 	0.4531	0.0535	0.6455	0.288
Mof_C 	C 	0.953	0.1214	0.5783	-0.175
Mof_H 	H 	0.986	0.1397	0.6154	0.059
Mof_C 	C 	0.9573	0.0634	0.5903	-0.049
Mof_H 	H 	0.9214	0.0454	0.555	-0.085
Mof_C 	C 	0.0473	0.0426	0.583	-0.118
Mof_H 	H 	0.0814	0.0559	0.6222	0.057
Mof_H 	H 	0.0471	0.0038	0.5854	0.033
Mof_C 	C 	0.0845	0.06	0.5142	-0.021
Mof_H 	H 	0.1433	0.049	0.5126	0.03
Mof_H 	H 	0.055	0.0422	0.4755	0.032
Mof_C 	C 	0.0799	0.1161	0.5037	-0.159
Mof_H 	H 	0.1053	0.1252	0.4581	0.072
Mof_H 	H 	0.1117	0.1341	0.5409	0.082
Mof_C 	C 	0.9899	0.1352	0.505	0.015
Mof_H 	H 	0.9575	0.1176	0.4676	0.006
Mof_H 	H 	0.9877	0.1735	0.4971	0.032
Mof_C 	C 	0.8631	0.1413	0.5803	0.323
Mof_C 	C 	0.925	0.0502	0.6648	0.308
Mof_C 	C 	0.6544	0.3235	0.7071	-0.162
Mof_H 	H 	0.5949	0.3259	0.7214	-0.01
Mof_C 	C 	0.7085	0.3317	0.7712	-0.059
Mof_H 	H 	0.7676	0.33	0.7557	-0.064
Mof_C 	C 	0.6942	0.3847	0.8014	-0.083
Mof_H 	H 	0.7313	0.3898	0.8421	0.035
Mof_H 	H 	0.6363	0.3872	0.818	0.039
Mof_C 	C 	0.7101	0.4278	0.7484	-0.056
Mof_H 	H 	0.6965	0.4622	0.7695	0.029
Mof_H 	H 	0.7696	0.428	0.7357	0.046
Mof_C 	C 	0.6589	0.4199	0.6836	-0.132
Mof_H 	H 	0.675	0.4461	0.6478	0.056
Mof_H 	H 	0.5996	0.4253	0.6948	0.063
Mof_C 	C 	0.6715	0.3646	0.6546	0.005
Mof_H 	H 	0.6345	0.3595	0.6138	0.011
Mof_H 	H 	0.7294	0.361	0.6382	0.008
Mof_C 	C 	0.6696	0.2696	0.6738	0.355
Mof_C 	C 	0.6957	0.2889	0.8261	0.254
Mof_C 	C 	0.6668	0.8787	0.7902	-0.056
Mof_H 	H 	0.6941	0.8759	0.7434	-0.024
Mof_C 	C 	0.7345	0.8854	0.8466	-0.233
Mof_H 	H 	0.7072	0.8896	0.8932	0.001
Mof_C 	C 	0.7892	0.8383	0.8489	0.068
Mof_H 	H 	0.8313	0.8433	0.886	-0.017
Mof_H 	H 	0.8187	0.8353	0.8037	-0.01
Mof_C 	C 	0.7427	0.7877	0.8627	-0.176
Mof_H 	H 	0.7171	0.789	0.9097	0.077
Mof_H 	H 	0.7817	0.7578	0.8615	0.067
Mof_C 	C 	0.6743	0.7799	0.8065	-0.022
Mof_H 	H 	0.7005	0.7753	0.7601	0.017
Mof_H 	H 	0.6425	0.7476	0.8172	-0.002
Mof_C 	C 	0.616	0.8261	0.8042	-0.109
Mof_H 	H 	0.5861	0.8289	0.8493	0.045
Mof_H 	H 	0.5746	0.8209	0.7666	0.035
Mof_C 	C 	0.6087	0.9244	0.7891	0.258
Mof_C 	C 	0.7858	0.9332	0.8321	0.465
Mof_C 	C 	0.4205	0.0934	0.9719	-0.029
Mof_H 	H 	0.4567	0.0813	0.0113	-0.033
Mof_C 	C 	0.4213	0.1519	0.9719	-0.225
Mof_H 	H 	0.3863	0.163	0.9313	0.074
Mof_C 	C 	0.3816	0.1755	0.0361	0.109
Mof_H 	H 	0.3807	0.2142	0.0312	-0.015
Mof_H 	H 	0.4156	0.1668	0.0776	-0.085
Mof_C 	C 	0.2937	0.156	0.0476	-0.23
Mof_H 	H 	0.257	0.1693	0.0101	0.099
Mof_H 	H 	0.2725	0.169	0.093	0.078
Mof_C 	C 	0.2936	0.0957	0.0473	0.037
Mof_H 	H 	0.323	0.0832	0.0896	-0.008
Mof_H 	H 	0.2355	0.0833	0.0502	0.014
Mof_C 	C 	0.3324	0.0721	0.9855	-0.171
Mof_H 	H 	0.2973	0.079	0.944	0.075
Mof_H 	H 	0.3353	0.0336	0.9921	0.075
Mof_C 	C 	0.4536	0.0696	0.9059	0.317
Mof_C 	C 	0.5091	0.1748	0.9581	0.354
Mof_C 	C 	0.9584	0.1271	0.977	-0.202
Mof_H 	H 	0.9761	0.1611	0.9558	0.046
Mof_C 	C 	0.8864	0.1367	0.0251	-0.114
Mof_H 	H 	0.8717	0.103	0.049	-0.099
Mof_C 	C 	0.9144	0.1785	0.0827	-0.024
Mof_H 	H 	0.9285	0.212	0.0594	0.023
Mof_H 	H 	0.8678	0.1852	0.1151	-0.038
Mof_C 	C 	0.9879	0.1594	0.1233	-0.101
Mof_H 	H 	0.9718	0.1288	0.152	0.058
Mof_H 	H 	0.0073	0.1875	0.1552	0.046
Mof_C 	C 	0.0617	0.1431	0.0713	-0.134
Mof_H 	H 	0.0824	0.1746	0.0466	0.065
Mof_H 	H 	0.1082	0.128	0.0986	0.065
Mof_C 	C 	0.0316	0.1035	0.0187	0.05
Mof_H 	H 	0.0135	0.0712	0.043	-0.01
Mof_H 	H 	0.0772	0.0941	0.9863	-0.01
Mof_C 	C 	0.9356	0.088	0.9174	0.448
Mof_C 	C 	0.8102	0.1581	0.989	0.377
Mof_O 	O 	0.8099	0.0366	0.1383	-0.591
Mof_O 	O 	0.5392	0.7704	0.1944	-0.698
Mof_O 	O 	0.6704	0.0488	0.926	-0.193
Mof_U 	U 	0.17039	0.28715	0.57596	-0.054
Mof_U 	U 	0.98894	0.48084	0.71963	-0.033
Mof_U 	U 	0.37514	0.47477	0.70688	-0.058
Mof_U 	U 	0.18866	0.31823	0.90642	-0.045
Mof_U 	U 	0.30098	0.67584	0.40244	-0.208
Mof_U 	U 	0.49996	0.51312	0.21819	-0.033
Mof_U 	U 	0.1134	0.5227	0.19492	-0.042
Mof_U 	U 	0.3297	0.70919	0.07131	-0.045
Mof_Rb	Rb	0.16791	0.45227	0.57834	3.599
Mof_Rb	Rb	0.34306	0.31866	0.73044	4.27
Mof_Rb	Rb	0.01552	0.32776	0.75052	3.794
Mof_Rb	Rb	0.35681	0.60305	0.87928	2.75
Mof_Rb	Rb	0.29681	0.51453	0.33885	3.353
Mof_Rb	Rb	0.15344	0.67711	0.21958	3.564
Mof_Rb	Rb	0.47977	0.66831	0.24721	3.819
Mof_Rb	Rb	0.2181	0.48234	0.98177	4.831
Mof_O 	O 	0.1688	0.3312	0.6481	-0.778
Mof_O 	O 	0.0786	0.44	0.7268	-0.585
Mof_O 	O 	0.2827	0.4374	0.7062	-0.61
Mof_O 	O 	0.1956	0.3531	0.8265	-0.619
Mof_O 	O 	0.4115	0.5546	0.2254	-0.647
Mof_O 	O 	0.2051	0.5605	0.2009	-0.609
Mof_O 	O 	0.3329	0.6638	0.1395	-0.59
Mof_O 	O 	0.0189	0.2798	0.5799	-0.375
Mof_O 	O 	0.069	0.3458	0.522	-0.474
Mof_O 	O 	0.9259	0.4055	0.654	-0.537
Mof_O 	O 	0.9923	0.4659	0.5939	-0.582
Mof_O 	O 	0.2374	0.3547	0.5033	-0.563
Mof_O 	O 	0.3205	0.3067	0.5641	-0.496
Mof_O 	O 	0.4464	0.397	0.6562	-0.583
Mof_O 	O 	0.3893	0.4518	0.5822	-0.395
Mof_O 	O 	0.2591	0.229	0.6468	-0.501
Mof_O 	O 	0.1257	0.2186	0.6592	-0.341
Mof_O 	O 	0.2361	0.2422	0.8393	-0.44
Mof_O 	O 	0.1012	0.252	0.8459	-0.556
Mof_O 	O 	0.0816	0.5432	0.6549	-0.46
Mof_O 	O 	0.0638	0.5559	0.7687	-0.23
Mof_O 	O 	0.3079	0.537	0.6288	-0.405
Mof_O 	O 	0.2958	0.5543	0.7404	-0.458
Mof_O 	O 	0.9795	0.4837	0.8497	-0.28
Mof_O 	O 	0.9169	0.418	0.7967	-0.532
Mof_O 	O 	0.0393	0.3449	0.9078	-0.516
Mof_O 	O 	0.1271	0.3925	0.9668	-0.741
Mof_O 	O 	0.3733	0.489	0.8366	-0.612
Mof_O 	O 	0.4245	0.4147	0.7973	-0.558
Mof_O 	O 	0.2937	0.3801	0.9536	-0.67
Mof_O 	O 	0.3391	0.308	0.9069	-0.397
Mof_O 	O 	0.4505	0.6492	0.4106	-0.511
Mof_O 	O 	0.3597	0.6005	0.4636	-0.397
Mof_O 	O 	0.573	0.5761	0.2962	-0.535
Mof_O 	O 	0.4992	0.5137	0.3482	-0.436
Mof_O 	O 	0.1937	0.6132	0.4424	-0.439
Mof_O 	O 	0.1504	0.6852	0.3959	-0.431
Mof_O 	O 	0.0561	0.5801	0.2853	-0.477
Mof_O 	O 	0.1158	0.5097	0.3234	-0.582
Mof_O 	O 	0.2591	0.7526	0.3325	-0.522
Mof_O 	O 	0.3893	0.7421	0.3486	-0.554
Mof_O 	O 	0.2441	0.7667	0.1439	-0.476
Mof_O 	O 	0.3773	0.7747	0.1583	-0.359
Mof_O 	O 	0.4155	0.4435	0.2699	-0.489
Mof_O 	O 	0.4169	0.4458	0.1549	-0.274
Mof_O 	O 	0.2013	0.4482	0.232	-0.518
Mof_O 	O 	0.1803	0.4588	0.1186	-0.743
Mof_O 	O 	0.5005	0.5283	0.0911	-0.25
Mof_O 	O 	0.5652	0.5875	0.1523	-0.491
Mof_O 	O 	0.48	0.7132	0.0806	-0.371
Mof_O 	O 	0.4307	0.6533	0.0093	-0.479
Mof_O 	O 	0.104	0.5468	0.0688	-0.66
Mof_O 	O 	0.0473	0.6003	0.1447	-0.56
Mof_O 	O 	0.2597	0.6446	0.9937	-0.612
Mof_O 	O 	0.1802	0.6924	0.0609	-0.477
Mof_O 	O 	0.2783	0.5087	0.485	-0.807
Mof_O 	O 	0.3967	0.228	0.8161	-0.604
Mof_O 	O 	0.436	0.2363	0.6512	-0.72
Mof_O 	O 	0.9631	0.2272	0.7015	-0.849
Mof_O 	O 	0.9175	0.2696	0.8599	-0.639
Mof_O 	O 	0.1944	0.4838	0.8448	-0.538
Mof_O 	O 	0.3509	0.5424	0.0183	-0.746
Mof_C 	C 	0.9196	0.34	0.5306	-0.103
Mof_H 	H 	0.8831	0.3283	0.5699	0.007
Mof_C 	C 	0.9191	0.4009	0.5274	-0.145
Mof_H 	H 	0.9561	0.4129	0.4887	0.002
Mof_C 	C 	0.8289	0.4201	0.5131	-0.04
Mof_H 	H 	0.7925	0.4098	0.5524	0.035
Mof_H 	H 	0.8282	0.4589	0.5096	0.029
Mof_C 	C 	0.7956	0.3959	0.4438	-0.098
Mof_H 	H 	0.7372	0.4068	0.4367	0.044
Mof_H 	H 	0.8285	0.4093	0.4039	0.046
Mof_C 	C 	0.8005	0.3356	0.4454	-0.089
Mof_H 	H 	0.7611	0.322	0.4806	0.053
Mof_H 	H 	0.784	0.3215	0.3991	0.038
Mof_C 	C 	0.888	0.3163	0.4631	-0.058
Mof_H 	H 	0.8875	0.2776	0.4675	0.045
Mof_H 	H 	0.9261	0.3257	0.4245	0.034
Mof_C 	C 	0.0092	0.3204	0.5444	0.299
Mof_C 	C 	0.948	0.4249	0.596	0.35
Mof_C 	C 	0.3823	0.3646	0.4824	-0.093
Mof_H 	H 	0.3652	0.3989	0.4616	-0.067
Mof_C 	C 	0.4558	0.3743	0.5334	-0.172
Mof_H 	H 	0.4751	0.34	0.553	0.036
Mof_C 	C 	0.5253	0.3995	0.4928	0.027
Mof_H 	H 	0.5052	0.4329	0.4726	-0.003
Mof_H 	H 	0.5713	0.4078	0.5253	0.009
Mof_C 	C 	0.5575	0.3659	0.4355	-0.157
Mof_H 	H 	0.5832	0.3339	0.4555	0.067
Mof_H 	H 	0.6006	0.3851	0.4091	0.064
Mof_C 	C 	0.4871	0.3503	0.3861	-0.035
Mof_H 	H 	0.508	0.3237	0.3527	0.017
Mof_H 	H 	0.4701	0.3815	0.3587	0.019
Mof_C 	C 	0.4112	0.3281	0.4236	-0.091
Mof_H 	H 	0.4249	0.2933	0.4434	0.051
Mof_H 	H 	0.3656	0.3234	0.3895	0.019
Mof_C 	C 	0.3096	0.341	0.519	0.347
Mof_C 	C 	0.4286	0.4106	0.5938	0.331
Mof_C 	C 	0.2129	0.1658	0.7321	-0.07
Mof_H 	H 	0.2709	0.1701	0.7496	-0.046
Mof_C 	C 	0.1554	0.1725	0.7926	-0.153
Mof_H 	H 	0.0972	0.1688	0.7752	-0
Mof_C 	C 	0.1725	0.128	0.8463	0.003
Mof_H 	H 	0.2294	0.1322	0.865	0.016
Mof_H 	H 	0.1334	0.1317	0.886	0.009
Mof_C 	C 	0.164	0.0758	0.8168	-0.136
Mof_H 	H 	0.106	0.0702	0.8018	0.076
Mof_H 	H 	0.1774	0.0493	0.853	0.067
Mof_C 	C 	0.2222	0.0685	0.7537	-0.063
Mof_H 	H 	0.2806	0.0703	0.7694	0.049
Mof_H 	H 	0.2127	0.0337	0.7322	0.048
Mof_C 	C 	0.2053	0.1115	0.7002	-0.075
Mof_H 	H 	0.2451	0.1082	0.6611	0.03
Mof_H 	H 	0.1488	0.107	0.6809	0.042
Mof_C 	C 	0.1979	0.2067	0.6767	0.265
Mof_C 	C 	0.1635	0.2247	0.8276	0.332
Mof_C 	C 	0.1519	0.6183	0.71	-0.026
Mof_H 	H 	0.1758	0.6244	0.7576	-0.031
Mof_C 	C 	0.2229	0.6128	0.6579	-0.211
Mof_H 	H 	0.2001	0.6083	0.6096	0.056
Mof_C 	C 	0.2789	0.661	0.6602	0.107
Mof_H 	H 	0.3034	0.6649	0.7075	-0.11
Mof_H 	H 	0.3245	0.6572	0.626	-0.022
Mof_C 	C 	0.2272	0.7087	0.6426	-0.226
Mof_H 	H 	0.208	0.7059	0.5935	0.098
Mof_H 	H 	0.2623	0.7404	0.6463	0.07
Mof_C 	C 	0.1522	0.715	0.6903	0.026
Mof_H 	H 	0.171	0.7224	0.7386	-0.02
Mof_H 	H 	0.1182	0.745	0.6742	0.004
Mof_C 	C 	0.1005	0.6658	0.6897	-0.154
Mof_H 	H 	0.0771	0.6604	0.6423	0.068
Mof_H 	H 	0.0538	0.6697	0.7228	0.06
Mof_C 	C 	0.0981	0.5696	0.7126	0.297
Mof_C 	C 	0.2769	0.5647	0.6774	0.329
Mof_C 	C 	0.9118	0.4213	0.9226	-0.111
Mof_H 	H 	0.8885	0.3852	0.9163	0.032
Mof_C 	C 	0.9835	0.4182	0.9726	-0.127
Mof_H 	H 	0.0065	0.4544	0.9782	-0.062
Mof_C 	C 	0.9582	0.3988	0.044	-0.054
Mof_H 	H 	0.0071	0.3979	0.0752	0.018
Mof_H 	H 	0.9358	0.3628	0.0402	0.034
Mof_C 	C 	0.8901	0.4364	0.0758	-0.082
Mof_H 	H 	0.8738	0.4238	0.1228	0.039
Mof_H 	H 	0.9128	0.4723	0.0806	0.039
Mof_C 	C 	0.8137	0.4372	0.0271	-0.106
Mof_H 	H 	0.7707	0.4607	0.0465	0.046
Mof_H 	H 	0.7899	0.4015	0.0232	0.051
Mof_C 	C 	0.8422	0.4575	0.9519	-0.05
Mof_H 	H 	0.7943	0.4575	0.9195	0.032
Mof_H 	H 	0.8631	0.494	0.9557	0.038
Mof_C 	C 	0.9393	0.4414	0.8525	0.301
Mof_C 	C 	0.0525	0.3832	0.9481	0.436
Mof_C 	C 	0.4451	0.4315	0.9187	-0.122
Mof_H 	H 	0.4111	0.4492	0.9555	-0.125
Mof_C 	C 	0.4422	0.3722	0.9314	-0.175
Mof_H 	H 	0.4721	0.3544	0.8921	0.042
Mof_C 	C 	0.4837	0.3556	0.001	-0.005
Mof_H 	H 	0.4819	0.317	0.0061	0.023
Mof_H 	H 	0.454	0.3715	0.041	0.008
Mof_C 	C 	0.5759	0.3751	0.9996	-0.1
Mof_H 	H 	0.6034	0.3658	0.0442	0.042
Mof_H 	H 	0.606	0.3573	0.9612	0.06
Mof_C 	C 	0.58	0.4329	0.9892	-0.118
Mof_H 	H 	0.6389	0.4435	0.9867	0.049
Mof_H 	H 	0.5553	0.4503	0.0305	0.07
Mof_C 	C 	0.5357	0.4527	0.9235	0.003
Mof_H 	H 	0.567	0.4414	0.8816	0.003
Mof_H 	H 	0.5346	0.4915	0.9241	-0.049
Mof_C 	C 	0.4112	0.447	0.847	0.383
Mof_C 	C 	0.3524	0.353	0.9315	0.411
Mof_C 	C 	0.5034	0.5737	0.474	-0.093
Mof_H 	H 	0.48	0.5375	0.4782	0.016
Mof_C 	C 	0.5747	0.5722	0.4226	-0.146
Mof_H 	H 	0.5967	0.6086	0.4169	0.033
Mof_C 	C 	0.6443	0.5373	0.4531	-0.025
Mof_H 	H 	0.6242	0.5007	0.4564	0.032
Mof_H 	H 	0.6923	0.5377	0.4209	0.026
Mof_C 	C 	0.6717	0.5554	0.5241	-0.115
Mof_H 	H 	0.6965	0.5908	0.5205	0.057
Mof_H 	H 	0.7144	0.5312	0.5426	0.052
Mof_C 	C 	0.5963	0.557	0.5752	-0.074
Mof_H 	H 	0.5741	0.5211	0.5817	0.047
Mof_H 	H 	0.6147	0.5702	0.6215	0.025
Mof_C 	C 	0.5298	0.5921	0.5467	-0.064
Mof_H 	H 	0.5506	0.6285	0.544	0.041
Mof_H 	H 	0.4814	0.5916	0.5785	0.039
Mof_C 	C 	0.4341	0.6107	0.446	0.296
Mof_C 	C 	0.5469	0.5535	0.3545	0.293
Mof_C 	C 	0.047	0.6214	0.4217	-0.172
Mof_H 	H 	0.014	0.6397	0.3846	0.058
Mof_C 	C 	0.0427	0.5634	0.4097	-0.057
Mof_H 	H 	0.0786	0.5454	0.445	-0.094
Mof_C 	C 	0.9527	0.5426	0.417	-0.109
Mof_H 	H 	0.9186	0.5559	0.3778	0.052
Mof_H 	H 	0.9529	0.5038	0.4146	0.018
Mof_C 	C 	0.9155	0.56	0.4858	-0.022
Mof_H 	H 	0.8567	0.549	0.4874	0.022
Mof_H 	H 	0.945	0.5422	0.5245	0.021
Mof_C 	C 	0.9201	0.6161	0.4963	-0.154
Mof_H 	H 	0.8947	0.6252	0.5419	0.069
Mof_H 	H 	0.8883	0.6341	0.4591	0.081
Mof_C 	C 	0.0101	0.6352	0.495	0.009
Mof_H 	H 	0.0425	0.6176	0.5324	0.004
Mof_H 	H 	0.0123	0.6735	0.5029	0.033
Mof_C 	C 	0.1369	0.6413	0.4197	0.322
Mof_C 	C 	0.075	0.5502	0.3352	0.31
Mof_C 	C 	0.3456	0.8235	0.2929	-0.16
Mof_H 	H 	0.4051	0.8259	0.2786	-0.01
Mof_C 	C 	0.2915	0.8317	0.2288	-0.059
Mof_H 	H 	0.2324	0.83	0.2443	-0.064
Mof_C 	C 	0.3058	0.8847	0.1986	-0.083
Mof_H 	H 	0.2687	0.8898	0.1579	0.035
Mof_H 	H 	0.3637	0.8872	0.182	0.038
Mof_C 	C 	0.2899	0.9278	0.2516	-0.056
Mof_H 	H 	0.3035	0.9622	0.2305	0.02
Mof_H 	H 	0.2304	0.928	0.2643	0.043
Mof_C 	C 	0.3411	0.9199	0.3164	-0.126
Mof_H 	H 	0.325	0.9461	0.3522	0.045
Mof_H 	H 	0.4004	0.9253	0.3052	0.056
Mof_C 	C 	0.3285	0.8646	0.3454	0.002
Mof_H 	H 	0.3655	0.8595	0.3862	0.011
Mof_H 	H 	0.2706	0.861	0.3618	0.009
Mof_C 	C 	0.3304	0.7696	0.3262	0.354
Mof_C 	C 	0.3043	0.7889	0.1739	0.254
Mof_C 	C 	0.3332	0.3787	0.2098	-0.054
Mof_H 	H 	0.3059	0.3759	0.2566	-0.019
Mof_C 	C 	0.2655	0.3854	0.1534	-0.229
Mof_H 	H 	0.2928	0.3896	0.1068	-0.003
Mof_C 	C 	0.2108	0.3383	0.1511	0.065
Mof_H 	H 	0.1687	0.3433	0.114	-0.017
Mof_H 	H 	0.1813	0.3353	0.1963	-0.007
Mof_C 	C 	0.2573	0.2877	0.1373	-0.175
Mof_H 	H 	0.2829	0.289	0.0903	0.077
Mof_H 	H 	0.2183	0.2578	0.1385	0.067
Mof_C 	C 	0.3257	0.2799	0.1935	-0.023
Mof_H 	H 	0.2995	0.2753	0.2399	0.019
Mof_H 	H 	0.3575	0.2476	0.1828	-0.001
Mof_C 	C 	0.384	0.3261	0.1958	-0.11
Mof_H 	H 	0.4139	0.3289	0.1507	0.045
Mof_H 	H 	0.4254	0.3209	0.2334	0.036
Mof_C 	C 	0.3913	0.4244	0.2109	0.255
Mof_C 	C 	0.2142	0.4332	0.1679	0.465
Mof_C 	C 	0.5795	0.5934	0.0281	-0.033
Mof_H 	H 	0.5433	0.5813	0.9887	-0.041
Mof_C 	C 	0.5787	0.6519	0.0281	-0.211
Mof_H 	H 	0.6137	0.663	0.0687	0.071
Mof_C 	C 	0.6184	0.6755	0.9639	0.091
Mof_H 	H 	0.6193	0.7142	0.9688	-0.011
Mof_H 	H 	0.5844	0.6668	0.9224	-0.079
Mof_C 	C 	0.7063	0.656	0.9524	-0.216
Mof_H 	H 	0.743	0.6693	0.9899	0.093
Mof_H 	H 	0.7275	0.669	0.907	0.072
Mof_C 	C 	0.7064	0.5957	0.9527	0.021
Mof_H 	H 	0.677	0.5832	0.9104	-0.012
Mof_H 	H 	0.7645	0.5833	0.9498	0.01
Mof_C 	C 	0.6676	0.5721	0.0145	-0.152
Mof_H 	H 	0.7027	0.579	0.056	0.066
Mof_H 	H 	0.6647	0.5336	0.0079	0.057
Mof_C 	C 	0.5464	0.5696	0.0941	0.32
Mof_C 	C 	0.4909	0.6748	0.0419	0.348
Mof_C 	C 	0.0416	0.6271	0.023	-0.196
Mof_H 	H 	0.0239	0.6611	0.0442	0.045
Mof_C 	C 	0.1136	0.6367	0.9749	-0.127
Mof_H 	H 	0.1283	0.603	0.951	-0.106
Mof_C 	C 	0.0856	0.6785	0.9173	-0.014
Mof_H 	H 	0.0715	0.712	0.9406	0.018
Mof_H 	H 	0.1322	0.6852	0.8849	-0.04
Mof_C 	C 	0.0121	0.6594	0.8767	-0.117
Mof_H 	H 	0.0282	0.6288	0.848	0.059
Mof_H 	H 	0.9927	0.6875	0.8448	0.052
Mof_C 	C 	0.9383	0.6431	0.9287	-0.122
Mof_H 	H 	0.9176	0.6746	0.9534	0.06
Mof_H 	H 	0.8918	0.628	0.9014	0.057
Mof_C 	C 	0.9684	0.6035	0.9813	0.038
Mof_H 	H 	0.9865	0.5712	0.957	-0.019
Mof_H 	H 	0.9228	0.5941	0.0137	-0.008
Mof_C 	C 	0.0644	0.588	0.0826	0.453
Mof_C 	C 	0.1898	0.6581	0.011	0.389
Mof_O 	O 	0.1901	0.5366	0.8617	-0.641
Mof_O 	O 	0.4608	0.2704	0.8056	-0.698
Mof_O 	O 	0.3296	0.5488	0.074	-0.209
_end
