# CIF file generated by openbabel 3.1.0, see https://openbabel.org
data_I
_chemical_name_common 'image0'
_cell_length_a 7.7834
_cell_length_b 10.1301
_cell_length_c 10.3277
_cell_angle_alpha 103.873
_cell_angle_beta 91.797
_cell_angle_gamma 90.935
_space_group_name_H-M_alt 'P 1'
_space_group_name_Hall 'P 1'
loop_
    _symmetry_equiv_pos_as_xyz
    x,y,z
loop_
    _atom_site_label
    _atom_site_type_symbol
    _atom_site_fract_x
    _atom_site_fract_y
    _atom_site_fract_z
    _atom_site_occupancy
    Br1      Br       0.00374    0.21483    0.09376    1.000
    O1       O        0.01070    0.48730    0.35420    1.000
    O2       O        0.26920    0.54650    0.30640    1.000
    C1       C        0.99710    0.38280    0.04360    1.000
    C2       C        0.05780    0.50060    0.12990    1.000
    C3       C        0.11650    0.51080    0.27290    1.000
    C4       C        0.93960    0.38080    0.91470    1.000
    H1       H        0.89920    0.29980    0.85800    1.000
    Br2      Br       0.17285    0.98647    0.29075    1.000
    C5       C        0.43710    0.12280    0.47760    1.000
    O3       O        0.48440    0.34700    0.45140    1.000
    C6       C        0.42180    0.87790    0.43560    1.000
    H2       H        0.36810    0.79610    0.39130    1.000
    O4       O        0.21890    0.28430    0.48190    1.000
    C7       C        0.37440    0.26040    0.46720    1.000
    C8       C        0.36100    0.99880    0.41490    1.000
    Ca1      Ca       0.25016    0.53263    0.54032    1.000
    Br3      Br       0.99626    0.78517    0.90624    1.000
    O5       O        0.98930    0.51270    0.64580    1.000
    O6       O        0.73080    0.45350    0.69360    1.000
    C9       C        0.00290    0.61720    0.95640    1.000
    C10      C        0.94220    0.49940    0.87010    1.000
    C11      C        0.88350    0.48920    0.72710    1.000
    C12      C        0.06040    0.61920    0.08530    1.000
    H3       H        0.10080    0.70020    0.14200    1.000
    Br4      Br       0.82715    0.01353    0.70925    1.000
    C13      C        0.56290    0.87720    0.52240    1.000
    O7       O        0.51560    0.65300    0.54860    1.000
    C14      C        0.57820    0.12210    0.56440    1.000
    H4       H        0.63190    0.20390    0.60870    1.000
    O8       O        0.78110    0.71570    0.51810    1.000
    C15      C        0.62560    0.73960    0.53280    1.000
    C16      C        0.63900    0.00120    0.58510    1.000
    Ca2      Ca       0.74984    0.46737    0.45968    1.000
