data_functionalizedCrystal
_audit_creation_method	'EQeq! by Chris Wilmer'
_symmetry_space_group_name_H-M	'P1'
_symmetry_Int_Tables_number	1
_symmetry_cell_setting	triclinic
loop_
_symmetry_equiv_pos_as_xyz
  x,y,z
_cell_length_a	10.8161
_cell_length_b	10.8161
_cell_length_c	9.7482
_cell_angle_alpha	90
_cell_angle_beta	90
_cell_angle_gamma	120
loop_
_atom_site_label
_atom_site_type_symbol
_atom_site_fract_x
_atom_site_fract_y
_atom_site_fract_z
_atom_site_charge
Mof_N 	N 	0.5672	0.6392	0.2003	-0.198
Mof_N 	N 	0.5425	0.8121	0.3263	-0.179
Mof_C 	C 	0.6168	0.6077	0.3138	0.024
Mof_H 	H 	0.643	0.5379	0.3086	0.004
Mof_C 	C 	0.6301	0.6748	0.4369	-0.032
Mof_C 	C 	0.5925	0.7787	0.4381	0.025
Mof_H 	H 	0.6021	0.8278	0.5194	0.018
Mof_C 	C 	0.5332	0.7399	0.2128	0.107
Mof_H 	H 	0.4994	0.7627	0.1346	-0.038
Mof_N 	N 	0.3608	0.928	0.53363	-0.162
Mof_N 	N 	0.1879	0.7304	0.65963	-0.175
Mof_C 	C 	0.3923	0.0091	0.64713	-0.076
Mof_H 	H 	0.4621	0.1051	0.64193	0.036
Mof_C 	C 	0.3252	0.9553	0.77023	0.071
Mof_C 	C 	0.2213	0.8138	0.77143	-0.019
Mof_H 	H 	0.1722	0.7743	0.85273	0.032
Mof_C 	C 	0.2601	0.7933	0.54613	0.102
Mof_H 	H 	0.2373	0.7367	0.46793	-0.034
Mof_N 	N 	0.072	0.4328	0.86697	-0.226
Mof_N 	N 	0.2696	0.4575	0.99297	-0.167
Mof_C 	C 	0.9909	0.3832	0.98047	0.155
Mof_H 	H 	0.8949	0.357	0.97527	-0.026
Mof_C 	C 	0.0447	0.3699	0.10357	-0.16
Mof_C 	C 	0.1862	0.4075	0.10477	0.035
Mof_H 	H 	0.2257	0.3979	0.18607	-0.002
Mof_C 	C 	0.2067	0.4668	0.87947	0.119
Mof_H 	H 	0.2633	0.5006	0.80127	-0.036
Mof_N 	N 	0.6392	0.5672	0.7997	-0.185
Mof_N 	N 	0.8121	0.5425	0.6737	-0.18
Mof_C 	C 	0.6077	0.6168	0.6862	0.027
Mof_H 	H 	0.5379	0.643	0.6914	0.01
Mof_C 	C 	0.6748	0.6301	0.5631	-0.033
Mof_C 	C 	0.7787	0.5925	0.5619	0.028
Mof_H 	H 	0.8278	0.6021	0.4806	0.012
Mof_C 	C 	0.7399	0.5332	0.7872	0.109
Mof_H 	H 	0.7627	0.4994	0.8654	-0.023
Mof_N 	N 	0.928	0.3608	0.46637	-0.172
Mof_N 	N 	0.7304	0.1879	0.34037	-0.177
Mof_C 	C 	0.0091	0.3923	0.35287	-0.058
Mof_H 	H 	0.1051	0.4621	0.35807	0.03
Mof_C 	C 	0.9553	0.3252	0.22977	0.055
Mof_C 	C 	0.8138	0.2213	0.22857	-0.02
Mof_H 	H 	0.7743	0.1722	0.14727	0.015
Mof_C 	C 	0.7933	0.2601	0.45387	0.1
Mof_H 	H 	0.7367	0.2373	0.53207	-0.034
Mof_N 	N 	0.4328	0.072	0.13303	-0.22
Mof_N 	N 	0.4575	0.2696	0.00703	-0.217
Mof_C 	C 	0.3832	0.9909	0.01953	0.075
Mof_H 	H 	0.357	0.8949	0.02473	-0.021
Mof_C 	C 	0.3699	0.0447	0.89643	-0.11
Mof_C 	C 	0.4075	0.1862	0.89523	0.1
Mof_H 	H 	0.3979	0.2257	0.81393	-0.017
Mof_C 	C 	0.4668	0.2067	0.12053	0.101
Mof_H 	H 	0.5006	0.2633	0.19873	-0.036
Mof_Ag	Ag	0.51502	0.51502	-0	0.535
Mof_Ag	Ag	0.48498	0	0.33333	0.542
Mof_Ag	Ag	1.275e-17	0.48498	0.66667	0.566
_end
