data_functionalizedCrystal
_audit_creation_method	'EQeq! by Chris Wilmer'
_symmetry_space_group_name_H-M	'P1'
_symmetry_Int_Tables_number	1
_symmetry_cell_setting	triclinic
loop_
_symmetry_equiv_pos_as_xyz
  x,y,z
_cell_length_a	11.0817
_cell_length_b	13.2573
_cell_length_c	21.725
_cell_angle_alpha	82.84
_cell_angle_beta	77.263
_cell_angle_gamma	71.66
loop_
_atom_site_label
_atom_site_type_symbol
_atom_site_fract_x
_atom_site_fract_y
_atom_site_fract_z
_atom_site_charge
Mof_Cu	Cu	0.23621	0.55266	0.74918	0.897
Mof_Cu	Cu	0.25467	0.06157	0.78984	0.897
Mof_Cu	Cu	0.46085	0.20682	0.02542	0.889
Mof_Cu	Cu	0.06337	0.79113	0.44417	0.889
Mof_Cu	Cu	0.76379	0.44734	0.25082	0.898
Mof_Cu	Cu	0.74533	0.93843	0.21016	0.898
Mof_Cu	Cu	0.53915	0.79318	0.97458	0.889
Mof_Cu	Cu	0.93663	0.20887	0.55583	0.889
Mof_H 	H 	0.9668	0.5376	0.7948	0.031
Mof_H 	H 	0.7223	0.7779	0.7118	0.048
Mof_H 	H 	0.9	0.8189	0.6488	0.065
Mof_H 	H 	0.1039	0.7246	0.665	0.03
Mof_H 	H 	0.4461	0.8526	0.8071	0.037
Mof_H 	H 	0.0892	0.964	0.8961	0.011
Mof_H 	H 	0.091	0.7978	0.9424	0.074
Mof_H 	H 	0.2777	0.6566	0.9235	0.047
Mof_H 	H 	0.5003	0.4041	0.9546	0.029
Mof_H 	H 	0.7422	0.119	0.9686	0.007
Mof_H 	H 	0.9082	0.1735	0.9065	0.069
Mof_H 	H 	0.8734	0.3502	0.8714	0.055
Mof_H 	H 	0.8986	0.578	0.917	0.06
Mof_H 	H 	0.5825	0.4614	0.5914	0.06
Mof_H 	H 	0.7929	0.8352	0.4398	0.004
Mof_H 	H 	0.6113	0.7952	0.4967	0.072
Mof_H 	H 	0.6315	0.6632	0.5778	0.057
Mof_H 	H 	0.0132	0.6141	0.5373	0.03
Mof_H 	H 	0.2085	0.423	0.6098	0.057
Mof_H 	H 	0.4113	0.3124	0.6236	0.073
Mof_H 	H 	0.4283	0.1672	0.6917	0.023
Mof_H 	H 	0.0507	0.2413	0.7441	0.044
Mof_H 	H 	0.5135	0.5435	0.7071	0.025
Mof_H 	H 	0.3517	0.3476	0.8169	0.029
Mof_H 	H 	0.5504	0.2327	0.8287	0.08
Mof_H 	H 	0.7381	0.2704	0.7741	0.048
Mof_H 	H 	0.6565	0.0896	0.7061	0.06
Mof_H 	H 	0.922	0.9161	0.8464	0.045
Mof_H 	H 	0.0332	0.4624	0.2052	0.031
Mof_H 	H 	0.2777	0.2221	0.2882	0.048
Mof_H 	H 	0.1	0.1811	0.3512	0.065
Mof_H 	H 	0.8961	0.2754	0.335	0.03
Mof_H 	H 	0.5539	0.1474	0.1929	0.037
Mof_H 	H 	0.9108	0.036	0.1039	0.011
Mof_H 	H 	0.909	0.2022	0.0576	0.074
Mof_H 	H 	0.7223	0.3434	0.0765	0.047
Mof_H 	H 	0.4997	0.5959	0.0454	0.029
Mof_H 	H 	0.2578	0.881	0.0314	0.007
Mof_H 	H 	0.0918	0.8265	0.0935	0.069
Mof_H 	H 	0.1266	0.6498	0.1286	0.055
Mof_H 	H 	0.1014	0.422	0.083	0.06
Mof_H 	H 	0.4175	0.5386	0.4086	0.06
Mof_H 	H 	0.2071	0.1648	0.5602	0.004
Mof_H 	H 	0.3887	0.2048	0.5033	0.072
Mof_H 	H 	0.3685	0.3368	0.4222	0.057
Mof_H 	H 	0.9868	0.3859	0.4627	0.03
Mof_H 	H 	0.7915	0.577	0.3902	0.057
Mof_H 	H 	0.5887	0.6876	0.3764	0.073
Mof_H 	H 	0.5717	0.8328	0.3083	0.023
Mof_H 	H 	0.9493	0.7587	0.2559	0.044
Mof_H 	H 	0.4865	0.4565	0.2929	0.025
Mof_H 	H 	0.6483	0.6524	0.1831	0.029
Mof_H 	H 	0.4496	0.7673	0.1713	0.08
Mof_H 	H 	0.2619	0.7296	0.2259	0.048
Mof_H 	H 	0.3435	0.9104	0.2939	0.06
Mof_H 	H 	0.078	0.0839	0.1536	0.045
Mof_C 	C 	0.9532	0.5959	0.7657	0.04
Mof_C 	C 	0.827	0.6515	0.7603	-0.039
Mof_C 	C 	0.806	0.7381	0.7162	0.005
Mof_C 	C 	0.9109	0.7632	0.6797	-0.085
Mof_C 	C 	0.0336	0.705	0.6892	0.053
Mof_C 	C 	0.72	0.6203	0.8029	0.141
Mof_C 	C 	0.6502	0.5028	0.8759	0.142
Mof_C 	C 	0.5104	0.6603	0.8512	0.122
Mof_C 	C 	0.3834	0.7404	0.8641	-0.063
Mof_C 	C 	0.3739	0.8418	0.835	0.028
Mof_C 	C 	0.1635	0.907	0.8866	0.052
Mof_C 	C 	0.1649	0.8076	0.9155	-0.1
Mof_C 	C 	0.2755	0.7237	0.9043	-0.002
Mof_C 	C 	0.68	0.395	0.907	-0.042
Mof_C 	C 	0.5831	0.3569	0.9446	0.042
Mof_C 	C 	0.7257	0.1896	0.9529	0.045
Mof_C 	C 	0.8263	0.2221	0.9163	-0.087
Mof_C 	C 	0.8054	0.3261	0.8943	-0.001
Mof_C 	C 	0.1239	0.4626	0.8678	0.316
Mof_C 	C 	0.0654	0.4783	0.9373	-0.04
Mof_C 	C 	0.9396	0.5465	0.9506	-0.013
Mof_C 	C 	0.1281	0.4298	0.9878	-0.041
Mof_C 	C 	0.2613	0.3504	0.9792	0.305
Mof_C 	C 	0.3654	0.6042	0.617	0.325
Mof_C 	C 	0.43	0.5528	0.5549	-0.045
Mof_C 	C 	0.549	0.4772	0.5544	-0.016
Mof_C 	C 	0.3797	0.5761	0.4991	-0.039
Mof_C 	C 	0.2516	0.6584	0.4958	0.296
Mof_C 	C 	0.8016	0.7817	0.4721	0.046
Mof_C 	C 	0.6923	0.7582	0.506	-0.09
Mof_C 	C 	0.7043	0.6794	0.5537	-0.001
Mof_C 	C 	0.8274	0.6244	0.5653	-0.042
Mof_C 	C 	0.931	0.6517	0.5296	0.04
Mof_C 	C 	0.8449	0.5379	0.6159	0.138
Mof_C 	C 	0.7595	0.4399	0.6952	0.139
Mof_C 	C 	0.9762	0.4042	0.6673	0.126
Mof_C 	C 	0.1075	0.3409	0.6759	-0.039
Mof_C 	C 	0.2166	0.3646	0.6388	-0.012
Mof_C 	C 	0.3366	0.2981	0.6468	-0.092
Mof_C 	C 	0.3461	0.212	0.6883	0.048
Mof_C 	C 	0.124	0.2545	0.7186	0.035
Mof_C 	C 	0.6436	0.4123	0.7334	-0.041
Mof_C 	C 	0.5214	0.4792	0.7309	0.041
Mof_C 	C 	0.4262	0.3648	0.7961	0.058
Mof_C 	C 	0.5455	0.2947	0.8028	-0.093
Mof_C 	C 	0.6569	0.317	0.7709	0.005
Mof_C 	C 	0.0585	0.0032	0.7559	0.321
Mof_C 	C 	0.9188	0.0037	0.7637	-0.047
Mof_C 	C 	0.8381	0.0542	0.7217	-0.035
Mof_C 	C 	0.7093	0.0561	0.735	-0.022
Mof_C 	C 	0.6571	0.0083	0.7917	-0.039
Mof_C 	C 	0.739	0.9537	0.8339	-0.053
Mof_C 	C 	0.8674	0.9526	0.8187	-0.002
Mof_C 	C 	0.8872	0.1144	0.663	0.281
Mof_C 	C 	0.5119	0.0335	0.8122	0.311
Mof_C 	C 	0.6915	0.9002	0.8939	0.312
Mof_C 	C 	0.0468	0.4041	0.2343	0.04
Mof_C 	C 	0.173	0.3485	0.2397	-0.039
Mof_C 	C 	0.194	0.2619	0.2838	0.005
Mof_C 	C 	0.0891	0.2368	0.3203	-0.085
Mof_C 	C 	0.9664	0.295	0.3108	0.053
Mof_C 	C 	0.28	0.3797	0.1971	0.141
Mof_C 	C 	0.3498	0.4972	0.1241	0.142
Mof_C 	C 	0.4896	0.3397	0.1488	0.122
Mof_C 	C 	0.6166	0.2596	0.1359	-0.063
Mof_C 	C 	0.6261	0.1582	0.165	0.028
Mof_C 	C 	0.8365	0.093	0.1134	0.052
Mof_C 	C 	0.8351	0.1924	0.0845	-0.1
Mof_C 	C 	0.7245	0.2763	0.0957	-0.002
Mof_C 	C 	0.32	0.605	0.093	-0.042
Mof_C 	C 	0.4169	0.6431	0.0554	0.042
Mof_C 	C 	0.2743	0.8104	0.0471	0.045
Mof_C 	C 	0.1737	0.7779	0.0837	-0.087
Mof_C 	C 	0.1946	0.6739	0.1057	-0.001
Mof_C 	C 	0.8761	0.5374	0.1322	0.316
Mof_C 	C 	0.9346	0.5217	0.0627	-0.04
Mof_C 	C 	0.0604	0.4535	0.0494	-0.013
Mof_C 	C 	0.8719	0.5702	0.0122	-0.041
Mof_C 	C 	0.7387	0.6496	0.0208	0.305
Mof_C 	C 	0.6346	0.3958	0.383	0.325
Mof_C 	C 	0.57	0.4472	0.4451	-0.045
Mof_C 	C 	0.451	0.5228	0.4456	-0.016
Mof_C 	C 	0.6203	0.4239	0.5009	-0.039
Mof_C 	C 	0.7484	0.3416	0.5042	0.296
Mof_C 	C 	0.1984	0.2183	0.5279	0.046
Mof_C 	C 	0.3077	0.2418	0.494	-0.09
Mof_C 	C 	0.2957	0.3206	0.4463	-0.001
Mof_C 	C 	0.1726	0.3756	0.4347	-0.042
Mof_C 	C 	0.069	0.3483	0.4704	0.04
Mof_C 	C 	0.1551	0.4621	0.3841	0.138
Mof_C 	C 	0.2405	0.5601	0.3048	0.139
Mof_C 	C 	0.0238	0.5958	0.3327	0.126
Mof_C 	C 	0.8925	0.6591	0.3241	-0.039
Mof_C 	C 	0.7834	0.6354	0.3612	-0.012
Mof_C 	C 	0.6634	0.7019	0.3532	-0.092
Mof_C 	C 	0.6539	0.788	0.3117	0.048
Mof_C 	C 	0.876	0.7455	0.2814	0.035
Mof_C 	C 	0.3564	0.5877	0.2666	-0.041
Mof_C 	C 	0.4786	0.5208	0.2691	0.041
Mof_C 	C 	0.5738	0.6352	0.2039	0.058
Mof_C 	C 	0.4545	0.7053	0.1972	-0.093
Mof_C 	C 	0.3431	0.683	0.2291	0.005
Mof_C 	C 	0.9415	0.9968	0.2441	0.321
Mof_C 	C 	0.0812	0.9963	0.2363	-0.047
Mof_C 	C 	0.1619	0.9458	0.2783	-0.035
Mof_C 	C 	0.2907	0.9439	0.265	-0.022
Mof_C 	C 	0.3429	0.9917	0.2083	-0.039
Mof_C 	C 	0.261	0.0463	0.1661	-0.053
Mof_C 	C 	0.1326	0.0474	0.1813	-0.002
Mof_C 	C 	0.1128	0.8856	0.337	0.281
Mof_C 	C 	0.4881	0.9665	0.1878	0.311
Mof_C 	C 	0.3085	0.0998	0.1061	0.312
Mof_N 	N 	0.0567	0.6215	0.7316	-0.207
Mof_N 	N 	0.7502	0.5275	0.8371	-0.147
Mof_N 	N 	0.53	0.5672	0.8868	-0.151
Mof_N 	N 	0.6	0.6859	0.8063	-0.145
Mof_N 	N 	0.2669	0.9239	0.845	-0.205
Mof_N 	N 	0.6027	0.2562	0.9672	-0.218
Mof_N 	N 	0.9206	0.7301	0.4839	-0.221
Mof_N 	N 	0.7369	0.5216	0.6527	-0.147
Mof_N 	N 	0.8747	0.3804	0.7062	-0.145
Mof_N 	N 	0.9654	0.4829	0.6211	-0.147
Mof_N 	N 	0.2414	0.1878	0.7255	-0.201
Mof_N 	N 	0.4136	0.4563	0.7609	-0.207
Mof_N 	N 	0.9433	0.3785	0.2684	-0.207
Mof_N 	N 	0.2498	0.4725	0.1629	-0.147
Mof_N 	N 	0.47	0.4328	0.1132	-0.151
Mof_N 	N 	0.4	0.3141	0.1937	-0.145
Mof_N 	N 	0.7331	0.0761	0.155	-0.205
Mof_N 	N 	0.3973	0.7438	0.0328	-0.218
Mof_N 	N 	0.0794	0.2699	0.5161	-0.221
Mof_N 	N 	0.2631	0.4784	0.3473	-0.147
Mof_N 	N 	0.1253	0.6196	0.2938	-0.145
Mof_N 	N 	0.0346	0.5171	0.3789	-0.147
Mof_N 	N 	0.7586	0.8122	0.2745	-0.201
Mof_N 	N 	0.5864	0.5437	0.2391	-0.207
Mof_O 	O 	0.3023	0.5502	0.6559	-0.382
Mof_O 	O 	0.3867	0.6861	0.6273	-0.259
Mof_O 	O 	0.1984	0.7227	0.5371	-0.297
Mof_O 	O 	0.2039	0.6592	0.4469	-0.368
Mof_O 	O 	0.1725	0.5374	0.8403	-0.382
Mof_O 	O 	0.1133	0.3902	0.8413	-0.28
Mof_O 	O 	0.3218	0.3377	0.0251	-0.373
Mof_O 	O 	0.3061	0.3011	0.9311	-0.281
Mof_O 	O 	0.0758	0.0671	0.7889	-0.387
Mof_O 	O 	0.1456	0.9354	0.7229	-0.27
Mof_O 	O 	0.9881	0.1396	0.6593	-0.31
Mof_O 	O 	0.8228	0.139	0.6184	-0.37
Mof_O 	O 	0.448	0.0299	0.7709	-0.381
Mof_O 	O 	0.4641	0.06	0.8673	-0.289
Mof_O 	O 	0.6259	0.839	0.8918	-0.375
Mof_O 	O 	0.7187	0.9189	0.944	-0.29
Mof_O 	O 	0.6977	0.4498	0.3441	-0.382
Mof_O 	O 	0.6133	0.3139	0.3727	-0.259
Mof_O 	O 	0.8016	0.2773	0.4629	-0.297
Mof_O 	O 	0.7961	0.3408	0.5531	-0.368
Mof_O 	O 	0.8275	0.4626	0.1597	-0.382
Mof_O 	O 	0.8867	0.6098	0.1587	-0.28
Mof_O 	O 	0.6782	0.6623	0.9749	-0.373
Mof_O 	O 	0.6939	0.6989	0.0689	-0.281
Mof_O 	O 	0.9242	0.9329	0.2111	-0.387
Mof_O 	O 	0.8544	0.0646	0.2771	-0.27
Mof_O 	O 	0.0119	0.8604	0.3407	-0.31
Mof_O 	O 	0.1772	0.861	0.3816	-0.37
Mof_O 	O 	0.552	0.9701	0.2291	-0.381
Mof_O 	O 	0.5359	0.94	0.1327	-0.289
Mof_O 	O 	0.3741	0.161	0.1082	-0.375
Mof_O 	O 	0.2813	0.0811	0.056	-0.29
_end
