data_functionalizedCrystal
_audit_creation_method	'EQeq! by Chris Wilmer'
_symmetry_space_group_name_H-M	'P1'
_symmetry_Int_Tables_number	1
_symmetry_cell_setting	triclinic
loop_
_symmetry_equiv_pos_as_xyz
  x,y,z
_cell_length_a	16.5094
_cell_length_b	16.5094
_cell_length_c	25.701
_cell_angle_alpha	90
_cell_angle_beta	90
_cell_angle_gamma	120
loop_
_atom_site_label
_atom_site_type_symbol
_atom_site_fract_x
_atom_site_fract_y
_atom_site_fract_z
_atom_site_charge
Mof_Zn	Zn	0.71534	0.43068	0.16667	1.209
Mof_Zn	Zn	0.71534	0.28466	0.5	1.209
Mof_Zn	Zn	0.56932	0.28466	0.83333	1.209
Mof_Zn	Zn	0.28466	0.56932	0.16667	1.209
Mof_Zn	Zn	0.28466	0.71534	0.5	1.209
Mof_Zn	Zn	0.43068	0.71534	0.83333	1.209
Mof_H 	H 	0.8201	0.2285	0.0756	0.093
Mof_H 	H 	0.6627	0.4979	0.0735	-0.024
Mof_H 	H 	0.6121	0.5957	0.0475	0.178
Mof_H 	H 	0.5871	0.6437	0.1952	0.151
Mof_H 	H 	0.6525	0.5553	0.2174	-0.051
Mof_H 	H 	0.5674	0.8356	0.9827	0.045
Mof_H 	H 	0.5534	0.9671	0.9795	0.076
Mof_H 	H 	0.453	0.9151	0.1212	0.069
Mof_H 	H 	0.4829	0.7911	0.128	0.032
Mof_H 	H 	0.5507	0.7192	0.1326	0.165
Mof_H 	H 	0.4084	0.1799	0.40893	0.094
Mof_H 	H 	0.8352	0.3373	0.40683	-0.023
Mof_H 	H 	0.9836	0.3879	0.38083	0.178
Mof_H 	H 	0.0566	0.4129	0.52853	0.15
Mof_H 	H 	0.9028	0.3475	0.55073	-0.052
Mof_H 	H 	0.2682	0.4326	0.31603	0.039
Mof_H 	H 	0.4137	0.4466	0.31283	0.071
Mof_H 	H 	0.4621	0.547	0.45453	0.068
Mof_H 	H 	0.3082	0.5171	0.46133	0.031
Mof_H 	H 	0.1685	0.4493	0.46593	0.164
Mof_H 	H 	0.7715	0.5916	0.74227	0.093
Mof_H 	H 	0.5021	0.1648	0.74017	-0.024
Mof_H 	H 	0.4043	0.0164	0.71417	0.178
Mof_H 	H 	0.3563	0.9434	0.86187	0.15
Mof_H 	H 	0.4447	0.0972	0.88407	-0.051
Mof_H 	H 	0.1644	0.7318	0.64937	0.039
Mof_H 	H 	0.0329	0.5863	0.64617	0.071
Mof_H 	H 	0.0849	0.5379	0.78787	0.068
Mof_H 	H 	0.2089	0.6918	0.79467	0.031
Mof_H 	H 	0.2808	0.8315	0.79927	0.164
Mof_H 	H 	0.1799	0.7715	0.0756	0.092
Mof_H 	H 	0.3373	0.5021	0.0735	-0.025
Mof_H 	H 	0.3879	0.4043	0.0475	0.177
Mof_H 	H 	0.4129	0.3563	0.1952	0.15
Mof_H 	H 	0.3475	0.4447	0.2174	-0.052
Mof_H 	H 	0.4326	0.1644	0.9827	0.044
Mof_H 	H 	0.4466	0.0329	0.9795	0.075
Mof_H 	H 	0.547	0.0849	0.1212	0.068
Mof_H 	H 	0.5171	0.2089	0.128	0.031
Mof_H 	H 	0.4493	0.2808	0.1326	0.164
Mof_H 	H 	0.5916	0.8201	0.40893	0.093
Mof_H 	H 	0.1648	0.6627	0.40683	-0.024
Mof_H 	H 	0.0164	0.6121	0.38083	0.178
Mof_H 	H 	0.9434	0.5871	0.52853	0.15
Mof_H 	H 	0.0972	0.6525	0.55073	-0.052
Mof_H 	H 	0.7318	0.5674	0.31603	0.039
Mof_H 	H 	0.5863	0.5534	0.31283	0.071
Mof_H 	H 	0.5379	0.453	0.45453	0.068
Mof_H 	H 	0.6918	0.4829	0.46133	0.031
Mof_H 	H 	0.8315	0.5507	0.46593	0.164
Mof_H 	H 	0.2285	0.4084	0.74227	0.093
Mof_H 	H 	0.4979	0.8352	0.74017	-0.024
Mof_H 	H 	0.5957	0.9836	0.71417	0.178
Mof_H 	H 	0.6437	0.0566	0.86187	0.15
Mof_H 	H 	0.5553	0.9028	0.88407	-0.051
Mof_H 	H 	0.8356	0.2682	0.64937	0.039
Mof_H 	H 	0.9671	0.4137	0.64617	0.071
Mof_H 	H 	0.9151	0.4621	0.78787	0.068
Mof_H 	H 	0.7911	0.3082	0.79467	0.031
Mof_H 	H 	0.7192	0.1685	0.79927	0.164
Mof_H 	H 	0.5916	0.7715	0.25773	0.093
Mof_H 	H 	0.1648	0.5021	0.25983	-0.024
Mof_H 	H 	0.0164	0.4043	0.28583	0.178
Mof_H 	H 	0.9434	0.3563	0.13813	0.15
Mof_H 	H 	0.0972	0.4447	0.11593	-0.052
Mof_H 	H 	0.7318	0.1644	0.35063	0.039
Mof_H 	H 	0.5863	0.0329	0.35383	0.071
Mof_H 	H 	0.5379	0.0849	0.21213	0.068
Mof_H 	H 	0.6918	0.2089	0.20533	0.031
Mof_H 	H 	0.8315	0.2808	0.20073	0.164
Mof_H 	H 	0.2285	0.8201	0.9244	0.092
Mof_H 	H 	0.4979	0.6627	0.9265	-0.024
Mof_H 	H 	0.5957	0.6121	0.9525	0.179
Mof_H 	H 	0.6437	0.5871	0.8048	0.15
Mof_H 	H 	0.5553	0.6525	0.7826	-0.052
Mof_H 	H 	0.8356	0.5674	0.0173	0.035
Mof_H 	H 	0.9671	0.5534	0.0205	0.068
Mof_H 	H 	0.9151	0.453	0.8788	0.068
Mof_H 	H 	0.7911	0.4829	0.872	0.031
Mof_H 	H 	0.7192	0.5507	0.8674	0.165
Mof_H 	H 	0.1799	0.4084	0.59107	0.093
Mof_H 	H 	0.3373	0.8352	0.59317	-0.024
Mof_H 	H 	0.3879	0.9836	0.61917	0.178
Mof_H 	H 	0.4129	0.0566	0.47147	0.15
Mof_H 	H 	0.3475	0.9028	0.44927	-0.052
Mof_H 	H 	0.4326	0.2682	0.68397	0.039
Mof_H 	H 	0.4466	0.4137	0.68717	0.071
Mof_H 	H 	0.547	0.4621	0.54547	0.068
Mof_H 	H 	0.5171	0.3082	0.53867	0.031
Mof_H 	H 	0.4493	0.1685	0.53407	0.164
Mof_H 	H 	0.4084	0.2285	0.25773	0.093
Mof_H 	H 	0.8352	0.4979	0.25983	-0.024
Mof_H 	H 	0.9836	0.5957	0.28583	0.178
Mof_H 	H 	0.0566	0.6437	0.13813	0.15
Mof_H 	H 	0.9028	0.5553	0.11593	-0.052
Mof_H 	H 	0.2682	0.8356	0.35063	0.039
Mof_H 	H 	0.4137	0.9671	0.35383	0.071
Mof_H 	H 	0.4621	0.9151	0.21213	0.068
Mof_H 	H 	0.3082	0.7911	0.20533	0.031
Mof_H 	H 	0.1685	0.7192	0.20073	0.164
Mof_H 	H 	0.7715	0.1799	0.9244	0.092
Mof_H 	H 	0.5021	0.3373	0.9265	-0.024
Mof_H 	H 	0.4043	0.3879	0.9525	0.179
Mof_H 	H 	0.3563	0.4129	0.8048	0.15
Mof_H 	H 	0.4447	0.3475	0.7826	-0.052
Mof_H 	H 	0.1644	0.4326	0.0173	0.035
Mof_H 	H 	0.0329	0.4466	0.0205	0.068
Mof_H 	H 	0.0849	0.547	0.8788	0.068
Mof_H 	H 	0.2089	0.5171	0.872	0.031
Mof_H 	H 	0.2808	0.4493	0.8674	0.165
Mof_H 	H 	0.8201	0.5916	0.59107	0.093
Mof_H 	H 	0.6627	0.1648	0.59317	-0.024
Mof_H 	H 	0.6121	0.0164	0.61917	0.178
Mof_H 	H 	0.5871	0.9434	0.47147	0.15
Mof_H 	H 	0.6525	0.0972	0.44927	-0.052
Mof_H 	H 	0.5674	0.7318	0.68397	0.039
Mof_H 	H 	0.5534	0.5863	0.68717	0.071
Mof_H 	H 	0.453	0.5379	0.54547	0.068
Mof_H 	H 	0.4829	0.6918	0.53867	0.031
Mof_H 	H 	0.5507	0.8315	0.53407	0.164
Mof_H 	H 	0.67505	0.32495	-0	0.07
Mof_H 	H 	0.6499	0.32495	0.33333	0.069
Mof_H 	H 	0.67505	0.3501	0.66667	0.069
Mof_H 	H 	0.32495	0.67505	-0	0.07
Mof_H 	H 	0.3501	0.67505	0.33333	0.069
Mof_H 	H 	0.32495	0.6499	0.66667	0.069
Mof_C 	C 	0.73699	0.32539	0.09654	0.33
Mof_C 	C 	0.7454	0.28328	0.0464	-0.039
Mof_C 	C 	0.7932	0.2356	0.04546	-0.094
Mof_C 	C 	0.6502	0.5304	0.09884	0.189
Mof_C 	C 	0.6187	0.5882	0.08281	-0.302
Mof_C 	C 	0.597	0.63545	0.11854	0.3
Mof_C 	C 	0.606	0.6177	0.16915	-0.309
Mof_C 	C 	0.6425	0.5617	0.18236	0.192
Mof_C 	C 	0.5633	0.7332	0.05966	0.262
Mof_C 	C 	0.5384	0.80786	0.05777	-0.085
Mof_C 	C 	0.5507	0.8554	0.0126	0.03
Mof_C 	C 	0.5388	0.9326	0.01015	-0.104
Mof_C 	C 	0.5065	0.95875	0.05118	0.048
Mof_C 	C 	0.4821	0.9032	0.09364	-0.095
Mof_C 	C 	0.499	0.827	0.09783	0.021
Mof_C 	C 	0.5884	0.26301	0.42987	0.33
Mof_C 	C 	0.53788	0.2546	0.37973	-0.04
Mof_C 	C 	0.4424	0.2068	0.37879	-0.095
Mof_C 	C 	0.8802	0.3498	0.43217	0.189
Mof_C 	C 	0.9695	0.3813	0.41614	-0.302
Mof_C 	C 	0.03845	0.403	0.45187	0.301
Mof_C 	C 	0.0117	0.394	0.50248	-0.309
Mof_C 	C 	0.9192	0.3575	0.51569	0.192
Mof_C 	C 	0.1699	0.4367	0.39299	0.263
Mof_C 	C 	0.26946	0.4616	0.3911	-0.087
Mof_C 	C 	0.3047	0.4493	0.34593	0.036
Mof_C 	C 	0.3938	0.4612	0.34348	-0.1
Mof_C 	C 	0.45225	0.4935	0.38451	0.048
Mof_C 	C 	0.4211	0.5179	0.42697	-0.096
Mof_C 	C 	0.328	0.501	0.43116	0.022
Mof_C 	C 	0.67461	0.4116	0.76321	0.33
Mof_C 	C 	0.71672	0.46212	0.71307	-0.04
Mof_C 	C 	0.7644	0.5576	0.71213	-0.095
Mof_C 	C 	0.4696	0.1198	0.76551	0.189
Mof_C 	C 	0.4118	0.0305	0.74948	-0.302
Mof_C 	C 	0.36455	0.96155	0.78521	0.301
Mof_C 	C 	0.3823	0.9883	0.83582	-0.309
Mof_C 	C 	0.4383	0.0808	0.84903	0.192
Mof_C 	C 	0.2668	0.8301	0.72633	0.263
Mof_C 	C 	0.19214	0.73054	0.72444	-0.087
Mof_C 	C 	0.1446	0.6953	0.67927	0.036
Mof_C 	C 	0.0674	0.6062	0.67682	-0.1
Mof_C 	C 	0.04125	0.54775	0.71785	0.048
Mof_C 	C 	0.0968	0.5789	0.76031	-0.096
Mof_C 	C 	0.173	0.672	0.7645	0.022
Mof_C 	C 	0.26301	0.67461	0.09654	0.33
Mof_C 	C 	0.2546	0.71672	0.0464	-0.039
Mof_C 	C 	0.2068	0.7644	0.04546	-0.094
Mof_C 	C 	0.3498	0.4696	0.09884	0.189
Mof_C 	C 	0.3813	0.4118	0.08281	-0.302
Mof_C 	C 	0.403	0.36455	0.11854	0.3
Mof_C 	C 	0.394	0.3823	0.16915	-0.309
Mof_C 	C 	0.3575	0.4383	0.18236	0.192
Mof_C 	C 	0.4367	0.2668	0.05966	0.262
Mof_C 	C 	0.4616	0.19214	0.05777	-0.085
Mof_C 	C 	0.4493	0.1446	0.0126	0.03
Mof_C 	C 	0.4612	0.0674	0.01015	-0.104
Mof_C 	C 	0.4935	0.04125	0.05118	0.048
Mof_C 	C 	0.5179	0.0968	0.09364	-0.095
Mof_C 	C 	0.501	0.173	0.09783	0.021
Mof_C 	C 	0.4116	0.73699	0.42987	0.33
Mof_C 	C 	0.46212	0.7454	0.37973	-0.04
Mof_C 	C 	0.5576	0.7932	0.37879	-0.095
Mof_C 	C 	0.1198	0.6502	0.43217	0.189
Mof_C 	C 	0.0305	0.6187	0.41614	-0.302
Mof_C 	C 	0.96155	0.597	0.45187	0.301
Mof_C 	C 	0.9883	0.606	0.50248	-0.309
Mof_C 	C 	0.0808	0.6425	0.51569	0.192
Mof_C 	C 	0.8301	0.5633	0.39299	0.263
Mof_C 	C 	0.73054	0.5384	0.3911	-0.087
Mof_C 	C 	0.6953	0.5507	0.34593	0.036
Mof_C 	C 	0.6062	0.5388	0.34348	-0.1
Mof_C 	C 	0.54775	0.5065	0.38451	0.048
Mof_C 	C 	0.5789	0.4821	0.42697	-0.096
Mof_C 	C 	0.672	0.499	0.43116	0.022
Mof_C 	C 	0.32539	0.5884	0.76321	0.33
Mof_C 	C 	0.28328	0.53788	0.71307	-0.04
Mof_C 	C 	0.2356	0.4424	0.71213	-0.095
Mof_C 	C 	0.5304	0.8802	0.76551	0.189
Mof_C 	C 	0.5882	0.9695	0.74948	-0.302
Mof_C 	C 	0.63545	0.03845	0.78521	0.301
Mof_C 	C 	0.6177	0.0117	0.83582	-0.309
Mof_C 	C 	0.5617	0.9192	0.84903	0.192
Mof_C 	C 	0.7332	0.1699	0.72633	0.263
Mof_C 	C 	0.80786	0.26946	0.72444	-0.087
Mof_C 	C 	0.8554	0.3047	0.67927	0.036
Mof_C 	C 	0.9326	0.3938	0.67682	-0.1
Mof_C 	C 	0.95875	0.45225	0.71785	0.048
Mof_C 	C 	0.9032	0.4211	0.76031	-0.096
Mof_C 	C 	0.827	0.328	0.7645	0.022
Mof_C 	C 	0.4116	0.67461	0.23679	0.33
Mof_C 	C 	0.46212	0.71672	0.28693	-0.04
Mof_C 	C 	0.5576	0.7644	0.28787	-0.095
Mof_C 	C 	0.1198	0.4696	0.23449	0.189
Mof_C 	C 	0.0305	0.4118	0.25052	-0.302
Mof_C 	C 	0.96155	0.36455	0.21479	0.301
Mof_C 	C 	0.9883	0.3823	0.16418	-0.309
Mof_C 	C 	0.0808	0.4383	0.15097	0.192
Mof_C 	C 	0.8301	0.2668	0.27367	0.263
Mof_C 	C 	0.73054	0.19214	0.27556	-0.087
Mof_C 	C 	0.6953	0.1446	0.32073	0.036
Mof_C 	C 	0.6062	0.0674	0.32318	-0.1
Mof_C 	C 	0.54775	0.04125	0.28215	0.048
Mof_C 	C 	0.5789	0.0968	0.23969	-0.096
Mof_C 	C 	0.672	0.173	0.2355	0.022
Mof_C 	C 	0.32539	0.73699	0.90346	0.33
Mof_C 	C 	0.28328	0.7454	0.9536	-0.037
Mof_C 	C 	0.2356	0.7932	0.95454	-0.09
Mof_C 	C 	0.5304	0.6502	0.90116	0.189
Mof_C 	C 	0.5882	0.6187	0.91719	-0.302
Mof_C 	C 	0.63545	0.597	0.88146	0.301
Mof_C 	C 	0.6177	0.606	0.83085	-0.309
Mof_C 	C 	0.5617	0.6425	0.81764	0.193
Mof_C 	C 	0.7332	0.5633	0.94034	0.264
Mof_C 	C 	0.80786	0.5384	0.94223	-0.089
Mof_C 	C 	0.8554	0.5507	0.9874	0.042
Mof_C 	C 	0.9326	0.5388	0.98985	-0.095
Mof_C 	C 	0.95875	0.5065	0.94882	0.047
Mof_C 	C 	0.9032	0.4821	0.90636	-0.096
Mof_C 	C 	0.827	0.499	0.90217	0.024
Mof_C 	C 	0.26301	0.5884	0.57013	0.33
Mof_C 	C 	0.2546	0.53788	0.62027	-0.04
Mof_C 	C 	0.2068	0.4424	0.62121	-0.095
Mof_C 	C 	0.3498	0.8802	0.56783	0.189
Mof_C 	C 	0.3813	0.9695	0.58386	-0.302
Mof_C 	C 	0.403	0.03845	0.54813	0.301
Mof_C 	C 	0.394	0.0117	0.49752	-0.309
Mof_C 	C 	0.3575	0.9192	0.48431	0.192
Mof_C 	C 	0.4367	0.1699	0.60701	0.263
Mof_C 	C 	0.4616	0.26946	0.6089	-0.087
Mof_C 	C 	0.4493	0.3047	0.65407	0.036
Mof_C 	C 	0.4612	0.3938	0.65652	-0.1
Mof_C 	C 	0.4935	0.45225	0.61549	0.048
Mof_C 	C 	0.5179	0.4211	0.57303	-0.096
Mof_C 	C 	0.501	0.328	0.56884	0.022
Mof_C 	C 	0.5884	0.32539	0.23679	0.33
Mof_C 	C 	0.53788	0.28328	0.28693	-0.04
Mof_C 	C 	0.4424	0.2356	0.28787	-0.095
Mof_C 	C 	0.8802	0.5304	0.23449	0.189
Mof_C 	C 	0.9695	0.5882	0.25052	-0.302
Mof_C 	C 	0.03845	0.63545	0.21479	0.301
Mof_C 	C 	0.0117	0.6177	0.16418	-0.309
Mof_C 	C 	0.9192	0.5617	0.15097	0.192
Mof_C 	C 	0.1699	0.7332	0.27367	0.263
Mof_C 	C 	0.26946	0.80786	0.27556	-0.087
Mof_C 	C 	0.3047	0.8554	0.32073	0.036
Mof_C 	C 	0.3938	0.9326	0.32318	-0.1
Mof_C 	C 	0.45225	0.95875	0.28215	0.048
Mof_C 	C 	0.4211	0.9032	0.23969	-0.096
Mof_C 	C 	0.328	0.827	0.2355	0.022
Mof_C 	C 	0.67461	0.26301	0.90346	0.33
Mof_C 	C 	0.71672	0.2546	0.9536	-0.037
Mof_C 	C 	0.7644	0.2068	0.95454	-0.09
Mof_C 	C 	0.4696	0.3498	0.90116	0.189
Mof_C 	C 	0.4118	0.3813	0.91719	-0.302
Mof_C 	C 	0.36455	0.403	0.88146	0.301
Mof_C 	C 	0.3823	0.394	0.83085	-0.309
Mof_C 	C 	0.4383	0.3575	0.81764	0.193
Mof_C 	C 	0.2668	0.4367	0.94034	0.264
Mof_C 	C 	0.19214	0.4616	0.94223	-0.089
Mof_C 	C 	0.1446	0.4493	0.9874	0.042
Mof_C 	C 	0.0674	0.4612	0.98985	-0.095
Mof_C 	C 	0.04125	0.4935	0.94882	0.047
Mof_C 	C 	0.0968	0.5179	0.90636	-0.096
Mof_C 	C 	0.173	0.501	0.90217	0.024
Mof_C 	C 	0.73699	0.4116	0.57013	0.33
Mof_C 	C 	0.7454	0.46212	0.62027	-0.04
Mof_C 	C 	0.7932	0.5576	0.62121	-0.095
Mof_C 	C 	0.6502	0.1198	0.56783	0.189
Mof_C 	C 	0.6187	0.0305	0.58386	-0.302
Mof_C 	C 	0.597	0.96155	0.54813	0.301
Mof_C 	C 	0.606	0.9883	0.49752	-0.309
Mof_C 	C 	0.6425	0.0808	0.48431	0.192
Mof_C 	C 	0.5633	0.8301	0.60701	0.263
Mof_C 	C 	0.5384	0.73054	0.6089	-0.087
Mof_C 	C 	0.5507	0.6953	0.65407	0.036
Mof_C 	C 	0.5388	0.6062	0.65652	-0.1
Mof_C 	C 	0.5065	0.54775	0.61549	0.048
Mof_C 	C 	0.4821	0.5789	0.57303	-0.096
Mof_C 	C 	0.499	0.672	0.56884	0.022
Mof_C 	C 	0.70755	0.29245	-0	-0.022
Mof_C 	C 	0.8009	0.1991	-0	0.116
Mof_C 	C 	0.5849	0.29245	0.33333	-0.017
Mof_C 	C 	0.3982	0.1991	0.33333	0.122
Mof_C 	C 	0.70755	0.4151	0.66667	-0.017
Mof_C 	C 	0.8009	0.6018	0.66667	0.122
Mof_C 	C 	0.29245	0.70755	-0	-0.022
Mof_C 	C 	0.1991	0.8009	-0	0.116
Mof_C 	C 	0.4151	0.70755	0.33333	-0.017
Mof_C 	C 	0.6018	0.8009	0.33333	0.122
Mof_C 	C 	0.29245	0.5849	0.66667	-0.017
Mof_C 	C 	0.1991	0.3982	0.66667	0.122
Mof_N 	N 	0.66398	0.51715	0.1478	-0.307
Mof_N 	N 	0.56805	0.69881	0.10657	-0.288
Mof_N 	N 	0.85317	0.33602	0.48113	-0.307
Mof_N 	N 	0.13076	0.43195	0.4399	-0.288
Mof_N 	N 	0.48285	0.14683	0.81447	-0.307
Mof_N 	N 	0.30119	0.86924	0.77324	-0.288
Mof_N 	N 	0.33602	0.48285	0.1478	-0.307
Mof_N 	N 	0.43195	0.30119	0.10657	-0.288
Mof_N 	N 	0.14683	0.66398	0.48113	-0.307
Mof_N 	N 	0.86924	0.56805	0.4399	-0.288
Mof_N 	N 	0.51715	0.85317	0.81447	-0.307
Mof_N 	N 	0.69881	0.13076	0.77324	-0.288
Mof_N 	N 	0.14683	0.48285	0.18553	-0.307
Mof_N 	N 	0.86924	0.30119	0.22676	-0.288
Mof_N 	N 	0.51715	0.66398	0.8522	-0.307
Mof_N 	N 	0.69881	0.56805	0.89343	-0.288
Mof_N 	N 	0.33602	0.85317	0.51887	-0.307
Mof_N 	N 	0.43195	0.13076	0.5601	-0.288
Mof_N 	N 	0.85317	0.51715	0.18553	-0.307
Mof_N 	N 	0.13076	0.69881	0.22676	-0.288
Mof_N 	N 	0.48285	0.33602	0.8522	-0.307
Mof_N 	N 	0.30119	0.43195	0.89343	-0.288
Mof_N 	N 	0.66398	0.14683	0.51887	-0.307
Mof_N 	N 	0.56805	0.86924	0.5601	-0.288
Mof_N 	N 	0.85095	0.14905	-0	-0.033
Mof_N 	N 	0.2981	0.14905	0.33333	-0.032
Mof_N 	N 	0.85095	0.7019	0.66667	-0.032
Mof_N 	N 	0.14905	0.85095	-0	-0.033
Mof_N 	N 	0.7019	0.85095	0.33333	-0.032
Mof_N 	N 	0.14905	0.2981	0.66667	-0.032
Mof_O 	O 	0.70725	0.38054	0.09543	-0.454
Mof_O 	O 	0.76347	0.30369	0.1366	-0.347
Mof_O 	O 	0.8356	0.0904	0.9598	-0.103
Mof_O 	O 	0.5793	0.70333	0.02043	-0.248
Mof_O 	O 	0.67329	0.29275	0.42876	-0.454
Mof_O 	O 	0.54022	0.23653	0.46993	-0.347
Mof_O 	O 	0.2548	0.1644	0.29313	-0.105
Mof_O 	O 	0.12403	0.4207	0.35376	-0.246
Mof_O 	O 	0.61946	0.32671	0.7621	-0.454
Mof_O 	O 	0.69631	0.45978	0.80327	-0.347
Mof_O 	O 	0.9096	0.7452	0.62647	-0.105
Mof_O 	O 	0.29667	0.87597	0.6871	-0.246
Mof_O 	O 	0.29275	0.61946	0.09543	-0.454
Mof_O 	O 	0.23653	0.69631	0.1366	-0.347
Mof_O 	O 	0.1644	0.9096	0.9598	-0.103
Mof_O 	O 	0.4207	0.29667	0.02043	-0.248
Mof_O 	O 	0.32671	0.70725	0.42876	-0.454
Mof_O 	O 	0.45978	0.76347	0.46993	-0.347
Mof_O 	O 	0.7452	0.8356	0.29313	-0.105
Mof_O 	O 	0.87597	0.5793	0.35376	-0.246
Mof_O 	O 	0.38054	0.67329	0.7621	-0.454
Mof_O 	O 	0.30369	0.54022	0.80327	-0.347
Mof_O 	O 	0.0904	0.2548	0.62647	-0.105
Mof_O 	O 	0.70333	0.12403	0.6871	-0.246
Mof_O 	O 	0.32671	0.61946	0.2379	-0.454
Mof_O 	O 	0.45978	0.69631	0.19673	-0.347
Mof_O 	O 	0.7452	0.9096	0.37353	-0.105
Mof_O 	O 	0.87597	0.29667	0.3129	-0.246
Mof_O 	O 	0.38054	0.70725	0.90457	-0.453
Mof_O 	O 	0.30369	0.76347	0.8634	-0.347
Mof_O 	O 	0.0904	0.8356	0.0402	-0.106
Mof_O 	O 	0.70333	0.5793	0.97957	-0.245
Mof_O 	O 	0.29275	0.67329	0.57124	-0.454
Mof_O 	O 	0.23653	0.54022	0.53007	-0.347
Mof_O 	O 	0.1644	0.2548	0.70687	-0.105
Mof_O 	O 	0.4207	0.12403	0.64624	-0.246
Mof_O 	O 	0.67329	0.38054	0.2379	-0.454
Mof_O 	O 	0.54022	0.30369	0.19673	-0.347
Mof_O 	O 	0.2548	0.0904	0.37353	-0.105
Mof_O 	O 	0.12403	0.70333	0.3129	-0.246
Mof_O 	O 	0.61946	0.29275	0.90457	-0.453
Mof_O 	O 	0.69631	0.23653	0.8634	-0.347
Mof_O 	O 	0.9096	0.1644	0.0402	-0.106
Mof_O 	O 	0.29667	0.4207	0.97957	-0.245
Mof_O 	O 	0.70725	0.32671	0.57124	-0.454
Mof_O 	O 	0.76347	0.45978	0.53007	-0.347
Mof_O 	O 	0.8356	0.7452	0.70687	-0.105
Mof_O 	O 	0.5793	0.87597	0.64624	-0.246
_end
