data_functionalizedCrystal
_audit_creation_method	'EQeq! by Chris Wilmer'
_symmetry_space_group_name_H-M	'P1'
_symmetry_Int_Tables_number	1
_symmetry_cell_setting	triclinic
loop_
_symmetry_equiv_pos_as_xyz
  x,y,z
_cell_length_a	16.538
_cell_length_b	9.904
_cell_length_c	21.902
_cell_angle_alpha	90
_cell_angle_beta	109.804
_cell_angle_gamma	90
loop_
_atom_site_label
_atom_site_type_symbol
_atom_site_fract_x
_atom_site_fract_y
_atom_site_fract_z
_atom_site_charge
Mof_N 	N 	0.3686	0.0386	0.0849	-0.076
Mof_N 	N 	0.4039	0.1697	0.1018	-0.052
Mof_N 	N 	0.4095	0.1958	0.1669	-0.093
Mof_C 	C 	0.3776	0.081	0.1902	0.154
Mof_N 	N 	0.3524	0.9837	0.1395	-0.118
Mof_C 	C 	0.2435	0.274	0.4254	0.224
Mof_C 	C 	0.3161	0.179	0.4533	-0.407
Mof_H 	H 	0.3217	0.1616	0.4982	0.165
Mof_H 	H 	0.3015	0.0935	0.4302	0.171
Mof_C 	C 	0.4008	0.223	0.4514	0.238
Mof_C 	C 	0.2935	0.004	0.2579	0.201
Mof_C 	C 	0.3883	0.007	0.2593	-0.313
Mof_H 	H 	0.4114	0.9161	0.261	0.137
Mof_H 	H 	0.4248	0.0584	0.2959	0.144
Mof_C 	C 	0.0213	0.7085	0.3491	0.226
Mof_C 	C 	0.0338	0.703	0.4207	-0.389
Mof_H 	H 	0.0385	0.7942	0.4377	0.166
Mof_H 	H 	0.0871	0.6563	0.4433	0.168
Mof_C 	C 	0.9601	0.6312	0.4335	0.222
Mof_C 	C 	0.8848	0.0591	0.4265	0.211
Mof_C 	C 	0.83	0.999	0.4607	-0.385
Mof_H 	H 	0.8627	0.9313	0.4911	0.162
Mof_H 	H 	0.7812	0.9544	0.4294	0.155
Mof_C 	C 	0.7975	0.105	0.4973	0.198
Mof_Cd	Cd	0.10173	0.02975	0.3532	0.39
Mof_Cd	Cd	0.36425	0.53919	0.48661	0.392
Mof_Cd	Cd	0.97097	0.38936	0.33565	0.4
Mof_Cd	Cd	0.75881	0.32973	0.37995	0.375
Mof_N 	N 	0.1606	0.2375	0.3946	-0.136
Mof_N 	N 	0.1197	0.3533	0.3801	-0.066
Mof_N 	N 	0.1702	0.4551	0.4003	-0.046
Mof_N 	N 	0.2496	0.4089	0.43	-0.133
Mof_N 	N 	0.4373	0.3422	0.4717	-0.136
Mof_N 	N 	0.5173	0.3312	0.4655	-0.075
Mof_N 	N 	0.525	0.205	0.4434	-0.042
Mof_N 	N 	0.4532	0.146	0.4345	-0.113
Mof_N 	N 	0.1887	0.9965	0.2898	-0.068
Mof_N 	N 	0.1736	0.9211	0.2393	-0.063
Mof_N 	N 	0.2388	0.924	0.2184	-0.135
Mof_N 	N 	0.2677	0.049	0.3052	-0.109
Mof_N 	N 	0.9849	0.0806	0.3873	-0.072
Mof_N 	N 	0.9378	0.1869	0.3712	-0.072
Mof_N 	N 	0.8739	0.178	0.3954	-0.135
Mof_N 	N 	0.9554	0.9979	0.4222	-0.113
Mof_N 	N 	0.8052	0.0903	0.5593	-0.142
Mof_N 	N 	0.7663	0.2051	0.5731	-0.05
Mof_N 	N 	0.7351	0.2743	0.5205	-0.068
Mof_N 	N 	0.7528	0.2146	0.4708	-0.138
Mof_N 	N 	0.9875	0.6562	0.2497	-0.06
Mof_N 	N 	0.9929	0.609	0.3078	-0.133
Mof_N 	N 	0.013	0.7812	0.2559	-0.067
Mof_N 	N 	0.0349	0.8185	0.3182	-0.13
Mof_N 	N 	0.9183	0.6872	0.4689	-0.113
Mof_N 	N 	0.8548	0.5943	0.4653	-0.046
Mof_N 	N 	0.8642	0.4892	0.4312	-0.07
Mof_N 	N 	0.93	0.5082	0.4107	-0.133
Mof_N 	N 	0.6314	0.5386	0.4151	-0.077
Mof_N 	N 	0.5961	0.6697	0.3982	-0.053
Mof_N 	N 	0.5905	0.6958	0.3331	-0.093
Mof_C 	C 	0.6224	0.581	0.3098	0.154
Mof_N 	N 	0.6476	0.4837	0.3605	-0.118
Mof_C 	C 	0.7565	0.774	0.0746	0.224
Mof_C 	C 	0.6839	0.679	0.0467	-0.407
Mof_H 	H 	0.6783	0.6616	0.0018	0.165
Mof_H 	H 	0.6985	0.5935	0.0698	0.171
Mof_C 	C 	0.5992	0.723	0.0486	0.238
Mof_C 	C 	0.7065	0.504	0.2421	0.201
Mof_C 	C 	0.6117	0.507	0.2407	-0.312
Mof_H 	H 	0.5886	0.4161	0.239	0.137
Mof_H 	H 	0.5752	0.5584	0.2041	0.144
Mof_C 	C 	0.9787	0.2085	0.1509	0.225
Mof_C 	C 	0.9662	0.203	0.0793	-0.39
Mof_H 	H 	0.9615	0.2942	0.0623	0.166
Mof_H 	H 	0.9129	0.1563	0.0567	0.168
Mof_C 	C 	0.0399	0.1312	0.0665	0.222
Mof_C 	C 	0.1152	0.5591	0.0735	0.214
Mof_C 	C 	0.17	0.499	0.0393	-0.39
Mof_H 	H 	0.1373	0.4313	0.0089	0.163
Mof_H 	H 	0.2188	0.4544	0.0706	0.156
Mof_C 	C 	0.2025	0.605	0.0027	0.2
Mof_Cd	Cd	0.89827	0.52975	0.1468	0.389
Mof_Cd	Cd	0.63575	0.03919	0.01339	0.39
Mof_Cd	Cd	0.02903	0.88936	0.16435	0.4
Mof_Cd	Cd	0.24119	0.82973	0.12005	0.375
Mof_N 	N 	0.8394	0.7375	0.1054	-0.136
Mof_N 	N 	0.8803	0.8533	0.1199	-0.065
Mof_N 	N 	0.8298	0.9551	0.0997	-0.046
Mof_N 	N 	0.7504	0.9089	0.07	-0.132
Mof_N 	N 	0.5627	0.8422	0.0283	-0.135
Mof_N 	N 	0.4827	0.8312	0.0345	-0.075
Mof_N 	N 	0.475	0.705	0.0566	-0.042
Mof_N 	N 	0.5468	0.646	0.0655	-0.113
Mof_N 	N 	0.8113	0.4965	0.2102	-0.067
Mof_N 	N 	0.8264	0.4211	0.2607	-0.063
Mof_N 	N 	0.7612	0.424	0.2816	-0.135
Mof_N 	N 	0.7323	0.549	0.1948	-0.109
Mof_N 	N 	0.0151	0.5806	0.1127	-0.071
Mof_N 	N 	0.0622	0.6869	0.1288	-0.072
Mof_N 	N 	0.1261	0.678	0.1046	-0.136
Mof_N 	N 	0.0446	0.4979	0.0778	-0.115
Mof_N 	N 	0.1948	0.5903	0.9407	-0.143
Mof_N 	N 	0.2337	0.7051	0.9269	-0.05
Mof_N 	N 	0.2649	0.7743	0.9795	-0.069
Mof_N 	N 	0.2472	0.7146	0.0292	-0.138
Mof_N 	N 	0.0125	0.1562	0.2503	-0.06
Mof_N 	N 	0.0071	0.109	0.1922	-0.133
Mof_N 	N 	0.987	0.2812	0.2441	-0.067
Mof_N 	N 	0.9651	0.3185	0.1818	-0.13
Mof_N 	N 	0.0817	0.1872	0.0311	-0.113
Mof_N 	N 	0.1452	0.0943	0.0347	-0.046
Mof_N 	N 	0.1358	0.9892	0.0688	-0.07
Mof_N 	N 	0.07	0.0082	0.0893	-0.132
Mof_N 	N 	0.6314	0.9614	0.9151	-0.077
Mof_N 	N 	0.5961	0.8303	0.8982	-0.053
Mof_N 	N 	0.5905	0.8042	0.8331	-0.093
Mof_C 	C 	0.6224	0.919	0.8098	0.154
Mof_N 	N 	0.6476	0.0163	0.8605	-0.118
Mof_C 	C 	0.7565	0.726	0.5746	0.224
Mof_C 	C 	0.6839	0.821	0.5467	-0.407
Mof_H 	H 	0.6783	0.8384	0.5018	0.165
Mof_H 	H 	0.6985	0.9065	0.5698	0.171
Mof_C 	C 	0.5992	0.777	0.5486	0.238
Mof_C 	C 	0.7065	0.996	0.7421	0.201
Mof_C 	C 	0.6117	0.993	0.7407	-0.313
Mof_H 	H 	0.5886	0.0839	0.739	0.137
Mof_H 	H 	0.5752	0.9416	0.7041	0.144
Mof_C 	C 	0.9787	0.2915	0.6509	0.226
Mof_C 	C 	0.9662	0.297	0.5793	-0.389
Mof_H 	H 	0.9615	0.2058	0.5623	0.166
Mof_H 	H 	0.9129	0.3437	0.5567	0.168
Mof_C 	C 	0.0399	0.3688	0.5665	0.222
Mof_C 	C 	0.1152	0.9409	0.5735	0.211
Mof_C 	C 	0.17	0.001	0.5393	-0.385
Mof_H 	H 	0.1373	0.0687	0.5089	0.162
Mof_H 	H 	0.2188	0.0456	0.5706	0.155
Mof_C 	C 	0.2025	0.895	0.5027	0.198
Mof_Cd	Cd	0.89827	0.97025	0.6468	0.39
Mof_Cd	Cd	0.63575	0.46081	0.51339	0.392
Mof_Cd	Cd	0.02903	0.61064	0.66435	0.4
Mof_Cd	Cd	0.24119	0.67027	0.62005	0.375
Mof_N 	N 	0.8394	0.7625	0.6054	-0.136
Mof_N 	N 	0.8803	0.6467	0.6199	-0.066
Mof_N 	N 	0.8298	0.5449	0.5997	-0.046
Mof_N 	N 	0.7504	0.5911	0.57	-0.133
Mof_N 	N 	0.5627	0.6578	0.5283	-0.136
Mof_N 	N 	0.4827	0.6688	0.5345	-0.075
Mof_N 	N 	0.475	0.795	0.5566	-0.042
Mof_N 	N 	0.5468	0.854	0.5655	-0.113
Mof_N 	N 	0.8113	0.0035	0.7102	-0.068
Mof_N 	N 	0.8264	0.0789	0.7607	-0.063
Mof_N 	N 	0.7612	0.076	0.7816	-0.135
Mof_N 	N 	0.7323	0.951	0.6948	-0.109
Mof_N 	N 	0.0151	0.9194	0.6127	-0.072
Mof_N 	N 	0.0622	0.8131	0.6288	-0.072
Mof_N 	N 	0.1261	0.822	0.6046	-0.135
Mof_N 	N 	0.0446	0.0021	0.5778	-0.113
Mof_N 	N 	0.1948	0.9097	0.4407	-0.142
Mof_N 	N 	0.2337	0.7949	0.4269	-0.05
Mof_N 	N 	0.2649	0.7257	0.4795	-0.068
Mof_N 	N 	0.2472	0.7854	0.5292	-0.138
Mof_N 	N 	0.0125	0.3438	0.7503	-0.06
Mof_N 	N 	0.0071	0.391	0.6922	-0.133
Mof_N 	N 	0.987	0.2188	0.7441	-0.067
Mof_N 	N 	0.9651	0.1815	0.6818	-0.13
Mof_N 	N 	0.0817	0.3128	0.5311	-0.113
Mof_N 	N 	0.1452	0.4057	0.5347	-0.046
Mof_N 	N 	0.1358	0.5108	0.5688	-0.07
Mof_N 	N 	0.07	0.4918	0.5893	-0.133
Mof_N 	N 	0.3686	0.4614	0.5849	-0.077
Mof_N 	N 	0.4039	0.3303	0.6018	-0.053
Mof_N 	N 	0.4095	0.3042	0.6669	-0.093
Mof_C 	C 	0.3776	0.419	0.6902	0.154
Mof_N 	N 	0.3524	0.5163	0.6395	-0.118
Mof_C 	C 	0.2435	0.226	0.9254	0.224
Mof_C 	C 	0.3161	0.321	0.9533	-0.407
Mof_H 	H 	0.3217	0.3384	0.9982	0.165
Mof_H 	H 	0.3015	0.4065	0.9302	0.171
Mof_C 	C 	0.4008	0.277	0.9514	0.238
Mof_C 	C 	0.2935	0.496	0.7579	0.201
Mof_C 	C 	0.3883	0.493	0.7593	-0.312
Mof_H 	H 	0.4114	0.5839	0.761	0.137
Mof_H 	H 	0.4248	0.4416	0.7959	0.144
Mof_C 	C 	0.0213	0.7915	0.8491	0.225
Mof_C 	C 	0.0338	0.797	0.9207	-0.39
Mof_H 	H 	0.0385	0.7058	0.9377	0.166
Mof_H 	H 	0.0871	0.8437	0.9433	0.168
Mof_C 	C 	0.9601	0.8688	0.9335	0.222
Mof_C 	C 	0.8848	0.4409	0.9265	0.214
Mof_C 	C 	0.83	0.501	0.9607	-0.39
Mof_H 	H 	0.8627	0.5687	0.9911	0.163
Mof_H 	H 	0.7812	0.5456	0.9294	0.156
Mof_C 	C 	0.7975	0.395	0.9973	0.2
Mof_Cd	Cd	0.10173	0.47025	0.8532	0.389
Mof_Cd	Cd	0.36425	0.96081	0.98661	0.39
Mof_Cd	Cd	0.97097	0.11064	0.83565	0.4
Mof_Cd	Cd	0.75881	0.17027	0.87995	0.375
Mof_N 	N 	0.1606	0.2625	0.8946	-0.136
Mof_N 	N 	0.1197	0.1467	0.8801	-0.065
Mof_N 	N 	0.1702	0.0449	0.9003	-0.046
Mof_N 	N 	0.2496	0.0911	0.93	-0.132
Mof_N 	N 	0.4373	0.1578	0.9717	-0.135
Mof_N 	N 	0.5173	0.1688	0.9655	-0.075
Mof_N 	N 	0.525	0.295	0.9434	-0.042
Mof_N 	N 	0.4532	0.354	0.9345	-0.113
Mof_N 	N 	0.1887	0.5035	0.7898	-0.067
Mof_N 	N 	0.1736	0.5789	0.7393	-0.063
Mof_N 	N 	0.2388	0.576	0.7184	-0.135
Mof_N 	N 	0.2677	0.451	0.8052	-0.109
Mof_N 	N 	0.9849	0.4194	0.8873	-0.071
Mof_N 	N 	0.9378	0.3131	0.8712	-0.072
Mof_N 	N 	0.8739	0.322	0.8954	-0.136
Mof_N 	N 	0.9554	0.5021	0.9222	-0.115
Mof_N 	N 	0.8052	0.4097	0.0593	-0.143
Mof_N 	N 	0.7663	0.2949	0.0731	-0.05
Mof_N 	N 	0.7351	0.2257	0.0205	-0.069
Mof_N 	N 	0.7528	0.2854	0.9708	-0.138
Mof_N 	N 	0.9875	0.8438	0.7497	-0.06
Mof_N 	N 	0.9929	0.891	0.8078	-0.133
Mof_N 	N 	0.013	0.7188	0.7559	-0.067
Mof_N 	N 	0.0349	0.6815	0.8182	-0.13
Mof_N 	N 	0.9183	0.8128	0.9689	-0.113
Mof_N 	N 	0.8548	0.9057	0.9653	-0.046
Mof_N 	N 	0.8642	0.0108	0.9312	-0.07
Mof_N 	N 	0.93	0.9918	0.9107	-0.132
_end
