# CIF file generated by openbabel 3.1.0, see https://openbabel.org
data_I
_chemical_name_common 'image0'
_cell_length_a 14.615
_cell_length_b 16.585
_cell_length_c 20.559
_cell_angle_alpha 99.33
_cell_angle_beta 107.46
_cell_angle_gamma 100.74
_space_group_name_H-M_alt 'P 1'
_space_group_name_Hall 'P 1'
loop_
    _symmetry_equiv_pos_as_xyz
    x,y,z
loop_
    _atom_site_label
    _atom_site_type_symbol
    _atom_site_fract_x
    _atom_site_fract_y
    _atom_site_fract_z
    _atom_site_occupancy
    Mn1      Mn       0.06038    0.22073    0.23775    1.000
    Mn2      Mn       0.14861    0.06266    0.18266    1.000
    Mn3      Mn       0.00992    0.39337    0.34370    1.000
    O1       O        0.98410    0.24640    0.31060    1.000
    O2       O        0.94850    0.10370    0.17870    1.000
    O3       O        0.23990    0.03880    0.12600    1.000
    O4       O        0.14560    0.13700    0.28454    1.000
    O5       O        0.92210    0.86680    0.96110    1.000
    O6       O        0.98410    0.29210    0.17700    1.000
    O7       O        0.12990    0.95540    0.02620    1.000
    O8       O        0.86940    0.81870    0.84680    1.000
    O9       O        0.83650    0.59480    0.62560    1.000
    O10      O        0.99390    0.01150    0.11237    1.000
    O11      O        0.80760    0.67920    0.70850    1.000
    O12      O        0.99510    0.30870    0.41630    1.000
    O13      O        0.29080    0.12980    0.27890    1.000
    O14      O        0.59510    0.07620    0.15200    1.000
    C1       C        0.62670    0.89310    0.04490    1.000
    O15      O        0.50220    0.77560    0.97210    1.000
    C2       C        0.38110    0.25620    0.40800    1.000
    H1       H        0.42210    0.24780    0.38070    1.000
    C3       C        0.29780    0.95140    0.05310    1.000
    C4       C        0.82470    0.98580    0.10390    1.000
    C5       C        0.65140    0.97230    0.09290    1.000
    C6       C        0.41940    0.31440    0.47270    1.000
    C7       C        0.98370    0.24250    0.37270    1.000
    O16      O        0.00730    0.42150    0.24430    1.000
    C8       C        0.68170    0.55730    0.63900    1.000
    C9       C        0.39430    0.99350    0.08830    1.000
    H2       H        0.41020    0.04520    0.12190    1.000
    C10      C        0.97290    0.15880    0.39090    1.000
    C11      C        0.88820    0.80860    0.90850    1.000
    C12      C        0.80140    0.90880    0.06080    1.000
    H3       H        0.85160    0.88620    0.05000    1.000
    C13      C        0.92980    0.04010    0.13540    1.000
    C14      C        0.47100    0.96010    0.07460    1.000
    C15      C        0.74920    0.01800    0.12110    1.000
    H4       H        0.76620    0.07150    0.15250    1.000
    C16      C        0.55500    0.43630    0.55980    1.000
    C17      C        0.21720    0.98500    0.06910    1.000
    C18      C        0.57430    0.00880    0.10930    1.000
    C19      C        0.44400    0.88250    0.02780    1.000
    C20      C        0.34760    0.83870    0.99310    1.000
    H5       H        0.33120    0.78550    0.96130    1.000
    C21      C        0.70150    0.86230    0.03200    1.000
    H6       H        0.68570    0.80760    0.00250    1.000
    C22      C        0.52490    0.84530    0.01430    1.000
    O17      O        0.57550    0.35370    0.46320    1.000
    C23      C        0.28220    0.21020    0.38370    1.000
    C24      C        0.65010    0.48910    0.57960    1.000
    H7       H        0.69260    0.47950    0.55360    1.000
    C25      C        0.78230    0.61420    0.65990    1.000
    C26      C        0.90020    0.70070    0.98050    1.000
    H8       H        0.93660    0.74380    0.02160    1.000
    C27      C        0.90860    0.50300    0.05500    1.000
    C28      C        0.27350    0.87560    0.00640    1.000
    H9       H        0.20580    0.84730    0.98240    1.000
    C29      C        0.22690    0.22070    0.42310    1.000
    H10      H        0.15970    0.18910    0.40520    1.000
    C30      C        0.36030    0.32600    0.51330    1.000
    C31      C        0.24070    0.15620    0.31280    1.000
    C32      C        0.52320    0.36820    0.49810    1.000
    C33      C        0.94300    0.39770    0.12080    1.000
    C34      C        0.81210    0.65670    0.85860    1.000
    H11      H        0.78680    0.67090    0.81490    1.000
    C35      C        0.86550    0.72060    0.91660    1.000
    C36      C        0.94450    0.08580    0.33850    1.000
    H12      H        0.92740    0.08820    0.29060    1.000
    C37      C        0.82910    0.55100    0.92550    1.000
    C38      C        0.98380    0.36870    0.18690    1.000
    C39      C        0.49750    0.44500    0.60130    1.000
    C40      C        0.88030    0.61370    0.98380    1.000
    C41      C        0.89550    0.33490    0.05770    1.000
    H13      H        0.89380    0.27730    0.05740    1.000
    C42      C        0.85830    0.43980    0.99460    1.000
    C43      C        0.79320    0.57250    0.86060    1.000
    H14      H        0.75670    0.53000    0.81910    1.000
    C44      C        0.00070    0.15590    0.46170    1.000
    H15      H        0.02170    0.20670    0.49700    1.000
    C45      C        0.39700    0.39030    0.57990    1.000
    C46      C        0.95120    0.48080    0.11960    1.000
    H16      H        0.98490    0.52340    0.16150    1.000
    O18      O        0.34700    0.39690    0.61900    1.000
    C47      C        0.62160    0.56610    0.67750    1.000
    H17      H        0.64370    0.61120    0.71800    1.000
    C48      C        0.96820    0.00490    0.42710    1.000
    C49      C        0.52970    0.51200    0.65990    1.000
    H18      H        0.48890    0.52030    0.68740    1.000
    C50      C        0.91640    0.59380    0.05240    1.000
    C51      C        0.99750    0.07980    0.48010    1.000
    O19      O        0.95590    0.64860    0.10760    1.000
    C52      C        0.94180    0.00850    0.35780    1.000
    H19      H        0.92130    0.95780    0.32250    1.000
    C53      C        0.26090    0.27630    0.49060    1.000
    H20      H        0.22010    0.28000    0.51870    1.000
    O20      O        0.94160    0.85690    0.39900    1.000
    C54      C        0.85250    0.35760    0.99800    1.000
    H21      H        0.81680    0.31470    0.95660    1.000
    C55      C        0.96690    0.92280    0.44630    1.000
    O21      O        0.76420    0.40590    0.87370    1.000
    C56      C        0.81690    0.46110    0.92710    1.000
    Mn4      Mn       0.93962    0.77927    0.76225    1.000
    Mn5      Mn       0.85139    0.93734    0.81734    1.000
    Mn6      Mn       0.99008    0.60663    0.65630    1.000
    O22      O        0.01590    0.75360    0.68940    1.000
    O23      O        0.05150    0.89630    0.82130    1.000
    O24      O        0.76010    0.96120    0.87400    1.000
    O25      O        0.85440    0.86300    0.71546    1.000
    O26      O        0.07790    0.13320    0.03890    1.000
    O27      O        0.01590    0.70790    0.82300    1.000
    O28      O        0.87010    0.04460    0.97380    1.000
    O29      O        0.13060    0.18130    0.15320    1.000
    O30      O        0.16350    0.40520    0.37440    1.000
    O31      O        0.00610    0.98850    0.88763    1.000
    O32      O        0.19240    0.32080    0.29150    1.000
    O33      O        0.00490    0.69130    0.58370    1.000
    O34      O        0.70920    0.87020    0.72110    1.000
    O35      O        0.40490    0.92380    0.84800    1.000
    C57      C        0.37330    0.10690    0.95510    1.000
    O36      O        0.49780    0.22440    0.02790    1.000
    C58      C        0.61890    0.74380    0.59200    1.000
    H22      H        0.57790    0.75220    0.61930    1.000
    C59      C        0.70220    0.04860    0.94690    1.000
    C60      C        0.17530    0.01420    0.89610    1.000
    C61      C        0.34860    0.02770    0.90710    1.000
    C62      C        0.58060    0.68560    0.52730    1.000
    C63      C        0.01630    0.75750    0.62730    1.000
    O37      O        0.99270    0.57850    0.75570    1.000
    C64      C        0.31830    0.44270    0.36100    1.000
    C65      C        0.60570    0.00650    0.91170    1.000
    H23      H        0.58980    0.95480    0.87810    1.000
    C66      C        0.02710    0.84120    0.60910    1.000
    C67      C        0.11180    0.19140    0.09150    1.000
    C68      C        0.19860    0.09120    0.93920    1.000
    H24      H        0.14840    0.11380    0.95000    1.000
    C69      C        0.07020    0.95990    0.86460    1.000
    C70      C        0.52900    0.03990    0.92540    1.000
    C71      C        0.25080    0.98200    0.87890    1.000
    H25      H        0.23380    0.92850    0.84750    1.000
    C72      C        0.44500    0.56370    0.44020    1.000
    C73      C        0.78280    0.01500    0.93090    1.000
    C74      C        0.42570    0.99120    0.89070    1.000
    C75      C        0.55600    0.11750    0.97220    1.000
    C76      C        0.65240    0.16130    0.00690    1.000
    H26      H        0.66880    0.21450    0.03870    1.000
    C77      C        0.29850    0.13770    0.96800    1.000
    H27      H        0.31430    0.19240    0.99750    1.000
    C78      C        0.47510    0.15470    0.98570    1.000
    O38      O        0.42450    0.64630    0.53680    1.000
    C79      C        0.71780    0.78980    0.61630    1.000
    C80      C        0.34990    0.51090    0.42040    1.000
    H28      H        0.30740    0.52050    0.44640    1.000
    C81      C        0.21770    0.38580    0.34010    1.000
    C82      C        0.09980    0.29930    0.01950    1.000
    H29      H        0.06340    0.25620    0.97840    1.000
    C83      C        0.09140    0.49700    0.94500    1.000
    C84      C        0.72650    0.12440    0.99360    1.000
    H30      H        0.79420    0.15270    0.01760    1.000
    C85      C        0.77310    0.77930    0.57690    1.000
    H31      H        0.84030    0.81090    0.59480    1.000
    C86      C        0.63970    0.67400    0.48670    1.000
    C87      C        0.75930    0.84380    0.68720    1.000
    C88      C        0.47680    0.63180    0.50190    1.000
    C89      C        0.05700    0.60230    0.87920    1.000
    C90      C        0.18790    0.34330    0.14140    1.000
    H32      H        0.21320    0.32910    0.18510    1.000
    C91      C        0.13450    0.27940    0.08340    1.000
    C92      C        0.05550    0.91420    0.66150    1.000
    H33      H        0.07260    0.91180    0.70940    1.000
    C93      C        0.17090    0.44900    0.07450    1.000
    C94      C        0.01620    0.63130    0.81310    1.000
    C95      C        0.50250    0.55500    0.39870    1.000
    C96      C        0.11970    0.38630    0.01620    1.000
    C97      C        0.10450    0.66510    0.94230    1.000
    H34      H        0.10620    0.72270    0.94260    1.000
    C98      C        0.14170    0.56020    0.00540    1.000
    C99      C        0.20680    0.42750    0.13940    1.000
    H35      H        0.24330    0.47000    0.18090    1.000
    C100     C        0.99930    0.84410    0.53830    1.000
    H36      H        0.97830    0.79330    0.50300    1.000
    C101     C        0.60300    0.60970    0.42010    1.000
    C102     C        0.04880    0.51920    0.88040    1.000
    H37      H        0.01510    0.47660    0.83850    1.000
    O39      O        0.65300    0.60310    0.38100    1.000
    C103     C        0.37840    0.43390    0.32250    1.000
    H38      H        0.35630    0.38880    0.28200    1.000
    C104     C        0.03180    0.99510    0.57290    1.000
    C105     C        0.47030    0.48800    0.34010    1.000
    H39      H        0.51110    0.47970    0.31260    1.000
    C106     C        0.08360    0.40620    0.94760    1.000
    C107     C        0.00250    0.92020    0.51990    1.000
    O40      O        0.04410    0.35140    0.89240    1.000
    C108     C        0.05820    0.99150    0.64220    1.000
    H40      H        0.07870    0.04220    0.67750    1.000
    C109     C        0.73910    0.72370    0.50940    1.000
    H41      H        0.77990    0.72000    0.48130    1.000
    O41      O        0.05840    0.14310    0.60100    1.000
    C110     C        0.14750    0.64240    0.00200    1.000
    H42      H        0.18320    0.68530    0.04340    1.000
    C111     C        0.03310    0.07720    0.55370    1.000
    O42      O        0.23580    0.59410    0.12630    1.000
    C112     C        0.18310    0.53890    0.07290    1.000
    Mn7      Mn       0.00000    0.00000    0.00000    1.000
