data_functionalizedCrystal
_audit_creation_method	'EQeq! by Chris Wilmer'
_symmetry_space_group_name_H-M	'P1'
_symmetry_Int_Tables_number	1
_symmetry_cell_setting	triclinic
loop_
_symmetry_equiv_pos_as_xyz
  x,y,z
_cell_length_a	10.1959
_cell_length_b	11.7856
_cell_length_c	14.9224
_cell_angle_alpha	91.8559
_cell_angle_beta	90
_cell_angle_gamma	90
loop_
_atom_site_label
_atom_site_type_symbol
_atom_site_fract_x
_atom_site_fract_y
_atom_site_fract_z
_atom_site_charge
Mof_Mn	Mn	0.06693	0.01017	0.43727	1.037
Mof_Mn	Mn	0.37925	0.00971	0.38115	1.004
Mof_Mn	Mn	0.45846	0.25526	0.25221	1.055
Mof_Mn	Mn	0.54323	0.49648	0.11876	1.025
Mof_Mn	Mn	0.85653	0.48743	0.06444	1.019
Mof_Mn	Mn	0.45996	0.75494	0.24799	1.056
Mof_Mn	Mn	0.56693	0.98983	0.56273	1.036
Mof_Mn	Mn	0.87925	0.99029	0.61885	0.983
Mof_Mn	Mn	0.95846	0.74474	0.74779	1.025
Mof_Mn	Mn	0.04323	0.50352	0.88124	1.045
Mof_Mn	Mn	0.35653	0.51257	0.93556	1.03
Mof_Mn	Mn	0.95996	0.24506	0.75201	1.049
Mof_H 	H 	0.2173	0.0983	0.6196	-0.132
Mof_H 	H 	0.0824	0.8179	0.2885	-0.11
Mof_H 	H 	0.0033	0.2662	0.4909	-0.105
Mof_H 	H 	0.1624	0.2535	0.2771	-0.108
Mof_H 	H 	0.6089	0.9528	0.174	-0.114
Mof_H 	H 	0.168	0.7851	0.5274	-0.131
Mof_H 	H 	0.7429	0.2493	0.2258	-0.127
Mof_H 	H 	0.3072	0.5583	0.3239	-0.117
Mof_H 	H 	0.2508	0.2959	0.032	-0.142
Mof_H 	H 	0.7066	0.3957	0.8857	-0.127
Mof_H 	H 	0.8361	0.6933	0.2087	-0.136
Mof_H 	H 	0.4327	0.7709	0.9866	-0.123
Mof_H 	H 	0.7173	0.9017	0.3804	-0.135
Mof_H 	H 	0.5824	0.1821	0.7115	-0.117
Mof_H 	H 	0.5033	0.7338	0.5091	-0.12
Mof_H 	H 	0.6624	0.7465	0.7229	-0.109
Mof_H 	H 	0.1089	0.0472	0.826	-0.108
Mof_H 	H 	0.668	0.2149	0.4726	-0.136
Mof_H 	H 	0.2429	0.7507	0.7742	-0.123
Mof_H 	H 	0.8072	0.4417	0.6761	-0.119
Mof_H 	H 	0.7508	0.7041	0.968	-0.144
Mof_H 	H 	0.2066	0.6043	0.1143	-0.127
Mof_H 	H 	0.3361	0.3067	0.7913	-0.13
Mof_H 	H 	0.9327	0.2291	0.0134	-0.127
Mof_C 	C 	0.2855	0.0728	0.5829	0.534
Mof_C 	C 	0.1713	0.8327	0.2968	0.51
Mof_C 	C 	0.9796	0.2274	0.5417	0.487
Mof_C 	C 	0.1799	0.1909	0.3116	0.5
Mof_C 	C 	0.5541	0.9944	0.2127	0.506
Mof_C 	C 	0.1009	0.8062	0.5666	0.518
Mof_C 	C 	0.7301	0.3128	0.1915	0.54
Mof_C 	C 	0.3605	0.5141	0.286	0.526
Mof_C 	C 	0.3179	0.3154	0.0718	0.548
Mof_C 	C 	0.6383	0.4251	0.9206	0.514
Mof_C 	C 	0.7477	0.6763	0.2003	0.555
Mof_C 	C 	0.4494	0.7326	0.0389	0.532
Mof_C 	C 	0.7855	0.9272	0.4171	0.537
Mof_C 	C 	0.6713	0.1673	0.7032	0.51
Mof_C 	C 	0.4796	0.7726	0.4583	0.511
Mof_C 	C 	0.6799	0.8091	0.6884	0.5
Mof_C 	C 	0.0541	0.0056	0.7873	0.495
Mof_C 	C 	0.6009	0.1938	0.4334	0.524
Mof_C 	C 	0.2301	0.6872	0.8085	0.537
Mof_C 	C 	0.8605	0.4859	0.714	0.526
Mof_C 	C 	0.8179	0.6846	0.9282	0.548
Mof_C 	C 	0.1383	0.5749	0.0794	0.515
Mof_C 	C 	0.2477	0.3237	0.7997	0.554
Mof_C 	C 	0.9494	0.2674	0.9611	0.536
Mof_O 	O 	0.2576	0.0538	0.4997	-0.496
Mof_O 	O 	0.3915	0.061	0.6186	-0.428
Mof_O 	O 	0.2019	0.9077	0.3551	-0.497
Mof_O 	O 	0.2511	0.7759	0.2486	-0.399
Mof_O 	O 	0.968	0.1197	0.5349	-0.488
Mof_O 	O 	0.9607	0.2836	0.6133	-0.407
Mof_O 	O 	0.0861	0.1467	0.3487	-0.413
Mof_O 	O 	0.3015	0.158	0.3165	-0.486
Mof_O 	O 	0.4853	0.9405	0.268	-0.496
Mof_O 	O 	0.5526	0.1014	0.207	-0.407
Mof_O 	O 	0.0418	0.8985	0.5522	-0.484
Mof_O 	O 	0.0765	0.7414	0.6291	-0.403
Mof_O 	O 	0.6168	0.3503	0.1877	-0.52
Mof_O 	O 	0.8299	0.3527	0.1536	-0.419
Mof_O 	O 	0.3598	0.4127	0.2966	-0.42
Mof_O 	O 	0.4285	0.5672	0.2271	-0.492
Mof_O 	O 	0.3357	0.252	0.1338	-0.426
Mof_O 	O 	0.3817	0.4052	0.056	-0.507
Mof_O 	O 	0.6615	0.4458	0.0026	-0.496
Mof_O 	O 	0.5296	0.4412	0.8822	-0.412
Mof_O 	O 	0.7214	0.5955	0.143	-0.512
Mof_O 	O 	0.6717	0.7321	0.244	-0.437
Mof_O 	O 	0.4588	0.6241	0.0311	-0.497
Mof_O 	O 	0.4599	0.791	0.1074	-0.423
Mof_O 	O 	0.7576	0.9462	0.5003	-0.497
Mof_O 	O 	0.8915	0.939	0.3814	-0.44
Mof_O 	O 	0.7019	0.0923	0.6449	-0.498
Mof_O 	O 	0.7511	0.2241	0.7514	-0.4
Mof_O 	O 	0.468	0.8803	0.4651	-0.493
Mof_O 	O 	0.4607	0.7164	0.3867	-0.411
Mof_O 	O 	0.5861	0.8533	0.6513	-0.415
Mof_O 	O 	0.8015	0.842	0.6835	-0.486
Mof_O 	O 	0.9853	0.0595	0.732	-0.492
Mof_O 	O 	0.0526	0.8986	0.793	-0.387
Mof_O 	O 	0.5418	0.1015	0.4478	-0.5
Mof_O 	O 	0.5765	0.2586	0.3709	-0.416
Mof_O 	O 	0.1168	0.6497	0.8123	-0.512
Mof_O 	O 	0.3299	0.6473	0.8464	-0.416
Mof_O 	O 	0.8598	0.5873	0.7034	-0.422
Mof_O 	O 	0.9285	0.4328	0.7729	-0.499
Mof_O 	O 	0.8357	0.748	0.8662	-0.429
Mof_O 	O 	0.8817	0.5948	0.944	-0.514
Mof_O 	O 	0.1615	0.5542	0.9974	-0.496
Mof_O 	O 	0.0296	0.5588	0.1178	-0.402
Mof_O 	O 	0.2214	0.4045	0.857	-0.51
Mof_O 	O 	0.1717	0.2679	0.756	-0.43
Mof_O 	O 	0.9588	0.3759	0.9689	-0.504
Mof_O 	O 	0.9599	0.209	0.8926	-0.426
_end
