# CIF file generated by openbabel 3.1.0, see https://openbabel.org
data_I
_chemical_name_common 'NUVWEH_clean'
_cell_length_a 13.4418
_cell_length_b 13.4418
_cell_length_c 13.4418
_cell_angle_alpha 94.7747
_cell_angle_beta 117.283
_cell_angle_gamma 117.283
_space_group_name_H-M_alt 'P 1'
_space_group_name_Hall 'P 1'
loop_
    _symmetry_equiv_pos_as_xyz
    x,y,z
loop_
    _atom_site_label
    _atom_site_type_symbol
    _atom_site_fract_x
    _atom_site_fract_y
    _atom_site_fract_z
    _atom_site_occupancy
    La1      La       0.73600    0.87500    0.11100    1.000
    La2      La       0.26400    0.37500    0.13900    1.000
    La3      La       0.76400    0.88900    0.62500    1.000
    La4      La       0.23600    0.86100    0.12500    1.000
    H1       H        0.11490    0.93280    0.35910    1.000
    H2       H        0.10390    0.00210    0.44980    1.000
    H3       H        0.54770    0.96960    0.81250    1.000
    H4       H        0.47590    0.83170    0.74480    1.000
    H5       H        0.88510    0.24420    0.81790    1.000
    H6       H        0.89610    0.34590    0.89820    1.000
    H7       H        0.45230    0.26480    0.42190    1.000
    H8       H        0.52410    0.26890    0.35580    1.000
    H9       H        0.57370    0.64090    0.75580    1.000
    H10      H        0.55230    0.55020    0.65410    1.000
    H11      H        0.15710    0.18750    0.73520    1.000
    H12      H        0.08690    0.25520    0.73110    1.000
    H13      H        0.42630    0.18210    0.06720    1.000
    H14      H        0.44770    0.10180    0.99790    1.000
    H15      H        0.84290    0.57810    0.03040    1.000
    H16      H        0.91310    0.64420    0.16830    1.000
    H17      H        0.07370    0.50580    0.89090    1.000
    H18      H        0.05230    0.40410    0.80020    1.000
    H19      H        0.65710    0.48520    0.43750    1.000
    H20      H        0.58690    0.48110    0.50520    1.000
    H21      H        0.92630    0.81720    0.43210    1.000
    H22      H        0.94770    0.74790    0.35180    1.000
    H23      H        0.34290    0.78040    0.82810    1.000
    H24      H        0.41310    0.91830    0.89420    1.000
    H25      H        0.38510    0.56790    0.49420    1.000
    H26      H        0.39610    0.64820    0.59590    1.000
    H27      H        0.95230    0.17190    0.51480    1.000
    H28      H        0.02410    0.10580    0.51890    1.000
    H29      H        0.61490    0.10910    0.18280    1.000
    H30      H        0.60390    0.19980    0.25210    1.000
    H31      H        0.04770    0.56250    0.21960    1.000
    H32      H        0.97590    0.49480    0.08170    1.000
    C1       C        0.08310    0.06180    0.30970    1.000
    C2       C        0.06690    0.96660    0.36530    1.000
    C3       C        0.68330    0.92450    0.84260    1.000
    C4       C        0.55110    0.89990    0.81980    1.000
    C5       C        0.91690    0.22660    0.97870    1.000
    C6       C        0.93310    0.29840    0.89970    1.000
    C7       C        0.31670    0.15930    0.24120    1.000
    C8       C        0.44890    0.26870    0.34880    1.000
    C9       C        0.75210    0.69030    0.77340    1.000
    C10      C        0.60130    0.63470    0.70160    1.000
    C11      C        0.08190    0.15740    0.84070    1.000
    C12      C        0.08010    0.18020    0.73130    1.000
    C13      C        0.24790    0.02130    0.93820    1.000
    C14      C        0.39870    0.10030    0.03340    1.000
    C15      C        0.91810    0.75880    0.07550    1.000
    C16      C        0.91990    0.65120    0.10010    1.000
    C17      C        0.25210    0.52340    0.94030    1.000
    C18      C        0.10130    0.45160    0.88470    1.000
    C19      C        0.58190    0.59070    0.40740    1.000
    C20      C        0.58010    0.48130    0.43020    1.000
    C21      C        0.74790    0.68820    0.27130    1.000
    C22      C        0.89870    0.78340    0.35030    1.000
    C23      C        0.41810    0.82550    0.00880    1.000
    C24      C        0.41990    0.85010    0.90120    1.000
    C25      C        0.41690    0.72870    0.47660    1.000
    C26      C        0.43310    0.64970    0.54840    1.000
    C27      C        0.81670    0.99120    0.40930    1.000
    C28      C        0.94890    0.09880    0.51870    1.000
    C29      C        0.58310    0.05970    0.31180    1.000
    C30      C        0.56690    0.11530    0.21660    1.000
    C31      C        0.18330    0.59260    0.17450    1.000
    C32      C        0.05110    0.56980    0.14990    1.000
    O1       O        0.19070    0.16110    0.37200    1.000
    O2       O        0.98740    0.02990    0.20290    1.000
    O3       O        0.75930    0.92130    0.94020    1.000
    O4       O        0.70390    0.94460    0.76430    1.000
    O5       O        0.80930    0.18130    0.97040    1.000
    O6       O        0.01260    0.21550    0.04250    1.000
    O7       O        0.24070    0.18090    0.16200    1.000
    O8       O        0.29610    0.06040    0.24070    1.000
    O9       O        0.78910    0.62800    0.81870    1.000
    O10      O        0.82700    0.79710    0.78450    1.000
    O11      O        0.98110    0.05980    0.81910    1.000
    O12      O        0.18030    0.23570    0.93960    1.000
    O13      O        0.21090    0.02960    0.83890    1.000
    O14      O        0.17300    0.95750    0.97010    1.000
    O15      O        0.01890    0.83800    0.07870    1.000
    O16      O        0.81970    0.75930    0.05540    1.000
    O17      O        0.28910    0.56870    0.87800    1.000
    O18      O        0.32700    0.53450    0.04710    1.000
    O19      O        0.48110    0.56910    0.30980    1.000
    O20      O        0.68030    0.68960    0.48570    1.000
    O21      O        0.71090    0.58890    0.27960    1.000
    O22      O        0.67300    0.72010    0.20750    1.000
    O23      O        0.51890    0.82870    0.08800    1.000
    O24      O        0.31970    0.80540    0.00930    1.000
    O25      O        0.30930    0.72040    0.43130    1.000
    O26      O        0.51260    0.79250    0.46550    1.000
    O27      O        0.74070    0.91200    0.43090    1.000
    O28      O        0.79610    0.99070    0.31040    1.000
    O29      O        0.69070    0.12200    0.41110    1.000
    O30      O        0.48740    0.95290    0.27990    1.000
    O31      O        0.25930    0.69020    0.17130    1.000
    O32      O        0.20390    0.51430    0.19460    1.000
    O33      O        0.92790    0.87500    0.30290    1.000
    O34      O        0.54020    0.87500    0.91520    1.000
    O35      O        0.07210    0.37500    0.94710    1.000
    O36      O        0.45980    0.37500    0.33480    1.000
    O37      O        0.57210    0.69710    0.62500    1.000
    O38      O        0.95980    0.08480    0.62500    1.000
    O39      O        0.42790    0.05290    0.12500    1.000
    O40      O        0.04020    0.66520    0.12500    1.000
