data_functionalizedCrystal
_audit_creation_method	'EQeq! by Chris Wilmer'
_symmetry_space_group_name_H-M	'P1'
_symmetry_Int_Tables_number	1
_symmetry_cell_setting	triclinic
loop_
_symmetry_equiv_pos_as_xyz
  x,y,z
_cell_length_a	14.6615
_cell_length_b	14.6615
_cell_length_c	9.6146
_cell_angle_alpha	90
_cell_angle_beta	90
_cell_angle_gamma	90
loop_
_atom_site_label
_atom_site_type_symbol
_atom_site_fract_x
_atom_site_fract_y
_atom_site_fract_z
_atom_site_charge
Mof_Al	Al	0.5076	0.136	0.3999	3.304
Mof_P 	P 	0.5112	0.1478	0.0642	1.062
Mof_O 	O 	0.5452	0.1359	0.2097	-1.119
Mof_O 	O 	0.4261	0.0949	0.0347	-1.122
Mof_O 	O 	0.4987	0.2471	0.0238	-1.051
Mof_O 	O 	0.5859	0.1156	0.9696	-1.001
Mof_Al	Al	0.9924	0.364	0.3999	3.222
Mof_P 	P 	0.9888	0.3522	0.0642	0.991
Mof_O 	O 	0.9548	0.3641	0.2097	-1.104
Mof_O 	O 	0.0739	0.4051	0.0347	-1.135
Mof_O 	O 	0.0013	0.2529	0.0238	-0.954
Mof_O 	O 	0.9141	0.3844	0.9696	-1.002
Mof_Al	Al	0.364	0.5076	0.3999	3.305
Mof_P 	P 	0.3522	0.5112	0.0642	1.066
Mof_O 	O 	0.3641	0.5452	0.2097	-1.127
Mof_O 	O 	0.4051	0.4261	0.0347	-1.168
Mof_O 	O 	0.2529	0.4987	0.0238	-1.052
Mof_O 	O 	0.3844	0.5859	0.9696	-1.023
Mof_Al	Al	0.136	0.9924	0.3999	3.136
Mof_P 	P 	0.1478	0.9888	0.0642	0.954
Mof_O 	O 	0.1359	0.9548	0.2097	-1.082
Mof_O 	O 	0.0949	0.0739	0.0347	-1.045
Mof_O 	O 	0.2471	0.0013	0.0238	-0.963
Mof_O 	O 	0.1156	0.9141	0.9696	-0.967
Mof_Al	Al	0.9924	0.136	0.1001	3.064
Mof_P 	P 	0.9888	0.1478	0.4358	0.988
Mof_O 	O 	0.9548	0.1359	0.2903	-1.077
Mof_O 	O 	0.0739	0.0949	0.4653	-1.081
Mof_O 	O 	0.0013	0.2471	0.4762	-0.998
Mof_O 	O 	0.9141	0.1156	0.5304	-0.983
Mof_Al	Al	0.5076	0.364	0.1001	3.305
Mof_P 	P 	0.5112	0.3522	0.4358	1.066
Mof_O 	O 	0.5452	0.3641	0.2903	-1.127
Mof_O 	O 	0.4261	0.4051	0.4653	-1.169
Mof_O 	O 	0.4987	0.2529	0.4762	-1.055
Mof_O 	O 	0.5859	0.3844	0.5304	-1.019
Mof_Al	Al	0.136	0.5076	0.1001	3.297
Mof_P 	P 	0.1478	0.5112	0.4358	1.058
Mof_O 	O 	0.1359	0.5452	0.2903	-1.121
Mof_O 	O 	0.0949	0.4261	0.4653	-1.145
Mof_O 	O 	0.2471	0.4987	0.4762	-1.054
Mof_O 	O 	0.1156	0.5859	0.5304	-1.003
Mof_Al	Al	0.364	0.9924	0.1001	3.154
Mof_P 	P 	0.3522	0.9888	0.4358	1.027
Mof_O 	O 	0.3641	0.9548	0.2903	-1.096
Mof_O 	O 	0.4051	0.0739	0.4653	-1.15
Mof_O 	O 	0.2529	0.0013	0.4762	-0.989
Mof_O 	O 	0.3844	0.9141	0.5304	-1.013
Mof_Al	Al	0.4924	0.864	0.6001	3.303
Mof_P 	P 	0.4888	0.8522	0.9358	1.061
Mof_O 	O 	0.4548	0.8641	0.7903	-1.12
Mof_O 	O 	0.5739	0.9051	0.9653	-1.123
Mof_O 	O 	0.5013	0.7529	0.9762	-1.052
Mof_O 	O 	0.4141	0.8844	0.0304	-1.002
Mof_Al	Al	0.0076	0.636	0.6001	3.221
Mof_P 	P 	0.0112	0.6478	0.9358	0.99
Mof_O 	O 	0.0452	0.6359	0.7903	-1.104
Mof_O 	O 	0.9261	0.5949	0.9653	-1.135
Mof_O 	O 	0.9987	0.7471	0.9762	-0.954
Mof_O 	O 	0.0859	0.6156	0.0304	-1.002
Mof_Al	Al	0.636	0.4924	0.6001	3.305
Mof_P 	P 	0.6478	0.4888	0.9358	1.066
Mof_O 	O 	0.6359	0.4548	0.7903	-1.127
Mof_O 	O 	0.5949	0.5739	0.9653	-1.168
Mof_O 	O 	0.7471	0.5013	0.9762	-1.052
Mof_O 	O 	0.6156	0.4141	0.0304	-1.023
Mof_Al	Al	0.864	0.0076	0.6001	3.136
Mof_P 	P 	0.8522	0.0112	0.9358	0.954
Mof_O 	O 	0.8641	0.0452	0.7903	-1.082
Mof_O 	O 	0.9051	0.9261	0.9653	-1.045
Mof_O 	O 	0.7529	0.9987	0.9762	-0.963
Mof_O 	O 	0.8844	0.0859	0.0304	-0.967
Mof_Al	Al	0.0076	0.864	0.8999	3.064
Mof_P 	P 	0.0112	0.8522	0.5642	0.988
Mof_O 	O 	0.0452	0.8641	0.7097	-1.077
Mof_O 	O 	0.9261	0.9051	0.5347	-1.081
Mof_O 	O 	0.9987	0.7529	0.5238	-0.998
Mof_O 	O 	0.0859	0.8844	0.4696	-0.983
Mof_Al	Al	0.4924	0.636	0.8999	3.305
Mof_P 	P 	0.4888	0.6478	0.5642	1.066
Mof_O 	O 	0.4548	0.6359	0.7097	-1.127
Mof_O 	O 	0.5739	0.5949	0.5347	-1.169
Mof_O 	O 	0.5013	0.7471	0.5238	-1.055
Mof_O 	O 	0.4141	0.6156	0.4696	-1.019
Mof_Al	Al	0.864	0.4924	0.8999	3.297
Mof_P 	P 	0.8522	0.4888	0.5642	1.058
Mof_O 	O 	0.8641	0.4548	0.7097	-1.121
Mof_O 	O 	0.9051	0.5739	0.5347	-1.145
Mof_O 	O 	0.7529	0.5013	0.5238	-1.054
Mof_O 	O 	0.8844	0.4141	0.4696	-1.003
Mof_Al	Al	0.636	0.0076	0.8999	3.154
Mof_P 	P 	0.6478	0.0112	0.5642	1.027
Mof_O 	O 	0.6359	0.0452	0.7097	-1.096
Mof_O 	O 	0.5949	0.9261	0.5347	-1.15
Mof_O 	O 	0.7471	0.9987	0.5238	-0.989
Mof_O 	O 	0.6156	0.0859	0.4696	-1.013
_end
