# CIF file generated by openbabel 3.1.0, see https://openbabel.org
data_I
_chemical_name_common 'image0'
_cell_length_a 31.251
_cell_length_b 31.251
_cell_length_c 31.251
_cell_angle_alpha 90
_cell_angle_beta 90
_cell_angle_gamma 90
_space_group_name_H-M_alt 'P 1'
_space_group_name_Hall 'P 1'
loop_
    _symmetry_equiv_pos_as_xyz
    x,y,z
loop_
    _atom_site_label
    _atom_site_type_symbol
    _atom_site_fract_x
    _atom_site_fract_y
    _atom_site_fract_z
    _atom_site_occupancy
    N1       N        0.33462    0.61375    0.29859    1.000
    N2       N        0.44593    0.57048    0.22146    1.000
    N3       N        0.29777    0.75901    0.32997    1.000
    N4       N        0.33125    0.83200    0.44621    1.000
    C1       C        0.34415    0.57935    0.29133    1.000
    C2       C        0.42140    0.54906    0.23794    1.000
    C3       C        0.28377    0.79108    0.34019    1.000
    C4       C        0.30618    0.84184    0.42137    1.000
    C5       C        0.35595    0.53621    0.28273    1.000
    C6       C        0.39108    0.52226    0.25901    1.000
    C7       C        0.26577    0.83056    0.35280    1.000
    C8       C        0.27563    0.85359    0.38993    1.000
    N5       N        0.66538    0.38625    0.29859    1.000
    N6       N        0.55407    0.42952    0.22146    1.000
    N7       N        0.70223    0.24099    0.32997    1.000
    N8       N        0.66875    0.16800    0.44621    1.000
    C9       C        0.65585    0.42065    0.29133    1.000
    C10      C        0.57860    0.45094    0.23794    1.000
    C11      C        0.71623    0.20892    0.34019    1.000
    C12      C        0.69382    0.15816    0.42137    1.000
    C13      C        0.64405    0.46379    0.28273    1.000
    C14      C        0.60892    0.47774    0.25901    1.000
    C15      C        0.73423    0.16944    0.35280    1.000
    C16      C        0.72437    0.14641    0.38993    1.000
    N9       N        0.66538    0.61375    0.70141    1.000
    N10      N        0.55407    0.57048    0.77854    1.000
    N11      N        0.70223    0.75901    0.67003    1.000
    N12      N        0.66875    0.83200    0.55379    1.000
    C17      C        0.65585    0.57935    0.70867    1.000
    C18      C        0.57860    0.54906    0.76206    1.000
    C19      C        0.71623    0.79108    0.65981    1.000
    C20      C        0.69382    0.84184    0.57863    1.000
    C21      C        0.64405    0.53621    0.71727    1.000
    C22      C        0.60892    0.52226    0.74099    1.000
    C23      C        0.73423    0.83056    0.64720    1.000
    C24      C        0.72437    0.85359    0.61007    1.000
    N13      N        0.33462    0.38625    0.70141    1.000
    N14      N        0.44593    0.42952    0.77854    1.000
    N15      N        0.29777    0.24099    0.67003    1.000
    N16      N        0.33125    0.16800    0.55379    1.000
    C25      C        0.34415    0.42065    0.70867    1.000
    C26      C        0.42140    0.45094    0.76206    1.000
    C27      C        0.28377    0.20892    0.65981    1.000
    C28      C        0.30618    0.15816    0.57863    1.000
    C29      C        0.35595    0.46379    0.71727    1.000
    C30      C        0.39108    0.47774    0.74099    1.000
    C31      C        0.26577    0.16944    0.64720    1.000
    C32      C        0.27563    0.14641    0.61007    1.000
    N17      N        0.29859    0.33462    0.61375    1.000
    N18      N        0.22146    0.44593    0.57048    1.000
    N19      N        0.32997    0.29777    0.75901    1.000
    N20      N        0.44621    0.33125    0.83200    1.000
    C33      C        0.29133    0.34415    0.57935    1.000
    C34      C        0.23794    0.42140    0.54906    1.000
    C35      C        0.34019    0.28377    0.79108    1.000
    C36      C        0.42137    0.30618    0.84184    1.000
    C37      C        0.28273    0.35595    0.53621    1.000
    C38      C        0.25901    0.39108    0.52226    1.000
    C39      C        0.35280    0.26577    0.83056    1.000
    C40      C        0.38993    0.27563    0.85359    1.000
    N21      N        0.29859    0.66538    0.38625    1.000
    N22      N        0.22146    0.55407    0.42952    1.000
    N23      N        0.32997    0.70223    0.24099    1.000
    N24      N        0.44621    0.66875    0.16800    1.000
    C41      C        0.29133    0.65585    0.42065    1.000
    C42      C        0.23794    0.57860    0.45094    1.000
    C43      C        0.34019    0.71623    0.20892    1.000
    C44      C        0.42137    0.69382    0.15816    1.000
    C45      C        0.28273    0.64405    0.46379    1.000
    C46      C        0.25901    0.60892    0.47774    1.000
    C47      C        0.35280    0.73423    0.16944    1.000
    C48      C        0.38993    0.72437    0.14641    1.000
    N25      N        0.70141    0.66538    0.61375    1.000
    N26      N        0.77854    0.55407    0.57048    1.000
    N27      N        0.67003    0.70223    0.75901    1.000
    N28      N        0.55379    0.66875    0.83200    1.000
    C49      C        0.70867    0.65585    0.57935    1.000
    C50      C        0.76206    0.57860    0.54906    1.000
    C51      C        0.65981    0.71623    0.79108    1.000
    C52      C        0.57863    0.69382    0.84184    1.000
    C53      C        0.71727    0.64405    0.53621    1.000
    C54      C        0.74099    0.60892    0.52226    1.000
    C55      C        0.64720    0.73423    0.83056    1.000
    C56      C        0.61007    0.72437    0.85359    1.000
    N29      N        0.70141    0.33462    0.38625    1.000
    N30      N        0.77854    0.44593    0.42952    1.000
    N31      N        0.67003    0.29777    0.24099    1.000
    N32      N        0.55379    0.33125    0.16800    1.000
    C57      C        0.70867    0.34415    0.42065    1.000
    C58      C        0.76206    0.42140    0.45094    1.000
    C59      C        0.65981    0.28377    0.20892    1.000
    C60      C        0.57863    0.30618    0.15816    1.000
    C61      C        0.71727    0.35595    0.46379    1.000
    C62      C        0.74099    0.39108    0.47774    1.000
    C63      C        0.64720    0.26577    0.16944    1.000
    C64      C        0.61007    0.27563    0.14641    1.000
    N33      N        0.61375    0.29859    0.33462    1.000
    N34      N        0.57048    0.22146    0.44593    1.000
    N35      N        0.75901    0.32997    0.29777    1.000
    N36      N        0.83200    0.44621    0.33125    1.000
    C65      C        0.57935    0.29133    0.34415    1.000
    C66      C        0.54906    0.23794    0.42140    1.000
    C67      C        0.79108    0.34019    0.28377    1.000
    C68      C        0.84184    0.42137    0.30618    1.000
    C69      C        0.53621    0.28273    0.35595    1.000
    C70      C        0.52226    0.25901    0.39108    1.000
    C71      C        0.83056    0.35280    0.26577    1.000
    C72      C        0.85359    0.38993    0.27563    1.000
    N37      N        0.38625    0.29859    0.66538    1.000
    N38      N        0.42952    0.22146    0.55407    1.000
    N39      N        0.24099    0.32997    0.70223    1.000
    N40      N        0.16800    0.44621    0.66875    1.000
    C73      C        0.42065    0.29133    0.65585    1.000
    C74      C        0.45094    0.23794    0.57860    1.000
    C75      C        0.20892    0.34019    0.71623    1.000
    C76      C        0.15816    0.42137    0.69382    1.000
    C77      C        0.46379    0.28273    0.64405    1.000
    C78      C        0.47774    0.25901    0.60892    1.000
    C79      C        0.16944    0.35280    0.73423    1.000
    C80      C        0.14641    0.38993    0.72437    1.000
    N41      N        0.61375    0.70141    0.66538    1.000
    N42      N        0.57048    0.77854    0.55407    1.000
    N43      N        0.75901    0.67003    0.70223    1.000
    N44      N        0.83200    0.55379    0.66875    1.000
    C81      C        0.57935    0.70867    0.65585    1.000
    C82      C        0.54906    0.76206    0.57860    1.000
    C83      C        0.79108    0.65981    0.71623    1.000
    C84      C        0.84184    0.57863    0.69382    1.000
    C85      C        0.53621    0.71727    0.64405    1.000
    C86      C        0.52226    0.74099    0.60892    1.000
    C87      C        0.83056    0.64720    0.73423    1.000
    C88      C        0.85359    0.61007    0.72437    1.000
    N45      N        0.38625    0.70141    0.33462    1.000
    N46      N        0.42952    0.77854    0.44593    1.000
    N47      N        0.24099    0.67003    0.29777    1.000
    N48      N        0.16800    0.55379    0.33125    1.000
    C89      C        0.42065    0.70867    0.34415    1.000
    C90      C        0.45094    0.76206    0.42140    1.000
    C91      C        0.20892    0.65981    0.28377    1.000
    C92      C        0.15816    0.57863    0.30618    1.000
    C93      C        0.46379    0.71727    0.35595    1.000
    C94      C        0.47774    0.74099    0.39108    1.000
    C95      C        0.16944    0.64720    0.26577    1.000
    C96      C        0.14641    0.61007    0.27563    1.000
    N49      N        0.11375    0.83462    0.20141    1.000
    N50      N        0.07048    0.94593    0.27854    1.000
    N51      N        0.25901    0.79777    0.17003    1.000
    N52      N        0.33200    0.83125    0.05379    1.000
    C97      C        0.07935    0.84415    0.20867    1.000
    C98      C        0.04906    0.92140    0.26206    1.000
    C99      C        0.29108    0.78377    0.15981    1.000
    C100     C        0.34184    0.80618    0.07863    1.000
    C101     C        0.03621    0.85595    0.21727    1.000
    C102     C        0.02226    0.89108    0.24099    1.000
    C103     C        0.33056    0.76577    0.14720    1.000
    C104     C        0.35359    0.77563    0.11007    1.000
    N53      N        0.88625    0.16538    0.20141    1.000
    N54      N        0.92952    0.05407    0.27854    1.000
    N55      N        0.74099    0.20223    0.17003    1.000
    N56      N        0.66800    0.16875    0.05379    1.000
    C105     C        0.92065    0.15585    0.20867    1.000
    C106     C        0.95094    0.07860    0.26206    1.000
    C107     C        0.70892    0.21623    0.15981    1.000
    C108     C        0.65816    0.19382    0.07863    1.000
    C109     C        0.96379    0.14405    0.21727    1.000
    C110     C        0.97774    0.10892    0.24099    1.000
    C111     C        0.66944    0.23423    0.14720    1.000
    C112     C        0.64641    0.22437    0.11007    1.000
    N57      N        0.11375    0.16538    0.79859    1.000
    N58      N        0.07048    0.05407    0.72146    1.000
    N59      N        0.25901    0.20223    0.82997    1.000
    N60      N        0.33200    0.16875    0.94621    1.000
    C113     C        0.07935    0.15585    0.79133    1.000
    C114     C        0.04906    0.07860    0.73794    1.000
    C115     C        0.29108    0.21623    0.84019    1.000
    C116     C        0.34184    0.19382    0.92137    1.000
    C117     C        0.03621    0.14405    0.78273    1.000
    C118     C        0.02226    0.10892    0.75901    1.000
    C119     C        0.33056    0.23423    0.85280    1.000
    C120     C        0.35359    0.22437    0.88993    1.000
    N61      N        0.88625    0.83462    0.79859    1.000
    N62      N        0.92952    0.94593    0.72146    1.000
    N63      N        0.74099    0.79777    0.82997    1.000
    N64      N        0.66800    0.83125    0.94621    1.000
    C121     C        0.92065    0.84415    0.79133    1.000
    C122     C        0.95094    0.92140    0.73794    1.000
    C123     C        0.70892    0.78377    0.84019    1.000
    C124     C        0.65816    0.80618    0.92137    1.000
    C125     C        0.96379    0.85595    0.78273    1.000
    C126     C        0.97774    0.89108    0.75901    1.000
    C127     C        0.66944    0.76577    0.85280    1.000
    C128     C        0.64641    0.77563    0.88993    1.000
    N65      N        0.83462    0.79859    0.88625    1.000
    N66      N        0.94593    0.72146    0.92952    1.000
    N67      N        0.79777    0.82997    0.74099    1.000
    N68      N        0.83125    0.94621    0.66800    1.000
    C129     C        0.84415    0.79133    0.92065    1.000
    C130     C        0.92140    0.73794    0.95094    1.000
    C131     C        0.78377    0.84019    0.70892    1.000
    C132     C        0.80618    0.92137    0.65816    1.000
    C133     C        0.85595    0.78273    0.96379    1.000
    C134     C        0.89108    0.75901    0.97774    1.000
    C135     C        0.76577    0.85280    0.66944    1.000
    C136     C        0.77563    0.88993    0.64641    1.000
    N69      N        0.16538    0.79859    0.11375    1.000
    N70      N        0.05407    0.72146    0.07048    1.000
    N71      N        0.20223    0.82997    0.25901    1.000
    N72      N        0.16875    0.94621    0.33200    1.000
    C137     C        0.15585    0.79133    0.07935    1.000
    C138     C        0.07860    0.73794    0.04906    1.000
    C139     C        0.21623    0.84019    0.29108    1.000
    C140     C        0.19382    0.92137    0.34184    1.000
    C141     C        0.14405    0.78273    0.03621    1.000
    C142     C        0.10892    0.75901    0.02226    1.000
    C143     C        0.23423    0.85280    0.33056    1.000
    C144     C        0.22437    0.88993    0.35359    1.000
    N73      N        0.16538    0.20141    0.88625    1.000
    N74      N        0.05407    0.27854    0.92952    1.000
    N75      N        0.20223    0.17003    0.74099    1.000
    N76      N        0.16875    0.05379    0.66800    1.000
    C145     C        0.15585    0.20867    0.92065    1.000
    C146     C        0.07860    0.26206    0.95094    1.000
    C147     C        0.21623    0.15981    0.70892    1.000
    C148     C        0.19382    0.07863    0.65816    1.000
    C149     C        0.14405    0.21727    0.96379    1.000
    C150     C        0.10892    0.24099    0.97774    1.000
    C151     C        0.23423    0.14720    0.66944    1.000
    C152     C        0.22437    0.11007    0.64641    1.000
    N77      N        0.83462    0.20141    0.11375    1.000
    N78      N        0.94593    0.27854    0.07048    1.000
    N79      N        0.79777    0.17003    0.25901    1.000
    N80      N        0.83125    0.05379    0.33200    1.000
    C153     C        0.84415    0.20867    0.07935    1.000
    C154     C        0.92140    0.26206    0.04906    1.000
    C155     C        0.78377    0.15981    0.29108    1.000
    C156     C        0.80618    0.07863    0.34184    1.000
    C157     C        0.85595    0.21727    0.03621    1.000
    C158     C        0.89108    0.24099    0.02226    1.000
    C159     C        0.76577    0.14720    0.33056    1.000
    C160     C        0.77563    0.11007    0.35359    1.000
    N81      N        0.79859    0.11375    0.16538    1.000
    N82      N        0.72146    0.07048    0.05407    1.000
    N83      N        0.82997    0.25901    0.20223    1.000
    N84      N        0.94621    0.33200    0.16875    1.000
    C161     C        0.79133    0.07935    0.15585    1.000
    C162     C        0.73794    0.04906    0.07860    1.000
    C163     C        0.84019    0.29108    0.21623    1.000
    C164     C        0.92137    0.34184    0.19382    1.000
    C165     C        0.78273    0.03621    0.14405    1.000
    C166     C        0.75901    0.02226    0.10892    1.000
    C167     C        0.85280    0.33056    0.23423    1.000
    C168     C        0.88993    0.35359    0.22437    1.000
    N85      N        0.79859    0.88625    0.83462    1.000
    N86      N        0.72146    0.92952    0.94593    1.000
    N87      N        0.82997    0.74099    0.79777    1.000
    N88      N        0.94621    0.66800    0.83125    1.000
    C169     C        0.79133    0.92065    0.84415    1.000
    C170     C        0.73794    0.95094    0.92140    1.000
    C171     C        0.84019    0.70892    0.78377    1.000
    C172     C        0.92137    0.65816    0.80618    1.000
    C173     C        0.78273    0.96379    0.85595    1.000
    C174     C        0.75901    0.97774    0.89108    1.000
    C175     C        0.85280    0.66944    0.76577    1.000
    C176     C        0.88993    0.64641    0.77563    1.000
    N89      N        0.20141    0.11375    0.83462    1.000
    N90      N        0.27854    0.07048    0.94593    1.000
    N91      N        0.17003    0.25901    0.79777    1.000
    N92      N        0.05379    0.33200    0.83125    1.000
    C177     C        0.20867    0.07935    0.84415    1.000
    C178     C        0.26206    0.04906    0.92140    1.000
    C179     C        0.15981    0.29108    0.78377    1.000
    C180     C        0.07863    0.34184    0.80618    1.000
    C181     C        0.21727    0.03621    0.85595    1.000
    C182     C        0.24099    0.02226    0.89108    1.000
    C183     C        0.14720    0.33056    0.76577    1.000
    C184     C        0.11007    0.35359    0.77563    1.000
    N93      N        0.20141    0.88625    0.16538    1.000
    N94      N        0.27854    0.92952    0.05407    1.000
    N95      N        0.17003    0.74099    0.20223    1.000
    N96      N        0.05379    0.66800    0.16875    1.000
    C185     C        0.20867    0.92065    0.15585    1.000
    C186     C        0.26206    0.95094    0.07860    1.000
    C187     C        0.15981    0.70892    0.21623    1.000
    C188     C        0.07863    0.65816    0.19382    1.000
    C189     C        0.21727    0.96379    0.14405    1.000
    C190     C        0.24099    0.97774    0.10892    1.000
    C191     C        0.14720    0.66944    0.23423    1.000
    C192     C        0.11007    0.64641    0.22437    1.000
    N97      N        0.66538    0.38625    0.70141    1.000
    N98      N        0.55407    0.42952    0.77854    1.000
    N99      N        0.70223    0.24099    0.67003    1.000
    N100     N        0.66875    0.16800    0.55379    1.000
    C193     C        0.65585    0.42065    0.70867    1.000
    C194     C        0.57860    0.45094    0.76206    1.000
    C195     C        0.71623    0.20892    0.65981    1.000
    C196     C        0.69382    0.15816    0.57863    1.000
    C197     C        0.64405    0.46379    0.71727    1.000
    C198     C        0.60892    0.47774    0.74099    1.000
    C199     C        0.73423    0.16944    0.64720    1.000
    C200     C        0.72437    0.14641    0.61007    1.000
    N101     N        0.33462    0.61375    0.70141    1.000
    N102     N        0.44593    0.57048    0.77854    1.000
    N103     N        0.29777    0.75901    0.67003    1.000
    N104     N        0.33125    0.83200    0.55379    1.000
    C201     C        0.34415    0.57935    0.70867    1.000
    C202     C        0.42140    0.54906    0.76206    1.000
    C203     C        0.28377    0.79108    0.65981    1.000
    C204     C        0.30618    0.84184    0.57863    1.000
    C205     C        0.35595    0.53621    0.71727    1.000
    C206     C        0.39108    0.52226    0.74099    1.000
    C207     C        0.26577    0.83056    0.64720    1.000
    C208     C        0.27563    0.85359    0.61007    1.000
    N105     N        0.33462    0.38625    0.29859    1.000
    N106     N        0.44593    0.42952    0.22146    1.000
    N107     N        0.29777    0.24099    0.32997    1.000
    N108     N        0.33125    0.16800    0.44621    1.000
    C209     C        0.34415    0.42065    0.29133    1.000
    C210     C        0.42140    0.45094    0.23794    1.000
    C211     C        0.28377    0.20892    0.34019    1.000
    C212     C        0.30618    0.15816    0.42137    1.000
    C213     C        0.35595    0.46379    0.28273    1.000
    C214     C        0.39108    0.47774    0.25901    1.000
    C215     C        0.26577    0.16944    0.35280    1.000
    C216     C        0.27563    0.14641    0.38993    1.000
    N109     N        0.66538    0.61375    0.29859    1.000
    N110     N        0.55407    0.57048    0.22146    1.000
    N111     N        0.70223    0.75901    0.32997    1.000
    N112     N        0.66875    0.83200    0.44621    1.000
    C217     C        0.65585    0.57935    0.29133    1.000
    C218     C        0.57860    0.54906    0.23794    1.000
    C219     C        0.71623    0.79108    0.34019    1.000
    C220     C        0.69382    0.84184    0.42137    1.000
    C221     C        0.64405    0.53621    0.28273    1.000
    C222     C        0.60892    0.52226    0.25901    1.000
    C223     C        0.73423    0.83056    0.35280    1.000
    C224     C        0.72437    0.85359    0.38993    1.000
    N113     N        0.70141    0.66538    0.38625    1.000
    N114     N        0.77854    0.55407    0.42952    1.000
    N115     N        0.67003    0.70223    0.24099    1.000
    N116     N        0.55379    0.66875    0.16800    1.000
    C225     C        0.70867    0.65585    0.42065    1.000
    C226     C        0.76206    0.57860    0.45094    1.000
    C227     C        0.65981    0.71623    0.20892    1.000
    C228     C        0.57863    0.69382    0.15816    1.000
    C229     C        0.71727    0.64405    0.46379    1.000
    C230     C        0.74099    0.60892    0.47774    1.000
    C231     C        0.64720    0.73423    0.16944    1.000
    C232     C        0.61007    0.72437    0.14641    1.000
    N117     N        0.70141    0.33462    0.61375    1.000
    N118     N        0.77854    0.44593    0.57048    1.000
    N119     N        0.67003    0.29777    0.75901    1.000
    N120     N        0.55379    0.33125    0.83200    1.000
    C233     C        0.70867    0.34415    0.57935    1.000
    C234     C        0.76206    0.42140    0.54906    1.000
    C235     C        0.65981    0.28377    0.79108    1.000
    C236     C        0.57863    0.30618    0.84184    1.000
    C237     C        0.71727    0.35595    0.53621    1.000
    C238     C        0.74099    0.39108    0.52226    1.000
    C239     C        0.64720    0.26577    0.83056    1.000
    C240     C        0.61007    0.27563    0.85359    1.000
    N121     N        0.29859    0.33462    0.38625    1.000
    N122     N        0.22146    0.44593    0.42952    1.000
    N123     N        0.32997    0.29777    0.24099    1.000
    N124     N        0.44621    0.33125    0.16800    1.000
    C241     C        0.29133    0.34415    0.42065    1.000
    C242     C        0.23794    0.42140    0.45094    1.000
    C243     C        0.34019    0.28377    0.20892    1.000
    C244     C        0.42137    0.30618    0.15816    1.000
    C245     C        0.28273    0.35595    0.46379    1.000
    C246     C        0.25901    0.39108    0.47774    1.000
    C247     C        0.35280    0.26577    0.16944    1.000
    C248     C        0.38993    0.27563    0.14641    1.000
    N125     N        0.29859    0.66538    0.61375    1.000
    N126     N        0.22146    0.55407    0.57048    1.000
    N127     N        0.32997    0.70223    0.75901    1.000
    N128     N        0.44621    0.66875    0.83200    1.000
    C249     C        0.29133    0.65585    0.57935    1.000
    C250     C        0.23794    0.57860    0.54906    1.000
    C251     C        0.34019    0.71623    0.79108    1.000
    C252     C        0.42137    0.69382    0.84184    1.000
    C253     C        0.28273    0.64405    0.53621    1.000
    C254     C        0.25901    0.60892    0.52226    1.000
    C255     C        0.35280    0.73423    0.83056    1.000
    C256     C        0.38993    0.72437    0.85359    1.000
    N129     N        0.38625    0.70141    0.66538    1.000
    N130     N        0.42952    0.77854    0.55407    1.000
    N131     N        0.24099    0.67003    0.70223    1.000
    N132     N        0.16800    0.55379    0.66875    1.000
    C257     C        0.42065    0.70867    0.65585    1.000
    C258     C        0.45094    0.76206    0.57860    1.000
    C259     C        0.20892    0.65981    0.71623    1.000
    C260     C        0.15816    0.57863    0.69382    1.000
    C261     C        0.46379    0.71727    0.64405    1.000
    C262     C        0.47774    0.74099    0.60892    1.000
    C263     C        0.16944    0.64720    0.73423    1.000
    C264     C        0.14641    0.61007    0.72437    1.000
    N133     N        0.61375    0.70141    0.33462    1.000
    N134     N        0.57048    0.77854    0.44593    1.000
    N135     N        0.75901    0.67003    0.29777    1.000
    N136     N        0.83200    0.55379    0.33125    1.000
    C265     C        0.57935    0.70867    0.34415    1.000
    C266     C        0.54906    0.76206    0.42140    1.000
    C267     C        0.79108    0.65981    0.28377    1.000
    C268     C        0.84184    0.57863    0.30618    1.000
    C269     C        0.53621    0.71727    0.35595    1.000
    C270     C        0.52226    0.74099    0.39108    1.000
    C271     C        0.83056    0.64720    0.26577    1.000
    C272     C        0.85359    0.61007    0.27563    1.000
    N137     N        0.38625    0.29859    0.33462    1.000
    N138     N        0.42952    0.22146    0.44593    1.000
    N139     N        0.24099    0.32997    0.29777    1.000
    N140     N        0.16800    0.44621    0.33125    1.000
    C273     C        0.42065    0.29133    0.34415    1.000
    C274     C        0.45094    0.23794    0.42140    1.000
    C275     C        0.20892    0.34019    0.28377    1.000
    C276     C        0.15816    0.42137    0.30618    1.000
    C277     C        0.46379    0.28273    0.35595    1.000
    C278     C        0.47774    0.25901    0.39108    1.000
    C279     C        0.16944    0.35280    0.26577    1.000
    C280     C        0.14641    0.38993    0.27563    1.000
    N141     N        0.61375    0.29859    0.66538    1.000
    N142     N        0.57048    0.22146    0.55407    1.000
    N143     N        0.75901    0.32997    0.70223    1.000
    N144     N        0.83200    0.44621    0.66875    1.000
    C281     C        0.57935    0.29133    0.65585    1.000
    C282     C        0.54906    0.23794    0.57860    1.000
    C283     C        0.79108    0.34019    0.71623    1.000
    C284     C        0.84184    0.42137    0.69382    1.000
    C285     C        0.53621    0.28273    0.64405    1.000
    C286     C        0.52226    0.25901    0.60892    1.000
    C287     C        0.83056    0.35280    0.73423    1.000
    C288     C        0.85359    0.38993    0.72437    1.000
    N145     N        0.88625    0.16538    0.79859    1.000
    N146     N        0.92952    0.05407    0.72146    1.000
    N147     N        0.74099    0.20223    0.82997    1.000
    N148     N        0.66800    0.16875    0.94621    1.000
    C289     C        0.92065    0.15585    0.79133    1.000
    C290     C        0.95094    0.07860    0.73794    1.000
    C291     C        0.70892    0.21623    0.84019    1.000
    C292     C        0.65816    0.19382    0.92137    1.000
    C293     C        0.96379    0.14405    0.78273    1.000
    C294     C        0.97774    0.10892    0.75901    1.000
    C295     C        0.66944    0.23423    0.85280    1.000
    C296     C        0.64641    0.22437    0.88993    1.000
    N149     N        0.11375    0.83462    0.79859    1.000
    N150     N        0.07048    0.94593    0.72146    1.000
    N151     N        0.25901    0.79777    0.82997    1.000
    N152     N        0.33200    0.83125    0.94621    1.000
    C297     C        0.07935    0.84415    0.79133    1.000
    C298     C        0.04906    0.92140    0.73794    1.000
    C299     C        0.29108    0.78377    0.84019    1.000
    C300     C        0.34184    0.80618    0.92137    1.000
    C301     C        0.03621    0.85595    0.78273    1.000
    C302     C        0.02226    0.89108    0.75901    1.000
    C303     C        0.33056    0.76577    0.85280    1.000
    C304     C        0.35359    0.77563    0.88993    1.000
    N153     N        0.88625    0.83462    0.20141    1.000
    N154     N        0.92952    0.94593    0.27854    1.000
    N155     N        0.74099    0.79777    0.17003    1.000
    N156     N        0.66800    0.83125    0.05379    1.000
    C305     C        0.92065    0.84415    0.20867    1.000
    C306     C        0.95094    0.92140    0.26206    1.000
    C307     C        0.70892    0.78377    0.15981    1.000
    C308     C        0.65816    0.80618    0.07863    1.000
    C309     C        0.96379    0.85595    0.21727    1.000
    C310     C        0.97774    0.89108    0.24099    1.000
    C311     C        0.66944    0.76577    0.14720    1.000
    C312     C        0.64641    0.77563    0.11007    1.000
    N157     N        0.11375    0.16538    0.20141    1.000
    N158     N        0.07048    0.05407    0.27854    1.000
    N159     N        0.25901    0.20223    0.17003    1.000
    N160     N        0.33200    0.16875    0.05379    1.000
    C313     C        0.07935    0.15585    0.20867    1.000
    C314     C        0.04906    0.07860    0.26206    1.000
    C315     C        0.29108    0.21623    0.15981    1.000
    C316     C        0.34184    0.19382    0.07863    1.000
    C317     C        0.03621    0.14405    0.21727    1.000
    C318     C        0.02226    0.10892    0.24099    1.000
    C319     C        0.33056    0.23423    0.14720    1.000
    C320     C        0.35359    0.22437    0.11007    1.000
    N161     N        0.16538    0.20141    0.11375    1.000
    N162     N        0.05407    0.27854    0.07048    1.000
    N163     N        0.20223    0.17003    0.25901    1.000
    N164     N        0.16875    0.05379    0.33200    1.000
    C321     C        0.15585    0.20867    0.07935    1.000
    C322     C        0.07860    0.26206    0.04906    1.000
    C323     C        0.21623    0.15981    0.29108    1.000
    C324     C        0.19382    0.07863    0.34184    1.000
    C325     C        0.14405    0.21727    0.03621    1.000
    C326     C        0.10892    0.24099    0.02226    1.000
    C327     C        0.23423    0.14720    0.33056    1.000
    C328     C        0.22437    0.11007    0.35359    1.000
    N165     N        0.83462    0.20141    0.88625    1.000
    N166     N        0.94593    0.27854    0.92952    1.000
    N167     N        0.79777    0.17003    0.74099    1.000
    N168     N        0.83125    0.05379    0.66800    1.000
    C329     C        0.84415    0.20867    0.92065    1.000
    C330     C        0.92140    0.26206    0.95094    1.000
    C331     C        0.78377    0.15981    0.70892    1.000
    C332     C        0.80618    0.07863    0.65816    1.000
    C333     C        0.85595    0.21727    0.96379    1.000
    C334     C        0.89108    0.24099    0.97774    1.000
    C335     C        0.76577    0.14720    0.66944    1.000
    C336     C        0.77563    0.11007    0.64641    1.000
    N169     N        0.83462    0.79859    0.11375    1.000
    N170     N        0.94593    0.72146    0.07048    1.000
    N171     N        0.79777    0.82997    0.25901    1.000
    N172     N        0.83125    0.94621    0.33200    1.000
    C337     C        0.84415    0.79133    0.07935    1.000
    C338     C        0.92140    0.73794    0.04906    1.000
    C339     C        0.78377    0.84019    0.29108    1.000
    C340     C        0.80618    0.92137    0.34184    1.000
    C341     C        0.85595    0.78273    0.03621    1.000
    C342     C        0.89108    0.75901    0.02226    1.000
    C343     C        0.76577    0.85280    0.33056    1.000
    C344     C        0.77563    0.88993    0.35359    1.000
    N173     N        0.16538    0.79859    0.88625    1.000
    N174     N        0.05407    0.72146    0.92952    1.000
    N175     N        0.20223    0.82997    0.74099    1.000
    N176     N        0.16875    0.94621    0.66800    1.000
    C345     C        0.15585    0.79133    0.92065    1.000
    C346     C        0.07860    0.73794    0.95094    1.000
    C347     C        0.21623    0.84019    0.70892    1.000
    C348     C        0.19382    0.92137    0.65816    1.000
    C349     C        0.14405    0.78273    0.96379    1.000
    C350     C        0.10892    0.75901    0.97774    1.000
    C351     C        0.23423    0.85280    0.66944    1.000
    C352     C        0.22437    0.88993    0.64641    1.000
    N177     N        0.20141    0.88625    0.83462    1.000
    N178     N        0.27854    0.92952    0.94593    1.000
    N179     N        0.17003    0.74099    0.79777    1.000
    N180     N        0.05379    0.66800    0.83125    1.000
    C353     C        0.20867    0.92065    0.84415    1.000
    C354     C        0.26206    0.95094    0.92140    1.000
    C355     C        0.15981    0.70892    0.78377    1.000
    C356     C        0.07863    0.65816    0.80618    1.000
    C357     C        0.21727    0.96379    0.85595    1.000
    C358     C        0.24099    0.97774    0.89108    1.000
    C359     C        0.14720    0.66944    0.76577    1.000
    C360     C        0.11007    0.64641    0.77563    1.000
    N181     N        0.20141    0.11375    0.16538    1.000
    N182     N        0.27854    0.07048    0.05407    1.000
    N183     N        0.17003    0.25901    0.20223    1.000
    N184     N        0.05379    0.33200    0.16875    1.000
    C361     C        0.20867    0.07935    0.15585    1.000
    C362     C        0.26206    0.04906    0.07860    1.000
    C363     C        0.15981    0.29108    0.21623    1.000
    C364     C        0.07863    0.34184    0.19382    1.000
    C365     C        0.21727    0.03621    0.14405    1.000
    C366     C        0.24099    0.02226    0.10892    1.000
    C367     C        0.14720    0.33056    0.23423    1.000
    C368     C        0.11007    0.35359    0.22437    1.000
    N185     N        0.79859    0.88625    0.16538    1.000
    N186     N        0.72146    0.92952    0.05407    1.000
    N187     N        0.82997    0.74099    0.20223    1.000
    N188     N        0.94621    0.66800    0.16875    1.000
    C369     C        0.79133    0.92065    0.15585    1.000
    C370     C        0.73794    0.95094    0.07860    1.000
    C371     C        0.84019    0.70892    0.21623    1.000
    C372     C        0.92137    0.65816    0.19382    1.000
    C373     C        0.78273    0.96379    0.14405    1.000
    C374     C        0.75901    0.97774    0.10892    1.000
    C375     C        0.85280    0.66944    0.23423    1.000
    C376     C        0.88993    0.64641    0.22437    1.000
    N189     N        0.79859    0.11375    0.83462    1.000
    N190     N        0.72146    0.07048    0.94593    1.000
    N191     N        0.82997    0.25901    0.79777    1.000
    N192     N        0.94621    0.33200    0.83125    1.000
    C377     C        0.79133    0.07935    0.84415    1.000
    C378     C        0.73794    0.04906    0.92140    1.000
    C379     C        0.84019    0.29108    0.78377    1.000
    C380     C        0.92137    0.34184    0.80618    1.000
    C381     C        0.78273    0.03621    0.85595    1.000
    C382     C        0.75901    0.02226    0.89108    1.000
    C383     C        0.85280    0.33056    0.76577    1.000
    C384     C        0.88993    0.35359    0.77563    1.000
    Na1      Na       0.31434    0.68566    0.31434    1.000
    Na2      Na       0.68566    0.31434    0.31434    1.000
    Na3      Na       0.68566    0.68566    0.68566    1.000
    Na4      Na       0.31434    0.31434    0.68566    1.000
    Na5      Na       0.18566    0.81434    0.18566    1.000
    Na6      Na       0.81434    0.18566    0.18566    1.000
    Na7      Na       0.18566    0.18566    0.81434    1.000
    Na8      Na       0.81434    0.81434    0.81434    1.000
    Na9      Na       0.68566    0.31434    0.68566    1.000
    Na10     Na       0.31434    0.68566    0.68566    1.000
    Na11     Na       0.31434    0.31434    0.31434    1.000
    Na12     Na       0.68566    0.68566    0.31434    1.000
    Na13     Na       0.81434    0.18566    0.81434    1.000
    Na14     Na       0.18566    0.81434    0.81434    1.000
    Na15     Na       0.81434    0.81434    0.18566    1.000
    Na16     Na       0.18566    0.18566    0.18566    1.000
    Na17     Na       0.37966    0.80459    0.50000    1.000
    Na18     Na       0.62034    0.19541    0.50000    1.000
    Na19     Na       0.62034    0.80459    0.50000    1.000
    Na20     Na       0.37966    0.19541    0.50000    1.000
    Na21     Na       0.50000    0.37966    0.80459    1.000
    Na22     Na       0.50000    0.62034    0.19541    1.000
    Na23     Na       0.50000    0.62034    0.80459    1.000
    Na24     Na       0.50000    0.37966    0.19541    1.000
    Na25     Na       0.80459    0.50000    0.37966    1.000
    Na26     Na       0.19541    0.50000    0.62034    1.000
    Na27     Na       0.80459    0.50000    0.62034    1.000
    Na28     Na       0.19541    0.50000    0.37966    1.000
    Na29     Na       0.30459    0.87966    0.00000    1.000
    Na30     Na       0.69541    0.12034    0.00000    1.000
    Na31     Na       0.30459    0.12034    0.00000    1.000
    Na32     Na       0.69541    0.87966    0.00000    1.000
    Na33     Na       0.87966    0.00000    0.69541    1.000
    Na34     Na       0.12034    0.00000    0.30459    1.000
    Na35     Na       0.12034    0.00000    0.69541    1.000
    Na36     Na       0.87966    0.00000    0.30459    1.000
    Na37     Na       0.00000    0.30459    0.12034    1.000
    Na38     Na       0.00000    0.69541    0.87966    1.000
    Na39     Na       0.00000    0.30459    0.87966    1.000
    Na40     Na       0.00000    0.69541    0.12034    1.000
    Na41     Na       0.23054    0.00000    0.50000    1.000
    Na42     Na       0.76946    0.00000    0.50000    1.000
    Na43     Na       0.50000    0.23054    0.00000    1.000
    Na44     Na       0.50000    0.76946    0.00000    1.000
    Na45     Na       0.00000    0.50000    0.23054    1.000
    Na46     Na       0.00000    0.50000    0.76946    1.000
    Na47     Na       0.50000    0.73054    0.00000    1.000
    Na48     Na       0.50000    0.26946    0.00000    1.000
    Na49     Na       0.73054    0.00000    0.50000    1.000
    Na50     Na       0.26946    0.00000    0.50000    1.000
    Na51     Na       0.00000    0.50000    0.26946    1.000
    Na52     Na       0.00000    0.50000    0.73054    1.000
    N193     N        0.26558    0.50000    0.34255    1.000
    C385     C        0.29630    0.50000    0.32260    1.000
    C386     C        0.33410    0.50000    0.29788    1.000
    N194     N        0.73442    0.50000    0.34255    1.000
    C387     C        0.70370    0.50000    0.32260    1.000
    C388     C        0.66590    0.50000    0.29788    1.000
    N195     N        0.73442    0.50000    0.65745    1.000
    C389     C        0.70370    0.50000    0.67740    1.000
    C390     C        0.66590    0.50000    0.70212    1.000
    N196     N        0.26558    0.50000    0.65745    1.000
    C391     C        0.29630    0.50000    0.67740    1.000
    C392     C        0.33410    0.50000    0.70212    1.000
    N197     N        0.34255    0.26558    0.50000    1.000
    C393     C        0.32260    0.29630    0.50000    1.000
    C394     C        0.29788    0.33410    0.50000    1.000
    N198     N        0.34255    0.73442    0.50000    1.000
    C395     C        0.32260    0.70370    0.50000    1.000
    C396     C        0.29788    0.66590    0.50000    1.000
    N199     N        0.65745    0.73442    0.50000    1.000
    C397     C        0.67740    0.70370    0.50000    1.000
    C398     C        0.70212    0.66590    0.50000    1.000
    N200     N        0.65745    0.26558    0.50000    1.000
    C399     C        0.67740    0.29630    0.50000    1.000
    C400     C        0.70212    0.33410    0.50000    1.000
    N201     N        0.50000    0.34255    0.26558    1.000
    C401     C        0.50000    0.32260    0.29630    1.000
    C402     C        0.50000    0.29788    0.33410    1.000
    N202     N        0.50000    0.34255    0.73442    1.000
    C403     C        0.50000    0.32260    0.70370    1.000
    C404     C        0.50000    0.29788    0.66590    1.000
    N203     N        0.50000    0.65745    0.73442    1.000
    C405     C        0.50000    0.67740    0.70370    1.000
    C406     C        0.50000    0.70212    0.66590    1.000
    N204     N        0.50000    0.65745    0.26558    1.000
    C407     C        0.50000    0.67740    0.29630    1.000
    C408     C        0.50000    0.70212    0.33410    1.000
    N205     N        0.00000    0.76558    0.15745    1.000
    C409     C        0.00000    0.79630    0.17740    1.000
    C410     C        0.00000    0.83410    0.20212    1.000
    N206     N        0.00000    0.23442    0.15745    1.000
    C411     C        0.00000    0.20370    0.17740    1.000
    C412     C        0.00000    0.16590    0.20212    1.000
    N207     N        0.00000    0.23442    0.84255    1.000
    C413     C        0.00000    0.20370    0.82260    1.000
    C414     C        0.00000    0.16590    0.79788    1.000
    N208     N        0.00000    0.76558    0.84255    1.000
    C415     C        0.00000    0.79630    0.82260    1.000
    C416     C        0.00000    0.83410    0.79788    1.000
    N209     N        0.76558    0.84255    0.00000    1.000
    C417     C        0.79630    0.82260    0.00000    1.000
    C418     C        0.83410    0.79788    0.00000    1.000
    N210     N        0.23442    0.84255    0.00000    1.000
    C419     C        0.20370    0.82260    0.00000    1.000
    C420     C        0.16590    0.79788    0.00000    1.000
    N211     N        0.23442    0.15745    0.00000    1.000
    C421     C        0.20370    0.17740    0.00000    1.000
    C422     C        0.16590    0.20212    0.00000    1.000
    N212     N        0.76558    0.15745    0.00000    1.000
    C423     C        0.79630    0.17740    0.00000    1.000
    C424     C        0.83410    0.20212    0.00000    1.000
    N213     N        0.84255    0.00000    0.23442    1.000
    C425     C        0.82260    0.00000    0.20370    1.000
    C426     C        0.79788    0.00000    0.16590    1.000
    N214     N        0.84255    0.00000    0.76558    1.000
    C427     C        0.82260    0.00000    0.79630    1.000
    C428     C        0.79788    0.00000    0.83410    1.000
    N215     N        0.15745    0.00000    0.76558    1.000
    C429     C        0.17740    0.00000    0.79630    1.000
    C430     C        0.20212    0.00000    0.83410    1.000
    N216     N        0.15745    0.00000    0.23442    1.000
    C431     C        0.17740    0.00000    0.20370    1.000
    C432     C        0.20212    0.00000    0.16590    1.000
    N217     N        0.25000    0.94808    0.44808    1.000
    C433     C        0.25000    0.92239    0.42239    1.000
    C434     C        0.25000    0.89012    0.39012    1.000
    N218     N        0.75000    0.05192    0.44808    1.000
    C435     C        0.75000    0.07761    0.42239    1.000
    C436     C        0.75000    0.10988    0.39012    1.000
    N219     N        0.75000    0.94808    0.55192    1.000
    C437     C        0.75000    0.92239    0.57761    1.000
    C438     C        0.75000    0.89012    0.60988    1.000
    N220     N        0.25000    0.05192    0.55192    1.000
    C439     C        0.25000    0.07761    0.57761    1.000
    C440     C        0.25000    0.10988    0.60988    1.000
    N221     N        0.44808    0.25000    0.94808    1.000
    C441     C        0.42239    0.25000    0.92239    1.000
    C442     C        0.39012    0.25000    0.89012    1.000
    N222     N        0.44808    0.75000    0.05192    1.000
    C443     C        0.42239    0.75000    0.07761    1.000
    C444     C        0.39012    0.75000    0.10988    1.000
    N223     N        0.55192    0.75000    0.94808    1.000
    C445     C        0.57761    0.75000    0.92239    1.000
    C446     C        0.60988    0.75000    0.89012    1.000
    N224     N        0.55192    0.25000    0.05192    1.000
    C447     C        0.57761    0.25000    0.07761    1.000
    C448     C        0.60988    0.25000    0.10988    1.000
    N225     N        0.94808    0.44808    0.25000    1.000
    C449     C        0.92239    0.42239    0.25000    1.000
    C450     C        0.89012    0.39012    0.25000    1.000
    N226     N        0.05192    0.44808    0.75000    1.000
    C451     C        0.07761    0.42239    0.75000    1.000
    C452     C        0.10988    0.39012    0.75000    1.000
    N227     N        0.94808    0.55192    0.75000    1.000
    C453     C        0.92239    0.57761    0.75000    1.000
    C454     C        0.89012    0.60988    0.75000    1.000
    N228     N        0.05192    0.55192    0.25000    1.000
    C455     C        0.07761    0.57761    0.25000    1.000
    C456     C        0.10988    0.60988    0.25000    1.000
    N229     N        0.75000    0.05192    0.55192    1.000
    C457     C        0.75000    0.07761    0.57761    1.000
    C458     C        0.75000    0.10988    0.60988    1.000
    N230     N        0.25000    0.94808    0.55192    1.000
    C459     C        0.25000    0.92239    0.57761    1.000
    C460     C        0.25000    0.89012    0.60988    1.000
    N231     N        0.25000    0.05192    0.44808    1.000
    C461     C        0.25000    0.07761    0.42239    1.000
    C462     C        0.25000    0.10988    0.39012    1.000
    N232     N        0.75000    0.94808    0.44808    1.000
    C463     C        0.75000    0.92239    0.42239    1.000
    C464     C        0.75000    0.89012    0.39012    1.000
    N233     N        0.55192    0.75000    0.05192    1.000
    C465     C        0.57761    0.75000    0.07761    1.000
    C466     C        0.60988    0.75000    0.10988    1.000
    N234     N        0.55192    0.25000    0.94808    1.000
    C467     C        0.57761    0.25000    0.92239    1.000
    C468     C        0.60988    0.25000    0.89012    1.000
    N235     N        0.44808    0.25000    0.05192    1.000
    C469     C        0.42239    0.25000    0.07761    1.000
    C470     C        0.39012    0.25000    0.10988    1.000
    N236     N        0.44808    0.75000    0.94808    1.000
    C471     C        0.42239    0.75000    0.92239    1.000
    C472     C        0.39012    0.75000    0.89012    1.000
    N237     N        0.05192    0.55192    0.75000    1.000
    C473     C        0.07761    0.57761    0.75000    1.000
    C474     C        0.10988    0.60988    0.75000    1.000
    N238     N        0.94808    0.55192    0.25000    1.000
    C475     C        0.92239    0.57761    0.25000    1.000
    C476     C        0.89012    0.60988    0.25000    1.000
    N239     N        0.05192    0.44808    0.25000    1.000
    C477     C        0.07761    0.42239    0.25000    1.000
    C478     C        0.10988    0.39012    0.25000    1.000
    N240     N        0.94808    0.44808    0.75000    1.000
    C479     C        0.92239    0.42239    0.75000    1.000
    C480     C        0.89012    0.39012    0.75000    1.000
