data_functionalizedCrystal
_audit_creation_method	'EQeq! by Chris Wilmer'
_symmetry_space_group_name_H-M	'P1'
_symmetry_Int_Tables_number	1
_symmetry_cell_setting	triclinic
loop_
_symmetry_equiv_pos_as_xyz
  x,y,z
_cell_length_a	18.51
_cell_length_b	16.894
_cell_length_c	13.924
_cell_angle_alpha	90
_cell_angle_beta	130.542
_cell_angle_gamma	90
loop_
_atom_site_label
_atom_site_type_symbol
_atom_site_fract_x
_atom_site_fract_y
_atom_site_fract_z
_atom_site_charge
Mof_O 	O 	0.5884	0.39131	0.3806	-0.499
Mof_O 	O 	0.73061	0.35318	0.55848	-0.472
Mof_O 	O 	0.576	0.69797	0.69239	-0.486
Mof_O 	O 	0.7303	0.6859	0.85797	-0.457
Mof_O 	O 	0.40079	0.2199	0.11233	-0.44
Mof_N 	N 	0.42669	0.15949	0.0791	-0.021
Mof_C 	C 	0.66494	0.47305	0.5586	-0.09
Mof_C 	C 	0.5883	0.52371	0.4945	-0.012
Mof_H 	H 	0.537	0.5149	0.4094	0.052
Mof_C 	C 	0.5867	0.58751	0.5553	-0.014
Mof_H 	H 	0.534	0.6207	0.5109	0.05
Mof_C 	C 	0.66245	0.60262	0.6809	-0.084
Mof_C 	C 	0.7398	0.5533	0.7436	-0.011
Mof_H 	H 	0.7923	0.5635	0.8277	0.062
Mof_C 	C 	0.741	0.48842	0.6837	-0.011
Mof_H 	H 	0.7936	0.4551	0.7283	0.063
Mof_C 	C 	0.6611	0.4	0.4938	0.422
Mof_C 	C 	0.65645	0.66775	0.7493	0.406
Mof_C 	C 	0.463	0.17348	0.0232	-0.055
Mof_H 	H 	0.4684	0.2252	0.0056	0.066
Mof_C 	C 	0.4922	0.11144	0.9919	0.036
Mof_H 	H 	0.5174	0.1217	0.9533	0.025
Mof_C 	C 	0.48461	0.03385	0.017	-0.087
Mof_C 	C 	0.444	0.02244	0.0717	-0.014
Mof_H 	H 	0.4364	0.9713	0.0886	0.028
Mof_C 	C 	0.4149	0.08566	0.1012	-0.024
Mof_H 	H 	0.3869	0.0771	0.1366	0.061
Mof_O 	O 	0.0884	0.89131	0.3806	-0.524
Mof_O 	O 	0.23061	0.85318	0.55848	-0.48
Mof_O 	O 	0.076	0.19797	0.69239	-0.517
Mof_O 	O 	0.2303	0.1859	0.85797	-0.462
Mof_O 	O 	0.90079	0.7199	0.11233	-0.425
Mof_N 	N 	0.92669	0.65949	0.0791	0
Mof_C 	C 	0.16494	0.97305	0.5586	-0.105
Mof_C 	C 	0.0883	0.02371	0.4945	-0.013
Mof_H 	H 	0.037	0.0149	0.4094	0.031
Mof_C 	C 	0.0867	0.08751	0.5553	-0.023
Mof_H 	H 	0.034	0.1207	0.5109	0.03
Mof_C 	C 	0.16245	0.10262	0.6809	-0.092
Mof_C 	C 	0.2398	0.0533	0.7436	-0.019
Mof_H 	H 	0.2923	0.0635	0.8277	0.061
Mof_C 	C 	0.241	0.98842	0.6837	-0.008
Mof_H 	H 	0.2936	0.9551	0.7283	0.051
Mof_C 	C 	0.1611	0.9	0.4938	0.426
Mof_C 	C 	0.15645	0.16775	0.7493	0.409
Mof_C 	C 	0.963	0.67348	0.0232	-0.135
Mof_H 	H 	0.9684	0.7252	0.0056	0.118
Mof_C 	C 	0.9922	0.61144	0.9919	0.221
Mof_H 	H 	0.0174	0.6217	0.9533	-0.088
Mof_C 	C 	0.98461	0.53385	0.017	-0.105
Mof_C 	C 	0.944	0.52244	0.0717	0.012
Mof_H 	H 	0.9364	0.4713	0.0886	0.035
Mof_C 	C 	0.9149	0.58566	0.1012	-0.03
Mof_H 	H 	0.8869	0.5771	0.1366	0.073
Mof_O 	O 	0.4116	0.39131	0.1194	-0.485
Mof_O 	O 	0.26939	0.35318	0.94152	-0.449
Mof_O 	O 	0.424	0.69797	0.80761	-0.491
Mof_O 	O 	0.2697	0.6859	0.64203	-0.472
Mof_O 	O 	0.59921	0.2199	0.38767	-0.434
Mof_N 	N 	0.57331	0.15949	0.4209	-0.043
Mof_C 	C 	0.33506	0.47305	0.9414	0.008
Mof_C 	C 	0.4117	0.52371	0.0055	-0.138
Mof_H 	H 	0.463	0.5149	0.0906	0.092
Mof_C 	C 	0.4133	0.58751	0.9447	0.084
Mof_H 	H 	0.466	0.6207	0.9891	0.022
Mof_C 	C 	0.33755	0.60262	0.8191	-0.141
Mof_C 	C 	0.2602	0.5533	0.7564	0.044
Mof_H 	H 	0.2077	0.5635	0.6723	0.035
Mof_C 	C 	0.259	0.48842	0.8163	-0.082
Mof_H 	H 	0.2064	0.4551	0.7717	0.069
Mof_C 	C 	0.3389	0.4	0.0062	0.355
Mof_C 	C 	0.34355	0.66775	0.7507	0.427
Mof_C 	C 	0.537	0.17348	0.4768	0.026
Mof_H 	H 	0.5316	0.2252	0.4944	0.045
Mof_C 	C 	0.5078	0.11144	0.5081	-0.088
Mof_H 	H 	0.4826	0.1217	0.5467	0.064
Mof_C 	C 	0.51539	0.03385	0.483	0.034
Mof_C 	C 	0.556	0.02244	0.4283	-0.09
Mof_H 	H 	0.5636	0.9713	0.4114	0.061
Mof_C 	C 	0.5851	0.08566	0.3988	0.027
Mof_H 	H 	0.6131	0.0771	0.3634	0.044
Mof_O 	O 	0.9116	0.89131	0.1194	-0.458
Mof_O 	O 	0.76939	0.85318	0.94152	-0.439
Mof_O 	O 	0.924	0.19797	0.80761	-0.458
Mof_O 	O 	0.7697	0.1859	0.64203	-0.467
Mof_O 	O 	0.09921	0.7199	0.38767	-0.447
Mof_N 	N 	0.07331	0.65949	0.4209	-0.065
Mof_C 	C 	0.83506	0.97305	0.9414	0.027
Mof_C 	C 	0.9117	0.02371	0.0055	-0.136
Mof_H 	H 	0.963	0.0149	0.0906	0.114
Mof_C 	C 	0.9133	0.08751	0.9447	0.094
Mof_H 	H 	0.966	0.1207	0.9891	0.041
Mof_C 	C 	0.83755	0.10262	0.8191	-0.135
Mof_C 	C 	0.7602	0.0533	0.7564	0.056
Mof_H 	H 	0.7077	0.0635	0.6723	0.034
Mof_C 	C 	0.759	0.98842	0.8163	-0.091
Mof_H 	H 	0.7064	0.9551	0.7717	0.082
Mof_C 	C 	0.8389	0.9	0.0062	0.344
Mof_C 	C 	0.84355	0.16775	0.7507	0.424
Mof_C 	C 	0.037	0.67348	0.4768	0.103
Mof_H 	H 	0.0316	0.7252	0.4944	-0.006
Mof_C 	C 	0.0078	0.61144	0.5081	-0.27
Mof_H 	H 	0.9826	0.6217	0.5467	0.176
Mof_C 	C 	0.01539	0.53385	0.483	0.055
Mof_C 	C 	0.056	0.52244	0.4283	-0.128
Mof_H 	H 	0.0636	0.4713	0.4114	0.061
Mof_C 	C 	0.0851	0.58566	0.3988	0.037
Mof_H 	H 	0.1131	0.5771	0.3634	0.03
Mof_O 	O 	0.4116	0.60869	0.6194	-0.498
Mof_O 	O 	0.26939	0.64682	0.44152	-0.48
Mof_O 	O 	0.424	0.30203	0.30761	-0.488
Mof_O 	O 	0.2697	0.3141	0.14203	-0.473
Mof_O 	O 	0.59921	0.7801	0.88767	-0.428
Mof_N 	N 	0.57331	0.84051	0.9209	-0.067
Mof_C 	C 	0.33506	0.52695	0.4414	-0.097
Mof_C 	C 	0.4117	0.47629	0.5055	-0.009
Mof_H 	H 	0.463	0.4851	0.5906	0.053
Mof_C 	C 	0.4133	0.41249	0.4447	-0.018
Mof_H 	H 	0.466	0.3793	0.4891	0.052
Mof_C 	C 	0.33755	0.39738	0.3191	-0.086
Mof_C 	C 	0.2602	0.4467	0.2564	-0.024
Mof_H 	H 	0.2077	0.4365	0.1723	0.053
Mof_C 	C 	0.259	0.51158	0.3163	-0.006
Mof_H 	H 	0.2064	0.5449	0.2717	0.04
Mof_C 	C 	0.3389	0.6	0.5062	0.424
Mof_C 	C 	0.34355	0.33225	0.2507	0.406
Mof_C 	C 	0.537	0.82652	0.9768	0.113
Mof_H 	H 	0.5316	0.7748	0.9944	0.02
Mof_C 	C 	0.5078	0.88856	0.0081	-0.222
Mof_H 	H 	0.4826	0.8783	0.0467	0.105
Mof_C 	C 	0.51539	0.96615	0.983	0.159
Mof_C 	C 	0.556	0.97756	0.9283	-0.172
Mof_H 	H 	0.5636	0.0287	0.9114	0.096
Mof_C 	C 	0.5851	0.91434	0.8988	0.078
Mof_H 	H 	0.6131	0.9229	0.8634	0.027
Mof_O 	O 	0.9116	0.10869	0.6194	-0.471
Mof_O 	O 	0.76939	0.14682	0.44152	-0.473
Mof_O 	O 	0.924	0.80203	0.30761	-0.455
Mof_O 	O 	0.7697	0.8141	0.14203	-0.469
Mof_O 	O 	0.09921	0.2801	0.88767	-0.442
Mof_N 	N 	0.07331	0.34051	0.9209	-0.085
Mof_C 	C 	0.83506	0.02695	0.4414	-0.081
Mof_C 	C 	0.9117	0.97629	0.5055	-0.009
Mof_H 	H 	0.963	0.9851	0.5906	0.074
Mof_C 	C 	0.9133	0.91249	0.4447	-0.009
Mof_H 	H 	0.966	0.8793	0.4891	0.072
Mof_C 	C 	0.83755	0.89738	0.3191	-0.077
Mof_C 	C 	0.7602	0.9467	0.2564	-0.018
Mof_H 	H 	0.7077	0.9365	0.1723	0.053
Mof_C 	C 	0.759	0.01158	0.3163	-0.007
Mof_H 	H 	0.7064	0.0449	0.2717	0.051
Mof_C 	C 	0.8389	0.1	0.5062	0.419
Mof_C 	C 	0.84355	0.83225	0.2507	0.403
Mof_C 	C 	0.037	0.32652	0.9768	0.174
Mof_H 	H 	0.0316	0.2748	0.9944	-0.026
Mof_C 	C 	0.0078	0.38856	0.0081	-0.38
Mof_H 	H 	0.9826	0.3783	0.0467	0.209
Mof_C 	C 	0.01539	0.46615	0.983	0.167
Mof_C 	C 	0.056	0.47756	0.9283	-0.197
Mof_H 	H 	0.0636	0.5287	0.9114	0.09
Mof_C 	C 	0.0851	0.41434	0.8988	0.08
Mof_H 	H 	0.1131	0.4229	0.8634	0.015
Mof_O 	O 	0.5884	0.60869	0.8806	-0.514
Mof_O 	O 	0.73061	0.64682	0.05848	-0.506
Mof_O 	O 	0.576	0.30203	0.19239	-0.484
Mof_O 	O 	0.7303	0.3141	0.35797	-0.46
Mof_O 	O 	0.40079	0.7801	0.61233	-0.435
Mof_N 	N 	0.42669	0.84051	0.5791	-0.044
Mof_C 	C 	0.66494	0.52695	0.0586	-0.2
Mof_C 	C 	0.5883	0.47629	0.9945	0.122
Mof_H 	H 	0.537	0.4851	0.9094	0.011
Mof_C 	C 	0.5867	0.41249	0.0553	-0.119
Mof_H 	H 	0.534	0.3793	0.0109	0.08
Mof_C 	C 	0.66245	0.39738	0.1809	-0.026
Mof_C 	C 	0.7398	0.4467	0.2436	-0.081
Mof_H 	H 	0.7923	0.4365	0.3277	0.08
Mof_C 	C 	0.741	0.51158	0.1837	0.069
Mof_H 	H 	0.7936	0.5449	0.2283	0.032
Mof_C 	C 	0.6611	0.6	0.9938	0.495
Mof_C 	C 	0.65645	0.33225	0.2493	0.385
Mof_C 	C 	0.463	0.82652	0.5232	0.025
Mof_H 	H 	0.4684	0.7748	0.5056	0.043
Mof_C 	C 	0.4922	0.88856	0.4919	-0.09
Mof_H 	H 	0.5174	0.8783	0.4533	0.064
Mof_C 	C 	0.48461	0.96615	0.517	0.034
Mof_C 	C 	0.444	0.97756	0.5717	-0.098
Mof_H 	H 	0.4364	0.0287	0.5886	0.065
Mof_C 	C 	0.4149	0.91434	0.6012	0.027
Mof_H 	H 	0.3869	0.9229	0.6366	0.043
Mof_O 	O 	0.0884	0.10869	0.8806	-0.536
Mof_O 	O 	0.23061	0.14682	0.05848	-0.508
Mof_O 	O 	0.076	0.80203	0.19239	-0.514
Mof_O 	O 	0.2303	0.8141	0.35797	-0.465
Mof_O 	O 	0.90079	0.2801	0.61233	-0.42
Mof_N 	N 	0.92669	0.34051	0.5791	-0.022
Mof_C 	C 	0.16494	0.02695	0.0586	-0.203
Mof_C 	C 	0.0883	0.97629	0.9945	0.108
Mof_H 	H 	0.037	0.9851	0.9094	-0.006
Mof_C 	C 	0.0867	0.91249	0.0553	-0.121
Mof_H 	H 	0.034	0.8793	0.0109	0.059
Mof_C 	C 	0.16245	0.89738	0.1809	-0.037
Mof_C 	C 	0.2398	0.9467	0.2436	-0.088
Mof_H 	H 	0.2923	0.9365	0.3277	0.079
Mof_C 	C 	0.241	0.01158	0.1837	0.069
Mof_H 	H 	0.2936	0.0449	0.2283	0.022
Mof_C 	C 	0.1611	0.1	0.9938	0.49
Mof_C 	C 	0.15645	0.83225	0.2493	0.389
Mof_C 	C 	0.963	0.32652	0.5232	-0.051
Mof_H 	H 	0.9684	0.2748	0.5056	0.095
Mof_C 	C 	0.9922	0.38856	0.4919	0.092
Mof_H 	H 	0.0174	0.3783	0.4533	-0.048
Mof_C 	C 	0.98461	0.46615	0.517	0.014
Mof_C 	C 	0.944	0.47756	0.5717	-0.062
Mof_H 	H 	0.9364	0.5287	0.5886	0.066
Mof_C 	C 	0.9149	0.41434	0.6012	0.018
Mof_H 	H 	0.8869	0.4229	0.6366	0.058
Mof_Mg	Mg	0.5	0.3079	0.25	1.478
Mof_Mg	Mg	1.16344e-33	0.8079	0.25	1.472
Mof_Mg	Mg	0.5	0.6921	0.75	1.478
Mof_Mg	Mg	6.87169e-17	0.1921	0.75	1.472
Mof_Mg	Mg	0.75	0.25	0.5	1.476
Mof_Mg	Mg	0.25	0.25	-0	1.475
Mof_Mg	Mg	0.25	0.75	0.5	1.476
Mof_Mg	Mg	0.75	0.75	-0	1.474
_end
