# CIF file generated by openbabel 3.1.0, see https://openbabel.org
data_I
_chemical_name_common 'image0'
_cell_length_a 48.832
_cell_length_b 48.832
_cell_length_c 8.4834
_cell_angle_alpha 90
_cell_angle_beta 90
_cell_angle_gamma 120
_space_group_name_H-M_alt 'P 1'
_space_group_name_Hall 'P 1'
loop_
    _symmetry_equiv_pos_as_xyz
    x,y,z
loop_
    _atom_site_label
    _atom_site_type_symbol
    _atom_site_fract_x
    _atom_site_fract_y
    _atom_site_fract_z
    _atom_site_occupancy
    K1       K        0.40824    0.91404    0.23740    1.000
    Sm1      Sm       0.48613    0.99175    0.54866    1.000
    S1       S        0.42463    0.90999    0.60525    1.000
    S2       S        0.24365    0.91847    0.76822    1.000
    O1       O        0.46616    0.97207    0.81030    1.000
    O2       O        0.44750    0.95655    0.04850    1.000
    O3       O        0.44462    0.93776    0.50690    1.000
    O4       O        0.40400    0.88309    0.50630    1.000
    O5       O        0.44237    0.90400    0.72070    1.000
    O6       O        0.21221    0.85286    0.38230    1.000
    O7       O        0.19361    0.85085    0.62020    1.000
    O8       O        0.22789    0.92322    0.63710    1.000
    O9       O        0.22163    0.89550    0.88290    1.000
    O10      O        0.26755    0.94725    0.84410    1.000
    C1       C        0.40965    0.93963    0.84270    1.000
    C2       C        0.39915    0.91960    0.71330    1.000
    C3       C        0.36812    0.90654    0.66330    1.000
    H1       H        0.36160    0.89410    0.57300    1.000
    C4       C        0.34626    0.91187    0.74710    1.000
    C5       C        0.35665    0.92992    0.87940    1.000
    H2       H        0.34250    0.93290    0.93960    1.000
    C6       C        0.38797    0.94392    0.92640    1.000
    H3       H        0.39450    0.95650    0.01640    1.000
    C7       C        0.44287    0.95660    0.90510    1.000
    C8       C        0.31322    0.89841    0.68870    1.000
    C9       C        0.29868    0.87241    0.59180    1.000
    H4       H        0.30970    0.86220    0.56220    1.000
    C10      C        0.26836    0.86107    0.53740    1.000
    H5       H        0.26000    0.84460    0.46460    1.000
    C11      C        0.25019    0.87352    0.58850    1.000
    C12      C        0.26358    0.89911    0.68910    1.000
    C13      C        0.29555    0.91227    0.73460    1.000
    H6       H        0.30490    0.93050    0.79610    1.000
    C14      C        0.21660    0.85863    0.52770    1.000
    K2       K        0.07491    0.24737    0.57073    1.000
    Sm2      Sm       0.15280    0.32508    0.88199    1.000
    S3       S        0.09130    0.24332    0.93858    1.000
    S4       S        0.91032    0.25180    0.10155    1.000
    O11      O        0.13283    0.30540    0.14363    1.000
    O12      O        0.11417    0.28988    0.38183    1.000
    O13      O        0.11129    0.27109    0.84023    1.000
    O14      O        0.07067    0.21642    0.83963    1.000
    O15      O        0.10904    0.23733    0.05403    1.000
    O16      O        0.87888    0.18619    0.71563    1.000
    O17      O        0.86028    0.18418    0.95353    1.000
    O18      O        0.89456    0.25655    0.97043    1.000
    O19      O        0.88830    0.22883    0.21623    1.000
    O20      O        0.93422    0.28058    0.17743    1.000
    C15      C        0.07632    0.27296    0.17603    1.000
    C16      C        0.06582    0.25293    0.04663    1.000
    C17      C        0.03479    0.23987    0.99663    1.000
    H7       H        0.02827    0.22743    0.90633    1.000
    C18      C        0.01293    0.24520    0.08043    1.000
    C19      C        0.02332    0.26325    0.21273    1.000
    H8       H        0.00917    0.26623    0.27293    1.000
    C20      C        0.05464    0.27725    0.25973    1.000
    H9       H        0.06117    0.28983    0.34973    1.000
    C21      C        0.10954    0.28993    0.23843    1.000
    C22      C        0.97989    0.23174    0.02203    1.000
    C23      C        0.96535    0.20574    0.92513    1.000
    H10      H        0.97637    0.19553    0.89553    1.000
    C24      C        0.93503    0.19440    0.87073    1.000
    H11      H        0.92667    0.17793    0.79793    1.000
    C25      C        0.91686    0.20685    0.92183    1.000
    C26      C        0.93025    0.23244    0.02243    1.000
    C27      C        0.96222    0.24560    0.06793    1.000
    H12      H        0.97157    0.26383    0.12943    1.000
    C28      C        0.88327    0.19196    0.86103    1.000
    K3       K        0.74157    0.58071    0.90407    1.000
    Sm3      Sm       0.81946    0.65842    0.21533    1.000
    S5       S        0.75796    0.57666    0.27192    1.000
    S6       S        0.57698    0.58514    0.43489    1.000
    O21      O        0.79949    0.63874    0.47697    1.000
    O22      O        0.78083    0.62322    0.71517    1.000
    O23      O        0.77795    0.60443    0.17357    1.000
    O24      O        0.73733    0.54976    0.17297    1.000
    O25      O        0.77570    0.57067    0.38737    1.000
    O26      O        0.54554    0.51953    0.04897    1.000
    O27      O        0.52694    0.51752    0.28687    1.000
    O28      O        0.56122    0.58989    0.30377    1.000
    O29      O        0.55496    0.56217    0.54957    1.000
    O30      O        0.60088    0.61392    0.51077    1.000
    C29      C        0.74298    0.60630    0.50937    1.000
    C30      C        0.73248    0.58627    0.37997    1.000
    C31      C        0.70145    0.57321    0.32997    1.000
    H13      H        0.69493    0.56077    0.23967    1.000
    C32      C        0.67959    0.57854    0.41377    1.000
    C33      C        0.68998    0.59659    0.54607    1.000
    H14      H        0.67583    0.59957    0.60627    1.000
    C34      C        0.72130    0.61059    0.59307    1.000
    H15      H        0.72783    0.62317    0.68307    1.000
    C35      C        0.77620    0.62327    0.57177    1.000
    C36      C        0.64655    0.56508    0.35537    1.000
    C37      C        0.63201    0.53908    0.25847    1.000
    H16      H        0.64303    0.52887    0.22887    1.000
    C38      C        0.60169    0.52774    0.20407    1.000
    H17      H        0.59333    0.51127    0.13127    1.000
    C39      C        0.58352    0.54019    0.25517    1.000
    C40      C        0.59691    0.56578    0.35577    1.000
    C41      C        0.62888    0.57894    0.40127    1.000
    H18      H        0.63823    0.59717    0.46277    1.000
    C42      C        0.54993    0.52530    0.19437    1.000
    K4       K        0.08596    0.49420    0.23740    1.000
    Sm4      Sm       0.00825    0.49438    0.54866    1.000
    S7       S        0.09001    0.51464    0.60525    1.000
    S8       S        0.08153    0.32518    0.76822    1.000
    O31      O        0.02793    0.49409    0.81030    1.000
    O32      O        0.04345    0.49095    0.04850    1.000
    O33      O        0.06224    0.50686    0.50690    1.000
    O34      O        0.11691    0.52091    0.50630    1.000
    O35      O        0.09600    0.53837    0.72070    1.000
    O36      O        0.14714    0.35935    0.38230    1.000
    O37      O        0.14915    0.34276    0.62020    1.000
    O38      O        0.07678    0.30467    0.63710    1.000
    O39      O        0.10450    0.32613    0.88290    1.000
    O40      O        0.05275    0.32030    0.84410    1.000
    C43      C        0.06037    0.47002    0.84270    1.000
    C44      C        0.08040    0.47955    0.71330    1.000
    C45      C        0.09346    0.46158    0.66330    1.000
    H19      H        0.10590    0.46750    0.57300    1.000
    C46      C        0.08813    0.43439    0.74710    1.000
    C47      C        0.07008    0.42673    0.87940    1.000
    H20      H        0.06710    0.40960    0.93960    1.000
    C48      C        0.05608    0.44405    0.92640    1.000
    H21      H        0.04350    0.43800    0.01640    1.000
    C49      C        0.04340    0.48627    0.90510    1.000
    C50      C        0.10159    0.41481    0.68870    1.000
    C51      C        0.12759    0.42627    0.59180    1.000
    H22      H        0.13780    0.44750    0.56220    1.000
    C52      C        0.13893    0.40729    0.53740    1.000
    H23      H        0.15540    0.41540    0.46460    1.000
    C53      C        0.12648    0.37667    0.58850    1.000
    C54      C        0.10089    0.36447    0.68910    1.000
    C55      C        0.08773    0.38328    0.73460    1.000
    H24      H        0.06950    0.37440    0.79610    1.000
    C56      C        0.14137    0.35797    0.52770    1.000
    K5       K        0.75263    0.82753    0.57073    1.000
    Sm5      Sm       0.67492    0.82771    0.88199    1.000
    S9       S        0.75668    0.84797    0.93858    1.000
    S10      S        0.74820    0.65851    0.10155    1.000
    O41      O        0.69460    0.82742    0.14363    1.000
    O42      O        0.71012    0.82428    0.38183    1.000
    O43      O        0.72891    0.84019    0.84023    1.000
    O44      O        0.78358    0.85424    0.83963    1.000
    O45      O        0.76267    0.87170    0.05403    1.000
    O46      O        0.81381    0.69268    0.71563    1.000
    O47      O        0.81582    0.67609    0.95353    1.000
    O48      O        0.74345    0.63800    0.97043    1.000
    O49      O        0.77117    0.65946    0.21623    1.000
    O50      O        0.71942    0.65363    0.17743    1.000
    C57      C        0.72704    0.80335    0.17603    1.000
    C58      C        0.74707    0.81288    0.04663    1.000
    C59      C        0.76013    0.79491    0.99663    1.000
    H25      H        0.77257    0.80083    0.90633    1.000
    C60      C        0.75480    0.76772    0.08043    1.000
    C61      C        0.73675    0.76006    0.21273    1.000
    H26      H        0.73377    0.74293    0.27293    1.000
    C62      C        0.72275    0.77738    0.25973    1.000
    H27      H        0.71017    0.77133    0.34973    1.000
    C63      C        0.71007    0.81960    0.23843    1.000
    C64      C        0.76826    0.74814    0.02203    1.000
    C65      C        0.79426    0.75960    0.92513    1.000
    H28      H        0.80447    0.78083    0.89553    1.000
    C66      C        0.80560    0.74062    0.87073    1.000
    H29      H        0.82207    0.74873    0.79793    1.000
    C67      C        0.79315    0.71000    0.92183    1.000
    C68      C        0.76756    0.69780    0.02243    1.000
    C69      C        0.75440    0.71661    0.06793    1.000
    H30      H        0.73617    0.70773    0.12943    1.000
    C70      C        0.80804    0.69130    0.86103    1.000
    K6       K        0.41929    0.16087    0.90407    1.000
    Sm6      Sm       0.34158    0.16105    0.21533    1.000
    S11      S        0.42334    0.18131    0.27192    1.000
    S12      S        0.41486    0.99185    0.43489    1.000
    O51      O        0.36126    0.16076    0.47697    1.000
    O52      O        0.37678    0.15762    0.71517    1.000
    O53      O        0.39557    0.17353    0.17357    1.000
    O54      O        0.45024    0.18758    0.17297    1.000
    O55      O        0.42933    0.20504    0.38737    1.000
    O56      O        0.48047    0.02602    0.04897    1.000
    O57      O        0.48248    0.00943    0.28687    1.000
    O58      O        0.41011    0.97134    0.30377    1.000
    O59      O        0.43783    0.99280    0.54957    1.000
    O60      O        0.38608    0.98697    0.51077    1.000
    C71      C        0.39370    0.13669    0.50937    1.000
    C72      C        0.41373    0.14622    0.37997    1.000
    C73      C        0.42679    0.12825    0.32997    1.000
    H31      H        0.43923    0.13417    0.23967    1.000
    C74      C        0.42146    0.10106    0.41377    1.000
    C75      C        0.40341    0.09340    0.54607    1.000
    H32      H        0.40043    0.07627    0.60627    1.000
    C76      C        0.38941    0.11072    0.59307    1.000
    H33      H        0.37683    0.10467    0.68307    1.000
    C77      C        0.37673    0.15294    0.57177    1.000
    C78      C        0.43492    0.08148    0.35537    1.000
    C79      C        0.46092    0.09294    0.25847    1.000
    H34      H        0.47113    0.11417    0.22887    1.000
    C80      C        0.47226    0.07396    0.20407    1.000
    H35      H        0.48873    0.08207    0.13127    1.000
    C81      C        0.45981    0.04334    0.25517    1.000
    C82      C        0.43422    0.03114    0.35577    1.000
    C83      C        0.42106    0.04995    0.40127    1.000
    H36      H        0.40283    0.04107    0.46277    1.000
    C84      C        0.47470    0.02464    0.19437    1.000
    K7       K        0.50580    0.59176    0.23740    1.000
    Sm7      Sm       0.50562    0.51387    0.54866    1.000
    S13      S        0.48536    0.57537    0.60525    1.000
    S14      S        0.67482    0.75635    0.76822    1.000
    O61      O        0.50591    0.53384    0.81030    1.000
    O62      O        0.50905    0.55250    0.04850    1.000
    O63      O        0.49314    0.55538    0.50690    1.000
    O64      O        0.47909    0.59600    0.50630    1.000
    O65      O        0.46163    0.55763    0.72070    1.000
    O66      O        0.64065    0.78779    0.38230    1.000
    O67      O        0.65724    0.80639    0.62020    1.000
    O68      O        0.69533    0.77211    0.63710    1.000
    O69      O        0.67387    0.77837    0.88290    1.000
    O70      O        0.67970    0.73245    0.84410    1.000
    C85      C        0.52998    0.59035    0.84270    1.000
    C86      C        0.52045    0.60085    0.71330    1.000
    C87      C        0.53842    0.63188    0.66330    1.000
    H37      H        0.53250    0.63840    0.57300    1.000
    C88      C        0.56561    0.65374    0.74710    1.000
    C89      C        0.57327    0.64335    0.87940    1.000
    H38      H        0.59040    0.65750    0.93960    1.000
    C90      C        0.55595    0.61203    0.92640    1.000
    H39      H        0.56200    0.60550    0.01640    1.000
    C91      C        0.51373    0.55713    0.90510    1.000
    C92      C        0.58519    0.68678    0.68870    1.000
    C93      C        0.57373    0.70132    0.59180    1.000
    H40      H        0.55250    0.69030    0.56220    1.000
    C94      C        0.59271    0.73164    0.53740    1.000
    H41      H        0.58460    0.74000    0.46460    1.000
    C95      C        0.62333    0.74981    0.58850    1.000
    C96      C        0.63553    0.73642    0.68910    1.000
    C97      C        0.61672    0.70445    0.73460    1.000
    H42      H        0.62560    0.69510    0.79610    1.000
    C98      C        0.64203    0.78340    0.52770    1.000
    K8       K        0.17247    0.92509    0.57073    1.000
    Sm8      Sm       0.17229    0.84720    0.88199    1.000
    S15      S        0.15203    0.90870    0.93858    1.000
    S16      S        0.34149    0.08968    0.10155    1.000
    O71      O        0.17258    0.86717    0.14363    1.000
    O72      O        0.17572    0.88583    0.38183    1.000
    O73      O        0.15981    0.88871    0.84023    1.000
    O74      O        0.14576    0.92933    0.83963    1.000
    O75      O        0.12830    0.89096    0.05403    1.000
    O76      O        0.30732    0.12112    0.71563    1.000
    O77      O        0.32391    0.13972    0.95353    1.000
    O78      O        0.36200    0.10544    0.97043    1.000
    O79      O        0.34054    0.11170    0.21623    1.000
    O80      O        0.34637    0.06578    0.17743    1.000
    C99      C        0.19665    0.92368    0.17603    1.000
    C100     C        0.18712    0.93418    0.04663    1.000
    C101     C        0.20509    0.96521    0.99663    1.000
    H43      H        0.19917    0.97173    0.90633    1.000
    C102     C        0.23228    0.98707    0.08043    1.000
    C103     C        0.23994    0.97668    0.21273    1.000
    H44      H        0.25707    0.99083    0.27293    1.000
    C104     C        0.22262    0.94536    0.25973    1.000
    H45      H        0.22867    0.93883    0.34973    1.000
    C105     C        0.18040    0.89046    0.23843    1.000
    C106     C        0.25186    0.02011    0.02203    1.000
    C107     C        0.24040    0.03465    0.92513    1.000
    H46      H        0.21917    0.02363    0.89553    1.000
    C108     C        0.25938    0.06497    0.87073    1.000
    H47      H        0.25127    0.07333    0.79793    1.000
    C109     C        0.29000    0.08314    0.92183    1.000
    C110     C        0.30220    0.06975    0.02243    1.000
    C111     C        0.28339    0.03778    0.06793    1.000
    H48      H        0.29227    0.02843    0.12943    1.000
    C112     C        0.30870    0.11673    0.86103    1.000
    K9       K        0.83913    0.25843    0.90407    1.000
    Sm9      Sm       0.83895    0.18054    0.21533    1.000
    S17      S        0.81869    0.24204    0.27192    1.000
    S18      S        0.00815    0.42302    0.43489    1.000
    O81      O        0.83924    0.20051    0.47697    1.000
    O82      O        0.84238    0.21917    0.71517    1.000
    O83      O        0.82647    0.22205    0.17357    1.000
    O84      O        0.81242    0.26267    0.17297    1.000
    O85      O        0.79496    0.22430    0.38737    1.000
    O86      O        0.97398    0.45446    0.04897    1.000
    O87      O        0.99057    0.47306    0.28687    1.000
    O88      O        0.02866    0.43878    0.30377    1.000
    O89      O        0.00720    0.44504    0.54957    1.000
    O90      O        0.01303    0.39912    0.51077    1.000
    C113     C        0.86331    0.25702    0.50937    1.000
    C114     C        0.85378    0.26752    0.37997    1.000
    C115     C        0.87175    0.29855    0.32997    1.000
    H49      H        0.86583    0.30507    0.23967    1.000
    C116     C        0.89894    0.32041    0.41377    1.000
    C117     C        0.90660    0.31002    0.54607    1.000
    H50      H        0.92373    0.32417    0.60627    1.000
    C118     C        0.88928    0.27870    0.59307    1.000
    H51      H        0.89533    0.27217    0.68307    1.000
    C119     C        0.84706    0.22380    0.57177    1.000
    C120     C        0.91852    0.35345    0.35537    1.000
    C121     C        0.90706    0.36799    0.25847    1.000
    H52      H        0.88583    0.35697    0.22887    1.000
    C122     C        0.92604    0.39831    0.20407    1.000
    H53      H        0.91793    0.40667    0.13127    1.000
    C123     C        0.95666    0.41648    0.25517    1.000
    C124     C        0.96886    0.40309    0.35577    1.000
    C125     C        0.95005    0.37112    0.40127    1.000
    H54      H        0.95893    0.36177    0.46277    1.000
    C126     C        0.97536    0.45007    0.19437    1.000
    K10      K        0.08596    0.59176    0.73740    1.000
    Sm10     Sm       0.00825    0.51387    0.04866    1.000
    S19      S        0.09001    0.57537    0.10525    1.000
    S20      S        0.08153    0.75635    0.26822    1.000
    O91      O        0.02793    0.53384    0.31030    1.000
    O92      O        0.04345    0.55250    0.54850    1.000
    O93      O        0.06224    0.55538    0.00690    1.000
    O94      O        0.11691    0.59600    0.00630    1.000
    O95      O        0.09600    0.55763    0.22070    1.000
    O96      O        0.14714    0.78779    0.88230    1.000
    O97      O        0.14915    0.80639    0.12020    1.000
    O98      O        0.07678    0.77211    0.13710    1.000
    O99      O        0.10450    0.77837    0.38290    1.000
    O100     O        0.05275    0.73245    0.34410    1.000
    C127     C        0.06037    0.59035    0.34270    1.000
    C128     C        0.08040    0.60085    0.21330    1.000
    C129     C        0.09346    0.63188    0.16330    1.000
    H55      H        0.10590    0.63840    0.07300    1.000
    C130     C        0.08813    0.65374    0.24710    1.000
    C131     C        0.07008    0.64335    0.37940    1.000
    H56      H        0.06710    0.65750    0.43960    1.000
    C132     C        0.05608    0.61203    0.42640    1.000
    H57      H        0.04350    0.60550    0.51640    1.000
    C133     C        0.04340    0.55713    0.40510    1.000
    C134     C        0.10159    0.68678    0.18870    1.000
    C135     C        0.12759    0.70132    0.09180    1.000
    H58      H        0.13780    0.69030    0.06220    1.000
    C136     C        0.13893    0.73164    0.03740    1.000
    H59      H        0.15540    0.74000    0.96460    1.000
    C137     C        0.12648    0.74981    0.08850    1.000
    C138     C        0.10089    0.73642    0.18910    1.000
    C139     C        0.08773    0.70445    0.23460    1.000
    H60      H        0.06950    0.69510    0.29610    1.000
    C140     C        0.14137    0.78340    0.02770    1.000
    K11      K        0.75263    0.92509    0.07073    1.000
    Sm11     Sm       0.67492    0.84720    0.38199    1.000
    S21      S        0.75668    0.90870    0.43858    1.000
    S22      S        0.74820    0.08968    0.60155    1.000
    O101     O        0.69460    0.86717    0.64363    1.000
    O102     O        0.71012    0.88583    0.88183    1.000
    O103     O        0.72891    0.88871    0.34023    1.000
    O104     O        0.78358    0.92933    0.33963    1.000
    O105     O        0.76267    0.89096    0.55403    1.000
    O106     O        0.81381    0.12112    0.21563    1.000
    O107     O        0.81582    0.13972    0.45353    1.000
    O108     O        0.74345    0.10544    0.47043    1.000
    O109     O        0.77117    0.11170    0.71623    1.000
    O110     O        0.71942    0.06578    0.67743    1.000
    C141     C        0.72704    0.92368    0.67603    1.000
    C142     C        0.74707    0.93418    0.54663    1.000
    C143     C        0.76013    0.96521    0.49663    1.000
    H61      H        0.77257    0.97173    0.40633    1.000
    C144     C        0.75480    0.98707    0.58043    1.000
    C145     C        0.73675    0.97668    0.71273    1.000
    H62      H        0.73377    0.99083    0.77293    1.000
    C146     C        0.72275    0.94536    0.75973    1.000
    H63      H        0.71017    0.93883    0.84973    1.000
    C147     C        0.71007    0.89046    0.73843    1.000
    C148     C        0.76826    0.02011    0.52203    1.000
    C149     C        0.79426    0.03465    0.42513    1.000
    H64      H        0.80447    0.02363    0.39553    1.000
    C150     C        0.80560    0.06497    0.37073    1.000
    H65      H        0.82207    0.07333    0.29793    1.000
    C151     C        0.79315    0.08314    0.42183    1.000
    C152     C        0.76756    0.06975    0.52243    1.000
    C153     C        0.75440    0.03778    0.56793    1.000
    H66      H        0.73617    0.02843    0.62943    1.000
    C154     C        0.80804    0.11673    0.36103    1.000
    K12      K        0.41929    0.25843    0.40407    1.000
    Sm12     Sm       0.34158    0.18054    0.71533    1.000
    S23      S        0.42334    0.24204    0.77192    1.000
    S24      S        0.41486    0.42302    0.93489    1.000
    O111     O        0.36126    0.20051    0.97697    1.000
    O112     O        0.37678    0.21917    0.21517    1.000
    O113     O        0.39557    0.22205    0.67357    1.000
    O114     O        0.45024    0.26267    0.67297    1.000
    O115     O        0.42933    0.22430    0.88737    1.000
    O116     O        0.48047    0.45446    0.54897    1.000
    O117     O        0.48248    0.47306    0.78687    1.000
    O118     O        0.41011    0.43878    0.80377    1.000
    O119     O        0.43783    0.44504    0.04957    1.000
    O120     O        0.38608    0.39912    0.01077    1.000
    C155     C        0.39370    0.25702    0.00937    1.000
    C156     C        0.41373    0.26752    0.87997    1.000
    C157     C        0.42679    0.29855    0.82997    1.000
    H67      H        0.43923    0.30507    0.73967    1.000
    C158     C        0.42146    0.32041    0.91377    1.000
    C159     C        0.40341    0.31002    0.04607    1.000
    H68      H        0.40043    0.32417    0.10627    1.000
    C160     C        0.38941    0.27870    0.09307    1.000
    H69      H        0.37683    0.27217    0.18307    1.000
    C161     C        0.37673    0.22380    0.07177    1.000
    C162     C        0.43492    0.35345    0.85537    1.000
    C163     C        0.46092    0.36799    0.75847    1.000
    H70      H        0.47113    0.35697    0.72887    1.000
    C164     C        0.47226    0.39831    0.70407    1.000
    H71      H        0.48873    0.40667    0.63127    1.000
    C165     C        0.45981    0.41648    0.75517    1.000
    C166     C        0.43422    0.40309    0.85577    1.000
    C167     C        0.42106    0.37112    0.90127    1.000
    H72      H        0.40283    0.36177    0.96277    1.000
    C168     C        0.47470    0.45007    0.69437    1.000
    K13      K        0.50580    0.91404    0.73740    1.000
    Sm13     Sm       0.50562    0.99175    0.04866    1.000
    S25      S        0.48536    0.90999    0.10525    1.000
    S26      S        0.67482    0.91847    0.26822    1.000
    O121     O        0.50591    0.97207    0.31030    1.000
    O122     O        0.50905    0.95655    0.54850    1.000
    O123     O        0.49314    0.93776    0.00690    1.000
    O124     O        0.47909    0.88309    0.00630    1.000
    O125     O        0.46163    0.90400    0.22070    1.000
    O126     O        0.64065    0.85286    0.88230    1.000
    O127     O        0.65724    0.85085    0.12020    1.000
    O128     O        0.69533    0.92322    0.13710    1.000
    O129     O        0.67387    0.89550    0.38290    1.000
    O130     O        0.67970    0.94725    0.34410    1.000
    C169     C        0.52998    0.93963    0.34270    1.000
    C170     C        0.52045    0.91960    0.21330    1.000
    C171     C        0.53842    0.90654    0.16330    1.000
    H73      H        0.53250    0.89410    0.07300    1.000
    C172     C        0.56561    0.91187    0.24710    1.000
    C173     C        0.57327    0.92992    0.37940    1.000
    H74      H        0.59040    0.93290    0.43960    1.000
    C174     C        0.55595    0.94392    0.42640    1.000
    H75      H        0.56200    0.95650    0.51640    1.000
    C175     C        0.51373    0.95660    0.40510    1.000
    C176     C        0.58519    0.89841    0.18870    1.000
    C177     C        0.57373    0.87241    0.09180    1.000
    H76      H        0.55250    0.86220    0.06220    1.000
    C178     C        0.59271    0.86107    0.03740    1.000
    H77      H        0.58460    0.84460    0.96460    1.000
    C179     C        0.62333    0.87352    0.08850    1.000
    C180     C        0.63553    0.89911    0.18910    1.000
    C181     C        0.61672    0.91227    0.23460    1.000
    H78      H        0.62560    0.93050    0.29610    1.000
    C182     C        0.64203    0.85863    0.02770    1.000
    K14      K        0.17247    0.24737    0.07073    1.000
    Sm14     Sm       0.17229    0.32508    0.38199    1.000
    S27      S        0.15203    0.24332    0.43858    1.000
    S28      S        0.34149    0.25180    0.60155    1.000
    O131     O        0.17258    0.30540    0.64363    1.000
    O132     O        0.17572    0.28988    0.88183    1.000
    O133     O        0.15981    0.27109    0.34023    1.000
    O134     O        0.14576    0.21642    0.33963    1.000
    O135     O        0.12830    0.23733    0.55403    1.000
    O136     O        0.30732    0.18619    0.21563    1.000
    O137     O        0.32391    0.18418    0.45353    1.000
    O138     O        0.36200    0.25655    0.47043    1.000
    O139     O        0.34054    0.22883    0.71623    1.000
    O140     O        0.34637    0.28058    0.67743    1.000
    C183     C        0.19665    0.27296    0.67603    1.000
    C184     C        0.18712    0.25293    0.54663    1.000
    C185     C        0.20509    0.23987    0.49663    1.000
    H79      H        0.19917    0.22743    0.40633    1.000
    C186     C        0.23228    0.24520    0.58043    1.000
    C187     C        0.23994    0.26325    0.71273    1.000
    H80      H        0.25707    0.26623    0.77293    1.000
    C188     C        0.22262    0.27725    0.75973    1.000
    H81      H        0.22867    0.28983    0.84973    1.000
    C189     C        0.18040    0.28993    0.73843    1.000
    C190     C        0.25186    0.23174    0.52203    1.000
    C191     C        0.24040    0.20574    0.42513    1.000
    H82      H        0.21917    0.19553    0.39553    1.000
    C192     C        0.25938    0.19440    0.37073    1.000
    H83      H        0.25127    0.17793    0.29793    1.000
    C193     C        0.29000    0.20685    0.42183    1.000
    C194     C        0.30220    0.23244    0.52243    1.000
    C195     C        0.28339    0.24560    0.56793    1.000
    H84      H        0.29227    0.26383    0.62943    1.000
    C196     C        0.30870    0.19196    0.36103    1.000
    K15      K        0.83913    0.58071    0.40407    1.000
    Sm15     Sm       0.83895    0.65842    0.71533    1.000
    S29      S        0.81869    0.57666    0.77192    1.000
    S30      S        0.00815    0.58514    0.93489    1.000
    O141     O        0.83924    0.63874    0.97697    1.000
    O142     O        0.84238    0.62322    0.21517    1.000
    O143     O        0.82647    0.60443    0.67357    1.000
    O144     O        0.81242    0.54976    0.67297    1.000
    O145     O        0.79496    0.57067    0.88737    1.000
    O146     O        0.97398    0.51953    0.54897    1.000
    O147     O        0.99057    0.51752    0.78687    1.000
    O148     O        0.02866    0.58989    0.80377    1.000
    O149     O        0.00720    0.56217    0.04957    1.000
    O150     O        0.01303    0.61392    0.01077    1.000
    C197     C        0.86331    0.60630    0.00937    1.000
    C198     C        0.85378    0.58627    0.87997    1.000
    C199     C        0.87175    0.57321    0.82997    1.000
    H85      H        0.86583    0.56077    0.73967    1.000
    C200     C        0.89894    0.57854    0.91377    1.000
    C201     C        0.90660    0.59659    0.04607    1.000
    H86      H        0.92373    0.59957    0.10627    1.000
    C202     C        0.88928    0.61059    0.09307    1.000
    H87      H        0.89533    0.62317    0.18307    1.000
    C203     C        0.84706    0.62327    0.07177    1.000
    C204     C        0.91852    0.56508    0.85537    1.000
    C205     C        0.90706    0.53908    0.75847    1.000
    H88      H        0.88583    0.52887    0.72887    1.000
    C206     C        0.92604    0.52774    0.70407    1.000
    H89      H        0.91793    0.51127    0.63127    1.000
    C207     C        0.95666    0.54019    0.75517    1.000
    C208     C        0.96886    0.56578    0.85577    1.000
    C209     C        0.95005    0.57894    0.90127    1.000
    H90      H        0.95893    0.59717    0.96277    1.000
    C210     C        0.97536    0.52530    0.69437    1.000
    K16      K        0.40824    0.49420    0.73740    1.000
    Sm16     Sm       0.48613    0.49438    0.04866    1.000
    S31      S        0.42463    0.51464    0.10525    1.000
    S32      S        0.24365    0.32518    0.26822    1.000
    O151     O        0.46616    0.49409    0.31030    1.000
    O152     O        0.44750    0.49095    0.54850    1.000
    O153     O        0.44462    0.50686    0.00690    1.000
    O154     O        0.40400    0.52091    0.00630    1.000
    O155     O        0.44237    0.53837    0.22070    1.000
    O156     O        0.21221    0.35935    0.88230    1.000
    O157     O        0.19361    0.34276    0.12020    1.000
    O158     O        0.22789    0.30467    0.13710    1.000
    O159     O        0.22163    0.32613    0.38290    1.000
    O160     O        0.26755    0.32030    0.34410    1.000
    C211     C        0.40965    0.47002    0.34270    1.000
    C212     C        0.39915    0.47955    0.21330    1.000
    C213     C        0.36812    0.46158    0.16330    1.000
    H91      H        0.36160    0.46750    0.07300    1.000
    C214     C        0.34626    0.43439    0.24710    1.000
    C215     C        0.35665    0.42673    0.37940    1.000
    H92      H        0.34250    0.40960    0.43960    1.000
    C216     C        0.38797    0.44405    0.42640    1.000
    H93      H        0.39450    0.43800    0.51640    1.000
    C217     C        0.44287    0.48627    0.40510    1.000
    C218     C        0.31322    0.41481    0.18870    1.000
    C219     C        0.29868    0.42627    0.09180    1.000
    H94      H        0.30970    0.44750    0.06220    1.000
    C220     C        0.26836    0.40729    0.03740    1.000
    H95      H        0.26000    0.41540    0.96460    1.000
    C221     C        0.25019    0.37667    0.08850    1.000
    C222     C        0.26358    0.36447    0.18910    1.000
    C223     C        0.29555    0.38328    0.23460    1.000
    H96      H        0.30490    0.37440    0.29610    1.000
    C224     C        0.21660    0.35797    0.02770    1.000
    K17      K        0.07491    0.82753    0.07073    1.000
    Sm17     Sm       0.15280    0.82771    0.38199    1.000
    S33      S        0.09130    0.84797    0.43858    1.000
    S34      S        0.91032    0.65851    0.60155    1.000
    O161     O        0.13283    0.82742    0.64363    1.000
    O162     O        0.11417    0.82428    0.88183    1.000
    O163     O        0.11129    0.84019    0.34023    1.000
    O164     O        0.07067    0.85424    0.33963    1.000
    O165     O        0.10904    0.87170    0.55403    1.000
    O166     O        0.87888    0.69268    0.21563    1.000
    O167     O        0.86028    0.67609    0.45353    1.000
    O168     O        0.89456    0.63800    0.47043    1.000
    O169     O        0.88830    0.65946    0.71623    1.000
    O170     O        0.93422    0.65363    0.67743    1.000
    C225     C        0.07632    0.80335    0.67603    1.000
    C226     C        0.06582    0.81288    0.54663    1.000
    C227     C        0.03479    0.79491    0.49663    1.000
    H97      H        0.02827    0.80083    0.40633    1.000
    C228     C        0.01293    0.76772    0.58043    1.000
    C229     C        0.02332    0.76006    0.71273    1.000
    H98      H        0.00917    0.74293    0.77293    1.000
    C230     C        0.05464    0.77738    0.75973    1.000
    H99      H        0.06117    0.77133    0.84973    1.000
    C231     C        0.10954    0.81960    0.73843    1.000
    C232     C        0.97989    0.74814    0.52203    1.000
    C233     C        0.96535    0.75960    0.42513    1.000
    H100     H        0.97637    0.78083    0.39553    1.000
    C234     C        0.93503    0.74062    0.37073    1.000
    H101     H        0.92667    0.74873    0.29793    1.000
    C235     C        0.91686    0.71000    0.42183    1.000
    C236     C        0.93025    0.69780    0.52243    1.000
    C237     C        0.96222    0.71661    0.56793    1.000
    H102     H        0.97157    0.70773    0.62943    1.000
    C238     C        0.88327    0.69130    0.36103    1.000
    K18      K        0.74157    0.16087    0.40407    1.000
    Sm18     Sm       0.81946    0.16105    0.71533    1.000
    S35      S        0.75796    0.18131    0.77192    1.000
    S36      S        0.57698    0.99185    0.93489    1.000
    O171     O        0.79949    0.16076    0.97697    1.000
    O172     O        0.78083    0.15762    0.21517    1.000
    O173     O        0.77795    0.17353    0.67357    1.000
    O174     O        0.73733    0.18758    0.67297    1.000
    O175     O        0.77570    0.20504    0.88737    1.000
    O176     O        0.54554    0.02602    0.54897    1.000
    O177     O        0.52694    0.00943    0.78687    1.000
    O178     O        0.56122    0.97134    0.80377    1.000
    O179     O        0.55496    0.99280    0.04957    1.000
    O180     O        0.60088    0.98697    0.01077    1.000
    C239     C        0.74298    0.13669    0.00937    1.000
    C240     C        0.73248    0.14622    0.87997    1.000
    C241     C        0.70145    0.12825    0.82997    1.000
    H103     H        0.69493    0.13417    0.73967    1.000
    C242     C        0.67959    0.10106    0.91377    1.000
    C243     C        0.68998    0.09340    0.04607    1.000
    H104     H        0.67583    0.07627    0.10627    1.000
    C244     C        0.72130    0.11072    0.09307    1.000
    H105     H        0.72783    0.10467    0.18307    1.000
    C245     C        0.77620    0.15294    0.07177    1.000
    C246     C        0.64655    0.08148    0.85537    1.000
    C247     C        0.63201    0.09294    0.75847    1.000
    H106     H        0.64303    0.11417    0.72887    1.000
    C248     C        0.60169    0.07396    0.70407    1.000
    H107     H        0.59333    0.08207    0.63127    1.000
    C249     C        0.58352    0.04334    0.75517    1.000
    C250     C        0.59691    0.03114    0.85577    1.000
    C251     C        0.62888    0.04995    0.90127    1.000
    H108     H        0.63823    0.04107    0.96277    1.000
    C252     C        0.54993    0.02464    0.69437    1.000
