data_functionalizedCrystal
_audit_creation_method	'EQeq! by Chris Wilmer'
_symmetry_space_group_name_H-M	'P1'
_symmetry_Int_Tables_number	1
_symmetry_cell_setting	triclinic
loop_
_symmetry_equiv_pos_as_xyz
  x,y,z
_cell_length_a	10.54
_cell_length_b	13.509
_cell_length_c	30.526
_cell_angle_alpha	90
_cell_angle_beta	90.14
_cell_angle_gamma	90
loop_
_atom_site_label
_atom_site_type_symbol
_atom_site_fract_x
_atom_site_fract_y
_atom_site_fract_z
_atom_site_charge
Mof_Co	Co	0.72115	0.16713	0.04831	1.153
Mof_Co	Co	0.17814	0.66651	0.21387	1.15
Mof_C 	C 	0.8581	0.813	0.18085	-0.045
Mof_O 	O 	0.67774	0.07562	0.09652	-0.42
Mof_O 	O 	0.377	0.52671	0.19049	-0.3
Mof_O 	O 	0.17805	0.55957	0.17012	-0.432
Mof_N 	N 	0.8879	0.24229	0.04363	-0.268
Mof_N 	N 	0.2218	0.41081	0.49031	-0.248
Mof_O 	O 	0.54649	0.22733	0.0392	-0.403
Mof_N 	N 	0.5166	0.82441	0.20686	-0.199
Mof_N 	N 	0.0718	0.31469	0.05166	-0.195
Mof_O 	O 	0.63321	0.29418	0.09802	-0.338
Mof_C 	C 	0.106	0.6421	0.30758	0.067
Mof_H 	H 	0.0443	0.6882	0.3	-0.004
Mof_N 	N 	0.1866	0.61015	0.27648	-0.255
Mof_O 	O 	0.8695	0.02321	0.0784	-0.328
Mof_C 	C 	0.4138	0.3292	0.08385	-0.024
Mof_C 	C 	0.2843	0.5136	0.16618	0.29
Mof_N 	N 	0.3324	0.75424	0.21496	-0.216
Mof_N 	N 	0.9212	0.28271	0.00343	-0.114
Mof_C 	C 	0.5397	0.2815	0.07336	0.277
Mof_C 	C 	0.0308	0.3266	0.00883	0.101
Mof_N 	N 	0.3616	0.8047	0.253	-0.243
Mof_H 	H 	0.3151	0.808	0.2761	0.111
Mof_C 	C 	0.101	0.4765	0.43062	-0.139
Mof_H 	H 	0.0218	0.4913	0.4188	0.089
Mof_C 	C 	0.1889	0.3454	0.07242	0.112
Mof_C 	C 	0.6464	0.9239	0.15748	-0.102
Mof_H 	H 	0.5759	0.9625	0.1508	0.084
Mof_C 	C 	0.9786	0.2616	0.07214	0.333
Mof_C 	C 	0.7726	0.0167	0.10123	0.281
Mof_C 	C 	0.2913	0.4406	0.12898	-0.03
Mof_C 	C 	0.0922	0.384	0.97363	0.016
Mof_C 	C 	0.1818	0.4156	0.10558	-0.113
Mof_H 	H 	0.1048	0.4457	0.1122	0.076
Mof_C 	C 	0.4064	0.3972	0.11769	-0.042
Mof_H 	H 	0.4794	0.4141	0.1331	0.067
Mof_C 	C 	0.2113	0.5006	0.40794	0.064
Mof_C 	C 	0.1115	0.6089	0.35044	-0.137
Mof_H 	H 	0.0534	0.632	0.3709	0.088
Mof_C 	C 	0.3268	0.4815	0.42837	-0.145
Mof_H 	H 	0.4025	0.4977	0.4145	0.094
Mof_C 	C 	0.2039	0.541	0.36282	0.051
Mof_C 	C 	0.1103	0.4305	0.4709	0.078
Mof_H 	H 	0.0361	0.4123	0.4852	-0.002
Mof_C 	C 	0.3225	0.7348	0.11584	-0.072
Mof_H 	H 	0.2493	0.7635	0.1271	0.058
Mof_C 	C 	0.303	0.3019	0.06077	-0.111
Mof_H 	H 	0.3065	0.2557	0.0382	0.088
Mof_C 	C 	0.7613	0.94	0.13611	-0.036
Mof_C 	C 	0.7432	0.7953	0.20142	-0.1
Mof_H 	H 	0.7366	0.7478	0.2233	0.075
Mof_C 	C 	0.2869	0.5075	0.33011	-0.142
Mof_H 	H 	0.3494	0.4612	0.3367	0.089
Mof_C 	C 	0.8659	0.8831	0.14791	-0.026
Mof_H 	H 	0.9425	0.8924	0.1334	0.058
Mof_C 	C 	0.1861	0.5009	0.90551	-0.078
Mof_H 	H 	0.2174	0.5397	0.8828	0.057
Mof_C 	C 	0.3285	0.4384	0.4693	0.087
Mof_H 	H 	0.4063	0.428	0.483	0.001
Mof_C 	C 	0.0662	0.3595	0.9302	-0.073
Mof_H 	H 	0.0175	0.3038	0.9238	0.067
Mof_C 	C 	0.1651	0.4679	0.98279	-0.078
Mof_H 	H 	0.1821	0.4855	0.0117	0.066
Mof_C 	C 	0.4264	0.7674	0.18663	0.109
Mof_C 	C 	0.2745	0.5439	0.28814	0.072
Mof_H 	H 	0.3303	0.5211	0.2668	-0
Mof_C 	C 	0.4313	0.7296	0.14148	-0.006
Mof_O 	O 	0.0754	0.7756	0.17648	-0.407
Mof_C 	C 	0.6382	0.8504	0.18855	0.11
Mof_O 	O 	0.9667	0.6836	0.21898	-0.39
Mof_C 	C 	0.5401	0.6868	0.12414	-0.051
Mof_H 	H 	0.6128	0.6816	0.1413	0.059
Mof_C 	C 	0.974	0.7538	0.19309	0.326
Mof_C 	C 	0.5395	0.9102	0.27974	-0.917
Mof_H 	H 	0.613	0.876	0.2906	0.293
Mof_H 	H 	0.4842	0.9257	0.3037	0.297
Mof_H 	H 	0.5654	0.9703	0.2656	0.307
Mof_C 	C 	0.4716	0.8463	0.24784	0.356
Mof_C 	C 	0.3223	0.6974	0.07363	-0.008
Mof_H 	H 	0.2487	0.6999	0.0568	0.032
Mof_C 	C 	0.4312	0.6563	0.05649	-0.059
Mof_H 	H 	0.4311	0.6315	0.0281	0.055
Mof_C 	C 	0.9807	0.2318	0.11887	-0.872
Mof_H 	H 	0.9654	0.2886	0.1369	0.279
Mof_H 	H 	0.0622	0.2042	0.1259	0.288
Mof_H 	H 	0.9161	0.1831	0.124	0.278
Mof_C 	C 	0.1127	0.418	0.89622	-0.007
Mof_H 	H 	0.0945	0.4016	0.8673	0.036
Mof_C 	C 	0.5407	0.6519	0.08158	-0.016
Mof_H 	H 	0.6146	0.6255	0.0698	0.045
Mof_C 	C 	0.2123	0.5252	0.94845	0.004
Mof_H 	H 	0.262	0.5804	0.9546	0.027
Mof_Co	Co	0.22115	0.33287	0.54831	1.152
Mof_Co	Co	0.67814	0.83349	0.71387	1.15
Mof_C 	C 	0.3581	0.687	0.68085	-0.045
Mof_O 	O 	0.17774	0.42438	0.59652	-0.42
Mof_O 	O 	0.877	0.97329	0.69049	-0.302
Mof_O 	O 	0.67805	0.94043	0.67012	-0.433
Mof_N 	N 	0.3879	0.25771	0.54363	-0.27
Mof_N 	N 	0.7218	0.08919	0.99031	-0.248
Mof_O 	O 	0.04649	0.27267	0.5392	-0.403
Mof_N 	N 	0.0166	0.67559	0.70686	-0.193
Mof_N 	N 	0.5718	0.18531	0.55166	-0.195
Mof_O 	O 	0.13321	0.20582	0.59802	-0.338
Mof_C 	C 	0.606	0.8579	0.80758	0.068
Mof_H 	H 	0.5443	0.8118	0.8	-0.004
Mof_N 	N 	0.6866	0.88985	0.77648	-0.255
Mof_O 	O 	0.3695	0.47679	0.5784	-0.328
Mof_C 	C 	0.9138	0.1708	0.58385	-0.025
Mof_C 	C 	0.7843	0.9864	0.66618	0.29
Mof_N 	N 	0.8324	0.74576	0.71496	-0.216
Mof_N 	N 	0.4212	0.21729	0.50343	-0.115
Mof_C 	C 	0.0397	0.2185	0.57336	0.278
Mof_C 	C 	0.5308	0.1734	0.50883	0.103
Mof_N 	N 	0.8616	0.6953	0.753	-0.24
Mof_H 	H 	0.8151	0.692	0.7761	0.11
Mof_C 	C 	0.601	0.0235	0.93062	-0.137
Mof_H 	H 	0.5218	0.0087	0.9188	0.089
Mof_C 	C 	0.6889	0.1546	0.57242	0.113
Mof_C 	C 	0.1464	0.5761	0.65748	-0.103
Mof_H 	H 	0.0759	0.5375	0.6508	0.085
Mof_C 	C 	0.4786	0.2384	0.57214	0.334
Mof_C 	C 	0.2726	0.4833	0.60123	0.28
Mof_C 	C 	0.7913	0.0594	0.62898	-0.029
Mof_C 	C 	0.5922	0.116	0.47363	0.015
Mof_C 	C 	0.6818	0.0844	0.60558	-0.114
Mof_H 	H 	0.6048	0.0543	0.6122	0.077
Mof_C 	C 	0.9064	0.1028	0.61769	-0.041
Mof_H 	H 	0.9794	0.0859	0.6331	0.066
Mof_C 	C 	0.7113	0.9994	0.90794	0.061
Mof_C 	C 	0.6115	0.8911	0.85044	-0.138
Mof_H 	H 	0.5534	0.868	0.8709	0.089
Mof_C 	C 	0.8268	0.0185	0.92837	-0.143
Mof_H 	H 	0.9025	0.0023	0.9145	0.093
Mof_C 	C 	0.7039	0.959	0.86282	0.053
Mof_C 	C 	0.6103	0.0695	0.9709	0.077
Mof_H 	H 	0.5361	0.0877	0.9852	-0.002
Mof_C 	C 	0.8225	0.7652	0.61584	-0.072
Mof_H 	H 	0.7493	0.7365	0.6271	0.058
Mof_C 	C 	0.803	0.1981	0.56077	-0.11
Mof_H 	H 	0.8065	0.2443	0.5382	0.088
Mof_C 	C 	0.2613	0.56	0.63611	-0.034
Mof_C 	C 	0.2432	0.7047	0.70142	-0.1
Mof_H 	H 	0.2366	0.7522	0.7233	0.076
Mof_C 	C 	0.7869	0.9925	0.83011	-0.145
Mof_H 	H 	0.8494	0.0388	0.8367	0.09
Mof_C 	C 	0.3659	0.6169	0.64791	-0.028
Mof_H 	H 	0.4425	0.6076	0.6334	0.058
Mof_C 	C 	0.6861	0.9991	0.40551	-0.079
Mof_H 	H 	0.7174	0.9603	0.3828	0.057
Mof_C 	C 	0.8285	0.0616	0.9693	0.086
Mof_H 	H 	0.9063	0.072	0.983	0.001
Mof_C 	C 	0.5662	0.1405	0.4302	-0.073
Mof_H 	H 	0.5175	0.1962	0.4238	0.066
Mof_C 	C 	0.6651	0.0321	0.48279	-0.078
Mof_H 	H 	0.6821	0.0145	0.5117	0.066
Mof_C 	C 	0.9264	0.7326	0.68663	0.107
Mof_C 	C 	0.7745	0.9561	0.78814	0.073
Mof_H 	H 	0.8303	0.9789	0.7668	-0.002
Mof_C 	C 	0.9313	0.7704	0.64148	-0.009
Mof_O 	O 	0.5754	0.7244	0.67648	-0.404
Mof_C 	C 	0.1382	0.6496	0.68855	0.11
Mof_O 	O 	0.4667	0.8164	0.71898	-0.391
Mof_C 	C 	0.0401	0.8132	0.62414	-0.048
Mof_H 	H 	0.1128	0.8184	0.6413	0.058
Mof_C 	C 	0.474	0.7462	0.69309	0.323
Mof_C 	C 	0.0395	0.5898	0.77974	-0.88
Mof_H 	H 	0.113	0.624	0.7906	0.283
Mof_H 	H 	0.9842	0.5743	0.8037	0.283
Mof_H 	H 	0.0654	0.5297	0.7656	0.297
Mof_C 	C 	0.9716	0.6537	0.74784	0.341
Mof_C 	C 	0.8223	0.8026	0.57363	-0.007
Mof_H 	H 	0.7487	0.8001	0.5568	0.032
Mof_C 	C 	0.9312	0.8437	0.55649	-0.063
Mof_H 	H 	0.9311	0.8685	0.5281	0.056
Mof_C 	C 	0.4807	0.2682	0.61887	-0.886
Mof_H 	H 	0.4654	0.2114	0.6369	0.282
Mof_H 	H 	0.5622	0.2958	0.6259	0.295
Mof_H 	H 	0.4161	0.3169	0.624	0.282
Mof_C 	C 	0.6127	0.082	0.39622	-0.007
Mof_H 	H 	0.5945	0.0984	0.3673	0.035
Mof_C 	C 	0.0407	0.8481	0.58158	-0.013
Mof_H 	H 	0.1146	0.8745	0.5698	0.044
Mof_C 	C 	0.7123	0.9748	0.44845	0.003
Mof_H 	H 	0.762	0.9196	0.4546	0.027
Mof_Co	Co	0.77885	0.66713	0.45169	1.152
Mof_Co	Co	0.32186	0.16651	0.28613	1.15
Mof_C 	C 	0.6419	0.313	0.31915	-0.045
Mof_O 	O 	0.82226	0.57562	0.40348	-0.42
Mof_O 	O 	0.123	0.02671	0.30951	-0.302
Mof_O 	O 	0.32195	0.05957	0.32988	-0.433
Mof_N 	N 	0.6121	0.74229	0.45637	-0.27
Mof_N 	N 	0.2782	0.91081	0.00969	-0.248
Mof_O 	O 	0.95351	0.72733	0.4608	-0.403
Mof_N 	N 	0.9834	0.32441	0.29314	-0.193
Mof_N 	N 	0.4282	0.81469	0.44834	-0.195
Mof_O 	O 	0.86679	0.79418	0.40198	-0.338
Mof_C 	C 	0.394	0.1421	0.19242	0.068
Mof_H 	H 	0.4557	0.1882	0.2	-0.004
Mof_N 	N 	0.3134	0.11015	0.22352	-0.255
Mof_O 	O 	0.6305	0.52321	0.4216	-0.328
Mof_C 	C 	0.0862	0.8292	0.41615	-0.025
Mof_C 	C 	0.2157	0.0136	0.33382	0.29
Mof_N 	N 	0.1676	0.25424	0.28504	-0.216
Mof_N 	N 	0.5788	0.78271	0.49657	-0.115
Mof_C 	C 	0.9603	0.7815	0.42664	0.278
Mof_C 	C 	0.4692	0.8266	0.49117	0.103
Mof_N 	N 	0.1384	0.3047	0.247	-0.24
Mof_H 	H 	0.1849	0.308	0.2239	0.11
Mof_C 	C 	0.399	0.9765	0.06938	-0.137
Mof_H 	H 	0.4782	0.9913	0.0812	0.089
Mof_C 	C 	0.3111	0.8454	0.42758	0.113
Mof_C 	C 	0.8536	0.4239	0.34252	-0.103
Mof_H 	H 	0.9241	0.4625	0.3492	0.085
Mof_C 	C 	0.5214	0.7616	0.42786	0.334
Mof_C 	C 	0.7274	0.5167	0.39877	0.28
Mof_C 	C 	0.2087	0.9406	0.37102	-0.029
Mof_C 	C 	0.4078	0.884	0.52637	0.015
Mof_C 	C 	0.3182	0.9156	0.39442	-0.114
Mof_H 	H 	0.3952	0.9457	0.3878	0.077
Mof_C 	C 	0.0936	0.8972	0.38231	-0.041
Mof_H 	H 	0.0206	0.9141	0.3669	0.066
Mof_C 	C 	0.2887	0.0006	0.09206	0.061
Mof_C 	C 	0.3885	0.1089	0.14956	-0.138
Mof_H 	H 	0.4466	0.132	0.1291	0.089
Mof_C 	C 	0.1732	0.9815	0.07163	-0.143
Mof_H 	H 	0.0975	0.9977	0.0855	0.093
Mof_C 	C 	0.2961	0.041	0.13718	0.053
Mof_C 	C 	0.3897	0.9305	0.0291	0.077
Mof_H 	H 	0.4639	0.9123	0.0148	-0.002
Mof_C 	C 	0.1775	0.2348	0.38416	-0.072
Mof_H 	H 	0.2507	0.2635	0.3729	0.058
Mof_C 	C 	0.197	0.8019	0.43923	-0.11
Mof_H 	H 	0.1935	0.7557	0.4618	0.088
Mof_C 	C 	0.7387	0.44	0.36389	-0.034
Mof_C 	C 	0.7568	0.2953	0.29858	-0.1
Mof_H 	H 	0.7634	0.2478	0.2767	0.076
Mof_C 	C 	0.2131	0.0075	0.16989	-0.145
Mof_H 	H 	0.1506	0.9612	0.1633	0.09
Mof_C 	C 	0.6341	0.3831	0.35209	-0.028
Mof_H 	H 	0.5575	0.3924	0.3666	0.058
Mof_C 	C 	0.3139	0.0009	0.59449	-0.079
Mof_H 	H 	0.2826	0.0397	0.6172	0.057
Mof_C 	C 	0.1715	0.9384	0.0307	0.086
Mof_H 	H 	0.0937	0.928	0.017	0.001
Mof_C 	C 	0.4338	0.8595	0.5698	-0.073
Mof_H 	H 	0.4825	0.8038	0.5762	0.066
Mof_C 	C 	0.3349	0.9679	0.51721	-0.078
Mof_H 	H 	0.3179	0.9855	0.4883	0.066
Mof_C 	C 	0.0736	0.2674	0.31337	0.107
Mof_C 	C 	0.2255	0.0439	0.21186	0.073
Mof_H 	H 	0.1697	0.0211	0.2332	-0.002
Mof_C 	C 	0.0687	0.2296	0.35852	-0.009
Mof_O 	O 	0.4246	0.2756	0.32352	-0.404
Mof_C 	C 	0.8618	0.3504	0.31145	0.11
Mof_O 	O 	0.5333	0.1836	0.28102	-0.391
Mof_C 	C 	0.9599	0.1868	0.37586	-0.048
Mof_H 	H 	0.8872	0.1816	0.3587	0.058
Mof_C 	C 	0.526	0.2538	0.30691	0.323
Mof_C 	C 	0.9605	0.4102	0.22026	-0.88
Mof_H 	H 	0.887	0.376	0.2094	0.283
Mof_H 	H 	0.0158	0.4257	0.1963	0.283
Mof_H 	H 	0.9346	0.4703	0.2344	0.297
Mof_C 	C 	0.0284	0.3463	0.25216	0.341
Mof_C 	C 	0.1777	0.1974	0.42637	-0.007
Mof_H 	H 	0.2513	0.1999	0.4432	0.032
Mof_C 	C 	0.0688	0.1563	0.44351	-0.063
Mof_H 	H 	0.0689	0.1315	0.4719	0.056
Mof_C 	C 	0.5193	0.7318	0.38113	-0.886
Mof_H 	H 	0.5346	0.7886	0.3631	0.282
Mof_H 	H 	0.4378	0.7042	0.3741	0.295
Mof_H 	H 	0.5839	0.6831	0.376	0.282
Mof_C 	C 	0.3873	0.918	0.60378	-0.007
Mof_H 	H 	0.4055	0.9016	0.6327	0.035
Mof_C 	C 	0.9593	0.1519	0.41842	-0.013
Mof_H 	H 	0.8854	0.1255	0.4302	0.044
Mof_C 	C 	0.2877	0.0252	0.55155	0.003
Mof_H 	H 	0.238	0.0804	0.5454	0.027
Mof_Co	Co	0.27885	0.83287	0.95169	1.152
Mof_Co	Co	0.82186	0.33349	0.78613	1.149
Mof_C 	C 	0.1419	0.187	0.81915	-0.046
Mof_O 	O 	0.32226	0.92438	0.90348	-0.421
Mof_O 	O 	0.623	0.47329	0.80951	-0.301
Mof_O 	O 	0.82195	0.44043	0.82988	-0.433
Mof_N 	N 	0.1121	0.75771	0.95637	-0.269
Mof_N 	N 	0.7782	0.58919	0.50969	-0.249
Mof_O 	O 	0.45351	0.77267	0.9608	-0.403
Mof_N 	N 	0.4834	0.17559	0.79314	-0.199
Mof_N 	N 	0.9282	0.68531	0.94834	-0.195
Mof_O 	O 	0.36679	0.70582	0.90198	-0.338
Mof_C 	C 	0.894	0.3579	0.69242	0.067
Mof_H 	H 	0.9557	0.3118	0.7	-0.004
Mof_N 	N 	0.8134	0.38985	0.72352	-0.255
Mof_O 	O 	0.1305	0.97679	0.9216	-0.328
Mof_C 	C 	0.5862	0.6708	0.91615	-0.024
Mof_C 	C 	0.7157	0.4864	0.83382	0.29
Mof_N 	N 	0.6676	0.24576	0.78504	-0.216
Mof_N 	N 	0.0788	0.71729	0.99657	-0.114
Mof_C 	C 	0.4603	0.7185	0.92664	0.277
Mof_C 	C 	0.9692	0.6734	0.99117	0.101
Mof_N 	N 	0.6384	0.1953	0.747	-0.243
Mof_H 	H 	0.6849	0.192	0.7239	0.111
Mof_C 	C 	0.899	0.5235	0.56938	-0.139
Mof_H 	H 	0.9782	0.5087	0.5812	0.089
Mof_C 	C 	0.8111	0.6546	0.92758	0.112
Mof_C 	C 	0.3536	0.0761	0.84252	-0.102
Mof_H 	H 	0.4241	0.0375	0.8492	0.084
Mof_C 	C 	0.0214	0.7384	0.92786	0.333
Mof_C 	C 	0.2274	0.9833	0.89877	0.281
Mof_C 	C 	0.7087	0.5594	0.87102	-0.03
Mof_C 	C 	0.9078	0.616	0.02637	0.016
Mof_C 	C 	0.8182	0.5844	0.89442	-0.113
Mof_H 	H 	0.8952	0.5543	0.8878	0.076
Mof_C 	C 	0.5936	0.6028	0.88231	-0.042
Mof_H 	H 	0.5206	0.5859	0.8669	0.067
Mof_C 	C 	0.7887	0.4994	0.59206	0.064
Mof_C 	C 	0.8885	0.3911	0.64956	-0.137
Mof_H 	H 	0.9466	0.368	0.6291	0.088
Mof_C 	C 	0.6732	0.5185	0.57163	-0.145
Mof_H 	H 	0.5975	0.5023	0.5855	0.094
Mof_C 	C 	0.7961	0.459	0.63718	0.051
Mof_C 	C 	0.8897	0.5695	0.5291	0.078
Mof_H 	H 	0.9639	0.5877	0.5148	-0.002
Mof_C 	C 	0.6775	0.2652	0.88416	-0.072
Mof_H 	H 	0.7507	0.2365	0.8729	0.058
Mof_C 	C 	0.697	0.6981	0.93923	-0.111
Mof_H 	H 	0.6935	0.7443	0.9618	0.088
Mof_C 	C 	0.2387	0.06	0.86389	-0.036
Mof_C 	C 	0.2568	0.2047	0.79858	-0.1
Mof_H 	H 	0.2634	0.2522	0.7767	0.075
Mof_C 	C 	0.7131	0.4925	0.66989	-0.142
Mof_H 	H 	0.6506	0.5388	0.6633	0.089
Mof_C 	C 	0.1341	0.1169	0.85209	-0.026
Mof_H 	H 	0.0575	0.1076	0.8666	0.058
Mof_C 	C 	0.8139	0.4991	0.09449	-0.078
Mof_H 	H 	0.7826	0.4603	0.1172	0.057
Mof_C 	C 	0.6715	0.5616	0.5307	0.087
Mof_H 	H 	0.5937	0.572	0.517	0.001
Mof_C 	C 	0.9338	0.6405	0.0698	-0.073
Mof_H 	H 	0.9825	0.6962	0.0762	0.067
Mof_C 	C 	0.8349	0.5321	0.01721	-0.078
Mof_H 	H 	0.8179	0.5145	0.9883	0.066
Mof_C 	C 	0.5736	0.2326	0.81337	0.109
Mof_C 	C 	0.7255	0.4561	0.71186	0.072
Mof_H 	H 	0.6697	0.4789	0.7332	-0
Mof_C 	C 	0.5687	0.2704	0.85852	-0.006
Mof_O 	O 	0.9246	0.2244	0.82352	-0.407
Mof_C 	C 	0.3618	0.1496	0.81145	0.11
Mof_O 	O 	0.0333	0.3164	0.78102	-0.39
Mof_C 	C 	0.4599	0.3132	0.87586	-0.051
Mof_H 	H 	0.3872	0.3184	0.8587	0.059
Mof_C 	C 	0.026	0.2462	0.80691	0.326
Mof_C 	C 	0.4605	0.0898	0.72026	-0.917
Mof_H 	H 	0.387	0.124	0.7094	0.293
Mof_H 	H 	0.5158	0.0743	0.6963	0.297
Mof_H 	H 	0.4346	0.0297	0.7344	0.307
Mof_C 	C 	0.5284	0.1537	0.75216	0.356
Mof_C 	C 	0.6777	0.3026	0.92637	-0.008
Mof_H 	H 	0.7513	0.3001	0.9432	0.032
Mof_C 	C 	0.5688	0.3437	0.94351	-0.059
Mof_H 	H 	0.5689	0.3685	0.9719	0.055
Mof_C 	C 	0.0193	0.7682	0.88113	-0.872
Mof_H 	H 	0.0346	0.7114	0.8631	0.279
Mof_H 	H 	0.9378	0.7958	0.8741	0.288
Mof_H 	H 	0.0839	0.8169	0.876	0.278
Mof_C 	C 	0.8873	0.582	0.10378	-0.007
Mof_H 	H 	0.9055	0.5984	0.1327	0.036
Mof_C 	C 	0.4593	0.3481	0.91842	-0.016
Mof_H 	H 	0.3854	0.3745	0.9302	0.045
Mof_C 	C 	0.7877	0.4748	0.05155	0.004
Mof_H 	H 	0.738	0.4196	0.0454	0.027
_end
