data_functionalizedCrystal
_audit_creation_method	'EQeq! by Chris Wilmer'
_symmetry_space_group_name_H-M	'P1'
_symmetry_Int_Tables_number	1
_symmetry_cell_setting	triclinic
loop_
_symmetry_equiv_pos_as_xyz
  x,y,z
_cell_length_a	20.892
_cell_length_b	32.349
_cell_length_c	21.162
_cell_angle_alpha	90
_cell_angle_beta	90
_cell_angle_gamma	90
loop_
_atom_site_label
_atom_site_type_symbol
_atom_site_fract_x
_atom_site_fract_y
_atom_site_fract_z
_atom_site_charge
Mof_Cu	Cu	0.27948	0.73047	0.72781	0.915
Mof_Cu	Cu	0.2387	0.73874	0.3557	0.917
Mof_Cu	Cu	0.55735	0.65133	0.36726	0.915
Mof_Cu	Cu	0.67587	0.60377	0.37096	0.894
Mof_Cu	Cu	0.9704	0.52009	0.05422	0.897
Mof_Cu	Cu	0.22052	0.76953	0.22781	0.915
Mof_Cu	Cu	0.2613	0.76126	0.8557	0.917
Mof_Cu	Cu	0.94265	0.84867	0.86726	0.915
Mof_Cu	Cu	0.82413	0.89623	0.87096	0.895
Mof_Cu	Cu	0.5296	0.97991	0.55422	0.9
Mof_Cu	Cu	0.27948	0.26953	0.77219	0.916
Mof_Cu	Cu	0.2387	0.26126	0.1443	0.918
Mof_Cu	Cu	0.55735	0.34867	0.13274	0.917
Mof_Cu	Cu	0.67587	0.39623	0.12904	0.895
Mof_Cu	Cu	0.9704	0.47991	0.44578	0.898
Mof_Cu	Cu	0.22052	0.23047	0.27219	0.916
Mof_Cu	Cu	0.2613	0.23874	0.6443	0.918
Mof_Cu	Cu	0.94265	0.15133	0.63274	0.916
Mof_Cu	Cu	0.82413	0.10377	0.62904	0.894
Mof_Cu	Cu	0.5296	0.02009	0.94578	0.896
Mof_Cu	Cu	0.72052	0.26953	0.27219	0.916
Mof_Cu	Cu	0.7613	0.26126	0.6443	0.918
Mof_Cu	Cu	0.44265	0.34867	0.63274	0.917
Mof_Cu	Cu	0.32413	0.39623	0.62904	0.895
Mof_Cu	Cu	0.0296	0.47991	0.94578	0.898
Mof_Cu	Cu	0.77948	0.23047	0.77219	0.916
Mof_Cu	Cu	0.7387	0.23874	0.1443	0.918
Mof_Cu	Cu	0.05735	0.15133	0.13274	0.916
Mof_Cu	Cu	0.17587	0.10377	0.12904	0.894
Mof_Cu	Cu	0.4704	0.02009	0.44578	0.896
Mof_Cu	Cu	0.72052	0.73047	0.22781	0.916
Mof_Cu	Cu	0.7613	0.73874	0.8557	0.918
Mof_Cu	Cu	0.44265	0.65133	0.86726	0.917
Mof_Cu	Cu	0.32413	0.60377	0.87096	0.895
Mof_Cu	Cu	0.0296	0.52009	0.55422	0.898
Mof_Cu	Cu	0.77948	0.76953	0.72781	0.916
Mof_Cu	Cu	0.7387	0.76126	0.3557	0.918
Mof_Cu	Cu	0.05735	0.84867	0.36726	0.916
Mof_Cu	Cu	0.17587	0.89623	0.37096	0.895
Mof_Cu	Cu	0.4704	0.97991	0.05422	0.9
Mof_H 	H 	0.2377	0.8056	0.675	0.224
Mof_H 	H 	0.3299	0.6567	0.7605	0.231
Mof_H 	H 	0.3368	0.7037	0.9158	0.238
Mof_H 	H 	0.204	0.8194	0.776	0.249
Mof_H 	H 	0.602	0.7186	0.3012	0.252
Mof_H 	H 	0.5222	0.5724	0.4185	0.172
Mof_H 	H 	0.6268	0.5581	0.4092	0.268
Mof_H 	H 	0.7521	0.6686	0.3451	0.241
Mof_H 	H 	0.0444	0.5273	0.1128	0.135
Mof_H 	H 	0.8391	0.5324	0.0453	0.226
Mof_H 	H 	0.1521	0.7191	0.6014	0.113
Mof_H 	H 	0.2223	0.7356	0.5948	0.101
Mof_H 	H 	0.1622	0.7907	0.6139	-0.029
Mof_H 	H 	0.1263	0.7687	0.6697	-0.018
Mof_H 	H 	0.2016	0.6481	0.6336	0.103
Mof_H 	H 	0.2631	0.6731	0.6151	0.106
Mof_H 	H 	0.293	0.6179	0.6725	-0.005
Mof_H 	H 	0.2453	0.6297	0.7268	-0.018
Mof_H 	H 	0.1153	0.6976	0.6988	0.106
Mof_H 	H 	0.1556	0.663	0.7325	0.115
Mof_H 	H 	0.134	0.7097	0.8126	-0.005
Mof_H 	H 	0.1495	0.7477	0.7691	-0.022
Mof_H 	H 	0.3721	0.8472	0.8451	0.098
Mof_H 	H 	0.4061	0.806	0.8661	0.11
Mof_H 	H 	0.3918	0.7971	0.7581	-0.01
Mof_H 	H 	0.3217	0.8149	0.7604	-0.036
Mof_H 	H 	0.3047	0.7971	0.9858	0.1
Mof_H 	H 	0.372	0.815	0.9672	0.103
Mof_H 	H 	0.3792	0.7458	0.9953	-0.025
Mof_H 	H 	0.4021	0.7528	0.9255	-0.025
Mof_H 	H 	0.2402	0.8421	0.9305	0.115
Mof_H 	H 	0.2978	0.8697	0.9085	0.112
Mof_H 	H 	0.2671	0.8641	0.8036	-0.047
Mof_H 	H 	0.2061	0.8777	0.8419	-0.039
Mof_H 	H 	0.4873	0.596	0.2342	0.11
Mof_H 	H 	0.5283	0.6344	0.2134	0.125
Mof_H 	H 	0.601	0.5863	0.2364	-0.009
Mof_H 	H 	0.564	0.572	0.297	-0.037
Mof_H 	H 	0.4207	0.6418	0.367	0.106
Mof_H 	H 	0.3987	0.6198	0.3048	0.103
Mof_H 	H 	0.4665	0.5625	0.3326	-0.016
Mof_H 	H 	0.4112	0.5696	0.3829	-0.006
Mof_H 	H 	0.4446	0.6971	0.3114	0.14
Mof_H 	H 	0.4433	0.6819	0.2412	0.142
Mof_H 	H 	0.508	0.7383	0.2529	-0.06
Mof_H 	H 	0.5466	0.7001	0.2278	-0.066
Mof_H 	H 	0.7264	0.6461	0.5039	0.116
Mof_H 	H 	0.6975	0.6086	0.5411	0.105
Mof_H 	H 	0.6043	0.6139	0.4917	-0.022
Mof_H 	H 	0.6229	0.6592	0.5111	-0.002
Mof_H 	H 	0.7324	0.5331	0.4335	0.094
Mof_H 	H 	0.7451	0.5441	0.5043	0.102
Mof_H 	H 	0.6302	0.553	0.5189	-0.015
Mof_H 	H 	0.6475	0.5072	0.499	-0.002
Mof_H 	H 	0.8188	0.6011	0.4757	0.122
Mof_H 	H 	0.8107	0.5787	0.4104	0.115
Mof_H 	H 	0.8456	0.6443	0.3912	-0.031
Mof_H 	H 	0.7907	0.663	0.4327	-0.046
Mof_H 	H 	0.078	0.5878	0.1843	0.002
Mof_H 	H 	0.0944	0.5921	0.1127	-0.005
Mof_H 	H 	0.9742	0.5897	0.1656	0.106
Mof_H 	H 	0.0059	0.627	0.1301	0.11
Mof_H 	H 	0.8231	0.5957	0.0383	-0.023
Mof_H 	H 	0.8778	0.5997	0.9881	-0.016
Mof_H 	H 	0.9133	0.6319	0.073	0.101
Mof_H 	H 	0.8922	0.5955	0.1178	0.095
Mof_H 	H 	0.0426	0.6187	0.0313	0.127
Mof_H 	H 	0.9812	0.6191	0.9885	0.128
Mof_H 	H 	0.0792	0.5619	0.9907	-0.07
Mof_H 	H 	0.0443	0.5802	0.9318	-0.039
Mof_H 	H 	0.2623	0.6944	0.175	0.224
Mof_H 	H 	0.1701	0.8433	0.2605	0.231
Mof_H 	H 	0.1632	0.7963	0.4158	0.238
Mof_H 	H 	0.296	0.6806	0.276	0.249
Mof_H 	H 	0.898	0.7814	0.8012	0.252
Mof_H 	H 	0.9778	0.9276	0.9185	0.171
Mof_H 	H 	0.8732	0.9419	0.9092	0.267
Mof_H 	H 	0.7479	0.8314	0.8451	0.241
Mof_H 	H 	0.4556	0.9727	0.6128	0.136
Mof_H 	H 	0.6609	0.9676	0.5453	0.227
Mof_H 	H 	0.3479	0.7809	0.1014	0.113
Mof_H 	H 	0.2777	0.7644	0.0948	0.1
Mof_H 	H 	0.3378	0.7093	0.1139	-0.029
Mof_H 	H 	0.3737	0.7313	0.1697	-0.018
Mof_H 	H 	0.2984	0.8519	0.1336	0.103
Mof_H 	H 	0.2369	0.8269	0.1151	0.106
Mof_H 	H 	0.207	0.8821	0.1725	-0.004
Mof_H 	H 	0.2547	0.8703	0.2268	-0.018
Mof_H 	H 	0.3847	0.8024	0.1988	0.106
Mof_H 	H 	0.3444	0.837	0.2325	0.115
Mof_H 	H 	0.366	0.7903	0.3126	-0.005
Mof_H 	H 	0.3505	0.7523	0.2691	-0.022
Mof_H 	H 	0.1279	0.6528	0.3451	0.098
Mof_H 	H 	0.0939	0.694	0.3661	0.11
Mof_H 	H 	0.1082	0.7029	0.2581	-0.01
Mof_H 	H 	0.1783	0.6851	0.2604	-0.036
Mof_H 	H 	0.1953	0.7029	0.4858	0.1
Mof_H 	H 	0.128	0.685	0.4672	0.102
Mof_H 	H 	0.1208	0.7542	0.4953	-0.025
Mof_H 	H 	0.0979	0.7472	0.4255	-0.025
Mof_H 	H 	0.2598	0.6579	0.4305	0.114
Mof_H 	H 	0.2022	0.6303	0.4085	0.112
Mof_H 	H 	0.2329	0.6359	0.3036	-0.047
Mof_H 	H 	0.2939	0.6223	0.3419	-0.04
Mof_H 	H 	0.0127	0.904	0.7342	0.112
Mof_H 	H 	0.9717	0.8656	0.7134	0.125
Mof_H 	H 	0.899	0.9137	0.7364	-0.009
Mof_H 	H 	0.936	0.928	0.797	-0.037
Mof_H 	H 	0.0793	0.8582	0.867	0.106
Mof_H 	H 	0.1013	0.8802	0.8048	0.103
Mof_H 	H 	0.0335	0.9375	0.8326	-0.014
Mof_H 	H 	0.0888	0.9304	0.8829	-0.004
Mof_H 	H 	0.0554	0.8029	0.8114	0.14
Mof_H 	H 	0.0567	0.8181	0.7412	0.142
Mof_H 	H 	0.992	0.7617	0.7529	-0.06
Mof_H 	H 	0.9534	0.7999	0.7278	-0.066
Mof_H 	H 	0.7736	0.8539	0.0039	0.116
Mof_H 	H 	0.8025	0.8914	0.0411	0.105
Mof_H 	H 	0.8957	0.8861	0.9917	-0.021
Mof_H 	H 	0.8771	0.8408	0.0111	-0.001
Mof_H 	H 	0.7676	0.9669	0.9335	0.096
Mof_H 	H 	0.7549	0.9559	0.0043	0.103
Mof_H 	H 	0.8698	0.947	0.0189	-0.013
Mof_H 	H 	0.8525	0.9928	0.999	0.001
Mof_H 	H 	0.6812	0.8989	0.9757	0.122
Mof_H 	H 	0.6893	0.9213	0.9104	0.116
Mof_H 	H 	0.6544	0.8557	0.8912	-0.031
Mof_H 	H 	0.7093	0.837	0.9327	-0.046
Mof_H 	H 	0.422	0.9122	0.6843	0.004
Mof_H 	H 	0.4056	0.9079	0.6127	-0.004
Mof_H 	H 	0.5258	0.9103	0.6656	0.105
Mof_H 	H 	0.4941	0.873	0.6301	0.109
Mof_H 	H 	0.6769	0.9043	0.5383	-0.022
Mof_H 	H 	0.6222	0.9003	0.4881	-0.014
Mof_H 	H 	0.5867	0.8681	0.573	0.1
Mof_H 	H 	0.6078	0.9045	0.6178	0.095
Mof_H 	H 	0.4574	0.8813	0.5313	0.126
Mof_H 	H 	0.5188	0.8809	0.4885	0.127
Mof_H 	H 	0.4208	0.9381	0.4907	-0.068
Mof_H 	H 	0.4557	0.9198	0.4318	-0.037
Mof_H 	H 	0.2377	0.1944	0.825	0.224
Mof_H 	H 	0.3299	0.3433	0.7395	0.231
Mof_H 	H 	0.3368	0.2963	0.5842	0.238
Mof_H 	H 	0.204	0.1806	0.724	0.249
Mof_H 	H 	0.602	0.2814	0.1988	0.252
Mof_H 	H 	0.5222	0.4276	0.0815	0.172
Mof_H 	H 	0.6268	0.4419	0.0908	0.268
Mof_H 	H 	0.7521	0.3314	0.1549	0.241
Mof_H 	H 	0.0444	0.4727	0.3872	0.135
Mof_H 	H 	0.8391	0.4676	0.4547	0.226
Mof_H 	H 	0.1521	0.2809	0.8986	0.113
Mof_H 	H 	0.2223	0.2644	0.9052	0.101
Mof_H 	H 	0.1622	0.2093	0.8861	-0.029
Mof_H 	H 	0.1263	0.2313	0.8303	-0.018
Mof_H 	H 	0.2016	0.3519	0.8664	0.103
Mof_H 	H 	0.2631	0.3269	0.8849	0.106
Mof_H 	H 	0.293	0.3821	0.8275	-0.005
Mof_H 	H 	0.2453	0.3703	0.7732	-0.018
Mof_H 	H 	0.1153	0.3024	0.8012	0.106
Mof_H 	H 	0.1556	0.337	0.7675	0.115
Mof_H 	H 	0.134	0.2903	0.6874	-0.005
Mof_H 	H 	0.1495	0.2523	0.7309	-0.022
Mof_H 	H 	0.3721	0.1528	0.6549	0.098
Mof_H 	H 	0.4061	0.194	0.6339	0.11
Mof_H 	H 	0.3918	0.2029	0.7419	-0.01
Mof_H 	H 	0.3217	0.1851	0.7396	-0.036
Mof_H 	H 	0.3047	0.2029	0.5142	0.1
Mof_H 	H 	0.372	0.185	0.5328	0.102
Mof_H 	H 	0.3792	0.2542	0.5047	-0.025
Mof_H 	H 	0.4021	0.2472	0.5745	-0.025
Mof_H 	H 	0.2402	0.1579	0.5695	0.114
Mof_H 	H 	0.2978	0.1303	0.5915	0.111
Mof_H 	H 	0.2671	0.1359	0.6964	-0.048
Mof_H 	H 	0.2061	0.1223	0.6581	-0.041
Mof_H 	H 	0.4873	0.404	0.2658	0.11
Mof_H 	H 	0.5283	0.3656	0.2866	0.125
Mof_H 	H 	0.601	0.4137	0.2636	-0.009
Mof_H 	H 	0.564	0.428	0.203	-0.037
Mof_H 	H 	0.4207	0.3582	0.133	0.106
Mof_H 	H 	0.3987	0.3802	0.1952	0.103
Mof_H 	H 	0.4665	0.4375	0.1674	-0.016
Mof_H 	H 	0.4112	0.4304	0.1171	-0.006
Mof_H 	H 	0.4446	0.3029	0.1886	0.14
Mof_H 	H 	0.4433	0.3181	0.2588	0.142
Mof_H 	H 	0.508	0.2617	0.2471	-0.06
Mof_H 	H 	0.5466	0.2999	0.2722	-0.066
Mof_H 	H 	0.7264	0.3539	0.9961	0.117
Mof_H 	H 	0.6975	0.3914	0.9589	0.105
Mof_H 	H 	0.6043	0.3861	0.0083	-0.022
Mof_H 	H 	0.6229	0.3408	0.9889	-0.003
Mof_H 	H 	0.7324	0.4669	0.0665	0.094
Mof_H 	H 	0.7451	0.4559	0.9957	0.102
Mof_H 	H 	0.6302	0.447	0.9811	-0.015
Mof_H 	H 	0.6475	0.4928	0.001	-0.002
Mof_H 	H 	0.8188	0.3989	0.0243	0.122
Mof_H 	H 	0.8107	0.4213	0.0896	0.115
Mof_H 	H 	0.8456	0.3557	0.1088	-0.031
Mof_H 	H 	0.7907	0.337	0.0673	-0.045
Mof_H 	H 	0.078	0.4122	0.3157	0.003
Mof_H 	H 	0.0944	0.4079	0.3873	-0.004
Mof_H 	H 	0.9742	0.4103	0.3344	0.105
Mof_H 	H 	0.0059	0.373	0.3699	0.109
Mof_H 	H 	0.8231	0.4043	0.4617	-0.023
Mof_H 	H 	0.8778	0.4003	0.5119	-0.015
Mof_H 	H 	0.9133	0.3681	0.427	0.101
Mof_H 	H 	0.8922	0.4045	0.3822	0.095
Mof_H 	H 	0.0426	0.3813	0.4687	0.127
Mof_H 	H 	0.9812	0.3809	0.5115	0.128
Mof_H 	H 	0.0792	0.4381	0.5093	-0.07
Mof_H 	H 	0.0443	0.4198	0.5682	-0.038
Mof_H 	H 	0.2623	0.3056	0.325	0.224
Mof_H 	H 	0.1701	0.1567	0.2395	0.231
Mof_H 	H 	0.1632	0.2037	0.0842	0.238
Mof_H 	H 	0.296	0.3194	0.224	0.249
Mof_H 	H 	0.898	0.2186	0.6988	0.252
Mof_H 	H 	0.9778	0.0724	0.5815	0.171
Mof_H 	H 	0.8732	0.0581	0.5908	0.269
Mof_H 	H 	0.7479	0.1686	0.6549	0.241
Mof_H 	H 	0.4556	0.0273	0.8872	0.134
Mof_H 	H 	0.6609	0.0324	0.9547	0.225
Mof_H 	H 	0.3479	0.2191	0.3986	0.113
Mof_H 	H 	0.2777	0.2356	0.4052	0.101
Mof_H 	H 	0.3378	0.2907	0.3861	-0.029
Mof_H 	H 	0.3737	0.2687	0.3303	-0.018
Mof_H 	H 	0.2984	0.1481	0.3664	0.103
Mof_H 	H 	0.2369	0.1731	0.3849	0.106
Mof_H 	H 	0.207	0.1179	0.3275	-0.005
Mof_H 	H 	0.2547	0.1297	0.2732	-0.018
Mof_H 	H 	0.3847	0.1976	0.3012	0.106
Mof_H 	H 	0.3444	0.163	0.2675	0.115
Mof_H 	H 	0.366	0.2097	0.1874	-0.005
Mof_H 	H 	0.3505	0.2477	0.2309	-0.022
Mof_H 	H 	0.1279	0.3472	0.1549	0.098
Mof_H 	H 	0.0939	0.306	0.1339	0.11
Mof_H 	H 	0.1082	0.2971	0.2419	-0.01
Mof_H 	H 	0.1783	0.3149	0.2396	-0.036
Mof_H 	H 	0.1953	0.2971	0.0142	0.1
Mof_H 	H 	0.128	0.315	0.0328	0.102
Mof_H 	H 	0.1208	0.2458	0.0047	-0.026
Mof_H 	H 	0.0979	0.2528	0.0745	-0.026
Mof_H 	H 	0.2598	0.3421	0.0695	0.114
Mof_H 	H 	0.2022	0.3697	0.0915	0.112
Mof_H 	H 	0.2329	0.3641	0.1964	-0.047
Mof_H 	H 	0.2939	0.3777	0.1581	-0.04
Mof_H 	H 	0.0127	0.096	0.7658	0.11
Mof_H 	H 	0.9717	0.1344	0.7866	0.125
Mof_H 	H 	0.899	0.0863	0.7636	-0.011
Mof_H 	H 	0.936	0.072	0.703	-0.039
Mof_H 	H 	0.0793	0.1418	0.633	0.107
Mof_H 	H 	0.1013	0.1198	0.6952	0.103
Mof_H 	H 	0.0335	0.0625	0.6674	-0.017
Mof_H 	H 	0.0888	0.0696	0.6171	-0.007
Mof_H 	H 	0.0554	0.1971	0.6886	0.14
Mof_H 	H 	0.0567	0.1819	0.7588	0.142
Mof_H 	H 	0.992	0.2383	0.7471	-0.06
Mof_H 	H 	0.9534	0.2001	0.7722	-0.066
Mof_H 	H 	0.7736	0.1461	0.4961	0.116
Mof_H 	H 	0.8025	0.1086	0.4589	0.105
Mof_H 	H 	0.8957	0.1139	0.5083	-0.022
Mof_H 	H 	0.8771	0.1592	0.4889	-0.002
Mof_H 	H 	0.7676	0.0331	0.5665	0.093
Mof_H 	H 	0.7549	0.0441	0.4957	0.101
Mof_H 	H 	0.8698	0.053	0.4811	-0.016
Mof_H 	H 	0.8525	0.0072	0.501	-0.004
Mof_H 	H 	0.6812	0.1011	0.5243	0.121
Mof_H 	H 	0.6893	0.0787	0.5896	0.114
Mof_H 	H 	0.6544	0.1443	0.6088	-0.031
Mof_H 	H 	0.7093	0.163	0.5673	-0.046
Mof_H 	H 	0.422	0.0878	0.8157	0.002
Mof_H 	H 	0.4056	0.0921	0.8873	-0.005
Mof_H 	H 	0.5258	0.0897	0.8344	0.104
Mof_H 	H 	0.4941	0.127	0.8699	0.109
Mof_H 	H 	0.6769	0.0957	0.9617	-0.023
Mof_H 	H 	0.6222	0.0997	0.0119	-0.014
Mof_H 	H 	0.5867	0.1319	0.927	0.1
Mof_H 	H 	0.6078	0.0955	0.8822	0.095
Mof_H 	H 	0.4574	0.1187	0.9687	0.128
Mof_H 	H 	0.5188	0.1191	0.0115	0.129
Mof_H 	H 	0.4208	0.0619	0.0093	-0.072
Mof_H 	H 	0.4557	0.0802	0.0682	-0.04
Mof_H 	H 	0.7623	0.1944	0.325	0.224
Mof_H 	H 	0.6701	0.3433	0.2395	0.231
Mof_H 	H 	0.6632	0.2963	0.0842	0.238
Mof_H 	H 	0.796	0.1806	0.224	0.249
Mof_H 	H 	0.398	0.2814	0.6988	0.252
Mof_H 	H 	0.4778	0.4276	0.5815	0.172
Mof_H 	H 	0.3732	0.4419	0.5908	0.268
Mof_H 	H 	0.2479	0.3314	0.6549	0.241
Mof_H 	H 	0.9556	0.4727	0.8872	0.135
Mof_H 	H 	0.1609	0.4676	0.9547	0.226
Mof_H 	H 	0.8479	0.2809	0.3986	0.113
Mof_H 	H 	0.7777	0.2644	0.4052	0.101
Mof_H 	H 	0.8378	0.2093	0.3861	-0.029
Mof_H 	H 	0.8737	0.2313	0.3303	-0.018
Mof_H 	H 	0.7984	0.3519	0.3664	0.103
Mof_H 	H 	0.7369	0.3269	0.3849	0.106
Mof_H 	H 	0.707	0.3821	0.3275	-0.005
Mof_H 	H 	0.7547	0.3703	0.2732	-0.018
Mof_H 	H 	0.8847	0.3024	0.3012	0.106
Mof_H 	H 	0.8444	0.337	0.2675	0.115
Mof_H 	H 	0.866	0.2903	0.1874	-0.005
Mof_H 	H 	0.8505	0.2523	0.2309	-0.022
Mof_H 	H 	0.6279	0.1528	0.1549	0.098
Mof_H 	H 	0.5939	0.194	0.1339	0.11
Mof_H 	H 	0.6082	0.2029	0.2419	-0.01
Mof_H 	H 	0.6783	0.1851	0.2396	-0.036
Mof_H 	H 	0.6953	0.2029	0.0142	0.1
Mof_H 	H 	0.628	0.185	0.0328	0.103
Mof_H 	H 	0.6208	0.2542	0.0047	-0.025
Mof_H 	H 	0.5979	0.2472	0.0745	-0.025
Mof_H 	H 	0.7598	0.1579	0.0695	0.114
Mof_H 	H 	0.7022	0.1303	0.0915	0.111
Mof_H 	H 	0.7329	0.1359	0.1964	-0.048
Mof_H 	H 	0.7939	0.1223	0.1581	-0.041
Mof_H 	H 	0.5127	0.404	0.7658	0.11
Mof_H 	H 	0.4717	0.3656	0.7866	0.125
Mof_H 	H 	0.399	0.4137	0.7636	-0.009
Mof_H 	H 	0.436	0.428	0.703	-0.037
Mof_H 	H 	0.5793	0.3582	0.633	0.106
Mof_H 	H 	0.6013	0.3802	0.6952	0.103
Mof_H 	H 	0.5335	0.4375	0.6674	-0.016
Mof_H 	H 	0.5888	0.4304	0.6171	-0.006
Mof_H 	H 	0.5554	0.3029	0.6886	0.14
Mof_H 	H 	0.5567	0.3181	0.7588	0.142
Mof_H 	H 	0.492	0.2617	0.7471	-0.06
Mof_H 	H 	0.4534	0.2999	0.7722	-0.066
Mof_H 	H 	0.2736	0.3539	0.4961	0.116
Mof_H 	H 	0.3025	0.3914	0.4589	0.105
Mof_H 	H 	0.3957	0.3861	0.5083	-0.022
Mof_H 	H 	0.3771	0.3408	0.4889	-0.002
Mof_H 	H 	0.2676	0.4669	0.5665	0.094
Mof_H 	H 	0.2549	0.4559	0.4957	0.102
Mof_H 	H 	0.3698	0.447	0.4811	-0.015
Mof_H 	H 	0.3525	0.4928	0.501	-0.002
Mof_H 	H 	0.1812	0.3989	0.5243	0.122
Mof_H 	H 	0.1893	0.4213	0.5896	0.115
Mof_H 	H 	0.1544	0.3557	0.6088	-0.031
Mof_H 	H 	0.2093	0.337	0.5673	-0.046
Mof_H 	H 	0.922	0.4122	0.8157	0.002
Mof_H 	H 	0.9056	0.4079	0.8873	-0.005
Mof_H 	H 	0.0258	0.4103	0.8344	0.106
Mof_H 	H 	0.9941	0.373	0.8699	0.11
Mof_H 	H 	0.1769	0.4043	0.9617	-0.023
Mof_H 	H 	0.1222	0.4003	0.0119	-0.016
Mof_H 	H 	0.0867	0.3681	0.927	0.101
Mof_H 	H 	0.1078	0.4045	0.8822	0.095
Mof_H 	H 	0.9574	0.3813	0.9687	0.127
Mof_H 	H 	0.0188	0.3809	0.0115	0.128
Mof_H 	H 	0.9208	0.4381	0.0093	-0.07
Mof_H 	H 	0.9557	0.4198	0.0682	-0.039
Mof_H 	H 	0.7377	0.3056	0.825	0.224
Mof_H 	H 	0.8299	0.1567	0.7395	0.231
Mof_H 	H 	0.8368	0.2037	0.5842	0.238
Mof_H 	H 	0.704	0.3194	0.724	0.249
Mof_H 	H 	0.102	0.2186	0.1988	0.252
Mof_H 	H 	0.0222	0.0724	0.0815	0.17
Mof_H 	H 	0.1268	0.0581	0.0908	0.269
Mof_H 	H 	0.2521	0.1686	0.1549	0.241
Mof_H 	H 	0.5444	0.0273	0.3872	0.134
Mof_H 	H 	0.3391	0.0324	0.4547	0.225
Mof_H 	H 	0.6521	0.2191	0.8986	0.113
Mof_H 	H 	0.7223	0.2356	0.9052	0.1
Mof_H 	H 	0.6622	0.2907	0.8861	-0.029
Mof_H 	H 	0.6263	0.2687	0.8303	-0.018
Mof_H 	H 	0.7016	0.1481	0.8664	0.103
Mof_H 	H 	0.7631	0.1731	0.8849	0.106
Mof_H 	H 	0.793	0.1179	0.8275	-0.005
Mof_H 	H 	0.7453	0.1297	0.7732	-0.018
Mof_H 	H 	0.6153	0.1976	0.8012	0.106
Mof_H 	H 	0.6556	0.163	0.7675	0.115
Mof_H 	H 	0.634	0.2097	0.6874	-0.005
Mof_H 	H 	0.6495	0.2477	0.7309	-0.022
Mof_H 	H 	0.8721	0.3472	0.6549	0.098
Mof_H 	H 	0.9061	0.306	0.6339	0.11
Mof_H 	H 	0.8918	0.2971	0.7419	-0.01
Mof_H 	H 	0.8217	0.3149	0.7396	-0.036
Mof_H 	H 	0.8047	0.2971	0.5142	0.1
Mof_H 	H 	0.872	0.315	0.5328	0.102
Mof_H 	H 	0.8792	0.2458	0.5047	-0.025
Mof_H 	H 	0.9021	0.2528	0.5745	-0.025
Mof_H 	H 	0.7402	0.3421	0.5695	0.114
Mof_H 	H 	0.7978	0.3697	0.5915	0.112
Mof_H 	H 	0.7671	0.3641	0.6964	-0.047
Mof_H 	H 	0.7061	0.3777	0.6581	-0.04
Mof_H 	H 	0.9873	0.096	0.2658	0.11
Mof_H 	H 	0.0283	0.1344	0.2866	0.125
Mof_H 	H 	0.101	0.0863	0.2636	-0.011
Mof_H 	H 	0.064	0.072	0.203	-0.039
Mof_H 	H 	0.9207	0.1418	0.133	0.107
Mof_H 	H 	0.8987	0.1198	0.1952	0.103
Mof_H 	H 	0.9665	0.0625	0.1674	-0.017
Mof_H 	H 	0.9112	0.0696	0.1171	-0.007
Mof_H 	H 	0.9446	0.1971	0.1886	0.14
Mof_H 	H 	0.9433	0.1819	0.2588	0.142
Mof_H 	H 	0.008	0.2383	0.2471	-0.06
Mof_H 	H 	0.0466	0.2001	0.2722	-0.066
Mof_H 	H 	0.2264	0.1461	0.9961	0.116
Mof_H 	H 	0.1975	0.1086	0.9589	0.104
Mof_H 	H 	0.1043	0.1139	0.0083	-0.021
Mof_H 	H 	0.1229	0.1592	0.9889	-0.001
Mof_H 	H 	0.2324	0.0331	0.0665	0.093
Mof_H 	H 	0.2451	0.0441	0.9957	0.101
Mof_H 	H 	0.1302	0.053	0.9811	-0.016
Mof_H 	H 	0.1475	0.0072	0.001	-0.004
Mof_H 	H 	0.3188	0.1011	0.0243	0.121
Mof_H 	H 	0.3107	0.0787	0.0896	0.114
Mof_H 	H 	0.3456	0.1443	0.1088	-0.031
Mof_H 	H 	0.2907	0.163	0.0673	-0.046
Mof_H 	H 	0.578	0.0878	0.3157	0.002
Mof_H 	H 	0.5944	0.0921	0.3873	-0.005
Mof_H 	H 	0.4742	0.0897	0.3344	0.104
Mof_H 	H 	0.5059	0.127	0.3699	0.109
Mof_H 	H 	0.3231	0.0957	0.4617	-0.024
Mof_H 	H 	0.3778	0.0997	0.5119	-0.015
Mof_H 	H 	0.4133	0.1319	0.427	0.101
Mof_H 	H 	0.3922	0.0955	0.3822	0.095
Mof_H 	H 	0.5426	0.1187	0.4687	0.127
Mof_H 	H 	0.4812	0.1191	0.5115	0.128
Mof_H 	H 	0.5792	0.0619	0.5093	-0.072
Mof_H 	H 	0.5443	0.0802	0.5682	-0.04
Mof_H 	H 	0.7623	0.8056	0.175	0.224
Mof_H 	H 	0.6701	0.6567	0.2605	0.231
Mof_H 	H 	0.6632	0.7037	0.4158	0.238
Mof_H 	H 	0.796	0.8194	0.276	0.249
Mof_H 	H 	0.398	0.7186	0.8012	0.252
Mof_H 	H 	0.4778	0.5724	0.9185	0.172
Mof_H 	H 	0.3732	0.5581	0.9092	0.268
Mof_H 	H 	0.2479	0.6686	0.8451	0.241
Mof_H 	H 	0.9556	0.5273	0.6128	0.135
Mof_H 	H 	0.1609	0.5324	0.5453	0.226
Mof_H 	H 	0.8479	0.7191	0.1014	0.113
Mof_H 	H 	0.7777	0.7356	0.0948	0.101
Mof_H 	H 	0.8378	0.7907	0.1139	-0.029
Mof_H 	H 	0.8737	0.7687	0.1697	-0.018
Mof_H 	H 	0.7984	0.6481	0.1336	0.103
Mof_H 	H 	0.7369	0.6731	0.1151	0.106
Mof_H 	H 	0.707	0.6179	0.1725	-0.005
Mof_H 	H 	0.7547	0.6297	0.2268	-0.018
Mof_H 	H 	0.8847	0.6976	0.1988	0.106
Mof_H 	H 	0.8444	0.663	0.2325	0.115
Mof_H 	H 	0.866	0.7097	0.3126	-0.005
Mof_H 	H 	0.8505	0.7477	0.2691	-0.022
Mof_H 	H 	0.6279	0.8472	0.3451	0.098
Mof_H 	H 	0.5939	0.806	0.3661	0.11
Mof_H 	H 	0.6082	0.7971	0.2581	-0.01
Mof_H 	H 	0.6783	0.8149	0.2604	-0.036
Mof_H 	H 	0.6953	0.7971	0.4858	0.1
Mof_H 	H 	0.628	0.815	0.4672	0.102
Mof_H 	H 	0.6208	0.7458	0.4953	-0.025
Mof_H 	H 	0.5979	0.7528	0.4255	-0.025
Mof_H 	H 	0.7598	0.8421	0.4305	0.114
Mof_H 	H 	0.7022	0.8697	0.4085	0.112
Mof_H 	H 	0.7329	0.8641	0.3036	-0.047
Mof_H 	H 	0.7939	0.8777	0.3419	-0.039
Mof_H 	H 	0.5127	0.596	0.7342	0.11
Mof_H 	H 	0.4717	0.6344	0.7134	0.125
Mof_H 	H 	0.399	0.5863	0.7364	-0.009
Mof_H 	H 	0.436	0.572	0.797	-0.037
Mof_H 	H 	0.5793	0.6418	0.867	0.106
Mof_H 	H 	0.6013	0.6198	0.8048	0.103
Mof_H 	H 	0.5335	0.5625	0.8326	-0.016
Mof_H 	H 	0.5888	0.5696	0.8829	-0.006
Mof_H 	H 	0.5554	0.6971	0.8114	0.14
Mof_H 	H 	0.5567	0.6819	0.7412	0.142
Mof_H 	H 	0.492	0.7383	0.7529	-0.06
Mof_H 	H 	0.4534	0.7001	0.7278	-0.066
Mof_H 	H 	0.2736	0.6461	0.0039	0.117
Mof_H 	H 	0.3025	0.6086	0.0411	0.105
Mof_H 	H 	0.3957	0.6139	0.9917	-0.022
Mof_H 	H 	0.3771	0.6592	0.0111	-0.003
Mof_H 	H 	0.2676	0.5331	0.9335	0.094
Mof_H 	H 	0.2549	0.5441	0.0043	0.102
Mof_H 	H 	0.3698	0.553	0.0189	-0.015
Mof_H 	H 	0.3525	0.5072	0.999	-0.002
Mof_H 	H 	0.1812	0.6011	0.9757	0.122
Mof_H 	H 	0.1893	0.5787	0.9104	0.115
Mof_H 	H 	0.1544	0.6443	0.8912	-0.031
Mof_H 	H 	0.2093	0.663	0.9327	-0.045
Mof_H 	H 	0.922	0.5878	0.6843	0.003
Mof_H 	H 	0.9056	0.5921	0.6127	-0.004
Mof_H 	H 	0.0258	0.5897	0.6656	0.105
Mof_H 	H 	0.9941	0.627	0.6301	0.109
Mof_H 	H 	0.1769	0.5957	0.5383	-0.023
Mof_H 	H 	0.1222	0.5997	0.4881	-0.015
Mof_H 	H 	0.0867	0.6319	0.573	0.101
Mof_H 	H 	0.1078	0.5955	0.6178	0.095
Mof_H 	H 	0.9574	0.6187	0.5313	0.127
Mof_H 	H 	0.0188	0.6191	0.4885	0.128
Mof_H 	H 	0.9208	0.5619	0.4907	-0.07
Mof_H 	H 	0.9557	0.5802	0.4318	-0.038
Mof_H 	H 	0.7377	0.6944	0.675	0.224
Mof_H 	H 	0.8299	0.8433	0.7605	0.231
Mof_H 	H 	0.8368	0.7963	0.9158	0.238
Mof_H 	H 	0.704	0.6806	0.776	0.249
Mof_H 	H 	0.102	0.7814	0.3012	0.252
Mof_H 	H 	0.0222	0.9276	0.4185	0.172
Mof_H 	H 	0.1268	0.9419	0.4092	0.267
Mof_H 	H 	0.2521	0.8314	0.3451	0.241
Mof_H 	H 	0.5444	0.9727	0.1128	0.136
Mof_H 	H 	0.3391	0.9676	0.0453	0.227
Mof_H 	H 	0.6521	0.7809	0.6014	0.113
Mof_H 	H 	0.7223	0.7644	0.5948	0.101
Mof_H 	H 	0.6622	0.7093	0.6139	-0.029
Mof_H 	H 	0.6263	0.7313	0.6697	-0.018
Mof_H 	H 	0.7016	0.8519	0.6336	0.103
Mof_H 	H 	0.7631	0.8269	0.6151	0.106
Mof_H 	H 	0.793	0.8821	0.6725	-0.004
Mof_H 	H 	0.7453	0.8703	0.7268	-0.018
Mof_H 	H 	0.6153	0.8024	0.6988	0.106
Mof_H 	H 	0.6556	0.837	0.7325	0.115
Mof_H 	H 	0.634	0.7903	0.8126	-0.005
Mof_H 	H 	0.6495	0.7523	0.7691	-0.022
Mof_H 	H 	0.8721	0.6528	0.8451	0.098
Mof_H 	H 	0.9061	0.694	0.8661	0.11
Mof_H 	H 	0.8918	0.7029	0.7581	-0.01
Mof_H 	H 	0.8217	0.6851	0.7604	-0.036
Mof_H 	H 	0.8047	0.7029	0.9858	0.1
Mof_H 	H 	0.872	0.685	0.9672	0.102
Mof_H 	H 	0.8792	0.7542	0.9953	-0.026
Mof_H 	H 	0.9021	0.7472	0.9255	-0.026
Mof_H 	H 	0.7402	0.6579	0.9305	0.114
Mof_H 	H 	0.7978	0.6303	0.9085	0.112
Mof_H 	H 	0.7671	0.6359	0.8036	-0.047
Mof_H 	H 	0.7061	0.6223	0.8419	-0.04
Mof_H 	H 	0.9873	0.904	0.2342	0.112
Mof_H 	H 	0.0283	0.8656	0.2134	0.125
Mof_H 	H 	0.101	0.9137	0.2364	-0.009
Mof_H 	H 	0.064	0.928	0.297	-0.037
Mof_H 	H 	0.9207	0.8582	0.367	0.106
Mof_H 	H 	0.8987	0.8802	0.3048	0.103
Mof_H 	H 	0.9665	0.9375	0.3326	-0.014
Mof_H 	H 	0.9112	0.9304	0.3829	-0.004
Mof_H 	H 	0.9446	0.8029	0.3114	0.14
Mof_H 	H 	0.9433	0.8181	0.2412	0.142
Mof_H 	H 	0.008	0.7617	0.2529	-0.06
Mof_H 	H 	0.0466	0.7999	0.2278	-0.066
Mof_H 	H 	0.2264	0.8539	0.5039	0.116
Mof_H 	H 	0.1975	0.8914	0.5411	0.105
Mof_H 	H 	0.1043	0.8861	0.4917	-0.021
Mof_H 	H 	0.1229	0.8408	0.5111	-0.002
Mof_H 	H 	0.2324	0.9669	0.4335	0.096
Mof_H 	H 	0.2451	0.9559	0.5043	0.103
Mof_H 	H 	0.1302	0.947	0.5189	-0.014
Mof_H 	H 	0.1475	0.9928	0.499	0.001
Mof_H 	H 	0.3188	0.8989	0.4757	0.122
Mof_H 	H 	0.3107	0.9213	0.4104	0.115
Mof_H 	H 	0.3456	0.8557	0.3912	-0.031
Mof_H 	H 	0.2907	0.837	0.4327	-0.046
Mof_H 	H 	0.578	0.9122	0.1843	0.004
Mof_H 	H 	0.5944	0.9079	0.1127	-0.004
Mof_H 	H 	0.4742	0.9103	0.1656	0.105
Mof_H 	H 	0.5059	0.873	0.1301	0.109
Mof_H 	H 	0.3231	0.9043	0.0383	-0.022
Mof_H 	H 	0.3778	0.9003	0.9881	-0.013
Mof_H 	H 	0.4133	0.8681	0.073	0.1
Mof_H 	H 	0.3922	0.9045	0.1178	0.095
Mof_H 	H 	0.5426	0.8813	0.0313	0.126
Mof_H 	H 	0.4812	0.8809	0.9885	0.128
Mof_H 	H 	0.5792	0.9381	0.9907	-0.068
Mof_H 	H 	0.5443	0.9198	0.9318	-0.037
Mof_W 	W 	0.42373	0.74209	0.52579	0.528
Mof_W 	W 	0.07627	0.75791	0.02579	0.527
Mof_W 	W 	0.42373	0.25791	0.97421	0.528
Mof_W 	W 	0.07627	0.24209	0.47421	0.529
Mof_W 	W 	0.57627	0.25791	0.47421	0.529
Mof_W 	W 	0.92373	0.24209	0.97421	0.527
Mof_W 	W 	0.57627	0.74209	0.02579	0.528
Mof_W 	W 	0.92373	0.75791	0.52579	0.529
Mof_W 	W 	0.82184	0.5	0.25	0.57
Mof_W 	W 	0.67816	3.53007e-33	0.75	0.554
Mof_W 	W 	0.17816	0.5	0.75	0.57
Mof_W 	W 	0.32184	0	0.25	0.555
Mof_C 	C 	0.3685	0.7423	0.6147	-0.002
Mof_C 	C 	0.3492	0.7424	0.4574	-0.028
Mof_C 	C 	0.4778	0.70445	0.46	-0.009
Mof_C 	C 	0.4946	0.77954	0.5742	-0.038
Mof_C 	C 	0.4803	0.70208	0.5828	-0.043
Mof_C 	C 	0.3751	0.6831	0.5288	-0.04
Mof_C 	C 	0.3795	0.7998	0.5412	-0.048
Mof_C 	C 	0.4574	0.7835	0.4531	-0.035
Mof_C 	C 	0.7546	0.5373	0.2935	-0.044
Mof_C 	C 	0.8916	0.49941	0.1811	-0.048
Mof_C 	C 	0.7799	0.5332	0.1752	-0.058
Mof_C 	C 	0.8653	0.5613	0.2548	-0.039
Mof_C 	C 	0.1874	0.7315	0.6244	-0.254
Mof_C 	C 	0.1673	0.7715	0.6487	0.195
Mof_C 	C 	0.236	0.6651	0.6502	-0.23
Mof_C 	C 	0.2733	0.6409	0.6945	0.187
Mof_C 	C 	0.1554	0.6919	0.7202	-0.212
Mof_C 	C 	0.162	0.7197	0.7794	0.159
Mof_C 	C 	0.3668	0.8175	0.849	-0.203
Mof_C 	C 	0.3528	0.7982	0.783	0.152
Mof_C 	C 	0.3387	0.7957	0.9546	-0.238
Mof_C 	C 	0.3652	0.7535	0.9532	0.202
Mof_C 	C 	0.2714	0.8462	0.8971	-0.252
Mof_C 	C 	0.2366	0.8555	0.8356	0.239
Mof_C 	C 	0.5177	0.6166	0.2488	-0.241
Mof_C 	C 	0.5761	0.596	0.2722	0.175
Mof_C 	C 	0.4342	0.6229	0.334	-0.212
Mof_C 	C 	0.4485	0.5818	0.3629	0.154
Mof_C 	C 	0.4701	0.6843	0.2785	-0.335
Mof_C 	C 	0.5237	0.711	0.264	0.337
Mof_C 	C 	0.6985	0.6223	0.5003	-0.235
Mof_C 	C 	0.6347	0.636	0.4845	0.139
Mof_C 	C 	0.7176	0.55	0.4685	-0.223
Mof_C 	C 	0.6483	0.5359	0.4857	0.172
Mof_C 	C 	0.7942	0.6007	0.4369	-0.276
Mof_C 	C 	0.8013	0.6408	0.4038	0.262
Mof_C 	C 	0.0648	0.57957	0.1423	0.141
Mof_C 	C 	0.0023	0.5971	0.1308	-0.236
Mof_C 	C 	0.8663	0.58707	0.0281	0.176
Mof_C 	C 	0.9089	0.6021	0.0763	-0.224
Mof_C 	C 	0.0089	0.6016	0.0139	-0.289
Mof_C 	C 	0.0374	0.56858	0.9735	0.266
Mof_C 	C 	0.1315	0.7577	0.1147	-0.002
Mof_C 	C 	0.1508	0.7576	0.9574	-0.027
Mof_C 	C 	0.0222	0.79555	0.96	-0.008
Mof_C 	C 	0.0054	0.72046	0.0742	-0.039
Mof_C 	C 	0.0197	0.79792	0.0828	-0.043
Mof_C 	C 	0.1249	0.8169	0.0288	-0.04
Mof_C 	C 	0.1205	0.7002	0.0412	-0.049
Mof_C 	C 	0.0426	0.7165	0.9531	-0.034
Mof_C 	C 	0.7454	0.9627	0.7935	-0.037
Mof_C 	C 	0.6084	0.00059	0.6811	-0.056
Mof_C 	C 	0.7201	0.9668	0.6752	-0.051
Mof_C 	C 	0.6347	0.9387	0.7548	-0.035
Mof_C 	C 	0.3126	0.7685	0.1244	-0.254
Mof_C 	C 	0.3327	0.7285	0.1487	0.195
Mof_C 	C 	0.264	0.8349	0.1502	-0.23
Mof_C 	C 	0.2267	0.8591	0.1945	0.187
Mof_C 	C 	0.3446	0.8081	0.2202	-0.212
Mof_C 	C 	0.338	0.7803	0.2794	0.159
Mof_C 	C 	0.1332	0.6825	0.349	-0.203
Mof_C 	C 	0.1472	0.7018	0.283	0.152
Mof_C 	C 	0.1613	0.7043	0.4546	-0.237
Mof_C 	C 	0.1348	0.7465	0.4532	0.202
Mof_C 	C 	0.2286	0.6538	0.3971	-0.252
Mof_C 	C 	0.2634	0.6445	0.3356	0.24
Mof_C 	C 	0.9823	0.8834	0.7488	-0.243
Mof_C 	C 	0.9239	0.904	0.7722	0.175
Mof_C 	C 	0.0658	0.8771	0.834	-0.211
Mof_C 	C 	0.0515	0.9182	0.8629	0.153
Mof_C 	C 	0.0299	0.8157	0.7785	-0.334
Mof_C 	C 	0.9763	0.789	0.764	0.336
Mof_C 	C 	0.8015	0.8777	0.0003	-0.234
Mof_C 	C 	0.8653	0.864	0.9845	0.137
Mof_C 	C 	0.7824	0.95	0.9685	-0.224
Mof_C 	C 	0.8517	0.9641	0.9857	0.17
Mof_C 	C 	0.7058	0.8993	0.9369	-0.277
Mof_C 	C 	0.6987	0.8592	0.9038	0.262
Mof_C 	C 	0.4352	0.92043	0.6423	0.139
Mof_C 	C 	0.4977	0.9029	0.6308	-0.233
Mof_C 	C 	0.6337	0.91293	0.5281	0.173
Mof_C 	C 	0.5911	0.8979	0.5763	-0.222
Mof_C 	C 	0.4911	0.8984	0.5139	-0.284
Mof_C 	C 	0.4626	0.93142	0.4735	0.26
Mof_C 	C 	0.3685	0.2577	0.8853	-0.002
Mof_C 	C 	0.3492	0.2576	0.0426	-0.028
Mof_C 	C 	0.4778	0.29555	0.04	-0.009
Mof_C 	C 	0.4946	0.22046	0.9258	-0.038
Mof_C 	C 	0.4803	0.29792	0.9172	-0.043
Mof_C 	C 	0.3751	0.3169	0.9712	-0.039
Mof_C 	C 	0.3795	0.2002	0.9588	-0.048
Mof_C 	C 	0.4574	0.2165	0.0469	-0.035
Mof_C 	C 	0.7546	0.4627	0.2065	-0.044
Mof_C 	C 	0.8916	0.50059	0.3189	-0.048
Mof_C 	C 	0.7799	0.4668	0.3248	-0.058
Mof_C 	C 	0.8653	0.4387	0.2452	-0.039
Mof_C 	C 	0.1874	0.2685	0.8756	-0.254
Mof_C 	C 	0.1673	0.2285	0.8513	0.195
Mof_C 	C 	0.236	0.3349	0.8498	-0.23
Mof_C 	C 	0.2733	0.3591	0.8055	0.187
Mof_C 	C 	0.1554	0.3081	0.7798	-0.212
Mof_C 	C 	0.162	0.2803	0.7206	0.159
Mof_C 	C 	0.3668	0.1825	0.651	-0.203
Mof_C 	C 	0.3528	0.2018	0.717	0.152
Mof_C 	C 	0.3387	0.2043	0.5454	-0.237
Mof_C 	C 	0.3652	0.2465	0.5468	0.202
Mof_C 	C 	0.2714	0.1538	0.6029	-0.252
Mof_C 	C 	0.2366	0.1445	0.6644	0.24
Mof_C 	C 	0.5177	0.3834	0.2512	-0.241
Mof_C 	C 	0.5761	0.404	0.2278	0.175
Mof_C 	C 	0.4342	0.3771	0.166	-0.212
Mof_C 	C 	0.4485	0.4182	0.1371	0.154
Mof_C 	C 	0.4701	0.3157	0.2215	-0.335
Mof_C 	C 	0.5237	0.289	0.236	0.337
Mof_C 	C 	0.6985	0.3777	0.9997	-0.237
Mof_C 	C 	0.6347	0.364	0.0155	0.141
Mof_C 	C 	0.7176	0.45	0.0315	-0.223
Mof_C 	C 	0.6483	0.4641	0.0143	0.172
Mof_C 	C 	0.7942	0.3993	0.0631	-0.277
Mof_C 	C 	0.8013	0.3592	0.0962	0.262
Mof_C 	C 	0.0648	0.42043	0.3577	0.141
Mof_C 	C 	0.0023	0.4029	0.3692	-0.235
Mof_C 	C 	0.8663	0.41293	0.4719	0.174
Mof_C 	C 	0.9089	0.3979	0.4237	-0.223
Mof_C 	C 	0.0089	0.3984	0.4861	-0.286
Mof_C 	C 	0.0374	0.43142	0.5265	0.263
Mof_C 	C 	0.1315	0.2423	0.3853	-0.002
Mof_C 	C 	0.1508	0.2424	0.5426	-0.028
Mof_C 	C 	0.0222	0.20445	0.54	-0.009
Mof_C 	C 	0.0054	0.27954	0.4258	-0.039
Mof_C 	C 	0.0197	0.20208	0.4172	-0.043
Mof_C 	C 	0.1249	0.1831	0.4712	-0.04
Mof_C 	C 	0.1205	0.2998	0.4588	-0.048
Mof_C 	C 	0.0426	0.2835	0.5469	-0.035
Mof_C 	C 	0.7454	0.0373	0.7065	-0.044
Mof_C 	C 	0.6084	0.99941	0.8189	-0.033
Mof_C 	C 	0.7201	0.0332	0.8248	-0.06
Mof_C 	C 	0.6347	0.0613	0.7452	-0.038
Mof_C 	C 	0.3126	0.2315	0.3756	-0.254
Mof_C 	C 	0.3327	0.2715	0.3513	0.195
Mof_C 	C 	0.264	0.1651	0.3498	-0.23
Mof_C 	C 	0.2267	0.1409	0.3055	0.188
Mof_C 	C 	0.3446	0.1919	0.2798	-0.212
Mof_C 	C 	0.338	0.2197	0.2206	0.159
Mof_C 	C 	0.1332	0.3175	0.151	-0.203
Mof_C 	C 	0.1472	0.2982	0.217	0.152
Mof_C 	C 	0.1613	0.2957	0.0454	-0.237
Mof_C 	C 	0.1348	0.2535	0.0468	0.202
Mof_C 	C 	0.2286	0.3462	0.1029	-0.252
Mof_C 	C 	0.2634	0.3555	0.1644	0.24
Mof_C 	C 	0.9823	0.1166	0.7512	-0.243
Mof_C 	C 	0.9239	0.096	0.7278	0.177
Mof_C 	C 	0.0658	0.1229	0.666	-0.213
Mof_C 	C 	0.0515	0.0818	0.6371	0.156
Mof_C 	C 	0.0299	0.1843	0.7215	-0.334
Mof_C 	C 	0.9763	0.211	0.736	0.337
Mof_C 	C 	0.8015	0.1223	0.4997	-0.235
Mof_C 	C 	0.8653	0.136	0.5155	0.139
Mof_C 	C 	0.7824	0.05	0.5315	-0.223
Mof_C 	C 	0.8517	0.0359	0.5143	0.173
Mof_C 	C 	0.7058	0.1007	0.5631	-0.276
Mof_C 	C 	0.6987	0.1408	0.5962	0.262
Mof_C 	C 	0.4352	0.07957	0.8577	0.141
Mof_C 	C 	0.4977	0.0971	0.8692	-0.234
Mof_C 	C 	0.6337	0.08707	0.9719	0.173
Mof_C 	C 	0.5911	0.1021	0.9237	-0.222
Mof_C 	C 	0.4911	0.1016	0.9861	-0.289
Mof_C 	C 	0.4626	0.06858	0.0265	0.267
Mof_C 	C 	0.6315	0.2577	0.3853	-0.002
Mof_C 	C 	0.6508	0.2576	0.5426	-0.028
Mof_C 	C 	0.5222	0.29555	0.54	-0.009
Mof_C 	C 	0.5054	0.22046	0.4258	-0.038
Mof_C 	C 	0.5197	0.29792	0.4172	-0.043
Mof_C 	C 	0.6249	0.3169	0.4712	-0.04
Mof_C 	C 	0.6205	0.2002	0.4588	-0.048
Mof_C 	C 	0.5426	0.2165	0.5469	-0.035
Mof_C 	C 	0.2454	0.4627	0.7065	-0.044
Mof_C 	C 	0.1084	0.50059	0.8189	-0.048
Mof_C 	C 	0.2201	0.4668	0.8248	-0.058
Mof_C 	C 	0.1347	0.4387	0.7452	-0.039
Mof_C 	C 	0.8126	0.2685	0.3756	-0.254
Mof_C 	C 	0.8327	0.2285	0.3513	0.195
Mof_C 	C 	0.764	0.3349	0.3498	-0.23
Mof_C 	C 	0.7267	0.3591	0.3055	0.187
Mof_C 	C 	0.8446	0.3081	0.2798	-0.212
Mof_C 	C 	0.838	0.2803	0.2206	0.159
Mof_C 	C 	0.6332	0.1825	0.151	-0.203
Mof_C 	C 	0.6472	0.2018	0.217	0.152
Mof_C 	C 	0.6613	0.2043	0.0454	-0.237
Mof_C 	C 	0.6348	0.2465	0.0468	0.202
Mof_C 	C 	0.7286	0.1538	0.1029	-0.252
Mof_C 	C 	0.7634	0.1445	0.1644	0.24
Mof_C 	C 	0.4823	0.3834	0.7512	-0.241
Mof_C 	C 	0.4239	0.404	0.7278	0.175
Mof_C 	C 	0.5658	0.3771	0.666	-0.212
Mof_C 	C 	0.5515	0.4182	0.6371	0.154
Mof_C 	C 	0.5299	0.3157	0.7215	-0.335
Mof_C 	C 	0.4763	0.289	0.736	0.337
Mof_C 	C 	0.3015	0.3777	0.4997	-0.235
Mof_C 	C 	0.3653	0.364	0.5155	0.139
Mof_C 	C 	0.2824	0.45	0.5315	-0.223
Mof_C 	C 	0.3517	0.4641	0.5143	0.172
Mof_C 	C 	0.2058	0.3993	0.5631	-0.276
Mof_C 	C 	0.1987	0.3592	0.5962	0.262
Mof_C 	C 	0.9352	0.42043	0.8577	0.141
Mof_C 	C 	0.9977	0.4029	0.8692	-0.236
Mof_C 	C 	0.1337	0.41293	0.9719	0.176
Mof_C 	C 	0.0911	0.3979	0.9237	-0.224
Mof_C 	C 	0.9911	0.3984	0.9861	-0.289
Mof_C 	C 	0.9626	0.43142	0.0265	0.266
Mof_C 	C 	0.8685	0.2423	0.8853	-0.002
Mof_C 	C 	0.8492	0.2424	0.0426	-0.027
Mof_C 	C 	0.9778	0.20445	0.04	-0.008
Mof_C 	C 	0.9946	0.27954	0.9258	-0.039
Mof_C 	C 	0.9803	0.20208	0.9172	-0.044
Mof_C 	C 	0.8751	0.1831	0.9712	-0.04
Mof_C 	C 	0.8795	0.2998	0.9588	-0.049
Mof_C 	C 	0.9574	0.2835	0.0469	-0.034
Mof_C 	C 	0.2546	0.0373	0.2065	-0.044
Mof_C 	C 	0.3916	0.99941	0.3189	-0.034
Mof_C 	C 	0.2799	0.0332	0.3248	-0.06
Mof_C 	C 	0.3653	0.0613	0.2452	-0.038
Mof_C 	C 	0.6874	0.2315	0.8756	-0.254
Mof_C 	C 	0.6673	0.2715	0.8513	0.195
Mof_C 	C 	0.736	0.1651	0.8498	-0.23
Mof_C 	C 	0.7733	0.1409	0.8055	0.188
Mof_C 	C 	0.6554	0.1919	0.7798	-0.212
Mof_C 	C 	0.662	0.2197	0.7206	0.159
Mof_C 	C 	0.8668	0.3175	0.651	-0.203
Mof_C 	C 	0.8528	0.2982	0.717	0.152
Mof_C 	C 	0.8387	0.2957	0.5454	-0.237
Mof_C 	C 	0.8652	0.2535	0.5468	0.202
Mof_C 	C 	0.7714	0.3462	0.6029	-0.252
Mof_C 	C 	0.7366	0.3555	0.6644	0.24
Mof_C 	C 	0.0177	0.1166	0.2512	-0.243
Mof_C 	C 	0.0761	0.096	0.2278	0.177
Mof_C 	C 	0.9342	0.1229	0.166	-0.213
Mof_C 	C 	0.9485	0.0818	0.1371	0.155
Mof_C 	C 	0.9701	0.1843	0.2215	-0.334
Mof_C 	C 	0.0237	0.211	0.236	0.336
Mof_C 	C 	0.1985	0.1223	0.9997	-0.233
Mof_C 	C 	0.1347	0.136	0.0155	0.137
Mof_C 	C 	0.2176	0.05	0.0315	-0.223
Mof_C 	C 	0.1483	0.0359	0.0143	0.172
Mof_C 	C 	0.2942	0.1007	0.0631	-0.276
Mof_C 	C 	0.3013	0.1408	0.0962	0.262
Mof_C 	C 	0.5648	0.07957	0.3577	0.141
Mof_C 	C 	0.5023	0.0971	0.3692	-0.234
Mof_C 	C 	0.3663	0.08707	0.4719	0.174
Mof_C 	C 	0.4089	0.1021	0.4237	-0.223
Mof_C 	C 	0.5089	0.1016	0.4861	-0.287
Mof_C 	C 	0.5374	0.06858	0.5265	0.266
Mof_C 	C 	0.6315	0.7423	0.1147	-0.002
Mof_C 	C 	0.6508	0.7424	0.9574	-0.028
Mof_C 	C 	0.5222	0.70445	0.96	-0.009
Mof_C 	C 	0.5054	0.77954	0.0742	-0.038
Mof_C 	C 	0.5197	0.70208	0.0828	-0.043
Mof_C 	C 	0.6249	0.6831	0.0288	-0.039
Mof_C 	C 	0.6205	0.7998	0.0412	-0.048
Mof_C 	C 	0.5426	0.7835	0.9531	-0.035
Mof_C 	C 	0.2454	0.5373	0.7935	-0.044
Mof_C 	C 	0.1084	0.49941	0.6811	-0.048
Mof_C 	C 	0.2201	0.5332	0.6752	-0.058
Mof_C 	C 	0.1347	0.5613	0.7548	-0.039
Mof_C 	C 	0.8126	0.7315	0.1244	-0.254
Mof_C 	C 	0.8327	0.7715	0.1487	0.195
Mof_C 	C 	0.764	0.6651	0.1502	-0.23
Mof_C 	C 	0.7267	0.6409	0.1945	0.187
Mof_C 	C 	0.8446	0.6919	0.2202	-0.212
Mof_C 	C 	0.838	0.7197	0.2794	0.159
Mof_C 	C 	0.6332	0.8175	0.349	-0.203
Mof_C 	C 	0.6472	0.7982	0.283	0.152
Mof_C 	C 	0.6613	0.7957	0.4546	-0.237
Mof_C 	C 	0.6348	0.7535	0.4532	0.202
Mof_C 	C 	0.7286	0.8462	0.3971	-0.252
Mof_C 	C 	0.7634	0.8555	0.3356	0.239
Mof_C 	C 	0.4823	0.6166	0.7488	-0.241
Mof_C 	C 	0.4239	0.596	0.7722	0.175
Mof_C 	C 	0.5658	0.6229	0.834	-0.212
Mof_C 	C 	0.5515	0.5818	0.8629	0.154
Mof_C 	C 	0.5299	0.6843	0.7785	-0.335
Mof_C 	C 	0.4763	0.711	0.764	0.337
Mof_C 	C 	0.3015	0.6223	0.0003	-0.237
Mof_C 	C 	0.3653	0.636	0.9845	0.141
Mof_C 	C 	0.2824	0.55	0.9685	-0.223
Mof_C 	C 	0.3517	0.5359	0.9857	0.172
Mof_C 	C 	0.2058	0.6007	0.9369	-0.277
Mof_C 	C 	0.1987	0.6408	0.9038	0.262
Mof_C 	C 	0.9352	0.57957	0.6423	0.141
Mof_C 	C 	0.9977	0.5971	0.6308	-0.235
Mof_C 	C 	0.1337	0.58707	0.5281	0.174
Mof_C 	C 	0.0911	0.6021	0.5763	-0.223
Mof_C 	C 	0.9911	0.6016	0.5139	-0.286
Mof_C 	C 	0.9626	0.56858	0.4735	0.263
Mof_C 	C 	0.8685	0.7577	0.6147	-0.002
Mof_C 	C 	0.8492	0.7576	0.4574	-0.028
Mof_C 	C 	0.9778	0.79555	0.46	-0.009
Mof_C 	C 	0.9946	0.72046	0.5742	-0.039
Mof_C 	C 	0.9803	0.79792	0.5828	-0.043
Mof_C 	C 	0.8751	0.8169	0.5288	-0.039
Mof_C 	C 	0.8795	0.7002	0.5412	-0.048
Mof_C 	C 	0.9574	0.7165	0.4531	-0.035
Mof_C 	C 	0.2546	0.9627	0.2935	-0.038
Mof_C 	C 	0.3916	0.00059	0.1811	-0.055
Mof_C 	C 	0.2799	0.9668	0.1752	-0.052
Mof_C 	C 	0.3653	0.9387	0.2548	-0.035
Mof_C 	C 	0.6874	0.7685	0.6244	-0.254
Mof_C 	C 	0.6673	0.7285	0.6487	0.195
Mof_C 	C 	0.736	0.8349	0.6502	-0.23
Mof_C 	C 	0.7733	0.8591	0.6945	0.187
Mof_C 	C 	0.6554	0.8081	0.7202	-0.212
Mof_C 	C 	0.662	0.7803	0.7794	0.159
Mof_C 	C 	0.8668	0.6825	0.849	-0.203
Mof_C 	C 	0.8528	0.7018	0.783	0.152
Mof_C 	C 	0.8387	0.7043	0.9546	-0.237
Mof_C 	C 	0.8652	0.7465	0.9532	0.202
Mof_C 	C 	0.7714	0.6538	0.8971	-0.252
Mof_C 	C 	0.7366	0.6445	0.8356	0.24
Mof_C 	C 	0.0177	0.8834	0.2488	-0.243
Mof_C 	C 	0.0761	0.904	0.2722	0.175
Mof_C 	C 	0.9342	0.8771	0.334	-0.212
Mof_C 	C 	0.9485	0.9182	0.3629	0.153
Mof_C 	C 	0.9701	0.8157	0.2785	-0.334
Mof_C 	C 	0.0237	0.789	0.264	0.336
Mof_C 	C 	0.1985	0.8777	0.5003	-0.235
Mof_C 	C 	0.1347	0.864	0.4845	0.139
Mof_C 	C 	0.2176	0.95	0.4685	-0.224
Mof_C 	C 	0.1483	0.9641	0.4857	0.17
Mof_C 	C 	0.2942	0.8993	0.4369	-0.277
Mof_C 	C 	0.3013	0.8592	0.4038	0.262
Mof_C 	C 	0.5648	0.92043	0.1423	0.139
Mof_C 	C 	0.5023	0.9029	0.1308	-0.233
Mof_C 	C 	0.3663	0.91293	0.0281	0.172
Mof_C 	C 	0.4089	0.8979	0.0763	-0.221
Mof_C 	C 	0.5089	0.8984	0.0139	-0.285
Mof_C 	C 	0.5374	0.93142	0.9735	0.261
Mof_N 	N 	0.3385	0.74245	0.6581	-0.205
Mof_N 	N 	0.3082	0.74119	0.419	-0.185
Mof_N 	N 	0.5062	0.68362	0.426	-0.193
Mof_N 	N 	0.5352	0.7973	0.5976	-0.111
Mof_N 	N 	0.5151	0.6787	0.6101	-0.095
Mof_N 	N 	0.349	0.65121	0.5262	-0.093
Mof_N 	N 	0.3546	0.83029	0.551	-0.104
Mof_N 	N 	0.4757	0.80338	0.4143	-0.098
Mof_N 	N 	0.7157	0.56031	0.3198	-0.193
Mof_N 	N 	0.9238	0.50147	0.1349	-0.185
Mof_N 	N 	0.7582	0.54864	0.1287	-0.096
Mof_N 	N 	0.8914	0.59383	0.2599	-0.098
Mof_N 	N 	0.2099	0.70057	0.6776	-0.097
Mof_N 	N 	0.3129	0.80818	0.8915	-0.103
Mof_N 	N 	0.4887	0.64135	0.2999	-0.087
Mof_N 	N 	0.7263	0.59263	0.4516	-0.103
Mof_N 	N 	0.9706	0.58235	0.0671	-0.107
Mof_N 	N 	0.1615	0.75755	0.1581	-0.205
Mof_N 	N 	0.1918	0.75881	0.919	-0.186
Mof_N 	N 	0.9938	0.81638	0.926	-0.195
Mof_N 	N 	0.9648	0.7027	0.0976	-0.111
Mof_N 	N 	0.9849	0.8213	0.1101	-0.094
Mof_N 	N 	0.151	0.84879	0.0262	-0.093
Mof_N 	N 	0.1454	0.66971	0.051	-0.104
Mof_N 	N 	0.0243	0.69662	0.9143	-0.098
Mof_N 	N 	0.7843	0.93969	0.8198	-0.194
Mof_N 	N 	0.5762	0.99853	0.6349	-0.178
Mof_N 	N 	0.7418	0.95136	0.6287	-0.096
Mof_N 	N 	0.6086	0.90617	0.7599	-0.098
Mof_N 	N 	0.2901	0.79943	0.1776	-0.097
Mof_N 	N 	0.1871	0.69182	0.3915	-0.103
Mof_N 	N 	0.0113	0.85865	0.7999	-0.087
Mof_N 	N 	0.7737	0.90737	0.9516	-0.103
Mof_N 	N 	0.5294	0.91765	0.5671	-0.109
Mof_N 	N 	0.3385	0.25755	0.8419	-0.205
Mof_N 	N 	0.3082	0.25881	0.081	-0.185
Mof_N 	N 	0.5062	0.31638	0.074	-0.193
Mof_N 	N 	0.5352	0.2027	0.9024	-0.111
Mof_N 	N 	0.5151	0.3213	0.8899	-0.095
Mof_N 	N 	0.349	0.34879	0.9738	-0.093
Mof_N 	N 	0.3546	0.16971	0.949	-0.104
Mof_N 	N 	0.4757	0.19662	0.0857	-0.098
Mof_N 	N 	0.7157	0.43969	0.1802	-0.193
Mof_N 	N 	0.9238	0.49853	0.3651	-0.185
Mof_N 	N 	0.7582	0.45136	0.3713	-0.096
Mof_N 	N 	0.8914	0.40617	0.2401	-0.098
Mof_N 	N 	0.2099	0.29943	0.8224	-0.097
Mof_N 	N 	0.3129	0.19182	0.6085	-0.103
Mof_N 	N 	0.4887	0.35865	0.2001	-0.087
Mof_N 	N 	0.7263	0.40737	0.0484	-0.103
Mof_N 	N 	0.9706	0.41765	0.4329	-0.108
Mof_N 	N 	0.1615	0.24245	0.3419	-0.205
Mof_N 	N 	0.1918	0.24119	0.581	-0.185
Mof_N 	N 	0.9938	0.18362	0.574	-0.194
Mof_N 	N 	0.9648	0.2973	0.4024	-0.111
Mof_N 	N 	0.9849	0.1787	0.3899	-0.095
Mof_N 	N 	0.151	0.15121	0.4738	-0.094
Mof_N 	N 	0.1454	0.33029	0.449	-0.104
Mof_N 	N 	0.0243	0.30338	0.5857	-0.098
Mof_N 	N 	0.7843	0.06031	0.6802	-0.194
Mof_N 	N 	0.5762	0.00147	0.8651	-0.193
Mof_N 	N 	0.7418	0.04864	0.8713	-0.097
Mof_N 	N 	0.6086	0.09383	0.7401	-0.098
Mof_N 	N 	0.2901	0.20057	0.3224	-0.097
Mof_N 	N 	0.1871	0.30818	0.1085	-0.103
Mof_N 	N 	0.0113	0.14135	0.7001	-0.087
Mof_N 	N 	0.7737	0.09263	0.5484	-0.103
Mof_N 	N 	0.5294	0.08235	0.9329	-0.108
Mof_N 	N 	0.6615	0.25755	0.3419	-0.205
Mof_N 	N 	0.6918	0.25881	0.581	-0.185
Mof_N 	N 	0.4938	0.31638	0.574	-0.193
Mof_N 	N 	0.4648	0.2027	0.4024	-0.111
Mof_N 	N 	0.4849	0.3213	0.3899	-0.095
Mof_N 	N 	0.651	0.34879	0.4738	-0.093
Mof_N 	N 	0.6454	0.16971	0.449	-0.104
Mof_N 	N 	0.5243	0.19662	0.5857	-0.098
Mof_N 	N 	0.2843	0.43969	0.6802	-0.193
Mof_N 	N 	0.0762	0.49853	0.8651	-0.185
Mof_N 	N 	0.2418	0.45136	0.8713	-0.096
Mof_N 	N 	0.1086	0.40617	0.7401	-0.098
Mof_N 	N 	0.7901	0.29943	0.3224	-0.097
Mof_N 	N 	0.6871	0.19182	0.1085	-0.103
Mof_N 	N 	0.5113	0.35865	0.7001	-0.087
Mof_N 	N 	0.2737	0.40737	0.5484	-0.103
Mof_N 	N 	0.0294	0.41765	0.9329	-0.107
Mof_N 	N 	0.8385	0.24245	0.8419	-0.205
Mof_N 	N 	0.8082	0.24119	0.081	-0.186
Mof_N 	N 	0.0062	0.18362	0.074	-0.195
Mof_N 	N 	0.0352	0.2973	0.9024	-0.111
Mof_N 	N 	0.0151	0.1787	0.8899	-0.095
Mof_N 	N 	0.849	0.15121	0.9738	-0.094
Mof_N 	N 	0.8546	0.33029	0.949	-0.104
Mof_N 	N 	0.9757	0.30338	0.0857	-0.098
Mof_N 	N 	0.2157	0.06031	0.1802	-0.194
Mof_N 	N 	0.4238	0.00147	0.3651	-0.192
Mof_N 	N 	0.2582	0.04864	0.3713	-0.097
Mof_N 	N 	0.3914	0.09383	0.2401	-0.098
Mof_N 	N 	0.7099	0.20057	0.8224	-0.097
Mof_N 	N 	0.8129	0.30818	0.6085	-0.103
Mof_N 	N 	0.9887	0.14135	0.2001	-0.087
Mof_N 	N 	0.2263	0.09263	0.0484	-0.103
Mof_N 	N 	0.4706	0.08235	0.4329	-0.108
Mof_N 	N 	0.6615	0.74245	0.1581	-0.205
Mof_N 	N 	0.6918	0.74119	0.919	-0.185
Mof_N 	N 	0.4938	0.68362	0.926	-0.193
Mof_N 	N 	0.4648	0.7973	0.0976	-0.111
Mof_N 	N 	0.4849	0.6787	0.1101	-0.095
Mof_N 	N 	0.651	0.65121	0.0262	-0.093
Mof_N 	N 	0.6454	0.83029	0.051	-0.104
Mof_N 	N 	0.5243	0.80338	0.9143	-0.098
Mof_N 	N 	0.2843	0.56031	0.8198	-0.193
Mof_N 	N 	0.0762	0.50147	0.6349	-0.185
Mof_N 	N 	0.2418	0.54864	0.6287	-0.096
Mof_N 	N 	0.1086	0.59383	0.7599	-0.098
Mof_N 	N 	0.7901	0.70057	0.1776	-0.097
Mof_N 	N 	0.6871	0.80818	0.3915	-0.103
Mof_N 	N 	0.5113	0.64135	0.7999	-0.087
Mof_N 	N 	0.2737	0.59263	0.9516	-0.103
Mof_N 	N 	0.0294	0.58235	0.5671	-0.108
Mof_N 	N 	0.8385	0.75755	0.6581	-0.205
Mof_N 	N 	0.8082	0.75881	0.419	-0.185
Mof_N 	N 	0.0062	0.81638	0.426	-0.194
Mof_N 	N 	0.0352	0.7027	0.5976	-0.111
Mof_N 	N 	0.0151	0.8213	0.6101	-0.095
Mof_N 	N 	0.849	0.84879	0.5262	-0.093
Mof_N 	N 	0.8546	0.66971	0.551	-0.104
Mof_N 	N 	0.9757	0.69662	0.4143	-0.098
Mof_N 	N 	0.2157	0.93969	0.3198	-0.194
Mof_N 	N 	0.4238	0.99853	0.1349	-0.179
Mof_N 	N 	0.2582	0.95136	0.1287	-0.096
Mof_N 	N 	0.3914	0.90617	0.2599	-0.098
Mof_N 	N 	0.7099	0.79943	0.6776	-0.097
Mof_N 	N 	0.8129	0.69182	0.8915	-0.103
Mof_N 	N 	0.9887	0.85865	0.2999	-0.087
Mof_N 	N 	0.2263	0.90737	0.4516	-0.103
Mof_N 	N 	0.4706	0.91765	0.0671	-0.109
Mof_O 	O 	0.2247	0.71904	0.7999	-0.462
Mof_O 	O 	0.2145	0.7875	0.693	-0.47
Mof_O 	O 	0.3216	0.6653	0.7234	-0.457
Mof_O 	O 	0.32889	0.75846	0.7925	-0.467
Mof_O 	O 	0.3191	0.72502	0.9317	-0.465
Mof_O 	O 	0.2053	0.82026	0.8161	-0.481
Mof_O 	O 	0.6145	0.62218	0.3094	-0.477
Mof_O 	O 	0.5638	0.71407	0.3132	-0.51
Mof_O 	O 	0.4943	0.59527	0.4076	-0.369
Mof_O 	O 	0.6331	0.64838	0.4185	-0.466
Mof_O 	O 	0.6143	0.54159	0.4263	-0.508
Mof_O 	O 	0.7633	0.64368	0.3517	-0.49
Mof_O 	O 	0.0718	0.536	0.1378	-0.336
Mof_O 	O 	0.8671	0.54255	0.0206	-0.442
Mof_O 	O 	0.0057	0.53353	0.9663	-0.486
Mof_O 	O 	0.2753	0.78096	0.2999	-0.462
Mof_O 	O 	0.2855	0.7125	0.193	-0.47
Mof_O 	O 	0.1784	0.8347	0.2234	-0.457
Mof_O 	O 	0.17111	0.74154	0.2925	-0.467
Mof_O 	O 	0.1809	0.77498	0.4317	-0.465
Mof_O 	O 	0.2947	0.67974	0.3161	-0.482
Mof_O 	O 	0.8855	0.87782	0.8094	-0.477
Mof_O 	O 	0.9362	0.78593	0.8132	-0.51
Mof_O 	O 	0.0057	0.90473	0.9076	-0.368
Mof_O 	O 	0.8669	0.85162	0.9185	-0.466
Mof_O 	O 	0.8857	0.95841	0.9263	-0.506
Mof_O 	O 	0.7367	0.85632	0.8517	-0.49
Mof_O 	O 	0.4282	0.964	0.6378	-0.333
Mof_O 	O 	0.6329	0.95745	0.5206	-0.441
Mof_O 	O 	0.4943	0.96647	0.4663	-0.482
Mof_O 	O 	0.2247	0.28096	0.7001	-0.462
Mof_O 	O 	0.2145	0.2125	0.807	-0.47
Mof_O 	O 	0.3216	0.3347	0.7766	-0.457
Mof_O 	O 	0.32889	0.24154	0.7075	-0.467
Mof_O 	O 	0.3191	0.27498	0.5683	-0.465
Mof_O 	O 	0.2053	0.17974	0.6839	-0.482
Mof_O 	O 	0.6145	0.37782	0.1906	-0.477
Mof_O 	O 	0.5638	0.28593	0.1868	-0.51
Mof_O 	O 	0.4943	0.40473	0.0924	-0.369
Mof_O 	O 	0.6331	0.35162	0.0815	-0.466
Mof_O 	O 	0.6143	0.45841	0.0737	-0.508
Mof_O 	O 	0.7633	0.35632	0.1483	-0.49
Mof_O 	O 	0.0718	0.464	0.3622	-0.335
Mof_O 	O 	0.8671	0.45745	0.4794	-0.442
Mof_O 	O 	0.0057	0.46647	0.5337	-0.486
Mof_O 	O 	0.2753	0.21904	0.2001	-0.462
Mof_O 	O 	0.2855	0.2875	0.307	-0.47
Mof_O 	O 	0.1784	0.1653	0.2766	-0.458
Mof_O 	O 	0.17111	0.25846	0.2075	-0.467
Mof_O 	O 	0.1809	0.22502	0.0683	-0.465
Mof_O 	O 	0.2947	0.32026	0.1839	-0.482
Mof_O 	O 	0.8855	0.12218	0.6906	-0.478
Mof_O 	O 	0.9362	0.21407	0.6868	-0.51
Mof_O 	O 	0.0057	0.09527	0.5924	-0.37
Mof_O 	O 	0.8669	0.14838	0.5815	-0.466
Mof_O 	O 	0.8857	0.04159	0.5737	-0.511
Mof_O 	O 	0.7367	0.14368	0.6483	-0.49
Mof_O 	O 	0.4282	0.036	0.8622	-0.337
Mof_O 	O 	0.6329	0.04255	0.9794	-0.443
Mof_O 	O 	0.4943	0.03353	0.0337	-0.49
Mof_O 	O 	0.7753	0.28096	0.2001	-0.462
Mof_O 	O 	0.7855	0.2125	0.307	-0.47
Mof_O 	O 	0.6784	0.3347	0.2766	-0.457
Mof_O 	O 	0.67111	0.24154	0.2075	-0.467
Mof_O 	O 	0.6809	0.27498	0.0683	-0.465
Mof_O 	O 	0.7947	0.17974	0.1839	-0.482
Mof_O 	O 	0.3855	0.37782	0.6906	-0.477
Mof_O 	O 	0.4362	0.28593	0.6868	-0.51
Mof_O 	O 	0.5057	0.40473	0.5924	-0.369
Mof_O 	O 	0.3669	0.35162	0.5815	-0.466
Mof_O 	O 	0.3857	0.45841	0.5737	-0.508
Mof_O 	O 	0.2367	0.35632	0.6483	-0.49
Mof_O 	O 	0.9282	0.464	0.8622	-0.336
Mof_O 	O 	0.1329	0.45745	0.9794	-0.442
Mof_O 	O 	0.9943	0.46647	0.0337	-0.486
Mof_O 	O 	0.7247	0.21904	0.7001	-0.462
Mof_O 	O 	0.7145	0.2875	0.807	-0.47
Mof_O 	O 	0.8216	0.1653	0.7766	-0.458
Mof_O 	O 	0.82889	0.25846	0.7075	-0.467
Mof_O 	O 	0.8191	0.22502	0.5683	-0.465
Mof_O 	O 	0.7053	0.32026	0.6839	-0.482
Mof_O 	O 	0.1145	0.12218	0.1906	-0.478
Mof_O 	O 	0.0638	0.21407	0.1868	-0.51
Mof_O 	O 	0.9943	0.09527	0.0924	-0.369
Mof_O 	O 	0.1331	0.14838	0.0815	-0.466
Mof_O 	O 	0.1143	0.04159	0.0737	-0.511
Mof_O 	O 	0.2633	0.14368	0.1483	-0.49
Mof_O 	O 	0.5718	0.036	0.3622	-0.337
Mof_O 	O 	0.3671	0.04255	0.4794	-0.443
Mof_O 	O 	0.5057	0.03353	0.5337	-0.49
Mof_O 	O 	0.7753	0.71904	0.2999	-0.462
Mof_O 	O 	0.7855	0.7875	0.193	-0.47
Mof_O 	O 	0.6784	0.6653	0.2234	-0.457
Mof_O 	O 	0.67111	0.75846	0.2925	-0.467
Mof_O 	O 	0.6809	0.72502	0.4317	-0.465
Mof_O 	O 	0.7947	0.82026	0.3161	-0.482
Mof_O 	O 	0.3855	0.62218	0.8094	-0.477
Mof_O 	O 	0.4362	0.71407	0.8132	-0.51
Mof_O 	O 	0.5057	0.59527	0.9076	-0.369
Mof_O 	O 	0.3669	0.64838	0.9185	-0.466
Mof_O 	O 	0.3857	0.54159	0.9263	-0.508
Mof_O 	O 	0.2367	0.64368	0.8517	-0.49
Mof_O 	O 	0.9282	0.536	0.6378	-0.335
Mof_O 	O 	0.1329	0.54255	0.5206	-0.442
Mof_O 	O 	0.9943	0.53353	0.4663	-0.486
Mof_O 	O 	0.7247	0.78096	0.7999	-0.462
Mof_O 	O 	0.7145	0.7125	0.693	-0.47
Mof_O 	O 	0.8216	0.8347	0.7234	-0.457
Mof_O 	O 	0.82889	0.74154	0.7925	-0.467
Mof_O 	O 	0.8191	0.77498	0.9317	-0.466
Mof_O 	O 	0.7053	0.67974	0.8161	-0.482
Mof_O 	O 	0.1145	0.87782	0.3094	-0.477
Mof_O 	O 	0.0638	0.78593	0.3132	-0.51
Mof_O 	O 	0.9943	0.90473	0.4076	-0.369
Mof_O 	O 	0.1331	0.85162	0.4185	-0.466
Mof_O 	O 	0.1143	0.95841	0.4263	-0.506
Mof_O 	O 	0.2633	0.85632	0.3517	-0.49
Mof_O 	O 	0.5718	0.964	0.1378	-0.333
Mof_O 	O 	0.3671	0.95745	0.0206	-0.44
Mof_O 	O 	0.5057	0.96647	0.9663	-0.482
_end
