data_functionalizedCrystal
_audit_creation_method	'EQeq! by Chris Wilmer'
_symmetry_space_group_name_H-M	'P1'
_symmetry_Int_Tables_number	1
_symmetry_cell_setting	triclinic
loop_
_symmetry_equiv_pos_as_xyz
  x,y,z
_cell_length_a	33.1436
_cell_length_b	12.1866
_cell_length_c	18.7113
_cell_angle_alpha	90
_cell_angle_beta	90
_cell_angle_gamma	90
loop_
_atom_site_label
_atom_site_type_symbol
_atom_site_fract_x
_atom_site_fract_y
_atom_site_fract_z
_atom_site_charge
Mof_N 	N 	0.32677	0.1072	0.8119	-0.216
Mof_N 	N 	0.28217	0.1821	0.6831	-0.242
Mof_N 	N 	0.87743	0.1835	0.3169	-0.24
Mof_O 	O 	0.07894	0.1216	0.5123	2.166
Mof_S 	S 	0.31027	0.9071	0.87958	0.565
Mof_C 	C 	0.31993	0.0244	0.8407	0.134
Mof_C 	C 	0.28266	0.1909	0.6118	0.095
Mof_H 	H 	0.3053	0.2219	0.5906	0.027
Mof_C 	C 	0.25198	0.1572	0.568	-0.113
Mof_H 	H 	0.2542	0.1637	0.5187	0.104
Mof_C 	C 	0.2171	0.1126	0.5993	0.078
Mof_C 	C 	0.21571	0.1053	0.6725	-0.122
Mof_H 	H 	0.1928	0.078	0.695	0.12
Mof_C 	C 	0.24866	0.1386	0.7127	0.09
Mof_H 	H 	0.2476	0.1307	0.7621	-0.019
Mof_C 	C 	0.18409	0.0736	0.5564	0.087
Mof_C 	C 	0.15683	0.0349	0.5241	-0.256
Mof_C 	C 	0.12585	0.9824	0.4819	0.44
Mof_C 	C 	0.13323	0.8832	0.4492	-0.351
Mof_H 	H 	0.1583	0.8503	0.4548	0.187
Mof_C 	C 	0.1042	0.8314	0.4084	0.423
Mof_H 	H 	0.1099	0.7654	0.3856	-0.033
Mof_C 	C 	0.06595	0.8808	0.4022	-0.362
Mof_H 	H 	0.0458	0.845	0.3766	0.642
Mof_C 	C 	0.05777	0.9808	0.4332	0.658
Mof_C 	C 	0.0876	0.0318	0.4737	-0.47
Mof_C 	C 	0.01916	0.0316	0.4214	0.105
Mof_C 	C 	0.98726	0.067	0.4049	0.108
Mof_C 	C 	0.94899	0.1079	0.3786	0.178
Mof_C 	C 	0.92388	0.0371	0.341	-0.172
Mof_H 	H 	0.9307	0.9636	0.3353	0.234
Mof_C 	C 	0.88861	0.0783	0.3122	0.153
Mof_H 	H 	0.8717	0.0301	0.2881	0.037
Mof_C 	C 	0.9012	0.2492	0.3557	0.174
Mof_H 	H 	0.8933	0.3217	0.3623	0.11
Mof_C 	C 	0.93701	0.2149	0.3866	-0.192
Mof_H 	H 	0.9528	0.2639	0.4126	0.366
Mof_C 	C 	0.085	0.2181	0.4872	0.541
Mof_H 	H 	0.1107	0.2179	0.4625	-2.955
Mof_H 	H 	0.0643	0.233	0.4518	29.123
Mof_C 	C 	0.0853	0.3128	0.5407	17.339
Mof_H 	H 	0.0941	0.379	0.5165	-20.496
Mof_H 	H 	0.1047	0.2967	0.5781	-8.192
Mof_C 	C 	0.0453	0.3336	0.574	10.346
Mof_F 	F 	0.0351	0.2429	0.6129	-34.926
Mof_F 	F 	0.017	0.3277	0.5196	-3.685
Mof_C 	C 	0.0418	0.4346	0.6151	-4.438
Mof_F 	F 	0.0461	0.5185	0.5673	0.474
Mof_F 	F 	0.0769	0.4452	0.6538	0.662
Mof_C 	C 	0.0112	0.4699	0.6656	5.191
Mof_F 	F 	0.0213	0.575	0.6934	-3.553
Mof_F 	F 	0.0139	0.407	0.7292	-0.266
Mof_C 	C 	0.9687	0.47	0.6492	0.48
Mof_F 	F 	0.9582	0.3612	0.6466	2.431
Mof_F 	F 	0.965	0.5149	0.5822	-0.507
Mof_C 	C 	0.9406	0.5265	0.6932	0.499
Mof_F 	F 	0.9416	0.6387	0.6764	-0.604
Mof_F 	F 	0.9504	0.535	0.7641	-0.321
Mof_C 	C 	0.8989	0.4903	0.6864	-2.604
Mof_F 	F 	0.8936	0.3944	0.71	-0.763
Mof_F 	F 	0.8748	0.555	0.7188	0.391
Mof_F 	F 	0.8853	0.493	0.6227	0.351
Mof_C 	C 	0.7926	0.2003	0.9251	-0.045
Mof_H 	H 	0.8035	0.258	0.9551	0.07
Mof_H 	H 	0.7636	0.2095	0.9276	-0.037
Mof_C 	C 	0.8025	0.242	0.8488	0.017
Mof_H 	H 	0.7804	0.2921	0.8404	0.141
Mof_H 	H 	0.8256	0.2884	0.8579	0.079
Mof_O 	O 	0.7994	0.1016	0.9682	0.315
Mof_H 	H 	0.7896	0.1104	0.0081	0.083
Mof_O 	O 	0.811	0.204	0.7769	-0.4
Mof_H 	H 	0.8146	0.2424	0.7491	0.276
Mof_C 	C 	0.737	0.12	0.032	0.402
Mof_H 	H 	0.721	0.1587	0.9957	0.011
Mof_H 	H 	0.7258	0.1452	0.0768	-0.124
Mof_C 	C 	0.719	0.004	0.027	-0.212
Mof_H 	H 	0.7212	0.9798	0.0759	0.07
Mof_H 	H 	0.6908	0.0193	0.0196	0.344
Mof_O 	O 	0.775	0.181	0.029	-0.46
Mof_H 	H 	0.7923	0.1415	0.0115	0.416
Mof_O 	O 	0.7237	0.901	0.988	-0.525
Mof_H 	H 	0.7015	0.88	0.9743	-0.02
Mof_C 	C 	0.5894	0.2173	0.5224	-9.08
Mof_C 	C 	0.5453	0.156	0.474	-1.547
Mof_C 	C 	0.6926	0.838	0.9244	-0.165
Mof_C 	C 	0.5758	0.209	0.0436	6.657
Mof_C 	C 	0.5111	0.205	0.424	24.976
Mof_C 	C 	0.7275	0.759	0.915	0.072
Mof_C 	C 	0.5376	0.1773	0.0833	20.21
Mof_C 	C 	0.5382	0.219	0.115	-4.261
Mof_C 	C 	0.5235	0.0705	0.1116	-1.956
Mof_C 	C 	0.5266	0.128	0.1608	-7.247
Mof_C 	C 	0.483	0.0628	0.1432	0.206
Mof_C 	C 	0.4979	0.0513	0.131	0.076
Mof_C 	C 	0.4621	0.9689	0.1782	-1.94
Mof_C 	C 	0.4774	0.9578	0.1677	-0.442
Mof_C 	C 	0.4197	0.9504	0.1873	0.578
Mof_C 	C 	0.4402	0.9358	0.2079	1.677
Mof_C 	C 	0.4073	0.858	0.232	-1.808
Mof_C 	C 	0.4305	0.831	0.2408	1.946
Mof_F 	F 	0.4022	0.046	0.2135	1.752
Mof_F 	F 	0.4078	0.966	0.165	0.412
Mof_F 	F 	0.4129	0.7673	0.2016	0.413
Mof_F 	F 	0.4266	0.7553	0.1948	-0.196
Mof_F 	F 	0.415	0.871	0.2971	0.082
Mof_F 	F 	0.4588	0.785	0.2729	-0.527
Mof_F 	F 	0.3695	0.848	0.2376	0.123
Mof_F 	F 	0.395	0.823	0.264	0.386
Mof_F 	F 	0.5061	0.2107	0.0385	-1.819
Mof_F 	F 	0.5666	0.181	0.065	-30.665
Mof_F 	F 	0.5373	0.2491	0.1437	29.567
Mof_F 	F 	0.567	0.218	0.349	-3.673
Mof_F 	F 	0.5492	0.0396	0.1614	2.799
Mof_F 	F 	0.509	0.171	0.22	-0.374
Mof_F 	F 	0.5263	0.9951	0.0598	0.76
Mof_F 	F 	0.5612	0.075	0.176	-1.036
Mof_F 	F 	0.4559	0.0945	0.0866	3.735
Mof_F 	F 	0.4633	0.1216	0.1109	-5.389
Mof_F 	F 	0.4823	0.1463	0.1972	-0.768
Mof_F 	F 	0.5195	0.994	0.074	-0.579
Mof_F 	F 	0.4777	0.8796	0.1451	0.275
Mof_F 	F 	0.4748	0.8833	0.1109	-0.122
Mof_F 	F 	0.4781	0.971	0.2465	-0.369
Mof_F 	F 	0.5073	0.9074	0.2055	2.691
Mof_F 	F 	0.401	0.936	0.1211	0.408
Mof_F 	F 	0.4353	0.019	0.2572	-0.484
Mof_H 	H 	0.618	0.2224	0.5327	7.67
Mof_H 	H 	0.5736	0.2304	0.5652	-24.522
Mof_H 	H 	0.544	0.2117	0.5115	-6.833
Mof_H 	H 	0.5299	0.0956	0.4938	0.162
Mof_H 	H 	0.7007	0.8967	0.8923	0.177
Mof_H 	H 	0.6716	0.7995	0.8986	0.138
Mof_H 	H 	0.6495	0.9287	0.9553	0.694
Mof_H 	H 	0.587	0.1377	0.0313	17.045
Mof_H 	H 	0.5929	0.2359	0.0818	5.474
Mof_H 	H 	0.4992	0.1501	0.393	-7.71
Mof_H 	H 	0.4902	0.2433	0.4504	-7.086
Mof_H 	H 	0.7465	0.8093	0.8925	0.099
Mof_H 	H 	0.7365	0.7564	0.9643	0.108
Mof_H 	H 	0.7315	0.167	0.619	0.313
Mof_O 	O 	0.6685	0.899	0.9759	-0.549
Mof_O 	O 	0.7446	0.658	0.8907	-0.4
Mof_N 	N 	0.17323	0.8928	0.8119	-0.22
Mof_N 	N 	0.21783	0.8179	0.6831	-0.245
Mof_N 	N 	0.62257	0.8165	0.3169	-0.249
Mof_O 	O 	0.42106	0.8784	0.5123	2.194
Mof_S 	S 	0.18973	0.0929	0.87958	0.527
Mof_C 	C 	0.18007	0.9756	0.8407	0.143
Mof_C 	C 	0.21734	0.8091	0.6118	0.1
Mof_H 	H 	0.1947	0.7781	0.5906	0.025
Mof_C 	C 	0.24802	0.8428	0.568	-0.12
Mof_H 	H 	0.2458	0.8363	0.5187	0.108
Mof_C 	C 	0.2829	0.8874	0.5993	0.093
Mof_C 	C 	0.28429	0.8947	0.6725	-0.13
Mof_H 	H 	0.3072	0.922	0.695	0.127
Mof_C 	C 	0.25134	0.8614	0.7127	0.097
Mof_H 	H 	0.2524	0.8693	0.7621	-0.02
Mof_C 	C 	0.31591	0.9264	0.5564	0.07
Mof_C 	C 	0.34317	0.9651	0.5241	-0.222
Mof_C 	C 	0.37415	0.0176	0.4819	0.384
Mof_C 	C 	0.36677	0.1168	0.4492	-0.306
Mof_H 	H 	0.3417	0.1497	0.4548	0.169
Mof_C 	C 	0.3958	0.1686	0.4084	0.378
Mof_H 	H 	0.3901	0.2346	0.3856	-0.02
Mof_C 	C 	0.43405	0.1192	0.4022	-0.312
Mof_H 	H 	0.4542	0.155	0.3766	0.63
Mof_C 	C 	0.44223	0.0192	0.4332	0.593
Mof_C 	C 	0.4124	0.9682	0.4737	-0.419
Mof_C 	C 	0.48084	0.9684	0.4214	0.168
Mof_C 	C 	0.51274	0.933	0.4049	0.056
Mof_C 	C 	0.55101	0.8921	0.3786	0.219
Mof_C 	C 	0.57612	0.9629	0.341	-0.227
Mof_H 	H 	0.5693	0.0364	0.3353	0.262
Mof_C 	C 	0.61139	0.9217	0.3122	0.179
Mof_H 	H 	0.6283	0.9699	0.2881	0.025
Mof_C 	C 	0.5988	0.7508	0.3557	0.189
Mof_H 	H 	0.6067	0.6783	0.3623	0.106
Mof_C 	C 	0.56299	0.7851	0.3866	-0.22
Mof_H 	H 	0.5472	0.7361	0.4126	0.378
Mof_C 	C 	0.415	0.7819	0.4872	0.557
Mof_H 	H 	0.3893	0.7821	0.4625	-2.999
Mof_H 	H 	0.4357	0.767	0.4518	29.582
Mof_C 	C 	0.4147	0.6872	0.5407	17.563
Mof_H 	H 	0.4059	0.621	0.5165	-20.761
Mof_H 	H 	0.3953	0.7033	0.5781	-8.302
Mof_C 	C 	0.4547	0.6664	0.574	10.506
Mof_F 	F 	0.4649	0.7571	0.6129	-35.501
Mof_F 	F 	0.483	0.6723	0.5196	-3.765
Mof_C 	C 	0.4582	0.5654	0.6151	-4.491
Mof_F 	F 	0.4539	0.4815	0.5673	0.478
Mof_F 	F 	0.4231	0.5548	0.6538	0.674
Mof_C 	C 	0.4888	0.5301	0.6656	5.264
Mof_F 	F 	0.4787	0.425	0.6934	-3.613
Mof_F 	F 	0.4861	0.593	0.7292	-0.264
Mof_C 	C 	0.5313	0.53	0.6492	0.482
Mof_F 	F 	0.5418	0.6388	0.6466	2.523
Mof_F 	F 	0.535	0.4851	0.5822	-0.522
Mof_C 	C 	0.5594	0.4735	0.6932	0.503
Mof_F 	F 	0.5584	0.3613	0.6764	-0.605
Mof_F 	F 	0.5496	0.465	0.7641	-0.321
Mof_C 	C 	0.6011	0.5097	0.6864	-2.614
Mof_F 	F 	0.6064	0.6056	0.71	-0.769
Mof_F 	F 	0.6252	0.445	0.7188	0.396
Mof_F 	F 	0.6147	0.507	0.6227	0.352
Mof_C 	C 	0.7074	0.7997	0.9251	-0.043
Mof_H 	H 	0.6965	0.742	0.9551	0.067
Mof_H 	H 	0.7364	0.7905	0.9276	-0.038
Mof_C 	C 	0.6975	0.758	0.8488	0.015
Mof_H 	H 	0.7196	0.7079	0.8404	0.141
Mof_H 	H 	0.6744	0.7116	0.8579	0.08
Mof_O 	O 	0.7006	0.8984	0.9682	0.313
Mof_H 	H 	0.7104	0.8896	0.0081	0.08
Mof_O 	O 	0.689	0.796	0.7769	-0.402
Mof_H 	H 	0.6854	0.7576	0.7491	0.276
Mof_C 	C 	0.763	0.88	0.032	0.422
Mof_H 	H 	0.779	0.8413	0.9957	0.006
Mof_H 	H 	0.7742	0.8548	0.0768	-0.128
Mof_C 	C 	0.781	0.996	0.027	-0.26
Mof_H 	H 	0.7788	0.0202	0.0759	0.093
Mof_H 	H 	0.8092	0.9807	0.0196	0.343
Mof_O 	O 	0.725	0.819	0.029	-0.466
Mof_H 	H 	0.7077	0.8585	0.0115	0.432
Mof_O 	O 	0.7763	0.099	0.988	-0.501
Mof_H 	H 	0.7985	0.12	0.9743	-0.025
Mof_C 	C 	0.9106	0.7827	0.5224	-8.954
Mof_C 	C 	0.9547	0.844	0.474	-1.493
Mof_C 	C 	0.8074	0.162	0.9244	-0.165
Mof_C 	C 	0.9242	0.791	0.0436	6.414
Mof_C 	C 	0.9889	0.795	0.424	24.489
Mof_C 	C 	0.7725	0.241	0.915	0.069
Mof_C 	C 	0.9624	0.8227	0.0833	19.394
Mof_C 	C 	0.9618	0.781	0.115	-4.012
Mof_C 	C 	0.9765	0.9295	0.1116	-1.823
Mof_C 	C 	0.9734	0.872	0.1608	-6.918
Mof_C 	C 	0.017	0.9372	0.1432	0.244
Mof_C 	C 	0.0021	0.9487	0.131	-0.014
Mof_C 	C 	0.0379	0.0311	0.1782	-1.852
Mof_C 	C 	0.0226	0.0422	0.1677	-0.502
Mof_C 	C 	0.0803	0.0496	0.1873	0.552
Mof_C 	C 	0.0598	0.0642	0.2079	1.578
Mof_C 	C 	0.0927	0.142	0.232	-1.763
Mof_C 	C 	0.0695	0.169	0.2408	1.958
Mof_F 	F 	0.0978	0.954	0.2135	1.763
Mof_F 	F 	0.0922	0.034	0.165	0.445
Mof_F 	F 	0.0871	0.2327	0.2016	0.405
Mof_F 	F 	0.0734	0.2447	0.1948	-0.224
Mof_F 	F 	0.085	0.129	0.2971	0.072
Mof_F 	F 	0.0412	0.215	0.2729	-0.524
Mof_F 	F 	0.1305	0.152	0.2376	0.117
Mof_F 	F 	0.105	0.177	0.264	0.363
Mof_F 	F 	0.9939	0.7893	0.0385	-1.888
Mof_F 	F 	0.9334	0.819	0.065	-29.463
Mof_F 	F 	0.9627	0.7509	0.1437	28.086
Mof_F 	F 	0.933	0.782	0.349	-3.612
Mof_F 	F 	0.9508	0.9604	0.1614	2.654
Mof_F 	F 	0.991	0.829	0.22	-0.38
Mof_F 	F 	0.9737	0.0049	0.0598	0.728
Mof_F 	F 	0.9388	0.925	0.176	-0.979
Mof_F 	F 	0.0441	0.9055	0.0866	3.509
Mof_F 	F 	0.0367	0.8784	0.1109	-5.071
Mof_F 	F 	0.0177	0.8537	0.1972	-0.714
Mof_F 	F 	0.9805	0.006	0.074	-0.562
Mof_F 	F 	0.0223	0.1204	0.1451	0.305
Mof_F 	F 	0.0252	0.1167	0.1109	-0.14
Mof_F 	F 	0.0219	0.029	0.2465	-0.352
Mof_F 	F 	0.9927	0.0926	0.2055	2.591
Mof_F 	F 	0.099	0.064	0.1211	0.36
Mof_F 	F 	0.0647	0.981	0.2572	-0.465
Mof_H 	H 	0.882	0.7776	0.5327	7.562
Mof_H 	H 	0.9264	0.7696	0.5652	-24.13
Mof_H 	H 	0.956	0.7883	0.5115	-6.732
Mof_H 	H 	0.9701	0.9044	0.4938	0.151
Mof_H 	H 	0.7993	0.1033	0.8923	0.179
Mof_H 	H 	0.8284	0.2005	0.8986	0.139
Mof_H 	H 	0.8505	0.0713	0.9553	0.684
Mof_H 	H 	0.913	0.8623	0.0313	16.352
Mof_H 	H 	0.9071	0.7641	0.0818	5.241
Mof_H 	H 	0.0008	0.8499	0.393	-7.548
Mof_H 	H 	0.0098	0.7567	0.4504	-6.912
Mof_H 	H 	0.7535	0.1907	0.8925	0.1
Mof_H 	H 	0.7635	0.2436	0.9643	0.108
Mof_H 	H 	0.7685	0.833	0.619	0.311
Mof_O 	O 	0.8315	0.101	0.9759	-0.54
Mof_O 	O 	0.7554	0.342	0.8907	-0.399
Mof_N 	N 	0.17323	0.6072	0.6881	-0.218
Mof_N 	N 	0.21783	0.6821	0.8169	-0.244
Mof_N 	N 	0.62257	0.6835	0.1831	-0.248
Mof_O 	O 	0.42106	0.6216	0.9877	2.191
Mof_S 	S 	0.18973	0.4071	0.62042	0.556
Mof_C 	C 	0.18007	0.5244	0.6593	0.135
Mof_C 	C 	0.21734	0.6909	0.8882	0.096
Mof_H 	H 	0.1947	0.7219	0.9094	0.023
Mof_C 	C 	0.24802	0.6572	0.932	-0.116
Mof_H 	H 	0.2458	0.6637	0.9813	0.099
Mof_C 	C 	0.2829	0.6126	0.9007	0.084
Mof_C 	C 	0.28429	0.6053	0.8275	-0.125
Mof_H 	H 	0.3072	0.578	0.805	0.124
Mof_C 	C 	0.25134	0.6386	0.7873	0.093
Mof_H 	H 	0.2524	0.6307	0.7379	-0.019
Mof_C 	C 	0.31591	0.5736	0.9436	0.077
Mof_C 	C 	0.34317	0.5349	0.9759	-0.242
Mof_C 	C 	0.37415	0.4824	0.0181	0.405
Mof_C 	C 	0.36677	0.3832	0.0508	-0.32
Mof_H 	H 	0.3417	0.3503	0.0452	0.176
Mof_C 	C 	0.3958	0.3314	0.0916	0.389
Mof_H 	H 	0.3901	0.2654	0.1144	-0.023
Mof_C 	C 	0.43405	0.3808	0.0978	-0.321
Mof_H 	H 	0.4542	0.345	0.1234	0.633
Mof_C 	C 	0.44223	0.4808	0.0668	0.602
Mof_C 	C 	0.4124	0.5318	0.0263	-0.427
Mof_C 	C 	0.48084	0.5316	0.0786	0.163
Mof_C 	C 	0.51274	0.567	0.0951	0.059
Mof_C 	C 	0.55101	0.6079	0.1214	0.215
Mof_C 	C 	0.57612	0.5371	0.159	-0.222
Mof_H 	H 	0.5693	0.4636	0.1647	0.259
Mof_C 	C 	0.61139	0.5783	0.1878	0.176
Mof_H 	H 	0.6283	0.5301	0.2119	0.026
Mof_C 	C 	0.5988	0.7492	0.1443	0.187
Mof_H 	H 	0.6067	0.8217	0.1377	0.106
Mof_C 	C 	0.56299	0.7149	0.1134	-0.218
Mof_H 	H 	0.5472	0.7639	0.0874	0.377
Mof_C 	C 	0.415	0.7181	0.0128	0.558
Mof_H 	H 	0.3893	0.7179	0.0375	-2.998
Mof_H 	H 	0.4357	0.733	0.0482	29.586
Mof_C 	C 	0.4147	0.8128	0.9593	17.556
Mof_H 	H 	0.4059	0.879	0.9835	-20.749
Mof_H 	H 	0.3953	0.7967	0.9219	-8.298
Mof_C 	C 	0.4547	0.8336	0.926	10.503
Mof_F 	F 	0.4649	0.7429	0.8871	-35.492
Mof_F 	F 	0.483	0.8277	0.9804	-3.766
Mof_C 	C 	0.4582	0.9346	0.8849	-4.491
Mof_F 	F 	0.4539	0.0185	0.9327	0.477
Mof_F 	F 	0.4231	0.9452	0.8462	0.675
Mof_C 	C 	0.4888	0.9699	0.8344	5.261
Mof_F 	F 	0.4787	0.075	0.8066	-3.612
Mof_F 	F 	0.4861	0.907	0.7708	-0.264
Mof_C 	C 	0.5313	0.97	0.8508	0.479
Mof_F 	F 	0.5418	0.8612	0.8534	2.517
Mof_F 	F 	0.535	0.0149	0.9178	-0.52
Mof_C 	C 	0.5594	0.0265	0.8068	0.501
Mof_F 	F 	0.5584	0.1387	0.8236	-0.605
Mof_F 	F 	0.5496	0.035	0.7359	-0.32
Mof_C 	C 	0.6011	0.9903	0.8136	-2.608
Mof_F 	F 	0.6064	0.8944	0.79	-0.767
Mof_F 	F 	0.6252	0.055	0.7812	0.397
Mof_F 	F 	0.6147	0.993	0.8773	0.349
Mof_C 	C 	0.7074	0.7003	0.5749	-0.042
Mof_H 	H 	0.6965	0.758	0.5449	0.064
Mof_H 	H 	0.7364	0.7095	0.5724	-0.037
Mof_C 	C 	0.6975	0.742	0.6512	0.015
Mof_H 	H 	0.7196	0.7921	0.6596	0.141
Mof_H 	H 	0.6744	0.7884	0.6421	0.079
Mof_O 	O 	0.7006	0.6016	0.5318	0.302
Mof_H 	H 	0.7104	0.6104	0.4919	0.067
Mof_O 	O 	0.689	0.704	0.7231	-0.402
Mof_H 	H 	0.6854	0.7424	0.7509	0.276
Mof_C 	C 	0.763	0.62	0.468	0.452
Mof_H 	H 	0.779	0.6587	0.5043	-0.01
Mof_H 	H 	0.7742	0.6452	0.4232	-0.138
Mof_C 	C 	0.781	0.504	0.473	-0.232
Mof_H 	H 	0.7788	0.4798	0.4241	0.078
Mof_H 	H 	0.8092	0.5193	0.4804	0.35
Mof_O 	O 	0.725	0.681	0.471	-0.476
Mof_H 	H 	0.7077	0.6415	0.4885	0.461
Mof_O 	O 	0.7763	0.401	0.512	-0.533
Mof_H 	H 	0.7985	0.38	0.5257	-0.015
Mof_C 	C 	0.9106	0.7173	0.9776	-8.674
Mof_C 	C 	0.9547	0.656	0.026	-1.377
Mof_C 	C 	0.8074	0.338	0.5756	-0.164
Mof_C 	C 	0.9242	0.709	0.4564	6.569
Mof_C 	C 	0.9889	0.705	0.076	23.553
Mof_C 	C 	0.7725	0.259	0.585	0.071
Mof_C 	C 	0.9624	0.6773	0.4167	19.946
Mof_C 	C 	0.9618	0.719	0.385	-4.177
Mof_C 	C 	0.9765	0.5705	0.3884	-1.909
Mof_C 	C 	0.9734	0.628	0.3392	-7.143
Mof_C 	C 	0.017	0.5628	0.3568	0.211
Mof_C 	C 	0.0021	0.5513	0.369	0.056
Mof_C 	C 	0.0379	0.4689	0.3218	-1.898
Mof_C 	C 	0.0226	0.4578	0.3323	-0.443
Mof_C 	C 	0.0803	0.4504	0.3127	0.567
Mof_C 	C 	0.0598	0.4358	0.2921	1.647
Mof_C 	C 	0.0927	0.358	0.268	-1.781
Mof_C 	C 	0.0695	0.331	0.2592	1.947
Mof_F 	F 	0.0978	0.546	0.2865	1.751
Mof_F 	F 	0.0922	0.466	0.335	0.425
Mof_F 	F 	0.0871	0.2673	0.2984	0.417
Mof_F 	F 	0.0734	0.2553	0.3052	-0.212
Mof_F 	F 	0.085	0.371	0.2029	0.063
Mof_F 	F 	0.0412	0.285	0.2271	-0.524
Mof_F 	F 	0.1305	0.348	0.2624	0.119
Mof_F 	F 	0.105	0.323	0.236	0.374
Mof_F 	F 	0.9939	0.7107	0.4615	-1.845
Mof_F 	F 	0.9334	0.681	0.435	-30.276
Mof_F 	F 	0.9627	0.7491	0.3563	29.081
Mof_F 	F 	0.933	0.718	0.151	-3.499
Mof_F 	F 	0.9508	0.5396	0.3386	2.751
Mof_F 	F 	0.991	0.671	0.28	-0.364
Mof_F 	F 	0.9737	0.4951	0.4402	0.745
Mof_F 	F 	0.9388	0.575	0.324	-1.012
Mof_F 	F 	0.0441	0.5945	0.4134	3.621
Mof_F 	F 	0.0367	0.6216	0.3891	-5.228
Mof_F 	F 	0.0177	0.6463	0.3028	-0.739
Mof_F 	F 	0.9805	0.494	0.426	-0.572
Mof_F 	F 	0.0223	0.3796	0.3549	0.278
Mof_F 	F 	0.0252	0.3833	0.3891	-0.127
Mof_F 	F 	0.0219	0.471	0.2535	-0.36
Mof_F 	F 	0.9927	0.4074	0.2945	2.638
Mof_F 	F 	0.099	0.436	0.3789	0.392
Mof_F 	F 	0.0647	0.519	0.2428	-0.478
Mof_H 	H 	0.882	0.7224	0.9673	7.327
Mof_H 	H 	0.9264	0.7304	0.9348	-23.362
Mof_H 	H 	0.956	0.7117	0.9885	-6.521
Mof_H 	H 	0.9701	0.5956	0.0062	0.114
Mof_H 	H 	0.7993	0.3967	0.6077	0.179
Mof_H 	H 	0.8284	0.2995	0.6014	0.138
Mof_H 	H 	0.8505	0.4287	0.5447	0.692
Mof_H 	H 	0.913	0.6377	0.4687	16.844
Mof_H 	H 	0.9071	0.7359	0.4182	5.403
Mof_H 	H 	0.0008	0.6501	0.107	-7.248
Mof_H 	H 	0.0098	0.7433	0.0496	-6.574
Mof_H 	H 	0.7535	0.3093	0.6075	0.1
Mof_H 	H 	0.7635	0.2564	0.5357	0.104
Mof_H 	H 	0.7685	0.667	0.881	0.312
Mof_O 	O 	0.8315	0.399	0.5241	-0.551
Mof_O 	O 	0.7554	0.158	0.6093	-0.401
Mof_N 	N 	0.32677	0.3928	0.6881	-0.217
Mof_N 	N 	0.28217	0.3179	0.8169	-0.244
Mof_N 	N 	0.87743	0.3165	0.1831	-0.251
Mof_O 	O 	0.07894	0.3784	0.9877	2.026
Mof_S 	S 	0.31027	0.5929	0.62042	0.564
Mof_C 	C 	0.31993	0.4756	0.6593	0.135
Mof_C 	C 	0.28266	0.3091	0.8882	0.096
Mof_H 	H 	0.3053	0.2781	0.9094	0.025
Mof_C 	C 	0.25198	0.3428	0.932	-0.117
Mof_H 	H 	0.2542	0.3363	0.9813	0.1
Mof_C 	C 	0.2171	0.3874	0.9007	0.085
Mof_C 	C 	0.21571	0.3947	0.8275	-0.127
Mof_H 	H 	0.1928	0.422	0.805	0.123
Mof_C 	C 	0.24866	0.3614	0.7873	0.094
Mof_H 	H 	0.2476	0.3693	0.7379	-0.02
Mof_C 	C 	0.18409	0.4264	0.9436	0.072
Mof_C 	C 	0.15683	0.4651	0.9759	-0.235
Mof_C 	C 	0.12585	0.5176	0.0181	0.375
Mof_C 	C 	0.13323	0.6168	0.0508	-0.284
Mof_H 	H 	0.1583	0.6497	0.0452	0.165
Mof_C 	C 	0.1042	0.6686	0.0916	0.346
Mof_H 	H 	0.1099	0.7346	0.1144	-0.004
Mof_C 	C 	0.06595	0.6192	0.0978	-0.271
Mof_H 	H 	0.0458	0.655	0.1234	0.592
Mof_C 	C 	0.05777	0.5192	0.0668	0.53
Mof_C 	C 	0.0876	0.4682	0.0263	-0.35
Mof_C 	C 	0.01916	0.4684	0.0786	0.228
Mof_C 	C 	0.98726	0.433	0.0951	-0.007
Mof_C 	C 	0.94899	0.3921	0.1214	0.243
Mof_C 	C 	0.92388	0.4629	0.159	-0.24
Mof_H 	H 	0.9307	0.5364	0.1647	0.262
Mof_C 	C 	0.88861	0.4217	0.1878	0.184
Mof_H 	H 	0.8717	0.4699	0.2119	0.022
Mof_C 	C 	0.9012	0.2508	0.1443	0.194
Mof_H 	H 	0.8933	0.1783	0.1377	0.1
Mof_C 	C 	0.93701	0.2851	0.1134	-0.237
Mof_H 	H 	0.9528	0.2361	0.0874	0.372
Mof_C 	C 	0.085	0.2819	0.0128	0.524
Mof_H 	H 	0.1107	0.2821	0.0375	-2.857
Mof_H 	H 	0.0643	0.267	0.0482	28.207
Mof_C 	C 	0.0853	0.1872	0.9593	16.87
Mof_H 	H 	0.0941	0.121	0.9835	-19.917
Mof_H 	H 	0.1047	0.2033	0.9219	-7.96
Mof_C 	C 	0.0453	0.1664	0.926	10.023
Mof_F 	F 	0.0351	0.2571	0.8871	-33.771
Mof_F 	F 	0.017	0.1723	0.9804	-3.54
Mof_C 	C 	0.0418	0.0654	0.8849	-4.325
Mof_F 	F 	0.0461	0.9815	0.9327	0.457
Mof_F 	F 	0.0769	0.0548	0.8462	0.638
Mof_C 	C 	0.0112	0.0301	0.8344	5.067
Mof_F 	F 	0.0213	0.925	0.8066	-3.474
Mof_F 	F 	0.0139	0.093	0.7708	-0.276
Mof_C 	C 	0.9687	0.03	0.8508	0.55
Mof_F 	F 	0.9582	0.1388	0.8534	2.334
Mof_F 	F 	0.965	0.9851	0.9178	-0.502
Mof_C 	C 	0.9406	0.9735	0.8068	0.525
Mof_F 	F 	0.9416	0.8613	0.8236	-0.599
Mof_F 	F 	0.9504	0.965	0.7359	-0.321
Mof_C 	C 	0.8989	0.0097	0.8136	-2.614
Mof_F 	F 	0.8936	0.1056	0.79	-0.766
Mof_F 	F 	0.8748	0.945	0.7812	0.386
Mof_F 	F 	0.8853	0.007	0.8773	0.36
Mof_C 	C 	0.7926	0.2997	0.5749	-0.042
Mof_H 	H 	0.8035	0.242	0.5449	0.063
Mof_H 	H 	0.7636	0.2905	0.5724	-0.037
Mof_C 	C 	0.8025	0.258	0.6512	0.014
Mof_H 	H 	0.7804	0.2079	0.6596	0.142
Mof_H 	H 	0.8256	0.2116	0.6421	0.081
Mof_O 	O 	0.7994	0.3984	0.5318	0.302
Mof_H 	H 	0.7896	0.3896	0.4919	0.067
Mof_O 	O 	0.811	0.296	0.7231	-0.401
Mof_H 	H 	0.8146	0.2576	0.7509	0.276
Mof_C 	C 	0.737	0.38	0.468	0.454
Mof_H 	H 	0.721	0.3413	0.5043	-0.01
Mof_H 	H 	0.7258	0.3548	0.4232	-0.14
Mof_C 	C 	0.719	0.496	0.473	-0.235
Mof_H 	H 	0.7212	0.5202	0.4241	0.078
Mof_H 	H 	0.6908	0.4807	0.4804	0.354
Mof_O 	O 	0.775	0.319	0.471	-0.477
Mof_H 	H 	0.7923	0.3585	0.4885	0.461
Mof_O 	O 	0.7237	0.599	0.512	-0.531
Mof_H 	H 	0.7015	0.62	0.5257	-0.015
Mof_C 	C 	0.5894	0.2827	0.9776	-9.077
Mof_C 	C 	0.5453	0.344	0.026	-1.547
Mof_C 	C 	0.6926	0.662	0.5756	-0.165
Mof_C 	C 	0.5758	0.291	0.4564	6.655
Mof_C 	C 	0.5111	0.295	0.076	24.97
Mof_C 	C 	0.7275	0.741	0.585	0.071
Mof_C 	C 	0.5376	0.3227	0.4167	20.215
Mof_C 	C 	0.5382	0.281	0.385	-4.262
Mof_C 	C 	0.5235	0.4295	0.3884	-1.958
Mof_C 	C 	0.5266	0.372	0.3392	-7.249
Mof_C 	C 	0.483	0.4372	0.3568	0.207
Mof_C 	C 	0.4979	0.4487	0.369	0.075
Mof_C 	C 	0.4621	0.5311	0.3218	-1.942
Mof_C 	C 	0.4774	0.5422	0.3323	-0.444
Mof_C 	C 	0.4197	0.5496	0.3127	0.581
Mof_C 	C 	0.4402	0.5642	0.2921	1.675
Mof_C 	C 	0.4073	0.642	0.268	-1.807
Mof_C 	C 	0.4305	0.669	0.2592	1.946
Mof_F 	F 	0.4022	0.454	0.2865	1.758
Mof_F 	F 	0.4078	0.534	0.335	0.413
Mof_F 	F 	0.4129	0.7327	0.2984	0.411
Mof_F 	F 	0.4266	0.7447	0.3052	-0.195
Mof_F 	F 	0.415	0.629	0.2029	0.082
Mof_F 	F 	0.4588	0.715	0.2271	-0.526
Mof_F 	F 	0.3695	0.652	0.2624	0.123
Mof_F 	F 	0.395	0.677	0.236	0.386
Mof_F 	F 	0.5061	0.2893	0.4615	-1.821
Mof_F 	F 	0.5666	0.319	0.435	-30.674
Mof_F 	F 	0.5373	0.2509	0.3563	29.575
Mof_F 	F 	0.567	0.282	0.151	-3.672
Mof_F 	F 	0.5492	0.4604	0.3386	2.798
Mof_F 	F 	0.509	0.329	0.28	-0.373
Mof_F 	F 	0.5263	0.5049	0.4402	0.761
Mof_F 	F 	0.5612	0.425	0.324	-1.035
Mof_F 	F 	0.4559	0.4055	0.4134	3.743
Mof_F 	F 	0.4633	0.3784	0.3891	-5.401
Mof_F 	F 	0.4823	0.3537	0.3028	-0.769
Mof_F 	F 	0.5195	0.506	0.426	-0.58
Mof_F 	F 	0.4777	0.6204	0.3549	0.276
Mof_F 	F 	0.4748	0.6167	0.3891	-0.123
Mof_F 	F 	0.4781	0.529	0.2535	-0.368
Mof_F 	F 	0.5073	0.5926	0.2945	2.692
Mof_F 	F 	0.401	0.564	0.3789	0.405
Mof_F 	F 	0.4353	0.481	0.2428	-0.484
Mof_H 	H 	0.618	0.2776	0.9673	7.669
Mof_H 	H 	0.5736	0.2696	0.9348	-24.527
Mof_H 	H 	0.544	0.2883	0.9885	-6.833
Mof_H 	H 	0.5299	0.4044	0.0062	0.161
Mof_H 	H 	0.7007	0.6033	0.6077	0.179
Mof_H 	H 	0.6716	0.7005	0.6014	0.138
Mof_H 	H 	0.6495	0.5713	0.5447	0.695
Mof_H 	H 	0.587	0.3623	0.4687	17.058
Mof_H 	H 	0.5929	0.2641	0.4182	5.478
Mof_H 	H 	0.4992	0.3499	0.107	-7.709
Mof_H 	H 	0.4902	0.2567	0.0496	-7.085
Mof_H 	H 	0.7465	0.6907	0.6075	0.099
Mof_H 	H 	0.7365	0.7436	0.5357	0.104
Mof_H 	H 	0.7315	0.333	0.881	0.312
Mof_O 	O 	0.6685	0.601	0.5241	-0.551
Mof_O 	O 	0.7446	0.842	0.6093	-0.403
Mof_N 	N 	0.67323	0.8928	0.1881	-0.217
Mof_N 	N 	0.71783	0.8179	0.3169	-0.243
Mof_N 	N 	0.12257	0.8165	0.6831	-0.241
Mof_O 	O 	0.92106	0.8784	0.4877	2.165
Mof_S 	S 	0.68973	0.0929	0.12042	0.564
Mof_C 	C 	0.68007	0.9756	0.1593	0.133
Mof_C 	C 	0.71734	0.8091	0.3882	0.095
Mof_H 	H 	0.6947	0.7781	0.4094	0.027
Mof_C 	C 	0.74802	0.8428	0.432	-0.113
Mof_H 	H 	0.7458	0.8363	0.4813	0.104
Mof_C 	C 	0.7829	0.8874	0.4007	0.078
Mof_C 	C 	0.78429	0.8947	0.3275	-0.122
Mof_H 	H 	0.8072	0.922	0.305	0.12
Mof_C 	C 	0.75134	0.8614	0.2873	0.09
Mof_H 	H 	0.7524	0.8693	0.2379	-0.019
Mof_C 	C 	0.81591	0.9264	0.4436	0.087
Mof_C 	C 	0.84317	0.9651	0.4759	-0.256
Mof_C 	C 	0.87415	0.0176	0.5181	0.44
Mof_C 	C 	0.86677	0.1168	0.5508	-0.351
Mof_H 	H 	0.8417	0.1497	0.5452	0.187
Mof_C 	C 	0.8958	0.1686	0.5916	0.423
Mof_H 	H 	0.8901	0.2346	0.6144	-0.033
Mof_C 	C 	0.93405	0.1192	0.5978	-0.362
Mof_H 	H 	0.9542	0.155	0.6234	0.642
Mof_C 	C 	0.94223	0.0192	0.5668	0.658
Mof_C 	C 	0.9124	0.9682	0.5263	-0.47
Mof_C 	C 	0.98084	0.9684	0.5786	0.105
Mof_C 	C 	0.01274	0.933	0.5951	0.108
Mof_C 	C 	0.05101	0.8921	0.6214	0.178
Mof_C 	C 	0.07612	0.9629	0.659	-0.172
Mof_H 	H 	0.0693	0.0364	0.6647	0.234
Mof_C 	C 	0.11139	0.9217	0.6878	0.153
Mof_H 	H 	0.1283	0.9699	0.7119	0.037
Mof_C 	C 	0.0988	0.7508	0.6443	0.174
Mof_H 	H 	0.1067	0.6783	0.6377	0.11
Mof_C 	C 	0.06299	0.7851	0.6134	-0.192
Mof_H 	H 	0.0472	0.7361	0.5874	0.366
Mof_C 	C 	0.915	0.7819	0.5128	0.541
Mof_H 	H 	0.8893	0.7821	0.5375	-2.955
Mof_H 	H 	0.9357	0.767	0.5482	29.123
Mof_C 	C 	0.9147	0.6872	0.4593	17.339
Mof_H 	H 	0.9059	0.621	0.4835	-20.496
Mof_H 	H 	0.8953	0.7033	0.4219	-8.192
Mof_C 	C 	0.9547	0.6664	0.426	10.346
Mof_F 	F 	0.9649	0.7571	0.3871	-34.926
Mof_F 	F 	0.983	0.6723	0.4804	-3.685
Mof_C 	C 	0.9582	0.5654	0.3849	-4.438
Mof_F 	F 	0.9539	0.4815	0.4327	0.474
Mof_F 	F 	0.9231	0.5548	0.3462	0.662
Mof_C 	C 	0.9888	0.5301	0.3344	5.191
Mof_F 	F 	0.9787	0.425	0.3066	-3.553
Mof_F 	F 	0.9861	0.593	0.2708	-0.266
Mof_C 	C 	0.0313	0.53	0.3508	0.48
Mof_F 	F 	0.0418	0.6388	0.3534	2.431
Mof_F 	F 	0.035	0.4851	0.4178	-0.507
Mof_C 	C 	0.0594	0.4735	0.3068	0.499
Mof_F 	F 	0.0584	0.3613	0.3236	-0.604
Mof_F 	F 	0.0496	0.465	0.2359	-0.321
Mof_C 	C 	0.1011	0.5097	0.3136	-2.604
Mof_F 	F 	0.1064	0.6056	0.29	-0.763
Mof_F 	F 	0.1252	0.445	0.2812	0.391
Mof_F 	F 	0.1147	0.507	0.3773	0.351
Mof_C 	C 	0.2074	0.7997	0.0749	-0.045
Mof_H 	H 	0.1965	0.742	0.0449	0.07
Mof_H 	H 	0.2364	0.7905	0.0724	-0.037
Mof_C 	C 	0.1975	0.758	0.1512	0.017
Mof_H 	H 	0.2196	0.7079	0.1596	0.141
Mof_H 	H 	0.1744	0.7116	0.1421	0.079
Mof_O 	O 	0.2006	0.8984	0.0318	0.315
Mof_H 	H 	0.2104	0.8896	0.9919	0.083
Mof_O 	O 	0.189	0.796	0.2231	-0.4
Mof_H 	H 	0.1854	0.7576	0.2509	0.276
Mof_C 	C 	0.263	0.88	0.968	0.402
Mof_H 	H 	0.279	0.8413	0.0043	0.011
Mof_H 	H 	0.2742	0.8548	0.9232	-0.124
Mof_C 	C 	0.281	0.996	0.973	-0.212
Mof_H 	H 	0.2788	0.0202	0.9241	0.07
Mof_H 	H 	0.3092	0.9807	0.9804	0.344
Mof_O 	O 	0.225	0.819	0.971	-0.46
Mof_H 	H 	0.2077	0.8585	0.9885	0.416
Mof_O 	O 	0.2763	0.099	0.012	-0.525
Mof_H 	H 	0.2985	0.12	0.0257	-0.02
Mof_C 	C 	0.4106	0.7827	0.4776	-9.08
Mof_C 	C 	0.4547	0.844	0.526	-1.547
Mof_C 	C 	0.3074	0.162	0.0756	-0.165
Mof_C 	C 	0.4242	0.791	0.9564	6.657
Mof_C 	C 	0.4889	0.795	0.576	24.976
Mof_C 	C 	0.2725	0.241	0.085	0.072
Mof_C 	C 	0.4624	0.8227	0.9167	20.21
Mof_C 	C 	0.4618	0.781	0.885	-4.261
Mof_C 	C 	0.4765	0.9295	0.8884	-1.956
Mof_C 	C 	0.4734	0.872	0.8392	-7.247
Mof_C 	C 	0.517	0.9372	0.8568	0.206
Mof_C 	C 	0.5021	0.9487	0.869	0.076
Mof_C 	C 	0.5379	0.0311	0.8218	-1.94
Mof_C 	C 	0.5226	0.0422	0.8323	-0.442
Mof_C 	C 	0.5803	0.0496	0.8127	0.578
Mof_C 	C 	0.5598	0.0642	0.7921	1.677
Mof_C 	C 	0.5927	0.142	0.768	-1.808
Mof_C 	C 	0.5695	0.169	0.7592	1.946
Mof_F 	F 	0.5978	0.954	0.7865	1.752
Mof_F 	F 	0.5922	0.034	0.835	0.412
Mof_F 	F 	0.5871	0.2327	0.7984	0.413
Mof_F 	F 	0.5734	0.2447	0.8052	-0.196
Mof_F 	F 	0.585	0.129	0.7029	0.082
Mof_F 	F 	0.5412	0.215	0.7271	-0.527
Mof_F 	F 	0.6305	0.152	0.7624	0.123
Mof_F 	F 	0.605	0.177	0.736	0.386
Mof_F 	F 	0.4939	0.7893	0.9615	-1.819
Mof_F 	F 	0.4334	0.819	0.935	-30.665
Mof_F 	F 	0.4627	0.7509	0.8563	29.567
Mof_F 	F 	0.433	0.782	0.651	-3.673
Mof_F 	F 	0.4508	0.9604	0.8386	2.799
Mof_F 	F 	0.491	0.829	0.78	-0.374
Mof_F 	F 	0.4737	0.0049	0.9402	0.76
Mof_F 	F 	0.4388	0.925	0.824	-1.036
Mof_F 	F 	0.5441	0.9055	0.9134	3.735
Mof_F 	F 	0.5367	0.8784	0.8891	-5.389
Mof_F 	F 	0.5177	0.8537	0.8028	-0.768
Mof_F 	F 	0.4805	0.006	0.926	-0.579
Mof_F 	F 	0.5223	0.1204	0.8549	0.275
Mof_F 	F 	0.5252	0.1167	0.8891	-0.122
Mof_F 	F 	0.5219	0.029	0.7535	-0.369
Mof_F 	F 	0.4927	0.0926	0.7945	2.691
Mof_F 	F 	0.599	0.064	0.8789	0.408
Mof_F 	F 	0.5647	0.981	0.7428	-0.484
Mof_H 	H 	0.382	0.7776	0.4673	7.67
Mof_H 	H 	0.4264	0.7696	0.4348	-24.522
Mof_H 	H 	0.456	0.7883	0.4885	-6.833
Mof_H 	H 	0.4701	0.9044	0.5062	0.162
Mof_H 	H 	0.2993	0.1033	0.1077	0.177
Mof_H 	H 	0.3284	0.2005	0.1014	0.138
Mof_H 	H 	0.3505	0.0713	0.0447	0.694
Mof_H 	H 	0.413	0.8623	0.9687	17.045
Mof_H 	H 	0.4071	0.7641	0.9182	5.474
Mof_H 	H 	0.5008	0.8499	0.607	-7.71
Mof_H 	H 	0.5098	0.7567	0.5496	-7.086
Mof_H 	H 	0.2535	0.1907	0.1075	0.099
Mof_H 	H 	0.2635	0.2436	0.0357	0.108
Mof_H 	H 	0.2685	0.833	0.381	0.313
Mof_O 	O 	0.3315	0.101	0.0241	-0.549
Mof_O 	O 	0.2554	0.342	0.1093	-0.4
Mof_N 	N 	0.82677	0.1072	0.1881	-0.22
Mof_N 	N 	0.78217	0.1821	0.3169	-0.245
Mof_N 	N 	0.37743	0.1835	0.6831	-0.249
Mof_O 	O 	0.57894	0.1216	0.4877	2.194
Mof_S 	S 	0.81027	0.9071	0.12042	0.527
Mof_C 	C 	0.81993	0.0244	0.1593	0.143
Mof_C 	C 	0.78266	0.1909	0.3882	0.1
Mof_H 	H 	0.8053	0.2219	0.4094	0.025
Mof_C 	C 	0.75198	0.1572	0.432	-0.12
Mof_H 	H 	0.7542	0.1637	0.4813	0.108
Mof_C 	C 	0.7171	0.1126	0.4007	0.093
Mof_C 	C 	0.71571	0.1053	0.3275	-0.13
Mof_H 	H 	0.6928	0.078	0.305	0.127
Mof_C 	C 	0.74866	0.1386	0.2873	0.097
Mof_H 	H 	0.7476	0.1307	0.2379	-0.02
Mof_C 	C 	0.68409	0.0736	0.4436	0.07
Mof_C 	C 	0.65683	0.0349	0.4759	-0.222
Mof_C 	C 	0.62585	0.9824	0.5181	0.384
Mof_C 	C 	0.63323	0.8832	0.5508	-0.306
Mof_H 	H 	0.6583	0.8503	0.5452	0.169
Mof_C 	C 	0.6042	0.8314	0.5916	0.378
Mof_H 	H 	0.6099	0.7654	0.6144	-0.02
Mof_C 	C 	0.56595	0.8808	0.5978	-0.312
Mof_H 	H 	0.5458	0.845	0.6234	0.63
Mof_C 	C 	0.55777	0.9808	0.5668	0.593
Mof_C 	C 	0.5876	0.0318	0.5263	-0.419
Mof_C 	C 	0.51916	0.0316	0.5786	0.168
Mof_C 	C 	0.48726	0.067	0.5951	0.056
Mof_C 	C 	0.44899	0.1079	0.6214	0.219
Mof_C 	C 	0.42388	0.0371	0.659	-0.227
Mof_H 	H 	0.4307	0.9636	0.6647	0.262
Mof_C 	C 	0.38861	0.0783	0.6878	0.179
Mof_H 	H 	0.3717	0.0301	0.7119	0.025
Mof_C 	C 	0.4012	0.2492	0.6443	0.189
Mof_H 	H 	0.3933	0.3217	0.6377	0.106
Mof_C 	C 	0.43701	0.2149	0.6134	-0.22
Mof_H 	H 	0.4528	0.2639	0.5874	0.378
Mof_C 	C 	0.585	0.2181	0.5128	0.557
Mof_H 	H 	0.6107	0.2179	0.5375	-2.999
Mof_H 	H 	0.5643	0.233	0.5482	29.582
Mof_C 	C 	0.5853	0.3128	0.4593	17.563
Mof_H 	H 	0.5941	0.379	0.4835	-20.761
Mof_H 	H 	0.6047	0.2967	0.4219	-8.302
Mof_C 	C 	0.5453	0.3336	0.426	10.506
Mof_F 	F 	0.5351	0.2429	0.3871	-35.501
Mof_F 	F 	0.517	0.3277	0.4804	-3.765
Mof_C 	C 	0.5418	0.4346	0.3849	-4.491
Mof_F 	F 	0.5461	0.5185	0.4327	0.478
Mof_F 	F 	0.5769	0.4452	0.3462	0.674
Mof_C 	C 	0.5112	0.4699	0.3344	5.264
Mof_F 	F 	0.5213	0.575	0.3066	-3.613
Mof_F 	F 	0.5139	0.407	0.2708	-0.264
Mof_C 	C 	0.4687	0.47	0.3508	0.482
Mof_F 	F 	0.4582	0.3612	0.3534	2.523
Mof_F 	F 	0.465	0.5149	0.4178	-0.522
Mof_C 	C 	0.4406	0.5265	0.3068	0.503
Mof_F 	F 	0.4416	0.6387	0.3236	-0.605
Mof_F 	F 	0.4504	0.535	0.2359	-0.321
Mof_C 	C 	0.3989	0.4903	0.3136	-2.614
Mof_F 	F 	0.3936	0.3944	0.29	-0.769
Mof_F 	F 	0.3748	0.555	0.2812	0.396
Mof_F 	F 	0.3853	0.493	0.3773	0.352
Mof_C 	C 	0.2926	0.2003	0.0749	-0.043
Mof_H 	H 	0.3035	0.258	0.0449	0.067
Mof_H 	H 	0.2636	0.2095	0.0724	-0.038
Mof_C 	C 	0.3025	0.242	0.1512	0.015
Mof_H 	H 	0.2804	0.2921	0.1596	0.141
Mof_H 	H 	0.3256	0.2884	0.1421	0.08
Mof_O 	O 	0.2994	0.1016	0.0318	0.313
Mof_H 	H 	0.2896	0.1104	0.9919	0.08
Mof_O 	O 	0.311	0.204	0.2231	-0.402
Mof_H 	H 	0.3146	0.2424	0.2509	0.276
Mof_C 	C 	0.237	0.12	0.968	0.422
Mof_H 	H 	0.221	0.1587	0.0043	0.006
Mof_H 	H 	0.2258	0.1452	0.9232	-0.128
Mof_C 	C 	0.219	0.004	0.973	-0.26
Mof_H 	H 	0.2212	0.9798	0.9241	0.093
Mof_H 	H 	0.1908	0.0193	0.9804	0.343
Mof_O 	O 	0.275	0.181	0.971	-0.466
Mof_H 	H 	0.2923	0.1415	0.9885	0.432
Mof_O 	O 	0.2237	0.901	0.012	-0.501
Mof_H 	H 	0.2015	0.88	0.0257	-0.025
Mof_C 	C 	0.0894	0.2173	0.4776	-8.954
Mof_C 	C 	0.0453	0.156	0.526	-1.493
Mof_C 	C 	0.1926	0.838	0.0756	-0.165
Mof_C 	C 	0.0758	0.209	0.9564	6.414
Mof_C 	C 	0.0111	0.205	0.576	24.489
Mof_C 	C 	0.2275	0.759	0.085	0.069
Mof_C 	C 	0.0376	0.1773	0.9167	19.394
Mof_C 	C 	0.0382	0.219	0.885	-4.012
Mof_C 	C 	0.0235	0.0705	0.8884	-1.823
Mof_C 	C 	0.0266	0.128	0.8392	-6.918
Mof_C 	C 	0.983	0.0628	0.8568	0.244
Mof_C 	C 	0.9979	0.0513	0.869	-0.014
Mof_C 	C 	0.9621	0.9689	0.8218	-1.852
Mof_C 	C 	0.9774	0.9578	0.8323	-0.502
Mof_C 	C 	0.9197	0.9504	0.8127	0.552
Mof_C 	C 	0.9402	0.9358	0.7921	1.578
Mof_C 	C 	0.9073	0.858	0.768	-1.763
Mof_C 	C 	0.9305	0.831	0.7592	1.958
Mof_F 	F 	0.9022	0.046	0.7865	1.763
Mof_F 	F 	0.9078	0.966	0.835	0.445
Mof_F 	F 	0.9129	0.7673	0.7984	0.405
Mof_F 	F 	0.9266	0.7553	0.8052	-0.224
Mof_F 	F 	0.915	0.871	0.7029	0.072
Mof_F 	F 	0.9588	0.785	0.7271	-0.524
Mof_F 	F 	0.8695	0.848	0.7624	0.117
Mof_F 	F 	0.895	0.823	0.736	0.363
Mof_F 	F 	0.0061	0.2107	0.9615	-1.888
Mof_F 	F 	0.0666	0.181	0.935	-29.463
Mof_F 	F 	0.0373	0.2491	0.8563	28.086
Mof_F 	F 	0.067	0.218	0.651	-3.612
Mof_F 	F 	0.0492	0.0396	0.8386	2.654
Mof_F 	F 	0.009	0.171	0.78	-0.38
Mof_F 	F 	0.0263	0.9951	0.9402	0.728
Mof_F 	F 	0.0612	0.075	0.824	-0.979
Mof_F 	F 	0.9559	0.0945	0.9134	3.509
Mof_F 	F 	0.9633	0.1216	0.8891	-5.071
Mof_F 	F 	0.9823	0.1463	0.8028	-0.714
Mof_F 	F 	0.0195	0.994	0.926	-0.562
Mof_F 	F 	0.9777	0.8796	0.8549	0.305
Mof_F 	F 	0.9748	0.8833	0.8891	-0.14
Mof_F 	F 	0.9781	0.971	0.7535	-0.352
Mof_F 	F 	0.0073	0.9074	0.7945	2.591
Mof_F 	F 	0.901	0.936	0.8789	0.36
Mof_F 	F 	0.9353	0.019	0.7428	-0.465
Mof_H 	H 	0.118	0.2224	0.4673	7.562
Mof_H 	H 	0.0736	0.2304	0.4348	-24.13
Mof_H 	H 	0.044	0.2117	0.4885	-6.732
Mof_H 	H 	0.0299	0.0956	0.5062	0.151
Mof_H 	H 	0.2007	0.8967	0.1077	0.179
Mof_H 	H 	0.1716	0.7995	0.1014	0.139
Mof_H 	H 	0.1495	0.9287	0.0447	0.684
Mof_H 	H 	0.087	0.1377	0.9687	16.352
Mof_H 	H 	0.0929	0.2359	0.9182	5.241
Mof_H 	H 	0.9992	0.1501	0.607	-7.548
Mof_H 	H 	0.9902	0.2433	0.5496	-6.912
Mof_H 	H 	0.2465	0.8093	0.1075	0.1
Mof_H 	H 	0.2365	0.7564	0.0357	0.108
Mof_H 	H 	0.2315	0.167	0.381	0.311
Mof_O 	O 	0.1685	0.899	0.0241	-0.54
Mof_O 	O 	0.2446	0.658	0.1093	-0.399
Mof_N 	N 	0.82677	0.3928	0.3119	-0.218
Mof_N 	N 	0.78217	0.3179	0.1831	-0.244
Mof_N 	N 	0.37743	0.3165	0.8169	-0.248
Mof_O 	O 	0.57894	0.3784	0.0123	2.191
Mof_S 	S 	0.81027	0.5929	0.37958	0.556
Mof_C 	C 	0.81993	0.4756	0.3407	0.135
Mof_C 	C 	0.78266	0.3091	0.1118	0.096
Mof_H 	H 	0.8053	0.2781	0.0906	0.023
Mof_C 	C 	0.75198	0.3428	0.068	-0.116
Mof_H 	H 	0.7542	0.3363	0.0187	0.099
Mof_C 	C 	0.7171	0.3874	0.0993	0.084
Mof_C 	C 	0.71571	0.3947	0.1725	-0.125
Mof_H 	H 	0.6928	0.422	0.195	0.124
Mof_C 	C 	0.74866	0.3614	0.2127	0.093
Mof_H 	H 	0.7476	0.3693	0.2621	-0.019
Mof_C 	C 	0.68409	0.4264	0.0564	0.077
Mof_C 	C 	0.65683	0.4651	0.0241	-0.242
Mof_C 	C 	0.62585	0.5176	0.9819	0.405
Mof_C 	C 	0.63323	0.6168	0.9492	-0.32
Mof_H 	H 	0.6583	0.6497	0.9548	0.176
Mof_C 	C 	0.6042	0.6686	0.9084	0.389
Mof_H 	H 	0.6099	0.7346	0.8856	-0.023
Mof_C 	C 	0.56595	0.6192	0.9022	-0.321
Mof_H 	H 	0.5458	0.655	0.8766	0.633
Mof_C 	C 	0.55777	0.5192	0.9332	0.602
Mof_C 	C 	0.5876	0.4682	0.9737	-0.427
Mof_C 	C 	0.51916	0.4684	0.9214	0.163
Mof_C 	C 	0.48726	0.433	0.9049	0.059
Mof_C 	C 	0.44899	0.3921	0.8786	0.215
Mof_C 	C 	0.42388	0.4629	0.841	-0.222
Mof_H 	H 	0.4307	0.5364	0.8353	0.259
Mof_C 	C 	0.38861	0.4217	0.8122	0.176
Mof_H 	H 	0.3717	0.4699	0.7881	0.026
Mof_C 	C 	0.4012	0.2508	0.8557	0.187
Mof_H 	H 	0.3933	0.1783	0.8623	0.106
Mof_C 	C 	0.43701	0.2851	0.8866	-0.218
Mof_H 	H 	0.4528	0.2361	0.9126	0.377
Mof_C 	C 	0.585	0.2819	0.9872	0.558
Mof_H 	H 	0.6107	0.2821	0.9625	-2.998
Mof_H 	H 	0.5643	0.267	0.9518	29.586
Mof_C 	C 	0.5853	0.1872	0.0407	17.556
Mof_H 	H 	0.5941	0.121	0.0165	-20.749
Mof_H 	H 	0.6047	0.2033	0.0781	-8.298
Mof_C 	C 	0.5453	0.1664	0.074	10.503
Mof_F 	F 	0.5351	0.2571	0.1129	-35.492
Mof_F 	F 	0.517	0.1723	0.0196	-3.766
Mof_C 	C 	0.5418	0.0654	0.1151	-4.491
Mof_F 	F 	0.5461	0.9815	0.0673	0.477
Mof_F 	F 	0.5769	0.0548	0.1538	0.675
Mof_C 	C 	0.5112	0.0301	0.1656	5.261
Mof_F 	F 	0.5213	0.925	0.1934	-3.612
Mof_F 	F 	0.5139	0.093	0.2292	-0.264
Mof_C 	C 	0.4687	0.03	0.1492	0.479
Mof_F 	F 	0.4582	0.1388	0.1466	2.517
Mof_F 	F 	0.465	0.9851	0.0822	-0.52
Mof_C 	C 	0.4406	0.9735	0.1932	0.501
Mof_F 	F 	0.4416	0.8613	0.1764	-0.605
Mof_F 	F 	0.4504	0.965	0.2641	-0.32
Mof_C 	C 	0.3989	0.0097	0.1864	-2.608
Mof_F 	F 	0.3936	0.1056	0.21	-0.767
Mof_F 	F 	0.3748	0.945	0.2188	0.397
Mof_F 	F 	0.3853	0.007	0.1227	0.349
Mof_C 	C 	0.2926	0.2997	0.4251	-0.042
Mof_H 	H 	0.3035	0.242	0.4551	0.064
Mof_H 	H 	0.2636	0.2905	0.4276	-0.037
Mof_C 	C 	0.3025	0.258	0.3488	0.015
Mof_H 	H 	0.2804	0.2079	0.3404	0.141
Mof_H 	H 	0.3256	0.2116	0.3579	0.079
Mof_O 	O 	0.2994	0.3984	0.4682	0.302
Mof_H 	H 	0.2896	0.3896	0.5081	0.067
Mof_O 	O 	0.311	0.296	0.2769	-0.402
Mof_H 	H 	0.3146	0.2576	0.2491	0.276
Mof_C 	C 	0.237	0.38	0.532	0.452
Mof_H 	H 	0.221	0.3413	0.4957	-0.01
Mof_H 	H 	0.2258	0.3548	0.5768	-0.138
Mof_C 	C 	0.219	0.496	0.527	-0.232
Mof_H 	H 	0.2212	0.5202	0.5759	0.078
Mof_H 	H 	0.1908	0.4807	0.5196	0.35
Mof_O 	O 	0.275	0.319	0.529	-0.476
Mof_H 	H 	0.2923	0.3585	0.5115	0.461
Mof_O 	O 	0.2237	0.599	0.488	-0.533
Mof_H 	H 	0.2015	0.62	0.4743	-0.015
Mof_C 	C 	0.0894	0.2827	0.0224	-8.674
Mof_C 	C 	0.0453	0.344	0.974	-1.377
Mof_C 	C 	0.1926	0.662	0.4244	-0.164
Mof_C 	C 	0.0758	0.291	0.5436	6.569
Mof_C 	C 	0.0111	0.295	0.924	23.553
Mof_C 	C 	0.2275	0.741	0.415	0.071
Mof_C 	C 	0.0376	0.3227	0.5833	19.946
Mof_C 	C 	0.0382	0.281	0.615	-4.177
Mof_C 	C 	0.0235	0.4295	0.6116	-1.909
Mof_C 	C 	0.0266	0.372	0.6608	-7.143
Mof_C 	C 	0.983	0.4372	0.6432	0.211
Mof_C 	C 	0.9979	0.4487	0.631	0.056
Mof_C 	C 	0.9621	0.5311	0.6782	-1.898
Mof_C 	C 	0.9774	0.5422	0.6677	-0.443
Mof_C 	C 	0.9197	0.5496	0.6873	0.567
Mof_C 	C 	0.9402	0.5642	0.7079	1.647
Mof_C 	C 	0.9073	0.642	0.732	-1.781
Mof_C 	C 	0.9305	0.669	0.7408	1.947
Mof_F 	F 	0.9022	0.454	0.7135	1.751
Mof_F 	F 	0.9078	0.534	0.665	0.425
Mof_F 	F 	0.9129	0.7327	0.7016	0.417
Mof_F 	F 	0.9266	0.7447	0.6948	-0.212
Mof_F 	F 	0.915	0.629	0.7971	0.063
Mof_F 	F 	0.9588	0.715	0.7729	-0.524
Mof_F 	F 	0.8695	0.652	0.7376	0.119
Mof_F 	F 	0.895	0.677	0.764	0.374
Mof_F 	F 	0.0061	0.2893	0.5385	-1.845
Mof_F 	F 	0.0666	0.319	0.565	-30.276
Mof_F 	F 	0.0373	0.2509	0.6437	29.081
Mof_F 	F 	0.067	0.282	0.849	-3.499
Mof_F 	F 	0.0492	0.4604	0.6614	2.751
Mof_F 	F 	0.009	0.329	0.72	-0.364
Mof_F 	F 	0.0263	0.5049	0.5598	0.745
Mof_F 	F 	0.0612	0.425	0.676	-1.012
Mof_F 	F 	0.9559	0.4055	0.5866	3.621
Mof_F 	F 	0.9633	0.3784	0.6109	-5.228
Mof_F 	F 	0.9823	0.3537	0.6972	-0.739
Mof_F 	F 	0.0195	0.506	0.574	-0.572
Mof_F 	F 	0.9777	0.6204	0.6451	0.278
Mof_F 	F 	0.9748	0.6167	0.6109	-0.127
Mof_F 	F 	0.9781	0.529	0.7465	-0.36
Mof_F 	F 	0.0073	0.5926	0.7055	2.638
Mof_F 	F 	0.901	0.564	0.6211	0.392
Mof_F 	F 	0.9353	0.481	0.7572	-0.478
Mof_H 	H 	0.118	0.2776	0.0327	7.327
Mof_H 	H 	0.0736	0.2696	0.0652	-23.362
Mof_H 	H 	0.044	0.2883	0.0115	-6.521
Mof_H 	H 	0.0299	0.4044	0.9938	0.114
Mof_H 	H 	0.2007	0.6033	0.3923	0.179
Mof_H 	H 	0.1716	0.7005	0.3986	0.138
Mof_H 	H 	0.1495	0.5713	0.4553	0.692
Mof_H 	H 	0.087	0.3623	0.5313	16.844
Mof_H 	H 	0.0929	0.2641	0.5818	5.403
Mof_H 	H 	0.9992	0.3499	0.893	-7.248
Mof_H 	H 	0.9902	0.2567	0.9504	-6.574
Mof_H 	H 	0.2465	0.6907	0.3925	0.1
Mof_H 	H 	0.2365	0.7436	0.4643	0.104
Mof_H 	H 	0.2315	0.333	0.119	0.312
Mof_O 	O 	0.1685	0.601	0.4759	-0.551
Mof_O 	O 	0.2446	0.842	0.3907	-0.401
Mof_N 	N 	0.67323	0.6072	0.3119	-0.217
Mof_N 	N 	0.71783	0.6821	0.1831	-0.244
Mof_N 	N 	0.12257	0.6835	0.8169	-0.251
Mof_O 	O 	0.92106	0.6216	0.0123	2.026
Mof_S 	S 	0.68973	0.4071	0.37958	0.564
Mof_C 	C 	0.68007	0.5244	0.3407	0.135
Mof_C 	C 	0.71734	0.6909	0.1118	0.096
Mof_H 	H 	0.6947	0.7219	0.0906	0.025
Mof_C 	C 	0.74802	0.6572	0.068	-0.117
Mof_H 	H 	0.7458	0.6637	0.0187	0.1
Mof_C 	C 	0.7829	0.6126	0.0993	0.085
Mof_C 	C 	0.78429	0.6053	0.1725	-0.127
Mof_H 	H 	0.8072	0.578	0.195	0.123
Mof_C 	C 	0.75134	0.6386	0.2127	0.094
Mof_H 	H 	0.7524	0.6307	0.2621	-0.02
Mof_C 	C 	0.81591	0.5736	0.0564	0.072
Mof_C 	C 	0.84317	0.5349	0.0241	-0.235
Mof_C 	C 	0.87415	0.4824	0.9819	0.375
Mof_C 	C 	0.86677	0.3832	0.9492	-0.284
Mof_H 	H 	0.8417	0.3503	0.9548	0.165
Mof_C 	C 	0.8958	0.3314	0.9084	0.346
Mof_H 	H 	0.8901	0.2654	0.8856	-0.004
Mof_C 	C 	0.93405	0.3808	0.9022	-0.271
Mof_H 	H 	0.9542	0.345	0.8766	0.592
Mof_C 	C 	0.94223	0.4808	0.9332	0.53
Mof_C 	C 	0.9124	0.5318	0.9737	-0.35
Mof_C 	C 	0.98084	0.5316	0.9214	0.228
Mof_C 	C 	0.01274	0.567	0.9049	-0.007
Mof_C 	C 	0.05101	0.6079	0.8786	0.243
Mof_C 	C 	0.07612	0.5371	0.841	-0.24
Mof_H 	H 	0.0693	0.4636	0.8353	0.262
Mof_C 	C 	0.11139	0.5783	0.8122	0.184
Mof_H 	H 	0.1283	0.5301	0.7881	0.022
Mof_C 	C 	0.0988	0.7492	0.8557	0.194
Mof_H 	H 	0.1067	0.8217	0.8623	0.1
Mof_C 	C 	0.06299	0.7149	0.8866	-0.237
Mof_H 	H 	0.0472	0.7639	0.9126	0.372
Mof_C 	C 	0.915	0.7181	0.9872	0.524
Mof_H 	H 	0.8893	0.7179	0.9625	-2.857
Mof_H 	H 	0.9357	0.733	0.9518	28.207
Mof_C 	C 	0.9147	0.8128	0.0407	16.87
Mof_H 	H 	0.9059	0.879	0.0165	-19.917
Mof_H 	H 	0.8953	0.7967	0.0781	-7.96
Mof_C 	C 	0.9547	0.8336	0.074	10.023
Mof_F 	F 	0.9649	0.7429	0.1129	-33.771
Mof_F 	F 	0.983	0.8277	0.0196	-3.54
Mof_C 	C 	0.9582	0.9346	0.1151	-4.325
Mof_F 	F 	0.9539	0.0185	0.0673	0.457
Mof_F 	F 	0.9231	0.9452	0.1538	0.638
Mof_C 	C 	0.9888	0.9699	0.1656	5.067
Mof_F 	F 	0.9787	0.075	0.1934	-3.474
Mof_F 	F 	0.9861	0.907	0.2292	-0.276
Mof_C 	C 	0.0313	0.97	0.1492	0.55
Mof_F 	F 	0.0418	0.8612	0.1466	2.334
Mof_F 	F 	0.035	0.0149	0.0822	-0.502
Mof_C 	C 	0.0594	0.0265	0.1932	0.525
Mof_F 	F 	0.0584	0.1387	0.1764	-0.599
Mof_F 	F 	0.0496	0.035	0.2641	-0.321
Mof_C 	C 	0.1011	0.9903	0.1864	-2.614
Mof_F 	F 	0.1064	0.8944	0.21	-0.766
Mof_F 	F 	0.1252	0.055	0.2188	0.386
Mof_F 	F 	0.1147	0.993	0.1227	0.36
Mof_C 	C 	0.2074	0.7003	0.4251	-0.042
Mof_H 	H 	0.1965	0.758	0.4551	0.063
Mof_H 	H 	0.2364	0.7095	0.4276	-0.037
Mof_C 	C 	0.1975	0.742	0.3488	0.014
Mof_H 	H 	0.2196	0.7921	0.3404	0.142
Mof_H 	H 	0.1744	0.7884	0.3579	0.081
Mof_O 	O 	0.2006	0.6016	0.4682	0.302
Mof_H 	H 	0.2104	0.6104	0.5081	0.067
Mof_O 	O 	0.189	0.704	0.2769	-0.401
Mof_H 	H 	0.1854	0.7424	0.2491	0.276
Mof_C 	C 	0.263	0.62	0.532	0.454
Mof_H 	H 	0.279	0.6587	0.4957	-0.01
Mof_H 	H 	0.2742	0.6452	0.5768	-0.14
Mof_C 	C 	0.281	0.504	0.527	-0.235
Mof_H 	H 	0.2788	0.4798	0.5759	0.078
Mof_H 	H 	0.3092	0.5193	0.5196	0.354
Mof_O 	O 	0.225	0.681	0.529	-0.477
Mof_H 	H 	0.2077	0.6415	0.5115	0.461
Mof_O 	O 	0.2763	0.401	0.488	-0.531
Mof_H 	H 	0.2985	0.38	0.4743	-0.015
Mof_C 	C 	0.4106	0.7173	0.0224	-9.077
Mof_C 	C 	0.4547	0.656	0.974	-1.547
Mof_C 	C 	0.3074	0.338	0.4244	-0.165
Mof_C 	C 	0.4242	0.709	0.5436	6.655
Mof_C 	C 	0.4889	0.705	0.924	24.97
Mof_C 	C 	0.2725	0.259	0.415	0.071
Mof_C 	C 	0.4624	0.6773	0.5833	20.215
Mof_C 	C 	0.4618	0.719	0.615	-4.262
Mof_C 	C 	0.4765	0.5705	0.6116	-1.958
Mof_C 	C 	0.4734	0.628	0.6608	-7.249
Mof_C 	C 	0.517	0.5628	0.6432	0.207
Mof_C 	C 	0.5021	0.5513	0.631	0.075
Mof_C 	C 	0.5379	0.4689	0.6782	-1.942
Mof_C 	C 	0.5226	0.4578	0.6677	-0.444
Mof_C 	C 	0.5803	0.4504	0.6873	0.581
Mof_C 	C 	0.5598	0.4358	0.7079	1.675
Mof_C 	C 	0.5927	0.358	0.732	-1.807
Mof_C 	C 	0.5695	0.331	0.7408	1.946
Mof_F 	F 	0.5978	0.546	0.7135	1.758
Mof_F 	F 	0.5922	0.466	0.665	0.413
Mof_F 	F 	0.5871	0.2673	0.7016	0.411
Mof_F 	F 	0.5734	0.2553	0.6948	-0.195
Mof_F 	F 	0.585	0.371	0.7971	0.082
Mof_F 	F 	0.5412	0.285	0.7729	-0.526
Mof_F 	F 	0.6305	0.348	0.7376	0.123
Mof_F 	F 	0.605	0.323	0.764	0.386
Mof_F 	F 	0.4939	0.7107	0.5385	-1.821
Mof_F 	F 	0.4334	0.681	0.565	-30.674
Mof_F 	F 	0.4627	0.7491	0.6437	29.575
Mof_F 	F 	0.433	0.718	0.849	-3.672
Mof_F 	F 	0.4508	0.5396	0.6614	2.798
Mof_F 	F 	0.491	0.671	0.72	-0.373
Mof_F 	F 	0.4737	0.4951	0.5598	0.761
Mof_F 	F 	0.4388	0.575	0.676	-1.035
Mof_F 	F 	0.5441	0.5945	0.5866	3.743
Mof_F 	F 	0.5367	0.6216	0.6109	-5.401
Mof_F 	F 	0.5177	0.6463	0.6972	-0.769
Mof_F 	F 	0.4805	0.494	0.574	-0.58
Mof_F 	F 	0.5223	0.3796	0.6451	0.276
Mof_F 	F 	0.5252	0.3833	0.6109	-0.123
Mof_F 	F 	0.5219	0.471	0.7465	-0.368
Mof_F 	F 	0.4927	0.4074	0.7055	2.692
Mof_F 	F 	0.599	0.436	0.6211	0.405
Mof_F 	F 	0.5647	0.519	0.7572	-0.484
Mof_H 	H 	0.382	0.7224	0.0327	7.669
Mof_H 	H 	0.4264	0.7304	0.0652	-24.527
Mof_H 	H 	0.456	0.7117	0.0115	-6.833
Mof_H 	H 	0.4701	0.5956	0.9938	0.161
Mof_H 	H 	0.2993	0.3967	0.3923	0.179
Mof_H 	H 	0.3284	0.2995	0.3986	0.138
Mof_H 	H 	0.3505	0.4287	0.4553	0.695
Mof_H 	H 	0.413	0.6377	0.5313	17.058
Mof_H 	H 	0.4071	0.7359	0.5818	5.478
Mof_H 	H 	0.5008	0.6501	0.893	-7.709
Mof_H 	H 	0.5098	0.7433	0.9504	-7.085
Mof_H 	H 	0.2535	0.3093	0.3925	0.099
Mof_H 	H 	0.2635	0.2564	0.4643	0.104
Mof_H 	H 	0.2685	0.667	0.119	0.312
Mof_O 	O 	0.3315	0.399	0.4759	-0.551
Mof_O 	O 	0.2554	0.158	0.3907	-0.403
Mof_Co	Co	0.32888	0.25	0.75	1.13
Mof_Co	Co	0.17112	0.75	0.75	1.131
Mof_Co	Co	0.67112	0.75	0.25	1.13
Mof_Co	Co	0.82888	0.25	0.25	1.131
_end
