data_functionalizedCrystal
_audit_creation_method	'EQeq! by Chris Wilmer'
_symmetry_space_group_name_H-M	'P1'
_symmetry_Int_Tables_number	1
_symmetry_cell_setting	triclinic
loop_
_symmetry_equiv_pos_as_xyz
  x,y,z
_cell_length_a	11.2402
_cell_length_b	11.5366
_cell_length_c	16.1963
_cell_angle_alpha	104.945
_cell_angle_beta	110.304
_cell_angle_gamma	90
loop_
_atom_site_label
_atom_site_type_symbol
_atom_site_fract_x
_atom_site_fract_y
_atom_site_fract_z
_atom_site_charge
Mof_V 	V 	0.19527	0.17863	0.21366	1.728
Mof_V 	V 	0.05129	0.43583	0.28966	1.717
Mof_V 	V 	0.98161	0.32137	0.78634	1.767
Mof_V 	V 	0.76163	0.06417	0.71034	1.72
Mof_V 	V 	0.80473	0.82137	0.78634	1.744
Mof_V 	V 	0.94871	0.56417	0.71034	1.753
Mof_V 	V 	0.01839	0.67863	0.21366	1.699
Mof_V 	V 	0.23837	0.93583	0.28966	1.748
Mof_Ni	Ni	-1.13771e-17	0.5	0.5	1.041
Mof_Ni	Ni	0.5	0	0.5	1.053
Mof_Ni	Ni	6.66478e-33	0.5	-0	0.935
Mof_Ni	Ni	-0	0	-0	0.911
Mof_H 	H 	0.14	0.359	0.64	-0.105
Mof_H 	H 	0.326	0.363	0.736	0.099
Mof_H 	H 	0.473	0.636	0.682	0.039
Mof_H 	H 	0.264	0.64	0.578	0.001
Mof_H 	H 	0.567	0.31	0.764	0.013
Mof_H 	H 	0.781	0.322	0.87	-0.073
Mof_H 	H 	0.806	0.669	0.942	0.007
Mof_H 	H 	0.617	0.671	0.844	0.033
Mof_H 	H 	0.877	0.313	0.56	-0.043
Mof_H 	H 	0.877	0.123	0.574	0.065
Mof_H 	H 	0.1013	0.0655	0.407	0.058
Mof_H 	H 	0.082	0.256	0.4	-0.034
Mof_H 	H 	0.5	0.141	0.36	-0.075
Mof_H 	H 	0.59	0.137	0.264	0.073
Mof_H 	H 	0.791	0.864	0.318	0.042
Mof_H 	H 	0.686	0.86	0.422	0.001
Mof_H 	H 	0.803	0.19	0.236	0.021
Mof_H 	H 	0.911	0.178	0.13	-0.065
Mof_H 	H 	0.864	0.831	0.058	-0.053
Mof_H 	H 	0.773	0.829	0.156	-0.005
Mof_H 	H 	0.317	0.187	0.44	-0.035
Mof_H 	H 	0.303	0.377	0.426	0.038
Mof_H 	H 	0.6943	0.4345	0.593	0.033
Mof_H 	H 	0.682	0.244	0.6	-0.028
Mof_H 	H 	0.86	0.641	0.36	-0.042
Mof_H 	H 	0.674	0.637	0.264	0.091
Mof_H 	H 	0.527	0.364	0.318	0.033
Mof_H 	H 	0.736	0.36	0.422	0.007
Mof_H 	H 	0.433	0.69	0.236	0.02
Mof_H 	H 	0.219	0.678	0.13	-0.118
Mof_H 	H 	0.194	0.331	0.058	-0.073
Mof_H 	H 	0.383	0.329	0.156	0.02
Mof_H 	H 	0.123	0.687	0.44	-0.006
Mof_H 	H 	0.123	0.877	0.426	0.008
Mof_H 	H 	0.8987	0.9345	0.593	0.008
Mof_H 	H 	0.918	0.744	0.6	-0.02
Mof_H 	H 	0.5	0.859	0.64	-0.075
Mof_H 	H 	0.41	0.863	0.736	0.117
Mof_H 	H 	0.209	0.136	0.682	0.032
Mof_H 	H 	0.314	0.14	0.578	0.006
Mof_H 	H 	0.197	0.81	0.764	0.013
Mof_H 	H 	0.089	0.822	0.87	-0.113
Mof_H 	H 	0.136	0.169	0.942	-0.001
Mof_H 	H 	0.227	0.171	0.844	0.059
Mof_H 	H 	0.683	0.813	0.56	-0.014
Mof_H 	H 	0.697	0.623	0.574	0.037
Mof_H 	H 	0.3057	0.5655	0.407	0.033
Mof_H 	H 	0.318	0.756	0.4	-0.026
Mof_C 	C 	0.2111	0.4189	0.6476	0.064
Mof_C 	C 	0.3295	0.4142	0.7112	-0.245
Mof_C 	C 	0.4299	0.4971	0.7288	0.077
Mof_C 	C 	0.4045	0.5833	0.6792	-0.134
Mof_C 	C 	0.2842	0.5805	0.6164	0.049
Mof_C 	C 	0.5591	0.4947	0.7954	0.019
Mof_C 	C 	0.6102	0.3881	0.807	-0.111
Mof_C 	C 	0.7333	0.3924	0.8674	0.034
Mof_C 	C 	0.7581	0.597	0.9056	0.024
Mof_C 	C 	0.6355	0.6011	0.8476	-0.137
Mof_C 	C 	0.91675	0.2572	0.5277	0.112
Mof_C 	C 	0.9234	0.1409	0.5362	-0.216
Mof_C 	C 	0.99202	0.062	0.49404	0.26
Mof_C 	C 	0.0452	0.106	0.442	-0.27
Mof_C 	C 	0.0329	0.2236	0.4348	0.004
Mof_C 	C 	0.5635	0.0811	0.3524	0.034
Mof_C 	C 	0.6183	0.0858	0.2888	-0.21
Mof_C 	C 	0.7011	0.0029	0.2712	0.003
Mof_C 	C 	0.7253	0.9167	0.3208	-0.058
Mof_C 	C 	0.6678	0.9195	0.3836	0.097
Mof_C 	C 	0.7637	0.0053	0.2046	-0.05
Mof_C 	C 	0.8032	0.1119	0.193	-0.097
Mof_C 	C 	0.8659	0.1076	0.1326	0.005
Mof_C 	C 	0.8525	0.903	0.0944	0.07
Mof_C 	C 	0.7879	0.8989	0.1524	-0.055
Mof_C 	C 	0.38905	0.2428	0.4723	0.037
Mof_C 	C 	0.3872	0.3591	0.4638	-0.118
Mof_C 	C 	0.49798	0.438	0.50596	0.035
Mof_C 	C 	0.6032	0.394	0.558	-0.089
Mof_C 	C 	0.5981	0.2764	0.5652	0.039
Mof_C 	C 	0.7889	0.5811	0.3524	0.062
Mof_C 	C 	0.6705	0.5858	0.2888	-0.227
Mof_C 	C 	0.5701	0.5029	0.2712	0.058
Mof_C 	C 	0.5955	0.4167	0.3208	-0.127
Mof_C 	C 	0.7158	0.4195	0.3836	0.049
Mof_C 	C 	0.4409	0.5053	0.2046	0.024
Mof_C 	C 	0.3898	0.6119	0.193	-0.134
Mof_C 	C 	0.2667	0.6076	0.1326	0.023
Mof_C 	C 	0.2419	0.403	0.0944	0.021
Mof_C 	C 	0.3645	0.3989	0.1524	-0.171
Mof_C 	C 	0.08325	0.7428	0.4723	-0.041
Mof_C 	C 	0.0766	0.8591	0.4638	-0.014
Mof_C 	C 	0.00798	0.938	0.50596	-0.197
Mof_C 	C 	0.9548	0.894	0.558	0.103
Mof_C 	C 	0.9671	0.7764	0.5652	0.076
Mof_C 	C 	0.4365	0.9189	0.6476	0.092
Mof_C 	C 	0.3817	0.9142	0.7112	-0.264
Mof_C 	C 	0.2989	0.9971	0.7288	0.132
Mof_C 	C 	0.2747	0.0833	0.6792	-0.202
Mof_C 	C 	0.3322	0.0805	0.6164	0.001
Mof_C 	C 	0.2363	0.9947	0.7954	0.09
Mof_C 	C 	0.1968	0.8881	0.807	-0.144
Mof_C 	C 	0.1341	0.8924	0.8674	0.052
Mof_C 	C 	0.1475	0.097	0.9056	-0.023
Mof_C 	C 	0.2121	0.1011	0.8476	-0.247
Mof_C 	C 	0.61095	0.7572	0.5277	0.035
Mof_C 	C 	0.6128	0.6409	0.5362	-0.113
Mof_C 	C 	0.50202	0.562	0.49404	0.033
Mof_C 	C 	0.3968	0.606	0.442	-0.087
Mof_C 	C 	0.4019	0.7236	0.4348	0.039
Mof_N 	N 	0.18718	0.4988	0.59916	-0.255
Mof_N 	N 	0.97184	0.3017	0.47948	-0.167
Mof_N 	N 	0.80819	0.4951	0.91698	-0.219
Mof_N 	N 	0.58802	0.0012	0.40084	-0.281
Mof_N 	N 	0.49236	0.1983	0.52052	-0.222
Mof_N 	N 	0.89121	0.0049	0.08302	-0.284
Mof_N 	N 	0.81282	0.5012	0.40084	-0.221
Mof_N 	N 	0.02816	0.6983	0.52052	-0.256
Mof_N 	N 	0.19181	0.5049	0.08302	-0.289
Mof_N 	N 	0.41198	0.9988	0.59916	-0.2
Mof_N 	N 	0.50764	0.8017	0.47948	-0.205
Mof_N 	N 	0.10879	0.9951	0.91698	-0.207
Mof_O 	O 	0.07469	0.4719	0.40058	-0.762
Mof_O 	O 	0.12186	0.1366	0.10052	-0.863
Mof_O 	O 	0.09965	0.5656	0.2631	-0.914
Mof_O 	O 	0.14641	0.3179	0.26482	-0.896
Mof_O 	O 	0.67411	0.0281	0.59942	-0.771
Mof_O 	O 	0.02134	0.3634	0.89948	-0.81
Mof_O 	O 	0.83655	0.9344	0.7369	-0.83
Mof_O 	O 	0.88159	0.1821	0.73518	-0.863
Mof_O 	O 	0.92531	0.5281	0.59942	-0.698
Mof_O 	O 	0.87814	0.8634	0.89948	-0.697
Mof_O 	O 	0.90035	0.4344	0.7369	-0.862
Mof_O 	O 	0.85359	0.6821	0.73518	-0.856
Mof_O 	O 	0.32589	0.9719	0.40058	-0.695
Mof_O 	O 	0.97866	0.6366	0.10052	-0.733
Mof_O 	O 	0.16345	0.0656	0.2631	-0.942
Mof_O 	O 	0.11841	0.8179	0.26482	-0.893
_end
