data_functionalizedCrystal
_audit_creation_method	'EQeq! by Chris Wilmer'
_symmetry_space_group_name_H-M	'P1'
_symmetry_Int_Tables_number	1
_symmetry_cell_setting	triclinic
loop_
_symmetry_equiv_pos_as_xyz
  x,y,z
_cell_length_a	8.7561
_cell_length_b	20.752
_cell_length_c	34.297
_cell_angle_alpha	90
_cell_angle_beta	90
_cell_angle_gamma	90
loop_
_atom_site_label
_atom_site_type_symbol
_atom_site_fract_x
_atom_site_fract_y
_atom_site_fract_z
_atom_site_charge
Mof_O 	O 	0.2449	0.3343	0.5929	-0.599
Mof_O 	O 	0.0088	0.3329	0.57052	-0.559
Mof_O 	O 	0.2448	0.4583	0.6353	-0.58
Mof_C 	C 	0.1476	0.3199	0.5677	0.553
Mof_C 	C 	0.2005	0.2841	0.53281	-0.156
Mof_C 	C 	0.0966	0.264	0.5048	-0.001
Mof_C 	C 	0.1474	0.2305	0.4723	0.019
Mof_C 	C 	0.2606	0.5915	0.6317	0.001
Mof_H 	H 	0.99	0.2726	0.5083	0.044
Mof_H 	H 	0.0731	0.2158	0.4531	0.025
Mof_H 	H 	0.3549	0.5682	0.636	0.025
Mof_C 	C 	0.2606	0.6587	0.6315	0.001
Mof_H 	H 	0.3554	0.6822	0.635	0.018
Mof_O 	O 	0.2449	0.8343	0.0929	-0.599
Mof_O 	O 	0.0088	0.8329	0.07052	-0.556
Mof_O 	O 	0.2448	0.9583	0.1353	-0.58
Mof_C 	C 	0.1476	0.8199	0.0677	0.555
Mof_C 	C 	0.2005	0.7841	0.03281	-0.159
Mof_C 	C 	0.0966	0.764	0.0048	0.009
Mof_C 	C 	0.1474	0.7305	0.9723	0.015
Mof_C 	C 	0.2606	0.0915	0.1317	0.002
Mof_H 	H 	0.99	0.7726	0.0083	0.04
Mof_H 	H 	0.0731	0.7158	0.9531	0.028
Mof_H 	H 	0.3549	0.0682	0.136	0.026
Mof_C 	C 	0.2606	0.1587	0.1315	0.002
Mof_H 	H 	0.3554	0.1822	0.135	0.019
Mof_O 	O 	0.7449	0.3343	0.0929	-0.598
Mof_O 	O 	0.5088	0.3329	0.07052	-0.557
Mof_O 	O 	0.7448	0.4583	0.1353	-0.579
Mof_C 	C 	0.6476	0.3199	0.0677	0.554
Mof_C 	C 	0.7005	0.2841	0.03281	-0.154
Mof_C 	C 	0.5966	0.264	0.0048	-0
Mof_C 	C 	0.6474	0.2305	0.9723	0.021
Mof_C 	C 	0.7606	0.5915	0.1317	0.002
Mof_H 	H 	0.49	0.2726	0.0083	0.044
Mof_H 	H 	0.5731	0.2158	0.9531	0.026
Mof_H 	H 	0.8549	0.5682	0.136	0.026
Mof_C 	C 	0.7606	0.6587	0.1315	0.002
Mof_H 	H 	0.8554	0.6822	0.135	0.019
Mof_O 	O 	0.7449	0.8343	0.5929	-0.598
Mof_O 	O 	0.5088	0.8329	0.57052	-0.558
Mof_O 	O 	0.7448	0.9583	0.6353	-0.579
Mof_C 	C 	0.6476	0.8199	0.5677	0.555
Mof_C 	C 	0.7005	0.7841	0.53281	-0.157
Mof_C 	C 	0.5966	0.764	0.5048	0.003
Mof_C 	C 	0.6474	0.7305	0.4723	0.018
Mof_C 	C 	0.7606	0.0915	0.6317	0.001
Mof_H 	H 	0.49	0.7726	0.5083	0.044
Mof_H 	H 	0.5731	0.7158	0.4531	0.027
Mof_H 	H 	0.8549	0.0682	0.636	0.027
Mof_C 	C 	0.7606	0.1587	0.6315	0.002
Mof_H 	H 	0.8554	0.1822	0.635	0.019
Mof_O 	O 	0.5051	0.4157	0.5929	-0.598
Mof_O 	O 	0.7412	0.4171	0.57052	-0.558
Mof_O 	O 	0.5052	0.2917	0.6353	-0.579
Mof_C 	C 	0.6024	0.4301	0.5677	0.555
Mof_C 	C 	0.5495	0.4659	0.53281	-0.157
Mof_C 	C 	0.6534	0.486	0.5048	0.002
Mof_C 	C 	0.6026	0.5195	0.4723	0.019
Mof_C 	C 	0.4894	0.1585	0.6317	0.002
Mof_H 	H 	0.76	0.4774	0.5083	0.044
Mof_H 	H 	0.6769	0.5342	0.4531	0.027
Mof_H 	H 	0.3951	0.1818	0.636	0.026
Mof_C 	C 	0.4894	0.0913	0.6315	0.002
Mof_H 	H 	0.3946	0.0678	0.635	0.019
Mof_O 	O 	0.5051	0.9157	0.0929	-0.598
Mof_O 	O 	0.7412	0.9171	0.07052	-0.558
Mof_O 	O 	0.5052	0.7917	0.1353	-0.579
Mof_C 	C 	0.6024	0.9301	0.0677	0.555
Mof_C 	C 	0.5495	0.9659	0.03281	-0.157
Mof_C 	C 	0.6534	0.986	0.0048	0.001
Mof_C 	C 	0.6026	0.0195	0.9723	0.02
Mof_C 	C 	0.4894	0.6585	0.1317	0.002
Mof_H 	H 	0.76	0.9774	0.0083	0.043
Mof_H 	H 	0.6769	0.0342	0.9531	0.027
Mof_H 	H 	0.3951	0.6818	0.136	0.027
Mof_C 	C 	0.4894	0.5913	0.1315	0.002
Mof_H 	H 	0.3946	0.5678	0.135	0.019
Mof_O 	O 	0.0051	0.4157	0.0929	-0.597
Mof_O 	O 	0.2412	0.4171	0.07052	-0.558
Mof_O 	O 	0.0052	0.2917	0.1353	-0.579
Mof_C 	C 	0.1024	0.4301	0.0677	0.554
Mof_C 	C 	0.0495	0.4659	0.03281	-0.156
Mof_C 	C 	0.1534	0.486	0.0048	0.003
Mof_C 	C 	0.1026	0.5195	0.9723	0.017
Mof_C 	C 	0.9894	0.1585	0.1317	0.001
Mof_H 	H 	0.26	0.4774	0.0083	0.044
Mof_H 	H 	0.1769	0.5342	0.9531	0.027
Mof_H 	H 	0.8951	0.1818	0.136	0.027
Mof_C 	C 	0.9894	0.0913	0.1315	0.002
Mof_H 	H 	0.8946	0.0678	0.135	0.019
Mof_O 	O 	0.0051	0.9157	0.5929	-0.595
Mof_O 	O 	0.2412	0.9171	0.57052	-0.557
Mof_O 	O 	0.0052	0.7917	0.6353	-0.577
Mof_C 	C 	0.1024	0.9301	0.5677	0.554
Mof_C 	C 	0.0495	0.9659	0.53281	-0.153
Mof_C 	C 	0.1534	0.986	0.5048	0.005
Mof_C 	C 	0.1026	0.0195	0.4723	0.013
Mof_C 	C 	0.9894	0.6585	0.6317	0.001
Mof_H 	H 	0.26	0.9774	0.5083	0.043
Mof_H 	H 	0.1769	0.0342	0.4531	0.028
Mof_H 	H 	0.8951	0.6818	0.636	0.026
Mof_C 	C 	0.9894	0.5913	0.6315	0.001
Mof_H 	H 	0.8946	0.5678	0.635	0.019
Mof_O 	O 	0.5051	0.3343	0.1571	-0.598
Mof_O 	O 	0.7412	0.3329	0.17948	-0.557
Mof_O 	O 	0.5052	0.4583	0.1147	-0.579
Mof_C 	C 	0.6024	0.3199	0.1823	0.555
Mof_C 	C 	0.5495	0.2841	0.21719	-0.156
Mof_C 	C 	0.6534	0.264	0.2452	0.002
Mof_C 	C 	0.6026	0.2305	0.2777	0.019
Mof_C 	C 	0.4894	0.5915	0.1183	0.002
Mof_H 	H 	0.76	0.2726	0.2417	0.044
Mof_H 	H 	0.6769	0.2158	0.2969	0.027
Mof_H 	H 	0.3951	0.5682	0.114	0.027
Mof_C 	C 	0.4894	0.6587	0.1185	0.002
Mof_H 	H 	0.3946	0.6822	0.115	0.019
Mof_O 	O 	0.5051	0.8343	0.6571	-0.598
Mof_O 	O 	0.7412	0.8329	0.67948	-0.557
Mof_O 	O 	0.5052	0.9583	0.6147	-0.579
Mof_C 	C 	0.6024	0.8199	0.6823	0.555
Mof_C 	C 	0.5495	0.7841	0.71719	-0.157
Mof_C 	C 	0.6534	0.764	0.7452	0.002
Mof_C 	C 	0.6026	0.7305	0.7777	0.019
Mof_C 	C 	0.4894	0.0915	0.6183	0.001
Mof_H 	H 	0.76	0.7726	0.7417	0.043
Mof_H 	H 	0.6769	0.7158	0.7969	0.027
Mof_H 	H 	0.3951	0.0682	0.614	0.026
Mof_C 	C 	0.4894	0.1587	0.6185	0.002
Mof_H 	H 	0.3946	0.1822	0.615	0.019
Mof_O 	O 	0.0051	0.3343	0.6571	-0.598
Mof_O 	O 	0.2412	0.3329	0.67948	-0.558
Mof_O 	O 	0.0052	0.4583	0.6147	-0.579
Mof_C 	C 	0.1024	0.3199	0.6823	0.556
Mof_C 	C 	0.0495	0.2841	0.71719	-0.16
Mof_C 	C 	0.1534	0.264	0.7452	0.006
Mof_C 	C 	0.1026	0.2305	0.7777	0.013
Mof_C 	C 	0.9894	0.5915	0.6183	0.001
Mof_H 	H 	0.26	0.2726	0.7417	0.043
Mof_H 	H 	0.1769	0.2158	0.7969	0.028
Mof_H 	H 	0.8951	0.5682	0.614	0.026
Mof_C 	C 	0.9894	0.6587	0.6185	0.001
Mof_H 	H 	0.8946	0.6822	0.615	0.019
Mof_O 	O 	0.0051	0.8343	0.1571	-0.595
Mof_O 	O 	0.2412	0.8329	0.17948	-0.557
Mof_O 	O 	0.0052	0.9583	0.1147	-0.577
Mof_C 	C 	0.1024	0.8199	0.1823	0.553
Mof_C 	C 	0.0495	0.7841	0.21719	-0.152
Mof_C 	C 	0.1534	0.764	0.2452	-0.001
Mof_C 	C 	0.1026	0.7305	0.2777	0.023
Mof_C 	C 	0.9894	0.0915	0.1183	0.002
Mof_H 	H 	0.26	0.7726	0.2417	0.045
Mof_H 	H 	0.1769	0.7158	0.2969	0.026
Mof_H 	H 	0.8951	0.0682	0.114	0.026
Mof_C 	C 	0.9894	0.1587	0.1185	0.002
Mof_H 	H 	0.8946	0.1822	0.115	0.019
Mof_O 	O 	0.2449	0.4157	0.1571	-0.598
Mof_O 	O 	0.0088	0.4171	0.17948	-0.557
Mof_O 	O 	0.2448	0.2917	0.1147	-0.579
Mof_C 	C 	0.1476	0.4301	0.1823	0.555
Mof_C 	C 	0.2005	0.4659	0.21719	-0.157
Mof_C 	C 	0.0966	0.486	0.2452	0.003
Mof_C 	C 	0.1474	0.5195	0.2777	0.018
Mof_C 	C 	0.2606	0.1585	0.1183	0.001
Mof_H 	H 	0.99	0.4774	0.2417	0.043
Mof_H 	H 	0.0731	0.5342	0.2969	0.027
Mof_H 	H 	0.3549	0.1818	0.114	0.027
Mof_C 	C 	0.2606	0.0913	0.1185	0.002
Mof_H 	H 	0.3554	0.0678	0.115	0.019
Mof_O 	O 	0.2449	0.9157	0.6571	-0.598
Mof_O 	O 	0.0088	0.9171	0.67948	-0.556
Mof_O 	O 	0.2448	0.7917	0.6147	-0.579
Mof_C 	C 	0.1476	0.9301	0.6823	0.556
Mof_C 	C 	0.2005	0.9659	0.71719	-0.161
Mof_C 	C 	0.0966	0.986	0.7452	0.013
Mof_C 	C 	0.1474	0.0195	0.7777	0.011
Mof_C 	C 	0.2606	0.6585	0.6183	0.001
Mof_H 	H 	0.99	0.9774	0.7417	0.039
Mof_H 	H 	0.0731	0.0342	0.7969	0.028
Mof_H 	H 	0.3549	0.6818	0.614	0.027
Mof_C 	C 	0.2606	0.5913	0.6185	0.002
Mof_H 	H 	0.3554	0.5678	0.615	0.019
Mof_O 	O 	0.7449	0.4157	0.6571	-0.598
Mof_O 	O 	0.5088	0.4171	0.67948	-0.558
Mof_O 	O 	0.7448	0.2917	0.6147	-0.579
Mof_C 	C 	0.6476	0.4301	0.6823	0.555
Mof_C 	C 	0.7005	0.4659	0.71719	-0.156
Mof_C 	C 	0.5966	0.486	0.7452	0.002
Mof_C 	C 	0.6474	0.5195	0.7777	0.019
Mof_C 	C 	0.7606	0.1585	0.6183	0.002
Mof_H 	H 	0.49	0.4774	0.7417	0.044
Mof_H 	H 	0.5731	0.5342	0.7969	0.027
Mof_H 	H 	0.8549	0.1818	0.614	0.026
Mof_C 	C 	0.7606	0.0913	0.6185	0.002
Mof_H 	H 	0.8554	0.0678	0.615	0.019
Mof_O 	O 	0.7449	0.9157	0.1571	-0.597
Mof_O 	O 	0.5088	0.9171	0.17948	-0.557
Mof_O 	O 	0.7448	0.7917	0.1147	-0.579
Mof_C 	C 	0.6476	0.9301	0.1823	0.553
Mof_C 	C 	0.7005	0.9659	0.21719	-0.152
Mof_C 	C 	0.5966	0.986	0.2452	-0.003
Mof_C 	C 	0.6474	0.0195	0.2777	0.024
Mof_C 	C 	0.7606	0.6585	0.1183	0.002
Mof_H 	H 	0.49	0.9774	0.2417	0.046
Mof_H 	H 	0.5731	0.0342	0.2969	0.025
Mof_H 	H 	0.8549	0.6818	0.114	0.026
Mof_C 	C 	0.7606	0.5913	0.1185	0.002
Mof_H 	H 	0.8554	0.5678	0.115	0.019
Mof_O 	O 	0.7551	0.6657	0.4071	-0.598
Mof_O 	O 	0.9912	0.6671	0.42948	-0.558
Mof_O 	O 	0.7552	0.5417	0.3647	-0.579
Mof_C 	C 	0.8524	0.6801	0.4323	0.554
Mof_C 	C 	0.7995	0.7159	0.46719	-0.155
Mof_C 	C 	0.9034	0.736	0.4952	-0
Mof_C 	C 	0.8526	0.7695	0.5277	0.02
Mof_C 	C 	0.7394	0.4085	0.3683	0.002
Mof_H 	H 	0.01	0.7274	0.4917	0.045
Mof_H 	H 	0.9269	0.7842	0.5469	0.026
Mof_H 	H 	0.6451	0.4318	0.364	0.026
Mof_C 	C 	0.7394	0.3413	0.3685	0.002
Mof_H 	H 	0.6446	0.3178	0.365	0.019
Mof_O 	O 	0.7551	0.1657	0.9071	-0.598
Mof_O 	O 	0.9912	0.1671	0.92948	-0.555
Mof_O 	O 	0.7552	0.0417	0.8647	-0.579
Mof_C 	C 	0.8524	0.1801	0.9323	0.555
Mof_C 	C 	0.7995	0.2159	0.96719	-0.159
Mof_C 	C 	0.9034	0.236	0.9952	0.009
Mof_C 	C 	0.8526	0.2695	0.0277	0.015
Mof_C 	C 	0.7394	0.9085	0.8683	0.002
Mof_H 	H 	0.01	0.2274	0.9917	0.04
Mof_H 	H 	0.9269	0.2842	0.0469	0.028
Mof_H 	H 	0.6451	0.9318	0.864	0.026
Mof_C 	C 	0.7394	0.8413	0.8685	0.002
Mof_H 	H 	0.6446	0.8178	0.865	0.019
Mof_O 	O 	0.2551	0.6657	0.9071	-0.598
Mof_O 	O 	0.4912	0.6671	0.92948	-0.557
Mof_O 	O 	0.2552	0.5417	0.8647	-0.579
Mof_C 	C 	0.3524	0.6801	0.9323	0.554
Mof_C 	C 	0.2995	0.7159	0.96719	-0.154
Mof_C 	C 	0.4034	0.736	0.9952	-0
Mof_C 	C 	0.3526	0.7695	0.0277	0.021
Mof_C 	C 	0.2394	0.4085	0.8683	0.002
Mof_H 	H 	0.51	0.7274	0.9917	0.044
Mof_H 	H 	0.4269	0.7842	0.0469	0.026
Mof_H 	H 	0.1451	0.4318	0.864	0.026
Mof_C 	C 	0.2394	0.3413	0.8685	0.002
Mof_H 	H 	0.1446	0.3178	0.865	0.019
Mof_O 	O 	0.2551	0.1657	0.4071	-0.598
Mof_O 	O 	0.4912	0.1671	0.42948	-0.558
Mof_O 	O 	0.2552	0.0417	0.3647	-0.579
Mof_C 	C 	0.3524	0.1801	0.4323	0.555
Mof_C 	C 	0.2995	0.2159	0.46719	-0.157
Mof_C 	C 	0.4034	0.236	0.4952	0.003
Mof_C 	C 	0.3526	0.2695	0.5277	0.018
Mof_C 	C 	0.2394	0.9085	0.3683	0.001
Mof_H 	H 	0.51	0.2274	0.4917	0.044
Mof_H 	H 	0.4269	0.2842	0.5469	0.027
Mof_H 	H 	0.1451	0.9318	0.364	0.027
Mof_C 	C 	0.2394	0.8413	0.3685	0.002
Mof_H 	H 	0.1446	0.8178	0.365	0.019
Mof_O 	O 	0.4949	0.5843	0.4071	-0.598
Mof_O 	O 	0.2588	0.5829	0.42948	-0.558
Mof_O 	O 	0.4948	0.7083	0.3647	-0.579
Mof_C 	C 	0.3976	0.5699	0.4323	0.555
Mof_C 	C 	0.4505	0.5341	0.46719	-0.157
Mof_C 	C 	0.3466	0.514	0.4952	0.002
Mof_C 	C 	0.3974	0.4805	0.5277	0.019
Mof_C 	C 	0.5106	0.8415	0.3683	0.002
Mof_H 	H 	0.24	0.5226	0.4917	0.044
Mof_H 	H 	0.3231	0.4658	0.5469	0.027
Mof_H 	H 	0.6049	0.8182	0.364	0.026
Mof_C 	C 	0.5106	0.9087	0.3685	0.002
Mof_H 	H 	0.6054	0.9322	0.365	0.019
Mof_O 	O 	0.4949	0.0843	0.9071	-0.598
Mof_O 	O 	0.2588	0.0829	0.92948	-0.558
Mof_O 	O 	0.4948	0.2083	0.8647	-0.579
Mof_C 	C 	0.3976	0.0699	0.9323	0.555
Mof_C 	C 	0.4505	0.0341	0.96719	-0.157
Mof_C 	C 	0.3466	0.014	0.9952	0.001
Mof_C 	C 	0.3974	0.9805	0.0277	0.02
Mof_C 	C 	0.5106	0.3415	0.8683	0.002
Mof_H 	H 	0.24	0.0226	0.9917	0.043
Mof_H 	H 	0.3231	0.9658	0.0469	0.027
Mof_H 	H 	0.6049	0.3182	0.864	0.027
Mof_C 	C 	0.5106	0.4087	0.8685	0.002
Mof_H 	H 	0.6054	0.4322	0.865	0.019
Mof_O 	O 	0.9949	0.5843	0.9071	-0.597
Mof_O 	O 	0.7588	0.5829	0.92948	-0.558
Mof_O 	O 	0.9948	0.7083	0.8647	-0.579
Mof_C 	C 	0.8976	0.5699	0.9323	0.554
Mof_C 	C 	0.9505	0.5341	0.96719	-0.156
Mof_C 	C 	0.8466	0.514	0.9952	0.003
Mof_C 	C 	0.8974	0.4805	0.0277	0.017
Mof_C 	C 	0.0106	0.8415	0.8683	0.001
Mof_H 	H 	0.74	0.5226	0.9917	0.044
Mof_H 	H 	0.8231	0.4658	0.0469	0.027
Mof_H 	H 	0.1049	0.8182	0.864	0.027
Mof_C 	C 	0.0106	0.9087	0.8685	0.002
Mof_H 	H 	0.1054	0.9322	0.865	0.019
Mof_O 	O 	0.9949	0.0843	0.4071	-0.595
Mof_O 	O 	0.7588	0.0829	0.42948	-0.557
Mof_O 	O 	0.9948	0.2083	0.3647	-0.577
Mof_C 	C 	0.8976	0.0699	0.4323	0.554
Mof_C 	C 	0.9505	0.0341	0.46719	-0.153
Mof_C 	C 	0.8466	0.014	0.4952	0.005
Mof_C 	C 	0.8974	0.9805	0.5277	0.013
Mof_C 	C 	0.0106	0.3415	0.3683	0.001
Mof_H 	H 	0.74	0.0226	0.4917	0.043
Mof_H 	H 	0.8231	0.9658	0.5469	0.028
Mof_H 	H 	0.1049	0.3182	0.364	0.026
Mof_C 	C 	0.0106	0.4087	0.3685	0.001
Mof_H 	H 	0.1054	0.4322	0.365	0.019
Mof_O 	O 	0.4949	0.6657	0.8429	-0.598
Mof_O 	O 	0.2588	0.6671	0.82052	-0.557
Mof_O 	O 	0.4948	0.5417	0.8853	-0.579
Mof_C 	C 	0.3976	0.6801	0.8177	0.555
Mof_C 	C 	0.4505	0.7159	0.78281	-0.156
Mof_C 	C 	0.3466	0.736	0.7548	0.002
Mof_C 	C 	0.3974	0.7695	0.7223	0.019
Mof_C 	C 	0.5106	0.4085	0.8817	0.002
Mof_H 	H 	0.24	0.7274	0.7583	0.044
Mof_H 	H 	0.3231	0.7842	0.7031	0.027
Mof_H 	H 	0.6049	0.4318	0.886	0.027
Mof_C 	C 	0.5106	0.3413	0.8815	0.002
Mof_H 	H 	0.6054	0.3178	0.885	0.019
Mof_O 	O 	0.4949	0.1657	0.3429	-0.598
Mof_O 	O 	0.2588	0.1671	0.32052	-0.557
Mof_O 	O 	0.4948	0.0417	0.3853	-0.579
Mof_C 	C 	0.3976	0.1801	0.3177	0.555
Mof_C 	C 	0.4505	0.2159	0.28281	-0.157
Mof_C 	C 	0.3466	0.236	0.2548	0.002
Mof_C 	C 	0.3974	0.2695	0.2223	0.019
Mof_C 	C 	0.5106	0.9085	0.3817	0.001
Mof_H 	H 	0.24	0.2274	0.2583	0.043
Mof_H 	H 	0.3231	0.2842	0.2031	0.027
Mof_H 	H 	0.6049	0.9318	0.386	0.026
Mof_C 	C 	0.5106	0.8413	0.3815	0.002
Mof_H 	H 	0.6054	0.8178	0.385	0.019
Mof_O 	O 	0.9949	0.6657	0.3429	-0.598
Mof_O 	O 	0.7588	0.6671	0.32052	-0.558
Mof_O 	O 	0.9948	0.5417	0.3853	-0.579
Mof_C 	C 	0.8976	0.6801	0.3177	0.556
Mof_C 	C 	0.9505	0.7159	0.28281	-0.16
Mof_C 	C 	0.8466	0.736	0.2548	0.006
Mof_C 	C 	0.8974	0.7695	0.2223	0.013
Mof_C 	C 	0.0106	0.4085	0.3817	0.001
Mof_H 	H 	0.74	0.7274	0.2583	0.043
Mof_H 	H 	0.8231	0.7842	0.2031	0.028
Mof_H 	H 	0.1049	0.4318	0.386	0.026
Mof_C 	C 	0.0106	0.3413	0.3815	0.001
Mof_H 	H 	0.1054	0.3178	0.385	0.019
Mof_O 	O 	0.9949	0.1657	0.8429	-0.595
Mof_O 	O 	0.7588	0.1671	0.82052	-0.557
Mof_O 	O 	0.9948	0.0417	0.8853	-0.577
Mof_C 	C 	0.8976	0.1801	0.8177	0.553
Mof_C 	C 	0.9505	0.2159	0.78281	-0.152
Mof_C 	C 	0.8466	0.236	0.7548	-0.001
Mof_C 	C 	0.8974	0.2695	0.7223	0.023
Mof_C 	C 	0.0106	0.9085	0.8817	0.002
Mof_H 	H 	0.74	0.2274	0.7583	0.045
Mof_H 	H 	0.8231	0.2842	0.7031	0.026
Mof_H 	H 	0.1049	0.9318	0.886	0.026
Mof_C 	C 	0.0106	0.8413	0.8815	0.002
Mof_H 	H 	0.1054	0.8178	0.885	0.019
Mof_O 	O 	0.7551	0.5843	0.8429	-0.598
Mof_O 	O 	0.9912	0.5829	0.82052	-0.557
Mof_O 	O 	0.7552	0.7083	0.8853	-0.579
Mof_C 	C 	0.8524	0.5699	0.8177	0.555
Mof_C 	C 	0.7995	0.5341	0.78281	-0.157
Mof_C 	C 	0.9034	0.514	0.7548	0.003
Mof_C 	C 	0.8526	0.4805	0.7223	0.018
Mof_C 	C 	0.7394	0.8415	0.8817	0.001
Mof_H 	H 	0.01	0.5226	0.7583	0.043
Mof_H 	H 	0.9269	0.4658	0.7031	0.027
Mof_H 	H 	0.6451	0.8182	0.886	0.027
Mof_C 	C 	0.7394	0.9087	0.8815	0.002
Mof_H 	H 	0.6446	0.9322	0.885	0.019
Mof_O 	O 	0.7551	0.0843	0.3429	-0.598
Mof_O 	O 	0.9912	0.0829	0.32052	-0.556
Mof_O 	O 	0.7552	0.2083	0.3853	-0.579
Mof_C 	C 	0.8524	0.0699	0.3177	0.556
Mof_C 	C 	0.7995	0.0341	0.28281	-0.161
Mof_C 	C 	0.9034	0.014	0.2548	0.013
Mof_C 	C 	0.8526	0.9805	0.2223	0.011
Mof_C 	C 	0.7394	0.3415	0.3817	0.001
Mof_H 	H 	0.01	0.0226	0.2583	0.039
Mof_H 	H 	0.9269	0.9658	0.2031	0.028
Mof_H 	H 	0.6451	0.3182	0.386	0.027
Mof_C 	C 	0.7394	0.4087	0.3815	0.002
Mof_H 	H 	0.6446	0.4322	0.385	0.019
Mof_O 	O 	0.2551	0.5843	0.3429	-0.598
Mof_O 	O 	0.4912	0.5829	0.32052	-0.558
Mof_O 	O 	0.2552	0.7083	0.3853	-0.579
Mof_C 	C 	0.3524	0.5699	0.3177	0.555
Mof_C 	C 	0.2995	0.5341	0.28281	-0.156
Mof_C 	C 	0.4034	0.514	0.2548	0.002
Mof_C 	C 	0.3526	0.4805	0.2223	0.019
Mof_C 	C 	0.2394	0.8415	0.3817	0.002
Mof_H 	H 	0.51	0.5226	0.2583	0.044
Mof_H 	H 	0.4269	0.4658	0.2031	0.027
Mof_H 	H 	0.1451	0.8182	0.386	0.026
Mof_C 	C 	0.2394	0.9087	0.3815	0.002
Mof_H 	H 	0.1446	0.9322	0.385	0.019
Mof_O 	O 	0.2551	0.0843	0.8429	-0.597
Mof_O 	O 	0.4912	0.0829	0.82052	-0.557
Mof_O 	O 	0.2552	0.2083	0.8853	-0.579
Mof_C 	C 	0.3524	0.0699	0.8177	0.553
Mof_C 	C 	0.2995	0.0341	0.78281	-0.152
Mof_C 	C 	0.4034	0.014	0.7548	-0.003
Mof_C 	C 	0.3526	0.9805	0.7223	0.024
Mof_C 	C 	0.2394	0.3415	0.8817	0.002
Mof_H 	H 	0.51	0.0226	0.7583	0.046
Mof_H 	H 	0.4269	0.9658	0.7031	0.025
Mof_H 	H 	0.1451	0.3182	0.886	0.026
Mof_C 	C 	0.2394	0.4087	0.8815	0.002
Mof_H 	H 	0.1446	0.4322	0.885	0.019
Mof_Sc	Sc	0.375	0.375	0.63568	1.984
Mof_Sc	Sc	0.375	0.875	0.13568	1.984
Mof_Sc	Sc	0.875	0.375	0.13568	1.983
Mof_Sc	Sc	0.875	0.875	0.63568	1.979
Mof_Sc	Sc	0.375	0.375	0.11432	1.984
Mof_Sc	Sc	0.375	0.875	0.61432	1.984
Mof_Sc	Sc	0.875	0.375	0.61432	1.984
Mof_Sc	Sc	0.875	0.875	0.11432	1.977
Mof_Sc	Sc	0.625	0.625	0.36432	1.984
Mof_Sc	Sc	0.625	0.125	0.86432	1.984
Mof_Sc	Sc	0.125	0.625	0.86432	1.983
Mof_Sc	Sc	0.125	0.125	0.36432	1.979
Mof_Sc	Sc	0.625	0.625	0.88568	1.984
Mof_Sc	Sc	0.625	0.125	0.38568	1.984
Mof_Sc	Sc	0.125	0.625	0.38568	1.984
Mof_Sc	Sc	0.125	0.125	0.88568	1.977
Mof_C 	C 	0.125	0.4859	0.625	0.554
Mof_C 	C 	0.125	0.5582	0.625	-0.145
Mof_C 	C 	0.125	0.9859	0.125	0.556
Mof_C 	C 	0.125	0.0582	0.125	-0.149
Mof_C 	C 	0.625	0.9859	0.625	0.554
Mof_C 	C 	0.625	0.0582	0.625	-0.146
Mof_C 	C 	0.625	0.2641	0.625	0.555
Mof_C 	C 	0.625	0.1918	0.625	-0.146
Mof_C 	C 	0.625	0.7641	0.125	0.554
Mof_C 	C 	0.625	0.6918	0.125	-0.146
Mof_C 	C 	0.625	0.4859	0.125	0.555
Mof_C 	C 	0.625	0.5582	0.125	-0.146
Mof_C 	C 	0.125	0.2641	0.125	0.555
Mof_C 	C 	0.125	0.1918	0.125	-0.146
Mof_C 	C 	0.125	0.7641	0.625	0.554
Mof_C 	C 	0.125	0.6918	0.625	-0.145
Mof_C 	C 	0.875	0.5141	0.375	0.554
Mof_C 	C 	0.875	0.4418	0.375	-0.145
Mof_C 	C 	0.875	0.0141	0.875	0.556
Mof_C 	C 	0.875	0.9418	0.875	-0.149
Mof_C 	C 	0.375	0.7359	0.375	0.555
Mof_C 	C 	0.375	0.8082	0.375	-0.146
Mof_C 	C 	0.375	0.2359	0.875	0.554
Mof_C 	C 	0.375	0.3082	0.875	-0.146
Mof_C 	C 	0.375	0.5141	0.875	0.555
Mof_C 	C 	0.375	0.4418	0.875	-0.146
Mof_C 	C 	0.375	0.0141	0.375	0.554
Mof_C 	C 	0.375	0.9418	0.375	-0.146
Mof_C 	C 	0.875	0.7359	0.875	0.555
Mof_C 	C 	0.875	0.8082	0.875	-0.146
Mof_C 	C 	0.875	0.2359	0.375	0.554
Mof_C 	C 	0.875	0.3082	0.375	-0.145
_end
