data_functionalizedCrystal
_audit_creation_method	'EQeq! by Chris Wilmer'
_symmetry_space_group_name_H-M	'P1'
_symmetry_Int_Tables_number	1
_symmetry_cell_setting	triclinic
loop_
_symmetry_equiv_pos_as_xyz
  x,y,z
_cell_length_a	10.2245
_cell_length_b	10.2245
_cell_length_c	14.369
_cell_angle_alpha	90
_cell_angle_beta	90
_cell_angle_gamma	90
loop_
_atom_site_label
_atom_site_type_symbol
_atom_site_fract_x
_atom_site_fract_y
_atom_site_fract_z
_atom_site_charge
Mof_Lu	Lu	0.85181	0.14819	0.875	3.743
Mof_Lu	Lu	0.14819	0.85181	0.375	3.746
Mof_Lu	Lu	0.85181	0.85181	0.625	3.863
Mof_Lu	Lu	0.14819	0.14819	0.125	3.572
Mof_H 	H 	0.921	0.5585	0.871	-0.128
Mof_H 	H 	0.079	0.4415	0.371	-0.127
Mof_H 	H 	0.4415	0.921	0.621	-0.133
Mof_H 	H 	0.5585	0.079	0.121	-0.121
Mof_H 	H 	0.079	0.5585	0.129	-0.119
Mof_H 	H 	0.921	0.4415	0.629	-0.133
Mof_H 	H 	0.5585	0.921	0.379	-0.125
Mof_H 	H 	0.4415	0.079	0.879	-0.122
Mof_H 	H 	-0	0.9	-0	-0.149
Mof_H 	H 	-5.76791e-33	0.1	0.5	-0.19
Mof_H 	H 	0.1	-8.40252e-33	0.75	-0.184
Mof_H 	H 	0.9	0	0.25	-0.148
Mof_C 	C 	0.9534	0.6041	0.9221	0.43
Mof_C 	C 	0.9559	0.7407	0.9219	-0.43
Mof_C 	C 	0.9114	0.8191	0.8387	0.812
Mof_C 	C 	0.0466	0.3959	0.4221	0.391
Mof_C 	C 	0.0441	0.2593	0.4219	-0.511
Mof_C 	C 	0.0886	0.1809	0.3387	0.816
Mof_C 	C 	0.3959	0.9534	0.6721	0.435
Mof_C 	C 	0.2593	0.9559	0.6719	-0.472
Mof_C 	C 	0.1809	0.9114	0.5887	0.83
Mof_C 	C 	0.6041	0.0466	0.1721	0.373
Mof_C 	C 	0.7407	0.0441	0.1719	-0.477
Mof_C 	C 	0.8191	0.0886	0.0887	0.799
Mof_C 	C 	0.0466	0.6041	0.0779	0.37
Mof_C 	C 	0.0441	0.7407	0.0781	-0.473
Mof_C 	C 	0.0886	0.8191	0.1613	0.796
Mof_C 	C 	0.9534	0.3959	0.5779	0.433
Mof_C 	C 	0.9559	0.2593	0.5781	-0.481
Mof_C 	C 	0.9114	0.1809	0.6613	0.832
Mof_C 	C 	0.6041	0.9534	0.3279	0.419
Mof_C 	C 	0.7407	0.9559	0.3281	-0.443
Mof_C 	C 	0.8191	0.9114	0.4113	0.816
Mof_C 	C 	0.3959	0.0466	0.8279	0.388
Mof_C 	C 	0.2593	0.0441	0.8281	-0.501
Mof_C 	C 	0.1809	0.0886	0.9113	0.812
Mof_C 	C 	-4.20126e-33	0.3872	-0	0.757
Mof_C 	C 	4.20126e-33	0.5368	-0	-0.526
Mof_C 	C 	-0	0.8091	-0	0.328
Mof_C 	C 	1.10371e-32	0.6128	0.5	0.803
Mof_C 	C 	1.10371e-32	0.4632	0.5	-0.53
Mof_C 	C 	-5.76791e-33	0.1909	0.5	0.384
Mof_C 	C 	0.6128	-8.40252e-33	0.75	0.796
Mof_C 	C 	0.4632	-8.40252e-33	0.75	-0.53
Mof_C 	C 	0.1909	-8.40252e-33	0.75	0.372
Mof_C 	C 	0.3872	0	0.25	0.776
Mof_C 	C 	0.5368	0	0.25	-0.514
Mof_C 	C 	0.8091	0	0.25	0.352
Mof_O 	O 	0.9268	0.3335	0.9419	-0.853
Mof_O 	O 	0.8861	0.9358	0.8502	-0.894
Mof_O 	O 	0.9041	0.7601	0.7621	-0.898
Mof_O 	O 	0.0732	0.6665	0.4419	-0.917
Mof_O 	O 	0.1139	0.0642	0.3502	-0.967
Mof_O 	O 	0.0959	0.2399	0.2621	-0.888
Mof_O 	O 	0.6665	0.9268	0.6919	-0.888
Mof_O 	O 	0.0642	0.8861	0.6002	-0.961
Mof_O 	O 	0.2399	0.9041	0.5121	-0.895
Mof_O 	O 	0.3335	0.0732	0.1919	-0.889
Mof_O 	O 	0.9358	0.1139	0.1002	-0.892
Mof_O 	O 	0.7601	0.0959	0.0121	-0.902
Mof_O 	O 	0.0732	0.3335	0.0581	-0.888
Mof_O 	O 	0.1139	0.9358	0.1498	-0.894
Mof_O 	O 	0.0959	0.7601	0.2379	-0.896
Mof_O 	O 	0.9268	0.6665	0.5581	-0.894
Mof_O 	O 	0.8861	0.0642	0.6498	-0.968
Mof_O 	O 	0.9041	0.2399	0.7379	-0.897
Mof_O 	O 	0.3335	0.9268	0.3081	-0.866
Mof_O 	O 	0.9358	0.8861	0.3998	-0.897
Mof_O 	O 	0.7601	0.9041	0.4879	-0.898
Mof_O 	O 	0.6665	0.0732	0.8081	-0.913
Mof_O 	O 	0.0642	0.1139	0.8998	-0.952
Mof_O 	O 	0.2399	0.0959	0.9879	-0.87
_end
