data_functionalizedCrystal
_audit_creation_method	'EQeq! by Chris Wilmer'
_symmetry_space_group_name_H-M	'P1'
_symmetry_Int_Tables_number	1
_symmetry_cell_setting	triclinic
loop_
_symmetry_equiv_pos_as_xyz
  x,y,z
_cell_length_a	10.9488
_cell_length_b	11.7312
_cell_length_c	21.6864
_cell_angle_alpha	90
_cell_angle_beta	90
_cell_angle_gamma	90
loop_
_atom_site_label
_atom_site_type_symbol
_atom_site_fract_x
_atom_site_fract_y
_atom_site_fract_z
_atom_site_charge
Mof_Zn	Zn	0.86451	0.89341	0.88403	1.206
Mof_Zn	Zn	0.65465	0.19154	0.8415	1.177
Mof_N 	N 	0.817	0.8895	0.7864	-0.247
Mof_O 	O 	0.7799	0.0983	0.88221	-0.624
Mof_N 	N 	0.0061	0.8947	0.3766	-0.255
Mof_O 	O 	0.8158	0.8786	0.97876	-0.371
Mof_N 	N 	0.5154	0.713	0.1123	-0.248
Mof_N 	N 	0.6916	0.831	0.8842	-0.199
Mof_C 	C 	0.8927	0.1153	0.8879	0.592
Mof_C 	C 	0.7011	0.7849	0.1569	-0.076
Mof_C 	C 	0.7419	0.8159	0.0983	0.005
Mof_H 	H 	0.82	0.85	0.0936	0.047
Mof_N 	N 	0.6361	0.8005	0.9389	-0.126
Mof_C 	C 	0.7171	0.8811	0.6686	0.043
Mof_H 	H 	0.6834	0.8751	0.6283	-0.002
Mof_C 	C 	0.6703	0.7976	0.0476	-0.062
Mof_C 	C 	0.7002	0.8545	0.7769	0.069
Mof_C 	C 	0.1952	0.982	0.3446	-0.119
Mof_H 	H 	0.245	0.0096	0.312	0.063
Mof_C 	C 	0.5585	0.7454	0.056	0.029
Mof_H 	H 	0.5091	0.7313	0.0208	0.019
Mof_N 	N 	0.881	0.8543	0.206	-0.13
Mof_O 	O 	0.9665	0.034	0.89088	-0.523
Mof_N 	N 	0.9316	0.87	0.2637	-0.203
Mof_C 	C 	0.6491	0.8512	0.7192	-0.115
Mof_H 	H 	0.5665	0.8282	0.7143	0.029
Mof_C 	C 	0.7119	0.8282	0.9838	0.184
Mof_C 	C 	0.6347	0.8205	0.8324	-0.062
Mof_H 	H 	0.5536	0.792	0.8305	0.065
Mof_C 	C 	0.5882	0.7327	0.1609	0.05
Mof_H 	H 	0.5605	0.7094	0.2005	0.001
Mof_C 	C 	0.045	0.904	0.4355	0.068
Mof_H 	H 	0.9925	0.8782	0.4675	-0.031
Mof_C 	C 	0.8793	0.9226	0.7376	0.073
Mof_H 	H 	0.96	0.9503	0.7437	-0.016
Mof_C 	C 	0.0341	0.9249	0.2706	-0.056
Mof_H 	H 	0.0764	0.9565	0.2364	0.043
Mof_C 	C 	0.0809	0.9355	0.3336	0.079
Mof_C 	C 	0.8328	0.9193	0.6766	-0.134
Mof_H 	H 	0.8812	0.943	0.6426	0.062
Mof_C 	C 	0.1578	0.9495	0.4519	-0.126
Mof_H 	H 	0.1815	0.9547	0.4939	0.05
Mof_C 	C 	0.2335	0.9864	0.406	0.04
Mof_H 	H 	0.3123	0.015	0.4158	0.024
Mof_C 	C 	0.9415	0.2358	0.8938	-0.896
Mof_H 	H 	0.882	0.283	0.9159	0.246
Mof_H 	H 	0.9555	0.2677	0.8527	0.277
Mof_H 	H 	0.0187	0.2346	0.9167	0.283
Mof_O 	O 	0.7254	0.7728	0.26501	-0.405
Mof_C 	C 	0.7729	0.8028	0.2144	0.204
Mof_Zn	Zn	0.63549	0.10659	0.38403	1.206
Mof_Zn	Zn	0.84535	0.80846	0.3415	1.175
Mof_N 	N 	0.683	0.1105	0.2864	-0.247
Mof_O 	O 	0.7201	0.9017	0.38221	-0.628
Mof_N 	N 	0.4939	0.1053	0.8766	-0.256
Mof_O 	O 	0.6842	0.1214	0.47876	-0.37
Mof_N 	N 	0.9846	0.287	0.6123	-0.249
Mof_N 	N 	0.8084	0.169	0.3842	-0.2
Mof_C 	C 	0.6073	0.8847	0.3879	0.595
Mof_C 	C 	0.7989	0.2151	0.6569	-0.075
Mof_C 	C 	0.7581	0.1841	0.5983	0.006
Mof_H 	H 	0.68	0.15	0.5936	0.047
Mof_N 	N 	0.8639	0.1995	0.4389	-0.125
Mof_C 	C 	0.7829	0.1189	0.1686	0.044
Mof_H 	H 	0.8166	0.1249	0.1283	-0.002
Mof_C 	C 	0.8297	0.2024	0.5476	-0.062
Mof_C 	C 	0.7998	0.1455	0.2769	0.07
Mof_C 	C 	0.3048	0.018	0.8446	-0.124
Mof_H 	H 	0.255	0.9904	0.812	0.068
Mof_C 	C 	0.9415	0.2546	0.556	0.029
Mof_H 	H 	0.9909	0.2687	0.5208	0.019
Mof_N 	N 	0.619	0.1457	0.706	-0.129
Mof_O 	O 	0.5335	0.966	0.39088	-0.527
Mof_N 	N 	0.5684	0.13	0.7637	-0.2
Mof_C 	C 	0.8509	0.1488	0.2192	-0.115
Mof_H 	H 	0.9335	0.1718	0.2143	0.03
Mof_C 	C 	0.7881	0.1718	0.4838	0.186
Mof_C 	C 	0.8653	0.1795	0.3324	-0.062
Mof_H 	H 	0.9464	0.208	0.3305	0.065
Mof_C 	C 	0.9118	0.2673	0.6609	0.05
Mof_H 	H 	0.9395	0.2906	0.7005	0.001
Mof_C 	C 	0.455	0.096	0.9355	0.06
Mof_H 	H 	0.5075	0.1218	0.9675	-0.025
Mof_C 	C 	0.6207	0.0774	0.2376	0.074
Mof_H 	H 	0.54	0.0497	0.2437	-0.015
Mof_C 	C 	0.4659	0.0751	0.7706	-0.06
Mof_H 	H 	0.4236	0.0435	0.7364	0.043
Mof_C 	C 	0.4191	0.0645	0.8336	0.081
Mof_C 	C 	0.6672	0.0807	0.1766	-0.133
Mof_H 	H 	0.6188	0.057	0.1426	0.063
Mof_C 	C 	0.3422	0.0505	0.9519	-0.119
Mof_H 	H 	0.3185	0.0453	0.9939	0.047
Mof_C 	C 	0.2665	0.0136	0.906	0.033
Mof_H 	H 	0.1877	0.985	0.9158	0.029
Mof_C 	C 	0.5585	0.7642	0.3938	-0.907
Mof_H 	H 	0.618	0.717	0.4159	0.249
Mof_H 	H 	0.5445	0.7323	0.3527	0.279
Mof_H 	H 	0.4813	0.7654	0.4167	0.288
Mof_O 	O 	0.7746	0.2272	0.76501	-0.405
Mof_C 	C 	0.7271	0.1972	0.7144	0.204
Mof_Zn	Zn	0.13549	0.39341	0.61597	1.206
Mof_Zn	Zn	0.34535	0.69154	0.6585	1.176
Mof_N 	N 	0.183	0.3895	0.7136	-0.248
Mof_O 	O 	0.2201	0.5983	0.61779	-0.627
Mof_N 	N 	0.9939	0.3947	0.1234	-0.256
Mof_O 	O 	0.1842	0.3786	0.52124	-0.371
Mof_N 	N 	0.4846	0.213	0.3877	-0.249
Mof_N 	N 	0.3084	0.331	0.6158	-0.2
Mof_C 	C 	0.1073	0.6153	0.6121	0.594
Mof_C 	C 	0.2989	0.2849	0.3431	-0.076
Mof_C 	C 	0.2581	0.3159	0.4017	0.005
Mof_H 	H 	0.18	0.35	0.4064	0.047
Mof_N 	N 	0.3639	0.3005	0.5611	-0.126
Mof_C 	C 	0.2829	0.3811	0.8314	0.043
Mof_H 	H 	0.3166	0.3751	0.8717	-0.002
Mof_C 	C 	0.3297	0.2976	0.4524	-0.063
Mof_C 	C 	0.2998	0.3545	0.7231	0.07
Mof_C 	C 	0.8048	0.482	0.1554	-0.124
Mof_H 	H 	0.755	0.5096	0.188	0.067
Mof_C 	C 	0.4415	0.2454	0.444	0.029
Mof_H 	H 	0.4909	0.2313	0.4792	0.019
Mof_N 	N 	0.119	0.3543	0.294	-0.13
Mof_O 	O 	0.0335	0.534	0.60912	-0.527
Mof_N 	N 	0.0684	0.37	0.2363	-0.202
Mof_C 	C 	0.3509	0.3512	0.7808	-0.115
Mof_H 	H 	0.4335	0.3282	0.7857	0.029
Mof_C 	C 	0.2881	0.3282	0.5162	0.185
Mof_C 	C 	0.3653	0.3205	0.6676	-0.062
Mof_H 	H 	0.4464	0.292	0.6695	0.064
Mof_C 	C 	0.4118	0.2327	0.3391	0.05
Mof_H 	H 	0.4395	0.2094	0.2995	0.001
Mof_C 	C 	0.955	0.404	0.0645	0.064
Mof_H 	H 	0.0075	0.3782	0.0325	-0.028
Mof_C 	C 	0.1207	0.4226	0.7624	0.073
Mof_H 	H 	0.04	0.4503	0.7563	-0.015
Mof_C 	C 	0.9659	0.4249	0.2294	-0.059
Mof_H 	H 	0.9236	0.4565	0.2636	0.043
Mof_C 	C 	0.9191	0.4355	0.1664	0.08
Mof_C 	C 	0.1672	0.4193	0.8234	-0.133
Mof_H 	H 	0.1188	0.443	0.8574	0.063
Mof_C 	C 	0.8422	0.4495	0.0481	-0.123
Mof_H 	H 	0.8185	0.4547	0.0061	0.049
Mof_C 	C 	0.7665	0.4864	0.094	0.036
Mof_H 	H 	0.6877	0.515	0.0842	0.028
Mof_C 	C 	0.0585	0.7358	0.6062	-0.9
Mof_H 	H 	0.118	0.783	0.5841	0.247
Mof_H 	H 	0.0445	0.7677	0.6473	0.278
Mof_H 	H 	0.9813	0.7346	0.5833	0.285
Mof_O 	O 	0.2746	0.2728	0.23499	-0.406
Mof_C 	C 	0.2271	0.3028	0.2856	0.204
Mof_Zn	Zn	0.36451	0.60659	0.11597	1.206
Mof_Zn	Zn	0.15465	0.30846	0.1585	1.175
Mof_N 	N 	0.317	0.6105	0.2136	-0.247
Mof_O 	O 	0.2799	0.4017	0.11779	-0.628
Mof_N 	N 	0.5061	0.6053	0.6234	-0.256
Mof_O 	O 	0.3158	0.6214	0.02124	-0.371
Mof_N 	N 	0.0154	0.787	0.8877	-0.248
Mof_N 	N 	0.1916	0.669	0.1158	-0.2
Mof_C 	C 	0.3927	0.3847	0.1121	0.595
Mof_C 	C 	0.2011	0.7151	0.8431	-0.076
Mof_C 	C 	0.2419	0.6841	0.9017	0.005
Mof_H 	H 	0.32	0.65	0.9064	0.047
Mof_N 	N 	0.1361	0.6995	0.0611	-0.125
Mof_C 	C 	0.2171	0.6189	0.3314	0.043
Mof_H 	H 	0.1834	0.6249	0.3717	-0.002
Mof_C 	C 	0.1703	0.7024	0.9524	-0.063
Mof_C 	C 	0.2002	0.6455	0.2231	0.07
Mof_C 	C 	0.6952	0.518	0.6554	-0.124
Mof_H 	H 	0.745	0.4904	0.688	0.067
Mof_C 	C 	0.0585	0.7546	0.944	0.029
Mof_H 	H 	0.0091	0.7687	0.9792	0.019
Mof_N 	N 	0.381	0.6457	0.794	-0.129
Mof_O 	O 	0.4665	0.466	0.10912	-0.527
Mof_N 	N 	0.4316	0.63	0.7363	-0.201
Mof_C 	C 	0.1491	0.6488	0.2808	-0.115
Mof_H 	H 	0.0665	0.6718	0.2857	0.029
Mof_C 	C 	0.2119	0.6718	0.0162	0.186
Mof_C 	C 	0.1347	0.6795	0.1676	-0.062
Mof_H 	H 	0.0536	0.708	0.1695	0.065
Mof_C 	C 	0.0882	0.7673	0.8391	0.05
Mof_H 	H 	0.0605	0.7906	0.7995	0.002
Mof_C 	C 	0.545	0.596	0.5645	0.06
Mof_H 	H 	0.4925	0.6218	0.5325	-0.025
Mof_C 	C 	0.3793	0.5774	0.2624	0.074
Mof_H 	H 	0.46	0.5497	0.2563	-0.015
Mof_C 	C 	0.5341	0.5751	0.7294	-0.06
Mof_H 	H 	0.5764	0.5435	0.7636	0.043
Mof_C 	C 	0.5809	0.5645	0.6664	0.08
Mof_C 	C 	0.3328	0.5807	0.3234	-0.133
Mof_H 	H 	0.3812	0.557	0.3574	0.063
Mof_C 	C 	0.6578	0.5505	0.5481	-0.121
Mof_H 	H 	0.6815	0.5453	0.5061	0.048
Mof_C 	C 	0.7335	0.5136	0.594	0.035
Mof_H 	H 	0.8123	0.485	0.5842	0.028
Mof_C 	C 	0.4415	0.2642	0.1062	-0.906
Mof_H 	H 	0.382	0.217	0.0841	0.248
Mof_H 	H 	0.4555	0.2323	0.1473	0.279
Mof_H 	H 	0.5187	0.2654	0.0833	0.288
Mof_O 	O 	0.2254	0.7272	0.73499	-0.405
Mof_C 	C 	0.2729	0.6972	0.7856	0.204
_end
