data_functionalizedCrystal
_audit_creation_method	'EQeq! by Chris Wilmer'
_symmetry_space_group_name_H-M	'P1'
_symmetry_Int_Tables_number	1
_symmetry_cell_setting	triclinic
loop_
_symmetry_equiv_pos_as_xyz
  x,y,z
_cell_length_a	13.6888
_cell_length_b	27.469
_cell_length_c	45.9961
_cell_angle_alpha	90
_cell_angle_beta	90
_cell_angle_gamma	90
loop_
_atom_site_label
_atom_site_type_symbol
_atom_site_fract_x
_atom_site_fract_y
_atom_site_fract_z
_atom_site_charge
Mof_Zn	Zn	0.1463	0.46958	0.90997	1.164
Mof_Zn	Zn	0.3501	0.25407	0.81182	1.164
Mof_Zn	Zn	0.65263	0.05421	0.57196	1.163
Mof_Zn	Zn	0.8537	0.03042	0.40997	1.164
Mof_Zn	Zn	0.6499	0.24593	0.31182	1.163
Mof_Zn	Zn	0.34737	0.44579	0.07196	1.162
Mof_Zn	Zn	0.6463	0.53042	0.59003	1.163
Mof_Zn	Zn	0.8501	0.74593	0.68818	1.163
Mof_Zn	Zn	0.15263	0.94579	0.92804	1.162
Mof_Zn	Zn	0.3537	0.96958	0.09003	1.163
Mof_Zn	Zn	0.1499	0.75407	0.18818	1.163
Mof_Zn	Zn	0.84737	0.55421	0.42804	1.162
Mof_H 	H 	0.9912	0.4141	0.8784	-0.006
Mof_H 	H 	0.8357	0.383	0.8854	0.091
Mof_H 	H 	0.846	0.432	0.9685	0.084
Mof_H 	H 	0.0029	0.4596	0.9594	-0.005
Mof_H 	H 	0.6348	0.4433	0.0039	0.085
Mof_H 	H 	0.5436	0.466	0.0445	-0.004
Mof_H 	H 	0.3125	0.3972	0.0144	-0.006
Mof_H 	H 	0.3967	0.3728	0.9728	0.076
Mof_H 	H 	0.3939	0.3437	0.9047	0.082
Mof_H 	H 	0.3128	0.3072	0.8662	-0.011
Mof_H 	H 	0.5613	0.2737	0.8286	-0.016
Mof_H 	H 	0.6494	0.3117	0.8654	0.078
Mof_H 	H 	0.4909	0.3469	0.7287	0.079
Mof_H 	H 	0.4256	0.3347	0.7751	-0.009
Mof_H 	H 	0.4646	0.1931	0.769	0.002
Mof_H 	H 	0.528	0.2005	0.7223	0.08
Mof_H 	H 	0.592	0.351	0.5946	0.08
Mof_H 	H 	0.6136	0.4265	0.5734	-0.007
Mof_H 	H 	0.5977	0.491	0.6499	-0.004
Mof_H 	H 	0.5731	0.4161	0.6731	0.079
Mof_H 	H 	0.5541	0.1508	0.6598	0.078
Mof_H 	H 	0.576	0.0825	0.631	-0.006
Mof_H 	H 	0.6485	0.1637	0.5636	-0.014
Mof_H 	H 	0.6208	0.2344	0.5895	0.078
Mof_H 	H 	0.0088	0.0859	0.3784	-0.006
Mof_H 	H 	0.1643	0.117	0.3854	0.091
Mof_H 	H 	0.154	0.068	0.4685	0.084
Mof_H 	H 	0.9971	0.0404	0.4594	-0.006
Mof_H 	H 	0.3652	0.0567	0.5039	0.085
Mof_H 	H 	0.4564	0.034	0.5445	-0.004
Mof_H 	H 	0.6875	0.1028	0.5144	-0.006
Mof_H 	H 	0.6033	0.1272	0.4728	0.076
Mof_H 	H 	0.6061	0.1563	0.4047	0.082
Mof_H 	H 	0.6872	0.1928	0.3662	-0.011
Mof_H 	H 	0.4387	0.2263	0.3286	-0.016
Mof_H 	H 	0.3506	0.1883	0.3654	0.078
Mof_H 	H 	0.5091	0.1531	0.2287	0.079
Mof_H 	H 	0.5744	0.1653	0.2751	-0.009
Mof_H 	H 	0.5354	0.3069	0.269	0.002
Mof_H 	H 	0.472	0.2995	0.2223	0.08
Mof_H 	H 	0.408	0.149	0.0946	0.08
Mof_H 	H 	0.3864	0.0735	0.0734	-0.007
Mof_H 	H 	0.4023	0.009	0.1499	-0.004
Mof_H 	H 	0.4269	0.0839	0.1731	0.079
Mof_H 	H 	0.4459	0.3492	0.1598	0.078
Mof_H 	H 	0.424	0.4175	0.131	-0.006
Mof_H 	H 	0.3515	0.3363	0.0636	-0.014
Mof_H 	H 	0.3792	0.2656	0.0895	0.078
Mof_H 	H 	0.4912	0.5859	0.6216	-0.006
Mof_H 	H 	0.3357	0.617	0.6146	0.091
Mof_H 	H 	0.346	0.568	0.5315	0.084
Mof_H 	H 	0.5029	0.5404	0.5406	-0.006
Mof_H 	H 	0.1348	0.5567	0.4961	0.085
Mof_H 	H 	0.0436	0.534	0.4555	-0.004
Mof_H 	H 	0.8125	0.6028	0.4856	-0.006
Mof_H 	H 	0.8967	0.6272	0.5272	0.076
Mof_H 	H 	0.8939	0.6563	0.5953	0.082
Mof_H 	H 	0.8128	0.6928	0.6338	-0.011
Mof_H 	H 	0.0613	0.7263	0.6714	-0.016
Mof_H 	H 	0.1494	0.6883	0.6346	0.078
Mof_H 	H 	0.9909	0.6531	0.7713	0.079
Mof_H 	H 	0.9256	0.6653	0.7249	-0.009
Mof_H 	H 	0.9646	0.8069	0.731	0.002
Mof_H 	H 	0.028	0.7995	0.7777	0.079
Mof_H 	H 	0.092	0.649	0.9054	0.08
Mof_H 	H 	0.1136	0.5735	0.9266	-0.007
Mof_H 	H 	0.0977	0.509	0.8501	-0.004
Mof_H 	H 	0.0731	0.5839	0.8269	0.079
Mof_H 	H 	0.0541	0.8492	0.8402	0.078
Mof_H 	H 	0.076	0.9175	0.869	-0.006
Mof_H 	H 	0.1485	0.8363	0.9364	-0.014
Mof_H 	H 	0.1208	0.7656	0.9105	0.078
Mof_H 	H 	0.5088	0.9141	0.1216	-0.006
Mof_H 	H 	0.6643	0.883	0.1146	0.091
Mof_H 	H 	0.654	0.932	0.0315	0.084
Mof_H 	H 	0.4971	0.9596	0.0406	-0.006
Mof_H 	H 	0.8652	0.9433	0.9961	0.085
Mof_H 	H 	0.9564	0.966	0.9555	-0.005
Mof_H 	H 	0.1875	0.8972	0.9856	-0.006
Mof_H 	H 	0.1033	0.8728	0.0272	0.076
Mof_H 	H 	0.1061	0.8437	0.0953	0.082
Mof_H 	H 	0.1872	0.8072	0.1338	-0.011
Mof_H 	H 	0.9387	0.7737	0.1714	-0.016
Mof_H 	H 	0.8506	0.8117	0.1346	0.078
Mof_H 	H 	0.0091	0.8469	0.2713	0.079
Mof_H 	H 	0.0744	0.8347	0.2249	-0.009
Mof_H 	H 	0.0354	0.6931	0.231	0.002
Mof_H 	H 	0.972	0.7005	0.2777	0.079
Mof_H 	H 	0.908	0.851	0.4054	0.08
Mof_H 	H 	0.8864	0.9265	0.4266	-0.007
Mof_H 	H 	0.9023	0.991	0.3501	-0.003
Mof_H 	H 	0.9269	0.9161	0.3269	0.079
Mof_H 	H 	0.9459	0.6508	0.3402	0.078
Mof_H 	H 	0.924	0.5825	0.369	-0.005
Mof_H 	H 	0.8515	0.6637	0.4364	-0.014
Mof_H 	H 	0.8792	0.7344	0.4105	0.078
Mof_C 	C 	0.9611	0.41745	0.89689	0.062
Mof_C 	C 	0.8682	0.3991	0.90085	-0.119
Mof_C 	C 	0.8225	0.40441	0.92774	0.048
Mof_C 	C 	0.8744	0.42766	0.94984	-0.122
Mof_C 	C 	0.9676	0.44431	0.94413	0.073
Mof_C 	C 	0.5688	0.433	0.00566	-0.114
Mof_C 	C 	0.5139	0.44653	0.0299	0.062
Mof_C 	C 	0.379	0.40637	0.01225	0.063
Mof_C 	C 	0.4287	0.39143	0.98736	-0.108
Mof_C 	C 	0.5267	0.40456	0.98426	0.046
Mof_C 	C 	0.7206	0.38855	0.93173	0.097
Mof_C 	C 	0.5822	0.38907	0.95814	0.103
Mof_C 	C 	0.5836	0.35469	0.91378	0.108
Mof_C 	C 	0.531	0.33075	0.88932	0.06
Mof_C 	C 	0.4299	0.32958	0.8892	-0.113
Mof_C 	C 	0.3822	0.30759	0.86628	0.07
Mof_C 	C 	0.527	0.28841	0.84429	0.075
Mof_C 	C 	0.5801	0.31053	0.86626	-0.122
Mof_C 	C 	0.4836	0.31489	0.73624	-0.11
Mof_C 	C 	0.4457	0.30726	0.76399	0.061
Mof_C 	C 	0.4682	0.2244	0.76036	0.059
Mof_C 	C 	0.5057	0.2284	0.73256	-0.108
Mof_C 	C 	0.5102	0.2746	0.71984	0.045
Mof_C 	C 	0.5931	0.37934	0.60644	-0.111
Mof_C 	C 	0.6064	0.42442	0.59389	0.065
Mof_C 	C 	0.5967	0.46202	0.63866	0.059
Mof_C 	C 	0.5823	0.41749	0.65265	-0.11
Mof_C 	C 	0.5816	0.37528	0.63612	0.05
Mof_C 	C 	0.5716	0.32675	0.64994	0.101
Mof_C 	C 	0.5406	0.27983	0.68893	0.105
Mof_C 	C 	0.5738	0.24481	0.64582	0.104
Mof_C 	C 	0.5865	0.20052	0.62793	0.046
Mof_C 	C 	0.5728	0.15422	0.64006	-0.108
Mof_C 	C 	0.5869	0.11377	0.62278	0.054
Mof_C 	C 	0.6281	0.16125	0.58333	0.068
Mof_C 	C 	0.6132	0.20361	0.59863	-0.115
Mof_C 	C 	0.0389	0.08255	0.39689	0.063
Mof_C 	C 	0.1318	0.1009	0.40085	-0.119
Mof_C 	C 	0.1775	0.09559	0.42774	0.049
Mof_C 	C 	0.1256	0.07234	0.44984	-0.123
Mof_C 	C 	0.0324	0.05569	0.44413	0.075
Mof_C 	C 	0.4312	0.067	0.50566	-0.114
Mof_C 	C 	0.4861	0.05347	0.5299	0.062
Mof_C 	C 	0.621	0.09363	0.51225	0.063
Mof_C 	C 	0.5713	0.10857	0.48736	-0.108
Mof_C 	C 	0.4733	0.09544	0.48426	0.046
Mof_C 	C 	0.2794	0.11145	0.43173	0.097
Mof_C 	C 	0.4178	0.11093	0.45814	0.103
Mof_C 	C 	0.4164	0.14531	0.41378	0.108
Mof_C 	C 	0.469	0.16925	0.38932	0.06
Mof_C 	C 	0.5701	0.17042	0.3892	-0.113
Mof_C 	C 	0.6178	0.19241	0.36628	0.07
Mof_C 	C 	0.473	0.21159	0.34429	0.075
Mof_C 	C 	0.4199	0.18947	0.36626	-0.122
Mof_C 	C 	0.5164	0.18511	0.23624	-0.11
Mof_C 	C 	0.5543	0.19274	0.26399	0.061
Mof_C 	C 	0.5318	0.2756	0.26036	0.059
Mof_C 	C 	0.4943	0.2716	0.23256	-0.108
Mof_C 	C 	0.4898	0.2254	0.21984	0.045
Mof_C 	C 	0.4069	0.12066	0.10644	-0.111
Mof_C 	C 	0.3936	0.07558	0.09389	0.065
Mof_C 	C 	0.4033	0.03798	0.13866	0.059
Mof_C 	C 	0.4177	0.08251	0.15265	-0.11
Mof_C 	C 	0.4184	0.12472	0.13612	0.05
Mof_C 	C 	0.4284	0.17325	0.14994	0.101
Mof_C 	C 	0.4594	0.22017	0.18893	0.105
Mof_C 	C 	0.4262	0.25519	0.14582	0.104
Mof_C 	C 	0.4135	0.29948	0.12793	0.046
Mof_C 	C 	0.4272	0.34578	0.14006	-0.108
Mof_C 	C 	0.4131	0.38623	0.12278	0.054
Mof_C 	C 	0.3719	0.33875	0.08333	0.068
Mof_C 	C 	0.3868	0.29639	0.09863	-0.115
Mof_C 	C 	0.4611	0.58255	0.60311	0.063
Mof_C 	C 	0.3682	0.6009	0.59915	-0.119
Mof_C 	C 	0.3225	0.59559	0.57226	0.048
Mof_C 	C 	0.3744	0.57234	0.55016	-0.122
Mof_C 	C 	0.4676	0.55569	0.55587	0.074
Mof_C 	C 	0.0688	0.567	0.49434	-0.114
Mof_C 	C 	0.0139	0.55347	0.4701	0.062
Mof_C 	C 	0.879	0.59363	0.48775	0.063
Mof_C 	C 	0.9287	0.60857	0.51264	-0.107
Mof_C 	C 	0.0267	0.59544	0.51574	0.046
Mof_C 	C 	0.2206	0.61145	0.56827	0.097
Mof_C 	C 	0.0822	0.61093	0.54186	0.103
Mof_C 	C 	0.0836	0.64531	0.58622	0.108
Mof_C 	C 	0.031	0.66925	0.61068	0.06
Mof_C 	C 	0.9299	0.67042	0.6108	-0.113
Mof_C 	C 	0.8822	0.69241	0.63372	0.07
Mof_C 	C 	0.027	0.71159	0.65571	0.075
Mof_C 	C 	0.0801	0.68947	0.63374	-0.122
Mof_C 	C 	0.9836	0.68511	0.76376	-0.111
Mof_C 	C 	0.9457	0.69274	0.73601	0.061
Mof_C 	C 	0.9682	0.7756	0.73964	0.058
Mof_C 	C 	0.0057	0.7716	0.76744	-0.107
Mof_C 	C 	0.0102	0.7254	0.78016	0.046
Mof_C 	C 	0.0931	0.62066	0.89356	-0.111
Mof_C 	C 	0.1064	0.57558	0.90611	0.065
Mof_C 	C 	0.0967	0.53798	0.86134	0.059
Mof_C 	C 	0.0823	0.58251	0.84735	-0.11
Mof_C 	C 	0.0816	0.62472	0.86388	0.05
Mof_C 	C 	0.0716	0.67325	0.85006	0.101
Mof_C 	C 	0.0406	0.72017	0.81107	0.105
Mof_C 	C 	0.0738	0.75519	0.85418	0.104
Mof_C 	C 	0.0865	0.79948	0.87207	0.046
Mof_C 	C 	0.0728	0.84578	0.85994	-0.108
Mof_C 	C 	0.0869	0.88623	0.87722	0.054
Mof_C 	C 	0.1281	0.83875	0.91667	0.068
Mof_C 	C 	0.1132	0.79639	0.90137	-0.115
Mof_C 	C 	0.5389	0.91745	0.10311	0.063
Mof_C 	C 	0.6318	0.8991	0.09915	-0.119
Mof_C 	C 	0.6775	0.90441	0.07226	0.048
Mof_C 	C 	0.6256	0.92766	0.05016	-0.122
Mof_C 	C 	0.5324	0.94431	0.05587	0.074
Mof_C 	C 	0.9312	0.933	0.99434	-0.115
Mof_C 	C 	0.9861	0.94653	0.9701	0.063
Mof_C 	C 	0.121	0.90637	0.98775	0.064
Mof_C 	C 	0.0713	0.89143	0.01264	-0.109
Mof_C 	C 	0.9733	0.90456	0.01574	0.047
Mof_C 	C 	0.7794	0.88855	0.06827	0.097
Mof_C 	C 	0.9178	0.88907	0.04186	0.103
Mof_C 	C 	0.9164	0.85469	0.08622	0.108
Mof_C 	C 	0.969	0.83075	0.11068	0.062
Mof_C 	C 	0.0701	0.82958	0.1108	-0.114
Mof_C 	C 	0.1178	0.80759	0.13372	0.071
Mof_C 	C 	0.973	0.78841	0.15571	0.076
Mof_C 	C 	0.9199	0.81053	0.13374	-0.123
Mof_C 	C 	0.0164	0.81489	0.26376	-0.112
Mof_C 	C 	0.0543	0.80726	0.23601	0.061
Mof_C 	C 	0.0318	0.7244	0.23964	0.057
Mof_C 	C 	0.9943	0.7284	0.26744	-0.107
Mof_C 	C 	0.9898	0.7746	0.28016	0.046
Mof_C 	C 	0.9069	0.87934	0.39356	-0.111
Mof_C 	C 	0.8936	0.92442	0.40611	0.066
Mof_C 	C 	0.9033	0.96202	0.36134	0.059
Mof_C 	C 	0.9177	0.91749	0.34735	-0.11
Mof_C 	C 	0.9184	0.87528	0.36388	0.05
Mof_C 	C 	0.9284	0.82675	0.35006	0.101
Mof_C 	C 	0.9594	0.77983	0.31107	0.105
Mof_C 	C 	0.9262	0.74481	0.35418	0.104
Mof_C 	C 	0.9135	0.70052	0.37207	0.046
Mof_C 	C 	0.9272	0.65422	0.35994	-0.108
Mof_C 	C 	0.9131	0.61377	0.37722	0.054
Mof_C 	C 	0.8719	0.66125	0.41667	0.068
Mof_C 	C 	0.8868	0.70361	0.40137	-0.115
Mof_I 	I 	0.19809	0.30707	0.80372	-0.366
Mof_I 	I 	0.5669	0.98514	0.59842	-0.365
Mof_I 	I 	0.22674	0.48709	0.95896	-0.387
Mof_I 	I 	0.83523	0.06327	0.56213	-0.379
Mof_I 	I 	0.3288	0.16324	0.8217	-0.375
Mof_I 	I 	0.23019	0.41981	0.87076	-0.367
Mof_I 	I 	0.80191	0.19293	0.30372	-0.366
Mof_I 	I 	0.4331	0.51486	0.09842	-0.365
Mof_I 	I 	0.77326	0.01291	0.45896	-0.387
Mof_I 	I 	0.16477	0.43673	0.06213	-0.379
Mof_I 	I 	0.6712	0.33676	0.3217	-0.375
Mof_I 	I 	0.76981	0.08019	0.37076	-0.367
Mof_I 	I 	0.69809	0.69293	0.69628	-0.366
Mof_I 	I 	0.0669	0.01486	0.90158	-0.365
Mof_I 	I 	0.72674	0.51291	0.54104	-0.387
Mof_I 	I 	0.33523	0.93673	0.93787	-0.379
Mof_I 	I 	0.8288	0.83676	0.6783	-0.375
Mof_I 	I 	0.73019	0.58019	0.62924	-0.367
Mof_I 	I 	0.30191	0.80707	0.19628	-0.366
Mof_I 	I 	0.9331	0.48514	0.40158	-0.365
Mof_I 	I 	0.27326	0.98709	0.04104	-0.387
Mof_I 	I 	0.66477	0.56327	0.43787	-0.379
Mof_I 	I 	0.1712	0.66324	0.1783	-0.375
Mof_I 	I 	0.26981	0.91981	0.12924	-0.367
Mof_N 	N 	0.0106	0.43995	0.91835	-0.272
Mof_N 	N 	0.6761	0.40124	0.95683	-0.143
Mof_N 	N 	0.6786	0.36417	0.91002	-0.135
Mof_N 	N 	0.532	0.36557	0.93743	-0.137
Mof_N 	N 	0.4299	0.28695	0.84429	-0.275
Mof_N 	N 	0.4367	0.26297	0.77557	-0.27
Mof_N 	N 	0.5499	0.32475	0.67832	-0.14
Mof_N 	N 	0.5519	0.23872	0.67389	-0.14
Mof_N 	N 	0.5843	0.28781	0.63254	-0.139
Mof_N 	N 	0.6154	0.11661	0.59466	-0.269
Mof_N 	N 	0.4204	0.43288	0.03327	-0.269
Mof_N 	N 	0.6094	0.46529	0.60964	-0.269
Mof_N 	N 	0.9894	0.06005	0.41835	-0.273
Mof_N 	N 	0.3239	0.09876	0.45683	-0.143
Mof_N 	N 	0.3214	0.13583	0.41002	-0.135
Mof_N 	N 	0.468	0.13443	0.43743	-0.137
Mof_N 	N 	0.5701	0.21305	0.34429	-0.275
Mof_N 	N 	0.5633	0.23703	0.27557	-0.27
Mof_N 	N 	0.4501	0.17525	0.17832	-0.14
Mof_N 	N 	0.4481	0.26128	0.17389	-0.14
Mof_N 	N 	0.4157	0.21219	0.13254	-0.139
Mof_N 	N 	0.3846	0.38339	0.09466	-0.269
Mof_N 	N 	0.5796	0.06712	0.53327	-0.269
Mof_N 	N 	0.3906	0.03471	0.10964	-0.268
Mof_N 	N 	0.5106	0.56005	0.58165	-0.273
Mof_N 	N 	0.1761	0.59876	0.54317	-0.143
Mof_N 	N 	0.1786	0.63583	0.58998	-0.135
Mof_N 	N 	0.032	0.63443	0.56257	-0.138
Mof_N 	N 	0.9299	0.71305	0.65571	-0.275
Mof_N 	N 	0.9367	0.73703	0.72443	-0.27
Mof_N 	N 	0.0499	0.67525	0.82168	-0.14
Mof_N 	N 	0.0519	0.76128	0.82611	-0.14
Mof_N 	N 	0.0843	0.71219	0.86746	-0.139
Mof_N 	N 	0.1154	0.88339	0.90534	-0.27
Mof_N 	N 	0.9204	0.56712	0.46673	-0.269
Mof_N 	N 	0.1094	0.53471	0.89036	-0.269
Mof_N 	N 	0.4894	0.93995	0.08165	-0.273
Mof_N 	N 	0.8239	0.90124	0.04317	-0.143
Mof_N 	N 	0.8214	0.86417	0.08998	-0.135
Mof_N 	N 	0.968	0.86557	0.06257	-0.137
Mof_N 	N 	0.0701	0.78695	0.15571	-0.276
Mof_N 	N 	0.0633	0.76297	0.22443	-0.27
Mof_N 	N 	0.9501	0.82475	0.32168	-0.139
Mof_N 	N 	0.9481	0.73872	0.32611	-0.14
Mof_N 	N 	0.9157	0.78781	0.36746	-0.139
Mof_N 	N 	0.8846	0.61661	0.40534	-0.269
Mof_N 	N 	0.0796	0.93288	0.96673	-0.27
Mof_N 	N 	0.8906	0.96529	0.39036	-0.268
Mof_Zn	Zn	0.8537	0.53042	0.09003	1.163
Mof_Zn	Zn	0.6499	0.74593	0.18818	1.163
Mof_Zn	Zn	0.34737	0.94579	0.42804	1.162
Mof_Zn	Zn	0.1463	0.96958	0.59003	1.163
Mof_Zn	Zn	0.3501	0.75407	0.68818	1.163
Mof_Zn	Zn	0.65263	0.55421	0.92804	1.162
Mof_Zn	Zn	0.3537	0.46958	0.40997	1.163
Mof_Zn	Zn	0.1499	0.25407	0.31182	1.163
Mof_Zn	Zn	0.84737	0.05421	0.07196	1.162
Mof_Zn	Zn	0.6463	0.03042	0.90997	1.163
Mof_Zn	Zn	0.8501	0.24593	0.81182	1.163
Mof_Zn	Zn	0.15263	0.44579	0.57196	1.162
Mof_H 	H 	0.0088	0.5859	0.1216	-0.006
Mof_H 	H 	0.1643	0.617	0.1146	0.091
Mof_H 	H 	0.154	0.568	0.0315	0.084
Mof_H 	H 	0.9971	0.5404	0.0406	-0.005
Mof_H 	H 	0.3652	0.5567	0.9961	0.085
Mof_H 	H 	0.4564	0.534	0.9555	-0.004
Mof_H 	H 	0.6875	0.6028	0.9856	-0.006
Mof_H 	H 	0.6033	0.6272	0.0272	0.076
Mof_H 	H 	0.6061	0.6563	0.0953	0.082
Mof_H 	H 	0.6872	0.6928	0.1338	-0.011
Mof_H 	H 	0.4387	0.7263	0.1714	-0.016
Mof_H 	H 	0.3506	0.6883	0.1346	0.078
Mof_H 	H 	0.5091	0.6531	0.2713	0.079
Mof_H 	H 	0.5744	0.6653	0.2249	-0.009
Mof_H 	H 	0.5354	0.8069	0.231	0.002
Mof_H 	H 	0.472	0.7995	0.2777	0.08
Mof_H 	H 	0.408	0.649	0.4054	0.08
Mof_H 	H 	0.3864	0.5735	0.4266	-0.007
Mof_H 	H 	0.4023	0.509	0.3501	-0.004
Mof_H 	H 	0.4269	0.5839	0.3269	0.079
Mof_H 	H 	0.4459	0.8492	0.3402	0.078
Mof_H 	H 	0.424	0.9175	0.369	-0.006
Mof_H 	H 	0.3515	0.8363	0.4364	-0.014
Mof_H 	H 	0.3792	0.7656	0.4105	0.078
Mof_H 	H 	0.9912	0.9141	0.6216	-0.006
Mof_H 	H 	0.8357	0.883	0.6146	0.091
Mof_H 	H 	0.846	0.932	0.5315	0.084
Mof_H 	H 	0.0029	0.9596	0.5406	-0.006
Mof_H 	H 	0.6348	0.9433	0.4961	0.085
Mof_H 	H 	0.5436	0.966	0.4555	-0.004
Mof_H 	H 	0.3125	0.8972	0.4856	-0.006
Mof_H 	H 	0.3967	0.8728	0.5272	0.076
Mof_H 	H 	0.3939	0.8437	0.5953	0.082
Mof_H 	H 	0.3128	0.8072	0.6338	-0.011
Mof_H 	H 	0.5613	0.7737	0.6714	-0.016
Mof_H 	H 	0.6494	0.8117	0.6346	0.078
Mof_H 	H 	0.4909	0.8469	0.7713	0.079
Mof_H 	H 	0.4256	0.8347	0.7249	-0.009
Mof_H 	H 	0.4646	0.6931	0.731	0.002
Mof_H 	H 	0.528	0.7005	0.7777	0.08
Mof_H 	H 	0.592	0.851	0.9054	0.08
Mof_H 	H 	0.6136	0.9265	0.9266	-0.007
Mof_H 	H 	0.5977	0.991	0.8501	-0.004
Mof_H 	H 	0.5731	0.9161	0.8269	0.079
Mof_H 	H 	0.5541	0.6508	0.8402	0.078
Mof_H 	H 	0.576	0.5825	0.869	-0.006
Mof_H 	H 	0.6485	0.6637	0.9364	-0.014
Mof_H 	H 	0.6208	0.7344	0.9105	0.078
Mof_H 	H 	0.5088	0.4141	0.3784	-0.006
Mof_H 	H 	0.6643	0.383	0.3854	0.091
Mof_H 	H 	0.654	0.432	0.4685	0.084
Mof_H 	H 	0.4971	0.4596	0.4594	-0.006
Mof_H 	H 	0.8652	0.4433	0.5039	0.085
Mof_H 	H 	0.9564	0.466	0.5445	-0.004
Mof_H 	H 	0.1875	0.3972	0.5144	-0.006
Mof_H 	H 	0.1033	0.3728	0.4728	0.076
Mof_H 	H 	0.1061	0.3437	0.4047	0.082
Mof_H 	H 	0.1872	0.3072	0.3662	-0.011
Mof_H 	H 	0.9387	0.2737	0.3286	-0.016
Mof_H 	H 	0.8506	0.3117	0.3654	0.078
Mof_H 	H 	0.0091	0.3469	0.2287	0.079
Mof_H 	H 	0.0744	0.3347	0.2751	-0.009
Mof_H 	H 	0.0354	0.1931	0.269	0.002
Mof_H 	H 	0.972	0.2005	0.2223	0.079
Mof_H 	H 	0.908	0.351	0.0946	0.08
Mof_H 	H 	0.8864	0.4265	0.0734	-0.007
Mof_H 	H 	0.9023	0.491	0.1499	-0.004
Mof_H 	H 	0.9269	0.4161	0.1731	0.079
Mof_H 	H 	0.9459	0.1508	0.1598	0.078
Mof_H 	H 	0.924	0.0825	0.131	-0.006
Mof_H 	H 	0.8515	0.1637	0.0636	-0.014
Mof_H 	H 	0.8792	0.2344	0.0895	0.078
Mof_H 	H 	0.4912	0.0859	0.8784	-0.006
Mof_H 	H 	0.3357	0.117	0.8854	0.091
Mof_H 	H 	0.346	0.068	0.9685	0.084
Mof_H 	H 	0.5029	0.0404	0.9594	-0.006
Mof_H 	H 	0.1348	0.0567	0.0039	0.085
Mof_H 	H 	0.0436	0.034	0.0445	-0.005
Mof_H 	H 	0.8125	0.1028	0.0144	-0.006
Mof_H 	H 	0.8967	0.1272	0.9728	0.076
Mof_H 	H 	0.8939	0.1563	0.9047	0.082
Mof_H 	H 	0.8128	0.1928	0.8662	-0.011
Mof_H 	H 	0.0613	0.2263	0.8286	-0.016
Mof_H 	H 	0.1494	0.1883	0.8654	0.078
Mof_H 	H 	0.9909	0.1531	0.7287	0.079
Mof_H 	H 	0.9256	0.1653	0.7751	-0.009
Mof_H 	H 	0.9646	0.3069	0.769	0.002
Mof_H 	H 	0.028	0.2995	0.7223	0.079
Mof_H 	H 	0.092	0.149	0.5946	0.08
Mof_H 	H 	0.1136	0.0735	0.5734	-0.007
Mof_H 	H 	0.0977	0.009	0.6499	-0.003
Mof_H 	H 	0.0731	0.0839	0.6731	0.079
Mof_H 	H 	0.0541	0.3492	0.6598	0.078
Mof_H 	H 	0.076	0.4175	0.631	-0.005
Mof_H 	H 	0.1485	0.3363	0.5636	-0.014
Mof_H 	H 	0.1208	0.2656	0.5895	0.078
Mof_C 	C 	0.0389	0.58255	0.10311	0.062
Mof_C 	C 	0.1318	0.6009	0.09915	-0.119
Mof_C 	C 	0.1775	0.59559	0.07226	0.048
Mof_C 	C 	0.1256	0.57234	0.05016	-0.122
Mof_C 	C 	0.0324	0.55569	0.05587	0.073
Mof_C 	C 	0.4312	0.567	0.99434	-0.114
Mof_C 	C 	0.4861	0.55347	0.9701	0.062
Mof_C 	C 	0.621	0.59363	0.98775	0.063
Mof_C 	C 	0.5713	0.60857	0.01264	-0.108
Mof_C 	C 	0.4733	0.59544	0.01574	0.046
Mof_C 	C 	0.2794	0.61145	0.06827	0.097
Mof_C 	C 	0.4178	0.61093	0.04186	0.103
Mof_C 	C 	0.4164	0.64531	0.08622	0.108
Mof_C 	C 	0.469	0.66925	0.11068	0.06
Mof_C 	C 	0.5701	0.67042	0.1108	-0.113
Mof_C 	C 	0.6178	0.69241	0.13372	0.07
Mof_C 	C 	0.473	0.71159	0.15571	0.075
Mof_C 	C 	0.4199	0.68947	0.13374	-0.122
Mof_C 	C 	0.5164	0.68511	0.26376	-0.11
Mof_C 	C 	0.5543	0.69274	0.23601	0.061
Mof_C 	C 	0.5318	0.7756	0.23964	0.059
Mof_C 	C 	0.4943	0.7716	0.26744	-0.108
Mof_C 	C 	0.4898	0.7254	0.28016	0.045
Mof_C 	C 	0.4069	0.62066	0.39356	-0.111
Mof_C 	C 	0.3936	0.57558	0.40611	0.065
Mof_C 	C 	0.4033	0.53798	0.36134	0.059
Mof_C 	C 	0.4177	0.58251	0.34735	-0.11
Mof_C 	C 	0.4184	0.62472	0.36388	0.05
Mof_C 	C 	0.4284	0.67325	0.35006	0.101
Mof_C 	C 	0.4594	0.72017	0.31107	0.105
Mof_C 	C 	0.4262	0.75519	0.35418	0.104
Mof_C 	C 	0.4135	0.79948	0.37207	0.046
Mof_C 	C 	0.4272	0.84578	0.35994	-0.108
Mof_C 	C 	0.4131	0.88623	0.37722	0.054
Mof_C 	C 	0.3719	0.83875	0.41667	0.068
Mof_C 	C 	0.3868	0.79639	0.40137	-0.115
Mof_C 	C 	0.9611	0.91745	0.60311	0.063
Mof_C 	C 	0.8682	0.8991	0.59915	-0.119
Mof_C 	C 	0.8225	0.90441	0.57226	0.049
Mof_C 	C 	0.8744	0.92766	0.55016	-0.123
Mof_C 	C 	0.9676	0.94431	0.55587	0.075
Mof_C 	C 	0.5688	0.933	0.49434	-0.114
Mof_C 	C 	0.5139	0.94653	0.4701	0.062
Mof_C 	C 	0.379	0.90637	0.48775	0.063
Mof_C 	C 	0.4287	0.89143	0.51264	-0.108
Mof_C 	C 	0.5267	0.90456	0.51574	0.046
Mof_C 	C 	0.7206	0.88855	0.56827	0.097
Mof_C 	C 	0.5822	0.88907	0.54186	0.103
Mof_C 	C 	0.5836	0.85469	0.58622	0.108
Mof_C 	C 	0.531	0.83075	0.61068	0.06
Mof_C 	C 	0.4299	0.82958	0.6108	-0.113
Mof_C 	C 	0.3822	0.80759	0.63372	0.07
Mof_C 	C 	0.527	0.78841	0.65571	0.075
Mof_C 	C 	0.5801	0.81053	0.63374	-0.122
Mof_C 	C 	0.4836	0.81489	0.76376	-0.11
Mof_C 	C 	0.4457	0.80726	0.73601	0.061
Mof_C 	C 	0.4682	0.7244	0.73964	0.059
Mof_C 	C 	0.5057	0.7284	0.76744	-0.108
Mof_C 	C 	0.5102	0.7746	0.78016	0.045
Mof_C 	C 	0.5931	0.87934	0.89356	-0.111
Mof_C 	C 	0.6064	0.92442	0.90611	0.065
Mof_C 	C 	0.5967	0.96202	0.86134	0.059
Mof_C 	C 	0.5823	0.91749	0.84735	-0.11
Mof_C 	C 	0.5816	0.87528	0.86388	0.05
Mof_C 	C 	0.5716	0.82675	0.85006	0.101
Mof_C 	C 	0.5406	0.77983	0.81107	0.105
Mof_C 	C 	0.5738	0.74481	0.85418	0.104
Mof_C 	C 	0.5865	0.70052	0.87207	0.046
Mof_C 	C 	0.5728	0.65422	0.85994	-0.108
Mof_C 	C 	0.5869	0.61377	0.87722	0.054
Mof_C 	C 	0.6281	0.66125	0.91667	0.068
Mof_C 	C 	0.6132	0.70361	0.90137	-0.115
Mof_C 	C 	0.5389	0.41745	0.39689	0.063
Mof_C 	C 	0.6318	0.3991	0.40085	-0.119
Mof_C 	C 	0.6775	0.40441	0.42774	0.048
Mof_C 	C 	0.6256	0.42766	0.44984	-0.122
Mof_C 	C 	0.5324	0.44431	0.44413	0.074
Mof_C 	C 	0.9312	0.433	0.50566	-0.114
Mof_C 	C 	0.9861	0.44653	0.5299	0.062
Mof_C 	C 	0.121	0.40637	0.51225	0.063
Mof_C 	C 	0.0713	0.39143	0.48736	-0.107
Mof_C 	C 	0.9733	0.40456	0.48426	0.046
Mof_C 	C 	0.7794	0.38855	0.43173	0.097
Mof_C 	C 	0.9178	0.38907	0.45814	0.103
Mof_C 	C 	0.9164	0.35469	0.41378	0.108
Mof_C 	C 	0.969	0.33075	0.38932	0.06
Mof_C 	C 	0.0701	0.32958	0.3892	-0.113
Mof_C 	C 	0.1178	0.30759	0.36628	0.07
Mof_C 	C 	0.973	0.28841	0.34429	0.075
Mof_C 	C 	0.9199	0.31053	0.36626	-0.122
Mof_C 	C 	0.0164	0.31489	0.23624	-0.111
Mof_C 	C 	0.0543	0.30726	0.26399	0.061
Mof_C 	C 	0.0318	0.2244	0.26036	0.058
Mof_C 	C 	0.9943	0.2284	0.23256	-0.107
Mof_C 	C 	0.9898	0.2746	0.21984	0.046
Mof_C 	C 	0.9069	0.37934	0.10644	-0.111
Mof_C 	C 	0.8936	0.42442	0.09389	0.065
Mof_C 	C 	0.9033	0.46202	0.13866	0.059
Mof_C 	C 	0.9177	0.41749	0.15265	-0.11
Mof_C 	C 	0.9184	0.37528	0.13612	0.05
Mof_C 	C 	0.9284	0.32675	0.14994	0.101
Mof_C 	C 	0.9594	0.27983	0.18893	0.105
Mof_C 	C 	0.9262	0.24481	0.14582	0.104
Mof_C 	C 	0.9135	0.20052	0.12793	0.046
Mof_C 	C 	0.9272	0.15422	0.14006	-0.108
Mof_C 	C 	0.9131	0.11377	0.12278	0.054
Mof_C 	C 	0.8719	0.16125	0.08333	0.068
Mof_C 	C 	0.8868	0.20361	0.09863	-0.115
Mof_C 	C 	0.4611	0.08255	0.89689	0.063
Mof_C 	C 	0.3682	0.1009	0.90085	-0.119
Mof_C 	C 	0.3225	0.09559	0.92774	0.048
Mof_C 	C 	0.3744	0.07234	0.94984	-0.122
Mof_C 	C 	0.4676	0.05569	0.94413	0.074
Mof_C 	C 	0.0688	0.067	0.00566	-0.115
Mof_C 	C 	0.0139	0.05347	0.0299	0.063
Mof_C 	C 	0.879	0.09363	0.01225	0.064
Mof_C 	C 	0.9287	0.10857	0.98736	-0.109
Mof_C 	C 	0.0267	0.09544	0.98426	0.047
Mof_C 	C 	0.2206	0.11145	0.93173	0.097
Mof_C 	C 	0.0822	0.11093	0.95814	0.103
Mof_C 	C 	0.0836	0.14531	0.91378	0.108
Mof_C 	C 	0.031	0.16925	0.88932	0.062
Mof_C 	C 	0.9299	0.17042	0.8892	-0.114
Mof_C 	C 	0.8822	0.19241	0.86628	0.071
Mof_C 	C 	0.027	0.21159	0.84429	0.076
Mof_C 	C 	0.0801	0.18947	0.86626	-0.123
Mof_C 	C 	0.9836	0.18511	0.73624	-0.112
Mof_C 	C 	0.9457	0.19274	0.76399	0.061
Mof_C 	C 	0.9682	0.2756	0.76036	0.057
Mof_C 	C 	0.0057	0.2716	0.73256	-0.107
Mof_C 	C 	0.0102	0.2254	0.71984	0.046
Mof_C 	C 	0.0931	0.12066	0.60644	-0.111
Mof_C 	C 	0.1064	0.07558	0.59389	0.066
Mof_C 	C 	0.0967	0.03798	0.63866	0.059
Mof_C 	C 	0.0823	0.08251	0.65265	-0.11
Mof_C 	C 	0.0816	0.12472	0.63612	0.05
Mof_C 	C 	0.0716	0.17325	0.64994	0.101
Mof_C 	C 	0.0406	0.22017	0.68893	0.105
Mof_C 	C 	0.0738	0.25519	0.64582	0.104
Mof_C 	C 	0.0865	0.29948	0.62793	0.046
Mof_C 	C 	0.0728	0.34578	0.64006	-0.108
Mof_C 	C 	0.0869	0.38623	0.62278	0.054
Mof_C 	C 	0.1281	0.33875	0.58333	0.068
Mof_C 	C 	0.1132	0.29639	0.59863	-0.115
Mof_I 	I 	0.80191	0.69293	0.19628	-0.366
Mof_I 	I 	0.4331	0.01486	0.40158	-0.365
Mof_I 	I 	0.77326	0.51291	0.04104	-0.387
Mof_I 	I 	0.16477	0.93673	0.43787	-0.379
Mof_I 	I 	0.6712	0.83676	0.1783	-0.375
Mof_I 	I 	0.76981	0.58019	0.12924	-0.367
Mof_I 	I 	0.19809	0.80707	0.69628	-0.366
Mof_I 	I 	0.5669	0.48514	0.90158	-0.365
Mof_I 	I 	0.22674	0.98709	0.54104	-0.387
Mof_I 	I 	0.83523	0.56327	0.93787	-0.379
Mof_I 	I 	0.3288	0.66324	0.6783	-0.375
Mof_I 	I 	0.23019	0.91981	0.62924	-0.367
Mof_I 	I 	0.30191	0.30707	0.30372	-0.366
Mof_I 	I 	0.9331	0.98514	0.09842	-0.365
Mof_I 	I 	0.27326	0.48709	0.45896	-0.387
Mof_I 	I 	0.66477	0.06327	0.06213	-0.379
Mof_I 	I 	0.1712	0.16324	0.3217	-0.375
Mof_I 	I 	0.26981	0.41981	0.37076	-0.367
Mof_I 	I 	0.69809	0.19293	0.80372	-0.366
Mof_I 	I 	0.0669	0.51486	0.59842	-0.365
Mof_I 	I 	0.72674	0.01291	0.95896	-0.387
Mof_I 	I 	0.33523	0.43673	0.56213	-0.379
Mof_I 	I 	0.8288	0.33676	0.8217	-0.375
Mof_I 	I 	0.73019	0.08019	0.87076	-0.367
Mof_N 	N 	0.9894	0.56005	0.08165	-0.272
Mof_N 	N 	0.3239	0.59876	0.04317	-0.143
Mof_N 	N 	0.3214	0.63583	0.08998	-0.135
Mof_N 	N 	0.468	0.63443	0.06257	-0.137
Mof_N 	N 	0.5701	0.71305	0.15571	-0.275
Mof_N 	N 	0.5633	0.73703	0.22443	-0.27
Mof_N 	N 	0.4501	0.67525	0.32168	-0.14
Mof_N 	N 	0.4481	0.76128	0.32611	-0.14
Mof_N 	N 	0.4157	0.71219	0.36746	-0.139
Mof_N 	N 	0.3846	0.88339	0.40534	-0.269
Mof_N 	N 	0.5796	0.56712	0.96673	-0.269
Mof_N 	N 	0.3906	0.53471	0.39036	-0.269
Mof_N 	N 	0.0106	0.93995	0.58165	-0.273
Mof_N 	N 	0.6761	0.90124	0.54317	-0.143
Mof_N 	N 	0.6786	0.86417	0.58998	-0.135
Mof_N 	N 	0.532	0.86557	0.56257	-0.137
Mof_N 	N 	0.4299	0.78695	0.65571	-0.275
Mof_N 	N 	0.4367	0.76297	0.72443	-0.27
Mof_N 	N 	0.5499	0.82475	0.82168	-0.14
Mof_N 	N 	0.5519	0.73872	0.82611	-0.14
Mof_N 	N 	0.5843	0.78781	0.86746	-0.139
Mof_N 	N 	0.6154	0.61661	0.90534	-0.269
Mof_N 	N 	0.4204	0.93288	0.46673	-0.269
Mof_N 	N 	0.6094	0.96529	0.89036	-0.268
Mof_N 	N 	0.4894	0.43995	0.41835	-0.273
Mof_N 	N 	0.8239	0.40124	0.45683	-0.143
Mof_N 	N 	0.8214	0.36417	0.41002	-0.135
Mof_N 	N 	0.968	0.36557	0.43743	-0.138
Mof_N 	N 	0.0701	0.28695	0.34429	-0.275
Mof_N 	N 	0.0633	0.26297	0.27557	-0.27
Mof_N 	N 	0.9501	0.32475	0.17832	-0.14
Mof_N 	N 	0.9481	0.23872	0.17389	-0.14
Mof_N 	N 	0.9157	0.28781	0.13254	-0.139
Mof_N 	N 	0.8846	0.11661	0.09466	-0.27
Mof_N 	N 	0.0796	0.43288	0.53327	-0.269
Mof_N 	N 	0.8906	0.46529	0.10964	-0.269
Mof_N 	N 	0.5106	0.06005	0.91835	-0.273
Mof_N 	N 	0.1761	0.09876	0.95683	-0.143
Mof_N 	N 	0.1786	0.13583	0.91002	-0.135
Mof_N 	N 	0.032	0.13443	0.93743	-0.137
Mof_N 	N 	0.9299	0.21305	0.84429	-0.276
Mof_N 	N 	0.9367	0.23703	0.77557	-0.27
Mof_N 	N 	0.0499	0.17525	0.67832	-0.139
Mof_N 	N 	0.0519	0.26128	0.67389	-0.14
Mof_N 	N 	0.0843	0.21219	0.63254	-0.139
Mof_N 	N 	0.1154	0.38339	0.59466	-0.269
Mof_N 	N 	0.9204	0.06712	0.03327	-0.27
Mof_N 	N 	0.1094	0.03471	0.60964	-0.268
_end
