data_functionalizedCrystal
_audit_creation_method	'EQeq! by Chris Wilmer'
_symmetry_space_group_name_H-M	'P1'
_symmetry_Int_Tables_number	1
_symmetry_cell_setting	triclinic
loop_
_symmetry_equiv_pos_as_xyz
  x,y,z
_cell_length_a	18.5561
_cell_length_b	18.5561
_cell_length_c	21.2628
_cell_angle_alpha	90
_cell_angle_beta	90
_cell_angle_gamma	120
loop_
_atom_site_label
_atom_site_type_symbol
_atom_site_fract_x
_atom_site_fract_y
_atom_site_fract_z
_atom_site_charge
Mof_Cu	Cu	0.84287	0.50785	0.99049	0.824
Mof_Cu	Cu	0.66498	0.15713	0.32382	0.824
Mof_Cu	Cu	0.49215	0.33502	0.65716	0.824
Mof_Cu	Cu	0.33502	0.49215	0.00951	0.824
Mof_Cu	Cu	0.50785	0.84287	0.67618	0.824
Mof_Cu	Cu	0.15713	0.66498	0.34284	0.825
Mof_P 	P 	0.73595	0.38465	0.02675	-0.069
Mof_P 	P 	0.6692	0.144	0.21794	-0.069
Mof_P 	P 	0.6487	0.26405	0.36008	-0.069
Mof_P 	P 	0.4748	0.3308	0.55127	-0.069
Mof_P 	P 	0.61535	0.3513	0.69342	-0.069
Mof_P 	P 	0.856	0.5252	0.88461	-0.069
Mof_P 	P 	0.3513	0.61535	0.97325	-0.069
Mof_P 	P 	0.5252	0.856	0.78206	-0.069
Mof_P 	P 	0.38465	0.73595	0.63992	-0.069
Mof_P 	P 	0.144	0.6692	0.44873	-0.07
Mof_P 	P 	0.26405	0.6487	0.30658	-0.069
Mof_P 	P 	0.3308	0.4748	0.11539	-0.069
Mof_H 	H 	0.6645	0.2319	0.1006	0.066
Mof_H 	H 	0.8105	0.2955	0.2562	0.047
Mof_H 	H 	0.8512	0.467	0.1264	0.049
Mof_H 	H 	0.9551	0.3774	0.268	0.082
Mof_H 	H 	0.0625	0.4782	0.324	-0.021
Mof_H 	H 	0.0118	0.6482	0.2695	0.006
Mof_H 	H 	0.8965	0.5516	0.2143	0.078
Mof_H 	H 	0.638	0.3056	0.9154	0.056
Mof_H 	H 	0.6182	0.2008	0.8482	0.035
Mof_H 	H 	0.6984	0.1395	0.8608	0.054
Mof_H 	H 	0.7756	0.1608	0.9517	0.029
Mof_H 	H 	0.7967	0.2718	0.0192	0.054
Mof_H 	H 	0.6957	0.5131	0.0619	0.07
Mof_H 	H 	0.5726	0.5115	0.0888	0.031
Mof_H 	H 	0.4451	0.3872	0.0831	0.044
Mof_H 	H 	0.4406	0.2646	0.0504	0.03
Mof_H 	H 	0.5637	0.2663	0.0235	0.057
Mof_H 	H 	0.7523	0.1427	0.1003	0.056
Mof_H 	H 	0.812	0.0615	0.0668	0.032
Mof_H 	H 	0.8113	0.9643	0.1303	0.054
Mof_H 	H 	0.7691	0.9501	0.2352	0.033
Mof_H 	H 	0.7085	0.0227	0.2686	0.045
Mof_H 	H 	0.5324	0.1607	0.2146	0.047
Mof_H 	H 	0.4026	0.1015	0.166	0.026
Mof_H 	H 	0.3736	0.0125	0.0818	0.058
Mof_H 	H 	0.4628	0.9603	0.0693	0.028
Mof_H 	H 	0.5947	0.0184	0.1157	0.062
Mof_H 	H 	0.5674	0.3355	0.43393	0.066
Mof_H 	H 	0.485	0.1895	0.58953	0.047
Mof_H 	H 	0.6158	0.1488	0.45973	0.049
Mof_H 	H 	0.4223	0.0449	0.60133	0.083
Mof_H 	H 	0.4157	0.9375	0.65733	-0.022
Mof_H 	H 	0.6364	0.9882	0.60283	0.007
Mof_H 	H 	0.6551	0.1035	0.54763	0.078
Mof_H 	H 	0.6676	0.362	0.24873	0.056
Mof_H 	H 	0.5826	0.3818	0.18153	0.035
Mof_H 	H 	0.4411	0.3016	0.19413	0.053
Mof_H 	H 	0.3852	0.2244	0.28503	0.03
Mof_H 	H 	0.4751	0.2033	0.35253	0.053
Mof_H 	H 	0.8174	0.3043	0.39523	0.07
Mof_H 	H 	0.9389	0.4274	0.42213	0.031
Mof_H 	H 	0.9421	0.5549	0.41643	0.044
Mof_H 	H 	0.824	0.5594	0.38373	0.03
Mof_H 	H 	0.7026	0.4363	0.35683	0.057
Mof_H 	H 	0.3904	0.2477	0.43363	0.056
Mof_H 	H 	0.2495	0.188	0.40013	0.032
Mof_H 	H 	0.153	0.1887	0.46363	0.054
Mof_H 	H 	0.181	0.2309	0.56853	0.033
Mof_H 	H 	0.3142	0.2915	0.60193	0.045
Mof_H 	H 	0.6283	0.4676	0.54793	0.047
Mof_H 	H 	0.6989	0.5974	0.49933	0.026
Mof_H 	H 	0.6389	0.6264	0.41513	0.058
Mof_H 	H 	0.4975	0.5372	0.40263	0.028
Mof_H 	H 	0.4237	0.4053	0.44903	0.062
Mof_H 	H 	0.7681	0.4326	0.76727	0.066
Mof_H 	H 	0.7045	0.515	0.92287	0.047
Mof_H 	H 	0.533	0.3842	0.79307	0.049
Mof_H 	H 	0.6226	0.5777	0.93467	0.083
Mof_H 	H 	0.5218	0.5843	0.99067	-0.021
Mof_H 	H 	0.3518	0.3636	0.93617	0.008
Mof_H 	H 	0.4484	0.3449	0.88097	0.078
Mof_H 	H 	0.6944	0.3324	0.58207	0.056
Mof_H 	H 	0.7992	0.4174	0.51487	0.035
Mof_H 	H 	0.8605	0.5589	0.52747	0.053
Mof_H 	H 	0.8392	0.6148	0.61837	0.03
Mof_H 	H 	0.7282	0.5249	0.68587	0.053
Mof_H 	H 	0.4869	0.1826	0.72857	0.07
Mof_H 	H 	0.4885	0.0611	0.75547	0.031
Mof_H 	H 	0.6128	0.0579	0.74977	0.044
Mof_H 	H 	0.7354	0.176	0.71707	0.03
Mof_H 	H 	0.7337	0.2974	0.69017	0.057
Mof_H 	H 	0.8573	0.6096	0.76697	0.056
Mof_H 	H 	0.9385	0.7505	0.73347	0.032
Mof_H 	H 	0.0357	0.847	0.79697	0.054
Mof_H 	H 	0.0499	0.819	0.90187	0.033
Mof_H 	H 	0.9773	0.6858	0.93527	0.046
Mof_H 	H 	0.8393	0.3717	0.88127	0.046
Mof_H 	H 	0.8985	0.3011	0.83267	0.027
Mof_H 	H 	0.9875	0.3611	0.74847	0.057
Mof_H 	H 	0.0397	0.5025	0.73597	0.03
Mof_H 	H 	0.9816	0.5763	0.78237	0.062
Mof_H 	H 	0.4326	0.7681	0.8994	0.066
Mof_H 	H 	0.515	0.7045	0.7438	0.047
Mof_H 	H 	0.3842	0.533	0.8736	0.049
Mof_H 	H 	0.5777	0.6226	0.732	0.083
Mof_H 	H 	0.5843	0.5218	0.676	-0.022
Mof_H 	H 	0.3636	0.3518	0.7305	0.008
Mof_H 	H 	0.3449	0.4484	0.7857	0.078
Mof_H 	H 	0.3324	0.6944	0.0846	0.056
Mof_H 	H 	0.4174	0.7992	0.1518	0.036
Mof_H 	H 	0.5589	0.8605	0.1392	0.053
Mof_H 	H 	0.6148	0.8392	0.0483	0.03
Mof_H 	H 	0.5249	0.7282	0.9808	0.053
Mof_H 	H 	0.1826	0.4869	0.9381	0.07
Mof_H 	H 	0.0611	0.4885	0.9112	0.031
Mof_H 	H 	0.0579	0.6128	0.9169	0.044
Mof_H 	H 	0.176	0.7354	0.9496	0.03
Mof_H 	H 	0.2974	0.7337	0.9765	0.058
Mof_H 	H 	0.6096	0.8573	0.8997	0.056
Mof_H 	H 	0.7505	0.9385	0.9332	0.032
Mof_H 	H 	0.847	0.0357	0.8697	0.054
Mof_H 	H 	0.819	0.0499	0.7648	0.033
Mof_H 	H 	0.6858	0.9773	0.7314	0.045
Mof_H 	H 	0.3717	0.8393	0.7854	0.047
Mof_H 	H 	0.3011	0.8985	0.834	0.026
Mof_H 	H 	0.3611	0.9875	0.9182	0.058
Mof_H 	H 	0.5025	0.0397	0.9307	0.029
Mof_H 	H 	0.5763	0.9816	0.8843	0.062
Mof_H 	H 	0.2319	0.6645	0.56607	0.066
Mof_H 	H 	0.2955	0.8105	0.41047	0.047
Mof_H 	H 	0.467	0.8512	0.54027	0.049
Mof_H 	H 	0.3774	0.9551	0.39867	0.083
Mof_H 	H 	0.4782	0.0625	0.34267	-0.022
Mof_H 	H 	0.6482	0.0118	0.39717	0.007
Mof_H 	H 	0.5516	0.8965	0.45237	0.078
Mof_H 	H 	0.3056	0.638	0.75127	0.056
Mof_H 	H 	0.2008	0.6182	0.81847	0.035
Mof_H 	H 	0.1395	0.6984	0.80587	0.054
Mof_H 	H 	0.1608	0.7756	0.71497	0.03
Mof_H 	H 	0.2718	0.7967	0.64747	0.053
Mof_H 	H 	0.5131	0.6957	0.60477	0.07
Mof_H 	H 	0.5115	0.5726	0.57787	0.031
Mof_H 	H 	0.3872	0.4451	0.58357	0.044
Mof_H 	H 	0.2646	0.4406	0.61627	0.03
Mof_H 	H 	0.2663	0.5637	0.64317	0.057
Mof_H 	H 	0.1427	0.7523	0.56637	0.056
Mof_H 	H 	0.0615	0.812	0.59987	0.031
Mof_H 	H 	0.9643	0.8113	0.53637	0.054
Mof_H 	H 	0.9501	0.7691	0.43147	0.033
Mof_H 	H 	0.0227	0.7085	0.39807	0.045
Mof_H 	H 	0.1607	0.5324	0.45207	0.047
Mof_H 	H 	0.1015	0.4026	0.50067	0.026
Mof_H 	H 	0.0125	0.3736	0.58487	0.059
Mof_H 	H 	0.9603	0.4628	0.59737	0.028
Mof_H 	H 	0.0184	0.5947	0.55097	0.063
Mof_H 	H 	0.3355	0.5674	0.23273	0.066
Mof_H 	H 	0.1895	0.485	0.07713	0.047
Mof_H 	H 	0.1488	0.6158	0.20693	0.049
Mof_H 	H 	0.0449	0.4223	0.06533	0.083
Mof_H 	H 	0.9375	0.4157	0.00933	-0.022
Mof_H 	H 	0.9882	0.6364	0.06383	0.01
Mof_H 	H 	0.1035	0.6551	0.11903	0.077
Mof_H 	H 	0.362	0.6676	0.41793	0.056
Mof_H 	H 	0.3818	0.5826	0.48513	0.035
Mof_H 	H 	0.3016	0.4411	0.47253	0.053
Mof_H 	H 	0.2244	0.3852	0.38163	0.03
Mof_H 	H 	0.2033	0.4751	0.31413	0.053
Mof_H 	H 	0.3043	0.8174	0.27143	0.07
Mof_H 	H 	0.4274	0.9389	0.24453	0.031
Mof_H 	H 	0.5549	0.9421	0.25023	0.044
Mof_H 	H 	0.5594	0.824	0.28293	0.03
Mof_H 	H 	0.4363	0.7026	0.30983	0.057
Mof_H 	H 	0.2477	0.3904	0.23303	0.056
Mof_H 	H 	0.188	0.2495	0.26653	0.032
Mof_H 	H 	0.1887	0.153	0.20303	0.054
Mof_H 	H 	0.2309	0.181	0.09813	0.033
Mof_H 	H 	0.2915	0.3142	0.06473	0.045
Mof_H 	H 	0.4676	0.6283	0.11873	0.047
Mof_H 	H 	0.5974	0.6989	0.16733	0.026
Mof_H 	H 	0.6264	0.6389	0.25153	0.058
Mof_H 	H 	0.5372	0.4975	0.26403	0.028
Mof_H 	H 	0.4053	0.4237	0.21763	0.062
Mof_C 	C 	0.7555	0.3524	0.1042	0.023
Mof_C 	C 	0.7094	0.272	0.1252	-0.094
Mof_C 	C 	0.7286	0.2482	0.1844	0.01
Mof_C 	C 	0.7954	0.3096	0.2173	-0.111
Mof_C 	C 	0.8392	0.3873	0.1972	0.04
Mof_C 	C 	0.82	0.4109	0.1403	-0.108
Mof_C 	C 	0.9127	0.4538	0.2346	0.065
Mof_C 	C 	0.9647	0.4327	0.2682	-0.139
Mof_C 	C 	0.0285	0.4934	0.3006	0.083
Mof_C 	C 	0.999	0.5918	0.2698	0.071
Mof_C 	C 	0.9305	0.5349	0.236	-0.131
Mof_C 	C 	0.718	0.2954	0.9774	0.002
Mof_C 	C 	0.6662	0.2756	0.9231	-0.088
Mof_C 	C 	0.6559	0.2158	0.8825	0.001
Mof_C 	C 	0.7007	0.1778	0.8915	-0.072
Mof_C 	C 	0.7492	0.1924	0.9435	-0.006
Mof_C 	C 	0.7589	0.2567	0.985	-0.088
Mof_C 	C 	0.6439	0.4627	0.0596	-0.099
Mof_C 	C 	0.5708	0.4617	0.0756	0.006
Mof_C 	C 	0.495	0.3878	0.0722	-0.069
Mof_C 	C 	0.4924	0.3151	0.0528	-0.005
Mof_C 	C 	0.5655	0.316	0.0368	-0.077
Mof_C 	C 	0.6413	0.3899	0.0402	0.011
Mof_C 	C 	0.7217	0.0918	0.1903	0.004
Mof_C 	C 	0.7541	0.1033	0.1278	-0.072
Mof_C 	C 	0.7893	0.0542	0.1079	-0.008
Mof_C 	C 	0.7907	0.9984	0.1461	-0.066
Mof_C 	C 	0.7636	0.9875	0.2078	-0.002
Mof_C 	C 	0.7295	0.0318	0.2269	-0.076
Mof_C 	C 	0.5737	0.0932	0.1731	0.019
Mof_C 	C 	0.5186	0.1182	0.1842	-0.098
Mof_C 	C 	0.4413	0.085	0.1533	0.013
Mof_C 	C 	0.4221	0.0312	0.1069	-0.087
Mof_C 	C 	0.4782	0.0047	0.0982	0.008
Mof_C 	C 	0.5566	0.0362	0.1274	-0.093
Mof_C 	C 	0.5969	0.2445	0.43753	0.023
Mof_C 	C 	0.5626	0.2906	0.45853	-0.094
Mof_C 	C 	0.5196	0.2714	0.51773	0.01
Mof_C 	C 	0.5142	0.2046	0.55063	-0.111
Mof_C 	C 	0.5481	0.1608	0.53053	0.04
Mof_C 	C 	0.5909	0.18	0.47363	-0.108
Mof_C 	C 	0.5411	0.0873	0.56793	0.065
Mof_C 	C 	0.468	0.0353	0.60153	-0.14
Mof_C 	C 	0.4649	0.9715	0.63393	0.084
Mof_C 	C 	0.5928	0.001	0.60313	0.069
Mof_C 	C 	0.6044	0.0695	0.56933	-0.13
Mof_C 	C 	0.5774	0.282	0.31073	0.002
Mof_C 	C 	0.6094	0.3338	0.25643	-0.087
Mof_C 	C 	0.5599	0.3441	0.21583	0
Mof_C 	C 	0.4771	0.2993	0.22483	-0.071
Mof_C 	C 	0.4432	0.2508	0.27683	-0.007
Mof_C 	C 	0.4978	0.2411	0.31833	-0.086
Mof_C 	C 	0.8188	0.3561	0.39293	-0.099
Mof_C 	C 	0.8909	0.4292	0.40893	0.006
Mof_C 	C 	0.8928	0.505	0.40553	-0.069
Mof_C 	C 	0.8227	0.5076	0.38613	-0.005
Mof_C 	C 	0.7505	0.4345	0.37013	-0.077
Mof_C 	C 	0.7486	0.3587	0.37353	0.011
Mof_C 	C 	0.3701	0.2783	0.52363	0.004
Mof_C 	C 	0.3492	0.2459	0.46113	-0.072
Mof_C 	C 	0.2649	0.2107	0.44123	-0.008
Mof_C 	C 	0.2077	0.2093	0.47943	-0.066
Mof_C 	C 	0.2239	0.2364	0.54113	-0.002
Mof_C 	C 	0.3023	0.2705	0.56023	-0.076
Mof_C 	C 	0.5195	0.4263	0.50643	0.019
Mof_C 	C 	0.5996	0.4814	0.51753	-0.098
Mof_C 	C 	0.6437	0.5587	0.48663	0.013
Mof_C 	C 	0.6091	0.5779	0.44023	-0.087
Mof_C 	C 	0.5265	0.5218	0.43153	0.008
Mof_C 	C 	0.4796	0.4434	0.46073	-0.093
Mof_C 	C 	0.6476	0.4031	0.77087	0.023
Mof_C 	C 	0.728	0.4374	0.79187	-0.094
Mof_C 	C 	0.7518	0.4804	0.85107	0.01
Mof_C 	C 	0.6904	0.4858	0.88397	-0.111
Mof_C 	C 	0.6127	0.4519	0.86387	0.04
Mof_C 	C 	0.5891	0.4091	0.80697	-0.108
Mof_C 	C 	0.5462	0.4589	0.90127	0.065
Mof_C 	C 	0.5673	0.532	0.93487	-0.14
Mof_C 	C 	0.5066	0.5351	0.96727	0.085
Mof_C 	C 	0.4082	0.4072	0.93647	0.069
Mof_C 	C 	0.4651	0.3956	0.90267	-0.13
Mof_C 	C 	0.7046	0.4226	0.64407	0.002
Mof_C 	C 	0.7244	0.3906	0.58977	-0.087
Mof_C 	C 	0.7842	0.4401	0.54917	0
Mof_C 	C 	0.8222	0.5229	0.55817	-0.071
Mof_C 	C 	0.8076	0.5568	0.61017	-0.007
Mof_C 	C 	0.7433	0.5022	0.65167	-0.086
Mof_C 	C 	0.5373	0.1812	0.72627	-0.099
Mof_C 	C 	0.5383	0.1091	0.74227	0.006
Mof_C 	C 	0.6122	0.1072	0.73887	-0.069
Mof_C 	C 	0.6849	0.1773	0.71947	-0.005
Mof_C 	C 	0.684	0.2495	0.70347	-0.077
Mof_C 	C 	0.6101	0.2514	0.70687	0.011
Mof_C 	C 	0.9082	0.6299	0.85697	0.005
Mof_C 	C 	0.8967	0.6508	0.79447	-0.072
Mof_C 	C 	0.9458	0.7351	0.77457	-0.009
Mof_C 	C 	0.0016	0.7923	0.81277	-0.066
Mof_C 	C 	0.0125	0.7761	0.87447	-0
Mof_C 	C 	0.9682	0.6977	0.89357	-0.078
Mof_C 	C 	0.9068	0.4805	0.83977	0.018
Mof_C 	C 	0.8818	0.4004	0.85087	-0.097
Mof_C 	C 	0.915	0.3563	0.81997	0.011
Mof_C 	C 	0.9688	0.3909	0.77357	-0.085
Mof_C 	C 	0.9953	0.4735	0.76487	0.005
Mof_C 	C 	0.9638	0.5204	0.79407	-0.091
Mof_C 	C 	0.4031	0.6476	0.8958	0.023
Mof_C 	C 	0.4374	0.728	0.8748	-0.094
Mof_C 	C 	0.4804	0.7518	0.8156	0.01
Mof_C 	C 	0.4858	0.6904	0.7827	-0.111
Mof_C 	C 	0.4519	0.6127	0.8028	0.04
Mof_C 	C 	0.4091	0.5891	0.8597	-0.108
Mof_C 	C 	0.4589	0.5462	0.7654	0.065
Mof_C 	C 	0.532	0.5673	0.7318	-0.14
Mof_C 	C 	0.5351	0.5066	0.6994	0.085
Mof_C 	C 	0.4072	0.4082	0.7302	0.069
Mof_C 	C 	0.3956	0.4651	0.764	-0.13
Mof_C 	C 	0.4226	0.7046	0.0226	0.001
Mof_C 	C 	0.3906	0.7244	0.0769	-0.087
Mof_C 	C 	0.4401	0.7842	0.1175	-0
Mof_C 	C 	0.5229	0.8222	0.1085	-0.071
Mof_C 	C 	0.5568	0.8076	0.0565	-0.008
Mof_C 	C 	0.5022	0.7433	0.015	-0.086
Mof_C 	C 	0.1812	0.5373	0.9404	-0.099
Mof_C 	C 	0.1091	0.5383	0.9244	0.006
Mof_C 	C 	0.1072	0.6122	0.9278	-0.069
Mof_C 	C 	0.1773	0.6849	0.9472	-0.005
Mof_C 	C 	0.2495	0.684	0.9632	-0.077
Mof_C 	C 	0.2514	0.6101	0.9598	0.011
Mof_C 	C 	0.6299	0.9082	0.8097	0.004
Mof_C 	C 	0.6508	0.8967	0.8722	-0.072
Mof_C 	C 	0.7351	0.9458	0.8921	-0.008
Mof_C 	C 	0.7923	0.0016	0.8539	-0.067
Mof_C 	C 	0.7761	0.0125	0.7922	-0.002
Mof_C 	C 	0.6977	0.9682	0.7731	-0.076
Mof_C 	C 	0.4805	0.9068	0.8269	0.019
Mof_C 	C 	0.4004	0.8818	0.8158	-0.098
Mof_C 	C 	0.3563	0.915	0.8467	0.013
Mof_C 	C 	0.3909	0.9688	0.8931	-0.087
Mof_C 	C 	0.4735	0.9953	0.9018	0.008
Mof_C 	C 	0.5204	0.9638	0.8726	-0.093
Mof_C 	C 	0.3524	0.7555	0.56247	0.023
Mof_C 	C 	0.272	0.7094	0.54147	-0.094
Mof_C 	C 	0.2482	0.7286	0.48227	0.01
Mof_C 	C 	0.3096	0.7954	0.44937	-0.111
Mof_C 	C 	0.3873	0.8392	0.46947	0.04
Mof_C 	C 	0.4109	0.82	0.52637	-0.108
Mof_C 	C 	0.4538	0.9127	0.43207	0.065
Mof_C 	C 	0.4327	0.9647	0.39847	-0.14
Mof_C 	C 	0.4934	0.0285	0.36607	0.085
Mof_C 	C 	0.5918	0.999	0.39687	0.069
Mof_C 	C 	0.5349	0.9305	0.43067	-0.13
Mof_C 	C 	0.2954	0.718	0.68927	0.002
Mof_C 	C 	0.2756	0.6662	0.74357	-0.087
Mof_C 	C 	0.2158	0.6559	0.78417	0
Mof_C 	C 	0.1778	0.7007	0.77517	-0.071
Mof_C 	C 	0.1924	0.7492	0.72317	-0.007
Mof_C 	C 	0.2567	0.7589	0.68167	-0.086
Mof_C 	C 	0.4627	0.6439	0.60707	-0.099
Mof_C 	C 	0.4617	0.5708	0.59107	0.006
Mof_C 	C 	0.3878	0.495	0.59447	-0.069
Mof_C 	C 	0.3151	0.4924	0.61387	-0.005
Mof_C 	C 	0.316	0.5655	0.62987	-0.077
Mof_C 	C 	0.3899	0.6413	0.62647	0.011
Mof_C 	C 	0.0918	0.7217	0.47637	0.005
Mof_C 	C 	0.1033	0.7541	0.53887	-0.072
Mof_C 	C 	0.0542	0.7893	0.55877	-0.007
Mof_C 	C 	0.9984	0.7907	0.52057	-0.067
Mof_C 	C 	0.9875	0.7636	0.45887	-0.002
Mof_C 	C 	0.0318	0.7295	0.43977	-0.076
Mof_C 	C 	0.0932	0.5737	0.49357	0.02
Mof_C 	C 	0.1182	0.5186	0.48247	-0.099
Mof_C 	C 	0.085	0.4413	0.51337	0.014
Mof_C 	C 	0.0312	0.4221	0.55977	-0.088
Mof_C 	C 	0.0047	0.4782	0.56847	0.01
Mof_C 	C 	0.0362	0.5566	0.53927	-0.094
Mof_C 	C 	0.2445	0.5969	0.22913	0.023
Mof_C 	C 	0.2906	0.5626	0.20813	-0.094
Mof_C 	C 	0.2714	0.5196	0.14893	0.01
Mof_C 	C 	0.2046	0.5142	0.11603	-0.111
Mof_C 	C 	0.1608	0.5481	0.13613	0.04
Mof_C 	C 	0.18	0.5909	0.19303	-0.108
Mof_C 	C 	0.0873	0.5411	0.09873	0.065
Mof_C 	C 	0.0353	0.468	0.06513	-0.142
Mof_C 	C 	0.9715	0.4649	0.03273	0.087
Mof_C 	C 	0.001	0.5928	0.06353	0.064
Mof_C 	C 	0.0695	0.6044	0.09733	-0.128
Mof_C 	C 	0.282	0.5774	0.35593	0.002
Mof_C 	C 	0.3338	0.6094	0.41023	-0.087
Mof_C 	C 	0.3441	0.5599	0.45083	0
Mof_C 	C 	0.2993	0.4771	0.44183	-0.071
Mof_C 	C 	0.2508	0.4432	0.38983	-0.007
Mof_C 	C 	0.2411	0.4978	0.34833	-0.086
Mof_C 	C 	0.3561	0.8188	0.27373	-0.099
Mof_C 	C 	0.4292	0.8909	0.25773	0.006
Mof_C 	C 	0.505	0.8928	0.26113	-0.069
Mof_C 	C 	0.5076	0.8227	0.28053	-0.005
Mof_C 	C 	0.4345	0.7505	0.29653	-0.077
Mof_C 	C 	0.3587	0.7486	0.29313	0.011
Mof_C 	C 	0.2783	0.3701	0.14303	0.004
Mof_C 	C 	0.2459	0.3492	0.20553	-0.072
Mof_C 	C 	0.2107	0.2649	0.22543	-0.008
Mof_C 	C 	0.2093	0.2077	0.18723	-0.066
Mof_C 	C 	0.2364	0.2239	0.12553	-0.002
Mof_C 	C 	0.2705	0.3023	0.10643	-0.076
Mof_C 	C 	0.4263	0.5195	0.16023	0.019
Mof_C 	C 	0.4814	0.5996	0.14913	-0.098
Mof_C 	C 	0.5587	0.6437	0.18003	0.013
Mof_C 	C 	0.5779	0.6091	0.22643	-0.087
Mof_C 	C 	0.5218	0.5265	0.23513	0.008
Mof_C 	C 	0.4434	0.4796	0.20593	-0.093
Mof_Br	Br	0.8352	0.62391	0.03512	-0.423
Mof_Br	Br	0.78871	0.1648	0.36845	-0.424
Mof_Br	Br	0.37609	0.21129	0.70179	-0.424
Mof_Br	Br	0.21129	0.37609	0.96488	-0.423
Mof_Br	Br	0.62391	0.8352	0.63155	-0.424
Mof_Br	Br	0.1648	0.78871	0.29821	-0.424
Mof_N 	N 	0.0483	0.573	0.3028	-0.241
Mof_N 	N 	0.5247	0.9517	0.63613	-0.24
Mof_N 	N 	0.427	0.4753	0.96947	-0.24
Mof_N 	N 	0.4753	0.427	0.6972	-0.24
Mof_N 	N 	0.573	0.0483	0.36387	-0.24
Mof_N 	N 	0.9517	0.5247	0.03053	-0.239
_end
