# CIF file generated by openbabel 3.1.0, see https://openbabel.org
data_I
_chemical_name_common 'UFUQIV_clean'
_cell_length_a 18.219
_cell_length_b 22.1055
_cell_length_c 22.1055
_cell_angle_alpha 80.2227
_cell_angle_beta 65.6637
_cell_angle_gamma 65.6637
_space_group_name_H-M_alt 'P 1'
_space_group_name_Hall 'P 1'
loop_
    _symmetry_equiv_pos_as_xyz
    x,y,z
loop_
    _atom_site_label
    _atom_site_type_symbol
    _atom_site_fract_x
    _atom_site_fract_y
    _atom_site_fract_z
    _atom_site_occupancy
    Cu1      Cu       0.75000    0.50757    0.49243    1.000
    Cu2      Cu       0.25000    0.99243    0.00757    1.000
    Cu3      Cu       0.25757    0.49243    0.99243    1.000
    Cu4      Cu       0.24243    0.00757    0.50757    1.000
    H1       H        0.42960    0.93580    0.42380    1.000
    H2       H        0.56660    0.56930    0.50390    1.000
    H3       H        0.26640    0.87710    0.57310    1.000
    H4       H        0.73970    0.64650    0.46190    1.000
    H5       H        0.37090    0.77330    0.56810    1.000
    H6       H        0.46020    0.67150    0.50830    1.000
    H7       H        0.63750    0.75190    0.46410    1.000
    H8       H        0.53910    0.83440    0.41560    1.000
    H9       H        0.28920    0.56420    0.07620    1.000
    H10      H        0.13980    0.93070    0.99610    1.000
    H11      H        0.21660    0.62290    0.92690    1.000
    H12      H        0.34810    0.85350    0.03810    1.000
    H13      H        0.21230    0.72670    0.93190    1.000
    H14      H        0.14000    0.82850    0.99170    1.000
    H15      H        0.35350    0.74810    0.03590    1.000
    H16      H        0.28910    0.66560    0.08440    1.000
    H17      H        0.21080    0.92380    0.43580    1.000
    H18      H        0.36020    0.00390    0.06930    1.000
    H19      H        0.28340    0.07310    0.37710    1.000
    H20      H        0.15190    0.96190    0.14650    1.000
    H21      H        0.28770    0.06810    0.27330    1.000
    H22      H        0.36000    0.00830    0.17150    1.000
    H23      H        0.14650    0.96410    0.25190    1.000
    H24      H        0.21090    0.91560    0.33440    1.000
    H25      H        0.07040    0.57620    0.06420    1.000
    H26      H        0.93340    0.49610    0.43070    1.000
    H27      H        0.23360    0.42690    0.12290    1.000
    H28      H        0.76030    0.53810    0.35350    1.000
    H29      H        0.12910    0.43190    0.22670    1.000
    H30      H        0.03980    0.49170    0.32850    1.000
    H31      H        0.86250    0.53590    0.24810    1.000
    H32      H        0.96090    0.58440    0.16560    1.000
    H33      H        0.64660    0.42380    0.56420    1.000
    H34      H        0.42950    0.50390    0.93070    1.000
    H35      H        0.66050    0.57310    0.62290    1.000
    H36      H        0.29840    0.46190    0.85350    1.000
    H37      H        0.56100    0.56810    0.72670    1.000
    H38      H        0.53150    0.50830    0.82850    1.000
    H39      H        0.39840    0.46410    0.74810    1.000
    H40      H        0.54530    0.41560    0.66560    1.000
    H41      H        0.13460    0.07620    0.93580    1.000
    H42      H        0.36410    0.99610    0.56930    1.000
    H43      H        0.35650    0.92690    0.87710    1.000
    H44      H        0.11380    0.03810    0.64650    1.000
    H45      H        0.35580    0.93190    0.77330    1.000
    H46      H        0.36830    0.99170    0.67150    1.000
    H47      H        0.11060    0.03590    0.75190    1.000
    H48      H        0.12650    0.08440    0.83440    1.000
    H49      H        0.36540    0.06420    0.92380    1.000
    H50      H        0.13590    0.43070    0.00390    1.000
    H51      H        0.14350    0.12290    0.07310    1.000
    H52      H        0.38620    0.35350    0.96190    1.000
    H53      H        0.14420    0.22670    0.06810    1.000
    H54      H        0.13170    0.32850    0.00830    1.000
    H55      H        0.38940    0.24810    0.96410    1.000
    H56      H        0.37350    0.16560    0.91560    1.000
    H57      H        0.85340    0.43580    0.57620    1.000
    H58      H        0.07050    0.06930    0.49610    1.000
    H59      H        0.83950    0.37710    0.42690    1.000
    H60      H        0.20160    0.14650    0.53810    1.000
    H61      H        0.93900    0.27330    0.43190    1.000
    H62      H        0.96850    0.17150    0.49170    1.000
    H63      H        0.10160    0.25190    0.53590    1.000
    H64      H        0.95470    0.33440    0.58440    1.000
    C1       C        0.41770    0.90260    0.45320    1.000
    C2       C        0.53620    0.72403    0.48677    1.000
    C3       C        0.46780    0.79110    0.49010    1.000
    C4       C        0.58060    0.60660    0.49660    1.000
    C5       C        0.32210    0.86800    0.54060    1.000
    C6       C        0.68250    0.65200    0.47180    1.000
    C7       C        0.38440    0.80570    0.53790    1.000
    C8       C        0.51660    0.66770    0.49890    1.000
    C9       C        0.62160    0.71550    0.47270    1.000
    C10      C        0.48370    0.84160    0.44780    1.000
    C11      C        0.27350    0.59740    0.04680    1.000
    C12      C        0.24700    0.77597    0.01323    1.000
    C13      C        0.24900    0.70890    0.00990    1.000
    C14      C        0.18380    0.89340    0.00340    1.000
    C15      C        0.23070    0.63200    0.95940    1.000
    C16      C        0.30630    0.84800    0.02820    1.000
    C17      C        0.22800    0.69430    0.96210    1.000
    C18      C        0.18320    0.83230    0.00110    1.000
    C19      C        0.30980    0.78450    0.02730    1.000
    C20      C        0.27310    0.65840    0.05220    1.000
    C21      C        0.22650    0.95320    0.40260    1.000
    C22      C        0.25300    0.98677    0.22403    1.000
    C23      C        0.25100    0.99010    0.29110    1.000
    C24      C        0.31620    0.99660    0.10660    1.000
    C25      C        0.26930    0.04060    0.36800    1.000
    C26      C        0.19370    0.97180    0.15200    1.000
    C27      C        0.27200    0.03790    0.30570    1.000
    C28      C        0.31680    0.99890    0.16770    1.000
    C29      C        0.19020    0.97270    0.21550    1.000
    C30      C        0.22690    0.94780    0.34160    1.000
    C31      C        0.08230    0.54680    0.09740    1.000
    C32      C        0.96380    0.51323    0.27597    1.000
    C33      C        0.03220    0.50990    0.20890    1.000
    C34      C        0.91940    0.50340    0.39340    1.000
    C35      C        0.17790    0.45940    0.13200    1.000
    C36      C        0.81750    0.52820    0.34800    1.000
    C37      C        0.11560    0.46210    0.19430    1.000
    C38      C        0.98340    0.50110    0.33230    1.000
    C39      C        0.87840    0.52730    0.28450    1.000
    C40      C        0.01630    0.55220    0.15840    1.000
    C41      C        0.62910    0.45320    0.59740    1.000
    C42      C        0.47703    0.48677    0.77597    1.000
    C43      C        0.54210    0.49010    0.70890    1.000
    C44      C        0.42280    0.49660    0.89340    1.000
    C45      C        0.63730    0.54060    0.63200    1.000
    C46      C        0.34570    0.47180    0.84800    1.000
    C47      C        0.57770    0.53790    0.69430    1.000
    C48      C        0.48450    0.49890    0.83230    1.000
    C49      C        0.40570    0.47270    0.78450    1.000
    C50      C        0.56850    0.44780    0.65840    1.000
    C51      C        0.17970    0.04680    0.90260    1.000
    C52      C        0.23977    0.01323    0.72403    1.000
    C53      C        0.24110    0.00990    0.79110    1.000
    C54      C        0.31280    0.00340    0.60660    1.000
    C55      C        0.30990    0.95940    0.86800    1.000
    C56      C        0.16550    0.02820    0.65200    1.000
    C57      C        0.30990    0.96210    0.80570    1.000
    C58      C        0.31570    0.00110    0.66770    1.000
    C59      C        0.16290    0.02730    0.71550    1.000
    C60      C        0.17470    0.05220    0.84160    1.000
    C61      C        0.32030    0.09740    0.95320    1.000
    C62      C        0.26023    0.27597    0.98677    1.000
    C63      C        0.25890    0.20890    0.99010    1.000
    C64      C        0.18720    0.39340    0.99660    1.000
    C65      C        0.19010    0.13200    0.04060    1.000
    C66      C        0.33450    0.34800    0.97180    1.000
    C67      C        0.19010    0.19430    0.03790    1.000
    C68      C        0.18430    0.33230    0.99890    1.000
    C69      C        0.33710    0.28450    0.97270    1.000
    C70      C        0.32530    0.15840    0.94780    1.000
    C71      C        0.87090    0.40260    0.54680    1.000
    C72      C        0.02297    0.22403    0.51323    1.000
    C73      C        0.95790    0.29110    0.50990    1.000
    C74      C        0.07720    0.10660    0.50340    1.000
    C75      C        0.86270    0.36800    0.45940    1.000
    C76      C        0.15430    0.15200    0.52820    1.000
    C77      C        0.92230    0.30570    0.46210    1.000
    C78      C        0.01550    0.16770    0.50110    1.000
    C79      C        0.09430    0.21550    0.52730    1.000
    C80      C        0.93150    0.34160    0.55220    1.000
    N1       N        0.66305    0.59817    0.48453    1.000
    N2       N        0.33738    0.91616    0.49888    1.000
    N3       N        0.24575    0.90183    0.01547    1.000
    N4       N        0.25242    0.58384    0.00112    1.000
    N5       N        0.25425    0.98453    0.09817    1.000
    N6       N        0.24758    0.99888    0.41616    1.000
    N7       N        0.83695    0.51547    0.40183    1.000
    N8       N        0.16262    0.50112    0.08384    1.000
    N9       N        0.35242    0.48453    0.90183    1.000
    N10      N        0.66374    0.49888    0.58384    1.000
    N11      N        0.23878    0.01547    0.59817    1.000
    N12      N        0.24646    0.00112    0.91616    1.000
    N13      N        0.26122    0.40183    0.98453    1.000
    N14      N        0.25354    0.08384    0.99888    1.000
    N15      N        0.14758    0.09817    0.51547    1.000
    N16      N        0.83626    0.41616    0.50112    1.000
    Cu5      Cu       0.74243    0.50757    0.00757    1.000
    Cu6      Cu       0.75757    0.99243    0.49243    1.000
    Cu7      Cu       0.25000    0.49243    0.50757    1.000
    Cu8      Cu       0.75000    0.00757    0.99243    1.000
    H65      H        0.35340    0.57620    0.43580    1.000
    H66      H        0.57050    0.49610    0.06930    1.000
    H67      H        0.33950    0.42690    0.37710    1.000
    H68      H        0.70160    0.53810    0.14650    1.000
    H69      H        0.43900    0.43190    0.27330    1.000
    H70      H        0.46850    0.49170    0.17150    1.000
    H71      H        0.60160    0.53590    0.25190    1.000
    H72      H        0.45470    0.58440    0.33440    1.000
    H73      H        0.86540    0.92380    0.06420    1.000
    H74      H        0.63590    0.00390    0.43070    1.000
    H75      H        0.64350    0.07310    0.12290    1.000
    H76      H        0.88620    0.96190    0.35350    1.000
    H77      H        0.64420    0.06810    0.22670    1.000
    H78      H        0.63170    0.00830    0.32850    1.000
    H79      H        0.88940    0.96410    0.24810    1.000
    H80      H        0.87350    0.91560    0.16560    1.000
    H81      H        0.63460    0.93580    0.07620    1.000
    H82      H        0.86410    0.56930    0.99610    1.000
    H83      H        0.85650    0.87710    0.92690    1.000
    H84      H        0.61380    0.64650    0.03810    1.000
    H85      H        0.85580    0.77330    0.93190    1.000
    H86      H        0.86830    0.67150    0.99170    1.000
    H87      H        0.61060    0.75190    0.03590    1.000
    H88      H        0.62650    0.83440    0.08440    1.000
    H89      H        0.14660    0.56420    0.42380    1.000
    H90      H        0.92950    0.93070    0.50390    1.000
    H91      H        0.16050    0.62290    0.57310    1.000
    H92      H        0.79840    0.85350    0.46190    1.000
    H93      H        0.06100    0.72670    0.56810    1.000
    H94      H        0.03150    0.82850    0.50830    1.000
    H95      H        0.89840    0.74810    0.46410    1.000
    H96      H        0.04530    0.66560    0.41560    1.000
    H97      H        0.57040    0.06420    0.57620    1.000
    H98      H        0.43340    0.43070    0.49610    1.000
    H99      H        0.73360    0.12290    0.42690    1.000
    H100     H        0.26030    0.35350    0.53810    1.000
    H101     H        0.62910    0.22670    0.43190    1.000
    H102     H        0.53980    0.32850    0.49170    1.000
    H103     H        0.36250    0.24810    0.53590    1.000
    H104     H        0.46090    0.16560    0.58440    1.000
    H105     H        0.71080    0.43580    0.92380    1.000
    H106     H        0.86020    0.06930    0.00390    1.000
    H107     H        0.78340    0.37710    0.07310    1.000
    H108     H        0.65190    0.14650    0.96190    1.000
    H109     H        0.78770    0.27330    0.06810    1.000
    H110     H        0.86000    0.17150    0.00830    1.000
    H111     H        0.64650    0.25190    0.96410    1.000
    H112     H        0.71090    0.33440    0.91560    1.000
    H113     H        0.78920    0.07620    0.56420    1.000
    H114     H        0.63980    0.99610    0.93070    1.000
    H115     H        0.71660    0.92690    0.62290    1.000
    H116     H        0.84810    0.03810    0.85350    1.000
    H117     H        0.71230    0.93190    0.72670    1.000
    H118     H        0.64000    0.99170    0.82850    1.000
    H119     H        0.85350    0.03590    0.74810    1.000
    H120     H        0.78910    0.08440    0.66560    1.000
    H121     H        0.92960    0.42380    0.93580    1.000
    H122     H        0.06660    0.50390    0.56930    1.000
    H123     H        0.76640    0.57310    0.87710    1.000
    H124     H        0.23970    0.46190    0.64650    1.000
    H125     H        0.87090    0.56810    0.77330    1.000
    H126     H        0.96020    0.50830    0.67150    1.000
    H127     H        0.13750    0.46410    0.75190    1.000
    H128     H        0.03910    0.41560    0.83440    1.000
    C81      C        0.37090    0.54680    0.40260    1.000
    C82      C        0.52297    0.51323    0.22403    1.000
    C83      C        0.45790    0.50990    0.29110    1.000
    C84      C        0.57720    0.50340    0.10660    1.000
    C85      C        0.36270    0.45940    0.36800    1.000
    C86      C        0.65430    0.52820    0.15200    1.000
    C87      C        0.42230    0.46210    0.30570    1.000
    C88      C        0.51550    0.50110    0.16770    1.000
    C89      C        0.59430    0.52730    0.21550    1.000
    C90      C        0.43150    0.55220    0.34160    1.000
    C91      C        0.82030    0.95320    0.09740    1.000
    C92      C        0.76023    0.98677    0.27597    1.000
    C93      C        0.75890    0.99010    0.20890    1.000
    C94      C        0.68720    0.99660    0.39340    1.000
    C95      C        0.69010    0.04060    0.13200    1.000
    C96      C        0.83450    0.97180    0.34800    1.000
    C97      C        0.69010    0.03790    0.19430    1.000
    C98      C        0.68430    0.99890    0.33230    1.000
    C99      C        0.83710    0.97270    0.28450    1.000
    C100     C        0.82530    0.94780    0.15840    1.000
    C101     C        0.67970    0.90260    0.04680    1.000
    C102     C        0.73977    0.72403    0.01323    1.000
    C103     C        0.74110    0.79110    0.00990    1.000
    C104     C        0.81280    0.60660    0.00340    1.000
    C105     C        0.80990    0.86800    0.95940    1.000
    C106     C        0.66550    0.65200    0.02820    1.000
    C107     C        0.80990    0.80570    0.96210    1.000
    C108     C        0.81570    0.66770    0.00110    1.000
    C109     C        0.66290    0.71550    0.02730    1.000
    C110     C        0.67470    0.84160    0.05220    1.000
    C111     C        0.12910    0.59740    0.45320    1.000
    C112     C        0.97703    0.77597    0.48677    1.000
    C113     C        0.04210    0.70890    0.49010    1.000
    C114     C        0.92280    0.89340    0.49660    1.000
    C115     C        0.13730    0.63200    0.54060    1.000
    C116     C        0.84570    0.84800    0.47180    1.000
    C117     C        0.07770    0.69430    0.53790    1.000
    C118     C        0.98450    0.83230    0.49890    1.000
    C119     C        0.90570    0.78450    0.47270    1.000
    C120     C        0.06850    0.65840    0.44780    1.000
    C121     C        0.58230    0.09740    0.54680    1.000
    C122     C        0.46380    0.27597    0.51323    1.000
    C123     C        0.53220    0.20890    0.50990    1.000
    C124     C        0.41940    0.39340    0.50340    1.000
    C125     C        0.67790    0.13200    0.45940    1.000
    C126     C        0.31750    0.34800    0.52820    1.000
    C127     C        0.61560    0.19430    0.46210    1.000
    C128     C        0.48340    0.33230    0.50110    1.000
    C129     C        0.37840    0.28450    0.52730    1.000
    C130     C        0.51630    0.15840    0.55220    1.000
    C131     C        0.72650    0.40260    0.95320    1.000
    C132     C        0.75300    0.22403    0.98677    1.000
    C133     C        0.75100    0.29110    0.99010    1.000
    C134     C        0.81620    0.10660    0.99660    1.000
    C135     C        0.76930    0.36800    0.04060    1.000
    C136     C        0.69370    0.15200    0.97180    1.000
    C137     C        0.77200    0.30570    0.03790    1.000
    C138     C        0.81680    0.16770    0.99890    1.000
    C139     C        0.69020    0.21550    0.97270    1.000
    C140     C        0.72690    0.34160    0.94780    1.000
    C141     C        0.77350    0.04680    0.59740    1.000
    C142     C        0.74700    0.01323    0.77597    1.000
    C143     C        0.74900    0.00990    0.70890    1.000
    C144     C        0.68380    0.00340    0.89340    1.000
    C145     C        0.73070    0.95940    0.63200    1.000
    C146     C        0.80630    0.02820    0.84800    1.000
    C147     C        0.72800    0.96210    0.69430    1.000
    C148     C        0.68320    0.00110    0.83230    1.000
    C149     C        0.80980    0.02730    0.78450    1.000
    C150     C        0.77310    0.05220    0.65840    1.000
    C151     C        0.91770    0.45320    0.90260    1.000
    C152     C        0.03620    0.48677    0.72403    1.000
    C153     C        0.96780    0.49010    0.79110    1.000
    C154     C        0.08060    0.49660    0.60660    1.000
    C155     C        0.82210    0.54060    0.86800    1.000
    C156     C        0.18250    0.47180    0.65200    1.000
    C157     C        0.88440    0.53790    0.80570    1.000
    C158     C        0.01660    0.49890    0.66770    1.000
    C159     C        0.12160    0.47270    0.71550    1.000
    C160     C        0.98370    0.44780    0.84160    1.000
    N17      N        0.64758    0.51547    0.09817    1.000
    N18      N        0.33626    0.50112    0.41616    1.000
    N19      N        0.76122    0.98453    0.40183    1.000
    N20      N        0.75354    0.99888    0.08384    1.000
    N21      N        0.73878    0.59817    0.01547    1.000
    N22      N        0.74646    0.91616    0.00112    1.000
    N23      N        0.85242    0.90183    0.48453    1.000
    N24      N        0.16374    0.58384    0.49888    1.000
    N25      N        0.33695    0.40183    0.51547    1.000
    N26      N        0.66262    0.08384    0.50112    1.000
    N27      N        0.75425    0.09817    0.98453    1.000
    N28      N        0.74758    0.41616    0.99888    1.000
    N29      N        0.74575    0.01547    0.90183    1.000
    N30      N        0.75242    0.00112    0.58384    1.000
    N31      N        0.16305    0.48453    0.59817    1.000
    N32      N        0.83738    0.49888    0.91616    1.000
