data_functionalizedCrystal
_audit_creation_method	'EQeq! by Chris Wilmer'
_symmetry_space_group_name_H-M	'P1'
_symmetry_Int_Tables_number	1
_symmetry_cell_setting	triclinic
loop_
_symmetry_equiv_pos_as_xyz
  x,y,z
_cell_length_a	13.7249
_cell_length_b	13.7249
_cell_length_c	15.3316
_cell_angle_alpha	90
_cell_angle_beta	90
_cell_angle_gamma	120
loop_
_atom_site_label
_atom_site_type_symbol
_atom_site_fract_x
_atom_site_fract_y
_atom_site_fract_z
_atom_site_charge
Mof_Zn	Zn	0.2414	0.2139	0.0932	1.222
Mof_P 	P 	0.02	0.2255	0.1053	0.504
Mof_O 	O 	0.1354	0.2541	0.139	-0.462
Mof_O 	O 	0.0308	0.2962	0.0252	-0.499
Mof_O 	O 	0.9568	0.2444	0.1767	-0.45
Mof_O 	O 	0.9533	0.0999	0.0786	-0.596
Mof_Zn	Zn	0.90807	0.54723	0.42653	1.239
Mof_P 	P 	0.68667	0.55883	0.43863	0.563
Mof_O 	O 	0.80207	0.58743	0.47233	-0.437
Mof_O 	O 	0.69747	0.62953	0.35853	-0.453
Mof_O 	O 	0.62347	0.57773	0.51003	-0.475
Mof_O 	O 	0.61997	0.43323	0.41193	-0.61
Mof_Zn	Zn	0.57473	0.88057	0.75987	1.234
Mof_P 	P 	0.35333	0.89217	0.77197	0.563
Mof_O 	O 	0.46873	0.92077	0.80567	-0.433
Mof_O 	O 	0.36413	0.96287	0.69187	-0.444
Mof_O 	O 	0.29013	0.91107	0.84337	-0.462
Mof_O 	O 	0.28663	0.76657	0.74527	-0.608
Mof_Zn	Zn	0.7861	0.0275	0.0932	1.215
Mof_P 	P 	0.7745	0.7945	0.1053	0.561
Mof_O 	O 	0.7459	0.8813	0.139	-0.434
Mof_O 	O 	0.7038	0.7346	0.0252	-0.485
Mof_O 	O 	0.7556	0.7124	0.1767	-0.476
Mof_O 	O 	0.9001	0.8534	0.0786	-0.598
Mof_Zn	Zn	0.45277	0.36083	0.42653	1.231
Mof_P 	P 	0.44117	0.12783	0.43863	0.564
Mof_O 	O 	0.41257	0.21463	0.47233	-0.456
Mof_O 	O 	0.37047	0.06793	0.35853	-0.474
Mof_O 	O 	0.42227	0.04573	0.51003	-0.502
Mof_O 	O 	0.56677	0.18673	0.41193	-0.613
Mof_Zn	Zn	0.11943	0.69417	0.75987	1.232
Mof_P 	P 	0.10783	0.46117	0.77197	0.563
Mof_O 	O 	0.07923	0.54797	0.80567	-0.452
Mof_O 	O 	0.03713	0.40127	0.69187	-0.476
Mof_O 	O 	0.08893	0.37907	0.84337	-0.479
Mof_O 	O 	0.23343	0.52007	0.74527	-0.609
Mof_Zn	Zn	0.9725	0.7586	0.0932	1.232
Mof_P 	P 	0.2055	0.98	0.1053	0.627
Mof_O 	O 	0.1187	0.8646	0.139	-0.473
Mof_O 	O 	0.2654	0.9692	0.0252	-0.48
Mof_O 	O 	0.2876	0.0432	0.1767	-0.523
Mof_O 	O 	0.1466	0.0467	0.0786	-0.672
Mof_Zn	Zn	0.63917	0.09193	0.42653	1.225
Mof_P 	P 	0.87217	0.31333	0.43863	0.563
Mof_O 	O 	0.78537	0.19793	0.47233	-0.452
Mof_O 	O 	0.93207	0.30253	0.35853	-0.45
Mof_O 	O 	0.95427	0.37653	0.51003	-0.456
Mof_O 	O 	0.81327	0.38003	0.41193	-0.607
Mof_Zn	Zn	0.30583	0.42527	0.75987	1.232
Mof_P 	P 	0.53883	0.64667	0.77197	0.563
Mof_O 	O 	0.45203	0.53127	0.80567	-0.441
Mof_O 	O 	0.59873	0.63587	0.69187	-0.453
Mof_O 	O 	0.62093	0.70987	0.84337	-0.465
Mof_O 	O 	0.47993	0.71337	0.74527	-0.607
Mof_Zn	Zn	0.7586	0.7861	0.9068	1.242
Mof_P 	P 	0.98	0.7745	0.8947	0.619
Mof_O 	O 	0.8646	0.7459	0.861	-0.436
Mof_O 	O 	0.9692	0.7038	0.9748	-0.419
Mof_O 	O 	0.0432	0.7556	0.8233	-0.507
Mof_O 	O 	0.0467	0.9001	0.9214	-0.612
Mof_Zn	Zn	0.42527	0.11943	0.24013	1.229
Mof_P 	P 	0.64667	0.10783	0.22803	0.564
Mof_O 	O 	0.53127	0.07923	0.19433	-0.468
Mof_O 	O 	0.63587	0.03713	0.30813	-0.474
Mof_O 	O 	0.70987	0.08893	0.15663	-0.498
Mof_O 	O 	0.71337	0.23343	0.25473	-0.613
Mof_Zn	Zn	0.09193	0.45277	0.57347	1.224
Mof_P 	P 	0.31333	0.44117	0.56137	0.564
Mof_O 	O 	0.19793	0.41257	0.52767	-0.462
Mof_O 	O 	0.30253	0.37047	0.64147	-0.464
Mof_O 	O 	0.37653	0.42227	0.48997	-0.483
Mof_O 	O 	0.38003	0.56677	0.58807	-0.611
Mof_Zn	Zn	0.2139	0.9725	0.9068	1.247
Mof_P 	P 	0.2255	0.2055	0.8947	0.565
Mof_O 	O 	0.2541	0.1187	0.861	-0.461
Mof_O 	O 	0.2962	0.2654	0.9748	-0.428
Mof_O 	O 	0.2444	0.2876	0.8233	-0.481
Mof_O 	O 	0.0999	0.1466	0.9214	-0.608
Mof_Zn	Zn	0.88057	0.30583	0.24013	1.232
Mof_P 	P 	0.89217	0.53883	0.22803	0.563
Mof_O 	O 	0.92077	0.45203	0.19433	-0.447
Mof_O 	O 	0.96287	0.59873	0.30813	-0.441
Mof_O 	O 	0.91107	0.62093	0.15663	-0.479
Mof_O 	O 	0.76657	0.47993	0.25473	-0.612
Mof_Zn	Zn	0.54723	0.63917	0.57347	1.232
Mof_P 	P 	0.55883	0.87217	0.56137	0.563
Mof_O 	O 	0.58743	0.78537	0.52767	-0.443
Mof_O 	O 	0.62953	0.93207	0.64147	-0.444
Mof_O 	O 	0.57773	0.95427	0.48997	-0.455
Mof_O 	O 	0.43323	0.81327	0.58807	-0.608
Mof_Zn	Zn	0.0275	0.2414	0.9068	1.232
Mof_P 	P 	0.7945	0.02	0.8947	0.515
Mof_O 	O 	0.8813	0.1354	0.861	-0.421
Mof_O 	O 	0.7346	0.0308	0.9748	-0.43
Mof_O 	O 	0.7124	0.9568	0.8233	-0.444
Mof_O 	O 	0.8534	0.9533	0.9214	-0.547
Mof_Zn	Zn	0.69417	0.57473	0.24013	1.231
Mof_P 	P 	0.46117	0.35333	0.22803	0.563
Mof_O 	O 	0.54797	0.46873	0.19433	-0.457
Mof_O 	O 	0.40127	0.36413	0.30813	-0.464
Mof_O 	O 	0.37907	0.29013	0.15663	-0.494
Mof_O 	O 	0.52007	0.28663	0.25473	-0.614
Mof_Zn	Zn	0.36083	0.90807	0.57347	1.238
Mof_P 	P 	0.12783	0.68667	0.56137	0.564
Mof_O 	O 	0.21463	0.80207	0.52767	-0.445
Mof_O 	O 	0.06793	0.69747	0.64147	-0.466
Mof_O 	O 	0.04573	0.62347	0.48997	-0.5
Mof_O 	O 	0.18673	0.61997	0.58807	-0.613
Mof_Zn	Zn	-0	0	-0	1.168
Mof_Zn	Zn	0.66667	0.33333	0.33333	1.211
Mof_Zn	Zn	0.33333	0.66667	0.66667	1.212
_end
