# CIF file generated by openbabel 3.1.0, see https://openbabel.org
data_I
_chemical_name_common 'image0'
_cell_length_a 18.777
_cell_length_b 23.3593
_cell_length_c 30.4231
_cell_angle_alpha 90
_cell_angle_beta 90
_cell_angle_gamma 90
_space_group_name_H-M_alt 'P 1'
_space_group_name_Hall 'P 1'
loop_
    _symmetry_equiv_pos_as_xyz
    x,y,z
loop_
    _atom_site_label
    _atom_site_type_symbol
    _atom_site_fract_x
    _atom_site_fract_y
    _atom_site_fract_z
    _atom_site_occupancy
    Cu1      Cu       0.23583    0.36023    0.12145    1.000
    N1       N        0.28780    0.40542    0.16730    1.000
    N2       N        0.43710    0.58827    0.32842    1.000
    N3       N        0.22920    0.27642    0.12170    1.000
    C1       C        0.32660    0.45130    0.15647    1.000
    H1       H        0.33360    0.45900    0.12680    1.000
    C2       C        0.35640    0.48750    0.18631    1.000
    H2       H        0.38220    0.51910    0.17670    1.000
    C3       C        0.28090    0.39510    0.21022    1.000
    H3       H        0.25550    0.36280    0.21870    1.000
    C4       C        0.30900    0.42910    0.24246    1.000
    H4       H        0.30190    0.42000    0.27190    1.000
    C5       C        0.34840    0.47740    0.23094    1.000
    C6       C        0.37950    0.51510    0.26475    1.000
    C7       C        0.40420    0.49460    0.30455    1.000
    H5       H        0.40200    0.45570    0.31070    1.000
    C8       C        0.43210    0.53150    0.33479    1.000
    H6       H        0.44840    0.51660    0.36130    1.000
    C9       C        0.38560    0.57410    0.25745    1.000
    H7       H        0.37090    0.58980    0.23090    1.000
    C10      C        0.41360    0.60850    0.28969    1.000
    H8       H        0.41640    0.64770    0.28450    1.000
    C11      C        0.24990    0.24540    0.08708    1.000
    H9       H        0.26440    0.26440    0.06180    1.000
    C12      C        0.25060    0.18630    0.08723    1.000
    H10      H        0.26510    0.16640    0.06230    1.000
    C13      C        0.20770    0.24760    0.15745    1.000
    H11      H        0.19180    0.26840    0.18160    1.000
    C14      C        0.20790    0.18890    0.15999    1.000
    H12      H        0.19350    0.17090    0.18570    1.000
    C15      C        0.22960    0.15680    0.12447    1.000
    Cu2      Cu       0.23583    0.86023    0.62145    1.000
    N4       N        0.28780    0.90542    0.66730    1.000
    N5       N        0.43710    0.08827    0.82842    1.000
    N6       N        0.22920    0.77642    0.62170    1.000
    C16      C        0.32660    0.95130    0.65647    1.000
    H13      H        0.33360    0.95900    0.62680    1.000
    C17      C        0.35640    0.98750    0.68631    1.000
    H14      H        0.38220    0.01910    0.67670    1.000
    C18      C        0.28090    0.89510    0.71022    1.000
    H15      H        0.25550    0.86280    0.71870    1.000
    C19      C        0.30900    0.92910    0.74246    1.000
    H16      H        0.30190    0.92000    0.77190    1.000
    C20      C        0.34840    0.97740    0.73094    1.000
    C21      C        0.37950    0.01510    0.76475    1.000
    C22      C        0.40420    0.99460    0.80455    1.000
    H17      H        0.40200    0.95570    0.81070    1.000
    C23      C        0.43210    0.03150    0.83479    1.000
    H18      H        0.44840    0.01660    0.86130    1.000
    C24      C        0.38560    0.07410    0.75745    1.000
    H19      H        0.37090    0.08980    0.73090    1.000
    C25      C        0.41360    0.10850    0.78969    1.000
    H20      H        0.41640    0.14770    0.78450    1.000
    C26      C        0.24990    0.74540    0.58708    1.000
    H21      H        0.26440    0.76440    0.56180    1.000
    C27      C        0.25060    0.68630    0.58723    1.000
    H22      H        0.26510    0.66640    0.56230    1.000
    C28      C        0.20770    0.74760    0.65745    1.000
    H23      H        0.19180    0.76840    0.68160    1.000
    C29      C        0.20790    0.68890    0.65999    1.000
    H24      H        0.19350    0.67090    0.68570    1.000
    C30      C        0.22960    0.65680    0.62447    1.000
    Cu3      Cu       0.73583    0.36023    0.62145    1.000
    N7       N        0.78780    0.40542    0.66730    1.000
    N8       N        0.93710    0.58827    0.82842    1.000
    N9       N        0.72920    0.27642    0.62170    1.000
    C31      C        0.82660    0.45130    0.65647    1.000
    H25      H        0.83360    0.45900    0.62680    1.000
    C32      C        0.85640    0.48750    0.68631    1.000
    H26      H        0.88220    0.51910    0.67670    1.000
    C33      C        0.78090    0.39510    0.71022    1.000
    H27      H        0.75550    0.36280    0.71870    1.000
    C34      C        0.80900    0.42910    0.74246    1.000
    H28      H        0.80190    0.42000    0.77190    1.000
    C35      C        0.84840    0.47740    0.73094    1.000
    C36      C        0.87950    0.51510    0.76475    1.000
    C37      C        0.90420    0.49460    0.80455    1.000
    H29      H        0.90200    0.45570    0.81070    1.000
    C38      C        0.93210    0.53150    0.83479    1.000
    H30      H        0.94840    0.51660    0.86130    1.000
    C39      C        0.88560    0.57410    0.75745    1.000
    H31      H        0.87090    0.58980    0.73090    1.000
    C40      C        0.91360    0.60850    0.78969    1.000
    H32      H        0.91640    0.64770    0.78450    1.000
    C41      C        0.74990    0.24540    0.58708    1.000
    H33      H        0.76440    0.26440    0.56180    1.000
    C42      C        0.75060    0.18630    0.58723    1.000
    H34      H        0.76510    0.16640    0.56230    1.000
    C43      C        0.70770    0.24760    0.65745    1.000
    H35      H        0.69180    0.26840    0.68160    1.000
    C44      C        0.70790    0.18890    0.65999    1.000
    H36      H        0.69350    0.17090    0.68570    1.000
    C45      C        0.72960    0.15680    0.62447    1.000
    Cu4      Cu       0.73583    0.86023    0.12145    1.000
    N10      N        0.78780    0.90542    0.16730    1.000
    N11      N        0.93710    0.08827    0.32842    1.000
    N12      N        0.72920    0.77642    0.12170    1.000
    C46      C        0.82660    0.95130    0.15647    1.000
    H37      H        0.83360    0.95900    0.12680    1.000
    C47      C        0.85640    0.98750    0.18631    1.000
    H38      H        0.88220    0.01910    0.17670    1.000
    C48      C        0.78090    0.89510    0.21022    1.000
    H39      H        0.75550    0.86280    0.21870    1.000
    C49      C        0.80900    0.92910    0.24246    1.000
    H40      H        0.80190    0.92000    0.27190    1.000
    C50      C        0.84840    0.97740    0.23094    1.000
    C51      C        0.87950    0.01510    0.26475    1.000
    C52      C        0.90420    0.99460    0.30455    1.000
    H41      H        0.90200    0.95570    0.31070    1.000
    C53      C        0.93210    0.03150    0.33479    1.000
    H42      H        0.94840    0.01660    0.36130    1.000
    C54      C        0.88560    0.07410    0.25745    1.000
    H43      H        0.87090    0.08980    0.23090    1.000
    C55      C        0.91360    0.10850    0.28969    1.000
    H44      H        0.91640    0.14770    0.28450    1.000
    C56      C        0.74990    0.74540    0.08708    1.000
    H45      H        0.76440    0.76440    0.06180    1.000
    C57      C        0.75060    0.68630    0.08723    1.000
    H46      H        0.76510    0.66640    0.06230    1.000
    C58      C        0.70770    0.74760    0.15745    1.000
    H47      H        0.69180    0.76840    0.18160    1.000
    C59      C        0.70790    0.68890    0.15999    1.000
    H48      H        0.69350    0.67090    0.18570    1.000
    C60      C        0.72960    0.65680    0.12447    1.000
    Cu5      Cu       0.23583    0.38977    0.62855    1.000
    N13      N        0.28780    0.34458    0.58270    1.000
    N14      N        0.43710    0.16173    0.42158    1.000
    N15      N        0.22920    0.47358    0.62830    1.000
    C61      C        0.32660    0.29870    0.59353    1.000
    H49      H        0.33360    0.29100    0.62320    1.000
    C62      C        0.35640    0.26250    0.56369    1.000
    H50      H        0.38220    0.23090    0.57330    1.000
    C63      C        0.28090    0.35490    0.53978    1.000
    H51      H        0.25550    0.38720    0.53130    1.000
    C64      C        0.30900    0.32090    0.50754    1.000
    H52      H        0.30190    0.33000    0.47810    1.000
    C65      C        0.34840    0.27260    0.51906    1.000
    C66      C        0.37950    0.23490    0.48525    1.000
    C67      C        0.40420    0.25540    0.44545    1.000
    H53      H        0.40200    0.29430    0.43930    1.000
    C68      C        0.43210    0.21850    0.41521    1.000
    H54      H        0.44840    0.23340    0.38870    1.000
    C69      C        0.38560    0.17590    0.49255    1.000
    H55      H        0.37090    0.16020    0.51910    1.000
    C70      C        0.41360    0.14150    0.46031    1.000
    H56      H        0.41640    0.10230    0.46550    1.000
    C71      C        0.24990    0.50460    0.66292    1.000
    H57      H        0.26440    0.48560    0.68820    1.000
    C72      C        0.25060    0.56370    0.66277    1.000
    H58      H        0.26510    0.58360    0.68770    1.000
    C73      C        0.20770    0.50240    0.59255    1.000
    H59      H        0.19180    0.48160    0.56840    1.000
    C74      C        0.20790    0.56110    0.59001    1.000
    H60      H        0.19350    0.57910    0.56430    1.000
    C75      C        0.22960    0.59320    0.62553    1.000
    Cu6      Cu       0.23583    0.88977    0.12855    1.000
    N16      N        0.28780    0.84458    0.08270    1.000
    N17      N        0.43710    0.66173    0.92158    1.000
    N18      N        0.22920    0.97358    0.12830    1.000
    C76      C        0.32660    0.79870    0.09353    1.000
    H61      H        0.33360    0.79100    0.12320    1.000
    C77      C        0.35640    0.76250    0.06369    1.000
    H62      H        0.38220    0.73090    0.07330    1.000
    C78      C        0.28090    0.85490    0.03978    1.000
    H63      H        0.25550    0.88720    0.03130    1.000
    C79      C        0.30900    0.82090    0.00754    1.000
    H64      H        0.30190    0.83000    0.97810    1.000
    C80      C        0.34840    0.77260    0.01906    1.000
    C81      C        0.37950    0.73490    0.98525    1.000
    C82      C        0.40420    0.75540    0.94545    1.000
    H65      H        0.40200    0.79430    0.93930    1.000
    C83      C        0.43210    0.71850    0.91521    1.000
    H66      H        0.44840    0.73340    0.88870    1.000
    C84      C        0.38560    0.67590    0.99255    1.000
    H67      H        0.37090    0.66020    0.01910    1.000
    C85      C        0.41360    0.64150    0.96031    1.000
    H68      H        0.41640    0.60230    0.96550    1.000
    C86      C        0.24990    0.00460    0.16292    1.000
    H69      H        0.26440    0.98560    0.18820    1.000
    C87      C        0.25060    0.06370    0.16277    1.000
    H70      H        0.26510    0.08360    0.18770    1.000
    C88      C        0.20770    0.00240    0.09255    1.000
    H71      H        0.19180    0.98160    0.06840    1.000
    C89      C        0.20790    0.06110    0.09001    1.000
    H72      H        0.19350    0.07910    0.06430    1.000
    C90      C        0.22960    0.09320    0.12553    1.000
    Cu7      Cu       0.73583    0.38977    0.12855    1.000
    N19      N        0.78780    0.34458    0.08270    1.000
    N20      N        0.93710    0.16173    0.92158    1.000
    N21      N        0.72920    0.47358    0.12830    1.000
    C91      C        0.82660    0.29870    0.09353    1.000
    H73      H        0.83360    0.29100    0.12320    1.000
    C92      C        0.85640    0.26250    0.06369    1.000
    H74      H        0.88220    0.23090    0.07330    1.000
    C93      C        0.78090    0.35490    0.03978    1.000
    H75      H        0.75550    0.38720    0.03130    1.000
    C94      C        0.80900    0.32090    0.00754    1.000
    H76      H        0.80190    0.33000    0.97810    1.000
    C95      C        0.84840    0.27260    0.01906    1.000
    C96      C        0.87950    0.23490    0.98525    1.000
    C97      C        0.90420    0.25540    0.94545    1.000
    H77      H        0.90200    0.29430    0.93930    1.000
    C98      C        0.93210    0.21850    0.91521    1.000
    H78      H        0.94840    0.23340    0.88870    1.000
    C99      C        0.88560    0.17590    0.99255    1.000
    H79      H        0.87090    0.16020    0.01910    1.000
    C100     C        0.91360    0.14150    0.96031    1.000
    H80      H        0.91640    0.10230    0.96550    1.000
    C101     C        0.74990    0.50460    0.16292    1.000
    H81      H        0.76440    0.48560    0.18820    1.000
    C102     C        0.75060    0.56370    0.16277    1.000
    H82      H        0.76510    0.58360    0.18770    1.000
    C103     C        0.70770    0.50240    0.09255    1.000
    H83      H        0.69180    0.48160    0.06840    1.000
    C104     C        0.70790    0.56110    0.09001    1.000
    H84      H        0.69350    0.57910    0.06430    1.000
    C105     C        0.72960    0.59320    0.12553    1.000
    Cu8      Cu       0.73583    0.88977    0.62855    1.000
    N22      N        0.78780    0.84458    0.58270    1.000
    N23      N        0.93710    0.66173    0.42158    1.000
    N24      N        0.72920    0.97358    0.62830    1.000
    C106     C        0.82660    0.79870    0.59353    1.000
    H85      H        0.83360    0.79100    0.62320    1.000
    C107     C        0.85640    0.76250    0.56369    1.000
    H86      H        0.88220    0.73090    0.57330    1.000
    C108     C        0.78090    0.85490    0.53978    1.000
    H87      H        0.75550    0.88720    0.53130    1.000
    C109     C        0.80900    0.82090    0.50754    1.000
    H88      H        0.80190    0.83000    0.47810    1.000
    C110     C        0.84840    0.77260    0.51906    1.000
    C111     C        0.87950    0.73490    0.48525    1.000
    C112     C        0.90420    0.75540    0.44545    1.000
    H89      H        0.90200    0.79430    0.43930    1.000
    C113     C        0.93210    0.71850    0.41521    1.000
    H90      H        0.94840    0.73340    0.38870    1.000
    C114     C        0.88560    0.67590    0.49255    1.000
    H91      H        0.87090    0.66020    0.51910    1.000
    C115     C        0.91360    0.64150    0.46031    1.000
    H92      H        0.91640    0.60230    0.46550    1.000
    C116     C        0.74990    0.00460    0.66292    1.000
    H93      H        0.76440    0.98560    0.68820    1.000
    C117     C        0.75060    0.06370    0.66277    1.000
    H94      H        0.76510    0.08360    0.68770    1.000
    C118     C        0.70770    0.00240    0.59255    1.000
    H95      H        0.69180    0.98160    0.56840    1.000
    C119     C        0.70790    0.06110    0.59001    1.000
    H96      H        0.69350    0.07910    0.56430    1.000
    C120     C        0.72960    0.09320    0.62553    1.000
    Cu9      Cu       0.48583    0.61023    0.87855    1.000
    N25      N        0.53780    0.65542    0.83270    1.000
    N26      N        0.68710    0.83827    0.67158    1.000
    N27      N        0.47920    0.52642    0.87830    1.000
    C121     C        0.57660    0.70130    0.84353    1.000
    H97      H        0.58360    0.70900    0.87320    1.000
    C122     C        0.60640    0.73750    0.81369    1.000
    H98      H        0.63220    0.76910    0.82330    1.000
    C123     C        0.53090    0.64510    0.78978    1.000
    H99      H        0.50550    0.61280    0.78130    1.000
    C124     C        0.55900    0.67910    0.75754    1.000
    H100     H        0.55190    0.67000    0.72810    1.000
    C125     C        0.59840    0.72740    0.76906    1.000
    C126     C        0.62950    0.76510    0.73525    1.000
    C127     C        0.65420    0.74460    0.69545    1.000
    H101     H        0.65200    0.70570    0.68930    1.000
    C128     C        0.68210    0.78150    0.66521    1.000
    H102     H        0.69840    0.76660    0.63870    1.000
    C129     C        0.63560    0.82410    0.74255    1.000
    H103     H        0.62090    0.83980    0.76910    1.000
    C130     C        0.66360    0.85850    0.71031    1.000
    H104     H        0.66640    0.89770    0.71550    1.000
    C131     C        0.49990    0.49540    0.91292    1.000
    H105     H        0.51440    0.51440    0.93820    1.000
    C132     C        0.50060    0.43630    0.91277    1.000
    H106     H        0.51510    0.41640    0.93770    1.000
    C133     C        0.45770    0.49760    0.84255    1.000
    H107     H        0.44180    0.51840    0.81840    1.000
    C134     C        0.45790    0.43890    0.84001    1.000
    H108     H        0.44350    0.42090    0.81430    1.000
    C135     C        0.47960    0.40680    0.87553    1.000
    Cu10     Cu       0.48583    0.11023    0.37855    1.000
    N28      N        0.53780    0.15542    0.33270    1.000
    N29      N        0.68710    0.33827    0.17158    1.000
    N30      N        0.47920    0.02642    0.37830    1.000
    C136     C        0.57660    0.20130    0.34353    1.000
    H109     H        0.58360    0.20900    0.37320    1.000
    C137     C        0.60640    0.23750    0.31369    1.000
    H110     H        0.63220    0.26910    0.32330    1.000
    C138     C        0.53090    0.14510    0.28978    1.000
    H111     H        0.50550    0.11280    0.28130    1.000
    C139     C        0.55900    0.17910    0.25754    1.000
    H112     H        0.55190    0.17000    0.22810    1.000
    C140     C        0.59840    0.22740    0.26906    1.000
    C141     C        0.62950    0.26510    0.23525    1.000
    C142     C        0.65420    0.24460    0.19545    1.000
    H113     H        0.65200    0.20570    0.18930    1.000
    C143     C        0.68210    0.28150    0.16521    1.000
    H114     H        0.69840    0.26660    0.13870    1.000
    C144     C        0.63560    0.32410    0.24255    1.000
    H115     H        0.62090    0.33980    0.26910    1.000
    C145     C        0.66360    0.35850    0.21031    1.000
    H116     H        0.66640    0.39770    0.21550    1.000
    C146     C        0.49990    0.99540    0.41292    1.000
    H117     H        0.51440    0.01440    0.43820    1.000
    C147     C        0.50060    0.93630    0.41277    1.000
    H118     H        0.51510    0.91640    0.43770    1.000
    C148     C        0.45770    0.99760    0.34255    1.000
    H119     H        0.44180    0.01840    0.31840    1.000
    C149     C        0.45790    0.93890    0.34001    1.000
    H120     H        0.44350    0.92090    0.31430    1.000
    C150     C        0.47960    0.90680    0.37553    1.000
    Cu11     Cu       0.98583    0.61023    0.37855    1.000
    N31      N        0.03780    0.65542    0.33270    1.000
    N32      N        0.18710    0.83827    0.17158    1.000
    N33      N        0.97920    0.52642    0.37830    1.000
    C151     C        0.07660    0.70130    0.34353    1.000
    H121     H        0.08360    0.70900    0.37320    1.000
    C152     C        0.10640    0.73750    0.31369    1.000
    H122     H        0.13220    0.76910    0.32330    1.000
    C153     C        0.03090    0.64510    0.28978    1.000
    H123     H        0.00550    0.61280    0.28130    1.000
    C154     C        0.05900    0.67910    0.25754    1.000
    H124     H        0.05190    0.67000    0.22810    1.000
    C155     C        0.09840    0.72740    0.26906    1.000
    C156     C        0.12950    0.76510    0.23525    1.000
    C157     C        0.15420    0.74460    0.19545    1.000
    H125     H        0.15200    0.70570    0.18930    1.000
    C158     C        0.18210    0.78150    0.16521    1.000
    H126     H        0.19840    0.76660    0.13870    1.000
    C159     C        0.13560    0.82410    0.24255    1.000
    H127     H        0.12090    0.83980    0.26910    1.000
    C160     C        0.16360    0.85850    0.21031    1.000
    H128     H        0.16640    0.89770    0.21550    1.000
    C161     C        0.99990    0.49540    0.41292    1.000
    H129     H        0.01440    0.51440    0.43820    1.000
    C162     C        0.00060    0.43630    0.41277    1.000
    H130     H        0.01510    0.41640    0.43770    1.000
    C163     C        0.95770    0.49760    0.34255    1.000
    H131     H        0.94180    0.51840    0.31840    1.000
    C164     C        0.95790    0.43890    0.34001    1.000
    H132     H        0.94350    0.42090    0.31430    1.000
    C165     C        0.97960    0.40680    0.37553    1.000
    Cu12     Cu       0.98583    0.11023    0.87855    1.000
    N34      N        0.03780    0.15542    0.83270    1.000
    N35      N        0.18710    0.33827    0.67158    1.000
    N36      N        0.97920    0.02642    0.87830    1.000
    C166     C        0.07660    0.20130    0.84353    1.000
    H133     H        0.08360    0.20900    0.87320    1.000
    C167     C        0.10640    0.23750    0.81369    1.000
    H134     H        0.13220    0.26910    0.82330    1.000
    C168     C        0.03090    0.14510    0.78978    1.000
    H135     H        0.00550    0.11280    0.78130    1.000
    C169     C        0.05900    0.17910    0.75754    1.000
    H136     H        0.05190    0.17000    0.72810    1.000
    C170     C        0.09840    0.22740    0.76906    1.000
    C171     C        0.12950    0.26510    0.73525    1.000
    C172     C        0.15420    0.24460    0.69545    1.000
    H137     H        0.15200    0.20570    0.68930    1.000
    C173     C        0.18210    0.28150    0.66521    1.000
    H138     H        0.19840    0.26660    0.63870    1.000
    C174     C        0.13560    0.32410    0.74255    1.000
    H139     H        0.12090    0.33980    0.76910    1.000
    C175     C        0.16360    0.35850    0.71031    1.000
    H140     H        0.16640    0.39770    0.71550    1.000
    C176     C        0.99990    0.99540    0.91292    1.000
    H141     H        0.01440    0.01440    0.93820    1.000
    C177     C        0.00060    0.93630    0.91277    1.000
    H142     H        0.01510    0.91640    0.93770    1.000
    C178     C        0.95770    0.99760    0.84255    1.000
    H143     H        0.94180    0.01840    0.81840    1.000
    C179     C        0.95790    0.93890    0.84001    1.000
    H144     H        0.94350    0.92090    0.81430    1.000
    C180     C        0.97960    0.90680    0.87553    1.000
    Cu13     Cu       0.48583    0.63977    0.37145    1.000
    N37      N        0.53780    0.59458    0.41730    1.000
    N38      N        0.68710    0.41173    0.57842    1.000
    N39      N        0.47920    0.72358    0.37170    1.000
    C181     C        0.57660    0.54870    0.40647    1.000
    H145     H        0.58360    0.54100    0.37680    1.000
    C182     C        0.60640    0.51250    0.43631    1.000
    H146     H        0.63220    0.48090    0.42670    1.000
    C183     C        0.53090    0.60490    0.46022    1.000
    H147     H        0.50550    0.63720    0.46870    1.000
    C184     C        0.55900    0.57090    0.49246    1.000
    H148     H        0.55190    0.58000    0.52190    1.000
    C185     C        0.59840    0.52260    0.48094    1.000
    C186     C        0.62950    0.48490    0.51475    1.000
    C187     C        0.65420    0.50540    0.55455    1.000
    H149     H        0.65200    0.54430    0.56070    1.000
    C188     C        0.68210    0.46850    0.58479    1.000
    H150     H        0.69840    0.48340    0.61130    1.000
    C189     C        0.63560    0.42590    0.50745    1.000
    H151     H        0.62090    0.41020    0.48090    1.000
    C190     C        0.66360    0.39150    0.53969    1.000
    H152     H        0.66640    0.35230    0.53450    1.000
    C191     C        0.49990    0.75460    0.33708    1.000
    H153     H        0.51440    0.73560    0.31180    1.000
    C192     C        0.50060    0.81370    0.33723    1.000
    H154     H        0.51510    0.83360    0.31230    1.000
    C193     C        0.45770    0.75240    0.40745    1.000
    H155     H        0.44180    0.73160    0.43160    1.000
    C194     C        0.45790    0.81110    0.40999    1.000
    H156     H        0.44350    0.82910    0.43570    1.000
    C195     C        0.47960    0.84320    0.37447    1.000
    Cu14     Cu       0.48583    0.13977    0.87145    1.000
    N40      N        0.53780    0.09458    0.91730    1.000
    N41      N        0.68710    0.91173    0.07842    1.000
    N42      N        0.47920    0.22358    0.87170    1.000
    C196     C        0.57660    0.04870    0.90647    1.000
    H157     H        0.58360    0.04100    0.87680    1.000
    C197     C        0.60640    0.01250    0.93631    1.000
    H158     H        0.63220    0.98090    0.92670    1.000
    C198     C        0.53090    0.10490    0.96022    1.000
    H159     H        0.50550    0.13720    0.96870    1.000
    C199     C        0.55900    0.07090    0.99246    1.000
    H160     H        0.55190    0.08000    0.02190    1.000
    C200     C        0.59840    0.02260    0.98094    1.000
    C201     C        0.62950    0.98490    0.01475    1.000
    C202     C        0.65420    0.00540    0.05455    1.000
    H161     H        0.65200    0.04430    0.06070    1.000
    C203     C        0.68210    0.96850    0.08479    1.000
    H162     H        0.69840    0.98340    0.11130    1.000
    C204     C        0.63560    0.92590    0.00745    1.000
    H163     H        0.62090    0.91020    0.98090    1.000
    C205     C        0.66360    0.89150    0.03969    1.000
    H164     H        0.66640    0.85230    0.03450    1.000
    C206     C        0.49990    0.25460    0.83708    1.000
    H165     H        0.51440    0.23560    0.81180    1.000
    C207     C        0.50060    0.31370    0.83723    1.000
    H166     H        0.51510    0.33360    0.81230    1.000
    C208     C        0.45770    0.25240    0.90745    1.000
    H167     H        0.44180    0.23160    0.93160    1.000
    C209     C        0.45790    0.31110    0.90999    1.000
    H168     H        0.44350    0.32910    0.93570    1.000
    C210     C        0.47960    0.34320    0.87447    1.000
    Cu15     Cu       0.98583    0.63977    0.87145    1.000
    N43      N        0.03780    0.59458    0.91730    1.000
    N44      N        0.18710    0.41173    0.07842    1.000
    N45      N        0.97920    0.72358    0.87170    1.000
    C211     C        0.07660    0.54870    0.90647    1.000
    H169     H        0.08360    0.54100    0.87680    1.000
    C212     C        0.10640    0.51250    0.93631    1.000
    H170     H        0.13220    0.48090    0.92670    1.000
    C213     C        0.03090    0.60490    0.96022    1.000
    H171     H        0.00550    0.63720    0.96870    1.000
    C214     C        0.05900    0.57090    0.99246    1.000
    H172     H        0.05190    0.58000    0.02190    1.000
    C215     C        0.09840    0.52260    0.98094    1.000
    C216     C        0.12950    0.48490    0.01475    1.000
    C217     C        0.15420    0.50540    0.05455    1.000
    H173     H        0.15200    0.54430    0.06070    1.000
    C218     C        0.18210    0.46850    0.08479    1.000
    H174     H        0.19840    0.48340    0.11130    1.000
    C219     C        0.13560    0.42590    0.00745    1.000
    H175     H        0.12090    0.41020    0.98090    1.000
    C220     C        0.16360    0.39150    0.03969    1.000
    H176     H        0.16640    0.35230    0.03450    1.000
    C221     C        0.99990    0.75460    0.83708    1.000
    H177     H        0.01440    0.73560    0.81180    1.000
    C222     C        0.00060    0.81370    0.83723    1.000
    H178     H        0.01510    0.83360    0.81230    1.000
    C223     C        0.95770    0.75240    0.90745    1.000
    H179     H        0.94180    0.73160    0.93160    1.000
    C224     C        0.95790    0.81110    0.90999    1.000
    H180     H        0.94350    0.82910    0.93570    1.000
    C225     C        0.97960    0.84320    0.87447    1.000
    Cu16     Cu       0.98583    0.13977    0.37145    1.000
    N46      N        0.03780    0.09458    0.41730    1.000
    N47      N        0.18710    0.91173    0.57842    1.000
    N48      N        0.97920    0.22358    0.37170    1.000
    C226     C        0.07660    0.04870    0.40647    1.000
    H181     H        0.08360    0.04100    0.37680    1.000
    C227     C        0.10640    0.01250    0.43631    1.000
    H182     H        0.13220    0.98090    0.42670    1.000
    C228     C        0.03090    0.10490    0.46022    1.000
    H183     H        0.00550    0.13720    0.46870    1.000
    C229     C        0.05900    0.07090    0.49246    1.000
    H184     H        0.05190    0.08000    0.52190    1.000
    C230     C        0.09840    0.02260    0.48094    1.000
    C231     C        0.12950    0.98490    0.51475    1.000
    C232     C        0.15420    0.00540    0.55455    1.000
    H185     H        0.15200    0.04430    0.56070    1.000
    C233     C        0.18210    0.96850    0.58479    1.000
    H186     H        0.19840    0.98340    0.61130    1.000
    C234     C        0.13560    0.92590    0.50745    1.000
    H187     H        0.12090    0.91020    0.48090    1.000
    C235     C        0.16360    0.89150    0.53969    1.000
    H188     H        0.16640    0.85230    0.53450    1.000
    C236     C        0.99990    0.25460    0.33708    1.000
    H189     H        0.01440    0.23560    0.31180    1.000
    C237     C        0.00060    0.31370    0.33723    1.000
    H190     H        0.01510    0.33360    0.31230    1.000
    C238     C        0.95770    0.25240    0.40745    1.000
    H191     H        0.94180    0.23160    0.43160    1.000
    C239     C        0.95790    0.31110    0.40999    1.000
    H192     H        0.94350    0.32910    0.43570    1.000
    C240     C        0.97960    0.34320    0.37447    1.000
    Cu17     Cu       0.51417    0.38977    0.12145    1.000
    N49      N        0.46220    0.34458    0.16730    1.000
    N50      N        0.31290    0.16173    0.32842    1.000
    N51      N        0.52080    0.47358    0.12170    1.000
    C241     C        0.42340    0.29870    0.15647    1.000
    H193     H        0.41640    0.29100    0.12680    1.000
    C242     C        0.39360    0.26250    0.18631    1.000
    H194     H        0.36780    0.23090    0.17670    1.000
    C243     C        0.46910    0.35490    0.21022    1.000
    H195     H        0.49450    0.38720    0.21870    1.000
    C244     C        0.44100    0.32090    0.24246    1.000
    H196     H        0.44810    0.33000    0.27190    1.000
    C245     C        0.40160    0.27260    0.23094    1.000
    C246     C        0.37050    0.23490    0.26475    1.000
    C247     C        0.34580    0.25540    0.30455    1.000
    H197     H        0.34800    0.29430    0.31070    1.000
    C248     C        0.31790    0.21850    0.33479    1.000
    H198     H        0.30160    0.23340    0.36130    1.000
    C249     C        0.36440    0.17590    0.25745    1.000
    H199     H        0.37910    0.16020    0.23090    1.000
    C250     C        0.33640    0.14150    0.28969    1.000
    H200     H        0.33360    0.10230    0.28450    1.000
    C251     C        0.50010    0.50460    0.08708    1.000
    H201     H        0.48560    0.48560    0.06180    1.000
    C252     C        0.49940    0.56370    0.08723    1.000
    H202     H        0.48490    0.58360    0.06230    1.000
    C253     C        0.54230    0.50240    0.15745    1.000
    H203     H        0.55820    0.48160    0.18160    1.000
    C254     C        0.54210    0.56110    0.15999    1.000
    H204     H        0.55650    0.57910    0.18570    1.000
    C255     C        0.52040    0.59320    0.12447    1.000
    Cu18     Cu       0.51417    0.88977    0.62145    1.000
    N52      N        0.46220    0.84458    0.66730    1.000
    N53      N        0.31290    0.66173    0.82842    1.000
    N54      N        0.52080    0.97358    0.62170    1.000
    C256     C        0.42340    0.79870    0.65647    1.000
    H205     H        0.41640    0.79100    0.62680    1.000
    C257     C        0.39360    0.76250    0.68631    1.000
    H206     H        0.36780    0.73090    0.67670    1.000
    C258     C        0.46910    0.85490    0.71022    1.000
    H207     H        0.49450    0.88720    0.71870    1.000
    C259     C        0.44100    0.82090    0.74246    1.000
    H208     H        0.44810    0.83000    0.77190    1.000
    C260     C        0.40160    0.77260    0.73094    1.000
    C261     C        0.37050    0.73490    0.76475    1.000
    C262     C        0.34580    0.75540    0.80455    1.000
    H209     H        0.34800    0.79430    0.81070    1.000
    C263     C        0.31790    0.71850    0.83479    1.000
    H210     H        0.30160    0.73340    0.86130    1.000
    C264     C        0.36440    0.67590    0.75745    1.000
    H211     H        0.37910    0.66020    0.73090    1.000
    C265     C        0.33640    0.64150    0.78969    1.000
    H212     H        0.33360    0.60230    0.78450    1.000
    C266     C        0.50010    0.00460    0.58708    1.000
    H213     H        0.48560    0.98560    0.56180    1.000
    C267     C        0.49940    0.06370    0.58723    1.000
    H214     H        0.48490    0.08360    0.56230    1.000
    C268     C        0.54230    0.00240    0.65745    1.000
    H215     H        0.55820    0.98160    0.68160    1.000
    C269     C        0.54210    0.06110    0.65999    1.000
    H216     H        0.55650    0.07910    0.68570    1.000
    C270     C        0.52040    0.09320    0.62447    1.000
    Cu19     Cu       0.01417    0.38977    0.62145    1.000
    N55      N        0.96220    0.34458    0.66730    1.000
    N56      N        0.81290    0.16173    0.82842    1.000
    N57      N        0.02080    0.47358    0.62170    1.000
    C271     C        0.92340    0.29870    0.65647    1.000
    H217     H        0.91640    0.29100    0.62680    1.000
    C272     C        0.89360    0.26250    0.68631    1.000
    H218     H        0.86780    0.23090    0.67670    1.000
    C273     C        0.96910    0.35490    0.71022    1.000
    H219     H        0.99450    0.38720    0.71870    1.000
    C274     C        0.94100    0.32090    0.74246    1.000
    H220     H        0.94810    0.33000    0.77190    1.000
    C275     C        0.90160    0.27260    0.73094    1.000
    C276     C        0.87050    0.23490    0.76475    1.000
    C277     C        0.84580    0.25540    0.80455    1.000
    H221     H        0.84800    0.29430    0.81070    1.000
    C278     C        0.81790    0.21850    0.83479    1.000
    H222     H        0.80160    0.23340    0.86130    1.000
    C279     C        0.86440    0.17590    0.75745    1.000
    H223     H        0.87910    0.16020    0.73090    1.000
    C280     C        0.83640    0.14150    0.78969    1.000
    H224     H        0.83360    0.10230    0.78450    1.000
    C281     C        0.00010    0.50460    0.58708    1.000
    H225     H        0.98560    0.48560    0.56180    1.000
    C282     C        0.99940    0.56370    0.58723    1.000
    H226     H        0.98490    0.58360    0.56230    1.000
    C283     C        0.04230    0.50240    0.65745    1.000
    H227     H        0.05820    0.48160    0.68160    1.000
    C284     C        0.04210    0.56110    0.65999    1.000
    H228     H        0.05650    0.57910    0.68570    1.000
    C285     C        0.02040    0.59320    0.62447    1.000
    Cu20     Cu       0.01417    0.88977    0.12145    1.000
    N58      N        0.96220    0.84458    0.16730    1.000
    N59      N        0.81290    0.66173    0.32842    1.000
    N60      N        0.02080    0.97358    0.12170    1.000
    C286     C        0.92340    0.79870    0.15647    1.000
    H229     H        0.91640    0.79100    0.12680    1.000
    C287     C        0.89360    0.76250    0.18631    1.000
    H230     H        0.86780    0.73090    0.17670    1.000
    C288     C        0.96910    0.85490    0.21022    1.000
    H231     H        0.99450    0.88720    0.21870    1.000
    C289     C        0.94100    0.82090    0.24246    1.000
    H232     H        0.94810    0.83000    0.27190    1.000
    C290     C        0.90160    0.77260    0.23094    1.000
    C291     C        0.87050    0.73490    0.26475    1.000
    C292     C        0.84580    0.75540    0.30455    1.000
    H233     H        0.84800    0.79430    0.31070    1.000
    C293     C        0.81790    0.71850    0.33479    1.000
    H234     H        0.80160    0.73340    0.36130    1.000
    C294     C        0.86440    0.67590    0.25745    1.000
    H235     H        0.87910    0.66020    0.23090    1.000
    C295     C        0.83640    0.64150    0.28969    1.000
    H236     H        0.83360    0.60230    0.28450    1.000
    C296     C        0.00010    0.00460    0.08708    1.000
    H237     H        0.98560    0.98560    0.06180    1.000
    C297     C        0.99940    0.06370    0.08723    1.000
    H238     H        0.98490    0.08360    0.06230    1.000
    C298     C        0.04230    0.00240    0.15745    1.000
    H239     H        0.05820    0.98160    0.18160    1.000
    C299     C        0.04210    0.06110    0.15999    1.000
    H240     H        0.05650    0.07910    0.18570    1.000
    C300     C        0.02040    0.09320    0.12447    1.000
    Cu21     Cu       0.51417    0.36023    0.62855    1.000
    N61      N        0.46220    0.40542    0.58270    1.000
    N62      N        0.31290    0.58827    0.42158    1.000
    N63      N        0.52080    0.27642    0.62830    1.000
    C301     C        0.42340    0.45130    0.59353    1.000
    H241     H        0.41640    0.45900    0.62320    1.000
    C302     C        0.39360    0.48750    0.56369    1.000
    H242     H        0.36780    0.51910    0.57330    1.000
    C303     C        0.46910    0.39510    0.53978    1.000
    H243     H        0.49450    0.36280    0.53130    1.000
    C304     C        0.44100    0.42910    0.50754    1.000
    H244     H        0.44810    0.42000    0.47810    1.000
    C305     C        0.40160    0.47740    0.51906    1.000
    C306     C        0.37050    0.51510    0.48525    1.000
    C307     C        0.34580    0.49460    0.44545    1.000
    H245     H        0.34800    0.45570    0.43930    1.000
    C308     C        0.31790    0.53150    0.41521    1.000
    H246     H        0.30160    0.51660    0.38870    1.000
    C309     C        0.36440    0.57410    0.49255    1.000
    H247     H        0.37910    0.58980    0.51910    1.000
    C310     C        0.33640    0.60850    0.46031    1.000
    H248     H        0.33360    0.64770    0.46550    1.000
    C311     C        0.50010    0.24540    0.66292    1.000
    H249     H        0.48560    0.26440    0.68820    1.000
    C312     C        0.49940    0.18630    0.66277    1.000
    H250     H        0.48490    0.16640    0.68770    1.000
    C313     C        0.54230    0.24760    0.59255    1.000
    H251     H        0.55820    0.26840    0.56840    1.000
    C314     C        0.54210    0.18890    0.59001    1.000
    H252     H        0.55650    0.17090    0.56430    1.000
    C315     C        0.52040    0.15680    0.62553    1.000
    Cu22     Cu       0.51417    0.86023    0.12855    1.000
    N64      N        0.46220    0.90542    0.08270    1.000
    N65      N        0.31290    0.08827    0.92158    1.000
    N66      N        0.52080    0.77642    0.12830    1.000
    C316     C        0.42340    0.95130    0.09353    1.000
    H253     H        0.41640    0.95900    0.12320    1.000
    C317     C        0.39360    0.98750    0.06369    1.000
    H254     H        0.36780    0.01910    0.07330    1.000
    C318     C        0.46910    0.89510    0.03978    1.000
    H255     H        0.49450    0.86280    0.03130    1.000
    C319     C        0.44100    0.92910    0.00754    1.000
    H256     H        0.44810    0.92000    0.97810    1.000
    C320     C        0.40160    0.97740    0.01906    1.000
    C321     C        0.37050    0.01510    0.98525    1.000
    C322     C        0.34580    0.99460    0.94545    1.000
    H257     H        0.34800    0.95570    0.93930    1.000
    C323     C        0.31790    0.03150    0.91521    1.000
    H258     H        0.30160    0.01660    0.88870    1.000
    C324     C        0.36440    0.07410    0.99255    1.000
    H259     H        0.37910    0.08980    0.01910    1.000
    C325     C        0.33640    0.10850    0.96031    1.000
    H260     H        0.33360    0.14770    0.96550    1.000
    C326     C        0.50010    0.74540    0.16292    1.000
    H261     H        0.48560    0.76440    0.18820    1.000
    C327     C        0.49940    0.68630    0.16277    1.000
    H262     H        0.48490    0.66640    0.18770    1.000
    C328     C        0.54230    0.74760    0.09255    1.000
    H263     H        0.55820    0.76840    0.06840    1.000
    C329     C        0.54210    0.68890    0.09001    1.000
    H264     H        0.55650    0.67090    0.06430    1.000
    C330     C        0.52040    0.65680    0.12553    1.000
    Cu23     Cu       0.01417    0.36023    0.12855    1.000
    N67      N        0.96220    0.40542    0.08270    1.000
    N68      N        0.81290    0.58827    0.92158    1.000
    N69      N        0.02080    0.27642    0.12830    1.000
    C331     C        0.92340    0.45130    0.09353    1.000
    H265     H        0.91640    0.45900    0.12320    1.000
    C332     C        0.89360    0.48750    0.06369    1.000
    H266     H        0.86780    0.51910    0.07330    1.000
    C333     C        0.96910    0.39510    0.03978    1.000
    H267     H        0.99450    0.36280    0.03130    1.000
    C334     C        0.94100    0.42910    0.00754    1.000
    H268     H        0.94810    0.42000    0.97810    1.000
    C335     C        0.90160    0.47740    0.01906    1.000
    C336     C        0.87050    0.51510    0.98525    1.000
    C337     C        0.84580    0.49460    0.94545    1.000
    H269     H        0.84800    0.45570    0.93930    1.000
    C338     C        0.81790    0.53150    0.91521    1.000
    H270     H        0.80160    0.51660    0.88870    1.000
    C339     C        0.86440    0.57410    0.99255    1.000
    H271     H        0.87910    0.58980    0.01910    1.000
    C340     C        0.83640    0.60850    0.96031    1.000
    H272     H        0.83360    0.64770    0.96550    1.000
    C341     C        0.00010    0.24540    0.16292    1.000
    H273     H        0.98560    0.26440    0.18820    1.000
    C342     C        0.99940    0.18630    0.16277    1.000
    H274     H        0.98490    0.16640    0.18770    1.000
    C343     C        0.04230    0.24760    0.09255    1.000
    H275     H        0.05820    0.26840    0.06840    1.000
    C344     C        0.04210    0.18890    0.09001    1.000
    H276     H        0.05650    0.17090    0.06430    1.000
    C345     C        0.02040    0.15680    0.12553    1.000
    Cu24     Cu       0.01417    0.86023    0.62855    1.000
    N70      N        0.96220    0.90542    0.58270    1.000
    N71      N        0.81290    0.08827    0.42158    1.000
    N72      N        0.02080    0.77642    0.62830    1.000
    C346     C        0.92340    0.95130    0.59353    1.000
    H277     H        0.91640    0.95900    0.62320    1.000
    C347     C        0.89360    0.98750    0.56369    1.000
    H278     H        0.86780    0.01910    0.57330    1.000
    C348     C        0.96910    0.89510    0.53978    1.000
    H279     H        0.99450    0.86280    0.53130    1.000
    C349     C        0.94100    0.92910    0.50754    1.000
    H280     H        0.94810    0.92000    0.47810    1.000
    C350     C        0.90160    0.97740    0.51906    1.000
    C351     C        0.87050    0.01510    0.48525    1.000
    C352     C        0.84580    0.99460    0.44545    1.000
    H281     H        0.84800    0.95570    0.43930    1.000
    C353     C        0.81790    0.03150    0.41521    1.000
    H282     H        0.80160    0.01660    0.38870    1.000
    C354     C        0.86440    0.07410    0.49255    1.000
    H283     H        0.87910    0.08980    0.51910    1.000
    C355     C        0.83640    0.10850    0.46031    1.000
    H284     H        0.83360    0.14770    0.46550    1.000
    C356     C        0.00010    0.74540    0.66292    1.000
    H285     H        0.98560    0.76440    0.68820    1.000
    C357     C        0.99940    0.68630    0.66277    1.000
    H286     H        0.98490    0.66640    0.68770    1.000
    C358     C        0.04230    0.74760    0.59255    1.000
    H287     H        0.05820    0.76840    0.56840    1.000
    C359     C        0.04210    0.68890    0.59001    1.000
    H288     H        0.05650    0.67090    0.56430    1.000
    C360     C        0.02040    0.65680    0.62553    1.000
    Cu25     Cu       0.76417    0.63977    0.87855    1.000
    N73      N        0.71220    0.59458    0.83270    1.000
    N74      N        0.56290    0.41173    0.67158    1.000
    N75      N        0.77080    0.72358    0.87830    1.000
    C361     C        0.67340    0.54870    0.84353    1.000
    H289     H        0.66640    0.54100    0.87320    1.000
    C362     C        0.64360    0.51250    0.81369    1.000
    H290     H        0.61780    0.48090    0.82330    1.000
    C363     C        0.71910    0.60490    0.78978    1.000
    H291     H        0.74450    0.63720    0.78130    1.000
    C364     C        0.69100    0.57090    0.75754    1.000
    H292     H        0.69810    0.58000    0.72810    1.000
    C365     C        0.65160    0.52260    0.76906    1.000
    C366     C        0.62050    0.48490    0.73525    1.000
    C367     C        0.59580    0.50540    0.69545    1.000
    H293     H        0.59800    0.54430    0.68930    1.000
    C368     C        0.56790    0.46850    0.66521    1.000
    H294     H        0.55160    0.48340    0.63870    1.000
    C369     C        0.61440    0.42590    0.74255    1.000
    H295     H        0.62910    0.41020    0.76910    1.000
    C370     C        0.58640    0.39150    0.71031    1.000
    H296     H        0.58360    0.35230    0.71550    1.000
    C371     C        0.75010    0.75460    0.91292    1.000
    H297     H        0.73560    0.73560    0.93820    1.000
    C372     C        0.74940    0.81370    0.91277    1.000
    H298     H        0.73490    0.83360    0.93770    1.000
    C373     C        0.79230    0.75240    0.84255    1.000
    H299     H        0.80820    0.73160    0.81840    1.000
    C374     C        0.79210    0.81110    0.84001    1.000
    H300     H        0.80650    0.82910    0.81430    1.000
    C375     C        0.77040    0.84320    0.87553    1.000
    Cu26     Cu       0.76417    0.13977    0.37855    1.000
    N76      N        0.71220    0.09458    0.33270    1.000
    N77      N        0.56290    0.91173    0.17158    1.000
    N78      N        0.77080    0.22358    0.37830    1.000
    C376     C        0.67340    0.04870    0.34353    1.000
    H301     H        0.66640    0.04100    0.37320    1.000
    C377     C        0.64360    0.01250    0.31369    1.000
    H302     H        0.61780    0.98090    0.32330    1.000
    C378     C        0.71910    0.10490    0.28978    1.000
    H303     H        0.74450    0.13720    0.28130    1.000
    C379     C        0.69100    0.07090    0.25754    1.000
    H304     H        0.69810    0.08000    0.22810    1.000
    C380     C        0.65160    0.02260    0.26906    1.000
    C381     C        0.62050    0.98490    0.23525    1.000
    C382     C        0.59580    0.00540    0.19545    1.000
    H305     H        0.59800    0.04430    0.18930    1.000
    C383     C        0.56790    0.96850    0.16521    1.000
    H306     H        0.55160    0.98340    0.13870    1.000
    C384     C        0.61440    0.92590    0.24255    1.000
    H307     H        0.62910    0.91020    0.26910    1.000
    C385     C        0.58640    0.89150    0.21031    1.000
    H308     H        0.58360    0.85230    0.21550    1.000
    C386     C        0.75010    0.25460    0.41292    1.000
    H309     H        0.73560    0.23560    0.43820    1.000
    C387     C        0.74940    0.31370    0.41277    1.000
    H310     H        0.73490    0.33360    0.43770    1.000
    C388     C        0.79230    0.25240    0.34255    1.000
    H311     H        0.80820    0.23160    0.31840    1.000
    C389     C        0.79210    0.31110    0.34001    1.000
    H312     H        0.80650    0.32910    0.31430    1.000
    C390     C        0.77040    0.34320    0.37553    1.000
    Cu27     Cu       0.26417    0.63977    0.37855    1.000
    N79      N        0.21220    0.59458    0.33270    1.000
    N80      N        0.06290    0.41173    0.17158    1.000
    N81      N        0.27080    0.72358    0.37830    1.000
    C391     C        0.17340    0.54870    0.34353    1.000
    H313     H        0.16640    0.54100    0.37320    1.000
    C392     C        0.14360    0.51250    0.31369    1.000
    H314     H        0.11780    0.48090    0.32330    1.000
    C393     C        0.21910    0.60490    0.28978    1.000
    H315     H        0.24450    0.63720    0.28130    1.000
    C394     C        0.19100    0.57090    0.25754    1.000
    H316     H        0.19810    0.58000    0.22810    1.000
    C395     C        0.15160    0.52260    0.26906    1.000
    C396     C        0.12050    0.48490    0.23525    1.000
    C397     C        0.09580    0.50540    0.19545    1.000
    H317     H        0.09800    0.54430    0.18930    1.000
    C398     C        0.06790    0.46850    0.16521    1.000
    H318     H        0.05160    0.48340    0.13870    1.000
    C399     C        0.11440    0.42590    0.24255    1.000
    H319     H        0.12910    0.41020    0.26910    1.000
    C400     C        0.08640    0.39150    0.21031    1.000
    H320     H        0.08360    0.35230    0.21550    1.000
    C401     C        0.25010    0.75460    0.41292    1.000
    H321     H        0.23560    0.73560    0.43820    1.000
    C402     C        0.24940    0.81370    0.41277    1.000
    H322     H        0.23490    0.83360    0.43770    1.000
    C403     C        0.29230    0.75240    0.34255    1.000
    H323     H        0.30820    0.73160    0.31840    1.000
    C404     C        0.29210    0.81110    0.34001    1.000
    H324     H        0.30650    0.82910    0.31430    1.000
    C405     C        0.27040    0.84320    0.37553    1.000
    Cu28     Cu       0.26417    0.13977    0.87855    1.000
    N82      N        0.21220    0.09458    0.83270    1.000
    N83      N        0.06290    0.91173    0.67158    1.000
    N84      N        0.27080    0.22358    0.87830    1.000
    C406     C        0.17340    0.04870    0.84353    1.000
    H325     H        0.16640    0.04100    0.87320    1.000
    C407     C        0.14360    0.01250    0.81369    1.000
    H326     H        0.11780    0.98090    0.82330    1.000
    C408     C        0.21910    0.10490    0.78978    1.000
    H327     H        0.24450    0.13720    0.78130    1.000
    C409     C        0.19100    0.07090    0.75754    1.000
    H328     H        0.19810    0.08000    0.72810    1.000
    C410     C        0.15160    0.02260    0.76906    1.000
    C411     C        0.12050    0.98490    0.73525    1.000
    C412     C        0.09580    0.00540    0.69545    1.000
    H329     H        0.09800    0.04430    0.68930    1.000
    C413     C        0.06790    0.96850    0.66521    1.000
    H330     H        0.05160    0.98340    0.63870    1.000
    C414     C        0.11440    0.92590    0.74255    1.000
    H331     H        0.12910    0.91020    0.76910    1.000
    C415     C        0.08640    0.89150    0.71031    1.000
    H332     H        0.08360    0.85230    0.71550    1.000
    C416     C        0.25010    0.25460    0.91292    1.000
    H333     H        0.23560    0.23560    0.93820    1.000
    C417     C        0.24940    0.31370    0.91277    1.000
    H334     H        0.23490    0.33360    0.93770    1.000
    C418     C        0.29230    0.25240    0.84255    1.000
    H335     H        0.30820    0.23160    0.81840    1.000
    C419     C        0.29210    0.31110    0.84001    1.000
    H336     H        0.30650    0.32910    0.81430    1.000
    C420     C        0.27040    0.34320    0.87553    1.000
    Cu29     Cu       0.76417    0.61023    0.37145    1.000
    N85      N        0.71220    0.65542    0.41730    1.000
    N86      N        0.56290    0.83827    0.57842    1.000
    N87      N        0.77080    0.52642    0.37170    1.000
    C421     C        0.67340    0.70130    0.40647    1.000
    H337     H        0.66640    0.70900    0.37680    1.000
    C422     C        0.64360    0.73750    0.43631    1.000
    H338     H        0.61780    0.76910    0.42670    1.000
    C423     C        0.71910    0.64510    0.46022    1.000
    H339     H        0.74450    0.61280    0.46870    1.000
    C424     C        0.69100    0.67910    0.49246    1.000
    H340     H        0.69810    0.67000    0.52190    1.000
    C425     C        0.65160    0.72740    0.48094    1.000
    C426     C        0.62050    0.76510    0.51475    1.000
    C427     C        0.59580    0.74460    0.55455    1.000
    H341     H        0.59800    0.70570    0.56070    1.000
    C428     C        0.56790    0.78150    0.58479    1.000
    H342     H        0.55160    0.76660    0.61130    1.000
    C429     C        0.61440    0.82410    0.50745    1.000
    H343     H        0.62910    0.83980    0.48090    1.000
    C430     C        0.58640    0.85850    0.53969    1.000
    H344     H        0.58360    0.89770    0.53450    1.000
    C431     C        0.75010    0.49540    0.33708    1.000
    H345     H        0.73560    0.51440    0.31180    1.000
    C432     C        0.74940    0.43630    0.33723    1.000
    H346     H        0.73490    0.41640    0.31230    1.000
    C433     C        0.79230    0.49760    0.40745    1.000
    H347     H        0.80820    0.51840    0.43160    1.000
    C434     C        0.79210    0.43890    0.40999    1.000
    H348     H        0.80650    0.42090    0.43570    1.000
    C435     C        0.77040    0.40680    0.37447    1.000
    Cu30     Cu       0.76417    0.11023    0.87145    1.000
    N88      N        0.71220    0.15542    0.91730    1.000
    N89      N        0.56290    0.33827    0.07842    1.000
    N90      N        0.77080    0.02642    0.87170    1.000
    C436     C        0.67340    0.20130    0.90647    1.000
    H349     H        0.66640    0.20900    0.87680    1.000
    C437     C        0.64360    0.23750    0.93631    1.000
    H350     H        0.61780    0.26910    0.92670    1.000
    C438     C        0.71910    0.14510    0.96022    1.000
    H351     H        0.74450    0.11280    0.96870    1.000
    C439     C        0.69100    0.17910    0.99246    1.000
    H352     H        0.69810    0.17000    0.02190    1.000
    C440     C        0.65160    0.22740    0.98094    1.000
    C441     C        0.62050    0.26510    0.01475    1.000
    C442     C        0.59580    0.24460    0.05455    1.000
    H353     H        0.59800    0.20570    0.06070    1.000
    C443     C        0.56790    0.28150    0.08479    1.000
    H354     H        0.55160    0.26660    0.11130    1.000
    C444     C        0.61440    0.32410    0.00745    1.000
    H355     H        0.62910    0.33980    0.98090    1.000
    C445     C        0.58640    0.35850    0.03969    1.000
    H356     H        0.58360    0.39770    0.03450    1.000
    C446     C        0.75010    0.99540    0.83708    1.000
    H357     H        0.73560    0.01440    0.81180    1.000
    C447     C        0.74940    0.93630    0.83723    1.000
    H358     H        0.73490    0.91640    0.81230    1.000
    C448     C        0.79230    0.99760    0.90745    1.000
    H359     H        0.80820    0.01840    0.93160    1.000
    C449     C        0.79210    0.93890    0.90999    1.000
    H360     H        0.80650    0.92090    0.93570    1.000
    C450     C        0.77040    0.90680    0.87447    1.000
    Cu31     Cu       0.26417    0.61023    0.87145    1.000
    N91      N        0.21220    0.65542    0.91730    1.000
    N92      N        0.06290    0.83827    0.07842    1.000
    N93      N        0.27080    0.52642    0.87170    1.000
    C451     C        0.17340    0.70130    0.90647    1.000
    H361     H        0.16640    0.70900    0.87680    1.000
    C452     C        0.14360    0.73750    0.93631    1.000
    H362     H        0.11780    0.76910    0.92670    1.000
    C453     C        0.21910    0.64510    0.96022    1.000
    H363     H        0.24450    0.61280    0.96870    1.000
    C454     C        0.19100    0.67910    0.99246    1.000
    H364     H        0.19810    0.67000    0.02190    1.000
    C455     C        0.15160    0.72740    0.98094    1.000
    C456     C        0.12050    0.76510    0.01475    1.000
    C457     C        0.09580    0.74460    0.05455    1.000
    H365     H        0.09800    0.70570    0.06070    1.000
    C458     C        0.06790    0.78150    0.08479    1.000
    H366     H        0.05160    0.76660    0.11130    1.000
    C459     C        0.11440    0.82410    0.00745    1.000
    H367     H        0.12910    0.83980    0.98090    1.000
    C460     C        0.08640    0.85850    0.03969    1.000
    H368     H        0.08360    0.89770    0.03450    1.000
    C461     C        0.25010    0.49540    0.83708    1.000
    H369     H        0.23560    0.51440    0.81180    1.000
    C462     C        0.24940    0.43630    0.83723    1.000
    H370     H        0.23490    0.41640    0.81230    1.000
    C463     C        0.29230    0.49760    0.90745    1.000
    H371     H        0.30820    0.51840    0.93160    1.000
    C464     C        0.29210    0.43890    0.90999    1.000
    H372     H        0.30650    0.42090    0.93570    1.000
    C465     C        0.27040    0.40680    0.87447    1.000
    Cu32     Cu       0.26417    0.11023    0.37145    1.000
    N94      N        0.21220    0.15542    0.41730    1.000
    N95      N        0.06290    0.33827    0.57842    1.000
    N96      N        0.27080    0.02642    0.37170    1.000
    C466     C        0.17340    0.20130    0.40647    1.000
    H373     H        0.16640    0.20900    0.37680    1.000
    C467     C        0.14360    0.23750    0.43631    1.000
    H374     H        0.11780    0.26910    0.42670    1.000
    C468     C        0.21910    0.14510    0.46022    1.000
    H375     H        0.24450    0.11280    0.46870    1.000
    C469     C        0.19100    0.17910    0.49246    1.000
    H376     H        0.19810    0.17000    0.52190    1.000
    C470     C        0.15160    0.22740    0.48094    1.000
    C471     C        0.12050    0.26510    0.51475    1.000
    C472     C        0.09580    0.24460    0.55455    1.000
    H377     H        0.09800    0.20570    0.56070    1.000
    C473     C        0.06790    0.28150    0.58479    1.000
    H378     H        0.05160    0.26660    0.61130    1.000
    C474     C        0.11440    0.32410    0.50745    1.000
    H379     H        0.12910    0.33980    0.48090    1.000
    C475     C        0.08640    0.35850    0.53969    1.000
    H380     H        0.08360    0.39770    0.53450    1.000
    C476     C        0.25010    0.99540    0.33708    1.000
    H381     H        0.23560    0.01440    0.31180    1.000
    C477     C        0.24940    0.93630    0.33723    1.000
    H382     H        0.23490    0.91640    0.31230    1.000
    C478     C        0.29230    0.99760    0.40745    1.000
    H383     H        0.30820    0.01840    0.43160    1.000
    C479     C        0.29210    0.93890    0.40999    1.000
    H384     H        0.30650    0.92090    0.43570    1.000
    C480     C        0.27040    0.90680    0.37447    1.000
