data_functionalizedCrystal
_audit_creation_method	'EQeq! by Chris Wilmer'
_symmetry_space_group_name_H-M	'P1'
_symmetry_Int_Tables_number	1
_symmetry_cell_setting	triclinic
loop_
_symmetry_equiv_pos_as_xyz
  x,y,z
_cell_length_a	13.6093
_cell_length_b	13.6093
_cell_length_c	8.1609
_cell_angle_alpha	90
_cell_angle_beta	90
_cell_angle_gamma	120
loop_
_atom_site_label
_atom_site_type_symbol
_atom_site_fract_x
_atom_site_fract_y
_atom_site_fract_z
_atom_site_charge
Mof_Mn	Mn	0.29578	0.33471	0.5434	0.785
Mof_O 	O 	0.2279	0.1806	0.4048	-0.339
Mof_C 	C 	0.5297	0.3207	0.5552	-0.269
Mof_C 	C 	0.3544	0.5558	0.7763	-0.251
Mof_O 	O 	0.2447	0.0585	0.2467	-0.339
Mof_C 	C 	0.2666	0.1587	0.28	0.341
Mof_N 	N 	0.3459	0.2101	0.0036	-0.246
Mof_H 	H 	0.4104	0.2577	0.9503	0.079
Mof_H 	H 	0.2866	0.2016	0.9437	0.12
Mof_C 	C 	0.3447	0.2554	0.1658	-0.107
Mof_H 	H 	0.4216	0.2872	0.2101	0.048
Mof_N 	N 	0.3636	0.4259	0.3066	-0.294
Mof_H 	H 	0.347	0.482	0.299	0.098
Mof_H 	H 	0.4397	0.4581	0.3071	0.105
Mof_C 	C 	0.3186	0.3528	0.1612	-0.017
Mof_H 	H 	0.3518	0.3979	0.0633	0.031
Mof_H 	H 	0.2371	0.3216	0.1558	0.042
Mof_N 	N 	0.4487	0.3189	0.6037	-0.115
Mof_N 	N 	0.3665	0.4957	0.6916	-0.122
Mof_Mn	Mn	0.66529	0.96107	0.5434	0.785
Mof_O 	O 	0.8194	0.0473	0.4048	-0.34
Mof_C 	C 	0.6793	0.209	0.5552	-0.269
Mof_C 	C 	0.4442	0.7986	0.7763	-0.252
Mof_O 	O 	0.9415	0.1862	0.2467	-0.34
Mof_C 	C 	0.8413	0.1079	0.28	0.341
Mof_N 	N 	0.7899	0.1358	0.0036	-0.248
Mof_H 	H 	0.7423	0.1527	0.9503	0.081
Mof_H 	H 	0.7984	0.085	0.9437	0.121
Mof_C 	C 	0.7446	0.0893	0.1658	-0.108
Mof_H 	H 	0.7128	0.1344	0.2101	0.048
Mof_N 	N 	0.5741	0.9377	0.3066	-0.294
Mof_H 	H 	0.518	0.865	0.299	0.098
Mof_H 	H 	0.5419	0.9816	0.3071	0.105
Mof_C 	C 	0.6472	0.9658	0.1612	-0.015
Mof_H 	H 	0.6021	0.9539	0.0633	0.031
Mof_H 	H 	0.6784	0.9155	0.1558	0.042
Mof_N 	N 	0.6811	0.1298	0.6037	-0.115
Mof_N 	N 	0.5043	0.8708	0.6916	-0.122
Mof_Mn	Mn	0.03893	0.70422	0.5434	0.785
Mof_O 	O 	0.9527	0.7721	0.4048	-0.34
Mof_C 	C 	0.791	0.4703	0.5552	-0.269
Mof_C 	C 	0.2014	0.6456	0.7763	-0.252
Mof_O 	O 	0.8138	0.7553	0.2467	-0.339
Mof_C 	C 	0.8921	0.7334	0.28	0.341
Mof_N 	N 	0.8642	0.6541	0.0036	-0.246
Mof_H 	H 	0.8473	0.5896	0.9503	0.079
Mof_H 	H 	0.915	0.7134	0.9437	0.12
Mof_C 	C 	0.9107	0.6553	0.1658	-0.108
Mof_H 	H 	0.8656	0.5784	0.2101	0.048
Mof_N 	N 	0.0623	0.6364	0.3066	-0.294
Mof_H 	H 	0.135	0.653	0.299	0.098
Mof_H 	H 	0.0184	0.5603	0.3071	0.105
Mof_C 	C 	0.0342	0.6814	0.1612	-0.016
Mof_H 	H 	0.0461	0.6482	0.0633	0.032
Mof_H 	H 	0.0845	0.7629	0.1558	0.042
Mof_N 	N 	0.8702	0.5513	0.6037	-0.115
Mof_N 	N 	0.1292	0.6335	0.6916	-0.122
Mof_Mn	Mn	0.70422	0.66529	0.0434	0.81
Mof_O 	O 	0.7721	0.8194	0.9048	-0.352
Mof_C 	C 	0.4703	0.6793	0.0552	-0.239
Mof_C 	C 	0.6456	0.4442	0.2763	-0.256
Mof_O 	O 	0.7553	0.9415	0.7467	-0.342
Mof_C 	C 	0.7334	0.8413	0.78	0.339
Mof_N 	N 	0.6541	0.7899	0.5036	-0.277
Mof_H 	H 	0.5896	0.7423	0.4503	0.1
Mof_H 	H 	0.7134	0.7984	0.4437	0.14
Mof_C 	C 	0.6553	0.7446	0.6658	-0.108
Mof_H 	H 	0.5784	0.7128	0.7101	0.044
Mof_N 	N 	0.6364	0.5741	0.8066	-0.297
Mof_H 	H 	0.653	0.518	0.799	0.095
Mof_H 	H 	0.5603	0.5419	0.8071	0.101
Mof_C 	C 	0.6814	0.6472	0.6612	-0.016
Mof_H 	H 	0.6482	0.6021	0.5633	0.024
Mof_H 	H 	0.7629	0.6784	0.6558	0.038
Mof_N 	N 	0.5513	0.6811	0.1037	-0.12
Mof_N 	N 	0.6335	0.5043	0.1916	-0.117
Mof_Mn	Mn	0.33471	0.03893	0.0434	0.808
Mof_O 	O 	0.1806	0.9527	0.9048	-0.353
Mof_C 	C 	0.3207	0.791	0.0552	-0.238
Mof_C 	C 	0.5558	0.2014	0.2763	-0.256
Mof_O 	O 	0.0585	0.8138	0.7467	-0.342
Mof_C 	C 	0.1587	0.8921	0.78	0.34
Mof_N 	N 	0.2101	0.8642	0.5036	-0.276
Mof_H 	H 	0.2577	0.8473	0.4503	0.101
Mof_H 	H 	0.2016	0.915	0.4437	0.14
Mof_C 	C 	0.2554	0.9107	0.6658	-0.108
Mof_H 	H 	0.2872	0.8656	0.7101	0.044
Mof_N 	N 	0.4259	0.0623	0.8066	-0.297
Mof_H 	H 	0.482	0.135	0.799	0.095
Mof_H 	H 	0.4581	0.0184	0.8071	0.101
Mof_C 	C 	0.3528	0.0342	0.6612	-0.016
Mof_H 	H 	0.3979	0.0461	0.5633	0.024
Mof_H 	H 	0.3216	0.0845	0.6558	0.038
Mof_N 	N 	0.3189	0.8702	0.1037	-0.119
Mof_N 	N 	0.4957	0.1292	0.1916	-0.118
Mof_Mn	Mn	0.96107	0.29578	0.0434	0.806
Mof_O 	O 	0.0473	0.2279	0.9048	-0.352
Mof_C 	C 	0.209	0.5297	0.0552	-0.239
Mof_C 	C 	0.7986	0.3544	0.2763	-0.256
Mof_O 	O 	0.1862	0.2447	0.7467	-0.341
Mof_C 	C 	0.1079	0.2666	0.78	0.339
Mof_N 	N 	0.1358	0.3459	0.5036	-0.277
Mof_H 	H 	0.1527	0.4104	0.4503	0.101
Mof_H 	H 	0.085	0.2866	0.4437	0.14
Mof_C 	C 	0.0893	0.3447	0.6658	-0.108
Mof_H 	H 	0.1344	0.4216	0.7101	0.044
Mof_N 	N 	0.9377	0.3636	0.8066	-0.297
Mof_H 	H 	0.865	0.347	0.799	0.095
Mof_H 	H 	0.9816	0.4397	0.8071	0.101
Mof_C 	C 	0.9658	0.3186	0.6612	-0.016
Mof_H 	H 	0.9539	0.3518	0.5633	0.024
Mof_H 	H 	0.9155	0.2371	0.6558	0.038
Mof_N 	N 	0.1298	0.4487	0.1037	-0.119
Mof_N 	N 	0.8708	0.3665	0.1916	-0.118
Mof_Cr	Cr	0.33333	0.66667	0.92566	1.285
Mof_Cr	Cr	0.66667	0.33333	0.42566	1.367
_end
