# CIF file generated by openbabel 3.1.0, see https://openbabel.org
data_I
_chemical_name_common 'image0'
_cell_length_a 13.4003
_cell_length_b 13.4003
_cell_length_c 24.3669
_cell_angle_alpha 90
_cell_angle_beta 90
_cell_angle_gamma 90
_space_group_name_H-M_alt 'P 1'
_space_group_name_Hall 'P 1'
loop_
    _symmetry_equiv_pos_as_xyz
    x,y,z
loop_
    _atom_site_label
    _atom_site_type_symbol
    _atom_site_fract_x
    _atom_site_fract_y
    _atom_site_fract_z
    _atom_site_occupancy
    Cd1      Cd       0.88472    0.42743    0.15551    1.000
    O1       O        0.72530    0.42210    0.20310    1.000
    O2       O        0.86550    0.40420    0.25000    1.000
    O3       O        0.69250    0.08080    0.38540    1.000
    O4       O        0.55840    0.08690    0.33240    1.000
    O5       O        0.84390    0.27320    0.12380    1.000
    O6       O        0.92060    0.36840    0.06570    1.000
    C1       C        0.71550    0.37620    0.29750    1.000
    C2       C        0.66900    0.27400    0.29350    1.000
    C3       C        0.63880    0.24460    0.35080    1.000
    H1       H        0.57240    0.27240    0.35800    1.000
    C4       C        0.71130    0.29350    0.38920    1.000
    H2       H        0.75390    0.24480    0.40700    1.000
    H3       H        0.67710    0.33260    0.41700    1.000
    C5       C        0.77050    0.36000    0.35010    1.000
    H4       H        0.78300    0.42390    0.36750    1.000
    H5       H        0.83440    0.32910    0.34240    1.000
    C6       C        0.62520    0.44190    0.30050    1.000
    H6       H        0.64570    0.51040    0.30280    1.000
    H7       H        0.58680    0.42490    0.33250    1.000
    H8       H        0.58510    0.43230    0.26830    1.000
    C7       C        0.58060    0.25900    0.25610    1.000
    H9       H        0.60140    0.26640    0.21860    1.000
    H10      H        0.53040    0.30800    0.26440    1.000
    H11      H        0.55380    0.19340    0.26150    1.000
    C8       C        0.73330    0.19670    0.26740    1.000
    H12      H        0.75270    0.21870    0.23140    1.000
    H13      H        0.69680    0.13530    0.26450    1.000
    H14      H        0.79170    0.18630    0.28940    1.000
    C9       C        0.76950    0.40380    0.24650    1.000
    C10      C        0.63380    0.13050    0.36000    1.000
    C11      C        0.88930    0.19750    0.03560    1.000
    C12      C        0.89400    0.09480    0.06260    1.000
    C13      C        0.88710    0.28910    0.07810    1.000
    C14      C        0.78250    0.17740    0.01580    1.000
    C15      C        0.95520    0.21900    0.98560    1.000
    C16      C        0.72500    0.11400    0.05700    1.000
    Cd2      Cd       0.11528    0.57257    0.15551    1.000
    O7       O        0.27470    0.57790    0.20310    1.000
    O8       O        0.13450    0.59580    0.25000    1.000
    O9       O        0.30750    0.91920    0.38540    1.000
    O10      O        0.44160    0.91310    0.33240    1.000
    O11      O        0.15610    0.72680    0.12380    1.000
    O12      O        0.07940    0.63160    0.06570    1.000
    C17      C        0.28450    0.62380    0.29750    1.000
    C18      C        0.33100    0.72600    0.29350    1.000
    C19      C        0.36120    0.75540    0.35080    1.000
    H15      H        0.42760    0.72760    0.35800    1.000
    C20      C        0.28870    0.70650    0.38920    1.000
    H16      H        0.24610    0.75520    0.40700    1.000
    H17      H        0.32290    0.66740    0.41700    1.000
    C21      C        0.22950    0.64000    0.35010    1.000
    H18      H        0.21700    0.57610    0.36750    1.000
    H19      H        0.16560    0.67090    0.34240    1.000
    C22      C        0.37480    0.55810    0.30050    1.000
    H20      H        0.35430    0.48960    0.30280    1.000
    H21      H        0.41320    0.57510    0.33250    1.000
    H22      H        0.41490    0.56770    0.26830    1.000
    C23      C        0.41940    0.74100    0.25610    1.000
    H23      H        0.39860    0.73360    0.21860    1.000
    H24      H        0.46960    0.69200    0.26440    1.000
    H25      H        0.44620    0.80660    0.26150    1.000
    C24      C        0.26670    0.80330    0.26740    1.000
    H26      H        0.24730    0.78130    0.23140    1.000
    H27      H        0.30320    0.86470    0.26450    1.000
    H28      H        0.20830    0.81370    0.28940    1.000
    C25      C        0.23050    0.59620    0.24650    1.000
    C26      C        0.36620    0.86950    0.36000    1.000
    C27      C        0.11070    0.80250    0.03560    1.000
    C28      C        0.10600    0.90520    0.06260    1.000
    C29      C        0.11290    0.71090    0.07810    1.000
    C30      C        0.21750    0.82260    0.01580    1.000
    C31      C        0.04480    0.78100    0.98560    1.000
    C32      C        0.27500    0.88600    0.05700    1.000
    Cd3      Cd       0.07257    0.38472    0.65551    1.000
    O13      O        0.07790    0.22530    0.70310    1.000
    O14      O        0.09580    0.36550    0.75000    1.000
    O15      O        0.41920    0.19250    0.88540    1.000
    O16      O        0.41310    0.05840    0.83240    1.000
    O17      O        0.22680    0.34390    0.62380    1.000
    O18      O        0.13160    0.42060    0.56570    1.000
    C33      C        0.12380    0.21550    0.79750    1.000
    C34      C        0.22600    0.16900    0.79350    1.000
    C35      C        0.25540    0.13880    0.85080    1.000
    H29      H        0.22760    0.07240    0.85800    1.000
    C36      C        0.20650    0.21130    0.88920    1.000
    H30      H        0.25520    0.25390    0.90700    1.000
    H31      H        0.16740    0.17710    0.91700    1.000
    C37      C        0.14000    0.27050    0.85010    1.000
    H32      H        0.07610    0.28300    0.86750    1.000
    H33      H        0.17090    0.33440    0.84240    1.000
    C38      C        0.05810    0.12520    0.80050    1.000
    H34      H        0.98960    0.14570    0.80280    1.000
    H35      H        0.07510    0.08680    0.83250    1.000
    H36      H        0.06770    0.08510    0.76830    1.000
    C39      C        0.24100    0.08060    0.75610    1.000
    H37      H        0.23360    0.10140    0.71860    1.000
    H38      H        0.19200    0.03040    0.76440    1.000
    H39      H        0.30660    0.05380    0.76150    1.000
    C40      C        0.30330    0.23330    0.76740    1.000
    H40      H        0.28130    0.25270    0.73140    1.000
    H41      H        0.36470    0.19680    0.76450    1.000
    H42      H        0.31370    0.29170    0.78940    1.000
    C41      C        0.09620    0.26950    0.74650    1.000
    C42      C        0.36950    0.13380    0.86000    1.000
    C43      C        0.30250    0.38930    0.53560    1.000
    C44      C        0.40520    0.39400    0.56260    1.000
    C45      C        0.21090    0.38710    0.57810    1.000
    C46      C        0.32260    0.28250    0.51580    1.000
    C47      C        0.28100    0.45520    0.48560    1.000
    C48      C        0.38600    0.22500    0.55700    1.000
    Cd4      Cd       0.92743    0.61528    0.65551    1.000
    O19      O        0.92210    0.77470    0.70310    1.000
    O20      O        0.90420    0.63450    0.75000    1.000
    O21      O        0.58080    0.80750    0.88540    1.000
    O22      O        0.58690    0.94160    0.83240    1.000
    O23      O        0.77320    0.65610    0.62380    1.000
    O24      O        0.86840    0.57940    0.56570    1.000
    C49      C        0.87620    0.78450    0.79750    1.000
    C50      C        0.77400    0.83100    0.79350    1.000
    C51      C        0.74460    0.86120    0.85080    1.000
    H43      H        0.77240    0.92760    0.85800    1.000
    C52      C        0.79350    0.78870    0.88920    1.000
    H44      H        0.74480    0.74610    0.90700    1.000
    H45      H        0.83260    0.82290    0.91700    1.000
    C53      C        0.86000    0.72950    0.85010    1.000
    H46      H        0.92390    0.71700    0.86750    1.000
    H47      H        0.82910    0.66560    0.84240    1.000
    C54      C        0.94190    0.87480    0.80050    1.000
    H48      H        0.01040    0.85430    0.80280    1.000
    H49      H        0.92490    0.91320    0.83250    1.000
    H50      H        0.93230    0.91490    0.76830    1.000
    C55      C        0.75900    0.91940    0.75610    1.000
    H51      H        0.76640    0.89860    0.71860    1.000
    H52      H        0.80800    0.96960    0.76440    1.000
    H53      H        0.69340    0.94620    0.76150    1.000
    C56      C        0.69670    0.76670    0.76740    1.000
    H54      H        0.71870    0.74730    0.73140    1.000
    H55      H        0.63530    0.80320    0.76450    1.000
    H56      H        0.68630    0.70830    0.78940    1.000
    C57      C        0.90380    0.73050    0.74650    1.000
    C58      C        0.63050    0.86620    0.86000    1.000
    C59      C        0.69750    0.61070    0.53560    1.000
    C60      C        0.59480    0.60600    0.56260    1.000
    C61      C        0.78910    0.61290    0.57810    1.000
    C62      C        0.67740    0.71750    0.51580    1.000
    C63      C        0.71900    0.54480    0.48560    1.000
    C64      C        0.61400    0.77500    0.55700    1.000
    Cd5      Cd       0.61528    0.92743    0.34449    1.000
    O25      O        0.77470    0.92210    0.29690    1.000
    O26      O        0.63450    0.90420    0.25000    1.000
    O27      O        0.80750    0.58080    0.11460    1.000
    O28      O        0.94160    0.58690    0.16760    1.000
    O29      O        0.65610    0.77320    0.37620    1.000
    O30      O        0.57940    0.86840    0.43430    1.000
    C65      C        0.78450    0.87620    0.20250    1.000
    C66      C        0.83100    0.77400    0.20650    1.000
    C67      C        0.86120    0.74460    0.14920    1.000
    H57      H        0.92760    0.77240    0.14200    1.000
    C68      C        0.78870    0.79350    0.11080    1.000
    H58      H        0.74610    0.74480    0.09300    1.000
    H59      H        0.82290    0.83260    0.08300    1.000
    C69      C        0.72950    0.86000    0.14990    1.000
    H60      H        0.71700    0.92390    0.13250    1.000
    H61      H        0.66560    0.82910    0.15760    1.000
    C70      C        0.87480    0.94190    0.19950    1.000
    H62      H        0.85430    0.01040    0.19720    1.000
    H63      H        0.91320    0.92490    0.16750    1.000
    H64      H        0.91490    0.93230    0.23170    1.000
    C71      C        0.91940    0.75900    0.24390    1.000
    H65      H        0.89860    0.76640    0.28140    1.000
    H66      H        0.96960    0.80800    0.23560    1.000
    H67      H        0.94620    0.69340    0.23850    1.000
    C72      C        0.76670    0.69670    0.23260    1.000
    H68      H        0.74730    0.71870    0.26860    1.000
    H69      H        0.80320    0.63530    0.23550    1.000
    H70      H        0.70830    0.68630    0.21060    1.000
    C73      C        0.73050    0.90380    0.25350    1.000
    C74      C        0.86620    0.63050    0.14000    1.000
    C75      C        0.61070    0.69750    0.46440    1.000
    C76      C        0.60600    0.59480    0.43740    1.000
    C77      C        0.61290    0.78910    0.42190    1.000
    C78      C        0.71750    0.67740    0.48420    1.000
    C79      C        0.54480    0.71900    0.51440    1.000
    C80      C        0.77500    0.61400    0.44300    1.000
    Cd6      Cd       0.38472    0.07257    0.34449    1.000
    O31      O        0.22530    0.07790    0.29690    1.000
    O32      O        0.36550    0.09580    0.25000    1.000
    O33      O        0.19250    0.41920    0.11460    1.000
    O34      O        0.05840    0.41310    0.16760    1.000
    O35      O        0.34390    0.22680    0.37620    1.000
    O36      O        0.42060    0.13160    0.43430    1.000
    C81      C        0.21550    0.12380    0.20250    1.000
    C82      C        0.16900    0.22600    0.20650    1.000
    C83      C        0.13880    0.25540    0.14920    1.000
    H71      H        0.07240    0.22760    0.14200    1.000
    C84      C        0.21130    0.20650    0.11080    1.000
    H72      H        0.25390    0.25520    0.09300    1.000
    H73      H        0.17710    0.16740    0.08300    1.000
    C85      C        0.27050    0.14000    0.14990    1.000
    H74      H        0.28300    0.07610    0.13250    1.000
    H75      H        0.33440    0.17090    0.15760    1.000
    C86      C        0.12520    0.05810    0.19950    1.000
    H76      H        0.14570    0.98960    0.19720    1.000
    H77      H        0.08680    0.07510    0.16750    1.000
    H78      H        0.08510    0.06770    0.23170    1.000
    C87      C        0.08060    0.24100    0.24390    1.000
    H79      H        0.10140    0.23360    0.28140    1.000
    H80      H        0.03040    0.19200    0.23560    1.000
    H81      H        0.05380    0.30660    0.23850    1.000
    C88      C        0.23330    0.30330    0.23260    1.000
    H82      H        0.25270    0.28130    0.26860    1.000
    H83      H        0.19680    0.36470    0.23550    1.000
    H84      H        0.29170    0.31370    0.21060    1.000
    C89      C        0.26950    0.09620    0.25350    1.000
    C90      C        0.13380    0.36950    0.14000    1.000
    C91      C        0.38930    0.30250    0.46440    1.000
    C92      C        0.39400    0.40520    0.43740    1.000
    C93      C        0.38710    0.21090    0.42190    1.000
    C94      C        0.28250    0.32260    0.48420    1.000
    C95      C        0.45520    0.28100    0.51440    1.000
    C96      C        0.22500    0.38600    0.44300    1.000
    Cd7      Cd       0.42743    0.88472    0.84449    1.000
    O37      O        0.42210    0.72530    0.79690    1.000
    O38      O        0.40420    0.86550    0.75000    1.000
    O39      O        0.08080    0.69250    0.61460    1.000
    O40      O        0.08690    0.55840    0.66760    1.000
    O41      O        0.27320    0.84390    0.87620    1.000
    O42      O        0.36840    0.92060    0.93430    1.000
    C97      C        0.37620    0.71550    0.70250    1.000
    C98      C        0.27400    0.66900    0.70650    1.000
    C99      C        0.24460    0.63880    0.64920    1.000
    H85      H        0.27240    0.57240    0.64200    1.000
    C100     C        0.29350    0.71130    0.61080    1.000
    H86      H        0.24480    0.75390    0.59300    1.000
    H87      H        0.33260    0.67710    0.58300    1.000
    C101     C        0.36000    0.77050    0.64990    1.000
    H88      H        0.42390    0.78300    0.63250    1.000
    H89      H        0.32910    0.83440    0.65760    1.000
    C102     C        0.44190    0.62520    0.69950    1.000
    H90      H        0.51040    0.64570    0.69720    1.000
    H91      H        0.42490    0.58680    0.66750    1.000
    H92      H        0.43230    0.58510    0.73170    1.000
    C103     C        0.25900    0.58060    0.74390    1.000
    H93      H        0.26640    0.60140    0.78140    1.000
    H94      H        0.30800    0.53040    0.73560    1.000
    H95      H        0.19340    0.55380    0.73850    1.000
    C104     C        0.19670    0.73330    0.73260    1.000
    H96      H        0.21870    0.75270    0.76860    1.000
    H97      H        0.13530    0.69680    0.73550    1.000
    H98      H        0.18630    0.79170    0.71060    1.000
    C105     C        0.40380    0.76950    0.75350    1.000
    C106     C        0.13050    0.63380    0.64000    1.000
    C107     C        0.19750    0.88930    0.96440    1.000
    C108     C        0.09480    0.89400    0.93740    1.000
    C109     C        0.28910    0.88710    0.92190    1.000
    C110     C        0.17740    0.78250    0.98420    1.000
    C111     C        0.21900    0.95520    0.01440    1.000
    C112     C        0.11400    0.72500    0.94300    1.000
    Cd8      Cd       0.57257    0.11528    0.84449    1.000
    O43      O        0.57790    0.27470    0.79690    1.000
    O44      O        0.59580    0.13450    0.75000    1.000
    O45      O        0.91920    0.30750    0.61460    1.000
    O46      O        0.91310    0.44160    0.66760    1.000
    O47      O        0.72680    0.15610    0.87620    1.000
    O48      O        0.63160    0.07940    0.93430    1.000
    C113     C        0.62380    0.28450    0.70250    1.000
    C114     C        0.72600    0.33100    0.70650    1.000
    C115     C        0.75540    0.36120    0.64920    1.000
    H99      H        0.72760    0.42760    0.64200    1.000
    C116     C        0.70650    0.28870    0.61080    1.000
    H100     H        0.75520    0.24610    0.59300    1.000
    H101     H        0.66740    0.32290    0.58300    1.000
    C117     C        0.64000    0.22950    0.64990    1.000
    H102     H        0.57610    0.21700    0.63250    1.000
    H103     H        0.67090    0.16560    0.65760    1.000
    C118     C        0.55810    0.37480    0.69950    1.000
    H104     H        0.48960    0.35430    0.69720    1.000
    H105     H        0.57510    0.41320    0.66750    1.000
    H106     H        0.56770    0.41490    0.73170    1.000
    C119     C        0.74100    0.41940    0.74390    1.000
    H107     H        0.73360    0.39860    0.78140    1.000
    H108     H        0.69200    0.46960    0.73560    1.000
    H109     H        0.80660    0.44620    0.73850    1.000
    C120     C        0.80330    0.26670    0.73260    1.000
    H110     H        0.78130    0.24730    0.76860    1.000
    H111     H        0.86470    0.30320    0.73550    1.000
    H112     H        0.81370    0.20830    0.71060    1.000
    C121     C        0.59620    0.23050    0.75350    1.000
    C122     C        0.86950    0.36620    0.64000    1.000
    C123     C        0.80250    0.11070    0.96440    1.000
    C124     C        0.90520    0.10600    0.93740    1.000
    C125     C        0.71090    0.11290    0.92190    1.000
    C126     C        0.82260    0.21750    0.98420    1.000
    C127     C        0.78100    0.04480    0.01440    1.000
    C128     C        0.88600    0.27500    0.94300    1.000
    C129     C        0.72810    0.27190    0.00000    1.000
    C130     C        0.27190    0.72810    0.00000    1.000
    C131     C        0.22810    0.22810    0.50000    1.000
    C132     C        0.77190    0.77190    0.50000    1.000
