data_functionalizedCrystal
_audit_creation_method	'EQeq! by Chris Wilmer'
_symmetry_space_group_name_H-M	'P1'
_symmetry_Int_Tables_number	1
_symmetry_cell_setting	triclinic
loop_
_symmetry_equiv_pos_as_xyz
  x,y,z
_cell_length_a	22.128
_cell_length_b	14.5817
_cell_length_c	28.083
_cell_angle_alpha	90
_cell_angle_beta	116.316
_cell_angle_gamma	90
loop_
_atom_site_label
_atom_site_type_symbol
_atom_site_fract_x
_atom_site_fract_y
_atom_site_fract_z
_atom_site_charge
Mof_Ni	Ni	0.746	0.3284	0.74428	1.066
Mof_Ni	Ni	0.78102	0.50577	0.46059	1.035
Mof_O 	O 	0.82688	0.33501	0.66539	-0.287
Mof_O 	O 	0.77692	0.41707	0.70439	-0.435
Mof_O 	O 	0.78698	0.73962	0.71597	-0.432
Mof_O 	O 	0.83571	0.82498	0.67718	-0.307
Mof_O 	O 	0.21609	0.57218	0.65146	-0.309
Mof_O 	O 	0.15278	0.5113	0.57211	-0.427
Mof_O 	O 	0.86478	0.55038	0.52755	-0.411
Mof_O 	O 	0.91188	0.4119	0.5499	-0.295
Mof_N 	N 	0.72033	0.5309	0.49717	-0.25
Mof_N 	N 	0.63179	0.5319	0.51353	-0.141
Mof_N 	N 	0.84241	0.3294	0.8079	-0.231
Mof_N 	N 	0.9272	0.3007	0.88616	-0.133
Mof_N 	N 	0.06775	0.201	0.10108	-0.139
Mof_N 	N 	0.15109	0.1755	0.18056	-0.232
Mof_C 	C 	0.8436	0.4968	0.67377	-0.091
Mof_C 	C 	0.8206	0.5794	0.68421	0.023
Mof_H 	H 	0.7861	0.5795	0.6946	0.043
Mof_C 	C 	0.8488	0.6624	0.67924	-0.098
Mof_C 	C 	0.9013	0.6609	0.66444	-0.011
Mof_H 	H 	0.9208	0.7158	0.6615	0.041
Mof_C 	C 	0.9248	0.5793	0.65409	-0.026
Mof_C 	C 	0.984	0.5755	0.64129	0.085
Mof_C 	C 	0.0469	0.6064	0.67937	-0.136
Mof_H 	H 	0.0505	0.6336	0.7105	0.084
Mof_C 	C 	0.1037	0.5967	0.67088	0.06
Mof_H 	H 	0.1455	0.6163	0.6966	0.019
Mof_C 	C 	0.0985	0.5577	0.62402	-0.124
Mof_C 	C 	0.0362	0.5272	0.58622	0.066
Mof_H 	H 	0.0326	0.5005	0.555	0.034
Mof_C 	C 	0.9786	0.5363	0.59477	-0.129
Mof_C 	C 	0.8133	0.4096	0.68119	0.345
Mof_C 	C 	0.8222	0.7493	0.69168	0.342
Mof_C 	C 	0.1599	0.5464	0.61464	0.345
Mof_C 	C 	0.913	0.4963	0.55419	0.349
Mof_C 	C 	0.6841	0.569	0.5567	0.021
Mof_H 	H 	0.6832	0.5911	0.5874	0.026
Mof_C 	C 	0.7378	0.5672	0.5457	-0.032
Mof_C 	C 	0.6566	0.5095	0.4792	0.094
Mof_H 	H 	0.6314	0.482	0.4465	-0.032
Mof_C 	C 	0.5138	0.4992	0.45684	-0.074
Mof_H 	H 	0.5233	0.4985	0.4277	0.058
Mof_C 	C 	0.5647	0.5166	0.50659	0.088
Mof_C 	C 	0.5515	0.5175	0.55036	-0.072
Mof_H 	H 	0.5859	0.5291	0.5841	0.061
Mof_C 	C 	0.9544	0.3239	0.85273	0.006
Mof_H 	H 	0.0001	0.327	0.8612	0.045
Mof_C 	C 	0.9026	0.3414	0.80522	0.003
Mof_H 	H 	0.9067	0.359	0.775	0.031
Mof_C 	C 	0.8597	0.3052	0.85739	0.101
Mof_H 	H 	0.8291	0.2928	0.8709	-0.013
Mof_C 	C 	0.9633	0.2756	0.94103	0.08
Mof_C 	C 	0.9347	0.2929	0.97493	-0.048
Mof_C 	C 	0.033	0.2264	0.04618	0.108
Mof_C 	C 	0.0613	0.2121	0.01208	-0.091
Mof_H 	H 	0.104	0.1861	0.0245	0.066
Mof_C 	C 	0.0262	0.2363	0.95925	-0.05
Mof_H 	H 	0.045	0.226	0.936	0.059
Mof_C 	C 	0.0393	0.174	0.13335	0.005
Mof_H 	H 	0.9936	0.1677	0.1239	0.03
Mof_C 	C 	0.0909	0.1583	0.1814	0.001
Mof_C 	C 	0.1348	0.2002	0.131	0.103
Mof_H 	H 	0.1661	0.2152	0.1184	-0.009
Mof_C 	C 	0.9701	0.2677	0.02836	-0.099
Mof_C 	C 	0.8949	0.4984	0.65821	-0.018
Mof_H 	H 	0.895	0.331	0.9609	0.049
Mof_H 	H 	0.949	0.286	0.0482	0.081
Mof_H 	H 	0.9117	0.45	0.6498	0.054
Mof_H 	H 	0.09	0.144	0.2132	0.023
Mof_H 	H 	0.774	0.585	0.562	0.051
Mof_Ni	Ni	0.754	0.8284	0.75572	1.065
Mof_Ni	Ni	0.71898	0.00577	0.03941	1.033
Mof_O 	O 	0.67312	0.83501	0.83461	-0.287
Mof_O 	O 	0.72308	0.91707	0.79561	-0.435
Mof_O 	O 	0.71302	0.23962	0.78403	-0.432
Mof_O 	O 	0.66429	0.32498	0.82282	-0.307
Mof_O 	O 	0.28391	0.07218	0.84854	-0.309
Mof_O 	O 	0.34722	0.0113	0.92789	-0.425
Mof_O 	O 	0.63522	0.05038	0.97245	-0.408
Mof_O 	O 	0.58812	0.9119	0.9501	-0.294
Mof_N 	N 	0.77967	0.0309	0.00283	-0.251
Mof_N 	N 	0.86821	0.0319	0.98647	-0.139
Mof_N 	N 	0.65759	0.8294	0.6921	-0.231
Mof_N 	N 	0.5728	0.8007	0.61384	-0.134
Mof_N 	N 	0.43225	0.701	0.39892	-0.138
Mof_N 	N 	0.34891	0.6755	0.31944	-0.232
Mof_C 	C 	0.6564	0.9968	0.82623	-0.091
Mof_C 	C 	0.6794	0.0794	0.81579	0.024
Mof_H 	H 	0.7139	0.0795	0.8054	0.043
Mof_C 	C 	0.6512	0.1624	0.82076	-0.097
Mof_C 	C 	0.5987	0.1609	0.83556	-0.012
Mof_H 	H 	0.5792	0.2158	0.8385	0.042
Mof_C 	C 	0.5752	0.0793	0.84591	-0.023
Mof_C 	C 	0.516	0.0755	0.85871	0.083
Mof_C 	C 	0.4531	0.1064	0.82063	-0.134
Mof_H 	H 	0.4495	0.1336	0.7895	0.084
Mof_C 	C 	0.3963	0.0967	0.82912	0.059
Mof_H 	H 	0.3545	0.1163	0.8034	0.02
Mof_C 	C 	0.4015	0.0577	0.87598	-0.122
Mof_C 	C 	0.4638	0.0272	0.91378	0.063
Mof_H 	H 	0.4674	0.0005	0.945	0.035
Mof_C 	C 	0.5214	0.0363	0.90523	-0.124
Mof_C 	C 	0.6867	0.9096	0.81881	0.345
Mof_C 	C 	0.6778	0.2493	0.80832	0.342
Mof_C 	C 	0.3401	0.0464	0.88536	0.344
Mof_C 	C 	0.587	0.9963	0.94581	0.344
Mof_C 	C 	0.8159	0.069	0.9433	0.019
Mof_H 	H 	0.8168	0.0911	0.9126	0.027
Mof_C 	C 	0.7622	0.0672	0.9543	-0.027
Mof_C 	C 	0.8434	0.0095	0.0208	0.087
Mof_H 	H 	0.8686	0.982	0.0535	-0.028
Mof_C 	C 	0.9862	0.9992	0.04316	-0.071
Mof_H 	H 	0.9767	0.9985	0.0723	0.057
Mof_C 	C 	0.9353	0.0166	0.99341	0.088
Mof_C 	C 	0.9485	0.0175	0.94964	-0.073
Mof_H 	H 	0.9141	0.0291	0.9159	0.062
Mof_C 	C 	0.5456	0.8239	0.64727	0.007
Mof_H 	H 	0.4999	0.827	0.6388	0.044
Mof_C 	C 	0.5974	0.8414	0.69478	0.002
Mof_H 	H 	0.5933	0.859	0.725	0.031
Mof_C 	C 	0.6403	0.8052	0.64261	0.101
Mof_H 	H 	0.6709	0.7928	0.6291	-0.013
Mof_C 	C 	0.5367	0.7756	0.55897	0.083
Mof_C 	C 	0.5653	0.7929	0.52507	-0.052
Mof_C 	C 	0.467	0.7264	0.45382	0.106
Mof_C 	C 	0.4387	0.7121	0.48792	-0.085
Mof_H 	H 	0.396	0.6861	0.4755	0.064
Mof_C 	C 	0.4738	0.7363	0.54075	-0.056
Mof_H 	H 	0.455	0.726	0.564	0.061
Mof_C 	C 	0.4607	0.674	0.36665	0.005
Mof_H 	H 	0.5064	0.6677	0.3761	0.03
Mof_C 	C 	0.4091	0.6583	0.3186	0.002
Mof_C 	C 	0.3652	0.7002	0.369	0.103
Mof_H 	H 	0.3339	0.7152	0.3816	-0.009
Mof_C 	C 	0.5299	0.7677	0.47164	-0.096
Mof_C 	C 	0.6051	0.9984	0.84179	-0.021
Mof_H 	H 	0.605	0.831	0.5391	0.05
Mof_H 	H 	0.551	0.786	0.4518	0.08
Mof_H 	H 	0.5883	0.95	0.8502	0.055
Mof_H 	H 	0.41	0.644	0.2868	0.023
Mof_H 	H 	0.726	0.085	0.938	0.049
Mof_Ni	Ni	0.254	0.6716	0.25572	1.065
Mof_Ni	Ni	0.21898	0.49423	0.53941	1.034
Mof_O 	O 	0.17312	0.66499	0.33461	-0.287
Mof_O 	O 	0.22308	0.58293	0.29561	-0.435
Mof_O 	O 	0.21302	0.26038	0.28403	-0.432
Mof_O 	O 	0.16429	0.17502	0.32282	-0.307
Mof_O 	O 	0.78391	0.42782	0.34854	-0.309
Mof_O 	O 	0.84722	0.4887	0.42789	-0.427
Mof_O 	O 	0.13522	0.44962	0.47245	-0.411
Mof_O 	O 	0.08812	0.5881	0.4501	-0.295
Mof_N 	N 	0.27967	0.4691	0.50283	-0.25
Mof_N 	N 	0.36821	0.4681	0.48647	-0.141
Mof_N 	N 	0.15759	0.6706	0.1921	-0.231
Mof_N 	N 	0.0728	0.6993	0.11384	-0.133
Mof_N 	N 	0.93225	0.799	0.89892	-0.139
Mof_N 	N 	0.84891	0.8245	0.81944	-0.232
Mof_C 	C 	0.1564	0.5032	0.32623	-0.091
Mof_C 	C 	0.1794	0.4206	0.31579	0.023
Mof_H 	H 	0.2139	0.4205	0.3054	0.043
Mof_C 	C 	0.1512	0.3376	0.32076	-0.098
Mof_C 	C 	0.0987	0.3391	0.33556	-0.011
Mof_H 	H 	0.0792	0.2842	0.3385	0.041
Mof_C 	C 	0.0752	0.4207	0.34591	-0.026
Mof_C 	C 	0.016	0.4245	0.35871	0.085
Mof_C 	C 	0.9531	0.3936	0.32063	-0.136
Mof_H 	H 	0.9495	0.3664	0.2895	0.084
Mof_C 	C 	0.8963	0.4033	0.32912	0.06
Mof_H 	H 	0.8545	0.3837	0.3034	0.019
Mof_C 	C 	0.9015	0.4423	0.37598	-0.124
Mof_C 	C 	0.9638	0.4728	0.41378	0.066
Mof_H 	H 	0.9674	0.4995	0.445	0.034
Mof_C 	C 	0.0214	0.4637	0.40523	-0.129
Mof_C 	C 	0.1867	0.5904	0.31881	0.345
Mof_C 	C 	0.1778	0.2507	0.30832	0.342
Mof_C 	C 	0.8401	0.4536	0.38536	0.345
Mof_C 	C 	0.087	0.5037	0.44581	0.349
Mof_C 	C 	0.3159	0.431	0.4433	0.021
Mof_H 	H 	0.3168	0.4089	0.4126	0.026
Mof_C 	C 	0.2622	0.4328	0.4543	-0.032
Mof_C 	C 	0.3434	0.4905	0.5208	0.094
Mof_H 	H 	0.3686	0.518	0.5535	-0.032
Mof_C 	C 	0.4862	0.5008	0.54316	-0.074
Mof_H 	H 	0.4767	0.5015	0.5723	0.058
Mof_C 	C 	0.4353	0.4834	0.49341	0.088
Mof_C 	C 	0.4485	0.4825	0.44964	-0.072
Mof_H 	H 	0.4141	0.4709	0.4159	0.061
Mof_C 	C 	0.0456	0.6761	0.14727	0.006
Mof_H 	H 	0.9999	0.673	0.1388	0.045
Mof_C 	C 	0.0974	0.6586	0.19478	0.003
Mof_H 	H 	0.0933	0.641	0.225	0.031
Mof_C 	C 	0.1403	0.6948	0.14261	0.101
Mof_H 	H 	0.1709	0.7072	0.1291	-0.013
Mof_C 	C 	0.0367	0.7244	0.05897	0.08
Mof_C 	C 	0.0653	0.7071	0.02507	-0.048
Mof_C 	C 	0.967	0.7736	0.95382	0.108
Mof_C 	C 	0.9387	0.7879	0.98792	-0.091
Mof_H 	H 	0.896	0.8139	0.9755	0.066
Mof_C 	C 	0.9738	0.7637	0.04075	-0.05
Mof_H 	H 	0.955	0.774	0.064	0.059
Mof_C 	C 	0.9607	0.826	0.86665	0.005
Mof_H 	H 	0.0064	0.8323	0.8761	0.03
Mof_C 	C 	0.9091	0.8417	0.8186	0.001
Mof_C 	C 	0.8652	0.7998	0.869	0.103
Mof_H 	H 	0.8339	0.7848	0.8816	-0.009
Mof_C 	C 	0.0299	0.7323	0.97164	-0.099
Mof_C 	C 	0.1051	0.5016	0.34179	-0.018
Mof_H 	H 	0.105	0.669	0.0391	0.049
Mof_H 	H 	0.051	0.714	0.9518	0.081
Mof_H 	H 	0.0883	0.55	0.3502	0.054
Mof_H 	H 	0.91	0.856	0.7868	0.023
Mof_H 	H 	0.226	0.415	0.438	0.051
Mof_Ni	Ni	0.246	0.1716	0.24428	1.065
Mof_Ni	Ni	0.28102	0.99423	0.96059	1.033
Mof_O 	O 	0.32688	0.16499	0.16539	-0.287
Mof_O 	O 	0.27692	0.08293	0.20439	-0.435
Mof_O 	O 	0.28698	0.76038	0.21597	-0.432
Mof_O 	O 	0.33571	0.67502	0.17718	-0.307
Mof_O 	O 	0.71609	0.92782	0.15146	-0.309
Mof_O 	O 	0.65278	0.9887	0.07211	-0.425
Mof_O 	O 	0.36478	0.94962	0.02755	-0.408
Mof_O 	O 	0.41188	0.0881	0.0499	-0.294
Mof_N 	N 	0.22033	0.9691	0.99717	-0.251
Mof_N 	N 	0.13179	0.9681	0.01353	-0.139
Mof_N 	N 	0.34241	0.1706	0.3079	-0.231
Mof_N 	N 	0.4272	0.1993	0.38616	-0.134
Mof_N 	N 	0.56775	0.299	0.60108	-0.138
Mof_N 	N 	0.65109	0.3245	0.68056	-0.232
Mof_C 	C 	0.3436	0.0032	0.17377	-0.091
Mof_C 	C 	0.3206	0.9206	0.18421	0.024
Mof_H 	H 	0.2861	0.9205	0.1946	0.043
Mof_C 	C 	0.3488	0.8376	0.17924	-0.097
Mof_C 	C 	0.4013	0.8391	0.16444	-0.012
Mof_H 	H 	0.4208	0.7842	0.1615	0.042
Mof_C 	C 	0.4248	0.9207	0.15409	-0.023
Mof_C 	C 	0.484	0.9245	0.14129	0.083
Mof_C 	C 	0.5469	0.8936	0.17937	-0.134
Mof_H 	H 	0.5505	0.8664	0.2105	0.084
Mof_C 	C 	0.6037	0.9033	0.17088	0.059
Mof_H 	H 	0.6455	0.8837	0.1966	0.02
Mof_C 	C 	0.5985	0.9423	0.12402	-0.122
Mof_C 	C 	0.5362	0.9728	0.08622	0.063
Mof_H 	H 	0.5326	0.9995	0.055	0.035
Mof_C 	C 	0.4786	0.9637	0.09477	-0.124
Mof_C 	C 	0.3133	0.0904	0.18119	0.345
Mof_C 	C 	0.3222	0.7507	0.19168	0.342
Mof_C 	C 	0.6599	0.9536	0.11464	0.344
Mof_C 	C 	0.413	0.0037	0.05419	0.344
Mof_C 	C 	0.1841	0.931	0.0567	0.019
Mof_H 	H 	0.1832	0.9089	0.0874	0.027
Mof_C 	C 	0.2378	0.9328	0.0457	-0.027
Mof_C 	C 	0.1566	0.9905	0.9792	0.087
Mof_H 	H 	0.1314	0.018	0.9465	-0.028
Mof_C 	C 	0.0138	0.0008	0.95684	-0.071
Mof_H 	H 	0.0233	0.0015	0.9277	0.057
Mof_C 	C 	0.0647	0.9834	0.00659	0.088
Mof_C 	C 	0.0515	0.9825	0.05036	-0.073
Mof_H 	H 	0.0859	0.9709	0.0841	0.062
Mof_C 	C 	0.4544	0.1761	0.35273	0.007
Mof_H 	H 	0.5001	0.173	0.3612	0.044
Mof_C 	C 	0.4026	0.1586	0.30522	0.002
Mof_H 	H 	0.4067	0.141	0.275	0.031
Mof_C 	C 	0.3597	0.1948	0.35739	0.101
Mof_H 	H 	0.3291	0.2072	0.3709	-0.013
Mof_C 	C 	0.4633	0.2244	0.44103	0.083
Mof_C 	C 	0.4347	0.2071	0.47493	-0.052
Mof_C 	C 	0.533	0.2736	0.54618	0.106
Mof_C 	C 	0.5613	0.2879	0.51208	-0.085
Mof_H 	H 	0.604	0.3139	0.5245	0.064
Mof_C 	C 	0.5262	0.2637	0.45925	-0.056
Mof_H 	H 	0.545	0.274	0.436	0.061
Mof_C 	C 	0.5393	0.326	0.63335	0.005
Mof_H 	H 	0.4936	0.3323	0.6239	0.03
Mof_C 	C 	0.5909	0.3417	0.6814	0.002
Mof_C 	C 	0.6348	0.2998	0.631	0.103
Mof_H 	H 	0.6661	0.2848	0.6184	-0.009
Mof_C 	C 	0.4701	0.2323	0.52836	-0.096
Mof_C 	C 	0.3949	0.0016	0.15821	-0.021
Mof_H 	H 	0.395	0.169	0.4609	0.05
Mof_H 	H 	0.449	0.214	0.5482	0.08
Mof_H 	H 	0.4117	0.05	0.1498	0.055
Mof_H 	H 	0.59	0.356	0.7132	0.023
Mof_H 	H 	0.274	0.915	0.062	0.049
Mof_Ni	Ni	0.246	0.8284	0.74428	1.065
Mof_Ni	Ni	0.28102	0.00577	0.46059	1.034
Mof_O 	O 	0.32688	0.83501	0.66539	-0.287
Mof_O 	O 	0.27692	0.91707	0.70439	-0.435
Mof_O 	O 	0.28698	0.23962	0.71597	-0.432
Mof_O 	O 	0.33571	0.32498	0.67718	-0.307
Mof_O 	O 	0.71609	0.07218	0.65146	-0.309
Mof_O 	O 	0.65278	0.0113	0.57211	-0.426
Mof_O 	O 	0.36478	0.05038	0.52755	-0.41
Mof_O 	O 	0.41188	0.9119	0.5499	-0.295
Mof_N 	N 	0.22033	0.0309	0.49717	-0.25
Mof_N 	N 	0.13179	0.0319	0.51353	-0.141
Mof_N 	N 	0.34241	0.8294	0.8079	-0.231
Mof_N 	N 	0.4272	0.8007	0.88616	-0.135
Mof_N 	N 	0.56775	0.701	0.10108	-0.138
Mof_N 	N 	0.65109	0.6755	0.18056	-0.232
Mof_C 	C 	0.3436	0.9968	0.67377	-0.092
Mof_C 	C 	0.3206	0.0794	0.68421	0.024
Mof_H 	H 	0.2861	0.0795	0.6946	0.043
Mof_C 	C 	0.3488	0.1624	0.67924	-0.098
Mof_C 	C 	0.4013	0.1609	0.66444	-0.011
Mof_H 	H 	0.4208	0.2158	0.6615	0.041
Mof_C 	C 	0.4248	0.0793	0.65409	-0.025
Mof_C 	C 	0.484	0.0755	0.64129	0.085
Mof_C 	C 	0.5469	0.1064	0.67937	-0.136
Mof_H 	H 	0.5505	0.1336	0.7105	0.084
Mof_C 	C 	0.6037	0.0967	0.67088	0.06
Mof_H 	H 	0.6455	0.1163	0.6966	0.02
Mof_C 	C 	0.5985	0.0577	0.62402	-0.123
Mof_C 	C 	0.5362	0.0272	0.58622	0.065
Mof_H 	H 	0.5326	0.0005	0.555	0.034
Mof_C 	C 	0.4786	0.0363	0.59477	-0.128
Mof_C 	C 	0.3133	0.9096	0.68119	0.345
Mof_C 	C 	0.3222	0.2493	0.69168	0.342
Mof_C 	C 	0.6599	0.0464	0.61464	0.345
Mof_C 	C 	0.413	0.9963	0.55419	0.349
Mof_C 	C 	0.1841	0.069	0.5567	0.021
Mof_H 	H 	0.1832	0.0911	0.5874	0.026
Mof_C 	C 	0.2378	0.0672	0.5457	-0.032
Mof_C 	C 	0.1566	0.0095	0.4792	0.094
Mof_H 	H 	0.1314	0.982	0.4465	-0.032
Mof_C 	C 	0.0138	0.9992	0.45684	-0.075
Mof_H 	H 	0.0233	0.9985	0.4277	0.058
Mof_C 	C 	0.0647	0.0166	0.50659	0.088
Mof_C 	C 	0.0515	0.0175	0.55036	-0.072
Mof_H 	H 	0.0859	0.0291	0.5841	0.061
Mof_C 	C 	0.4544	0.8239	0.85273	0.007
Mof_H 	H 	0.5001	0.827	0.8612	0.044
Mof_C 	C 	0.4026	0.8414	0.80522	0.002
Mof_H 	H 	0.4067	0.859	0.775	0.031
Mof_C 	C 	0.3597	0.8052	0.85739	0.101
Mof_H 	H 	0.3291	0.7928	0.8709	-0.014
Mof_C 	C 	0.4633	0.7756	0.94103	0.086
Mof_C 	C 	0.4347	0.7929	0.97493	-0.056
Mof_C 	C 	0.533	0.7264	0.04618	0.103
Mof_C 	C 	0.5613	0.7121	0.01208	-0.081
Mof_H 	H 	0.604	0.6861	0.0245	0.063
Mof_C 	C 	0.5262	0.7363	0.95925	-0.06
Mof_H 	H 	0.545	0.726	0.936	0.062
Mof_C 	C 	0.5393	0.674	0.13335	0.005
Mof_H 	H 	0.4936	0.6677	0.1239	0.03
Mof_C 	C 	0.5909	0.6583	0.1814	0.002
Mof_C 	C 	0.6348	0.7002	0.131	0.103
Mof_H 	H 	0.6661	0.7152	0.1184	-0.009
Mof_C 	C 	0.4701	0.7677	0.02836	-0.091
Mof_C 	C 	0.3949	0.9984	0.65821	-0.018
Mof_H 	H 	0.395	0.831	0.9609	0.051
Mof_H 	H 	0.449	0.786	0.0482	0.078
Mof_H 	H 	0.4117	0.95	0.6498	0.054
Mof_H 	H 	0.59	0.644	0.2132	0.023
Mof_H 	H 	0.274	0.085	0.562	0.051
Mof_Ni	Ni	0.254	0.3284	0.75572	1.065
Mof_Ni	Ni	0.21898	0.50577	0.03941	1.034
Mof_O 	O 	0.17312	0.33501	0.83461	-0.287
Mof_O 	O 	0.22308	0.41707	0.79561	-0.435
Mof_O 	O 	0.21302	0.73962	0.78403	-0.432
Mof_O 	O 	0.16429	0.82498	0.82282	-0.308
Mof_O 	O 	0.78391	0.57218	0.84854	-0.31
Mof_O 	O 	0.84722	0.5113	0.92789	-0.427
Mof_O 	O 	0.13522	0.55038	0.97245	-0.411
Mof_O 	O 	0.08812	0.4119	0.9501	-0.294
Mof_N 	N 	0.27967	0.5309	0.00283	-0.25
Mof_N 	N 	0.36821	0.5319	0.98647	-0.141
Mof_N 	N 	0.15759	0.3294	0.6921	-0.231
Mof_N 	N 	0.0728	0.3007	0.61384	-0.134
Mof_N 	N 	0.93225	0.201	0.39892	-0.138
Mof_N 	N 	0.84891	0.1755	0.31944	-0.232
Mof_C 	C 	0.1564	0.4968	0.82623	-0.091
Mof_C 	C 	0.1794	0.5794	0.81579	0.023
Mof_H 	H 	0.2139	0.5795	0.8054	0.043
Mof_C 	C 	0.1512	0.6624	0.82076	-0.098
Mof_C 	C 	0.0987	0.6609	0.83556	-0.011
Mof_H 	H 	0.0792	0.7158	0.8385	0.041
Mof_C 	C 	0.0752	0.5793	0.84591	-0.026
Mof_C 	C 	0.016	0.5755	0.85871	0.085
Mof_C 	C 	0.9531	0.6064	0.82063	-0.136
Mof_H 	H 	0.9495	0.6336	0.7895	0.084
Mof_C 	C 	0.8963	0.5967	0.82912	0.061
Mof_H 	H 	0.8545	0.6163	0.8034	0.019
Mof_C 	C 	0.9015	0.5577	0.87598	-0.124
Mof_C 	C 	0.9638	0.5272	0.91378	0.065
Mof_H 	H 	0.9674	0.5005	0.945	0.034
Mof_C 	C 	0.0214	0.5363	0.90523	-0.128
Mof_C 	C 	0.1867	0.4096	0.81881	0.345
Mof_C 	C 	0.1778	0.7493	0.80832	0.342
Mof_C 	C 	0.8401	0.5464	0.88536	0.345
Mof_C 	C 	0.087	0.4963	0.94581	0.349
Mof_C 	C 	0.3159	0.569	0.9433	0.021
Mof_H 	H 	0.3168	0.5911	0.9126	0.026
Mof_C 	C 	0.2622	0.5672	0.9543	-0.032
Mof_C 	C 	0.3434	0.5095	0.0208	0.094
Mof_H 	H 	0.3686	0.482	0.0535	-0.032
Mof_C 	C 	0.4862	0.4992	0.04316	-0.074
Mof_H 	H 	0.4767	0.4985	0.0723	0.058
Mof_C 	C 	0.4353	0.5166	0.99341	0.088
Mof_C 	C 	0.4485	0.5175	0.94964	-0.072
Mof_H 	H 	0.4141	0.5291	0.9159	0.061
Mof_C 	C 	0.0456	0.3239	0.64727	0.008
Mof_H 	H 	0.9999	0.327	0.6388	0.044
Mof_C 	C 	0.0974	0.3414	0.69478	0.002
Mof_H 	H 	0.0933	0.359	0.725	0.031
Mof_C 	C 	0.1403	0.3052	0.64261	0.101
Mof_H 	H 	0.1709	0.2928	0.6291	-0.013
Mof_C 	C 	0.0367	0.2756	0.55897	0.084
Mof_C 	C 	0.0653	0.2929	0.52507	-0.052
Mof_C 	C 	0.967	0.2264	0.45382	0.105
Mof_C 	C 	0.9387	0.2121	0.48792	-0.085
Mof_H 	H 	0.896	0.1861	0.4755	0.064
Mof_C 	C 	0.9738	0.2363	0.54075	-0.057
Mof_H 	H 	0.955	0.226	0.564	0.061
Mof_C 	C 	0.9607	0.174	0.36665	0.005
Mof_H 	H 	0.0064	0.1677	0.3761	0.03
Mof_C 	C 	0.9091	0.1583	0.3186	0.002
Mof_C 	C 	0.8652	0.2002	0.369	0.103
Mof_H 	H 	0.8339	0.2152	0.3816	-0.009
Mof_C 	C 	0.0299	0.2677	0.47164	-0.095
Mof_C 	C 	0.1051	0.4984	0.84179	-0.018
Mof_H 	H 	0.105	0.331	0.5391	0.05
Mof_H 	H 	0.051	0.286	0.4518	0.08
Mof_H 	H 	0.0883	0.45	0.8502	0.054
Mof_H 	H 	0.91	0.144	0.2868	0.023
Mof_H 	H 	0.226	0.585	0.938	0.05
Mof_Ni	Ni	0.754	0.1716	0.25572	1.065
Mof_Ni	Ni	0.71898	0.99423	0.53941	1.034
Mof_O 	O 	0.67312	0.16499	0.33461	-0.287
Mof_O 	O 	0.72308	0.08293	0.29561	-0.435
Mof_O 	O 	0.71302	0.76038	0.28403	-0.432
Mof_O 	O 	0.66429	0.67502	0.32282	-0.307
Mof_O 	O 	0.28391	0.92782	0.34854	-0.309
Mof_O 	O 	0.34722	0.9887	0.42789	-0.426
Mof_O 	O 	0.63522	0.94962	0.47245	-0.41
Mof_O 	O 	0.58812	0.0881	0.4501	-0.295
Mof_N 	N 	0.77967	0.9691	0.50283	-0.25
Mof_N 	N 	0.86821	0.9681	0.48647	-0.141
Mof_N 	N 	0.65759	0.1706	0.1921	-0.231
Mof_N 	N 	0.5728	0.1993	0.11384	-0.135
Mof_N 	N 	0.43225	0.299	0.89892	-0.138
Mof_N 	N 	0.34891	0.3245	0.81944	-0.232
Mof_C 	C 	0.6564	0.0032	0.32623	-0.092
Mof_C 	C 	0.6794	0.9206	0.31579	0.024
Mof_H 	H 	0.7139	0.9205	0.3054	0.043
Mof_C 	C 	0.6512	0.8376	0.32076	-0.098
Mof_C 	C 	0.5987	0.8391	0.33556	-0.011
Mof_H 	H 	0.5792	0.7842	0.3385	0.041
Mof_C 	C 	0.5752	0.9207	0.34591	-0.025
Mof_C 	C 	0.516	0.9245	0.35871	0.085
Mof_C 	C 	0.4531	0.8936	0.32063	-0.136
Mof_H 	H 	0.4495	0.8664	0.2895	0.084
Mof_C 	C 	0.3963	0.9033	0.32912	0.06
Mof_H 	H 	0.3545	0.8837	0.3034	0.02
Mof_C 	C 	0.4015	0.9423	0.37598	-0.123
Mof_C 	C 	0.4638	0.9728	0.41378	0.065
Mof_H 	H 	0.4674	0.9995	0.445	0.034
Mof_C 	C 	0.5214	0.9637	0.40523	-0.128
Mof_C 	C 	0.6867	0.0904	0.31881	0.345
Mof_C 	C 	0.6778	0.7507	0.30832	0.342
Mof_C 	C 	0.3401	0.9536	0.38536	0.345
Mof_C 	C 	0.587	0.0037	0.44581	0.349
Mof_C 	C 	0.8159	0.931	0.4433	0.021
Mof_H 	H 	0.8168	0.9089	0.4126	0.026
Mof_C 	C 	0.7622	0.9328	0.4543	-0.032
Mof_C 	C 	0.8434	0.9905	0.5208	0.094
Mof_H 	H 	0.8686	0.018	0.5535	-0.032
Mof_C 	C 	0.9862	0.0008	0.54316	-0.075
Mof_H 	H 	0.9767	0.0015	0.5723	0.058
Mof_C 	C 	0.9353	0.9834	0.49341	0.088
Mof_C 	C 	0.9485	0.9825	0.44964	-0.072
Mof_H 	H 	0.9141	0.9709	0.4159	0.061
Mof_C 	C 	0.5456	0.1761	0.14727	0.007
Mof_H 	H 	0.4999	0.173	0.1388	0.044
Mof_C 	C 	0.5974	0.1586	0.19478	0.002
Mof_H 	H 	0.5933	0.141	0.225	0.031
Mof_C 	C 	0.6403	0.1948	0.14261	0.101
Mof_H 	H 	0.6709	0.2072	0.1291	-0.014
Mof_C 	C 	0.5367	0.2244	0.05897	0.086
Mof_C 	C 	0.5653	0.2071	0.02507	-0.056
Mof_C 	C 	0.467	0.2736	0.95382	0.103
Mof_C 	C 	0.4387	0.2879	0.98792	-0.081
Mof_H 	H 	0.396	0.3139	0.9755	0.063
Mof_C 	C 	0.4738	0.2637	0.04075	-0.06
Mof_H 	H 	0.455	0.274	0.064	0.062
Mof_C 	C 	0.4607	0.326	0.86665	0.005
Mof_H 	H 	0.5064	0.3323	0.8761	0.03
Mof_C 	C 	0.4091	0.3417	0.8186	0.002
Mof_C 	C 	0.3652	0.2998	0.869	0.103
Mof_H 	H 	0.3339	0.2848	0.8816	-0.009
Mof_C 	C 	0.5299	0.2323	0.97164	-0.091
Mof_C 	C 	0.6051	0.0016	0.34179	-0.018
Mof_H 	H 	0.605	0.169	0.0391	0.051
Mof_H 	H 	0.551	0.214	0.9518	0.078
Mof_H 	H 	0.5883	0.05	0.3502	0.054
Mof_H 	H 	0.41	0.356	0.7868	0.023
Mof_H 	H 	0.726	0.915	0.438	0.051
Mof_Ni	Ni	0.746	0.6716	0.24428	1.065
Mof_Ni	Ni	0.78102	0.49423	0.96059	1.034
Mof_O 	O 	0.82688	0.66499	0.16539	-0.287
Mof_O 	O 	0.77692	0.58293	0.20439	-0.435
Mof_O 	O 	0.78698	0.26038	0.21597	-0.432
Mof_O 	O 	0.83571	0.17502	0.17718	-0.308
Mof_O 	O 	0.21609	0.42782	0.15146	-0.31
Mof_O 	O 	0.15278	0.4887	0.07211	-0.427
Mof_O 	O 	0.86478	0.44962	0.02755	-0.411
Mof_O 	O 	0.91188	0.5881	0.0499	-0.294
Mof_N 	N 	0.72033	0.4691	0.99717	-0.25
Mof_N 	N 	0.63179	0.4681	0.01353	-0.141
Mof_N 	N 	0.84241	0.6706	0.3079	-0.231
Mof_N 	N 	0.9272	0.6993	0.38616	-0.134
Mof_N 	N 	0.06775	0.799	0.60108	-0.138
Mof_N 	N 	0.15109	0.8245	0.68056	-0.232
Mof_C 	C 	0.8436	0.5032	0.17377	-0.091
Mof_C 	C 	0.8206	0.4206	0.18421	0.023
Mof_H 	H 	0.7861	0.4205	0.1946	0.043
Mof_C 	C 	0.8488	0.3376	0.17924	-0.098
Mof_C 	C 	0.9013	0.3391	0.16444	-0.011
Mof_H 	H 	0.9208	0.2842	0.1615	0.041
Mof_C 	C 	0.9248	0.4207	0.15409	-0.026
Mof_C 	C 	0.984	0.4245	0.14129	0.085
Mof_C 	C 	0.0469	0.3936	0.17937	-0.136
Mof_H 	H 	0.0505	0.3664	0.2105	0.084
Mof_C 	C 	0.1037	0.4033	0.17088	0.061
Mof_H 	H 	0.1455	0.3837	0.1966	0.019
Mof_C 	C 	0.0985	0.4423	0.12402	-0.124
Mof_C 	C 	0.0362	0.4728	0.08622	0.065
Mof_H 	H 	0.0326	0.4995	0.055	0.034
Mof_C 	C 	0.9786	0.4637	0.09477	-0.128
Mof_C 	C 	0.8133	0.5904	0.18119	0.345
Mof_C 	C 	0.8222	0.2507	0.19168	0.342
Mof_C 	C 	0.1599	0.4536	0.11464	0.345
Mof_C 	C 	0.913	0.5037	0.05419	0.349
Mof_C 	C 	0.6841	0.431	0.0567	0.021
Mof_H 	H 	0.6832	0.4089	0.0874	0.026
Mof_C 	C 	0.7378	0.4328	0.0457	-0.032
Mof_C 	C 	0.6566	0.4905	0.9792	0.094
Mof_H 	H 	0.6314	0.518	0.9465	-0.032
Mof_C 	C 	0.5138	0.5008	0.95684	-0.074
Mof_H 	H 	0.5233	0.5015	0.9277	0.058
Mof_C 	C 	0.5647	0.4834	0.00659	0.088
Mof_C 	C 	0.5515	0.4825	0.05036	-0.072
Mof_H 	H 	0.5859	0.4709	0.0841	0.061
Mof_C 	C 	0.9544	0.6761	0.35273	0.008
Mof_H 	H 	0.0001	0.673	0.3612	0.044
Mof_C 	C 	0.9026	0.6586	0.30522	0.002
Mof_H 	H 	0.9067	0.641	0.275	0.031
Mof_C 	C 	0.8597	0.6948	0.35739	0.101
Mof_H 	H 	0.8291	0.7072	0.3709	-0.013
Mof_C 	C 	0.9633	0.7244	0.44103	0.084
Mof_C 	C 	0.9347	0.7071	0.47493	-0.052
Mof_C 	C 	0.033	0.7736	0.54618	0.105
Mof_C 	C 	0.0613	0.7879	0.51208	-0.085
Mof_H 	H 	0.104	0.8139	0.5245	0.064
Mof_C 	C 	0.0262	0.7637	0.45925	-0.057
Mof_H 	H 	0.045	0.774	0.436	0.061
Mof_C 	C 	0.0393	0.826	0.63335	0.005
Mof_H 	H 	0.9936	0.8323	0.6239	0.03
Mof_C 	C 	0.0909	0.8417	0.6814	0.002
Mof_C 	C 	0.1348	0.7998	0.631	0.103
Mof_H 	H 	0.1661	0.7848	0.6184	-0.009
Mof_C 	C 	0.9701	0.7323	0.52836	-0.095
Mof_C 	C 	0.8949	0.5016	0.15821	-0.018
Mof_H 	H 	0.895	0.669	0.4609	0.05
Mof_H 	H 	0.949	0.714	0.5482	0.08
Mof_H 	H 	0.9117	0.55	0.1498	0.054
Mof_H 	H 	0.09	0.856	0.7132	0.023
Mof_H 	H 	0.774	0.415	0.062	0.05
_end
