data_functionalizedCrystal
_audit_creation_method	'EQeq! by Chris Wilmer'
_symmetry_space_group_name_H-M	'P1'
_symmetry_Int_Tables_number	1
_symmetry_cell_setting	triclinic
loop_
_symmetry_equiv_pos_as_xyz
  x,y,z
_cell_length_a	9.9977
_cell_length_b	18.2887
_cell_length_c	12.0082
_cell_angle_alpha	90
_cell_angle_beta	100.581
_cell_angle_gamma	90
loop_
_atom_site_label
_atom_site_type_symbol
_atom_site_fract_x
_atom_site_fract_y
_atom_site_fract_z
_atom_site_charge
Mof_C 	C 	0.3202	0.09008	0.2274	0.27
Mof_C 	C 	0.8156	0.12515	0.204	0.279
Mof_C 	C 	0.5687	0.10872	0.2184	-0.042
Mof_H 	H 	0.5721	0.0605	0.1896	0.073
Mof_C 	C 	0.4486	0.13466	0.2466	-0.018
Mof_C 	C 	0.6845	0.15299	0.232	-0.016
Mof_C 	C 	0.4436	0.20479	0.2904	-0.114
Mof_H 	H 	0.3624	0.2228	0.311	0.085
Mof_C 	C 	0.68	0.22366	0.2749	-0.107
Mof_H 	H 	0.7578	0.2544	0.2843	0.088
Mof_C 	C 	0.5596	0.24788	0.3034	0.115
Mof_C 	C 	0.6393	0.2708	0.5511	-0.693
Mof_H 	H 	0.7325	0.2597	0.5419	0.239
Mof_H 	H 	0.5832	0.2266	0.5365	0.241
Mof_H 	H 	0.6398	0.2878	0.6285	0.253
Mof_C 	C 	0.5821	0.32882	0.4696	0.298
Mof_C 	C 	0.5054	0.38354	0.3093	0.112
Mof_C 	C 	0.4564	0.40258	0.1895	0.027
Mof_C 	C 	0.4499	0.35548	0.0977	-0.003
Mof_H 	H 	0.4874	0.3078	0.1099	0.043
Mof_C 	C 	0.3423	0.44296	0.9793	0.005
Mof_H 	H 	0.2969	0.4582	0.9065	0.05
Mof_C 	C 	0.3548	0.49182	0.0696	0.017
Mof_H 	H 	0.3216	0.5403	0.0566	0.047
Mof_N 	N 	0.55334	0.31873	0.35521	-0.19
Mof_N 	N 	0.5529	0.39676	0.49243	-0.15
Mof_N 	N 	0.5046	0.43132	0.3913	-0.107
Mof_N 	N 	0.4124	0.47159	0.17374	-0.118
Mof_N 	N 	0.3923	0.37552	0.9925	-0.1
Mof_O 	O 	0.3155	0.03037	0.1762	-0.243
Mof_O 	O 	0.21881	0.11744	0.26132	-0.279
Mof_O 	O 	0.8262	0.05757	0.18712	-0.262
Mof_O 	O 	0.91079	0.16877	0.19945	-0.254
Mof_Cd	Cd	0.45215	0.55175	0.33413	0.45
Mof_C 	C 	0.1798	0.59008	0.2726	0.271
Mof_C 	C 	0.6844	0.62515	0.296	0.28
Mof_C 	C 	0.9313	0.60872	0.2816	-0.04
Mof_H 	H 	0.9279	0.5605	0.3104	0.074
Mof_C 	C 	0.0514	0.63466	0.2534	-0.019
Mof_C 	C 	0.8155	0.65299	0.268	-0.016
Mof_C 	C 	0.0564	0.70479	0.2096	-0.113
Mof_H 	H 	0.1376	0.7228	0.189	0.085
Mof_C 	C 	0.82	0.72366	0.2251	-0.106
Mof_H 	H 	0.7422	0.7544	0.2157	0.088
Mof_C 	C 	0.9404	0.74788	0.1966	0.115
Mof_C 	C 	0.8607	0.7708	0.9489	-0.695
Mof_H 	H 	0.7675	0.7597	0.9581	0.24
Mof_H 	H 	0.9168	0.7266	0.9635	0.241
Mof_H 	H 	0.8602	0.7878	0.8715	0.254
Mof_C 	C 	0.9179	0.82882	0.0304	0.3
Mof_C 	C 	0.9946	0.88354	0.1907	0.111
Mof_C 	C 	0.0436	0.90258	0.3105	0.028
Mof_C 	C 	0.0501	0.85548	0.4023	-0.003
Mof_H 	H 	0.0126	0.8078	0.3901	0.043
Mof_C 	C 	0.1577	0.94296	0.5207	0.004
Mof_H 	H 	0.2031	0.9582	0.5935	0.051
Mof_C 	C 	0.1452	0.99182	0.4304	0.021
Mof_H 	H 	0.1784	0.0403	0.4434	0.045
Mof_N 	N 	0.94666	0.81873	0.14479	-0.19
Mof_N 	N 	0.9471	0.89676	0.00757	-0.15
Mof_N 	N 	0.9954	0.93132	0.1087	-0.107
Mof_N 	N 	0.0876	0.97159	0.32626	-0.118
Mof_N 	N 	0.1077	0.87552	0.5075	-0.1
Mof_O 	O 	0.1845	0.53037	0.3238	-0.243
Mof_O 	O 	0.28119	0.61744	0.23868	-0.279
Mof_O 	O 	0.6738	0.55757	0.31288	-0.263
Mof_O 	O 	0.58921	0.66877	0.30055	-0.255
Mof_Cd	Cd	0.04785	0.05175	0.16587	0.448
Mof_C 	C 	0.6798	0.90992	0.7726	0.271
Mof_C 	C 	0.1844	0.87485	0.796	0.28
Mof_C 	C 	0.4313	0.89128	0.7816	-0.041
Mof_H 	H 	0.4279	0.9395	0.8104	0.074
Mof_C 	C 	0.5514	0.86534	0.7534	-0.018
Mof_C 	C 	0.3155	0.84701	0.768	-0.016
Mof_C 	C 	0.5564	0.79521	0.7096	-0.114
Mof_H 	H 	0.6376	0.7772	0.689	0.085
Mof_C 	C 	0.32	0.77634	0.7251	-0.107
Mof_H 	H 	0.2422	0.7456	0.7157	0.088
Mof_C 	C 	0.4404	0.75212	0.6966	0.115
Mof_C 	C 	0.3607	0.7292	0.4489	-0.693
Mof_H 	H 	0.2675	0.7403	0.4581	0.239
Mof_H 	H 	0.4168	0.7734	0.4635	0.241
Mof_H 	H 	0.3602	0.7122	0.3715	0.253
Mof_C 	C 	0.4179	0.67118	0.5304	0.298
Mof_C 	C 	0.4946	0.61646	0.6907	0.112
Mof_C 	C 	0.5436	0.59742	0.8105	0.027
Mof_C 	C 	0.5501	0.64452	0.9023	-0.003
Mof_H 	H 	0.5126	0.6922	0.8901	0.043
Mof_C 	C 	0.6577	0.55704	0.0207	0.005
Mof_H 	H 	0.7031	0.5418	0.0935	0.05
Mof_C 	C 	0.6452	0.50818	0.9304	0.017
Mof_H 	H 	0.6784	0.4597	0.9434	0.047
Mof_N 	N 	0.44666	0.68127	0.64479	-0.19
Mof_N 	N 	0.4471	0.60324	0.50757	-0.15
Mof_N 	N 	0.4954	0.56868	0.6087	-0.107
Mof_N 	N 	0.5876	0.52841	0.82626	-0.118
Mof_N 	N 	0.6077	0.62448	0.0075	-0.1
Mof_O 	O 	0.6845	0.96963	0.8238	-0.243
Mof_O 	O 	0.78119	0.88256	0.73868	-0.279
Mof_O 	O 	0.1738	0.94243	0.81288	-0.262
Mof_O 	O 	0.08921	0.83123	0.80055	-0.254
Mof_Cd	Cd	0.54785	0.44825	0.66587	0.45
Mof_C 	C 	0.8202	0.40992	0.7274	0.271
Mof_C 	C 	0.3156	0.37485	0.704	0.28
Mof_C 	C 	0.0687	0.39128	0.7184	-0.04
Mof_H 	H 	0.0721	0.4395	0.6896	0.074
Mof_C 	C 	0.9486	0.36534	0.7466	-0.019
Mof_C 	C 	0.1845	0.34701	0.732	-0.016
Mof_C 	C 	0.9436	0.29521	0.7904	-0.113
Mof_H 	H 	0.8624	0.2772	0.811	0.085
Mof_C 	C 	0.18	0.27634	0.7749	-0.106
Mof_H 	H 	0.2578	0.2456	0.7843	0.088
Mof_C 	C 	0.0596	0.25212	0.8034	0.115
Mof_C 	C 	0.1393	0.2292	0.0511	-0.695
Mof_H 	H 	0.2325	0.2403	0.0419	0.24
Mof_H 	H 	0.0832	0.2734	0.0365	0.241
Mof_H 	H 	0.1398	0.2122	0.1285	0.254
Mof_C 	C 	0.0821	0.17118	0.9696	0.3
Mof_C 	C 	0.0054	0.11646	0.8093	0.111
Mof_C 	C 	0.9564	0.09742	0.6895	0.028
Mof_C 	C 	0.9499	0.14452	0.5977	-0.003
Mof_H 	H 	0.9874	0.1922	0.6099	0.043
Mof_C 	C 	0.8423	0.05704	0.4793	0.004
Mof_H 	H 	0.7969	0.0418	0.4065	0.051
Mof_C 	C 	0.8548	0.00818	0.5696	0.021
Mof_H 	H 	0.8216	0.9597	0.5566	0.045
Mof_N 	N 	0.05334	0.18127	0.85521	-0.19
Mof_N 	N 	0.0529	0.10324	0.99243	-0.15
Mof_N 	N 	0.0046	0.06868	0.8913	-0.107
Mof_N 	N 	0.9124	0.02841	0.67374	-0.118
Mof_N 	N 	0.8923	0.12448	0.4925	-0.1
Mof_O 	O 	0.8155	0.46963	0.6762	-0.243
Mof_O 	O 	0.71881	0.38256	0.76132	-0.279
Mof_O 	O 	0.3262	0.44243	0.68712	-0.263
Mof_O 	O 	0.41079	0.33123	0.69945	-0.255
Mof_Cd	Cd	0.95215	0.94825	0.83413	0.448
_end
