data_functionalizedCrystal
_audit_creation_method	'EQeq! by Chris Wilmer'
_symmetry_space_group_name_H-M	'P1'
_symmetry_Int_Tables_number	1
_symmetry_cell_setting	triclinic
loop_
_symmetry_equiv_pos_as_xyz
  x,y,z
_cell_length_a	13.6688
_cell_length_b	13.6688
_cell_length_c	19.3657
_cell_angle_alpha	96.2809
_cell_angle_beta	96.2809
_cell_angle_gamma	143.586
loop_
_atom_site_label
_atom_site_type_symbol
_atom_site_fract_x
_atom_site_fract_y
_atom_site_fract_z
_atom_site_charge
Mof_Zn	Zn	0.70516	0.6518	0.02887	1.222
Mof_Zn	Zn	0.62613	0.80173	0.99164	1.219
Mof_H 	H 	0.7081	0.5919	0.2593	0.14
Mof_H 	H 	0.7072	0.8576	0.3366	0.193
Mof_H 	H 	0.8246	0.9378	0.2863	0.192
Mof_H 	H 	0.1326	0.6204	0.8932	0.082
Mof_H 	H 	0.3277	0.6621	0.8873	-0.02
Mof_H 	H 	0.5812	0.9244	0.0951	-0.016
Mof_H 	H 	0.3946	0.894	0.1058	0.08
Mof_H 	H 	0.9307	0.5477	0.9081	0.074
Mof_H 	H 	0.7364	0.5042	0.9235	-0.01
Mof_H 	H 	0.0577	0.8665	0.1127	0.006
Mof_H 	H 	0.255	0.909	0.1051	0.076
Mof_C 	C 	0.69297	0.67933	0.18115	0.318
Mof_C 	C 	0.72316	0.6711	0.25763	-0.254
Mof_C 	C 	0.76573	0.75905	0.31809	0.153
Mof_C 	C 	0.7511	0.70566	0.38618	0.324
Mof_C 	C 	0.80591	0.90233	0.32962	-0.458
Mof_C 	C 	0.96969	0.06025	0.39737	0.5
Mof_C 	C 	0.22511	0.68551	0.93551	-0.156
Mof_C 	C 	0.34118	0.70928	0.93243	0.098
Mof_C 	C 	0.48949	0.86269	0.05329	0.101
Mof_C 	C 	0.37784	0.84498	0.06001	-0.156
Mof_C 	C 	0.24223	0.75645	0.00034	0.074
Mof_C 	C 	0.1165	0.73022	0.00606	0.052
Mof_C 	C 	0.95951	0.61283	0.95187	-0.128
Mof_C 	C 	0.84389	0.58909	0.96069	0.085
Mof_C 	C 	0.02951	0.79793	0.07092	0.085
Mof_C 	C 	0.14998	0.8251	0.06644	-0.149
Mof_N 	N 	0.47353	0.79681	0.9909	-0.276
Mof_N 	N 	0.8799	0.68238	0.02005	-0.242
Mof_O 	O 	0.63154	0.72022	0.17178	-0.294
Mof_O 	O 	0.7212	0.63238	0.13411	-0.417
Mof_O 	O 	0.78877	0.64681	0.39463	-0.466
Mof_O 	O 	0.70102	0.72204	0.42684	-0.461
Mof_O 	O 	0.07499	0.08279	0.41929	-0.495
Mof_O 	O 	0.98464	0.16108	0.4267	-0.51
Mof_O 	O 	0.52127	0.61461	0.02565	-0.76
Mof_H 	H 	0.38539	0.47873	0.42271	0.196
Mof_Zn	Zn	0.3482	0.29484	0.47113	1.221
Mof_Zn	Zn	0.19827	0.37387	0.50836	1.22
Mof_H 	H 	0.4081	0.2919	0.2407	0.14
Mof_H 	H 	0.1424	0.2928	0.1634	0.193
Mof_H 	H 	0.0622	0.1754	0.2137	0.191
Mof_H 	H 	0.3796	0.8674	0.6068	0.082
Mof_H 	H 	0.3379	0.6723	0.6127	-0.019
Mof_H 	H 	0.0756	0.4188	0.4049	-0.015
Mof_H 	H 	0.106	0.6054	0.3942	0.08
Mof_H 	H 	0.4523	0.0693	0.5919	0.074
Mof_H 	H 	0.4958	0.2636	0.5765	-0.01
Mof_H 	H 	0.1335	0.9423	0.3873	0.005
Mof_H 	H 	0.091	0.745	0.3949	0.076
Mof_C 	C 	0.32067	0.30703	0.31885	0.318
Mof_C 	C 	0.3289	0.27684	0.24237	-0.254
Mof_C 	C 	0.24095	0.23427	0.18191	0.152
Mof_C 	C 	0.29434	0.2489	0.11382	0.324
Mof_C 	C 	0.09767	0.19409	0.17038	-0.458
Mof_C 	C 	0.93975	0.03031	0.10263	0.499
Mof_C 	C 	0.31449	0.77489	0.56449	-0.154
Mof_C 	C 	0.29072	0.65882	0.56757	0.097
Mof_C 	C 	0.13731	0.51051	0.44671	0.099
Mof_C 	C 	0.15502	0.62216	0.43999	-0.155
Mof_C 	C 	0.24355	0.75777	0.49966	0.072
Mof_C 	C 	0.26978	0.8835	0.49394	0.052
Mof_C 	C 	0.38717	0.04049	0.54813	-0.128
Mof_C 	C 	0.41091	0.15611	0.53931	0.086
Mof_C 	C 	0.20207	0.97049	0.42908	0.085
Mof_C 	C 	0.1749	0.85002	0.43356	-0.15
Mof_N 	N 	0.20319	0.52647	0.5091	-0.275
Mof_N 	N 	0.31762	0.1201	0.47995	-0.243
Mof_O 	O 	0.27978	0.36846	0.32822	-0.294
Mof_O 	O 	0.36762	0.2788	0.36589	-0.417
Mof_O 	O 	0.35319	0.21123	0.10537	-0.466
Mof_O 	O 	0.27796	0.29898	0.07316	-0.461
Mof_O 	O 	0.91721	0.92501	0.08071	-0.494
Mof_O 	O 	0.83892	0.01536	0.0733	-0.51
Mof_O 	O 	0.38539	0.47873	0.47435	-0.761
Mof_H 	H 	0.52127	0.61461	0.07729	0.196
Mof_Zn	Zn	0.29484	0.3482	0.97113	1.222
Mof_Zn	Zn	0.37387	0.19827	0.00836	1.219
Mof_H 	H 	0.2919	0.4081	0.7407	0.14
Mof_H 	H 	0.2928	0.1424	0.6634	0.193
Mof_H 	H 	0.1754	0.0622	0.7137	0.192
Mof_H 	H 	0.8674	0.3796	0.1068	0.082
Mof_H 	H 	0.6723	0.3379	0.1127	-0.02
Mof_H 	H 	0.4188	0.0756	0.9049	-0.016
Mof_H 	H 	0.6054	0.106	0.8942	0.08
Mof_H 	H 	0.0693	0.4523	0.0919	0.074
Mof_H 	H 	0.2636	0.4958	0.0765	-0.01
Mof_H 	H 	0.9423	0.1335	0.8873	0.006
Mof_H 	H 	0.745	0.091	0.8949	0.076
Mof_C 	C 	0.30703	0.32067	0.81885	0.318
Mof_C 	C 	0.27684	0.3289	0.74237	-0.254
Mof_C 	C 	0.23427	0.24095	0.68191	0.153
Mof_C 	C 	0.2489	0.29434	0.61382	0.324
Mof_C 	C 	0.19409	0.09767	0.67038	-0.458
Mof_C 	C 	0.03031	0.93975	0.60263	0.5
Mof_C 	C 	0.77489	0.31449	0.06449	-0.156
Mof_C 	C 	0.65882	0.29072	0.06757	0.098
Mof_C 	C 	0.51051	0.13731	0.94671	0.101
Mof_C 	C 	0.62216	0.15502	0.93999	-0.156
Mof_C 	C 	0.75777	0.24355	0.99966	0.074
Mof_C 	C 	0.8835	0.26978	0.99394	0.052
Mof_C 	C 	0.04049	0.38717	0.04813	-0.128
Mof_C 	C 	0.15611	0.41091	0.03931	0.085
Mof_C 	C 	0.97049	0.20207	0.92908	0.085
Mof_C 	C 	0.85002	0.1749	0.93356	-0.149
Mof_N 	N 	0.52647	0.20319	0.0091	-0.276
Mof_N 	N 	0.1201	0.31762	0.97995	-0.242
Mof_O 	O 	0.36846	0.27978	0.82822	-0.294
Mof_O 	O 	0.2788	0.36762	0.86589	-0.417
Mof_O 	O 	0.21123	0.35319	0.60537	-0.466
Mof_O 	O 	0.29898	0.27796	0.57316	-0.461
Mof_O 	O 	0.92501	0.91721	0.58071	-0.495
Mof_O 	O 	0.01536	0.83892	0.5733	-0.51
Mof_O 	O 	0.47873	0.38539	0.97435	-0.76
Mof_H 	H 	0.61461	0.52127	0.57729	0.196
Mof_Zn	Zn	0.6518	0.70516	0.52887	1.221
Mof_Zn	Zn	0.80173	0.62613	0.49164	1.22
Mof_H 	H 	0.5919	0.7081	0.7593	0.14
Mof_H 	H 	0.8576	0.7072	0.8366	0.193
Mof_H 	H 	0.9378	0.8246	0.7863	0.191
Mof_H 	H 	0.6204	0.1326	0.3932	0.082
Mof_H 	H 	0.6621	0.3277	0.3873	-0.019
Mof_H 	H 	0.9244	0.5812	0.5951	-0.015
Mof_H 	H 	0.894	0.3946	0.6058	0.08
Mof_H 	H 	0.5477	0.9307	0.4081	0.074
Mof_H 	H 	0.5042	0.7364	0.4235	-0.01
Mof_H 	H 	0.8665	0.0577	0.6127	0.005
Mof_H 	H 	0.909	0.255	0.6051	0.076
Mof_C 	C 	0.67933	0.69297	0.68115	0.318
Mof_C 	C 	0.6711	0.72316	0.75763	-0.254
Mof_C 	C 	0.75905	0.76573	0.81809	0.152
Mof_C 	C 	0.70566	0.7511	0.88618	0.324
Mof_C 	C 	0.90233	0.80591	0.82962	-0.458
Mof_C 	C 	0.06025	0.96969	0.89737	0.499
Mof_C 	C 	0.68551	0.22511	0.43551	-0.154
Mof_C 	C 	0.70928	0.34118	0.43243	0.097
Mof_C 	C 	0.86269	0.48949	0.55329	0.099
Mof_C 	C 	0.84498	0.37784	0.56001	-0.155
Mof_C 	C 	0.75645	0.24223	0.50034	0.072
Mof_C 	C 	0.73022	0.1165	0.50606	0.052
Mof_C 	C 	0.61283	0.95951	0.45187	-0.128
Mof_C 	C 	0.58909	0.84389	0.46069	0.086
Mof_C 	C 	0.79793	0.02951	0.57092	0.085
Mof_C 	C 	0.8251	0.14998	0.56644	-0.15
Mof_N 	N 	0.79681	0.47353	0.4909	-0.275
Mof_N 	N 	0.68238	0.8799	0.52005	-0.243
Mof_O 	O 	0.72022	0.63154	0.67178	-0.294
Mof_O 	O 	0.63238	0.7212	0.63411	-0.417
Mof_O 	O 	0.64681	0.78877	0.89463	-0.466
Mof_O 	O 	0.72204	0.70102	0.92684	-0.461
Mof_O 	O 	0.08279	0.07499	0.91929	-0.494
Mof_O 	O 	0.16108	0.98464	0.9267	-0.51
Mof_O 	O 	0.61461	0.52127	0.52565	-0.761
Mof_H 	H 	0.47873	0.38539	0.92271	0.196
_end
