# CIF file generated by openbabel 3.1.0, see https://openbabel.org
data_I
_chemical_name_common 'image0'
_cell_length_a 17.4722
_cell_length_b 17.4722
_cell_length_c 14.4508
_cell_angle_alpha 90
_cell_angle_beta 90
_cell_angle_gamma 90
_space_group_name_H-M_alt 'P 1'
_space_group_name_Hall 'P 1'
loop_
    _symmetry_equiv_pos_as_xyz
    x,y,z
loop_
    _atom_site_label
    _atom_site_type_symbol
    _atom_site_fract_x
    _atom_site_fract_y
    _atom_site_fract_z
    _atom_site_occupancy
    Pb1      Pb       0.03376    0.87644    0.39710    1.000
    Pb2      Pb       0.59636    0.58766    0.25793    1.000
    O1       O        0.09240    0.98940    0.41690    1.000
    O2       O        0.12340    0.08750    0.50600    1.000
    O3       O        0.95950    0.06070    0.11780    1.000
    O4       O        0.02450    0.14380    0.03310    1.000
    O5       O        0.16160    0.30160    0.28360    1.000
    O6       O        0.94120    0.79490    0.33730    1.000
    O7       O        0.04430    0.73750    0.38680    1.000
    O8       O        0.71260    0.65290    0.25350    1.000
    O9       O        0.71610    0.53080    0.22260    1.000
    O10      O        0.98540    0.45450    0.34190    1.000
    O11      O        0.63490    0.54620    0.39540    1.000
    O12      O        0.53350    0.56170    0.48390    1.000
    O13      O        0.52930    0.40520    0.77890    1.000
    O14      O        0.63280    0.42300    0.86290    1.000
    O15      O        0.83470    0.43930    0.59890    1.000
    N1       N        0.19870    0.32590    0.04150    1.000
    N2       N        0.93560    0.36840    0.18330    1.000
    N3       N        0.97500    0.29640    0.61180    1.000
    C1       C        0.09800    0.11270    0.34670    1.000
    C2       C        0.05890    0.08810    0.26930    1.000
    H1       H        0.03620    0.04000    0.26820    1.000
    C3       C        0.05380    0.13630    0.19290    1.000
    C4       C        0.09020    0.20850    0.19470    1.000
    H2       H        0.08950    0.23960    0.14250    1.000
    C5       C        0.12680    0.23270    0.27380    1.000
    C6       C        0.13140    0.18430    0.35030    1.000
    H3       H        0.15680    0.20020    0.40350    1.000
    C7       C        0.10380    0.05870    0.42860    1.000
    C8       C        0.01030    0.11230    0.10890    1.000
    C9       C        0.16410    0.35370    0.20710    1.000
    H4       H        0.17710    0.40430    0.22970    1.000
    H5       H        0.11380    0.35650    0.17900    1.000
    C10      C        0.22040    0.33060    0.13630    1.000
    C11      C        0.29790    0.31570    0.15370    1.000
    H6       H        0.31660    0.31900    0.21380    1.000
    C12      C        0.34470    0.29680    0.08490    1.000
    H7       H        0.39480    0.28490    0.10110    1.000
    C13      C        0.32820    0.29310    0.99880    1.000
    H8       H        0.36420    0.28080    0.95380    1.000
    C14      C        0.25430    0.30850    0.97810    1.000
    H9       H        0.24010    0.30720    0.91610    1.000
    C15      C        0.94150    0.65800    0.33160    1.000
    C16      C        0.86880    0.65770    0.29590    1.000
    H10      H        0.84360    0.70360    0.28430    1.000
    C17      C        0.83300    0.58820    0.27710    1.000
    C18      C        0.86850    0.52060    0.29350    1.000
    H11      H        0.84290    0.47470    0.28310    1.000
    C19      C        0.94340    0.52030    0.32600    1.000
    C20      C        0.97990    0.58860    0.34740    1.000
    H12      H        0.02910    0.58840    0.37200    1.000
    C21      C        0.97950    0.73240    0.35240    1.000
    C22      C        0.75010    0.59080    0.24660    1.000
    C23      C        0.94600    0.38380    0.35840    1.000
    H13      H        0.89920    0.39470    0.39210    1.000
    H14      H        0.97780    0.35180    0.39760    1.000
    C24      C        0.92600    0.33980    0.27260    1.000
    C25      C        0.89620    0.26640    0.28040    1.000
    H15      H        0.88900    0.24440    0.33840    1.000
    C26      C        0.87750    0.22660    0.20190    1.000
    H16      H        0.85780    0.17750    0.20880    1.000
    C27      C        0.88560    0.25310    0.11860    1.000
    H17      H        0.87230    0.22430    0.06690    1.000
    C28      C        0.91320    0.32170    0.11110    1.000
    H18      H        0.91840    0.34120    0.05160    1.000
    C29      C        0.64200    0.50220    0.54920    1.000
    C30      C        0.60250    0.47910    0.63000    1.000
    H19      H        0.54990    0.48670    0.63420    1.000
    C31      C        0.64090    0.44570    0.70200    1.000
    C32      C        0.72070    0.43190    0.69650    1.000
    H20      H        0.74720    0.41030    0.74580    1.000
    C33      C        0.75810    0.45170    0.61500    1.000
    C34      C        0.71930    0.48620    0.54410    1.000
    H21      H        0.74580    0.49920    0.49060    1.000
    C35      C        0.59990    0.53980    0.47160    1.000
    C36      C        0.59850    0.42180    0.78720    1.000
    C37      C        0.87330    0.38680    0.65730    1.000
    H22      H        0.84410    0.33980    0.66200    1.000
    H23      H        0.87850    0.40830    0.71890    1.000
    C38      C        0.94920    0.37070    0.61850    1.000
    C39      C        0.99680    0.42700    0.58670    1.000
    H24      H        0.98240    0.47820    0.58700    1.000
    C40      C        0.07040    0.40280    0.55290    1.000
    H25      H        0.10360    0.44140    0.53410    1.000
    C41      C        0.09410    0.33780    0.54620    1.000
    H26      H        0.14210    0.32700    0.52150    1.000
    C42      C        0.04900    0.28430    0.57530    1.000
    H27      H        0.06660    0.23410    0.57190    1.000
    Pb3      Pb       0.96624    0.12356    0.89710    1.000
    Pb4      Pb       0.40365    0.41234    0.75793    1.000
    O16      O        0.90760    0.01060    0.91690    1.000
    O17      O        0.87660    0.91250    0.00600    1.000
    O18      O        0.04050    0.93930    0.61780    1.000
    O19      O        0.97550    0.85620    0.53310    1.000
    O20      O        0.83840    0.69840    0.78360    1.000
    O21      O        0.05880    0.20510    0.83730    1.000
    O22      O        0.95570    0.26250    0.88680    1.000
    O23      O        0.28740    0.34710    0.75350    1.000
    O24      O        0.28390    0.46920    0.72260    1.000
    O25      O        0.01460    0.54550    0.84190    1.000
    O26      O        0.36510    0.45380    0.89540    1.000
    O27      O        0.46650    0.43830    0.98390    1.000
    O28      O        0.47070    0.59480    0.27890    1.000
    O29      O        0.36720    0.57700    0.36290    1.000
    O30      O        0.16530    0.56070    0.09890    1.000
    N4       N        0.80130    0.67410    0.54150    1.000
    N5       N        0.06440    0.63160    0.68330    1.000
    N6       N        0.02500    0.70360    0.11180    1.000
    C43      C        0.90200    0.88730    0.84670    1.000
    C44      C        0.94110    0.91190    0.76930    1.000
    H28      H        0.96380    0.96000    0.76820    1.000
    C45      C        0.94620    0.86370    0.69290    1.000
    C46      C        0.90980    0.79150    0.69470    1.000
    H29      H        0.91050    0.76040    0.64250    1.000
    C47      C        0.87320    0.76730    0.77380    1.000
    C48      C        0.86860    0.81570    0.85030    1.000
    H30      H        0.84320    0.79980    0.90350    1.000
    C49      C        0.89620    0.94130    0.92860    1.000
    C50      C        0.98970    0.88770    0.60890    1.000
    C51      C        0.83590    0.64630    0.70710    1.000
    H31      H        0.82290    0.59570    0.72970    1.000
    H32      H        0.88620    0.64350    0.67900    1.000
    C52      C        0.77960    0.66940    0.63630    1.000
    C53      C        0.70210    0.68430    0.65370    1.000
    H33      H        0.68340    0.68100    0.71380    1.000
    C54      C        0.65530    0.70320    0.58490    1.000
    H34      H        0.60520    0.71510    0.60110    1.000
    C55      C        0.67180    0.70690    0.49880    1.000
    H35      H        0.63580    0.71920    0.45380    1.000
    C56      C        0.74570    0.69150    0.47810    1.000
    H36      H        0.75990    0.69280    0.41610    1.000
    C57      C        0.05850    0.34200    0.83160    1.000
    C58      C        0.13120    0.34230    0.79590    1.000
    H37      H        0.15640    0.29640    0.78430    1.000
    C59      C        0.16700    0.41180    0.77710    1.000
    C60      C        0.13150    0.47940    0.79350    1.000
    H38      H        0.15710    0.52530    0.78310    1.000
    C61      C        0.05660    0.47970    0.82600    1.000
    C62      C        0.02010    0.41140    0.84740    1.000
    H39      H        0.97090    0.41160    0.87200    1.000
    C63      C        0.02050    0.26760    0.85240    1.000
    C64      C        0.24990    0.40920    0.74660    1.000
    C65      C        0.05400    0.61620    0.85840    1.000
    H40      H        0.10080    0.60530    0.89210    1.000
    H41      H        0.02220    0.64820    0.89760    1.000
    C66      C        0.07400    0.66020    0.77260    1.000
    C67      C        0.10380    0.73360    0.78040    1.000
    H42      H        0.11100    0.75560    0.83840    1.000
    C68      C        0.12250    0.77340    0.70190    1.000
    H43      H        0.14220    0.82250    0.70880    1.000
    C69      C        0.11440    0.74690    0.61860    1.000
    H44      H        0.12770    0.77570    0.56690    1.000
    C70      C        0.08680    0.67830    0.61110    1.000
    H45      H        0.08160    0.65880    0.55160    1.000
    C71      C        0.35800    0.49780    0.04920    1.000
    C72      C        0.39750    0.52090    0.13000    1.000
    H46      H        0.45010    0.51330    0.13420    1.000
    C73      C        0.35910    0.55430    0.20200    1.000
    C74      C        0.27930    0.56810    0.19650    1.000
    H47      H        0.25280    0.58970    0.24580    1.000
    C75      C        0.24190    0.54830    0.11500    1.000
    C76      C        0.28070    0.51380    0.04410    1.000
    H48      H        0.25420    0.50080    0.99060    1.000
    C77      C        0.40010    0.46020    0.97160    1.000
    C78      C        0.40150    0.57820    0.28720    1.000
    C79      C        0.12670    0.61320    0.15730    1.000
    H49      H        0.15590    0.66020    0.16200    1.000
    H50      H        0.12150    0.59170    0.21890    1.000
    C80      C        0.05080    0.62930    0.11850    1.000
    C81      C        0.00320    0.57300    0.08670    1.000
    H51      H        0.01760    0.52180    0.08700    1.000
    C82      C        0.92960    0.59720    0.05290    1.000
    H52      H        0.89640    0.55860    0.03410    1.000
    C83      C        0.90590    0.66220    0.04620    1.000
    H53      H        0.85790    0.67300    0.02150    1.000
    C84      C        0.95100    0.71570    0.07530    1.000
    H54      H        0.93340    0.76590    0.07190    1.000
    Pb5      Pb       0.12356    0.03376    0.64710    1.000
    Pb6      Pb       0.41234    0.59636    0.50793    1.000
    O31      O        0.01060    0.09240    0.66690    1.000
    O32      O        0.91250    0.12340    0.75600    1.000
    O33      O        0.93930    0.95950    0.36780    1.000
    O34      O        0.85620    0.02450    0.28310    1.000
    O35      O        0.69840    0.16160    0.53360    1.000
    O36      O        0.20510    0.94120    0.58730    1.000
    O37      O        0.26250    0.04430    0.63680    1.000
    O38      O        0.34710    0.71260    0.50350    1.000
    O39      O        0.46920    0.71610    0.47260    1.000
    O40      O        0.54550    0.98540    0.59190    1.000
    O41      O        0.45380    0.63490    0.64540    1.000
    O42      O        0.43830    0.53350    0.73390    1.000
    O43      O        0.59480    0.52930    0.02890    1.000
    O44      O        0.57700    0.63280    0.11290    1.000
    O45      O        0.56070    0.83470    0.84890    1.000
    N7       N        0.67410    0.19870    0.29150    1.000
    N8       N        0.63160    0.93560    0.43330    1.000
    N9       N        0.70360    0.97500    0.86180    1.000
    C85      C        0.88730    0.09800    0.59670    1.000
    C86      C        0.91190    0.05890    0.51930    1.000
    H55      H        0.96000    0.03620    0.51820    1.000
    C87      C        0.86370    0.05380    0.44290    1.000
    C88      C        0.79150    0.09020    0.44470    1.000
    H56      H        0.76040    0.08950    0.39250    1.000
    C89      C        0.76730    0.12680    0.52380    1.000
    C90      C        0.81570    0.13140    0.60030    1.000
    H57      H        0.79980    0.15680    0.65350    1.000
    C91      C        0.94130    0.10380    0.67860    1.000
    C92      C        0.88770    0.01030    0.35890    1.000
    C93      C        0.64630    0.16410    0.45710    1.000
    H58      H        0.59570    0.17710    0.47970    1.000
    H59      H        0.64350    0.11380    0.42900    1.000
    C94      C        0.66940    0.22040    0.38630    1.000
    C95      C        0.68430    0.29790    0.40370    1.000
    H60      H        0.68100    0.31660    0.46380    1.000
    C96      C        0.70320    0.34470    0.33490    1.000
    H61      H        0.71510    0.39480    0.35110    1.000
    C97      C        0.70690    0.32820    0.24880    1.000
    H62      H        0.71920    0.36420    0.20380    1.000
    C98      C        0.69150    0.25430    0.22810    1.000
    H63      H        0.69280    0.24010    0.16610    1.000
    C99      C        0.34200    0.94150    0.58160    1.000
    C100     C        0.34230    0.86880    0.54590    1.000
    H64      H        0.29640    0.84360    0.53430    1.000
    C101     C        0.41180    0.83300    0.52710    1.000
    C102     C        0.47940    0.86850    0.54350    1.000
    H65      H        0.52530    0.84290    0.53310    1.000
    C103     C        0.47970    0.94340    0.57600    1.000
    C104     C        0.41140    0.97990    0.59740    1.000
    H66      H        0.41160    0.02910    0.62200    1.000
    C105     C        0.26760    0.97950    0.60240    1.000
    C106     C        0.40920    0.75010    0.49660    1.000
    C107     C        0.61620    0.94600    0.60840    1.000
    H67      H        0.60530    0.89920    0.64210    1.000
    H68      H        0.64820    0.97780    0.64760    1.000
    C108     C        0.66020    0.92600    0.52260    1.000
    C109     C        0.73360    0.89620    0.53040    1.000
    H69      H        0.75560    0.88900    0.58840    1.000
    C110     C        0.77340    0.87750    0.45190    1.000
    H70      H        0.82250    0.85780    0.45880    1.000
    C111     C        0.74690    0.88560    0.36860    1.000
    H71      H        0.77570    0.87230    0.31690    1.000
    C112     C        0.67830    0.91320    0.36110    1.000
    H72      H        0.65880    0.91840    0.30160    1.000
    C113     C        0.49780    0.64200    0.79920    1.000
    C114     C        0.52090    0.60250    0.88000    1.000
    H73      H        0.51330    0.54990    0.88420    1.000
    C115     C        0.55430    0.64090    0.95200    1.000
    C116     C        0.56810    0.72070    0.94650    1.000
    H74      H        0.58970    0.74720    0.99580    1.000
    C117     C        0.54830    0.75810    0.86500    1.000
    C118     C        0.51380    0.71930    0.79410    1.000
    H75      H        0.50080    0.74580    0.74060    1.000
    C119     C        0.46020    0.59990    0.72160    1.000
    C120     C        0.57820    0.59850    0.03720    1.000
    C121     C        0.61320    0.87330    0.90730    1.000
    H76      H        0.66020    0.84410    0.91200    1.000
    H77      H        0.59170    0.87850    0.96890    1.000
    C122     C        0.62930    0.94920    0.86850    1.000
    C123     C        0.57300    0.99680    0.83670    1.000
    H78      H        0.52180    0.98240    0.83700    1.000
    C124     C        0.59720    0.07040    0.80290    1.000
    H79      H        0.55860    0.10360    0.78410    1.000
    C125     C        0.66220    0.09410    0.79620    1.000
    H80      H        0.67300    0.14210    0.77150    1.000
    C126     C        0.71570    0.04900    0.82530    1.000
    H81      H        0.76590    0.06660    0.82190    1.000
    Pb7      Pb       0.87644    0.96624    0.14710    1.000
    Pb8      Pb       0.58766    0.40365    0.00793    1.000
    O46      O        0.98940    0.90760    0.16690    1.000
    O47      O        0.08750    0.87660    0.25600    1.000
    O48      O        0.06070    0.04050    0.86780    1.000
    O49      O        0.14380    0.97550    0.78310    1.000
    O50      O        0.30160    0.83840    0.03360    1.000
    O51      O        0.79490    0.05880    0.08730    1.000
    O52      O        0.73750    0.95570    0.13680    1.000
    O53      O        0.65290    0.28740    0.00350    1.000
    O54      O        0.53080    0.28390    0.97260    1.000
    O55      O        0.45450    0.01460    0.09190    1.000
    O56      O        0.54620    0.36510    0.14540    1.000
    O57      O        0.56170    0.46650    0.23390    1.000
    O58      O        0.40520    0.47070    0.52890    1.000
    O59      O        0.42300    0.36720    0.61290    1.000
    O60      O        0.43930    0.16530    0.34890    1.000
    N10      N        0.32590    0.80130    0.79150    1.000
    N11      N        0.36840    0.06440    0.93330    1.000
    N12      N        0.29640    0.02500    0.36180    1.000
    C127     C        0.11270    0.90200    0.09670    1.000
    C128     C        0.08810    0.94110    0.01930    1.000
    H82      H        0.04000    0.96380    0.01820    1.000
    C129     C        0.13630    0.94620    0.94290    1.000
    C130     C        0.20850    0.90980    0.94470    1.000
    H83      H        0.23960    0.91050    0.89250    1.000
    C131     C        0.23270    0.87320    0.02380    1.000
    C132     C        0.18430    0.86860    0.10030    1.000
    H84      H        0.20020    0.84320    0.15350    1.000
    C133     C        0.05870    0.89620    0.17860    1.000
    C134     C        0.11230    0.98970    0.85890    1.000
    C135     C        0.35370    0.83590    0.95710    1.000
    H85      H        0.40430    0.82290    0.97970    1.000
    H86      H        0.35650    0.88620    0.92900    1.000
    C136     C        0.33060    0.77960    0.88630    1.000
    C137     C        0.31570    0.70210    0.90370    1.000
    H87      H        0.31900    0.68340    0.96380    1.000
    C138     C        0.29680    0.65530    0.83490    1.000
    H88      H        0.28490    0.60520    0.85110    1.000
    C139     C        0.29310    0.67180    0.74880    1.000
    H89      H        0.28080    0.63580    0.70380    1.000
    C140     C        0.30850    0.74570    0.72810    1.000
    H90      H        0.30720    0.75990    0.66610    1.000
    C141     C        0.65800    0.05850    0.08160    1.000
    C142     C        0.65770    0.13120    0.04590    1.000
    H91      H        0.70360    0.15640    0.03430    1.000
    C143     C        0.58820    0.16700    0.02710    1.000
    C144     C        0.52060    0.13150    0.04350    1.000
    H92      H        0.47470    0.15710    0.03310    1.000
    C145     C        0.52030    0.05660    0.07600    1.000
    C146     C        0.58860    0.02010    0.09740    1.000
    H93      H        0.58840    0.97090    0.12200    1.000
    C147     C        0.73240    0.02050    0.10240    1.000
    C148     C        0.59080    0.24990    0.99660    1.000
    C149     C        0.38380    0.05400    0.10840    1.000
    H94      H        0.39470    0.10080    0.14210    1.000
    H95      H        0.35180    0.02220    0.14760    1.000
    C150     C        0.33980    0.07400    0.02260    1.000
    C151     C        0.26640    0.10380    0.03040    1.000
    H96      H        0.24440    0.11100    0.08840    1.000
    C152     C        0.22660    0.12250    0.95190    1.000
    H97      H        0.17750    0.14220    0.95880    1.000
    C153     C        0.25310    0.11440    0.86860    1.000
    H98      H        0.22430    0.12770    0.81690    1.000
    C154     C        0.32170    0.08680    0.86110    1.000
    H99      H        0.34120    0.08160    0.80160    1.000
    C155     C        0.50220    0.35800    0.29920    1.000
    C156     C        0.47910    0.39750    0.38000    1.000
    H100     H        0.48670    0.45010    0.38420    1.000
    C157     C        0.44570    0.35910    0.45200    1.000
    C158     C        0.43190    0.27930    0.44650    1.000
    H101     H        0.41030    0.25280    0.49580    1.000
    C159     C        0.45170    0.24190    0.36500    1.000
    C160     C        0.48620    0.28070    0.29410    1.000
    H102     H        0.49920    0.25420    0.24060    1.000
    C161     C        0.53980    0.40010    0.22160    1.000
    C162     C        0.42180    0.40150    0.53720    1.000
    C163     C        0.38680    0.12670    0.40730    1.000
    H103     H        0.33980    0.15590    0.41200    1.000
    H104     H        0.40830    0.12150    0.46890    1.000
    C164     C        0.37070    0.05080    0.36850    1.000
    C165     C        0.42700    0.00320    0.33670    1.000
    H105     H        0.47820    0.01760    0.33700    1.000
    C166     C        0.40280    0.92960    0.30290    1.000
    H106     H        0.44140    0.89640    0.28410    1.000
    C167     C        0.33780    0.90590    0.29620    1.000
    H107     H        0.32700    0.85790    0.27150    1.000
    C168     C        0.28430    0.95100    0.32530    1.000
    H108     H        0.23410    0.93340    0.32190    1.000
