# CIF file generated by openbabel 3.1.0, see https://openbabel.org
data_I
_chemical_name_common 'image0'
_cell_length_a 19.2491
_cell_length_b 9.275
_cell_length_c 9.7019
_cell_angle_alpha 90
_cell_angle_beta 93.793
_cell_angle_gamma 90
_space_group_name_H-M_alt 'P 1'
_space_group_name_Hall 'P 1'
loop_
    _symmetry_equiv_pos_as_xyz
    x,y,z
loop_
    _atom_site_label
    _atom_site_type_symbol
    _atom_site_fract_x
    _atom_site_fract_y
    _atom_site_fract_z
    _atom_site_occupancy
    P1       P        0.83650    0.15980    0.52270    1.000
    P2       P        0.94810    0.84440    0.21750    1.000
    P3       P        0.58030    0.89890    0.39720    1.000
    P4       P        0.60080    0.15160    0.77890    1.000
    Al1      Al       0.94230    0.92230    0.51170    1.000
    Al2      Al       0.91950    0.15720    0.26690    1.000
    Al3      Al       0.67160    0.15100    0.49040    1.000
    Al4      Al       0.46130    0.14420    0.30290    1.000
    O1       O        0.86890    0.01380    0.56610    1.000
    O2       O        0.84060    0.17950    0.36580    1.000
    O3       O        0.75930    0.14680    0.54080    1.000
    O4       O        0.87120    0.28480    0.60680    1.000
    O5       O        0.92100    0.80790    0.35880    1.000
    O6       O        0.91830    0.73580    0.11080    1.000
    O7       O        0.02710    0.82480    0.22540    1.000
    O8       O        0.93810    0.99730    0.15910    1.000
    O9       O        0.51740    0.99750    0.36690    1.000
    O10      O        0.58200    0.83200    0.54230    1.000
    O11      O        0.59300    0.78460    0.28690    1.000
    O12      O        0.64520    0.99630    0.39690    1.000
    O13      O        0.53750    0.24450    0.79800    1.000
    O14      O        0.62130    0.18150    0.62990    1.000
    O15      O        0.58540    0.99290    0.80960    1.000
    O16      O        0.65700    0.19240    0.89150    1.000
    O17      O        0.97100    0.07630    0.41070    1.000
    P5       P        0.16350    0.65980    0.97730    1.000
    P6       P        0.05190    0.34440    0.28250    1.000
    P7       P        0.41970    0.39890    0.10280    1.000
    P8       P        0.39920    0.65160    0.72110    1.000
    Al5      Al       0.05770    0.42230    0.98830    1.000
    Al6      Al       0.08050    0.65720    0.23310    1.000
    Al7      Al       0.32840    0.65100    0.00960    1.000
    Al8      Al       0.53870    0.64420    0.19710    1.000
    O18      O        0.13110    0.51380    0.93390    1.000
    O19      O        0.15940    0.67950    0.13420    1.000
    O20      O        0.24070    0.64680    0.95920    1.000
    O21      O        0.12880    0.78480    0.89320    1.000
    O22      O        0.07900    0.30790    0.14120    1.000
    O23      O        0.08170    0.23580    0.38920    1.000
    O24      O        0.97290    0.32480    0.27460    1.000
    O25      O        0.06190    0.49730    0.34090    1.000
    O26      O        0.48260    0.49750    0.13310    1.000
    O27      O        0.41800    0.33200    0.95770    1.000
    O28      O        0.40700    0.28460    0.21310    1.000
    O29      O        0.35480    0.49630    0.10310    1.000
    O30      O        0.46250    0.74450    0.70200    1.000
    O31      O        0.37870    0.68150    0.87010    1.000
    O32      O        0.41460    0.49290    0.69040    1.000
    O33      O        0.34300    0.69240    0.60850    1.000
    O34      O        0.02900    0.57630    0.08930    1.000
    P9       P        0.16350    0.84020    0.47730    1.000
    P10      P        0.05190    0.15560    0.78250    1.000
    P11      P        0.41970    0.10110    0.60280    1.000
    P12      P        0.39920    0.84840    0.22110    1.000
    Al9      Al       0.05770    0.07770    0.48830    1.000
    Al10     Al       0.08050    0.84280    0.73310    1.000
    Al11     Al       0.32840    0.84900    0.50960    1.000
    Al12     Al       0.53870    0.85580    0.69710    1.000
    O35      O        0.13110    0.98620    0.43390    1.000
    O36      O        0.15940    0.82050    0.63420    1.000
    O37      O        0.24070    0.85320    0.45920    1.000
    O38      O        0.12880    0.71520    0.39320    1.000
    O39      O        0.07900    0.19210    0.64120    1.000
    O40      O        0.08170    0.26420    0.88920    1.000
    O41      O        0.97290    0.17520    0.77460    1.000
    O42      O        0.06190    0.00270    0.84090    1.000
    O43      O        0.48260    0.00250    0.63310    1.000
    O44      O        0.41800    0.16800    0.45770    1.000
    O45      O        0.40700    0.21540    0.71310    1.000
    O46      O        0.35480    0.00370    0.60310    1.000
    O47      O        0.46250    0.75550    0.20200    1.000
    O48      O        0.37870    0.81850    0.37010    1.000
    O49      O        0.41460    0.00710    0.19040    1.000
    O50      O        0.34300    0.80760    0.10850    1.000
    O51      O        0.02900    0.92370    0.58930    1.000
    P13      P        0.83650    0.34020    0.02270    1.000
    P14      P        0.94810    0.65560    0.71750    1.000
    P15      P        0.58030    0.60110    0.89720    1.000
    P16      P        0.60080    0.34840    0.27890    1.000
    Al13     Al       0.94230    0.57770    0.01170    1.000
    Al14     Al       0.91950    0.34280    0.76690    1.000
    Al15     Al       0.67160    0.34900    0.99040    1.000
    Al16     Al       0.46130    0.35580    0.80290    1.000
    O52      O        0.86890    0.48620    0.06610    1.000
    O53      O        0.84060    0.32050    0.86580    1.000
    O54      O        0.75930    0.35320    0.04080    1.000
    O55      O        0.87120    0.21520    0.10680    1.000
    O56      O        0.92100    0.69210    0.85880    1.000
    O57      O        0.91830    0.76420    0.61080    1.000
    O58      O        0.02710    0.67520    0.72540    1.000
    O59      O        0.93810    0.50270    0.65910    1.000
    O60      O        0.51740    0.50250    0.86690    1.000
    O61      O        0.58200    0.66800    0.04230    1.000
    O62      O        0.59300    0.71540    0.78690    1.000
    O63      O        0.64520    0.50370    0.89690    1.000
    O64      O        0.53750    0.25550    0.29800    1.000
    O65      O        0.62130    0.31850    0.12990    1.000
    O66      O        0.58540    0.50710    0.30960    1.000
    O67      O        0.65700    0.30760    0.39150    1.000
    O68      O        0.97100    0.42370    0.91070    1.000
