data_functionalizedCrystal
_audit_creation_method	'EQeq! by Chris Wilmer'
_symmetry_space_group_name_H-M	'P1'
_symmetry_Int_Tables_number	1
_symmetry_cell_setting	triclinic
loop_
_symmetry_equiv_pos_as_xyz
  x,y,z
_cell_length_a	18.812
_cell_length_b	18.812
_cell_length_c	34.892
_cell_angle_alpha	90
_cell_angle_beta	90
_cell_angle_gamma	120
loop_
_atom_site_label
_atom_site_type_symbol
_atom_site_fract_x
_atom_site_fract_y
_atom_site_fract_z
_atom_site_charge
Mof_C 	C 	0.2276	0.1718	0.9325	-0.065
Mof_H 	H 	0.2078	0.1994	0.9169	0.036
Mof_C 	C 	0.3086	0.2121	0.9469	0.001
Mof_H 	H 	0.3431	0.2691	0.9421	0.021
Mof_C 	C 	0.2866	0.0948	0.983	-0.007
Mof_H 	H 	0.3013	0.0725	0.0039	0.027
Mof_C 	C 	0.2104	0.0529	0.9665	-0.05
Mof_H 	H 	0.1777	0.9958	0.9716	0.039
Mof_C 	C 	0.0339	0.9643	0.8063	0.194
Mof_H 	H 	0.0583	0.9386	0.8203	-0.046
Mof_C 	C 	0.0349	0.9631	0.7683	0.184
Mof_H 	H 	0.06	0.9365	0.7557	-0.016
Mof_C 	C 	0.2102	0.157	0.9667	0.001
Mof_H 	H 	0.1764	0.1796	0.973	0.018
Mof_C 	C 	0.2876	0.1932	0.9822	-0.043
Mof_H 	H 	0.3039	0.2334	0.0018	0.029
Mof_C 	C 	0.308	0.0956	0.9472	-0.025
Mof_H 	H 	0.3423	0.0729	0.9424	0.027
Mof_C 	C 	0.2266	0.0543	0.9328	-0.029
Mof_H 	H 	0.2061	0.0062	0.9175	0.017
Mof_C 	C 	0.9616	0.0388	0.7649	-0.253
Mof_H 	H 	0.9376	0.0643	0.7505	0.121
Mof_C 	C 	0.9593	0.0391	0.8056	-0.198
Mof_H 	H 	0.9331	0.0632	0.8194	0.079
Mof_C 	C 	0.0436	0.9558	0.94289	-0.302
Mof_H 	H 	0.0723	0.9268	0.934	0.109
Mof_H 	H 	0.0437	0.9557	0.9713	0.107
Mof_C 	C 	0.09	0.0447	0.9285	0.19
Mof_C 	C 	0.087	0.0436	0.88357	-0.325
Mof_H 	H 	0.1156	0.1007	0.8738	0.113
Mof_H 	H 	0.116	0.0158	0.8736	0.112
Mof_C 	C 	0.1781	0.0892	0.94254	-0.039
Mof_C 	C 	0.3399	0.1695	0.96835	-0.063
Mof_O 	O 	0.4825	0.1746	0.9694	-0.41
Mof_O 	O 	0.4842	0.3084	0.9694	-0.424
Mof_O 	O 	0.4437	0.2211	0.0314	-0.427
Mof_H 	H 	0.4224	0.248	0.0397	0.226
Mof_O 	O 	0.95682	0.91283	0.68244	-0.394
Mof_P 	P 	0.44372	0.2221	0.987	0.434
Mof_Cu	Cu	0.59404	0.18806	0.96703	0.855
Mof_C 	C 	0.89427	0.50513	0.26583	-0.036
Mof_H 	H 	0.87447	0.53273	0.25023	0.026
Mof_C 	C 	0.97527	0.54543	0.28023	-0.007
Mof_H 	H 	0.00977	0.60243	0.27543	0.019
Mof_C 	C 	0.95327	0.42813	0.31633	-0.062
Mof_H 	H 	0.96797	0.40583	0.33723	0.049
Mof_C 	C 	0.87707	0.38623	0.29983	0.017
Mof_H 	H 	0.84437	0.32913	0.30493	0.013
Mof_C 	C 	0.70057	0.29763	0.13963	0.165
Mof_H 	H 	0.72497	0.27193	0.15363	-0.038
Mof_C 	C 	0.70157	0.29643	0.10163	0.163
Mof_H 	H 	0.72667	0.26983	0.08903	-0.01
Mof_C 	C 	0.87687	0.49033	0.30003	-0.05
Mof_H 	H 	0.84307	0.51293	0.30633	0.035
Mof_C 	C 	0.95427	0.52653	0.31553	0.008
Mof_H 	H 	0.97057	0.56673	0.33513	0.014
Mof_C 	C 	0.97467	0.42893	0.28053	0.05
Mof_H 	H 	0.00897	0.40623	0.27573	-0.001
Mof_C 	C 	0.89327	0.38763	0.26613	-0.099
Mof_H 	H 	0.87277	0.33953	0.25083	0.046
Mof_C 	C 	0.62827	0.37213	0.09823	-0.227
Mof_H 	H 	0.60427	0.39763	0.08383	0.112
Mof_C 	C 	0.62597	0.37243	0.13893	-0.189
Mof_H 	H 	0.59977	0.39653	0.15273	0.075
Mof_C 	C 	0.71027	0.28913	0.27622	-0.31
Mof_H 	H 	0.73897	0.26013	0.26733	0.111
Mof_H 	H 	0.71037	0.28903	0.30463	0.108
Mof_C 	C 	0.75667	0.37803	0.26183	0.197
Mof_C 	C 	0.75367	0.37693	0.2169	-0.333
Mof_H 	H 	0.78227	0.43403	0.20713	0.117
Mof_H 	H 	0.78267	0.34913	0.20693	0.117
Mof_C 	C 	0.84477	0.42253	0.27587	-0.032
Mof_C 	C 	0.00657	0.50283	0.30168	-0.092
Mof_O 	O 	0.14917	0.50793	0.30273	-0.41
Mof_O 	O 	0.15087	0.64173	0.30273	-0.425
Mof_O 	O 	0.11037	0.55443	0.36473	-0.428
Mof_H 	H 	0.08907	0.58133	0.37303	0.226
Mof_O 	O 	0.62349	0.24616	0.01577	-0.404
Mof_P 	P 	0.11039	0.55543	0.32033	0.438
Mof_Cu	Cu	0.26071	0.52139	0.30036	0.856
Mof_C 	C 	0.56093	0.83847	0.59917	-0.015
Mof_H 	H 	0.54113	0.86607	0.58357	0.018
Mof_C 	C 	0.64193	0.87877	0.61357	-0.042
Mof_H 	H 	0.67643	0.93577	0.60877	0.037
Mof_C 	C 	0.61993	0.76147	0.64967	-0.071
Mof_H 	H 	0.63463	0.73917	0.67057	0.05
Mof_C 	C 	0.54373	0.71957	0.63317	0.024
Mof_H 	H 	0.51103	0.66247	0.63827	0.011
Mof_C 	C 	0.36723	0.63097	0.47297	0.165
Mof_H 	H 	0.39163	0.60527	0.48697	-0.038
Mof_C 	C 	0.36823	0.62977	0.43497	0.163
Mof_H 	H 	0.39333	0.60317	0.42237	-0.011
Mof_C 	C 	0.54353	0.82367	0.63337	-0.049
Mof_H 	H 	0.50973	0.84627	0.63967	0.034
Mof_C 	C 	0.62093	0.85987	0.64887	0.006
Mof_H 	H 	0.63723	0.90007	0.66847	0.013
Mof_C 	C 	0.64133	0.76227	0.61387	0.02
Mof_H 	H 	0.67563	0.73957	0.60907	0.015
Mof_C 	C 	0.55993	0.72097	0.59947	-0.084
Mof_H 	H 	0.53943	0.67287	0.58417	0.04
Mof_C 	C 	0.29493	0.70547	0.43157	-0.226
Mof_H 	H 	0.27093	0.73097	0.41717	0.112
Mof_C 	C 	0.29263	0.70577	0.47227	-0.189
Mof_H 	H 	0.26643	0.72987	0.48607	0.076
Mof_C 	C 	0.37693	0.62247	0.60956	-0.31
Mof_H 	H 	0.40563	0.59347	0.60067	0.111
Mof_H 	H 	0.37703	0.62237	0.63797	0.108
Mof_C 	C 	0.42333	0.71137	0.59517	0.202
Mof_C 	C 	0.42033	0.71027	0.55024	-0.335
Mof_H 	H 	0.44893	0.76737	0.54047	0.117
Mof_H 	H 	0.44933	0.68247	0.54027	0.117
Mof_C 	C 	0.51143	0.75587	0.60921	-0.047
Mof_C 	C 	0.67323	0.83617	0.63502	-0.058
Mof_O 	O 	0.81583	0.84127	0.63607	-0.407
Mof_O 	O 	0.81753	0.97507	0.63607	-0.42
Mof_O 	O 	0.77703	0.88777	0.69807	-0.425
Mof_H 	H 	0.75573	0.91467	0.70637	0.228
Mof_O 	O 	0.29015	0.5795	0.34911	-0.404
Mof_P 	P 	0.77705	0.88877	0.65367	0.434
Mof_Cu	Cu	0.92737	0.85473	0.6337	0.858
Mof_C 	C 	0.8282	0.0558	0.9325	0.08
Mof_H 	H 	0.8006	0.0084	0.9169	-0.018
Mof_C 	C 	0.7879	0.0965	0.9469	-0.124
Mof_H 	H 	0.7309	0.074	0.9421	0.06
Mof_C 	C 	0.9052	0.1918	0.983	-0.173
Mof_H 	H 	0.9275	0.2288	0.0039	0.086
Mof_C 	C 	0.9471	0.1575	0.9665	0.135
Mof_H 	H 	0.0042	0.1819	0.9716	-0.029
Mof_C 	C 	0.0357	0.0696	0.8063	0.197
Mof_H 	H 	0.0614	0.1197	0.8203	-0.049
Mof_C 	C 	0.0369	0.0718	0.7683	0.169
Mof_H 	H 	0.0635	0.1235	0.7557	-0.013
Mof_C 	C 	0.843	0.0532	0.9667	-0.159
Mof_H 	H 	0.8204	0.9968	0.973	0.073
Mof_C 	C 	0.8068	0.0944	0.9822	0.108
Mof_H 	H 	0.7666	0.0705	0.0018	-0.023
Mof_C 	C 	0.9044	0.2124	0.9472	0.098
Mof_H 	H 	0.9271	0.2694	0.9424	-0.009
Mof_C 	C 	0.9457	0.1723	0.9328	-0.181
Mof_H 	H 	0.9938	0.1999	0.9175	0.076
Mof_C 	C 	0.9612	0.9228	0.7649	-0.257
Mof_H 	H 	0.9357	0.8733	0.7505	0.124
Mof_C 	C 	0.9609	0.9202	0.8056	-0.191
Mof_H 	H 	0.9368	0.8699	0.8194	0.078
Mof_C 	C 	0.0442	0.0878	0.94289	-0.31
Mof_H 	H 	0.0732	0.1455	0.934	0.11
Mof_H 	H 	0.0443	0.088	0.9713	0.107
Mof_C 	C 	0.9553	0.0453	0.9285	0.197
Mof_C 	C 	0.9564	0.0434	0.88357	-0.321
Mof_H 	H 	0.8993	0.0149	0.8738	0.112
Mof_H 	H 	0.9842	0.1002	0.8736	0.116
Mof_C 	C 	0.9108	0.0889	0.94254	-0.046
Mof_C 	C 	0.8305	0.1704	0.96835	-0.058
Mof_O 	O 	0.8254	0.3079	0.9694	-0.407
Mof_O 	O 	0.6916	0.1758	0.9694	-0.425
Mof_O 	O 	0.7789	0.2226	0.0314	-0.426
Mof_H 	H 	0.752	0.1744	0.0397	0.226
Mof_O 	O 	0.08717	0.04399	0.68244	-0.405
Mof_P 	P 	0.7779	0.22162	0.987	0.433
Mof_Cu	Cu	0.81194	0.40598	0.96703	0.857
Mof_C 	C 	0.49487	0.38913	0.26583	-0.015
Mof_H 	H 	0.46727	0.34173	0.25023	0.017
Mof_C 	C 	0.45457	0.42983	0.28023	-0.043
Mof_H 	H 	0.39757	0.40733	0.27543	0.035
Mof_C 	C 	0.57187	0.52513	0.31633	-0.071
Mof_H 	H 	0.59417	0.56213	0.33723	0.05
Mof_C 	C 	0.61377	0.49083	0.29983	0.025
Mof_H 	H 	0.67087	0.51523	0.30493	0.01
Mof_C 	C 	0.70237	0.40293	0.13963	0.166
Mof_H 	H 	0.72807	0.45303	0.15363	-0.038
Mof_C 	C 	0.70357	0.40513	0.10163	0.162
Mof_H 	H 	0.73017	0.45683	0.08903	-0.01
Mof_C 	C 	0.50967	0.38653	0.30003	-0.049
Mof_H 	H 	0.48707	0.33013	0.30633	0.034
Mof_C 	C 	0.47347	0.42773	0.31553	0.007
Mof_H 	H 	0.43327	0.40383	0.33513	0.012
Mof_C 	C 	0.57107	0.54573	0.28053	0.02
Mof_H 	H 	0.59377	0.60273	0.27573	0.014
Mof_C 	C 	0.61237	0.50563	0.26613	-0.085
Mof_H 	H 	0.66047	0.53323	0.25083	0.04
Mof_C 	C 	0.62787	0.25613	0.09823	-0.227
Mof_H 	H 	0.60237	0.20663	0.08383	0.111
Mof_C 	C 	0.62757	0.25353	0.13893	-0.188
Mof_H 	H 	0.60347	0.20323	0.15273	0.075
Mof_C 	C 	0.71087	0.42113	0.27622	-0.308
Mof_H 	H 	0.73987	0.47883	0.26733	0.11
Mof_H 	H 	0.71097	0.42133	0.30463	0.108
Mof_C 	C 	0.62197	0.37863	0.26183	0.202
Mof_C 	C 	0.62307	0.37673	0.2169	-0.334
Mof_H 	H 	0.56597	0.34823	0.20713	0.117
Mof_H 	H 	0.65087	0.43353	0.20693	0.117
Mof_C 	C 	0.57747	0.42223	0.27587	-0.047
Mof_C 	C 	0.49717	0.50373	0.30168	-0.059
Mof_O 	O 	0.49207	0.64123	0.30273	-0.408
Mof_O 	O 	0.35827	0.50913	0.30273	-0.424
Mof_O 	O 	0.44557	0.55593	0.36473	-0.426
Mof_H 	H 	0.41867	0.50773	0.37303	0.226
Mof_O 	O 	0.75384	0.37732	0.01577	-0.404
Mof_P 	P 	0.44457	0.55495	0.32033	0.433
Mof_Cu	Cu	0.47861	0.73931	0.30036	0.856
Mof_C 	C 	0.16153	0.72247	0.59917	-0.014
Mof_H 	H 	0.13393	0.67507	0.58357	0.017
Mof_C 	C 	0.12123	0.76317	0.61357	-0.043
Mof_H 	H 	0.06423	0.74067	0.60877	0.034
Mof_C 	C 	0.23853	0.85847	0.64967	-0.072
Mof_H 	H 	0.26083	0.89547	0.67057	0.051
Mof_C 	C 	0.28043	0.82417	0.63317	0.025
Mof_H 	H 	0.33753	0.84857	0.63827	0.01
Mof_C 	C 	0.36903	0.73627	0.47297	0.167
Mof_H 	H 	0.39473	0.78637	0.48697	-0.038
Mof_C 	C 	0.37023	0.73847	0.43497	0.161
Mof_H 	H 	0.39683	0.79017	0.42237	-0.009
Mof_C 	C 	0.17633	0.71987	0.63337	-0.05
Mof_H 	H 	0.15373	0.66347	0.63967	0.034
Mof_C 	C 	0.14013	0.76107	0.64887	0.007
Mof_H 	H 	0.09993	0.73717	0.66847	0.011
Mof_C 	C 	0.23773	0.87907	0.61387	0.02
Mof_H 	H 	0.26043	0.93607	0.60907	0.015
Mof_C 	C 	0.27903	0.83897	0.59947	-0.086
Mof_H 	H 	0.32713	0.86657	0.58417	0.041
Mof_C 	C 	0.29453	0.58947	0.43157	-0.228
Mof_H 	H 	0.26903	0.53997	0.41717	0.112
Mof_C 	C 	0.29423	0.58687	0.47227	-0.187
Mof_H 	H 	0.27013	0.53657	0.48607	0.075
Mof_C 	C 	0.37753	0.75447	0.60956	-0.311
Mof_H 	H 	0.40653	0.81217	0.60067	0.111
Mof_H 	H 	0.37763	0.75467	0.63797	0.109
Mof_C 	C 	0.28863	0.71197	0.59517	0.202
Mof_C 	C 	0.28973	0.71007	0.55024	-0.334
Mof_H 	H 	0.23263	0.68157	0.54047	0.117
Mof_H 	H 	0.31753	0.76687	0.54027	0.118
Mof_C 	C 	0.24413	0.75557	0.60921	-0.047
Mof_C 	C 	0.16383	0.83707	0.63502	-0.059
Mof_O 	O 	0.15873	0.97457	0.63607	-0.406
Mof_O 	O 	0.02493	0.84247	0.63607	-0.426
Mof_O 	O 	0.11223	0.88927	0.69807	-0.424
Mof_H 	H 	0.08533	0.84107	0.70637	0.225
Mof_O 	O 	0.4205	0.71066	0.34911	-0.404
Mof_P 	P 	0.11123	0.88829	0.65367	0.433
Mof_Cu	Cu	0.14527	0.07265	0.6337	0.853
Mof_C 	C 	0.9442	0.7724	0.9325	-0.062
Mof_H 	H 	0.9916	0.7922	0.9169	0.037
Mof_C 	C 	0.9035	0.6914	0.9469	-0.003
Mof_H 	H 	0.926	0.6569	0.9421	0.024
Mof_C 	C 	0.8082	0.7134	0.983	-0.032
Mof_H 	H 	0.7712	0.6987	0.0039	0.036
Mof_C 	C 	0.8425	0.7896	0.9665	-0.017
Mof_H 	H 	0.8181	0.8223	0.9716	0.023
Mof_C 	C 	0.9304	0.9661	0.8063	0.171
Mof_H 	H 	0.8803	0.9417	0.8203	-0.036
Mof_C 	C 	0.9282	0.9651	0.7683	0.213
Mof_H 	H 	0.8765	0.94	0.7557	-0.024
Mof_C 	C 	0.9468	0.7898	0.9667	0.007
Mof_H 	H 	0.0032	0.8236	0.973	0.013
Mof_C 	C 	0.9056	0.7124	0.9822	-0.045
Mof_H 	H 	0.9295	0.6961	0.0018	0.031
Mof_C 	C 	0.7876	0.692	0.9472	-0.011
Mof_H 	H 	0.7306	0.6577	0.9424	0.025
Mof_C 	C 	0.8277	0.7734	0.9328	-0.047
Mof_H 	H 	0.8001	0.7939	0.9175	0.027
Mof_C 	C 	0.0772	0.0384	0.7649	-0.233
Mof_H 	H 	0.1267	0.0624	0.7505	0.113
Mof_C 	C 	0.0798	0.0407	0.8056	-0.226
Mof_H 	H 	0.1301	0.0669	0.8194	0.087
Mof_C 	C 	0.9122	0.9564	0.94289	-0.3
Mof_H 	H 	0.8545	0.9277	0.934	0.108
Mof_H 	H 	0.912	0.9563	0.9713	0.107
Mof_C 	C 	0.9547	0.91	0.9285	0.199
Mof_C 	C 	0.9566	0.913	0.88357	-0.315
Mof_H 	H 	0.9851	0.8844	0.8738	0.115
Mof_H 	H 	0.8998	0.884	0.8736	0.114
Mof_C 	C 	0.9111	0.8219	0.94254	-0.047
Mof_C 	C 	0.8296	0.6601	0.96835	-0.057
Mof_O 	O 	0.6921	0.5175	0.9694	-0.409
Mof_O 	O 	0.8242	0.5158	0.9694	-0.423
Mof_O 	O 	0.7774	0.5563	0.0314	-0.426
Mof_H 	H 	0.8256	0.5776	0.0397	0.227
Mof_O 	O 	0.95601	0.04318	0.68244	-0.399
Mof_P 	P 	0.77838	0.55628	0.987	0.433
Mof_Cu	Cu	0.59402	0.40596	0.96703	0.856
Mof_C 	C 	0.61087	0.10573	0.26583	0.004
Mof_H 	H 	0.65827	0.12553	0.25023	0.01
Mof_C 	C 	0.57017	0.02473	0.28023	-0.075
Mof_H 	H 	0.59267	0.99023	0.27543	0.05
Mof_C 	C 	0.47487	0.04673	0.31633	-0.079
Mof_H 	H 	0.43787	0.03203	0.33723	0.05
Mof_C 	C 	0.50917	0.12293	0.29983	0.031
Mof_H 	H 	0.48477	0.15563	0.30493	0.008
Mof_C 	C 	0.59707	0.29943	0.13963	0.165
Mof_H 	H 	0.54697	0.27503	0.15363	-0.038
Mof_C 	C 	0.59487	0.29843	0.10163	0.163
Mof_H 	H 	0.54317	0.27333	0.08903	-0.011
Mof_C 	C 	0.61347	0.12313	0.30003	-0.048
Mof_H 	H 	0.66987	0.15693	0.30633	0.033
Mof_C 	C 	0.57227	0.04573	0.31553	0.004
Mof_H 	H 	0.59617	0.02943	0.33513	0.011
Mof_C 	C 	0.45427	0.02533	0.28053	-0.009
Mof_H 	H 	0.39727	0.99103	0.27573	0.028
Mof_C 	C 	0.49437	0.10673	0.26613	-0.071
Mof_H 	H 	0.46677	0.12723	0.25083	0.034
Mof_C 	C 	0.74387	0.37173	0.09823	-0.226
Mof_H 	H 	0.79337	0.39573	0.08383	0.112
Mof_C 	C 	0.74647	0.37403	0.13893	-0.189
Mof_H 	H 	0.79677	0.40023	0.15273	0.076
Mof_C 	C 	0.57887	0.28973	0.27622	-0.312
Mof_H 	H 	0.52117	0.26103	0.26733	0.111
Mof_H 	H 	0.57867	0.28963	0.30463	0.109
Mof_C 	C 	0.62137	0.24333	0.26183	0.206
Mof_C 	C 	0.62327	0.24633	0.2169	-0.336
Mof_H 	H 	0.65177	0.21773	0.20713	0.117
Mof_H 	H 	0.56647	0.21733	0.20693	0.117
Mof_C 	C 	0.57777	0.15523	0.27587	-0.06
Mof_C 	C 	0.49627	0.99343	0.30168	-0.028
Mof_O 	O 	0.35877	0.85083	0.30273	-0.408
Mof_O 	O 	0.49087	0.84913	0.30273	-0.423
Mof_O 	O 	0.44407	0.88963	0.36473	-0.425
Mof_H 	H 	0.49227	0.91093	0.37303	0.227
Mof_O 	O 	0.62268	0.37651	0.01577	-0.404
Mof_P 	P 	0.44505	0.88961	0.32033	0.429
Mof_Cu	Cu	0.26069	0.73929	0.30036	0.856
Mof_C 	C 	0.27753	0.43907	0.59917	-0.016
Mof_H 	H 	0.32493	0.45887	0.58357	0.018
Mof_C 	C 	0.23683	0.35807	0.61357	-0.042
Mof_H 	H 	0.25933	0.32357	0.60877	0.035
Mof_C 	C 	0.14153	0.38007	0.64967	-0.07
Mof_H 	H 	0.10453	0.36537	0.67057	0.049
Mof_C 	C 	0.17583	0.45627	0.63317	0.024
Mof_H 	H 	0.15143	0.48897	0.63827	0.011
Mof_C 	C 	0.26373	0.63277	0.47297	0.164
Mof_H 	H 	0.21363	0.60837	0.48697	-0.038
Mof_C 	C 	0.26153	0.63177	0.43497	0.164
Mof_H 	H 	0.20983	0.60667	0.42237	-0.011
Mof_C 	C 	0.28013	0.45647	0.63337	-0.049
Mof_H 	H 	0.33653	0.49027	0.63967	0.034
Mof_C 	C 	0.23893	0.37907	0.64887	0.007
Mof_H 	H 	0.26283	0.36277	0.66847	0.012
Mof_C 	C 	0.12093	0.35867	0.61387	0.019
Mof_H 	H 	0.06393	0.32437	0.60907	0.013
Mof_C 	C 	0.16103	0.44007	0.59947	-0.085
Mof_H 	H 	0.13343	0.46057	0.58417	0.039
Mof_C 	C 	0.41053	0.70507	0.43157	-0.226
Mof_H 	H 	0.46003	0.72907	0.41717	0.112
Mof_C 	C 	0.41313	0.70737	0.47227	-0.19
Mof_H 	H 	0.46343	0.73357	0.48607	0.076
Mof_C 	C 	0.24553	0.62307	0.60956	-0.31
Mof_H 	H 	0.18783	0.59437	0.60067	0.11
Mof_H 	H 	0.24533	0.62297	0.63797	0.108
Mof_C 	C 	0.28803	0.57667	0.59517	0.202
Mof_C 	C 	0.28993	0.57967	0.55024	-0.334
Mof_H 	H 	0.31843	0.55107	0.54047	0.117
Mof_H 	H 	0.23313	0.55067	0.54027	0.117
Mof_C 	C 	0.24443	0.48857	0.60921	-0.047
Mof_C 	C 	0.16293	0.32677	0.63502	-0.06
Mof_O 	O 	0.02543	0.18417	0.63607	-0.413
Mof_O 	O 	0.15753	0.18247	0.63607	-0.425
Mof_O 	O 	0.11073	0.22297	0.69807	-0.428
Mof_H 	H 	0.15893	0.24427	0.70637	0.227
Mof_O 	O 	0.28934	0.70985	0.34911	-0.404
Mof_P 	P 	0.11171	0.22295	0.65367	0.434
Mof_Cu	Cu	0.92735	0.07263	0.6337	0.856
Mof_C 	C 	-1.88849e-32	0	0.8693	0.241
Mof_C 	C 	-1.88849e-32	0	0.8252	-0.156
Mof_C 	C 	-2.83273e-32	-1.88849e-32	0.7459	-0.036
Mof_P 	P 	-0	0	0.69402	0.452
Mof_C 	C 	0.66667	0.33333	0.20263	0.258
Mof_C 	C 	0.66667	0.33333	0.15853	-0.135
Mof_C 	C 	0.66667	0.33333	0.07923	-0.02
Mof_P 	P 	0.66667	0.33333	0.02735	0.466
Mof_C 	C 	0.33333	0.66667	0.53597	0.258
Mof_C 	C 	0.33333	0.66667	0.49187	-0.135
Mof_C 	C 	0.33333	0.66667	0.41257	-0.02
Mof_P 	P 	0.33333	0.66667	0.36069	0.466
Mof_C 	C 	0.7724	0.8282	0.0675	0.023
Mof_H 	H 	0.7922	0.8006	0.0831	0.005
Mof_C 	C 	0.6914	0.7879	0.0531	-0.076
Mof_H 	H 	0.6569	0.7309	0.0579	0.046
Mof_C 	C 	0.7134	0.9052	0.017	-0.12
Mof_H 	H 	0.6987	0.9275	0.9961	0.068
Mof_C 	C 	0.7896	0.9471	0.0335	0.08
Mof_H 	H 	0.8223	0.0042	0.0284	-0.011
Mof_C 	C 	0.9661	0.0357	0.1937	0.184
Mof_H 	H 	0.9417	0.0614	0.1797	-0.042
Mof_C 	C 	0.9651	0.0369	0.2317	0.197
Mof_H 	H 	0.94	0.0635	0.2443	-0.02
Mof_C 	C 	0.7898	0.843	0.0333	-0.089
Mof_H 	H 	0.8236	0.8204	0.027	0.047
Mof_C 	C 	0.7124	0.8068	0.0178	0.045
Mof_H 	H 	0.6961	0.7666	0.9982	-0.001
Mof_C 	C 	0.692	0.9044	0.0528	0.056
Mof_H 	H 	0.6577	0.9271	0.0576	0.004
Mof_C 	C 	0.7734	0.9457	0.0672	-0.13
Mof_H 	H 	0.7939	0.9938	0.0825	0.059
Mof_C 	C 	0.0384	0.9612	0.2351	-0.24
Mof_H 	H 	0.0624	0.9357	0.2495	0.117
Mof_C 	C 	0.0407	0.9609	0.1944	-0.209
Mof_H 	H 	0.0669	0.9368	0.1806	0.083
Mof_C 	C 	0.9564	0.0442	0.05711	-0.302
Mof_H 	H 	0.9277	0.0732	0.066	0.109
Mof_H 	H 	0.9563	0.0443	0.0287	0.107
Mof_C 	C 	0.91	0.9553	0.0715	0.199
Mof_C 	C 	0.913	0.9564	0.11643	-0.316
Mof_H 	H 	0.8844	0.8993	0.1262	0.113
Mof_H 	H 	0.884	0.9842	0.1264	0.115
Mof_C 	C 	0.8219	0.9108	0.05746	-0.048
Mof_C 	C 	0.6601	0.8305	0.03165	-0.056
Mof_O 	O 	0.5175	0.8254	0.0306	-0.408
Mof_O 	O 	0.5158	0.6916	0.0306	-0.424
Mof_O 	O 	0.5563	0.7789	0.9686	-0.426
Mof_H 	H 	0.5776	0.752	0.9603	0.227
Mof_O 	O 	0.04318	0.08717	0.31756	-0.405
Mof_P 	P 	0.55628	0.7779	0.013	0.433
Mof_Cu	Cu	0.40596	0.81194	0.03297	0.857
Mof_C 	C 	0.43907	0.16153	0.40083	-0.015
Mof_H 	H 	0.45887	0.13393	0.41643	0.017
Mof_C 	C 	0.35807	0.12123	0.38643	-0.043
Mof_H 	H 	0.32357	0.06423	0.39123	0.034
Mof_C 	C 	0.38007	0.23853	0.35033	-0.071
Mof_H 	H 	0.36537	0.26083	0.32943	0.05
Mof_C 	C 	0.45627	0.28043	0.36683	0.025
Mof_H 	H 	0.48897	0.33753	0.36173	0.01
Mof_C 	C 	0.63277	0.36903	0.52703	0.166
Mof_H 	H 	0.60837	0.39473	0.51303	-0.038
Mof_C 	C 	0.63177	0.37023	0.56503	0.162
Mof_H 	H 	0.60667	0.39683	0.57763	-0.01
Mof_C 	C 	0.45647	0.17633	0.36663	-0.05
Mof_H 	H 	0.49027	0.15373	0.36033	0.034
Mof_C 	C 	0.37907	0.14013	0.35113	0.008
Mof_H 	H 	0.36277	0.09993	0.33153	0.011
Mof_C 	C 	0.35867	0.23773	0.38613	0.02
Mof_H 	H 	0.32437	0.26043	0.39093	0.014
Mof_C 	C 	0.44007	0.27903	0.40053	-0.086
Mof_H 	H 	0.46057	0.32713	0.41583	0.04
Mof_C 	C 	0.70507	0.29453	0.56843	-0.227
Mof_H 	H 	0.72907	0.26903	0.58283	0.112
Mof_C 	C 	0.70737	0.29423	0.52773	-0.189
Mof_H 	H 	0.73357	0.27013	0.51393	0.075
Mof_C 	C 	0.62307	0.37753	0.39044	-0.31
Mof_H 	H 	0.59437	0.40653	0.39933	0.111
Mof_H 	H 	0.62297	0.37763	0.36203	0.108
Mof_C 	C 	0.57667	0.28863	0.40483	0.202
Mof_C 	C 	0.57967	0.28973	0.44976	-0.334
Mof_H 	H 	0.55107	0.23263	0.45953	0.116
Mof_H 	H 	0.55067	0.31753	0.45973	0.117
Mof_C 	C 	0.48857	0.24413	0.39079	-0.047
Mof_C 	C 	0.32677	0.16383	0.36498	-0.059
Mof_O 	O 	0.18417	0.15873	0.36393	-0.41
Mof_O 	O 	0.18247	0.02493	0.36393	-0.428
Mof_O 	O 	0.22297	0.11223	0.30193	-0.427
Mof_H 	H 	0.24427	0.08533	0.29363	0.225
Mof_O 	O 	0.70985	0.4205	0.65089	-0.404
Mof_P 	P 	0.22295	0.11123	0.34633	0.433
Mof_Cu	Cu	0.07263	0.14527	0.3663	0.853
Mof_C 	C 	0.10573	0.49487	0.73417	0.008
Mof_H 	H 	0.12553	0.46727	0.74977	0.009
Mof_C 	C 	0.02473	0.45457	0.71977	-0.079
Mof_H 	H 	0.99023	0.39757	0.72457	0.052
Mof_C 	C 	0.04673	0.57187	0.68367	-0.083
Mof_H 	H 	0.03203	0.59417	0.66277	0.051
Mof_C 	C 	0.12293	0.61377	0.70017	0.035
Mof_H 	H 	0.15563	0.67087	0.69507	0.007
Mof_C 	C 	0.29943	0.70237	0.86037	0.166
Mof_H 	H 	0.27503	0.72807	0.84637	-0.038
Mof_C 	C 	0.29843	0.70357	0.89837	0.162
Mof_H 	H 	0.27333	0.73017	0.91097	-0.01
Mof_C 	C 	0.12313	0.50967	0.69997	-0.053
Mof_H 	H 	0.15693	0.48707	0.69367	0.035
Mof_C 	C 	0.04573	0.47347	0.68447	0.009
Mof_H 	H 	0.02943	0.43327	0.66487	0.009
Mof_C 	C 	0.02533	0.57107	0.71947	-0.005
Mof_H 	H 	0.99103	0.59377	0.72427	0.027
Mof_C 	C 	0.10673	0.61237	0.73387	-0.075
Mof_H 	H 	0.12723	0.66047	0.74917	0.036
Mof_C 	C 	0.37173	0.62787	0.90177	-0.227
Mof_H 	H 	0.39573	0.60237	0.91617	0.112
Mof_C 	C 	0.37403	0.62757	0.86107	-0.189
Mof_H 	H 	0.40023	0.60347	0.84727	0.075
Mof_C 	C 	0.28973	0.71087	0.72378	-0.31
Mof_H 	H 	0.26103	0.73987	0.73267	0.111
Mof_H 	H 	0.28963	0.71097	0.69537	0.108
Mof_C 	C 	0.24333	0.62197	0.73817	0.206
Mof_C 	C 	0.24633	0.62307	0.7831	-0.336
Mof_H 	H 	0.21773	0.56597	0.79287	0.117
Mof_H 	H 	0.21733	0.65087	0.79307	0.117
Mof_C 	C 	0.15523	0.57747	0.72413	-0.06
Mof_C 	C 	0.99343	0.49717	0.69832	-0.028
Mof_O 	O 	0.85083	0.49207	0.69727	-0.407
Mof_O 	O 	0.84913	0.35827	0.69727	-0.423
Mof_O 	O 	0.88963	0.44557	0.63527	-0.425
Mof_H 	H 	0.91093	0.41867	0.62697	0.227
Mof_O 	O 	0.37651	0.75384	0.98423	-0.404
Mof_P 	P 	0.88961	0.44457	0.67967	0.429
Mof_Cu	Cu	0.73929	0.47861	0.69964	0.856
Mof_C 	C 	0.1718	0.9442	0.0675	-0.114
Mof_H 	H 	0.1994	0.9916	0.0831	0.055
Mof_C 	C 	0.2121	0.9035	0.0531	0.042
Mof_H 	H 	0.2691	0.926	0.0579	0.009
Mof_C 	C 	0.0948	0.8082	0.017	0.028
Mof_H 	H 	0.0725	0.7712	0.9961	0.015
Mof_C 	C 	0.0529	0.8425	0.0335	-0.086
Mof_H 	H 	0.9958	0.8181	0.0284	0.05
Mof_C 	C 	0.9643	0.9304	0.1937	0.177
Mof_H 	H 	0.9386	0.8803	0.1797	-0.039
Mof_C 	C 	0.9631	0.9282	0.2317	0.205
Mof_H 	H 	0.9365	0.8765	0.2443	-0.022
Mof_C 	C 	0.157	0.9468	0.0333	0.062
Mof_H 	H 	0.1796	0.0032	0.027	-0.006
Mof_C 	C 	0.1932	0.9056	0.0178	-0.099
Mof_H 	H 	0.2334	0.9295	0.9982	0.05
Mof_C 	C 	0.0956	0.7876	0.0528	-0.056
Mof_H 	H 	0.0729	0.7306	0.0576	0.037
Mof_C 	C 	0.0543	0.8277	0.0672	0.009
Mof_H 	H 	0.0062	0.8001	0.0825	0.005
Mof_C 	C 	0.0388	0.0772	0.2351	-0.241
Mof_H 	H 	0.0643	0.1267	0.2495	0.116
Mof_C 	C 	0.0391	0.0798	0.1944	-0.22
Mof_H 	H 	0.0632	0.1301	0.1806	0.085
Mof_C 	C 	0.9558	0.9122	0.05711	-0.3
Mof_H 	H 	0.9268	0.8545	0.066	0.108
Mof_H 	H 	0.9557	0.912	0.0287	0.107
Mof_C 	C 	0.0447	0.9547	0.0715	0.196
Mof_C 	C 	0.0436	0.9566	0.11643	-0.32
Mof_H 	H 	0.1007	0.9851	0.1262	0.115
Mof_H 	H 	0.0158	0.8998	0.1264	0.112
Mof_C 	C 	0.0892	0.9111	0.05746	-0.044
Mof_C 	C 	0.1695	0.8296	0.03165	-0.059
Mof_O 	O 	0.1746	0.6921	0.0306	-0.41
Mof_O 	O 	0.3084	0.8242	0.0306	-0.423
Mof_O 	O 	0.2211	0.7774	0.9686	-0.426
Mof_H 	H 	0.248	0.8256	0.9603	0.227
Mof_O 	O 	0.91283	0.95601	0.31756	-0.394
Mof_P 	P 	0.2221	0.77838	0.013	0.433
Mof_Cu	Cu	0.18806	0.59402	0.03297	0.855
Mof_C 	C 	0.83847	0.27753	0.40083	-0.015
Mof_H 	H 	0.86607	0.32493	0.41643	0.018
Mof_C 	C 	0.87877	0.23683	0.38643	-0.042
Mof_H 	H 	0.93577	0.25933	0.39123	0.036
Mof_C 	C 	0.76147	0.14153	0.35033	-0.07
Mof_H 	H 	0.73917	0.10453	0.32943	0.049
Mof_C 	C 	0.71957	0.17583	0.36683	0.024
Mof_H 	H 	0.66247	0.15143	0.36173	0.011
Mof_C 	C 	0.63097	0.26373	0.52703	0.164
Mof_H 	H 	0.60527	0.21363	0.51303	-0.038
Mof_C 	C 	0.62977	0.26153	0.56503	0.164
Mof_H 	H 	0.60317	0.20983	0.57763	-0.011
Mof_C 	C 	0.82367	0.28013	0.36663	-0.048
Mof_H 	H 	0.84627	0.33653	0.36033	0.034
Mof_C 	C 	0.85987	0.23893	0.35113	0.006
Mof_H 	H 	0.90007	0.26283	0.33153	0.013
Mof_C 	C 	0.76227	0.12093	0.38613	0.019
Mof_H 	H 	0.73957	0.06393	0.39093	0.013
Mof_C 	C 	0.72097	0.16103	0.40053	-0.084
Mof_H 	H 	0.67287	0.13343	0.41583	0.039
Mof_C 	C 	0.70547	0.41053	0.56843	-0.225
Mof_H 	H 	0.73097	0.46003	0.58283	0.112
Mof_C 	C 	0.70577	0.41313	0.52773	-0.19
Mof_H 	H 	0.72987	0.46343	0.51393	0.076
Mof_C 	C 	0.62247	0.24553	0.39044	-0.31
Mof_H 	H 	0.59347	0.18783	0.39933	0.11
Mof_H 	H 	0.62237	0.24533	0.36203	0.108
Mof_C 	C 	0.71137	0.28803	0.40483	0.202
Mof_C 	C 	0.71027	0.28993	0.44976	-0.334
Mof_H 	H 	0.76737	0.31843	0.45953	0.117
Mof_H 	H 	0.68247	0.23313	0.45973	0.117
Mof_C 	C 	0.75587	0.24443	0.39079	-0.047
Mof_C 	C 	0.83617	0.16293	0.36498	-0.059
Mof_O 	O 	0.84127	0.02543	0.36393	-0.411
Mof_O 	O 	0.97507	0.15753	0.36393	-0.421
Mof_O 	O 	0.88777	0.11073	0.30193	-0.427
Mof_H 	H 	0.91467	0.15893	0.29363	0.228
Mof_O 	O 	0.5795	0.28934	0.65089	-0.404
Mof_P 	P 	0.88877	0.11171	0.34633	0.434
Mof_Cu	Cu	0.85473	0.92735	0.3663	0.858
Mof_C 	C 	0.50513	0.61087	0.73417	-0.015
Mof_H 	H 	0.53273	0.65827	0.74977	0.018
Mof_C 	C 	0.54543	0.57017	0.71977	-0.042
Mof_H 	H 	0.60243	0.59267	0.72457	0.035
Mof_C 	C 	0.42813	0.47487	0.68367	-0.07
Mof_H 	H 	0.40583	0.43787	0.66277	0.049
Mof_C 	C 	0.38623	0.50917	0.70017	0.024
Mof_H 	H 	0.32913	0.48477	0.69507	0.011
Mof_C 	C 	0.29763	0.59707	0.86037	0.165
Mof_H 	H 	0.27193	0.54697	0.84637	-0.038
Mof_C 	C 	0.29643	0.59487	0.89837	0.163
Mof_H 	H 	0.26983	0.54317	0.91097	-0.011
Mof_C 	C 	0.49033	0.61347	0.69997	-0.049
Mof_H 	H 	0.51293	0.66987	0.69367	0.034
Mof_C 	C 	0.52653	0.57227	0.68447	0.006
Mof_H 	H 	0.56673	0.59617	0.66487	0.012
Mof_C 	C 	0.42893	0.45427	0.71947	0.02
Mof_H 	H 	0.40623	0.39727	0.72427	0.014
Mof_C 	C 	0.38763	0.49437	0.73387	-0.085
Mof_H 	H 	0.33953	0.46677	0.74917	0.04
Mof_C 	C 	0.37213	0.74387	0.90177	-0.226
Mof_H 	H 	0.39763	0.79337	0.91617	0.112
Mof_C 	C 	0.37243	0.74647	0.86107	-0.189
Mof_H 	H 	0.39653	0.79677	0.84727	0.076
Mof_C 	C 	0.28913	0.57887	0.72378	-0.312
Mof_H 	H 	0.26013	0.52117	0.73267	0.111
Mof_H 	H 	0.28903	0.57867	0.69537	0.109
Mof_C 	C 	0.37803	0.62137	0.73817	0.202
Mof_C 	C 	0.37693	0.62327	0.7831	-0.334
Mof_H 	H 	0.43403	0.65177	0.79287	0.117
Mof_H 	H 	0.34913	0.56647	0.79307	0.117
Mof_C 	C 	0.42253	0.57777	0.72413	-0.047
Mof_C 	C 	0.50283	0.49627	0.69832	-0.059
Mof_O 	O 	0.50793	0.35877	0.69727	-0.409
Mof_O 	O 	0.64173	0.49087	0.69727	-0.424
Mof_O 	O 	0.55443	0.44407	0.63527	-0.426
Mof_H 	H 	0.58133	0.49227	0.62697	0.227
Mof_O 	O 	0.24616	0.62268	0.98423	-0.404
Mof_P 	P 	0.55543	0.44505	0.67967	0.434
Mof_Cu	Cu	0.52139	0.26069	0.69964	0.856
Mof_C 	C 	0.0558	0.2276	0.0675	0.043
Mof_H 	H 	0.0084	0.2078	0.0831	-0.006
Mof_C 	C 	0.0965	0.3086	0.0531	-0.092
Mof_H 	H 	0.074	0.3431	0.0579	0.049
Mof_C 	C 	0.1918	0.2866	0.017	-0.119
Mof_H 	H 	0.2288	0.3013	0.9961	0.067
Mof_C 	C 	0.1575	0.2104	0.0335	0.075
Mof_H 	H 	0.1819	0.1777	0.0284	-0.005
Mof_C 	C 	0.0696	0.0339	0.1937	0.201
Mof_H 	H 	0.1197	0.0583	0.1797	-0.05
Mof_C 	C 	0.0718	0.0349	0.2317	0.165
Mof_H 	H 	0.1235	0.06	0.2443	-0.012
Mof_C 	C 	0.0532	0.2102	0.0333	-0.124
Mof_H 	H 	0.9968	0.1764	0.027	0.063
Mof_C 	C 	0.0944	0.2876	0.0178	0.073
Mof_H 	H 	0.0705	0.3039	0.9982	-0.012
Mof_C 	C 	0.2124	0.308	0.0528	0.061
Mof_H 	H 	0.2694	0.3423	0.0576	0
Mof_C 	C 	0.1723	0.2266	0.0672	-0.136
Mof_H 	H 	0.1999	0.2061	0.0825	0.057
Mof_C 	C 	0.9228	0.9616	0.2351	-0.262
Mof_H 	H 	0.8733	0.9376	0.2495	0.126
Mof_C 	C 	0.9202	0.9593	0.1944	-0.187
Mof_H 	H 	0.8699	0.9331	0.1806	0.077
Mof_C 	C 	0.0878	0.0436	0.05711	-0.31
Mof_H 	H 	0.1455	0.0723	0.066	0.11
Mof_H 	H 	0.088	0.0437	0.0287	0.107
Mof_C 	C 	0.0453	0.09	0.0715	0.19
Mof_C 	C 	0.0434	0.087	0.11643	-0.325
Mof_H 	H 	0.0149	0.1156	0.1262	0.112
Mof_H 	H 	0.1002	0.116	0.1264	0.114
Mof_C 	C 	0.0889	0.1781	0.05746	-0.04
Mof_C 	C 	0.1704	0.3399	0.03165	-0.063
Mof_O 	O 	0.3079	0.4825	0.0306	-0.409
Mof_O 	O 	0.1758	0.4842	0.0306	-0.425
Mof_O 	O 	0.2226	0.4437	0.9686	-0.427
Mof_H 	H 	0.1744	0.4224	0.9603	0.226
Mof_O 	O 	0.04399	0.95682	0.31756	-0.399
Mof_P 	P 	0.22162	0.44372	0.013	0.434
Mof_Cu	Cu	0.40598	0.59404	0.03297	0.856
Mof_C 	C 	0.72247	0.56093	0.40083	-0.014
Mof_H 	H 	0.67507	0.54113	0.41643	0.017
Mof_C 	C 	0.76317	0.64193	0.38643	-0.043
Mof_H 	H 	0.74067	0.67643	0.39123	0.036
Mof_C 	C 	0.85847	0.61993	0.35033	-0.071
Mof_H 	H 	0.89547	0.63463	0.32943	0.051
Mof_C 	C 	0.82417	0.54373	0.36683	0.025
Mof_H 	H 	0.84857	0.51103	0.36173	0.01
Mof_C 	C 	0.73627	0.36723	0.52703	0.167
Mof_H 	H 	0.78637	0.39163	0.51303	-0.038
Mof_C 	C 	0.73847	0.36823	0.56503	0.162
Mof_H 	H 	0.79017	0.39333	0.57763	-0.01
Mof_C 	C 	0.71987	0.54353	0.36663	-0.049
Mof_H 	H 	0.66347	0.50973	0.36033	0.034
Mof_C 	C 	0.76107	0.62093	0.35113	0.006
Mof_H 	H 	0.73717	0.63723	0.33153	0.012
Mof_C 	C 	0.87907	0.64133	0.38613	0.02
Mof_H 	H 	0.93607	0.67563	0.39093	0.016
Mof_C 	C 	0.83897	0.55993	0.40053	-0.085
Mof_H 	H 	0.86657	0.53943	0.41583	0.041
Mof_C 	C 	0.58947	0.29493	0.56843	-0.228
Mof_H 	H 	0.53997	0.27093	0.58283	0.112
Mof_C 	C 	0.58687	0.29263	0.52773	-0.188
Mof_H 	H 	0.53657	0.26643	0.51393	0.075
Mof_C 	C 	0.75447	0.37693	0.39044	-0.311
Mof_H 	H 	0.81217	0.40563	0.39933	0.111
Mof_H 	H 	0.75467	0.37703	0.36203	0.109
Mof_C 	C 	0.71197	0.42333	0.40483	0.202
Mof_C 	C 	0.71007	0.42033	0.44976	-0.335
Mof_H 	H 	0.68157	0.44893	0.45953	0.117
Mof_H 	H 	0.76687	0.44933	0.45973	0.118
Mof_C 	C 	0.75557	0.51143	0.39079	-0.047
Mof_C 	C 	0.83707	0.67323	0.36498	-0.058
Mof_O 	O 	0.97457	0.81583	0.36393	-0.405
Mof_O 	O 	0.84247	0.81753	0.36393	-0.423
Mof_O 	O 	0.88927	0.77703	0.30193	-0.424
Mof_H 	H 	0.84107	0.75573	0.29363	0.226
Mof_O 	O 	0.71066	0.29015	0.65089	-0.404
Mof_P 	P 	0.88829	0.77705	0.34633	0.433
Mof_Cu	Cu	0.07265	0.92737	0.3663	0.856
Mof_C 	C 	0.38913	0.89427	0.73417	-0.04
Mof_H 	H 	0.34173	0.87447	0.74977	0.027
Mof_C 	C 	0.42983	0.97527	0.71977	-0.003
Mof_H 	H 	0.40733	0.00977	0.72457	0.017
Mof_C 	C 	0.52513	0.95327	0.68367	-0.058
Mof_H 	H 	0.56213	0.96797	0.66277	0.048
Mof_C 	C 	0.49083	0.87707	0.70017	0.013
Mof_H 	H 	0.51523	0.84437	0.69507	0.015
Mof_C 	C 	0.40293	0.70057	0.86037	0.166
Mof_H 	H 	0.45303	0.72497	0.84637	-0.038
Mof_C 	C 	0.40513	0.70157	0.89837	0.162
Mof_H 	H 	0.45683	0.72667	0.91097	-0.01
Mof_C 	C 	0.38653	0.87687	0.69997	-0.046
Mof_H 	H 	0.33013	0.84307	0.69367	0.033
Mof_C 	C 	0.42773	0.95427	0.68447	0.004
Mof_H 	H 	0.40383	0.97057	0.66487	0.016
Mof_C 	C 	0.54573	0.97467	0.71947	0.047
Mof_H 	H 	0.60273	0.00897	0.72427	0.001
Mof_C 	C 	0.50563	0.89327	0.73387	-0.096
Mof_H 	H 	0.53323	0.87277	0.74917	0.044
Mof_C 	C 	0.25613	0.62827	0.90177	-0.227
Mof_H 	H 	0.20663	0.60427	0.91617	0.111
Mof_C 	C 	0.25353	0.62597	0.86107	-0.188
Mof_H 	H 	0.20323	0.59977	0.84727	0.075
Mof_C 	C 	0.42113	0.71027	0.72378	-0.308
Mof_H 	H 	0.47883	0.73897	0.73267	0.11
Mof_H 	H 	0.42133	0.71037	0.69537	0.108
Mof_C 	C 	0.37863	0.75667	0.73817	0.197
Mof_C 	C 	0.37673	0.75367	0.7831	-0.333
Mof_H 	H 	0.34823	0.78227	0.79287	0.116
Mof_H 	H 	0.43353	0.78267	0.79307	0.117
Mof_C 	C 	0.42223	0.84477	0.72413	-0.032
Mof_C 	C 	0.50373	0.00657	0.69832	-0.092
Mof_O 	O 	0.64123	0.14917	0.69727	-0.41
Mof_O 	O 	0.50913	0.15087	0.69727	-0.425
Mof_O 	O 	0.55593	0.11037	0.63527	-0.428
Mof_H 	H 	0.50773	0.08907	0.62697	0.225
Mof_O 	O 	0.37732	0.62349	0.98423	-0.404
Mof_P 	P 	0.55495	0.11039	0.67967	0.438
Mof_Cu	Cu	0.73931	0.26071	0.69964	0.856
Mof_C 	C 	-2.36061e-33	0	0.1307	0.241
Mof_C 	C 	-2.36061e-33	0	0.1748	-0.156
Mof_C 	C 	-0	0	0.2541	-0.036
Mof_P 	P 	-0	9.44243e-33	0.30598	0.452
Mof_C 	C 	0.66667	0.33333	0.46403	0.258
Mof_C 	C 	0.66667	0.33333	0.50813	-0.135
Mof_C 	C 	0.66667	0.33333	0.58743	-0.02
Mof_P 	P 	0.66667	0.33333	0.63931	0.466
Mof_C 	C 	0.33333	0.66667	0.79737	0.258
Mof_C 	C 	0.33333	0.66667	0.84147	-0.135
Mof_C 	C 	0.33333	0.66667	0.92077	-0.02
Mof_P 	P 	0.33333	0.66667	0.97265	0.466
_end
