data_functionalizedCrystal
_audit_creation_method	'EQeq! by Chris Wilmer'
_symmetry_space_group_name_H-M	'P1'
_symmetry_Int_Tables_number	1
_symmetry_cell_setting	triclinic
loop_
_symmetry_equiv_pos_as_xyz
  x,y,z
_cell_length_a	11.3128
_cell_length_b	11.3128
_cell_length_c	34.111
_cell_angle_alpha	90
_cell_angle_beta	90
_cell_angle_gamma	120
loop_
_atom_site_label
_atom_site_type_symbol
_atom_site_fract_x
_atom_site_fract_y
_atom_site_fract_z
_atom_site_charge
Mof_N 	N 	0.60654	0.3556	0.87376	-0.194
Mof_N 	N 	0.7929	0.2162	0.82982	-0.341
Mof_H 	H 	0.8738	0.2604	0.8395	0.155
Mof_H 	H 	0.7734	0.1532	0.8127	0.178
Mof_N 	N 	0.72189	0.34459	0.86838	-0.147
Mof_C 	C 	0.8475	0.4377	0.88702	0.163
Mof_C 	C 	0.5121	0.2618	0.85061	0.109
Mof_H 	H 	0.4233	0.246	0.8486	0
Mof_C 	C 	0.6971	0.2457	0.84135	0.224
Mof_C 	C 	0.0431	0.4811	0.92472	0.097
Mof_H 	H 	0.0967	0.45	0.9365	0.004
Mof_C 	C 	0.925	0.3902	0.90511	-0.19
Mof_H 	H 	0.898	0.298	0.9041	0.094
Mof_C 	C 	0.0812	0.6155	0.92681	-0.174
Mof_H 	H 	0.1585	0.6755	0.9409	0.097
Mof_C 	C 	0.0053	0.6629	0.90807	0.102
Mof_H 	H 	0.0333	0.7554	0.9091	-0.004
Mof_C 	C 	0.8877	0.5746	0.88762	-0.209
Mof_H 	H 	0.8372	0.607	0.8747	0.107
Mof_C 	C 	0.5616	0.1901	0.82974	-0.192
Mof_C 	C 	0.4848	0.0754	0.80284	0.364
Mof_O 	O 	0.55223	0.02481	0.78742	-0.391
Mof_O 	O 	0.36113	0.03209	0.79631	-0.301
Mof_N 	N 	0.6444	0.25094	0.20709	-0.194
Mof_N 	N 	0.7838	0.5767	0.16315	-0.34
Mof_H 	H 	0.7396	0.6134	0.17283	0.155
Mof_H 	H 	0.8468	0.6202	0.14603	0.178
Mof_N 	N 	0.65541	0.3773	0.20171	-0.149
Mof_C 	C 	0.5623	0.4098	0.22035	0.175
Mof_C 	C 	0.7382	0.2503	0.18394	0.109
Mof_H 	H 	0.754	0.1773	0.18193	-0.001
Mof_C 	C 	0.7543	0.4514	0.17468	0.224
Mof_C 	C 	0.5189	0.562	0.25805	0.12
Mof_H 	H 	0.55	0.6467	0.26983	-0.003
Mof_C 	C 	0.6098	0.5348	0.23844	-0.21
Mof_H 	H 	0.702	0.6	0.23743	0.101
Mof_C 	C 	0.3845	0.4657	0.26014	-0.194
Mof_H 	H 	0.3245	0.483	0.27423	0.104
Mof_C 	C 	0.3371	0.3424	0.2414	0.124
Mof_H 	H 	0.2446	0.2779	0.24243	-0.012
Mof_C 	C 	0.4254	0.3131	0.22095	-0.228
Mof_H 	H 	0.393	0.2302	0.20803	0.112
Mof_C 	C 	0.8099	0.3715	0.16307	-0.193
Mof_C 	C 	0.9246	0.4094	0.13617	0.364
Mof_O 	O 	0.97519	0.52742	0.12075	-0.391
Mof_O 	O 	0.96791	0.32904	0.12964	-0.303
Mof_N 	N 	0.74906	0.39346	0.54043	-0.194
Mof_N 	N 	0.4233	0.2071	0.49649	-0.339
Mof_H 	H 	0.3866	0.1262	0.50617	0.154
Mof_H 	H 	0.3798	0.2266	0.47937	0.177
Mof_N 	N 	0.6227	0.27811	0.53505	-0.147
Mof_C 	C 	0.5902	0.1525	0.55369	0.164
Mof_C 	C 	0.7497	0.4879	0.51728	0.109
Mof_H 	H 	0.8227	0.5767	0.51527	-0.002
Mof_C 	C 	0.5486	0.3029	0.50802	0.224
Mof_C 	C 	0.438	0.9569	0.59139	0.101
Mof_H 	H 	0.3533	0.9033	0.60317	0.003
Mof_C 	C 	0.4652	0.075	0.57178	-0.193
Mof_H 	H 	0.4	0.102	0.57077	0.095
Mof_C 	C 	0.5343	0.9188	0.59348	-0.177
Mof_H 	H 	0.517	0.8415	0.60757	0.097
Mof_C 	C 	0.6576	0.9947	0.57474	0.105
Mof_H 	H 	0.7221	0.9667	0.57577	-0.006
Mof_C 	C 	0.6869	0.1123	0.55429	-0.212
Mof_H 	H 	0.7698	0.1628	0.54137	0.107
Mof_C 	C 	0.6285	0.4384	0.49641	-0.194
Mof_C 	C 	0.5906	0.5152	0.46951	0.364
Mof_O 	O 	0.47258	0.44777	0.45409	-0.394
Mof_O 	O 	0.67096	0.63887	0.46298	-0.305
Mof_N 	N 	0.39346	0.6444	0.37376	-0.193
Mof_N 	N 	0.2071	0.7838	0.32982	-0.34
Mof_H 	H 	0.1262	0.7396	0.3395	0.155
Mof_H 	H 	0.2266	0.8468	0.3127	0.178
Mof_N 	N 	0.27811	0.65541	0.36838	-0.147
Mof_C 	C 	0.1525	0.5623	0.38702	0.162
Mof_C 	C 	0.4879	0.7382	0.35061	0.109
Mof_H 	H 	0.5767	0.754	0.3486	0
Mof_C 	C 	0.3029	0.7543	0.34135	0.224
Mof_C 	C 	0.9569	0.5189	0.42472	0.096
Mof_H 	H 	0.9033	0.55	0.4365	0.004
Mof_C 	C 	0.075	0.6098	0.40511	-0.189
Mof_H 	H 	0.102	0.702	0.4041	0.094
Mof_C 	C 	0.9188	0.3845	0.42681	-0.173
Mof_H 	H 	0.8415	0.3245	0.4409	0.096
Mof_C 	C 	0.9947	0.3371	0.40807	0.101
Mof_H 	H 	0.9667	0.2446	0.4091	-0.004
Mof_C 	C 	0.1123	0.4254	0.38762	-0.208
Mof_H 	H 	0.1628	0.393	0.3747	0.107
Mof_C 	C 	0.4384	0.8099	0.32974	-0.192
Mof_C 	C 	0.5152	0.9246	0.30284	0.364
Mof_O 	O 	0.44777	0.97519	0.28742	-0.391
Mof_O 	O 	0.63887	0.96791	0.29631	-0.301
Mof_N 	N 	0.3556	0.74906	0.70709	-0.194
Mof_N 	N 	0.2162	0.4233	0.66315	-0.34
Mof_H 	H 	0.2604	0.3866	0.67283	0.155
Mof_H 	H 	0.1532	0.3798	0.64603	0.178
Mof_N 	N 	0.34459	0.6227	0.70171	-0.149
Mof_C 	C 	0.4377	0.5902	0.72035	0.175
Mof_C 	C 	0.2618	0.7497	0.68394	0.109
Mof_H 	H 	0.246	0.8227	0.68193	-0.001
Mof_C 	C 	0.2457	0.5486	0.67468	0.224
Mof_C 	C 	0.4811	0.438	0.75805	0.12
Mof_H 	H 	0.45	0.3533	0.76983	-0.003
Mof_C 	C 	0.3902	0.4652	0.73844	-0.21
Mof_H 	H 	0.298	0.4	0.73743	0.101
Mof_C 	C 	0.6155	0.5343	0.76014	-0.194
Mof_H 	H 	0.6755	0.517	0.77423	0.104
Mof_C 	C 	0.6629	0.6576	0.7414	0.124
Mof_H 	H 	0.7554	0.7221	0.74243	-0.012
Mof_C 	C 	0.5746	0.6869	0.72095	-0.228
Mof_H 	H 	0.607	0.7698	0.70803	0.112
Mof_C 	C 	0.1901	0.6285	0.66307	-0.193
Mof_C 	C 	0.0754	0.5906	0.63617	0.364
Mof_O 	O 	0.02481	0.47258	0.62075	-0.391
Mof_O 	O 	0.03209	0.67096	0.62964	-0.303
Mof_N 	N 	0.25094	0.60654	0.04043	-0.194
Mof_N 	N 	0.5767	0.7929	0.99649	-0.339
Mof_H 	H 	0.6134	0.8738	0.00617	0.154
Mof_H 	H 	0.6202	0.7734	0.97937	0.177
Mof_N 	N 	0.3773	0.72189	0.03505	-0.147
Mof_C 	C 	0.4098	0.8475	0.05369	0.164
Mof_C 	C 	0.2503	0.5121	0.01728	0.109
Mof_H 	H 	0.1773	0.4233	0.01527	-0.002
Mof_C 	C 	0.4514	0.6971	0.00802	0.223
Mof_C 	C 	0.562	0.0431	0.09139	0.101
Mof_H 	H 	0.6467	0.0967	0.10317	0.003
Mof_C 	C 	0.5348	0.925	0.07178	-0.193
Mof_H 	H 	0.6	0.898	0.07077	0.095
Mof_C 	C 	0.4657	0.0812	0.09348	-0.177
Mof_H 	H 	0.483	0.1585	0.10757	0.097
Mof_C 	C 	0.3424	0.0053	0.07474	0.105
Mof_H 	H 	0.2779	0.0333	0.07577	-0.006
Mof_C 	C 	0.3131	0.8877	0.05429	-0.212
Mof_H 	H 	0.2302	0.8372	0.04137	0.107
Mof_C 	C 	0.3715	0.5616	0.99641	-0.193
Mof_C 	C 	0.4094	0.4848	0.96951	0.364
Mof_O 	O 	0.52742	0.55223	0.95409	-0.394
Mof_O 	O 	0.32904	0.36113	0.96298	-0.305
Mof_N 	N 	0.3556	0.60654	0.45957	-0.193
Mof_N 	N 	0.2162	0.7929	0.50351	-0.34
Mof_H 	H 	0.2604	0.8738	0.49383	0.155
Mof_H 	H 	0.1532	0.7734	0.52063	0.178
Mof_N 	N 	0.34459	0.72189	0.46495	-0.147
Mof_C 	C 	0.4377	0.8475	0.44631	0.162
Mof_C 	C 	0.2618	0.5121	0.48272	0.109
Mof_H 	H 	0.246	0.4233	0.48473	0
Mof_C 	C 	0.2457	0.6971	0.49198	0.224
Mof_C 	C 	0.4811	0.0431	0.40861	0.096
Mof_H 	H 	0.45	0.0967	0.39683	0.004
Mof_C 	C 	0.3902	0.925	0.42822	-0.189
Mof_H 	H 	0.298	0.898	0.42923	0.094
Mof_C 	C 	0.6155	0.0812	0.40652	-0.172
Mof_H 	H 	0.6755	0.1585	0.39243	0.096
Mof_C 	C 	0.6629	0.0053	0.42526	0.101
Mof_H 	H 	0.7554	0.0333	0.42423	-0.004
Mof_C 	C 	0.5746	0.8877	0.44571	-0.208
Mof_H 	H 	0.607	0.8372	0.45863	0.107
Mof_C 	C 	0.1901	0.5616	0.50359	-0.192
Mof_C 	C 	0.0754	0.4848	0.53049	0.364
Mof_O 	O 	0.02481	0.55223	0.54591	-0.391
Mof_O 	O 	0.03209	0.36113	0.53702	-0.301
Mof_N 	N 	0.25094	0.6444	0.12624	-0.194
Mof_N 	N 	0.5767	0.7838	0.17018	-0.34
Mof_H 	H 	0.6134	0.7396	0.1605	0.155
Mof_H 	H 	0.6202	0.8468	0.1873	0.178
Mof_N 	N 	0.3773	0.65541	0.13162	-0.149
Mof_C 	C 	0.4098	0.5623	0.11298	0.175
Mof_C 	C 	0.2503	0.7382	0.14939	0.109
Mof_H 	H 	0.1773	0.754	0.1514	-0.002
Mof_C 	C 	0.4514	0.7543	0.15865	0.224
Mof_C 	C 	0.562	0.5189	0.07528	0.12
Mof_H 	H 	0.6467	0.55	0.0635	-0.003
Mof_C 	C 	0.5348	0.6098	0.09489	-0.21
Mof_H 	H 	0.6	0.702	0.0959	0.101
Mof_C 	C 	0.4657	0.3845	0.07319	-0.194
Mof_H 	H 	0.483	0.3245	0.0591	0.104
Mof_C 	C 	0.3424	0.3371	0.09193	0.124
Mof_H 	H 	0.2779	0.2446	0.0909	-0.012
Mof_C 	C 	0.3131	0.4254	0.11238	-0.228
Mof_H 	H 	0.2302	0.393	0.1253	0.112
Mof_C 	C 	0.3715	0.8099	0.17026	-0.193
Mof_C 	C 	0.4094	0.9246	0.19716	0.364
Mof_O 	O 	0.52742	0.97519	0.21258	-0.391
Mof_O 	O 	0.32904	0.96791	0.20369	-0.303
Mof_N 	N 	0.39346	0.74906	0.79291	-0.194
Mof_N 	N 	0.2071	0.4233	0.83685	-0.339
Mof_H 	H 	0.1262	0.3866	0.82717	0.154
Mof_H 	H 	0.2266	0.3798	0.85397	0.177
Mof_N 	N 	0.27811	0.6227	0.79829	-0.147
Mof_C 	C 	0.1525	0.5902	0.77965	0.164
Mof_C 	C 	0.4879	0.7497	0.81606	0.109
Mof_H 	H 	0.5767	0.8227	0.81807	-0.002
Mof_C 	C 	0.3029	0.5486	0.82532	0.224
Mof_C 	C 	0.9569	0.438	0.74195	0.1
Mof_H 	H 	0.9033	0.3533	0.73017	0.003
Mof_C 	C 	0.075	0.4652	0.76156	-0.192
Mof_H 	H 	0.102	0.4	0.76257	0.095
Mof_C 	C 	0.9188	0.5343	0.73986	-0.176
Mof_H 	H 	0.8415	0.517	0.72577	0.097
Mof_C 	C 	0.9947	0.6576	0.7586	0.105
Mof_H 	H 	0.9667	0.7221	0.75757	-0.005
Mof_C 	C 	0.1123	0.6869	0.77905	-0.211
Mof_H 	H 	0.1628	0.7698	0.79197	0.107
Mof_C 	C 	0.4384	0.6285	0.83693	-0.194
Mof_C 	C 	0.5152	0.5906	0.86383	0.364
Mof_O 	O 	0.44777	0.47258	0.87925	-0.394
Mof_O 	O 	0.63887	0.67096	0.87036	-0.305
Mof_N 	N 	0.6444	0.39346	0.95957	-0.193
Mof_N 	N 	0.7838	0.2071	0.00351	-0.34
Mof_H 	H 	0.7396	0.1262	0.99383	0.155
Mof_H 	H 	0.8468	0.2266	0.02063	0.178
Mof_N 	N 	0.65541	0.27811	0.96495	-0.147
Mof_C 	C 	0.5623	0.1525	0.94631	0.162
Mof_C 	C 	0.7382	0.4879	0.98272	0.109
Mof_H 	H 	0.754	0.5767	0.98473	0
Mof_C 	C 	0.7543	0.3029	0.99198	0.224
Mof_C 	C 	0.5189	0.9569	0.90861	0.096
Mof_H 	H 	0.55	0.9033	0.89683	0.004
Mof_C 	C 	0.6098	0.075	0.92822	-0.189
Mof_H 	H 	0.702	0.102	0.92923	0.094
Mof_C 	C 	0.3845	0.9188	0.90652	-0.172
Mof_H 	H 	0.3245	0.8415	0.89243	0.096
Mof_C 	C 	0.3371	0.9947	0.92526	0.101
Mof_H 	H 	0.2446	0.9667	0.92423	-0.004
Mof_C 	C 	0.4254	0.1123	0.94571	-0.208
Mof_H 	H 	0.393	0.1628	0.95863	0.107
Mof_C 	C 	0.8099	0.4384	0.00359	-0.192
Mof_C 	C 	0.9246	0.5152	0.03049	0.364
Mof_O 	O 	0.97519	0.44777	0.04591	-0.391
Mof_O 	O 	0.96791	0.63887	0.03702	-0.301
Mof_N 	N 	0.74906	0.3556	0.62624	-0.194
Mof_N 	N 	0.4233	0.2162	0.67018	-0.34
Mof_H 	H 	0.3866	0.2604	0.6605	0.155
Mof_H 	H 	0.3798	0.1532	0.6873	0.178
Mof_N 	N 	0.6227	0.34459	0.63162	-0.149
Mof_C 	C 	0.5902	0.4377	0.61298	0.175
Mof_C 	C 	0.7497	0.2618	0.64939	0.109
Mof_H 	H 	0.8227	0.246	0.6514	-0.002
Mof_C 	C 	0.5486	0.2457	0.65865	0.224
Mof_C 	C 	0.438	0.4811	0.57528	0.12
Mof_H 	H 	0.3533	0.45	0.5635	-0.003
Mof_C 	C 	0.4652	0.3902	0.59489	-0.21
Mof_H 	H 	0.4	0.298	0.5959	0.101
Mof_C 	C 	0.5343	0.6155	0.57319	-0.194
Mof_H 	H 	0.517	0.6755	0.5591	0.104
Mof_C 	C 	0.6576	0.6629	0.59193	0.124
Mof_H 	H 	0.7221	0.7554	0.5909	-0.012
Mof_C 	C 	0.6869	0.5746	0.61238	-0.228
Mof_H 	H 	0.7698	0.607	0.6253	0.112
Mof_C 	C 	0.6285	0.1901	0.67026	-0.193
Mof_C 	C 	0.5906	0.0754	0.69716	0.364
Mof_O 	O 	0.47258	0.02481	0.71258	-0.391
Mof_O 	O 	0.67096	0.03209	0.70369	-0.303
Mof_N 	N 	0.60654	0.25094	0.29291	-0.194
Mof_N 	N 	0.7929	0.5767	0.33685	-0.339
Mof_H 	H 	0.8738	0.6134	0.32717	0.154
Mof_H 	H 	0.7734	0.6202	0.35397	0.177
Mof_N 	N 	0.72189	0.3773	0.29829	-0.147
Mof_C 	C 	0.8475	0.4098	0.27965	0.164
Mof_C 	C 	0.5121	0.2503	0.31606	0.109
Mof_H 	H 	0.4233	0.1773	0.31807	-0.002
Mof_C 	C 	0.6971	0.4514	0.32532	0.224
Mof_C 	C 	0.0431	0.562	0.24195	0.1
Mof_H 	H 	0.0967	0.6467	0.23017	0.003
Mof_C 	C 	0.925	0.5348	0.26156	-0.192
Mof_H 	H 	0.898	0.6	0.26257	0.095
Mof_C 	C 	0.0812	0.4657	0.23986	-0.176
Mof_H 	H 	0.1585	0.483	0.22577	0.097
Mof_C 	C 	0.0053	0.3424	0.2586	0.105
Mof_H 	H 	0.0333	0.2779	0.25757	-0.005
Mof_C 	C 	0.8877	0.3131	0.27905	-0.211
Mof_H 	H 	0.8372	0.2302	0.29197	0.107
Mof_C 	C 	0.5616	0.3715	0.33693	-0.194
Mof_C 	C 	0.4848	0.4094	0.36383	0.364
Mof_O 	O 	0.55223	0.52742	0.37925	-0.394
Mof_O 	O 	0.36113	0.32904	0.37036	-0.305
Mof_Cu	Cu	0.55853	0.44147	0.91667	0.91
Mof_Cu	Cu	0.55853	0.11706	0.25	0.907
Mof_Cu	Cu	0.88294	0.44147	0.58333	0.907
Mof_Cu	Cu	0.44147	0.55853	0.41667	0.91
Mof_Cu	Cu	0.44147	0.88294	0.75	0.907
Mof_Cu	Cu	0.11706	0.55853	0.08333	0.906
_end
