data_functionalizedCrystal
_audit_creation_method	'EQeq! by Chris Wilmer'
_symmetry_space_group_name_H-M	'P1'
_symmetry_Int_Tables_number	1
_symmetry_cell_setting	triclinic
loop_
_symmetry_equiv_pos_as_xyz
  x,y,z
_cell_length_a	34.841
_cell_length_b	14.7428
_cell_length_c	31.043
_cell_angle_alpha	90
_cell_angle_beta	101.299
_cell_angle_gamma	90
loop_
_atom_site_label
_atom_site_type_symbol
_atom_site_fract_x
_atom_site_fract_y
_atom_site_fract_z
_atom_site_charge
Mof_I 	I 	0.12041	0.25365	0.55554	-0.379
Mof_Zn	Zn	0.08369	0.36833	0.59243	1.166
Mof_I 	I 	0.02644	0.34491	0.63106	-0.348
Mof_N 	N 	0.5691	0.027	0.0477	-0.27
Mof_N 	N 	0.1243	0.4364	0.6388	-0.272
Mof_C 	C 	0.1523	0.3941	0.6676	0.078
Mof_C 	C 	0.1191	0.5257	0.6447	0.076
Mof_C 	C 	0.1745	0.4374	0.7028	-0.14
Mof_H 	H 	0.1568	0.3328	0.6634	-0.015
Mof_C 	C 	0.1403	0.5743	0.6785	-0.132
Mof_H 	H 	0.1001	0.5558	0.6246	-0.004
Mof_H 	H 	0.1931	0.4054	0.7226	0.087
Mof_C 	C 	0.169	0.5303	0.7089	0.064
Mof_H 	H 	0.1356	0.6359	0.6812	0.099
Mof_C 	C 	0.1922	0.5823	0.7457	0.1
Mof_N 	N 	0.1824	0.6694	0.7489	-0.134
Mof_N 	N 	0.2217	0.541	0.7719	-0.139
Mof_C 	C 	0.2048	0.7156	0.7816	0.105
Mof_C 	C 	0.2409	0.5924	0.8048	0.083
Mof_C 	C 	0.1964	0.813	0.7821	0.063
Mof_N 	N 	0.2334	0.6805	0.8109	-0.138
Mof_C 	C 	0.2728	0.548	0.8363	0.066
Mof_C 	C 	0.163	0.8486	0.7549	-0.13
Mof_C 	C 	0.2223	0.8748	0.8059	-0.131
Mof_C 	C 	0.292	0.5922	0.873	-0.139
Mof_C 	C 	0.2832	0.4593	0.8291	-0.151
Mof_C 	C 	0.1567	0.9408	0.7535	0.075
Mof_H 	H 	0.1451	0.81	0.7379	0.089
Mof_C 	C 	0.2149	0.9666	0.8011	0.08
Mof_H 	H 	0.2445	0.8544	0.8251	0.085
Mof_C 	C 	0.3211	0.5461	0.9015	0.084
Mof_H 	H 	0.2856	0.6516	0.8788	0.094
Mof_C 	C 	0.3126	0.4192	0.8589	0.089
Mof_H 	H 	0.2705	0.4276	0.8046	0.105
Mof_N 	N 	0.1823	0.9984	0.7757	-0.274
Mof_H 	H 	0.1337	0.9634	0.7364	-0.018
Mof_H 	H 	0.2332	0.0074	0.8159	-0.014
Mof_N 	N 	0.3313	0.4611	0.8951	-0.279
Mof_H 	H 	0.3342	0.5763	0.9263	-0.006
Mof_H 	H 	0.3198	0.3601	0.8536	-0.011
Mof_Zn	Zn	0.16882	0.13595	0.76885	1.164
Mof_Zn	Zn	0.37417	0.40016	0.9409	1.165
Mof_N 	N 	0.6375	0.656	0.8183	-0.287
Mof_I 	I 	0.12275	0.15165	0.69512	-0.404
Mof_I 	I 	0.22975	0.23323	0.79116	-0.378
Mof_I 	I 	0.39696	0.26219	0.90304	-0.379
Mof_I 	I 	0.35106	0.40344	0.01316	-0.369
Mof_N 	N 	0.4193	0.4916	0.9446	-0.277
Mof_C 	C 	0.4344	0.5061	0.9086	0.088
Mof_C 	C 	0.4364	0.5345	0.9812	0.088
Mof_C 	C 	0.4661	0.5589	0.9082	-0.144
Mof_H 	H 	0.4225	0.4783	0.8825	-0.016
Mof_H 	H 	0.4263	0.5253	0.0065	-0.01
Mof_C 	C 	0.468	0.5917	0.9837	-0.14
Mof_C 	C 	0.4835	0.6037	0.9459	0.063
Mof_H 	H 	0.4761	0.5649	0.8827	0.098
Mof_H 	H 	0.4786	0.6213	0.0098	0.087
Mof_C 	C 	0.5173	0.6641	0.9453	0.086
Mof_N 	N 	0.5391	0.6449	0.9151	-0.132
Mof_N 	N 	0.5226	0.7336	0.9728	-0.147
Mof_C 	C 	0.5673	0.7055	0.9131	0.096
Mof_C 	C 	0.5511	0.791	0.9663	0.092
Mof_C 	C 	0.592	0.6879	0.8808	0.09
Mof_N 	N 	0.5734	0.7811	0.9373	-0.135
Mof_C 	C 	0.5563	0.8739	0.9941	0.055
Mof_C 	C 	0.5932	0.6024	0.8625	-0.143
Mof_C 	C 	0.6151	0.7541	0.8687	-0.158
Mof_C 	C 	0.5314	0.896	0.0215	-0.122
Mof_C 	C 	0.588	0.9316	0.9932	-0.124
Mof_C 	C 	0.6166	0.5897	0.8313	0.093
Mof_H 	H 	0.5787	0.5547	0.8707	0.095
Mof_C 	C 	0.638	0.7321	0.8387	0.114
Mof_H 	H 	0.6154	0.8123	0.8803	0.101
Mof_C 	C 	0.5383	0.9732	0.0481	0.07
Mof_H 	H 	0.5098	0.8596	0.0225	0.078
Mof_C 	C 	0.5937	0.0057	0.0205	0.068
Mof_H 	H 	0.6051	0.9199	0.9743	0.084
Mof_H 	H 	0.6177	0.5323	0.8191	-0.022
Mof_H 	H 	0.6553	0.7761	0.8326	-0.029
Mof_H 	H 	0.5211	0.9873	0.0665	-0.008
Mof_H 	H 	0.6152	0.0427	0.0203	-0.012
Mof_I 	I 	0.62041	0.75365	0.55554	-0.38
Mof_Zn	Zn	0.58369	0.86833	0.59243	1.165
Mof_I 	I 	0.52644	0.84491	0.63106	-0.349
Mof_N 	N 	0.0691	0.527	0.0477	-0.271
Mof_N 	N 	0.6243	0.9364	0.6388	-0.272
Mof_C 	C 	0.6523	0.8941	0.6676	0.077
Mof_C 	C 	0.6191	0.0257	0.6447	0.076
Mof_C 	C 	0.6745	0.9374	0.7028	-0.139
Mof_H 	H 	0.6568	0.8328	0.6634	-0.015
Mof_C 	C 	0.6403	0.0743	0.6785	-0.131
Mof_H 	H 	0.6001	0.0558	0.6246	-0.004
Mof_H 	H 	0.6931	0.9054	0.7226	0.086
Mof_C 	C 	0.669	0.0303	0.7089	0.064
Mof_H 	H 	0.6356	0.1359	0.6812	0.099
Mof_C 	C 	0.6922	0.0823	0.7457	0.1
Mof_N 	N 	0.6824	0.1694	0.7489	-0.134
Mof_N 	N 	0.7217	0.041	0.7719	-0.139
Mof_C 	C 	0.7048	0.2156	0.7816	0.105
Mof_C 	C 	0.7409	0.0924	0.8048	0.083
Mof_C 	C 	0.6964	0.313	0.7821	0.063
Mof_N 	N 	0.7334	0.1805	0.8109	-0.139
Mof_C 	C 	0.7728	0.048	0.8363	0.065
Mof_C 	C 	0.663	0.3486	0.7549	-0.13
Mof_C 	C 	0.7223	0.3748	0.8059	-0.131
Mof_C 	C 	0.792	0.0922	0.873	-0.139
Mof_C 	C 	0.7832	0.9593	0.8291	-0.15
Mof_C 	C 	0.6567	0.4408	0.7535	0.075
Mof_H 	H 	0.6451	0.31	0.7379	0.089
Mof_C 	C 	0.7149	0.4666	0.8011	0.08
Mof_H 	H 	0.7445	0.3544	0.8251	0.085
Mof_C 	C 	0.8211	0.0461	0.9015	0.084
Mof_H 	H 	0.7856	0.1516	0.8788	0.094
Mof_C 	C 	0.8126	0.9192	0.8589	0.089
Mof_H 	H 	0.7705	0.9276	0.8046	0.104
Mof_N 	N 	0.6823	0.4984	0.7757	-0.274
Mof_H 	H 	0.6337	0.4634	0.7364	-0.018
Mof_H 	H 	0.7332	0.5074	0.8159	-0.013
Mof_N 	N 	0.8313	0.9611	0.8951	-0.279
Mof_H 	H 	0.8342	0.0763	0.9263	-0.006
Mof_H 	H 	0.8198	0.8601	0.8536	-0.011
Mof_Zn	Zn	0.66882	0.63595	0.76885	1.164
Mof_Zn	Zn	0.87417	0.90016	0.9409	1.165
Mof_N 	N 	0.1375	0.156	0.8183	-0.287
Mof_I 	I 	0.62275	0.65165	0.69512	-0.404
Mof_I 	I 	0.72975	0.73323	0.79116	-0.378
Mof_I 	I 	0.89696	0.76219	0.90304	-0.379
Mof_I 	I 	0.85106	0.90344	0.01316	-0.369
Mof_N 	N 	0.9193	0.9916	0.9446	-0.277
Mof_C 	C 	0.9344	0.0061	0.9086	0.088
Mof_C 	C 	0.9364	0.0345	0.9812	0.088
Mof_C 	C 	0.9661	0.0589	0.9082	-0.144
Mof_H 	H 	0.9225	0.9783	0.8825	-0.016
Mof_H 	H 	0.9263	0.0253	0.0065	-0.01
Mof_C 	C 	0.968	0.0917	0.9837	-0.14
Mof_C 	C 	0.9835	0.1037	0.9459	0.063
Mof_H 	H 	0.9761	0.0649	0.8827	0.098
Mof_H 	H 	0.9786	0.1213	0.0098	0.087
Mof_C 	C 	0.0173	0.1641	0.9453	0.086
Mof_N 	N 	0.0391	0.1449	0.9151	-0.132
Mof_N 	N 	0.0226	0.2336	0.9728	-0.147
Mof_C 	C 	0.0673	0.2055	0.9131	0.096
Mof_C 	C 	0.0511	0.291	0.9663	0.092
Mof_C 	C 	0.092	0.1879	0.8808	0.09
Mof_N 	N 	0.0734	0.2811	0.9373	-0.135
Mof_C 	C 	0.0563	0.3739	0.9941	0.055
Mof_C 	C 	0.0932	0.1024	0.8625	-0.143
Mof_C 	C 	0.1151	0.2541	0.8687	-0.158
Mof_C 	C 	0.0314	0.396	0.0215	-0.122
Mof_C 	C 	0.088	0.4316	0.9932	-0.124
Mof_C 	C 	0.1166	0.0897	0.8313	0.093
Mof_H 	H 	0.0787	0.0547	0.8707	0.095
Mof_C 	C 	0.138	0.2321	0.8387	0.114
Mof_H 	H 	0.1154	0.3123	0.8803	0.101
Mof_C 	C 	0.0383	0.4732	0.0481	0.071
Mof_H 	H 	0.0098	0.3596	0.0225	0.078
Mof_C 	C 	0.0937	0.5057	0.0205	0.068
Mof_H 	H 	0.1051	0.4199	0.9743	0.084
Mof_H 	H 	0.1177	0.0323	0.8191	-0.022
Mof_H 	H 	0.1553	0.2761	0.8326	-0.029
Mof_H 	H 	0.0211	0.4873	0.0665	-0.008
Mof_H 	H 	0.1152	0.5427	0.0203	-0.012
Mof_I 	I 	0.12041	0.74635	0.05554	-0.38
Mof_Zn	Zn	0.08369	0.63167	0.09243	1.165
Mof_I 	I 	0.02644	0.65509	0.13106	-0.349
Mof_N 	N 	0.5691	0.973	0.5477	-0.271
Mof_N 	N 	0.1243	0.5636	0.1388	-0.272
Mof_C 	C 	0.1523	0.6059	0.1676	0.078
Mof_C 	C 	0.1191	0.4743	0.1447	0.076
Mof_C 	C 	0.1745	0.5626	0.2028	-0.14
Mof_H 	H 	0.1568	0.6672	0.1634	-0.015
Mof_C 	C 	0.1403	0.4257	0.1785	-0.132
Mof_H 	H 	0.1001	0.4442	0.1246	-0.004
Mof_H 	H 	0.1931	0.5946	0.2226	0.087
Mof_C 	C 	0.169	0.4697	0.2089	0.064
Mof_H 	H 	0.1356	0.3641	0.1812	0.099
Mof_C 	C 	0.1922	0.4177	0.2457	0.1
Mof_N 	N 	0.1824	0.3306	0.2489	-0.134
Mof_N 	N 	0.2217	0.459	0.2719	-0.139
Mof_C 	C 	0.2048	0.2844	0.2816	0.105
Mof_C 	C 	0.2409	0.4076	0.3048	0.083
Mof_C 	C 	0.1964	0.187	0.2821	0.063
Mof_N 	N 	0.2334	0.3195	0.3109	-0.138
Mof_C 	C 	0.2728	0.452	0.3363	0.066
Mof_C 	C 	0.163	0.1514	0.2549	-0.13
Mof_C 	C 	0.2223	0.1252	0.3059	-0.131
Mof_C 	C 	0.292	0.4078	0.373	-0.139
Mof_C 	C 	0.2832	0.5407	0.3291	-0.151
Mof_C 	C 	0.1567	0.0592	0.2535	0.075
Mof_H 	H 	0.1451	0.19	0.2379	0.089
Mof_C 	C 	0.2149	0.0334	0.3011	0.08
Mof_H 	H 	0.2445	0.1456	0.3251	0.085
Mof_C 	C 	0.3211	0.4539	0.4015	0.084
Mof_H 	H 	0.2856	0.3484	0.3788	0.094
Mof_C 	C 	0.3126	0.5808	0.3589	0.089
Mof_H 	H 	0.2705	0.5724	0.3046	0.105
Mof_N 	N 	0.1823	0.0016	0.2757	-0.274
Mof_H 	H 	0.1337	0.0366	0.2364	-0.018
Mof_H 	H 	0.2332	0.9926	0.3159	-0.014
Mof_N 	N 	0.3313	0.5389	0.3951	-0.279
Mof_H 	H 	0.3342	0.4237	0.4263	-0.006
Mof_H 	H 	0.3198	0.6399	0.3536	-0.011
Mof_Zn	Zn	0.16882	0.86405	0.26885	1.164
Mof_Zn	Zn	0.37417	0.59984	0.4409	1.165
Mof_N 	N 	0.6375	0.344	0.3183	-0.287
Mof_I 	I 	0.12275	0.84835	0.19512	-0.404
Mof_I 	I 	0.22975	0.76677	0.29116	-0.378
Mof_I 	I 	0.39696	0.73781	0.40304	-0.379
Mof_I 	I 	0.35106	0.59656	0.51316	-0.369
Mof_N 	N 	0.4193	0.5084	0.4446	-0.277
Mof_C 	C 	0.4344	0.4939	0.4086	0.088
Mof_C 	C 	0.4364	0.4655	0.4812	0.088
Mof_C 	C 	0.4661	0.4411	0.4082	-0.144
Mof_H 	H 	0.4225	0.5217	0.3825	-0.016
Mof_H 	H 	0.4263	0.4747	0.5065	-0.01
Mof_C 	C 	0.468	0.4083	0.4837	-0.14
Mof_C 	C 	0.4835	0.3963	0.4459	0.063
Mof_H 	H 	0.4761	0.4351	0.3827	0.098
Mof_H 	H 	0.4786	0.3787	0.5098	0.087
Mof_C 	C 	0.5173	0.3359	0.4453	0.086
Mof_N 	N 	0.5391	0.3551	0.4151	-0.132
Mof_N 	N 	0.5226	0.2664	0.4728	-0.147
Mof_C 	C 	0.5673	0.2945	0.4131	0.096
Mof_C 	C 	0.5511	0.209	0.4663	0.092
Mof_C 	C 	0.592	0.3121	0.3808	0.09
Mof_N 	N 	0.5734	0.2189	0.4373	-0.135
Mof_C 	C 	0.5563	0.1261	0.4941	0.055
Mof_C 	C 	0.5932	0.3976	0.3625	-0.143
Mof_C 	C 	0.6151	0.2459	0.3687	-0.158
Mof_C 	C 	0.5314	0.104	0.5215	-0.122
Mof_C 	C 	0.588	0.0684	0.4932	-0.124
Mof_C 	C 	0.6166	0.4103	0.3313	0.093
Mof_H 	H 	0.5787	0.4453	0.3707	0.095
Mof_C 	C 	0.638	0.2679	0.3387	0.114
Mof_H 	H 	0.6154	0.1877	0.3803	0.101
Mof_C 	C 	0.5383	0.0268	0.5481	0.07
Mof_H 	H 	0.5098	0.1404	0.5225	0.078
Mof_C 	C 	0.5937	0.9943	0.5205	0.068
Mof_H 	H 	0.6051	0.0801	0.4743	0.084
Mof_H 	H 	0.6177	0.4677	0.3191	-0.022
Mof_H 	H 	0.6553	0.2239	0.3326	-0.029
Mof_H 	H 	0.5211	0.0127	0.5665	-0.008
Mof_H 	H 	0.6152	0.9573	0.5203	-0.012
Mof_I 	I 	0.62041	0.24635	0.05554	-0.38
Mof_Zn	Zn	0.58369	0.13167	0.09243	1.165
Mof_I 	I 	0.52644	0.15509	0.13106	-0.349
Mof_N 	N 	0.0691	0.473	0.5477	-0.271
Mof_N 	N 	0.6243	0.0636	0.1388	-0.271
Mof_C 	C 	0.6523	0.1059	0.1676	0.077
Mof_C 	C 	0.6191	0.9743	0.1447	0.075
Mof_C 	C 	0.6745	0.0626	0.2028	-0.139
Mof_H 	H 	0.6568	0.1672	0.1634	-0.015
Mof_C 	C 	0.6403	0.9257	0.1785	-0.131
Mof_H 	H 	0.6001	0.9442	0.1246	-0.004
Mof_H 	H 	0.6931	0.0946	0.2226	0.086
Mof_C 	C 	0.669	0.9697	0.2089	0.064
Mof_H 	H 	0.6356	0.8641	0.1812	0.099
Mof_C 	C 	0.6922	0.9177	0.2457	0.1
Mof_N 	N 	0.6824	0.8306	0.2489	-0.134
Mof_N 	N 	0.7217	0.959	0.2719	-0.139
Mof_C 	C 	0.7048	0.7844	0.2816	0.105
Mof_C 	C 	0.7409	0.9076	0.3048	0.083
Mof_C 	C 	0.6964	0.687	0.2821	0.063
Mof_N 	N 	0.7334	0.8195	0.3109	-0.138
Mof_C 	C 	0.7728	0.952	0.3363	0.066
Mof_C 	C 	0.663	0.6514	0.2549	-0.13
Mof_C 	C 	0.7223	0.6252	0.3059	-0.131
Mof_C 	C 	0.792	0.9078	0.373	-0.139
Mof_C 	C 	0.7832	0.0407	0.3291	-0.15
Mof_C 	C 	0.6567	0.5592	0.2535	0.075
Mof_H 	H 	0.6451	0.69	0.2379	0.089
Mof_C 	C 	0.7149	0.5334	0.3011	0.08
Mof_H 	H 	0.7445	0.6456	0.3251	0.085
Mof_C 	C 	0.8211	0.9539	0.4015	0.084
Mof_H 	H 	0.7856	0.8484	0.3788	0.094
Mof_C 	C 	0.8126	0.0808	0.3589	0.089
Mof_H 	H 	0.7705	0.0724	0.3046	0.104
Mof_N 	N 	0.6823	0.5016	0.2757	-0.274
Mof_H 	H 	0.6337	0.5366	0.2364	-0.018
Mof_H 	H 	0.7332	0.4926	0.3159	-0.013
Mof_N 	N 	0.8313	0.0389	0.3951	-0.279
Mof_H 	H 	0.8342	0.9237	0.4263	-0.006
Mof_H 	H 	0.8198	0.1399	0.3536	-0.011
Mof_Zn	Zn	0.66882	0.36405	0.26885	1.164
Mof_Zn	Zn	0.87417	0.09984	0.4409	1.165
Mof_N 	N 	0.1375	0.844	0.3183	-0.287
Mof_I 	I 	0.62275	0.34835	0.19512	-0.404
Mof_I 	I 	0.72975	0.26677	0.29116	-0.378
Mof_I 	I 	0.89696	0.23781	0.40304	-0.379
Mof_I 	I 	0.85106	0.09656	0.51316	-0.369
Mof_N 	N 	0.9193	0.0084	0.4446	-0.277
Mof_C 	C 	0.9344	0.9939	0.4086	0.088
Mof_C 	C 	0.9364	0.9655	0.4812	0.088
Mof_C 	C 	0.9661	0.9411	0.4082	-0.144
Mof_H 	H 	0.9225	0.0217	0.3825	-0.016
Mof_H 	H 	0.9263	0.9747	0.5065	-0.01
Mof_C 	C 	0.968	0.9083	0.4837	-0.14
Mof_C 	C 	0.9835	0.8963	0.4459	0.063
Mof_H 	H 	0.9761	0.9351	0.3827	0.098
Mof_H 	H 	0.9786	0.8787	0.5098	0.087
Mof_C 	C 	0.0173	0.8359	0.4453	0.086
Mof_N 	N 	0.0391	0.8551	0.4151	-0.132
Mof_N 	N 	0.0226	0.7664	0.4728	-0.147
Mof_C 	C 	0.0673	0.7945	0.4131	0.096
Mof_C 	C 	0.0511	0.709	0.4663	0.092
Mof_C 	C 	0.092	0.8121	0.3808	0.09
Mof_N 	N 	0.0734	0.7189	0.4373	-0.135
Mof_C 	C 	0.0563	0.6261	0.4941	0.055
Mof_C 	C 	0.0932	0.8976	0.3625	-0.143
Mof_C 	C 	0.1151	0.7459	0.3687	-0.158
Mof_C 	C 	0.0314	0.604	0.5215	-0.122
Mof_C 	C 	0.088	0.5684	0.4932	-0.124
Mof_C 	C 	0.1166	0.9103	0.3313	0.093
Mof_H 	H 	0.0787	0.9453	0.3707	0.095
Mof_C 	C 	0.138	0.7679	0.3387	0.114
Mof_H 	H 	0.1154	0.6877	0.3803	0.101
Mof_C 	C 	0.0383	0.5268	0.5481	0.071
Mof_H 	H 	0.0098	0.6404	0.5225	0.078
Mof_C 	C 	0.0937	0.4943	0.5205	0.068
Mof_H 	H 	0.1051	0.5801	0.4743	0.084
Mof_H 	H 	0.1177	0.9677	0.3191	-0.022
Mof_H 	H 	0.1553	0.7239	0.3326	-0.029
Mof_H 	H 	0.0211	0.5127	0.5665	-0.008
Mof_H 	H 	0.1152	0.4573	0.5203	-0.012
Mof_I 	I 	0.87959	0.25365	0.94446	-0.38
Mof_Zn	Zn	0.91631	0.36833	0.90757	1.165
Mof_I 	I 	0.97356	0.34491	0.86894	-0.349
Mof_N 	N 	0.4309	0.027	0.4523	-0.271
Mof_N 	N 	0.8757	0.4364	0.8612	-0.272
Mof_C 	C 	0.8477	0.3941	0.8324	0.078
Mof_C 	C 	0.8809	0.5257	0.8553	0.076
Mof_C 	C 	0.8255	0.4374	0.7972	-0.14
Mof_H 	H 	0.8432	0.3328	0.8366	-0.015
Mof_C 	C 	0.8597	0.5743	0.8215	-0.132
Mof_H 	H 	0.8999	0.5558	0.8754	-0.004
Mof_H 	H 	0.8069	0.4054	0.7774	0.087
Mof_C 	C 	0.831	0.5303	0.7911	0.064
Mof_H 	H 	0.8644	0.6359	0.8188	0.099
Mof_C 	C 	0.8078	0.5823	0.7543	0.1
Mof_N 	N 	0.8176	0.6694	0.7511	-0.134
Mof_N 	N 	0.7783	0.541	0.7281	-0.139
Mof_C 	C 	0.7952	0.7156	0.7184	0.105
Mof_C 	C 	0.7591	0.5924	0.6952	0.083
Mof_C 	C 	0.8036	0.813	0.7179	0.063
Mof_N 	N 	0.7666	0.6805	0.6891	-0.138
Mof_C 	C 	0.7272	0.548	0.6637	0.066
Mof_C 	C 	0.837	0.8486	0.7451	-0.13
Mof_C 	C 	0.7777	0.8748	0.6941	-0.131
Mof_C 	C 	0.708	0.5922	0.627	-0.139
Mof_C 	C 	0.7168	0.4593	0.6709	-0.151
Mof_C 	C 	0.8433	0.9408	0.7465	0.075
Mof_H 	H 	0.8549	0.81	0.7621	0.089
Mof_C 	C 	0.7851	0.9666	0.6989	0.08
Mof_H 	H 	0.7555	0.8544	0.6749	0.085
Mof_C 	C 	0.6789	0.5461	0.5985	0.084
Mof_H 	H 	0.7144	0.6516	0.6212	0.094
Mof_C 	C 	0.6874	0.4192	0.6411	0.089
Mof_H 	H 	0.7295	0.4276	0.6954	0.105
Mof_N 	N 	0.8177	0.9984	0.7243	-0.274
Mof_H 	H 	0.8663	0.9634	0.7636	-0.018
Mof_H 	H 	0.7668	0.0074	0.6841	-0.014
Mof_N 	N 	0.6687	0.4611	0.6049	-0.279
Mof_H 	H 	0.6658	0.5763	0.5737	-0.006
Mof_H 	H 	0.6802	0.3601	0.6464	-0.011
Mof_Zn	Zn	0.83118	0.13595	0.73115	1.164
Mof_Zn	Zn	0.62583	0.40016	0.5591	1.165
Mof_N 	N 	0.3625	0.656	0.6817	-0.287
Mof_I 	I 	0.87725	0.15165	0.80488	-0.404
Mof_I 	I 	0.77025	0.23323	0.70884	-0.378
Mof_I 	I 	0.60304	0.26219	0.59696	-0.379
Mof_I 	I 	0.64894	0.40344	0.48684	-0.369
Mof_N 	N 	0.5807	0.4916	0.5554	-0.277
Mof_C 	C 	0.5656	0.5061	0.5914	0.088
Mof_C 	C 	0.5636	0.5345	0.5188	0.088
Mof_C 	C 	0.5339	0.5589	0.5918	-0.144
Mof_H 	H 	0.5775	0.4783	0.6175	-0.016
Mof_H 	H 	0.5737	0.5253	0.4935	-0.01
Mof_C 	C 	0.532	0.5917	0.5163	-0.14
Mof_C 	C 	0.5165	0.6037	0.5541	0.063
Mof_H 	H 	0.5239	0.5649	0.6173	0.098
Mof_H 	H 	0.5214	0.6213	0.4902	0.087
Mof_C 	C 	0.4827	0.6641	0.5547	0.086
Mof_N 	N 	0.4609	0.6449	0.5849	-0.132
Mof_N 	N 	0.4774	0.7336	0.5272	-0.147
Mof_C 	C 	0.4327	0.7055	0.5869	0.096
Mof_C 	C 	0.4489	0.791	0.5337	0.092
Mof_C 	C 	0.408	0.6879	0.6192	0.09
Mof_N 	N 	0.4266	0.7811	0.5627	-0.135
Mof_C 	C 	0.4437	0.8739	0.5059	0.055
Mof_C 	C 	0.4068	0.6024	0.6375	-0.143
Mof_C 	C 	0.3849	0.7541	0.6313	-0.158
Mof_C 	C 	0.4686	0.896	0.4785	-0.122
Mof_C 	C 	0.412	0.9316	0.5068	-0.124
Mof_C 	C 	0.3834	0.5897	0.6687	0.093
Mof_H 	H 	0.4213	0.5547	0.6293	0.095
Mof_C 	C 	0.362	0.7321	0.6613	0.114
Mof_H 	H 	0.3846	0.8123	0.6197	0.101
Mof_C 	C 	0.4617	0.9732	0.4519	0.07
Mof_H 	H 	0.4902	0.8596	0.4775	0.078
Mof_C 	C 	0.4063	0.0057	0.4795	0.068
Mof_H 	H 	0.3949	0.9199	0.5257	0.084
Mof_H 	H 	0.3823	0.5323	0.6809	-0.022
Mof_H 	H 	0.3447	0.7761	0.6674	-0.029
Mof_H 	H 	0.4789	0.9873	0.4335	-0.008
Mof_H 	H 	0.3848	0.0427	0.4797	-0.012
Mof_I 	I 	0.37959	0.75365	0.94446	-0.38
Mof_Zn	Zn	0.41631	0.86833	0.90757	1.165
Mof_I 	I 	0.47356	0.84491	0.86894	-0.349
Mof_N 	N 	0.9309	0.527	0.4523	-0.271
Mof_N 	N 	0.3757	0.9364	0.8612	-0.271
Mof_C 	C 	0.3477	0.8941	0.8324	0.077
Mof_C 	C 	0.3809	0.0257	0.8553	0.075
Mof_C 	C 	0.3255	0.9374	0.7972	-0.139
Mof_H 	H 	0.3432	0.8328	0.8366	-0.015
Mof_C 	C 	0.3597	0.0743	0.8215	-0.131
Mof_H 	H 	0.3999	0.0558	0.8754	-0.004
Mof_H 	H 	0.3069	0.9054	0.7774	0.086
Mof_C 	C 	0.331	0.0303	0.7911	0.064
Mof_H 	H 	0.3644	0.1359	0.8188	0.099
Mof_C 	C 	0.3078	0.0823	0.7543	0.1
Mof_N 	N 	0.3176	0.1694	0.7511	-0.134
Mof_N 	N 	0.2783	0.041	0.7281	-0.139
Mof_C 	C 	0.2952	0.2156	0.7184	0.105
Mof_C 	C 	0.2591	0.0924	0.6952	0.083
Mof_C 	C 	0.3036	0.313	0.7179	0.063
Mof_N 	N 	0.2666	0.1805	0.6891	-0.138
Mof_C 	C 	0.2272	0.048	0.6637	0.066
Mof_C 	C 	0.337	0.3486	0.7451	-0.13
Mof_C 	C 	0.2777	0.3748	0.6941	-0.131
Mof_C 	C 	0.208	0.0922	0.627	-0.139
Mof_C 	C 	0.2168	0.9593	0.6709	-0.15
Mof_C 	C 	0.3433	0.4408	0.7465	0.075
Mof_H 	H 	0.3549	0.31	0.7621	0.089
Mof_C 	C 	0.2851	0.4666	0.6989	0.08
Mof_H 	H 	0.2555	0.3544	0.6749	0.085
Mof_C 	C 	0.1789	0.0461	0.5985	0.084
Mof_H 	H 	0.2144	0.1516	0.6212	0.094
Mof_C 	C 	0.1874	0.9192	0.6411	0.089
Mof_H 	H 	0.2295	0.9276	0.6954	0.104
Mof_N 	N 	0.3177	0.4984	0.7243	-0.274
Mof_H 	H 	0.3663	0.4634	0.7636	-0.018
Mof_H 	H 	0.2668	0.5074	0.6841	-0.013
Mof_N 	N 	0.1687	0.9611	0.6049	-0.279
Mof_H 	H 	0.1658	0.0763	0.5737	-0.006
Mof_H 	H 	0.1802	0.8601	0.6464	-0.011
Mof_Zn	Zn	0.33118	0.63595	0.73115	1.164
Mof_Zn	Zn	0.12583	0.90016	0.5591	1.165
Mof_N 	N 	0.8625	0.156	0.6817	-0.287
Mof_I 	I 	0.37725	0.65165	0.80488	-0.404
Mof_I 	I 	0.27025	0.73323	0.70884	-0.378
Mof_I 	I 	0.10304	0.76219	0.59696	-0.379
Mof_I 	I 	0.14894	0.90344	0.48684	-0.369
Mof_N 	N 	0.0807	0.9916	0.5554	-0.277
Mof_C 	C 	0.0656	0.0061	0.5914	0.088
Mof_C 	C 	0.0636	0.0345	0.5188	0.088
Mof_C 	C 	0.0339	0.0589	0.5918	-0.144
Mof_H 	H 	0.0775	0.9783	0.6175	-0.016
Mof_H 	H 	0.0737	0.0253	0.4935	-0.01
Mof_C 	C 	0.032	0.0917	0.5163	-0.14
Mof_C 	C 	0.0165	0.1037	0.5541	0.063
Mof_H 	H 	0.0239	0.0649	0.6173	0.098
Mof_H 	H 	0.0214	0.1213	0.4902	0.087
Mof_C 	C 	0.9827	0.1641	0.5547	0.086
Mof_N 	N 	0.9609	0.1449	0.5849	-0.132
Mof_N 	N 	0.9774	0.2336	0.5272	-0.147
Mof_C 	C 	0.9327	0.2055	0.5869	0.096
Mof_C 	C 	0.9489	0.291	0.5337	0.092
Mof_C 	C 	0.908	0.1879	0.6192	0.09
Mof_N 	N 	0.9266	0.2811	0.5627	-0.135
Mof_C 	C 	0.9437	0.3739	0.5059	0.055
Mof_C 	C 	0.9068	0.1024	0.6375	-0.143
Mof_C 	C 	0.8849	0.2541	0.6313	-0.158
Mof_C 	C 	0.9686	0.396	0.4785	-0.122
Mof_C 	C 	0.912	0.4316	0.5068	-0.124
Mof_C 	C 	0.8834	0.0897	0.6687	0.093
Mof_H 	H 	0.9213	0.0547	0.6293	0.095
Mof_C 	C 	0.862	0.2321	0.6613	0.114
Mof_H 	H 	0.8846	0.3123	0.6197	0.101
Mof_C 	C 	0.9617	0.4732	0.4519	0.071
Mof_H 	H 	0.9902	0.3596	0.4775	0.078
Mof_C 	C 	0.9063	0.5057	0.4795	0.068
Mof_H 	H 	0.8949	0.4199	0.5257	0.084
Mof_H 	H 	0.8823	0.0323	0.6809	-0.022
Mof_H 	H 	0.8447	0.2761	0.6674	-0.029
Mof_H 	H 	0.9789	0.4873	0.4335	-0.008
Mof_H 	H 	0.8848	0.5427	0.4797	-0.012
Mof_I 	I 	0.87959	0.74635	0.44446	-0.38
Mof_Zn	Zn	0.91631	0.63167	0.40757	1.165
Mof_I 	I 	0.97356	0.65509	0.36894	-0.349
Mof_N 	N 	0.4309	0.973	0.9523	-0.271
Mof_N 	N 	0.8757	0.5636	0.3612	-0.272
Mof_C 	C 	0.8477	0.6059	0.3324	0.078
Mof_C 	C 	0.8809	0.4743	0.3553	0.076
Mof_C 	C 	0.8255	0.5626	0.2972	-0.14
Mof_H 	H 	0.8432	0.6672	0.3366	-0.015
Mof_C 	C 	0.8597	0.4257	0.3215	-0.132
Mof_H 	H 	0.8999	0.4442	0.3754	-0.004
Mof_H 	H 	0.8069	0.5946	0.2774	0.087
Mof_C 	C 	0.831	0.4697	0.2911	0.064
Mof_H 	H 	0.8644	0.3641	0.3188	0.099
Mof_C 	C 	0.8078	0.4177	0.2543	0.1
Mof_N 	N 	0.8176	0.3306	0.2511	-0.134
Mof_N 	N 	0.7783	0.459	0.2281	-0.139
Mof_C 	C 	0.7952	0.2844	0.2184	0.105
Mof_C 	C 	0.7591	0.4076	0.1952	0.083
Mof_C 	C 	0.8036	0.187	0.2179	0.063
Mof_N 	N 	0.7666	0.3195	0.1891	-0.138
Mof_C 	C 	0.7272	0.452	0.1637	0.066
Mof_C 	C 	0.837	0.1514	0.2451	-0.13
Mof_C 	C 	0.7777	0.1252	0.1941	-0.131
Mof_C 	C 	0.708	0.4078	0.127	-0.139
Mof_C 	C 	0.7168	0.5407	0.1709	-0.151
Mof_C 	C 	0.8433	0.0592	0.2465	0.075
Mof_H 	H 	0.8549	0.19	0.2621	0.089
Mof_C 	C 	0.7851	0.0334	0.1989	0.08
Mof_H 	H 	0.7555	0.1456	0.1749	0.085
Mof_C 	C 	0.6789	0.4539	0.0985	0.084
Mof_H 	H 	0.7144	0.3484	0.1212	0.094
Mof_C 	C 	0.6874	0.5808	0.1411	0.089
Mof_H 	H 	0.7295	0.5724	0.1954	0.105
Mof_N 	N 	0.8177	0.0016	0.2243	-0.274
Mof_H 	H 	0.8663	0.0366	0.2636	-0.018
Mof_H 	H 	0.7668	0.9926	0.1841	-0.014
Mof_N 	N 	0.6687	0.5389	0.1049	-0.279
Mof_H 	H 	0.6658	0.4237	0.0737	-0.006
Mof_H 	H 	0.6802	0.6399	0.1464	-0.011
Mof_Zn	Zn	0.83118	0.86405	0.23115	1.164
Mof_Zn	Zn	0.62583	0.59984	0.0591	1.165
Mof_N 	N 	0.3625	0.344	0.1817	-0.287
Mof_I 	I 	0.87725	0.84835	0.30488	-0.404
Mof_I 	I 	0.77025	0.76677	0.20884	-0.378
Mof_I 	I 	0.60304	0.73781	0.09696	-0.379
Mof_I 	I 	0.64894	0.59656	0.98684	-0.369
Mof_N 	N 	0.5807	0.5084	0.0554	-0.277
Mof_C 	C 	0.5656	0.4939	0.0914	0.088
Mof_C 	C 	0.5636	0.4655	0.0188	0.088
Mof_C 	C 	0.5339	0.4411	0.0918	-0.144
Mof_H 	H 	0.5775	0.5217	0.1175	-0.016
Mof_H 	H 	0.5737	0.4747	0.9935	-0.01
Mof_C 	C 	0.532	0.4083	0.0163	-0.14
Mof_C 	C 	0.5165	0.3963	0.0541	0.063
Mof_H 	H 	0.5239	0.4351	0.1173	0.098
Mof_H 	H 	0.5214	0.3787	0.9902	0.087
Mof_C 	C 	0.4827	0.3359	0.0547	0.086
Mof_N 	N 	0.4609	0.3551	0.0849	-0.132
Mof_N 	N 	0.4774	0.2664	0.0272	-0.147
Mof_C 	C 	0.4327	0.2945	0.0869	0.096
Mof_C 	C 	0.4489	0.209	0.0337	0.092
Mof_C 	C 	0.408	0.3121	0.1192	0.09
Mof_N 	N 	0.4266	0.2189	0.0627	-0.135
Mof_C 	C 	0.4437	0.1261	0.0059	0.055
Mof_C 	C 	0.4068	0.3976	0.1375	-0.143
Mof_C 	C 	0.3849	0.2459	0.1313	-0.158
Mof_C 	C 	0.4686	0.104	0.9785	-0.122
Mof_C 	C 	0.412	0.0684	0.0068	-0.124
Mof_C 	C 	0.3834	0.4103	0.1687	0.093
Mof_H 	H 	0.4213	0.4453	0.1293	0.095
Mof_C 	C 	0.362	0.2679	0.1613	0.114
Mof_H 	H 	0.3846	0.1877	0.1197	0.101
Mof_C 	C 	0.4617	0.0268	0.9519	0.07
Mof_H 	H 	0.4902	0.1404	0.9775	0.078
Mof_C 	C 	0.4063	0.9943	0.9795	0.068
Mof_H 	H 	0.3949	0.0801	0.0257	0.084
Mof_H 	H 	0.3823	0.4677	0.1809	-0.022
Mof_H 	H 	0.3447	0.2239	0.1674	-0.029
Mof_H 	H 	0.4789	0.0127	0.9335	-0.008
Mof_H 	H 	0.3848	0.9573	0.9797	-0.012
Mof_I 	I 	0.37959	0.24635	0.44446	-0.38
Mof_Zn	Zn	0.41631	0.13167	0.40757	1.165
Mof_I 	I 	0.47356	0.15509	0.36894	-0.349
Mof_N 	N 	0.9309	0.473	0.9523	-0.271
Mof_N 	N 	0.3757	0.0636	0.3612	-0.272
Mof_C 	C 	0.3477	0.1059	0.3324	0.077
Mof_C 	C 	0.3809	0.9743	0.3553	0.076
Mof_C 	C 	0.3255	0.0626	0.2972	-0.139
Mof_H 	H 	0.3432	0.1672	0.3366	-0.015
Mof_C 	C 	0.3597	0.9257	0.3215	-0.131
Mof_H 	H 	0.3999	0.9442	0.3754	-0.004
Mof_H 	H 	0.3069	0.0946	0.2774	0.086
Mof_C 	C 	0.331	0.9697	0.2911	0.064
Mof_H 	H 	0.3644	0.8641	0.3188	0.099
Mof_C 	C 	0.3078	0.9177	0.2543	0.1
Mof_N 	N 	0.3176	0.8306	0.2511	-0.134
Mof_N 	N 	0.2783	0.959	0.2281	-0.139
Mof_C 	C 	0.2952	0.7844	0.2184	0.105
Mof_C 	C 	0.2591	0.9076	0.1952	0.083
Mof_C 	C 	0.3036	0.687	0.2179	0.063
Mof_N 	N 	0.2666	0.8195	0.1891	-0.139
Mof_C 	C 	0.2272	0.952	0.1637	0.065
Mof_C 	C 	0.337	0.6514	0.2451	-0.13
Mof_C 	C 	0.2777	0.6252	0.1941	-0.131
Mof_C 	C 	0.208	0.9078	0.127	-0.139
Mof_C 	C 	0.2168	0.0407	0.1709	-0.15
Mof_C 	C 	0.3433	0.5592	0.2465	0.075
Mof_H 	H 	0.3549	0.69	0.2621	0.089
Mof_C 	C 	0.2851	0.5334	0.1989	0.08
Mof_H 	H 	0.2555	0.6456	0.1749	0.085
Mof_C 	C 	0.1789	0.9539	0.0985	0.084
Mof_H 	H 	0.2144	0.8484	0.1212	0.094
Mof_C 	C 	0.1874	0.0808	0.1411	0.089
Mof_H 	H 	0.2295	0.0724	0.1954	0.104
Mof_N 	N 	0.3177	0.5016	0.2243	-0.274
Mof_H 	H 	0.3663	0.5366	0.2636	-0.018
Mof_H 	H 	0.2668	0.4926	0.1841	-0.013
Mof_N 	N 	0.1687	0.0389	0.1049	-0.279
Mof_H 	H 	0.1658	0.9237	0.0737	-0.006
Mof_H 	H 	0.1802	0.1399	0.1464	-0.011
Mof_Zn	Zn	0.33118	0.36405	0.23115	1.164
Mof_Zn	Zn	0.12583	0.09984	0.0591	1.165
Mof_N 	N 	0.8625	0.844	0.1817	-0.287
Mof_I 	I 	0.37725	0.34835	0.30488	-0.404
Mof_I 	I 	0.27025	0.26677	0.20884	-0.378
Mof_I 	I 	0.10304	0.23781	0.09696	-0.379
Mof_I 	I 	0.14894	0.09656	0.98684	-0.369
Mof_N 	N 	0.0807	0.0084	0.0554	-0.277
Mof_C 	C 	0.0656	0.9939	0.0914	0.088
Mof_C 	C 	0.0636	0.9655	0.0188	0.088
Mof_C 	C 	0.0339	0.9411	0.0918	-0.144
Mof_H 	H 	0.0775	0.0217	0.1175	-0.016
Mof_H 	H 	0.0737	0.9747	0.9935	-0.01
Mof_C 	C 	0.032	0.9083	0.0163	-0.14
Mof_C 	C 	0.0165	0.8963	0.0541	0.063
Mof_H 	H 	0.0239	0.9351	0.1173	0.098
Mof_H 	H 	0.0214	0.8787	0.9902	0.087
Mof_C 	C 	0.9827	0.8359	0.0547	0.086
Mof_N 	N 	0.9609	0.8551	0.0849	-0.132
Mof_N 	N 	0.9774	0.7664	0.0272	-0.147
Mof_C 	C 	0.9327	0.7945	0.0869	0.096
Mof_C 	C 	0.9489	0.709	0.0337	0.092
Mof_C 	C 	0.908	0.8121	0.1192	0.09
Mof_N 	N 	0.9266	0.7189	0.0627	-0.135
Mof_C 	C 	0.9437	0.6261	0.0059	0.055
Mof_C 	C 	0.9068	0.8976	0.1375	-0.143
Mof_C 	C 	0.8849	0.7459	0.1313	-0.158
Mof_C 	C 	0.9686	0.604	0.9785	-0.122
Mof_C 	C 	0.912	0.5684	0.0068	-0.124
Mof_C 	C 	0.8834	0.9103	0.1687	0.093
Mof_H 	H 	0.9213	0.9453	0.1293	0.095
Mof_C 	C 	0.862	0.7679	0.1613	0.114
Mof_H 	H 	0.8846	0.6877	0.1197	0.101
Mof_C 	C 	0.9617	0.5268	0.9519	0.071
Mof_H 	H 	0.9902	0.6404	0.9775	0.078
Mof_C 	C 	0.9063	0.4943	0.9795	0.068
Mof_H 	H 	0.8949	0.5801	0.0257	0.084
Mof_H 	H 	0.8823	0.9677	0.1809	-0.022
Mof_H 	H 	0.8447	0.7239	0.1674	-0.029
Mof_H 	H 	0.9789	0.5127	0.9335	-0.008
Mof_H 	H 	0.8848	0.4573	0.9797	-0.012
_end
