data_functionalizedCrystal
_audit_creation_method	'EQeq! by Chris Wilmer'
_symmetry_space_group_name_H-M	'P1'
_symmetry_Int_Tables_number	1
_symmetry_cell_setting	triclinic
loop_
_symmetry_equiv_pos_as_xyz
  x,y,z
_cell_length_a	13.9152
_cell_length_b	13.9152
_cell_length_c	13.9152
_cell_angle_alpha	90
_cell_angle_beta	90
_cell_angle_gamma	90
loop_
_atom_site_label
_atom_site_type_symbol
_atom_site_fract_x
_atom_site_fract_y
_atom_site_fract_z
_atom_site_charge
Mof_C 	C 	0.6543	0.2897	0.2082	-0.427
Mof_C 	C 	0.1543	0.7897	0.7082	-0.503
Mof_C 	C 	0.3457	0.7103	0.2082	-0.434
Mof_C 	C 	0.8457	0.2103	0.7082	-0.53
Mof_C 	C 	0.3457	0.2897	0.7918	-0.445
Mof_C 	C 	0.8457	0.7897	0.2918	-0.54
Mof_C 	C 	0.6543	0.7103	0.7918	-0.584
Mof_C 	C 	0.1543	0.2103	0.2918	-0.371
Mof_C 	C 	0.2082	0.6543	0.2897	-0.427
Mof_C 	C 	0.7082	0.1543	0.7897	-0.503
Mof_C 	C 	0.2082	0.3457	0.7103	-0.434
Mof_C 	C 	0.7082	0.8457	0.2103	-0.53
Mof_C 	C 	0.7918	0.3457	0.2897	-0.445
Mof_C 	C 	0.2918	0.8457	0.7897	-0.54
Mof_C 	C 	0.7918	0.6543	0.7103	-0.584
Mof_C 	C 	0.2918	0.1543	0.2103	-0.371
Mof_C 	C 	0.2897	0.2082	0.6543	-0.427
Mof_C 	C 	0.7897	0.7082	0.1543	-0.503
Mof_C 	C 	0.7103	0.2082	0.3457	-0.434
Mof_C 	C 	0.2103	0.7082	0.8457	-0.53
Mof_C 	C 	0.2897	0.7918	0.3457	-0.445
Mof_C 	C 	0.7897	0.2918	0.8457	-0.54
Mof_C 	C 	0.7103	0.7918	0.6543	-0.584
Mof_C 	C 	0.2103	0.2918	0.1543	-0.371
Mof_C 	C 	0.2897	0.6543	0.7918	-0.513
Mof_C 	C 	0.7897	0.1543	0.2918	-0.444
Mof_C 	C 	0.7103	0.3457	0.7918	-0.519
Mof_C 	C 	0.2103	0.8457	0.2918	-0.471
Mof_C 	C 	0.2897	0.3457	0.2082	-0.356
Mof_C 	C 	0.7897	0.8457	0.7082	-0.596
Mof_C 	C 	0.7103	0.6543	0.2082	-0.502
Mof_C 	C 	0.2103	0.1543	0.7082	-0.433
Mof_C 	C 	0.6543	0.2082	0.7103	-0.502
Mof_C 	C 	0.1543	0.7082	0.2103	-0.433
Mof_C 	C 	0.3457	0.2082	0.2897	-0.356
Mof_C 	C 	0.8457	0.7082	0.7897	-0.596
Mof_C 	C 	0.3457	0.7918	0.7103	-0.519
Mof_C 	C 	0.8457	0.2918	0.2103	-0.471
Mof_C 	C 	0.6543	0.7918	0.2897	-0.513
Mof_C 	C 	0.1543	0.2918	0.7897	-0.444
Mof_C 	C 	0.2082	0.2897	0.3457	-0.356
Mof_C 	C 	0.7082	0.7897	0.8457	-0.596
Mof_C 	C 	0.2082	0.7103	0.6543	-0.502
Mof_C 	C 	0.7082	0.2103	0.1543	-0.433
Mof_C 	C 	0.7918	0.2897	0.6543	-0.513
Mof_C 	C 	0.2918	0.7897	0.1543	-0.444
Mof_C 	C 	0.7918	0.7103	0.3457	-0.519
Mof_C 	C 	0.2918	0.2103	0.8457	-0.471
Mof_C 	C 	0.3457	0.7103	0.7918	-0.519
Mof_C 	C 	0.8457	0.2103	0.2918	-0.471
Mof_C 	C 	0.6543	0.2897	0.7918	-0.513
Mof_C 	C 	0.1543	0.7897	0.2918	-0.444
Mof_C 	C 	0.6543	0.7103	0.2082	-0.502
Mof_C 	C 	0.1543	0.2103	0.7082	-0.433
Mof_C 	C 	0.3457	0.2897	0.2082	-0.356
Mof_C 	C 	0.8457	0.7897	0.7082	-0.596
Mof_C 	C 	0.7918	0.3457	0.7103	-0.519
Mof_C 	C 	0.2918	0.8457	0.2103	-0.471
Mof_C 	C 	0.7918	0.6543	0.2897	-0.513
Mof_C 	C 	0.2918	0.1543	0.7897	-0.444
Mof_C 	C 	0.2082	0.6543	0.7103	-0.502
Mof_C 	C 	0.7082	0.1543	0.2103	-0.433
Mof_C 	C 	0.2082	0.3457	0.2897	-0.356
Mof_C 	C 	0.7082	0.8457	0.7897	-0.596
Mof_C 	C 	0.7103	0.7918	0.3457	-0.519
Mof_C 	C 	0.2103	0.2918	0.8457	-0.471
Mof_C 	C 	0.2897	0.7918	0.6543	-0.513
Mof_C 	C 	0.7897	0.2918	0.1543	-0.444
Mof_C 	C 	0.7103	0.2082	0.6543	-0.502
Mof_C 	C 	0.2103	0.7082	0.1543	-0.433
Mof_C 	C 	0.2897	0.2082	0.3457	-0.356
Mof_C 	C 	0.7897	0.7082	0.8457	-0.596
Mof_C 	C 	0.7103	0.3457	0.2082	-0.434
Mof_C 	C 	0.2103	0.8457	0.7082	-0.53
Mof_C 	C 	0.2897	0.6543	0.2082	-0.427
Mof_C 	C 	0.7897	0.1543	0.7082	-0.503
Mof_C 	C 	0.7103	0.6543	0.7918	-0.584
Mof_C 	C 	0.2103	0.1543	0.2918	-0.371
Mof_C 	C 	0.2897	0.3457	0.7918	-0.445
Mof_C 	C 	0.7897	0.8457	0.2918	-0.54
Mof_C 	C 	0.3457	0.7918	0.2897	-0.445
Mof_C 	C 	0.8457	0.2918	0.7897	-0.54
Mof_C 	C 	0.6543	0.7918	0.7103	-0.584
Mof_C 	C 	0.1543	0.2918	0.2103	-0.371
Mof_C 	C 	0.6543	0.2082	0.2897	-0.427
Mof_C 	C 	0.1543	0.7082	0.7897	-0.503
Mof_C 	C 	0.3457	0.2082	0.7103	-0.434
Mof_C 	C 	0.8457	0.7082	0.2103	-0.53
Mof_C 	C 	0.7918	0.7103	0.6543	-0.584
Mof_C 	C 	0.2918	0.2103	0.1543	-0.371
Mof_C 	C 	0.7918	0.2897	0.3457	-0.445
Mof_C 	C 	0.2918	0.7897	0.8457	-0.54
Mof_C 	C 	0.2082	0.7103	0.3457	-0.434
Mof_C 	C 	0.7082	0.2103	0.8457	-0.53
Mof_C 	C 	0.2082	0.2897	0.6543	-0.427
Mof_C 	C 	0.7082	0.7897	0.1543	-0.503
Mof_I 	I 	0.72216	0.5	0.5	-0.842
Mof_I 	I 	0.22216	0	-0	-0.536
Mof_I 	I 	0.27784	0.5	0.5	-0.783
Mof_I 	I 	0.77784	0	-0	-0.588
Mof_I 	I 	0.5	0.72216	0.5	-0.842
Mof_I 	I 	-0	0.22216	-0	-0.536
Mof_I 	I 	0.5	0.27784	0.5	-0.783
Mof_I 	I 	-9.36876e-33	0.77784	-0	-0.588
Mof_I 	I 	0.5	0.5	0.72216	-0.842
Mof_I 	I 	8.32967e-34	-2.34219e-33	0.22216	-0.536
Mof_I 	I 	0.5	0.5	0.27784	-0.783
Mof_I 	I 	-6.45233e-33	-9.36876e-33	0.77784	-0.588
Mof_Cu	Cu	0.60844	0.39156	0.39156	0.739
Mof_N 	N 	0.6952	0.3048	0.3048	-0.241
Mof_Cu	Cu	0.10844	0.89156	0.89156	0.64
Mof_N 	N 	0.1952	0.8048	0.8048	-0.251
Mof_Cu	Cu	0.39156	0.60844	0.39156	0.739
Mof_N 	N 	0.3048	0.6952	0.3048	-0.241
Mof_Cu	Cu	0.89156	0.10844	0.89156	0.64
Mof_N 	N 	0.8048	0.1952	0.8048	-0.251
Mof_Cu	Cu	0.39156	0.39156	0.60844	0.739
Mof_N 	N 	0.3048	0.3048	0.6952	-0.241
Mof_Cu	Cu	0.89156	0.89156	0.10844	0.64
Mof_N 	N 	0.8048	0.8048	0.1952	-0.251
Mof_Cu	Cu	0.60844	0.60844	0.60844	0.733
Mof_N 	N 	0.6952	0.6952	0.6952	-0.244
Mof_Cu	Cu	0.10844	0.10844	0.10844	0.752
Mof_N 	N 	0.1952	0.1952	0.1952	-0.243
Mof_Cu	Cu	0.39156	0.60844	0.60844	0.736
Mof_N 	N 	0.3048	0.6952	0.6952	-0.242
Mof_Cu	Cu	0.89156	0.10844	0.10844	0.694
Mof_N 	N 	0.8048	0.1952	0.1952	-0.247
Mof_Cu	Cu	0.60844	0.39156	0.60844	0.736
Mof_N 	N 	0.6952	0.3048	0.6952	-0.242
Mof_Cu	Cu	0.10844	0.89156	0.10844	0.694
Mof_N 	N 	0.1952	0.8048	0.1952	-0.247
Mof_Cu	Cu	0.39156	0.39156	0.39156	0.743
Mof_N 	N 	0.3048	0.3048	0.3048	-0.239
Mof_Cu	Cu	0.89156	0.89156	0.89156	0.588
Mof_N 	N 	0.8048	0.8048	0.8048	-0.254
Mof_Cu	Cu	0.60844	0.60844	0.39156	0.736
Mof_N 	N 	0.6952	0.6952	0.3048	-0.242
Mof_Cu	Cu	0.10844	0.10844	0.89156	0.694
Mof_N 	N 	0.1952	0.1952	0.8048	-0.247
Mof_C 	C 	0.753	0.247	0.368	0.908
Mof_C 	C 	0.253	0.747	0.868	1.029
Mof_C 	C 	0.247	0.753	0.368	0.908
Mof_C 	C 	0.747	0.253	0.868	1.029
Mof_C 	C 	0.247	0.247	0.632	0.913
Mof_C 	C 	0.747	0.747	0.132	1.046
Mof_C 	C 	0.753	0.753	0.632	1.186
Mof_C 	C 	0.253	0.253	0.132	0.803
Mof_C 	C 	0.368	0.753	0.247	0.908
Mof_C 	C 	0.868	0.253	0.747	1.029
Mof_C 	C 	0.368	0.247	0.753	0.908
Mof_C 	C 	0.868	0.747	0.253	1.029
Mof_C 	C 	0.632	0.247	0.247	0.913
Mof_C 	C 	0.132	0.747	0.747	1.046
Mof_C 	C 	0.632	0.753	0.753	1.186
Mof_C 	C 	0.132	0.253	0.253	0.803
Mof_C 	C 	0.247	0.368	0.753	0.908
Mof_C 	C 	0.747	0.868	0.253	1.029
Mof_C 	C 	0.753	0.368	0.247	0.908
Mof_C 	C 	0.253	0.868	0.747	1.029
Mof_C 	C 	0.247	0.632	0.247	0.913
Mof_C 	C 	0.747	0.132	0.747	1.046
Mof_C 	C 	0.753	0.632	0.753	1.186
Mof_C 	C 	0.253	0.132	0.253	0.803
Mof_C 	C 	0.247	0.753	0.632	1.052
Mof_C 	C 	0.747	0.253	0.132	0.927
Mof_C 	C 	0.753	0.247	0.632	1.052
Mof_C 	C 	0.253	0.747	0.132	0.927
Mof_C 	C 	0.247	0.247	0.368	0.763
Mof_C 	C 	0.747	0.747	0.868	1.144
Mof_C 	C 	0.753	0.753	0.368	1.048
Mof_C 	C 	0.253	0.253	0.868	0.91
Mof_C 	C 	0.753	0.368	0.753	1.048
Mof_C 	C 	0.253	0.868	0.253	0.91
Mof_C 	C 	0.247	0.368	0.247	0.763
Mof_C 	C 	0.747	0.868	0.747	1.144
Mof_C 	C 	0.247	0.632	0.753	1.052
Mof_C 	C 	0.747	0.132	0.253	0.927
Mof_C 	C 	0.753	0.632	0.247	1.052
Mof_C 	C 	0.253	0.132	0.747	0.927
Mof_C 	C 	0.368	0.247	0.247	0.763
Mof_C 	C 	0.868	0.747	0.747	1.144
Mof_C 	C 	0.368	0.753	0.753	1.048
Mof_C 	C 	0.868	0.253	0.253	0.91
Mof_C 	C 	0.632	0.247	0.753	1.052
Mof_C 	C 	0.132	0.747	0.253	0.927
Mof_C 	C 	0.632	0.753	0.247	1.052
Mof_C 	C 	0.132	0.253	0.747	0.927
_end
