data_functionalizedCrystal
_audit_creation_method	'EQeq! by Chris Wilmer'
_symmetry_space_group_name_H-M	'P1'
_symmetry_Int_Tables_number	1
_symmetry_cell_setting	triclinic
loop_
_symmetry_equiv_pos_as_xyz
  x,y,z
_cell_length_a	19.961
_cell_length_b	6.081
_cell_length_c	21.693
_cell_angle_alpha	90
_cell_angle_beta	92.694
_cell_angle_gamma	90
loop_
_atom_site_label
_atom_site_type_symbol
_atom_site_fract_x
_atom_site_fract_y
_atom_site_fract_z
_atom_site_charge
Mof_C 	C 	0.1849	0.9427	0.3845	0.05
Mof_H 	H 	0.1568	0.0637	0.3879	0.009
Mof_C 	C 	0.1743	0.8034	0.3347	-0.066
Mof_H 	H 	0.1404	0.833	0.305	0.043
Mof_C 	C 	0.2142	0.6203	0.32949	-0.046
Mof_C 	C 	0.2648	0.5869	0.3754	-0.071
Mof_H 	H 	0.293	0.4656	0.3737	0.051
Mof_C 	C 	0.2723	0.7348	0.42285	0.037
Mof_H 	H 	0.306	0.7108	0.4532	0.013
Mof_C 	C 	0.2066	0.4648	0.2769	0.256
Mof_C 	C 	0.1504	0.4863	0.2303	-0.777
Mof_H 	H 	0.1215	0.6042	0.2418	0.256
Mof_H 	H 	0.1254	0.3515	0.2282	0.264
Mof_H 	H 	0.1678	0.5173	0.1907	0.271
Mof_C 	C 	0.12195	0.2484	0.5152	0.365
Mof_C 	C 	0.05898	0.3775	0.50785	-0.131
Mof_C 	C 	0.05761	0.5693	0.4734	-0.115
Mof_H 	H 	0.0965	0.6169	0.4556	0.103
Mof_C 	C 	0.9993	0.6918	0.4651	0.254
Mof_N 	N 	0.23323	0.912	0.4275	-0.252
Mof_N 	N 	0.2537	0.3229	0.2751	-0.141
Mof_O 	O 	0.17342	0.3195	0.49049	-0.466
Mof_O 	O 	0.12201	0.0743	0.5445	-0.355
Mof_O 	O 	0.0007	0.8774	0.4301	-0.446
Mof_H 	H 	0.9635	0.9349	0.4286	0.291
Mof_C 	C 	0.6849	0.4427	0.8845	0.05
Mof_H 	H 	0.6568	0.5637	0.8879	0.015
Mof_C 	C 	0.6743	0.3034	0.8347	-0.063
Mof_H 	H 	0.6404	0.333	0.805	0.043
Mof_C 	C 	0.7142	0.1203	0.82949	-0.046
Mof_C 	C 	0.7648	0.0869	0.8754	-0.069
Mof_H 	H 	0.793	0.9656	0.8737	0.054
Mof_C 	C 	0.7723	0.2348	0.92285	0.039
Mof_H 	H 	0.806	0.2108	0.9532	0.029
Mof_C 	C 	0.7066	0.9648	0.7769	0.256
Mof_C 	C 	0.6504	0.9863	0.7303	-0.764
Mof_H 	H 	0.6215	0.1042	0.7418	0.253
Mof_H 	H 	0.6254	0.8515	0.7282	0.262
Mof_H 	H 	0.6678	0.0173	0.6907	0.267
Mof_C 	C 	0.62195	0.7484	0.0152	0.329
Mof_C 	C 	0.55898	0.8775	0.00785	-0.237
Mof_C 	C 	0.55761	0.0693	0.9734	0.024
Mof_H 	H 	0.5965	0.1169	0.9556	0.067
Mof_C 	C 	0.4993	0.1918	0.9651	0.182
Mof_N 	N 	0.73323	0.412	0.9275	-0.24
Mof_N 	N 	0.7537	0.8229	0.7751	-0.14
Mof_O 	O 	0.67342	0.8195	0.99049	-0.405
Mof_O 	O 	0.62201	0.5743	0.0445	-0.361
Mof_O 	O 	0.5007	0.3774	0.9301	-0.407
Mof_H 	H 	0.4635	0.4349	0.9286	0.28
Mof_C 	C 	0.3151	0.9427	0.6155	0.05
Mof_H 	H 	0.3432	0.0637	0.6121	0.009
Mof_C 	C 	0.3257	0.8034	0.6653	-0.065
Mof_H 	H 	0.3596	0.833	0.695	0.044
Mof_C 	C 	0.2858	0.6203	0.67051	-0.046
Mof_C 	C 	0.2352	0.5869	0.6246	-0.071
Mof_H 	H 	0.207	0.4656	0.6263	0.051
Mof_C 	C 	0.2277	0.7348	0.57715	0.037
Mof_H 	H 	0.194	0.7108	0.5468	0.013
Mof_C 	C 	0.2934	0.4648	0.7231	0.259
Mof_C 	C 	0.3496	0.4863	0.7697	-0.784
Mof_H 	H 	0.3785	0.6042	0.7582	0.26
Mof_H 	H 	0.3746	0.3515	0.7718	0.268
Mof_H 	H 	0.3322	0.5173	0.8093	0.275
Mof_C 	C 	0.37805	0.2484	0.4848	0.368
Mof_C 	C 	0.44102	0.3775	0.49215	-0.14
Mof_C 	C 	0.44239	0.5693	0.5266	-0.103
Mof_H 	H 	0.4035	0.6169	0.5444	0.099
Mof_C 	C 	0.5007	0.6918	0.5349	0.242
Mof_N 	N 	0.26677	0.912	0.5725	-0.252
Mof_N 	N 	0.2463	0.3229	0.7249	-0.142
Mof_O 	O 	0.32658	0.3195	0.50951	-0.467
Mof_O 	O 	0.37799	0.0743	0.4555	-0.356
Mof_O 	O 	0.4993	0.8774	0.5699	-0.437
Mof_H 	H 	0.5365	0.9349	0.5714	0.287
Mof_C 	C 	0.8151	0.4427	0.1155	0.048
Mof_H 	H 	0.8432	0.5637	0.1121	0.006
Mof_C 	C 	0.8257	0.3034	0.1653	-0.069
Mof_H 	H 	0.8596	0.333	0.195	0.044
Mof_C 	C 	0.7858	0.1203	0.17051	-0.044
Mof_C 	C 	0.7352	0.0869	0.1246	-0.08
Mof_H 	H 	0.707	0.9656	0.1263	0.052
Mof_C 	C 	0.7277	0.2348	0.07715	0.039
Mof_H 	H 	0.694	0.2108	0.0468	-0.003
Mof_C 	C 	0.7934	0.9648	0.2231	0.255
Mof_C 	C 	0.8496	0.9863	0.2697	-0.77
Mof_H 	H 	0.8785	0.1042	0.2582	0.255
Mof_H 	H 	0.8746	0.8515	0.2718	0.264
Mof_H 	H 	0.8322	0.0173	0.3093	0.269
Mof_C 	C 	0.87805	0.7484	0.9848	0.407
Mof_C 	C 	0.94102	0.8775	0.99215	-0.05
Mof_C 	C 	0.94239	0.0693	0.0266	-0.212
Mof_H 	H 	0.9035	0.1169	0.0444	0.125
Mof_C 	C 	0.0007	0.1918	0.0349	0.283
Mof_N 	N 	0.76677	0.412	0.0725	-0.26
Mof_N 	N 	0.7463	0.8229	0.2249	-0.141
Mof_O 	O 	0.82658	0.8195	0.00951	-0.519
Mof_O 	O 	0.87799	0.5743	0.9555	-0.35
Mof_O 	O 	0.9993	0.3774	0.0699	-0.451
Mof_H 	H 	0.0365	0.4349	0.0714	0.284
Mof_C 	C 	0.8151	0.0573	0.6155	0.049
Mof_H 	H 	0.8432	0.9363	0.6121	0.009
Mof_C 	C 	0.8257	0.1966	0.6653	-0.065
Mof_H 	H 	0.8596	0.167	0.695	0.044
Mof_C 	C 	0.7858	0.3797	0.67051	-0.046
Mof_C 	C 	0.7352	0.4131	0.6246	-0.07
Mof_H 	H 	0.707	0.5344	0.6263	0.051
Mof_C 	C 	0.7277	0.2652	0.57715	0.037
Mof_H 	H 	0.694	0.2892	0.5468	0.013
Mof_C 	C 	0.7934	0.5352	0.7231	0.259
Mof_C 	C 	0.8496	0.5137	0.7697	-0.784
Mof_H 	H 	0.8785	0.3958	0.7582	0.26
Mof_H 	H 	0.8746	0.6485	0.7718	0.268
Mof_H 	H 	0.8322	0.4827	0.8093	0.275
Mof_C 	C 	0.87805	0.7516	0.4848	0.371
Mof_C 	C 	0.94102	0.6225	0.49215	-0.148
Mof_C 	C 	0.94239	0.4307	0.5266	-0.091
Mof_H 	H 	0.9035	0.3831	0.5444	0.095
Mof_C 	C 	0.0007	0.3082	0.5349	0.229
Mof_N 	N 	0.76677	0.088	0.5725	-0.252
Mof_N 	N 	0.7463	0.6771	0.7249	-0.142
Mof_O 	O 	0.82658	0.6805	0.50951	-0.467
Mof_O 	O 	0.87799	0.9257	0.4555	-0.357
Mof_O 	O 	0.9993	0.1226	0.5699	-0.428
Mof_H 	H 	0.0365	0.0651	0.5714	0.281
Mof_C 	C 	0.3151	0.5573	0.1155	0.048
Mof_H 	H 	0.3432	0.4363	0.1121	0.005
Mof_C 	C 	0.3257	0.6966	0.1653	-0.069
Mof_H 	H 	0.3596	0.667	0.195	0.044
Mof_C 	C 	0.2858	0.8797	0.17051	-0.044
Mof_C 	C 	0.2352	0.9131	0.1246	-0.079
Mof_H 	H 	0.207	0.0344	0.1263	0.051
Mof_C 	C 	0.2277	0.7652	0.07715	0.038
Mof_H 	H 	0.194	0.7892	0.0468	-0.003
Mof_C 	C 	0.2934	0.0352	0.2231	0.254
Mof_C 	C 	0.3496	0.0137	0.2697	-0.769
Mof_H 	H 	0.3785	0.8958	0.2582	0.254
Mof_H 	H 	0.3746	0.1485	0.2718	0.263
Mof_H 	H 	0.3322	0.9827	0.3093	0.269
Mof_C 	C 	0.37805	0.2516	0.9848	0.407
Mof_C 	C 	0.44102	0.1225	0.99215	-0.04
Mof_C 	C 	0.44239	0.9307	0.0266	-0.233
Mof_H 	H 	0.4035	0.8831	0.0444	0.131
Mof_C 	C 	0.5007	0.8082	0.0349	0.302
Mof_N 	N 	0.26677	0.588	0.0725	-0.261
Mof_N 	N 	0.2463	0.1771	0.2249	-0.141
Mof_O 	O 	0.32658	0.1805	0.00951	-0.521
Mof_O 	O 	0.37799	0.4257	0.9555	-0.349
Mof_O 	O 	0.4993	0.6226	0.0699	-0.467
Mof_H 	H 	0.5365	0.5651	0.0714	0.292
Mof_C 	C 	0.6849	0.0573	0.3845	0.048
Mof_H 	H 	0.6568	0.9363	0.3879	0.01
Mof_C 	C 	0.6743	0.1966	0.3347	-0.065
Mof_H 	H 	0.6404	0.167	0.305	0.043
Mof_C 	C 	0.7142	0.3797	0.32949	-0.046
Mof_C 	C 	0.7648	0.4131	0.3754	-0.071
Mof_H 	H 	0.793	0.5344	0.3737	0.051
Mof_C 	C 	0.7723	0.2652	0.42285	0.037
Mof_H 	H 	0.806	0.2892	0.4532	0.013
Mof_C 	C 	0.7066	0.5352	0.2769	0.257
Mof_C 	C 	0.6504	0.5137	0.2303	-0.779
Mof_H 	H 	0.6215	0.3958	0.2418	0.258
Mof_H 	H 	0.6254	0.6485	0.2282	0.266
Mof_H 	H 	0.6678	0.4827	0.1907	0.272
Mof_C 	C 	0.62195	0.7516	0.5152	0.368
Mof_C 	C 	0.55898	0.6225	0.50785	-0.139
Mof_C 	C 	0.55761	0.4307	0.4734	-0.103
Mof_H 	H 	0.5965	0.3831	0.4556	0.099
Mof_C 	C 	0.4993	0.3082	0.4651	0.242
Mof_N 	N 	0.73323	0.088	0.4275	-0.252
Mof_N 	N 	0.7537	0.6771	0.2751	-0.141
Mof_O 	O 	0.67342	0.6805	0.49049	-0.466
Mof_O 	O 	0.62201	0.9257	0.5445	-0.356
Mof_O 	O 	0.5007	0.1226	0.4301	-0.437
Mof_H 	H 	0.4635	0.0651	0.4286	0.287
Mof_C 	C 	0.1849	0.5573	0.8845	0.05
Mof_H 	H 	0.1568	0.4363	0.8879	0.015
Mof_C 	C 	0.1743	0.6966	0.8347	-0.063
Mof_H 	H 	0.1404	0.667	0.805	0.043
Mof_C 	C 	0.2142	0.8797	0.82949	-0.047
Mof_C 	C 	0.2648	0.9131	0.8754	-0.067
Mof_H 	H 	0.293	0.0344	0.8737	0.053
Mof_C 	C 	0.2723	0.7652	0.92285	0.038
Mof_H 	H 	0.306	0.7892	0.9532	0.03
Mof_C 	C 	0.2066	0.0352	0.7769	0.256
Mof_C 	C 	0.1504	0.0137	0.7303	-0.769
Mof_H 	H 	0.1215	0.8958	0.7418	0.254
Mof_H 	H 	0.1254	0.1485	0.7282	0.263
Mof_H 	H 	0.1678	0.9827	0.6907	0.269
Mof_C 	C 	0.12195	0.2516	0.0152	0.324
Mof_C 	C 	0.05898	0.1225	0.00785	-0.231
Mof_C 	C 	0.05761	0.9307	0.9734	0.02
Mof_H 	H 	0.0965	0.8831	0.9556	0.069
Mof_C 	C 	0.9993	0.8082	0.9651	0.187
Mof_N 	N 	0.23323	0.588	0.9275	-0.239
Mof_N 	N 	0.2537	0.1771	0.7751	-0.141
Mof_O 	O 	0.17342	0.1805	0.99049	-0.402
Mof_O 	O 	0.12201	0.4257	0.0445	-0.359
Mof_O 	O 	0.0007	0.6226	0.9301	-0.41
Mof_H 	H 	0.9635	0.5651	0.9286	0.282
Mof_Zn	Zn	0.25	0.12138	0.5	1.211
Mof_Zn	Zn	0.75	0.62138	-0	1.194
Mof_Zn	Zn	0.75	0.87862	0.5	1.211
Mof_Zn	Zn	0.25	0.37862	-0	1.194
_end
