# CIF file generated by openbabel 3.1.0, see https://openbabel.org
data_I
_chemical_name_common 'image0'
_cell_length_a 15.356
_cell_length_b 15.356
_cell_length_c 12.617
_cell_angle_alpha 90
_cell_angle_beta 90
_cell_angle_gamma 120
_space_group_name_H-M_alt 'P 1'
_space_group_name_Hall 'P 1'
loop_
    _symmetry_equiv_pos_as_xyz
    x,y,z
loop_
    _atom_site_label
    _atom_site_type_symbol
    _atom_site_fract_x
    _atom_site_fract_y
    _atom_site_fract_z
    _atom_site_occupancy
    Zn1      Zn       0.64760    0.68280    0.99320    1.000
    Zn2      Zn       0.77170    0.93160    0.19440    1.000
    P1       P        0.56530    0.73940    0.18130    1.000
    P2       P        0.84390    0.77410    0.12990    1.000
    O1       O        0.79300    0.75200    0.02200    1.000
    O2       O        0.78300    0.69000    0.20800    1.000
    O3       O        0.54700    0.65500    0.10100    1.000
    O4       O        0.60800    0.72600    0.28700    1.000
    O5       O        0.64000    0.84000    0.13400    1.000
    O6       O        0.94600    0.78500    0.10900    1.000
    O7       O        0.86000    0.87100    0.17700    1.000
    O8       O        0.47000    0.74100    0.20600    1.000
    Zn3      Zn       0.31427    0.01613    0.32653    1.000
    Zn4      Zn       0.43837    0.26493    0.52773    1.000
    P3       P        0.23197    0.07273    0.51463    1.000
    P4       P        0.51057    0.10743    0.46323    1.000
    O9       O        0.45967    0.08533    0.35533    1.000
    O10      O        0.44967    0.02333    0.54133    1.000
    O11      O        0.21367    0.98833    0.43433    1.000
    O12      O        0.27467    0.05933    0.62033    1.000
    O13      O        0.30667    0.17333    0.46733    1.000
    O14      O        0.61267    0.11833    0.44233    1.000
    O15      O        0.52667    0.20433    0.51033    1.000
    O16      O        0.13667    0.07433    0.53933    1.000
    Zn5      Zn       0.98093    0.34947    0.65987    1.000
    Zn6      Zn       0.10503    0.59827    0.86107    1.000
    P5       P        0.89863    0.40607    0.84797    1.000
    P6       P        0.17723    0.44077    0.79657    1.000
    O17      O        0.12633    0.41867    0.68867    1.000
    O18      O        0.11633    0.35667    0.87467    1.000
    O19      O        0.88033    0.32167    0.76767    1.000
    O20      O        0.94133    0.39267    0.95367    1.000
    O21      O        0.97333    0.50667    0.80067    1.000
    O22      O        0.27933    0.45167    0.77567    1.000
    O23      O        0.19333    0.53767    0.84367    1.000
    O24      O        0.80333    0.40767    0.87267    1.000
    Zn7      Zn       0.31720    0.96480    0.99320    1.000
    Zn8      Zn       0.06840    0.84010    0.19440    1.000
    P7       P        0.26060    0.82590    0.18130    1.000
    P8       P        0.22590    0.06980    0.12990    1.000
    O25      O        0.24800    0.04100    0.02200    1.000
    O26      O        0.31000    0.09300    0.20800    1.000
    O27      O        0.34500    0.89200    0.10100    1.000
    O28      O        0.27400    0.88200    0.28700    1.000
    O29      O        0.16000    0.80000    0.13400    1.000
    O30      O        0.21500    0.16100    0.10900    1.000
    O31      O        0.12900    0.98900    0.17700    1.000
    O32      O        0.25900    0.72900    0.20600    1.000
    Zn9      Zn       0.98387    0.29813    0.32653    1.000
    Zn10     Zn       0.73507    0.17343    0.52773    1.000
    P9       P        0.92727    0.15923    0.51463    1.000
    P10      P        0.89257    0.40313    0.46323    1.000
    O33      O        0.91467    0.37433    0.35533    1.000
    O34      O        0.97667    0.42633    0.54133    1.000
    O35      O        0.01167    0.22533    0.43433    1.000
    O36      O        0.94067    0.21533    0.62033    1.000
    O37      O        0.82667    0.13333    0.46733    1.000
    O38      O        0.88167    0.49433    0.44233    1.000
    O39      O        0.79567    0.32233    0.51033    1.000
    O40      O        0.92567    0.06233    0.53933    1.000
    Zn11     Zn       0.65053    0.63147    0.65987    1.000
    Zn12     Zn       0.40173    0.50677    0.86107    1.000
    P11      P        0.59393    0.49257    0.84797    1.000
    P12      P        0.55923    0.73647    0.79657    1.000
    O41      O        0.58133    0.70767    0.68867    1.000
    O42      O        0.64333    0.75967    0.87467    1.000
    O43      O        0.67833    0.55867    0.76767    1.000
    O44      O        0.60733    0.54867    0.95367    1.000
    O45      O        0.49333    0.46667    0.80067    1.000
    O46      O        0.54833    0.82767    0.77567    1.000
    O47      O        0.46233    0.65567    0.84367    1.000
    O48      O        0.59233    0.39567    0.87267    1.000
    Zn13     Zn       0.03520    0.35240    0.99320    1.000
    Zn14     Zn       0.15990    0.22830    0.19440    1.000
    P13      P        0.17410    0.43470    0.18130    1.000
    P14      P        0.93020    0.15610    0.12990    1.000
    O49      O        0.95900    0.20700    0.02200    1.000
    O50      O        0.90700    0.21700    0.20800    1.000
    O51      O        0.10800    0.45300    0.10100    1.000
    O52      O        0.11800    0.39200    0.28700    1.000
    O53      O        0.20000    0.36000    0.13400    1.000
    O54      O        0.83900    0.05400    0.10900    1.000
    O55      O        0.01100    0.14000    0.17700    1.000
    O56      O        0.27100    0.53000    0.20600    1.000
    Zn15     Zn       0.70187    0.68573    0.32653    1.000
    Zn16     Zn       0.82657    0.56163    0.52773    1.000
    P15      P        0.84077    0.76803    0.51463    1.000
    P16      P        0.59687    0.48943    0.46323    1.000
    O57      O        0.62567    0.54033    0.35533    1.000
    O58      O        0.57367    0.55033    0.54133    1.000
    O59      O        0.77467    0.78633    0.43433    1.000
    O60      O        0.78467    0.72533    0.62033    1.000
    O61      O        0.86667    0.69333    0.46733    1.000
    O62      O        0.50567    0.38733    0.44233    1.000
    O63      O        0.67767    0.47333    0.51033    1.000
    O64      O        0.93767    0.86333    0.53933    1.000
    Zn17     Zn       0.36853    0.01907    0.65987    1.000
    Zn18     Zn       0.49323    0.89497    0.86107    1.000
    P17      P        0.50743    0.10137    0.84797    1.000
    P18      P        0.26353    0.82277    0.79657    1.000
    O65      O        0.29233    0.87367    0.68867    1.000
    O66      O        0.24033    0.88367    0.87467    1.000
    O67      O        0.44133    0.11967    0.76767    1.000
    O68      O        0.45133    0.05867    0.95367    1.000
    O69      O        0.53333    0.02667    0.80067    1.000
    O70      O        0.17233    0.72067    0.77567    1.000
    O71      O        0.34433    0.80667    0.84367    1.000
    O72      O        0.60433    0.19667    0.87267    1.000
    Zn19     Zn       0.33333    0.66667    0.15210    1.000
    Zn20     Zn       0.00000    0.00000    0.48543    1.000
    Zn21     Zn       0.66667    0.33333    0.81877    1.000
