# CIF file generated by openbabel 3.1.0, see https://openbabel.org
data_I
_chemical_name_common 'image0'
_cell_length_a 18.295
_cell_length_b 10.8482
_cell_length_c 17.3984
_cell_angle_alpha 90
_cell_angle_beta 101.395
_cell_angle_gamma 90
_space_group_name_H-M_alt 'P 1'
_space_group_name_Hall 'P 1'
loop_
    _symmetry_equiv_pos_as_xyz
    x,y,z
loop_
    _atom_site_label
    _atom_site_type_symbol
    _atom_site_fract_x
    _atom_site_fract_y
    _atom_site_fract_z
    _atom_site_occupancy
    Yb1      Yb       0.48898    0.40159    0.10204    1.000
    C1       C        0.61340    0.60780    0.08300    1.000
    O1       O        0.56320    0.34290    0.02120    1.000
    O2       O        0.58340    0.42300    0.90870    1.000
    O3       O        0.57570    0.54940    0.12510    1.000
    O4       O        0.92590    0.89380    0.19720    1.000
    O5       O        0.91500    0.80850    0.31040    1.000
    C2       C        0.81980    0.76990    0.19900    1.000
    C3       C        0.60330    0.36000    0.97040    1.000
    C4       C        0.89190    0.82730    0.23850    1.000
    C5       C        0.72000    0.29500    0.92540    1.000
    H1       H        0.69960    0.32580    0.87450    1.000
    O6       O        0.59660    0.61970    0.00990    1.000
    C6       C        0.68490    0.66610    0.12400    1.000
    C7       C        0.71710    0.76070    0.08770    1.000
    H2       H        0.69330    0.78940    0.03740    1.000
    C8       C        0.72000    0.62370    0.19810    1.000
    H3       H        0.69790    0.55970    0.22300    1.000
    C9       C        0.67940    0.30270    0.98530    1.000
    C10      C        0.78700    0.67510    0.23510    1.000
    H4       H        0.81090    0.64580    0.28530    1.000
    C11      C        0.78370    0.81260    0.12530    1.000
    H5       H        0.80520    0.87790    0.10090    1.000
    C12      C        0.70970    0.25790    0.05930    1.000
    H6       H        0.68200    0.26360    0.09990    1.000
    Yb2      Yb       0.98898    0.90159    0.10204    1.000
    C13      C        0.11340    0.10780    0.08300    1.000
    O7       O        0.06320    0.84290    0.02120    1.000
    O8       O        0.08340    0.92300    0.90870    1.000
    O9       O        0.07570    0.04940    0.12510    1.000
    O10      O        0.42590    0.39380    0.19720    1.000
    O11      O        0.41500    0.30850    0.31040    1.000
    C14      C        0.31980    0.26990    0.19900    1.000
    C15      C        0.10330    0.86000    0.97040    1.000
    C16      C        0.39190    0.32730    0.23850    1.000
    C17      C        0.22000    0.79500    0.92540    1.000
    H7       H        0.19960    0.82580    0.87450    1.000
    O12      O        0.09660    0.11970    0.00990    1.000
    C18      C        0.18490    0.16610    0.12400    1.000
    C19      C        0.21710    0.26070    0.08770    1.000
    H8       H        0.19330    0.28940    0.03740    1.000
    C20      C        0.22000    0.12370    0.19810    1.000
    H9       H        0.19790    0.05970    0.22300    1.000
    C21      C        0.17940    0.80270    0.98530    1.000
    C22      C        0.28700    0.17510    0.23510    1.000
    H10      H        0.31090    0.14580    0.28530    1.000
    C23      C        0.28370    0.31260    0.12530    1.000
    H11      H        0.30520    0.37790    0.10090    1.000
    C24      C        0.20970    0.75790    0.05930    1.000
    H12      H        0.18200    0.76360    0.09990    1.000
    Yb3      Yb       0.51102    0.40159    0.39796    1.000
    C25      C        0.38660    0.60780    0.41700    1.000
    O13      O        0.43680    0.34290    0.47880    1.000
    O14      O        0.41660    0.42300    0.59130    1.000
    O15      O        0.42430    0.54940    0.37490    1.000
    O16      O        0.07410    0.89380    0.30280    1.000
    O17      O        0.08500    0.80850    0.18960    1.000
    C26      C        0.18020    0.76990    0.30100    1.000
    C27      C        0.39670    0.36000    0.52960    1.000
    C28      C        0.10810    0.82730    0.26150    1.000
    C29      C        0.28000    0.29500    0.57460    1.000
    H13      H        0.30040    0.32580    0.62550    1.000
    O18      O        0.40340    0.61970    0.49010    1.000
    C30      C        0.31510    0.66610    0.37600    1.000
    C31      C        0.28290    0.76070    0.41230    1.000
    H14      H        0.30670    0.78940    0.46260    1.000
    C32      C        0.28000    0.62370    0.30190    1.000
    H15      H        0.30210    0.55970    0.27700    1.000
    C33      C        0.32060    0.30270    0.51470    1.000
    C34      C        0.21300    0.67510    0.26490    1.000
    H16      H        0.18910    0.64580    0.21470    1.000
    C35      C        0.21630    0.81260    0.37470    1.000
    H17      H        0.19480    0.87790    0.39910    1.000
    C36      C        0.29030    0.25790    0.44070    1.000
    H18      H        0.31800    0.26360    0.40010    1.000
    Yb4      Yb       0.01102    0.90159    0.39796    1.000
    C37      C        0.88660    0.10780    0.41700    1.000
    O19      O        0.93680    0.84290    0.47880    1.000
    O20      O        0.91660    0.92300    0.59130    1.000
    O21      O        0.92430    0.04940    0.37490    1.000
    O22      O        0.57410    0.39380    0.30280    1.000
    O23      O        0.58500    0.30850    0.18960    1.000
    C38      C        0.68020    0.26990    0.30100    1.000
    C39      C        0.89670    0.86000    0.52960    1.000
    C40      C        0.60810    0.32730    0.26150    1.000
    C41      C        0.78000    0.79500    0.57460    1.000
    H19      H        0.80040    0.82580    0.62550    1.000
    O24      O        0.90340    0.11970    0.49010    1.000
    C42      C        0.81510    0.16610    0.37600    1.000
    C43      C        0.78290    0.26070    0.41230    1.000
    H20      H        0.80670    0.28940    0.46260    1.000
    C44      C        0.78000    0.12370    0.30190    1.000
    H21      H        0.80210    0.05970    0.27700    1.000
    C45      C        0.82060    0.80270    0.51470    1.000
    C46      C        0.71300    0.17510    0.26490    1.000
    H22      H        0.68910    0.14580    0.21470    1.000
    C47      C        0.71630    0.31260    0.37470    1.000
    H23      H        0.69480    0.37790    0.39910    1.000
    C48      C        0.79030    0.75790    0.44070    1.000
    H24      H        0.81800    0.76360    0.40010    1.000
    Yb5      Yb       0.51102    0.59841    0.89796    1.000
    C49      C        0.38660    0.39220    0.91700    1.000
    O25      O        0.43680    0.65710    0.97880    1.000
    O26      O        0.41660    0.57700    0.09130    1.000
    O27      O        0.42430    0.45060    0.87490    1.000
    O28      O        0.07410    0.10620    0.80280    1.000
    O29      O        0.08500    0.19150    0.68960    1.000
    C50      C        0.18020    0.23010    0.80100    1.000
    C51      C        0.39670    0.64000    0.02960    1.000
    C52      C        0.10810    0.17270    0.76150    1.000
    C53      C        0.28000    0.70500    0.07460    1.000
    H25      H        0.30040    0.67420    0.12550    1.000
    O30      O        0.40340    0.38030    0.99010    1.000
    C54      C        0.31510    0.33390    0.87600    1.000
    C55      C        0.28290    0.23930    0.91230    1.000
    H26      H        0.30670    0.21060    0.96260    1.000
    C56      C        0.28000    0.37630    0.80190    1.000
    H27      H        0.30210    0.44030    0.77700    1.000
    C57      C        0.32060    0.69730    0.01470    1.000
    C58      C        0.21300    0.32490    0.76490    1.000
    H28      H        0.18910    0.35420    0.71470    1.000
    C59      C        0.21630    0.18740    0.87470    1.000
    H29      H        0.19480    0.12210    0.89910    1.000
    C60      C        0.29030    0.74210    0.94070    1.000
    H30      H        0.31800    0.73640    0.90010    1.000
    Yb6      Yb       0.01102    0.09841    0.89796    1.000
    C61      C        0.88660    0.89220    0.91700    1.000
    O31      O        0.93680    0.15710    0.97880    1.000
    O32      O        0.91660    0.07700    0.09130    1.000
    O33      O        0.92430    0.95060    0.87490    1.000
    O34      O        0.57410    0.60620    0.80280    1.000
    O35      O        0.58500    0.69150    0.68960    1.000
    C62      C        0.68020    0.73010    0.80100    1.000
    C63      C        0.89670    0.14000    0.02960    1.000
    C64      C        0.60810    0.67270    0.76150    1.000
    C65      C        0.78000    0.20500    0.07460    1.000
    H31      H        0.80040    0.17420    0.12550    1.000
    O36      O        0.90340    0.88030    0.99010    1.000
    C66      C        0.81510    0.83390    0.87600    1.000
    C67      C        0.78290    0.73930    0.91230    1.000
    H32      H        0.80670    0.71060    0.96260    1.000
    C68      C        0.78000    0.87630    0.80190    1.000
    H33      H        0.80210    0.94030    0.77700    1.000
    C69      C        0.82060    0.19730    0.01470    1.000
    C70      C        0.71300    0.82490    0.76490    1.000
    H34      H        0.68910    0.85420    0.71470    1.000
    C71      C        0.71630    0.68740    0.87470    1.000
    H35      H        0.69480    0.62210    0.89910    1.000
    C72      C        0.79030    0.24210    0.94070    1.000
    H36      H        0.81800    0.23640    0.90010    1.000
    Yb7      Yb       0.48898    0.59841    0.60204    1.000
    C73      C        0.61340    0.39220    0.58300    1.000
    O37      O        0.56320    0.65710    0.52120    1.000
    O38      O        0.58340    0.57700    0.40870    1.000
    O39      O        0.57570    0.45060    0.62510    1.000
    O40      O        0.92590    0.10620    0.69720    1.000
    O41      O        0.91500    0.19150    0.81040    1.000
    C74      C        0.81980    0.23010    0.69900    1.000
    C75      C        0.60330    0.64000    0.47040    1.000
    C76      C        0.89190    0.17270    0.73850    1.000
    C77      C        0.72000    0.70500    0.42540    1.000
    H37      H        0.69960    0.67420    0.37450    1.000
    O42      O        0.59660    0.38030    0.50990    1.000
    C78      C        0.68490    0.33390    0.62400    1.000
    C79      C        0.71710    0.23930    0.58770    1.000
    H38      H        0.69330    0.21060    0.53740    1.000
    C80      C        0.72000    0.37630    0.69810    1.000
    H39      H        0.69790    0.44030    0.72300    1.000
    C81      C        0.67940    0.69730    0.48530    1.000
    C82      C        0.78700    0.32490    0.73510    1.000
    H40      H        0.81090    0.35420    0.78530    1.000
    C83      C        0.78370    0.18740    0.62530    1.000
    H41      H        0.80520    0.12210    0.60090    1.000
    C84      C        0.70970    0.74210    0.55930    1.000
    H42      H        0.68200    0.73640    0.59990    1.000
    Yb8      Yb       0.98898    0.09841    0.60204    1.000
    C85      C        0.11340    0.89220    0.58300    1.000
    O43      O        0.06320    0.15710    0.52120    1.000
    O44      O        0.08340    0.07700    0.40870    1.000
    O45      O        0.07570    0.95060    0.62510    1.000
    O46      O        0.42590    0.60620    0.69720    1.000
    O47      O        0.41500    0.69150    0.81040    1.000
    C86      C        0.31980    0.73010    0.69900    1.000
    C87      C        0.10330    0.14000    0.47040    1.000
    C88      C        0.39190    0.67270    0.73850    1.000
    C89      C        0.22000    0.20500    0.42540    1.000
    H43      H        0.19960    0.17420    0.37450    1.000
    O48      O        0.09660    0.88030    0.50990    1.000
    C90      C        0.18490    0.83390    0.62400    1.000
    C91      C        0.21710    0.73930    0.58770    1.000
    H44      H        0.19330    0.71060    0.53740    1.000
    C92      C        0.22000    0.87630    0.69810    1.000
    H45      H        0.19790    0.94030    0.72300    1.000
    C93      C        0.17940    0.19730    0.48530    1.000
    C94      C        0.28700    0.82490    0.73510    1.000
    H46      H        0.31090    0.85420    0.78530    1.000
    C95      C        0.28370    0.68740    0.62530    1.000
    H47      H        0.30520    0.62210    0.60090    1.000
    C96      C        0.20970    0.24210    0.55930    1.000
    H48      H        0.18200    0.23640    0.59990    1.000
