data_functionalizedCrystal
_audit_creation_method	'EQeq! by Chris Wilmer'
_symmetry_space_group_name_H-M	'P1'
_symmetry_Int_Tables_number	1
_symmetry_cell_setting	triclinic
loop_
_symmetry_equiv_pos_as_xyz
  x,y,z
_cell_length_a	25.9949
_cell_length_b	25.9949
_cell_length_c	19.7757
_cell_angle_alpha	90
_cell_angle_beta	90
_cell_angle_gamma	120
loop_
_atom_site_label
_atom_site_type_symbol
_atom_site_fract_x
_atom_site_fract_y
_atom_site_fract_z
_atom_site_charge
Mof_Co	Co	0.43467	0.10167	0.59921	1.127
Mof_N 	N 	0.4323	0.1734	0.566	-0.259
Mof_O 	O 	0.5056	0.1778	0.6943	-0.175
Mof_N 	N 	0.4017	0.0793	0.6921	-0.263
Mof_N 	N 	0.3764	0.037	0.5405	-0.263
Mof_N 	N 	0.517	0.1191	0.5648	-0.241
Mof_C 	C 	0.4304	0.1891	0.4968	0.049
Mof_C 	C 	0.318	0.0206	0.528	0.057
Mof_C 	C 	0.3503	0.032	0.7136	0.016
Mof_H 	H 	0.3201	0.0043	0.6861	0.041
Mof_C 	C 	0.5539	0.1689	0.5328	0.017
Mof_H 	H 	0.546	0.1972	0.5146	0.024
Mof_O 	O 	0.5525	0.0231	0.6395	-0.18
Mof_C 	C 	0.4295	0.1608	0.4309	-0.131
Mof_H 	H 	0.436	0.129	0.4249	0.093
Mof_C 	C 	0.2821	0.0461	0.5502	-0.132
Mof_H 	H 	0.297	0.079	0.5785	0.081
Mof_C 	C 	0.2233	0.0174	0.526	0.099
Mof_C 	C 	0.4182	0.188	0.3833	0.084
Mof_Br	Br	0.1682	0.0295	0.5637	-0.134
Mof_Br	Br	0.4154	0.13555	0.30144	-0.149
Mof_Co	Co	0.89833	0.333	0.59921	1.128
Mof_N 	N 	0.8266	0.2589	0.566	-0.259
Mof_O 	O 	0.8222	0.3278	0.6943	-0.175
Mof_N 	N 	0.9207	0.3224	0.6921	-0.262
Mof_N 	N 	0.963	0.3394	0.5405	-0.263
Mof_N 	N 	0.8809	0.3979	0.5648	-0.241
Mof_C 	C 	0.8109	0.2413	0.4968	0.049
Mof_C 	C 	0.9794	0.2974	0.528	0.066
Mof_C 	C 	0.968	0.3183	0.7136	0.016
Mof_H 	H 	0.9957	0.3158	0.6861	0.042
Mof_C 	C 	0.8311	0.385	0.5328	0.018
Mof_H 	H 	0.8028	0.3488	0.5146	0.024
Mof_O 	O 	0.9769	0.5294	0.6395	-0.178
Mof_C 	C 	0.8392	0.2687	0.4309	-0.131
Mof_H 	H 	0.871	0.307	0.4249	0.094
Mof_C 	C 	0.9539	0.236	0.5502	-0.138
Mof_H 	H 	0.921	0.218	0.5785	0.084
Mof_C 	C 	0.9826	0.2059	0.526	0.11
Mof_C 	C 	0.812	0.2302	0.3833	0.084
Mof_Br	Br	0.9705	0.1387	0.5637	-0.132
Mof_Br	Br	0.86445	0.27985	0.30144	-0.146
Mof_Co	Co	0.667	0.56533	0.59921	1.128
Mof_N 	N 	0.7411	0.5677	0.566	-0.259
Mof_O 	O 	0.6722	0.4944	0.6943	-0.175
Mof_N 	N 	0.6776	0.5983	0.6921	-0.262
Mof_N 	N 	0.6606	0.6236	0.5405	-0.264
Mof_N 	N 	0.6021	0.483	0.5648	-0.241
Mof_C 	C 	0.7587	0.5696	0.4968	0.049
Mof_C 	C 	0.7026	0.682	0.528	0.062
Mof_C 	C 	0.6817	0.6497	0.7136	0.016
Mof_H 	H 	0.6842	0.6799	0.6861	0.042
Mof_C 	C 	0.615	0.4461	0.5328	0.017
Mof_H 	H 	0.6512	0.454	0.5146	0.024
Mof_O 	O 	0.4706	0.4475	0.6395	-0.179
Mof_C 	C 	0.7313	0.5705	0.4309	-0.131
Mof_H 	H 	0.693	0.564	0.4249	0.094
Mof_C 	C 	0.764	0.7179	0.5502	-0.135
Mof_H 	H 	0.782	0.703	0.5785	0.083
Mof_C 	C 	0.7941	0.7767	0.526	0.105
Mof_C 	C 	0.7698	0.5818	0.3833	0.084
Mof_Br	Br	0.8613	0.8318	0.5637	-0.13
Mof_Br	Br	0.72015	0.5846	0.30144	-0.147
Mof_Co	Co	0.56533	0.89833	0.09921	1.128
Mof_N 	N 	0.5677	0.8266	0.066	-0.261
Mof_O 	O 	0.4944	0.8222	0.1943	-0.175
Mof_N 	N 	0.5983	0.9207	0.1921	-0.262
Mof_N 	N 	0.6236	0.963	0.0405	-0.262
Mof_N 	N 	0.483	0.8809	0.0648	-0.241
Mof_C 	C 	0.5696	0.8109	0.9968	0.053
Mof_C 	C 	0.682	0.9794	0.028	0.062
Mof_C 	C 	0.6497	0.968	0.2136	0.016
Mof_H 	H 	0.6799	0.9957	0.1861	0.042
Mof_C 	C 	0.4461	0.8311	0.0328	0.017
Mof_H 	H 	0.454	0.8028	0.0146	0.024
Mof_O 	O 	0.4475	0.9769	0.1395	-0.178
Mof_C 	C 	0.5705	0.8392	0.9309	-0.132
Mof_H 	H 	0.564	0.871	0.9249	0.096
Mof_C 	C 	0.7179	0.9539	0.0502	-0.135
Mof_H 	H 	0.703	0.921	0.0785	0.082
Mof_C 	C 	0.7767	0.9826	0.026	0.105
Mof_C 	C 	0.5818	0.812	0.8833	0.085
Mof_Br	Br	0.8318	0.9705	0.0637	-0.131
Mof_Br	Br	0.5846	0.86445	0.80144	-0.145
Mof_Co	Co	0.10167	0.667	0.09921	1.128
Mof_N 	N 	0.1734	0.7411	0.066	-0.261
Mof_O 	O 	0.1778	0.6722	0.1943	-0.175
Mof_N 	N 	0.0793	0.6776	0.1921	-0.263
Mof_N 	N 	0.037	0.6606	0.0405	-0.262
Mof_N 	N 	0.1191	0.6021	0.0648	-0.242
Mof_C 	C 	0.1891	0.7587	0.9968	0.053
Mof_C 	C 	0.0206	0.7026	0.028	0.052
Mof_C 	C 	0.032	0.6817	0.2136	0.016
Mof_H 	H 	0.0043	0.6842	0.1861	0.041
Mof_C 	C 	0.1689	0.615	0.0328	0.017
Mof_H 	H 	0.1972	0.6512	0.0146	0.024
Mof_O 	O 	0.0231	0.4706	0.1395	-0.18
Mof_C 	C 	0.1608	0.7313	0.9309	-0.131
Mof_H 	H 	0.129	0.693	0.9249	0.095
Mof_C 	C 	0.0461	0.764	0.0502	-0.128
Mof_H 	H 	0.079	0.782	0.0785	0.08
Mof_C 	C 	0.0174	0.7941	0.026	0.093
Mof_C 	C 	0.188	0.7698	0.8833	0.084
Mof_Br	Br	0.0295	0.8613	0.0637	-0.133
Mof_Br	Br	0.13555	0.72015	0.80144	-0.147
Mof_Co	Co	0.333	0.43467	0.09921	1.128
Mof_N 	N 	0.2589	0.4323	0.066	-0.261
Mof_O 	O 	0.3278	0.5056	0.1943	-0.175
Mof_N 	N 	0.3224	0.4017	0.1921	-0.262
Mof_N 	N 	0.3394	0.3764	0.0405	-0.263
Mof_N 	N 	0.3979	0.517	0.0648	-0.242
Mof_C 	C 	0.2413	0.4304	0.9968	0.053
Mof_C 	C 	0.2974	0.318	0.028	0.056
Mof_C 	C 	0.3183	0.3503	0.2136	0.016
Mof_H 	H 	0.3158	0.3201	0.1861	0.041
Mof_C 	C 	0.385	0.5539	0.0328	0.017
Mof_H 	H 	0.3488	0.546	0.0146	0.024
Mof_O 	O 	0.5294	0.5525	0.1395	-0.179
Mof_C 	C 	0.2687	0.4295	0.9309	-0.132
Mof_H 	H 	0.307	0.436	0.9249	0.095
Mof_C 	C 	0.236	0.2821	0.0502	-0.131
Mof_H 	H 	0.218	0.297	0.0785	0.081
Mof_C 	C 	0.2059	0.2233	0.026	0.098
Mof_C 	C 	0.2302	0.4182	0.8833	0.084
Mof_Br	Br	0.1387	0.1682	0.0637	-0.134
Mof_Br	Br	0.27985	0.4154	0.80144	-0.147
Mof_Co	Co	0.10167	0.43467	0.40079	1.128
Mof_N 	N 	0.1734	0.4323	0.434	-0.259
Mof_O 	O 	0.1778	0.5056	0.3057	-0.175
Mof_N 	N 	0.0793	0.4017	0.3079	-0.263
Mof_N 	N 	0.037	0.3764	0.4595	-0.264
Mof_N 	N 	0.1191	0.517	0.4352	-0.241
Mof_C 	C 	0.1891	0.4304	0.5032	0.049
Mof_C 	C 	0.0206	0.318	0.472	0.059
Mof_C 	C 	0.032	0.3503	0.2864	0.016
Mof_H 	H 	0.0043	0.3201	0.3139	0.041
Mof_C 	C 	0.1689	0.5539	0.4672	0.017
Mof_H 	H 	0.1972	0.546	0.4854	0.024
Mof_O 	O 	0.0231	0.5525	0.3605	-0.179
Mof_C 	C 	0.1608	0.4295	0.5691	-0.131
Mof_H 	H 	0.129	0.436	0.5751	0.093
Mof_C 	C 	0.0461	0.2821	0.4498	-0.133
Mof_H 	H 	0.079	0.297	0.4215	0.082
Mof_C 	C 	0.0174	0.2233	0.474	0.101
Mof_C 	C 	0.188	0.4182	0.6167	0.084
Mof_Br	Br	0.0295	0.1682	0.4363	-0.134
Mof_Br	Br	0.13555	0.4154	0.69856	-0.148
Mof_Co	Co	0.333	0.89833	0.40079	1.128
Mof_N 	N 	0.2589	0.8266	0.434	-0.259
Mof_O 	O 	0.3278	0.8222	0.3057	-0.175
Mof_N 	N 	0.3224	0.9207	0.3079	-0.262
Mof_N 	N 	0.3394	0.963	0.4595	-0.263
Mof_N 	N 	0.3979	0.8809	0.4352	-0.241
Mof_C 	C 	0.2413	0.8109	0.5032	0.049
Mof_C 	C 	0.2974	0.9794	0.472	0.068
Mof_C 	C 	0.3183	0.968	0.2864	0.016
Mof_H 	H 	0.3158	0.9957	0.3139	0.042
Mof_C 	C 	0.385	0.8311	0.4672	0.018
Mof_H 	H 	0.3488	0.8028	0.4854	0.025
Mof_O 	O 	0.5294	0.9769	0.3605	-0.178
Mof_C 	C 	0.2687	0.8392	0.5691	-0.131
Mof_H 	H 	0.307	0.871	0.5751	0.094
Mof_C 	C 	0.236	0.9539	0.4498	-0.139
Mof_H 	H 	0.218	0.921	0.4215	0.084
Mof_C 	C 	0.2059	0.9826	0.474	0.112
Mof_C 	C 	0.2302	0.812	0.6167	0.084
Mof_Br	Br	0.1387	0.9705	0.4363	-0.132
Mof_Br	Br	0.27985	0.86445	0.69856	-0.146
Mof_Co	Co	0.56533	0.667	0.40079	1.128
Mof_N 	N 	0.5677	0.7411	0.434	-0.259
Mof_O 	O 	0.4944	0.6722	0.3057	-0.175
Mof_N 	N 	0.5983	0.6776	0.3079	-0.262
Mof_N 	N 	0.6236	0.6606	0.4595	-0.264
Mof_N 	N 	0.483	0.6021	0.4352	-0.241
Mof_C 	C 	0.5696	0.7587	0.5032	0.049
Mof_C 	C 	0.682	0.7026	0.472	0.062
Mof_C 	C 	0.6497	0.6817	0.2864	0.016
Mof_H 	H 	0.6799	0.6842	0.3139	0.042
Mof_C 	C 	0.4461	0.615	0.4672	0.017
Mof_H 	H 	0.454	0.6512	0.4854	0.024
Mof_O 	O 	0.4475	0.4706	0.3605	-0.179
Mof_C 	C 	0.5705	0.7313	0.5691	-0.131
Mof_H 	H 	0.564	0.693	0.5751	0.094
Mof_C 	C 	0.7179	0.764	0.4498	-0.135
Mof_H 	H 	0.703	0.782	0.4215	0.083
Mof_C 	C 	0.7767	0.7941	0.474	0.105
Mof_C 	C 	0.5818	0.7698	0.6167	0.084
Mof_Br	Br	0.8318	0.8613	0.4363	-0.131
Mof_Br	Br	0.5846	0.72015	0.69856	-0.147
Mof_Co	Co	0.89833	0.56533	0.90079	1.128
Mof_N 	N 	0.8266	0.5677	0.934	-0.258
Mof_O 	O 	0.8222	0.4944	0.8057	-0.175
Mof_N 	N 	0.9207	0.5983	0.8079	-0.262
Mof_N 	N 	0.963	0.6236	0.9595	-0.262
Mof_N 	N 	0.8809	0.483	0.9352	-0.241
Mof_C 	C 	0.8109	0.5696	0.0032	0.046
Mof_C 	C 	0.9794	0.682	0.972	0.073
Mof_C 	C 	0.968	0.6497	0.7864	0.016
Mof_H 	H 	0.9957	0.6799	0.8139	0.042
Mof_C 	C 	0.8311	0.4461	0.9672	0.018
Mof_H 	H 	0.8028	0.454	0.9854	0.026
Mof_O 	O 	0.9769	0.4475	0.8605	-0.177
Mof_C 	C 	0.8392	0.5705	0.0691	-0.131
Mof_H 	H 	0.871	0.564	0.0751	0.093
Mof_C 	C 	0.9539	0.7179	0.9498	-0.142
Mof_H 	H 	0.921	0.703	0.9215	0.085
Mof_C 	C 	0.9826	0.7767	0.974	0.118
Mof_C 	C 	0.812	0.5818	0.1167	0.084
Mof_Br	Br	0.9705	0.8318	0.9363	-0.13
Mof_Br	Br	0.86445	0.5846	0.19856	-0.146
Mof_Co	Co	0.667	0.10167	0.90079	1.128
Mof_N 	N 	0.7411	0.1734	0.934	-0.258
Mof_O 	O 	0.6722	0.1778	0.8057	-0.175
Mof_N 	N 	0.6776	0.0793	0.8079	-0.263
Mof_N 	N 	0.6606	0.037	0.9595	-0.262
Mof_N 	N 	0.6021	0.1191	0.9352	-0.241
Mof_C 	C 	0.7587	0.1891	0.0032	0.046
Mof_C 	C 	0.7026	0.0206	0.972	0.063
Mof_C 	C 	0.6817	0.032	0.7864	0.016
Mof_H 	H 	0.6842	0.0043	0.8139	0.041
Mof_C 	C 	0.615	0.1689	0.9672	0.018
Mof_H 	H 	0.6512	0.1972	0.9854	0.025
Mof_O 	O 	0.4706	0.0231	0.8605	-0.179
Mof_C 	C 	0.7313	0.1608	0.0691	-0.131
Mof_H 	H 	0.693	0.129	0.0751	0.092
Mof_C 	C 	0.764	0.0461	0.9498	-0.135
Mof_H 	H 	0.782	0.079	0.9215	0.083
Mof_C 	C 	0.7941	0.0174	0.974	0.106
Mof_C 	C 	0.7698	0.188	0.1167	0.083
Mof_Br	Br	0.8613	0.0295	0.9363	-0.132
Mof_Br	Br	0.72015	0.13555	0.19856	-0.149
Mof_Co	Co	0.43467	0.333	0.90079	1.128
Mof_N 	N 	0.4323	0.2589	0.934	-0.257
Mof_O 	O 	0.5056	0.3278	0.8057	-0.175
Mof_N 	N 	0.4017	0.3224	0.8079	-0.262
Mof_N 	N 	0.3764	0.3394	0.9595	-0.263
Mof_N 	N 	0.517	0.3979	0.9352	-0.241
Mof_C 	C 	0.4304	0.2413	0.0032	0.046
Mof_C 	C 	0.318	0.2974	0.972	0.069
Mof_C 	C 	0.3503	0.3183	0.7864	0.016
Mof_H 	H 	0.3201	0.3158	0.8139	0.042
Mof_C 	C 	0.5539	0.385	0.9672	0.018
Mof_H 	H 	0.546	0.3488	0.9854	0.026
Mof_O 	O 	0.5525	0.5294	0.8605	-0.178
Mof_C 	C 	0.4295	0.2687	0.0691	-0.131
Mof_H 	H 	0.436	0.307	0.0751	0.093
Mof_C 	C 	0.2821	0.236	0.9498	-0.14
Mof_H 	H 	0.297	0.218	0.9215	0.084
Mof_C 	C 	0.2233	0.2059	0.974	0.114
Mof_C 	C 	0.4182	0.2302	0.1167	0.083
Mof_Br	Br	0.1682	0.1387	0.9363	-0.132
Mof_Br	Br	0.4154	0.27985	0.19856	-0.148
Mof_Co	Co	0.56533	0.89833	0.40079	1.128
Mof_N 	N 	0.5677	0.8266	0.434	-0.259
Mof_O 	O 	0.4944	0.8222	0.3057	-0.175
Mof_N 	N 	0.5983	0.9207	0.3079	-0.262
Mof_N 	N 	0.6236	0.963	0.4595	-0.263
Mof_N 	N 	0.483	0.8809	0.4352	-0.241
Mof_C 	C 	0.5696	0.8109	0.5032	0.049
Mof_C 	C 	0.682	0.9794	0.472	0.068
Mof_C 	C 	0.6497	0.968	0.2864	0.016
Mof_H 	H 	0.6799	0.9957	0.3139	0.042
Mof_C 	C 	0.4461	0.8311	0.4672	0.018
Mof_H 	H 	0.454	0.8028	0.4854	0.025
Mof_O 	O 	0.4475	0.9769	0.3605	-0.178
Mof_C 	C 	0.5705	0.8392	0.5691	-0.131
Mof_H 	H 	0.564	0.871	0.5751	0.094
Mof_C 	C 	0.7179	0.9539	0.4498	-0.139
Mof_H 	H 	0.703	0.921	0.4215	0.084
Mof_C 	C 	0.7767	0.9826	0.474	0.113
Mof_C 	C 	0.5818	0.812	0.6167	0.084
Mof_Br	Br	0.8318	0.9705	0.4363	-0.13
Mof_Br	Br	0.5846	0.86445	0.69856	-0.145
Mof_Co	Co	0.10167	0.667	0.40079	1.128
Mof_N 	N 	0.1734	0.7411	0.434	-0.259
Mof_O 	O 	0.1778	0.6722	0.3057	-0.175
Mof_N 	N 	0.0793	0.6776	0.3079	-0.263
Mof_N 	N 	0.037	0.6606	0.4595	-0.263
Mof_N 	N 	0.1191	0.6021	0.4352	-0.241
Mof_C 	C 	0.1891	0.7587	0.5032	0.049
Mof_C 	C 	0.0206	0.7026	0.472	0.058
Mof_C 	C 	0.032	0.6817	0.2864	0.016
Mof_H 	H 	0.0043	0.6842	0.3139	0.041
Mof_C 	C 	0.1689	0.615	0.4672	0.017
Mof_H 	H 	0.1972	0.6512	0.4854	0.024
Mof_O 	O 	0.0231	0.4706	0.3605	-0.179
Mof_C 	C 	0.1608	0.7313	0.5691	-0.131
Mof_H 	H 	0.129	0.693	0.5751	0.093
Mof_C 	C 	0.0461	0.764	0.4498	-0.132
Mof_H 	H 	0.079	0.782	0.4215	0.082
Mof_C 	C 	0.0174	0.7941	0.474	0.1
Mof_C 	C 	0.188	0.7698	0.6167	0.084
Mof_Br	Br	0.0295	0.8613	0.4363	-0.132
Mof_Br	Br	0.13555	0.72015	0.69856	-0.148
Mof_Co	Co	0.333	0.43467	0.40079	1.128
Mof_N 	N 	0.2589	0.4323	0.434	-0.259
Mof_O 	O 	0.3278	0.5056	0.3057	-0.175
Mof_N 	N 	0.3224	0.4017	0.3079	-0.262
Mof_N 	N 	0.3394	0.3764	0.4595	-0.264
Mof_N 	N 	0.3979	0.517	0.4352	-0.241
Mof_C 	C 	0.2413	0.4304	0.5032	0.049
Mof_C 	C 	0.2974	0.318	0.472	0.062
Mof_C 	C 	0.3183	0.3503	0.2864	0.016
Mof_H 	H 	0.3158	0.3201	0.3139	0.041
Mof_C 	C 	0.385	0.5539	0.4672	0.017
Mof_H 	H 	0.3488	0.546	0.4854	0.024
Mof_O 	O 	0.5294	0.5525	0.3605	-0.179
Mof_C 	C 	0.2687	0.4295	0.5691	-0.131
Mof_H 	H 	0.307	0.436	0.5751	0.094
Mof_C 	C 	0.236	0.2821	0.4498	-0.135
Mof_H 	H 	0.218	0.297	0.4215	0.083
Mof_C 	C 	0.2059	0.2233	0.474	0.106
Mof_C 	C 	0.2302	0.4182	0.6167	0.084
Mof_Br	Br	0.1387	0.1682	0.4363	-0.133
Mof_Br	Br	0.27985	0.4154	0.69856	-0.147
Mof_Co	Co	0.43467	0.10167	0.90079	1.128
Mof_N 	N 	0.4323	0.1734	0.934	-0.257
Mof_O 	O 	0.5056	0.1778	0.8057	-0.175
Mof_N 	N 	0.4017	0.0793	0.8079	-0.263
Mof_N 	N 	0.3764	0.037	0.9595	-0.262
Mof_N 	N 	0.517	0.1191	0.9352	-0.241
Mof_C 	C 	0.4304	0.1891	0.0032	0.046
Mof_C 	C 	0.318	0.0206	0.972	0.064
Mof_C 	C 	0.3503	0.032	0.7864	0.016
Mof_H 	H 	0.3201	0.0043	0.8139	0.041
Mof_C 	C 	0.5539	0.1689	0.9672	0.018
Mof_H 	H 	0.546	0.1972	0.9854	0.026
Mof_O 	O 	0.5525	0.0231	0.8605	-0.179
Mof_C 	C 	0.4295	0.1608	0.0691	-0.131
Mof_H 	H 	0.436	0.129	0.0751	0.092
Mof_C 	C 	0.2821	0.0461	0.9498	-0.136
Mof_H 	H 	0.297	0.079	0.9215	0.083
Mof_C 	C 	0.2233	0.0174	0.974	0.107
Mof_C 	C 	0.4182	0.188	0.1167	0.083
Mof_Br	Br	0.1682	0.0295	0.9363	-0.133
Mof_Br	Br	0.4154	0.13555	0.19856	-0.149
Mof_Co	Co	0.89833	0.333	0.90079	1.128
Mof_N 	N 	0.8266	0.2589	0.934	-0.258
Mof_O 	O 	0.8222	0.3278	0.8057	-0.175
Mof_N 	N 	0.9207	0.3224	0.8079	-0.262
Mof_N 	N 	0.963	0.3394	0.9595	-0.262
Mof_N 	N 	0.8809	0.3979	0.9352	-0.241
Mof_C 	C 	0.8109	0.2413	0.0032	0.046
Mof_C 	C 	0.9794	0.2974	0.972	0.072
Mof_C 	C 	0.968	0.3183	0.7864	0.016
Mof_H 	H 	0.9957	0.3158	0.8139	0.042
Mof_C 	C 	0.8311	0.385	0.9672	0.018
Mof_H 	H 	0.8028	0.3488	0.9854	0.026
Mof_O 	O 	0.9769	0.5294	0.8605	-0.177
Mof_C 	C 	0.8392	0.2687	0.0691	-0.131
Mof_H 	H 	0.871	0.307	0.0751	0.093
Mof_C 	C 	0.9539	0.236	0.9498	-0.142
Mof_H 	H 	0.921	0.218	0.9215	0.085
Mof_C 	C 	0.9826	0.2059	0.974	0.117
Mof_C 	C 	0.812	0.2302	0.1167	0.084
Mof_Br	Br	0.9705	0.1387	0.9363	-0.131
Mof_Br	Br	0.86445	0.27985	0.19856	-0.147
Mof_Co	Co	0.667	0.56533	0.90079	1.128
Mof_N 	N 	0.7411	0.5677	0.934	-0.257
Mof_O 	O 	0.6722	0.4944	0.8057	-0.175
Mof_N 	N 	0.6776	0.5983	0.8079	-0.262
Mof_N 	N 	0.6606	0.6236	0.9595	-0.263
Mof_N 	N 	0.6021	0.483	0.9352	-0.241
Mof_C 	C 	0.7587	0.5696	0.0032	0.046
Mof_C 	C 	0.7026	0.682	0.972	0.069
Mof_C 	C 	0.6817	0.6497	0.7864	0.016
Mof_H 	H 	0.6842	0.6799	0.8139	0.042
Mof_C 	C 	0.615	0.4461	0.9672	0.018
Mof_H 	H 	0.6512	0.454	0.9854	0.026
Mof_O 	O 	0.4706	0.4475	0.8605	-0.178
Mof_C 	C 	0.7313	0.5705	0.0691	-0.131
Mof_H 	H 	0.693	0.564	0.0751	0.093
Mof_C 	C 	0.764	0.7179	0.9498	-0.139
Mof_H 	H 	0.782	0.703	0.9215	0.084
Mof_C 	C 	0.7941	0.7767	0.974	0.113
Mof_C 	C 	0.7698	0.5818	0.1167	0.083
Mof_Br	Br	0.8613	0.8318	0.9363	-0.13
Mof_Br	Br	0.72015	0.5846	0.19856	-0.147
Mof_Co	Co	0.89833	0.56533	0.59921	1.128
Mof_N 	N 	0.8266	0.5677	0.566	-0.259
Mof_O 	O 	0.8222	0.4944	0.6943	-0.175
Mof_N 	N 	0.9207	0.5983	0.6921	-0.262
Mof_N 	N 	0.963	0.6236	0.5405	-0.263
Mof_N 	N 	0.8809	0.483	0.5648	-0.241
Mof_C 	C 	0.8109	0.5696	0.4968	0.049
Mof_C 	C 	0.9794	0.682	0.528	0.066
Mof_C 	C 	0.968	0.6497	0.7136	0.016
Mof_H 	H 	0.9957	0.6799	0.6861	0.042
Mof_C 	C 	0.8311	0.4461	0.5328	0.018
Mof_H 	H 	0.8028	0.454	0.5146	0.024
Mof_O 	O 	0.9769	0.4475	0.6395	-0.178
Mof_C 	C 	0.8392	0.5705	0.4309	-0.131
Mof_H 	H 	0.871	0.564	0.4249	0.094
Mof_C 	C 	0.9539	0.7179	0.5502	-0.138
Mof_H 	H 	0.921	0.703	0.5785	0.084
Mof_C 	C 	0.9826	0.7767	0.526	0.11
Mof_C 	C 	0.812	0.5818	0.3833	0.084
Mof_Br	Br	0.9705	0.8318	0.5637	-0.13
Mof_Br	Br	0.86445	0.5846	0.30144	-0.146
Mof_Co	Co	0.667	0.10167	0.59921	1.128
Mof_N 	N 	0.7411	0.1734	0.566	-0.259
Mof_O 	O 	0.6722	0.1778	0.6943	-0.175
Mof_N 	N 	0.6776	0.0793	0.6921	-0.263
Mof_N 	N 	0.6606	0.037	0.5405	-0.263
Mof_N 	N 	0.6021	0.1191	0.5648	-0.241
Mof_C 	C 	0.7587	0.1891	0.4968	0.049
Mof_C 	C 	0.7026	0.0206	0.528	0.056
Mof_C 	C 	0.6817	0.032	0.7136	0.016
Mof_H 	H 	0.6842	0.0043	0.6861	0.041
Mof_C 	C 	0.615	0.1689	0.5328	0.017
Mof_H 	H 	0.6512	0.1972	0.5146	0.024
Mof_O 	O 	0.4706	0.0231	0.6395	-0.18
Mof_C 	C 	0.7313	0.1608	0.4309	-0.131
Mof_H 	H 	0.693	0.129	0.4249	0.093
Mof_C 	C 	0.764	0.0461	0.5502	-0.131
Mof_H 	H 	0.782	0.079	0.5785	0.081
Mof_C 	C 	0.7941	0.0174	0.526	0.098
Mof_C 	C 	0.7698	0.188	0.3833	0.083
Mof_Br	Br	0.8613	0.0295	0.5637	-0.133
Mof_Br	Br	0.72015	0.13555	0.30144	-0.149
Mof_Co	Co	0.43467	0.333	0.59921	1.128
Mof_N 	N 	0.4323	0.2589	0.566	-0.259
Mof_O 	O 	0.5056	0.3278	0.6943	-0.175
Mof_N 	N 	0.4017	0.3224	0.6921	-0.262
Mof_N 	N 	0.3764	0.3394	0.5405	-0.264
Mof_N 	N 	0.517	0.3979	0.5648	-0.241
Mof_C 	C 	0.4304	0.2413	0.4968	0.049
Mof_C 	C 	0.318	0.2974	0.528	0.062
Mof_C 	C 	0.3503	0.3183	0.7136	0.016
Mof_H 	H 	0.3201	0.3158	0.6861	0.041
Mof_C 	C 	0.5539	0.385	0.5328	0.017
Mof_H 	H 	0.546	0.3488	0.5146	0.024
Mof_O 	O 	0.5525	0.5294	0.6395	-0.179
Mof_C 	C 	0.4295	0.2687	0.4309	-0.131
Mof_H 	H 	0.436	0.307	0.4249	0.094
Mof_C 	C 	0.2821	0.236	0.5502	-0.135
Mof_H 	H 	0.297	0.218	0.5785	0.083
Mof_C 	C 	0.2233	0.2059	0.526	0.106
Mof_C 	C 	0.4182	0.2302	0.3833	0.084
Mof_Br	Br	0.1682	0.1387	0.5637	-0.133
Mof_Br	Br	0.4154	0.27985	0.30144	-0.147
Mof_Co	Co	0.10167	0.43467	0.09921	1.128
Mof_N 	N 	0.1734	0.4323	0.066	-0.261
Mof_O 	O 	0.1778	0.5056	0.1943	-0.175
Mof_N 	N 	0.0793	0.4017	0.1921	-0.263
Mof_N 	N 	0.037	0.3764	0.0405	-0.263
Mof_N 	N 	0.1191	0.517	0.0648	-0.242
Mof_C 	C 	0.1891	0.4304	0.9968	0.053
Mof_C 	C 	0.0206	0.318	0.028	0.053
Mof_C 	C 	0.032	0.3503	0.2136	0.016
Mof_H 	H 	0.0043	0.3201	0.1861	0.041
Mof_C 	C 	0.1689	0.5539	0.0328	0.017
Mof_H 	H 	0.1972	0.546	0.0146	0.024
Mof_O 	O 	0.0231	0.5525	0.1395	-0.18
Mof_C 	C 	0.1608	0.4295	0.9309	-0.131
Mof_H 	H 	0.129	0.436	0.9249	0.095
Mof_C 	C 	0.0461	0.2821	0.0502	-0.129
Mof_H 	H 	0.079	0.297	0.0785	0.08
Mof_C 	C 	0.0174	0.2233	0.026	0.094
Mof_C 	C 	0.188	0.4182	0.8833	0.084
Mof_Br	Br	0.0295	0.1682	0.0637	-0.134
Mof_Br	Br	0.13555	0.4154	0.80144	-0.147
Mof_Co	Co	0.333	0.89833	0.09921	1.128
Mof_N 	N 	0.2589	0.8266	0.066	-0.261
Mof_O 	O 	0.3278	0.8222	0.1943	-0.175
Mof_N 	N 	0.3224	0.9207	0.1921	-0.262
Mof_N 	N 	0.3394	0.963	0.0405	-0.262
Mof_N 	N 	0.3979	0.8809	0.0648	-0.241
Mof_C 	C 	0.2413	0.8109	0.9968	0.053
Mof_C 	C 	0.2974	0.9794	0.028	0.061
Mof_C 	C 	0.3183	0.968	0.2136	0.016
Mof_H 	H 	0.3158	0.9957	0.1861	0.042
Mof_C 	C 	0.385	0.8311	0.0328	0.017
Mof_H 	H 	0.3488	0.8028	0.0146	0.024
Mof_O 	O 	0.5294	0.9769	0.1395	-0.178
Mof_C 	C 	0.2687	0.8392	0.9309	-0.132
Mof_H 	H 	0.307	0.871	0.9249	0.096
Mof_C 	C 	0.236	0.9539	0.0502	-0.135
Mof_H 	H 	0.218	0.921	0.0785	0.082
Mof_C 	C 	0.2059	0.9826	0.026	0.104
Mof_C 	C 	0.2302	0.812	0.8833	0.085
Mof_Br	Br	0.1387	0.9705	0.0637	-0.132
Mof_Br	Br	0.27985	0.86445	0.80144	-0.145
Mof_Co	Co	0.56533	0.667	0.09921	1.128
Mof_N 	N 	0.5677	0.7411	0.066	-0.261
Mof_O 	O 	0.4944	0.6722	0.1943	-0.175
Mof_N 	N 	0.5983	0.6776	0.1921	-0.262
Mof_N 	N 	0.6236	0.6606	0.0405	-0.263
Mof_N 	N 	0.483	0.6021	0.0648	-0.242
Mof_C 	C 	0.5696	0.7587	0.9968	0.052
Mof_C 	C 	0.682	0.7026	0.028	0.056
Mof_C 	C 	0.6497	0.6817	0.2136	0.016
Mof_H 	H 	0.6799	0.6842	0.1861	0.042
Mof_C 	C 	0.4461	0.615	0.0328	0.017
Mof_H 	H 	0.454	0.6512	0.0146	0.024
Mof_O 	O 	0.4475	0.4706	0.1395	-0.179
Mof_C 	C 	0.5705	0.7313	0.9309	-0.131
Mof_H 	H 	0.564	0.693	0.9249	0.095
Mof_C 	C 	0.7179	0.764	0.0502	-0.131
Mof_H 	H 	0.703	0.782	0.0785	0.081
Mof_C 	C 	0.7767	0.7941	0.026	0.098
Mof_C 	C 	0.5818	0.7698	0.8833	0.084
Mof_Br	Br	0.8318	0.8613	0.0637	-0.131
Mof_Br	Br	0.5846	0.72015	0.80144	-0.146
Mof_N 	N 	0.4826	0.1584	0.75	-0.024
Mof_C 	C 	0.4268	0.1033	0.75	0.164
Mof_N 	N 	0.8416	0.3242	0.75	-0.024
Mof_C 	C 	0.8967	0.3235	0.75	0.164
Mof_N 	N 	0.6758	0.5174	0.75	-0.024
Mof_C 	C 	0.6765	0.5732	0.75	0.164
Mof_N 	N 	0.5174	0.8416	0.25	-0.024
Mof_C 	C 	0.5732	0.8967	0.25	0.164
Mof_N 	N 	0.1584	0.6758	0.25	-0.024
Mof_C 	C 	0.1033	0.6765	0.25	0.164
Mof_N 	N 	0.3242	0.4826	0.25	-0.024
Mof_C 	C 	0.3235	0.4268	0.25	0.164
Mof_N 	N 	0.1584	0.4826	0.25	-0.024
Mof_C 	C 	0.1033	0.4268	0.25	0.164
Mof_N 	N 	0.3242	0.8416	0.25	-0.024
Mof_C 	C 	0.3235	0.8967	0.25	0.164
Mof_N 	N 	0.5174	0.6758	0.25	-0.024
Mof_C 	C 	0.5732	0.6765	0.25	0.164
Mof_N 	N 	0.8416	0.5174	0.75	-0.024
Mof_C 	C 	0.8967	0.5732	0.75	0.164
Mof_N 	N 	0.6758	0.1584	0.75	-0.024
Mof_C 	C 	0.6765	0.1033	0.75	0.164
Mof_N 	N 	0.4826	0.3242	0.75	-0.024
Mof_C 	C 	0.4268	0.3235	0.75	0.164
Mof_C 	C 	0.4345	0.21725	0.6043	0.09
Mof_H 	H 	0.4372	0.2186	0.6513	-0.008
Mof_C 	C 	0.78275	0.21725	0.6043	0.09
Mof_H 	H 	0.7814	0.2186	0.6513	-0.008
Mof_C 	C 	0.78275	0.5655	0.6043	0.09
Mof_H 	H 	0.7814	0.5628	0.6513	-0.008
Mof_C 	C 	0.5655	0.78275	0.1043	0.09
Mof_H 	H 	0.5628	0.7814	0.1513	-0.008
Mof_C 	C 	0.21725	0.78275	0.1043	0.09
Mof_H 	H 	0.2186	0.7814	0.1513	-0.008
Mof_C 	C 	0.21725	0.4345	0.1043	0.09
Mof_H 	H 	0.2186	0.4372	0.1513	-0.008
Mof_C 	C 	0.21725	0.4345	0.3957	0.09
Mof_H 	H 	0.2186	0.4372	0.3487	-0.008
Mof_C 	C 	0.21725	0.78275	0.3957	0.09
Mof_H 	H 	0.2186	0.7814	0.3487	-0.008
Mof_C 	C 	0.5655	0.78275	0.3957	0.09
Mof_H 	H 	0.5628	0.7814	0.3487	-0.008
Mof_C 	C 	0.78275	0.5655	0.8957	0.091
Mof_H 	H 	0.7814	0.5628	0.8487	-0.008
Mof_C 	C 	0.78275	0.21725	0.8957	0.091
Mof_H 	H 	0.7814	0.2186	0.8487	-0.008
Mof_C 	C 	0.4345	0.21725	0.8957	0.091
Mof_H 	H 	0.4372	0.2186	0.8487	-0.008
Mof_C 	C 	0.54685	0.0937	0.5905	0.142
Mof_N 	N 	0.5184	0.0368	0.6247	0.005
Mof_C 	C 	0.9063	0.45315	0.5905	0.143
Mof_N 	N 	0.9632	0.4816	0.6247	0.005
Mof_C 	C 	0.54685	0.45315	0.5905	0.143
Mof_N 	N 	0.5184	0.4816	0.6247	0.005
Mof_C 	C 	0.45315	0.9063	0.0905	0.143
Mof_N 	N 	0.4816	0.9632	0.1247	0.005
Mof_C 	C 	0.0937	0.54685	0.0905	0.142
Mof_N 	N 	0.0368	0.5184	0.1247	0.005
Mof_C 	C 	0.45315	0.54685	0.0905	0.142
Mof_N 	N 	0.4816	0.5184	0.1247	0.005
Mof_C 	C 	0.0937	0.54685	0.4095	0.142
Mof_N 	N 	0.0368	0.5184	0.3753	0.005
Mof_C 	C 	0.45315	0.9063	0.4095	0.143
Mof_N 	N 	0.4816	0.9632	0.3753	0.005
Mof_C 	C 	0.45315	0.54685	0.4095	0.143
Mof_N 	N 	0.4816	0.5184	0.3753	0.005
Mof_C 	C 	0.9063	0.45315	0.9095	0.144
Mof_N 	N 	0.9632	0.4816	0.8753	0.005
Mof_C 	C 	0.54685	0.0937	0.9095	0.143
Mof_N 	N 	0.5184	0.0368	0.8753	0.005
Mof_C 	C 	0.54685	0.45315	0.9095	0.143
Mof_N 	N 	0.5184	0.4816	0.8753	0.005
Mof_C 	C 	0.3864	-8.72512e-33	0.5	0.078
Mof_H 	H 	0.4222	-8.72512e-33	0.5	-0.008
Mof_C 	C 	7.13007e-17	0.3864	0.5	0.079
Mof_H 	H 	7.13007e-17	0.4222	0.5	-0.008
Mof_C 	C 	0.6136	0.6136	0.5	0.082
Mof_H 	H 	0.5778	0.5778	0.5	-0.008
Mof_C 	C 	0.6136	0	-0	0.073
Mof_H 	H 	0.5778	0	-0	-0.007
Mof_C 	C 	-0	0.6136	-0	0.074
Mof_H 	H 	-0	0.5778	-0	-0.008
Mof_C 	C 	0.3864	0.3864	-0	0.077
Mof_H 	H 	0.4222	0.4222	-0	-0.008
Mof_C 	C 	0.6136	-8.72512e-33	0.5	0.077
Mof_H 	H 	0.5778	-8.72512e-33	0.5	-0.008
Mof_C 	C 	3.20062e-17	0.6136	0.5	0.079
Mof_H 	H 	-7.28823e-18	0.5778	0.5	-0.008
Mof_C 	C 	0.3864	0.3864	0.5	0.082
Mof_H 	H 	0.4222	0.4222	0.5	-0.008
Mof_C 	C 	0.3864	0	-0	0.073
Mof_H 	H 	0.4222	0	-0	-0.007
Mof_C 	C 	3.92945e-17	0.3864	-0	0.074
Mof_H 	H 	3.92945e-17	0.4222	-0	-0.008
Mof_C 	C 	0.6136	0.6136	-0	0.077
Mof_H 	H 	0.5778	0.5778	-0	-0.008
_end
