# CIF file generated by openbabel 3.1.0, see https://openbabel.org
data_I
_chemical_name_common 'HEDBUP_clean'
_cell_length_a 8.3203
_cell_length_b 15.8367
_cell_length_c 21.5047
_cell_angle_alpha 90
_cell_angle_beta 90
_cell_angle_gamma 90
_space_group_name_H-M_alt 'P 1'
_space_group_name_Hall 'P 1'
loop_
    _symmetry_equiv_pos_as_xyz
    x,y,z
loop_
    _atom_site_label
    _atom_site_type_symbol
    _atom_site_fract_x
    _atom_site_fract_y
    _atom_site_fract_z
    _atom_site_occupancy
    Nd1      Nd       0.14548    0.15650    0.72772    1.000
    Nd2      Nd       0.85452    0.84350    0.22772    1.000
    Nd3      Nd       0.35452    0.65650    0.72772    1.000
    Nd4      Nd       0.64548    0.34350    0.22772    1.000
    U1       U        0.97704    0.64419    0.97608    1.000
    U2       U        0.98407    0.36625    0.97188    1.000
    U3       U        0.02296    0.35581    0.47608    1.000
    U4       U        0.01593    0.63375    0.47188    1.000
    U5       U        0.52296    0.14419    0.97608    1.000
    U6       U        0.51593    0.86625    0.97188    1.000
    U7       U        0.47704    0.85581    0.47608    1.000
    U8       U        0.48407    0.13375    0.47188    1.000
    C1       C        0.01780    0.18690    0.97810    1.000
    C2       C        0.02150    0.09280    0.98060    1.000
    C3       C        0.01450    0.91600    0.97930    1.000
    C4       C        0.01160    0.82180    0.98120    1.000
    C5       C        0.19010    0.91250    0.88290    1.000
    C6       C        0.19870    0.09260    0.88370    1.000
    C7       C        0.83410    0.09540    0.07520    1.000
    C8       C        0.10030    0.95970    0.93510    1.000
    C9       C        0.92390    0.96190    0.02400    1.000
    C10      C        0.10740    0.04780    0.93470    1.000
    C11      C        0.92840    0.04940    0.02530    1.000
    C12      C        0.82430    0.91590    0.07290    1.000
    C13      C        0.98220    0.81310    0.47810    1.000
    C14      C        0.97850    0.90720    0.48060    1.000
    C15      C        0.98550    0.08400    0.47930    1.000
    C16      C        0.98840    0.17820    0.48120    1.000
    C17      C        0.80990    0.08750    0.38290    1.000
    C18      C        0.80130    0.90740    0.38370    1.000
    C19      C        0.16590    0.90460    0.57520    1.000
    C20      C        0.89970    0.04030    0.43510    1.000
    C21      C        0.07610    0.03810    0.52400    1.000
    C22      C        0.89260    0.95220    0.43470    1.000
    C23      C        0.07160    0.95060    0.52530    1.000
    C24      C        0.17570    0.08410    0.57290    1.000
    C25      C        0.48220    0.68690    0.97810    1.000
    C26      C        0.47850    0.59280    0.98060    1.000
    C27      C        0.48550    0.41600    0.97930    1.000
    C28      C        0.48840    0.32180    0.98120    1.000
    C29      C        0.30990    0.41250    0.88290    1.000
    C30      C        0.30130    0.59260    0.88370    1.000
    C31      C        0.66590    0.59540    0.07520    1.000
    C32      C        0.39970    0.45970    0.93510    1.000
    C33      C        0.57610    0.46190    0.02400    1.000
    C34      C        0.39260    0.54780    0.93470    1.000
    C35      C        0.57160    0.54940    0.02530    1.000
    C36      C        0.67570    0.41590    0.07290    1.000
    C37      C        0.51780    0.31310    0.47810    1.000
    C38      C        0.52150    0.40720    0.48060    1.000
    C39      C        0.51450    0.58400    0.47930    1.000
    C40      C        0.51160    0.67820    0.48120    1.000
    C41      C        0.69010    0.58750    0.38290    1.000
    C42      C        0.69870    0.40740    0.38370    1.000
    C43      C        0.33410    0.40460    0.57520    1.000
    C44      C        0.60030    0.54030    0.43510    1.000
    C45      C        0.42390    0.53810    0.52400    1.000
    C46      C        0.60740    0.45220    0.43470    1.000
    C47      C        0.42840    0.45060    0.52530    1.000
    C48      C        0.32430    0.58410    0.57290    1.000
    O1       O        0.95750    0.22800    0.02380    1.000
    O2       O        0.07760    0.22610    0.93340    1.000
    O3       O        0.93950    0.78340    0.02420    1.000
    O4       O        0.33460    0.89560    0.88900    1.000
    O5       O        0.11150    0.90040    0.83410    1.000
    O6       O        0.34180    0.11760    0.89360    1.000
    O7       O        0.13300    0.09370    0.83200    1.000
    O8       O        0.88400    0.90750    0.12500    1.000
    O9       O        0.68460    0.89270    0.05830    1.000
    O10      O        0.92360    0.50510    0.95270    1.000
    O11      O        0.68930    0.11640    0.06220    1.000
    O12      O        0.90010    0.10840    0.12580    1.000
    O13      O        0.08330    0.78150    0.93910    1.000
    O14      O        0.04250    0.77200    0.52380    1.000
    O15      O        0.92240    0.77390    0.43340    1.000
    O16      O        0.06050    0.21660    0.52420    1.000
    O17      O        0.66540    0.10440    0.38900    1.000
    O18      O        0.88850    0.09960    0.33410    1.000
    O19      O        0.65820    0.88240    0.39360    1.000
    O20      O        0.86700    0.90630    0.33200    1.000
    O21      O        0.11600    0.09250    0.62500    1.000
    O22      O        0.31540    0.10730    0.55830    1.000
    O23      O        0.07640    0.49490    0.45270    1.000
    O24      O        0.31070    0.88360    0.56220    1.000
    O25      O        0.09990    0.89160    0.62580    1.000
    O26      O        0.91670    0.21850    0.43910    1.000
    O27      O        0.54250    0.72800    0.02380    1.000
    O28      O        0.42240    0.72610    0.93340    1.000
    O29      O        0.56050    0.28340    0.02420    1.000
    O30      O        0.16540    0.39560    0.88900    1.000
    O31      O        0.38850    0.40040    0.83410    1.000
    O32      O        0.15820    0.61760    0.89360    1.000
    O33      O        0.36700    0.59370    0.83200    1.000
    O34      O        0.61600    0.40750    0.12500    1.000
    O35      O        0.81540    0.39270    0.05830    1.000
    O36      O        0.57640    0.00510    0.95270    1.000
    O37      O        0.81070    0.61640    0.06220    1.000
    O38      O        0.59990    0.60840    0.12580    1.000
    O39      O        0.41670    0.28150    0.93910    1.000
    O40      O        0.45750    0.27200    0.52380    1.000
    O41      O        0.57760    0.27390    0.43340    1.000
    O42      O        0.43950    0.71660    0.52420    1.000
    O43      O        0.83460    0.60440    0.38900    1.000
    O44      O        0.61150    0.59960    0.33410    1.000
    O45      O        0.84180    0.38240    0.39360    1.000
    O46      O        0.63300    0.40630    0.33200    1.000
    O47      O        0.38400    0.59250    0.62500    1.000
    O48      O        0.18460    0.60730    0.55830    1.000
    O49      O        0.42360    0.99490    0.45270    1.000
    O50      O        0.18930    0.38360    0.56220    1.000
    O51      O        0.40010    0.39160    0.62580    1.000
    O52      O        0.58330    0.71850    0.43910    1.000
