data_functionalizedCrystal
_audit_creation_method	'EQeq! by Chris Wilmer'
_symmetry_space_group_name_H-M	'P1'
_symmetry_Int_Tables_number	1
_symmetry_cell_setting	triclinic
loop_
_symmetry_equiv_pos_as_xyz
  x,y,z
_cell_length_a	19.1158
_cell_length_b	19.1158
_cell_length_c	19.1158
_cell_angle_alpha	90
_cell_angle_beta	90
_cell_angle_gamma	90
loop_
_atom_site_label
_atom_site_type_symbol
_atom_site_fract_x
_atom_site_fract_y
_atom_site_fract_z
_atom_site_charge
Mof_Mn	Mn	0.8569	0.5	-0	0.801
Mof_Mn	Mn	0.1431	0.5	-0	0.787
Mof_Mn	Mn	-1.73917e-33	0.8569	0.5	0.801
Mof_Mn	Mn	-1.73917e-33	0.1431	0.5	0.787
Mof_Mn	Mn	0.5	-7.22775e-33	0.8569	0.801
Mof_Mn	Mn	0.5	0	0.1431	0.787
Mof_Mn	Mn	0.5	0.8569	-0	0.801
Mof_Mn	Mn	0.5	0.1431	-0	0.787
Mof_Mn	Mn	0.8569	0	0.5	0.801
Mof_Mn	Mn	0.1431	0	0.5	0.788
Mof_Mn	Mn	-1.2704e-33	0.5	0.1431	0.788
Mof_Mn	Mn	-4.01489e-33	0.5	0.8569	0.802
Mof_H 	H 	0.7407	0.7407	0.1103	0.089
Mof_H 	H 	0.2593	0.2593	0.1103	0.086
Mof_H 	H 	0.2593	0.7407	0.8897	0.098
Mof_H 	H 	0.7407	0.2593	0.8897	0.098
Mof_H 	H 	0.1103	0.7407	0.7407	0.089
Mof_H 	H 	0.1103	0.2593	0.2593	0.086
Mof_H 	H 	0.8897	0.2593	0.7407	0.098
Mof_H 	H 	0.8897	0.7407	0.2593	0.098
Mof_H 	H 	0.7407	0.1103	0.7407	0.089
Mof_H 	H 	0.2593	0.1103	0.2593	0.086
Mof_H 	H 	0.7407	0.8897	0.2593	0.098
Mof_H 	H 	0.2593	0.8897	0.7407	0.098
Mof_H 	H 	0.7407	0.7407	0.8897	0.1
Mof_H 	H 	0.2593	0.2593	0.8897	0.096
Mof_H 	H 	0.7407	0.2593	0.1103	0.087
Mof_H 	H 	0.2593	0.7407	0.1103	0.087
Mof_H 	H 	0.7407	0.1103	0.2593	0.087
Mof_H 	H 	0.2593	0.1103	0.7407	0.087
Mof_H 	H 	0.2593	0.8897	0.2593	0.096
Mof_H 	H 	0.7407	0.8897	0.7407	0.1
Mof_H 	H 	0.1103	0.7407	0.2593	0.087
Mof_H 	H 	0.1103	0.2593	0.7407	0.087
Mof_H 	H 	0.8897	0.7407	0.7407	0.1
Mof_H 	H 	0.8897	0.2593	0.2593	0.096
Mof_C 	C 	0.8502	0.6671	0.1498	0.109
Mof_C 	C 	0.81927	0.7303	0.18073	0.049
Mof_C 	C 	0.1498	0.3329	0.1498	0.105
Mof_C 	C 	0.18073	0.2697	0.18073	0.04
Mof_C 	C 	0.1498	0.6671	0.8502	0.109
Mof_C 	C 	0.18073	0.7303	0.81927	0.049
Mof_C 	C 	0.8502	0.3329	0.8502	0.112
Mof_C 	C 	0.81927	0.2697	0.81927	0.052
Mof_C 	C 	0.1498	0.8502	0.6671	0.109
Mof_C 	C 	0.18073	0.81927	0.7303	0.049
Mof_C 	C 	0.1498	0.1498	0.3329	0.105
Mof_C 	C 	0.18073	0.18073	0.2697	0.04
Mof_C 	C 	0.8502	0.1498	0.6671	0.109
Mof_C 	C 	0.81927	0.18073	0.7303	0.049
Mof_C 	C 	0.8502	0.8502	0.3329	0.112
Mof_C 	C 	0.81927	0.81927	0.2697	0.052
Mof_C 	C 	0.6671	0.1498	0.8502	0.109
Mof_C 	C 	0.7303	0.18073	0.81927	0.049
Mof_C 	C 	0.3329	0.1498	0.1498	0.105
Mof_C 	C 	0.2697	0.18073	0.18073	0.04
Mof_C 	C 	0.6671	0.8502	0.1498	0.109
Mof_C 	C 	0.7303	0.81927	0.18073	0.049
Mof_C 	C 	0.3329	0.8502	0.8502	0.112
Mof_C 	C 	0.2697	0.81927	0.81927	0.052
Mof_C 	C 	0.6671	0.8502	0.8502	0.112
Mof_C 	C 	0.7303	0.81927	0.81927	0.056
Mof_C 	C 	0.3329	0.1498	0.8502	0.108
Mof_C 	C 	0.2697	0.18073	0.81927	0.046
Mof_C 	C 	0.6671	0.1498	0.1498	0.105
Mof_C 	C 	0.7303	0.18073	0.18073	0.043
Mof_C 	C 	0.3329	0.8502	0.1498	0.108
Mof_C 	C 	0.2697	0.81927	0.18073	0.046
Mof_C 	C 	0.8502	0.1498	0.3329	0.108
Mof_C 	C 	0.81927	0.18073	0.2697	0.046
Mof_C 	C 	0.1498	0.1498	0.6671	0.105
Mof_C 	C 	0.18073	0.18073	0.7303	0.043
Mof_C 	C 	0.1498	0.8502	0.3329	0.108
Mof_C 	C 	0.18073	0.81927	0.2697	0.046
Mof_C 	C 	0.8502	0.8502	0.6671	0.112
Mof_C 	C 	0.81927	0.81927	0.7303	0.056
Mof_C 	C 	0.1498	0.6671	0.1498	0.105
Mof_C 	C 	0.18073	0.7303	0.18073	0.043
Mof_C 	C 	0.1498	0.3329	0.8502	0.108
Mof_C 	C 	0.18073	0.2697	0.81927	0.046
Mof_C 	C 	0.8502	0.6671	0.8502	0.112
Mof_C 	C 	0.81927	0.7303	0.81927	0.056
Mof_C 	C 	0.8502	0.3329	0.1498	0.108
Mof_C 	C 	0.81927	0.2697	0.18073	0.046
Mof_C 	C 	0.7601	0.7601	0.1505	-0.096
Mof_C 	C 	0.2399	0.2399	0.1505	-0.094
Mof_C 	C 	0.2399	0.7601	0.8495	-0.097
Mof_C 	C 	0.7601	0.2399	0.8495	-0.097
Mof_C 	C 	0.1505	0.7601	0.7601	-0.096
Mof_C 	C 	0.1505	0.2399	0.2399	-0.094
Mof_C 	C 	0.8495	0.2399	0.7601	-0.097
Mof_C 	C 	0.8495	0.7601	0.2399	-0.097
Mof_C 	C 	0.7601	0.1505	0.7601	-0.096
Mof_C 	C 	0.2399	0.1505	0.2399	-0.094
Mof_C 	C 	0.7601	0.8495	0.2399	-0.097
Mof_C 	C 	0.2399	0.8495	0.7601	-0.097
Mof_C 	C 	0.7601	0.7601	0.8495	-0.098
Mof_C 	C 	0.2399	0.2399	0.8495	-0.096
Mof_C 	C 	0.7601	0.2399	0.1505	-0.095
Mof_C 	C 	0.2399	0.7601	0.1505	-0.095
Mof_C 	C 	0.7601	0.1505	0.2399	-0.095
Mof_C 	C 	0.2399	0.1505	0.7601	-0.095
Mof_C 	C 	0.2399	0.8495	0.2399	-0.096
Mof_C 	C 	0.7601	0.8495	0.7601	-0.098
Mof_C 	C 	0.1505	0.7601	0.2399	-0.095
Mof_C 	C 	0.1505	0.2399	0.7601	-0.095
Mof_C 	C 	0.8495	0.7601	0.7601	-0.098
Mof_C 	C 	0.8495	0.2399	0.2399	-0.096
Mof_N 	N 	0.86776	0.58067	0.08336	-0.103
Mof_N 	N 	0.82484	0.63491	0.09274	-0.086
Mof_N 	N 	0.13224	0.41933	0.08336	-0.106
Mof_N 	N 	0.17516	0.36509	0.09274	-0.088
Mof_N 	N 	0.13224	0.58067	0.91664	-0.094
Mof_N 	N 	0.17516	0.63491	0.90726	-0.077
Mof_N 	N 	0.86776	0.41933	0.91664	-0.091
Mof_N 	N 	0.82484	0.36509	0.90726	-0.076
Mof_N 	N 	0.08336	0.86776	0.58067	-0.103
Mof_N 	N 	0.09274	0.82484	0.63491	-0.086
Mof_N 	N 	0.08336	0.13224	0.41933	-0.106
Mof_N 	N 	0.09274	0.17516	0.36509	-0.088
Mof_N 	N 	0.91664	0.13224	0.58067	-0.094
Mof_N 	N 	0.90726	0.17516	0.63491	-0.077
Mof_N 	N 	0.91664	0.86776	0.41933	-0.091
Mof_N 	N 	0.90726	0.82484	0.36509	-0.076
Mof_N 	N 	0.58067	0.08336	0.86776	-0.103
Mof_N 	N 	0.63491	0.09274	0.82484	-0.086
Mof_N 	N 	0.41933	0.08336	0.13224	-0.106
Mof_N 	N 	0.36509	0.09274	0.17516	-0.088
Mof_N 	N 	0.58067	0.91664	0.13224	-0.094
Mof_N 	N 	0.63491	0.90726	0.17516	-0.077
Mof_N 	N 	0.41933	0.91664	0.86776	-0.091
Mof_N 	N 	0.36509	0.90726	0.82484	-0.076
Mof_N 	N 	0.58067	0.86776	0.91664	-0.091
Mof_N 	N 	0.63491	0.82484	0.90726	-0.076
Mof_N 	N 	0.41933	0.13224	0.91664	-0.094
Mof_N 	N 	0.36509	0.17516	0.90726	-0.078
Mof_N 	N 	0.58067	0.13224	0.08336	-0.106
Mof_N 	N 	0.63491	0.17516	0.09274	-0.087
Mof_N 	N 	0.41933	0.86776	0.08336	-0.103
Mof_N 	N 	0.36509	0.82484	0.09274	-0.086
Mof_N 	N 	0.86776	0.08336	0.41933	-0.103
Mof_N 	N 	0.82484	0.09274	0.36509	-0.086
Mof_N 	N 	0.13224	0.08336	0.58067	-0.106
Mof_N 	N 	0.17516	0.09274	0.63491	-0.087
Mof_N 	N 	0.13224	0.91664	0.41933	-0.094
Mof_N 	N 	0.17516	0.90726	0.36509	-0.078
Mof_N 	N 	0.86776	0.91664	0.58067	-0.091
Mof_N 	N 	0.82484	0.90726	0.63491	-0.076
Mof_N 	N 	0.08336	0.58067	0.13224	-0.106
Mof_N 	N 	0.09274	0.63491	0.17516	-0.087
Mof_N 	N 	0.08336	0.41933	0.86776	-0.103
Mof_N 	N 	0.09274	0.36509	0.82484	-0.086
Mof_N 	N 	0.91664	0.58067	0.86776	-0.091
Mof_N 	N 	0.90726	0.63491	0.82484	-0.076
Mof_N 	N 	0.91664	0.41933	0.13224	-0.094
Mof_N 	N 	0.90726	0.36509	0.17516	-0.078
Mof_N 	N 	0.13224	0.41933	0.91664	-0.094
Mof_N 	N 	0.17516	0.36509	0.90726	-0.078
Mof_N 	N 	0.86776	0.58067	0.91664	-0.091
Mof_N 	N 	0.82484	0.63491	0.90726	-0.076
Mof_N 	N 	0.86776	0.41933	0.08336	-0.103
Mof_N 	N 	0.82484	0.36509	0.09274	-0.086
Mof_N 	N 	0.13224	0.58067	0.08336	-0.106
Mof_N 	N 	0.17516	0.63491	0.09274	-0.087
Mof_N 	N 	0.91664	0.13224	0.41933	-0.094
Mof_N 	N 	0.90726	0.17516	0.36509	-0.078
Mof_N 	N 	0.91664	0.86776	0.58067	-0.091
Mof_N 	N 	0.90726	0.82484	0.63491	-0.076
Mof_N 	N 	0.08336	0.86776	0.41933	-0.103
Mof_N 	N 	0.09274	0.82484	0.36509	-0.086
Mof_N 	N 	0.08336	0.13224	0.58067	-0.106
Mof_N 	N 	0.09274	0.17516	0.63491	-0.087
Mof_N 	N 	0.41933	0.91664	0.13224	-0.094
Mof_N 	N 	0.36509	0.90726	0.17516	-0.078
Mof_N 	N 	0.58067	0.91664	0.86776	-0.091
Mof_N 	N 	0.63491	0.90726	0.82484	-0.076
Mof_N 	N 	0.41933	0.08336	0.86776	-0.103
Mof_N 	N 	0.36509	0.09274	0.82484	-0.086
Mof_N 	N 	0.58067	0.08336	0.13224	-0.106
Mof_N 	N 	0.63491	0.09274	0.17516	-0.087
Mof_N 	N 	0.41933	0.13224	0.08336	-0.106
Mof_N 	N 	0.36509	0.17516	0.09274	-0.088
Mof_N 	N 	0.58067	0.86776	0.08336	-0.103
Mof_N 	N 	0.63491	0.82484	0.09274	-0.086
Mof_N 	N 	0.41933	0.86776	0.91664	-0.091
Mof_N 	N 	0.36509	0.82484	0.90726	-0.076
Mof_N 	N 	0.58067	0.13224	0.91664	-0.094
Mof_N 	N 	0.63491	0.17516	0.90726	-0.077
Mof_N 	N 	0.13224	0.91664	0.58067	-0.094
Mof_N 	N 	0.17516	0.90726	0.63491	-0.077
Mof_N 	N 	0.86776	0.91664	0.41933	-0.091
Mof_N 	N 	0.82484	0.90726	0.36509	-0.076
Mof_N 	N 	0.86776	0.08336	0.58067	-0.103
Mof_N 	N 	0.82484	0.09274	0.63491	-0.086
Mof_N 	N 	0.13224	0.08336	0.41933	-0.106
Mof_N 	N 	0.17516	0.09274	0.36509	-0.088
Mof_N 	N 	0.91664	0.41933	0.86776	-0.091
Mof_N 	N 	0.90726	0.36509	0.82484	-0.076
Mof_N 	N 	0.91664	0.58067	0.13224	-0.094
Mof_N 	N 	0.90726	0.63491	0.17516	-0.077
Mof_N 	N 	0.08336	0.41933	0.13224	-0.106
Mof_N 	N 	0.09274	0.36509	0.17516	-0.088
Mof_N 	N 	0.08336	0.58067	0.86776	-0.103
Mof_N 	N 	0.09274	0.63491	0.82484	-0.086
Mof_Cl	Cl	-0	0.5	-0	-0.613
Mof_Cl	Cl	-1.73917e-33	0	0.5	-0.613
Mof_Cl	Cl	0.5	0	-0	-0.613
Mof_O 	O 	0.746	0.5	-0	-0.226
Mof_O 	O 	0.254	0.5	-0	-0.225
Mof_O 	O 	5.48857e-33	0.746	0.5	-0.226
Mof_O 	O 	5.48857e-33	0.254	0.5	-0.225
Mof_O 	O 	0.5	7.22775e-33	0.746	-0.226
Mof_O 	O 	0.5	-1.80694e-33	0.254	-0.225
Mof_O 	O 	0.5	0.746	-0	-0.226
Mof_O 	O 	0.5	0.254	-0	-0.225
Mof_O 	O 	0.746	0	0.5	-0.226
Mof_O 	O 	0.254	0	0.5	-0.225
Mof_O 	O 	4.56622e-33	0.5	0.254	-0.225
Mof_O 	O 	2.79705e-33	0.5	0.746	-0.226
_end
