data_functionalizedCrystal
_audit_creation_method	'EQeq! by Chris Wilmer'
_symmetry_space_group_name_H-M	'P1'
_symmetry_Int_Tables_number	1
_symmetry_cell_setting	triclinic
loop_
_symmetry_equiv_pos_as_xyz
  x,y,z
_cell_length_a	9.6892
_cell_length_b	17.681
_cell_length_c	21.158
_cell_angle_alpha	90
_cell_angle_beta	90
_cell_angle_gamma	105.426
loop_
_atom_site_label
_atom_site_type_symbol
_atom_site_fract_x
_atom_site_fract_y
_atom_site_fract_z
_atom_site_charge
Mof_Li	Li	0.9769	0.4921	0.2854	1.9
Mof_Li	Li	0.5231	0.0079	0.7854	1.822
Mof_Li	Li	0.0231	0.5079	0.7146	1.834
Mof_Li	Li	0.4769	0.9921	0.2146	1.915
Mof_Cd	Cd	0.42438	0.92571	0.64738	0.4
Mof_Cd	Cd	0.07562	0.57429	0.14738	0.381
Mof_Cd	Cd	0.57562	0.07429	0.35262	0.383
Mof_Cd	Cd	0.92438	0.42571	0.85262	0.399
Mof_Cd	Cd	0.5	-7.22463e-33	0.5	0.512
Mof_Cd	Cd	-0	0.5	-0	0.508
Mof_H 	H 	0.663	0.859	0.4634	-0.192
Mof_H 	H 	0.092	0.875	0.4441	-0.182
Mof_H 	H 	0.936	0.926	0.6073	-0.141
Mof_H 	H 	0.6736	0.8632	0.3558	0.998
Mof_H 	H 	0.6428	0.7751	0.3761	0.977
Mof_H 	H 	0.6992	0.8007	0.3078	0.941
Mof_H 	H 	0.8424	0.7157	0.393	0.784
Mof_H 	H 	0.999	0.7679	0.3827	0.846
Mof_H 	H 	0.8978	0.7407	0.3245	0.797
Mof_H 	H 	0.9245	0.9382	0.3328	0.832
Mof_H 	H 	0.9457	0.8702	0.2894	0.779
Mof_H 	H 	0.047	0.898	0.3475	0.835
Mof_H 	H 	0.302	0.807	0.2651	-0.17
Mof_H 	H 	0.379	0.819	0.456	-0.085
Mof_H 	H 	0.161	0.613	0.372	-0.221
Mof_H 	H 	0.1168	0.7252	0.5301	0.462
Mof_H 	H 	0.277	0.7738	0.5368	0.522
Mof_H 	H 	0.2169	0.6995	0.5791	0.446
Mof_H 	H 	0.4078	0.6465	0.5494	0.345
Mof_H 	H 	0.4706	0.7232	0.5101	0.398
Mof_H 	H 	0.4473	0.6408	0.478	0.347
Mof_H 	H 	0.0664	0.5923	0.4787	0.368
Mof_H 	H 	0.1612	0.5707	0.5322	0.351
Mof_H 	H 	0.1971	0.5598	0.4611	0.375
Mof_H 	H 	0.837	0.641	0.9634	-0.209
Mof_H 	H 	0.408	0.625	0.9441	-0.2
Mof_H 	H 	0.564	0.574	0.1073	-0.154
Mof_H 	H 	0.8264	0.6368	0.8558	1.049
Mof_H 	H 	0.8572	0.7249	0.8761	1.03
Mof_H 	H 	0.8008	0.6993	0.8078	0.992
Mof_H 	H 	0.6576	0.7843	0.893	0.825
Mof_H 	H 	0.501	0.7321	0.8827	0.883
Mof_H 	H 	0.6022	0.7593	0.8245	0.836
Mof_H 	H 	0.5755	0.5618	0.8328	0.874
Mof_H 	H 	0.5543	0.6298	0.7894	0.824
Mof_H 	H 	0.453	0.602	0.8475	0.89
Mof_H 	H 	0.198	0.693	0.7651	-0.168
Mof_H 	H 	0.121	0.681	0.956	-0.089
Mof_H 	H 	0.339	0.887	0.872	-0.217
Mof_H 	H 	0.3832	0.7748	0.0301	0.486
Mof_H 	H 	0.223	0.7262	0.0368	0.545
Mof_H 	H 	0.2831	0.8005	0.0791	0.47
Mof_H 	H 	0.0922	0.8535	0.0494	0.371
Mof_H 	H 	0.0294	0.7768	0.0101	0.42
Mof_H 	H 	0.0527	0.8592	0.978	0.379
Mof_H 	H 	0.4336	0.9077	0.9787	0.397
Mof_H 	H 	0.3388	0.9293	0.0322	0.369
Mof_H 	H 	0.3029	0.9402	0.9611	0.402
Mof_H 	H 	0.337	0.141	0.5366	-0.204
Mof_H 	H 	0.908	0.125	0.5559	-0.195
Mof_H 	H 	0.064	0.074	0.3927	-0.148
Mof_H 	H 	0.3264	0.1368	0.6442	1.03
Mof_H 	H 	0.3572	0.2249	0.6239	1.011
Mof_H 	H 	0.3008	0.1993	0.6922	0.974
Mof_H 	H 	0.1576	0.2843	0.607	0.807
Mof_H 	H 	0.001	0.2321	0.6173	0.864
Mof_H 	H 	0.1022	0.2593	0.6755	0.819
Mof_H 	H 	0.0755	0.0618	0.6672	0.863
Mof_H 	H 	0.0543	0.1298	0.7106	0.816
Mof_H 	H 	0.953	0.102	0.6525	0.888
Mof_H 	H 	0.698	0.193	0.7349	-0.165
Mof_H 	H 	0.621	0.181	0.544	-0.086
Mof_H 	H 	0.839	0.387	0.628	-0.215
Mof_H 	H 	0.8832	0.2748	0.4699	0.472
Mof_H 	H 	0.723	0.2262	0.4632	0.529
Mof_H 	H 	0.7831	0.3005	0.4209	0.453
Mof_H 	H 	0.5922	0.3535	0.4506	0.349
Mof_H 	H 	0.5294	0.2768	0.4899	0.401
Mof_H 	H 	0.5527	0.3592	0.522	0.35
Mof_H 	H 	0.9336	0.4077	0.5213	0.383
Mof_H 	H 	0.8388	0.4293	0.4678	0.362
Mof_H 	H 	0.8029	0.4402	0.5389	0.387
Mof_H 	H 	0.163	0.359	0.0366	-0.19
Mof_H 	H 	0.592	0.375	0.0559	-0.18
Mof_H 	H 	0.436	0.426	0.8927	-0.137
Mof_H 	H 	0.1736	0.3632	0.1442	0.986
Mof_H 	H 	0.1428	0.2751	0.1239	0.966
Mof_H 	H 	0.1992	0.3007	0.1922	0.93
Mof_H 	H 	0.3424	0.2157	0.107	0.772
Mof_H 	H 	0.499	0.2679	0.1173	0.833
Mof_H 	H 	0.3978	0.2407	0.1755	0.786
Mof_H 	H 	0.4245	0.4382	0.1672	0.829
Mof_H 	H 	0.4457	0.3702	0.2106	0.779
Mof_H 	H 	0.547	0.398	0.1525	0.844
Mof_H 	H 	0.802	0.307	0.2349	-0.167
Mof_H 	H 	0.879	0.319	0.044	-0.083
Mof_H 	H 	0.661	0.113	0.128	-0.219
Mof_H 	H 	0.6168	0.2252	0.9699	0.451
Mof_H 	H 	0.777	0.2738	0.9632	0.509
Mof_H 	H 	0.7169	0.1995	0.9209	0.432
Mof_H 	H 	0.9078	0.1465	0.9506	0.327
Mof_H 	H 	0.9706	0.2232	0.9899	0.383
Mof_H 	H 	0.9473	0.1408	0.022	0.324
Mof_H 	H 	0.5664	0.0923	0.0213	0.357
Mof_H 	H 	0.6612	0.0707	0.9678	0.345
Mof_H 	H 	0.6971	0.0598	0.0389	0.363
Mof_C 	C 	0.6561	0.89769	0.58318	0.426
Mof_C 	C 	0.7797	0.89097	0.54298	-0.444
Mof_C 	C 	0.7572	0.86647	0.48022	0.554
Mof_C 	C 	0.8704	0.859	0.442	-1.006
Mof_C 	C 	0.0068	0.8797	0.46837	0.517
Mof_C 	C 	0.0309	0.90413	0.53088	-0.437
Mof_C 	C 	0.9164	0.90911	0.56853	0.385
Mof_C 	C 	0.1822	0.92501	0.5551	0.435
Mof_C 	C 	0.8495	0.83	0.37356	2.367
Mof_C 	C 	0.7042	0.8161	0.3515	-3.324
Mof_C 	C 	0.902	0.7569	0.3679	-2.817
Mof_C 	C 	0.951	0.8896	0.332	-2.794
Mof_C 	C 	0.1659	0.659	0.25232	0.556
Mof_C 	C 	0.2252	0.70519	0.31035	-0.48
Mof_C 	C 	0.2917	0.78447	0.30487	0.313
Mof_C 	C 	0.3481	0.82723	0.35828	-0.448
Mof_C 	C 	0.3353	0.79042	0.41726	0.308
Mof_C 	C 	0.2673	0.71099	0.42379	-0.598
Mof_C 	C 	0.213	0.66906	0.36906	0.344
Mof_C 	C 	0.4269	0.91339	0.35149	0.569
Mof_C 	C 	0.255	0.672	0.48906	1.124
Mof_C 	C 	0.2126	0.7221	0.5381	-1.635
Mof_C 	C 	0.4102	0.6705	0.5085	-1.351
Mof_C 	C 	0.1619	0.5918	0.4904	-1.494
Mof_C 	C 	0.8439	0.60231	0.08318	0.435
Mof_C 	C 	0.7203	0.60903	0.04298	-0.48
Mof_C 	C 	0.7428	0.63353	0.98022	0.604
Mof_C 	C 	0.6296	0.641	0.942	-1.081
Mof_C 	C 	0.4932	0.6203	0.96837	0.574
Mof_C 	C 	0.4691	0.59587	0.03088	-0.465
Mof_C 	C 	0.5836	0.59089	0.06853	0.403
Mof_C 	C 	0.3178	0.57499	0.0551	0.444
Mof_C 	C 	0.6505	0.67	0.87356	2.497
Mof_C 	C 	0.7958	0.6839	0.8515	-3.493
Mof_C 	C 	0.598	0.7431	0.8679	-2.953
Mof_C 	C 	0.549	0.6104	0.832	-2.958
Mof_C 	C 	0.3341	0.841	0.75232	0.548
Mof_C 	C 	0.2748	0.79481	0.81035	-0.478
Mof_C 	C 	0.2083	0.71553	0.80487	0.311
Mof_C 	C 	0.1519	0.67277	0.85828	-0.452
Mof_C 	C 	0.1647	0.70958	0.91726	0.317
Mof_C 	C 	0.2327	0.78901	0.92379	-0.622
Mof_C 	C 	0.287	0.83094	0.86906	0.351
Mof_C 	C 	0.0731	0.58661	0.85149	0.562
Mof_C 	C 	0.245	0.828	0.98906	1.197
Mof_C 	C 	0.2874	0.7779	0.0381	-1.723
Mof_C 	C 	0.0898	0.8295	0.0085	-1.451
Mof_C 	C 	0.3381	0.9082	0.9904	-1.564
Mof_C 	C 	0.3439	0.10231	0.41682	0.428
Mof_C 	C 	0.2203	0.10903	0.45702	-0.459
Mof_C 	C 	0.2428	0.13353	0.51978	0.578
Mof_C 	C 	0.1296	0.141	0.558	-1.067
Mof_C 	C 	0.9932	0.1203	0.53163	0.557
Mof_C 	C 	0.9691	0.09587	0.46912	-0.437
Mof_C 	C 	0.0836	0.09089	0.43147	0.372
Mof_C 	C 	0.8178	0.07499	0.4449	0.434
Mof_C 	C 	0.1505	0.17	0.62644	2.461
Mof_C 	C 	0.2958	0.1839	0.6485	-3.439
Mof_C 	C 	0.098	0.2431	0.6321	-2.905
Mof_C 	C 	0.049	0.1104	0.668	-2.941
Mof_C 	C 	0.8341	0.341	0.74768	0.548
Mof_C 	C 	0.7748	0.29481	0.68965	-0.472
Mof_C 	C 	0.7083	0.21553	0.69513	0.307
Mof_C 	C 	0.6519	0.17277	0.64172	-0.445
Mof_C 	C 	0.6647	0.20958	0.58274	0.307
Mof_C 	C 	0.7327	0.28901	0.57621	-0.602
Mof_C 	C 	0.787	0.33094	0.63094	0.342
Mof_C 	C 	0.5731	0.08661	0.64851	0.56
Mof_C 	C 	0.745	0.328	0.51094	1.142
Mof_C 	C 	0.7874	0.2779	0.4619	-1.659
Mof_C 	C 	0.5898	0.3295	0.4915	-1.366
Mof_C 	C 	0.8381	0.4082	0.5096	-1.526
Mof_C 	C 	0.1561	0.39769	0.91682	0.42
Mof_C 	C 	0.2797	0.39097	0.95702	-0.427
Mof_C 	C 	0.2572	0.36647	0.01978	0.533
Mof_C 	C 	0.3704	0.359	0.058	-1.003
Mof_C 	C 	0.5068	0.3797	0.03163	0.507
Mof_C 	C 	0.5309	0.40413	0.96912	-0.412
Mof_C 	C 	0.4164	0.40911	0.93147	0.354
Mof_C 	C 	0.6822	0.42501	0.9449	0.426
Mof_C 	C 	0.3495	0.33	0.12644	2.353
Mof_C 	C 	0.2042	0.3161	0.1485	-3.297
Mof_C 	C 	0.402	0.2569	0.1321	-2.792
Mof_C 	C 	0.451	0.3896	0.168	-2.808
Mof_C 	C 	0.6659	0.159	0.24768	0.557
Mof_C 	C 	0.7252	0.20519	0.18965	-0.475
Mof_C 	C 	0.7917	0.28447	0.19513	0.309
Mof_C 	C 	0.8481	0.32723	0.14172	-0.442
Mof_C 	C 	0.8353	0.29042	0.08274	0.299
Mof_C 	C 	0.7673	0.21099	0.07621	-0.582
Mof_C 	C 	0.713	0.16906	0.13094	0.336
Mof_C 	C 	0.9269	0.41339	0.14851	0.567
Mof_C 	C 	0.755	0.172	0.01094	1.08
Mof_C 	C 	0.7126	0.2221	0.9619	-1.586
Mof_C 	C 	0.9102	0.1705	0.9915	-1.286
Mof_C 	C 	0.6619	0.0918	0.0096	-1.464
Mof_O 	O 	0.5361	0.89494	0.55569	-0.352
Mof_O 	O 	0.6689	0.90585	0.64125	-0.393
Mof_O 	O 	0.2035	0.92428	0.6129	-0.382
Mof_O 	O 	0.2766	0.94025	0.51274	-0.337
Mof_O 	O 	0.1714	0.69279	0.20026	-0.436
Mof_O 	O 	0.1138	0.5858	0.25711	-0.843
Mof_O 	O 	0.4341	0.94414	0.29904	-0.831
Mof_O 	O 	0.4887	0.94933	0.39899	-0.408
Mof_O 	O 	0.9639	0.60506	0.05569	-0.355
Mof_O 	O 	0.8311	0.59415	0.14125	-0.398
Mof_O 	O 	0.2965	0.57572	0.1129	-0.386
Mof_O 	O 	0.2234	0.55975	0.01274	-0.35
Mof_O 	O 	0.3286	0.80721	0.70026	-0.432
Mof_O 	O 	0.3862	0.9142	0.75711	-0.815
Mof_O 	O 	0.0659	0.55586	0.79904	-0.822
Mof_O 	O 	0.0113	0.55067	0.89899	-0.419
Mof_O 	O 	0.4639	0.10506	0.44431	-0.358
Mof_O 	O 	0.3311	0.09415	0.35875	-0.403
Mof_O 	O 	0.7965	0.07572	0.3871	-0.385
Mof_O 	O 	0.7234	0.05975	0.48726	-0.346
Mof_O 	O 	0.8286	0.30721	0.79974	-0.43
Mof_O 	O 	0.8862	0.4142	0.74289	-0.821
Mof_O 	O 	0.5659	0.05586	0.70096	-0.82
Mof_O 	O 	0.5113	0.05067	0.60101	-0.421
Mof_O 	O 	0.0361	0.39494	0.94431	-0.356
Mof_O 	O 	0.1689	0.40585	0.85875	-0.399
Mof_O 	O 	0.7035	0.42428	0.8871	-0.381
Mof_O 	O 	0.7766	0.44025	0.98726	-0.334
Mof_O 	O 	0.6714	0.19279	0.29974	-0.434
Mof_O 	O 	0.6138	0.0858	0.24289	-0.848
Mof_O 	O 	0.9341	0.44414	0.20096	-0.828
Mof_O 	O 	0.9887	0.44933	0.10101	-0.411
_end
