data_functionalizedCrystal
_audit_creation_method	'EQeq! by Chris Wilmer'
_symmetry_space_group_name_H-M	'P1'
_symmetry_Int_Tables_number	1
_symmetry_cell_setting	triclinic
loop_
_symmetry_equiv_pos_as_xyz
  x,y,z
_cell_length_a	32.8029
_cell_length_b	35.0128
_cell_length_c	11.4791
_cell_angle_alpha	90
_cell_angle_beta	110.198
_cell_angle_gamma	90
loop_
_atom_site_label
_atom_site_type_symbol
_atom_site_fract_x
_atom_site_fract_y
_atom_site_fract_z
_atom_site_charge
Mof_Zn	Zn	0.96331	0.73757	0.70667	1.199
Mof_O 	O 	0.77501	0.54222	0.8663	-1.035
Mof_O 	O 	0.738	0.54155	0.6657	-0.951
Mof_O 	O 	0.76408	0.93174	0.8132	-0.873
Mof_O 	O 	0.76743	0.95823	0.6424	-0.916
Mof_O 	O 	0.18803	0.54084	0.8477	-0.987
Mof_O 	O 	0.17544	0.5421	0.6465	-0.532
Mof_O 	O 	0.14574	0.95784	0.6677	-0.475
Mof_O 	O 	0.1912	0.9316	0.8365	-0.802
Mof_O 	O 	0.9854	0.74424	0.8975	-0.529
Mof_N 	N 	0.96085	0.67895	0.6923	-0.278
Mof_N 	N 	0.96009	0.79577	0.673	-0.269
Mof_N 	N 	0.02179	0.73654	0.6761	-0.277
Mof_N 	N 	0.89704	0.73776	0.6718	-0.275
Mof_C 	C 	0.76882	0.55407	0.7563	0.649
Mof_C 	C 	0.77626	0.93064	0.7181	0.732
Mof_C 	C 	0.79836	0.58374	0.7358	-0.501
Mof_C 	C 	0.80125	0.8975	0.6995	-0.436
Mof_C 	C 	0.87147	0.70654	0.6674	0.111
Mof_C 	C 	0.16662	0.5534	0.7391	0.515
Mof_C 	C 	0.12785	0.8962	0.724	-0.303
Mof_C 	C 	0.99514	0.65531	0.7002	0.104
Mof_C 	C 	0.15709	0.93018	0.7439	0.547
Mof_C 	C 	0.13174	0.58193	0.723	-0.383
Mof_C 	C 	0.92767	0.65607	0.7015	0.107
Mof_C 	C 	0.85493	0.63929	0.7025	0.251
Mof_C 	C 	0.04602	0.7676	0.6699	0.105
Mof_C 	C 	0.9957	0.81854	0.6884	0.113
Mof_C 	C 	0.06748	0.63709	0.6979	0.209
Mof_C 	C 	0.81278	0.86794	0.7864	0.29
Mof_H 	H 	0.8026	0.8681	0.8544	-0.156
Mof_C 	C 	0.92772	0.81915	0.6794	0.118
Mof_C 	C 	0.06937	0.83565	0.6956	0.191
Mof_C 	C 	0.8544	0.83755	0.6741	0.227
Mof_C 	C 	0.88611	0.66853	0.6883	-0.198
Mof_C 	C 	0.94266	0.61692	0.7186	-0.095
Mof_H 	H 	0.9265	0.5955	0.729	0.036
Mof_C 	C 	0.0453	0.70485	0.6686	0.102
Mof_C 	C 	0.03418	0.66718	0.6872	-0.185
Mof_C 	C 	0.94352	0.85784	0.7024	-0.086
Mof_H 	H 	0.9274	0.8796	0.7107	0.061
Mof_C 	C 	0.87105	0.7692	0.6586	0.108
Mof_C 	C 	0.08441	0.71695	0.6484	-0.103
Mof_H 	H 	0.1058	0.7007	0.6364	0.043
Mof_C 	C 	0.9853	0.85735	0.7098	-0.075
Mof_H 	H 	0.0044	0.8786	0.726	0.059
Mof_C 	C 	0.88547	0.80752	0.6686	-0.183
Mof_C 	C 	0.08507	0.75485	0.6498	-0.101
Mof_H 	H 	0.1071	0.7707	0.6396	0.047
Mof_C 	C 	0.79624	0.59446	0.6189	0.303
Mof_H 	H 	0.7752	0.5831	0.5485	-0.146
Mof_C 	C 	0.83906	0.83833	0.774	-0.323
Mof_H 	H 	0.8468	0.8184	0.8338	0.124
Mof_C 	C 	0.98333	0.61626	0.7172	-0.08
Mof_H 	H 	0.0011	0.5943	0.7257	0.032
Mof_C 	C 	0.09147	0.89326	0.6195	0.185
Mof_H 	H 	0.0862	0.912	0.556	-0.027
Mof_C 	C 	0.03571	0.80579	0.684	-0.173
Mof_C 	C 	0.827	0.75704	0.6389	-0.09
Mof_H 	H 	0.8024	0.7731	0.6246	0.046
Mof_C 	C 	0.06252	0.86373	0.6051	-0.251
Mof_H 	H 	0.0375	0.8625	0.5322	0.114
Mof_C 	C 	0.81506	0.89648	0.5978	0.283
Mof_H 	H 	0.8067	0.9161	0.537	-0.132
Mof_C 	C 	0.82875	0.60181	0.8366	0.292
Mof_H 	H 	0.8307	0.5951	0.9186	-0.196
Mof_C 	C 	0.82753	0.71874	0.6448	-0.094
Mof_H 	H 	0.8033	0.7026	0.6358	0.046
Mof_C 	C 	0.10766	0.83732	0.7974	-0.271
Mof_H 	H 	0.1141	0.8177	0.8582	0.108
Mof_C 	C 	0.85579	0.62913	0.8186	-0.374
Mof_H 	H 	0.8758	0.6415	0.8889	0.129
Mof_C 	C 	0.82425	0.62153	0.6025	-0.356
Mof_H 	H 	0.8225	0.6282	0.5207	0.129
Mof_C 	C 	0.13641	0.86724	0.8111	0.214
Mof_H 	H 	0.1624	0.8679	0.8813	-0.118
Mof_C 	C 	0.84126	0.86652	0.5857	-0.32
Mof_H 	H 	0.8504	0.8658	0.5156	0.123
Mof_C 	C 	0.11124	0.59903	0.6116	0.217
Mof_H 	H 	0.1187	0.5921	0.5415	-0.057
Mof_C 	C 	0.07953	0.6265	0.5994	-0.298
Mof_H 	H 	0.0658	0.6382	0.521	0.128
Mof_C 	C 	0.0873	0.61835	0.8103	-0.309
Mof_H 	H 	0.0788	0.6243	0.8793	0.105
Mof_C 	C 	0.11923	0.59125	0.823	0.219
Mof_H 	H 	0.1326	0.579	0.9007	-0.171
Mof_Na	Na	0.74923	0.92266	0.98946	2.616
Mof_Zn	Zn	0.46331	0.23757	0.70667	1.198
Mof_O 	O 	0.27501	0.04222	0.8663	-1.008
Mof_O 	O 	0.238	0.04155	0.6657	-0.916
Mof_O 	O 	0.26408	0.43174	0.8132	-0.894
Mof_O 	O 	0.26743	0.45823	0.6424	-0.992
Mof_O 	O 	0.68803	0.04084	0.8477	-0.963
Mof_O 	O 	0.67544	0.0421	0.6465	-0.527
Mof_O 	O 	0.64574	0.45784	0.6677	-0.518
Mof_O 	O 	0.6912	0.4316	0.8365	-0.819
Mof_O 	O 	0.4854	0.24424	0.8975	-0.536
Mof_N 	N 	0.46085	0.17895	0.6923	-0.278
Mof_N 	N 	0.46009	0.29577	0.673	-0.269
Mof_N 	N 	0.52179	0.23654	0.6761	-0.275
Mof_N 	N 	0.39704	0.23776	0.6718	-0.275
Mof_C 	C 	0.26882	0.05407	0.7563	0.628
Mof_C 	C 	0.27626	0.43064	0.7181	0.748
Mof_C 	C 	0.29836	0.08374	0.7358	-0.486
Mof_C 	C 	0.30125	0.3975	0.6995	-0.453
Mof_C 	C 	0.37147	0.20654	0.6674	0.11
Mof_C 	C 	0.66662	0.0534	0.7391	0.503
Mof_C 	C 	0.62785	0.3962	0.724	-0.31
Mof_C 	C 	0.49514	0.15531	0.7002	0.1
Mof_C 	C 	0.65709	0.43018	0.7439	0.548
Mof_C 	C 	0.63174	0.08193	0.723	-0.376
Mof_C 	C 	0.42767	0.15607	0.7015	0.104
Mof_C 	C 	0.35493	0.13929	0.7025	0.244
Mof_C 	C 	0.54602	0.2676	0.6699	0.105
Mof_C 	C 	0.4957	0.31854	0.6884	0.111
Mof_C 	C 	0.56748	0.13709	0.6979	0.204
Mof_C 	C 	0.31278	0.36794	0.7864	0.296
Mof_H 	H 	0.3026	0.3681	0.8544	-0.157
Mof_C 	C 	0.42772	0.31915	0.6794	0.117
Mof_C 	C 	0.56937	0.33565	0.6956	0.192
Mof_C 	C 	0.3544	0.33755	0.6741	0.232
Mof_C 	C 	0.38611	0.16853	0.6883	-0.195
Mof_C 	C 	0.44266	0.11692	0.7186	-0.09
Mof_H 	H 	0.4265	0.0955	0.729	0.031
Mof_C 	C 	0.5453	0.20485	0.6686	0.101
Mof_C 	C 	0.53418	0.16718	0.6872	-0.178
Mof_C 	C 	0.44352	0.35784	0.7024	-0.082
Mof_H 	H 	0.4274	0.3796	0.7107	0.053
Mof_C 	C 	0.37105	0.2692	0.6586	0.109
Mof_C 	C 	0.58441	0.21695	0.6484	-0.101
Mof_H 	H 	0.6058	0.2007	0.6364	0.043
Mof_C 	C 	0.4853	0.35735	0.7098	-0.087
Mof_H 	H 	0.5044	0.3786	0.726	0.06
Mof_C 	C 	0.38547	0.30752	0.6686	-0.184
Mof_C 	C 	0.58507	0.25485	0.6498	-0.101
Mof_H 	H 	0.6071	0.2707	0.6396	0.048
Mof_C 	C 	0.29624	0.09446	0.6189	0.289
Mof_H 	H 	0.2752	0.0831	0.5485	-0.137
Mof_C 	C 	0.33906	0.33833	0.774	-0.33
Mof_H 	H 	0.3468	0.3184	0.8338	0.126
Mof_C 	C 	0.48333	0.11626	0.7172	-0.09
Mof_H 	H 	0.5011	0.0943	0.7257	0.035
Mof_C 	C 	0.59147	0.39326	0.6195	0.187
Mof_H 	H 	0.5862	0.412	0.556	-0.035
Mof_C 	C 	0.53571	0.30579	0.684	-0.169
Mof_C 	C 	0.327	0.25704	0.6389	-0.091
Mof_H 	H 	0.3024	0.2731	0.6246	0.047
Mof_C 	C 	0.56252	0.36373	0.6051	-0.255
Mof_H 	H 	0.5375	0.3625	0.5322	0.114
Mof_C 	C 	0.31506	0.39648	0.5978	0.294
Mof_H 	H 	0.3067	0.4161	0.537	-0.147
Mof_C 	C 	0.32875	0.10181	0.8366	0.28
Mof_H 	H 	0.3307	0.0951	0.9186	-0.19
Mof_C 	C 	0.32753	0.21874	0.6448	-0.093
Mof_H 	H 	0.3033	0.2026	0.6358	0.046
Mof_C 	C 	0.60766	0.33732	0.7974	-0.273
Mof_H 	H 	0.6141	0.3177	0.8582	0.109
Mof_C 	C 	0.35579	0.12913	0.8186	-0.365
Mof_H 	H 	0.3758	0.1415	0.8889	0.126
Mof_C 	C 	0.32425	0.12153	0.6025	-0.347
Mof_H 	H 	0.3225	0.1282	0.5207	0.126
Mof_C 	C 	0.63641	0.36724	0.8111	0.215
Mof_H 	H 	0.6624	0.3679	0.8813	-0.117
Mof_C 	C 	0.34126	0.36652	0.5857	-0.33
Mof_H 	H 	0.3504	0.3658	0.5156	0.125
Mof_C 	C 	0.61124	0.09903	0.6116	0.21
Mof_H 	H 	0.6187	0.0921	0.5415	-0.056
Mof_C 	C 	0.57953	0.1265	0.5994	-0.293
Mof_H 	H 	0.5658	0.1382	0.521	0.126
Mof_C 	C 	0.5873	0.11835	0.8103	-0.303
Mof_H 	H 	0.5788	0.1243	0.8793	0.104
Mof_C 	C 	0.61923	0.09125	0.823	0.21
Mof_H 	H 	0.6326	0.079	0.9007	-0.164
Mof_Na	Na	0.24923	0.42266	0.98946	2.545
Mof_Zn	Zn	0.03669	0.73757	0.29333	1.197
Mof_O 	O 	0.22499	0.54222	0.1337	-1.074
Mof_O 	O 	0.262	0.54155	0.3343	-0.955
Mof_O 	O 	0.23592	0.93174	0.1868	-0.86
Mof_O 	O 	0.23257	0.95823	0.3576	-0.913
Mof_O 	O 	0.81197	0.54084	0.1523	-0.969
Mof_O 	O 	0.82456	0.5421	0.3535	-0.53
Mof_O 	O 	0.85426	0.95784	0.3323	-0.474
Mof_O 	O 	0.8088	0.9316	0.1635	-0.828
Mof_O 	O 	0.0146	0.74424	0.1025	-0.55
Mof_N 	N 	0.03915	0.67895	0.3077	-0.279
Mof_N 	N 	0.03991	0.79577	0.327	-0.269
Mof_N 	N 	0.97821	0.73654	0.3239	-0.274
Mof_N 	N 	0.10296	0.73776	0.3282	-0.275
Mof_C 	C 	0.23118	0.55407	0.2437	0.659
Mof_C 	C 	0.22374	0.93064	0.2819	0.723
Mof_C 	C 	0.20164	0.58374	0.2642	-0.517
Mof_C 	C 	0.19875	0.8975	0.3005	-0.431
Mof_C 	C 	0.12853	0.70654	0.3326	0.109
Mof_C 	C 	0.83338	0.5534	0.2609	0.509
Mof_C 	C 	0.87215	0.8962	0.276	-0.313
Mof_C 	C 	0.00486	0.65531	0.2998	0.096
Mof_C 	C 	0.84291	0.93018	0.2561	0.556
Mof_C 	C 	0.86826	0.58193	0.277	-0.375
Mof_C 	C 	0.07233	0.65607	0.2985	0.102
Mof_C 	C 	0.14507	0.63929	0.2975	0.254
Mof_C 	C 	0.95398	0.7676	0.3301	0.103
Mof_C 	C 	0.0043	0.81854	0.3116	0.107
Mof_C 	C 	0.93252	0.63709	0.3021	0.203
Mof_C 	C 	0.18722	0.86794	0.2136	0.282
Mof_H 	H 	0.1974	0.8681	0.1456	-0.156
Mof_C 	C 	0.07228	0.81915	0.3206	0.113
Mof_C 	C 	0.93063	0.83565	0.3044	0.192
Mof_C 	C 	0.1456	0.83755	0.3259	0.223
Mof_C 	C 	0.11389	0.66853	0.3117	-0.2
Mof_C 	C 	0.05734	0.61692	0.2814	-0.087
Mof_H 	H 	0.0735	0.5955	0.271	0.028
Mof_C 	C 	0.9547	0.70485	0.3314	0.099
Mof_C 	C 	0.96582	0.66718	0.3128	-0.175
Mof_C 	C 	0.05648	0.85784	0.2976	-0.078
Mof_H 	H 	0.0726	0.8796	0.2893	0.054
Mof_C 	C 	0.12895	0.7692	0.3414	0.106
Mof_C 	C 	0.91559	0.71695	0.3516	-0.102
Mof_H 	H 	0.8942	0.7007	0.3636	0.041
Mof_C 	C 	0.0147	0.85735	0.2902	-0.096
Mof_H 	H 	0.9956	0.8786	0.274	0.069
Mof_C 	C 	0.11453	0.80752	0.3314	-0.182
Mof_C 	C 	0.91493	0.75485	0.3502	-0.102
Mof_H 	H 	0.8929	0.7707	0.3604	0.046
Mof_C 	C 	0.20376	0.59446	0.3811	0.31
Mof_H 	H 	0.2248	0.5831	0.4515	-0.15
Mof_C 	C 	0.16094	0.83833	0.226	-0.32
Mof_H 	H 	0.1532	0.8184	0.1662	0.117
Mof_C 	C 	0.01667	0.61626	0.2828	-0.101
Mof_H 	H 	0.9989	0.5943	0.2743	0.043
Mof_C 	C 	0.90853	0.89326	0.3805	0.189
Mof_H 	H 	0.9138	0.912	0.444	-0.027
Mof_C 	C 	0.96429	0.80579	0.316	-0.166
Mof_C 	C 	0.173	0.75704	0.3611	-0.091
Mof_H 	H 	0.1976	0.7731	0.3754	0.045
Mof_C 	C 	0.93748	0.86373	0.3949	-0.254
Mof_H 	H 	0.9625	0.8625	0.4678	0.117
Mof_C 	C 	0.18494	0.89648	0.4022	0.278
Mof_H 	H 	0.1933	0.9161	0.463	-0.13
Mof_C 	C 	0.17125	0.60181	0.1634	0.299
Mof_H 	H 	0.1693	0.5951	0.0814	-0.215
Mof_C 	C 	0.17247	0.71874	0.3552	-0.095
Mof_H 	H 	0.1967	0.7026	0.3642	0.044
Mof_C 	C 	0.89234	0.83732	0.2026	-0.277
Mof_H 	H 	0.8859	0.8177	0.1418	0.103
Mof_C 	C 	0.14421	0.62913	0.1814	-0.384
Mof_H 	H 	0.1242	0.6415	0.1111	0.122
Mof_C 	C 	0.17575	0.62153	0.3975	-0.363
Mof_H 	H 	0.1775	0.6282	0.4793	0.131
Mof_C 	C 	0.86359	0.86724	0.1889	0.219
Mof_H 	H 	0.8376	0.8679	0.1187	-0.132
Mof_C 	C 	0.15874	0.86652	0.4143	-0.316
Mof_H 	H 	0.1496	0.8658	0.4844	0.123
Mof_C 	C 	0.88876	0.59903	0.3884	0.21
Mof_H 	H 	0.8813	0.5921	0.4585	-0.054
Mof_C 	C 	0.92047	0.6265	0.4006	-0.291
Mof_H 	H 	0.9342	0.6382	0.479	0.126
Mof_C 	C 	0.9127	0.61835	0.1897	-0.304
Mof_H 	H 	0.9212	0.6243	0.1207	0.097
Mof_C 	C 	0.88077	0.59125	0.177	0.212
Mof_H 	H 	0.8674	0.579	0.0993	-0.171
Mof_Na	Na	0.25077	0.92266	0.01054	2.505
Mof_Zn	Zn	0.53669	0.23757	0.29333	1.197
Mof_O 	O 	0.72499	0.04222	0.1337	-1.046
Mof_O 	O 	0.762	0.04155	0.3343	-0.92
Mof_O 	O 	0.73592	0.43174	0.1868	-0.88
Mof_O 	O 	0.73257	0.45823	0.3576	-0.989
Mof_O 	O 	0.31197	0.04084	0.1523	-0.945
Mof_O 	O 	0.32456	0.0421	0.3535	-0.525
Mof_O 	O 	0.35426	0.45784	0.3323	-0.518
Mof_O 	O 	0.3088	0.4316	0.1635	-0.845
Mof_O 	O 	0.5146	0.24424	0.1025	-0.551
Mof_N 	N 	0.53915	0.17895	0.3077	-0.278
Mof_N 	N 	0.53991	0.29577	0.327	-0.269
Mof_N 	N 	0.47821	0.23654	0.3239	-0.276
Mof_N 	N 	0.60296	0.23776	0.3282	-0.275
Mof_C 	C 	0.73118	0.05407	0.2437	0.639
Mof_C 	C 	0.72374	0.43064	0.2819	0.739
Mof_C 	C 	0.70164	0.08374	0.2642	-0.502
Mof_C 	C 	0.69875	0.3975	0.3005	-0.448
Mof_C 	C 	0.62853	0.20654	0.3326	0.109
Mof_C 	C 	0.33338	0.0534	0.2609	0.497
Mof_C 	C 	0.37215	0.3962	0.276	-0.321
Mof_C 	C 	0.50486	0.15531	0.2998	0.098
Mof_C 	C 	0.34291	0.43018	0.2561	0.559
Mof_C 	C 	0.36826	0.08193	0.277	-0.369
Mof_C 	C 	0.57233	0.15607	0.2985	0.103
Mof_C 	C 	0.64507	0.13929	0.2975	0.248
Mof_C 	C 	0.45398	0.2676	0.3301	0.104
Mof_C 	C 	0.5043	0.31854	0.3116	0.109
Mof_C 	C 	0.43252	0.13709	0.3021	0.2
Mof_C 	C 	0.68722	0.36794	0.2136	0.289
Mof_H 	H 	0.6974	0.3681	0.1456	-0.158
Mof_C 	C 	0.57228	0.31915	0.3206	0.115
Mof_C 	C 	0.43063	0.33565	0.3044	0.194
Mof_C 	C 	0.6456	0.33755	0.3259	0.228
Mof_C 	C 	0.61389	0.16853	0.3117	-0.198
Mof_C 	C 	0.55734	0.11692	0.2814	-0.092
Mof_H 	H 	0.5735	0.0955	0.271	0.028
Mof_C 	C 	0.4547	0.20485	0.3314	0.099
Mof_C 	C 	0.46582	0.16718	0.3128	-0.178
Mof_C 	C 	0.55648	0.35784	0.2976	-0.083
Mof_H 	H 	0.5726	0.3796	0.2893	0.05
Mof_C 	C 	0.62895	0.2692	0.3414	0.108
Mof_C 	C 	0.41559	0.21695	0.3516	-0.102
Mof_H 	H 	0.3942	0.2007	0.3636	0.042
Mof_C 	C 	0.5147	0.35735	0.2902	-0.089
Mof_H 	H 	0.4956	0.3786	0.274	0.057
Mof_C 	C 	0.61453	0.30752	0.3314	-0.184
Mof_C 	C 	0.41493	0.25485	0.3502	-0.103
Mof_H 	H 	0.3929	0.2707	0.3604	0.047
Mof_C 	C 	0.70376	0.09446	0.3811	0.298
Mof_H 	H 	0.7248	0.0831	0.4515	-0.142
Mof_C 	C 	0.66094	0.33833	0.226	-0.328
Mof_H 	H 	0.6532	0.3184	0.1662	0.119
Mof_C 	C 	0.51667	0.11626	0.2828	-0.092
Mof_H 	H 	0.4989	0.0943	0.2743	0.033
Mof_C 	C 	0.40853	0.39326	0.3805	0.193
Mof_H 	H 	0.4138	0.412	0.444	-0.037
Mof_C 	C 	0.46429	0.30579	0.316	-0.171
Mof_C 	C 	0.673	0.25704	0.3611	-0.092
Mof_H 	H 	0.6976	0.2731	0.3754	0.046
Mof_C 	C 	0.43748	0.36373	0.3949	-0.26
Mof_H 	H 	0.4625	0.3625	0.4678	0.116
Mof_C 	C 	0.68494	0.39648	0.4022	0.29
Mof_H 	H 	0.6933	0.4161	0.463	-0.145
Mof_C 	C 	0.67125	0.10181	0.1634	0.288
Mof_H 	H 	0.6693	0.0951	0.0814	-0.209
Mof_C 	C 	0.67247	0.21874	0.3552	-0.094
Mof_H 	H 	0.6967	0.2026	0.3642	0.044
Mof_C 	C 	0.39234	0.33732	0.2026	-0.281
Mof_H 	H 	0.3859	0.3177	0.1418	0.104
Mof_C 	C 	0.64421	0.12913	0.1814	-0.375
Mof_H 	H 	0.6242	0.1415	0.1111	0.12
Mof_C 	C 	0.67575	0.12153	0.3975	-0.354
Mof_H 	H 	0.6775	0.1282	0.4793	0.129
Mof_C 	C 	0.36359	0.36724	0.1889	0.221
Mof_H 	H 	0.3376	0.3679	0.1187	-0.131
Mof_C 	C 	0.65874	0.36652	0.4143	-0.327
Mof_H 	H 	0.6496	0.3658	0.4844	0.125
Mof_C 	C 	0.38876	0.09903	0.3884	0.205
Mof_H 	H 	0.3813	0.0921	0.4585	-0.054
Mof_C 	C 	0.42047	0.1265	0.4006	-0.289
Mof_H 	H 	0.4342	0.1382	0.479	0.125
Mof_C 	C 	0.4127	0.11835	0.1897	-0.3
Mof_H 	H 	0.4212	0.1243	0.1207	0.095
Mof_C 	C 	0.38077	0.09125	0.177	0.203
Mof_H 	H 	0.3674	0.079	0.0993	-0.165
Mof_Na	Na	0.75077	0.42266	0.01054	2.434
Mof_Zn	Zn	0.03669	0.26243	0.29333	1.197
Mof_O 	O 	0.22499	0.45778	0.1337	-1.074
Mof_O 	O 	0.262	0.45845	0.3343	-0.954
Mof_O 	O 	0.23592	0.06826	0.1868	-0.87
Mof_O 	O 	0.23257	0.04177	0.3576	-0.953
Mof_O 	O 	0.81197	0.45916	0.1523	-0.969
Mof_O 	O 	0.82456	0.4579	0.3535	-0.53
Mof_O 	O 	0.85426	0.04216	0.3323	-0.516
Mof_O 	O 	0.8088	0.0684	0.1635	-0.839
Mof_O 	O 	0.0146	0.25576	0.1025	-0.55
Mof_N 	N 	0.03915	0.32105	0.3077	-0.278
Mof_N 	N 	0.03991	0.20423	0.327	-0.269
Mof_N 	N 	0.97821	0.26346	0.3239	-0.274
Mof_N 	N 	0.10296	0.26224	0.3282	-0.275
Mof_C 	C 	0.23118	0.44593	0.2437	0.659
Mof_C 	C 	0.22374	0.06936	0.2819	0.726
Mof_C 	C 	0.20164	0.41626	0.2642	-0.517
Mof_C 	C 	0.19875	0.1025	0.3005	-0.44
Mof_C 	C 	0.12853	0.29346	0.3326	0.11
Mof_C 	C 	0.83338	0.4466	0.2609	0.509
Mof_C 	C 	0.87215	0.1038	0.276	-0.325
Mof_C 	C 	0.00486	0.34469	0.2998	0.096
Mof_C 	C 	0.84291	0.06982	0.2561	0.561
Mof_C 	C 	0.86826	0.41807	0.277	-0.374
Mof_C 	C 	0.07233	0.34393	0.2985	0.102
Mof_C 	C 	0.14507	0.36071	0.2975	0.254
Mof_C 	C 	0.95398	0.2324	0.3301	0.104
Mof_C 	C 	0.0043	0.18146	0.3116	0.106
Mof_C 	C 	0.93252	0.36291	0.3021	0.203
Mof_C 	C 	0.18722	0.13206	0.2136	0.284
Mof_H 	H 	0.1974	0.1319	0.1456	-0.156
Mof_C 	C 	0.07228	0.18085	0.3206	0.113
Mof_C 	C 	0.93063	0.16435	0.3044	0.195
Mof_C 	C 	0.1456	0.16245	0.3259	0.225
Mof_C 	C 	0.11389	0.33147	0.3117	-0.2
Mof_C 	C 	0.05734	0.38308	0.2814	-0.087
Mof_H 	H 	0.0735	0.4045	0.271	0.028
Mof_C 	C 	0.9547	0.29515	0.3314	0.099
Mof_C 	C 	0.96582	0.33282	0.3128	-0.175
Mof_C 	C 	0.05648	0.14216	0.2976	-0.079
Mof_H 	H 	0.0726	0.1204	0.2893	0.046
Mof_C 	C 	0.12895	0.2308	0.3414	0.107
Mof_C 	C 	0.91559	0.28305	0.3516	-0.102
Mof_H 	H 	0.8942	0.2993	0.3636	0.042
Mof_C 	C 	0.0147	0.14265	0.2902	-0.098
Mof_H 	H 	0.9956	0.1214	0.274	0.061
Mof_C 	C 	0.11453	0.19248	0.3314	-0.183
Mof_C 	C 	0.91493	0.24515	0.3502	-0.102
Mof_H 	H 	0.8929	0.2293	0.3604	0.046
Mof_C 	C 	0.20376	0.40554	0.3811	0.311
Mof_H 	H 	0.2248	0.4169	0.4515	-0.15
Mof_C 	C 	0.16094	0.16167	0.226	-0.324
Mof_H 	H 	0.1532	0.1816	0.1662	0.118
Mof_C 	C 	0.01667	0.38374	0.2828	-0.101
Mof_H 	H 	0.9989	0.4057	0.2743	0.043
Mof_C 	C 	0.90853	0.10674	0.3805	0.194
Mof_H 	H 	0.9138	0.088	0.444	-0.041
Mof_C 	C 	0.96429	0.19421	0.316	-0.167
Mof_C 	C 	0.173	0.24296	0.3611	-0.091
Mof_H 	H 	0.1976	0.2269	0.3754	0.046
Mof_C 	C 	0.93748	0.13627	0.3949	-0.262
Mof_H 	H 	0.9625	0.1375	0.4678	0.117
Mof_C 	C 	0.18494	0.10352	0.4022	0.28
Mof_H 	H 	0.1933	0.0839	0.463	-0.138
Mof_C 	C 	0.17125	0.39819	0.1634	0.299
Mof_H 	H 	0.1693	0.4049	0.0814	-0.215
Mof_C 	C 	0.17247	0.28126	0.3552	-0.095
Mof_H 	H 	0.1967	0.2974	0.3642	0.044
Mof_C 	C 	0.89234	0.16268	0.2026	-0.283
Mof_H 	H 	0.8859	0.1823	0.1418	0.104
Mof_C 	C 	0.14421	0.37087	0.1814	-0.384
Mof_H 	H 	0.1242	0.3585	0.1111	0.122
Mof_C 	C 	0.17575	0.37847	0.3975	-0.363
Mof_H 	H 	0.1775	0.3718	0.4793	0.131
Mof_C 	C 	0.86359	0.13276	0.1889	0.223
Mof_H 	H 	0.8376	0.1321	0.1187	-0.133
Mof_C 	C 	0.15874	0.13348	0.4143	-0.321
Mof_H 	H 	0.1496	0.1342	0.4844	0.123
Mof_C 	C 	0.88876	0.40097	0.3884	0.21
Mof_H 	H 	0.8813	0.4079	0.4585	-0.054
Mof_C 	C 	0.92047	0.3735	0.4006	-0.291
Mof_H 	H 	0.9342	0.3618	0.479	0.126
Mof_C 	C 	0.9127	0.38165	0.1897	-0.304
Mof_H 	H 	0.9212	0.3757	0.1207	0.097
Mof_C 	C 	0.88077	0.40875	0.177	0.212
Mof_H 	H 	0.8674	0.421	0.0993	-0.171
Mof_Na	Na	0.25077	0.07734	0.01054	2.461
Mof_Zn	Zn	0.53669	0.76243	0.29333	1.197
Mof_O 	O 	0.72499	0.95778	0.1337	-1.015
Mof_O 	O 	0.762	0.95845	0.3343	-0.883
Mof_O 	O 	0.73592	0.56826	0.1868	-0.88
Mof_O 	O 	0.73257	0.54177	0.3576	-0.989
Mof_O 	O 	0.31197	0.95916	0.1523	-0.912
Mof_O 	O 	0.32456	0.9579	0.3535	-0.487
Mof_O 	O 	0.35426	0.54216	0.3323	-0.518
Mof_O 	O 	0.3088	0.5684	0.1635	-0.845
Mof_O 	O 	0.5146	0.75576	0.1025	-0.551
Mof_N 	N 	0.53915	0.82105	0.3077	-0.278
Mof_N 	N 	0.53991	0.70423	0.327	-0.269
Mof_N 	N 	0.47821	0.76346	0.3239	-0.276
Mof_N 	N 	0.60296	0.76224	0.3282	-0.275
Mof_C 	C 	0.73118	0.94593	0.2437	0.636
Mof_C 	C 	0.72374	0.56936	0.2819	0.739
Mof_C 	C 	0.70164	0.91626	0.2642	-0.49
Mof_C 	C 	0.69875	0.6025	0.3005	-0.448
Mof_C 	C 	0.62853	0.79346	0.3326	0.108
Mof_C 	C 	0.33338	0.9466	0.2609	0.493
Mof_C 	C 	0.37215	0.6038	0.276	-0.321
Mof_C 	C 	0.50486	0.84469	0.2998	0.099
Mof_C 	C 	0.34291	0.56982	0.2561	0.558
Mof_C 	C 	0.36826	0.91807	0.277	-0.353
Mof_C 	C 	0.57233	0.84393	0.2985	0.103
Mof_C 	C 	0.64507	0.86071	0.2975	0.246
Mof_C 	C 	0.45398	0.7324	0.3301	0.104
Mof_C 	C 	0.5043	0.68146	0.3116	0.109
Mof_C 	C 	0.43252	0.86291	0.3021	0.197
Mof_C 	C 	0.68722	0.63206	0.2136	0.289
Mof_H 	H 	0.6974	0.6319	0.1456	-0.158
Mof_C 	C 	0.57228	0.68085	0.3206	0.115
Mof_C 	C 	0.43063	0.66435	0.3044	0.194
Mof_C 	C 	0.6456	0.66245	0.3259	0.228
Mof_C 	C 	0.61389	0.83147	0.3117	-0.197
Mof_C 	C 	0.55734	0.88308	0.2814	-0.09
Mof_H 	H 	0.5735	0.9045	0.271	0.04
Mof_C 	C 	0.4547	0.79515	0.3314	0.098
Mof_C 	C 	0.46582	0.83282	0.3128	-0.176
Mof_C 	C 	0.55648	0.64216	0.2976	-0.083
Mof_H 	H 	0.5726	0.6204	0.2893	0.05
Mof_C 	C 	0.62895	0.7308	0.3414	0.108
Mof_C 	C 	0.41559	0.78305	0.3516	-0.102
Mof_H 	H 	0.3942	0.7993	0.3636	0.041
Mof_C 	C 	0.5147	0.64265	0.2902	-0.089
Mof_H 	H 	0.4956	0.6214	0.274	0.057
Mof_C 	C 	0.61453	0.69248	0.3314	-0.185
Mof_C 	C 	0.41493	0.74515	0.3502	-0.103
Mof_H 	H 	0.3929	0.7293	0.3604	0.046
Mof_C 	C 	0.70376	0.90554	0.3811	0.296
Mof_H 	H 	0.7248	0.9169	0.4515	-0.136
Mof_C 	C 	0.66094	0.66167	0.226	-0.328
Mof_H 	H 	0.6532	0.6816	0.1662	0.119
Mof_C 	C 	0.51667	0.88374	0.2828	-0.089
Mof_H 	H 	0.4989	0.9057	0.2743	0.046
Mof_C 	C 	0.40853	0.60674	0.3805	0.193
Mof_H 	H 	0.4138	0.588	0.444	-0.037
Mof_C 	C 	0.46429	0.69421	0.316	-0.172
Mof_C 	C 	0.673	0.74296	0.3611	-0.092
Mof_H 	H 	0.6976	0.7269	0.3754	0.046
Mof_C 	C 	0.43748	0.63627	0.3949	-0.26
Mof_H 	H 	0.4625	0.6375	0.4678	0.116
Mof_C 	C 	0.68494	0.60352	0.4022	0.289
Mof_H 	H 	0.6933	0.5839	0.463	-0.145
Mof_C 	C 	0.67125	0.89819	0.1634	0.287
Mof_H 	H 	0.6693	0.9049	0.0814	-0.207
Mof_C 	C 	0.67247	0.78126	0.3552	-0.094
Mof_H 	H 	0.6967	0.7974	0.3642	0.043
Mof_C 	C 	0.39234	0.66268	0.2026	-0.281
Mof_H 	H 	0.3859	0.6823	0.1418	0.103
Mof_C 	C 	0.64421	0.87087	0.1814	-0.37
Mof_H 	H 	0.6242	0.8585	0.1111	0.119
Mof_C 	C 	0.67575	0.87847	0.3975	-0.348
Mof_H 	H 	0.6775	0.8718	0.4793	0.127
Mof_C 	C 	0.36359	0.63276	0.1889	0.221
Mof_H 	H 	0.3376	0.6321	0.1187	-0.131
Mof_C 	C 	0.65874	0.63348	0.4143	-0.327
Mof_H 	H 	0.6496	0.6342	0.4844	0.125
Mof_C 	C 	0.38876	0.90097	0.3884	0.199
Mof_H 	H 	0.3813	0.9079	0.4585	-0.045
Mof_C 	C 	0.42047	0.8735	0.4006	-0.28
Mof_H 	H 	0.4342	0.8618	0.479	0.123
Mof_C 	C 	0.4127	0.88165	0.1897	-0.291
Mof_H 	H 	0.4212	0.8757	0.1207	0.096
Mof_C 	C 	0.38077	0.90875	0.177	0.199
Mof_H 	H 	0.3674	0.921	0.0993	-0.154
Mof_Na	Na	0.75077	0.57734	0.01054	2.433
Mof_Zn	Zn	0.96331	0.26243	0.70667	1.199
Mof_O 	O 	0.77501	0.45778	0.8663	-1.036
Mof_O 	O 	0.738	0.45845	0.6657	-0.951
Mof_O 	O 	0.76408	0.06826	0.8132	-0.884
Mof_O 	O 	0.76743	0.04177	0.6424	-0.957
Mof_O 	O 	0.18803	0.45916	0.8477	-0.987
Mof_O 	O 	0.17544	0.4579	0.6465	-0.532
Mof_O 	O 	0.14574	0.04216	0.6677	-0.517
Mof_O 	O 	0.1912	0.0684	0.8365	-0.814
Mof_O 	O 	0.9854	0.25576	0.8975	-0.53
Mof_N 	N 	0.96085	0.32105	0.6923	-0.278
Mof_N 	N 	0.96009	0.20423	0.673	-0.269
Mof_N 	N 	0.02179	0.26346	0.6761	-0.277
Mof_N 	N 	0.89704	0.26224	0.6718	-0.275
Mof_C 	C 	0.76882	0.44593	0.7563	0.649
Mof_C 	C 	0.77626	0.06936	0.7181	0.735
Mof_C 	C 	0.79836	0.41626	0.7358	-0.501
Mof_C 	C 	0.80125	0.1025	0.6995	-0.445
Mof_C 	C 	0.87147	0.29346	0.6674	0.111
Mof_C 	C 	0.16662	0.4466	0.7391	0.515
Mof_C 	C 	0.12785	0.1038	0.724	-0.315
Mof_C 	C 	0.99514	0.34469	0.7002	0.104
Mof_C 	C 	0.15709	0.06982	0.7439	0.551
Mof_C 	C 	0.13174	0.41807	0.723	-0.383
Mof_C 	C 	0.92767	0.34393	0.7015	0.107
Mof_C 	C 	0.85493	0.36071	0.7025	0.251
Mof_C 	C 	0.04602	0.2324	0.6699	0.106
Mof_C 	C 	0.9957	0.18146	0.6884	0.113
Mof_C 	C 	0.06748	0.36291	0.6979	0.209
Mof_C 	C 	0.81278	0.13206	0.7864	0.291
Mof_H 	H 	0.8026	0.1319	0.8544	-0.156
Mof_C 	C 	0.92772	0.18085	0.6794	0.118
Mof_C 	C 	0.06937	0.16435	0.6956	0.195
Mof_C 	C 	0.8544	0.16245	0.6741	0.229
Mof_C 	C 	0.88611	0.33147	0.6883	-0.198
Mof_C 	C 	0.94266	0.38308	0.7186	-0.095
Mof_H 	H 	0.9265	0.4045	0.729	0.036
Mof_C 	C 	0.0453	0.29515	0.6686	0.102
Mof_C 	C 	0.03418	0.33282	0.6872	-0.184
Mof_C 	C 	0.94352	0.14216	0.7024	-0.087
Mof_H 	H 	0.9274	0.1204	0.7107	0.053
Mof_C 	C 	0.87105	0.2308	0.6586	0.109
Mof_C 	C 	0.08441	0.28305	0.6484	-0.102
Mof_H 	H 	0.1058	0.2993	0.6364	0.043
Mof_C 	C 	0.9853	0.14265	0.7098	-0.077
Mof_H 	H 	0.0044	0.1214	0.726	0.05
Mof_C 	C 	0.88547	0.19248	0.6686	-0.184
Mof_C 	C 	0.08507	0.24515	0.6498	-0.102
Mof_H 	H 	0.1071	0.2293	0.6396	0.048
Mof_C 	C 	0.79624	0.40554	0.6189	0.303
Mof_H 	H 	0.7752	0.4169	0.5485	-0.146
Mof_C 	C 	0.83906	0.16167	0.774	-0.326
Mof_H 	H 	0.8468	0.1816	0.8338	0.125
Mof_C 	C 	0.98333	0.38374	0.7172	-0.08
Mof_H 	H 	0.0011	0.4057	0.7257	0.032
Mof_C 	C 	0.09147	0.10674	0.6195	0.19
Mof_H 	H 	0.0862	0.088	0.556	-0.04
Mof_C 	C 	0.03571	0.19421	0.684	-0.174
Mof_C 	C 	0.827	0.24296	0.6389	-0.091
Mof_H 	H 	0.8024	0.2269	0.6246	0.047
Mof_C 	C 	0.06252	0.13627	0.6051	-0.26
Mof_H 	H 	0.0375	0.1375	0.5322	0.114
Mof_C 	C 	0.81506	0.10352	0.5978	0.285
Mof_H 	H 	0.8067	0.0839	0.537	-0.14
Mof_C 	C 	0.82875	0.39819	0.8366	0.292
Mof_H 	H 	0.8307	0.4049	0.9186	-0.196
Mof_C 	C 	0.82753	0.28126	0.6448	-0.093
Mof_H 	H 	0.8033	0.2974	0.6358	0.046
Mof_C 	C 	0.10766	0.16268	0.7974	-0.277
Mof_H 	H 	0.1141	0.1823	0.8582	0.109
Mof_C 	C 	0.85579	0.37087	0.8186	-0.374
Mof_H 	H 	0.8758	0.3585	0.8889	0.129
Mof_C 	C 	0.82425	0.37847	0.6025	-0.356
Mof_H 	H 	0.8225	0.3718	0.5207	0.129
Mof_C 	C 	0.13641	0.13276	0.8111	0.218
Mof_H 	H 	0.1624	0.1321	0.8813	-0.119
Mof_C 	C 	0.84126	0.13348	0.5857	-0.324
Mof_H 	H 	0.8504	0.1342	0.5156	0.124
Mof_C 	C 	0.11124	0.40097	0.6116	0.217
Mof_H 	H 	0.1187	0.4079	0.5415	-0.057
Mof_C 	C 	0.07953	0.3735	0.5994	-0.298
Mof_H 	H 	0.0658	0.3618	0.521	0.128
Mof_C 	C 	0.0873	0.38165	0.8103	-0.309
Mof_H 	H 	0.0788	0.3757	0.8793	0.105
Mof_C 	C 	0.11923	0.40875	0.823	0.219
Mof_H 	H 	0.1326	0.421	0.9007	-0.171
Mof_Na	Na	0.74923	0.07734	0.98946	2.572
Mof_Zn	Zn	0.46331	0.76243	0.70667	1.198
Mof_O 	O 	0.27501	0.95778	0.8663	-0.976
Mof_O 	O 	0.238	0.95845	0.6657	-0.879
Mof_O 	O 	0.26408	0.56826	0.8132	-0.894
Mof_O 	O 	0.26743	0.54177	0.6424	-0.992
Mof_O 	O 	0.68803	0.95916	0.8477	-0.93
Mof_O 	O 	0.67544	0.9579	0.6465	-0.489
Mof_O 	O 	0.64574	0.54216	0.6677	-0.518
Mof_O 	O 	0.6912	0.5684	0.8365	-0.819
Mof_O 	O 	0.4854	0.75576	0.8975	-0.536
Mof_N 	N 	0.46085	0.82105	0.6923	-0.278
Mof_N 	N 	0.46009	0.70423	0.673	-0.269
Mof_N 	N 	0.52179	0.76346	0.6761	-0.275
Mof_N 	N 	0.39704	0.76224	0.6718	-0.275
Mof_C 	C 	0.26882	0.94593	0.7563	0.626
Mof_C 	C 	0.27626	0.56936	0.7181	0.748
Mof_C 	C 	0.29836	0.91626	0.7358	-0.473
Mof_C 	C 	0.30125	0.6025	0.6995	-0.453
Mof_C 	C 	0.37147	0.79346	0.6674	0.109
Mof_C 	C 	0.66662	0.9466	0.7391	0.499
Mof_C 	C 	0.62785	0.6038	0.724	-0.31
Mof_C 	C 	0.49514	0.84469	0.7002	0.101
Mof_C 	C 	0.65709	0.56982	0.7439	0.548
Mof_C 	C 	0.63174	0.91807	0.723	-0.36
Mof_C 	C 	0.42767	0.84393	0.7015	0.105
Mof_C 	C 	0.35493	0.86071	0.7025	0.242
Mof_C 	C 	0.54602	0.7324	0.6699	0.105
Mof_C 	C 	0.4957	0.68146	0.6884	0.11
Mof_C 	C 	0.56748	0.86291	0.6979	0.201
Mof_C 	C 	0.31278	0.63206	0.7864	0.296
Mof_H 	H 	0.3026	0.6319	0.8544	-0.157
Mof_C 	C 	0.42772	0.68085	0.6794	0.117
Mof_C 	C 	0.56937	0.66435	0.6956	0.192
Mof_C 	C 	0.3544	0.66245	0.6741	0.232
Mof_C 	C 	0.38611	0.83147	0.6883	-0.194
Mof_C 	C 	0.44266	0.88308	0.7186	-0.088
Mof_H 	H 	0.4265	0.9045	0.729	0.043
Mof_C 	C 	0.5453	0.79515	0.6686	0.1
Mof_C 	C 	0.53418	0.83282	0.6872	-0.176
Mof_C 	C 	0.44352	0.64216	0.7024	-0.082
Mof_H 	H 	0.4274	0.6204	0.7107	0.053
Mof_C 	C 	0.37105	0.7308	0.6586	0.109
Mof_C 	C 	0.58441	0.78305	0.6484	-0.101
Mof_H 	H 	0.6058	0.7993	0.6364	0.042
Mof_C 	C 	0.4853	0.64265	0.7098	-0.087
Mof_H 	H 	0.5044	0.6214	0.726	0.06
Mof_C 	C 	0.38547	0.69248	0.6686	-0.185
Mof_C 	C 	0.58507	0.74515	0.6498	-0.102
Mof_H 	H 	0.6071	0.7293	0.6396	0.048
Mof_C 	C 	0.29624	0.90554	0.6189	0.288
Mof_H 	H 	0.2752	0.9169	0.5485	-0.132
Mof_C 	C 	0.33906	0.66167	0.774	-0.33
Mof_H 	H 	0.3468	0.6816	0.8338	0.126
Mof_C 	C 	0.48333	0.88374	0.7172	-0.088
Mof_H 	H 	0.5011	0.9057	0.7257	0.048
Mof_C 	C 	0.59147	0.60674	0.6195	0.187
Mof_H 	H 	0.5862	0.588	0.556	-0.035
Mof_C 	C 	0.53571	0.69421	0.684	-0.169
Mof_C 	C 	0.327	0.74296	0.6389	-0.092
Mof_H 	H 	0.3024	0.7269	0.6246	0.047
Mof_C 	C 	0.56252	0.63627	0.6051	-0.255
Mof_H 	H 	0.5375	0.6375	0.5322	0.114
Mof_C 	C 	0.31506	0.60352	0.5978	0.294
Mof_H 	H 	0.3067	0.5839	0.537	-0.147
Mof_C 	C 	0.32875	0.89819	0.8366	0.279
Mof_H 	H 	0.3307	0.9049	0.9186	-0.187
Mof_C 	C 	0.32753	0.78126	0.6448	-0.093
Mof_H 	H 	0.3033	0.7974	0.6358	0.045
Mof_C 	C 	0.60766	0.66268	0.7974	-0.273
Mof_H 	H 	0.6141	0.6823	0.8582	0.108
Mof_C 	C 	0.35579	0.87087	0.8186	-0.359
Mof_H 	H 	0.3758	0.8585	0.8889	0.125
Mof_C 	C 	0.32425	0.87847	0.6025	-0.341
Mof_H 	H 	0.3225	0.8718	0.5207	0.124
Mof_C 	C 	0.63641	0.63276	0.8111	0.214
Mof_H 	H 	0.6624	0.6321	0.8813	-0.117
Mof_C 	C 	0.34126	0.63348	0.5857	-0.33
Mof_H 	H 	0.3504	0.6342	0.5156	0.125
Mof_C 	C 	0.61124	0.90097	0.6116	0.204
Mof_H 	H 	0.6187	0.9079	0.5415	-0.047
Mof_C 	C 	0.57953	0.8735	0.5994	-0.284
Mof_H 	H 	0.5658	0.8618	0.521	0.125
Mof_C 	C 	0.5873	0.88165	0.8103	-0.295
Mof_H 	H 	0.5788	0.8757	0.8793	0.105
Mof_C 	C 	0.61923	0.90875	0.823	0.206
Mof_H 	H 	0.6326	0.921	0.9007	-0.153
Mof_Na	Na	0.24923	0.57734	0.98946	2.544
Mof_Sm	Sm	0.20538	0	0.78887	1.731
Mof_Sm	Sm	0.26271	1.02009e-33	0.23385	1.722
Mof_O 	O 	0.18264	0	0.1204	-0.36
Mof_O 	O 	0.15603	0	0.9108	-0.315
Mof_O 	O 	0.22663	0	0.0108	-0.81
Mof_N 	N 	0.18625	0	0.014	0.05
Mof_Na	Na	0.7681	0	0.49452	2.769
Mof_Sm	Sm	0.70538	0.5	0.78887	1.864
Mof_Sm	Sm	0.76271	0.5	0.23385	1.857
Mof_O 	O 	0.68264	0.5	0.1204	-0.352
Mof_O 	O 	0.65603	0.5	0.9108	-0.304
Mof_O 	O 	0.72663	0.5	0.0108	-0.814
Mof_N 	N 	0.68625	0.5	0.014	0.053
Mof_Na	Na	0.2681	0.5	0.49452	2.972
Mof_Sm	Sm	0.79462	-1.02009e-33	0.21113	1.688
Mof_Sm	Sm	0.73729	0	0.76615	1.706
Mof_O 	O 	0.81736	0	0.8796	-0.355
Mof_O 	O 	0.84397	5.10043e-34	0.0892	-0.336
Mof_O 	O 	0.77337	-4.08034e-33	0.9892	-0.806
Mof_N 	N 	0.81375	0	0.986	0.065
Mof_Na	Na	0.2319	-2.04017e-33	0.50548	2.751
Mof_Sm	Sm	0.29462	0.5	0.21113	1.82
Mof_Sm	Sm	0.23729	0.5	0.76615	1.841
Mof_O 	O 	0.31736	0.5	0.8796	-0.347
Mof_O 	O 	0.34397	0.5	0.0892	-0.325
Mof_O 	O 	0.27337	0.5	0.9892	-0.81
Mof_N 	N 	0.31375	0.5	0.986	0.068
Mof_Na	Na	0.7319	0.5	0.50548	2.955
Mof_C 	C 	8.16069e-33	0.7356	-0	0.5
Mof_C 	C 	0.5	0.2356	-0	0.508
Mof_C 	C 	2.04017e-33	0.2644	-0	0.5
Mof_C 	C 	0.5	0.7644	-0	0.509
Mof_Na	Na	0.82428	0.5	0.00371	1.94
Mof_Na	Na	0.32428	-1.59388e-35	0.00371	1.75
Mof_Na	Na	0.17572	0.5	0.99629	2.029
Mof_Na	Na	0.67572	4.08034e-33	0.99629	1.842
_end
