data_functionalizedCrystal
_audit_creation_method	'EQeq! by Chris Wilmer'
_symmetry_space_group_name_H-M	'P1'
_symmetry_Int_Tables_number	1
_symmetry_cell_setting	triclinic
loop_
_symmetry_equiv_pos_as_xyz
  x,y,z
_cell_length_a	27.234
_cell_length_b	27.234
_cell_length_c	32.8706
_cell_angle_alpha	90
_cell_angle_beta	90
_cell_angle_gamma	120
loop_
_atom_site_label
_atom_site_type_symbol
_atom_site_fract_x
_atom_site_fract_y
_atom_site_fract_z
_atom_site_charge
Mof_In	In	0.12618	0.94349	0.5506	2.612
Mof_In	In	0.38584	0.84607	0.6277	2.613
Mof_In	In	0.48331	0.20681	0.6276	2.613
Mof_In	In	0.87382	0.81731	0.0506	2.613
Mof_In	In	0.61416	0.46023	0.1277	2.613
Mof_In	In	0.51669	0.7235	0.1276	2.613
Mof_H 	H 	0.2149	0.2418	0.5889	0.286
Mof_H 	H 	0.7013	0.1199	0.6507	0.267
Mof_H 	H 	0.0879	0.6354	0.5912	0.284
Mof_H 	H 	0.8682	0.8085	0.1965	0.016
Mof_H 	H 	0.9079	0.8384	0.2607	0.074
Mof_H 	H 	0.0595	0.944	0.2121	0.087
Mof_H 	H 	0.0198	0.9182	0.1475	0.03
Mof_H 	H 	0.0652	0.9423	0.2721	0.06
Mof_H 	H 	0.9581	0.8942	0.3156	0.051
Mof_H 	H 	0.9519	0.8989	0.3849	0.079
Mof_H 	H 	0.9942	0.9153	0.4476	0.036
Mof_H 	H 	0.1472	0.9564	0.4057	0.042
Mof_H 	H 	0.1086	0.952	0.3409	0.077
Mof_H 	H 	0.1755	0.1436	0.5751	0.135
Mof_H 	H 	0.2901	0.0964	0.5989	0.105
Mof_H 	H 	0.3328	0.2581	0.6173	0.113
Mof_H 	H 	0.6391	0.1577	0.6537	0.112
Mof_H 	H 	0.4768	0.0393	0.6339	0.093
Mof_H 	H 	0.5901	0.9906	0.6513	0.109
Mof_H 	H 	0.5854	0.3332	0.2327	0.001
Mof_H 	H 	0.572	0.3031	0.3007	0.091
Mof_H 	H 	0.6397	0.4633	0.3418	0.086
Mof_H 	H 	0.6369	0.4918	0.2745	-0.003
Mof_H 	H 	0.6393	0.4044	0.3835	0.055
Mof_H 	H 	0.548	0.2954	0.3737	0.064
Mof_H 	H 	0.515	0.2303	0.4146	0.104
Mof_H 	H 	0.4886	0.1925	0.4788	-0.01
Mof_H 	H 	0.5843	0.3435	0.5302	-0.006
Mof_H 	H 	0.6047	0.3833	0.4662	0.119
Mof_H 	H 	0.1854	0.6977	0.6073	0.122
Mof_H 	H 	0.2379	0.8611	0.5752	0.098
Mof_H 	H 	0.0762	0.7399	0.5574	0.131
Mof_H 	H 	0.5225	0.7102	0.2736	0.025
Mof_H 	H 	0.4871	0.7138	0.3405	0.078
Mof_H 	H 	0.3895	0.7805	0.2857	0.083
Mof_H 	H 	0.4213	0.773	0.2273	0.02
Mof_H 	H 	0.4085	0.791	0.363	0.062
Mof_H 	H 	0.4476	0.7221	0.39	0.053
Mof_H 	H 	0.4513	0.725	0.4664	0.08
Mof_H 	H 	0.4404	0.7495	0.5317	0.036
Mof_H 	H 	0.3775	0.8422	0.4828	0.027
Mof_H 	H 	0.3948	0.8212	0.4179	0.08
Mof_H 	H 	0.7851	0.0269	0.0889	0.287
Mof_H 	H 	0.2987	0.4186	0.1507	0.268
Mof_H 	H 	0.9121	0.5475	0.0912	0.285
Mof_H 	H 	0.1318	0.9403	0.6965	0.017
Mof_H 	H 	0.0921	0.9305	0.7607	0.074
Mof_H 	H 	0.9405	0.8845	0.7121	0.088
Mof_H 	H 	0.9802	0.8984	0.6475	0.031
Mof_H 	H 	0.9348	0.8771	0.7721	0.061
Mof_H 	H 	0.0419	0.9361	0.8156	0.052
Mof_H 	H 	0.0481	0.947	0.8849	0.08
Mof_H 	H 	0.0058	0.9211	0.9476	0.035
Mof_H 	H 	0.8528	0.8092	0.9057	0.042
Mof_H 	H 	0.8914	0.8434	0.8409	0.077
Mof_H 	H 	0.8245	0.9681	0.0751	0.135
Mof_H 	H 	0.7099	0.8063	0.0989	0.105
Mof_H 	H 	0.6672	0.9253	0.1173	0.113
Mof_H 	H 	0.3609	0.5186	0.1537	0.112
Mof_H 	H 	0.5232	0.5625	0.1339	0.093
Mof_H 	H 	0.4099	0.4005	0.1513	0.109
Mof_H 	H 	0.4146	0.7478	0.7327	0.001
Mof_H 	H 	0.428	0.7311	0.8007	0.091
Mof_H 	H 	0.3603	0.8236	0.8418	0.086
Mof_H 	H 	0.3631	0.8549	0.7745	-0.003
Mof_H 	H 	0.3607	0.7651	0.8835	0.055
Mof_H 	H 	0.452	0.7474	0.8737	0.065
Mof_H 	H 	0.485	0.7153	0.9146	0.104
Mof_H 	H 	0.5114	0.7039	0.9788	-0.01
Mof_H 	H 	0.4157	0.7592	0.0302	-0.007
Mof_H 	H 	0.3953	0.7786	0.9662	0.119
Mof_H 	H 	0.8146	0.5123	0.1073	0.122
Mof_H 	H 	0.7621	0.6232	0.0752	0.098
Mof_H 	H 	0.9238	0.6637	0.0574	0.131
Mof_H 	H 	0.4775	0.1877	0.7736	0.025
Mof_H 	H 	0.5129	0.2267	0.8405	0.078
Mof_H 	H 	0.6105	0.391	0.7857	0.083
Mof_H 	H 	0.5787	0.3517	0.7273	0.02
Mof_H 	H 	0.5915	0.3825	0.863	0.062
Mof_H 	H 	0.5524	0.2745	0.89	0.053
Mof_H 	H 	0.5487	0.2737	0.9664	0.08
Mof_H 	H 	0.5596	0.3091	0.0317	0.036
Mof_H 	H 	0.6225	0.4647	0.9828	0.027
Mof_H 	H 	0.6052	0.4264	0.9179	0.08
Mof_C 	C 	0.9113	0.8424	0.1251	0.402
Mof_C 	C 	0.9405	0.8617	0.1658	-0.139
Mof_C 	C 	0.9059	0.8367	0.1995	0.061
Mof_C 	C 	0.9298	0.8555	0.2377	-0.157
Mof_C 	C 	0.9854	0.899	0.2426	0.113
Mof_C 	C 	0.0208	0.9194	0.2089	-0.155
Mof_C 	C 	0.9973	0.9023	0.1704	0.068
Mof_C 	C 	0.0261	0.9223	0.2755	-0.093
Mof_C 	C 	0.9973	0.9102	0.3154	-0.084
Mof_C 	C 	0.026	0.9214	0.3543	0.085
Mof_C 	C 	0.9903	0.9112	0.3876	-0.143
Mof_C 	C 	0.017	0.9208	0.4251	0.05
Mof_C 	C 	0.0711	0.937	0.4331	-0.097
Mof_C 	C 	0.1098	0.9472	0.4017	0.031
Mof_C 	C 	0.0844	0.9415	0.3632	-0.123
Mof_C 	C 	0.0928	0.9361	0.4756	0.348
Mof_C 	C 	0.2507	0.2033	0.6014	0.302
Mof_C 	C 	0.2117	0.1518	0.5828	-0.23
Mof_C 	C 	0.232	0.1127	0.5767	0.052
Mof_C 	C 	0.2821	0.1256	0.5957	-0.108
Mof_C 	C 	0.32	0.1765	0.6101	0.045
Mof_C 	C 	0.3065	0.2208	0.6109	-0.221
Mof_C 	C 	0.3768	0.1884	0.6204	0.246
Mof_C 	C 	0.1893	0.0504	0.5656	0.309
Mof_C 	C 	0.6214	0.0754	0.6525	0.207
Mof_C 	C 	0.6108	0.1201	0.6499	-0.167
Mof_C 	C 	0.5552	0.1051	0.6412	0.005
Mof_C 	C 	0.5144	0.0483	0.6366	-0.048
Mof_C 	C 	0.526	0.0041	0.6358	-0.016
Mof_C 	C 	0.5807	0.0186	0.6472	-0.166
Mof_C 	C 	0.4808	0.9463	0.6316	0.352
Mof_C 	C 	0.5377	0.1492	0.6351	0.33
Mof_C 	C 	0.6203	0.4378	0.2063	0.499
Mof_C 	C 	0.6172	0.4163	0.2491	-0.204
Mof_C 	C 	0.5946	0.3584	0.2543	0.116
Mof_C 	C 	0.5869	0.3414	0.2948	-0.185
Mof_C 	C 	0.6007	0.3794	0.3268	0.123
Mof_C 	C 	0.6255	0.4374	0.3204	-0.184
Mof_C 	C 	0.6281	0.4549	0.2803	0.103
Mof_C 	C 	0.609	0.374	0.3698	-0.077
Mof_C 	C 	0.5724	0.3252	0.3905	-0.115
Mof_C 	C 	0.565	0.3116	0.4335	0.168
Mof_C 	C 	0.5285	0.2535	0.4374	-0.234
Mof_C 	C 	0.5129	0.2314	0.4764	0.174
Mof_C 	C 	0.5307	0.2628	0.5121	-0.283
Mof_C 	C 	0.5685	0.3207	0.5074	0.181
Mof_C 	C 	0.5826	0.3442	0.4687	-0.233
Mof_C 	C 	0.5103	0.2347	0.5509	0.67
Mof_C 	C 	0.1235	0.7113	0.5805	0.29
Mof_C 	C 	0.1778	0.7253	0.5977	-0.203
Mof_C 	C 	0.2192	0.7844	0.5991	0.032
Mof_C 	C 	0.2082	0.8245	0.5795	-0.089
Mof_C 	C 	0.152	0.8094	0.5662	0.038
Mof_C 	C 	0.1125	0.7515	0.5669	-0.227
Mof_C 	C 	0.1418	0.8549	0.5559	0.249
Mof_C 	C 	0.2783	0.8033	0.612	0.264
Mof_C 	C 	0.4913	0.7346	0.2022	0.546
Mof_C 	C 	0.4724	0.7361	0.2432	-0.176
Mof_C 	C 	0.4958	0.7217	0.2771	0.063
Mof_C 	C 	0.475	0.7259	0.3182	-0.13
Mof_C 	C 	0.4385	0.7475	0.3249	0.076
Mof_C 	C 	0.4144	0.7666	0.2835	-0.148
Mof_C 	C 	0.4325	0.7611	0.2502	0.087
Mof_C 	C 	0.4237	0.7671	0.3623	-0.078
Mof_C 	C 	0.4342	0.7474	0.3919	-0.064
Mof_C 	C 	0.4235	0.7687	0.4346	0.086
Mof_C 	C 	0.4373	0.7497	0.4697	-0.131
Mof_C 	C 	0.4318	0.7645	0.5092	0.056
Mof_C 	C 	0.4127	0.8029	0.5131	-0.113
Mof_C 	C 	0.3949	0.8205	0.4793	0.053
Mof_C 	C 	0.4031	0.806	0.4404	-0.138
Mof_C 	C 	0.4026	0.8204	0.5548	0.418
Mof_C 	C 	0.0887	0.9311	0.6251	0.402
Mof_C 	C 	0.0595	0.9212	0.6658	-0.138
Mof_C 	C 	0.0941	0.9308	0.6995	0.06
Mof_C 	C 	0.0702	0.9257	0.7377	-0.157
Mof_C 	C 	0.0146	0.9136	0.7426	0.112
Mof_C 	C 	0.9792	0.8986	0.7089	-0.154
Mof_C 	C 	0.0027	0.905	0.6704	0.068
Mof_C 	C 	0.9739	0.8962	0.7755	-0.092
Mof_C 	C 	0.0027	0.9129	0.8154	-0.085
Mof_C 	C 	0.974	0.8954	0.8543	0.087
Mof_C 	C 	0.0097	0.9209	0.8876	-0.145
Mof_C 	C 	0.983	0.9038	0.9251	0.052
Mof_C 	C 	0.9289	0.8659	0.9331	-0.099
Mof_C 	C 	0.8902	0.8374	0.9017	0.032
Mof_C 	C 	0.9156	0.8571	0.8632	-0.124
Mof_C 	C 	0.9072	0.8433	0.9756	0.349
Mof_C 	C 	0.7493	0.9526	0.1014	0.303
Mof_C 	C 	0.7883	0.9401	0.0828	-0.23
Mof_C 	C 	0.768	0.8807	0.0767	0.053
Mof_C 	C 	0.7179	0.8435	0.0957	-0.108
Mof_C 	C 	0.68	0.8565	0.1101	0.045
Mof_C 	C 	0.6935	0.9143	0.1109	-0.221
Mof_C 	C 	0.6232	0.8116	0.1204	0.246
Mof_C 	C 	0.8107	0.8611	0.0656	0.309
Mof_C 	C 	0.3786	0.454	0.1525	0.207
Mof_C 	C 	0.3892	0.5093	0.1499	-0.167
Mof_C 	C 	0.4448	0.5499	0.1412	0.005
Mof_C 	C 	0.4856	0.5339	0.1366	-0.048
Mof_C 	C 	0.474	0.4781	0.1358	-0.016
Mof_C 	C 	0.4193	0.4379	0.1472	-0.166
Mof_C 	C 	0.5192	0.4655	0.1316	0.352
Mof_C 	C 	0.4623	0.6115	0.1351	0.33
Mof_C 	C 	0.3797	0.8175	0.7063	0.499
Mof_C 	C 	0.3828	0.7991	0.7491	-0.204
Mof_C 	C 	0.4054	0.7638	0.7543	0.116
Mof_C 	C 	0.4131	0.7545	0.7948	-0.185
Mof_C 	C 	0.3993	0.7787	0.8268	0.123
Mof_C 	C 	0.3745	0.8119	0.8204	-0.184
Mof_C 	C 	0.3719	0.8268	0.7803	0.103
Mof_C 	C 	0.391	0.765	0.8698	-0.077
Mof_C 	C 	0.4276	0.7528	0.8905	-0.115
Mof_C 	C 	0.435	0.7466	0.9335	0.168
Mof_C 	C 	0.4715	0.725	0.9374	-0.234
Mof_C 	C 	0.4871	0.7185	0.9764	0.173
Mof_C 	C 	0.4693	0.7321	0.0121	-0.282
Mof_C 	C 	0.4315	0.7522	0.0074	0.182
Mof_C 	C 	0.4174	0.7616	0.9687	-0.234
Mof_C 	C 	0.4897	0.7244	0.0509	0.67
Mof_C 	C 	0.8765	0.5878	0.0805	0.29
Mof_C 	C 	0.8222	0.5475	0.0977	-0.203
Mof_C 	C 	0.7808	0.5652	0.0991	0.032
Mof_C 	C 	0.7918	0.6163	0.0795	-0.089
Mof_C 	C 	0.848	0.6574	0.0662	0.038
Mof_C 	C 	0.8875	0.639	0.0669	-0.227
Mof_C 	C 	0.8582	0.7131	0.0559	0.249
Mof_C 	C 	0.7217	0.525	0.112	0.264
Mof_C 	C 	0.5087	0.2433	0.7022	0.546
Mof_C 	C 	0.5276	0.2637	0.7432	-0.176
Mof_C 	C 	0.5042	0.2259	0.7771	0.063
Mof_C 	C 	0.525	0.2509	0.8182	-0.13
Mof_C 	C 	0.5615	0.309	0.8249	0.076
Mof_C 	C 	0.5856	0.3522	0.7835	-0.148
Mof_C 	C 	0.5675	0.3286	0.7502	0.087
Mof_C 	C 	0.5763	0.3434	0.8623	-0.078
Mof_C 	C 	0.5658	0.3132	0.8919	-0.064
Mof_C 	C 	0.5765	0.3452	0.9346	0.086
Mof_C 	C 	0.5627	0.3124	0.9697	-0.131
Mof_C 	C 	0.5682	0.3327	0.0092	0.057
Mof_C 	C 	0.5873	0.3902	0.0131	-0.112
Mof_C 	C 	0.6051	0.4256	0.9793	0.053
Mof_C 	C 	0.5969	0.4029	0.9404	-0.138
Mof_C 	C 	0.5974	0.4178	0.0548	0.418
Mof_O 	O 	0.0608	0.9274	0.5067	-0.56
Mof_O 	O 	0.9449	0.8676	0.0931	-0.522
Mof_O 	O 	0.087	0.8429	0.5517	-0.457
Mof_O 	O 	0.1805	0.903	0.5517	-0.506
Mof_O 	O 	0.2104	0.0209	0.558	-0.524
Mof_O 	O 	0.139	0.034	0.56	-0.473
Mof_O 	O 	0.8652	0.8081	0.1169	-0.59
Mof_O 	O 	0.1426	0.9536	0.4798	-0.5
Mof_O 	O 	0.4843	0.1292	0.6277	-0.564
Mof_O 	O 	0.387	0.1474	0.6245	-0.468
Mof_O 	O 	0.5684	0.1994	0.6318	-0.447
Mof_O 	O 	0.418	0.2403	0.6261	-0.49
Mof_O 	O 	0.4844	0.1958	0.5545	-0.704
Mof_O 	O 	0.4095	0.7959	0.5838	-0.535
Mof_O 	O 	0.4307	0.9388	0.6326	-0.542
Mof_O 	O 	0.3095	0.855	0.6185	-0.508
Mof_O 	O 	0.489	0.9075	0.6285	-0.493
Mof_O 	O 	0.5319	0.2749	0.5835	-0.577
Mof_O 	O 	0.602	0.3963	0.1755	-0.523
Mof_O 	O 	0.4699	0.7464	0.1716	-0.577
Mof_O 	O 	0.5252	0.7252	0.1943	-0.654
Mof_O 	O 	0.627	0.4769	0.1915	-0.68
Mof_O 	O 	0.2962	0.7684	0.616	-0.471
Mof_O 	O 	0.3963	0.8592	0.5576	-0.544
Mof_O 	O 	0.2388	0.2456	0.6057	-0.491
Mof_O 	O 	0.6791	0.0922	0.6641	-0.418
Mof_O 	O 	0.0832	0.6551	0.5746	-0.461
Mof_O 	O 	0.9392	0.8666	0.0067	-0.56
Mof_O 	O 	0.0551	0.9227	0.5931	-0.522
Mof_O 	O 	0.913	0.7559	0.0517	-0.457
Mof_O 	O 	0.8195	0.7225	0.0517	-0.506
Mof_O 	O 	0.7896	0.8105	0.058	-0.524
Mof_O 	O 	0.861	0.895	0.06	-0.473
Mof_O 	O 	0.1348	0.9429	0.6169	-0.59
Mof_O 	O 	0.8574	0.811	0.9798	-0.501
Mof_O 	O 	0.5157	0.6449	0.1277	-0.564
Mof_O 	O 	0.613	0.7604	0.1245	-0.468
Mof_O 	O 	0.4316	0.631	0.1318	-0.447
Mof_O 	O 	0.582	0.8223	0.1261	-0.49
Mof_O 	O 	0.5156	0.7114	0.0545	-0.704
Mof_O 	O 	0.5905	0.3864	0.0838	-0.535
Mof_O 	O 	0.5693	0.5081	0.1326	-0.542
Mof_O 	O 	0.6905	0.5455	0.1185	-0.508
Mof_O 	O 	0.511	0.4185	0.1285	-0.493
Mof_O 	O 	0.4681	0.743	0.0835	-0.577
Mof_O 	O 	0.398	0.7943	0.6755	-0.523
Mof_O 	O 	0.5301	0.2765	0.6716	-0.577
Mof_O 	O 	0.4748	0.2	0.6943	-0.654
Mof_O 	O 	0.373	0.8499	0.6915	-0.68
Mof_O 	O 	0.7038	0.4722	0.116	-0.471
Mof_O 	O 	0.6037	0.4629	0.0576	-0.544
Mof_O 	O 	0.7612	0.0068	0.1057	-0.491
Mof_O 	O 	0.3209	0.4131	0.1641	-0.418
Mof_O 	O 	0.9168	0.5719	0.0746	-0.461
Mof_In	In	0.81731	0.87382	0.5506	2.614
Mof_In	In	0.46023	0.61416	0.6277	2.614
Mof_In	In	0.7235	0.51669	0.6276	2.614
Mof_In	In	0.94349	0.12618	0.0506	2.613
Mof_In	In	0.84607	0.38584	0.1277	2.614
Mof_In	In	0.20681	0.48331	0.1276	2.614
Mof_H 	H 	0.0269	0.7851	0.5889	0.287
Mof_H 	H 	0.4186	0.2987	0.6507	0.268
Mof_H 	H 	0.5475	0.9121	0.5912	0.285
Mof_H 	H 	0.9403	0.1318	0.1965	0.017
Mof_H 	H 	0.9305	0.0921	0.2607	0.074
Mof_H 	H 	0.8845	0.9405	0.2121	0.088
Mof_H 	H 	0.8984	0.9802	0.1475	0.031
Mof_H 	H 	0.8771	0.9348	0.2721	0.061
Mof_H 	H 	0.9361	0.0419	0.3156	0.052
Mof_H 	H 	0.947	0.0481	0.3849	0.08
Mof_H 	H 	0.9211	0.0058	0.4476	0.036
Mof_H 	H 	0.8092	0.8528	0.4057	0.042
Mof_H 	H 	0.8434	0.8914	0.3409	0.077
Mof_H 	H 	0.9681	0.8245	0.5751	0.135
Mof_H 	H 	0.8063	0.7099	0.5989	0.105
Mof_H 	H 	0.9253	0.6672	0.6173	0.113
Mof_H 	H 	0.5186	0.3609	0.6537	0.112
Mof_H 	H 	0.5625	0.5232	0.6339	0.093
Mof_H 	H 	0.4005	0.4099	0.6513	0.109
Mof_H 	H 	0.7478	0.4146	0.2327	0.001
Mof_H 	H 	0.7311	0.428	0.3007	0.091
Mof_H 	H 	0.8236	0.3603	0.3418	0.086
Mof_H 	H 	0.8549	0.3631	0.2745	-0.003
Mof_H 	H 	0.7651	0.3607	0.3835	0.055
Mof_H 	H 	0.7474	0.452	0.3737	0.064
Mof_H 	H 	0.7153	0.485	0.4146	0.104
Mof_H 	H 	0.7039	0.5114	0.4788	-0.01
Mof_H 	H 	0.7592	0.4157	0.5302	-0.006
Mof_H 	H 	0.7786	0.3953	0.4662	0.119
Mof_H 	H 	0.5123	0.8146	0.6073	0.122
Mof_H 	H 	0.6232	0.7621	0.5752	0.098
Mof_H 	H 	0.6637	0.9238	0.5574	0.131
Mof_H 	H 	0.1877	0.4775	0.2736	0.025
Mof_H 	H 	0.2267	0.5129	0.3405	0.078
Mof_H 	H 	0.391	0.6105	0.2857	0.083
Mof_H 	H 	0.3517	0.5787	0.2273	0.02
Mof_H 	H 	0.3825	0.5915	0.363	0.062
Mof_H 	H 	0.2745	0.5524	0.39	0.053
Mof_H 	H 	0.2737	0.5487	0.4664	0.08
Mof_H 	H 	0.3091	0.5596	0.5317	0.036
Mof_H 	H 	0.4647	0.6225	0.4828	0.027
Mof_H 	H 	0.4264	0.6052	0.4179	0.08
Mof_H 	H 	0.2418	0.2149	0.0889	0.287
Mof_H 	H 	0.1199	0.7013	0.1507	0.268
Mof_H 	H 	0.6354	0.0879	0.0912	0.285
Mof_H 	H 	0.8085	0.8682	0.6965	0.017
Mof_H 	H 	0.8384	0.9079	0.7607	0.074
Mof_H 	H 	0.944	0.0595	0.7121	0.088
Mof_H 	H 	0.9182	0.0198	0.6475	0.031
Mof_H 	H 	0.9423	0.0652	0.7721	0.061
Mof_H 	H 	0.8942	0.9581	0.8156	0.052
Mof_H 	H 	0.8989	0.9519	0.8849	0.08
Mof_H 	H 	0.9153	0.9942	0.9476	0.036
Mof_H 	H 	0.9564	0.1472	0.9057	0.042
Mof_H 	H 	0.952	0.1086	0.8409	0.077
Mof_H 	H 	0.1436	0.1755	0.0751	0.135
Mof_H 	H 	0.0964	0.2901	0.0989	0.105
Mof_H 	H 	0.2581	0.3328	0.1173	0.113
Mof_H 	H 	0.1577	0.6391	0.1537	0.112
Mof_H 	H 	0.0393	0.4768	0.1339	0.093
Mof_H 	H 	0.9906	0.5901	0.1513	0.109
Mof_H 	H 	0.3332	0.5854	0.7327	0.001
Mof_H 	H 	0.3031	0.572	0.8007	0.091
Mof_H 	H 	0.4633	0.6397	0.8418	0.086
Mof_H 	H 	0.4918	0.6369	0.7745	-0.003
Mof_H 	H 	0.4044	0.6393	0.8835	0.055
Mof_H 	H 	0.2954	0.548	0.8737	0.064
Mof_H 	H 	0.2303	0.515	0.9146	0.104
Mof_H 	H 	0.1925	0.4886	0.9788	-0.01
Mof_H 	H 	0.3435	0.5843	0.0302	-0.006
Mof_H 	H 	0.3833	0.6047	0.9662	0.119
Mof_H 	H 	0.6977	0.1854	0.1073	0.122
Mof_H 	H 	0.8611	0.2379	0.0752	0.098
Mof_H 	H 	0.7399	0.0762	0.0574	0.131
Mof_H 	H 	0.7102	0.5225	0.7736	0.025
Mof_H 	H 	0.7138	0.4871	0.8405	0.078
Mof_H 	H 	0.7805	0.3895	0.7857	0.083
Mof_H 	H 	0.773	0.4213	0.7273	0.02
Mof_H 	H 	0.791	0.4085	0.863	0.062
Mof_H 	H 	0.7221	0.4476	0.89	0.053
Mof_H 	H 	0.725	0.4513	0.9664	0.08
Mof_H 	H 	0.7495	0.4404	0.0317	0.036
Mof_H 	H 	0.8422	0.3775	0.9828	0.027
Mof_H 	H 	0.8212	0.3948	0.9179	0.08
Mof_C 	C 	0.9311	0.0887	0.1251	0.402
Mof_C 	C 	0.9212	0.0595	0.1658	-0.138
Mof_C 	C 	0.9308	0.0941	0.1995	0.06
Mof_C 	C 	0.9257	0.0702	0.2377	-0.157
Mof_C 	C 	0.9136	0.0146	0.2426	0.112
Mof_C 	C 	0.8986	0.9792	0.2089	-0.154
Mof_C 	C 	0.905	0.0027	0.1704	0.068
Mof_C 	C 	0.8962	0.9739	0.2755	-0.093
Mof_C 	C 	0.9129	0.0027	0.3154	-0.085
Mof_C 	C 	0.8954	0.974	0.3543	0.086
Mof_C 	C 	0.9209	0.0097	0.3876	-0.144
Mof_C 	C 	0.9038	0.983	0.4251	0.051
Mof_C 	C 	0.8659	0.9289	0.4331	-0.098
Mof_C 	C 	0.8374	0.8902	0.4017	0.031
Mof_C 	C 	0.8571	0.9156	0.3632	-0.123
Mof_C 	C 	0.8433	0.9072	0.4756	0.349
Mof_C 	C 	0.9526	0.7493	0.6014	0.303
Mof_C 	C 	0.9401	0.7883	0.5828	-0.23
Mof_C 	C 	0.8807	0.768	0.5767	0.052
Mof_C 	C 	0.8435	0.7179	0.5957	-0.108
Mof_C 	C 	0.8565	0.68	0.6101	0.045
Mof_C 	C 	0.9143	0.6935	0.6109	-0.221
Mof_C 	C 	0.8116	0.6232	0.6204	0.246
Mof_C 	C 	0.8611	0.8107	0.5656	0.309
Mof_C 	C 	0.454	0.3786	0.6525	0.207
Mof_C 	C 	0.5093	0.3892	0.6499	-0.167
Mof_C 	C 	0.5499	0.4448	0.6412	0.005
Mof_C 	C 	0.5339	0.4856	0.6366	-0.048
Mof_C 	C 	0.4781	0.474	0.6358	-0.016
Mof_C 	C 	0.4379	0.4193	0.6472	-0.166
Mof_C 	C 	0.4655	0.5192	0.6316	0.352
Mof_C 	C 	0.6115	0.4623	0.6351	0.33
Mof_C 	C 	0.8175	0.3797	0.2063	0.499
Mof_C 	C 	0.7991	0.3828	0.2491	-0.204
Mof_C 	C 	0.7638	0.4054	0.2543	0.116
Mof_C 	C 	0.7545	0.4131	0.2948	-0.185
Mof_C 	C 	0.7787	0.3993	0.3268	0.123
Mof_C 	C 	0.8119	0.3745	0.3204	-0.184
Mof_C 	C 	0.8268	0.3719	0.2803	0.103
Mof_C 	C 	0.765	0.391	0.3698	-0.077
Mof_C 	C 	0.7528	0.4276	0.3905	-0.115
Mof_C 	C 	0.7466	0.435	0.4335	0.168
Mof_C 	C 	0.725	0.4715	0.4374	-0.234
Mof_C 	C 	0.7185	0.4871	0.4764	0.174
Mof_C 	C 	0.7321	0.4693	0.5121	-0.283
Mof_C 	C 	0.7522	0.4315	0.5074	0.181
Mof_C 	C 	0.7616	0.4174	0.4687	-0.233
Mof_C 	C 	0.7244	0.4897	0.5509	0.67
Mof_C 	C 	0.5878	0.8765	0.5805	0.29
Mof_C 	C 	0.5475	0.8222	0.5977	-0.203
Mof_C 	C 	0.5652	0.7808	0.5991	0.032
Mof_C 	C 	0.6163	0.7918	0.5795	-0.089
Mof_C 	C 	0.6574	0.848	0.5662	0.038
Mof_C 	C 	0.639	0.8875	0.5669	-0.227
Mof_C 	C 	0.7131	0.8582	0.5559	0.249
Mof_C 	C 	0.525	0.7217	0.612	0.264
Mof_C 	C 	0.2433	0.5087	0.2022	0.546
Mof_C 	C 	0.2637	0.5276	0.2432	-0.176
Mof_C 	C 	0.2259	0.5042	0.2771	0.063
Mof_C 	C 	0.2509	0.525	0.3182	-0.13
Mof_C 	C 	0.309	0.5615	0.3249	0.076
Mof_C 	C 	0.3522	0.5856	0.2835	-0.148
Mof_C 	C 	0.3286	0.5675	0.2502	0.087
Mof_C 	C 	0.3434	0.5763	0.3623	-0.078
Mof_C 	C 	0.3132	0.5658	0.3919	-0.064
Mof_C 	C 	0.3452	0.5765	0.4346	0.086
Mof_C 	C 	0.3124	0.5627	0.4697	-0.131
Mof_C 	C 	0.3327	0.5682	0.5092	0.056
Mof_C 	C 	0.3902	0.5873	0.5131	-0.113
Mof_C 	C 	0.4256	0.6051	0.4793	0.053
Mof_C 	C 	0.4029	0.5969	0.4404	-0.138
Mof_C 	C 	0.4178	0.5974	0.5548	0.418
Mof_C 	C 	0.8424	0.9113	0.6251	0.402
Mof_C 	C 	0.8617	0.9405	0.6658	-0.139
Mof_C 	C 	0.8367	0.9059	0.6995	0.06
Mof_C 	C 	0.8555	0.9298	0.7377	-0.157
Mof_C 	C 	0.899	0.9854	0.7426	0.112
Mof_C 	C 	0.9194	0.0208	0.7089	-0.155
Mof_C 	C 	0.9023	0.9973	0.6704	0.069
Mof_C 	C 	0.9223	0.0261	0.7755	-0.093
Mof_C 	C 	0.9102	0.9973	0.8154	-0.085
Mof_C 	C 	0.9214	0.026	0.8543	0.086
Mof_C 	C 	0.9112	0.9903	0.8876	-0.145
Mof_C 	C 	0.9208	0.017	0.9251	0.052
Mof_C 	C 	0.937	0.0711	0.9331	-0.098
Mof_C 	C 	0.9472	0.1098	0.9017	0.031
Mof_C 	C 	0.9415	0.0844	0.8632	-0.124
Mof_C 	C 	0.9361	0.0928	0.9756	0.349
Mof_C 	C 	0.2033	0.2507	0.1014	0.302
Mof_C 	C 	0.1518	0.2117	0.0828	-0.23
Mof_C 	C 	0.1127	0.232	0.0767	0.052
Mof_C 	C 	0.1256	0.2821	0.0957	-0.108
Mof_C 	C 	0.1765	0.32	0.1101	0.045
Mof_C 	C 	0.2208	0.3065	0.1109	-0.221
Mof_C 	C 	0.1884	0.3768	0.1204	0.246
Mof_C 	C 	0.0504	0.1893	0.0656	0.309
Mof_C 	C 	0.0754	0.6214	0.1525	0.207
Mof_C 	C 	0.1201	0.6108	0.1499	-0.167
Mof_C 	C 	0.1051	0.5552	0.1412	0.005
Mof_C 	C 	0.0483	0.5144	0.1366	-0.048
Mof_C 	C 	0.0041	0.526	0.1358	-0.016
Mof_C 	C 	0.0186	0.5807	0.1472	-0.166
Mof_C 	C 	0.9463	0.4808	0.1316	0.352
Mof_C 	C 	0.1492	0.5377	0.1351	0.33
Mof_C 	C 	0.4378	0.6203	0.7063	0.499
Mof_C 	C 	0.4163	0.6172	0.7491	-0.204
Mof_C 	C 	0.3584	0.5946	0.7543	0.116
Mof_C 	C 	0.3414	0.5869	0.7948	-0.185
Mof_C 	C 	0.3794	0.6007	0.8268	0.123
Mof_C 	C 	0.4374	0.6255	0.8204	-0.184
Mof_C 	C 	0.4549	0.6281	0.7803	0.103
Mof_C 	C 	0.374	0.609	0.8698	-0.077
Mof_C 	C 	0.3252	0.5724	0.8905	-0.115
Mof_C 	C 	0.3116	0.565	0.9335	0.168
Mof_C 	C 	0.2535	0.5285	0.9374	-0.234
Mof_C 	C 	0.2314	0.5129	0.9764	0.173
Mof_C 	C 	0.2628	0.5307	0.0121	-0.282
Mof_C 	C 	0.3207	0.5685	0.0074	0.182
Mof_C 	C 	0.3442	0.5826	0.9687	-0.233
Mof_C 	C 	0.2347	0.5103	0.0509	0.67
Mof_C 	C 	0.7113	0.1235	0.0805	0.29
Mof_C 	C 	0.7253	0.1778	0.0977	-0.203
Mof_C 	C 	0.7844	0.2192	0.0991	0.032
Mof_C 	C 	0.8245	0.2082	0.0795	-0.089
Mof_C 	C 	0.8094	0.152	0.0662	0.038
Mof_C 	C 	0.7515	0.1125	0.0669	-0.227
Mof_C 	C 	0.8549	0.1418	0.0559	0.249
Mof_C 	C 	0.8033	0.2783	0.112	0.264
Mof_C 	C 	0.7346	0.4913	0.7022	0.546
Mof_C 	C 	0.7361	0.4724	0.7432	-0.176
Mof_C 	C 	0.7217	0.4958	0.7771	0.063
Mof_C 	C 	0.7259	0.475	0.8182	-0.13
Mof_C 	C 	0.7475	0.4385	0.8249	0.076
Mof_C 	C 	0.7666	0.4144	0.7835	-0.148
Mof_C 	C 	0.7611	0.4325	0.7502	0.087
Mof_C 	C 	0.7671	0.4237	0.8623	-0.078
Mof_C 	C 	0.7474	0.4342	0.8919	-0.064
Mof_C 	C 	0.7687	0.4235	0.9346	0.086
Mof_C 	C 	0.7497	0.4373	0.9697	-0.131
Mof_C 	C 	0.7645	0.4318	0.0092	0.057
Mof_C 	C 	0.8029	0.4127	0.0131	-0.113
Mof_C 	C 	0.8205	0.3949	0.9793	0.053
Mof_C 	C 	0.806	0.4031	0.9404	-0.138
Mof_C 	C 	0.8204	0.4026	0.0548	0.418
Mof_O 	O 	0.8666	0.9392	0.5067	-0.56
Mof_O 	O 	0.9227	0.0551	0.0931	-0.522
Mof_O 	O 	0.7559	0.913	0.5517	-0.457
Mof_O 	O 	0.7225	0.8195	0.5517	-0.506
Mof_O 	O 	0.8105	0.7896	0.558	-0.524
Mof_O 	O 	0.895	0.861	0.56	-0.473
Mof_O 	O 	0.9429	0.1348	0.1169	-0.59
Mof_O 	O 	0.811	0.8574	0.4798	-0.5
Mof_O 	O 	0.6449	0.5157	0.6277	-0.564
Mof_O 	O 	0.7604	0.613	0.6245	-0.468
Mof_O 	O 	0.631	0.4316	0.6318	-0.447
Mof_O 	O 	0.8223	0.582	0.6261	-0.49
Mof_O 	O 	0.7114	0.5156	0.5545	-0.704
Mof_O 	O 	0.3864	0.5905	0.5838	-0.535
Mof_O 	O 	0.5081	0.5693	0.6326	-0.542
Mof_O 	O 	0.5455	0.6905	0.6185	-0.508
Mof_O 	O 	0.4185	0.511	0.6285	-0.493
Mof_O 	O 	0.743	0.4681	0.5835	-0.577
Mof_O 	O 	0.7943	0.398	0.1755	-0.523
Mof_O 	O 	0.2765	0.5301	0.1716	-0.577
Mof_O 	O 	0.2	0.4748	0.1943	-0.654
Mof_O 	O 	0.8499	0.373	0.1915	-0.68
Mof_O 	O 	0.4722	0.7038	0.616	-0.471
Mof_O 	O 	0.4629	0.6037	0.5576	-0.544
Mof_O 	O 	0.0068	0.7612	0.6057	-0.491
Mof_O 	O 	0.4131	0.3209	0.6641	-0.418
Mof_O 	O 	0.5719	0.9168	0.5746	-0.461
Mof_O 	O 	0.9274	0.0608	0.0067	-0.561
Mof_O 	O 	0.8676	0.9449	0.5931	-0.522
Mof_O 	O 	0.8429	0.087	0.0517	-0.457
Mof_O 	O 	0.903	0.1805	0.0517	-0.506
Mof_O 	O 	0.0209	0.2104	0.058	-0.524
Mof_O 	O 	0.034	0.139	0.06	-0.472
Mof_O 	O 	0.8081	0.8652	0.6169	-0.59
Mof_O 	O 	0.9536	0.1426	0.9798	-0.5
Mof_O 	O 	0.1292	0.4843	0.1277	-0.564
Mof_O 	O 	0.1474	0.387	0.1245	-0.468
Mof_O 	O 	0.1994	0.5684	0.1318	-0.447
Mof_O 	O 	0.2403	0.418	0.1261	-0.49
Mof_O 	O 	0.1958	0.4844	0.0545	-0.704
Mof_O 	O 	0.7959	0.4095	0.0838	-0.535
Mof_O 	O 	0.9388	0.4307	0.1326	-0.542
Mof_O 	O 	0.855	0.3095	0.1185	-0.508
Mof_O 	O 	0.9075	0.489	0.1285	-0.493
Mof_O 	O 	0.2749	0.5319	0.0835	-0.577
Mof_O 	O 	0.3963	0.602	0.6755	-0.523
Mof_O 	O 	0.7464	0.4699	0.6716	-0.577
Mof_O 	O 	0.7252	0.5252	0.6943	-0.654
Mof_O 	O 	0.4769	0.627	0.6915	-0.68
Mof_O 	O 	0.7684	0.2962	0.116	-0.471
Mof_O 	O 	0.8592	0.3963	0.0576	-0.544
Mof_O 	O 	0.2456	0.2388	0.1057	-0.491
Mof_O 	O 	0.0922	0.6791	0.1641	-0.418
Mof_O 	O 	0.6551	0.0832	0.0746	-0.461
Mof_In	In	0.05651	0.18269	0.5506	2.614
Mof_In	In	0.15393	0.53977	0.6277	2.614
Mof_In	In	0.79319	0.2765	0.6276	2.614
Mof_In	In	0.18269	0.05651	0.0506	2.614
Mof_In	In	0.53977	0.15393	0.1277	2.614
Mof_In	In	0.2765	0.79319	0.1276	2.614
Mof_H 	H 	0.7582	0.9731	0.5889	0.287
Mof_H 	H 	0.8801	0.5814	0.6507	0.268
Mof_H 	H 	0.3646	0.4525	0.5912	0.285
Mof_H 	H 	0.1915	0.0597	0.1965	0.017
Mof_H 	H 	0.1616	0.0695	0.2607	0.075
Mof_H 	H 	0.056	0.1155	0.2121	0.088
Mof_H 	H 	0.0818	0.1016	0.1475	0.031
Mof_H 	H 	0.0577	0.1229	0.2721	0.061
Mof_H 	H 	0.1058	0.0639	0.3156	0.052
Mof_H 	H 	0.1011	0.053	0.3849	0.079
Mof_H 	H 	0.0847	0.0789	0.4476	0.037
Mof_H 	H 	0.0436	0.1908	0.4057	0.042
Mof_H 	H 	0.048	0.1566	0.3409	0.077
Mof_H 	H 	0.8564	0.0319	0.5751	0.135
Mof_H 	H 	0.9036	0.1937	0.5989	0.105
Mof_H 	H 	0.7419	0.0747	0.6173	0.113
Mof_H 	H 	0.8423	0.4814	0.6537	0.112
Mof_H 	H 	0.9607	0.4375	0.6339	0.093
Mof_H 	H 	0.0094	0.5995	0.6513	0.109
Mof_H 	H 	0.6668	0.2522	0.2327	0.001
Mof_H 	H 	0.6969	0.2689	0.3007	0.091
Mof_H 	H 	0.5367	0.1764	0.3418	0.086
Mof_H 	H 	0.5082	0.1451	0.2745	-0.003
Mof_H 	H 	0.5956	0.2349	0.3835	0.055
Mof_H 	H 	0.7046	0.2526	0.3737	0.064
Mof_H 	H 	0.7697	0.2847	0.4146	0.104
Mof_H 	H 	0.8075	0.2961	0.4788	-0.01
Mof_H 	H 	0.6565	0.2408	0.5302	-0.006
Mof_H 	H 	0.6167	0.2214	0.4662	0.119
Mof_H 	H 	0.3023	0.4877	0.6073	0.122
Mof_H 	H 	0.1389	0.3768	0.5752	0.098
Mof_H 	H 	0.2601	0.3363	0.5574	0.132
Mof_H 	H 	0.2898	0.8123	0.2736	0.025
Mof_H 	H 	0.2862	0.7733	0.3405	0.078
Mof_H 	H 	0.2195	0.609	0.2857	0.083
Mof_H 	H 	0.227	0.6483	0.2273	0.02
Mof_H 	H 	0.209	0.6175	0.363	0.062
Mof_H 	H 	0.2779	0.7255	0.39	0.053
Mof_H 	H 	0.275	0.7263	0.4664	0.08
Mof_H 	H 	0.2505	0.6909	0.5317	0.036
Mof_H 	H 	0.1578	0.5353	0.4828	0.027
Mof_H 	H 	0.1788	0.5736	0.4179	0.08
Mof_H 	H 	0.9731	0.7582	0.0889	0.287
Mof_H 	H 	0.5814	0.8801	0.1507	0.268
Mof_H 	H 	0.4525	0.3646	0.0912	0.285
Mof_H 	H 	0.0597	0.1915	0.6965	0.017
Mof_H 	H 	0.0695	0.1616	0.7607	0.075
Mof_H 	H 	0.1155	0.056	0.7121	0.088
Mof_H 	H 	0.1016	0.0818	0.6475	0.031
Mof_H 	H 	0.1229	0.0577	0.7721	0.061
Mof_H 	H 	0.0639	0.1058	0.8156	0.052
Mof_H 	H 	0.053	0.1011	0.8849	0.079
Mof_H 	H 	0.0789	0.0847	0.9476	0.036
Mof_H 	H 	0.1908	0.0436	0.9057	0.042
Mof_H 	H 	0.1566	0.048	0.8409	0.077
Mof_H 	H 	0.0319	0.8564	0.0751	0.135
Mof_H 	H 	0.1937	0.9036	0.0989	0.105
Mof_H 	H 	0.0747	0.7419	0.1173	0.113
Mof_H 	H 	0.4814	0.8423	0.1537	0.112
Mof_H 	H 	0.4375	0.9607	0.1339	0.093
Mof_H 	H 	0.5995	0.0094	0.1513	0.109
Mof_H 	H 	0.2522	0.6668	0.7327	0.001
Mof_H 	H 	0.2689	0.6969	0.8007	0.091
Mof_H 	H 	0.1764	0.5367	0.8418	0.086
Mof_H 	H 	0.1451	0.5082	0.7745	-0.003
Mof_H 	H 	0.2349	0.5956	0.8835	0.055
Mof_H 	H 	0.2526	0.7046	0.8737	0.064
Mof_H 	H 	0.2847	0.7697	0.9146	0.104
Mof_H 	H 	0.2961	0.8075	0.9788	-0.01
Mof_H 	H 	0.2408	0.6565	0.0302	-0.007
Mof_H 	H 	0.2214	0.6167	0.9662	0.119
Mof_H 	H 	0.4877	0.3023	0.1073	0.122
Mof_H 	H 	0.3768	0.1389	0.0752	0.098
Mof_H 	H 	0.3363	0.2601	0.0574	0.132
Mof_H 	H 	0.8123	0.2898	0.7736	0.025
Mof_H 	H 	0.7733	0.2862	0.8405	0.078
Mof_H 	H 	0.609	0.2195	0.7857	0.083
Mof_H 	H 	0.6483	0.227	0.7273	0.02
Mof_H 	H 	0.6175	0.209	0.863	0.062
Mof_H 	H 	0.7255	0.2779	0.89	0.053
Mof_H 	H 	0.7263	0.275	0.9664	0.08
Mof_H 	H 	0.6909	0.2505	0.0317	0.036
Mof_H 	H 	0.5353	0.1578	0.9828	0.027
Mof_H 	H 	0.5736	0.1788	0.9179	0.08
Mof_C 	C 	0.1576	0.0689	0.1251	0.403
Mof_C 	C 	0.1383	0.0788	0.1658	-0.139
Mof_C 	C 	0.1633	0.0692	0.1995	0.061
Mof_C 	C 	0.1445	0.0743	0.2377	-0.158
Mof_C 	C 	0.101	0.0864	0.2426	0.113
Mof_C 	C 	0.0806	0.1014	0.2089	-0.156
Mof_C 	C 	0.0977	0.095	0.1704	0.069
Mof_C 	C 	0.0777	0.1038	0.2755	-0.093
Mof_C 	C 	0.0898	0.0871	0.3154	-0.084
Mof_C 	C 	0.0786	0.1046	0.3543	0.085
Mof_C 	C 	0.0888	0.0791	0.3876	-0.143
Mof_C 	C 	0.0792	0.0962	0.4251	0.05
Mof_C 	C 	0.063	0.1341	0.4331	-0.097
Mof_C 	C 	0.0528	0.1626	0.4017	0.031
Mof_C 	C 	0.0585	0.1429	0.3632	-0.123
Mof_C 	C 	0.0639	0.1567	0.4756	0.348
Mof_C 	C 	0.7967	0.0474	0.6014	0.303
Mof_C 	C 	0.8482	0.0599	0.5828	-0.23
Mof_C 	C 	0.8873	0.1193	0.5767	0.052
Mof_C 	C 	0.8744	0.1565	0.5957	-0.108
Mof_C 	C 	0.8235	0.1435	0.6101	0.045
Mof_C 	C 	0.7792	0.0857	0.6109	-0.221
Mof_C 	C 	0.8116	0.1884	0.6204	0.246
Mof_C 	C 	0.9496	0.1389	0.5656	0.309
Mof_C 	C 	0.9246	0.546	0.6525	0.207
Mof_C 	C 	0.8799	0.4907	0.6499	-0.167
Mof_C 	C 	0.8949	0.4501	0.6412	0.005
Mof_C 	C 	0.9517	0.4661	0.6366	-0.048
Mof_C 	C 	0.9959	0.5219	0.6358	-0.016
Mof_C 	C 	0.9814	0.5621	0.6472	-0.166
Mof_C 	C 	0.0537	0.5345	0.6316	0.352
Mof_C 	C 	0.8508	0.3885	0.6351	0.33
Mof_C 	C 	0.5622	0.1825	0.2063	0.499
Mof_C 	C 	0.5837	0.2009	0.2491	-0.204
Mof_C 	C 	0.6416	0.2362	0.2543	0.116
Mof_C 	C 	0.6586	0.2455	0.2948	-0.185
Mof_C 	C 	0.6206	0.2213	0.3268	0.123
Mof_C 	C 	0.5626	0.1881	0.3204	-0.184
Mof_C 	C 	0.5451	0.1732	0.2803	0.103
Mof_C 	C 	0.626	0.235	0.3698	-0.077
Mof_C 	C 	0.6748	0.2472	0.3905	-0.115
Mof_C 	C 	0.6884	0.2534	0.4335	0.168
Mof_C 	C 	0.7465	0.275	0.4374	-0.234
Mof_C 	C 	0.7686	0.2815	0.4764	0.174
Mof_C 	C 	0.7372	0.2679	0.5121	-0.283
Mof_C 	C 	0.6793	0.2478	0.5074	0.181
Mof_C 	C 	0.6558	0.2384	0.4687	-0.233
Mof_C 	C 	0.7653	0.2756	0.5509	0.67
Mof_C 	C 	0.2887	0.4122	0.5805	0.29
Mof_C 	C 	0.2747	0.4525	0.5977	-0.203
Mof_C 	C 	0.2156	0.4348	0.5991	0.032
Mof_C 	C 	0.1755	0.3837	0.5795	-0.089
Mof_C 	C 	0.1906	0.3426	0.5662	0.038
Mof_C 	C 	0.2485	0.361	0.5669	-0.227
Mof_C 	C 	0.1451	0.2869	0.5559	0.249
Mof_C 	C 	0.1967	0.475	0.612	0.264
Mof_C 	C 	0.2654	0.7567	0.2022	0.546
Mof_C 	C 	0.2639	0.7363	0.2432	-0.176
Mof_C 	C 	0.2783	0.7741	0.2771	0.063
Mof_C 	C 	0.2741	0.7491	0.3182	-0.13
Mof_C 	C 	0.2525	0.691	0.3249	0.076
Mof_C 	C 	0.2334	0.6478	0.2835	-0.148
Mof_C 	C 	0.2389	0.6714	0.2502	0.087
Mof_C 	C 	0.2329	0.6566	0.3623	-0.078
Mof_C 	C 	0.2526	0.6868	0.3919	-0.064
Mof_C 	C 	0.2313	0.6548	0.4346	0.086
Mof_C 	C 	0.2503	0.6876	0.4697	-0.131
Mof_C 	C 	0.2355	0.6673	0.5092	0.056
Mof_C 	C 	0.1971	0.6098	0.5131	-0.113
Mof_C 	C 	0.1795	0.5744	0.4793	0.053
Mof_C 	C 	0.194	0.5971	0.4404	-0.138
Mof_C 	C 	0.1796	0.5822	0.5548	0.418
Mof_C 	C 	0.0689	0.1576	0.6251	0.403
Mof_C 	C 	0.0788	0.1383	0.6658	-0.139
Mof_C 	C 	0.0692	0.1633	0.6995	0.061
Mof_C 	C 	0.0743	0.1445	0.7377	-0.158
Mof_C 	C 	0.0864	0.101	0.7426	0.113
Mof_C 	C 	0.1014	0.0806	0.7089	-0.156
Mof_C 	C 	0.095	0.0977	0.6704	0.069
Mof_C 	C 	0.1038	0.0777	0.7755	-0.094
Mof_C 	C 	0.0871	0.0898	0.8154	-0.084
Mof_C 	C 	0.1046	0.0786	0.8543	0.085
Mof_C 	C 	0.0791	0.0888	0.8876	-0.143
Mof_C 	C 	0.0962	0.0792	0.9251	0.05
Mof_C 	C 	0.1341	0.063	0.9331	-0.097
Mof_C 	C 	0.1626	0.0528	0.9017	0.031
Mof_C 	C 	0.1429	0.0585	0.8632	-0.123
Mof_C 	C 	0.1567	0.0639	0.9756	0.348
Mof_C 	C 	0.0474	0.7967	0.1014	0.303
Mof_C 	C 	0.0599	0.8482	0.0828	-0.23
Mof_C 	C 	0.1193	0.8873	0.0767	0.053
Mof_C 	C 	0.1565	0.8744	0.0957	-0.108
Mof_C 	C 	0.1435	0.8235	0.1101	0.045
Mof_C 	C 	0.0857	0.7792	0.1109	-0.221
Mof_C 	C 	0.1884	0.8116	0.1204	0.246
Mof_C 	C 	0.1389	0.9496	0.0656	0.309
Mof_C 	C 	0.546	0.9246	0.1525	0.207
Mof_C 	C 	0.4907	0.8799	0.1499	-0.167
Mof_C 	C 	0.4501	0.8949	0.1412	0.005
Mof_C 	C 	0.4661	0.9517	0.1366	-0.048
Mof_C 	C 	0.5219	0.9959	0.1358	-0.016
Mof_C 	C 	0.5621	0.9814	0.1472	-0.166
Mof_C 	C 	0.5345	0.0537	0.1316	0.352
Mof_C 	C 	0.3885	0.8508	0.1351	0.33
Mof_C 	C 	0.1825	0.5622	0.7063	0.499
Mof_C 	C 	0.2009	0.5837	0.7491	-0.204
Mof_C 	C 	0.2362	0.6416	0.7543	0.116
Mof_C 	C 	0.2455	0.6586	0.7948	-0.185
Mof_C 	C 	0.2213	0.6206	0.8268	0.123
Mof_C 	C 	0.1881	0.5626	0.8204	-0.184
Mof_C 	C 	0.1732	0.5451	0.7803	0.103
Mof_C 	C 	0.235	0.626	0.8698	-0.077
Mof_C 	C 	0.2472	0.6748	0.8905	-0.115
Mof_C 	C 	0.2534	0.6884	0.9335	0.168
Mof_C 	C 	0.275	0.7465	0.9374	-0.234
Mof_C 	C 	0.2815	0.7686	0.9764	0.173
Mof_C 	C 	0.2679	0.7372	0.0121	-0.282
Mof_C 	C 	0.2478	0.6793	0.0074	0.182
Mof_C 	C 	0.2384	0.6558	0.9687	-0.234
Mof_C 	C 	0.2756	0.7653	0.0509	0.67
Mof_C 	C 	0.4122	0.2887	0.0805	0.29
Mof_C 	C 	0.4525	0.2747	0.0977	-0.203
Mof_C 	C 	0.4348	0.2156	0.0991	0.032
Mof_C 	C 	0.3837	0.1755	0.0795	-0.089
Mof_C 	C 	0.3426	0.1906	0.0662	0.038
Mof_C 	C 	0.361	0.2485	0.0669	-0.227
Mof_C 	C 	0.2869	0.1451	0.0559	0.249
Mof_C 	C 	0.475	0.1967	0.112	0.264
Mof_C 	C 	0.7567	0.2654	0.7022	0.546
Mof_C 	C 	0.7363	0.2639	0.7432	-0.176
Mof_C 	C 	0.7741	0.2783	0.7771	0.063
Mof_C 	C 	0.7491	0.2741	0.8182	-0.13
Mof_C 	C 	0.691	0.2525	0.8249	0.076
Mof_C 	C 	0.6478	0.2334	0.7835	-0.148
Mof_C 	C 	0.6714	0.2389	0.7502	0.087
Mof_C 	C 	0.6566	0.2329	0.8623	-0.078
Mof_C 	C 	0.6868	0.2526	0.8919	-0.064
Mof_C 	C 	0.6548	0.2313	0.9346	0.086
Mof_C 	C 	0.6876	0.2503	0.9697	-0.131
Mof_C 	C 	0.6673	0.2355	0.0092	0.056
Mof_C 	C 	0.6098	0.1971	0.0131	-0.113
Mof_C 	C 	0.5744	0.1795	0.9793	0.053
Mof_C 	C 	0.5971	0.194	0.9404	-0.138
Mof_C 	C 	0.5822	0.1796	0.0548	0.418
Mof_O 	O 	0.0726	0.1334	0.5067	-0.56
Mof_O 	O 	0.1324	0.0773	0.0931	-0.522
Mof_O 	O 	0.1571	0.2441	0.5517	-0.457
Mof_O 	O 	0.097	0.2775	0.5517	-0.506
Mof_O 	O 	0.9791	0.1895	0.558	-0.524
Mof_O 	O 	0.966	0.105	0.56	-0.473
Mof_O 	O 	0.1919	0.0571	0.1169	-0.59
Mof_O 	O 	0.0464	0.189	0.4798	-0.5
Mof_O 	O 	0.8708	0.3551	0.6277	-0.564
Mof_O 	O 	0.8526	0.2396	0.6245	-0.468
Mof_O 	O 	0.8006	0.369	0.6318	-0.447
Mof_O 	O 	0.7597	0.1777	0.6261	-0.49
Mof_O 	O 	0.8042	0.2886	0.5545	-0.704
Mof_O 	O 	0.2041	0.6136	0.5838	-0.535
Mof_O 	O 	0.0612	0.4919	0.6326	-0.542
Mof_O 	O 	0.145	0.4545	0.6185	-0.508
Mof_O 	O 	0.0925	0.5815	0.6285	-0.493
Mof_O 	O 	0.7251	0.257	0.5835	-0.577
Mof_O 	O 	0.6037	0.2057	0.1755	-0.523
Mof_O 	O 	0.2536	0.7235	0.1716	-0.577
Mof_O 	O 	0.2748	0.8	0.1943	-0.654
Mof_O 	O 	0.5231	0.1501	0.1915	-0.68
Mof_O 	O 	0.2316	0.5278	0.616	-0.471
Mof_O 	O 	0.1408	0.5371	0.5576	-0.544
Mof_O 	O 	0.7544	0.9932	0.6057	-0.491
Mof_O 	O 	0.9078	0.5869	0.6641	-0.418
Mof_O 	O 	0.3449	0.4281	0.5746	-0.461
Mof_O 	O 	0.1334	0.0726	0.0067	-0.56
Mof_O 	O 	0.0773	0.1324	0.5931	-0.522
Mof_O 	O 	0.2441	0.1571	0.0517	-0.457
Mof_O 	O 	0.2775	0.097	0.0517	-0.506
Mof_O 	O 	0.1895	0.9791	0.058	-0.524
Mof_O 	O 	0.105	0.966	0.06	-0.473
Mof_O 	O 	0.0571	0.1919	0.6169	-0.59
Mof_O 	O 	0.189	0.0464	0.9798	-0.5
Mof_O 	O 	0.3551	0.8708	0.1277	-0.564
Mof_O 	O 	0.2396	0.8526	0.1245	-0.468
Mof_O 	O 	0.369	0.8006	0.1318	-0.447
Mof_O 	O 	0.1777	0.7597	0.1261	-0.49
Mof_O 	O 	0.2886	0.8042	0.0545	-0.704
Mof_O 	O 	0.6136	0.2041	0.0838	-0.535
Mof_O 	O 	0.4919	0.0612	0.1326	-0.542
Mof_O 	O 	0.4545	0.145	0.1185	-0.508
Mof_O 	O 	0.5815	0.0925	0.1285	-0.493
Mof_O 	O 	0.257	0.7251	0.0835	-0.577
Mof_O 	O 	0.2057	0.6037	0.6755	-0.523
Mof_O 	O 	0.7235	0.2536	0.6716	-0.577
Mof_O 	O 	0.8	0.2748	0.6943	-0.654
Mof_O 	O 	0.1501	0.5231	0.6915	-0.68
Mof_O 	O 	0.5278	0.2316	0.116	-0.471
Mof_O 	O 	0.5371	0.1408	0.0576	-0.544
Mof_O 	O 	0.9932	0.7544	0.1057	-0.491
Mof_O 	O 	0.5869	0.9078	0.1641	-0.418
Mof_O 	O 	0.4281	0.3449	0.0746	-0.461
Mof_H 	H 	0.1927	0.3396	0.675	0.161
Mof_H 	H 	0.168	0.2777	0.6583	0.161
Mof_H 	H 	0.2295	0.3247	0.6464	0.174
Mof_H 	H 	0.2528	0.2376	0.7061	0.18
Mof_H 	H 	0.2583	0.2639	0.6628	0.214
Mof_H 	H 	0.1988	0.2174	0.6789	0.181
Mof_C 	C 	0.202	0.311	0.6677	-0.403
Mof_C 	C 	0.235	0.2497	0.6864	-0.457
Mof_N 	N 	0.225	0.2954	0.7049	-0.015
Mof_H 	H 	0.4237	0.2706	0.2919	0.145
Mof_H 	H 	0.4704	0.254	0.2846	0.142
Mof_H 	H 	0.408	0.2134	0.2702	0.143
Mof_H 	H 	0.4885	0.2648	0.1845	0.154
Mof_H 	H 	0.4526	0.2117	0.2121	0.141
Mof_H 	H 	0.5122	0.2596	0.2267	0.145
Mof_C 	C 	0.437	0.252	0.2736	-0.377
Mof_C 	C 	0.479	0.2521	0.212	-0.367
Mof_N 	N 	0.4509	0.2824	0.2323	-0.028
Mof_H 	H 	0.6316	0.0285	0.5088	0.177
Mof_H 	H 	0.6055	0.0106	0.5525	0.185
Mof_H 	H 	0.6673	0.023	0.5441	0.178
Mof_H 	H 	0.6871	0.1327	0.6052	0.168
Mof_H 	H 	0.7093	0.0907	0.5959	0.162
Mof_H 	H 	0.6455	0.0671	0.6075	0.162
Mof_C 	C 	0.64	0.034	0.537	-0.436
Mof_C 	C 	0.6776	0.0968	0.5935	-0.393
Mof_N 	N 	0.663	0.096	0.5485	-0.016
Mof_H 	H 	0.7765	0.769	0.3026	0.151
Mof_H 	H 	0.7846	0.718	0.3153	0.153
Mof_H 	H 	0.8337	0.7706	0.2931	0.144
Mof_H 	H 	0.9141	0.8344	0.3526	0.157
Mof_H 	H 	0.8912	0.7757	0.3309	0.151
Mof_H 	H 	0.8918	0.7789	0.3785	0.162
Mof_C 	C 	0.803	0.758	0.3122	-0.399
Mof_C 	C 	0.887	0.795	0.354	-0.414
Mof_N 	N 	0.827	0.787	0.353	-0.028
Mof_H 	H 	0.439	0.8638	0.3	0.154
Mof_H 	H 	0.4795	0.9036	0.3342	0.153
Mof_H 	H 	0.4574	0.9283	0.3003	0.155
Mof_H 	H 	0.3833	0.9355	0.381	0.133
Mof_H 	H 	0.42	0.9673	0.3428	0.132
Mof_H 	H 	0.4473	0.952	0.3791	0.129
Mof_C 	C 	0.448	0.896	0.317	-0.398
Mof_C 	C 	0.413	0.939	0.363	-0.34
Mof_N 	N 	0.396	0.882	0.343	-0.038
Mof_H 	H 	0.1469	0.8073	0.675	0.161
Mof_H 	H 	0.1097	0.832	0.6583	0.161
Mof_H 	H 	0.0952	0.7705	0.6464	0.174
Mof_H 	H 	0.9848	0.7472	0.7061	0.18
Mof_H 	H 	0.0056	0.7417	0.6628	0.214
Mof_H 	H 	0.0186	0.8012	0.6789	0.182
Mof_C 	C 	0.109	0.798	0.6677	-0.403
Mof_C 	C 	0.0147	0.765	0.6864	-0.458
Mof_N 	N 	0.0704	0.775	0.7049	-0.015
Mof_H 	H 	0.8469	0.5763	0.2919	0.145
Mof_H 	H 	0.7836	0.5296	0.2846	0.142
Mof_H 	H 	0.8054	0.592	0.2702	0.143
Mof_H 	H 	0.7763	0.5115	0.1845	0.154
Mof_H 	H 	0.7591	0.5474	0.2121	0.141
Mof_H 	H 	0.7474	0.4878	0.2267	0.145
Mof_C 	C 	0.815	0.563	0.2736	-0.377
Mof_C 	C 	0.7731	0.521	0.212	-0.367
Mof_N 	N 	0.8315	0.5491	0.2323	-0.028
Mof_H 	H 	0.3969	0.3684	0.5088	0.177
Mof_H 	H 	0.4051	0.3945	0.5525	0.185
Mof_H 	H 	0.3557	0.3327	0.5441	0.178
Mof_H 	H 	0.4456	0.3129	0.6052	0.168
Mof_H 	H 	0.3814	0.2907	0.5959	0.162
Mof_H 	H 	0.4216	0.3545	0.6075	0.162
Mof_C 	C 	0.394	0.36	0.537	-0.436
Mof_C 	C 	0.4192	0.3224	0.5935	-0.393
Mof_N 	N 	0.433	0.337	0.5485	-0.016
Mof_H 	H 	0.9925	0.2235	0.3026	0.151
Mof_H 	H 	0.9334	0.2154	0.3153	0.153
Mof_H 	H 	0.9369	0.1663	0.2931	0.144
Mof_H 	H 	0.9203	0.0859	0.3526	0.157
Mof_H 	H 	0.8845	0.1088	0.3309	0.151
Mof_H 	H 	0.8871	0.1082	0.3785	0.162
Mof_C 	C 	0.955	0.197	0.3122	-0.399
Mof_C 	C 	0.908	0.113	0.354	-0.414
Mof_N 	N 	0.96	0.173	0.353	-0.028
Mof_H 	H 	0.4248	0.561	0.3	0.154
Mof_H 	H 	0.4241	0.5205	0.3342	0.153
Mof_H 	H 	0.4709	0.5426	0.3003	0.155
Mof_H 	H 	0.5522	0.6167	0.381	0.133
Mof_H 	H 	0.5473	0.58	0.3428	0.132
Mof_H 	H 	0.5047	0.5527	0.3791	0.129
Mof_C 	C 	0.448	0.552	0.317	-0.398
Mof_C 	C 	0.526	0.587	0.363	-0.34
Mof_N 	N 	0.486	0.604	0.343	-0.038
Mof_H 	H 	0.6604	0.8531	0.675	0.161
Mof_H 	H 	0.7223	0.8903	0.6583	0.161
Mof_H 	H 	0.6753	0.9048	0.6464	0.174
Mof_H 	H 	0.7624	0.0152	0.7061	0.18
Mof_H 	H 	0.7361	0.9944	0.6628	0.214
Mof_H 	H 	0.7826	0.9814	0.6789	0.182
Mof_C 	C 	0.689	0.891	0.6677	-0.403
Mof_C 	C 	0.7503	0.9853	0.6864	-0.458
Mof_N 	N 	0.7046	0.9296	0.7049	-0.015
Mof_H 	H 	0.7294	0.1531	0.2919	0.145
Mof_H 	H 	0.746	0.2164	0.2846	0.142
Mof_H 	H 	0.7866	0.1946	0.2702	0.143
Mof_H 	H 	0.7352	0.2237	0.1845	0.154
Mof_H 	H 	0.7883	0.2409	0.2121	0.141
Mof_H 	H 	0.7404	0.2526	0.2267	0.145
Mof_C 	C 	0.748	0.185	0.2736	-0.377
Mof_C 	C 	0.7479	0.2269	0.212	-0.367
Mof_N 	N 	0.7176	0.1685	0.2323	-0.028
Mof_H 	H 	0.9715	0.6031	0.5088	0.177
Mof_H 	H 	0.9894	0.5949	0.5525	0.185
Mof_H 	H 	0.977	0.6443	0.5441	0.178
Mof_H 	H 	0.8673	0.5544	0.6052	0.168
Mof_H 	H 	0.9093	0.6186	0.5959	0.162
Mof_H 	H 	0.9329	0.5784	0.6075	0.162
Mof_C 	C 	0.966	0.606	0.537	-0.436
Mof_C 	C 	0.9032	0.5808	0.5935	-0.393
Mof_N 	N 	0.904	0.567	0.5485	-0.016
Mof_H 	H 	0.231	0.0075	0.3026	0.151
Mof_H 	H 	0.282	0.0666	0.3153	0.153
Mof_H 	H 	0.2294	0.0631	0.2931	0.144
Mof_H 	H 	0.1656	0.0797	0.3526	0.157
Mof_H 	H 	0.2243	0.1155	0.3309	0.151
Mof_H 	H 	0.2211	0.1129	0.3785	0.162
Mof_C 	C 	0.242	0.045	0.3122	-0.399
Mof_C 	C 	0.205	0.092	0.354	-0.414
Mof_N 	N 	0.213	0.04	0.353	-0.028
Mof_H 	H 	0.1362	0.5752	0.3	0.154
Mof_H 	H 	0.0964	0.5759	0.3342	0.153
Mof_H 	H 	0.0717	0.5291	0.3003	0.155
Mof_H 	H 	0.0645	0.4478	0.381	0.133
Mof_H 	H 	0.0327	0.4527	0.3428	0.132
Mof_H 	H 	0.048	0.4953	0.3791	0.129
Mof_C 	C 	0.104	0.552	0.317	-0.398
Mof_C 	C 	0.061	0.474	0.363	-0.34
Mof_N 	N 	0.118	0.514	0.343	-0.038
Mof_H 	H 	0.8531	0.6604	0.175	0.161
Mof_H 	H 	0.8903	0.7223	0.1583	0.161
Mof_H 	H 	0.9048	0.6753	0.1464	0.174
Mof_H 	H 	0.0152	0.7624	0.2061	0.18
Mof_H 	H 	0.9944	0.7361	0.1628	0.214
Mof_H 	H 	0.9814	0.7826	0.1789	0.182
Mof_C 	C 	0.891	0.689	0.1677	-0.403
Mof_C 	C 	0.9853	0.7503	0.1864	-0.458
Mof_N 	N 	0.9296	0.7046	0.2049	-0.015
Mof_H 	H 	0.1531	0.7294	0.7919	0.145
Mof_H 	H 	0.2164	0.746	0.7846	0.142
Mof_H 	H 	0.1946	0.7866	0.7702	0.143
Mof_H 	H 	0.2237	0.7352	0.6845	0.154
Mof_H 	H 	0.2409	0.7883	0.7121	0.141
Mof_H 	H 	0.2526	0.7404	0.7267	0.145
Mof_C 	C 	0.185	0.748	0.7736	-0.377
Mof_C 	C 	0.2269	0.7479	0.712	-0.367
Mof_N 	N 	0.1685	0.7176	0.7323	-0.028
Mof_H 	H 	0.6031	0.9715	0.0088	0.177
Mof_H 	H 	0.5949	0.9894	0.0525	0.185
Mof_H 	H 	0.6443	0.977	0.0441	0.179
Mof_H 	H 	0.5544	0.8673	0.1052	0.168
Mof_H 	H 	0.6186	0.9093	0.0959	0.162
Mof_H 	H 	0.5784	0.9329	0.1075	0.163
Mof_C 	C 	0.606	0.966	0.037	-0.436
Mof_C 	C 	0.5808	0.9032	0.0935	-0.393
Mof_N 	N 	0.567	0.904	0.0485	-0.016
Mof_H 	H 	0.0075	0.231	0.8026	0.151
Mof_H 	H 	0.0666	0.282	0.8153	0.153
Mof_H 	H 	0.0631	0.2294	0.7931	0.144
Mof_H 	H 	0.0797	0.1656	0.8526	0.157
Mof_H 	H 	0.1155	0.2243	0.8309	0.151
Mof_H 	H 	0.1129	0.2211	0.8785	0.162
Mof_C 	C 	0.045	0.242	0.8122	-0.399
Mof_C 	C 	0.092	0.205	0.854	-0.414
Mof_N 	N 	0.04	0.213	0.853	-0.028
Mof_H 	H 	0.5752	0.1362	0.8	0.154
Mof_H 	H 	0.5759	0.0964	0.8342	0.153
Mof_H 	H 	0.5291	0.0717	0.8003	0.155
Mof_H 	H 	0.4478	0.0645	0.881	0.133
Mof_H 	H 	0.4527	0.0327	0.8428	0.132
Mof_H 	H 	0.4953	0.048	0.8791	0.129
Mof_C 	C 	0.552	0.104	0.817	-0.398
Mof_C 	C 	0.474	0.061	0.863	-0.34
Mof_N 	N 	0.514	0.118	0.843	-0.038
Mof_H 	H 	0.3396	0.1927	0.175	0.161
Mof_H 	H 	0.2777	0.168	0.1583	0.161
Mof_H 	H 	0.3247	0.2295	0.1464	0.174
Mof_H 	H 	0.2376	0.2528	0.2061	0.18
Mof_H 	H 	0.2639	0.2583	0.1628	0.214
Mof_H 	H 	0.2174	0.1988	0.1789	0.181
Mof_C 	C 	0.311	0.202	0.1677	-0.403
Mof_C 	C 	0.2497	0.235	0.1864	-0.457
Mof_N 	N 	0.2954	0.225	0.2049	-0.015
Mof_H 	H 	0.2706	0.4237	0.7919	0.145
Mof_H 	H 	0.254	0.4704	0.7846	0.142
Mof_H 	H 	0.2134	0.408	0.7702	0.143
Mof_H 	H 	0.2648	0.4885	0.6845	0.154
Mof_H 	H 	0.2117	0.4526	0.7121	0.141
Mof_H 	H 	0.2596	0.5122	0.7267	0.145
Mof_C 	C 	0.252	0.437	0.7736	-0.377
Mof_C 	C 	0.2521	0.479	0.712	-0.367
Mof_N 	N 	0.2824	0.4509	0.7323	-0.028
Mof_H 	H 	0.0285	0.6316	0.0088	0.177
Mof_H 	H 	0.0106	0.6055	0.0525	0.185
Mof_H 	H 	0.023	0.6673	0.0441	0.179
Mof_H 	H 	0.1327	0.6871	0.1052	0.168
Mof_H 	H 	0.0907	0.7093	0.0959	0.162
Mof_H 	H 	0.0671	0.6455	0.1075	0.163
Mof_C 	C 	0.034	0.64	0.037	-0.436
Mof_C 	C 	0.0968	0.6776	0.0935	-0.393
Mof_N 	N 	0.096	0.663	0.0485	-0.016
Mof_H 	H 	0.769	0.7765	0.8026	0.151
Mof_H 	H 	0.718	0.7846	0.8153	0.153
Mof_H 	H 	0.7706	0.8337	0.7931	0.144
Mof_H 	H 	0.8344	0.9141	0.8526	0.157
Mof_H 	H 	0.7757	0.8912	0.8309	0.151
Mof_H 	H 	0.7789	0.8918	0.8785	0.162
Mof_C 	C 	0.758	0.803	0.8122	-0.399
Mof_C 	C 	0.795	0.887	0.854	-0.414
Mof_N 	N 	0.787	0.827	0.853	-0.028
Mof_H 	H 	0.8638	0.439	0.8	0.154
Mof_H 	H 	0.9036	0.4795	0.8342	0.153
Mof_H 	H 	0.9283	0.4574	0.8003	0.155
Mof_H 	H 	0.9355	0.3833	0.881	0.133
Mof_H 	H 	0.9673	0.42	0.8428	0.132
Mof_H 	H 	0.952	0.4473	0.8791	0.129
Mof_C 	C 	0.896	0.448	0.817	-0.398
Mof_C 	C 	0.939	0.413	0.863	-0.34
Mof_N 	N 	0.882	0.396	0.843	-0.038
Mof_H 	H 	0.8073	0.1469	0.175	0.161
Mof_H 	H 	0.832	0.1097	0.1583	0.161
Mof_H 	H 	0.7705	0.0952	0.1464	0.174
Mof_H 	H 	0.7472	0.9848	0.2061	0.18
Mof_H 	H 	0.7417	0.0056	0.1628	0.214
Mof_H 	H 	0.8012	0.0186	0.1789	0.182
Mof_C 	C 	0.798	0.109	0.1677	-0.403
Mof_C 	C 	0.765	0.0147	0.1864	-0.458
Mof_N 	N 	0.775	0.0704	0.2049	-0.015
Mof_H 	H 	0.5763	0.8469	0.7919	0.145
Mof_H 	H 	0.5296	0.7836	0.7846	0.142
Mof_H 	H 	0.592	0.8054	0.7702	0.143
Mof_H 	H 	0.5115	0.7763	0.6845	0.154
Mof_H 	H 	0.5474	0.7591	0.7121	0.141
Mof_H 	H 	0.4878	0.7474	0.7267	0.145
Mof_C 	C 	0.563	0.815	0.7736	-0.377
Mof_C 	C 	0.521	0.7731	0.712	-0.367
Mof_N 	N 	0.5491	0.8315	0.7323	-0.028
Mof_H 	H 	0.3684	0.3969	0.0088	0.177
Mof_H 	H 	0.3945	0.4051	0.0525	0.185
Mof_H 	H 	0.3327	0.3557	0.0441	0.179
Mof_H 	H 	0.3129	0.4456	0.1052	0.168
Mof_H 	H 	0.2907	0.3814	0.0959	0.162
Mof_H 	H 	0.3545	0.4216	0.1075	0.162
Mof_C 	C 	0.36	0.394	0.037	-0.436
Mof_C 	C 	0.3224	0.4192	0.0935	-0.393
Mof_N 	N 	0.337	0.433	0.0485	-0.016
Mof_H 	H 	0.2235	0.9925	0.8026	0.151
Mof_H 	H 	0.2154	0.9334	0.8153	0.153
Mof_H 	H 	0.1663	0.9369	0.7931	0.143
Mof_H 	H 	0.0859	0.9203	0.8526	0.157
Mof_H 	H 	0.1088	0.8845	0.8309	0.151
Mof_H 	H 	0.1082	0.8871	0.8785	0.162
Mof_C 	C 	0.197	0.955	0.8122	-0.399
Mof_C 	C 	0.113	0.908	0.854	-0.414
Mof_N 	N 	0.173	0.96	0.853	-0.029
Mof_H 	H 	0.561	0.4248	0.8	0.154
Mof_H 	H 	0.5205	0.4241	0.8342	0.153
Mof_H 	H 	0.5426	0.4709	0.8003	0.155
Mof_H 	H 	0.6167	0.5522	0.881	0.133
Mof_H 	H 	0.58	0.5473	0.8428	0.132
Mof_H 	H 	0.5527	0.5047	0.8791	0.129
Mof_C 	C 	0.552	0.448	0.817	-0.398
Mof_C 	C 	0.587	0.526	0.863	-0.34
Mof_N 	N 	0.604	0.486	0.843	-0.038
_end
