data_functionalizedCrystal
_audit_creation_method	'EQeq! by Chris Wilmer'
_symmetry_space_group_name_H-M	'P1'
_symmetry_Int_Tables_number	1
_symmetry_cell_setting	triclinic
loop_
_symmetry_equiv_pos_as_xyz
  x,y,z
_cell_length_a	13.7676
_cell_length_b	13.7676
_cell_length_c	28.0619
_cell_angle_alpha	90
_cell_angle_beta	90
_cell_angle_gamma	120
loop_
_atom_site_label
_atom_site_type_symbol
_atom_site_fract_x
_atom_site_fract_y
_atom_site_fract_z
_atom_site_charge
Mof_In	In	0.85316	0.5597	0.97537	3.053
Mof_P 	P 	0.97467	0.80914	0.91683	0.824
Mof_P 	P 	0.62942	0.50737	0.04011	0.748
Mof_O 	O 	0.0324	0.8888	0.95798	-0.61
Mof_O 	O 	0.7145	0.571	0.00162	-0.796
Mof_O 	O 	0.8788	0.6963	0.93218	-0.701
Mof_O 	O 	0.5627	0.5648	0.05146	-0.72
Mof_O 	O 	0.9308	0.854	0.87831	-0.398
Mof_O 	O 	0.7599	0.4479	0.9205	-0.728
Mof_O 	O 	0.556	0.3841	0.02968	-0.734
Mof_O 	O 	0.0903	0.9414	0.79524	-0.418
Mof_H 	H 	0.0506	0.8013	0.89	-0.164
Mof_O 	O 	0.6958	0.5084	0.0821	-0.266
Mof_In	In	0.4403	0.29346	0.97537	2.901
Mof_P 	P 	0.19086	0.16553	0.91683	0.579
Mof_P 	P 	0.49263	0.12205	0.04011	0.613
Mof_O 	O 	0.1112	0.1436	0.95798	-0.626
Mof_O 	O 	0.429	0.1435	0.00162	-0.809
Mof_O 	O 	0.3037	0.1825	0.93218	-0.707
Mof_O 	O 	0.4352	0.9979	0.05146	-0.581
Mof_O 	O 	0.146	0.0768	0.87831	-0.597
Mof_O 	O 	0.5521	0.312	0.9205	-0.73
Mof_O 	O 	0.6159	0.1719	0.02968	-0.728
Mof_O 	O 	0.0586	0.1489	0.79524	-0.597
Mof_H 	H 	0.1987	0.2493	0.89	-0.079
Mof_O 	O 	0.4916	0.1874	0.0821	-0.29
Mof_In	In	0.70654	0.14684	0.97537	2.801
Mof_P 	P 	0.83447	0.02533	0.91683	0.317
Mof_P 	P 	0.87795	0.37058	0.04011	0.883
Mof_O 	O 	0.8564	0.9676	0.95798	-0.322
Mof_O 	O 	0.8565	0.2855	0.00162	-0.754
Mof_O 	O 	0.8175	0.1212	0.93218	-0.63
Mof_O 	O 	0.0021	0.4373	0.05146	-0.858
Mof_O 	O 	0.9232	0.0692	0.87831	-0.412
Mof_O 	O 	0.688	0.2401	0.9205	-0.712
Mof_O 	O 	0.8281	0.444	0.02968	-0.744
Mof_O 	O 	0.8511	0.9097	0.79524	-0.393
Mof_H 	H 	0.7507	0.9494	0.89	0.073
Mof_O 	O 	0.8126	0.3042	0.0821	-0.279
Mof_In	In	0.14684	0.4403	0.47537	2.721
Mof_P 	P 	0.02533	0.19086	0.41683	0.296
Mof_P 	P 	0.37058	0.49263	0.54011	0.743
Mof_O 	O 	0.9676	0.1112	0.45798	-0.422
Mof_O 	O 	0.2855	0.429	0.50162	-0.76
Mof_O 	O 	0.1212	0.3037	0.43218	-0.652
Mof_O 	O 	0.4373	0.4352	0.55146	-0.72
Mof_O 	O 	0.0692	0.146	0.37831	-0.543
Mof_O 	O 	0.2401	0.5521	0.4205	-0.712
Mof_O 	O 	0.444	0.6159	0.52968	-0.722
Mof_O 	O 	0.9097	0.0586	0.29524	-0.506
Mof_H 	H 	0.9494	0.1987	0.39	0.065
Mof_O 	O 	0.3042	0.4916	0.5821	-0.289
Mof_In	In	0.5597	0.70654	0.47537	2.885
Mof_P 	P 	0.80914	0.83447	0.41683	0.577
Mof_P 	P 	0.50737	0.87795	0.54011	0.879
Mof_O 	O 	0.8888	0.8564	0.45798	-0.447
Mof_O 	O 	0.571	0.8565	0.50162	-0.751
Mof_O 	O 	0.6963	0.8175	0.43218	-0.652
Mof_O 	O 	0.5648	0.0021	0.55146	-0.861
Mof_O 	O 	0.854	0.9232	0.37831	-0.349
Mof_O 	O 	0.4479	0.688	0.4205	-0.712
Mof_O 	O 	0.3841	0.8281	0.52968	-0.726
Mof_O 	O 	0.9414	0.8511	0.29524	-0.349
Mof_H 	H 	0.8013	0.7507	0.39	-0.04
Mof_O 	O 	0.5084	0.8126	0.5821	-0.266
Mof_In	In	0.29346	0.85316	0.47537	2.985
Mof_P 	P 	0.16553	0.97467	0.41683	0.863
Mof_P 	P 	0.12205	0.62942	0.54011	0.613
Mof_O 	O 	0.1436	0.0324	0.45798	-0.762
Mof_O 	O 	0.1435	0.7145	0.50162	-0.799
Mof_O 	O 	0.1825	0.8788	0.43218	-0.728
Mof_O 	O 	0.9979	0.5627	0.55146	-0.587
Mof_O 	O 	0.0768	0.9308	0.37831	-0.516
Mof_O 	O 	0.312	0.7599	0.4205	-0.729
Mof_O 	O 	0.1719	0.556	0.52968	-0.71
Mof_O 	O 	0.1489	0.0903	0.29524	-0.552
Mof_H 	H 	0.2493	0.0506	0.39	-0.202
Mof_O 	O 	0.1874	0.6958	0.5821	-0.275
Mof_In	In	0.14684	0.4403	0.02463	2.647
Mof_P 	P 	0.02533	0.19086	0.08317	0.287
Mof_P 	P 	0.37058	0.49263	0.95989	0.741
Mof_O 	O 	0.9676	0.1112	0.04202	-0.411
Mof_O 	O 	0.2855	0.429	0.99838	-0.735
Mof_O 	O 	0.1212	0.3037	0.06782	-0.646
Mof_O 	O 	0.4373	0.4352	0.94854	-0.722
Mof_O 	O 	0.0692	0.146	0.12169	-0.542
Mof_O 	O 	0.2401	0.5521	0.0795	-0.705
Mof_O 	O 	0.444	0.6159	0.97032	-0.701
Mof_O 	O 	0.9097	0.0586	0.20476	-0.505
Mof_H 	H 	0.9494	0.1987	0.11	0.068
Mof_O 	O 	0.3042	0.4916	0.9179	-0.287
Mof_In	In	0.5597	0.70654	0.02463	2.816
Mof_P 	P 	0.80914	0.83447	0.08317	0.573
Mof_P 	P 	0.50737	0.87795	0.95989	0.878
Mof_O 	O 	0.8888	0.8564	0.04202	-0.442
Mof_O 	O 	0.571	0.8565	0.99838	-0.726
Mof_O 	O 	0.6963	0.8175	0.06782	-0.647
Mof_O 	O 	0.5648	0.0021	0.94854	-0.864
Mof_O 	O 	0.854	0.9232	0.12169	-0.349
Mof_O 	O 	0.4479	0.688	0.0795	-0.705
Mof_O 	O 	0.3841	0.8281	0.97032	-0.703
Mof_O 	O 	0.9414	0.8511	0.20476	-0.349
Mof_H 	H 	0.8013	0.7507	0.11	-0.039
Mof_O 	O 	0.5084	0.8126	0.9179	-0.263
Mof_In	In	0.29346	0.85316	0.02463	2.904
Mof_P 	P 	0.16553	0.97467	0.08317	0.853
Mof_P 	P 	0.12205	0.62942	0.95989	0.614
Mof_O 	O 	0.1436	0.0324	0.04202	-0.755
Mof_O 	O 	0.1435	0.7145	0.99838	-0.771
Mof_O 	O 	0.1825	0.8788	0.06782	-0.722
Mof_O 	O 	0.9979	0.5627	0.94854	-0.594
Mof_O 	O 	0.0768	0.9308	0.12169	-0.516
Mof_O 	O 	0.312	0.7599	0.0795	-0.721
Mof_O 	O 	0.1719	0.556	0.97032	-0.688
Mof_O 	O 	0.1489	0.0903	0.20476	-0.552
Mof_H 	H 	0.2493	0.0506	0.11	-0.199
Mof_O 	O 	0.1874	0.6958	0.9179	-0.272
Mof_In	In	0.85316	0.5597	0.52463	2.997
Mof_P 	P 	0.97467	0.80914	0.58317	0.83
Mof_P 	P 	0.62942	0.50737	0.45989	0.746
Mof_O 	O 	0.0324	0.8888	0.54202	-0.638
Mof_O 	O 	0.7145	0.571	0.49838	-0.779
Mof_O 	O 	0.8788	0.6963	0.56782	-0.7
Mof_O 	O 	0.5627	0.5648	0.44854	-0.724
Mof_O 	O 	0.9308	0.854	0.62169	-0.399
Mof_O 	O 	0.7599	0.4479	0.5795	-0.722
Mof_O 	O 	0.556	0.3841	0.47032	-0.717
Mof_O 	O 	0.0903	0.9414	0.70476	-0.418
Mof_H 	H 	0.0506	0.8013	0.61	-0.168
Mof_O 	O 	0.6958	0.5084	0.4179	-0.265
Mof_In	In	0.4403	0.29346	0.52463	2.839
Mof_P 	P 	0.19086	0.16553	0.58317	0.58
Mof_P 	P 	0.49263	0.12205	0.45989	0.609
Mof_O 	O 	0.1112	0.1436	0.54202	-0.648
Mof_O 	O 	0.429	0.1435	0.49838	-0.791
Mof_O 	O 	0.3037	0.1825	0.56782	-0.705
Mof_O 	O 	0.4352	0.9979	0.44854	-0.583
Mof_O 	O 	0.146	0.0768	0.62169	-0.598
Mof_O 	O 	0.5521	0.312	0.5795	-0.724
Mof_O 	O 	0.6159	0.1719	0.47032	-0.713
Mof_O 	O 	0.0586	0.1489	0.70476	-0.597
Mof_H 	H 	0.1987	0.2493	0.61	-0.08
Mof_O 	O 	0.4916	0.1874	0.4179	-0.288
Mof_In	In	0.70654	0.14684	0.52463	2.751
Mof_P 	P 	0.83447	0.02533	0.58317	0.321
Mof_P 	P 	0.87795	0.37058	0.45989	0.879
Mof_O 	O 	0.8564	0.9676	0.54202	-0.343
Mof_O 	O 	0.8565	0.2855	0.49838	-0.739
Mof_O 	O 	0.8175	0.1212	0.56782	-0.627
Mof_O 	O 	0.0021	0.4373	0.44854	-0.86
Mof_O 	O 	0.9232	0.0692	0.62169	-0.411
Mof_O 	O 	0.688	0.2401	0.5795	-0.707
Mof_O 	O 	0.8281	0.444	0.47032	-0.729
Mof_O 	O 	0.8511	0.9097	0.70476	-0.392
Mof_H 	H 	0.7507	0.9494	0.61	0.071
Mof_O 	O 	0.8126	0.3042	0.4179	-0.278
Mof_In	In	-0	0	-0	1.678
Mof_In	In	-0	0	0.5	1.761
Mof_In	In	-2.19203e-32	4.38406e-32	0.83559	1.777
Mof_In	In	5.48007e-33	0	0.33559	1.77
Mof_In	In	2.74004e-33	5.48007e-33	0.16441	1.769
Mof_In	In	-0	0	0.66441	1.771
Mof_P 	P 	0.66667	0.33333	0.90764	0.726
Mof_H 	H 	0.66667	0.33333	0.8606	-0.048
Mof_P 	P 	0.33333	0.66667	0.40764	0.718
Mof_H 	H 	0.33333	0.66667	0.3606	-0.047
Mof_P 	P 	0.33333	0.66667	0.09236	0.709
Mof_H 	H 	0.33333	0.66667	0.1394	-0.045
Mof_P 	P 	0.66667	0.33333	0.59236	0.718
Mof_H 	H 	0.66667	0.33333	0.6394	-0.047
Mof_P 	P 	0.07277	0.8761	0.75	0.53
Mof_O 	O 	0.15297	0.828	0.75	-0.415
Mof_O 	O 	0.9627	0.7734	0.75	-0.111
Mof_H 	H 	0.1517	0.7681	0.75	0.267
Mof_P 	P 	0.1239	0.19667	0.75	0.676
Mof_O 	O 	0.172	0.32497	0.75	-0.498
Mof_O 	O 	0.2266	0.1893	0.75	-0.311
Mof_H 	H 	0.2319	0.3836	0.75	0.31
Mof_P 	P 	0.80333	0.92723	0.75	0.823
Mof_O 	O 	0.67503	0.84703	0.75	-0.478
Mof_O 	O 	0.8107	0.0373	0.75	-0.365
Mof_H 	H 	0.6164	0.8483	0.75	0.353
Mof_P 	P 	0.92723	0.1239	0.25	0.838
Mof_O 	O 	0.84703	0.172	0.25	-0.512
Mof_O 	O 	0.0373	0.2266	0.25	-0.428
Mof_H 	H 	0.8483	0.2319	0.25	0.355
Mof_P 	P 	0.8761	0.80333	0.25	0.674
Mof_O 	O 	0.828	0.67503	0.25	-0.431
Mof_O 	O 	0.7734	0.8107	0.25	-0.215
Mof_H 	H 	0.7681	0.6164	0.25	0.31
Mof_P 	P 	0.19667	0.07277	0.25	0.516
Mof_O 	O 	0.32497	0.15297	0.25	-0.449
Mof_O 	O 	0.1893	0.9627	0.25	-0.141
Mof_H 	H 	0.3836	0.1517	0.25	0.265
_end
