data_functionalizedCrystal
_audit_creation_method	'EQeq! by Chris Wilmer'
_symmetry_space_group_name_H-M	'P1'
_symmetry_Int_Tables_number	1
_symmetry_cell_setting	triclinic
loop_
_symmetry_equiv_pos_as_xyz
  x,y,z
_cell_length_a	23.9937
_cell_length_b	23.9937
_cell_length_c	12.8101
_cell_angle_alpha	90
_cell_angle_beta	90
_cell_angle_gamma	120
loop_
_atom_site_label
_atom_site_type_symbol
_atom_site_fract_x
_atom_site_fract_y
_atom_site_fract_z
_atom_site_charge
Mof_O 	O 	0.2808	0.5822	0.3133	-0.336
Mof_N 	N 	0.2182	0.5449	0.2944	-0.081
Mof_C 	C 	0.1928	0.4808	0.2911	0.122
Mof_H 	H 	0.2191	0.4631	0.3029	0.003
Mof_C 	C 	0.128	0.4405	0.2702	-0.236
Mof_H 	H 	0.1116	0.3963	0.2652	0.116
Mof_C 	C 	0.0865	0.4657	0.2566	0.261
Mof_C 	C 	0.1165	0.5326	0.2661	-0.234
Mof_H 	H 	0.0908	0.5514	0.2619	0.113
Mof_C 	C 	0.1824	0.573	0.2815	0.117
Mof_H 	H 	0.2008	0.6175	0.2827	-0.002
Mof_C 	C 	0.0215	0.4289	0.2027	-0.204
Mof_C 	C 	0.0186	0.4256	0.2998	-0.26
Mof_O 	O 	0.94747	0.91553	0.64663	-0.295
Mof_N 	N 	0.88487	0.87823	0.62773	-0.062
Mof_C 	C 	0.85947	0.81413	0.62443	0.067
Mof_H 	H 	0.88577	0.79643	0.63623	0.025
Mof_C 	C 	0.79467	0.77383	0.60353	-0.132
Mof_H 	H 	0.77827	0.72963	0.59853	0.078
Mof_C 	C 	0.75317	0.79903	0.58993	0.081
Mof_C 	C 	0.78317	0.86593	0.59943	-0.127
Mof_H 	H 	0.75747	0.88473	0.59523	0.079
Mof_C 	C 	0.84907	0.90633	0.61483	0.063
Mof_H 	H 	0.86747	0.95083	0.61603	0.029
Mof_C 	C 	0.68817	0.76223	0.53603	0.017
Mof_C 	C 	0.68527	0.75893	0.63313	-0.053
Mof_O 	O 	0.61413	0.24887	0.97997	-0.339
Mof_N 	N 	0.55153	0.21157	0.96107	-0.064
Mof_C 	C 	0.52613	0.14747	0.95777	0.072
Mof_H 	H 	0.55243	0.12977	0.96957	0.018
Mof_C 	C 	0.46133	0.10717	0.93687	-0.146
Mof_H 	H 	0.44493	0.06297	0.93187	0.078
Mof_C 	C 	0.41983	0.13237	0.92327	0.105
Mof_C 	C 	0.44983	0.19927	0.93277	-0.143
Mof_H 	H 	0.42413	0.21807	0.92857	0.082
Mof_C 	C 	0.51573	0.23967	0.94817	0.068
Mof_H 	H 	0.53413	0.28417	0.94937	0.015
Mof_C 	C 	0.35483	0.09557	0.86937	-0.02
Mof_C 	C 	0.35193	0.09227	0.96647	-0.082
Mof_O 	O 	0.4178	0.6986	0.3133	-0.339
Mof_N 	N 	0.4551	0.6733	0.2944	-0.061
Mof_C 	C 	0.5192	0.712	0.2911	0.065
Mof_H 	H 	0.5369	0.756	0.3029	0.023
Mof_C 	C 	0.5595	0.6875	0.2702	-0.132
Mof_H 	H 	0.6037	0.7153	0.2652	0.078
Mof_C 	C 	0.5343	0.6208	0.2566	0.08
Mof_C 	C 	0.4674	0.5839	0.2661	-0.128
Mof_H 	H 	0.4486	0.5394	0.2619	0.076
Mof_C 	C 	0.427	0.6094	0.2815	0.06
Mof_H 	H 	0.3825	0.5833	0.2827	0.018
Mof_C 	C 	0.5711	0.5926	0.2027	0.016
Mof_C 	C 	0.5744	0.593	0.2998	-0.052
Mof_O 	O 	0.08447	0.03193	0.64663	-0.333
Mof_N 	N 	0.12177	0.00663	0.62773	-0.096
Mof_C 	C 	0.18587	0.04533	0.62443	0.103
Mof_H 	H 	0.20357	0.08933	0.63623	0.008
Mof_C 	C 	0.22617	0.02083	0.60353	-0.223
Mof_H 	H 	0.27037	0.04863	0.59853	0.102
Mof_C 	C 	0.20097	0.95413	0.58993	0.171
Mof_C 	C 	0.13407	0.91723	0.59943	-0.189
Mof_H 	H 	0.11527	0.87273	0.59523	0.095
Mof_C 	C 	0.09367	0.94273	0.61483	0.131
Mof_H 	H 	0.04917	0.91663	0.61603	-0.008
Mof_C 	C 	0.23777	0.92593	0.53603	-0.019
Mof_C 	C 	0.24107	0.92633	0.63313	-0.087
Mof_O 	O 	0.75113	0.36527	0.97997	-0.338
Mof_N 	N 	0.78843	0.33997	0.96107	-0.058
Mof_C 	C 	0.85253	0.37867	0.95777	0.058
Mof_H 	H 	0.87023	0.42267	0.96957	0.026
Mof_C 	C 	0.89283	0.35417	0.93687	-0.117
Mof_H 	H 	0.93703	0.38197	0.93187	0.079
Mof_C 	C 	0.86763	0.28747	0.92327	0.053
Mof_C 	C 	0.80073	0.25057	0.93277	-0.111
Mof_H 	H 	0.78193	0.20607	0.92857	0.069
Mof_C 	C 	0.76033	0.27607	0.94817	0.051
Mof_H 	H 	0.71583	0.24997	0.94937	0.02
Mof_C 	C 	0.90443	0.25927	0.86937	0.052
Mof_C 	C 	0.90773	0.25967	0.96647	-0.018
Mof_O 	O 	0.3014	0.7192	0.3133	-0.341
Mof_N 	N 	0.3267	0.7818	0.2944	-0.039
Mof_C 	C 	0.288	0.8072	0.2911	0.008
Mof_H 	H 	0.244	0.7809	0.3029	0.041
Mof_C 	C 	0.3125	0.872	0.2702	-0.024
Mof_H 	H 	0.2847	0.8884	0.2652	0.04
Mof_C 	C 	0.3792	0.9135	0.2566	-0.105
Mof_C 	C 	0.4161	0.8835	0.2661	-0.017
Mof_H 	H 	0.4606	0.9092	0.2619	0.039
Mof_C 	C 	0.3906	0.8176	0.2815	0.002
Mof_H 	H 	0.4167	0.7992	0.2827	0.039
Mof_C 	C 	0.4074	0.9785	0.2027	0.235
Mof_C 	C 	0.407	0.9814	0.2998	0.17
Mof_O 	O 	0.96807	0.05253	0.64663	-0.317
Mof_N 	N 	0.99337	0.11513	0.62773	-0.028
Mof_C 	C 	0.95467	0.14053	0.62443	0.028
Mof_H 	H 	0.91067	0.11423	0.63623	0.033
Mof_C 	C 	0.97917	0.20533	0.60353	-0.041
Mof_H 	H 	0.95137	0.22173	0.59853	0.054
Mof_C 	C 	0.04587	0.24683	0.58993	-0.011
Mof_C 	C 	0.08277	0.21683	0.59943	-0.067
Mof_H 	H 	0.12727	0.24253	0.59523	0.055
Mof_C 	C 	0.05727	0.15093	0.61483	-0.009
Mof_H 	H 	0.08337	0.13253	0.61603	0.04
Mof_C 	C 	0.07407	0.31183	0.53603	0.048
Mof_C 	C 	0.07367	0.31473	0.63313	-0.015
Mof_O 	O 	0.63473	0.38587	0.97997	-0.338
Mof_N 	N 	0.66003	0.44847	0.96107	-0.061
Mof_C 	C 	0.62133	0.47387	0.95777	0.065
Mof_H 	H 	0.57733	0.44757	0.96957	0.022
Mof_C 	C 	0.64583	0.53867	0.93687	-0.132
Mof_H 	H 	0.61803	0.55507	0.93187	0.078
Mof_C 	C 	0.71253	0.58017	0.92327	0.08
Mof_C 	C 	0.74943	0.55017	0.93277	-0.128
Mof_H 	H 	0.79393	0.57587	0.92857	0.077
Mof_C 	C 	0.72393	0.48427	0.94817	0.061
Mof_H 	H 	0.75003	0.46587	0.94937	0.018
Mof_C 	C 	0.74073	0.64517	0.86937	0.017
Mof_C 	C 	0.74033	0.64807	0.96647	-0.053
Mof_O 	O 	0.5822	0.2808	0.1867	-0.337
Mof_N 	N 	0.5449	0.2182	0.2056	-0.083
Mof_C 	C 	0.4808	0.1928	0.2089	0.123
Mof_H 	H 	0.4631	0.2191	0.1971	0.002
Mof_C 	C 	0.4405	0.128	0.2298	-0.24
Mof_H 	H 	0.3963	0.1116	0.2348	0.117
Mof_C 	C 	0.4657	0.0865	0.2434	0.265
Mof_C 	C 	0.5326	0.1165	0.2339	-0.238
Mof_H 	H 	0.5514	0.0908	0.2381	0.113
Mof_C 	C 	0.573	0.1824	0.2185	0.118
Mof_H 	H 	0.6175	0.2008	0.2173	-0.003
Mof_C 	C 	0.4289	0.0215	0.2973	-0.207
Mof_C 	C 	0.4256	0.0186	0.2002	-0.271
Mof_O 	O 	0.24887	0.61413	0.52003	-0.339
Mof_N 	N 	0.21157	0.55153	0.53893	-0.064
Mof_C 	C 	0.14747	0.52613	0.54223	0.073
Mof_H 	H 	0.12977	0.55243	0.53043	0.018
Mof_C 	C 	0.10717	0.46133	0.56313	-0.147
Mof_H 	H 	0.06297	0.44493	0.56813	0.078
Mof_C 	C 	0.13237	0.41983	0.57673	0.106
Mof_C 	C 	0.19927	0.44983	0.56723	-0.143
Mof_H 	H 	0.21807	0.42413	0.57143	0.082
Mof_C 	C 	0.23967	0.51573	0.55183	0.068
Mof_H 	H 	0.28417	0.53413	0.55063	0.015
Mof_C 	C 	0.09557	0.35483	0.63063	-0.022
Mof_C 	C 	0.09227	0.35193	0.53353	-0.083
Mof_O 	O 	0.91553	0.94747	0.85337	-0.296
Mof_N 	N 	0.87823	0.88487	0.87227	-0.063
Mof_C 	C 	0.81413	0.85947	0.87557	0.067
Mof_H 	H 	0.79643	0.88577	0.86377	0.025
Mof_C 	C 	0.77383	0.79467	0.89647	-0.132
Mof_H 	H 	0.72963	0.77827	0.90147	0.078
Mof_C 	C 	0.79903	0.75317	0.91007	0.081
Mof_C 	C 	0.86593	0.78317	0.90057	-0.127
Mof_H 	H 	0.88473	0.75747	0.90477	0.079
Mof_C 	C 	0.90633	0.84907	0.88517	0.063
Mof_H 	H 	0.95083	0.86747	0.88397	0.029
Mof_C 	C 	0.76223	0.68817	0.96397	0.017
Mof_C 	C 	0.75893	0.68527	0.86687	-0.053
Mof_O 	O 	0.6986	0.4178	0.1867	-0.339
Mof_N 	N 	0.6733	0.4551	0.2056	-0.061
Mof_C 	C 	0.712	0.5192	0.2089	0.065
Mof_H 	H 	0.756	0.5369	0.1971	0.022
Mof_C 	C 	0.6875	0.5595	0.2298	-0.132
Mof_H 	H 	0.7153	0.6037	0.2348	0.078
Mof_C 	C 	0.6208	0.5343	0.2434	0.08
Mof_C 	C 	0.5839	0.4674	0.2339	-0.128
Mof_H 	H 	0.5394	0.4486	0.2381	0.076
Mof_C 	C 	0.6094	0.427	0.2185	0.06
Mof_H 	H 	0.5833	0.3825	0.2173	0.018
Mof_C 	C 	0.5926	0.5711	0.2973	0.016
Mof_C 	C 	0.593	0.5744	0.2002	-0.052
Mof_O 	O 	0.36527	0.75113	0.52003	-0.339
Mof_N 	N 	0.33997	0.78843	0.53893	-0.058
Mof_C 	C 	0.37867	0.85253	0.54223	0.058
Mof_H 	H 	0.42267	0.87023	0.53043	0.026
Mof_C 	C 	0.35417	0.89283	0.56313	-0.117
Mof_H 	H 	0.38197	0.93703	0.56813	0.079
Mof_C 	C 	0.28747	0.86763	0.57673	0.053
Mof_C 	C 	0.25057	0.80073	0.56723	-0.111
Mof_H 	H 	0.20607	0.78193	0.57143	0.069
Mof_C 	C 	0.27607	0.76033	0.55183	0.051
Mof_H 	H 	0.24997	0.71583	0.55063	0.02
Mof_C 	C 	0.25927	0.90443	0.63063	0.051
Mof_C 	C 	0.25967	0.90773	0.53353	-0.019
Mof_O 	O 	0.03193	0.08447	0.85337	-0.332
Mof_N 	N 	0.00663	0.12177	0.87227	-0.097
Mof_C 	C 	0.04533	0.18587	0.87557	0.104
Mof_H 	H 	0.08933	0.20357	0.86377	0.008
Mof_C 	C 	0.02083	0.22617	0.89647	-0.224
Mof_H 	H 	0.04863	0.27037	0.90147	0.103
Mof_C 	C 	0.95413	0.20097	0.91007	0.172
Mof_C 	C 	0.91723	0.13407	0.90057	-0.19
Mof_H 	H 	0.87273	0.11527	0.90477	0.096
Mof_C 	C 	0.94273	0.09367	0.88517	0.132
Mof_H 	H 	0.91663	0.04917	0.88397	-0.008
Mof_C 	C 	0.92593	0.23777	0.96397	-0.019
Mof_C 	C 	0.92633	0.24107	0.86687	-0.088
Mof_O 	O 	0.7192	0.3014	0.1867	-0.341
Mof_N 	N 	0.7818	0.3267	0.2056	-0.04
Mof_C 	C 	0.8072	0.288	0.2089	0.01
Mof_H 	H 	0.7809	0.244	0.1971	0.041
Mof_C 	C 	0.872	0.3125	0.2298	-0.027
Mof_H 	H 	0.8884	0.2847	0.2348	0.041
Mof_C 	C 	0.9135	0.3792	0.2434	-0.1
Mof_C 	C 	0.8835	0.4161	0.2339	-0.021
Mof_H 	H 	0.9092	0.4606	0.2381	0.04
Mof_C 	C 	0.8176	0.3906	0.2185	0.004
Mof_H 	H 	0.7992	0.4167	0.2173	0.038
Mof_C 	C 	0.9785	0.4074	0.2973	0.226
Mof_C 	C 	0.9814	0.407	0.2002	0.167
Mof_O 	O 	0.38587	0.63473	0.52003	-0.339
Mof_N 	N 	0.44847	0.66003	0.53893	-0.061
Mof_C 	C 	0.47387	0.62133	0.54223	0.065
Mof_H 	H 	0.44757	0.57733	0.53043	0.022
Mof_C 	C 	0.53867	0.64583	0.56313	-0.132
Mof_H 	H 	0.55507	0.61803	0.56813	0.078
Mof_C 	C 	0.58017	0.71253	0.57673	0.08
Mof_C 	C 	0.55017	0.74943	0.56723	-0.128
Mof_H 	H 	0.57587	0.79393	0.57143	0.077
Mof_C 	C 	0.48427	0.72393	0.55183	0.061
Mof_H 	H 	0.46587	0.75003	0.55063	0.018
Mof_C 	C 	0.64517	0.74073	0.63063	0.017
Mof_C 	C 	0.64807	0.74033	0.53353	-0.053
Mof_O 	O 	0.05253	0.96807	0.85337	-0.318
Mof_N 	N 	0.11513	0.99337	0.87227	-0.029
Mof_C 	C 	0.14053	0.95467	0.87557	0.029
Mof_H 	H 	0.11423	0.91067	0.86377	0.032
Mof_C 	C 	0.20533	0.97917	0.89647	-0.044
Mof_H 	H 	0.22173	0.95137	0.90147	0.055
Mof_C 	C 	0.24683	0.04587	0.91007	-0.007
Mof_C 	C 	0.21683	0.08277	0.90057	-0.069
Mof_H 	H 	0.24253	0.12727	0.90477	0.056
Mof_C 	C 	0.15093	0.05727	0.88517	-0.006
Mof_H 	H 	0.13253	0.08337	0.88397	0.039
Mof_C 	C 	0.31183	0.07407	0.96397	0.048
Mof_C 	C 	0.31473	0.07367	0.86687	-0.017
Mof_Yb	Yb	0.66667	0.33333	0.08333	1.775
Mof_Yb	Yb	-3.95251e-33	0	0.75	1.612
Mof_Yb	Yb	0.33333	0.66667	0.41667	1.777
Mof_O 	O 	0.7192	0.4178	0.6867	-0.341
Mof_N 	N 	0.7818	0.4551	0.7056	-0.04
Mof_C 	C 	0.8072	0.5192	0.7089	0.01
Mof_H 	H 	0.7809	0.5369	0.6971	0.041
Mof_C 	C 	0.872	0.5595	0.7298	-0.028
Mof_H 	H 	0.8884	0.6037	0.7348	0.041
Mof_C 	C 	0.9135	0.5343	0.7434	-0.098
Mof_C 	C 	0.8835	0.4674	0.7339	-0.022
Mof_H 	H 	0.9092	0.4486	0.7381	0.041
Mof_C 	C 	0.8176	0.427	0.7185	0.005
Mof_H 	H 	0.7992	0.3825	0.7173	0.038
Mof_C 	C 	0.9785	0.5711	0.7973	0.227
Mof_C 	C 	0.9814	0.5744	0.7002	0.162
Mof_O 	O 	0.38587	0.75113	0.02003	-0.338
Mof_N 	N 	0.44847	0.78843	0.03893	-0.058
Mof_C 	C 	0.47387	0.85253	0.04223	0.059
Mof_H 	H 	0.44757	0.87023	0.03043	0.026
Mof_C 	C 	0.53867	0.89283	0.06313	-0.119
Mof_H 	H 	0.55507	0.93703	0.06813	0.079
Mof_C 	C 	0.58017	0.86763	0.07673	0.057
Mof_C 	C 	0.55017	0.80073	0.06723	-0.114
Mof_H 	H 	0.57587	0.78193	0.07143	0.071
Mof_C 	C 	0.48427	0.76033	0.05183	0.053
Mof_H 	H 	0.46587	0.71583	0.05063	0.021
Mof_C 	C 	0.64517	0.90443	0.13063	0.049
Mof_C 	C 	0.64807	0.90773	0.03353	-0.024
Mof_O 	O 	0.05253	0.08447	0.35337	-0.337
Mof_N 	N 	0.11513	0.12177	0.37227	-0.063
Mof_C 	C 	0.14053	0.18587	0.37557	0.065
Mof_H 	H 	0.11423	0.20357	0.36377	0.018
Mof_C 	C 	0.20533	0.22617	0.39647	-0.133
Mof_H 	H 	0.22173	0.27037	0.40147	0.078
Mof_C 	C 	0.24683	0.20097	0.41007	0.081
Mof_C 	C 	0.21683	0.13407	0.40057	-0.129
Mof_H 	H 	0.24253	0.11527	0.40477	0.074
Mof_C 	C 	0.15093	0.09367	0.38517	0.061
Mof_H 	H 	0.13253	0.04917	0.38397	0.01
Mof_C 	C 	0.31183	0.23777	0.46397	0.013
Mof_C 	C 	0.31473	0.24107	0.36687	-0.051
Mof_O 	O 	0.5822	0.3014	0.6867	-0.339
Mof_N 	N 	0.5449	0.3267	0.7056	-0.061
Mof_C 	C 	0.4808	0.288	0.7089	0.066
Mof_H 	H 	0.4631	0.244	0.6971	0.021
Mof_C 	C 	0.4405	0.3125	0.7298	-0.132
Mof_H 	H 	0.3963	0.2847	0.7348	0.078
Mof_C 	C 	0.4657	0.3792	0.7434	0.08
Mof_C 	C 	0.5326	0.4161	0.7339	-0.128
Mof_H 	H 	0.5514	0.4606	0.7381	0.076
Mof_C 	C 	0.573	0.3906	0.7185	0.06
Mof_H 	H 	0.6175	0.4167	0.7173	0.018
Mof_C 	C 	0.4289	0.4074	0.7973	0.015
Mof_C 	C 	0.4256	0.407	0.7002	-0.051
Mof_O 	O 	0.24887	0.63473	0.02003	-0.339
Mof_N 	N 	0.21157	0.66003	0.03893	-0.064
Mof_C 	C 	0.14747	0.62133	0.04223	0.071
Mof_H 	H 	0.12977	0.57733	0.03043	0.019
Mof_C 	C 	0.10717	0.64583	0.06313	-0.144
Mof_H 	H 	0.06297	0.61803	0.06813	0.077
Mof_C 	C 	0.13237	0.71253	0.07673	0.102
Mof_C 	C 	0.19927	0.74943	0.06723	-0.141
Mof_H 	H 	0.21807	0.79393	0.07143	0.083
Mof_C 	C 	0.23967	0.72393	0.05183	0.068
Mof_H 	H 	0.28417	0.75003	0.05063	0.016
Mof_C 	C 	0.09557	0.74073	0.13063	-0.014
Mof_C 	C 	0.09227	0.74033	0.03353	-0.079
Mof_O 	O 	0.91553	0.96807	0.35337	-0.3
Mof_N 	N 	0.87823	0.99337	0.37227	-0.034
Mof_C 	C 	0.81413	0.95467	0.37557	0.034
Mof_H 	H 	0.79643	0.91067	0.36377	0.034
Mof_C 	C 	0.77383	0.97917	0.39647	-0.053
Mof_H 	H 	0.72963	0.95137	0.40147	0.058
Mof_C 	C 	0.79903	0.04587	0.41007	0.002
Mof_C 	C 	0.86593	0.08277	0.40057	-0.075
Mof_H 	H 	0.88473	0.12727	0.40477	0.061
Mof_C 	C 	0.90633	0.05727	0.38517	0.002
Mof_H 	H 	0.95083	0.08337	0.38397	0.047
Mof_C 	C 	0.76223	0.07407	0.46397	0.046
Mof_C 	C 	0.75893	0.07367	0.36687	-0.021
Mof_O 	O 	0.6986	0.2808	0.6867	-0.337
Mof_N 	N 	0.6733	0.2182	0.7056	-0.081
Mof_C 	C 	0.712	0.1928	0.7089	0.119
Mof_H 	H 	0.756	0.2191	0.6971	0.004
Mof_C 	C 	0.6875	0.128	0.7298	-0.233
Mof_H 	H 	0.7153	0.1116	0.7348	0.114
Mof_C 	C 	0.6208	0.0865	0.7434	0.253
Mof_C 	C 	0.5839	0.1165	0.7339	-0.231
Mof_H 	H 	0.5394	0.0908	0.7381	0.11
Mof_C 	C 	0.6094	0.1824	0.7185	0.114
Mof_H 	H 	0.5833	0.2008	0.7173	-0.002
Mof_C 	C 	0.5926	0.0215	0.7973	-0.196
Mof_C 	C 	0.593	0.0186	0.7002	-0.253
Mof_O 	O 	0.36527	0.61413	0.02003	-0.339
Mof_N 	N 	0.33997	0.55153	0.03893	-0.061
Mof_C 	C 	0.37867	0.52613	0.04223	0.065
Mof_H 	H 	0.42267	0.55243	0.03043	0.022
Mof_C 	C 	0.35417	0.46133	0.06313	-0.132
Mof_H 	H 	0.38197	0.44493	0.06813	0.078
Mof_C 	C 	0.28747	0.41983	0.07673	0.079
Mof_C 	C 	0.25057	0.44983	0.06723	-0.127
Mof_H 	H 	0.20607	0.42413	0.07143	0.075
Mof_C 	C 	0.27607	0.51573	0.05183	0.06
Mof_H 	H 	0.24997	0.53413	0.05063	0.017
Mof_C 	C 	0.25927	0.35483	0.13063	0.015
Mof_C 	C 	0.25967	0.35193	0.03353	-0.05
Mof_O 	O 	0.03193	0.94747	0.35337	-0.309
Mof_N 	N 	0.00663	0.88487	0.37227	-0.092
Mof_C 	C 	0.04533	0.85947	0.37557	0.099
Mof_H 	H 	0.08933	0.88577	0.36377	0.013
Mof_C 	C 	0.02083	0.79467	0.39647	-0.211
Mof_H 	H 	0.04863	0.77827	0.40147	0.099
Mof_C 	C 	0.95413	0.75317	0.41007	0.158
Mof_C 	C 	0.91723	0.78317	0.40057	-0.18
Mof_H 	H 	0.87273	0.75747	0.40477	0.095
Mof_C 	C 	0.94273	0.84907	0.38517	0.121
Mof_H 	H 	0.91663	0.86747	0.38397	0.004
Mof_C 	C 	0.92593	0.68817	0.46397	-0.013
Mof_C 	C 	0.92633	0.68527	0.36687	-0.083
Mof_O 	O 	0.4178	0.7192	0.8133	-0.341
Mof_N 	N 	0.4551	0.7818	0.7944	-0.041
Mof_C 	C 	0.5192	0.8072	0.7911	0.012
Mof_H 	H 	0.5369	0.7809	0.8029	0.041
Mof_C 	C 	0.5595	0.872	0.7702	-0.031
Mof_H 	H 	0.6037	0.8884	0.7652	0.042
Mof_C 	C 	0.5343	0.9135	0.7566	-0.093
Mof_C 	C 	0.4674	0.8835	0.7661	-0.025
Mof_H 	H 	0.4486	0.9092	0.7619	0.042
Mof_C 	C 	0.427	0.8176	0.7815	0.006
Mof_H 	H 	0.3825	0.7992	0.7827	0.038
Mof_C 	C 	0.5711	0.9785	0.7027	0.217
Mof_C 	C 	0.5744	0.9814	0.7998	0.159
Mof_O 	O 	0.08447	0.05253	0.14663	-0.337
Mof_N 	N 	0.12177	0.11513	0.12773	-0.063
Mof_C 	C 	0.18587	0.14053	0.12443	0.065
Mof_H 	H 	0.20357	0.11423	0.13623	0.018
Mof_C 	C 	0.22617	0.20533	0.10353	-0.133
Mof_H 	H 	0.27037	0.22173	0.09853	0.078
Mof_C 	C 	0.20097	0.24683	0.08993	0.081
Mof_C 	C 	0.13407	0.21683	0.09943	-0.129
Mof_H 	H 	0.11527	0.24253	0.09523	0.074
Mof_C 	C 	0.09367	0.15093	0.11483	0.061
Mof_H 	H 	0.04917	0.13253	0.11603	0.01
Mof_C 	C 	0.23777	0.31183	0.03603	0.013
Mof_C 	C 	0.24107	0.31473	0.13313	-0.051
Mof_O 	O 	0.75113	0.38587	0.47997	-0.339
Mof_N 	N 	0.78843	0.44847	0.46107	-0.058
Mof_C 	C 	0.85253	0.47387	0.45777	0.059
Mof_H 	H 	0.87023	0.44757	0.46957	0.026
Mof_C 	C 	0.89283	0.53867	0.43687	-0.12
Mof_H 	H 	0.93703	0.55507	0.43187	0.079
Mof_C 	C 	0.86763	0.58017	0.42327	0.057
Mof_C 	C 	0.80073	0.55017	0.43277	-0.114
Mof_H 	H 	0.78193	0.57587	0.42857	0.071
Mof_C 	C 	0.76033	0.48427	0.44817	0.053
Mof_H 	H 	0.71583	0.46587	0.44937	0.02
Mof_C 	C 	0.90443	0.64517	0.36937	0.048
Mof_C 	C 	0.90773	0.64807	0.46647	-0.024
Mof_O 	O 	0.3014	0.5822	0.8133	-0.338
Mof_N 	N 	0.3267	0.5449	0.7944	-0.061
Mof_C 	C 	0.288	0.4808	0.7911	0.066
Mof_H 	H 	0.244	0.4631	0.8029	0.021
Mof_C 	C 	0.3125	0.4405	0.7702	-0.132
Mof_H 	H 	0.2847	0.3963	0.7652	0.078
Mof_C 	C 	0.3792	0.4657	0.7566	0.08
Mof_C 	C 	0.4161	0.5326	0.7661	-0.128
Mof_H 	H 	0.4606	0.5514	0.7619	0.076
Mof_C 	C 	0.3906	0.573	0.7815	0.06
Mof_H 	H 	0.4167	0.6175	0.7827	0.018
Mof_C 	C 	0.4074	0.4289	0.7027	0.015
Mof_C 	C 	0.407	0.4256	0.7998	-0.051
Mof_O 	O 	0.96807	0.91553	0.14663	-0.3
Mof_N 	N 	0.99337	0.87823	0.12773	-0.035
Mof_C 	C 	0.95467	0.81413	0.12443	0.035
Mof_H 	H 	0.91067	0.79643	0.13623	0.034
Mof_C 	C 	0.97917	0.77383	0.10353	-0.056
Mof_H 	H 	0.95137	0.72963	0.09853	0.058
Mof_C 	C 	0.04587	0.79903	0.08993	0.005
Mof_C 	C 	0.08277	0.86593	0.09943	-0.077
Mof_H 	H 	0.12727	0.88473	0.09523	0.062
Mof_C 	C 	0.05727	0.90633	0.11483	0.005
Mof_H 	H 	0.08337	0.95083	0.11603	0.047
Mof_C 	C 	0.07407	0.76223	0.03603	0.045
Mof_C 	C 	0.07367	0.75893	0.13313	-0.023
Mof_O 	O 	0.63473	0.24887	0.47997	-0.339
Mof_N 	N 	0.66003	0.21157	0.46107	-0.064
Mof_C 	C 	0.62133	0.14747	0.45777	0.072
Mof_H 	H 	0.57733	0.12977	0.46957	0.018
Mof_C 	C 	0.64583	0.10717	0.43687	-0.145
Mof_H 	H 	0.61803	0.06297	0.43187	0.077
Mof_C 	C 	0.71253	0.13237	0.42327	0.103
Mof_C 	C 	0.74943	0.19927	0.43277	-0.142
Mof_H 	H 	0.79393	0.21807	0.42857	0.083
Mof_C 	C 	0.72393	0.23967	0.44817	0.068
Mof_H 	H 	0.75003	0.28417	0.44937	0.016
Mof_C 	C 	0.74073	0.09557	0.36937	-0.016
Mof_C 	C 	0.74033	0.09227	0.46647	-0.08
Mof_O 	O 	0.2808	0.6986	0.8133	-0.337
Mof_N 	N 	0.2182	0.6733	0.7944	-0.082
Mof_C 	C 	0.1928	0.712	0.7911	0.12
Mof_H 	H 	0.2191	0.756	0.8029	0.003
Mof_C 	C 	0.128	0.6875	0.7702	-0.236
Mof_H 	H 	0.1116	0.7153	0.7652	0.115
Mof_C 	C 	0.0865	0.6208	0.7566	0.258
Mof_C 	C 	0.1165	0.5839	0.7661	-0.234
Mof_H 	H 	0.0908	0.5394	0.7619	0.111
Mof_C 	C 	0.1824	0.6094	0.7815	0.116
Mof_H 	H 	0.2008	0.5833	0.7827	-0.003
Mof_C 	C 	0.0215	0.5926	0.7027	-0.199
Mof_C 	C 	0.0186	0.593	0.7998	-0.262
Mof_O 	O 	0.94747	0.03193	0.14663	-0.31
Mof_N 	N 	0.88487	0.00663	0.12773	-0.092
Mof_C 	C 	0.85947	0.04533	0.12443	0.1
Mof_H 	H 	0.88577	0.08933	0.13623	0.013
Mof_C 	C 	0.79467	0.02083	0.10353	-0.213
Mof_H 	H 	0.77827	0.04863	0.09853	0.099
Mof_C 	C 	0.75317	0.95413	0.08993	0.16
Mof_C 	C 	0.78317	0.91723	0.09943	-0.181
Mof_H 	H 	0.75747	0.87273	0.09523	0.095
Mof_C 	C 	0.84907	0.94273	0.11483	0.122
Mof_H 	H 	0.86747	0.91663	0.11603	0.004
Mof_C 	C 	0.68817	0.92593	0.03603	-0.013
Mof_C 	C 	0.68527	0.92633	0.13313	-0.084
Mof_O 	O 	0.61413	0.36527	0.47997	-0.339
Mof_N 	N 	0.55153	0.33997	0.46107	-0.061
Mof_C 	C 	0.52613	0.37867	0.45777	0.065
Mof_H 	H 	0.55243	0.42267	0.46957	0.022
Mof_C 	C 	0.46133	0.35417	0.43687	-0.132
Mof_H 	H 	0.44493	0.38197	0.43187	0.078
Mof_C 	C 	0.41983	0.28747	0.42327	0.079
Mof_C 	C 	0.44983	0.25057	0.43277	-0.127
Mof_H 	H 	0.42413	0.20607	0.42857	0.075
Mof_C 	C 	0.51573	0.27607	0.44817	0.06
Mof_H 	H 	0.53413	0.24997	0.44937	0.017
Mof_C 	C 	0.35483	0.25927	0.36937	0.015
Mof_C 	C 	0.35193	0.25967	0.46647	-0.05
Mof_Yb	Yb	0.33333	0.66667	0.91667	1.775
Mof_Yb	Yb	1.97625e-33	0	0.25	1.612
Mof_Yb	Yb	0.66667	0.33333	0.58333	1.777
_end
