data_functionalizedCrystal
_audit_creation_method	'EQeq! by Chris Wilmer'
_symmetry_space_group_name_H-M	'P1'
_symmetry_Int_Tables_number	1
_symmetry_cell_setting	triclinic
loop_
_symmetry_equiv_pos_as_xyz
  x,y,z
_cell_length_a	11.885
_cell_length_b	11.885
_cell_length_c	16.344
_cell_angle_alpha	73.4831
_cell_angle_beta	73.4831
_cell_angle_gamma	78.51
loop_
_atom_site_label
_atom_site_type_symbol
_atom_site_fract_x
_atom_site_fract_y
_atom_site_fract_z
_atom_site_charge
Mof_Mn	Mn	0.3325	0.11538	0.54706	0.84
Mof_Mn	Mn	0.88462	0.6675	0.95294	0.837
Mof_Mn	Mn	0.6675	0.88462	0.45294	0.84
Mof_Mn	Mn	0.11538	0.3325	0.04706	0.837
Mof_H 	H 	0.9527	0.6647	0.5368	0.129
Mof_H 	H 	0.9871	0.6423	0.7449	0.07
Mof_H 	H 	0.1638	0.313	0.7746	0.053
Mof_H 	H 	0.0752	0.4798	0.5464	0.073
Mof_H 	H 	0.8776	0.7664	0.6718	0.096
Mof_H 	H 	0.8619	0.8273	0.5766	0.092
Mof_H 	H 	0.1342	0.795	0.4997	0.111
Mof_H 	H 	0.9222	0.9596	0.6792	0.114
Mof_H 	H 	0.0679	0.0737	0.6546	-0.018
Mof_H 	H 	0.2743	0.9131	0.4821	-0.018
Mof_H 	H 	0.3353	0.0473	0.9632	0.131
Mof_H 	H 	0.3577	0.0129	0.7551	0.074
Mof_H 	H 	0.687	0.8362	0.7254	0.053
Mof_H 	H 	0.5202	0.9248	0.9536	0.073
Mof_H 	H 	0.2336	0.1224	0.8282	0.095
Mof_H 	H 	0.1727	0.1381	0.9234	0.091
Mof_H 	H 	0.205	0.8658	0.0003	0.109
Mof_H 	H 	0.0404	0.0778	0.8208	0.111
Mof_H 	H 	0.9263	0.9321	0.8454	-0.015
Mof_H 	H 	0.0869	0.7257	0.0179	-0.022
Mof_H 	H 	0.0473	0.3353	0.4632	0.13
Mof_H 	H 	0.0129	0.3577	0.2551	0.071
Mof_H 	H 	0.8362	0.687	0.2254	0.053
Mof_H 	H 	0.9248	0.5202	0.4536	0.073
Mof_H 	H 	0.1224	0.2336	0.3282	0.096
Mof_H 	H 	0.1381	0.1727	0.4234	0.092
Mof_H 	H 	0.8658	0.205	0.5003	0.111
Mof_H 	H 	0.0778	0.0404	0.3208	0.114
Mof_H 	H 	0.9321	0.9263	0.3454	-0.018
Mof_H 	H 	0.7257	0.0869	0.5179	-0.018
Mof_H 	H 	0.6647	0.9527	0.0368	0.131
Mof_H 	H 	0.6423	0.9871	0.2449	0.074
Mof_H 	H 	0.313	0.1638	0.2746	0.053
Mof_H 	H 	0.4798	0.0752	0.0464	0.073
Mof_H 	H 	0.7664	0.8776	0.1718	0.095
Mof_H 	H 	0.8273	0.8619	0.0766	0.091
Mof_H 	H 	0.795	0.1342	0.9997	0.109
Mof_H 	H 	0.9596	0.9222	0.1792	0.111
Mof_H 	H 	0.0737	0.0679	0.1546	-0.015
Mof_H 	H 	0.9131	0.2743	0.9821	-0.022
Mof_C 	C 	0.0183	0.5783	0.6365	0.11
Mof_C 	C 	0.0745	0.4757	0.7744	-0.067
Mof_C 	C 	0.1898	0.2776	0.6164	0.273
Mof_C 	C 	0.1263	0.3807	0.6552	-0.036
Mof_C 	C 	0.021	0.5764	0.7223	-0.08
Mof_C 	C 	0.1274	0.379	0.7406	-0.014
Mof_C 	C 	0.0134	0.8586	0.5958	0.178
Mof_C 	C 	0.0734	0.4754	0.8665	0.36
Mof_C 	C 	0.0737	0.4793	0.6037	-0.101
Mof_C 	C 	0.9188	0.7828	0.61	-0.169
Mof_C 	C 	0.1192	0.8494	0.5339	-0.216
Mof_C 	C 	0.9941	0.9465	0.6395	-0.23
Mof_C 	C 	0.0828	0.0154	0.6237	0.144
Mof_C 	C 	0.2026	0.922	0.5232	0.127
Mof_C 	C 	0.4217	0.9817	0.8635	0.111
Mof_C 	C 	0.5243	0.9255	0.7256	-0.066
Mof_C 	C 	0.7224	0.8102	0.8836	0.273
Mof_C 	C 	0.6193	0.8737	0.8448	-0.035
Mof_C 	C 	0.4236	0.979	0.7777	-0.085
Mof_C 	C 	0.621	0.8726	0.7594	-0.015
Mof_C 	C 	0.1414	0.9866	0.9042	0.171
Mof_C 	C 	0.5246	0.9266	0.6335	0.36
Mof_C 	C 	0.5207	0.9263	0.8963	-0.101
Mof_C 	C 	0.2172	0.0812	0.89	-0.164
Mof_C 	C 	0.1506	0.8808	0.9661	-0.211
Mof_C 	C 	0.0535	0.0059	0.8605	-0.218
Mof_C 	C 	0.9846	0.9172	0.8763	0.134
Mof_C 	C 	0.078	0.7974	0.9768	0.133
Mof_C 	C 	0.9817	0.4217	0.3635	0.11
Mof_C 	C 	0.9255	0.5243	0.2256	-0.067
Mof_C 	C 	0.8102	0.7224	0.3836	0.273
Mof_C 	C 	0.8737	0.6193	0.3448	-0.036
Mof_C 	C 	0.979	0.4236	0.2777	-0.08
Mof_C 	C 	0.8726	0.621	0.2594	-0.014
Mof_C 	C 	0.9866	0.1414	0.4042	0.178
Mof_C 	C 	0.9266	0.5246	0.1335	0.36
Mof_C 	C 	0.9263	0.5207	0.3963	-0.101
Mof_C 	C 	0.0812	0.2172	0.39	-0.169
Mof_C 	C 	0.8808	0.1506	0.4661	-0.216
Mof_C 	C 	0.0059	0.0535	0.3605	-0.23
Mof_C 	C 	0.9172	0.9846	0.3763	0.144
Mof_C 	C 	0.7974	0.078	0.4768	0.127
Mof_C 	C 	0.5783	0.0183	0.1365	0.111
Mof_C 	C 	0.4757	0.0745	0.2744	-0.066
Mof_C 	C 	0.2776	0.1898	0.1164	0.273
Mof_C 	C 	0.3807	0.1263	0.1552	-0.035
Mof_C 	C 	0.5764	0.021	0.2223	-0.085
Mof_C 	C 	0.379	0.1274	0.2406	-0.015
Mof_C 	C 	0.8586	0.0134	0.0958	0.171
Mof_C 	C 	0.4754	0.0734	0.3665	0.36
Mof_C 	C 	0.4793	0.0737	0.1037	-0.101
Mof_C 	C 	0.7828	0.9188	0.11	-0.164
Mof_C 	C 	0.8494	0.1192	0.0339	-0.211
Mof_C 	C 	0.9465	0.9941	0.1395	-0.218
Mof_C 	C 	0.0154	0.0828	0.1237	0.134
Mof_C 	C 	0.922	0.2026	0.0232	0.133
Mof_N 	N 	0.1863	0.0045	0.5685	-0.206
Mof_N 	N 	0.9622	0.6722	0.5851	-0.179
Mof_N 	N 	0.9955	0.8137	0.9315	-0.206
Mof_N 	N 	0.3278	0.0378	0.9149	-0.18
Mof_N 	N 	0.8137	0.9955	0.4315	-0.206
Mof_N 	N 	0.0378	0.3278	0.4149	-0.179
Mof_N 	N 	0.0045	0.1863	0.0685	-0.206
Mof_N 	N 	0.6722	0.9622	0.0851	-0.18
Mof_O 	O 	0.2375	0.1883	0.6644	-0.337
Mof_O 	O 	0.1972	0.2828	0.5369	-0.327
Mof_O 	O 	0.1144	0.38	0.9112	-0.38
Mof_O 	O 	0.0377	0.5699	0.8914	-0.391
Mof_O 	O 	0.8117	0.7625	0.8356	-0.338
Mof_O 	O 	0.7172	0.8028	0.9631	-0.327
Mof_O 	O 	0.62	0.8856	0.5888	-0.382
Mof_O 	O 	0.4301	0.9623	0.6086	-0.393
Mof_O 	O 	0.7625	0.8117	0.3356	-0.337
Mof_O 	O 	0.8028	0.7172	0.4631	-0.327
Mof_O 	O 	0.8856	0.62	0.0888	-0.38
Mof_O 	O 	0.9623	0.4301	0.1086	-0.391
Mof_O 	O 	0.1883	0.2375	0.1644	-0.338
Mof_O 	O 	0.2828	0.1972	0.0369	-0.327
Mof_O 	O 	0.38	0.1144	0.4112	-0.382
Mof_O 	O 	0.5699	0.0377	0.3914	-0.393
_end
