data_functionalizedCrystal
_audit_creation_method	'EQeq! by Chris Wilmer'
_symmetry_space_group_name_H-M	'P1'
_symmetry_Int_Tables_number	1
_symmetry_cell_setting	triclinic
loop_
_symmetry_equiv_pos_as_xyz
  x,y,z
_cell_length_a	15.8832
_cell_length_b	15.8832
_cell_length_c	21.7
_cell_angle_alpha	90
_cell_angle_beta	90
_cell_angle_gamma	90
loop_
_atom_site_label
_atom_site_type_symbol
_atom_site_fract_x
_atom_site_fract_y
_atom_site_fract_z
_atom_site_charge
Mof_Cd	Cd	0.05872	0.94128	0.25	0.381
Mof_Cd	Cd	0.94128	0.05872	0.75	0.381
Mof_Cd	Cd	0.55872	0.55872	0.5	0.383
Mof_Cd	Cd	0.44128	0.44128	-0	0.381
Mof_H 	H 	0.5369	0.6122	0.3504	0.033
Mof_H 	H 	0.5867	0.7146	0.2845	0.089
Mof_H 	H 	0.7901	0.7362	0.3948	0.09
Mof_H 	H 	0.7303	0.6399	0.4594	0.012
Mof_H 	H 	0.6538	0.7949	0.2199	0.063
Mof_H 	H 	0.7029	0.9107	0.1648	0.027
Mof_H 	H 	0.8022	0.0024	0.2082	0.064
Mof_H 	H 	0.8036	0.8597	0.3629	0.082
Mof_H 	H 	0.0461	0.1217	0.4595	0.063
Mof_H 	H 	0.0666	0.2341	0.525	0.025
Mof_H 	H 	0.9657	0.3376	0.5362	0.055
Mof_H 	H 	0.8239	0.2229	0.4056	0.062
Mof_H 	H 	0.851	0.4013	0.562	0.074
Mof_H 	H 	0.7404	0.4952	0.5733	0.016
Mof_H 	H 	0.656	0.4388	0.4089	0.014
Mof_H 	H 	0.7621	0.3437	0.3929	0.07
Mof_H 	H 	0.7448	0.0258	0.3959	0.123
Mof_H 	H 	0.7386	0.0958	0.3507	0.111
Mof_H 	H 	0.4631	0.3878	0.8504	0.033
Mof_H 	H 	0.4133	0.2854	0.7845	0.089
Mof_H 	H 	0.2099	0.2638	0.8948	0.09
Mof_H 	H 	0.2697	0.3601	0.9594	0.012
Mof_H 	H 	0.3462	0.2051	0.7199	0.063
Mof_H 	H 	0.2971	0.0893	0.6648	0.027
Mof_H 	H 	0.1978	0.9976	0.7082	0.064
Mof_H 	H 	0.1964	0.1403	0.8629	0.082
Mof_H 	H 	0.9539	0.8783	0.9595	0.062
Mof_H 	H 	0.9334	0.7659	0.025	0.025
Mof_H 	H 	0.0343	0.6624	0.0362	0.056
Mof_H 	H 	0.1761	0.7771	0.9056	0.062
Mof_H 	H 	0.149	0.5987	0.062	0.075
Mof_H 	H 	0.2596	0.5048	0.0733	0.016
Mof_H 	H 	0.344	0.5612	0.9089	0.014
Mof_H 	H 	0.2379	0.6563	0.8929	0.07
Mof_H 	H 	0.2552	0.9742	0.8959	0.124
Mof_H 	H 	0.2614	0.9042	0.8507	0.111
Mof_H 	H 	0.8878	0.0369	0.6004	0.033
Mof_H 	H 	0.7854	0.0867	0.5345	0.089
Mof_H 	H 	0.7638	0.2901	0.6448	0.09
Mof_H 	H 	0.8601	0.2303	0.7094	0.012
Mof_H 	H 	0.7051	0.1538	0.4699	0.064
Mof_H 	H 	0.5893	0.2029	0.4148	0.027
Mof_H 	H 	0.4976	0.3022	0.4582	0.065
Mof_H 	H 	0.6403	0.3036	0.6129	0.082
Mof_H 	H 	0.3783	0.5461	0.7095	0.063
Mof_H 	H 	0.2659	0.5666	0.775	0.025
Mof_H 	H 	0.1624	0.4657	0.7862	0.055
Mof_H 	H 	0.2771	0.3239	0.6556	0.062
Mof_H 	H 	0.0987	0.351	0.812	0.074
Mof_H 	H 	0.0048	0.2404	0.8233	0.016
Mof_H 	H 	0.0612	0.156	0.6589	0.015
Mof_H 	H 	0.1563	0.2621	0.6429	0.07
Mof_H 	H 	0.4742	0.2448	0.6459	0.124
Mof_H 	H 	0.4042	0.2386	0.6007	0.111
Mof_H 	H 	0.1122	0.9631	0.1004	0.032
Mof_H 	H 	0.2146	0.9133	0.0345	0.088
Mof_H 	H 	0.2362	0.7099	0.1448	0.091
Mof_H 	H 	0.1399	0.7697	0.2094	0.011
Mof_H 	H 	0.2949	0.8462	0.9699	0.061
Mof_H 	H 	0.4107	0.7971	0.9148	0.029
Mof_H 	H 	0.5024	0.6978	0.9582	0.063
Mof_H 	H 	0.3597	0.6964	0.1129	0.081
Mof_H 	H 	0.6217	0.4539	0.2095	0.063
Mof_H 	H 	0.7341	0.4334	0.275	0.025
Mof_H 	H 	0.8376	0.5343	0.2862	0.055
Mof_H 	H 	0.7229	0.6761	0.1556	0.062
Mof_H 	H 	0.9013	0.649	0.312	0.074
Mof_H 	H 	0.9952	0.7596	0.3233	0.016
Mof_H 	H 	0.9388	0.844	0.1589	0.015
Mof_H 	H 	0.8437	0.7379	0.1429	0.07
Mof_H 	H 	0.5258	0.7552	0.1459	0.123
Mof_H 	H 	0.5958	0.7614	0.1007	0.111
Mof_H 	H 	0.9631	0.1122	0.8996	0.033
Mof_H 	H 	0.9133	0.2146	0.9655	0.089
Mof_H 	H 	0.7099	0.2362	0.8552	0.09
Mof_H 	H 	0.7697	0.1399	0.7906	0.012
Mof_H 	H 	0.8462	0.2949	0.0301	0.065
Mof_H 	H 	0.7971	0.4107	0.0852	0.025
Mof_H 	H 	0.6978	0.5024	0.0418	0.067
Mof_H 	H 	0.6964	0.3597	0.8871	0.084
Mof_H 	H 	0.4539	0.6217	0.7905	0.063
Mof_H 	H 	0.4334	0.7341	0.725	0.025
Mof_H 	H 	0.5343	0.8376	0.7138	0.055
Mof_H 	H 	0.6761	0.7229	0.8444	0.063
Mof_H 	H 	0.649	0.9013	0.688	0.074
Mof_H 	H 	0.7596	0.9952	0.6767	0.016
Mof_H 	H 	0.844	0.9388	0.8411	0.015
Mof_H 	H 	0.7379	0.8437	0.8571	0.07
Mof_H 	H 	0.7552	0.5258	0.8541	0.124
Mof_H 	H 	0.7614	0.5958	0.8993	0.111
Mof_H 	H 	0.0369	0.8878	0.3996	0.033
Mof_H 	H 	0.0867	0.7854	0.4655	0.089
Mof_H 	H 	0.2901	0.7638	0.3552	0.09
Mof_H 	H 	0.2303	0.8601	0.2906	0.011
Mof_H 	H 	0.1538	0.7051	0.5301	0.064
Mof_H 	H 	0.2029	0.5893	0.5852	0.027
Mof_H 	H 	0.3022	0.4976	0.5418	0.065
Mof_H 	H 	0.3036	0.6403	0.3871	0.082
Mof_H 	H 	0.5461	0.3783	0.2905	0.063
Mof_H 	H 	0.5666	0.2659	0.225	0.025
Mof_H 	H 	0.4657	0.1624	0.2138	0.055
Mof_H 	H 	0.3239	0.2771	0.3444	0.062
Mof_H 	H 	0.351	0.0987	0.188	0.074
Mof_H 	H 	0.2404	0.0048	0.1767	0.016
Mof_H 	H 	0.156	0.0612	0.3411	0.015
Mof_H 	H 	0.2621	0.1563	0.3571	0.07
Mof_H 	H 	0.2448	0.4742	0.3541	0.124
Mof_H 	H 	0.2386	0.4042	0.3993	0.111
Mof_H 	H 	0.6122	0.5369	0.6496	0.033
Mof_H 	H 	0.7146	0.5867	0.7155	0.089
Mof_H 	H 	0.7362	0.7901	0.6052	0.09
Mof_H 	H 	0.6399	0.7303	0.5406	0.012
Mof_H 	H 	0.7949	0.6538	0.7801	0.063
Mof_H 	H 	0.9107	0.7029	0.8352	0.028
Mof_H 	H 	0.0024	0.8022	0.7918	0.063
Mof_H 	H 	0.8597	0.8036	0.6371	0.082
Mof_H 	H 	0.1217	0.0461	0.5405	0.063
Mof_H 	H 	0.2341	0.0666	0.475	0.025
Mof_H 	H 	0.3376	0.9657	0.4638	0.055
Mof_H 	H 	0.2229	0.8239	0.5944	0.062
Mof_H 	H 	0.4013	0.851	0.438	0.074
Mof_H 	H 	0.4952	0.7404	0.4267	0.016
Mof_H 	H 	0.4388	0.656	0.5911	0.014
Mof_H 	H 	0.3437	0.7621	0.6071	0.07
Mof_H 	H 	0.0258	0.7448	0.6041	0.123
Mof_H 	H 	0.0958	0.7386	0.6493	0.111
Mof_H 	H 	0.3878	0.4631	0.1496	0.033
Mof_H 	H 	0.2854	0.4133	0.2155	0.089
Mof_H 	H 	0.2638	0.2099	0.1052	0.09
Mof_H 	H 	0.3601	0.2697	0.0406	0.011
Mof_H 	H 	0.2051	0.3462	0.2801	0.063
Mof_H 	H 	0.0893	0.2971	0.3352	0.027
Mof_H 	H 	0.9976	0.1978	0.2918	0.064
Mof_H 	H 	0.1403	0.1964	0.1371	0.082
Mof_H 	H 	0.8783	0.9539	0.0405	0.065
Mof_H 	H 	0.7659	0.9334	0.975	0.023
Mof_H 	H 	0.6624	0.0343	0.9638	0.057
Mof_H 	H 	0.7771	0.1761	0.0944	0.063
Mof_H 	H 	0.5987	0.149	0.938	0.073
Mof_H 	H 	0.5048	0.2596	0.9267	0.016
Mof_H 	H 	0.5612	0.344	0.0911	0.015
Mof_H 	H 	0.6563	0.2379	0.1071	0.069
Mof_H 	H 	0.9742	0.2552	0.1041	0.123
Mof_H 	H 	0.9042	0.2614	0.1493	0.111
Mof_C 	C 	0.5875	0.6407	0.361	0.076
Mof_C 	C 	0.617	0.7016	0.321	-0.128
Mof_C 	C 	0.6913	0.7438	0.3347	0.068
Mof_C 	C 	0.7355	0.7149	0.386	-0.136
Mof_C 	C 	0.7001	0.6561	0.4235	0.08
Mof_C 	C 	0.7228	0.8165	0.2976	0.027
Mof_C 	C 	0.6938	0.8318	0.2381	-0.085
Mof_C 	C 	0.7233	0.9006	0.2053	0.006
Mof_C 	C 	0.7824	0.9552	0.2308	-0.08
Mof_C 	C 	0.812	0.939	0.2905	0.025
Mof_C 	C 	0.7826	0.8704	0.3227	-0.091
Mof_C 	C 	0.8735	0.9946	0.3201	0.099
Mof_C 	C 	0.9245	0.0917	0.3817	0.103
Mof_C 	C 	0.9327	0.1614	0.4256	0.022
Mof_C 	C 	0.005	0.1651	0.4621	-0.075
Mof_C 	C 	0.0164	0.2312	0.5013	0.005
Mof_C 	C 	0.9572	0.2934	0.5074	-0.078
Mof_C 	C 	0.8844	0.292	0.4713	0.018
Mof_C 	C 	0.8731	0.225	0.4304	-0.08
Mof_C 	C 	0.8183	0.3579	0.4779	0.064
Mof_C 	C 	0.8107	0.4066	0.53	-0.127
Mof_C 	C 	0.7446	0.4636	0.5363	0.074
Mof_C 	C 	0.696	0.4304	0.4409	0.075
Mof_C 	C 	0.7587	0.3731	0.431	-0.126
Mof_C 	C 	0.4125	0.3593	0.861	0.076
Mof_C 	C 	0.383	0.2984	0.821	-0.128
Mof_C 	C 	0.3087	0.2562	0.8347	0.068
Mof_C 	C 	0.2645	0.2851	0.886	-0.135
Mof_C 	C 	0.2999	0.3439	0.9235	0.08
Mof_C 	C 	0.2772	0.1835	0.7976	0.027
Mof_C 	C 	0.3062	0.1682	0.7381	-0.085
Mof_C 	C 	0.2767	0.0994	0.7053	0.006
Mof_C 	C 	0.2176	0.0448	0.7308	-0.08
Mof_C 	C 	0.188	0.061	0.7905	0.025
Mof_C 	C 	0.2174	0.1296	0.8227	-0.091
Mof_C 	C 	0.1265	0.0054	0.8201	0.098
Mof_C 	C 	0.0755	0.9083	0.8817	0.103
Mof_C 	C 	0.0673	0.8386	0.9256	0.022
Mof_C 	C 	0.995	0.8349	0.9621	-0.072
Mof_C 	C 	0.9836	0.7688	0.0013	0.003
Mof_C 	C 	0.0428	0.7066	0.0074	-0.081
Mof_C 	C 	0.1156	0.708	0.9713	0.02
Mof_C 	C 	0.1269	0.775	0.9304	-0.08
Mof_C 	C 	0.1817	0.6421	0.9779	0.066
Mof_C 	C 	0.1893	0.5934	0.03	-0.13
Mof_C 	C 	0.2554	0.5364	0.0363	0.072
Mof_C 	C 	0.304	0.5696	0.9409	0.076
Mof_C 	C 	0.2413	0.6269	0.931	-0.127
Mof_C 	C 	0.8593	0.0875	0.611	0.076
Mof_C 	C 	0.7984	0.117	0.571	-0.128
Mof_C 	C 	0.7562	0.1913	0.5847	0.068
Mof_C 	C 	0.7851	0.2355	0.636	-0.135
Mof_C 	C 	0.8439	0.2001	0.6735	0.08
Mof_C 	C 	0.6835	0.2228	0.5476	0.028
Mof_C 	C 	0.6682	0.1938	0.4881	-0.086
Mof_C 	C 	0.5994	0.2233	0.4553	0.007
Mof_C 	C 	0.5448	0.2824	0.4808	-0.083
Mof_C 	C 	0.561	0.312	0.5405	0.026
Mof_C 	C 	0.6296	0.2826	0.5727	-0.092
Mof_C 	C 	0.5054	0.3735	0.5701	0.097
Mof_C 	C 	0.4083	0.4245	0.6317	0.103
Mof_C 	C 	0.3386	0.4327	0.6756	0.023
Mof_C 	C 	0.3349	0.505	0.7121	-0.076
Mof_C 	C 	0.2688	0.5164	0.7513	0.004
Mof_C 	C 	0.2066	0.4572	0.7574	-0.077
Mof_C 	C 	0.208	0.3844	0.7213	0.018
Mof_C 	C 	0.275	0.3731	0.6804	-0.081
Mof_C 	C 	0.1421	0.3183	0.7279	0.064
Mof_C 	C 	0.0934	0.3107	0.78	-0.127
Mof_C 	C 	0.0364	0.2446	0.7863	0.074
Mof_C 	C 	0.0696	0.196	0.6909	0.075
Mof_C 	C 	0.1269	0.2587	0.681	-0.126
Mof_C 	C 	0.1407	0.9125	0.111	0.076
Mof_C 	C 	0.2016	0.883	0.071	-0.13
Mof_C 	C 	0.2438	0.8087	0.0847	0.07
Mof_C 	C 	0.2149	0.7645	0.136	-0.137
Mof_C 	C 	0.1561	0.7999	0.1735	0.081
Mof_C 	C 	0.3165	0.7772	0.0476	0.021
Mof_C 	C 	0.3318	0.8062	0.9881	-0.078
Mof_C 	C 	0.4006	0.7767	0.9553	0.001
Mof_C 	C 	0.4552	0.7176	0.9808	-0.075
Mof_C 	C 	0.439	0.688	0.0405	0.02
Mof_C 	C 	0.3704	0.7174	0.0727	-0.087
Mof_C 	C 	0.4946	0.6265	0.0701	0.099
Mof_C 	C 	0.5917	0.5755	0.1317	0.103
Mof_C 	C 	0.6614	0.5673	0.1756	0.023
Mof_C 	C 	0.6651	0.495	0.2121	-0.076
Mof_C 	C 	0.7312	0.4836	0.2513	0.004
Mof_C 	C 	0.7934	0.5428	0.2574	-0.077
Mof_C 	C 	0.792	0.6156	0.2213	0.018
Mof_C 	C 	0.725	0.6269	0.1804	-0.081
Mof_C 	C 	0.8579	0.6817	0.2279	0.064
Mof_C 	C 	0.9066	0.6893	0.28	-0.127
Mof_C 	C 	0.9636	0.7554	0.2863	0.074
Mof_C 	C 	0.9304	0.804	0.1909	0.075
Mof_C 	C 	0.8731	0.7413	0.181	-0.126
Mof_C 	C 	0.9125	0.1407	0.889	0.075
Mof_C 	C 	0.883	0.2016	0.929	-0.127
Mof_C 	C 	0.8087	0.2438	0.9153	0.066
Mof_C 	C 	0.7645	0.2149	0.864	-0.134
Mof_C 	C 	0.7999	0.1561	0.8265	0.08
Mof_C 	C 	0.7772	0.3165	0.9524	0.033
Mof_C 	C 	0.8062	0.3318	0.0119	-0.091
Mof_C 	C 	0.7767	0.4006	0.0447	0.012
Mof_C 	C 	0.7176	0.4552	0.0192	-0.088
Mof_C 	C 	0.688	0.439	0.9595	0.031
Mof_C 	C 	0.7174	0.3704	0.9273	-0.096
Mof_C 	C 	0.6265	0.4946	0.9299	0.096
Mof_C 	C 	0.5755	0.5917	0.8683	0.103
Mof_C 	C 	0.5673	0.6614	0.8244	0.024
Mof_C 	C 	0.495	0.6651	0.7879	-0.076
Mof_C 	C 	0.4836	0.7312	0.7487	0.004
Mof_C 	C 	0.5428	0.7934	0.7426	-0.077
Mof_C 	C 	0.6156	0.792	0.7787	0.018
Mof_C 	C 	0.6269	0.725	0.8196	-0.081
Mof_C 	C 	0.6817	0.8579	0.7721	0.064
Mof_C 	C 	0.6893	0.9066	0.72	-0.127
Mof_C 	C 	0.7554	0.9636	0.7137	0.074
Mof_C 	C 	0.804	0.9304	0.8091	0.075
Mof_C 	C 	0.7413	0.8731	0.819	-0.126
Mof_C 	C 	0.0875	0.8593	0.389	0.076
Mof_C 	C 	0.117	0.7984	0.429	-0.128
Mof_C 	C 	0.1913	0.7562	0.4153	0.068
Mof_C 	C 	0.2355	0.7851	0.364	-0.135
Mof_C 	C 	0.2001	0.8439	0.3265	0.08
Mof_C 	C 	0.2228	0.6835	0.4524	0.028
Mof_C 	C 	0.1938	0.6682	0.5119	-0.086
Mof_C 	C 	0.2233	0.5994	0.5447	0.007
Mof_C 	C 	0.2824	0.5448	0.5192	-0.083
Mof_C 	C 	0.312	0.561	0.4595	0.026
Mof_C 	C 	0.2826	0.6296	0.4273	-0.092
Mof_C 	C 	0.3735	0.5054	0.4299	0.097
Mof_C 	C 	0.4245	0.4083	0.3683	0.103
Mof_C 	C 	0.4327	0.3386	0.3244	0.023
Mof_C 	C 	0.505	0.3349	0.2879	-0.076
Mof_C 	C 	0.5164	0.2688	0.2487	0.004
Mof_C 	C 	0.4572	0.2066	0.2426	-0.077
Mof_C 	C 	0.3844	0.208	0.2787	0.018
Mof_C 	C 	0.3731	0.275	0.3196	-0.081
Mof_C 	C 	0.3183	0.1421	0.2721	0.064
Mof_C 	C 	0.3107	0.0934	0.22	-0.127
Mof_C 	C 	0.2446	0.0364	0.2137	0.074
Mof_C 	C 	0.196	0.0696	0.3091	0.075
Mof_C 	C 	0.2587	0.1269	0.319	-0.126
Mof_C 	C 	0.6407	0.5875	0.639	0.076
Mof_C 	C 	0.7016	0.617	0.679	-0.128
Mof_C 	C 	0.7438	0.6913	0.6653	0.069
Mof_C 	C 	0.7149	0.7355	0.614	-0.136
Mof_C 	C 	0.6561	0.7001	0.5765	0.081
Mof_C 	C 	0.8165	0.7228	0.7024	0.027
Mof_C 	C 	0.8318	0.6938	0.7619	-0.084
Mof_C 	C 	0.9006	0.7233	0.7947	0.005
Mof_C 	C 	0.9552	0.7824	0.7692	-0.079
Mof_C 	C 	0.939	0.812	0.7095	0.024
Mof_C 	C 	0.8704	0.7826	0.6773	-0.091
Mof_C 	C 	0.9946	0.8735	0.6799	0.099
Mof_C 	C 	0.0917	0.9245	0.6183	0.103
Mof_C 	C 	0.1614	0.9327	0.5744	0.022
Mof_C 	C 	0.1651	0.005	0.5379	-0.075
Mof_C 	C 	0.2312	0.0164	0.4987	0.005
Mof_C 	C 	0.2934	0.9572	0.4926	-0.078
Mof_C 	C 	0.292	0.8844	0.5287	0.018
Mof_C 	C 	0.225	0.8731	0.5696	-0.08
Mof_C 	C 	0.3579	0.8183	0.5221	0.064
Mof_C 	C 	0.4066	0.8107	0.47	-0.127
Mof_C 	C 	0.4636	0.7446	0.4637	0.074
Mof_C 	C 	0.4304	0.696	0.5591	0.075
Mof_C 	C 	0.3731	0.7587	0.569	-0.126
Mof_C 	C 	0.3593	0.4125	0.139	0.076
Mof_C 	C 	0.2984	0.383	0.179	-0.128
Mof_C 	C 	0.2562	0.3087	0.1653	0.068
Mof_C 	C 	0.2851	0.2645	0.114	-0.136
Mof_C 	C 	0.3439	0.2999	0.0765	0.08
Mof_C 	C 	0.1835	0.2772	0.2024	0.027
Mof_C 	C 	0.1682	0.3062	0.2619	-0.084
Mof_C 	C 	0.0994	0.2767	0.2947	0.005
Mof_C 	C 	0.0448	0.2176	0.2692	-0.08
Mof_C 	C 	0.061	0.188	0.2095	0.025
Mof_C 	C 	0.1296	0.2174	0.1773	-0.091
Mof_C 	C 	0.0054	0.1265	0.1799	0.099
Mof_C 	C 	0.9083	0.0755	0.1183	0.101
Mof_C 	C 	0.8386	0.0673	0.0744	0.026
Mof_C 	C 	0.8349	0.995	0.0379	-0.083
Mof_C 	C 	0.7688	0.9836	0.9987	0.014
Mof_C 	C 	0.7066	0.0428	0.9926	-0.082
Mof_C 	C 	0.708	0.1156	0.0287	0.02
Mof_C 	C 	0.775	0.1269	0.0696	-0.083
Mof_C 	C 	0.6421	0.1817	0.0221	0.061
Mof_C 	C 	0.5934	0.1893	0.97	-0.124
Mof_C 	C 	0.5364	0.2554	0.9637	0.074
Mof_C 	C 	0.5696	0.304	0.0591	0.074
Mof_C 	C 	0.6269	0.2413	0.069	-0.125
Mof_N 	N 	0.6253	0.6196	0.413	-0.153
Mof_N 	N 	0.9556	0.9939	0.3163	-0.113
Mof_N 	N 	0.9878	0.0549	0.3548	-0.101
Mof_N 	N 	0.8513	0.0555	0.3611	-0.103
Mof_N 	N 	0.7695	0.074	0.3822	-0.21
Mof_N 	N 	0.687	0.4755	0.4925	-0.149
Mof_N 	N 	0.3747	0.3804	0.913	-0.153
Mof_N 	N 	0.0444	0.0061	0.8163	-0.113
Mof_N 	N 	0.0122	0.9451	0.8548	-0.101
Mof_N 	N 	0.1487	0.9445	0.8611	-0.103
Mof_N 	N 	0.2305	0.926	0.8822	-0.21
Mof_N 	N 	0.313	0.5245	0.9925	-0.147
Mof_N 	N 	0.8804	0.1253	0.663	-0.153
Mof_N 	N 	0.5061	0.4556	0.5663	-0.113
Mof_N 	N 	0.4451	0.4878	0.6048	-0.1
Mof_N 	N 	0.4445	0.3513	0.6111	-0.103
Mof_N 	N 	0.426	0.2695	0.6322	-0.21
Mof_N 	N 	0.0245	0.187	0.7425	-0.148
Mof_N 	N 	0.1196	0.8747	0.163	-0.154
Mof_N 	N 	0.4939	0.5444	0.0663	-0.114
Mof_N 	N 	0.5549	0.5122	0.1048	-0.1
Mof_N 	N 	0.5555	0.6487	0.1111	-0.103
Mof_N 	N 	0.574	0.7305	0.1322	-0.21
Mof_N 	N 	0.9755	0.813	0.2425	-0.148
Mof_N 	N 	0.8747	0.1196	0.837	-0.153
Mof_N 	N 	0.5444	0.4939	0.9337	-0.113
Mof_N 	N 	0.5122	0.5549	0.8952	-0.1
Mof_N 	N 	0.6487	0.5555	0.8889	-0.102
Mof_N 	N 	0.7305	0.574	0.8678	-0.21
Mof_N 	N 	0.813	0.9755	0.7575	-0.148
Mof_N 	N 	0.1253	0.8804	0.337	-0.153
Mof_N 	N 	0.4556	0.5061	0.4337	-0.113
Mof_N 	N 	0.4878	0.4451	0.3952	-0.1
Mof_N 	N 	0.3513	0.4445	0.3889	-0.103
Mof_N 	N 	0.2695	0.426	0.3678	-0.21
Mof_N 	N 	0.187	0.0245	0.2575	-0.148
Mof_N 	N 	0.6196	0.6253	0.587	-0.153
Mof_N 	N 	0.9939	0.9556	0.6837	-0.112
Mof_N 	N 	0.0549	0.9878	0.6452	-0.101
Mof_N 	N 	0.0555	0.8513	0.6389	-0.103
Mof_N 	N 	0.074	0.7695	0.6178	-0.21
Mof_N 	N 	0.4755	0.687	0.5075	-0.149
Mof_N 	N 	0.3804	0.3747	0.087	-0.153
Mof_N 	N 	0.0061	0.0444	0.1837	-0.113
Mof_N 	N 	0.9451	0.0122	0.1452	-0.1
Mof_N 	N 	0.9445	0.1487	0.1389	-0.103
Mof_N 	N 	0.926	0.2305	0.1178	-0.21
Mof_N 	N 	0.5245	0.313	0.0075	-0.15
Mof_Cl	Cl	0.62082	0.37918	0.75	-0.267
Mof_O 	O 	0.6128	0.323	0.794	-0.031
Mof_O 	O 	0.6348	0.4419	0.7845	-0.008
Mof_O 	O 	0.677	0.3872	0.706	-0.031
Mof_O 	O 	0.5581	0.3652	0.7155	-0.008
Mof_Cl	Cl	0.37918	0.62082	0.25	-0.267
Mof_O 	O 	0.3872	0.677	0.294	-0.031
Mof_O 	O 	0.3652	0.5581	0.2845	-0.008
Mof_O 	O 	0.323	0.6128	0.206	-0.031
Mof_O 	O 	0.4419	0.6348	0.2155	-0.008
Mof_Cl	Cl	0.12082	0.12082	-0	-0.273
Mof_O 	O 	0.177	0.1128	0.044	-0.03
Mof_O 	O 	0.0581	0.1348	0.0345	-0.007
Mof_O 	O 	0.1128	0.177	0.956	-0.028
Mof_O 	O 	0.1348	0.0581	0.9655	-0.005
Mof_Cl	Cl	0.87918	0.87918	0.5	-0.268
Mof_O 	O 	0.823	0.8872	0.544	-0.03
Mof_O 	O 	0.9419	0.8652	0.5345	-0.007
Mof_O 	O 	0.8872	0.823	0.456	-0.03
Mof_O 	O 	0.8652	0.9419	0.4655	-0.007
_end
