data_functionalizedCrystal
_audit_creation_method	'EQeq! by Chris Wilmer'
_symmetry_space_group_name_H-M	'P1'
_symmetry_Int_Tables_number	1
_symmetry_cell_setting	triclinic
loop_
_symmetry_equiv_pos_as_xyz
  x,y,z
_cell_length_a	7.306
_cell_length_b	10.205
_cell_length_c	18.111
_cell_angle_alpha	90
_cell_angle_beta	90
_cell_angle_gamma	94.248
loop_
_atom_site_label
_atom_site_type_symbol
_atom_site_fract_x
_atom_site_fract_y
_atom_site_fract_z
_atom_site_charge
Mof_Cu	Cu	0.86455	0.2159	0.90528	0.92
Mof_Cu	Cu	0.03951	0.92979	0.93158	0.936
Mof_Cu	Cu	0.63545	0.2841	0.40528	0.919
Mof_Cu	Cu	0.46049	0.57021	0.43158	0.939
Mof_Cu	Cu	0.13545	0.7841	0.09472	0.919
Mof_Cu	Cu	0.96049	0.07021	0.06842	0.935
Mof_Cu	Cu	0.36455	0.7159	0.59472	0.919
Mof_Cu	Cu	0.53951	0.42979	0.56842	0.939
Mof_H 	H 	0.7789	0.1643	0.6921	0.047
Mof_H 	H 	0.9359	0.7975	0.707	0.034
Mof_H 	H 	0.7729	0.9366	0.5109	0.029
Mof_H 	H 	0.7211	0.3357	0.1921	0.044
Mof_H 	H 	0.5641	0.7025	0.207	0.031
Mof_H 	H 	0.7271	0.5634	0.0109	0.029
Mof_H 	H 	0.2211	0.8357	0.3079	0.047
Mof_H 	H 	0.0641	0.2025	0.293	0.034
Mof_H 	H 	0.2271	0.0634	0.4891	0.029
Mof_H 	H 	0.2789	0.6643	0.8079	0.044
Mof_H 	H 	0.4359	0.2975	0.793	0.031
Mof_H 	H 	0.2729	0.4366	0.9891	0.029
Mof_C 	C 	0.8586	0.8484	0.6042	-0.15
Mof_C 	C 	0.7661	0.069	0.595	-0.135
Mof_C 	C 	0.7996	0.0847	0.6697	0.066
Mof_C 	C 	0.8635	0.9843	0.7119	-0.122
Mof_C 	C 	0.8985	0.0088	0.7924	0.378
Mof_C 	C 	0.8932	0.8654	0.6791	0.066
Mof_C 	C 	0.7952	0.949	0.561	0.066
Mof_C 	C 	0.6942	0.18	0.5529	0.399
Mof_C 	C 	0.6414	0.6516	0.1042	-0.151
Mof_C 	C 	0.7339	0.431	0.095	-0.133
Mof_C 	C 	0.7004	0.4153	0.1697	0.073
Mof_C 	C 	0.6365	0.5157	0.2119	-0.133
Mof_C 	C 	0.6015	0.4912	0.2924	0.389
Mof_C 	C 	0.6068	0.6346	0.1791	0.071
Mof_C 	C 	0.7048	0.551	0.061	0.063
Mof_C 	C 	0.8058	0.32	0.0529	0.395
Mof_C 	C 	0.1414	0.1516	0.3958	-0.15
Mof_C 	C 	0.2339	0.931	0.405	-0.135
Mof_C 	C 	0.2004	0.9153	0.3303	0.066
Mof_C 	C 	0.1365	0.0157	0.2881	-0.122
Mof_C 	C 	0.1015	0.9912	0.2076	0.378
Mof_C 	C 	0.1068	0.1346	0.3209	0.066
Mof_C 	C 	0.2048	0.051	0.439	0.066
Mof_C 	C 	0.3058	0.82	0.4471	0.399
Mof_C 	C 	0.3586	0.3484	0.8958	-0.151
Mof_C 	C 	0.2661	0.569	0.905	-0.133
Mof_C 	C 	0.2996	0.5847	0.8303	0.073
Mof_C 	C 	0.3635	0.4843	0.7881	-0.133
Mof_C 	C 	0.3985	0.5088	0.7076	0.389
Mof_C 	C 	0.3932	0.3654	0.8209	0.071
Mof_C 	C 	0.2952	0.449	0.939	0.063
Mof_C 	C 	0.1942	0.68	0.9471	0.395
Mof_S 	S 	0.87621	0.69043	0.56506	0.548
Mof_S 	S 	0.62379	0.80957	0.06506	0.546
Mof_S 	S 	0.12379	0.30957	0.43494	0.548
Mof_S 	S 	0.37621	0.19043	0.93494	0.546
Mof_O 	O 	0.944	0.9144	0.83211	-0.375
Mof_O 	O 	0.8694	0.0583	0.96558	-0.485
Mof_O 	O 	0.656	0.1618	0.486	-0.431
Mof_O 	O 	0.8773	0.1244	0.81359	-0.412
Mof_O 	O 	0.8583	0.7004	0.4869	-0.287
Mof_O 	O 	0.6788	0.2829	0.5892	-0.397
Mof_O 	O 	0.7257	0.6111	0.5984	-0.374
Mof_O 	O 	0.0489	0.6473	0.5913	-0.318
Mof_O 	O 	0.556	0.5856	0.33211	-0.382
Mof_O 	O 	0.6306	0.4417	0.46558	-0.487
Mof_O 	O 	0.844	0.3382	0.986	-0.427
Mof_O 	O 	0.6227	0.3756	0.31359	-0.415
Mof_O 	O 	0.6417	0.7996	0.9869	-0.287
Mof_O 	O 	0.8212	0.2171	0.0892	-0.399
Mof_O 	O 	0.7743	0.8889	0.0984	-0.372
Mof_O 	O 	0.4511	0.8527	0.0913	-0.315
Mof_O 	O 	0.056	0.0856	0.16789	-0.375
Mof_O 	O 	0.1306	0.9417	0.03442	-0.485
Mof_O 	O 	0.344	0.8382	0.514	-0.431
Mof_O 	O 	0.1227	0.8756	0.18641	-0.412
Mof_O 	O 	0.1417	0.2996	0.5131	-0.287
Mof_O 	O 	0.3212	0.7171	0.4108	-0.397
Mof_O 	O 	0.2743	0.3889	0.4016	-0.374
Mof_O 	O 	0.9511	0.3527	0.4087	-0.318
Mof_O 	O 	0.444	0.4144	0.66789	-0.382
Mof_O 	O 	0.3694	0.5583	0.53442	-0.487
Mof_O 	O 	0.156	0.6618	0.014	-0.427
Mof_O 	O 	0.3773	0.6244	0.68641	-0.415
Mof_O 	O 	0.3583	0.2004	0.0131	-0.287
Mof_O 	O 	0.1788	0.7829	0.9108	-0.399
Mof_O 	O 	0.2257	0.1111	0.9016	-0.372
Mof_O 	O 	0.5489	0.1473	0.9087	-0.315
_end
