data_functionalizedCrystal
_audit_creation_method	'EQeq! by Chris Wilmer'
_symmetry_space_group_name_H-M	'P1'
_symmetry_Int_Tables_number	1
_symmetry_cell_setting	triclinic
loop_
_symmetry_equiv_pos_as_xyz
  x,y,z
_cell_length_a	9.349
_cell_length_b	9.8
_cell_length_c	11.379
_cell_angle_alpha	94.441
_cell_angle_beta	99.305
_cell_angle_gamma	111.527
loop_
_atom_site_label
_atom_site_type_symbol
_atom_site_fract_x
_atom_site_fract_y
_atom_site_fract_z
_atom_site_charge
Mof_Er	Er	0.72419	0.4549	0.01131	1.837
Mof_Er	Er	0.27581	0.5451	0.98869	1.837
Mof_H 	H 	0.7294	0.7723	0.3758	-0.023
Mof_H 	H 	0.8232	0.8984	0.5655	0.14
Mof_H 	H 	0.153	0.7256	0.6168	0.151
Mof_H 	H 	0.0664	0.6064	0.4208	-0.017
Mof_H 	H 	0.0768	0.1405	0.8373	0.072
Mof_H 	H 	0.6781	0.9964	0.9609	0.025
Mof_H 	H 	0.8029	0.7076	0.7769	0.043
Mof_H 	H 	0.2706	0.2277	0.6242	-0.023
Mof_H 	H 	0.1768	0.1016	0.4345	0.14
Mof_H 	H 	0.847	0.2744	0.3832	0.151
Mof_H 	H 	0.9336	0.3936	0.5792	-0.017
Mof_H 	H 	0.9232	0.8595	0.1627	0.072
Mof_H 	H 	0.3219	0.0036	0.0391	0.025
Mof_H 	H 	0.1971	0.2924	0.2231	0.043
Mof_C 	C 	0.8239	0.587	0.253	0.374
Mof_C 	C 	0.883	0.6698	0.3741	-0.209
Mof_C 	C 	0.8149	0.7624	0.4233	0.175
Mof_C 	C 	0.8694	0.8369	0.5367	-0.296
Mof_C 	C 	0.9953	0.821	0.6102	0.287
Mof_C 	C 	0.0684	0.7349	0.5676	-0.282
Mof_C 	C 	0.0146	0.6622	0.4504	0.157
Mof_C 	C 	0.9507	0.9222	0.7935	0.13
Mof_C 	C 	0.9857	0.064	0.8456	-0.063
Mof_C 	C 	0.8844	0.0929	0.9106	-0.133
Mof_C 	C 	0.7495	0.9769	0.9211	0.057
Mof_C 	C 	0.7189	0.832	0.8732	-0.125
Mof_C 	C 	0.821	0.8041	0.8091	-0.057
Mof_C 	C 	0.9185	0.2458	0.9664	0.47
Mof_C 	C 	0.5831	0.7085	0.8968	0.419
Mof_C 	C 	0.1761	0.413	0.747	0.374
Mof_C 	C 	0.117	0.3302	0.6259	-0.209
Mof_C 	C 	0.1851	0.2376	0.5767	0.175
Mof_C 	C 	0.1306	0.1631	0.4633	-0.296
Mof_C 	C 	0.0047	0.179	0.3898	0.287
Mof_C 	C 	0.9316	0.2651	0.4324	-0.282
Mof_C 	C 	0.9854	0.3378	0.5496	0.157
Mof_C 	C 	0.0493	0.0778	0.2065	0.13
Mof_C 	C 	0.0143	0.936	0.1544	-0.063
Mof_C 	C 	0.1156	0.9071	0.0894	-0.133
Mof_C 	C 	0.2505	0.0231	0.0789	0.057
Mof_C 	C 	0.2811	0.168	0.1268	-0.125
Mof_C 	C 	0.179	0.1959	0.1909	-0.057
Mof_C 	C 	0.0815	0.7542	0.0336	0.47
Mof_C 	C 	0.4169	0.2915	0.1032	0.419
Mof_O 	O 	0.8778	0.4948	0.2167	-0.4
Mof_O 	O 	0.7198	0.6115	0.1826	-0.428
Mof_O 	O 	0.4524	0.7226	0.8939	-0.445
Mof_O 	O 	0.6002	0.5906	0.9219	-0.549
Mof_O 	O 	0.8102	0.2687	0.009	-0.515
Mof_O 	O 	0.0503	0.3447	0.9707	-0.535
Mof_O 	O 	0.0565	0.8956	0.7273	-0.26
Mof_O 	O 	0.1222	0.5052	0.7833	-0.4
Mof_O 	O 	0.2802	0.3885	0.8174	-0.428
Mof_O 	O 	0.5476	0.2774	0.1061	-0.445
Mof_O 	O 	0.3998	0.4094	0.0781	-0.549
Mof_O 	O 	0.1898	0.7313	0.991	-0.515
Mof_O 	O 	0.9497	0.6553	0.0293	-0.535
Mof_O 	O 	0.9435	0.1044	0.2727	-0.26
_end
