data_functionalizedCrystal
_audit_creation_method	'EQeq! by Chris Wilmer'
_symmetry_space_group_name_H-M	'P1'
_symmetry_Int_Tables_number	1
_symmetry_cell_setting	triclinic
loop_
_symmetry_equiv_pos_as_xyz
  x,y,z
_cell_length_a	12.939
_cell_length_b	13.092
_cell_length_c	13.754
_cell_angle_alpha	85.449
_cell_angle_beta	70.302
_cell_angle_gamma	83.731
loop_
_atom_site_label
_atom_site_type_symbol
_atom_site_fract_x
_atom_site_fract_y
_atom_site_fract_z
_atom_site_charge
Mof_Co	Co	0.19486	0.81682	0.17002	1.154
Mof_Co	Co	0.12776	0.82552	0.38169	1.153
Mof_H 	H 	0.8723	0.8034	0.1689	0.057
Mof_H 	H 	0.7438	0.7816	0.0765	0.06
Mof_H 	H 	0.5663	0.7828	0.0776	0.041
Mof_H 	H 	0.4499	0.8324	0.3814	0.056
Mof_H 	H 	0.5806	0.8512	0.4758	0.062
Mof_H 	H 	0.7587	0.8578	0.4724	0.04
Mof_H 	H 	0.1267	0.1553	0.4006	0.067
Mof_H 	H 	0.1057	0.3252	0.4798	0.074
Mof_H 	H 	0.117	0.4995	0.4614	0.039
Mof_H 	H 	0.2074	0.4862	0.1501	0.055
Mof_H 	H 	0.2179	0.3195	0.0726	0.057
Mof_H 	H 	0.2074	0.1449	0.0927	0.04
Mof_H 	H 	0.0791	0.9457	0.0411	0.013
Mof_H 	H 	0.0421	0.9389	0.8882	0.071
Mof_H 	H 	0.211	0.6708	0.8391	0.073
Mof_H 	H 	0.2251	0.6733	0.0006	0.005
Mof_H 	H 	0.1149	0.9703	0.71	0.082
Mof_H 	H 	0.1041	0.971	0.5467	0.008
Mof_H 	H 	0.2043	0.6848	0.5239	0.004
Mof_H 	H 	0.2323	0.6791	0.6822	0.074
Mof_C 	C 	0.9481	0.8308	0.3172	0.348
Mof_C 	C 	0.8336	0.8288	0.3188	-0.087
Mof_C 	C 	0.8121	0.8134	0.2311	-0.034
Mof_C 	C 	0.7038	0.8117	0.2287	0.028
Mof_C 	C 	0.684	0.7936	0.1386	-0.089
Mof_C 	C 	0.5791	0.7934	0.1399	0.021
Mof_C 	C 	0.4878	0.8084	0.2314	-0.087
Mof_C 	C 	0.5101	0.8237	0.319	-0.028
Mof_C 	C 	0.6157	0.8273	0.322	0.022
Mof_C 	C 	0.6395	0.8425	0.4124	-0.083
Mof_C 	C 	0.745	0.8451	0.411	0.013
Mof_C 	C 	0.3733	0.8093	0.2327	0.365
Mof_C 	C 	0.1599	0.0186	0.2616	0.35
Mof_C 	C 	0.1653	0.1329	0.2502	-0.072
Mof_C 	C 	0.1445	0.1893	0.3342	-0.044
Mof_C 	C 	0.1484	0.2956	0.3259	0.035
Mof_C 	C 	0.1258	0.3574	0.4124	-0.095
Mof_C 	C 	0.1318	0.4605	0.402	0.024
Mof_C 	C 	0.1603	0.51	0.3024	-0.088
Mof_C 	C 	0.1848	0.453	0.217	-0.026
Mof_C 	C 	0.177	0.3452	0.2268	0.019
Mof_C 	C 	0.1989	0.2869	0.1398	-0.08
Mof_C 	C 	0.1927	0.1839	0.152	0.009
Mof_C 	C 	0.1637	0.6234	0.2913	0.363
Mof_C 	C 	0.1147	0.8917	0.9959	0.054
Mof_C 	C 	0.0959	0.8911	0.9033	-0.112
Mof_C 	C 	0.1587	0.8172	0.8307	0.052
Mof_C 	C 	0.1929	0.7333	0.8742	-0.128
Mof_C 	C 	0.2024	0.7361	0.9711	0.08
Mof_C 	C 	0.1489	0.8195	0.7266	0.062
Mof_C 	C 	0.1264	0.907	0.677	-0.133
Mof_C 	C 	0.1196	0.907	0.579	0.091
Mof_C 	C 	0.1792	0.7431	0.5653	0.084
Mof_C 	C 	0.1933	0.7375	0.6612	-0.127
Mof_N 	N 	0.1829	0.8175	0.0255	-0.228
Mof_N 	N 	0.1334	0.824	0.5286	-0.242
Mof_O 	O 	0.0234	0.82539	0.22994	-0.445
Mof_O 	O 	0.9646	0.83744	0.40143	-0.432
Mof_O 	O 	0.2981	0.81093	0.3179	-0.459
Mof_O 	O 	0.3575	0.8085	0.1464	-0.422
Mof_O 	O 	0.1822	0.9714	0.17849	-0.436
Mof_O 	O 	0.1345	0.97822	0.35051	-0.442
Mof_O 	O 	0.1364	0.67197	0.37354	-0.444
Mof_O 	O 	0.1921	0.66542	0.20123	-0.443
Mof_Co	Co	0.80514	0.18318	0.82998	1.155
Mof_Co	Co	0.87224	0.17448	0.61831	1.154
Mof_H 	H 	0.1277	0.1966	0.8311	0.057
Mof_H 	H 	0.2562	0.2184	0.9235	0.06
Mof_H 	H 	0.4337	0.2172	0.9224	0.041
Mof_H 	H 	0.5501	0.1676	0.6186	0.056
Mof_H 	H 	0.4194	0.1488	0.5242	0.062
Mof_H 	H 	0.2413	0.1422	0.5276	0.04
Mof_H 	H 	0.8733	0.8447	0.5994	0.067
Mof_H 	H 	0.8943	0.6748	0.5202	0.074
Mof_H 	H 	0.883	0.5005	0.5386	0.039
Mof_H 	H 	0.7926	0.5138	0.8499	0.055
Mof_H 	H 	0.7821	0.6805	0.9274	0.057
Mof_H 	H 	0.7926	0.8551	0.9073	0.04
Mof_H 	H 	0.9209	0.0543	0.9589	0.013
Mof_H 	H 	0.9579	0.0611	0.1118	0.071
Mof_H 	H 	0.789	0.3292	0.1609	0.073
Mof_H 	H 	0.7749	0.3267	0.9994	0.005
Mof_H 	H 	0.8851	0.0297	0.29	0.082
Mof_H 	H 	0.8959	0.029	0.4533	0.008
Mof_H 	H 	0.7957	0.3152	0.4761	0.004
Mof_H 	H 	0.7677	0.3209	0.3178	0.074
Mof_C 	C 	0.0519	0.1692	0.6828	0.348
Mof_C 	C 	0.1664	0.1712	0.6812	-0.087
Mof_C 	C 	0.1879	0.1866	0.7689	-0.034
Mof_C 	C 	0.2962	0.1883	0.7713	0.028
Mof_C 	C 	0.316	0.2064	0.8614	-0.089
Mof_C 	C 	0.4209	0.2066	0.8601	0.021
Mof_C 	C 	0.5122	0.1916	0.7686	-0.087
Mof_C 	C 	0.4899	0.1763	0.681	-0.028
Mof_C 	C 	0.3843	0.1727	0.678	0.022
Mof_C 	C 	0.3605	0.1575	0.5876	-0.083
Mof_C 	C 	0.255	0.1549	0.589	0.013
Mof_C 	C 	0.6267	0.1907	0.7673	0.365
Mof_C 	C 	0.8401	0.9814	0.7384	0.35
Mof_C 	C 	0.8347	0.8671	0.7498	-0.072
Mof_C 	C 	0.8555	0.8107	0.6658	-0.044
Mof_C 	C 	0.8516	0.7044	0.6741	0.035
Mof_C 	C 	0.8742	0.6426	0.5876	-0.095
Mof_C 	C 	0.8682	0.5395	0.598	0.024
Mof_C 	C 	0.8397	0.49	0.6976	-0.088
Mof_C 	C 	0.8152	0.547	0.783	-0.026
Mof_C 	C 	0.823	0.6548	0.7732	0.019
Mof_C 	C 	0.8011	0.7131	0.8602	-0.08
Mof_C 	C 	0.8073	0.8161	0.848	0.009
Mof_C 	C 	0.8363	0.3766	0.7087	0.363
Mof_C 	C 	0.8853	0.1083	0.0041	0.054
Mof_C 	C 	0.9041	0.1089	0.0967	-0.112
Mof_C 	C 	0.8413	0.1828	0.1693	0.052
Mof_C 	C 	0.8071	0.2667	0.1258	-0.128
Mof_C 	C 	0.7976	0.2639	0.0289	0.08
Mof_C 	C 	0.8511	0.1805	0.2734	0.062
Mof_C 	C 	0.8736	0.093	0.323	-0.133
Mof_C 	C 	0.8804	0.093	0.421	0.091
Mof_C 	C 	0.8208	0.2569	0.4347	0.084
Mof_C 	C 	0.8067	0.2625	0.3388	-0.127
Mof_N 	N 	0.8171	0.1825	0.9745	-0.228
Mof_N 	N 	0.8666	0.176	0.4714	-0.242
Mof_O 	O 	0.9766	0.17461	0.77006	-0.445
Mof_O 	O 	0.0354	0.16256	0.59857	-0.432
Mof_O 	O 	0.7019	0.18907	0.6821	-0.459
Mof_O 	O 	0.6425	0.1915	0.8536	-0.422
Mof_O 	O 	0.8178	0.0286	0.82151	-0.436
Mof_O 	O 	0.8655	0.02178	0.64949	-0.442
Mof_O 	O 	0.8636	0.32803	0.62646	-0.444
Mof_O 	O 	0.8079	0.33458	0.79877	-0.443
_end
