# CIF file generated by openbabel 3.1.0, see https://openbabel.org
data_I
_chemical_name_common 'LELMIA01_clean'
_cell_length_a 5.9795
_cell_length_b 11.3592
_cell_length_c 17.0583
_cell_angle_alpha 90
_cell_angle_beta 90
_cell_angle_gamma 91.257
_space_group_name_H-M_alt 'P 1'
_space_group_name_Hall 'P 1'
loop_
    _symmetry_equiv_pos_as_xyz
    x,y,z
loop_
    _atom_site_label
    _atom_site_type_symbol
    _atom_site_fract_x
    _atom_site_fract_y
    _atom_site_fract_z
    _atom_site_occupancy
    Sr1      Sr       0.72232    0.90441    0.99810    1.000
    Sr2      Sr       0.77768    0.59559    0.49810    1.000
    Sr3      Sr       0.27768    0.09559    0.00190    1.000
    Sr4      Sr       0.22232    0.40441    0.50190    1.000
    H1       H        0.11600    0.33600    0.68650    1.000
    H2       H        0.15600    0.22550    0.81250    1.000
    H3       H        0.38400    0.16400    0.18650    1.000
    H4       H        0.34400    0.27450    0.31250    1.000
    H5       H        0.88400    0.66400    0.31350    1.000
    H6       H        0.84400    0.77450    0.18750    1.000
    H7       H        0.61600    0.83600    0.81350    1.000
    H8       H        0.65600    0.72550    0.68750    1.000
    C1       C        0.78360    0.10510    0.87895    1.000
    C2       C        0.82110    0.17947    0.80857    1.000
    C3       C        0.01740    0.23223    0.78424    1.000
    C4       C        0.99450    0.29282    0.71234    1.000
    C5       C        0.78130    0.28395    0.68302    1.000
    C6       C        0.69200    0.32906    0.60743    1.000
    C7       C        0.71640    0.39490    0.37895    1.000
    C8       C        0.67890    0.32053    0.30857    1.000
    C9       C        0.48260    0.26777    0.28424    1.000
    C10      C        0.50550    0.20718    0.21234    1.000
    C11      C        0.71870    0.21605    0.18302    1.000
    C12      C        0.80800    0.17094    0.10743    1.000
    C13      C        0.21640    0.89490    0.12105    1.000
    C14      C        0.17890    0.82053    0.19143    1.000
    C15      C        0.98260    0.76777    0.21576    1.000
    C16      C        0.00550    0.70718    0.28766    1.000
    C17      C        0.21870    0.71605    0.31698    1.000
    C18      C        0.30800    0.67094    0.39257    1.000
    C19      C        0.28360    0.60510    0.62105    1.000
    C20      C        0.32110    0.67947    0.69143    1.000
    C21      C        0.51740    0.73223    0.71576    1.000
    C22      C        0.49450    0.79282    0.78766    1.000
    C23      C        0.28130    0.78395    0.81698    1.000
    C24      C        0.19200    0.82906    0.89257    1.000
    S1       S        0.60750    0.20338    0.74379    1.000
    S2       S        0.89250    0.29662    0.24379    1.000
    S3       S        0.39250    0.79662    0.25621    1.000
    S4       S        0.10750    0.70338    0.75621    1.000
    O1       O        0.58663    0.07470    0.89650    1.000
    O2       O        0.95366    0.07317    0.91648    1.000
    O3       O        0.48731    0.31005    0.59437    1.000
    O4       O        0.82865    0.38075    0.56214    1.000
    O5       O        0.91337    0.42530    0.39650    1.000
    O6       O        0.54634    0.42683    0.41648    1.000
    O7       O        0.01269    0.18995    0.09437    1.000
    O8       O        0.67135    0.11925    0.06214    1.000
    O9       O        0.41337    0.92530    0.10350    1.000
    O10      O        0.04634    0.92683    0.08352    1.000
    O11      O        0.51269    0.68995    0.40563    1.000
    O12      O        0.17135    0.61925    0.43786    1.000
    O13      O        0.08663    0.57470    0.60350    1.000
    O14      O        0.45366    0.57317    0.58352    1.000
    O15      O        0.98731    0.81005    0.90563    1.000
    O16      O        0.32865    0.88075    0.93786    1.000
