# CIF file generated by openbabel 3.1.0, see https://openbabel.org
data_I
_chemical_name_common 'DOQHEX_clean'
_cell_length_a 7.23
_cell_length_b 10.2535
_cell_length_c 13.2239
_cell_angle_alpha 90
_cell_angle_beta 90
_cell_angle_gamma 99.869
_space_group_name_H-M_alt 'P 1'
_space_group_name_Hall 'P 1'
loop_
    _symmetry_equiv_pos_as_xyz
    x,y,z
loop_
    _atom_site_label
    _atom_site_type_symbol
    _atom_site_fract_x
    _atom_site_fract_y
    _atom_site_fract_z
    _atom_site_occupancy
    Pr1      Pr       0.16239    0.28166    0.90546    1.000
    Pr2      Pr       0.83761    0.21834    0.40546    1.000
    Pr3      Pr       0.83761    0.71834    0.09454    1.000
    Pr4      Pr       0.16239    0.78166    0.59454    1.000
    P1       P        0.78692    0.07166    0.04994    1.000
    P2       P        0.21308    0.42834    0.54994    1.000
    P3       P        0.21308    0.92834    0.95006    1.000
    P4       P        0.78692    0.57166    0.45006    1.000
    H1       H        0.59170    0.18890    0.04540    1.000
    H2       H        0.86850    0.00120    0.25840    1.000
    H3       H        0.05780    0.08600    0.14880    1.000
    H4       H        0.40830    0.31110    0.54540    1.000
    H5       H        0.13150    0.49880    0.75840    1.000
    H6       H        0.94220    0.41400    0.64880    1.000
    H7       H        0.40830    0.81110    0.95460    1.000
    H8       H        0.13150    0.99880    0.74160    1.000
    H9       H        0.94220    0.91400    0.85120    1.000
    H10      H        0.59170    0.68890    0.45460    1.000
    H11      H        0.86850    0.50120    0.24160    1.000
    H12      H        0.05780    0.58600    0.35120    1.000
    C1       C        0.94390    0.12510    0.15570    1.000
    C2       C        0.99820    0.27430    0.16330    1.000
    C3       C        0.45220    0.55420    0.97570    1.000
    C4       C        0.05610    0.37490    0.65570    1.000
    C5       C        0.00180    0.22570    0.66330    1.000
    C6       C        0.54780    0.94580    0.47570    1.000
    C7       C        0.05610    0.87490    0.84430    1.000
    C8       C        0.00180    0.72570    0.83670    1.000
    C9       C        0.54780    0.44580    0.02430    1.000
    C10      C        0.94390    0.62510    0.34430    1.000
    C11      C        0.99820    0.77430    0.33670    1.000
    C12      C        0.45220    0.05420    0.52430    1.000
    O1       O        0.60290    0.12500    0.08080    1.000
    O2       O        0.86870    0.13150    0.95310    1.000
    O3       O        0.74480    0.92350    0.05540    1.000
    O4       O        0.84680    0.07550    0.24620    1.000
    O5       O        0.08060    0.33370    0.08760    1.000
    O6       O        0.96040    0.33100    0.24350    1.000
    O7       O        0.30670    0.51900    0.92640    1.000
    O8       O        0.53200    0.67170    0.99130    1.000
    O9       O        0.39710    0.37500    0.58080    1.000
    O10      O        0.13130    0.36850    0.45310    1.000
    O11      O        0.25520    0.57650    0.55540    1.000
    O12      O        0.15320    0.42450    0.74620    1.000
    O13      O        0.91940    0.16630    0.58760    1.000
    O14      O        0.03960    0.16900    0.74350    1.000
    O15      O        0.69330    0.98100    0.42640    1.000
    O16      O        0.46800    0.82830    0.49130    1.000
    O17      O        0.39710    0.87500    0.91920    1.000
    O18      O        0.13130    0.86850    0.04690    1.000
    O19      O        0.25520    0.07650    0.94460    1.000
    O20      O        0.15320    0.92450    0.75380    1.000
    O21      O        0.91940    0.66630    0.91240    1.000
    O22      O        0.03960    0.66900    0.75650    1.000
    O23      O        0.69330    0.48100    0.07360    1.000
    O24      O        0.46800    0.32830    0.00870    1.000
    O25      O        0.60290    0.62500    0.41920    1.000
    O26      O        0.86870    0.63150    0.54690    1.000
    O27      O        0.74480    0.42350    0.44460    1.000
    O28      O        0.84680    0.57550    0.25380    1.000
    O29      O        0.08060    0.83370    0.41240    1.000
    O30      O        0.96040    0.83100    0.25650    1.000
    O31      O        0.30670    0.01900    0.57360    1.000
    O32      O        0.53200    0.17170    0.50870    1.000
