data_functionalizedCrystal
_audit_creation_method	'EQeq! by Chris Wilmer'
_symmetry_space_group_name_H-M	'P1'
_symmetry_Int_Tables_number	1
_symmetry_cell_setting	triclinic
loop_
_symmetry_equiv_pos_as_xyz
  x,y,z
_cell_length_a	35.577
_cell_length_b	14.634
_cell_length_c	30.5
_cell_angle_alpha	90
_cell_angle_beta	102.333
_cell_angle_gamma	90
loop_
_atom_site_label
_atom_site_type_symbol
_atom_site_fract_x
_atom_site_fract_y
_atom_site_fract_z
_atom_site_charge
Mof_Br	Br	0.27234	0.23568	0.70941	-0.479
Mof_Br	Br	0.36894	0.15165	0.80065	-0.473
Mof_Br	Br	0.38231	0.74434	0.43678	-0.464
Mof_Br	Br	0.46949	0.66778	0.3722	-0.45
Mof_Br	Br	0.10445	0.73824	0.09392	-0.474
Mof_Br	Br	0.13455	0.59958	0.98817	-0.464
Mof_C 	C 	0.1723	0.453	0.0973	0.094
Mof_H 	H 	0.1583	0.4222	0.0725	0.01
Mof_C 	C 	0.2017	0.4061	0.126	-0.128
Mof_H 	H 	0.207	0.3454	0.1206	0.102
Mof_C 	C 	0.22265	0.4516	0.16254	0.07
Mof_C 	C 	0.21363	0.5428	0.169	-0.139
Mof_H 	H 	0.2277	0.5756	0.1931	0.111
Mof_C 	C 	0.18412	0.5831	0.1396	0.087
Mof_H 	H 	0.178	0.6435	0.1446	0.003
Mof_C 	C 	0.25424	0.4069	0.19412	0.087
Mof_C 	C 	0.28923	0.2818	0.218	0.113
Mof_C 	C 	0.304	0.4152	0.25394	0.103
Mof_C 	C 	0.29796	0.1808	0.2165	0.074
Mof_C 	C 	0.27279	0.1202	0.1912	-0.128
Mof_H 	H 	0.2502	0.1409	0.1725	0.091
Mof_C 	C 	0.28163	0.0265	0.1939	0.081
Mof_H 	H 	0.2648	0.9855	0.1765	-0.003
Mof_C 	C 	0.3382	0.054	0.2433	0.089
Mof_H 	H 	0.3612	0.0319	0.2602	-0.011
Mof_C 	C 	0.3319	0.1453	0.2432	-0.138
Mof_H 	H 	0.3499	0.184	0.2605	0.096
Mof_C 	C 	0.3805	0.4739	0.3539	0.083
Mof_H 	H 	0.3993	0.4435	0.3747	0.005
Mof_C 	C 	0.3572	0.4242	0.3213	-0.133
Mof_H 	H 	0.3602	0.3613	0.3196	0.107
Mof_C 	C 	0.32889	0.4688	0.29058	0.072
Mof_C 	C 	0.32502	0.5636	0.2948	-0.139
Mof_H 	H 	0.3061	0.5954	0.2749	0.096
Mof_C 	C 	0.34951	0.6088	0.3286	0.081
Mof_H 	H 	0.3466	0.6715	0.3316	0.003
Mof_C 	C 	0.46114	0.4749	0.45071	0.088
Mof_H 	H 	0.4782	0.4884	0.4324	-0.004
Mof_C 	C 	0.46737	0.397	0.4766	-0.128
Mof_H 	H 	0.4874	0.3576	0.4745	0.087
Mof_C 	C 	0.44315	0.3783	0.50582	0.068
Mof_C 	C 	0.4134	0.4397	0.5067	-0.129
Mof_H 	H 	0.3967	0.4299	0.5258	0.093
Mof_C 	C 	0.4091	0.5138	0.4795	0.079
Mof_H 	H 	0.3892	0.5544	0.4807	-0.004
Mof_C 	C 	0.4486	0.2945	0.53482	0.103
Mof_C 	C 	0.48125	0.167	0.55879	0.101
Mof_C 	C 	0.43335	0.2136	0.59074	0.113
Mof_C 	C 	0.40848	0.1978	0.6231	0.094
Mof_C 	C 	0.4192	0.144	0.6599	-0.149
Mof_H 	H 	0.4434	0.1168	0.6658	0.102
Mof_C 	C 	0.3952	0.1292	0.6882	0.102
Mof_H 	H 	0.4038	0.0921	0.713	-0.016
Mof_C 	C 	0.349	0.2164	0.6459	0.093
Mof_H 	H 	0.3245	0.2418	0.6404	-0.005
Mof_C 	C 	0.3721	0.2341	0.6159	-0.138
Mof_H 	H 	0.3631	0.2706	0.5909	0.103
Mof_C 	C 	0.51339	0.1027	0.55758	0.067
Mof_C 	C 	0.53	0.0977	0.5208	-0.132
Mof_H 	H 	0.5211	0.1341	0.4958	0.089
Mof_C 	C 	0.56021	0.0376	0.5218	0.085
Mof_H 	H 	0.571	0.0331	0.4966	0.004
Mof_C 	C 	0.5584	0.9917	0.5931	0.092
Mof_H 	H 	0.568	0.9553	0.6179	-0.009
Mof_C 	C 	0.5283	0.0492	0.5946	-0.131
Mof_H 	H 	0.518	0.0522	0.6202	0.098
Mof_N 	N 	0.16315	0.5389	0.10339	-0.267
Mof_N 	N 	0.31354	0.9945	0.22087	-0.266
Mof_N 	N 	0.37749	0.5654	0.35743	-0.26
Mof_N 	N 	0.26038	0.3159	0.18814	-0.134
Mof_N 	N 	0.31256	0.3271	0.25111	-0.132
Mof_N 	N 	0.27463	0.4588	0.22698	-0.134
Mof_N 	N 	0.43209	0.5315	0.45067	-0.267
Mof_N 	N 	0.57448	0.9856	0.55767	-0.266
Mof_N 	N 	0.36	0.1647	0.68245	-0.278
Mof_N 	N 	0.42594	0.2876	0.56454	-0.13
Mof_N 	N 	0.4757	0.236	0.52913	-0.142
Mof_N 	N 	0.46108	0.1528	0.59036	-0.128
Mof_Zn	Zn	0.32728	0.14378	0.72863	1.19
Mof_Zn	Zn	0.41729	0.63624	0.40476	1.192
Mof_Zn	Zn	0.11959	0.60315	0.05905	1.192
Mof_Br	Br	0.77234	0.73568	0.70941	-0.48
Mof_Br	Br	0.86894	0.65165	0.80065	-0.474
Mof_Br	Br	0.88231	0.24434	0.43678	-0.465
Mof_Br	Br	0.96949	0.16778	0.3722	-0.452
Mof_Br	Br	0.60445	0.23824	0.09392	-0.475
Mof_Br	Br	0.63455	0.09958	0.98817	-0.465
Mof_C 	C 	0.6723	0.953	0.0973	0.094
Mof_H 	H 	0.6583	0.9222	0.0725	0.009
Mof_C 	C 	0.7017	0.9061	0.126	-0.129
Mof_H 	H 	0.707	0.8454	0.1206	0.102
Mof_C 	C 	0.72265	0.9516	0.16254	0.07
Mof_C 	C 	0.71363	0.0428	0.169	-0.14
Mof_H 	H 	0.7277	0.0756	0.1931	0.11
Mof_C 	C 	0.68412	0.0831	0.1396	0.086
Mof_H 	H 	0.678	0.1435	0.1446	0.002
Mof_C 	C 	0.75424	0.9069	0.19412	0.086
Mof_C 	C 	0.78923	0.7818	0.218	0.112
Mof_C 	C 	0.804	0.9152	0.25394	0.102
Mof_C 	C 	0.79796	0.6808	0.2165	0.073
Mof_C 	C 	0.77279	0.6202	0.1912	-0.13
Mof_H 	H 	0.7502	0.6409	0.1725	0.09
Mof_C 	C 	0.78163	0.5265	0.1939	0.081
Mof_H 	H 	0.7648	0.4855	0.1765	-0.004
Mof_C 	C 	0.8382	0.554	0.2433	0.089
Mof_H 	H 	0.8612	0.5319	0.2602	-0.011
Mof_C 	C 	0.8319	0.6453	0.2432	-0.138
Mof_H 	H 	0.8499	0.684	0.2605	0.096
Mof_C 	C 	0.8805	0.9739	0.3539	0.084
Mof_H 	H 	0.8993	0.9435	0.3747	0.005
Mof_C 	C 	0.8572	0.9242	0.3213	-0.133
Mof_H 	H 	0.8602	0.8613	0.3196	0.108
Mof_C 	C 	0.82889	0.9688	0.29058	0.072
Mof_C 	C 	0.82502	0.0636	0.2948	-0.139
Mof_H 	H 	0.8061	0.0954	0.2749	0.097
Mof_C 	C 	0.84951	0.1088	0.3286	0.081
Mof_H 	H 	0.8466	0.1715	0.3316	0.002
Mof_C 	C 	0.96114	0.9749	0.45071	0.088
Mof_H 	H 	0.9782	0.9884	0.4324	-0.004
Mof_C 	C 	0.96737	0.897	0.4766	-0.128
Mof_H 	H 	0.9874	0.8576	0.4745	0.087
Mof_C 	C 	0.94315	0.8783	0.50582	0.068
Mof_C 	C 	0.9134	0.9397	0.5067	-0.129
Mof_H 	H 	0.8967	0.9299	0.5258	0.093
Mof_C 	C 	0.9091	0.0138	0.4795	0.079
Mof_H 	H 	0.8892	0.0544	0.4807	-0.004
Mof_C 	C 	0.9486	0.7945	0.53482	0.103
Mof_C 	C 	0.98125	0.667	0.55879	0.101
Mof_C 	C 	0.93335	0.7136	0.59074	0.113
Mof_C 	C 	0.90848	0.6978	0.6231	0.094
Mof_C 	C 	0.9192	0.644	0.6599	-0.149
Mof_H 	H 	0.9434	0.6168	0.6658	0.102
Mof_C 	C 	0.8952	0.6292	0.6882	0.102
Mof_H 	H 	0.9038	0.5921	0.713	-0.016
Mof_C 	C 	0.849	0.7164	0.6459	0.093
Mof_H 	H 	0.8245	0.7418	0.6404	-0.005
Mof_C 	C 	0.8721	0.7341	0.6159	-0.138
Mof_H 	H 	0.8631	0.7706	0.5909	0.103
Mof_C 	C 	0.01339	0.6027	0.55758	0.067
Mof_C 	C 	0.03	0.5977	0.5208	-0.132
Mof_H 	H 	0.0211	0.6341	0.4958	0.089
Mof_C 	C 	0.06021	0.5376	0.5218	0.085
Mof_H 	H 	0.071	0.5331	0.4966	0.004
Mof_C 	C 	0.0584	0.4917	0.5931	0.092
Mof_H 	H 	0.068	0.4553	0.6179	-0.009
Mof_C 	C 	0.0283	0.5492	0.5946	-0.132
Mof_H 	H 	0.018	0.5522	0.6202	0.098
Mof_N 	N 	0.66315	0.0389	0.10339	-0.267
Mof_N 	N 	0.81354	0.4945	0.22087	-0.266
Mof_N 	N 	0.87749	0.0654	0.35743	-0.26
Mof_N 	N 	0.76038	0.8159	0.18814	-0.134
Mof_N 	N 	0.81256	0.8271	0.25111	-0.132
Mof_N 	N 	0.77463	0.9588	0.22698	-0.134
Mof_N 	N 	0.93209	0.0315	0.45067	-0.267
Mof_N 	N 	0.07448	0.4856	0.55767	-0.266
Mof_N 	N 	0.86	0.6647	0.68245	-0.278
Mof_N 	N 	0.92594	0.7876	0.56454	-0.13
Mof_N 	N 	0.9757	0.736	0.52913	-0.142
Mof_N 	N 	0.96108	0.6528	0.59036	-0.128
Mof_Zn	Zn	0.82728	0.64378	0.72863	1.189
Mof_Zn	Zn	0.91729	0.13624	0.40476	1.192
Mof_Zn	Zn	0.61959	0.10315	0.05905	1.192
Mof_Br	Br	0.27234	0.76432	0.20941	-0.48
Mof_Br	Br	0.36894	0.84835	0.30065	-0.474
Mof_Br	Br	0.38231	0.25566	0.93678	-0.465
Mof_Br	Br	0.46949	0.33222	0.8722	-0.451
Mof_Br	Br	0.10445	0.26176	0.59392	-0.475
Mof_Br	Br	0.13455	0.40042	0.48817	-0.465
Mof_C 	C 	0.1723	0.547	0.5973	0.093
Mof_H 	H 	0.1583	0.5778	0.5725	0.009
Mof_C 	C 	0.2017	0.5939	0.626	-0.129
Mof_H 	H 	0.207	0.6546	0.6206	0.101
Mof_C 	C 	0.22265	0.5484	0.66254	0.069
Mof_C 	C 	0.21363	0.4572	0.669	-0.14
Mof_H 	H 	0.2277	0.4244	0.6931	0.11
Mof_C 	C 	0.18412	0.4169	0.6396	0.086
Mof_H 	H 	0.178	0.3565	0.6446	0.002
Mof_C 	C 	0.25424	0.5931	0.69412	0.086
Mof_C 	C 	0.28923	0.7182	0.718	0.112
Mof_C 	C 	0.304	0.5848	0.75394	0.102
Mof_C 	C 	0.29796	0.8192	0.7165	0.073
Mof_C 	C 	0.27279	0.8798	0.6912	-0.129
Mof_H 	H 	0.2502	0.8591	0.6725	0.09
Mof_C 	C 	0.28163	0.9735	0.6939	0.08
Mof_H 	H 	0.2648	0.0145	0.6765	-0.004
Mof_C 	C 	0.3382	0.946	0.7433	0.088
Mof_H 	H 	0.3612	0.9681	0.7602	-0.011
Mof_C 	C 	0.3319	0.8547	0.7432	-0.138
Mof_H 	H 	0.3499	0.816	0.7605	0.096
Mof_C 	C 	0.3805	0.5261	0.8539	0.083
Mof_H 	H 	0.3993	0.5565	0.8747	0.005
Mof_C 	C 	0.3572	0.5758	0.8213	-0.133
Mof_H 	H 	0.3602	0.6387	0.8196	0.107
Mof_C 	C 	0.32889	0.5312	0.79058	0.072
Mof_C 	C 	0.32502	0.4364	0.7948	-0.139
Mof_H 	H 	0.3061	0.4046	0.7749	0.096
Mof_C 	C 	0.34951	0.3912	0.8286	0.081
Mof_H 	H 	0.3466	0.3285	0.8316	0.003
Mof_C 	C 	0.46114	0.5251	0.95071	0.088
Mof_H 	H 	0.4782	0.5116	0.9324	-0.004
Mof_C 	C 	0.46737	0.603	0.9766	-0.128
Mof_H 	H 	0.4874	0.6424	0.9745	0.087
Mof_C 	C 	0.44315	0.6217	0.00582	0.068
Mof_C 	C 	0.4134	0.5603	0.0067	-0.129
Mof_H 	H 	0.3967	0.5701	0.0258	0.093
Mof_C 	C 	0.4091	0.4862	0.9795	0.079
Mof_H 	H 	0.3892	0.4456	0.9807	-0.004
Mof_C 	C 	0.4486	0.7055	0.03482	0.103
Mof_C 	C 	0.48125	0.833	0.05879	0.101
Mof_C 	C 	0.43335	0.7864	0.09074	0.113
Mof_C 	C 	0.40848	0.8022	0.1231	0.094
Mof_C 	C 	0.4192	0.856	0.1599	-0.149
Mof_H 	H 	0.4434	0.8832	0.1658	0.102
Mof_C 	C 	0.3952	0.8708	0.1882	0.102
Mof_H 	H 	0.4038	0.9079	0.213	-0.016
Mof_C 	C 	0.349	0.7836	0.1459	0.093
Mof_H 	H 	0.3245	0.7582	0.1404	-0.005
Mof_C 	C 	0.3721	0.7659	0.1159	-0.138
Mof_H 	H 	0.3631	0.7294	0.0909	0.103
Mof_C 	C 	0.51339	0.8973	0.05758	0.067
Mof_C 	C 	0.53	0.9023	0.0208	-0.132
Mof_H 	H 	0.5211	0.8659	0.9958	0.089
Mof_C 	C 	0.56021	0.9624	0.0218	0.086
Mof_H 	H 	0.571	0.9669	0.9966	0.003
Mof_C 	C 	0.5584	0.0083	0.0931	0.092
Mof_H 	H 	0.568	0.0447	0.1179	-0.009
Mof_C 	C 	0.5283	0.9508	0.0946	-0.131
Mof_H 	H 	0.518	0.9478	0.1202	0.098
Mof_N 	N 	0.16315	0.4611	0.60339	-0.267
Mof_N 	N 	0.31354	0.0055	0.72087	-0.266
Mof_N 	N 	0.37749	0.4346	0.85743	-0.26
Mof_N 	N 	0.26038	0.6841	0.68814	-0.134
Mof_N 	N 	0.31256	0.6729	0.75111	-0.132
Mof_N 	N 	0.27463	0.5412	0.72698	-0.134
Mof_N 	N 	0.43209	0.4685	0.95067	-0.267
Mof_N 	N 	0.57448	0.0144	0.05767	-0.266
Mof_N 	N 	0.36	0.8353	0.18245	-0.278
Mof_N 	N 	0.42594	0.7124	0.06454	-0.13
Mof_N 	N 	0.4757	0.764	0.02913	-0.142
Mof_N 	N 	0.46108	0.8472	0.09036	-0.128
Mof_Zn	Zn	0.32728	0.85622	0.22863	1.19
Mof_Zn	Zn	0.41729	0.36376	0.90476	1.192
Mof_Zn	Zn	0.11959	0.39685	0.55905	1.192
Mof_Br	Br	0.77234	0.26432	0.20941	-0.48
Mof_Br	Br	0.86894	0.34835	0.30065	-0.474
Mof_Br	Br	0.88231	0.75566	0.93678	-0.466
Mof_Br	Br	0.96949	0.83222	0.8722	-0.452
Mof_Br	Br	0.60445	0.76176	0.59392	-0.475
Mof_Br	Br	0.63455	0.90042	0.48817	-0.465
Mof_C 	C 	0.6723	0.047	0.5973	0.093
Mof_H 	H 	0.6583	0.0778	0.5725	0.009
Mof_C 	C 	0.7017	0.0939	0.626	-0.129
Mof_H 	H 	0.707	0.1546	0.6206	0.102
Mof_C 	C 	0.72265	0.0484	0.66254	0.069
Mof_C 	C 	0.71363	0.9572	0.669	-0.14
Mof_H 	H 	0.7277	0.9244	0.6931	0.11
Mof_C 	C 	0.68412	0.9169	0.6396	0.086
Mof_H 	H 	0.678	0.8565	0.6446	0.002
Mof_C 	C 	0.75424	0.0931	0.69412	0.086
Mof_C 	C 	0.78923	0.2182	0.718	0.112
Mof_C 	C 	0.804	0.0848	0.75394	0.102
Mof_C 	C 	0.79796	0.3192	0.7165	0.073
Mof_C 	C 	0.77279	0.3798	0.6912	-0.13
Mof_H 	H 	0.7502	0.3591	0.6725	0.09
Mof_C 	C 	0.78163	0.4735	0.6939	0.081
Mof_H 	H 	0.7648	0.5145	0.6765	-0.004
Mof_C 	C 	0.8382	0.446	0.7433	0.089
Mof_H 	H 	0.8612	0.4681	0.7602	-0.011
Mof_C 	C 	0.8319	0.3547	0.7432	-0.138
Mof_H 	H 	0.8499	0.316	0.7605	0.096
Mof_C 	C 	0.8805	0.0261	0.8539	0.084
Mof_H 	H 	0.8993	0.0565	0.8747	0.005
Mof_C 	C 	0.8572	0.0758	0.8213	-0.133
Mof_H 	H 	0.8602	0.1387	0.8196	0.108
Mof_C 	C 	0.82889	0.0312	0.79058	0.072
Mof_C 	C 	0.82502	0.9364	0.7948	-0.14
Mof_H 	H 	0.8061	0.9046	0.7749	0.097
Mof_C 	C 	0.84951	0.8912	0.8286	0.081
Mof_H 	H 	0.8466	0.8285	0.8316	0.002
Mof_C 	C 	0.96114	0.0251	0.95071	0.088
Mof_H 	H 	0.9782	0.0116	0.9324	-0.004
Mof_C 	C 	0.96737	0.103	0.9766	-0.128
Mof_H 	H 	0.9874	0.1424	0.9745	0.087
Mof_C 	C 	0.94315	0.1217	0.00582	0.068
Mof_C 	C 	0.9134	0.0603	0.0067	-0.128
Mof_H 	H 	0.8967	0.0701	0.0258	0.093
Mof_C 	C 	0.9091	0.9862	0.9795	0.078
Mof_H 	H 	0.8892	0.9456	0.9807	-0.004
Mof_C 	C 	0.9486	0.2055	0.03482	0.103
Mof_C 	C 	0.98125	0.333	0.05879	0.101
Mof_C 	C 	0.93335	0.2864	0.09074	0.113
Mof_C 	C 	0.90848	0.3022	0.1231	0.094
Mof_C 	C 	0.9192	0.356	0.1599	-0.149
Mof_H 	H 	0.9434	0.3832	0.1658	0.102
Mof_C 	C 	0.8952	0.3708	0.1882	0.102
Mof_H 	H 	0.9038	0.4079	0.213	-0.016
Mof_C 	C 	0.849	0.2836	0.1459	0.093
Mof_H 	H 	0.8245	0.2582	0.1404	-0.005
Mof_C 	C 	0.8721	0.2659	0.1159	-0.138
Mof_H 	H 	0.8631	0.2294	0.0909	0.103
Mof_C 	C 	0.01339	0.3973	0.05758	0.067
Mof_C 	C 	0.03	0.4023	0.0208	-0.133
Mof_H 	H 	0.0211	0.3659	0.9958	0.089
Mof_C 	C 	0.06021	0.4624	0.0218	0.085
Mof_H 	H 	0.071	0.4669	0.9966	0.004
Mof_C 	C 	0.0584	0.5083	0.0931	0.092
Mof_H 	H 	0.068	0.5447	0.1179	-0.009
Mof_C 	C 	0.0283	0.4508	0.0946	-0.132
Mof_H 	H 	0.018	0.4478	0.1202	0.098
Mof_N 	N 	0.66315	0.9611	0.60339	-0.267
Mof_N 	N 	0.81354	0.5055	0.72087	-0.266
Mof_N 	N 	0.87749	0.9346	0.85743	-0.261
Mof_N 	N 	0.76038	0.1841	0.68814	-0.134
Mof_N 	N 	0.81256	0.1729	0.75111	-0.132
Mof_N 	N 	0.77463	0.0412	0.72698	-0.134
Mof_N 	N 	0.93209	0.9685	0.95067	-0.267
Mof_N 	N 	0.07448	0.5144	0.05767	-0.266
Mof_N 	N 	0.86	0.3353	0.18245	-0.278
Mof_N 	N 	0.92594	0.2124	0.06454	-0.13
Mof_N 	N 	0.9757	0.264	0.02913	-0.142
Mof_N 	N 	0.96108	0.3472	0.09036	-0.128
Mof_Zn	Zn	0.82728	0.35622	0.22863	1.189
Mof_Zn	Zn	0.91729	0.86376	0.90476	1.192
Mof_Zn	Zn	0.61959	0.89685	0.55905	1.192
Mof_Br	Br	0.72766	0.23568	0.79059	-0.48
Mof_Br	Br	0.63106	0.15165	0.69935	-0.474
Mof_Br	Br	0.61769	0.74434	0.06322	-0.465
Mof_Br	Br	0.53051	0.66778	0.1278	-0.451
Mof_Br	Br	0.89555	0.73824	0.40608	-0.475
Mof_Br	Br	0.86545	0.59958	0.51183	-0.465
Mof_C 	C 	0.8277	0.453	0.4027	0.093
Mof_H 	H 	0.8417	0.4222	0.4275	0.009
Mof_C 	C 	0.7983	0.4061	0.374	-0.129
Mof_H 	H 	0.793	0.3454	0.3794	0.101
Mof_C 	C 	0.77735	0.4516	0.33746	0.069
Mof_C 	C 	0.78637	0.5428	0.331	-0.14
Mof_H 	H 	0.7723	0.5756	0.3069	0.11
Mof_C 	C 	0.81588	0.5831	0.3604	0.086
Mof_H 	H 	0.822	0.6435	0.3554	0.002
Mof_C 	C 	0.74576	0.4069	0.30588	0.086
Mof_C 	C 	0.71077	0.2818	0.282	0.112
Mof_C 	C 	0.696	0.4152	0.24606	0.102
Mof_C 	C 	0.70204	0.1808	0.2835	0.073
Mof_C 	C 	0.72721	0.1202	0.3088	-0.129
Mof_H 	H 	0.7498	0.1409	0.3275	0.09
Mof_C 	C 	0.71837	0.0265	0.3061	0.08
Mof_H 	H 	0.7352	0.9855	0.3235	-0.004
Mof_C 	C 	0.6618	0.054	0.2567	0.088
Mof_H 	H 	0.6388	0.0319	0.2398	-0.011
Mof_C 	C 	0.6681	0.1453	0.2568	-0.138
Mof_H 	H 	0.6501	0.184	0.2395	0.096
Mof_C 	C 	0.6195	0.4739	0.1461	0.083
Mof_H 	H 	0.6007	0.4435	0.1253	0.005
Mof_C 	C 	0.6428	0.4242	0.1787	-0.133
Mof_H 	H 	0.6398	0.3613	0.1804	0.107
Mof_C 	C 	0.67111	0.4688	0.20942	0.072
Mof_C 	C 	0.67498	0.5636	0.2052	-0.139
Mof_H 	H 	0.6939	0.5954	0.2251	0.096
Mof_C 	C 	0.65049	0.6088	0.1714	0.081
Mof_H 	H 	0.6534	0.6715	0.1684	0.003
Mof_C 	C 	0.53886	0.4749	0.04929	0.088
Mof_H 	H 	0.5218	0.4884	0.0676	-0.004
Mof_C 	C 	0.53263	0.397	0.0234	-0.128
Mof_H 	H 	0.5126	0.3576	0.0255	0.087
Mof_C 	C 	0.55685	0.3783	0.99418	0.068
Mof_C 	C 	0.5866	0.4397	0.9933	-0.129
Mof_H 	H 	0.6033	0.4299	0.9742	0.093
Mof_C 	C 	0.5909	0.5138	0.0205	0.079
Mof_H 	H 	0.6108	0.5544	0.0193	-0.004
Mof_C 	C 	0.5514	0.2945	0.96518	0.103
Mof_C 	C 	0.51875	0.167	0.94121	0.101
Mof_C 	C 	0.56665	0.2136	0.90926	0.113
Mof_C 	C 	0.59152	0.1978	0.8769	0.094
Mof_C 	C 	0.5808	0.144	0.8401	-0.149
Mof_H 	H 	0.5566	0.1168	0.8342	0.102
Mof_C 	C 	0.6048	0.1292	0.8118	0.102
Mof_H 	H 	0.5962	0.0921	0.787	-0.016
Mof_C 	C 	0.651	0.2164	0.8541	0.093
Mof_H 	H 	0.6755	0.2418	0.8596	-0.005
Mof_C 	C 	0.6279	0.2341	0.8841	-0.138
Mof_H 	H 	0.6369	0.2706	0.9091	0.103
Mof_C 	C 	0.48661	0.1027	0.94242	0.067
Mof_C 	C 	0.47	0.0977	0.9792	-0.132
Mof_H 	H 	0.4789	0.1341	0.0042	0.089
Mof_C 	C 	0.43979	0.0376	0.9782	0.086
Mof_H 	H 	0.429	0.0331	0.0034	0.003
Mof_C 	C 	0.4416	0.9917	0.9069	0.092
Mof_H 	H 	0.432	0.9553	0.8821	-0.009
Mof_C 	C 	0.4717	0.0492	0.9054	-0.131
Mof_H 	H 	0.482	0.0522	0.8798	0.098
Mof_N 	N 	0.83685	0.5389	0.39661	-0.267
Mof_N 	N 	0.68646	0.9945	0.27913	-0.266
Mof_N 	N 	0.62251	0.5654	0.14257	-0.26
Mof_N 	N 	0.73962	0.3159	0.31186	-0.134
Mof_N 	N 	0.68744	0.3271	0.24889	-0.132
Mof_N 	N 	0.72537	0.4588	0.27302	-0.134
Mof_N 	N 	0.56791	0.5315	0.04933	-0.267
Mof_N 	N 	0.42552	0.9856	0.94233	-0.266
Mof_N 	N 	0.64	0.1647	0.81755	-0.278
Mof_N 	N 	0.57406	0.2876	0.93546	-0.13
Mof_N 	N 	0.5243	0.236	0.97087	-0.142
Mof_N 	N 	0.53892	0.1528	0.90964	-0.128
Mof_Zn	Zn	0.67272	0.14378	0.77137	1.19
Mof_Zn	Zn	0.58271	0.63624	0.09524	1.192
Mof_Zn	Zn	0.88041	0.60315	0.44095	1.192
Mof_Br	Br	0.22766	0.73568	0.79059	-0.48
Mof_Br	Br	0.13106	0.65165	0.69935	-0.474
Mof_Br	Br	0.11769	0.24434	0.06322	-0.466
Mof_Br	Br	0.03051	0.16778	0.1278	-0.452
Mof_Br	Br	0.39555	0.23824	0.40608	-0.475
Mof_Br	Br	0.36545	0.09958	0.51183	-0.465
Mof_C 	C 	0.3277	0.953	0.4027	0.093
Mof_H 	H 	0.3417	0.9222	0.4275	0.009
Mof_C 	C 	0.2983	0.9061	0.374	-0.129
Mof_H 	H 	0.293	0.8454	0.3794	0.102
Mof_C 	C 	0.27735	0.9516	0.33746	0.069
Mof_C 	C 	0.28637	0.0428	0.331	-0.14
Mof_H 	H 	0.2723	0.0756	0.3069	0.11
Mof_C 	C 	0.31588	0.0831	0.3604	0.086
Mof_H 	H 	0.322	0.1435	0.3554	0.002
Mof_C 	C 	0.24576	0.9069	0.30588	0.086
Mof_C 	C 	0.21077	0.7818	0.282	0.112
Mof_C 	C 	0.196	0.9152	0.24606	0.102
Mof_C 	C 	0.20204	0.6808	0.2835	0.073
Mof_C 	C 	0.22721	0.6202	0.3088	-0.13
Mof_H 	H 	0.2498	0.6409	0.3275	0.09
Mof_C 	C 	0.21837	0.5265	0.3061	0.081
Mof_H 	H 	0.2352	0.4855	0.3235	-0.004
Mof_C 	C 	0.1618	0.554	0.2567	0.089
Mof_H 	H 	0.1388	0.5319	0.2398	-0.011
Mof_C 	C 	0.1681	0.6453	0.2568	-0.138
Mof_H 	H 	0.1501	0.684	0.2395	0.096
Mof_C 	C 	0.1195	0.9739	0.1461	0.084
Mof_H 	H 	0.1007	0.9435	0.1253	0.005
Mof_C 	C 	0.1428	0.9242	0.1787	-0.133
Mof_H 	H 	0.1398	0.8613	0.1804	0.108
Mof_C 	C 	0.17111	0.9688	0.20942	0.072
Mof_C 	C 	0.17498	0.0636	0.2052	-0.14
Mof_H 	H 	0.1939	0.0954	0.2251	0.097
Mof_C 	C 	0.15049	0.1088	0.1714	0.081
Mof_H 	H 	0.1534	0.1715	0.1684	0.002
Mof_C 	C 	0.03886	0.9749	0.04929	0.088
Mof_H 	H 	0.0218	0.9884	0.0676	-0.004
Mof_C 	C 	0.03263	0.897	0.0234	-0.128
Mof_H 	H 	0.0126	0.8576	0.0255	0.087
Mof_C 	C 	0.05685	0.8783	0.99418	0.068
Mof_C 	C 	0.0866	0.9397	0.9933	-0.128
Mof_H 	H 	0.1033	0.9299	0.9742	0.093
Mof_C 	C 	0.0909	0.0138	0.0205	0.078
Mof_H 	H 	0.1108	0.0544	0.0193	-0.004
Mof_C 	C 	0.0514	0.7945	0.96518	0.103
Mof_C 	C 	0.01875	0.667	0.94121	0.101
Mof_C 	C 	0.06665	0.7136	0.90926	0.113
Mof_C 	C 	0.09152	0.6978	0.8769	0.094
Mof_C 	C 	0.0808	0.644	0.8401	-0.149
Mof_H 	H 	0.0566	0.6168	0.8342	0.102
Mof_C 	C 	0.1048	0.6292	0.8118	0.102
Mof_H 	H 	0.0962	0.5921	0.787	-0.016
Mof_C 	C 	0.151	0.7164	0.8541	0.093
Mof_H 	H 	0.1755	0.7418	0.8596	-0.005
Mof_C 	C 	0.1279	0.7341	0.8841	-0.138
Mof_H 	H 	0.1369	0.7706	0.9091	0.103
Mof_C 	C 	0.98661	0.6027	0.94242	0.067
Mof_C 	C 	0.97	0.5977	0.9792	-0.133
Mof_H 	H 	0.9789	0.6341	0.0042	0.089
Mof_C 	C 	0.93979	0.5376	0.9782	0.085
Mof_H 	H 	0.929	0.5331	0.0034	0.004
Mof_C 	C 	0.9416	0.4917	0.9069	0.092
Mof_H 	H 	0.932	0.4553	0.8821	-0.009
Mof_C 	C 	0.9717	0.5492	0.9054	-0.132
Mof_H 	H 	0.982	0.5522	0.8798	0.098
Mof_N 	N 	0.33685	0.0389	0.39661	-0.267
Mof_N 	N 	0.18646	0.4945	0.27913	-0.266
Mof_N 	N 	0.12251	0.0654	0.14257	-0.261
Mof_N 	N 	0.23962	0.8159	0.31186	-0.134
Mof_N 	N 	0.18744	0.8271	0.24889	-0.132
Mof_N 	N 	0.22537	0.9588	0.27302	-0.134
Mof_N 	N 	0.06791	0.0315	0.04933	-0.267
Mof_N 	N 	0.92552	0.4856	0.94233	-0.266
Mof_N 	N 	0.14	0.6647	0.81755	-0.278
Mof_N 	N 	0.07406	0.7876	0.93546	-0.13
Mof_N 	N 	0.0243	0.736	0.97087	-0.142
Mof_N 	N 	0.03892	0.6528	0.90964	-0.128
Mof_Zn	Zn	0.17272	0.64378	0.77137	1.189
Mof_Zn	Zn	0.08271	0.13624	0.09524	1.192
Mof_Zn	Zn	0.38041	0.10315	0.44095	1.192
Mof_Br	Br	0.72766	0.76432	0.29059	-0.48
Mof_Br	Br	0.63106	0.84835	0.19935	-0.474
Mof_Br	Br	0.61769	0.25566	0.56322	-0.465
Mof_Br	Br	0.53051	0.33222	0.6278	-0.451
Mof_Br	Br	0.89555	0.26176	0.90608	-0.475
Mof_Br	Br	0.86545	0.40042	0.01183	-0.465
Mof_C 	C 	0.8277	0.547	0.9027	0.093
Mof_H 	H 	0.8417	0.5778	0.9275	0.009
Mof_C 	C 	0.7983	0.5939	0.874	-0.129
Mof_H 	H 	0.793	0.6546	0.8794	0.101
Mof_C 	C 	0.77735	0.5484	0.83746	0.069
Mof_C 	C 	0.78637	0.4572	0.831	-0.14
Mof_H 	H 	0.7723	0.4244	0.8069	0.11
Mof_C 	C 	0.81588	0.4169	0.8604	0.086
Mof_H 	H 	0.822	0.3565	0.8554	0.002
Mof_C 	C 	0.74576	0.5931	0.80588	0.086
Mof_C 	C 	0.71077	0.7182	0.782	0.112
Mof_C 	C 	0.696	0.5848	0.74606	0.102
Mof_C 	C 	0.70204	0.8192	0.7835	0.073
Mof_C 	C 	0.72721	0.8798	0.8088	-0.129
Mof_H 	H 	0.7498	0.8591	0.8275	0.09
Mof_C 	C 	0.71837	0.9735	0.8061	0.08
Mof_H 	H 	0.7352	0.0145	0.8235	-0.004
Mof_C 	C 	0.6618	0.946	0.7567	0.088
Mof_H 	H 	0.6388	0.9681	0.7398	-0.011
Mof_C 	C 	0.6681	0.8547	0.7568	-0.138
Mof_H 	H 	0.6501	0.816	0.7395	0.096
Mof_C 	C 	0.6195	0.5261	0.6461	0.083
Mof_H 	H 	0.6007	0.5565	0.6253	0.005
Mof_C 	C 	0.6428	0.5758	0.6787	-0.133
Mof_H 	H 	0.6398	0.6387	0.6804	0.107
Mof_C 	C 	0.67111	0.5312	0.70942	0.072
Mof_C 	C 	0.67498	0.4364	0.7052	-0.139
Mof_H 	H 	0.6939	0.4046	0.7251	0.096
Mof_C 	C 	0.65049	0.3912	0.6714	0.081
Mof_H 	H 	0.6534	0.3285	0.6684	0.003
Mof_C 	C 	0.53886	0.5251	0.54929	0.088
Mof_H 	H 	0.5218	0.5116	0.5676	-0.004
Mof_C 	C 	0.53263	0.603	0.5234	-0.128
Mof_H 	H 	0.5126	0.6424	0.5255	0.087
Mof_C 	C 	0.55685	0.6217	0.49418	0.068
Mof_C 	C 	0.5866	0.5603	0.4933	-0.129
Mof_H 	H 	0.6033	0.5701	0.4742	0.093
Mof_C 	C 	0.5909	0.4862	0.5205	0.079
Mof_H 	H 	0.6108	0.4456	0.5193	-0.004
Mof_C 	C 	0.5514	0.7055	0.46518	0.103
Mof_C 	C 	0.51875	0.833	0.44121	0.101
Mof_C 	C 	0.56665	0.7864	0.40926	0.113
Mof_C 	C 	0.59152	0.8022	0.3769	0.094
Mof_C 	C 	0.5808	0.856	0.3401	-0.149
Mof_H 	H 	0.5566	0.8832	0.3342	0.102
Mof_C 	C 	0.6048	0.8708	0.3118	0.102
Mof_H 	H 	0.5962	0.9079	0.287	-0.016
Mof_C 	C 	0.651	0.7836	0.3541	0.093
Mof_H 	H 	0.6755	0.7582	0.3596	-0.005
Mof_C 	C 	0.6279	0.7659	0.3841	-0.138
Mof_H 	H 	0.6369	0.7294	0.4091	0.103
Mof_C 	C 	0.48661	0.8973	0.44242	0.067
Mof_C 	C 	0.47	0.9023	0.4792	-0.132
Mof_H 	H 	0.4789	0.8659	0.5042	0.089
Mof_C 	C 	0.43979	0.9624	0.4782	0.085
Mof_H 	H 	0.429	0.9669	0.5034	0.004
Mof_C 	C 	0.4416	0.0083	0.4069	0.092
Mof_H 	H 	0.432	0.0447	0.3821	-0.009
Mof_C 	C 	0.4717	0.9508	0.4054	-0.131
Mof_H 	H 	0.482	0.9478	0.3798	0.098
Mof_N 	N 	0.83685	0.4611	0.89661	-0.267
Mof_N 	N 	0.68646	0.0055	0.77913	-0.266
Mof_N 	N 	0.62251	0.4346	0.64257	-0.26
Mof_N 	N 	0.73962	0.6841	0.81186	-0.134
Mof_N 	N 	0.68744	0.6729	0.74889	-0.132
Mof_N 	N 	0.72537	0.5412	0.77302	-0.134
Mof_N 	N 	0.56791	0.4685	0.54933	-0.267
Mof_N 	N 	0.42552	0.0144	0.44233	-0.266
Mof_N 	N 	0.64	0.8353	0.31755	-0.278
Mof_N 	N 	0.57406	0.7124	0.43546	-0.13
Mof_N 	N 	0.5243	0.764	0.47087	-0.142
Mof_N 	N 	0.53892	0.8472	0.40964	-0.128
Mof_Zn	Zn	0.67272	0.85622	0.27137	1.19
Mof_Zn	Zn	0.58271	0.36376	0.59524	1.192
Mof_Zn	Zn	0.88041	0.39685	0.94095	1.192
Mof_Br	Br	0.22766	0.26432	0.29059	-0.48
Mof_Br	Br	0.13106	0.34835	0.19935	-0.474
Mof_Br	Br	0.11769	0.75566	0.56322	-0.465
Mof_Br	Br	0.03051	0.83222	0.6278	-0.452
Mof_Br	Br	0.39555	0.76176	0.90608	-0.475
Mof_Br	Br	0.36545	0.90042	0.01183	-0.465
Mof_C 	C 	0.3277	0.047	0.9027	0.094
Mof_H 	H 	0.3417	0.0778	0.9275	0.009
Mof_C 	C 	0.2983	0.0939	0.874	-0.129
Mof_H 	H 	0.293	0.1546	0.8794	0.102
Mof_C 	C 	0.27735	0.0484	0.83746	0.07
Mof_C 	C 	0.28637	0.9572	0.831	-0.14
Mof_H 	H 	0.2723	0.9244	0.8069	0.11
Mof_C 	C 	0.31588	0.9169	0.8604	0.086
Mof_H 	H 	0.322	0.8565	0.8554	0.002
Mof_C 	C 	0.24576	0.0931	0.80588	0.086
Mof_C 	C 	0.21077	0.2182	0.782	0.112
Mof_C 	C 	0.196	0.0848	0.74606	0.102
Mof_C 	C 	0.20204	0.3192	0.7835	0.073
Mof_C 	C 	0.22721	0.3798	0.8088	-0.13
Mof_H 	H 	0.2498	0.3591	0.8275	0.09
Mof_C 	C 	0.21837	0.4735	0.8061	0.081
Mof_H 	H 	0.2352	0.5145	0.8235	-0.004
Mof_C 	C 	0.1618	0.446	0.7567	0.089
Mof_H 	H 	0.1388	0.4681	0.7398	-0.011
Mof_C 	C 	0.1681	0.3547	0.7568	-0.138
Mof_H 	H 	0.1501	0.316	0.7395	0.096
Mof_C 	C 	0.1195	0.0261	0.6461	0.084
Mof_H 	H 	0.1007	0.0565	0.6253	0.005
Mof_C 	C 	0.1428	0.0758	0.6787	-0.133
Mof_H 	H 	0.1398	0.1387	0.6804	0.108
Mof_C 	C 	0.17111	0.0312	0.70942	0.072
Mof_C 	C 	0.17498	0.9364	0.7052	-0.139
Mof_H 	H 	0.1939	0.9046	0.7251	0.097
Mof_C 	C 	0.15049	0.8912	0.6714	0.081
Mof_H 	H 	0.1534	0.8285	0.6684	0.002
Mof_C 	C 	0.03886	0.0251	0.54929	0.088
Mof_H 	H 	0.0218	0.0116	0.5676	-0.004
Mof_C 	C 	0.03263	0.103	0.5234	-0.128
Mof_H 	H 	0.0126	0.1424	0.5255	0.087
Mof_C 	C 	0.05685	0.1217	0.49418	0.068
Mof_C 	C 	0.0866	0.0603	0.4933	-0.129
Mof_H 	H 	0.1033	0.0701	0.4742	0.093
Mof_C 	C 	0.0909	0.9862	0.5205	0.079
Mof_H 	H 	0.1108	0.9456	0.5193	-0.004
Mof_C 	C 	0.0514	0.2055	0.46518	0.103
Mof_C 	C 	0.01875	0.333	0.44121	0.101
Mof_C 	C 	0.06665	0.2864	0.40926	0.113
Mof_C 	C 	0.09152	0.3022	0.3769	0.094
Mof_C 	C 	0.0808	0.356	0.3401	-0.149
Mof_H 	H 	0.0566	0.3832	0.3342	0.102
Mof_C 	C 	0.1048	0.3708	0.3118	0.102
Mof_H 	H 	0.0962	0.4079	0.287	-0.016
Mof_C 	C 	0.151	0.2836	0.3541	0.093
Mof_H 	H 	0.1755	0.2582	0.3596	-0.005
Mof_C 	C 	0.1279	0.2659	0.3841	-0.138
Mof_H 	H 	0.1369	0.2294	0.4091	0.103
Mof_C 	C 	0.98661	0.3973	0.44242	0.067
Mof_C 	C 	0.97	0.4023	0.4792	-0.132
Mof_H 	H 	0.9789	0.3659	0.5042	0.089
Mof_C 	C 	0.93979	0.4624	0.4782	0.085
Mof_H 	H 	0.929	0.4669	0.5034	0.004
Mof_C 	C 	0.9416	0.5083	0.4069	0.092
Mof_H 	H 	0.932	0.5447	0.3821	-0.009
Mof_C 	C 	0.9717	0.4508	0.4054	-0.132
Mof_H 	H 	0.982	0.4478	0.3798	0.098
Mof_N 	N 	0.33685	0.9611	0.89661	-0.267
Mof_N 	N 	0.18646	0.5055	0.77913	-0.266
Mof_N 	N 	0.12251	0.9346	0.64257	-0.26
Mof_N 	N 	0.23962	0.1841	0.81186	-0.134
Mof_N 	N 	0.18744	0.1729	0.74889	-0.132
Mof_N 	N 	0.22537	0.0412	0.77302	-0.134
Mof_N 	N 	0.06791	0.9685	0.54933	-0.267
Mof_N 	N 	0.92552	0.5144	0.44233	-0.266
Mof_N 	N 	0.14	0.3353	0.31755	-0.278
Mof_N 	N 	0.07406	0.2124	0.43546	-0.13
Mof_N 	N 	0.0243	0.264	0.47087	-0.142
Mof_N 	N 	0.03892	0.3472	0.40964	-0.128
Mof_Zn	Zn	0.17272	0.35622	0.27137	1.189
Mof_Zn	Zn	0.08271	0.86376	0.59524	1.192
Mof_Zn	Zn	0.38041	0.89685	0.94095	1.192
_end
