# CIF file generated by openbabel 3.1.0, see https://openbabel.org
data_I
_chemical_name_common 'image0'
_cell_length_a 11.539
_cell_length_b 6.637
_cell_length_c 17.092
_cell_angle_alpha 90
_cell_angle_beta 94.95
_cell_angle_gamma 90
_space_group_name_H-M_alt 'P 1'
_space_group_name_Hall 'P 1'
loop_
    _symmetry_equiv_pos_as_xyz
    x,y,z
loop_
    _atom_site_label
    _atom_site_type_symbol
    _atom_site_fract_x
    _atom_site_fract_y
    _atom_site_fract_z
    _atom_site_occupancy
    Zr1      Zr       0.40222    0.06899    0.13890    1.000
    Zr2      Zr       0.14851    0.57049    0.27945    1.000
    P1       P        0.13999    0.06950    0.22857    1.000
    P2       P        0.41349    0.56610    0.19103    1.000
    P3       P        0.66911    0.09670    0.04922    1.000
    P4       P        0.66960    0.95620    0.06500    1.000
    F1       F        0.07840    0.56960    0.16831    1.000
    O1       O        0.15320    0.25840    0.28110    1.000
    O2       O        0.01930    0.07050    0.18230    1.000
    O3       O        0.23460    0.06780    0.17080    1.000
    O4       O        0.15120    0.88220    0.28210    1.000
    O5       O        0.41050    0.75180    0.13650    1.000
    O6       O        0.52630    0.56240    0.24590    1.000
    O7       O        0.31000    0.57170    0.24040    1.000
    O8       O        0.40520    0.37750    0.13790    1.000
    O9       O        0.56440    0.06950    0.09490    1.000
    O10      O        0.66780    0.95330    0.97890    1.000
    O11      O        0.78240    0.07130    0.10200    1.000
    O12      O        0.67190    0.32150    0.01730    1.000
    O13      O        0.66710    0.71500    0.07060    1.000
    Zr3      Zr       0.59778    0.56899    0.36110    1.000
    Zr4      Zr       0.85149    0.07049    0.22055    1.000
    P5       P        0.86001    0.56950    0.27143    1.000
    P6       P        0.58651    0.06610    0.30897    1.000
    P7       P        0.33089    0.59670    0.45078    1.000
    P8       P        0.33040    0.45620    0.43500    1.000
    F2       F        0.92160    0.06960    0.33169    1.000
    O14      O        0.84680    0.75840    0.21890    1.000
    O15      O        0.98070    0.57050    0.31770    1.000
    O16      O        0.76540    0.56780    0.32920    1.000
    O17      O        0.84880    0.38220    0.21790    1.000
    O18      O        0.58950    0.25180    0.36350    1.000
    O19      O        0.47370    0.06240    0.25410    1.000
    O20      O        0.69000    0.07170    0.25960    1.000
    O21      O        0.59480    0.87750    0.36210    1.000
    O22      O        0.43560    0.56950    0.40510    1.000
    O23      O        0.33220    0.45330    0.52110    1.000
    O24      O        0.21760    0.57130    0.39800    1.000
    O25      O        0.32810    0.82150    0.48270    1.000
    O26      O        0.33290    0.21500    0.42940    1.000
    Zr5      Zr       0.59778    0.93101    0.86110    1.000
    Zr6      Zr       0.85149    0.42951    0.72055    1.000
    P9       P        0.86001    0.93050    0.77143    1.000
    P10      P        0.58651    0.43390    0.80897    1.000
    P11      P        0.33089    0.90330    0.95078    1.000
    P12      P        0.33040    0.04380    0.93500    1.000
    F3       F        0.92160    0.43040    0.83169    1.000
    O27      O        0.84680    0.74160    0.71890    1.000
    O28      O        0.98070    0.92950    0.81770    1.000
    O29      O        0.76540    0.93220    0.82920    1.000
    O30      O        0.84880    0.11780    0.71790    1.000
    O31      O        0.58950    0.24820    0.86350    1.000
    O32      O        0.47370    0.43760    0.75410    1.000
    O33      O        0.69000    0.42830    0.75960    1.000
    O34      O        0.59480    0.62250    0.86210    1.000
    O35      O        0.43560    0.93050    0.90510    1.000
    O36      O        0.33220    0.04670    0.02110    1.000
    O37      O        0.21760    0.92870    0.89800    1.000
    O38      O        0.32810    0.67850    0.98270    1.000
    O39      O        0.33290    0.28500    0.92940    1.000
    Zr7      Zr       0.40222    0.43101    0.63890    1.000
    Zr8      Zr       0.14851    0.92951    0.77945    1.000
    P13      P        0.13999    0.43050    0.72857    1.000
    P14      P        0.41349    0.93390    0.69103    1.000
    P15      P        0.66911    0.40330    0.54922    1.000
    P16      P        0.66960    0.54380    0.56500    1.000
    F4       F        0.07840    0.93040    0.66831    1.000
    O40      O        0.15320    0.24160    0.78110    1.000
    O41      O        0.01930    0.42950    0.68230    1.000
    O42      O        0.23460    0.43220    0.67080    1.000
    O43      O        0.15120    0.61780    0.78210    1.000
    O44      O        0.41050    0.74820    0.63650    1.000
    O45      O        0.52630    0.93760    0.74590    1.000
    O46      O        0.31000    0.92830    0.74040    1.000
    O47      O        0.40520    0.12250    0.63790    1.000
    O48      O        0.56440    0.43050    0.59490    1.000
    O49      O        0.66780    0.54670    0.47890    1.000
    O50      O        0.78240    0.42870    0.60200    1.000
    O51      O        0.67190    0.17850    0.51730    1.000
    O52      O        0.66710    0.78500    0.57060    1.000
