data_functionalizedCrystal
_audit_creation_method	'EQeq! by Chris Wilmer'
_symmetry_space_group_name_H-M	'P1'
_symmetry_Int_Tables_number	1
_symmetry_cell_setting	triclinic
loop_
_symmetry_equiv_pos_as_xyz
  x,y,z
_cell_length_a	29.3951
_cell_length_b	29.3951
_cell_length_c	29.4188
_cell_angle_alpha	60.0267
_cell_angle_beta	60.0267
_cell_angle_gamma	90
loop_
_atom_site_label
_atom_site_type_symbol
_atom_site_fract_x
_atom_site_fract_y
_atom_site_fract_z
_atom_site_charge
Mof_Co	Co	0.24154	0.50886	0.26906	1.133
Mof_Co	Co	0.14435	0.51113	0.36696	1.137
Mof_Co	Co	0.4894	0.22208	0.26906	1.133
Mof_Co	Co	0.48869	0.12191	0.36696	1.136
Mof_Co	Co	0.50886	0.4894	0.26906	1.134
Mof_Co	Co	0.51113	0.48869	0.36696	1.138
Mof_Co	Co	0.22208	0.24154	0.26906	1.134
Mof_Co	Co	0.12191	0.14435	0.36696	1.137
Mof_Co	Co	0.75846	0.49114	0.73094	1.139
Mof_Co	Co	0.85565	0.48887	0.63304	1.138
Mof_Co	Co	0.5106	0.77792	0.73094	1.139
Mof_Co	Co	0.51131	0.87809	0.63304	1.138
Mof_Co	Co	0.49114	0.5106	0.73094	1.139
Mof_Co	Co	0.48887	0.51131	0.63304	1.138
Mof_Co	Co	0.77792	0.75846	0.73094	1.139
Mof_Co	Co	0.87809	0.85565	0.63304	1.139
Mof_Co	Co	0.52208	0.86563	-0	1.144
Mof_Co	Co	0.51883	0.76686	-0	1.104
Mof_Co	Co	0.47792	0.13437	-0	1.143
Mof_Co	Co	0.48117	0.23314	-0	1.104
Mof_Co	Co	0.86563	0.47792	-0	1.144
Mof_Co	Co	0.76686	0.48117	-0	1.104
Mof_Co	Co	0.13437	0.52208	-0	1.143
Mof_Co	Co	0.23314	0.51883	-0	1.104
Mof_H 	H 	0.6909	0.8201	0.8422	0.064
Mof_H 	H 	0.6503	0.3183	0.851	0.057
Mof_H 	H 	0.1721	0.3439	0.3416	0.047
Mof_H 	H 	0.8429	0.9419	0.7356	0.093
Mof_H 	H 	0.7013	0.9409	0.87	0.102
Mof_H 	H 	0.6617	0.174	0.8704	0.101
Mof_H 	H 	0.783	0.3233	0.7036	0.067
Mof_H 	H 	0.0518	0.3269	0.5066	0.083
Mof_H 	H 	0.0511	0.1953	0.4978	0.074
Mof_H 	H 	0.7732	0.013	0.8424	0.072
Mof_H 	H 	0.7433	0.0308	0.8056	0.065
Mof_H 	H 	0.988	0.1518	0.62	0.06
Mof_H 	H 	0.966	0.1655	0.576	0.056
Mof_H 	H 	0.8354	0.2244	0.7668	0.067
Mof_H 	H 	0.8367	0.2609	0.703	0.057
Mof_H 	H 	0.9183	0.2325	0.6436	0.109
Mof_H 	H 	0.7666	0.1168	0.8	0.113
Mof_H 	H 	0.8864	0.074	0.6966	0.118
Mof_H 	H 	0.4669	0.3377	0.8422	0.063
Mof_H 	H 	0.4987	0.8307	0.851	0.058
Mof_H 	H 	0.4863	0.3145	0.3416	0.048
Mof_H 	H 	0.4215	0.3225	0.7356	0.09
Mof_H 	H 	0.4287	0.1891	0.87	0.098
Mof_H 	H 	0.4679	0.9556	0.8704	0.105
Mof_H 	H 	0.5134	0.9731	0.7036	0.07
Mof_H 	H 	0.4416	0.1665	0.5066	0.086
Mof_H 	H 	0.4511	0.3069	0.4978	0.078
Mof_H 	H 	0.3844	0.1446	0.8424	0.073
Mof_H 	H 	0.4511	0.1636	0.8056	0.067
Mof_H 	H 	0.392	0.2282	0.62	0.057
Mof_H 	H 	0.458	0.2585	0.576	0.053
Mof_H 	H 	0.3978	0.0088	0.7668	0.063
Mof_H 	H 	0.4603	0.0361	0.703	0.054
Mof_H 	H 	0.4381	0.1239	0.6436	0.107
Mof_H 	H 	0.4334	0.0832	0.8	0.112
Mof_H 	H 	0.417	0.2294	0.6966	0.118
Mof_H 	H 	0.8201	0.4669	0.8422	0.064
Mof_H 	H 	0.3183	0.4987	0.851	0.057
Mof_H 	H 	0.3439	0.4863	0.3416	0.048
Mof_H 	H 	0.9419	0.4215	0.7356	0.093
Mof_H 	H 	0.9409	0.4287	0.87	0.102
Mof_H 	H 	0.174	0.4679	0.8704	0.101
Mof_H 	H 	0.3233	0.5134	0.7036	0.067
Mof_H 	H 	0.3269	0.4416	0.5066	0.087
Mof_H 	H 	0.1953	0.4511	0.4978	0.078
Mof_H 	H 	0.013	0.3844	0.8424	0.071
Mof_H 	H 	0.0308	0.4511	0.8056	0.065
Mof_H 	H 	0.1518	0.392	0.62	0.056
Mof_H 	H 	0.1655	0.458	0.576	0.052
Mof_H 	H 	0.2244	0.3978	0.7668	0.066
Mof_H 	H 	0.2609	0.4603	0.703	0.056
Mof_H 	H 	0.2325	0.4381	0.6436	0.108
Mof_H 	H 	0.1168	0.4334	0.8	0.113
Mof_H 	H 	0.074	0.417	0.6966	0.116
Mof_H 	H 	0.3377	0.6909	0.8422	0.063
Mof_H 	H 	0.8307	0.6503	0.851	0.058
Mof_H 	H 	0.3145	0.1721	0.3416	0.047
Mof_H 	H 	0.3225	0.8429	0.7356	0.09
Mof_H 	H 	0.1891	0.7013	0.87	0.098
Mof_H 	H 	0.9556	0.6617	0.8704	0.105
Mof_H 	H 	0.9731	0.783	0.7036	0.07
Mof_H 	H 	0.1665	0.0518	0.5066	0.083
Mof_H 	H 	0.3069	0.0511	0.4978	0.075
Mof_H 	H 	0.1446	0.7732	0.8424	0.074
Mof_H 	H 	0.1636	0.7433	0.8056	0.068
Mof_H 	H 	0.2282	0.988	0.62	0.06
Mof_H 	H 	0.2585	0.966	0.576	0.056
Mof_H 	H 	0.0088	0.8354	0.7668	0.064
Mof_H 	H 	0.0361	0.8367	0.703	0.055
Mof_H 	H 	0.1239	0.9183	0.6436	0.109
Mof_H 	H 	0.0832	0.7666	0.8	0.113
Mof_H 	H 	0.2294	0.8864	0.6966	0.119
Mof_H 	H 	0.3091	0.1799	0.1578	0.048
Mof_H 	H 	0.3497	0.6817	0.149	0.041
Mof_H 	H 	0.8279	0.6561	0.6584	0.054
Mof_H 	H 	0.1571	0.0581	0.2644	0.081
Mof_H 	H 	0.2987	0.0591	0.13	0.083
Mof_H 	H 	0.3383	0.826	0.1296	0.086
Mof_H 	H 	0.217	0.6767	0.2964	0.064
Mof_H 	H 	0.9482	0.6731	0.4934	0.089
Mof_H 	H 	0.9489	0.8047	0.5022	0.082
Mof_H 	H 	0.2268	0.987	0.1576	0.054
Mof_H 	H 	0.2567	0.9692	0.1944	0.066
Mof_H 	H 	0.012	0.8482	0.38	0.048
Mof_H 	H 	0.034	0.8345	0.424	0.048
Mof_H 	H 	0.1646	0.7756	0.2332	0.052
Mof_H 	H 	0.1633	0.7391	0.297	0.052
Mof_H 	H 	0.0817	0.7675	0.3564	0.103
Mof_H 	H 	0.2334	0.8832	0.2	0.103
Mof_H 	H 	0.1136	0.926	0.3034	0.112
Mof_H 	H 	0.5331	0.6623	0.1578	0.049
Mof_H 	H 	0.5013	0.1693	0.149	0.04
Mof_H 	H 	0.5137	0.6855	0.6584	0.053
Mof_H 	H 	0.5785	0.6775	0.2644	0.085
Mof_H 	H 	0.5713	0.8109	0.13	0.087
Mof_H 	H 	0.5321	0.0444	0.1296	0.083
Mof_H 	H 	0.4866	0.0269	0.2964	0.062
Mof_H 	H 	0.5584	0.8335	0.4934	0.086
Mof_H 	H 	0.5489	0.6931	0.5022	0.078
Mof_H 	H 	0.6156	0.8554	0.1576	0.053
Mof_H 	H 	0.5489	0.8364	0.1944	0.063
Mof_H 	H 	0.608	0.7718	0.38	0.051
Mof_H 	H 	0.542	0.7415	0.424	0.051
Mof_H 	H 	0.6022	0.9912	0.2332	0.055
Mof_H 	H 	0.5397	0.9639	0.297	0.056
Mof_H 	H 	0.5619	0.8761	0.3564	0.105
Mof_H 	H 	0.5666	0.9168	0.2	0.104
Mof_H 	H 	0.583	0.7706	0.3034	0.112
Mof_H 	H 	0.1799	0.5331	0.1578	0.048
Mof_H 	H 	0.6817	0.5013	0.149	0.041
Mof_H 	H 	0.6561	0.5137	0.6584	0.053
Mof_H 	H 	0.0581	0.5785	0.2644	0.082
Mof_H 	H 	0.0591	0.5713	0.13	0.083
Mof_H 	H 	0.826	0.5321	0.1296	0.086
Mof_H 	H 	0.6767	0.4866	0.2964	0.065
Mof_H 	H 	0.6731	0.5584	0.4934	0.086
Mof_H 	H 	0.8047	0.5489	0.5022	0.079
Mof_H 	H 	0.987	0.6156	0.1576	0.055
Mof_H 	H 	0.9692	0.5489	0.1944	0.066
Mof_H 	H 	0.8482	0.608	0.38	0.052
Mof_H 	H 	0.8345	0.542	0.424	0.052
Mof_H 	H 	0.7756	0.6022	0.2332	0.053
Mof_H 	H 	0.7391	0.5397	0.297	0.053
Mof_H 	H 	0.7675	0.5619	0.3564	0.105
Mof_H 	H 	0.8832	0.5666	0.2	0.104
Mof_H 	H 	0.926	0.583	0.3034	0.113
Mof_H 	H 	0.6623	0.3091	0.1578	0.049
Mof_H 	H 	0.1693	0.3497	0.149	0.04
Mof_H 	H 	0.6855	0.8279	0.6584	0.054
Mof_H 	H 	0.6775	0.1571	0.2644	0.084
Mof_H 	H 	0.8109	0.2987	0.13	0.087
Mof_H 	H 	0.0444	0.3383	0.1296	0.082
Mof_H 	H 	0.0269	0.217	0.2964	0.062
Mof_H 	H 	0.8335	0.9482	0.4934	0.09
Mof_H 	H 	0.6931	0.9489	0.5022	0.082
Mof_H 	H 	0.8554	0.2268	0.1576	0.052
Mof_H 	H 	0.8364	0.2567	0.1944	0.063
Mof_H 	H 	0.7718	0.012	0.38	0.048
Mof_H 	H 	0.7415	0.034	0.424	0.048
Mof_H 	H 	0.9912	0.1646	0.2332	0.054
Mof_H 	H 	0.9639	0.1633	0.297	0.055
Mof_H 	H 	0.8761	0.0817	0.3564	0.104
Mof_H 	H 	0.9168	0.2334	0.2	0.104
Mof_H 	H 	0.7706	0.1136	0.3034	0.111
Mof_C 	C 	0.7111	0.8554	0.8272	-0.019
Mof_C 	C 	0.7666	0.8813	0.7744	-0.04
Mof_C 	C 	0.6851	0.8796	0.8578	-0.019
Mof_C 	C 	0.7541	0.3863	0.7478	0.396
Mof_C 	C 	0.5832	0.2194	0.9124	0.348
Mof_C 	C 	0.6706	0.2992	0.8342	0.004
Mof_C 	C 	0.6456	0.2458	0.8596	-0.037
Mof_C 	C 	0.7267	0.3257	0.7828	-0.071
Mof_C 	C 	0.1382	0.245	0.373	0.347
Mof_C 	C 	0.1387	0.4074	0.386	0.38
Mof_C 	C 	0.1374	0.3228	0.3824	0.003
Mof_C 	C 	0.1119	0.3472	0.4156	-0.058
Mof_C 	C 	0.1119	0.2685	0.4094	-0.06
Mof_C 	C 	0.7925	0.8566	0.7374	0.348
Mof_C 	C 	0.6233	0.8502	0.911	0.333
Mof_C 	C 	0.8035	0.9285	0.7634	-0.11
Mof_C 	C 	0.7183	0.9265	0.8452	-0.125
Mof_C 	C 	0.6781	0.2132	0.8458	-0.095
Mof_C 	C 	0.7551	0.3029	0.7486	-0.066
Mof_C 	C 	0.0663	0.3124	0.4816	-0.095
Mof_C 	C 	0.066	0.2343	0.4762	-0.102
Mof_C 	C 	0.7735	0.9491	0.798	0.19
Mof_C 	C 	0.7329	0.2391	0.797	0.144
Mof_C 	C 	0.0438	0.2575	0.5084	0.156
Mof_C 	C 	0.7791	0.0298	0.8004	-0.083
Mof_C 	C 	0.9673	0.1737	0.6042	-0.067
Mof_C 	C 	0.821	0.2232	0.7432	-0.072
Mof_C 	C 	0.9088	0.1568	0.6606	0.142
Mof_C 	C 	0.893	0.1956	0.672	-0.175
Mof_C 	C 	0.8036	0.1282	0.7644	-0.178
Mof_C 	C 	0.837	0.1815	0.728	0.13
Mof_C 	C 	0.8228	0.0868	0.7504	0.157
Mof_C 	C 	0.8732	0.1012	0.703	-0.209
Mof_C 	C 	0.4617	0.3174	0.8272	-0.017
Mof_C 	C 	0.459	0.3443	0.7744	-0.043
Mof_C 	C 	0.4571	0.2626	0.8578	-0.022
Mof_C 	C 	0.4981	0.8659	0.7478	0.396
Mof_C 	C 	0.5044	0.8682	0.9124	0.347
Mof_C 	C 	0.4952	0.8666	0.8342	0.002
Mof_C 	C 	0.4948	0.8946	0.8596	-0.034
Mof_C 	C 	0.4905	0.8915	0.7828	-0.07
Mof_C 	C 	0.4888	0.382	0.373	0.346
Mof_C 	C 	0.4753	0.2066	0.386	0.379
Mof_C 	C 	0.4802	0.2948	0.3824	0.001
Mof_C 	C 	0.4725	0.2372	0.4156	-0.055
Mof_C 	C 	0.4787	0.3221	0.4094	-0.057
Mof_C 	C 	0.4701	0.406	0.7374	0.348
Mof_C 	C 	0.4657	0.2388	0.911	0.334
Mof_C 	C 	0.4331	0.3081	0.7634	-0.107
Mof_C 	C 	0.4365	0.2283	0.8452	-0.12
Mof_C 	C 	0.4761	0.941	0.8458	-0.099
Mof_C 	C 	0.4963	0.9485	0.7486	-0.069
Mof_C 	C 	0.4521	0.206	0.4816	-0.1
Mof_C 	C 	0.4578	0.2895	0.4762	-0.107
Mof_C 	C 	0.4285	0.2529	0.798	0.181
Mof_C 	C 	0.4701	0.9639	0.797	0.153
Mof_C 	C 	0.4478	0.2341	0.5084	0.167
Mof_C 	C 	0.4205	0.1698	0.8004	-0.085
Mof_C 	C 	0.4285	0.2221	0.6042	-0.062
Mof_C 	C 	0.4358	0.0336	0.7432	-0.067
Mof_C 	C 	0.4306	0.1826	0.6606	0.139
Mof_C 	C 	0.435	0.1324	0.672	-0.173
Mof_C 	C 	0.432	0.1074	0.7644	-0.176
Mof_C 	C 	0.435	0.0905	0.728	0.127
Mof_C 	C 	0.4268	0.1628	0.7504	0.157
Mof_C 	C 	0.4238	0.1958	0.703	-0.208
Mof_C 	C 	0.8554	0.4617	0.8272	-0.019
Mof_C 	C 	0.8813	0.459	0.7744	-0.04
Mof_C 	C 	0.8796	0.4571	0.8578	-0.019
Mof_C 	C 	0.3863	0.4981	0.7478	0.396
Mof_C 	C 	0.2194	0.5044	0.9124	0.348
Mof_C 	C 	0.2992	0.4952	0.8342	0.004
Mof_C 	C 	0.2458	0.4948	0.8596	-0.037
Mof_C 	C 	0.3257	0.4905	0.7828	-0.072
Mof_C 	C 	0.245	0.4888	0.373	0.346
Mof_C 	C 	0.4074	0.4753	0.386	0.378
Mof_C 	C 	0.3228	0.4802	0.3824	0.001
Mof_C 	C 	0.3472	0.4725	0.4156	-0.055
Mof_C 	C 	0.2685	0.4787	0.4094	-0.057
Mof_C 	C 	0.8566	0.4701	0.7374	0.348
Mof_C 	C 	0.8502	0.4657	0.911	0.333
Mof_C 	C 	0.9285	0.4331	0.7634	-0.11
Mof_C 	C 	0.9265	0.4365	0.8452	-0.125
Mof_C 	C 	0.2132	0.4761	0.8458	-0.095
Mof_C 	C 	0.3029	0.4963	0.7486	-0.066
Mof_C 	C 	0.3124	0.4521	0.4816	-0.1
Mof_C 	C 	0.2343	0.4578	0.4762	-0.107
Mof_C 	C 	0.9491	0.4285	0.798	0.191
Mof_C 	C 	0.2391	0.4701	0.797	0.144
Mof_C 	C 	0.2575	0.4478	0.5084	0.167
Mof_C 	C 	0.0298	0.4205	0.8004	-0.081
Mof_C 	C 	0.1737	0.4285	0.6042	-0.062
Mof_C 	C 	0.2232	0.4358	0.7432	-0.071
Mof_C 	C 	0.1568	0.4306	0.6606	0.138
Mof_C 	C 	0.1956	0.435	0.672	-0.173
Mof_C 	C 	0.1282	0.432	0.7644	-0.176
Mof_C 	C 	0.1815	0.435	0.728	0.129
Mof_C 	C 	0.0868	0.4268	0.7504	0.155
Mof_C 	C 	0.1012	0.4238	0.703	-0.206
Mof_C 	C 	0.3174	0.7111	0.8272	-0.017
Mof_C 	C 	0.3443	0.7666	0.7744	-0.042
Mof_C 	C 	0.2626	0.6851	0.8578	-0.022
Mof_C 	C 	0.8659	0.7541	0.7478	0.396
Mof_C 	C 	0.8682	0.5832	0.9124	0.347
Mof_C 	C 	0.8666	0.6706	0.8342	0.002
Mof_C 	C 	0.8946	0.6456	0.8596	-0.034
Mof_C 	C 	0.8915	0.7267	0.7828	-0.069
Mof_C 	C 	0.382	0.1382	0.373	0.347
Mof_C 	C 	0.2066	0.1387	0.386	0.38
Mof_C 	C 	0.2948	0.1374	0.3824	0.003
Mof_C 	C 	0.2372	0.1119	0.4156	-0.058
Mof_C 	C 	0.3221	0.1119	0.4094	-0.06
Mof_C 	C 	0.406	0.7925	0.7374	0.348
Mof_C 	C 	0.2388	0.6233	0.911	0.334
Mof_C 	C 	0.3081	0.8035	0.7634	-0.107
Mof_C 	C 	0.2283	0.7183	0.8452	-0.12
Mof_C 	C 	0.941	0.6781	0.8458	-0.099
Mof_C 	C 	0.9485	0.7551	0.7486	-0.069
Mof_C 	C 	0.206	0.0663	0.4816	-0.095
Mof_C 	C 	0.2895	0.066	0.4762	-0.102
Mof_C 	C 	0.2529	0.7735	0.798	0.181
Mof_C 	C 	0.9639	0.7329	0.797	0.153
Mof_C 	C 	0.2341	0.0438	0.5084	0.156
Mof_C 	C 	0.1698	0.7791	0.8004	-0.086
Mof_C 	C 	0.2221	0.9673	0.6042	-0.067
Mof_C 	C 	0.0336	0.821	0.7432	-0.068
Mof_C 	C 	0.1826	0.9088	0.6606	0.142
Mof_C 	C 	0.1324	0.893	0.672	-0.175
Mof_C 	C 	0.1074	0.8036	0.7644	-0.178
Mof_C 	C 	0.0905	0.837	0.728	0.129
Mof_C 	C 	0.1628	0.8228	0.7504	0.159
Mof_C 	C 	0.1958	0.8732	0.703	-0.21
Mof_C 	C 	0.2889	0.1446	0.1728	-0.011
Mof_C 	C 	0.2334	0.1187	0.2256	-0.055
Mof_C 	C 	0.3149	0.1204	0.1422	-0.042
Mof_C 	C 	0.2459	0.6137	0.2522	0.4
Mof_C 	C 	0.4168	0.7806	0.0876	0.35
Mof_C 	C 	0.3294	0.7008	0.1658	0.011
Mof_C 	C 	0.3544	0.7542	0.1404	-0.056
Mof_C 	C 	0.2733	0.6743	0.2172	-0.087
Mof_C 	C 	0.8618	0.755	0.627	0.343
Mof_C 	C 	0.8613	0.5926	0.614	0.376
Mof_C 	C 	0.8626	0.6772	0.6176	-0.005
Mof_C 	C 	0.8881	0.6528	0.5844	-0.049
Mof_C 	C 	0.8881	0.7315	0.5906	-0.05
Mof_C 	C 	0.2075	0.1434	0.2626	0.351
Mof_C 	C 	0.3767	0.1498	0.089	0.338
Mof_C 	C 	0.1965	0.0715	0.2366	-0.103
Mof_C 	C 	0.2817	0.0735	0.1548	-0.115
Mof_C 	C 	0.3219	0.7868	0.1542	-0.091
Mof_C 	C 	0.2449	0.6971	0.2514	-0.061
Mof_C 	C 	0.9337	0.6876	0.5184	-0.107
Mof_C 	C 	0.934	0.7657	0.5238	-0.115
Mof_C 	C 	0.2265	0.0509	0.202	0.161
Mof_C 	C 	0.2671	0.7609	0.203	0.133
Mof_C 	C 	0.9562	0.7425	0.4916	0.178
Mof_C 	C 	0.2209	0.9702	0.1996	-0.076
Mof_C 	C 	0.0327	0.8263	0.3958	-0.053
Mof_C 	C 	0.179	0.7768	0.2568	-0.062
Mof_C 	C 	0.0912	0.8432	0.3394	0.129
Mof_C 	C 	0.107	0.8044	0.328	-0.169
Mof_C 	C 	0.1964	0.8718	0.2356	-0.172
Mof_C 	C 	0.163	0.8185	0.272	0.117
Mof_C 	C 	0.1772	0.9132	0.2496	0.144
Mof_C 	C 	0.1268	0.8988	0.297	-0.201
Mof_C 	C 	0.5383	0.6826	0.1728	-0.013
Mof_C 	C 	0.541	0.6557	0.2256	-0.052
Mof_C 	C 	0.5429	0.7374	0.1422	-0.039
Mof_C 	C 	0.5019	0.1341	0.2522	0.4
Mof_C 	C 	0.4956	0.1318	0.0876	0.351
Mof_C 	C 	0.5048	0.1334	0.1658	0.013
Mof_C 	C 	0.5052	0.1054	0.1404	-0.059
Mof_C 	C 	0.5095	0.1085	0.2172	-0.089
Mof_C 	C 	0.5112	0.618	0.627	0.344
Mof_C 	C 	0.5247	0.7934	0.614	0.377
Mof_C 	C 	0.5198	0.7052	0.6176	-0.002
Mof_C 	C 	0.5275	0.7628	0.5844	-0.052
Mof_C 	C 	0.5213	0.6779	0.5906	-0.054
Mof_C 	C 	0.5299	0.594	0.2626	0.35
Mof_C 	C 	0.5343	0.7612	0.089	0.337
Mof_C 	C 	0.5669	0.6919	0.2366	-0.107
Mof_C 	C 	0.5635	0.7717	0.1548	-0.119
Mof_C 	C 	0.5239	0.059	0.1542	-0.087
Mof_C 	C 	0.5037	0.0515	0.2514	-0.058
Mof_C 	C 	0.5479	0.794	0.5184	-0.102
Mof_C 	C 	0.5422	0.7105	0.5238	-0.109
Mof_C 	C 	0.5715	0.7471	0.202	0.172
Mof_C 	C 	0.5299	0.0361	0.203	0.124
Mof_C 	C 	0.5522	0.7659	0.4916	0.168
Mof_C 	C 	0.5795	0.8302	0.1996	-0.074
Mof_C 	C 	0.5715	0.7779	0.3958	-0.058
Mof_C 	C 	0.5642	0.9664	0.2568	-0.067
Mof_C 	C 	0.5694	0.8174	0.3394	0.132
Mof_C 	C 	0.565	0.8676	0.328	-0.171
Mof_C 	C 	0.568	0.8926	0.2356	-0.173
Mof_C 	C 	0.565	0.9095	0.272	0.12
Mof_C 	C 	0.5732	0.8372	0.2496	0.145
Mof_C 	C 	0.5762	0.8042	0.297	-0.202
Mof_C 	C 	0.1446	0.5383	0.1728	-0.011
Mof_C 	C 	0.1187	0.541	0.2256	-0.054
Mof_C 	C 	0.1204	0.5429	0.1422	-0.042
Mof_C 	C 	0.6137	0.5019	0.2522	0.4
Mof_C 	C 	0.7806	0.4956	0.0876	0.35
Mof_C 	C 	0.7008	0.5048	0.1658	0.011
Mof_C 	C 	0.7542	0.5052	0.1404	-0.056
Mof_C 	C 	0.6743	0.5095	0.2172	-0.086
Mof_C 	C 	0.755	0.5112	0.627	0.344
Mof_C 	C 	0.5926	0.5247	0.614	0.377
Mof_C 	C 	0.6772	0.5198	0.6176	-0.002
Mof_C 	C 	0.6528	0.5275	0.5844	-0.053
Mof_C 	C 	0.7315	0.5213	0.5906	-0.054
Mof_C 	C 	0.1434	0.5299	0.2626	0.351
Mof_C 	C 	0.1498	0.5343	0.089	0.338
Mof_C 	C 	0.0715	0.5669	0.2366	-0.103
Mof_C 	C 	0.0735	0.5635	0.1548	-0.115
Mof_C 	C 	0.7868	0.5239	0.1542	-0.091
Mof_C 	C 	0.6971	0.5037	0.2514	-0.061
Mof_C 	C 	0.6876	0.5479	0.5184	-0.102
Mof_C 	C 	0.7657	0.5422	0.5238	-0.109
Mof_C 	C 	0.0509	0.5715	0.202	0.162
Mof_C 	C 	0.7609	0.5299	0.203	0.133
Mof_C 	C 	0.7425	0.5522	0.4916	0.168
Mof_C 	C 	0.9702	0.5795	0.1996	-0.077
Mof_C 	C 	0.8263	0.5715	0.3958	-0.058
Mof_C 	C 	0.7768	0.5642	0.2568	-0.064
Mof_C 	C 	0.8432	0.5694	0.3394	0.132
Mof_C 	C 	0.8044	0.565	0.328	-0.17
Mof_C 	C 	0.8718	0.568	0.2356	-0.173
Mof_C 	C 	0.8185	0.565	0.272	0.119
Mof_C 	C 	0.9132	0.5732	0.2496	0.146
Mof_C 	C 	0.8988	0.5762	0.297	-0.203
Mof_C 	C 	0.6826	0.2889	0.1728	-0.013
Mof_C 	C 	0.6557	0.2334	0.2256	-0.052
Mof_C 	C 	0.7374	0.3149	0.1422	-0.039
Mof_C 	C 	0.1341	0.2459	0.2522	0.401
Mof_C 	C 	0.1318	0.4168	0.0876	0.351
Mof_C 	C 	0.1334	0.3294	0.1658	0.013
Mof_C 	C 	0.1054	0.3544	0.1404	-0.059
Mof_C 	C 	0.1085	0.2733	0.2172	-0.089
Mof_C 	C 	0.618	0.8618	0.627	0.343
Mof_C 	C 	0.7934	0.8613	0.614	0.376
Mof_C 	C 	0.7052	0.8626	0.6176	-0.005
Mof_C 	C 	0.7628	0.8881	0.5844	-0.049
Mof_C 	C 	0.6779	0.8881	0.5906	-0.051
Mof_C 	C 	0.594	0.2075	0.2626	0.35
Mof_C 	C 	0.7612	0.3767	0.089	0.337
Mof_C 	C 	0.6919	0.1965	0.2366	-0.107
Mof_C 	C 	0.7717	0.2817	0.1548	-0.119
Mof_C 	C 	0.059	0.3219	0.1542	-0.086
Mof_C 	C 	0.0515	0.2449	0.2514	-0.058
Mof_C 	C 	0.794	0.9337	0.5184	-0.107
Mof_C 	C 	0.7105	0.934	0.5238	-0.115
Mof_C 	C 	0.7471	0.2265	0.202	0.171
Mof_C 	C 	0.0361	0.2671	0.203	0.124
Mof_C 	C 	0.7659	0.9562	0.4916	0.178
Mof_C 	C 	0.8302	0.2209	0.1996	-0.073
Mof_C 	C 	0.7779	0.0327	0.3958	-0.052
Mof_C 	C 	0.9664	0.179	0.2568	-0.066
Mof_C 	C 	0.8174	0.0912	0.3394	0.128
Mof_C 	C 	0.8676	0.107	0.328	-0.169
Mof_C 	C 	0.8926	0.1964	0.2356	-0.172
Mof_C 	C 	0.9095	0.163	0.272	0.119
Mof_C 	C 	0.8372	0.1772	0.2496	0.143
Mof_C 	C 	0.8042	0.1268	0.297	-0.2
Mof_O 	O 	0.18709	0.43069	0.33422	-0.472
Mof_O 	O 	0.11155	0.42945	0.4117	-0.461
Mof_O 	O 	0.10942	0.19612	0.39636	-0.443
Mof_O 	O 	0.18705	0.27155	0.3223	-0.447
Mof_O 	O 	0.8026	0.4092	0.6976	-0.466
Mof_O 	O 	0.7277	0.4094	0.7726	-0.46
Mof_O 	O 	0.84266	0.88536	0.68528	-0.433
Mof_O 	O 	0.7657	0.8087	0.7612	-0.454
Mof_O 	O 	0.60118	0.88008	0.93364	-0.389
Mof_O 	O 	0.60001	0.80341	0.93218	-0.424
Mof_O 	O 	0.5599	0.1702	0.9326	-0.389
Mof_O 	O 	0.56043	0.24693	0.93254	-0.43
Mof_O 	O 	0.5448	0.9404	0.9836	0.219
Mof_O 	O 	0.8044	0.0009	0.7724	-0.21
Mof_O 	O 	0.9951	0.2311	0.569	-0.2
Mof_O 	O 	0.7613	0.2052	0.782	-0.19
Mof_O 	O 	0.47869	0.23509	0.33422	-0.471
Mof_O 	O 	0.47675	0.15885	0.4117	-0.46
Mof_O 	O 	0.49422	0.40752	0.39636	-0.441
Mof_O 	O 	0.49065	0.40615	0.3223	-0.447
Mof_O 	O 	0.4998	0.8932	0.6976	-0.466
Mof_O 	O 	0.4997	0.818	0.7726	-0.46
Mof_O 	O 	0.47206	0.42936	0.68528	-0.435
Mof_O 	O 	0.4731	0.4301	0.7612	-0.455
Mof_O 	O 	0.46518	0.18628	0.93364	-0.39
Mof_O 	O 	0.46781	0.26441	0.93218	-0.424
Mof_O 	O 	0.5075	0.8972	0.9326	-0.388
Mof_O 	O 	0.50703	0.82053	0.93254	-0.429
Mof_O 	O 	0.4716	0.076	0.9836	0.219
Mof_O 	O 	0.4232	0.2267	0.7724	-0.204
Mof_O 	O 	0.4359	0.1999	0.569	-0.208
Mof_O 	O 	0.4567	0.0128	0.782	-0.197
Mof_O 	O 	0.43069	0.47869	0.33422	-0.471
Mof_O 	O 	0.42945	0.47675	0.4117	-0.46
Mof_O 	O 	0.19612	0.49422	0.39636	-0.442
Mof_O 	O 	0.27155	0.49065	0.3223	-0.447
Mof_O 	O 	0.4092	0.4998	0.6976	-0.467
Mof_O 	O 	0.4094	0.4997	0.7726	-0.46
Mof_O 	O 	0.88536	0.47206	0.68528	-0.434
Mof_O 	O 	0.8087	0.4731	0.7612	-0.454
Mof_O 	O 	0.88008	0.46518	0.93364	-0.389
Mof_O 	O 	0.80341	0.46781	0.93218	-0.424
Mof_O 	O 	0.1702	0.5075	0.9326	-0.389
Mof_O 	O 	0.24693	0.50703	0.93254	-0.43
Mof_O 	O 	0.9404	0.4716	0.9836	0.219
Mof_O 	O 	0.0009	0.4232	0.7724	-0.211
Mof_O 	O 	0.2311	0.4359	0.569	-0.208
Mof_O 	O 	0.2052	0.4567	0.782	-0.19
Mof_O 	O 	0.23509	0.18709	0.33422	-0.472
Mof_O 	O 	0.15885	0.11155	0.4117	-0.462
Mof_O 	O 	0.40752	0.10942	0.39636	-0.443
Mof_O 	O 	0.40615	0.18705	0.3223	-0.447
Mof_O 	O 	0.8932	0.8026	0.6976	-0.465
Mof_O 	O 	0.818	0.7277	0.7726	-0.46
Mof_O 	O 	0.42936	0.84266	0.68528	-0.434
Mof_O 	O 	0.4301	0.7657	0.7612	-0.454
Mof_O 	O 	0.18628	0.60118	0.93364	-0.39
Mof_O 	O 	0.26441	0.60001	0.93218	-0.424
Mof_O 	O 	0.8972	0.5599	0.9326	-0.388
Mof_O 	O 	0.82053	0.56043	0.93254	-0.429
Mof_O 	O 	0.076	0.5448	0.9836	0.219
Mof_O 	O 	0.2267	0.8044	0.7724	-0.203
Mof_O 	O 	0.1999	0.9951	0.569	-0.2
Mof_O 	O 	0.0128	0.7613	0.782	-0.196
Mof_O 	O 	0.81291	0.56931	0.66578	-0.467
Mof_O 	O 	0.88845	0.57055	0.5883	-0.459
Mof_O 	O 	0.89058	0.80388	0.60364	-0.44
Mof_O 	O 	0.81295	0.72845	0.6777	-0.441
Mof_O 	O 	0.1974	0.5908	0.3024	-0.47
Mof_O 	O 	0.2723	0.5906	0.2274	-0.473
Mof_O 	O 	0.15734	0.11464	0.31472	-0.439
Mof_O 	O 	0.2343	0.1913	0.2388	-0.466
Mof_O 	O 	0.39882	0.11992	0.06636	-0.425
Mof_O 	O 	0.39999	0.19659	0.06782	-0.479
Mof_O 	O 	0.4401	0.8298	0.0674	-0.423
Mof_O 	O 	0.43957	0.75307	0.06746	-0.482
Mof_O 	O 	0.4552	0.0596	0.0164	-0.495
Mof_O 	O 	0.1956	0.9991	0.2276	-0.202
Mof_O 	O 	0.0049	0.7689	0.431	-0.218
Mof_O 	O 	0.2387	0.7948	0.218	-0.196
Mof_O 	O 	0.52131	0.76491	0.66578	-0.467
Mof_O 	O 	0.52325	0.84115	0.5883	-0.459
Mof_O 	O 	0.50578	0.59248	0.60364	-0.441
Mof_O 	O 	0.50935	0.59385	0.6777	-0.441
Mof_O 	O 	0.5002	0.1068	0.3024	-0.471
Mof_O 	O 	0.5003	0.182	0.2274	-0.474
Mof_O 	O 	0.52794	0.57064	0.31472	-0.437
Mof_O 	O 	0.5269	0.5699	0.2388	-0.465
Mof_O 	O 	0.53482	0.81372	0.06636	-0.423
Mof_O 	O 	0.53219	0.73559	0.06782	-0.479
Mof_O 	O 	0.4925	0.1028	0.0674	-0.424
Mof_O 	O 	0.49297	0.17947	0.06746	-0.482
Mof_O 	O 	0.5284	0.924	0.0164	-0.49
Mof_O 	O 	0.5768	0.7733	0.2276	-0.209
Mof_O 	O 	0.5641	0.8001	0.431	-0.21
Mof_O 	O 	0.5433	0.9872	0.218	-0.19
Mof_O 	O 	0.56931	0.52131	0.66578	-0.467
Mof_O 	O 	0.57055	0.52325	0.5883	-0.46
Mof_O 	O 	0.80388	0.50578	0.60364	-0.441
Mof_O 	O 	0.72845	0.50935	0.6777	-0.441
Mof_O 	O 	0.5908	0.5002	0.3024	-0.47
Mof_O 	O 	0.5906	0.5003	0.2274	-0.473
Mof_O 	O 	0.11464	0.52794	0.31472	-0.438
Mof_O 	O 	0.1913	0.5269	0.2388	-0.465
Mof_O 	O 	0.11992	0.53482	0.06636	-0.424
Mof_O 	O 	0.19659	0.53219	0.06782	-0.479
Mof_O 	O 	0.8298	0.4925	0.0674	-0.423
Mof_O 	O 	0.75307	0.49297	0.06746	-0.482
Mof_O 	O 	0.0596	0.5284	0.0164	-0.494
Mof_O 	O 	0.9991	0.5768	0.2276	-0.202
Mof_O 	O 	0.7689	0.5641	0.431	-0.21
Mof_O 	O 	0.7948	0.5433	0.218	-0.196
Mof_O 	O 	0.76491	0.81291	0.66578	-0.467
Mof_O 	O 	0.84115	0.88845	0.5883	-0.458
Mof_O 	O 	0.59248	0.89058	0.60364	-0.44
Mof_O 	O 	0.59385	0.81295	0.6777	-0.441
Mof_O 	O 	0.1068	0.1974	0.3024	-0.472
Mof_O 	O 	0.182	0.2723	0.2274	-0.474
Mof_O 	O 	0.57064	0.15734	0.31472	-0.438
Mof_O 	O 	0.5699	0.2343	0.2388	-0.465
Mof_O 	O 	0.81372	0.39882	0.06636	-0.423
Mof_O 	O 	0.73559	0.39999	0.06782	-0.479
Mof_O 	O 	0.1028	0.4401	0.0674	-0.424
Mof_O 	O 	0.17947	0.43957	0.06746	-0.482
Mof_O 	O 	0.924	0.4552	0.0164	-0.49
Mof_O 	O 	0.7733	0.1956	0.2276	-0.21
Mof_O 	O 	0.8001	0.0049	0.431	-0.218
Mof_O 	O 	0.9872	0.2387	0.218	-0.19
_end
