data_functionalizedCrystal
_audit_creation_method	'EQeq! by Chris Wilmer'
_symmetry_space_group_name_H-M	'P1'
_symmetry_Int_Tables_number	1
_symmetry_cell_setting	triclinic
loop_
_symmetry_equiv_pos_as_xyz
  x,y,z
_cell_length_a	7.9985
_cell_length_b	9.7296
_cell_length_c	10.8506
_cell_angle_alpha	84.315
_cell_angle_beta	78.168
_cell_angle_gamma	75.064
loop_
_atom_site_label
_atom_site_type_symbol
_atom_site_fract_x
_atom_site_fract_y
_atom_site_fract_z
_atom_site_charge
Mof_Cu	Cu	0.4147	0.687	0.824	0.914
Mof_Cu	Cu	0.1613	0.5461	0.8749	0.9
Mof_Cu	Cu	0.804	0.1282	0.3454	0.857
Mof_O 	O 	0.4217	0.671	0.6436	-0.347
Mof_O 	O 	0.2045	0.5515	0.6901	-0.364
Mof_O 	O 	0.5555	0.3608	0.5496	-0.267
Mof_O 	O 	0.6456	0.3073	0.346	-0.414
Mof_O 	O 	0.1514	0.564	0.0559	-0.323
Mof_O 	O 	0.3727	0.675	0.0093	-0.307
Mof_O 	O 	0.9703	0.9516	0.3423	-0.314
Mof_O 	O 	0.0249	0.8803	0.1465	-0.199
Mof_O 	O 	0.7564	0.8592	0.6526	-0.213
Mof_O 	O 	0.5726	0.8298	0.8331	-0.318
Mof_O 	O 	0.9903	0.7309	0.8682	-0.309
Mof_O 	O 	0.2064	0.8497	0.8257	-0.339
Mof_O 	O 	0.3795	0.388	0.8758	-0.415
Mof_O 	O 	0.5926	0.5014	0.8218	-0.357
Mof_O 	O 	0.0075	0.4029	0.8685	-0.348
Mof_O 	O 	0.8107	0.3943	0.0439	-0.145
Mof_C 	C 	0.4111	0.5032	0.3933	-0.058
Mof_C 	C 	0.3747	0.509	0.2675	0.026
Mof_H 	H 	0.428	0.4281	0.2184	0.057
Mof_C 	C 	0.2671	0.6245	0.2136	-0.063
Mof_C 	C 	0.1628	0.7302	0.3044	-0.003
Mof_C 	C 	0.1817	0.7184	0.4271	-0.034
Mof_H 	H 	0.1066	0.7863	0.484	0.07
Mof_C 	C 	0.3078	0.6097	0.4705	-0
Mof_C 	C 	0.317	0.6093	0.6139	0.309
Mof_C 	C 	0.545	0.3794	0.4372	0.332
Mof_C 	C 	0.26	0.6276	0.0851	0.347
Mof_C 	C 	0.0417	0.8601	0.26	0.258
Mof_C 	C 	0.8358	0.2383	0.8898	-0.024
Mof_C 	C 	0.9517	0.1059	0.8797	-0.086
Mof_H 	H 	0.0677	0.0956	0.8937	0.025
Mof_C 	C 	0.9048	0.9862	0.8496	0.097
Mof_C 	C 	0.7479	0.9988	0.8203	0.01
Mof_C 	C 	0.627	0.1353	0.8193	-0.095
Mof_H 	H 	0.5189	0.1442	0.7921	0.066
Mof_C 	C 	0.6616	0.2525	0.8559	-0.061
Mof_C 	C 	0.6896	0.8807	0.7663	0.331
Mof_C 	C 	0.0428	0.8392	0.8499	0.201
Mof_C 	C 	0.5366	0.388	0.8535	0.343
Mof_C 	C 	0.8854	0.3561	0.938	0.26
_end
