# CIF file generated by openbabel 3.1.0, see https://openbabel.org
data_I
_chemical_name_common 'image0'
_cell_length_a 15.837
_cell_length_b 10.568
_cell_length_c 21.099
_cell_angle_alpha 90
_cell_angle_beta 107.098
_cell_angle_gamma 90
_space_group_name_H-M_alt 'P 1'
_space_group_name_Hall 'P 1'
loop_
    _symmetry_equiv_pos_as_xyz
    x,y,z
loop_
    _atom_site_label
    _atom_site_type_symbol
    _atom_site_fract_x
    _atom_site_fract_y
    _atom_site_fract_z
    _atom_site_occupancy
    Pr1      Pr       0.39919    0.08118    0.54697    1.000
    O1       O        0.54280    0.17220    0.56460    1.000
    O2       O        0.50530    0.92180    0.59280    1.000
    O3       O        0.39010    0.17270    0.43960    1.000
    O4       O        0.23800    0.13620    0.48930    1.000
    O5       O        0.34440    0.91270    0.46130    1.000
    O6       O        0.39310    0.06440    0.66380    1.000
    O7       O        0.30980    0.92900    0.59400    1.000
    C1       C        0.57850    0.86500    0.60420    1.000
    C2       C        0.63110    0.84280    0.67590    1.000
    C3       C        0.69730    0.75010    0.69060    1.000
    C4       C        0.61470    0.91170    0.72660    1.000
    C5       C        0.74840    0.72620    0.75410    1.000
    H1       H        0.70690    0.70320    0.65610    1.000
    C6       C        0.66720    0.88960    0.79130    1.000
    H2       H        0.56960    0.97140    0.71780    1.000
    C7       C        0.73260    0.79800    0.80440    1.000
    N1       N        0.81180    0.63100    0.76680    1.000
    C8       C        0.65350    0.96590    0.84750    1.000
    H3       H        0.76670    0.78440    0.84790    1.000
    C9       C        0.86500    0.59940    0.83390    1.000
    C10      C        0.84120    0.57520    0.71400    1.000
    C11      C        0.94790    0.67680    0.85890    1.000
    H4       H        0.88110    0.51070    0.83520    1.000
    H5       H        0.82920    0.61090    0.86380    1.000
    H6       H        0.84090    0.64000    0.68130    1.000
    C12      C        0.78430    0.46430    0.67920    1.000
    H7       H        0.90160    0.54620    0.73230    1.000
    C13      C        0.96360    0.78300    0.82710    1.000
    C14      C        0.01250    0.63920    0.91660    1.000
    C15      C        0.70690    0.43190    0.69080    1.000
    C16      C        0.81210    0.39640    0.63350    1.000
    H8       H        0.92200    0.80800    0.78800    1.000
    C17      C        0.03990    0.85450    0.85140    1.000
    C18      C        0.08870    0.70810    0.94130    1.000
    H9       H        0.00380    0.56630    0.93870    1.000
    C19      C        0.65470    0.33320    0.65580    1.000
    H10      H        0.68840    0.47600    0.72260    1.000
    C20      C        0.76080    0.29900    0.59760    1.000
    H11      H        0.86590    0.41590    0.62640    1.000
    C21      C        0.10270    0.81730    0.90940    1.000
    H12      H        0.04890    0.92660    0.82890    1.000
    H13      H        0.13110    0.68140    0.97960    1.000
    C22      C        0.68090    0.26790    0.60830    1.000
    H14      H        0.60230    0.31180    0.66460    1.000
    H15      H        0.78000    0.25460    0.56640    1.000
    C23      C        0.18420    0.89100    0.93710    1.000
    C24      C        0.62220    0.16890    0.56780    1.000
    O8       O        0.19320    0.98850    0.90080    1.000
    Pr2      Pr       0.60081    0.08118    0.95303    1.000
    O9       O        0.45720    0.17220    0.93540    1.000
    O10      O        0.49470    0.92180    0.90720    1.000
    O11      O        0.60990    0.17270    0.06040    1.000
    O12      O        0.76200    0.13620    0.01070    1.000
    O13      O        0.65560    0.91270    0.03870    1.000
    O14      O        0.60690    0.06440    0.83620    1.000
    O15      O        0.69020    0.92900    0.90600    1.000
    C25      C        0.42150    0.86500    0.89580    1.000
    C26      C        0.36890    0.84280    0.82410    1.000
    C27      C        0.30270    0.75010    0.80940    1.000
    C28      C        0.38530    0.91170    0.77340    1.000
    C29      C        0.25160    0.72620    0.74590    1.000
    H16      H        0.29310    0.70320    0.84390    1.000
    C30      C        0.33280    0.88960    0.70870    1.000
    H17      H        0.43040    0.97140    0.78220    1.000
    C31      C        0.26740    0.79800    0.69560    1.000
    N2       N        0.18820    0.63100    0.73320    1.000
    C32      C        0.34650    0.96590    0.65250    1.000
    H18      H        0.23330    0.78440    0.65210    1.000
    C33      C        0.13500    0.59940    0.66610    1.000
    C34      C        0.15880    0.57520    0.78600    1.000
    C35      C        0.05210    0.67680    0.64110    1.000
    H19      H        0.11890    0.51070    0.66480    1.000
    H20      H        0.17080    0.61090    0.63620    1.000
    H21      H        0.15910    0.64000    0.81870    1.000
    C36      C        0.21570    0.46430    0.82080    1.000
    H22      H        0.09840    0.54620    0.76770    1.000
    C37      C        0.03640    0.78300    0.67290    1.000
    C38      C        0.98750    0.63920    0.58340    1.000
    C39      C        0.29310    0.43190    0.80920    1.000
    C40      C        0.18790    0.39640    0.86650    1.000
    H23      H        0.07800    0.80800    0.71200    1.000
    C41      C        0.96010    0.85450    0.64860    1.000
    C42      C        0.91130    0.70810    0.55870    1.000
    H24      H        0.99620    0.56630    0.56130    1.000
    C43      C        0.34530    0.33320    0.84420    1.000
    H25      H        0.31160    0.47600    0.77740    1.000
    C44      C        0.23920    0.29900    0.90240    1.000
    H26      H        0.13410    0.41590    0.87360    1.000
    C45      C        0.89730    0.81730    0.59060    1.000
    H27      H        0.95110    0.92660    0.67110    1.000
    H28      H        0.86890    0.68140    0.52040    1.000
    C46      C        0.31910    0.26790    0.89170    1.000
    H29      H        0.39770    0.31180    0.83540    1.000
    H30      H        0.22000    0.25460    0.93360    1.000
    C47      C        0.81580    0.89100    0.56290    1.000
    C48      C        0.37780    0.16890    0.93220    1.000
    O16      O        0.80680    0.98850    0.59920    1.000
    Pr3      Pr       0.60081    0.91882    0.45303    1.000
    O17      O        0.45720    0.82780    0.43540    1.000
    O18      O        0.49470    0.07820    0.40720    1.000
    O19      O        0.60990    0.82730    0.56040    1.000
    O20      O        0.76200    0.86380    0.51070    1.000
    O21      O        0.65560    0.08730    0.53870    1.000
    O22      O        0.60690    0.93560    0.33620    1.000
    O23      O        0.69020    0.07100    0.40600    1.000
    C49      C        0.42150    0.13500    0.39580    1.000
    C50      C        0.36890    0.15720    0.32410    1.000
    C51      C        0.30270    0.24990    0.30940    1.000
    C52      C        0.38530    0.08830    0.27340    1.000
    C53      C        0.25160    0.27380    0.24590    1.000
    H31      H        0.29310    0.29680    0.34390    1.000
    C54      C        0.33280    0.11040    0.20870    1.000
    H32      H        0.43040    0.02860    0.28220    1.000
    C55      C        0.26740    0.20200    0.19560    1.000
    N3       N        0.18820    0.36900    0.23320    1.000
    C56      C        0.34650    0.03410    0.15250    1.000
    H33      H        0.23330    0.21560    0.15210    1.000
    C57      C        0.13500    0.40060    0.16610    1.000
    C58      C        0.15880    0.42480    0.28600    1.000
    C59      C        0.05210    0.32320    0.14110    1.000
    H34      H        0.11890    0.48930    0.16480    1.000
    H35      H        0.17080    0.38910    0.13620    1.000
    H36      H        0.15910    0.36000    0.31870    1.000
    C60      C        0.21570    0.53570    0.32080    1.000
    H37      H        0.09840    0.45380    0.26770    1.000
    C61      C        0.03640    0.21700    0.17290    1.000
    C62      C        0.98750    0.36080    0.08340    1.000
    C63      C        0.29310    0.56810    0.30920    1.000
    C64      C        0.18790    0.60360    0.36650    1.000
    H38      H        0.07800    0.19200    0.21200    1.000
    C65      C        0.96010    0.14550    0.14860    1.000
    C66      C        0.91130    0.29190    0.05870    1.000
    H39      H        0.99620    0.43370    0.06130    1.000
    C67      C        0.34530    0.66680    0.34420    1.000
    H40      H        0.31160    0.52400    0.27740    1.000
    C68      C        0.23920    0.70100    0.40240    1.000
    H41      H        0.13410    0.58410    0.37360    1.000
    C69      C        0.89730    0.18270    0.09060    1.000
    H42      H        0.95110    0.07340    0.17110    1.000
    H43      H        0.86890    0.31860    0.02040    1.000
    C70      C        0.31910    0.73210    0.39170    1.000
    H44      H        0.39770    0.68820    0.33540    1.000
    H45      H        0.22000    0.74540    0.43360    1.000
    C71      C        0.81580    0.10900    0.06290    1.000
    C72      C        0.37780    0.83110    0.43220    1.000
    O24      O        0.80680    0.01150    0.09920    1.000
    Pr4      Pr       0.39919    0.91882    0.04697    1.000
    O25      O        0.54280    0.82780    0.06460    1.000
    O26      O        0.50530    0.07820    0.09280    1.000
    O27      O        0.39010    0.82730    0.93960    1.000
    O28      O        0.23800    0.86380    0.98930    1.000
    O29      O        0.34440    0.08730    0.96130    1.000
    O30      O        0.39310    0.93560    0.16380    1.000
    O31      O        0.30980    0.07100    0.09400    1.000
    C73      C        0.57850    0.13500    0.10420    1.000
    C74      C        0.63110    0.15720    0.17590    1.000
    C75      C        0.69730    0.24990    0.19060    1.000
    C76      C        0.61470    0.08830    0.22660    1.000
    C77      C        0.74840    0.27380    0.25410    1.000
    H46      H        0.70690    0.29680    0.15610    1.000
    C78      C        0.66720    0.11040    0.29130    1.000
    H47      H        0.56960    0.02860    0.21780    1.000
    C79      C        0.73260    0.20200    0.30440    1.000
    N4       N        0.81180    0.36900    0.26680    1.000
    C80      C        0.65350    0.03410    0.34750    1.000
    H48      H        0.76670    0.21560    0.34790    1.000
    C81      C        0.86500    0.40060    0.33390    1.000
    C82      C        0.84120    0.42480    0.21400    1.000
    C83      C        0.94790    0.32320    0.35890    1.000
    H49      H        0.88110    0.48930    0.33520    1.000
    H50      H        0.82920    0.38910    0.36380    1.000
    H51      H        0.84090    0.36000    0.18130    1.000
    C84      C        0.78430    0.53570    0.17920    1.000
    H52      H        0.90160    0.45380    0.23230    1.000
    C85      C        0.96360    0.21700    0.32710    1.000
    C86      C        0.01250    0.36080    0.41660    1.000
    C87      C        0.70690    0.56810    0.19080    1.000
    C88      C        0.81210    0.60360    0.13350    1.000
    H53      H        0.92200    0.19200    0.28800    1.000
    C89      C        0.03990    0.14550    0.35140    1.000
    C90      C        0.08870    0.29190    0.44130    1.000
    H54      H        0.00380    0.43370    0.43870    1.000
    C91      C        0.65470    0.66680    0.15580    1.000
    H55      H        0.68840    0.52400    0.22260    1.000
    C92      C        0.76080    0.70100    0.09760    1.000
    H56      H        0.86590    0.58410    0.12640    1.000
    C93      C        0.10270    0.18270    0.40940    1.000
    H57      H        0.04890    0.07340    0.32890    1.000
    H58      H        0.13110    0.31860    0.47960    1.000
    C94      C        0.68090    0.73210    0.10830    1.000
    H59      H        0.60230    0.68820    0.16460    1.000
    H60      H        0.78000    0.74540    0.06640    1.000
    C95      C        0.18420    0.10900    0.43710    1.000
    C96      C        0.62220    0.83110    0.06780    1.000
    O32      O        0.19320    0.01150    0.40080    1.000
