data_functionalizedCrystal
_audit_creation_method	'EQeq! by Chris Wilmer'
_symmetry_space_group_name_H-M	'P1'
_symmetry_Int_Tables_number	1
_symmetry_cell_setting	triclinic
loop_
_symmetry_equiv_pos_as_xyz
  x,y,z
_cell_length_a	10.0945
_cell_length_b	14.7356
_cell_length_c	14.4964
_cell_angle_alpha	90
_cell_angle_beta	97.497
_cell_angle_gamma	90
loop_
_atom_site_label
_atom_site_type_symbol
_atom_site_fract_x
_atom_site_fract_y
_atom_site_fract_z
_atom_site_charge
Mof_Zn	Zn	0.95889	0.09878	0.89901	1.229
Mof_Zn	Zn	0.96696	0.26045	0.26471	1.241
Mof_Zn	Zn	0.5171	0.12896	0.43978	1.237
Mof_P 	P 	0.0015	0.10713	0.11762	0.425
Mof_H 	H 	0.1309	0.1701	0.1058	-0.028
Mof_P 	P 	0.68568	0.27605	0.34078	0.493
Mof_H 	H 	0.6452	0.2841	0.2541	-0.063
Mof_P 	P 	0.27081	0.2331	0.34178	0.468
Mof_H 	H 	0.2766	0.1882	0.2651	-0.063
Mof_P 	P 	0.55703	0.07372	0.6437	0.458
Mof_H 	H 	0.688	0.0403	0.6984	-0.016
Mof_O 	O 	0.6363	0.3538	0.3949	-0.459
Mof_O 	O 	0.0581	0.0197	0.1594	-0.435
Mof_O 	O 	0.3315	0.3228	0.3235	-0.459
Mof_O 	O 	0.9159	0.0935	0.0253	-0.458
Mof_O 	O 	0.9236	0.158	0.1844	-0.428
Mof_O 	O 	0.4809	0.1227	0.7102	-0.445
Mof_O 	O 	0.8353	0.2781	0.3476	-0.421
Mof_O 	O 	0.1243	0.2385	0.3528	-0.423
Mof_O 	O 	0.3427	0.1825	0.4237	-0.465
Mof_O 	O 	0.4769	0.9928	0.606	-0.461
Mof_O 	O 	0.6359	0.1848	0.3641	-0.458
Mof_O 	O 	0.5984	0.1335	0.5683	-0.461
Mof_Zn	Zn	0.54111	0.59878	0.60099	1.23
Mof_Zn	Zn	0.53304	0.76045	0.23529	1.24
Mof_Zn	Zn	0.9829	0.62896	0.06022	1.237
Mof_P 	P 	0.4985	0.60713	0.38238	0.423
Mof_H 	H 	0.3691	0.6701	0.3942	-0.03
Mof_P 	P 	0.81432	0.77605	0.15922	0.492
Mof_H 	H 	0.8548	0.7841	0.2459	-0.063
Mof_P 	P 	0.22919	0.7331	0.15822	0.468
Mof_H 	H 	0.2234	0.6882	0.2349	-0.064
Mof_P 	P 	0.94297	0.57372	0.8563	0.458
Mof_H 	H 	0.812	0.5403	0.8016	-0.014
Mof_O 	O 	0.8637	0.8538	0.1051	-0.459
Mof_O 	O 	0.4419	0.5197	0.3406	-0.438
Mof_O 	O 	0.1685	0.8228	0.1765	-0.461
Mof_O 	O 	0.5841	0.5935	0.4747	-0.46
Mof_O 	O 	0.5764	0.658	0.3156	-0.428
Mof_O 	O 	0.0191	0.6227	0.7898	-0.443
Mof_O 	O 	0.6647	0.7781	0.1524	-0.422
Mof_O 	O 	0.3757	0.7385	0.1472	-0.425
Mof_O 	O 	0.1573	0.6825	0.0763	-0.467
Mof_O 	O 	0.0231	0.4928	0.894	-0.46
Mof_O 	O 	0.8641	0.6848	0.1359	-0.458
Mof_O 	O 	0.9016	0.6335	0.9317	-0.461
Mof_Zn	Zn	0.04111	0.90122	0.10099	1.228
Mof_Zn	Zn	0.03304	0.73955	0.73529	1.24
Mof_Zn	Zn	0.4829	0.87104	0.56022	1.236
Mof_P 	P 	0.9985	0.89287	0.88238	0.424
Mof_H 	H 	0.8691	0.8299	0.8942	-0.029
Mof_P 	P 	0.31432	0.72395	0.65922	0.492
Mof_H 	H 	0.3548	0.7159	0.7459	-0.063
Mof_P 	P 	0.72919	0.7669	0.65822	0.468
Mof_H 	H 	0.7234	0.8118	0.7349	-0.063
Mof_P 	P 	0.44297	0.92628	0.3563	0.458
Mof_H 	H 	0.312	0.9597	0.3016	-0.016
Mof_O 	O 	0.3637	0.6462	0.6051	-0.459
Mof_O 	O 	0.9419	0.9803	0.8406	-0.435
Mof_O 	O 	0.6685	0.6772	0.6765	-0.459
Mof_O 	O 	0.0841	0.9065	0.9747	-0.458
Mof_O 	O 	0.0764	0.842	0.8156	-0.428
Mof_O 	O 	0.5191	0.8773	0.2898	-0.445
Mof_O 	O 	0.1647	0.7219	0.6524	-0.421
Mof_O 	O 	0.8757	0.7615	0.6472	-0.423
Mof_O 	O 	0.6573	0.8175	0.5763	-0.465
Mof_O 	O 	0.5231	0.0072	0.394	-0.461
Mof_O 	O 	0.3641	0.8152	0.6359	-0.458
Mof_O 	O 	0.4016	0.8665	0.4317	-0.461
Mof_Zn	Zn	0.45889	0.40122	0.39901	1.23
Mof_Zn	Zn	0.46696	0.23955	0.76471	1.24
Mof_Zn	Zn	0.0171	0.37104	0.93978	1.237
Mof_P 	P 	0.5015	0.39287	0.61762	0.423
Mof_H 	H 	0.6309	0.3299	0.6058	-0.03
Mof_P 	P 	0.18568	0.22395	0.84078	0.492
Mof_H 	H 	0.1452	0.2159	0.7541	-0.063
Mof_P 	P 	0.77081	0.2669	0.84178	0.468
Mof_H 	H 	0.7766	0.3118	0.7651	-0.064
Mof_P 	P 	0.05703	0.42628	0.1437	0.458
Mof_H 	H 	0.188	0.4597	0.1984	-0.014
Mof_O 	O 	0.1363	0.1462	0.8949	-0.459
Mof_O 	O 	0.5581	0.4803	0.6594	-0.438
Mof_O 	O 	0.8315	0.1772	0.8235	-0.461
Mof_O 	O 	0.4159	0.4065	0.5253	-0.46
Mof_O 	O 	0.4236	0.342	0.6844	-0.428
Mof_O 	O 	0.9809	0.3773	0.2102	-0.443
Mof_O 	O 	0.3353	0.2219	0.8476	-0.422
Mof_O 	O 	0.6243	0.2615	0.8528	-0.425
Mof_O 	O 	0.8427	0.3175	0.9237	-0.467
Mof_O 	O 	0.9769	0.5072	0.106	-0.46
Mof_O 	O 	0.1359	0.3152	0.8641	-0.458
Mof_O 	O 	0.0984	0.3665	0.0683	-0.461
_end
