# CIF file generated by openbabel 3.1.0, see https://openbabel.org
data_I
_chemical_name_common 'image0'
_cell_length_a 17.1469
_cell_length_b 23.3222
_cell_length_c 25.2552
_cell_angle_alpha 90
_cell_angle_beta 90
_cell_angle_gamma 90
_space_group_name_H-M_alt 'P 1'
_space_group_name_Hall 'P 1'
loop_
    _symmetry_equiv_pos_as_xyz
    x,y,z
loop_
    _atom_site_label
    _atom_site_type_symbol
    _atom_site_fract_x
    _atom_site_fract_y
    _atom_site_fract_z
    _atom_site_occupancy
    Zn1      Zn       0.83571    0.84821    0.93722    1.000
    O1       O        0.68710    0.28230    0.39390    1.000
    O2       O        0.78380    0.23650    0.43720    1.000
    O3       O        0.72580    0.96707    0.06071    1.000
    O4       O        0.80790    0.91330    0.10690    1.000
    O5       O        0.94370    0.84580    0.95490    1.000
    C1       C        0.74040    0.20090    0.35580    1.000
    C2       C        0.79660    0.16010    0.35480    1.000
    H1       H        0.83280    0.15770    0.38310    1.000
    C3       C        0.80190    0.12120    0.31210    1.000
    H2       H        0.84420    0.09490    0.31130    1.000
    C4       C        0.74910    0.12000    0.27240    1.000
    C5       C        0.69160    0.16170    0.27380    1.000
    H3       H        0.65140    0.16150    0.24790    1.000
    C6       C        0.69230    0.20300    0.31190    1.000
    H4       H        0.65800    0.23480    0.30820    1.000
    C7       C        0.75590    0.07890    0.22820    1.000
    C8       C        0.71360    0.08480    0.18580    1.000
    H5       H        0.67770    0.11570    0.18420    1.000
    C9       C        0.71860    0.04700    0.14160    1.000
    H6       H        0.69080    0.05540    0.11000    1.000
    C10      C        0.76390    0.99820    0.14500    1.000
    C11      C        0.79870    0.98790    0.19210    1.000
    H7       H        0.82510    0.95270    0.19790    1.000
    C12      C        0.79580    0.02910    0.23220    1.000
    H8       H        0.82340    0.02170    0.26410    1.000
    C13      C        0.73750    0.24200    0.39850    1.000
    C14      C        0.76640    0.95690    0.10090    1.000
    C15      C        0.10640    0.82310    0.96110    1.000
    H9       H        0.07900    0.80460    0.93320    1.000
    C16      C        0.18280    0.82440    0.95920    1.000
    H10      H        0.20960    0.80670    0.93050    1.000
    C17      C        0.10900    0.87160    0.95920    1.000
    H11      H        0.08290    0.88820    0.92980    1.000
    C18      C        0.18500    0.87240    0.96130    1.000
    H12      H        0.21240    0.88900    0.93240    1.000
    Zn2      Zn       0.66429    0.34821    0.56278    1.000
    O6       O        0.81290    0.78230    0.10610    1.000
    O7       O        0.71620    0.73650    0.06280    1.000
    O8       O        0.77420    0.46707    0.43929    1.000
    O9       O        0.69210    0.41330    0.39310    1.000
    O10      O        0.55630    0.34580    0.54510    1.000
    C19      C        0.75960    0.70090    0.14420    1.000
    C20      C        0.70340    0.66010    0.14520    1.000
    H13      H        0.66720    0.65770    0.11690    1.000
    C21      C        0.69810    0.62120    0.18790    1.000
    H14      H        0.65580    0.59490    0.18870    1.000
    C22      C        0.75090    0.62000    0.22760    1.000
    C23      C        0.80840    0.66170    0.22620    1.000
    H15      H        0.84860    0.66150    0.25210    1.000
    C24      C        0.80770    0.70300    0.18810    1.000
    H16      H        0.84200    0.73480    0.19180    1.000
    C25      C        0.74410    0.57890    0.27180    1.000
    C26      C        0.78640    0.58480    0.31420    1.000
    H17      H        0.82230    0.61570    0.31580    1.000
    C27      C        0.78140    0.54700    0.35840    1.000
    H18      H        0.80920    0.55540    0.39000    1.000
    C28      C        0.73610    0.49820    0.35500    1.000
    C29      C        0.70130    0.48790    0.30790    1.000
    H19      H        0.67490    0.45270    0.30210    1.000
    C30      C        0.70420    0.52910    0.26780    1.000
    H20      H        0.67660    0.52170    0.23590    1.000
    C31      C        0.76250    0.74200    0.10150    1.000
    C32      C        0.73360    0.45690    0.39910    1.000
    C33      C        0.39360    0.32310    0.53890    1.000
    H21      H        0.42100    0.30460    0.56680    1.000
    C34      C        0.31720    0.32440    0.54080    1.000
    H22      H        0.29040    0.30670    0.56950    1.000
    C35      C        0.39100    0.37160    0.54080    1.000
    H23      H        0.41710    0.38820    0.57020    1.000
    C36      C        0.31500    0.37240    0.53870    1.000
    H24      H        0.28760    0.38900    0.56760    1.000
    Zn3      Zn       0.83571    0.84821    0.06278    1.000
    O11      O        0.68710    0.28230    0.60610    1.000
    O12      O        0.78380    0.23650    0.56280    1.000
    O13      O        0.72580    0.96707    0.93929    1.000
    O14      O        0.80790    0.91330    0.89310    1.000
    O15      O        0.94370    0.84580    0.04510    1.000
    C37      C        0.74040    0.20090    0.64420    1.000
    C38      C        0.79660    0.16010    0.64520    1.000
    H25      H        0.83280    0.15770    0.61690    1.000
    C39      C        0.80190    0.12120    0.68790    1.000
    H26      H        0.84420    0.09490    0.68870    1.000
    C40      C        0.74910    0.12000    0.72760    1.000
    C41      C        0.69160    0.16170    0.72620    1.000
    H27      H        0.65140    0.16150    0.75210    1.000
    C42      C        0.69230    0.20300    0.68810    1.000
    H28      H        0.65800    0.23480    0.69180    1.000
    C43      C        0.75590    0.07890    0.77180    1.000
    C44      C        0.71360    0.08480    0.81420    1.000
    H29      H        0.67770    0.11570    0.81580    1.000
    C45      C        0.71860    0.04700    0.85840    1.000
    H30      H        0.69080    0.05540    0.89000    1.000
    C46      C        0.76390    0.99820    0.85500    1.000
    C47      C        0.79870    0.98790    0.80790    1.000
    H31      H        0.82510    0.95270    0.80210    1.000
    C48      C        0.79580    0.02910    0.76780    1.000
    H32      H        0.82340    0.02170    0.73590    1.000
    C49      C        0.73750    0.24200    0.60150    1.000
    C50      C        0.76640    0.95690    0.89910    1.000
    C51      C        0.10640    0.82310    0.03890    1.000
    H33      H        0.07900    0.80460    0.06680    1.000
    C52      C        0.18280    0.82440    0.04080    1.000
    H34      H        0.20960    0.80670    0.06950    1.000
    C53      C        0.10900    0.87160    0.04080    1.000
    H35      H        0.08290    0.88820    0.07020    1.000
    C54      C        0.18500    0.87240    0.03870    1.000
    H36      H        0.21240    0.88900    0.06760    1.000
    Zn4      Zn       0.66429    0.34821    0.43722    1.000
    O16      O        0.81290    0.78230    0.89390    1.000
    O17      O        0.71620    0.73650    0.93720    1.000
    O18      O        0.77420    0.46707    0.56071    1.000
    O19      O        0.69210    0.41330    0.60690    1.000
    O20      O        0.55630    0.34580    0.45490    1.000
    C55      C        0.75960    0.70090    0.85580    1.000
    C56      C        0.70340    0.66010    0.85480    1.000
    H37      H        0.66720    0.65770    0.88310    1.000
    C57      C        0.69810    0.62120    0.81210    1.000
    H38      H        0.65580    0.59490    0.81130    1.000
    C58      C        0.75090    0.62000    0.77240    1.000
    C59      C        0.80840    0.66170    0.77380    1.000
    H39      H        0.84860    0.66150    0.74790    1.000
    C60      C        0.80770    0.70300    0.81190    1.000
    H40      H        0.84200    0.73480    0.80820    1.000
    C61      C        0.74410    0.57890    0.72820    1.000
    C62      C        0.78640    0.58480    0.68580    1.000
    H41      H        0.82230    0.61570    0.68420    1.000
    C63      C        0.78140    0.54700    0.64160    1.000
    H42      H        0.80920    0.55540    0.61000    1.000
    C64      C        0.73610    0.49820    0.64500    1.000
    C65      C        0.70130    0.48790    0.69210    1.000
    H43      H        0.67490    0.45270    0.69790    1.000
    C66      C        0.70420    0.52910    0.73220    1.000
    H44      H        0.67660    0.52170    0.76410    1.000
    C67      C        0.76250    0.74200    0.89850    1.000
    C68      C        0.73360    0.45690    0.60090    1.000
    C69      C        0.39360    0.32310    0.46110    1.000
    H45      H        0.42100    0.30460    0.43320    1.000
    C70      C        0.31720    0.32440    0.45920    1.000
    H46      H        0.29040    0.30670    0.43050    1.000
    C71      C        0.39100    0.37160    0.45920    1.000
    H47      H        0.41710    0.38820    0.42980    1.000
    C72      C        0.31500    0.37240    0.46130    1.000
    H48      H        0.28760    0.38900    0.43240    1.000
    Zn5      Zn       0.70808    0.91810    0.00000    1.000
    Zn6      Zn       0.70198    0.78202    0.00000    1.000
    O21      O        0.76950    0.84880    0.00000    1.000
    O22      O        0.59550    0.90560    0.00000    1.000
    O23      O        0.59590    0.80790    0.00000    1.000
    C73      C        0.97360    0.84340    0.00000    1.000
    C74      C        0.06550    0.84660    0.00000    1.000
    C75      C        0.22520    0.85220    0.00000    1.000
    C76      C        0.31180    0.85710    0.00000    1.000
    C77      C        0.35290    0.80870    0.00000    1.000
    H49      H        0.32610    0.77300    0.00000    1.000
    C78      C        0.43690    0.80890    0.00000    1.000
    H50      H        0.46450    0.77350    0.00000    1.000
    C79      C        0.47620    0.85800    0.00000    1.000
    C80      C        0.43230    0.90640    0.00000    1.000
    H51      H        0.45820    0.94240    0.00000    1.000
    C81      C        0.35170    0.90600    0.00000    1.000
    H52      H        0.32420    0.94140    0.00000    1.000
    C82      C        0.56150    0.85650    0.00000    1.000
    Zn7      Zn       0.79192    0.41810    0.50000    1.000
    Zn8      Zn       0.79802    0.28202    0.50000    1.000
    O24      O        0.73050    0.34880    0.50000    1.000
    O25      O        0.90450    0.40560    0.50000    1.000
    O26      O        0.90410    0.30790    0.50000    1.000
    C83      C        0.52640    0.34340    0.50000    1.000
    C84      C        0.43450    0.34660    0.50000    1.000
    C85      C        0.27480    0.35220    0.50000    1.000
    C86      C        0.18820    0.35710    0.50000    1.000
    C87      C        0.14710    0.30870    0.50000    1.000
    H53      H        0.17390    0.27300    0.50000    1.000
    C88      C        0.06310    0.30890    0.50000    1.000
    H54      H        0.03550    0.27350    0.50000    1.000
    C89      C        0.02380    0.35800    0.50000    1.000
    C90      C        0.06770    0.40640    0.50000    1.000
    H55      H        0.04180    0.44240    0.50000    1.000
    C91      C        0.14830    0.40600    0.50000    1.000
    H56      H        0.17580    0.44140    0.50000    1.000
    C92      C        0.93850    0.35650    0.50000    1.000
    Zn9      Zn       0.16429    0.15179    0.93722    1.000
    O27      O        0.31290    0.71770    0.39390    1.000
    O28      O        0.21620    0.76350    0.43720    1.000
    O29      O        0.27420    0.03293    0.06071    1.000
    O30      O        0.19210    0.08670    0.10690    1.000
    O31      O        0.05630    0.15420    0.95490    1.000
    C93      C        0.25960    0.79910    0.35580    1.000
    C94      C        0.20340    0.83990    0.35480    1.000
    H57      H        0.16720    0.84230    0.38310    1.000
    C95      C        0.19810    0.87880    0.31210    1.000
    H58      H        0.15580    0.90510    0.31130    1.000
    C96      C        0.25090    0.88000    0.27240    1.000
    C97      C        0.30840    0.83830    0.27380    1.000
    H59      H        0.34860    0.83850    0.24790    1.000
    C98      C        0.30770    0.79700    0.31190    1.000
    H60      H        0.34200    0.76520    0.30820    1.000
    C99      C        0.24410    0.92110    0.22820    1.000
    C100     C        0.28640    0.91520    0.18580    1.000
    H61      H        0.32230    0.88430    0.18420    1.000
    C101     C        0.28140    0.95300    0.14160    1.000
    H62      H        0.30920    0.94460    0.11000    1.000
    C102     C        0.23610    0.00180    0.14500    1.000
    C103     C        0.20130    0.01210    0.19210    1.000
    H63      H        0.17490    0.04730    0.19790    1.000
    C104     C        0.20420    0.97090    0.23220    1.000
    H64      H        0.17660    0.97830    0.26410    1.000
    C105     C        0.26250    0.75800    0.39850    1.000
    C106     C        0.23360    0.04310    0.10090    1.000
    C107     C        0.89360    0.17690    0.96110    1.000
    H65      H        0.92100    0.19540    0.93320    1.000
    C108     C        0.81720    0.17560    0.95920    1.000
    H66      H        0.79040    0.19330    0.93050    1.000
    C109     C        0.89100    0.12840    0.95920    1.000
    H67      H        0.91710    0.11180    0.92980    1.000
    C110     C        0.81500    0.12760    0.96130    1.000
    H68      H        0.78760    0.11100    0.93240    1.000
    Zn10     Zn       0.33571    0.65179    0.56278    1.000
    O32      O        0.18710    0.21770    0.10610    1.000
    O33      O        0.28380    0.26350    0.06280    1.000
    O34      O        0.22580    0.53293    0.43929    1.000
    O35      O        0.30790    0.58670    0.39310    1.000
    O36      O        0.44370    0.65420    0.54510    1.000
    C111     C        0.24040    0.29910    0.14420    1.000
    C112     C        0.29660    0.33990    0.14520    1.000
    H69      H        0.33280    0.34230    0.11690    1.000
    C113     C        0.30190    0.37880    0.18790    1.000
    H70      H        0.34420    0.40510    0.18870    1.000
    C114     C        0.24910    0.38000    0.22760    1.000
    C115     C        0.19160    0.33830    0.22620    1.000
    H71      H        0.15140    0.33850    0.25210    1.000
    C116     C        0.19230    0.29700    0.18810    1.000
    H72      H        0.15800    0.26520    0.19180    1.000
    C117     C        0.25590    0.42110    0.27180    1.000
    C118     C        0.21360    0.41520    0.31420    1.000
    H73      H        0.17770    0.38430    0.31580    1.000
    C119     C        0.21860    0.45300    0.35840    1.000
    H74      H        0.19080    0.44460    0.39000    1.000
    C120     C        0.26390    0.50180    0.35500    1.000
    C121     C        0.29870    0.51210    0.30790    1.000
    H75      H        0.32510    0.54730    0.30210    1.000
    C122     C        0.29580    0.47090    0.26780    1.000
    H76      H        0.32340    0.47830    0.23590    1.000
    C123     C        0.23750    0.25800    0.10150    1.000
    C124     C        0.26640    0.54310    0.39910    1.000
    C125     C        0.60640    0.67690    0.53890    1.000
    H77      H        0.57900    0.69540    0.56680    1.000
    C126     C        0.68280    0.67560    0.54080    1.000
    H78      H        0.70960    0.69330    0.56950    1.000
    C127     C        0.60900    0.62840    0.54080    1.000
    H79      H        0.58290    0.61180    0.57020    1.000
    C128     C        0.68500    0.62760    0.53870    1.000
    H80      H        0.71240    0.61100    0.56760    1.000
    Zn11     Zn       0.16429    0.15179    0.06278    1.000
    O37      O        0.31290    0.71770    0.60610    1.000
    O38      O        0.21620    0.76350    0.56280    1.000
    O39      O        0.27420    0.03293    0.93929    1.000
    O40      O        0.19210    0.08670    0.89310    1.000
    O41      O        0.05630    0.15420    0.04510    1.000
    C129     C        0.25960    0.79910    0.64420    1.000
    C130     C        0.20340    0.83990    0.64520    1.000
    H81      H        0.16720    0.84230    0.61690    1.000
    C131     C        0.19810    0.87880    0.68790    1.000
    H82      H        0.15580    0.90510    0.68870    1.000
    C132     C        0.25090    0.88000    0.72760    1.000
    C133     C        0.30840    0.83830    0.72620    1.000
    H83      H        0.34860    0.83850    0.75210    1.000
    C134     C        0.30770    0.79700    0.68810    1.000
    H84      H        0.34200    0.76520    0.69180    1.000
    C135     C        0.24410    0.92110    0.77180    1.000
    C136     C        0.28640    0.91520    0.81420    1.000
    H85      H        0.32230    0.88430    0.81580    1.000
    C137     C        0.28140    0.95300    0.85840    1.000
    H86      H        0.30920    0.94460    0.89000    1.000
    C138     C        0.23610    0.00180    0.85500    1.000
    C139     C        0.20130    0.01210    0.80790    1.000
    H87      H        0.17490    0.04730    0.80210    1.000
    C140     C        0.20420    0.97090    0.76780    1.000
    H88      H        0.17660    0.97830    0.73590    1.000
    C141     C        0.26250    0.75800    0.60150    1.000
    C142     C        0.23360    0.04310    0.89910    1.000
    C143     C        0.89360    0.17690    0.03890    1.000
    H89      H        0.92100    0.19540    0.06680    1.000
    C144     C        0.81720    0.17560    0.04080    1.000
    H90      H        0.79040    0.19330    0.06950    1.000
    C145     C        0.89100    0.12840    0.04080    1.000
    H91      H        0.91710    0.11180    0.07020    1.000
    C146     C        0.81500    0.12760    0.03870    1.000
    H92      H        0.78760    0.11100    0.06760    1.000
    Zn12     Zn       0.33571    0.65179    0.43722    1.000
    O42      O        0.18710    0.21770    0.89390    1.000
    O43      O        0.28380    0.26350    0.93720    1.000
    O44      O        0.22580    0.53293    0.56071    1.000
    O45      O        0.30790    0.58670    0.60690    1.000
    O46      O        0.44370    0.65420    0.45490    1.000
    C147     C        0.24040    0.29910    0.85580    1.000
    C148     C        0.29660    0.33990    0.85480    1.000
    H93      H        0.33280    0.34230    0.88310    1.000
    C149     C        0.30190    0.37880    0.81210    1.000
    H94      H        0.34420    0.40510    0.81130    1.000
    C150     C        0.24910    0.38000    0.77240    1.000
    C151     C        0.19160    0.33830    0.77380    1.000
    H95      H        0.15140    0.33850    0.74790    1.000
    C152     C        0.19230    0.29700    0.81190    1.000
    H96      H        0.15800    0.26520    0.80820    1.000
    C153     C        0.25590    0.42110    0.72820    1.000
    C154     C        0.21360    0.41520    0.68580    1.000
    H97      H        0.17770    0.38430    0.68420    1.000
    C155     C        0.21860    0.45300    0.64160    1.000
    H98      H        0.19080    0.44460    0.61000    1.000
    C156     C        0.26390    0.50180    0.64500    1.000
    C157     C        0.29870    0.51210    0.69210    1.000
    H99      H        0.32510    0.54730    0.69790    1.000
    C158     C        0.29580    0.47090    0.73220    1.000
    H100     H        0.32340    0.47830    0.76410    1.000
    C159     C        0.23750    0.25800    0.89850    1.000
    C160     C        0.26640    0.54310    0.60090    1.000
    C161     C        0.60640    0.67690    0.46110    1.000
    H101     H        0.57900    0.69540    0.43320    1.000
    C162     C        0.68280    0.67560    0.45920    1.000
    H102     H        0.70960    0.69330    0.43050    1.000
    C163     C        0.60900    0.62840    0.45920    1.000
    H103     H        0.58290    0.61180    0.42980    1.000
    C164     C        0.68500    0.62760    0.46130    1.000
    H104     H        0.71240    0.61100    0.43240    1.000
    Zn13     Zn       0.29192    0.08190    0.00000    1.000
    Zn14     Zn       0.29802    0.21798    0.00000    1.000
    O47      O        0.23050    0.15120    0.00000    1.000
    O48      O        0.40450    0.09440    0.00000    1.000
    O49      O        0.40410    0.19210    0.00000    1.000
    C165     C        0.02640    0.15660    0.00000    1.000
    C166     C        0.93450    0.15340    0.00000    1.000
    C167     C        0.77480    0.14780    0.00000    1.000
    C168     C        0.68820    0.14290    0.00000    1.000
    C169     C        0.64710    0.19130    0.00000    1.000
    H105     H        0.67390    0.22700    0.00000    1.000
    C170     C        0.56310    0.19110    0.00000    1.000
    H106     H        0.53550    0.22650    0.00000    1.000
    C171     C        0.52380    0.14200    0.00000    1.000
    C172     C        0.56770    0.09360    0.00000    1.000
    H107     H        0.54180    0.05760    0.00000    1.000
    C173     C        0.64830    0.09400    0.00000    1.000
    H108     H        0.67580    0.05860    0.00000    1.000
    C174     C        0.43850    0.14350    0.00000    1.000
    Zn15     Zn       0.20808    0.58190    0.50000    1.000
    Zn16     Zn       0.20198    0.71798    0.50000    1.000
    O50      O        0.26950    0.65120    0.50000    1.000
    O51      O        0.09550    0.59440    0.50000    1.000
    O52      O        0.09590    0.69210    0.50000    1.000
    C175     C        0.47360    0.65660    0.50000    1.000
    C176     C        0.56550    0.65340    0.50000    1.000
    C177     C        0.72520    0.64780    0.50000    1.000
    C178     C        0.81180    0.64290    0.50000    1.000
    C179     C        0.85290    0.69130    0.50000    1.000
    H109     H        0.82610    0.72700    0.50000    1.000
    C180     C        0.93690    0.69110    0.50000    1.000
    H110     H        0.96450    0.72650    0.50000    1.000
    C181     C        0.97620    0.64200    0.50000    1.000
    C182     C        0.93230    0.59360    0.50000    1.000
    H111     H        0.95820    0.55760    0.50000    1.000
    C183     C        0.85170    0.59400    0.50000    1.000
    H112     H        0.82420    0.55860    0.50000    1.000
    C184     C        0.06150    0.64350    0.50000    1.000
