data_functionalizedCrystal
_audit_creation_method	'EQeq! by Chris Wilmer'
_symmetry_space_group_name_H-M	'P1'
_symmetry_Int_Tables_number	1
_symmetry_cell_setting	triclinic
loop_
_symmetry_equiv_pos_as_xyz
  x,y,z
_cell_length_a	11.4799
_cell_length_b	11.4799
_cell_length_c	14.735
_cell_angle_alpha	90
_cell_angle_beta	90
_cell_angle_gamma	120
loop_
_atom_site_label
_atom_site_type_symbol
_atom_site_fract_x
_atom_site_fract_y
_atom_site_fract_z
_atom_site_charge
Mof_Mg	Mg	0.8062	0.19381	0.75	1.468
Mof_Mg	Mg	0.38761	0.19381	0.41667	1.468
Mof_Mg	Mg	0.8062	0.6124	0.08333	1.468
Mof_Mg	Mg	0.19381	0.8062	0.25	1.468
Mof_Mg	Mg	0.61239	0.80619	0.91667	1.468
Mof_Mg	Mg	0.19381	0.38761	0.58333	1.468
Mof_H 	H 	0.795	0.3625	0.9855	-0
Mof_H 	H 	0.5675	0.205	0.65217	-0
Mof_H 	H 	0.6375	0.4325	0.31883	-0
Mof_H 	H 	0.205	0.6375	0.4855	-0
Mof_H 	H 	0.4325	0.795	0.15217	-0
Mof_H 	H 	0.3625	0.5675	0.81883	-0
Mof_H 	H 	0.4325	0.6375	0.68117	-0
Mof_H 	H 	0.3625	0.795	0.0145	-0
Mof_H 	H 	0.205	0.5675	0.34783	-0
Mof_H 	H 	0.5675	0.3625	0.18117	-0
Mof_H 	H 	0.6375	0.205	0.5145	-0
Mof_H 	H 	0.795	0.4325	0.84783	-0
Mof_H 	H 	0.5065	0.013	0.08333	0.01
Mof_H 	H 	0.5065	0.4935	0.75	0.01
Mof_H 	H 	0.987	0.4935	0.41667	0.01
Mof_H 	H 	0.4935	0.987	0.58333	0.01
Mof_H 	H 	0.4935	0.5065	0.25	0.01
Mof_H 	H 	0.013	0.5065	0.91667	0.01
Mof_C 	C 	0.68189	0.1024	0.94584	0.477
Mof_C 	C 	0.65281	0.17632	0.0192	-0.203
Mof_C 	C 	0.72283	0.31519	0.02474	0.121
Mof_C 	C 	0.42051	0.31811	0.61251	0.476
Mof_C 	C 	0.52351	0.34719	0.68587	-0.203
Mof_C 	C 	0.59236	0.27717	0.69141	0.121
Mof_C 	C 	0.8976	0.57949	0.27917	0.476
Mof_C 	C 	0.82368	0.47649	0.35253	-0.203
Mof_C 	C 	0.68481	0.40764	0.35807	0.121
Mof_C 	C 	0.31811	0.8976	0.44584	0.476
Mof_C 	C 	0.34719	0.82368	0.5192	-0.203
Mof_C 	C 	0.27717	0.68481	0.52474	0.121
Mof_C 	C 	0.57949	0.68189	0.11251	0.476
Mof_C 	C 	0.47649	0.65281	0.18587	-0.203
Mof_C 	C 	0.40764	0.72283	0.19141	0.121
Mof_C 	C 	0.1024	0.42051	0.77917	0.477
Mof_C 	C 	0.17632	0.52351	0.85253	-0.203
Mof_C 	C 	0.31519	0.59236	0.85807	0.121
Mof_C 	C 	0.57949	0.8976	0.72083	0.476
Mof_C 	C 	0.47649	0.82368	0.64747	-0.203
Mof_C 	C 	0.40764	0.68481	0.64193	0.121
Mof_C 	C 	0.1024	0.68189	0.05416	0.477
Mof_C 	C 	0.17632	0.65281	0.9808	-0.203
Mof_C 	C 	0.31519	0.72283	0.97526	0.121
Mof_C 	C 	0.31811	0.42051	0.38749	0.476
Mof_C 	C 	0.34719	0.52351	0.31413	-0.203
Mof_C 	C 	0.27717	0.59236	0.30859	0.121
Mof_C 	C 	0.42051	0.1024	0.22083	0.477
Mof_C 	C 	0.52351	0.17632	0.14747	-0.203
Mof_C 	C 	0.59236	0.31519	0.14193	0.121
Mof_C 	C 	0.8976	0.31811	0.55416	0.476
Mof_C 	C 	0.82368	0.34719	0.4808	-0.203
Mof_C 	C 	0.68481	0.27717	0.47526	0.121
Mof_C 	C 	0.68189	0.57949	0.88749	0.476
Mof_C 	C 	0.65281	0.47649	0.81413	-0.203
Mof_C 	C 	0.72283	0.40764	0.80859	0.121
Mof_C 	C 	0.55332	0.10664	0.08333	0.133
Mof_C 	C 	0.55332	0.44668	0.75	0.133
Mof_C 	C 	0.89336	0.44668	0.41667	0.133
Mof_C 	C 	0.44668	0.89336	0.58333	0.133
Mof_C 	C 	0.44668	0.55332	0.25	0.133
Mof_C 	C 	0.10664	0.55332	0.91667	0.133
Mof_N 	N 	0.69287	0.38574	0.08333	-0.249
Mof_N 	N 	0.69287	0.30713	0.75	-0.249
Mof_N 	N 	0.61426	0.30713	0.41667	-0.249
Mof_N 	N 	0.30713	0.61426	0.58333	-0.249
Mof_N 	N 	0.30713	0.69287	0.25	-0.249
Mof_N 	N 	0.38574	0.69287	0.91667	-0.249
Mof_O 	O 	0.77269	0.17205	0.89006	-0.532
Mof_O 	O 	0.6111	0.9776	0.94688	-0.544
Mof_O 	O 	0.39936	0.22731	0.55673	-0.532
Mof_O 	O 	0.3665	0.3889	0.61355	-0.543
Mof_O 	O 	0.82795	0.60064	0.22339	-0.532
Mof_O 	O 	0.0224	0.6335	0.28021	-0.543
Mof_O 	O 	0.22731	0.82795	0.39006	-0.532
Mof_O 	O 	0.3889	0.0224	0.44688	-0.543
Mof_O 	O 	0.60064	0.77269	0.05673	-0.532
Mof_O 	O 	0.6335	0.6111	0.11355	-0.543
Mof_O 	O 	0.17205	0.39936	0.72339	-0.532
Mof_O 	O 	0.9776	0.3665	0.78021	-0.544
Mof_O 	O 	0.60064	0.82795	0.77661	-0.532
Mof_O 	O 	0.6335	0.0224	0.71979	-0.543
Mof_O 	O 	0.17205	0.77269	0.10994	-0.532
Mof_O 	O 	0.9776	0.6111	0.05312	-0.544
Mof_O 	O 	0.22731	0.39936	0.44327	-0.532
Mof_O 	O 	0.3889	0.3665	0.38645	-0.543
Mof_O 	O 	0.39936	0.17205	0.27661	-0.532
Mof_O 	O 	0.3665	0.9776	0.21979	-0.544
Mof_O 	O 	0.82795	0.22731	0.60994	-0.532
Mof_O 	O 	0.0224	0.3889	0.55312	-0.543
Mof_O 	O 	0.77269	0.60064	0.94327	-0.532
Mof_O 	O 	0.6111	0.6335	0.88645	-0.543
_end
