data_functionalizedCrystal
_audit_creation_method	'EQeq! by Chris Wilmer'
_symmetry_space_group_name_H-M	'P1'
_symmetry_Int_Tables_number	1
_symmetry_cell_setting	triclinic
loop_
_symmetry_equiv_pos_as_xyz
  x,y,z
_cell_length_a	31.0865
_cell_length_b	31.0865
_cell_length_c	44.596
_cell_angle_alpha	90
_cell_angle_beta	90
_cell_angle_gamma	90
loop_
_atom_site_label
_atom_site_type_symbol
_atom_site_fract_x
_atom_site_fract_y
_atom_site_fract_z
_atom_site_charge
Mof_C 	C 	0.3012	0.956	0.1441	0.318
Mof_C 	C 	0.3262	0.9826	0.1262	-0.352
Mof_H 	H 	0.3387	0.9719	0.1088	0.178
Mof_C 	C 	0.3324	0.0254	0.1342	0.295
Mof_C 	C 	0.3137	0.0415	0.1602	-0.346
Mof_H 	H 	0.3178	0.0701	0.1656	0.18
Mof_C 	C 	0.2886	0.0148	0.1781	0.305
Mof_C 	C 	0.2824	0.972	0.1701	-0.357
Mof_H 	H 	0.2657	0.9542	0.1821	0.182
Mof_O 	O 	0.3068	0.69	0.1447	-0.379
Mof_N 	N 	0.3029	0.8448	0.1204	-0.241
Mof_H 	H 	0.2792	0.8391	0.1295	0.135
Mof_C 	C 	0.1783	0.9935	0.3102	0.013
Mof_C 	C 	0.3641	0.7793	0.0668	-0.025
Mof_C 	C 	0.3196	0.8891	0.1221	0.291
Mof_O 	O 	0.3445	0.9	0.1012	-0.247
Mof_N 	N 	0.2933	0.9134	0.1376	-0.301
Mof_H 	H 	0.2698	0.9021	0.1441	0.151
Mof_Cu	Cu	0.36244	0.30144	0.16855	0.924
Mof_Cu	Cu	0.39676	0.35074	0.12684	0.925
Mof_O 	O 	0.3815	0.254	0.1421	-0.393
Mof_O 	O 	0.1526	0.1438	0.312	-0.388
Mof_O 	O 	0.5132	0.1608	0.0306	-0.409
Mof_O 	O 	0.1245	0.1013	0.3483	-0.383
Mof_O 	O 	0.4125	0.2964	0.1076	-0.395
Mof_C 	C 	0.4033	0.2622	0.1208	0.349
Mof_O 	O 	0.1519	0.9483	0.3471	-0.391
Mof_O 	O 	0.3462	0.6598	0.1069	-0.363
Mof_O 	O 	0.4107	0.7512	0.0313	-0.414
Mof_O 	O 	0.5023	0.2324	0.03	-0.396
Mof_C 	C 	0.1455	0.1095	0.326	0.325
Mof_O 	O 	0.1965	0.9199	0.3122	-0.376
Mof_O 	O 	0.3998	0.8204	0.0314	-0.427
Mof_C 	C 	0.3293	0.6903	0.122	0.309
Mof_C 	C 	0.1756	0.9494	0.3256	0.324
Mof_C 	C 	0.4968	0.1936	0.0395	0.344
Mof_O 	O 	0.3521	0.1157	0.1381	-0.245
Mof_C 	C 	0.4179	0.2216	0.1034	0.002
Mof_C 	C 	0.3945	0.7845	0.0407	0.392
Mof_C 	C 	0.1634	0.0694	0.3096	0.019
Mof_C 	C 	0.3342	0.7335	0.1064	-0.001
Mof_C 	C 	0.4638	0.1905	0.0635	-0.016
Mof_C 	C 	0.3476	0.8152	0.0799	-0.125
Mof_H 	H 	0.353	0.8423	0.0718	0.116
Mof_O 	O 	0.3349	0.259	0.2034	-0.397
Mof_H 	H 	0.342	0.2677	0.22	0.243
Mof_N 	N 	0.2655	0.0352	0.2022	-0.295
Mof_H 	H 	0.267	0.0628	0.2029	0.148
Mof_C 	C 	0.4462	0.2261	0.0784	-0.039
Mof_H 	H 	0.4531	0.2536	0.0717	0.081
Mof_C 	C 	0.1843	0.0744	0.2821	-0.156
Mof_H 	H 	0.1855	0.1013	0.273	0.105
Mof_O 	O 	0.2389	0.9779	0.2264	-0.263
Mof_C 	C 	0.448	0.1505	0.0725	-0.134
Mof_H 	H 	0.4589	0.1259	0.0633	0.093
Mof_C 	C 	0.3584	0.7384	0.0806	-0.036
Mof_H 	H 	0.3711	0.7143	0.0719	0.084
Mof_N 	N 	0.4032	0.104	0.0998	-0.254
Mof_H 	H 	0.415	0.0836	0.0897	0.133
Mof_C 	C 	0.3155	0.7698	0.118	-0.12
Mof_H 	H 	0.2976	0.7678	0.1346	0.097
Mof_C 	C 	0.1591	0.0298	0.3217	-0.065
Mof_H 	H 	0.142	0.0268	0.3387	0.095
Mof_N 	N 	0.2289	0.0461	0.2463	-0.281
Mof_H 	H 	0.239	0.0718	0.2453	0.144
Mof_C 	C 	0.2039	0.0382	0.2677	0.209
Mof_O 	O 	0.4251	0.3906	0.0911	-0.394
Mof_H 	H 	0.4476	0.3796	0.0854	0.248
Mof_C 	C 	0.3236	0.8111	0.1045	0.156
Mof_C 	C 	0.4034	0.1818	0.1094	-0.13
Mof_H 	H 	0.383	0.178	0.1245	0.123
Mof_C 	C 	0.1995	0.9977	0.2808	-0.155
Mof_H 	H 	0.21	0.9734	0.2711	0.13
Mof_C 	C 	0.2424	0.0166	0.2232	0.318
Mof_C 	C 	0.3716	0.0915	0.1202	0.287
Mof_C 	C 	0.4183	0.1459	0.0934	0.166
Mof_N 	N 	0.366	0.0478	0.1172	-0.276
Mof_H 	H 	0.3823	0.0336	0.1052	0.142
Mof_C 	C 	0.8012	0.456	0.6441	0.318
Mof_C 	C 	0.8262	0.4826	0.6262	-0.354
Mof_H 	H 	0.8387	0.4719	0.6088	0.177
Mof_C 	C 	0.8324	0.5254	0.6342	0.294
Mof_C 	C 	0.8137	0.5415	0.6602	-0.347
Mof_H 	H 	0.8178	0.5701	0.6656	0.179
Mof_C 	C 	0.7886	0.5148	0.6781	0.305
Mof_C 	C 	0.7824	0.472	0.6701	-0.358
Mof_H 	H 	0.7657	0.4542	0.6821	0.181
Mof_O 	O 	0.8068	0.19	0.6447	-0.38
Mof_N 	N 	0.8029	0.3448	0.6204	-0.242
Mof_H 	H 	0.7792	0.3391	0.6295	0.134
Mof_C 	C 	0.6783	0.4935	0.8102	0.012
Mof_C 	C 	0.8641	0.2793	0.5668	-0.026
Mof_C 	C 	0.8196	0.3891	0.6221	0.29
Mof_O 	O 	0.8445	0.4	0.6012	-0.248
Mof_N 	N 	0.7933	0.4134	0.6376	-0.302
Mof_H 	H 	0.7698	0.4021	0.6441	0.15
Mof_Cu	Cu	0.86244	0.80144	0.66855	0.923
Mof_Cu	Cu	0.89676	0.85074	0.62684	0.924
Mof_O 	O 	0.8815	0.754	0.6421	-0.394
Mof_O 	O 	0.6526	0.6438	0.812	-0.389
Mof_O 	O 	0.0132	0.6608	0.5306	-0.409
Mof_O 	O 	0.6245	0.6013	0.8483	-0.384
Mof_O 	O 	0.9125	0.7964	0.6076	-0.396
Mof_C 	C 	0.9033	0.7622	0.6208	0.348
Mof_O 	O 	0.6519	0.4483	0.8471	-0.391
Mof_O 	O 	0.8462	0.1598	0.6069	-0.364
Mof_O 	O 	0.9107	0.2512	0.5313	-0.414
Mof_O 	O 	0.0023	0.7324	0.53	-0.396
Mof_C 	C 	0.6455	0.6095	0.826	0.324
Mof_O 	O 	0.6965	0.4199	0.8122	-0.378
Mof_O 	O 	0.8998	0.3204	0.5314	-0.426
Mof_C 	C 	0.8293	0.1903	0.622	0.309
Mof_C 	C 	0.6756	0.4494	0.8256	0.324
Mof_C 	C 	0.9968	0.6936	0.5395	0.343
Mof_O 	O 	0.8521	0.6157	0.6381	-0.245
Mof_C 	C 	0.9179	0.7216	0.6034	0.002
Mof_C 	C 	0.8945	0.2845	0.5407	0.392
Mof_C 	C 	0.6634	0.5694	0.8096	0.019
Mof_C 	C 	0.8342	0.2335	0.6064	-0.001
Mof_C 	C 	0.9638	0.6905	0.5635	-0.015
Mof_C 	C 	0.8476	0.3152	0.5799	-0.125
Mof_H 	H 	0.853	0.3423	0.5718	0.117
Mof_O 	O 	0.8349	0.759	0.7034	-0.397
Mof_H 	H 	0.842	0.7677	0.72	0.243
Mof_N 	N 	0.7655	0.5352	0.7022	-0.295
Mof_H 	H 	0.767	0.5628	0.7029	0.148
Mof_C 	C 	0.9462	0.7261	0.5784	-0.039
Mof_H 	H 	0.9531	0.7536	0.5717	0.081
Mof_C 	C 	0.6843	0.5744	0.7821	-0.156
Mof_H 	H 	0.6855	0.6013	0.773	0.105
Mof_O 	O 	0.7389	0.4779	0.7264	-0.263
Mof_C 	C 	0.948	0.6505	0.5725	-0.135
Mof_H 	H 	0.9589	0.6259	0.5633	0.094
Mof_C 	C 	0.8584	0.2384	0.5806	-0.036
Mof_H 	H 	0.8711	0.2143	0.5719	0.084
Mof_N 	N 	0.9032	0.604	0.5998	-0.254
Mof_H 	H 	0.915	0.5836	0.5897	0.133
Mof_C 	C 	0.8155	0.2698	0.618	-0.12
Mof_H 	H 	0.7976	0.2678	0.6346	0.097
Mof_C 	C 	0.6591	0.5298	0.8217	-0.065
Mof_H 	H 	0.642	0.5268	0.8387	0.095
Mof_N 	N 	0.7289	0.5461	0.7463	-0.281
Mof_H 	H 	0.739	0.5718	0.7453	0.144
Mof_C 	C 	0.7039	0.5382	0.7677	0.209
Mof_O 	O 	0.9251	0.8906	0.5911	-0.393
Mof_H 	H 	0.9476	0.8796	0.5854	0.248
Mof_C 	C 	0.8236	0.3111	0.6045	0.157
Mof_C 	C 	0.9034	0.6818	0.6094	-0.13
Mof_H 	H 	0.883	0.678	0.6245	0.123
Mof_C 	C 	0.6995	0.4977	0.7808	-0.155
Mof_H 	H 	0.71	0.4734	0.7711	0.13
Mof_C 	C 	0.7424	0.5166	0.7232	0.318
Mof_C 	C 	0.8716	0.5915	0.6202	0.287
Mof_C 	C 	0.9183	0.6459	0.5934	0.167
Mof_N 	N 	0.866	0.5478	0.6172	-0.276
Mof_H 	H 	0.8823	0.5336	0.6052	0.142
Mof_C 	C 	0.6988	0.044	0.1441	0.317
Mof_C 	C 	0.6738	0.0174	0.1262	-0.353
Mof_H 	H 	0.6613	0.0281	0.1088	0.177
Mof_C 	C 	0.6676	0.9746	0.1342	0.294
Mof_C 	C 	0.6863	0.9585	0.1602	-0.347
Mof_H 	H 	0.6822	0.9299	0.1656	0.179
Mof_C 	C 	0.7114	0.9852	0.1781	0.304
Mof_C 	C 	0.7176	0.028	0.1701	-0.358
Mof_H 	H 	0.7343	0.0458	0.1821	0.181
Mof_O 	O 	0.6932	0.31	0.1447	-0.38
Mof_N 	N 	0.6971	0.1552	0.1204	-0.242
Mof_H 	H 	0.7208	0.1609	0.1295	0.134
Mof_C 	C 	0.8217	0.0065	0.3102	0.012
Mof_C 	C 	0.6359	0.2207	0.0668	-0.026
Mof_C 	C 	0.6804	0.1109	0.1221	0.29
Mof_O 	O 	0.6555	0.1	0.1012	-0.248
Mof_N 	N 	0.7067	0.0866	0.1376	-0.302
Mof_H 	H 	0.7302	0.0979	0.1441	0.15
Mof_Cu	Cu	0.63756	0.69856	0.16855	0.923
Mof_Cu	Cu	0.60324	0.64926	0.12684	0.924
Mof_O 	O 	0.6185	0.746	0.1421	-0.394
Mof_O 	O 	0.8474	0.8562	0.312	-0.389
Mof_O 	O 	0.4868	0.8392	0.0306	-0.41
Mof_O 	O 	0.8755	0.8987	0.3483	-0.384
Mof_O 	O 	0.5875	0.7036	0.1076	-0.396
Mof_C 	C 	0.5967	0.7378	0.1208	0.348
Mof_O 	O 	0.8481	0.0517	0.3471	-0.392
Mof_O 	O 	0.6538	0.3402	0.1069	-0.364
Mof_O 	O 	0.5893	0.2488	0.0313	-0.415
Mof_O 	O 	0.4977	0.7676	0.03	-0.397
Mof_C 	C 	0.8545	0.8905	0.326	0.324
Mof_O 	O 	0.8035	0.0801	0.3122	-0.377
Mof_O 	O 	0.6002	0.1796	0.0314	-0.427
Mof_C 	C 	0.6707	0.3097	0.122	0.309
Mof_C 	C 	0.8244	0.0506	0.3256	0.324
Mof_C 	C 	0.5032	0.8064	0.0395	0.344
Mof_O 	O 	0.6479	0.8843	0.1381	-0.245
Mof_C 	C 	0.5821	0.7784	0.1034	0.002
Mof_C 	C 	0.6055	0.2155	0.0407	0.392
Mof_C 	C 	0.8366	0.9306	0.3096	0.019
Mof_C 	C 	0.6658	0.2665	0.1064	-0.001
Mof_C 	C 	0.5362	0.8095	0.0635	-0.016
Mof_C 	C 	0.6524	0.1848	0.0799	-0.125
Mof_H 	H 	0.647	0.1577	0.0718	0.116
Mof_O 	O 	0.6651	0.741	0.2034	-0.397
Mof_H 	H 	0.658	0.7323	0.22	0.243
Mof_N 	N 	0.7345	0.9648	0.2022	-0.295
Mof_H 	H 	0.733	0.9372	0.2029	0.148
Mof_C 	C 	0.5538	0.7739	0.0784	-0.039
Mof_H 	H 	0.5469	0.7464	0.0717	0.081
Mof_C 	C 	0.8157	0.9256	0.2821	-0.156
Mof_H 	H 	0.8145	0.8987	0.273	0.105
Mof_O 	O 	0.7611	0.0221	0.2264	-0.263
Mof_C 	C 	0.552	0.8495	0.0725	-0.134
Mof_H 	H 	0.5411	0.8741	0.0633	0.093
Mof_C 	C 	0.6416	0.2616	0.0806	-0.036
Mof_H 	H 	0.6289	0.2857	0.0719	0.084
Mof_N 	N 	0.5968	0.896	0.0998	-0.254
Mof_H 	H 	0.585	0.9164	0.0897	0.133
Mof_C 	C 	0.6845	0.2302	0.118	-0.12
Mof_H 	H 	0.7024	0.2322	0.1346	0.097
Mof_C 	C 	0.8409	0.9702	0.3217	-0.065
Mof_H 	H 	0.858	0.9732	0.3387	0.095
Mof_N 	N 	0.7711	0.9539	0.2463	-0.281
Mof_H 	H 	0.761	0.9282	0.2453	0.144
Mof_C 	C 	0.7961	0.9618	0.2677	0.209
Mof_O 	O 	0.5749	0.6094	0.0911	-0.394
Mof_H 	H 	0.5524	0.6204	0.0854	0.248
Mof_C 	C 	0.6764	0.1889	0.1045	0.156
Mof_C 	C 	0.5966	0.8182	0.1094	-0.13
Mof_H 	H 	0.617	0.822	0.1245	0.123
Mof_C 	C 	0.8005	0.0023	0.2808	-0.155
Mof_H 	H 	0.79	0.0266	0.2711	0.13
Mof_C 	C 	0.7576	0.9834	0.2232	0.318
Mof_C 	C 	0.6284	0.9085	0.1202	0.287
Mof_C 	C 	0.5817	0.8541	0.0934	0.166
Mof_N 	N 	0.634	0.9522	0.1172	-0.276
Mof_H 	H 	0.6177	0.9664	0.1052	0.142
Mof_C 	C 	0.1988	0.544	0.6441	0.318
Mof_C 	C 	0.1738	0.5174	0.6262	-0.354
Mof_H 	H 	0.1613	0.5281	0.6088	0.177
Mof_C 	C 	0.1676	0.4746	0.6342	0.294
Mof_C 	C 	0.1863	0.4585	0.6602	-0.347
Mof_H 	H 	0.1822	0.4299	0.6656	0.179
Mof_C 	C 	0.2114	0.4852	0.6781	0.305
Mof_C 	C 	0.2176	0.528	0.6701	-0.358
Mof_H 	H 	0.2343	0.5458	0.6821	0.181
Mof_O 	O 	0.1932	0.81	0.6447	-0.38
Mof_N 	N 	0.1971	0.6552	0.6204	-0.242
Mof_H 	H 	0.2208	0.6609	0.6295	0.134
Mof_C 	C 	0.3217	0.5065	0.8102	0.012
Mof_C 	C 	0.1359	0.7207	0.5668	-0.026
Mof_C 	C 	0.1804	0.6109	0.6221	0.29
Mof_O 	O 	0.1555	0.6	0.6012	-0.248
Mof_N 	N 	0.2067	0.5866	0.6376	-0.302
Mof_H 	H 	0.2302	0.5979	0.6441	0.15
Mof_Cu	Cu	0.13756	0.19856	0.66855	0.923
Mof_Cu	Cu	0.10324	0.14926	0.62684	0.924
Mof_O 	O 	0.1185	0.246	0.6421	-0.394
Mof_O 	O 	0.3474	0.3562	0.812	-0.389
Mof_O 	O 	0.9868	0.3392	0.5306	-0.409
Mof_O 	O 	0.3755	0.3987	0.8483	-0.384
Mof_O 	O 	0.0875	0.2036	0.6076	-0.396
Mof_C 	C 	0.0967	0.2378	0.6208	0.348
Mof_O 	O 	0.3481	0.5517	0.8471	-0.391
Mof_O 	O 	0.1538	0.8402	0.6069	-0.364
Mof_O 	O 	0.0893	0.7488	0.5313	-0.414
Mof_O 	O 	0.9977	0.2676	0.53	-0.396
Mof_C 	C 	0.3545	0.3905	0.826	0.324
Mof_O 	O 	0.3035	0.5801	0.8122	-0.378
Mof_O 	O 	0.1002	0.6796	0.5314	-0.426
Mof_C 	C 	0.1707	0.8097	0.622	0.309
Mof_C 	C 	0.3244	0.5506	0.8256	0.324
Mof_C 	C 	0.0032	0.3064	0.5395	0.343
Mof_O 	O 	0.1479	0.3843	0.6381	-0.245
Mof_C 	C 	0.0821	0.2784	0.6034	0.002
Mof_C 	C 	0.1055	0.7155	0.5407	0.392
Mof_C 	C 	0.3366	0.4306	0.8096	0.019
Mof_C 	C 	0.1658	0.7665	0.6064	-0.001
Mof_C 	C 	0.0362	0.3095	0.5635	-0.015
Mof_C 	C 	0.1524	0.6848	0.5799	-0.125
Mof_H 	H 	0.147	0.6577	0.5718	0.117
Mof_O 	O 	0.1651	0.241	0.7034	-0.397
Mof_H 	H 	0.158	0.2323	0.72	0.243
Mof_N 	N 	0.2345	0.4648	0.7022	-0.295
Mof_H 	H 	0.233	0.4372	0.7029	0.148
Mof_C 	C 	0.0538	0.2739	0.5784	-0.039
Mof_H 	H 	0.0469	0.2464	0.5717	0.081
Mof_C 	C 	0.3157	0.4256	0.7821	-0.156
Mof_H 	H 	0.3145	0.3987	0.773	0.105
Mof_O 	O 	0.2611	0.5221	0.7264	-0.263
Mof_C 	C 	0.052	0.3495	0.5725	-0.135
Mof_H 	H 	0.0411	0.3741	0.5633	0.094
Mof_C 	C 	0.1416	0.7616	0.5806	-0.036
Mof_H 	H 	0.1289	0.7857	0.5719	0.084
Mof_N 	N 	0.0968	0.396	0.5998	-0.254
Mof_H 	H 	0.085	0.4164	0.5897	0.133
Mof_C 	C 	0.1845	0.7302	0.618	-0.12
Mof_H 	H 	0.2024	0.7322	0.6346	0.097
Mof_C 	C 	0.3409	0.4702	0.8217	-0.065
Mof_H 	H 	0.358	0.4732	0.8387	0.095
Mof_N 	N 	0.2711	0.4539	0.7463	-0.281
Mof_H 	H 	0.261	0.4282	0.7453	0.144
Mof_C 	C 	0.2961	0.4618	0.7677	0.209
Mof_O 	O 	0.0749	0.1094	0.5911	-0.393
Mof_H 	H 	0.0524	0.1204	0.5854	0.248
Mof_C 	C 	0.1764	0.6889	0.6045	0.157
Mof_C 	C 	0.0966	0.3182	0.6094	-0.13
Mof_H 	H 	0.117	0.322	0.6245	0.123
Mof_C 	C 	0.3005	0.5023	0.7808	-0.155
Mof_H 	H 	0.29	0.5266	0.7711	0.13
Mof_C 	C 	0.2576	0.4834	0.7232	0.318
Mof_C 	C 	0.1284	0.4085	0.6202	0.287
Mof_C 	C 	0.0817	0.3541	0.5934	0.167
Mof_N 	N 	0.134	0.4522	0.6172	-0.276
Mof_H 	H 	0.1177	0.4664	0.6052	0.142
Mof_C 	C 	0.044	0.3012	0.1441	0.317
Mof_C 	C 	0.0174	0.3262	0.1262	-0.353
Mof_H 	H 	0.0281	0.3387	0.1088	0.177
Mof_C 	C 	0.9746	0.3324	0.1342	0.294
Mof_C 	C 	0.9585	0.3137	0.1602	-0.347
Mof_H 	H 	0.9299	0.3178	0.1656	0.179
Mof_C 	C 	0.9852	0.2886	0.1781	0.304
Mof_C 	C 	0.028	0.2824	0.1701	-0.358
Mof_H 	H 	0.0458	0.2657	0.1821	0.181
Mof_O 	O 	0.31	0.3068	0.1447	-0.38
Mof_N 	N 	0.1552	0.3029	0.1204	-0.242
Mof_H 	H 	0.1609	0.2792	0.1295	0.134
Mof_C 	C 	0.0065	0.1783	0.3102	0.012
Mof_C 	C 	0.2207	0.3641	0.0668	-0.026
Mof_C 	C 	0.1109	0.3196	0.1221	0.29
Mof_O 	O 	0.1	0.3445	0.1012	-0.248
Mof_N 	N 	0.0866	0.2933	0.1376	-0.302
Mof_H 	H 	0.0979	0.2698	0.1441	0.15
Mof_Cu	Cu	0.69856	0.36244	0.16855	0.923
Mof_Cu	Cu	0.64926	0.39676	0.12684	0.924
Mof_O 	O 	0.746	0.3815	0.1421	-0.394
Mof_O 	O 	0.8562	0.1526	0.312	-0.389
Mof_O 	O 	0.8392	0.5132	0.0306	-0.41
Mof_O 	O 	0.8987	0.1245	0.3483	-0.384
Mof_O 	O 	0.7036	0.4125	0.1076	-0.396
Mof_C 	C 	0.7378	0.4033	0.1208	0.348
Mof_O 	O 	0.0517	0.1519	0.3471	-0.392
Mof_O 	O 	0.3402	0.3462	0.1069	-0.364
Mof_O 	O 	0.2488	0.4107	0.0313	-0.415
Mof_O 	O 	0.7676	0.5023	0.03	-0.397
Mof_C 	C 	0.8905	0.1455	0.326	0.324
Mof_O 	O 	0.0801	0.1965	0.3122	-0.377
Mof_O 	O 	0.1796	0.3998	0.0314	-0.427
Mof_C 	C 	0.3097	0.3293	0.122	0.309
Mof_C 	C 	0.0506	0.1756	0.3256	0.324
Mof_C 	C 	0.8064	0.4968	0.0395	0.344
Mof_O 	O 	0.8843	0.3521	0.1381	-0.245
Mof_C 	C 	0.7784	0.4179	0.1034	0.002
Mof_C 	C 	0.2155	0.3945	0.0407	0.392
Mof_C 	C 	0.9306	0.1634	0.3096	0.019
Mof_C 	C 	0.2665	0.3342	0.1064	-0.001
Mof_C 	C 	0.8095	0.4638	0.0635	-0.016
Mof_C 	C 	0.1848	0.3476	0.0799	-0.125
Mof_H 	H 	0.1577	0.353	0.0718	0.116
Mof_O 	O 	0.741	0.3349	0.2034	-0.397
Mof_H 	H 	0.7323	0.342	0.22	0.243
Mof_N 	N 	0.9648	0.2655	0.2022	-0.295
Mof_H 	H 	0.9372	0.267	0.2029	0.148
Mof_C 	C 	0.7739	0.4462	0.0784	-0.039
Mof_H 	H 	0.7464	0.4531	0.0717	0.081
Mof_C 	C 	0.9256	0.1843	0.2821	-0.156
Mof_H 	H 	0.8987	0.1855	0.273	0.105
Mof_O 	O 	0.0221	0.2389	0.2264	-0.263
Mof_C 	C 	0.8495	0.448	0.0725	-0.134
Mof_H 	H 	0.8741	0.4589	0.0633	0.093
Mof_C 	C 	0.2616	0.3584	0.0806	-0.036
Mof_H 	H 	0.2857	0.3711	0.0719	0.084
Mof_N 	N 	0.896	0.4032	0.0998	-0.254
Mof_H 	H 	0.9164	0.415	0.0897	0.133
Mof_C 	C 	0.2302	0.3155	0.118	-0.12
Mof_H 	H 	0.2322	0.2976	0.1346	0.097
Mof_C 	C 	0.9702	0.1591	0.3217	-0.065
Mof_H 	H 	0.9732	0.142	0.3387	0.095
Mof_N 	N 	0.9539	0.2289	0.2463	-0.281
Mof_H 	H 	0.9282	0.239	0.2453	0.144
Mof_C 	C 	0.9618	0.2039	0.2677	0.209
Mof_O 	O 	0.6094	0.4251	0.0911	-0.394
Mof_H 	H 	0.6204	0.4476	0.0854	0.248
Mof_C 	C 	0.1889	0.3236	0.1045	0.156
Mof_C 	C 	0.8182	0.4034	0.1094	-0.13
Mof_H 	H 	0.822	0.383	0.1245	0.123
Mof_C 	C 	0.0023	0.1995	0.2808	-0.155
Mof_H 	H 	0.0266	0.21	0.2711	0.13
Mof_C 	C 	0.9834	0.2424	0.2232	0.318
Mof_C 	C 	0.9085	0.3716	0.1202	0.287
Mof_C 	C 	0.8541	0.4183	0.0934	0.166
Mof_N 	N 	0.9522	0.366	0.1172	-0.276
Mof_H 	H 	0.9664	0.3823	0.1052	0.142
Mof_C 	C 	0.544	0.8012	0.6441	0.318
Mof_C 	C 	0.5174	0.8262	0.6262	-0.354
Mof_H 	H 	0.5281	0.8387	0.6088	0.177
Mof_C 	C 	0.4746	0.8324	0.6342	0.294
Mof_C 	C 	0.4585	0.8137	0.6602	-0.347
Mof_H 	H 	0.4299	0.8178	0.6656	0.179
Mof_C 	C 	0.4852	0.7886	0.6781	0.305
Mof_C 	C 	0.528	0.7824	0.6701	-0.358
Mof_H 	H 	0.5458	0.7657	0.6821	0.181
Mof_O 	O 	0.81	0.8068	0.6447	-0.38
Mof_N 	N 	0.6552	0.8029	0.6204	-0.242
Mof_H 	H 	0.6609	0.7792	0.6295	0.134
Mof_C 	C 	0.5065	0.6783	0.8102	0.012
Mof_C 	C 	0.7207	0.8641	0.5668	-0.026
Mof_C 	C 	0.6109	0.8196	0.6221	0.29
Mof_O 	O 	0.6	0.8445	0.6012	-0.248
Mof_N 	N 	0.5866	0.7933	0.6376	-0.302
Mof_H 	H 	0.5979	0.7698	0.6441	0.15
Mof_Cu	Cu	0.19856	0.86244	0.66855	0.923
Mof_Cu	Cu	0.14926	0.89676	0.62684	0.924
Mof_O 	O 	0.246	0.8815	0.6421	-0.394
Mof_O 	O 	0.3562	0.6526	0.812	-0.389
Mof_O 	O 	0.3392	0.0132	0.5306	-0.409
Mof_O 	O 	0.3987	0.6245	0.8483	-0.384
Mof_O 	O 	0.2036	0.9125	0.6076	-0.396
Mof_C 	C 	0.2378	0.9033	0.6208	0.348
Mof_O 	O 	0.5517	0.6519	0.8471	-0.391
Mof_O 	O 	0.8402	0.8462	0.6069	-0.364
Mof_O 	O 	0.7488	0.9107	0.5313	-0.414
Mof_O 	O 	0.2676	0.0023	0.53	-0.396
Mof_C 	C 	0.3905	0.6455	0.826	0.324
Mof_O 	O 	0.5801	0.6965	0.8122	-0.378
Mof_O 	O 	0.6796	0.8998	0.5314	-0.426
Mof_C 	C 	0.8097	0.8293	0.622	0.309
Mof_C 	C 	0.5506	0.6756	0.8256	0.324
Mof_C 	C 	0.3064	0.9968	0.5395	0.343
Mof_O 	O 	0.3843	0.8521	0.6381	-0.245
Mof_C 	C 	0.2784	0.9179	0.6034	0.002
Mof_C 	C 	0.7155	0.8945	0.5407	0.392
Mof_C 	C 	0.4306	0.6634	0.8096	0.019
Mof_C 	C 	0.7665	0.8342	0.6064	-0.001
Mof_C 	C 	0.3095	0.9638	0.5635	-0.015
Mof_C 	C 	0.6848	0.8476	0.5799	-0.125
Mof_H 	H 	0.6577	0.853	0.5718	0.117
Mof_O 	O 	0.241	0.8349	0.7034	-0.397
Mof_H 	H 	0.2323	0.842	0.72	0.243
Mof_N 	N 	0.4648	0.7655	0.7022	-0.295
Mof_H 	H 	0.4372	0.767	0.7029	0.148
Mof_C 	C 	0.2739	0.9462	0.5784	-0.039
Mof_H 	H 	0.2464	0.9531	0.5717	0.081
Mof_C 	C 	0.4256	0.6843	0.7821	-0.156
Mof_H 	H 	0.3987	0.6855	0.773	0.105
Mof_O 	O 	0.5221	0.7389	0.7264	-0.263
Mof_C 	C 	0.3495	0.948	0.5725	-0.135
Mof_H 	H 	0.3741	0.9589	0.5633	0.094
Mof_C 	C 	0.7616	0.8584	0.5806	-0.036
Mof_H 	H 	0.7857	0.8711	0.5719	0.084
Mof_N 	N 	0.396	0.9032	0.5998	-0.254
Mof_H 	H 	0.4164	0.915	0.5897	0.133
Mof_C 	C 	0.7302	0.8155	0.618	-0.12
Mof_H 	H 	0.7322	0.7976	0.6346	0.097
Mof_C 	C 	0.4702	0.6591	0.8217	-0.065
Mof_H 	H 	0.4732	0.642	0.8387	0.095
Mof_N 	N 	0.4539	0.7289	0.7463	-0.281
Mof_H 	H 	0.4282	0.739	0.7453	0.144
Mof_C 	C 	0.4618	0.7039	0.7677	0.209
Mof_O 	O 	0.1094	0.9251	0.5911	-0.393
Mof_H 	H 	0.1204	0.9476	0.5854	0.248
Mof_C 	C 	0.6889	0.8236	0.6045	0.157
Mof_C 	C 	0.3182	0.9034	0.6094	-0.13
Mof_H 	H 	0.322	0.883	0.6245	0.123
Mof_C 	C 	0.5023	0.6995	0.7808	-0.155
Mof_H 	H 	0.5266	0.71	0.7711	0.13
Mof_C 	C 	0.4834	0.7424	0.7232	0.318
Mof_C 	C 	0.4085	0.8716	0.6202	0.287
Mof_C 	C 	0.3541	0.9183	0.5934	0.167
Mof_N 	N 	0.4522	0.866	0.6172	-0.276
Mof_H 	H 	0.4664	0.8823	0.6052	0.142
Mof_C 	C 	0.956	0.6988	0.1441	0.317
Mof_C 	C 	0.9826	0.6738	0.1262	-0.353
Mof_H 	H 	0.9719	0.6613	0.1088	0.177
Mof_C 	C 	0.0254	0.6676	0.1342	0.294
Mof_C 	C 	0.0415	0.6863	0.1602	-0.347
Mof_H 	H 	0.0701	0.6822	0.1656	0.179
Mof_C 	C 	0.0148	0.7114	0.1781	0.304
Mof_C 	C 	0.972	0.7176	0.1701	-0.358
Mof_H 	H 	0.9542	0.7343	0.1821	0.181
Mof_O 	O 	0.69	0.6932	0.1447	-0.38
Mof_N 	N 	0.8448	0.6971	0.1204	-0.242
Mof_H 	H 	0.8391	0.7208	0.1295	0.134
Mof_C 	C 	0.9935	0.8217	0.3102	0.012
Mof_C 	C 	0.7793	0.6359	0.0668	-0.026
Mof_C 	C 	0.8891	0.6804	0.1221	0.29
Mof_O 	O 	0.9	0.6555	0.1012	-0.248
Mof_N 	N 	0.9134	0.7067	0.1376	-0.302
Mof_H 	H 	0.9021	0.7302	0.1441	0.15
Mof_Cu	Cu	0.30144	0.63756	0.16855	0.923
Mof_Cu	Cu	0.35074	0.60324	0.12684	0.924
Mof_O 	O 	0.254	0.6185	0.1421	-0.394
Mof_O 	O 	0.1438	0.8474	0.312	-0.389
Mof_O 	O 	0.1608	0.4868	0.0306	-0.41
Mof_O 	O 	0.1013	0.8755	0.3483	-0.384
Mof_O 	O 	0.2964	0.5875	0.1076	-0.396
Mof_C 	C 	0.2622	0.5967	0.1208	0.348
Mof_O 	O 	0.9483	0.8481	0.3471	-0.392
Mof_O 	O 	0.6598	0.6538	0.1069	-0.364
Mof_O 	O 	0.7512	0.5893	0.0313	-0.415
Mof_O 	O 	0.2324	0.4977	0.03	-0.397
Mof_C 	C 	0.1095	0.8545	0.326	0.324
Mof_O 	O 	0.9199	0.8035	0.3122	-0.377
Mof_O 	O 	0.8204	0.6002	0.0314	-0.427
Mof_C 	C 	0.6903	0.6707	0.122	0.309
Mof_C 	C 	0.9494	0.8244	0.3256	0.324
Mof_C 	C 	0.1936	0.5032	0.0395	0.344
Mof_O 	O 	0.1157	0.6479	0.1381	-0.245
Mof_C 	C 	0.2216	0.5821	0.1034	0.002
Mof_C 	C 	0.7845	0.6055	0.0407	0.392
Mof_C 	C 	0.0694	0.8366	0.3096	0.019
Mof_C 	C 	0.7335	0.6658	0.1064	-0.001
Mof_C 	C 	0.1905	0.5362	0.0635	-0.016
Mof_C 	C 	0.8152	0.6524	0.0799	-0.125
Mof_H 	H 	0.8423	0.647	0.0718	0.116
Mof_O 	O 	0.259	0.6651	0.2034	-0.397
Mof_H 	H 	0.2677	0.658	0.22	0.243
Mof_N 	N 	0.0352	0.7345	0.2022	-0.295
Mof_H 	H 	0.0628	0.733	0.2029	0.148
Mof_C 	C 	0.2261	0.5538	0.0784	-0.039
Mof_H 	H 	0.2536	0.5469	0.0717	0.081
Mof_C 	C 	0.0744	0.8157	0.2821	-0.156
Mof_H 	H 	0.1013	0.8145	0.273	0.105
Mof_O 	O 	0.9779	0.7611	0.2264	-0.263
Mof_C 	C 	0.1505	0.552	0.0725	-0.134
Mof_H 	H 	0.1259	0.5411	0.0633	0.093
Mof_C 	C 	0.7384	0.6416	0.0806	-0.036
Mof_H 	H 	0.7143	0.6289	0.0719	0.084
Mof_N 	N 	0.104	0.5968	0.0998	-0.254
Mof_H 	H 	0.0836	0.585	0.0897	0.133
Mof_C 	C 	0.7698	0.6845	0.118	-0.12
Mof_H 	H 	0.7678	0.7024	0.1346	0.097
Mof_C 	C 	0.0298	0.8409	0.3217	-0.065
Mof_H 	H 	0.0268	0.858	0.3387	0.095
Mof_N 	N 	0.0461	0.7711	0.2463	-0.281
Mof_H 	H 	0.0718	0.761	0.2453	0.144
Mof_C 	C 	0.0382	0.7961	0.2677	0.209
Mof_O 	O 	0.3906	0.5749	0.0911	-0.394
Mof_H 	H 	0.3796	0.5524	0.0854	0.248
Mof_C 	C 	0.8111	0.6764	0.1045	0.156
Mof_C 	C 	0.1818	0.5966	0.1094	-0.13
Mof_H 	H 	0.178	0.617	0.1245	0.123
Mof_C 	C 	0.9977	0.8005	0.2808	-0.155
Mof_H 	H 	0.9734	0.79	0.2711	0.13
Mof_C 	C 	0.0166	0.7576	0.2232	0.318
Mof_C 	C 	0.0915	0.6284	0.1202	0.287
Mof_C 	C 	0.1459	0.5817	0.0934	0.166
Mof_N 	N 	0.0478	0.634	0.1172	-0.276
Mof_H 	H 	0.0336	0.6177	0.1052	0.142
Mof_C 	C 	0.456	0.1988	0.6441	0.318
Mof_C 	C 	0.4826	0.1738	0.6262	-0.354
Mof_H 	H 	0.4719	0.1613	0.6088	0.177
Mof_C 	C 	0.5254	0.1676	0.6342	0.294
Mof_C 	C 	0.5415	0.1863	0.6602	-0.347
Mof_H 	H 	0.5701	0.1822	0.6656	0.179
Mof_C 	C 	0.5148	0.2114	0.6781	0.305
Mof_C 	C 	0.472	0.2176	0.6701	-0.358
Mof_H 	H 	0.4542	0.2343	0.6821	0.181
Mof_O 	O 	0.19	0.1932	0.6447	-0.38
Mof_N 	N 	0.3448	0.1971	0.6204	-0.242
Mof_H 	H 	0.3391	0.2208	0.6295	0.134
Mof_C 	C 	0.4935	0.3217	0.8102	0.012
Mof_C 	C 	0.2793	0.1359	0.5668	-0.026
Mof_C 	C 	0.3891	0.1804	0.6221	0.29
Mof_O 	O 	0.4	0.1555	0.6012	-0.248
Mof_N 	N 	0.4134	0.2067	0.6376	-0.302
Mof_H 	H 	0.4021	0.2302	0.6441	0.15
Mof_Cu	Cu	0.80144	0.13756	0.66855	0.923
Mof_Cu	Cu	0.85074	0.10324	0.62684	0.924
Mof_O 	O 	0.754	0.1185	0.6421	-0.394
Mof_O 	O 	0.6438	0.3474	0.812	-0.389
Mof_O 	O 	0.6608	0.9868	0.5306	-0.409
Mof_O 	O 	0.6013	0.3755	0.8483	-0.384
Mof_O 	O 	0.7964	0.0875	0.6076	-0.396
Mof_C 	C 	0.7622	0.0967	0.6208	0.348
Mof_O 	O 	0.4483	0.3481	0.8471	-0.391
Mof_O 	O 	0.1598	0.1538	0.6069	-0.364
Mof_O 	O 	0.2512	0.0893	0.5313	-0.414
Mof_O 	O 	0.7324	0.9977	0.53	-0.396
Mof_C 	C 	0.6095	0.3545	0.826	0.324
Mof_O 	O 	0.4199	0.3035	0.8122	-0.378
Mof_O 	O 	0.3204	0.1002	0.5314	-0.426
Mof_C 	C 	0.1903	0.1707	0.622	0.309
Mof_C 	C 	0.4494	0.3244	0.8256	0.324
Mof_C 	C 	0.6936	0.0032	0.5395	0.343
Mof_O 	O 	0.6157	0.1479	0.6381	-0.245
Mof_C 	C 	0.7216	0.0821	0.6034	0.002
Mof_C 	C 	0.2845	0.1055	0.5407	0.392
Mof_C 	C 	0.5694	0.3366	0.8096	0.019
Mof_C 	C 	0.2335	0.1658	0.6064	-0.001
Mof_C 	C 	0.6905	0.0362	0.5635	-0.015
Mof_C 	C 	0.3152	0.1524	0.5799	-0.125
Mof_H 	H 	0.3423	0.147	0.5718	0.117
Mof_O 	O 	0.759	0.1651	0.7034	-0.397
Mof_H 	H 	0.7677	0.158	0.72	0.243
Mof_N 	N 	0.5352	0.2345	0.7022	-0.295
Mof_H 	H 	0.5628	0.233	0.7029	0.148
Mof_C 	C 	0.7261	0.0538	0.5784	-0.039
Mof_H 	H 	0.7536	0.0469	0.5717	0.081
Mof_C 	C 	0.5744	0.3157	0.7821	-0.156
Mof_H 	H 	0.6013	0.3145	0.773	0.105
Mof_O 	O 	0.4779	0.2611	0.7264	-0.263
Mof_C 	C 	0.6505	0.052	0.5725	-0.135
Mof_H 	H 	0.6259	0.0411	0.5633	0.094
Mof_C 	C 	0.2384	0.1416	0.5806	-0.036
Mof_H 	H 	0.2143	0.1289	0.5719	0.084
Mof_N 	N 	0.604	0.0968	0.5998	-0.254
Mof_H 	H 	0.5836	0.085	0.5897	0.133
Mof_C 	C 	0.2698	0.1845	0.618	-0.12
Mof_H 	H 	0.2678	0.2024	0.6346	0.097
Mof_C 	C 	0.5298	0.3409	0.8217	-0.065
Mof_H 	H 	0.5268	0.358	0.8387	0.095
Mof_N 	N 	0.5461	0.2711	0.7463	-0.281
Mof_H 	H 	0.5718	0.261	0.7453	0.144
Mof_C 	C 	0.5382	0.2961	0.7677	0.209
Mof_O 	O 	0.8906	0.0749	0.5911	-0.393
Mof_H 	H 	0.8796	0.0524	0.5854	0.248
Mof_C 	C 	0.3111	0.1764	0.6045	0.157
Mof_C 	C 	0.6818	0.0966	0.6094	-0.13
Mof_H 	H 	0.678	0.117	0.6245	0.123
Mof_C 	C 	0.4977	0.3005	0.7808	-0.155
Mof_H 	H 	0.4734	0.29	0.7711	0.13
Mof_C 	C 	0.5166	0.2576	0.7232	0.318
Mof_C 	C 	0.5915	0.1284	0.6202	0.287
Mof_C 	C 	0.6459	0.0817	0.5934	0.167
Mof_N 	N 	0.5478	0.134	0.6172	-0.276
Mof_H 	H 	0.5336	0.1177	0.6052	0.142
Mof_C 	C 	0.6988	0.044	0.8559	0.318
Mof_C 	C 	0.6738	0.0174	0.8738	-0.354
Mof_H 	H 	0.6613	0.0281	0.8912	0.177
Mof_C 	C 	0.6676	0.9746	0.8658	0.294
Mof_C 	C 	0.6863	0.9585	0.8398	-0.347
Mof_H 	H 	0.6822	0.9299	0.8344	0.179
Mof_C 	C 	0.7114	0.9852	0.8219	0.305
Mof_C 	C 	0.7176	0.028	0.8299	-0.358
Mof_H 	H 	0.7343	0.0458	0.8179	0.181
Mof_O 	O 	0.6932	0.31	0.8553	-0.38
Mof_N 	N 	0.6971	0.1552	0.8796	-0.243
Mof_H 	H 	0.7208	0.1609	0.8705	0.134
Mof_C 	C 	0.8217	0.0065	0.6898	0.012
Mof_C 	C 	0.6359	0.2207	0.9332	-0.025
Mof_C 	C 	0.6804	0.1109	0.8779	0.29
Mof_O 	O 	0.6555	0.1	0.8988	-0.248
Mof_N 	N 	0.7067	0.0866	0.8624	-0.302
Mof_H 	H 	0.7302	0.0979	0.8559	0.15
Mof_Cu	Cu	0.63756	0.69856	0.83145	0.923
Mof_Cu	Cu	0.60324	0.64926	0.87316	0.924
Mof_O 	O 	0.6185	0.746	0.8579	-0.394
Mof_O 	O 	0.8474	0.8562	0.688	-0.389
Mof_O 	O 	0.4868	0.8392	0.9694	-0.407
Mof_O 	O 	0.8755	0.8987	0.6517	-0.384
Mof_O 	O 	0.5875	0.7036	0.8924	-0.396
Mof_C 	C 	0.5967	0.7378	0.8792	0.347
Mof_O 	O 	0.8481	0.0517	0.6529	-0.392
Mof_O 	O 	0.6538	0.3402	0.8931	-0.364
Mof_O 	O 	0.5893	0.2488	0.9687	-0.411
Mof_O 	O 	0.4977	0.7676	0.97	-0.394
Mof_C 	C 	0.8545	0.8905	0.674	0.324
Mof_O 	O 	0.8035	0.0801	0.6878	-0.377
Mof_O 	O 	0.6002	0.1796	0.9686	-0.424
Mof_C 	C 	0.6707	0.3097	0.878	0.309
Mof_C 	C 	0.8244	0.0506	0.6744	0.324
Mof_C 	C 	0.5032	0.8064	0.9605	0.343
Mof_O 	O 	0.6479	0.8843	0.8619	-0.245
Mof_C 	C 	0.5821	0.7784	0.8966	0.003
Mof_C 	C 	0.6055	0.2155	0.9593	0.391
Mof_C 	C 	0.8366	0.9306	0.6904	0.019
Mof_C 	C 	0.6658	0.2665	0.8936	-0
Mof_C 	C 	0.5362	0.8095	0.9365	-0.014
Mof_C 	C 	0.6524	0.1848	0.9201	-0.126
Mof_H 	H 	0.647	0.1577	0.9282	0.117
Mof_O 	O 	0.6651	0.741	0.7966	-0.397
Mof_H 	H 	0.658	0.7323	0.78	0.243
Mof_N 	N 	0.7345	0.9648	0.7978	-0.295
Mof_H 	H 	0.733	0.9372	0.7971	0.148
Mof_C 	C 	0.5538	0.7739	0.9216	-0.04
Mof_H 	H 	0.5469	0.7464	0.9283	0.081
Mof_C 	C 	0.8157	0.9256	0.7179	-0.156
Mof_H 	H 	0.8145	0.8987	0.727	0.105
Mof_O 	O 	0.7611	0.0221	0.7736	-0.263
Mof_C 	C 	0.552	0.8495	0.9275	-0.135
Mof_H 	H 	0.5411	0.8741	0.9367	0.094
Mof_C 	C 	0.6416	0.2616	0.9194	-0.036
Mof_H 	H 	0.6289	0.2857	0.9281	0.085
Mof_N 	N 	0.5968	0.896	0.9002	-0.254
Mof_H 	H 	0.585	0.9164	0.9103	0.134
Mof_C 	C 	0.6845	0.2302	0.882	-0.121
Mof_H 	H 	0.7024	0.2322	0.8654	0.097
Mof_C 	C 	0.8409	0.9702	0.6783	-0.065
Mof_H 	H 	0.858	0.9732	0.6613	0.095
Mof_N 	N 	0.7711	0.9539	0.7537	-0.281
Mof_H 	H 	0.761	0.9282	0.7547	0.144
Mof_C 	C 	0.7961	0.9618	0.7323	0.209
Mof_O 	O 	0.5749	0.6094	0.9089	-0.393
Mof_H 	H 	0.5524	0.6204	0.9146	0.248
Mof_C 	C 	0.6764	0.1889	0.8955	0.157
Mof_C 	C 	0.5966	0.8182	0.8906	-0.13
Mof_H 	H 	0.617	0.822	0.8755	0.123
Mof_C 	C 	0.8005	0.0023	0.7192	-0.155
Mof_H 	H 	0.79	0.0266	0.7289	0.13
Mof_C 	C 	0.7576	0.9834	0.7768	0.318
Mof_C 	C 	0.6284	0.9085	0.8798	0.287
Mof_C 	C 	0.5817	0.8541	0.9066	0.167
Mof_N 	N 	0.634	0.9522	0.8828	-0.276
Mof_H 	H 	0.6177	0.9664	0.8948	0.142
Mof_C 	C 	0.1988	0.544	0.3559	0.318
Mof_C 	C 	0.1738	0.5174	0.3738	-0.354
Mof_H 	H 	0.1613	0.5281	0.3912	0.177
Mof_C 	C 	0.1676	0.4746	0.3658	0.294
Mof_C 	C 	0.1863	0.4585	0.3398	-0.347
Mof_H 	H 	0.1822	0.4299	0.3344	0.179
Mof_C 	C 	0.2114	0.4852	0.3219	0.305
Mof_C 	C 	0.2176	0.528	0.3299	-0.358
Mof_H 	H 	0.2343	0.5458	0.3179	0.181
Mof_O 	O 	0.1932	0.81	0.3553	-0.38
Mof_N 	N 	0.1971	0.6552	0.3796	-0.242
Mof_H 	H 	0.2208	0.6609	0.3705	0.134
Mof_C 	C 	0.3217	0.5065	0.1898	0.012
Mof_C 	C 	0.1359	0.7207	0.4332	-0.026
Mof_C 	C 	0.1804	0.6109	0.3779	0.29
Mof_O 	O 	0.1555	0.6	0.3988	-0.248
Mof_N 	N 	0.2067	0.5866	0.3624	-0.302
Mof_H 	H 	0.2302	0.5979	0.3559	0.15
Mof_Cu	Cu	0.13756	0.19856	0.33145	0.923
Mof_Cu	Cu	0.10324	0.14926	0.37316	0.924
Mof_O 	O 	0.1185	0.246	0.3579	-0.394
Mof_O 	O 	0.3474	0.3562	0.188	-0.389
Mof_O 	O 	0.9868	0.3392	0.4694	-0.409
Mof_O 	O 	0.3755	0.3987	0.1517	-0.384
Mof_O 	O 	0.0875	0.2036	0.3924	-0.396
Mof_C 	C 	0.0967	0.2378	0.3792	0.348
Mof_O 	O 	0.3481	0.5517	0.1529	-0.392
Mof_O 	O 	0.1538	0.8402	0.3931	-0.364
Mof_O 	O 	0.0893	0.7488	0.4687	-0.414
Mof_O 	O 	0.9977	0.2676	0.47	-0.396
Mof_C 	C 	0.3545	0.3905	0.174	0.324
Mof_O 	O 	0.3035	0.5801	0.1878	-0.377
Mof_O 	O 	0.1002	0.6796	0.4686	-0.426
Mof_C 	C 	0.1707	0.8097	0.378	0.309
Mof_C 	C 	0.3244	0.5506	0.1744	0.324
Mof_C 	C 	0.0032	0.3064	0.4605	0.343
Mof_O 	O 	0.1479	0.3843	0.3619	-0.245
Mof_C 	C 	0.0821	0.2784	0.3966	0.002
Mof_C 	C 	0.1055	0.7155	0.4593	0.392
Mof_C 	C 	0.3366	0.4306	0.1904	0.019
Mof_C 	C 	0.1658	0.7665	0.3936	-0.001
Mof_C 	C 	0.0362	0.3095	0.4365	-0.015
Mof_C 	C 	0.1524	0.6848	0.4201	-0.125
Mof_H 	H 	0.147	0.6577	0.4282	0.117
Mof_O 	O 	0.1651	0.241	0.2966	-0.397
Mof_H 	H 	0.158	0.2323	0.28	0.243
Mof_N 	N 	0.2345	0.4648	0.2978	-0.295
Mof_H 	H 	0.233	0.4372	0.2971	0.148
Mof_C 	C 	0.0538	0.2739	0.4216	-0.039
Mof_H 	H 	0.0469	0.2464	0.4283	0.081
Mof_C 	C 	0.3157	0.4256	0.2179	-0.156
Mof_H 	H 	0.3145	0.3987	0.227	0.105
Mof_O 	O 	0.2611	0.5221	0.2736	-0.263
Mof_C 	C 	0.052	0.3495	0.4275	-0.135
Mof_H 	H 	0.0411	0.3741	0.4367	0.094
Mof_C 	C 	0.1416	0.7616	0.4194	-0.036
Mof_H 	H 	0.1289	0.7857	0.4281	0.084
Mof_N 	N 	0.0968	0.396	0.4002	-0.254
Mof_H 	H 	0.085	0.4164	0.4103	0.133
Mof_C 	C 	0.1845	0.7302	0.382	-0.12
Mof_H 	H 	0.2024	0.7322	0.3654	0.097
Mof_C 	C 	0.3409	0.4702	0.1783	-0.065
Mof_H 	H 	0.358	0.4732	0.1613	0.095
Mof_N 	N 	0.2711	0.4539	0.2537	-0.281
Mof_H 	H 	0.261	0.4282	0.2547	0.144
Mof_C 	C 	0.2961	0.4618	0.2323	0.209
Mof_O 	O 	0.0749	0.1094	0.4089	-0.393
Mof_H 	H 	0.0524	0.1204	0.4146	0.248
Mof_C 	C 	0.1764	0.6889	0.3955	0.157
Mof_C 	C 	0.0966	0.3182	0.3906	-0.13
Mof_H 	H 	0.117	0.322	0.3755	0.123
Mof_C 	C 	0.3005	0.5023	0.2192	-0.155
Mof_H 	H 	0.29	0.5266	0.2289	0.13
Mof_C 	C 	0.2576	0.4834	0.2768	0.318
Mof_C 	C 	0.1284	0.4085	0.3798	0.287
Mof_C 	C 	0.0817	0.3541	0.4066	0.167
Mof_N 	N 	0.134	0.4522	0.3828	-0.276
Mof_H 	H 	0.1177	0.4664	0.3948	0.142
Mof_C 	C 	0.3012	0.956	0.8559	0.318
Mof_C 	C 	0.3262	0.9826	0.8738	-0.354
Mof_H 	H 	0.3387	0.9719	0.8912	0.177
Mof_C 	C 	0.3324	0.0254	0.8658	0.294
Mof_C 	C 	0.3137	0.0415	0.8398	-0.347
Mof_H 	H 	0.3178	0.0701	0.8344	0.179
Mof_C 	C 	0.2886	0.0148	0.8219	0.305
Mof_C 	C 	0.2824	0.972	0.8299	-0.358
Mof_H 	H 	0.2657	0.9542	0.8179	0.181
Mof_O 	O 	0.3068	0.69	0.8553	-0.38
Mof_N 	N 	0.3029	0.8448	0.8796	-0.243
Mof_H 	H 	0.2792	0.8391	0.8705	0.134
Mof_C 	C 	0.1783	0.9935	0.6898	0.012
Mof_C 	C 	0.3641	0.7793	0.9332	-0.025
Mof_C 	C 	0.3196	0.8891	0.8779	0.29
Mof_O 	O 	0.3445	0.9	0.8988	-0.248
Mof_N 	N 	0.2933	0.9134	0.8624	-0.302
Mof_H 	H 	0.2698	0.9021	0.8559	0.15
Mof_Cu	Cu	0.36244	0.30144	0.83145	0.923
Mof_Cu	Cu	0.39676	0.35074	0.87316	0.924
Mof_O 	O 	0.3815	0.254	0.8579	-0.394
Mof_O 	O 	0.1526	0.1438	0.688	-0.389
Mof_O 	O 	0.5132	0.1608	0.9694	-0.407
Mof_O 	O 	0.1245	0.1013	0.6517	-0.384
Mof_O 	O 	0.4125	0.2964	0.8924	-0.396
Mof_C 	C 	0.4033	0.2622	0.8792	0.347
Mof_O 	O 	0.1519	0.9483	0.6529	-0.392
Mof_O 	O 	0.3462	0.6598	0.8931	-0.364
Mof_O 	O 	0.4107	0.7512	0.9687	-0.411
Mof_O 	O 	0.5023	0.2324	0.97	-0.394
Mof_C 	C 	0.1455	0.1095	0.674	0.324
Mof_O 	O 	0.1965	0.9199	0.6878	-0.377
Mof_O 	O 	0.3998	0.8204	0.9686	-0.424
Mof_C 	C 	0.3293	0.6903	0.878	0.309
Mof_C 	C 	0.1756	0.9494	0.6744	0.324
Mof_C 	C 	0.4968	0.1936	0.9605	0.343
Mof_O 	O 	0.3521	0.1157	0.8619	-0.245
Mof_C 	C 	0.4179	0.2216	0.8966	0.003
Mof_C 	C 	0.3945	0.7845	0.9593	0.391
Mof_C 	C 	0.1634	0.0694	0.6904	0.019
Mof_C 	C 	0.3342	0.7335	0.8936	-0
Mof_C 	C 	0.4638	0.1905	0.9365	-0.014
Mof_C 	C 	0.3476	0.8152	0.9201	-0.126
Mof_H 	H 	0.353	0.8423	0.9282	0.117
Mof_O 	O 	0.3349	0.259	0.7966	-0.397
Mof_H 	H 	0.342	0.2677	0.78	0.243
Mof_N 	N 	0.2655	0.0352	0.7978	-0.295
Mof_H 	H 	0.267	0.0628	0.7971	0.148
Mof_C 	C 	0.4462	0.2261	0.9216	-0.04
Mof_H 	H 	0.4531	0.2536	0.9283	0.081
Mof_C 	C 	0.1843	0.0744	0.7179	-0.156
Mof_H 	H 	0.1855	0.1013	0.727	0.105
Mof_O 	O 	0.2389	0.9779	0.7736	-0.263
Mof_C 	C 	0.448	0.1505	0.9275	-0.135
Mof_H 	H 	0.4589	0.1259	0.9367	0.094
Mof_C 	C 	0.3584	0.7384	0.9194	-0.036
Mof_H 	H 	0.3711	0.7143	0.9281	0.085
Mof_N 	N 	0.4032	0.104	0.9002	-0.254
Mof_H 	H 	0.415	0.0836	0.9103	0.134
Mof_C 	C 	0.3155	0.7698	0.882	-0.121
Mof_H 	H 	0.2976	0.7678	0.8654	0.097
Mof_C 	C 	0.1591	0.0298	0.6783	-0.065
Mof_H 	H 	0.142	0.0268	0.6613	0.095
Mof_N 	N 	0.2289	0.0461	0.7537	-0.281
Mof_H 	H 	0.239	0.0718	0.7547	0.144
Mof_C 	C 	0.2039	0.0382	0.7323	0.209
Mof_O 	O 	0.4251	0.3906	0.9089	-0.393
Mof_H 	H 	0.4476	0.3796	0.9146	0.248
Mof_C 	C 	0.3236	0.8111	0.8955	0.157
Mof_C 	C 	0.4034	0.1818	0.8906	-0.13
Mof_H 	H 	0.383	0.178	0.8755	0.123
Mof_C 	C 	0.1995	0.9977	0.7192	-0.155
Mof_H 	H 	0.21	0.9734	0.7289	0.13
Mof_C 	C 	0.2424	0.0166	0.7768	0.318
Mof_C 	C 	0.3716	0.0915	0.8798	0.287
Mof_C 	C 	0.4183	0.1459	0.9066	0.167
Mof_N 	N 	0.366	0.0478	0.8828	-0.276
Mof_H 	H 	0.3823	0.0336	0.8948	0.142
Mof_C 	C 	0.8012	0.456	0.3559	0.318
Mof_C 	C 	0.8262	0.4826	0.3738	-0.354
Mof_H 	H 	0.8387	0.4719	0.3912	0.177
Mof_C 	C 	0.8324	0.5254	0.3658	0.294
Mof_C 	C 	0.8137	0.5415	0.3398	-0.347
Mof_H 	H 	0.8178	0.5701	0.3344	0.179
Mof_C 	C 	0.7886	0.5148	0.3219	0.305
Mof_C 	C 	0.7824	0.472	0.3299	-0.358
Mof_H 	H 	0.7657	0.4542	0.3179	0.181
Mof_O 	O 	0.8068	0.19	0.3553	-0.38
Mof_N 	N 	0.8029	0.3448	0.3796	-0.242
Mof_H 	H 	0.7792	0.3391	0.3705	0.134
Mof_C 	C 	0.6783	0.4935	0.1898	0.012
Mof_C 	C 	0.8641	0.2793	0.4332	-0.026
Mof_C 	C 	0.8196	0.3891	0.3779	0.29
Mof_O 	O 	0.8445	0.4	0.3988	-0.248
Mof_N 	N 	0.7933	0.4134	0.3624	-0.302
Mof_H 	H 	0.7698	0.4021	0.3559	0.15
Mof_Cu	Cu	0.86244	0.80144	0.33145	0.923
Mof_Cu	Cu	0.89676	0.85074	0.37316	0.924
Mof_O 	O 	0.8815	0.754	0.3579	-0.394
Mof_O 	O 	0.6526	0.6438	0.188	-0.389
Mof_O 	O 	0.0132	0.6608	0.4694	-0.409
Mof_O 	O 	0.6245	0.6013	0.1517	-0.384
Mof_O 	O 	0.9125	0.7964	0.3924	-0.396
Mof_C 	C 	0.9033	0.7622	0.3792	0.348
Mof_O 	O 	0.6519	0.4483	0.1529	-0.392
Mof_O 	O 	0.8462	0.1598	0.3931	-0.364
Mof_O 	O 	0.9107	0.2512	0.4687	-0.414
Mof_O 	O 	0.0023	0.7324	0.47	-0.396
Mof_C 	C 	0.6455	0.6095	0.174	0.324
Mof_O 	O 	0.6965	0.4199	0.1878	-0.377
Mof_O 	O 	0.8998	0.3204	0.4686	-0.426
Mof_C 	C 	0.8293	0.1903	0.378	0.309
Mof_C 	C 	0.6756	0.4494	0.1744	0.324
Mof_C 	C 	0.9968	0.6936	0.4605	0.343
Mof_O 	O 	0.8521	0.6157	0.3619	-0.245
Mof_C 	C 	0.9179	0.7216	0.3966	0.002
Mof_C 	C 	0.8945	0.2845	0.4593	0.392
Mof_C 	C 	0.6634	0.5694	0.1904	0.019
Mof_C 	C 	0.8342	0.2335	0.3936	-0.001
Mof_C 	C 	0.9638	0.6905	0.4365	-0.015
Mof_C 	C 	0.8476	0.3152	0.4201	-0.125
Mof_H 	H 	0.853	0.3423	0.4282	0.117
Mof_O 	O 	0.8349	0.759	0.2966	-0.397
Mof_H 	H 	0.842	0.7677	0.28	0.243
Mof_N 	N 	0.7655	0.5352	0.2978	-0.295
Mof_H 	H 	0.767	0.5628	0.2971	0.148
Mof_C 	C 	0.9462	0.7261	0.4216	-0.039
Mof_H 	H 	0.9531	0.7536	0.4283	0.081
Mof_C 	C 	0.6843	0.5744	0.2179	-0.156
Mof_H 	H 	0.6855	0.6013	0.227	0.105
Mof_O 	O 	0.7389	0.4779	0.2736	-0.263
Mof_C 	C 	0.948	0.6505	0.4275	-0.135
Mof_H 	H 	0.9589	0.6259	0.4367	0.094
Mof_C 	C 	0.8584	0.2384	0.4194	-0.036
Mof_H 	H 	0.8711	0.2143	0.4281	0.084
Mof_N 	N 	0.9032	0.604	0.4002	-0.254
Mof_H 	H 	0.915	0.5836	0.4103	0.133
Mof_C 	C 	0.8155	0.2698	0.382	-0.12
Mof_H 	H 	0.7976	0.2678	0.3654	0.097
Mof_C 	C 	0.6591	0.5298	0.1783	-0.065
Mof_H 	H 	0.642	0.5268	0.1613	0.095
Mof_N 	N 	0.7289	0.5461	0.2537	-0.281
Mof_H 	H 	0.739	0.5718	0.2547	0.144
Mof_C 	C 	0.7039	0.5382	0.2323	0.209
Mof_O 	O 	0.9251	0.8906	0.4089	-0.393
Mof_H 	H 	0.9476	0.8796	0.4146	0.248
Mof_C 	C 	0.8236	0.3111	0.3955	0.157
Mof_C 	C 	0.9034	0.6818	0.3906	-0.13
Mof_H 	H 	0.883	0.678	0.3755	0.123
Mof_C 	C 	0.6995	0.4977	0.2192	-0.155
Mof_H 	H 	0.71	0.4734	0.2289	0.13
Mof_C 	C 	0.7424	0.5166	0.2768	0.318
Mof_C 	C 	0.8716	0.5915	0.3798	0.287
Mof_C 	C 	0.9183	0.6459	0.4066	0.167
Mof_N 	N 	0.866	0.5478	0.3828	-0.276
Mof_H 	H 	0.8823	0.5336	0.3948	0.142
Mof_C 	C 	0.956	0.6988	0.8559	0.318
Mof_C 	C 	0.9826	0.6738	0.8738	-0.354
Mof_H 	H 	0.9719	0.6613	0.8912	0.177
Mof_C 	C 	0.0254	0.6676	0.8658	0.294
Mof_C 	C 	0.0415	0.6863	0.8398	-0.347
Mof_H 	H 	0.0701	0.6822	0.8344	0.179
Mof_C 	C 	0.0148	0.7114	0.8219	0.305
Mof_C 	C 	0.972	0.7176	0.8299	-0.358
Mof_H 	H 	0.9542	0.7343	0.8179	0.181
Mof_O 	O 	0.69	0.6932	0.8553	-0.38
Mof_N 	N 	0.8448	0.6971	0.8796	-0.243
Mof_H 	H 	0.8391	0.7208	0.8705	0.134
Mof_C 	C 	0.9935	0.8217	0.6898	0.012
Mof_C 	C 	0.7793	0.6359	0.9332	-0.025
Mof_C 	C 	0.8891	0.6804	0.8779	0.29
Mof_O 	O 	0.9	0.6555	0.8988	-0.248
Mof_N 	N 	0.9134	0.7067	0.8624	-0.302
Mof_H 	H 	0.9021	0.7302	0.8559	0.15
Mof_Cu	Cu	0.30144	0.63756	0.83145	0.923
Mof_Cu	Cu	0.35074	0.60324	0.87316	0.924
Mof_O 	O 	0.254	0.6185	0.8579	-0.394
Mof_O 	O 	0.1438	0.8474	0.688	-0.389
Mof_O 	O 	0.1608	0.4868	0.9694	-0.407
Mof_O 	O 	0.1013	0.8755	0.6517	-0.384
Mof_O 	O 	0.2964	0.5875	0.8924	-0.396
Mof_C 	C 	0.2622	0.5967	0.8792	0.347
Mof_O 	O 	0.9483	0.8481	0.6529	-0.392
Mof_O 	O 	0.6598	0.6538	0.8931	-0.364
Mof_O 	O 	0.7512	0.5893	0.9687	-0.411
Mof_O 	O 	0.2324	0.4977	0.97	-0.394
Mof_C 	C 	0.1095	0.8545	0.674	0.324
Mof_O 	O 	0.9199	0.8035	0.6878	-0.377
Mof_O 	O 	0.8204	0.6002	0.9686	-0.424
Mof_C 	C 	0.6903	0.6707	0.878	0.309
Mof_C 	C 	0.9494	0.8244	0.6744	0.324
Mof_C 	C 	0.1936	0.5032	0.9605	0.343
Mof_O 	O 	0.1157	0.6479	0.8619	-0.245
Mof_C 	C 	0.2216	0.5821	0.8966	0.003
Mof_C 	C 	0.7845	0.6055	0.9593	0.391
Mof_C 	C 	0.0694	0.8366	0.6904	0.019
Mof_C 	C 	0.7335	0.6658	0.8936	-0
Mof_C 	C 	0.1905	0.5362	0.9365	-0.014
Mof_C 	C 	0.8152	0.6524	0.9201	-0.126
Mof_H 	H 	0.8423	0.647	0.9282	0.117
Mof_O 	O 	0.259	0.6651	0.7966	-0.397
Mof_H 	H 	0.2677	0.658	0.78	0.243
Mof_N 	N 	0.0352	0.7345	0.7978	-0.295
Mof_H 	H 	0.0628	0.733	0.7971	0.148
Mof_C 	C 	0.2261	0.5538	0.9216	-0.04
Mof_H 	H 	0.2536	0.5469	0.9283	0.081
Mof_C 	C 	0.0744	0.8157	0.7179	-0.156
Mof_H 	H 	0.1013	0.8145	0.727	0.105
Mof_O 	O 	0.9779	0.7611	0.7736	-0.263
Mof_C 	C 	0.1505	0.552	0.9275	-0.135
Mof_H 	H 	0.1259	0.5411	0.9367	0.094
Mof_C 	C 	0.7384	0.6416	0.9194	-0.036
Mof_H 	H 	0.7143	0.6289	0.9281	0.085
Mof_N 	N 	0.104	0.5968	0.9002	-0.254
Mof_H 	H 	0.0836	0.585	0.9103	0.134
Mof_C 	C 	0.7698	0.6845	0.882	-0.121
Mof_H 	H 	0.7678	0.7024	0.8654	0.097
Mof_C 	C 	0.0298	0.8409	0.6783	-0.065
Mof_H 	H 	0.0268	0.858	0.6613	0.095
Mof_N 	N 	0.0461	0.7711	0.7537	-0.281
Mof_H 	H 	0.0718	0.761	0.7547	0.144
Mof_C 	C 	0.0382	0.7961	0.7323	0.209
Mof_O 	O 	0.3906	0.5749	0.9089	-0.393
Mof_H 	H 	0.3796	0.5524	0.9146	0.248
Mof_C 	C 	0.8111	0.6764	0.8955	0.157
Mof_C 	C 	0.1818	0.5966	0.8906	-0.13
Mof_H 	H 	0.178	0.617	0.8755	0.123
Mof_C 	C 	0.9977	0.8005	0.7192	-0.155
Mof_H 	H 	0.9734	0.79	0.7289	0.13
Mof_C 	C 	0.0166	0.7576	0.7768	0.318
Mof_C 	C 	0.0915	0.6284	0.8798	0.287
Mof_C 	C 	0.1459	0.5817	0.9066	0.167
Mof_N 	N 	0.0478	0.634	0.8828	-0.276
Mof_H 	H 	0.0336	0.6177	0.8948	0.142
Mof_C 	C 	0.456	0.1988	0.3559	0.318
Mof_C 	C 	0.4826	0.1738	0.3738	-0.354
Mof_H 	H 	0.4719	0.1613	0.3912	0.177
Mof_C 	C 	0.5254	0.1676	0.3658	0.294
Mof_C 	C 	0.5415	0.1863	0.3398	-0.347
Mof_H 	H 	0.5701	0.1822	0.3344	0.179
Mof_C 	C 	0.5148	0.2114	0.3219	0.305
Mof_C 	C 	0.472	0.2176	0.3299	-0.358
Mof_H 	H 	0.4542	0.2343	0.3179	0.181
Mof_O 	O 	0.19	0.1932	0.3553	-0.38
Mof_N 	N 	0.3448	0.1971	0.3796	-0.242
Mof_H 	H 	0.3391	0.2208	0.3705	0.134
Mof_C 	C 	0.4935	0.3217	0.1898	0.012
Mof_C 	C 	0.2793	0.1359	0.4332	-0.026
Mof_C 	C 	0.3891	0.1804	0.3779	0.29
Mof_O 	O 	0.4	0.1555	0.3988	-0.248
Mof_N 	N 	0.4134	0.2067	0.3624	-0.302
Mof_H 	H 	0.4021	0.2302	0.3559	0.15
Mof_Cu	Cu	0.80144	0.13756	0.33145	0.923
Mof_Cu	Cu	0.85074	0.10324	0.37316	0.924
Mof_O 	O 	0.754	0.1185	0.3579	-0.394
Mof_O 	O 	0.6438	0.3474	0.188	-0.389
Mof_O 	O 	0.6608	0.9868	0.4694	-0.409
Mof_O 	O 	0.6013	0.3755	0.1517	-0.384
Mof_O 	O 	0.7964	0.0875	0.3924	-0.396
Mof_C 	C 	0.7622	0.0967	0.3792	0.348
Mof_O 	O 	0.4483	0.3481	0.1529	-0.392
Mof_O 	O 	0.1598	0.1538	0.3931	-0.364
Mof_O 	O 	0.2512	0.0893	0.4687	-0.414
Mof_O 	O 	0.7324	0.9977	0.47	-0.396
Mof_C 	C 	0.6095	0.3545	0.174	0.324
Mof_O 	O 	0.4199	0.3035	0.1878	-0.377
Mof_O 	O 	0.3204	0.1002	0.4686	-0.426
Mof_C 	C 	0.1903	0.1707	0.378	0.309
Mof_C 	C 	0.4494	0.3244	0.1744	0.324
Mof_C 	C 	0.6936	0.0032	0.4605	0.343
Mof_O 	O 	0.6157	0.1479	0.3619	-0.245
Mof_C 	C 	0.7216	0.0821	0.3966	0.002
Mof_C 	C 	0.2845	0.1055	0.4593	0.392
Mof_C 	C 	0.5694	0.3366	0.1904	0.019
Mof_C 	C 	0.2335	0.1658	0.3936	-0.001
Mof_C 	C 	0.6905	0.0362	0.4365	-0.015
Mof_C 	C 	0.3152	0.1524	0.4201	-0.125
Mof_H 	H 	0.3423	0.147	0.4282	0.117
Mof_O 	O 	0.759	0.1651	0.2966	-0.397
Mof_H 	H 	0.7677	0.158	0.28	0.243
Mof_N 	N 	0.5352	0.2345	0.2978	-0.295
Mof_H 	H 	0.5628	0.233	0.2971	0.148
Mof_C 	C 	0.7261	0.0538	0.4216	-0.039
Mof_H 	H 	0.7536	0.0469	0.4283	0.081
Mof_C 	C 	0.5744	0.3157	0.2179	-0.156
Mof_H 	H 	0.6013	0.3145	0.227	0.105
Mof_O 	O 	0.4779	0.2611	0.2736	-0.263
Mof_C 	C 	0.6505	0.052	0.4275	-0.135
Mof_H 	H 	0.6259	0.0411	0.4367	0.094
Mof_C 	C 	0.2384	0.1416	0.4194	-0.036
Mof_H 	H 	0.2143	0.1289	0.4281	0.084
Mof_N 	N 	0.604	0.0968	0.4002	-0.254
Mof_H 	H 	0.5836	0.085	0.4103	0.133
Mof_C 	C 	0.2698	0.1845	0.382	-0.12
Mof_H 	H 	0.2678	0.2024	0.3654	0.097
Mof_C 	C 	0.5298	0.3409	0.1783	-0.065
Mof_H 	H 	0.5268	0.358	0.1613	0.095
Mof_N 	N 	0.5461	0.2711	0.2537	-0.281
Mof_H 	H 	0.5718	0.261	0.2547	0.144
Mof_C 	C 	0.5382	0.2961	0.2323	0.209
Mof_O 	O 	0.8906	0.0749	0.4089	-0.393
Mof_H 	H 	0.8796	0.0524	0.4146	0.248
Mof_C 	C 	0.3111	0.1764	0.3955	0.157
Mof_C 	C 	0.6818	0.0966	0.3906	-0.13
Mof_H 	H 	0.678	0.117	0.3755	0.123
Mof_C 	C 	0.4977	0.3005	0.2192	-0.155
Mof_H 	H 	0.4734	0.29	0.2289	0.13
Mof_C 	C 	0.5166	0.2576	0.2768	0.318
Mof_C 	C 	0.5915	0.1284	0.3798	0.287
Mof_C 	C 	0.6459	0.0817	0.4066	0.167
Mof_N 	N 	0.5478	0.134	0.3828	-0.276
Mof_H 	H 	0.5336	0.1177	0.3948	0.142
Mof_C 	C 	0.044	0.3012	0.8559	0.318
Mof_C 	C 	0.0174	0.3262	0.8738	-0.354
Mof_H 	H 	0.0281	0.3387	0.8912	0.177
Mof_C 	C 	0.9746	0.3324	0.8658	0.294
Mof_C 	C 	0.9585	0.3137	0.8398	-0.347
Mof_H 	H 	0.9299	0.3178	0.8344	0.179
Mof_C 	C 	0.9852	0.2886	0.8219	0.305
Mof_C 	C 	0.028	0.2824	0.8299	-0.358
Mof_H 	H 	0.0458	0.2657	0.8179	0.181
Mof_O 	O 	0.31	0.3068	0.8553	-0.38
Mof_N 	N 	0.1552	0.3029	0.8796	-0.243
Mof_H 	H 	0.1609	0.2792	0.8705	0.134
Mof_C 	C 	0.0065	0.1783	0.6898	0.012
Mof_C 	C 	0.2207	0.3641	0.9332	-0.025
Mof_C 	C 	0.1109	0.3196	0.8779	0.29
Mof_O 	O 	0.1	0.3445	0.8988	-0.248
Mof_N 	N 	0.0866	0.2933	0.8624	-0.302
Mof_H 	H 	0.0979	0.2698	0.8559	0.15
Mof_Cu	Cu	0.69856	0.36244	0.83145	0.923
Mof_Cu	Cu	0.64926	0.39676	0.87316	0.924
Mof_O 	O 	0.746	0.3815	0.8579	-0.394
Mof_O 	O 	0.8562	0.1526	0.688	-0.389
Mof_O 	O 	0.8392	0.5132	0.9694	-0.407
Mof_O 	O 	0.8987	0.1245	0.6517	-0.384
Mof_O 	O 	0.7036	0.4125	0.8924	-0.396
Mof_C 	C 	0.7378	0.4033	0.8792	0.347
Mof_O 	O 	0.0517	0.1519	0.6529	-0.392
Mof_O 	O 	0.3402	0.3462	0.8931	-0.364
Mof_O 	O 	0.2488	0.4107	0.9687	-0.411
Mof_O 	O 	0.7676	0.5023	0.97	-0.394
Mof_C 	C 	0.8905	0.1455	0.674	0.324
Mof_O 	O 	0.0801	0.1965	0.6878	-0.377
Mof_O 	O 	0.1796	0.3998	0.9686	-0.424
Mof_C 	C 	0.3097	0.3293	0.878	0.309
Mof_C 	C 	0.0506	0.1756	0.6744	0.324
Mof_C 	C 	0.8064	0.4968	0.9605	0.343
Mof_O 	O 	0.8843	0.3521	0.8619	-0.245
Mof_C 	C 	0.7784	0.4179	0.8966	0.003
Mof_C 	C 	0.2155	0.3945	0.9593	0.391
Mof_C 	C 	0.9306	0.1634	0.6904	0.019
Mof_C 	C 	0.2665	0.3342	0.8936	-0
Mof_C 	C 	0.8095	0.4638	0.9365	-0.014
Mof_C 	C 	0.1848	0.3476	0.9201	-0.126
Mof_H 	H 	0.1577	0.353	0.9282	0.117
Mof_O 	O 	0.741	0.3349	0.7966	-0.397
Mof_H 	H 	0.7323	0.342	0.78	0.243
Mof_N 	N 	0.9648	0.2655	0.7978	-0.295
Mof_H 	H 	0.9372	0.267	0.7971	0.148
Mof_C 	C 	0.7739	0.4462	0.9216	-0.04
Mof_H 	H 	0.7464	0.4531	0.9283	0.081
Mof_C 	C 	0.9256	0.1843	0.7179	-0.156
Mof_H 	H 	0.8987	0.1855	0.727	0.105
Mof_O 	O 	0.0221	0.2389	0.7736	-0.263
Mof_C 	C 	0.8495	0.448	0.9275	-0.135
Mof_H 	H 	0.8741	0.4589	0.9367	0.094
Mof_C 	C 	0.2616	0.3584	0.9194	-0.036
Mof_H 	H 	0.2857	0.3711	0.9281	0.085
Mof_N 	N 	0.896	0.4032	0.9002	-0.254
Mof_H 	H 	0.9164	0.415	0.9103	0.134
Mof_C 	C 	0.2302	0.3155	0.882	-0.121
Mof_H 	H 	0.2322	0.2976	0.8654	0.097
Mof_C 	C 	0.9702	0.1591	0.6783	-0.065
Mof_H 	H 	0.9732	0.142	0.6613	0.095
Mof_N 	N 	0.9539	0.2289	0.7537	-0.281
Mof_H 	H 	0.9282	0.239	0.7547	0.144
Mof_C 	C 	0.9618	0.2039	0.7323	0.209
Mof_O 	O 	0.6094	0.4251	0.9089	-0.393
Mof_H 	H 	0.6204	0.4476	0.9146	0.248
Mof_C 	C 	0.1889	0.3236	0.8955	0.157
Mof_C 	C 	0.8182	0.4034	0.8906	-0.13
Mof_H 	H 	0.822	0.383	0.8755	0.123
Mof_C 	C 	0.0023	0.1995	0.7192	-0.155
Mof_H 	H 	0.0266	0.21	0.7289	0.13
Mof_C 	C 	0.9834	0.2424	0.7768	0.318
Mof_C 	C 	0.9085	0.3716	0.8798	0.287
Mof_C 	C 	0.8541	0.4183	0.9066	0.167
Mof_N 	N 	0.9522	0.366	0.8828	-0.276
Mof_H 	H 	0.9664	0.3823	0.8948	0.142
Mof_C 	C 	0.544	0.8012	0.3559	0.318
Mof_C 	C 	0.5174	0.8262	0.3738	-0.354
Mof_H 	H 	0.5281	0.8387	0.3912	0.177
Mof_C 	C 	0.4746	0.8324	0.3658	0.294
Mof_C 	C 	0.4585	0.8137	0.3398	-0.347
Mof_H 	H 	0.4299	0.8178	0.3344	0.179
Mof_C 	C 	0.4852	0.7886	0.3219	0.305
Mof_C 	C 	0.528	0.7824	0.3299	-0.358
Mof_H 	H 	0.5458	0.7657	0.3179	0.181
Mof_O 	O 	0.81	0.8068	0.3553	-0.38
Mof_N 	N 	0.6552	0.8029	0.3796	-0.242
Mof_H 	H 	0.6609	0.7792	0.3705	0.134
Mof_C 	C 	0.5065	0.6783	0.1898	0.012
Mof_C 	C 	0.7207	0.8641	0.4332	-0.026
Mof_C 	C 	0.6109	0.8196	0.3779	0.29
Mof_O 	O 	0.6	0.8445	0.3988	-0.248
Mof_N 	N 	0.5866	0.7933	0.3624	-0.302
Mof_H 	H 	0.5979	0.7698	0.3559	0.15
Mof_Cu	Cu	0.19856	0.86244	0.33145	0.923
Mof_Cu	Cu	0.14926	0.89676	0.37316	0.924
Mof_O 	O 	0.246	0.8815	0.3579	-0.394
Mof_O 	O 	0.3562	0.6526	0.188	-0.389
Mof_O 	O 	0.3392	0.0132	0.4694	-0.409
Mof_O 	O 	0.3987	0.6245	0.1517	-0.384
Mof_O 	O 	0.2036	0.9125	0.3924	-0.396
Mof_C 	C 	0.2378	0.9033	0.3792	0.348
Mof_O 	O 	0.5517	0.6519	0.1529	-0.392
Mof_O 	O 	0.8402	0.8462	0.3931	-0.364
Mof_O 	O 	0.7488	0.9107	0.4687	-0.414
Mof_O 	O 	0.2676	0.0023	0.47	-0.396
Mof_C 	C 	0.3905	0.6455	0.174	0.324
Mof_O 	O 	0.5801	0.6965	0.1878	-0.377
Mof_O 	O 	0.6796	0.8998	0.4686	-0.426
Mof_C 	C 	0.8097	0.8293	0.378	0.309
Mof_C 	C 	0.5506	0.6756	0.1744	0.324
Mof_C 	C 	0.3064	0.9968	0.4605	0.343
Mof_O 	O 	0.3843	0.8521	0.3619	-0.245
Mof_C 	C 	0.2784	0.9179	0.3966	0.002
Mof_C 	C 	0.7155	0.8945	0.4593	0.392
Mof_C 	C 	0.4306	0.6634	0.1904	0.019
Mof_C 	C 	0.7665	0.8342	0.3936	-0.001
Mof_C 	C 	0.3095	0.9638	0.4365	-0.015
Mof_C 	C 	0.6848	0.8476	0.4201	-0.125
Mof_H 	H 	0.6577	0.853	0.4282	0.117
Mof_O 	O 	0.241	0.8349	0.2966	-0.397
Mof_H 	H 	0.2323	0.842	0.28	0.243
Mof_N 	N 	0.4648	0.7655	0.2978	-0.295
Mof_H 	H 	0.4372	0.767	0.2971	0.148
Mof_C 	C 	0.2739	0.9462	0.4216	-0.039
Mof_H 	H 	0.2464	0.9531	0.4283	0.081
Mof_C 	C 	0.4256	0.6843	0.2179	-0.156
Mof_H 	H 	0.3987	0.6855	0.227	0.105
Mof_O 	O 	0.5221	0.7389	0.2736	-0.263
Mof_C 	C 	0.3495	0.948	0.4275	-0.135
Mof_H 	H 	0.3741	0.9589	0.4367	0.094
Mof_C 	C 	0.7616	0.8584	0.4194	-0.036
Mof_H 	H 	0.7857	0.8711	0.4281	0.084
Mof_N 	N 	0.396	0.9032	0.4002	-0.254
Mof_H 	H 	0.4164	0.915	0.4103	0.133
Mof_C 	C 	0.7302	0.8155	0.382	-0.12
Mof_H 	H 	0.7322	0.7976	0.3654	0.097
Mof_C 	C 	0.4702	0.6591	0.1783	-0.065
Mof_H 	H 	0.4732	0.642	0.1613	0.095
Mof_N 	N 	0.4539	0.7289	0.2537	-0.281
Mof_H 	H 	0.4282	0.739	0.2547	0.144
Mof_C 	C 	0.4618	0.7039	0.2323	0.209
Mof_O 	O 	0.1094	0.9251	0.4089	-0.393
Mof_H 	H 	0.1204	0.9476	0.4146	0.248
Mof_C 	C 	0.6889	0.8236	0.3955	0.157
Mof_C 	C 	0.3182	0.9034	0.3906	-0.13
Mof_H 	H 	0.322	0.883	0.3755	0.123
Mof_C 	C 	0.5023	0.6995	0.2192	-0.155
Mof_H 	H 	0.5266	0.71	0.2289	0.13
Mof_C 	C 	0.4834	0.7424	0.2768	0.318
Mof_C 	C 	0.4085	0.8716	0.3798	0.287
Mof_C 	C 	0.3541	0.9183	0.4066	0.167
Mof_N 	N 	0.4522	0.866	0.3828	-0.276
Mof_H 	H 	0.4664	0.8823	0.3948	0.142
Mof_Cu	Cu	0.54447	0.2475	-0	0.908
Mof_Cu	Cu	0.5585	0.16367	-0	0.904
Mof_Cu	Cu	0.04447	0.7475	0.5	0.91
Mof_Cu	Cu	0.0585	0.66367	0.5	0.906
Mof_Cu	Cu	0.45553	0.7525	-0	0.908
Mof_Cu	Cu	0.4415	0.83633	-0	0.904
Mof_Cu	Cu	0.95553	0.2525	0.5	0.91
Mof_Cu	Cu	0.9415	0.33633	0.5	0.906
Mof_Cu	Cu	0.7525	0.54447	-0	0.908
Mof_Cu	Cu	0.83633	0.5585	-0	0.904
Mof_Cu	Cu	0.2525	0.04447	0.5	0.91
Mof_Cu	Cu	0.33633	0.0585	0.5	0.906
Mof_Cu	Cu	0.2475	0.45553	-0	0.908
Mof_Cu	Cu	0.16367	0.4415	-0	0.904
Mof_Cu	Cu	0.7475	0.95553	0.5	0.91
Mof_Cu	Cu	0.66367	0.9415	0.5	0.906
_end
