# CIF file generated by openbabel 3.1.0, see https://openbabel.org
data_I
_chemical_name_common 'image0'
_cell_length_a 10.9919
_cell_length_b 10.9843
_cell_length_c 10.9893
_cell_angle_alpha 83.024
_cell_angle_beta 85.221
_cell_angle_gamma 81.104
_space_group_name_H-M_alt 'P 1'
_space_group_name_Hall 'P 1'
loop_
    _symmetry_equiv_pos_as_xyz
    x,y,z
loop_
    _atom_site_label
    _atom_site_type_symbol
    _atom_site_fract_x
    _atom_site_fract_y
    _atom_site_fract_z
    _atom_site_occupancy
    Co1      Co       0.08360    0.90702    0.25115    1.000
    Co2      Co       0.97040    0.85751    0.00286    1.000
    Co3      Co       0.85480    0.99607    0.49096    1.000
    N1       N        0.83750    0.89420    0.14170    1.000
    N2       N        0.88500    0.91290    0.24670    1.000
    N3       N        0.79950    0.92650    0.33790    1.000
    N4       N        0.07180    0.18960    0.16040    1.000
    N5       N        0.09380    0.10030    0.25130    1.000
    N6       N        0.11340    0.14070    0.35590    1.000
    C1       C        0.69090    0.91700    0.29340    1.000
    C2       C        0.71460    0.89890    0.16900    1.000
    C3       C        0.62090    0.88720    0.09800    1.000
    H1       H        0.63730    0.87650    0.01530    1.000
    C4       C        0.50300    0.89130    0.15020    1.000
    H2       H        0.43910    0.88120    0.10340    1.000
    C5       C        0.47800    0.91070    0.27430    1.000
    C6       C        0.57210    0.92570    0.34550    1.000
    H3       H        0.55510    0.94140    0.42690    1.000
    C7       C        0.36000    0.91180    0.32460    1.000
    C8       C        0.07900    0.29720    0.21100    1.000
    C9       C        0.10900    0.26660    0.33010    1.000
    C10      C        0.11000    0.35560    0.40900    1.000
    H4       H        0.11670    0.33410    0.49290    1.000
    C11      C        0.09900    0.47620    0.35840    1.000
    H5       H        0.10750    0.53760    0.40730    1.000
    C12      C        0.07600    0.50910    0.23610    1.000
    C13      C        0.06200    0.42220    0.16000    1.000
    H6       H        0.04320    0.44490    0.07870    1.000
    C14      C        0.05900    0.64510    0.18490    1.000
    O1       O        0.08580    0.94680    0.06570    1.000
    H7       H        0.17400    0.93900    0.04900    1.000
    O2       O        0.04390    0.90440    0.43210    1.000
    H8       H        0.09300    0.82600    0.46000    1.000
    O3       O        0.32470    0.95000    0.43430    1.000
    O4       O        0.28200    0.87340    0.26550    1.000
    O5       O        0.02490    0.67610    0.08060    1.000
    O6       O        0.09370    0.71530    0.25600    1.000
    Co4      Co       0.91640    0.09298    0.74885    1.000
    Co5      Co       0.02960    0.14249    0.99714    1.000
    Co6      Co       0.14520    0.00393    0.50904    1.000
    N7       N        0.16250    0.10580    0.85830    1.000
    N8       N        0.11500    0.08710    0.75330    1.000
    N9       N        0.20050    0.07350    0.66210    1.000
    N10      N        0.92820    0.81040    0.83960    1.000
    N11      N        0.90620    0.89970    0.74870    1.000
    N12      N        0.88660    0.85930    0.64410    1.000
    C15      C        0.30910    0.08300    0.70660    1.000
    C16      C        0.28540    0.10110    0.83100    1.000
    C17      C        0.37910    0.11280    0.90200    1.000
    H9       H        0.36270    0.12350    0.98470    1.000
    C18      C        0.49700    0.10870    0.84980    1.000
    H10      H        0.56090    0.11880    0.89660    1.000
    C19      C        0.52200    0.08930    0.72570    1.000
    C20      C        0.42790    0.07430    0.65450    1.000
    H11      H        0.44490    0.05860    0.57310    1.000
    C21      C        0.64000    0.08820    0.67540    1.000
    C22      C        0.92100    0.70280    0.78900    1.000
    C23      C        0.89100    0.73340    0.66990    1.000
    C24      C        0.89000    0.64440    0.59100    1.000
    H12      H        0.88330    0.66590    0.50710    1.000
    C25      C        0.90100    0.52380    0.64160    1.000
    H13      H        0.89250    0.46240    0.59270    1.000
    C26      C        0.92400    0.49090    0.76390    1.000
    C27      C        0.93800    0.57780    0.84000    1.000
    H14      H        0.95680    0.55510    0.92130    1.000
    C28      C        0.94100    0.35490    0.81510    1.000
    O7       O        0.91420    0.05320    0.93430    1.000
    H15      H        0.82600    0.06100    0.95100    1.000
    O8       O        0.95610    0.09560    0.56790    1.000
    H16      H        0.90700    0.17400    0.54000    1.000
    O9       O        0.67530    0.05000    0.56570    1.000
    O10      O        0.71800    0.12660    0.73450    1.000
    O11      O        0.97510    0.32390    0.91940    1.000
    O12      O        0.90630    0.28470    0.74400    1.000
