# CIF file generated by openbabel 3.1.0, see https://openbabel.org
data_I
_chemical_name_common 'image0'
_cell_length_a 12.367
_cell_length_b 12.367
_cell_length_c 5.2934
_cell_angle_alpha 90
_cell_angle_beta 90
_cell_angle_gamma 90
_space_group_name_H-M_alt 'P 1'
_space_group_name_Hall 'P 1'
loop_
    _symmetry_equiv_pos_as_xyz
    x,y,z
loop_
    _atom_site_label
    _atom_site_type_symbol
    _atom_site_fract_x
    _atom_site_fract_y
    _atom_site_fract_z
    _atom_site_occupancy
    Co1      Co       0.67880    0.01520    0.53730    1.000
    S1       S        0.56086    0.69305    0.47320    1.000
    N1       N        0.61700    0.87360    0.72180    1.000
    C1       C        0.65440    0.68150    0.72820    1.000
    H1       H        0.61770    0.66040    0.88240    1.000
    H2       H        0.70970    0.62830    0.69010    1.000
    C2       C        0.70370    0.79350    0.75490    1.000
    H3       H        0.73390    0.80090    0.92510    1.000
    C3       C        0.79330    0.81340    0.56090    1.000
    C4       C        0.52600    0.83110    0.56890    1.000
    H4       H        0.46060    0.82910    0.67340    1.000
    C5       C        0.50340    0.89560    0.33440    1.000
    O1       O        0.86780    0.74290    0.53620    1.000
    O2       O        0.79290    0.89980    0.43400    1.000
    O3       O        0.57030    0.96780    0.26880    1.000
    O4       O        0.41950    0.87230    0.21660    1.000
    H5       H        0.59980    0.87730    0.87000    1.000
    Co2      Co       0.32120    0.98480    0.03730    1.000
    S2       S        0.43914    0.30695    0.97320    1.000
    N2       N        0.38300    0.12640    0.22180    1.000
    C6       C        0.34560    0.31850    0.22820    1.000
    H6       H        0.38230    0.33960    0.38240    1.000
    H7       H        0.29030    0.37170    0.19010    1.000
    C7       C        0.29630    0.20650    0.25490    1.000
    H8       H        0.26610    0.19910    0.42510    1.000
    C8       C        0.20670    0.18660    0.06090    1.000
    C9       C        0.47400    0.16890    0.06890    1.000
    H9       H        0.53940    0.17090    0.17340    1.000
    C10      C        0.49660    0.10440    0.83440    1.000
    O5       O        0.13220    0.25710    0.03620    1.000
    O6       O        0.20710    0.10020    0.93400    1.000
    O7       O        0.42970    0.03220    0.76880    1.000
    O8       O        0.58050    0.12770    0.71660    1.000
    H10      H        0.40020    0.12270    0.37000    1.000
    Co3      Co       0.98480    0.67880    0.78730    1.000
    S3       S        0.30695    0.56086    0.72320    1.000
    N3       N        0.12640    0.61700    0.97180    1.000
    C11      C        0.31850    0.65440    0.97820    1.000
    H11      H        0.33960    0.61770    0.13240    1.000
    H12      H        0.37170    0.70970    0.94010    1.000
    C12      C        0.20650    0.70370    0.00490    1.000
    H13      H        0.19910    0.73390    0.17510    1.000
    C13      C        0.18660    0.79330    0.81090    1.000
    C14      C        0.16890    0.52600    0.81890    1.000
    H14      H        0.17090    0.46060    0.92340    1.000
    C15      C        0.10440    0.50340    0.58440    1.000
    O9       O        0.25710    0.86780    0.78620    1.000
    O10      O        0.10020    0.79290    0.68400    1.000
    O11      O        0.03220    0.57030    0.51880    1.000
    O12      O        0.12770    0.41950    0.46660    1.000
    H15      H        0.12270    0.59980    0.12000    1.000
    Co4      Co       0.01520    0.32120    0.28730    1.000
    S4       S        0.69305    0.43914    0.22320    1.000
    N4       N        0.87360    0.38300    0.47180    1.000
    C16      C        0.68150    0.34560    0.47820    1.000
    H16      H        0.66040    0.38230    0.63240    1.000
    H17      H        0.62830    0.29030    0.44010    1.000
    C17      C        0.79350    0.29630    0.50490    1.000
    H18      H        0.80090    0.26610    0.67510    1.000
    C18      C        0.81340    0.20670    0.31090    1.000
    C19      C        0.83110    0.47400    0.31890    1.000
    H19      H        0.82910    0.53940    0.42340    1.000
    C20      C        0.89560    0.49660    0.08440    1.000
    O13      O        0.74290    0.13220    0.28620    1.000
    O14      O        0.89980    0.20710    0.18400    1.000
    O15      O        0.96780    0.42970    0.01880    1.000
    O16      O        0.87230    0.58050    0.96660    1.000
    H20      H        0.87730    0.40020    0.62000    1.000
