data_functionalizedCrystal
_audit_creation_method	'EQeq! by Chris Wilmer'
_symmetry_space_group_name_H-M	'P1'
_symmetry_Int_Tables_number	1
_symmetry_cell_setting	triclinic
loop_
_symmetry_equiv_pos_as_xyz
  x,y,z
_cell_length_a	13.6822
_cell_length_b	13.6822
_cell_length_c	13.6822
_cell_angle_alpha	102.353
_cell_angle_beta	102.353
_cell_angle_gamma	102.353
loop_
_atom_site_label
_atom_site_type_symbol
_atom_site_fract_x
_atom_site_fract_y
_atom_site_fract_z
_atom_site_charge
Mof_Co	Co	0.88292	0.5	0.11708	1.155
Mof_Co	Co	0.11708	0.88292	0.5	1.155
Mof_Co	Co	0.5	0.11708	0.88292	1.155
Mof_Mo	Mo	0.79279	0.20721	-0	0.943
Mof_Mo	Mo	1.66166e-17	0.79279	0.20721	0.943
Mof_Mo	Mo	0.20721	4.83392e-17	0.79279	0.943
Mof_H 	H 	0.8816	0.3366	0.2483	-0.039
Mof_H 	H 	0.8656	0.3175	0.4073	0.084
Mof_H 	H 	0.8604	0.6165	0.487	0.091
Mof_H 	H 	0.8793	0.6281	0.3272	-0.017
Mof_H 	H 	0.8575	0.3892	0.5819	0.055
Mof_H 	H 	0.8512	0.5926	0.6362	0.058
Mof_H 	H 	0.8235	0.6557	0.8063	0.079
Mof_H 	H 	0.8352	0.6443	0.9737	-0.029
Mof_H 	H 	0.901	0.3783	0.9108	-0.036
Mof_H 	H 	0.8896	0.3804	0.7419	0.087
Mof_H 	H 	0.2483	0.8816	0.3366	-0.039
Mof_H 	H 	0.4073	0.8656	0.3175	0.084
Mof_H 	H 	0.487	0.8604	0.6165	0.091
Mof_H 	H 	0.3272	0.8793	0.6281	-0.017
Mof_H 	H 	0.5819	0.8575	0.3892	0.055
Mof_H 	H 	0.6362	0.8512	0.5926	0.058
Mof_H 	H 	0.8063	0.8235	0.6557	0.079
Mof_H 	H 	0.9737	0.8352	0.6443	-0.029
Mof_H 	H 	0.9108	0.901	0.3783	-0.036
Mof_H 	H 	0.7419	0.8896	0.3804	0.087
Mof_H 	H 	0.3366	0.2483	0.8816	-0.039
Mof_H 	H 	0.3175	0.4073	0.8656	0.084
Mof_H 	H 	0.6165	0.487	0.8604	0.091
Mof_H 	H 	0.6281	0.3272	0.8793	-0.017
Mof_H 	H 	0.3892	0.5819	0.8575	0.055
Mof_H 	H 	0.5926	0.6362	0.8512	0.058
Mof_H 	H 	0.6557	0.8063	0.8235	0.079
Mof_H 	H 	0.6443	0.9737	0.8352	-0.029
Mof_H 	H 	0.3783	0.9108	0.901	-0.036
Mof_H 	H 	0.3804	0.7419	0.8896	0.087
Mof_H 	H 	0.6634	0.1184	0.7517	-0.045
Mof_H 	H 	0.6825	0.1344	0.5927	0.077
Mof_H 	H 	0.3835	0.1396	0.513	0.085
Mof_H 	H 	0.3719	0.1207	0.6728	-0.025
Mof_H 	H 	0.6108	0.1425	0.4181	0.048
Mof_H 	H 	0.4074	0.1488	0.3638	0.052
Mof_H 	H 	0.3443	0.1765	0.1937	0.066
Mof_H 	H 	0.3557	0.1648	0.0263	-0.063
Mof_H 	H 	0.6217	0.099	0.0892	-0.068
Mof_H 	H 	0.6196	0.1104	0.2581	0.076
Mof_H 	H 	0.1184	0.7517	0.6634	-0.045
Mof_H 	H 	0.1344	0.5927	0.6825	0.077
Mof_H 	H 	0.1396	0.513	0.3835	0.085
Mof_H 	H 	0.1207	0.6728	0.3719	-0.025
Mof_H 	H 	0.1425	0.4181	0.6108	0.048
Mof_H 	H 	0.1488	0.3638	0.4074	0.052
Mof_H 	H 	0.1765	0.1937	0.3443	0.066
Mof_H 	H 	0.1648	0.0263	0.3557	-0.063
Mof_H 	H 	0.099	0.0892	0.6217	-0.068
Mof_H 	H 	0.1104	0.2581	0.6196	0.076
Mof_H 	H 	0.7517	0.6634	0.1184	-0.045
Mof_H 	H 	0.5927	0.6825	0.1344	0.077
Mof_H 	H 	0.513	0.3835	0.1396	0.085
Mof_H 	H 	0.6728	0.3719	0.1207	-0.025
Mof_H 	H 	0.4181	0.6108	0.1425	0.048
Mof_H 	H 	0.3638	0.4074	0.1488	0.052
Mof_H 	H 	0.1937	0.3443	0.1765	0.066
Mof_H 	H 	0.0263	0.3557	0.1648	-0.063
Mof_H 	H 	0.0892	0.6217	0.099	-0.068
Mof_H 	H 	0.2581	0.6196	0.1104	0.076
Mof_C 	C 	0.87853	0.39437	0.29782	0.118
Mof_C 	C 	0.86876	0.38214	0.3929	-0.182
Mof_C 	C 	0.86369	0.46612	0.46753	0.129
Mof_C 	C 	0.86609	0.55837	0.43984	-0.171
Mof_C 	C 	0.87677	0.56464	0.34381	0.107
Mof_C 	C 	0.8586	0.45465	0.57055	-0.083
Mof_C 	C 	0.8553	0.5286	0.649	-0.091
Mof_C 	C 	0.8575	0.51898	0.75452	0.128
Mof_C 	C 	0.84	0.5981	0.8261	-0.188
Mof_C 	C 	0.84714	0.59047	0.92619	0.104
Mof_C 	C 	0.8852	0.43531	0.88948	0.116
Mof_C 	C 	0.8791	0.4362	0.7881	-0.19
Mof_C 	C 	0.29782	0.87853	0.39437	0.118
Mof_C 	C 	0.3929	0.86876	0.38214	-0.182
Mof_C 	C 	0.46753	0.86369	0.46612	0.129
Mof_C 	C 	0.43984	0.86609	0.55837	-0.171
Mof_C 	C 	0.34381	0.87677	0.56464	0.107
Mof_C 	C 	0.57055	0.8586	0.45465	-0.083
Mof_C 	C 	0.649	0.8553	0.5286	-0.091
Mof_C 	C 	0.75452	0.8575	0.51898	0.128
Mof_C 	C 	0.8261	0.84	0.5981	-0.188
Mof_C 	C 	0.92619	0.84714	0.59047	0.104
Mof_C 	C 	0.88948	0.8852	0.43531	0.116
Mof_C 	C 	0.7881	0.8791	0.4362	-0.19
Mof_C 	C 	0.39437	0.29782	0.87853	0.118
Mof_C 	C 	0.38214	0.3929	0.86876	-0.182
Mof_C 	C 	0.46612	0.46753	0.86369	0.129
Mof_C 	C 	0.55837	0.43984	0.86609	-0.171
Mof_C 	C 	0.56464	0.34381	0.87677	0.107
Mof_C 	C 	0.45465	0.57055	0.8586	-0.083
Mof_C 	C 	0.5286	0.649	0.8553	-0.091
Mof_C 	C 	0.51898	0.75452	0.8575	0.128
Mof_C 	C 	0.5981	0.8261	0.84	-0.188
Mof_C 	C 	0.59047	0.92619	0.84714	0.104
Mof_C 	C 	0.43531	0.88948	0.8852	0.116
Mof_C 	C 	0.4362	0.7881	0.8791	-0.19
Mof_C 	C 	0.60563	0.12147	0.70218	0.104
Mof_C 	C 	0.61786	0.13124	0.6071	-0.187
Mof_C 	C 	0.53388	0.13631	0.53247	0.117
Mof_C 	C 	0.44163	0.13391	0.56016	-0.178
Mof_C 	C 	0.43536	0.12323	0.65619	0.095
Mof_C 	C 	0.54535	0.1414	0.42945	-0.089
Mof_C 	C 	0.4714	0.1447	0.351	-0.101
Mof_C 	C 	0.48102	0.1425	0.24548	0.119
Mof_C 	C 	0.4019	0.16	0.1739	-0.201
Mof_C 	C 	0.40953	0.15286	0.07381	0.091
Mof_C 	C 	0.56469	0.1148	0.11052	0.101
Mof_C 	C 	0.5638	0.1209	0.2119	-0.201
Mof_C 	C 	0.12147	0.70218	0.60563	0.104
Mof_C 	C 	0.13124	0.6071	0.61786	-0.187
Mof_C 	C 	0.13631	0.53247	0.53388	0.117
Mof_C 	C 	0.13391	0.56016	0.44163	-0.178
Mof_C 	C 	0.12323	0.65619	0.43536	0.095
Mof_C 	C 	0.1414	0.42945	0.54535	-0.089
Mof_C 	C 	0.1447	0.351	0.4714	-0.101
Mof_C 	C 	0.1425	0.24548	0.48102	0.119
Mof_C 	C 	0.16	0.1739	0.4019	-0.201
Mof_C 	C 	0.15286	0.07381	0.40953	0.091
Mof_C 	C 	0.1148	0.11052	0.56469	0.101
Mof_C 	C 	0.1209	0.2119	0.5638	-0.201
Mof_C 	C 	0.70218	0.60563	0.12147	0.104
Mof_C 	C 	0.6071	0.61786	0.13124	-0.187
Mof_C 	C 	0.53247	0.53388	0.13631	0.117
Mof_C 	C 	0.56016	0.44163	0.13391	-0.178
Mof_C 	C 	0.65619	0.43536	0.12323	0.095
Mof_C 	C 	0.42945	0.54535	0.1414	-0.089
Mof_C 	C 	0.351	0.4714	0.1447	-0.101
Mof_C 	C 	0.24548	0.48102	0.1425	0.119
Mof_C 	C 	0.1739	0.4019	0.16	-0.201
Mof_C 	C 	0.07381	0.40953	0.15286	0.091
Mof_C 	C 	0.11052	0.56469	0.1148	0.101
Mof_C 	C 	0.2119	0.5638	0.1209	-0.201
Mof_N 	N 	0.86985	0.51102	0.95935	-0.234
Mof_N 	N 	0.88379	0.4838	0.27225	-0.237
Mof_N 	N 	0.95935	0.86985	0.51102	-0.234
Mof_N 	N 	0.27225	0.88379	0.4838	-0.237
Mof_N 	N 	0.51102	0.95935	0.86985	-0.234
Mof_N 	N 	0.4838	0.27225	0.88379	-0.237
Mof_N 	N 	0.48898	0.13015	0.04065	-0.268
Mof_N 	N 	0.5162	0.11621	0.72775	-0.246
Mof_N 	N 	0.13015	0.04065	0.48898	-0.268
Mof_N 	N 	0.11621	0.72775	0.5162	-0.246
Mof_N 	N 	0.04065	0.48898	0.13015	-0.268
Mof_N 	N 	0.72775	0.5162	0.11621	-0.246
Mof_O 	O 	0.83125	0.34225	0.06134	-0.57
Mof_O 	O 	0.06134	0.83125	0.34225	-0.57
Mof_O 	O 	0.34225	0.06134	0.83125	-0.57
Mof_O 	O 	0.65775	0.16875	0.93866	-0.546
Mof_O 	O 	0.16875	0.93866	0.65775	-0.546
Mof_O 	O 	0.93866	0.65775	0.16875	-0.546
_end
