data_functionalizedCrystal
_audit_creation_method	'EQeq! by Chris Wilmer'
_symmetry_space_group_name_H-M	'P1'
_symmetry_Int_Tables_number	1
_symmetry_cell_setting	triclinic
loop_
_symmetry_equiv_pos_as_xyz
  x,y,z
_cell_length_a	21.892
_cell_length_b	12.609
_cell_length_c	23.263
_cell_angle_alpha	90
_cell_angle_beta	102.894
_cell_angle_gamma	90
loop_
_atom_site_label
_atom_site_type_symbol
_atom_site_fract_x
_atom_site_fract_y
_atom_site_fract_z
_atom_site_charge
Mof_Cd	Cd	0.0945	0.67684	0.26545	0.49
Mof_O 	O 	0.09957	0.3926	0.2438	-0.299
Mof_O 	O 	0.15601	0.5336	0.2768	-0.296
Mof_O 	O 	0.05068	0.8352	0.27186	-0.291
Mof_N 	N 	0.31472	0.2734	0.2416	-0.14
Mof_N 	N 	0.0249	0.3967	0.3542	-0.147
Mof_N 	N 	0.0781	0.3256	0.6623	-0.146
Mof_N 	N 	0.1357	0.6979	0.3691	-0.148
Mof_C 	C 	0.1497	0.4404	0.2582	0.319
Mof_C 	C 	0.2073	0.3825	0.2526	-0.038
Mof_C 	C 	0.2035	0.2899	0.2213	-0.071
Mof_H 	H 	0.1645	0.262	0.2034	0.065
Mof_C 	C 	0.2577	0.238	0.2166	0.046
Mof_H 	H 	0.2542	0.1755	0.1949	0.026
Mof_C 	C 	0.318	0.3638	0.2706	0.05
Mof_H 	H 	0.3575	0.3906	0.2875	0.023
Mof_C 	C 	0.2668	0.4202	0.2773	-0.072
Mof_H 	H 	0.2719	0.4835	0.2983	0.064
Mof_C 	C 	0.0537	0.0555	0.2741	-0.071
Mof_H 	H 	0.0906	0.0202	0.2909	0.065
Mof_C 	C 	0.052	0.1644	0.2728	0.045
Mof_H 	H 	0.0886	0.2015	0.2885	0.025
Mof_C 	C 	0.0812	0.3654	0.3851	0.077
Mof_H 	H 	0.1133	0.3557	0.3653	0.011
Mof_C 	C 	0.0933	0.3469	0.4447	-0.134
Mof_H 	H 	0.1332	0.3257	0.4645	0.073
Mof_C 	C 	0.0466	0.3597	0.4752	0.052
Mof_C 	C 	0.9892	0.3904	0.4433	-0.132
Mof_H 	H 	0.9562	0.3989	0.462	0.08
Mof_C 	C 	0.9799	0.4088	0.3841	0.088
Mof_H 	H 	0.9404	0.4307	0.3637	0.02
Mof_C 	C 	0.0585	0.343	0.5398	0.063
Mof_C 	C 	0.1151	0.3674	0.5765	-0.143
Mof_H 	H 	0.1479	0.3913	0.5605	0.077
Mof_C 	C 	0.1238	0.3569	0.6359	0.083
Mof_H 	H 	0.1631	0.3722	0.6593	0.01
Mof_C 	C 	0.0237	0.2996	0.6269	0.085
Mof_H 	H 	0.9919	0.2748	0.644	0.027
Mof_C 	C 	0.0118	0.3072	0.5667	-0.146
Mof_H 	H 	0.9727	0.2885	0.544	0.088
Mof_C 	C 	0.166	0.6205	0.4019	0.079
Mof_H 	H 	0.1569	0.551	0.3895	0.016
Mof_C 	C 	0.2103	0.6372	0.4536	-0.134
Mof_H 	H 	0.2299	0.5796	0.475	0.073
Mof_C 	C 	0.2255	0.7389	0.4733	0.056
Mof_C 	C 	0.1925	0.818	0.4394	-0.134
Mof_H 	H 	0.1998	0.8883	0.451	0.074
Mof_C 	C 	0.1488	0.7952	0.3887	0.078
Mof_H 	H 	0.1275	0.8512	0.3671	0.017
Mof_Cd	Cd	0.5945	0.17684	0.26545	0.492
Mof_O 	O 	0.59957	0.8926	0.2438	-0.298
Mof_O 	O 	0.65601	0.0336	0.2768	-0.294
Mof_O 	O 	0.55068	0.3352	0.27186	-0.29
Mof_N 	N 	0.81472	0.7734	0.2416	-0.139
Mof_N 	N 	0.5249	0.8967	0.3542	-0.145
Mof_N 	N 	0.5781	0.8256	0.6623	-0.145
Mof_N 	N 	0.6357	0.1979	0.3691	-0.147
Mof_C 	C 	0.6497	0.9404	0.2582	0.319
Mof_C 	C 	0.7073	0.8825	0.2526	-0.036
Mof_C 	C 	0.7035	0.7899	0.2213	-0.07
Mof_H 	H 	0.6645	0.762	0.2034	0.066
Mof_C 	C 	0.7577	0.738	0.2166	0.046
Mof_H 	H 	0.7542	0.6755	0.1949	0.026
Mof_C 	C 	0.818	0.8638	0.2706	0.05
Mof_H 	H 	0.8575	0.8906	0.2875	0.023
Mof_C 	C 	0.7668	0.9202	0.2773	-0.073
Mof_H 	H 	0.7719	0.9835	0.2983	0.064
Mof_C 	C 	0.5537	0.5555	0.2741	-0.074
Mof_H 	H 	0.5906	0.5202	0.2909	0.066
Mof_C 	C 	0.552	0.6644	0.2728	0.048
Mof_H 	H 	0.5886	0.7015	0.2885	0.024
Mof_C 	C 	0.5812	0.8654	0.3851	0.08
Mof_H 	H 	0.6133	0.8557	0.3653	0.01
Mof_C 	C 	0.5933	0.8469	0.4447	-0.139
Mof_H 	H 	0.6332	0.8257	0.4645	0.075
Mof_C 	C 	0.5466	0.8597	0.4752	0.061
Mof_C 	C 	0.4892	0.8904	0.4433	-0.141
Mof_H 	H 	0.4562	0.8989	0.462	0.082
Mof_C 	C 	0.4799	0.9088	0.3841	0.088
Mof_H 	H 	0.4404	0.9307	0.3637	0.019
Mof_C 	C 	0.5585	0.843	0.5398	0.057
Mof_C 	C 	0.6151	0.8674	0.5765	-0.139
Mof_H 	H 	0.6479	0.8913	0.5605	0.076
Mof_C 	C 	0.6238	0.8569	0.6359	0.081
Mof_H 	H 	0.6631	0.8722	0.6593	0.011
Mof_C 	C 	0.5237	0.7996	0.6269	0.089
Mof_H 	H 	0.4919	0.7748	0.644	0.023
Mof_C 	C 	0.5118	0.8072	0.5667	-0.137
Mof_H 	H 	0.4727	0.7885	0.544	0.082
Mof_C 	C 	0.666	0.1205	0.4019	0.079
Mof_H 	H 	0.6569	0.051	0.3895	0.017
Mof_C 	C 	0.7103	0.1372	0.4536	-0.134
Mof_H 	H 	0.7299	0.0796	0.475	0.073
Mof_C 	C 	0.7255	0.2389	0.4733	0.056
Mof_C 	C 	0.6925	0.318	0.4394	-0.134
Mof_H 	H 	0.6998	0.3883	0.451	0.074
Mof_C 	C 	0.6488	0.2952	0.3887	0.078
Mof_H 	H 	0.6275	0.3512	0.3671	0.017
Mof_Cd	Cd	0.9055	0.67684	0.23455	0.494
Mof_O 	O 	0.90043	0.3926	0.2562	-0.297
Mof_O 	O 	0.84399	0.5336	0.2232	-0.294
Mof_O 	O 	0.94932	0.8352	0.22814	-0.287
Mof_N 	N 	0.68528	0.2734	0.2584	-0.139
Mof_N 	N 	0.9751	0.3967	0.1458	-0.142
Mof_N 	N 	0.9219	0.3256	0.8377	-0.145
Mof_N 	N 	0.8643	0.6979	0.1309	-0.147
Mof_C 	C 	0.8503	0.4404	0.2418	0.32
Mof_C 	C 	0.7927	0.3825	0.2474	-0.036
Mof_C 	C 	0.7965	0.2899	0.2787	-0.07
Mof_H 	H 	0.8355	0.262	0.2966	0.066
Mof_C 	C 	0.7423	0.238	0.2834	0.046
Mof_H 	H 	0.7458	0.1755	0.3051	0.026
Mof_C 	C 	0.682	0.3638	0.2294	0.05
Mof_H 	H 	0.6425	0.3906	0.2125	0.023
Mof_C 	C 	0.7332	0.4202	0.2227	-0.073
Mof_H 	H 	0.7281	0.4835	0.2017	0.064
Mof_C 	C 	0.9463	0.0555	0.2259	-0.067
Mof_H 	H 	0.9094	0.0202	0.2091	0.065
Mof_C 	C 	0.948	0.1644	0.2272	0.05
Mof_H 	H 	0.9114	0.2015	0.2115	0.024
Mof_C 	C 	0.9188	0.3654	0.1149	0.084
Mof_H 	H 	0.8867	0.3557	0.1347	0.009
Mof_C 	C 	0.9067	0.3469	0.0553	-0.143
Mof_H 	H 	0.8668	0.3257	0.0355	0.077
Mof_C 	C 	0.9534	0.3597	0.0248	0.071
Mof_C 	C 	0.0108	0.3904	0.0567	-0.15
Mof_H 	H 	0.0438	0.3989	0.038	0.085
Mof_C 	C 	0.0201	0.4088	0.1159	0.087
Mof_H 	H 	0.0596	0.4307	0.1363	0.019
Mof_C 	C 	0.9415	0.343	0.9602	0.051
Mof_C 	C 	0.8849	0.3674	0.9235	-0.135
Mof_H 	H 	0.8521	0.3913	0.9395	0.074
Mof_C 	C 	0.8762	0.3569	0.8641	0.079
Mof_H 	H 	0.8369	0.3722	0.8407	0.012
Mof_C 	C 	0.9763	0.2996	0.8731	0.092
Mof_H 	H 	0.0081	0.2748	0.856	0.019
Mof_C 	C 	0.9882	0.3072	0.9333	-0.127
Mof_H 	H 	0.0273	0.2885	0.956	0.075
Mof_C 	C 	0.834	0.6205	0.0981	0.079
Mof_H 	H 	0.8431	0.551	0.1105	0.017
Mof_C 	C 	0.7897	0.6372	0.0464	-0.134
Mof_H 	H 	0.7701	0.5796	0.025	0.073
Mof_C 	C 	0.7745	0.7389	0.0267	0.054
Mof_C 	C 	0.8075	0.818	0.0606	-0.133
Mof_H 	H 	0.8002	0.8883	0.049	0.073
Mof_C 	C 	0.8512	0.7952	0.1113	0.078
Mof_H 	H 	0.8725	0.8512	0.1329	0.017
Mof_Cd	Cd	0.4055	0.17684	0.23455	0.492
Mof_O 	O 	0.40043	0.8926	0.2562	-0.298
Mof_O 	O 	0.34399	0.0336	0.2232	-0.294
Mof_O 	O 	0.44932	0.3352	0.22814	-0.29
Mof_N 	N 	0.18528	0.7734	0.2584	-0.139
Mof_N 	N 	0.4751	0.8967	0.1458	-0.145
Mof_N 	N 	0.4219	0.8256	0.8377	-0.145
Mof_N 	N 	0.3643	0.1979	0.1309	-0.147
Mof_C 	C 	0.3503	0.9404	0.2418	0.319
Mof_C 	C 	0.2927	0.8825	0.2474	-0.036
Mof_C 	C 	0.2965	0.7899	0.2787	-0.07
Mof_H 	H 	0.3355	0.762	0.2966	0.066
Mof_C 	C 	0.2423	0.738	0.2834	0.046
Mof_H 	H 	0.2458	0.6755	0.3051	0.026
Mof_C 	C 	0.182	0.8638	0.2294	0.05
Mof_H 	H 	0.1425	0.8906	0.2125	0.023
Mof_C 	C 	0.2332	0.9202	0.2227	-0.073
Mof_H 	H 	0.2281	0.9835	0.2017	0.064
Mof_C 	C 	0.4463	0.5555	0.2259	-0.074
Mof_H 	H 	0.4094	0.5202	0.2091	0.066
Mof_C 	C 	0.448	0.6644	0.2272	0.048
Mof_H 	H 	0.4114	0.7015	0.2115	0.024
Mof_C 	C 	0.4188	0.8654	0.1149	0.08
Mof_H 	H 	0.3867	0.8557	0.1347	0.01
Mof_C 	C 	0.4067	0.8469	0.0553	-0.138
Mof_H 	H 	0.3668	0.8257	0.0355	0.075
Mof_C 	C 	0.4534	0.8597	0.0248	0.06
Mof_C 	C 	0.5108	0.8904	0.0567	-0.141
Mof_H 	H 	0.5438	0.8989	0.038	0.082
Mof_C 	C 	0.5201	0.9088	0.1159	0.087
Mof_H 	H 	0.5596	0.9307	0.1363	0.019
Mof_C 	C 	0.4415	0.843	0.9602	0.059
Mof_C 	C 	0.3849	0.8674	0.9235	-0.14
Mof_H 	H 	0.3521	0.8913	0.9395	0.076
Mof_C 	C 	0.3762	0.8569	0.8641	0.082
Mof_H 	H 	0.3369	0.8722	0.8407	0.011
Mof_C 	C 	0.4763	0.7996	0.8731	0.089
Mof_H 	H 	0.5081	0.7748	0.856	0.023
Mof_C 	C 	0.4882	0.8072	0.9333	-0.137
Mof_H 	H 	0.5273	0.7885	0.956	0.082
Mof_C 	C 	0.334	0.1205	0.0981	0.08
Mof_H 	H 	0.3431	0.051	0.1105	0.017
Mof_C 	C 	0.2897	0.1372	0.0464	-0.135
Mof_H 	H 	0.2701	0.0796	0.025	0.073
Mof_C 	C 	0.2745	0.2389	0.0267	0.057
Mof_C 	C 	0.3075	0.318	0.0606	-0.135
Mof_H 	H 	0.3002	0.3883	0.049	0.074
Mof_C 	C 	0.3512	0.2952	0.1113	0.079
Mof_H 	H 	0.3725	0.3512	0.1329	0.017
Mof_Cd	Cd	0.9055	0.32316	0.73455	0.494
Mof_O 	O 	0.90043	0.6074	0.7562	-0.296
Mof_O 	O 	0.84399	0.4664	0.7232	-0.294
Mof_O 	O 	0.94932	0.1648	0.72814	-0.287
Mof_N 	N 	0.68528	0.7266	0.7584	-0.139
Mof_N 	N 	0.9751	0.6033	0.6458	-0.142
Mof_N 	N 	0.9219	0.6744	0.3377	-0.145
Mof_N 	N 	0.8643	0.3021	0.6309	-0.147
Mof_C 	C 	0.8503	0.5596	0.7418	0.32
Mof_C 	C 	0.7927	0.6175	0.7474	-0.036
Mof_C 	C 	0.7965	0.7101	0.7787	-0.07
Mof_H 	H 	0.8355	0.738	0.7966	0.066
Mof_C 	C 	0.7423	0.762	0.7834	0.046
Mof_H 	H 	0.7458	0.8245	0.8051	0.026
Mof_C 	C 	0.682	0.6362	0.7294	0.05
Mof_H 	H 	0.6425	0.6094	0.7125	0.023
Mof_C 	C 	0.7332	0.5798	0.7227	-0.073
Mof_H 	H 	0.7281	0.5165	0.7017	0.064
Mof_C 	C 	0.9463	0.9445	0.7259	-0.067
Mof_H 	H 	0.9094	0.9798	0.7091	0.064
Mof_C 	C 	0.948	0.8356	0.7272	0.05
Mof_H 	H 	0.9114	0.7985	0.7115	0.024
Mof_C 	C 	0.9188	0.6346	0.6149	0.084
Mof_H 	H 	0.8867	0.6443	0.6347	0.009
Mof_C 	C 	0.9067	0.6531	0.5553	-0.143
Mof_H 	H 	0.8668	0.6743	0.5355	0.077
Mof_C 	C 	0.9534	0.6403	0.5248	0.071
Mof_C 	C 	0.0108	0.6096	0.5567	-0.15
Mof_H 	H 	0.0438	0.6011	0.538	0.085
Mof_C 	C 	0.0201	0.5912	0.6159	0.087
Mof_H 	H 	0.0596	0.5693	0.6363	0.019
Mof_C 	C 	0.9415	0.657	0.4602	0.051
Mof_C 	C 	0.8849	0.6326	0.4235	-0.135
Mof_H 	H 	0.8521	0.6087	0.4395	0.074
Mof_C 	C 	0.8762	0.6431	0.3641	0.079
Mof_H 	H 	0.8369	0.6278	0.3407	0.012
Mof_C 	C 	0.9763	0.7004	0.3731	0.092
Mof_H 	H 	0.0081	0.7252	0.356	0.019
Mof_C 	C 	0.9882	0.6928	0.4333	-0.127
Mof_H 	H 	0.0273	0.7115	0.456	0.076
Mof_C 	C 	0.834	0.3795	0.5981	0.08
Mof_H 	H 	0.8431	0.449	0.6105	0.017
Mof_C 	C 	0.7897	0.3628	0.5464	-0.134
Mof_H 	H 	0.7701	0.4204	0.525	0.073
Mof_C 	C 	0.7745	0.2611	0.5267	0.056
Mof_C 	C 	0.8075	0.182	0.5606	-0.134
Mof_H 	H 	0.8002	0.1117	0.549	0.074
Mof_C 	C 	0.8512	0.2048	0.6113	0.078
Mof_H 	H 	0.8725	0.1488	0.6329	0.017
Mof_Cd	Cd	0.4055	0.82316	0.73455	0.492
Mof_O 	O 	0.40043	0.1074	0.7562	-0.298
Mof_O 	O 	0.34399	0.9664	0.7232	-0.294
Mof_O 	O 	0.44932	0.6648	0.72814	-0.29
Mof_N 	N 	0.18528	0.2266	0.7584	-0.139
Mof_N 	N 	0.4751	0.1033	0.6458	-0.145
Mof_N 	N 	0.4219	0.1744	0.3377	-0.145
Mof_N 	N 	0.3643	0.8021	0.6309	-0.147
Mof_C 	C 	0.3503	0.0596	0.7418	0.319
Mof_C 	C 	0.2927	0.1175	0.7474	-0.036
Mof_C 	C 	0.2965	0.2101	0.7787	-0.07
Mof_H 	H 	0.3355	0.238	0.7966	0.066
Mof_C 	C 	0.2423	0.262	0.7834	0.046
Mof_H 	H 	0.2458	0.3245	0.8051	0.026
Mof_C 	C 	0.182	0.1362	0.7294	0.05
Mof_H 	H 	0.1425	0.1094	0.7125	0.023
Mof_C 	C 	0.2332	0.0798	0.7227	-0.073
Mof_H 	H 	0.2281	0.0165	0.7017	0.064
Mof_C 	C 	0.4463	0.4445	0.7259	-0.074
Mof_H 	H 	0.4094	0.4798	0.7091	0.066
Mof_C 	C 	0.448	0.3356	0.7272	0.048
Mof_H 	H 	0.4114	0.2985	0.7115	0.024
Mof_C 	C 	0.4188	0.1346	0.6149	0.08
Mof_H 	H 	0.3867	0.1443	0.6347	0.01
Mof_C 	C 	0.4067	0.1531	0.5553	-0.139
Mof_H 	H 	0.3668	0.1743	0.5355	0.075
Mof_C 	C 	0.4534	0.1403	0.5248	0.061
Mof_C 	C 	0.5108	0.1096	0.5567	-0.141
Mof_H 	H 	0.5438	0.1011	0.538	0.082
Mof_C 	C 	0.5201	0.0912	0.6159	0.088
Mof_H 	H 	0.5596	0.0693	0.6363	0.019
Mof_C 	C 	0.4415	0.157	0.4602	0.057
Mof_C 	C 	0.3849	0.1326	0.4235	-0.139
Mof_H 	H 	0.3521	0.1087	0.4395	0.076
Mof_C 	C 	0.3762	0.1431	0.3641	0.081
Mof_H 	H 	0.3369	0.1278	0.3407	0.011
Mof_C 	C 	0.4763	0.2004	0.3731	0.089
Mof_H 	H 	0.5081	0.2252	0.356	0.023
Mof_C 	C 	0.4882	0.1928	0.4333	-0.137
Mof_H 	H 	0.5273	0.2115	0.456	0.082
Mof_C 	C 	0.334	0.8795	0.5981	0.079
Mof_H 	H 	0.3431	0.949	0.6105	0.017
Mof_C 	C 	0.2897	0.8628	0.5464	-0.134
Mof_H 	H 	0.2701	0.9204	0.525	0.073
Mof_C 	C 	0.2745	0.7611	0.5267	0.056
Mof_C 	C 	0.3075	0.682	0.5606	-0.134
Mof_H 	H 	0.3002	0.6117	0.549	0.074
Mof_C 	C 	0.3512	0.7048	0.6113	0.078
Mof_H 	H 	0.3725	0.6488	0.6329	0.017
Mof_Cd	Cd	0.0945	0.32316	0.76545	0.491
Mof_O 	O 	0.09957	0.6074	0.7438	-0.298
Mof_O 	O 	0.15601	0.4664	0.7768	-0.295
Mof_O 	O 	0.05068	0.1648	0.77186	-0.29
Mof_N 	N 	0.31472	0.7266	0.7416	-0.139
Mof_N 	N 	0.0249	0.6033	0.8542	-0.146
Mof_N 	N 	0.0781	0.6744	0.1623	-0.145
Mof_N 	N 	0.1357	0.3021	0.8691	-0.147
Mof_C 	C 	0.1497	0.5596	0.7582	0.32
Mof_C 	C 	0.2073	0.6175	0.7526	-0.037
Mof_C 	C 	0.2035	0.7101	0.7213	-0.07
Mof_H 	H 	0.1645	0.738	0.7034	0.065
Mof_C 	C 	0.2577	0.762	0.7166	0.046
Mof_H 	H 	0.2542	0.8245	0.6949	0.026
Mof_C 	C 	0.318	0.6362	0.7706	0.05
Mof_H 	H 	0.3575	0.6094	0.7875	0.023
Mof_C 	C 	0.2668	0.5798	0.7773	-0.072
Mof_H 	H 	0.2719	0.5165	0.7983	0.064
Mof_C 	C 	0.0537	0.9445	0.7741	-0.071
Mof_H 	H 	0.0906	0.9798	0.7909	0.065
Mof_C 	C 	0.052	0.8356	0.7728	0.045
Mof_H 	H 	0.0886	0.7985	0.7885	0.025
Mof_C 	C 	0.0812	0.6346	0.8851	0.077
Mof_H 	H 	0.1133	0.6443	0.8653	0.011
Mof_C 	C 	0.0933	0.6531	0.9447	-0.134
Mof_H 	H 	0.1332	0.6743	0.9645	0.074
Mof_C 	C 	0.0466	0.6403	0.9752	0.052
Mof_C 	C 	0.9892	0.6096	0.9433	-0.133
Mof_H 	H 	0.9562	0.6011	0.962	0.08
Mof_C 	C 	0.9799	0.5912	0.8841	0.089
Mof_H 	H 	0.9404	0.5693	0.8637	0.02
Mof_C 	C 	0.0585	0.657	0.0398	0.063
Mof_C 	C 	0.1151	0.6326	0.0765	-0.143
Mof_H 	H 	0.1479	0.6087	0.0605	0.077
Mof_C 	C 	0.1238	0.6431	0.1359	0.083
Mof_H 	H 	0.1631	0.6278	0.1593	0.01
Mof_C 	C 	0.0237	0.7004	0.1269	0.085
Mof_H 	H 	0.9919	0.7252	0.144	0.027
Mof_C 	C 	0.0118	0.6928	0.0667	-0.145
Mof_H 	H 	0.9727	0.7115	0.044	0.087
Mof_C 	C 	0.166	0.3795	0.9019	0.079
Mof_H 	H 	0.1569	0.449	0.8895	0.017
Mof_C 	C 	0.2103	0.3628	0.9536	-0.134
Mof_H 	H 	0.2299	0.4204	0.975	0.073
Mof_C 	C 	0.2255	0.2611	0.9733	0.055
Mof_C 	C 	0.1925	0.182	0.9394	-0.134
Mof_H 	H 	0.1998	0.1117	0.951	0.073
Mof_C 	C 	0.1488	0.2048	0.8887	0.078
Mof_H 	H 	0.1275	0.1488	0.8671	0.017
Mof_Cd	Cd	0.5945	0.82316	0.76545	0.492
Mof_O 	O 	0.59957	0.1074	0.7438	-0.298
Mof_O 	O 	0.65601	0.9664	0.7768	-0.294
Mof_O 	O 	0.55068	0.6648	0.77186	-0.29
Mof_N 	N 	0.81472	0.2266	0.7416	-0.139
Mof_N 	N 	0.5249	0.1033	0.8542	-0.145
Mof_N 	N 	0.5781	0.1744	0.1623	-0.145
Mof_N 	N 	0.6357	0.8021	0.8691	-0.147
Mof_C 	C 	0.6497	0.0596	0.7582	0.319
Mof_C 	C 	0.7073	0.1175	0.7526	-0.036
Mof_C 	C 	0.7035	0.2101	0.7213	-0.07
Mof_H 	H 	0.6645	0.238	0.7034	0.066
Mof_C 	C 	0.7577	0.262	0.7166	0.046
Mof_H 	H 	0.7542	0.3245	0.6949	0.026
Mof_C 	C 	0.818	0.1362	0.7706	0.05
Mof_H 	H 	0.8575	0.1094	0.7875	0.023
Mof_C 	C 	0.7668	0.0798	0.7773	-0.073
Mof_H 	H 	0.7719	0.0165	0.7983	0.064
Mof_C 	C 	0.5537	0.4445	0.7741	-0.074
Mof_H 	H 	0.5906	0.4798	0.7909	0.066
Mof_C 	C 	0.552	0.3356	0.7728	0.048
Mof_H 	H 	0.5886	0.2985	0.7885	0.024
Mof_C 	C 	0.5812	0.1346	0.8851	0.08
Mof_H 	H 	0.6133	0.1443	0.8653	0.01
Mof_C 	C 	0.5933	0.1531	0.9447	-0.138
Mof_H 	H 	0.6332	0.1743	0.9645	0.075
Mof_C 	C 	0.5466	0.1403	0.9752	0.06
Mof_C 	C 	0.4892	0.1096	0.9433	-0.141
Mof_H 	H 	0.4562	0.1011	0.962	0.082
Mof_C 	C 	0.4799	0.0912	0.8841	0.087
Mof_H 	H 	0.4404	0.0693	0.8637	0.019
Mof_C 	C 	0.5585	0.157	0.0398	0.058
Mof_C 	C 	0.6151	0.1326	0.0765	-0.14
Mof_H 	H 	0.6479	0.1087	0.0605	0.076
Mof_C 	C 	0.6238	0.1431	0.1359	0.082
Mof_H 	H 	0.6631	0.1278	0.1593	0.011
Mof_C 	C 	0.5237	0.2004	0.1269	0.089
Mof_H 	H 	0.4919	0.2252	0.144	0.023
Mof_C 	C 	0.5118	0.1928	0.0667	-0.137
Mof_H 	H 	0.4727	0.2115	0.044	0.082
Mof_C 	C 	0.666	0.8795	0.9019	0.08
Mof_H 	H 	0.6569	0.949	0.8895	0.017
Mof_C 	C 	0.7103	0.8628	0.9536	-0.135
Mof_H 	H 	0.7299	0.9204	0.975	0.074
Mof_C 	C 	0.7255	0.7611	0.9733	0.057
Mof_C 	C 	0.6925	0.682	0.9394	-0.135
Mof_H 	H 	0.6998	0.6117	0.951	0.074
Mof_C 	C 	0.6488	0.7048	0.8887	0.079
Mof_H 	H 	0.6275	0.6488	0.8671	0.017
Mof_Cd	Cd	1.21832e-33	0.40863	0.25	0.493
Mof_F 	F 	9.08113e-18	0.5904	0.25	-0.475
Mof_N 	N 	9.08113e-18	0.2199	0.25	-0.137
Mof_C 	C 	9.08113e-18	0.8803	0.25	0.305
Mof_C 	C 	1.21832e-33	0.9991	0.25	-0.035
Mof_Cd	Cd	0.5	0.90863	0.25	0.496
Mof_F 	F 	0.5	0.0904	0.25	-0.473
Mof_N 	N 	0.5	0.7199	0.25	-0.135
Mof_C 	C 	0.5	0.3803	0.25	0.309
Mof_C 	C 	0.5	0.4991	0.25	-0.028
Mof_Cd	Cd	3.65496e-33	0.59137	0.75	0.492
Mof_F 	F 	3.63245e-17	0.4096	0.75	-0.475
Mof_N 	N 	3.65496e-33	0.7801	0.75	-0.137
Mof_C 	C 	3.65496e-33	0.1197	0.75	0.305
Mof_C 	C 	3.65496e-33	0.0009	0.75	-0.035
Mof_Cd	Cd	0.5	0.09137	0.75	0.496
Mof_F 	F 	0.5	0.9096	0.75	-0.473
Mof_N 	N 	0.5	0.2801	0.75	-0.135
Mof_C 	C 	0.5	0.6197	0.75	0.309
Mof_C 	C 	0.5	0.5009	0.75	-0.028
_end
