data_functionalizedCrystal
_audit_creation_method	'EQeq! by Chris Wilmer'
_symmetry_space_group_name_H-M	'P1'
_symmetry_Int_Tables_number	1
_symmetry_cell_setting	triclinic
loop_
_symmetry_equiv_pos_as_xyz
  x,y,z
_cell_length_a	9.2161
_cell_length_b	13.5618
_cell_length_c	14.6623
_cell_angle_alpha	90
_cell_angle_beta	90.209
_cell_angle_gamma	90
loop_
_atom_site_label
_atom_site_type_symbol
_atom_site_fract_x
_atom_site_fract_y
_atom_site_fract_z
_atom_site_charge
Mof_Sm	Sm	0.75075	0.99773	0.59306	2.509
Mof_C 	C 	0.5038	0.8891	0.8294	-0.064
Mof_C 	C 	0.5284	0.7958	0.866	0.032
Mof_H 	H 	0.5951	0.7522	0.8376	0.037
Mof_C 	C 	0.4548	0.7664	0.9447	-0.141
Mof_C 	C 	0.3637	0.8334	0.9886	-0.041
Mof_H 	H 	0.3151	0.8137	0.0427	0.058
Mof_C 	C 	0.3423	0.9286	0.955	0.077
Mof_C 	C 	0.4115	0.9549	0.8738	-0.073
Mof_H 	H 	0.3954	0.0185	0.8484	0.071
Mof_C 	C 	0.2574	0.0024	0.01	-0.24
Mof_H 	H 	0.1955	0.9657	0.0534	0.109
Mof_H 	H 	0.3269	0.0419	0.0464	0.107
Mof_C 	C 	0.1623	0.0724	0.957	0.083
Mof_C 	C 	0.1426	0.1671	0.9897	-0.042
Mof_H 	H 	0.1968	0.1887	0.0412	0.059
Mof_C 	C 	0.0434	0.2319	0.9477	-0.157
Mof_C 	C 	0.9667	0.2	0.8709	0.041
Mof_H 	H 	0.8962	0.2416	0.8433	0.035
Mof_C 	C 	0.9939	0.1067	0.8349	-0.053
Mof_C 	C 	0.0906	0.0431	0.8785	-0.097
Mof_H 	H 	0.1073	0.9792	0.8541	0.083
Mof_C 	C 	0.583	0.9254	0.746	0.314
Mof_C 	C 	0.4746	0.6654	0.9857	0.52
Mof_C 	C 	0.0255	0.3347	0.986	0.563
Mof_C 	C 	0.9139	0.0684	0.7521	0.308
Mof_O 	O 	0.5263	0.9928	0.6993	-0.419
Mof_O 	O 	0.7041	0.8882	0.7278	-0.432
Mof_O 	O 	0.5654	0.6087	0.9503	-0.611
Mof_O 	O 	0.398	0.6429	0.0532	-0.565
Mof_O 	O 	0.1172	0.3629	0.0432	-0.603
Mof_O 	O 	0.9215	0.3837	0.9588	-0.633
Mof_O 	O 	0.7937	0.106	0.731	-0.425
Mof_O 	O 	0.971	0.9994	0.7058	-0.406
Mof_Sm	Sm	0.74925	0.49773	0.90694	2.508
Mof_C 	C 	0.9962	0.3891	0.6706	-0.064
Mof_C 	C 	0.9716	0.2958	0.634	0.036
Mof_H 	H 	0.9049	0.2522	0.6624	0.036
Mof_C 	C 	0.0452	0.2664	0.5553	-0.146
Mof_C 	C 	0.1363	0.3334	0.5114	-0.037
Mof_H 	H 	0.1849	0.3137	0.4573	0.056
Mof_C 	C 	0.1577	0.4286	0.545	0.074
Mof_C 	C 	0.0885	0.4549	0.6262	-0.077
Mof_H 	H 	0.1046	0.5185	0.6516	0.073
Mof_C 	C 	0.2426	0.5024	0.49	-0.233
Mof_H 	H 	0.3045	0.4657	0.4466	0.105
Mof_H 	H 	0.1731	0.5419	0.4536	0.105
Mof_C 	C 	0.3377	0.5724	0.543	0.074
Mof_C 	C 	0.3574	0.6671	0.5103	-0.03
Mof_H 	H 	0.3032	0.6887	0.4588	0.053
Mof_C 	C 	0.4566	0.7319	0.5523	-0.158
Mof_C 	C 	0.5333	0.7	0.6291	0.041
Mof_H 	H 	0.6038	0.7416	0.6567	0.034
Mof_C 	C 	0.5061	0.6067	0.6651	-0.066
Mof_C 	C 	0.4094	0.5431	0.6215	-0.073
Mof_H 	H 	0.3927	0.4792	0.6459	0.073
Mof_C 	C 	0.917	0.4254	0.754	0.314
Mof_C 	C 	0.0254	0.1654	0.5143	0.516
Mof_C 	C 	0.4745	0.8347	0.514	0.577
Mof_C 	C 	0.5861	0.5684	0.7479	0.306
Mof_O 	O 	0.9737	0.4928	0.8007	-0.421
Mof_O 	O 	0.7959	0.3882	0.7722	-0.432
Mof_O 	O 	0.9346	0.1087	0.5497	-0.606
Mof_O 	O 	0.102	0.1429	0.4468	-0.565
Mof_O 	O 	0.3828	0.8629	0.4568	-0.608
Mof_O 	O 	0.5785	0.8837	0.5412	-0.64
Mof_O 	O 	0.7063	0.606	0.769	-0.425
Mof_O 	O 	0.529	0.4994	0.7942	-0.403
Mof_Sm	Sm	0.24925	0.00227	0.40694	2.508
Mof_C 	C 	0.4962	0.1109	0.1706	-0.065
Mof_C 	C 	0.4716	0.2042	0.134	0.032
Mof_H 	H 	0.4049	0.2478	0.1624	0.037
Mof_C 	C 	0.5452	0.2336	0.0553	-0.141
Mof_C 	C 	0.6363	0.1666	0.0114	-0.041
Mof_H 	H 	0.6849	0.1863	0.9573	0.058
Mof_C 	C 	0.6577	0.0714	0.045	0.077
Mof_C 	C 	0.5885	0.0451	0.1262	-0.073
Mof_H 	H 	0.6046	0.9815	0.1516	0.071
Mof_C 	C 	0.7426	0.9976	0.99	-0.24
Mof_H 	H 	0.8045	0.0343	0.9466	0.109
Mof_H 	H 	0.6731	0.9581	0.9536	0.107
Mof_C 	C 	0.8377	0.9276	0.043	0.083
Mof_C 	C 	0.8574	0.8329	0.0103	-0.042
Mof_H 	H 	0.8032	0.8113	0.9588	0.059
Mof_C 	C 	0.9566	0.7681	0.0523	-0.157
Mof_C 	C 	0.0333	0.8	0.1291	0.041
Mof_H 	H 	0.1038	0.7584	0.1567	0.035
Mof_C 	C 	0.0061	0.8933	0.1651	-0.053
Mof_C 	C 	0.9094	0.9569	0.1215	-0.097
Mof_H 	H 	0.8927	0.0208	0.1459	0.083
Mof_C 	C 	0.417	0.0746	0.254	0.314
Mof_C 	C 	0.5254	0.3346	0.0143	0.52
Mof_C 	C 	0.9745	0.6653	0.014	0.563
Mof_C 	C 	0.0861	0.9316	0.2479	0.308
Mof_O 	O 	0.4737	0.0072	0.3007	-0.419
Mof_O 	O 	0.2959	0.1118	0.2722	-0.432
Mof_O 	O 	0.4346	0.3913	0.0497	-0.611
Mof_O 	O 	0.602	0.3571	0.9468	-0.565
Mof_O 	O 	0.8828	0.6371	0.9568	-0.603
Mof_O 	O 	0.0785	0.6163	0.0412	-0.633
Mof_O 	O 	0.2063	0.894	0.269	-0.425
Mof_O 	O 	0.029	0.0006	0.2942	-0.406
Mof_Sm	Sm	0.25075	0.50227	0.09306	2.508
Mof_C 	C 	0.0038	0.6109	0.3294	-0.064
Mof_C 	C 	0.0284	0.7042	0.366	0.036
Mof_H 	H 	0.0951	0.7478	0.3376	0.036
Mof_C 	C 	0.9548	0.7336	0.4447	-0.146
Mof_C 	C 	0.8637	0.6666	0.4886	-0.037
Mof_H 	H 	0.8151	0.6863	0.5427	0.056
Mof_C 	C 	0.8423	0.5714	0.455	0.074
Mof_C 	C 	0.9115	0.5451	0.3738	-0.077
Mof_H 	H 	0.8954	0.4815	0.3484	0.073
Mof_C 	C 	0.7574	0.4976	0.51	-0.233
Mof_H 	H 	0.6955	0.5343	0.5534	0.105
Mof_H 	H 	0.8269	0.4581	0.5464	0.105
Mof_C 	C 	0.6623	0.4276	0.457	0.074
Mof_C 	C 	0.6426	0.3329	0.4897	-0.03
Mof_H 	H 	0.6968	0.3113	0.5412	0.053
Mof_C 	C 	0.5434	0.2681	0.4477	-0.158
Mof_C 	C 	0.4667	0.3	0.3709	0.041
Mof_H 	H 	0.3962	0.2584	0.3433	0.034
Mof_C 	C 	0.4939	0.3933	0.3349	-0.066
Mof_C 	C 	0.5906	0.4569	0.3785	-0.073
Mof_H 	H 	0.6073	0.5208	0.3541	0.073
Mof_C 	C 	0.083	0.5746	0.246	0.314
Mof_C 	C 	0.9746	0.8346	0.4857	0.516
Mof_C 	C 	0.5255	0.1653	0.486	0.577
Mof_C 	C 	0.4139	0.4316	0.2521	0.306
Mof_O 	O 	0.0263	0.5072	0.1993	-0.421
Mof_O 	O 	0.2041	0.6118	0.2278	-0.432
Mof_O 	O 	0.0654	0.8913	0.4503	-0.606
Mof_O 	O 	0.898	0.8571	0.5532	-0.565
Mof_O 	O 	0.6172	0.1371	0.5432	-0.608
Mof_O 	O 	0.4215	0.1163	0.4588	-0.64
Mof_O 	O 	0.2937	0.394	0.231	-0.425
Mof_O 	O 	0.471	0.5006	0.2058	-0.403
_end
