# CIF file generated by openbabel 3.1.0, see https://openbabel.org
data_I
_chemical_name_common 'image0'
_cell_length_a 16.143
_cell_length_b 7.7507
_cell_length_c 27.374
_cell_angle_alpha 90
_cell_angle_beta 93.077
_cell_angle_gamma 90
_space_group_name_H-M_alt 'P 1'
_space_group_name_Hall 'P 1'
loop_
    _symmetry_equiv_pos_as_xyz
    x,y,z
loop_
    _atom_site_label
    _atom_site_type_symbol
    _atom_site_fract_x
    _atom_site_fract_y
    _atom_site_fract_z
    _atom_site_occupancy
    C1       C        0.78970    0.40790    0.66230    1.000
    C2       C        0.80230    0.28300    0.62040    1.000
    H1       H        0.82200    0.17300    0.63400    1.000
    C3       C        0.98340    0.28860    0.38670    1.000
    H2       H        0.98410    0.27440    0.42190    1.000
    H3       H        0.99430    0.40900    0.37970    1.000
    C4       C        0.05150    0.17560    0.36580    1.000
    H4       H        0.10530    0.21270    0.37930    1.000
    H5       H        0.04340    0.05650    0.37530    1.000
    C5       C        0.04920    0.18820    0.31090    1.000
    H6       H        0.06200    0.30800    0.30200    1.000
    C6       C        0.96360    0.14580    0.29030    1.000
    H7       H        0.95320    0.02410    0.29550    1.000
    H8       H        0.96130    0.16620    0.25530    1.000
    C7       C        0.89580    0.24950    0.31270    1.000
    H9       H        0.89960    0.36890    0.30240    1.000
    H10      H        0.84220    0.20530    0.30100    1.000
    C8       C        0.83840    0.20780    0.39280    1.000
    C9       C        0.70450    0.12050    0.39930    1.000
    C10      C        0.78460    0.18250    0.46760    1.000
    C11      C        0.48150    0.04560    0.38350    1.000
    H11      H        0.47460    0.17000    0.38340    1.000
    H12      H        0.43900    0.99630    0.40300    1.000
    C12      C        0.47060    0.97770    0.33090    1.000
    H13      H        0.47600    0.85200    0.33200    1.000
    C13      C        0.54230    0.05200    0.30280    1.000
    H14      H        0.53890    0.00650    0.26970    1.000
    H15      H        0.53630    0.17630    0.30070    1.000
    C14      C        0.62680    0.00990    0.32640    1.000
    H16      H        0.63650    0.88660    0.32450    1.000
    H17      H        0.66940    0.06820    0.30890    1.000
    C15      C        0.56680    0.00020    0.40650    1.000
    H18      H        0.57270    0.04900    0.43920    1.000
    H19      H        0.57190    0.87590    0.40940    1.000
    C16      C        0.86520    0.34720    0.58540    1.000
    H20      H        0.91910    0.35480    0.60270    1.000
    H21      H        0.84960    0.46230    0.57450    1.000
    C17      C        0.72070    0.25080    0.59200    1.000
    H22      H        0.69750    0.36050    0.58100    1.000
    H23      H        0.68220    0.19820    0.61350    1.000
    C18      C        0.87160    0.23200    0.54160    1.000
    H24      H        0.90840    0.28480    0.51910    1.000
    H25      H        0.89570    0.12260    0.55210    1.000
    C19      C        0.72940    0.13690    0.54870    1.000
    H26      H        0.74480    0.02180    0.55980    1.000
    H27      H        0.67630    0.12890    0.53040    1.000
    C20      C        0.11370    0.07290    0.29070    1.000
    C21      C        0.38850    0.02210    0.30620    1.000
    Ce1      Ce       0.22396    0.87143    0.23388    1.000
    N1       N        0.70820    0.13250    0.44860    1.000
    N2       N        0.63130    0.06500    0.37770    1.000
    N3       N        0.85010    0.21550    0.44250    1.000
    N4       N        0.76430    0.16600    0.36950    1.000
    N5       N        0.90250    0.24100    0.36530    1.000
    N6       N        0.79170    0.20070    0.51640    1.000
    O1       O        0.78290    0.34750    0.70580    1.000
    O2       O        0.78610    0.56580    0.65520    1.000
    O3       O        0.34820    0.90570    0.28420    1.000
    O4       O        0.09800    0.91750    0.28060    1.000
    O5       O        0.18770    0.12730    0.28420    1.000
    O6       O        0.36500    0.17690    0.30700    1.000
    C22      C        0.71030    0.90790    0.83770    1.000
    C23      C        0.69770    0.78300    0.87960    1.000
    H28      H        0.67800    0.67300    0.86600    1.000
    C24      C        0.51660    0.78860    0.11330    1.000
    H29      H        0.51590    0.77440    0.07810    1.000
    H30      H        0.50570    0.90900    0.12030    1.000
    C25      C        0.44850    0.67560    0.13420    1.000
    H31      H        0.39470    0.71270    0.12070    1.000
    H32      H        0.45660    0.55650    0.12470    1.000
    C26      C        0.45080    0.68820    0.18910    1.000
    H33      H        0.43800    0.80800    0.19800    1.000
    C27      C        0.53640    0.64580    0.20970    1.000
    H34      H        0.54680    0.52410    0.20450    1.000
    H35      H        0.53870    0.66620    0.24470    1.000
    C28      C        0.60420    0.74950    0.18730    1.000
    H36      H        0.60040    0.86890    0.19760    1.000
    H37      H        0.65780    0.70530    0.19900    1.000
    C29      C        0.66160    0.70780    0.10720    1.000
    C30      C        0.79550    0.62050    0.10070    1.000
    C31      C        0.71540    0.68250    0.03240    1.000
    C32      C        0.01850    0.54560    0.11650    1.000
    H38      H        0.02540    0.67000    0.11660    1.000
    H39      H        0.06100    0.49630    0.09700    1.000
    C33      C        0.02940    0.47770    0.16910    1.000
    H40      H        0.02400    0.35200    0.16800    1.000
    C34      C        0.95770    0.55200    0.19720    1.000
    H41      H        0.96110    0.50650    0.23030    1.000
    H42      H        0.96370    0.67630    0.19930    1.000
    C35      C        0.87320    0.50990    0.17360    1.000
    H43      H        0.86350    0.38660    0.17550    1.000
    H44      H        0.83060    0.56820    0.19110    1.000
    C36      C        0.93320    0.50020    0.09350    1.000
    H45      H        0.92730    0.54900    0.06080    1.000
    H46      H        0.92810    0.37590    0.09060    1.000
    C37      C        0.63480    0.84720    0.91460    1.000
    H47      H        0.58090    0.85480    0.89730    1.000
    H48      H        0.65040    0.96230    0.92550    1.000
    C38      C        0.77930    0.75080    0.90800    1.000
    H49      H        0.80250    0.86050    0.91900    1.000
    H50      H        0.81780    0.69820    0.88650    1.000
    C39      C        0.62840    0.73200    0.95840    1.000
    H51      H        0.59160    0.78480    0.98090    1.000
    H52      H        0.60430    0.62260    0.94790    1.000
    C40      C        0.77060    0.63690    0.95130    1.000
    H53      H        0.75520    0.52180    0.94020    1.000
    H54      H        0.82370    0.62890    0.96960    1.000
    C41      C        0.38630    0.57290    0.20930    1.000
    C42      C        0.11150    0.52210    0.19380    1.000
    Ce2      Ce       0.27604    0.37143    0.26613    1.000
    N7       N        0.79180    0.63250    0.05140    1.000
    N8       N        0.86870    0.56500    0.12230    1.000
    N9       N        0.64990    0.71550    0.05750    1.000
    N10      N        0.73570    0.66600    0.13050    1.000
    N11      N        0.59750    0.74100    0.13470    1.000
    N12      N        0.70830    0.70070    0.98360    1.000
    O7       O        0.71710    0.84750    0.79420    1.000
    O8       O        0.71390    0.06580    0.84480    1.000
    O9       O        0.15180    0.40570    0.21580    1.000
    O10      O        0.40200    0.41750    0.21940    1.000
    O11      O        0.31230    0.62730    0.21580    1.000
    O12      O        0.13500    0.67690    0.19300    1.000
    C43      C        0.21030    0.59210    0.33770    1.000
    C44      C        0.19770    0.71700    0.37960    1.000
    H55      H        0.17800    0.82700    0.36600    1.000
    C45      C        0.01660    0.71140    0.61330    1.000
    H56      H        0.01590    0.72560    0.57810    1.000
    H57      H        0.00570    0.59100    0.62030    1.000
    C46      C        0.94850    0.82440    0.63420    1.000
    H58      H        0.89470    0.78730    0.62070    1.000
    H59      H        0.95660    0.94350    0.62470    1.000
    C47      C        0.95080    0.81180    0.68910    1.000
    H60      H        0.93800    0.69200    0.69800    1.000
    C48      C        0.03640    0.85420    0.70970    1.000
    H61      H        0.04680    0.97590    0.70450    1.000
    H62      H        0.03870    0.83380    0.74470    1.000
    C49      C        0.10420    0.75050    0.68730    1.000
    H63      H        0.10040    0.63110    0.69760    1.000
    H64      H        0.15780    0.79470    0.69900    1.000
    C50      C        0.16160    0.79220    0.60720    1.000
    C51      C        0.29550    0.87950    0.60070    1.000
    C52      C        0.21540    0.81750    0.53240    1.000
    C53      C        0.51850    0.95440    0.61650    1.000
    H65      H        0.52540    0.83000    0.61660    1.000
    H66      H        0.56100    0.00370    0.59700    1.000
    C54      C        0.52940    0.02230    0.66910    1.000
    H67      H        0.52400    0.14800    0.66800    1.000
    C55      C        0.45770    0.94800    0.69720    1.000
    H68      H        0.46110    0.99350    0.73030    1.000
    H69      H        0.46370    0.82370    0.69930    1.000
    C56      C        0.37320    0.99010    0.67360    1.000
    H70      H        0.36350    0.11340    0.67550    1.000
    H71      H        0.33060    0.93180    0.69110    1.000
    C57      C        0.43320    0.99980    0.59350    1.000
    H72      H        0.42730    0.95100    0.56080    1.000
    H73      H        0.42810    0.12410    0.59060    1.000
    C58      C        0.13480    0.65280    0.41460    1.000
    H74      H        0.08090    0.64520    0.39730    1.000
    H75      H        0.15040    0.53770    0.42550    1.000
    C59      C        0.27930    0.74920    0.40800    1.000
    H76      H        0.30250    0.63950    0.41900    1.000
    H77      H        0.31780    0.80180    0.38650    1.000
    C60      C        0.12840    0.76800    0.45840    1.000
    H78      H        0.09160    0.71520    0.48090    1.000
    H79      H        0.10430    0.87740    0.44790    1.000
    C61      C        0.27060    0.86310    0.45130    1.000
    H80      H        0.25520    0.97820    0.44020    1.000
    H81      H        0.32370    0.87110    0.46960    1.000
    C62      C        0.88630    0.92710    0.70930    1.000
    C63      C        0.61150    0.97790    0.69380    1.000
    Ce3      Ce       0.77604    0.12857    0.76613    1.000
    N13      N        0.29180    0.86750    0.55140    1.000
    N14      N        0.36870    0.93500    0.62230    1.000
    N15      N        0.14990    0.78450    0.55750    1.000
    N16      N        0.23570    0.83400    0.63050    1.000
    N17      N        0.09750    0.75900    0.63470    1.000
    N18      N        0.20830    0.79930    0.48360    1.000
    O13      O        0.21710    0.65250    0.29420    1.000
    O14      O        0.21390    0.43420    0.34480    1.000
    O15      O        0.65180    0.09430    0.71580    1.000
    O16      O        0.90200    0.08250    0.71940    1.000
    O17      O        0.81230    0.87270    0.71580    1.000
    O18      O        0.63500    0.82310    0.69300    1.000
    C64      C        0.28970    0.09210    0.16230    1.000
    C65      C        0.30230    0.21700    0.12040    1.000
    H82      H        0.32200    0.32700    0.13400    1.000
    C66      C        0.48340    0.21140    0.88670    1.000
    H83      H        0.48410    0.22560    0.92190    1.000
    H84      H        0.49430    0.09100    0.87970    1.000
    C67      C        0.55150    0.32440    0.86580    1.000
    H85      H        0.60530    0.28730    0.87930    1.000
    H86      H        0.54340    0.44350    0.87530    1.000
    C68      C        0.54920    0.31180    0.81090    1.000
    H87      H        0.56200    0.19200    0.80200    1.000
    C69      C        0.46360    0.35420    0.79030    1.000
    H88      H        0.45320    0.47590    0.79550    1.000
    H89      H        0.46130    0.33380    0.75530    1.000
    C70      C        0.39580    0.25050    0.81270    1.000
    H90      H        0.39960    0.13110    0.80240    1.000
    H91      H        0.34220    0.29470    0.80100    1.000
    C71      C        0.33840    0.29220    0.89280    1.000
    C72      C        0.20450    0.37950    0.89930    1.000
    C73      C        0.28460    0.31750    0.96760    1.000
    C74      C        0.98150    0.45440    0.88350    1.000
    H92      H        0.97460    0.33000    0.88340    1.000
    H93      H        0.93900    0.50370    0.90300    1.000
    C75      C        0.97060    0.52230    0.83090    1.000
    H94      H        0.97600    0.64800    0.83200    1.000
    C76      C        0.04230    0.44800    0.80280    1.000
    H95      H        0.03890    0.49350    0.76970    1.000
    H96      H        0.03630    0.32370    0.80070    1.000
    C77      C        0.12680    0.49010    0.82640    1.000
    H97      H        0.13650    0.61340    0.82450    1.000
    H98      H        0.16940    0.43180    0.80890    1.000
    C78      C        0.06680    0.49980    0.90650    1.000
    H99      H        0.07270    0.45100    0.93920    1.000
    H100     H        0.07190    0.62410    0.90940    1.000
    C79      C        0.36520    0.15280    0.08540    1.000
    H101     H        0.41910    0.14520    0.10270    1.000
    H102     H        0.34960    0.03770    0.07450    1.000
    C80      C        0.22070    0.24920    0.09200    1.000
    H103     H        0.19750    0.13950    0.08100    1.000
    H104     H        0.18220    0.30180    0.11350    1.000
    C81      C        0.37160    0.26800    0.04160    1.000
    H105     H        0.40840    0.21520    0.01910    1.000
    H106     H        0.39570    0.37740    0.05210    1.000
    C82      C        0.22940    0.36310    0.04870    1.000
    H107     H        0.24480    0.47820    0.05980    1.000
    H108     H        0.17630    0.37110    0.03040    1.000
    C83      C        0.61370    0.42710    0.79070    1.000
    C84      C        0.88850    0.47790    0.80620    1.000
    Ce4      Ce       0.72396    0.62857    0.73388    1.000
    N19      N        0.20820    0.36750    0.94860    1.000
    N20      N        0.13130    0.43500    0.87770    1.000
    N21      N        0.35010    0.28450    0.94250    1.000
    N22      N        0.26430    0.33400    0.86950    1.000
    N23      N        0.40250    0.25900    0.86530    1.000
    N24      N        0.29170    0.29930    0.01640    1.000
    O19      O        0.28290    0.15250    0.20580    1.000
    O20      O        0.28610    0.93420    0.15520    1.000
    O21      O        0.84820    0.59430    0.78420    1.000
    O22      O        0.59800    0.58250    0.78060    1.000
    O23      O        0.68770    0.37270    0.78420    1.000
    O24      O        0.86500    0.32310    0.80700    1.000
