data_functionalizedCrystal
_audit_creation_method	'EQeq! by Chris Wilmer'
_symmetry_space_group_name_H-M	'P1'
_symmetry_Int_Tables_number	1
_symmetry_cell_setting	triclinic
loop_
_symmetry_equiv_pos_as_xyz
  x,y,z
_cell_length_a	9.003
_cell_length_b	12.046
_cell_length_c	18.87
_cell_angle_alpha	90
_cell_angle_beta	96.23
_cell_angle_gamma	90
loop_
_atom_site_label
_atom_site_type_symbol
_atom_site_fract_x
_atom_site_fract_y
_atom_site_fract_z
_atom_site_charge
Mof_Cd	Cd	0.75517	0.76037	0.59238	0.268
Mof_Cd	Cd	0.73093	0.00281	0.84512	0.281
Mof_Cd	Cd	0.24483	0.26037	0.90762	0.268
Mof_Cd	Cd	0.26907	0.50281	0.65488	0.282
Mof_Cd	Cd	0.24483	0.23963	0.40762	0.268
Mof_Cd	Cd	0.26907	0.99719	0.15488	0.281
Mof_Cd	Cd	0.75517	0.73963	0.09238	0.268
Mof_Cd	Cd	0.73093	0.49719	0.34512	0.282
Mof_C 	C 	0.732	0.9128	0.7422	-0.072
Mof_C 	C 	0.74	0.8684	0.6901	-0.068
Mof_C 	C 	0.752	0.6163	0.4375	-0.07
Mof_C 	C 	0.758	0.6709	0.4864	-0.069
Mof_C 	C 	0.07	0.615	0.6433	-0.074
Mof_C 	C 	0.9647	0.6661	0.6347	-0.061
Mof_C 	C 	0.477	0.5987	0.6443	-0.076
Mof_C 	C 	0.5825	0.6441	0.632	-0.06
Mof_C 	C 	0.268	0.4128	0.7578	-0.073
Mof_C 	C 	0.26	0.3684	0.8099	-0.068
Mof_C 	C 	0.248	0.1163	0.0625	-0.069
Mof_C 	C 	0.242	0.1709	0.0136	-0.068
Mof_C 	C 	0.93	0.115	0.8567	-0.074
Mof_C 	C 	0.0353	0.1661	0.8653	-0.061
Mof_C 	C 	0.523	0.0987	0.8557	-0.076
Mof_C 	C 	0.4175	0.1441	0.868	-0.06
Mof_C 	C 	0.268	0.0872	0.2578	-0.072
Mof_C 	C 	0.26	0.1316	0.3099	-0.068
Mof_C 	C 	0.248	0.3837	0.5625	-0.07
Mof_C 	C 	0.242	0.3291	0.5136	-0.069
Mof_C 	C 	0.93	0.385	0.3567	-0.074
Mof_C 	C 	0.0353	0.3339	0.3653	-0.061
Mof_C 	C 	0.523	0.4013	0.3557	-0.076
Mof_C 	C 	0.4175	0.3559	0.368	-0.06
Mof_C 	C 	0.732	0.5872	0.2422	-0.073
Mof_C 	C 	0.74	0.6316	0.1901	-0.068
Mof_C 	C 	0.752	0.8837	0.9375	-0.069
Mof_C 	C 	0.758	0.8291	0.9864	-0.068
Mof_C 	C 	0.07	0.885	0.1433	-0.074
Mof_C 	C 	0.9647	0.8339	0.1347	-0.061
Mof_C 	C 	0.477	0.9013	0.1443	-0.076
Mof_C 	C 	0.5825	0.8559	0.132	-0.06
_end
