data_functionalizedCrystal
_audit_creation_method	'EQeq! by Chris Wilmer'
_symmetry_space_group_name_H-M	'P1'
_symmetry_Int_Tables_number	1
_symmetry_cell_setting	triclinic
loop_
_symmetry_equiv_pos_as_xyz
  x,y,z
_cell_length_a	6.7107
_cell_length_b	18.7431
_cell_length_c	10.2809
_cell_angle_alpha	90
_cell_angle_beta	90
_cell_angle_gamma	90
loop_
_atom_site_label
_atom_site_type_symbol
_atom_site_fract_x
_atom_site_fract_y
_atom_site_fract_z
_atom_site_charge
Mof_O 	O 	0.1562	0.8325	0.158	-0.461
Mof_C 	C 	0.804	0.9638	0.026	0.026
Mof_O 	O 	0.6562	0.3325	0.658	-0.463
Mof_C 	C 	0.304	0.4638	0.526	0.04
Mof_O 	O 	0.8438	0.6675	0.158	-0.472
Mof_C 	C 	0.196	0.5362	0.026	0.036
Mof_O 	O 	0.3438	0.1675	0.658	-0.459
Mof_C 	C 	0.696	0.0362	0.526	0.034
Mof_O 	O 	0.8438	0.3325	0.842	-0.472
Mof_C 	C 	0.196	0.4638	0.974	0.036
Mof_O 	O 	0.3438	0.8325	0.342	-0.459
Mof_C 	C 	0.696	0.9638	0.474	0.034
Mof_O 	O 	0.1562	0.1675	0.842	-0.46
Mof_C 	C 	0.804	0.0362	0.974	0.027
Mof_O 	O 	0.6562	0.6675	0.342	-0.463
Mof_C 	C 	0.304	0.5362	0.474	0.04
Mof_O 	O 	0.8438	0.1675	0.842	-0.472
Mof_C 	C 	0.196	0.0362	0.974	0.036
Mof_O 	O 	0.3438	0.6675	0.342	-0.459
Mof_C 	C 	0.696	0.5362	0.474	0.034
Mof_O 	O 	0.1562	0.3325	0.842	-0.46
Mof_C 	C 	0.804	0.4638	0.974	0.027
Mof_O 	O 	0.6562	0.8325	0.342	-0.463
Mof_C 	C 	0.304	0.9638	0.474	0.04
Mof_O 	O 	0.1562	0.6675	0.158	-0.46
Mof_C 	C 	0.804	0.5362	0.026	0.027
Mof_O 	O 	0.6562	0.1675	0.658	-0.463
Mof_C 	C 	0.304	0.0362	0.526	0.04
Mof_O 	O 	0.8438	0.8325	0.158	-0.472
Mof_C 	C 	0.196	0.9638	0.026	0.036
Mof_O 	O 	0.3438	0.3325	0.658	-0.459
Mof_C 	C 	0.696	0.4638	0.526	0.034
Mof_V 	V 	0.25	0.75	0.25	1.86
Mof_V 	V 	0.75	0.75	0.25	1.858
Mof_V 	V 	0.75	0.25	0.75	1.858
Mof_V 	V 	0.25	0.25	0.75	1.86
Mof_O 	O 	6.64362e-33	0.75	0.30697	-0.689
Mof_O 	O 	0.5	0.25	0.80697	-0.698
Mof_O 	O 	-5.77982e-33	0.25	0.69303	-0.689
Mof_O 	O 	0.5	0.75	0.19303	-0.698
Mof_C 	C 	-6.46347e-33	0.94	0.043	-0.097
Mof_C 	C 	-5.4802e-34	0.8708	0.117	0.385
Mof_C 	C 	0.5	0.44	0.543	-0.108
Mof_C 	C 	0.5	0.3708	0.617	0.372
Mof_C 	C 	-6.46347e-33	0.56	0.043	-0.097
Mof_C 	C 	-5.4802e-34	0.6292	0.117	0.385
Mof_C 	C 	0.5	0.06	0.543	-0.108
Mof_C 	C 	0.5	0.1292	0.617	0.372
Mof_C 	C 	-1.40242e-32	0.44	0.957	-0.097
Mof_C 	C 	-2.421e-32	0.3708	0.883	0.385
Mof_C 	C 	0.5	0.94	0.457	-0.108
Mof_C 	C 	0.5	0.8708	0.383	0.372
Mof_C 	C 	-1.40242e-32	0.06	0.957	-0.097
Mof_C 	C 	-4.6886e-33	0.1292	0.883	0.385
Mof_C 	C 	0.5	0.56	0.457	-0.108
Mof_C 	C 	0.5	0.6292	0.383	0.372
_end
