# CIF file generated by openbabel 3.1.0, see https://openbabel.org
data_I
_chemical_name_common 'RAGYAB_clean'
_cell_length_a 8.5033
_cell_length_b 8.5033
_cell_length_c 30.9393
_cell_angle_alpha 90
_cell_angle_beta 90
_cell_angle_gamma 90
_space_group_name_H-M_alt 'P 1'
_space_group_name_Hall 'P 1'
loop_
    _symmetry_equiv_pos_as_xyz
    x,y,z
loop_
    _atom_site_label
    _atom_site_type_symbol
    _atom_site_fract_x
    _atom_site_fract_y
    _atom_site_fract_z
    _atom_site_occupancy
    Ba1      Ba       0.49761    0.49614    0.57778    1.000
    Ba2      Ba       0.50239    0.50386    0.07778    1.000
    Ba3      Ba       0.50386    0.49761    0.32778    1.000
    Ba4      Ba       0.49614    0.50239    0.82778    1.000
    Ge1      Ge       0.00136    0.99681    0.49840    1.000
    Ge2      Ge       0.99973    0.00039    0.65007    1.000
    Ge3      Ge       0.99864    0.00319    0.99840    1.000
    Ge4      Ge       0.00027    0.99961    0.15007    1.000
    Ge5      Ge       0.00319    0.00136    0.24840    1.000
    Ge6      Ge       0.99961    0.99973    0.40007    1.000
    Ge7      Ge       0.99681    0.99864    0.74840    1.000
    Ge8      Ge       0.00039    0.00027    0.90007    1.000
    H1       H        0.06850    0.35710    0.60710    1.000
    H2       H        0.93600    0.35560    0.54130    1.000
    H3       H        0.92590    0.64480    0.60770    1.000
    H4       H        0.06030    0.63690    0.54240    1.000
    H5       H        0.19120    0.09930    0.70130    1.000
    H6       H        0.81620    0.90400    0.69960    1.000
    H7       H        0.63620    0.52460    0.67800    1.000
    H8       H        0.93150    0.64290    0.10710    1.000
    H9       H        0.06400    0.64440    0.04130    1.000
    H10      H        0.07410    0.35520    0.10770    1.000
    H11      H        0.93970    0.36310    0.04240    1.000
    H12      H        0.80880    0.90070    0.20130    1.000
    H13      H        0.18380    0.09600    0.19960    1.000
    H14      H        0.36380    0.47540    0.17800    1.000
    H15      H        0.64290    0.06850    0.35710    1.000
    H16      H        0.64440    0.93600    0.29130    1.000
    H17      H        0.35520    0.92590    0.35770    1.000
    H18      H        0.36310    0.06030    0.29240    1.000
    H19      H        0.90070    0.19120    0.45130    1.000
    H20      H        0.09600    0.81620    0.44960    1.000
    H21      H        0.47540    0.63620    0.42800    1.000
    H22      H        0.35710    0.93150    0.85710    1.000
    H23      H        0.35560    0.06400    0.79130    1.000
    H24      H        0.64480    0.07410    0.85770    1.000
    H25      H        0.63690    0.93970    0.79240    1.000
    H26      H        0.09930    0.80880    0.95130    1.000
    H27      H        0.90400    0.18380    0.94960    1.000
    H28      H        0.52460    0.36380    0.92800    1.000
    C1       C        0.85260    0.25710    0.62015    1.000
    C2       C        0.01470    0.25970    0.59882    1.000
    C3       C        0.99210    0.25930    0.54941    1.000
    C4       C        0.15160    0.25950    0.52682    1.000
    C5       C        0.14360    0.73830    0.62109    1.000
    C6       C        0.98340    0.73960    0.59899    1.000
    C7       C        0.00710    0.73520    0.55001    1.000
    C8       C        0.84750    0.73830    0.52809    1.000
    C9       C        0.14740    0.74290    0.12015    1.000
    C10      C        0.98530    0.74030    0.09882    1.000
    C11      C        0.00790    0.74070    0.04941    1.000
    C12      C        0.84840    0.74050    0.02682    1.000
    C13      C        0.85640    0.26170    0.12109    1.000
    C14      C        0.01660    0.26040    0.09899    1.000
    C15      C        0.99290    0.26480    0.05001    1.000
    C16      C        0.15250    0.26170    0.02809    1.000
    C17      C        0.74290    0.85260    0.37015    1.000
    C18      C        0.74030    0.01470    0.34882    1.000
    C19      C        0.74070    0.99210    0.29941    1.000
    C20      C        0.74050    0.15160    0.27682    1.000
    C21      C        0.26170    0.14360    0.37109    1.000
    C22      C        0.26040    0.98340    0.34899    1.000
    C23      C        0.26480    0.00710    0.30001    1.000
    C24      C        0.26170    0.84750    0.27809    1.000
    C25      C        0.25710    0.14740    0.87015    1.000
    C26      C        0.25970    0.98530    0.84882    1.000
    C27      C        0.25930    0.00790    0.79941    1.000
    C28      C        0.25950    0.84840    0.77682    1.000
    C29      C        0.73830    0.85640    0.87109    1.000
    C30      C        0.73960    0.01660    0.84899    1.000
    C31      C        0.73520    0.99290    0.80001    1.000
    C32      C        0.73830    0.15250    0.77809    1.000
    O1       O        0.83140    0.14610    0.64765    1.000
    O2       O        0.75610    0.35730    0.61119    1.000
    O3       O        0.10580    0.13140    0.61261    1.000
    O4       O        0.90240    0.13000    0.53599    1.000
    O5       O        0.17350    0.14120    0.50085    1.000
    O6       O        0.24690    0.36340    0.53226    1.000
    O7       O        0.16860    0.85370    0.64764    1.000
    O8       O        0.23810    0.63370    0.61462    1.000
    O9       O        0.89600    0.87220    0.61191    1.000
    O10      O        0.10050    0.86310    0.53563    1.000
    O11      O        0.82890    0.85400    0.50030    1.000
    O12      O        0.74670    0.63990    0.53511    1.000
    O13      O        0.09370    0.09660    0.69978    1.000
    O14      O        0.90320    0.90080    0.69919    1.000
    O15      O        0.54880    0.55280    0.66586    1.000
    O16      O        0.16860    0.85390    0.14765    1.000
    O17      O        0.24390    0.64270    0.11119    1.000
    O18      O        0.89420    0.86860    0.11261    1.000
    O19      O        0.09760    0.87000    0.03599    1.000
    O20      O        0.82650    0.85880    0.00085    1.000
    O21      O        0.75310    0.63660    0.03226    1.000
    O22      O        0.83140    0.14630    0.14764    1.000
    O23      O        0.76190    0.36630    0.11462    1.000
    O24      O        0.10400    0.12780    0.11191    1.000
    O25      O        0.89950    0.13690    0.03563    1.000
    O26      O        0.17110    0.14600    0.00030    1.000
    O27      O        0.25330    0.36010    0.03511    1.000
    O28      O        0.90630    0.90340    0.19978    1.000
    O29      O        0.09680    0.09920    0.19919    1.000
    O30      O        0.45120    0.44720    0.16586    1.000
    O31      O        0.85390    0.83140    0.39765    1.000
    O32      O        0.64270    0.75610    0.36119    1.000
    O33      O        0.86860    0.10580    0.36261    1.000
    O34      O        0.87000    0.90240    0.28599    1.000
    O35      O        0.85880    0.17350    0.25085    1.000
    O36      O        0.63660    0.24690    0.28226    1.000
    O37      O        0.14630    0.16860    0.39764    1.000
    O38      O        0.36630    0.23810    0.36462    1.000
    O39      O        0.12780    0.89600    0.36191    1.000
    O40      O        0.13690    0.10050    0.28563    1.000
    O41      O        0.14600    0.82890    0.25030    1.000
    O42      O        0.36010    0.74670    0.28511    1.000
    O43      O        0.90340    0.09370    0.44978    1.000
    O44      O        0.09920    0.90320    0.44919    1.000
    O45      O        0.44720    0.54880    0.41586    1.000
    O46      O        0.14610    0.16860    0.89765    1.000
    O47      O        0.35730    0.24390    0.86119    1.000
    O48      O        0.13140    0.89420    0.86261    1.000
    O49      O        0.13000    0.09760    0.78599    1.000
    O50      O        0.14120    0.82650    0.75085    1.000
    O51      O        0.36340    0.75310    0.78226    1.000
    O52      O        0.85370    0.83140    0.89764    1.000
    O53      O        0.63370    0.76190    0.86462    1.000
    O54      O        0.87220    0.10400    0.86191    1.000
    O55      O        0.86310    0.89950    0.78563    1.000
    O56      O        0.85400    0.17110    0.75030    1.000
    O57      O        0.63990    0.25330    0.78511    1.000
    O58      O        0.09660    0.90630    0.94978    1.000
    O59      O        0.90080    0.09680    0.94919    1.000
    O60      O        0.55280    0.45120    0.91586    1.000
