data_functionalizedCrystal
_audit_creation_method	'EQeq! by Chris Wilmer'
_symmetry_space_group_name_H-M	'P1'
_symmetry_Int_Tables_number	1
_symmetry_cell_setting	triclinic
loop_
_symmetry_equiv_pos_as_xyz
  x,y,z
_cell_length_a	18.8754
_cell_length_b	18.8754
_cell_length_c	18.8754
_cell_angle_alpha	90
_cell_angle_beta	90
_cell_angle_gamma	90
loop_
_atom_site_label
_atom_site_type_symbol
_atom_site_fract_x
_atom_site_fract_y
_atom_site_fract_z
_atom_site_charge
Mof_N 	N 	0.13108	0.42056	0.08167	-0.102
Mof_N 	N 	0.17569	0.36802	0.09165	-0.097
Mof_N 	N 	0.86892	0.57944	0.08167	-0.098
Mof_N 	N 	0.82431	0.63198	0.09165	-0.096
Mof_N 	N 	0.86892	0.42056	0.91833	-0.085
Mof_N 	N 	0.82431	0.36802	0.90835	-0.084
Mof_N 	N 	0.13108	0.57944	0.91833	-0.088
Mof_N 	N 	0.17569	0.63198	0.90835	-0.085
Mof_N 	N 	0.08167	0.13108	0.42056	-0.103
Mof_N 	N 	0.09165	0.17569	0.36802	-0.098
Mof_N 	N 	0.08167	0.86892	0.57944	-0.099
Mof_N 	N 	0.09165	0.82431	0.63198	-0.096
Mof_N 	N 	0.91833	0.86892	0.42056	-0.085
Mof_N 	N 	0.90835	0.82431	0.36802	-0.084
Mof_N 	N 	0.91833	0.13108	0.57944	-0.088
Mof_N 	N 	0.90835	0.17569	0.63198	-0.085
Mof_N 	N 	0.42056	0.08167	0.13108	-0.103
Mof_N 	N 	0.36802	0.09165	0.17569	-0.098
Mof_N 	N 	0.57944	0.08167	0.86892	-0.099
Mof_N 	N 	0.63198	0.09165	0.82431	-0.096
Mof_N 	N 	0.42056	0.91833	0.86892	-0.085
Mof_N 	N 	0.36802	0.90835	0.82431	-0.084
Mof_N 	N 	0.57944	0.91833	0.13108	-0.088
Mof_N 	N 	0.63198	0.90835	0.17569	-0.085
Mof_N 	N 	0.42056	0.13108	0.91833	-0.088
Mof_N 	N 	0.36802	0.17569	0.90835	-0.086
Mof_N 	N 	0.57944	0.86892	0.91833	-0.084
Mof_N 	N 	0.63198	0.82431	0.90835	-0.083
Mof_N 	N 	0.42056	0.86892	0.08167	-0.1
Mof_N 	N 	0.36802	0.82431	0.09165	-0.097
Mof_N 	N 	0.57944	0.13108	0.08167	-0.102
Mof_N 	N 	0.63198	0.17569	0.09165	-0.098
Mof_N 	N 	0.13108	0.08167	0.57944	-0.102
Mof_N 	N 	0.17569	0.09165	0.63198	-0.098
Mof_N 	N 	0.86892	0.08167	0.42056	-0.1
Mof_N 	N 	0.82431	0.09165	0.36802	-0.097
Mof_N 	N 	0.86892	0.91833	0.57944	-0.084
Mof_N 	N 	0.82431	0.90835	0.63198	-0.083
Mof_N 	N 	0.13108	0.91833	0.42056	-0.088
Mof_N 	N 	0.17569	0.90835	0.36802	-0.086
Mof_N 	N 	0.08167	0.42056	0.86892	-0.1
Mof_N 	N 	0.09165	0.36802	0.82431	-0.097
Mof_N 	N 	0.08167	0.57944	0.13108	-0.102
Mof_N 	N 	0.09165	0.63198	0.17569	-0.098
Mof_N 	N 	0.91833	0.42056	0.13108	-0.088
Mof_N 	N 	0.90835	0.36802	0.17569	-0.086
Mof_N 	N 	0.91833	0.57944	0.86892	-0.084
Mof_N 	N 	0.90835	0.63198	0.82431	-0.083
Mof_N 	N 	0.86892	0.57944	0.91833	-0.084
Mof_N 	N 	0.82431	0.63198	0.90835	-0.083
Mof_N 	N 	0.13108	0.42056	0.91833	-0.088
Mof_N 	N 	0.17569	0.36802	0.90835	-0.086
Mof_N 	N 	0.13108	0.57944	0.08167	-0.102
Mof_N 	N 	0.17569	0.63198	0.09165	-0.098
Mof_N 	N 	0.86892	0.42056	0.08167	-0.1
Mof_N 	N 	0.82431	0.36802	0.09165	-0.097
Mof_N 	N 	0.91833	0.86892	0.57944	-0.084
Mof_N 	N 	0.90835	0.82431	0.63198	-0.083
Mof_N 	N 	0.91833	0.13108	0.42056	-0.088
Mof_N 	N 	0.90835	0.17569	0.36802	-0.086
Mof_N 	N 	0.08167	0.13108	0.57944	-0.102
Mof_N 	N 	0.09165	0.17569	0.63198	-0.098
Mof_N 	N 	0.08167	0.86892	0.42056	-0.1
Mof_N 	N 	0.09165	0.82431	0.36802	-0.097
Mof_N 	N 	0.57944	0.91833	0.86892	-0.084
Mof_N 	N 	0.63198	0.90835	0.82431	-0.083
Mof_N 	N 	0.42056	0.91833	0.13108	-0.088
Mof_N 	N 	0.36802	0.90835	0.17569	-0.086
Mof_N 	N 	0.57944	0.08167	0.13108	-0.102
Mof_N 	N 	0.63198	0.09165	0.17569	-0.098
Mof_N 	N 	0.42056	0.08167	0.86892	-0.1
Mof_N 	N 	0.36802	0.09165	0.82431	-0.097
Mof_N 	N 	0.57944	0.86892	0.08167	-0.099
Mof_N 	N 	0.63198	0.82431	0.09165	-0.096
Mof_N 	N 	0.42056	0.13108	0.08167	-0.103
Mof_N 	N 	0.36802	0.17569	0.09165	-0.098
Mof_N 	N 	0.57944	0.13108	0.91833	-0.088
Mof_N 	N 	0.63198	0.17569	0.90835	-0.085
Mof_N 	N 	0.42056	0.86892	0.91833	-0.085
Mof_N 	N 	0.36802	0.82431	0.90835	-0.084
Mof_N 	N 	0.86892	0.91833	0.42056	-0.085
Mof_N 	N 	0.82431	0.90835	0.36802	-0.084
Mof_N 	N 	0.13108	0.91833	0.57944	-0.088
Mof_N 	N 	0.17569	0.90835	0.63198	-0.085
Mof_N 	N 	0.13108	0.08167	0.42056	-0.103
Mof_N 	N 	0.17569	0.09165	0.36802	-0.098
Mof_N 	N 	0.86892	0.08167	0.57944	-0.099
Mof_N 	N 	0.82431	0.09165	0.63198	-0.096
Mof_N 	N 	0.91833	0.57944	0.13108	-0.088
Mof_N 	N 	0.90835	0.63198	0.17569	-0.085
Mof_N 	N 	0.91833	0.42056	0.86892	-0.085
Mof_N 	N 	0.90835	0.36802	0.82431	-0.084
Mof_N 	N 	0.08167	0.57944	0.86892	-0.099
Mof_N 	N 	0.09165	0.63198	0.82431	-0.096
Mof_N 	N 	0.08167	0.42056	0.13108	-0.103
Mof_N 	N 	0.09165	0.36802	0.17569	-0.098
Mof_Fe	Fe	0.13538	0.5	-0	0.615
Mof_Fe	Fe	0.86462	0.5	-0	0.632
Mof_Fe	Fe	1.8747e-33	0.13538	0.5	0.615
Mof_Fe	Fe	1.8747e-33	0.86462	0.5	0.632
Mof_Fe	Fe	0.5	9.3843e-34	0.13538	0.615
Mof_Fe	Fe	0.5	7.50744e-33	0.86462	0.632
Mof_Fe	Fe	0.5	0.13538	-0	0.615
Mof_Fe	Fe	0.5	0.86462	-0	0.632
Mof_Fe	Fe	0.13538	3.75372e-33	0.5	0.615
Mof_Fe	Fe	0.86462	3.75372e-33	0.5	0.632
Mof_Fe	Fe	-4.26564e-33	0.5	0.86462	0.632
Mof_Fe	Fe	-4.30836e-34	0.5	0.13538	0.615
Mof_C 	C 	0.1516	0.33575	0.1516	0.11
Mof_C 	C 	0.18004	0.27115	0.18004	-0.011
Mof_C 	C 	0.8484	0.66425	0.1516	0.114
Mof_C 	C 	0.81996	0.72885	0.18004	-0.002
Mof_C 	C 	0.8484	0.33575	0.8484	0.118
Mof_C 	C 	0.81996	0.27115	0.81996	0.001
Mof_C 	C 	0.1516	0.66425	0.8484	0.114
Mof_C 	C 	0.18004	0.72885	0.81996	-0.002
Mof_C 	C 	0.1516	0.1516	0.33575	0.11
Mof_C 	C 	0.18004	0.18004	0.27115	-0.011
Mof_C 	C 	0.1516	0.8484	0.66425	0.114
Mof_C 	C 	0.18004	0.81996	0.72885	-0.002
Mof_C 	C 	0.8484	0.8484	0.33575	0.118
Mof_C 	C 	0.81996	0.81996	0.27115	0.001
Mof_C 	C 	0.8484	0.1516	0.66425	0.114
Mof_C 	C 	0.81996	0.18004	0.72885	-0.002
Mof_C 	C 	0.33575	0.1516	0.1516	0.11
Mof_C 	C 	0.27115	0.18004	0.18004	-0.011
Mof_C 	C 	0.66425	0.1516	0.8484	0.114
Mof_C 	C 	0.72885	0.18004	0.81996	-0.002
Mof_C 	C 	0.33575	0.8484	0.8484	0.118
Mof_C 	C 	0.27115	0.81996	0.81996	0.001
Mof_C 	C 	0.66425	0.8484	0.1516	0.114
Mof_C 	C 	0.72885	0.81996	0.18004	-0.002
Mof_C 	C 	0.33575	0.1516	0.8484	0.114
Mof_C 	C 	0.27115	0.18004	0.81996	-0.005
Mof_C 	C 	0.66425	0.8484	0.8484	0.119
Mof_C 	C 	0.72885	0.81996	0.81996	0.004
Mof_C 	C 	0.33575	0.8484	0.1516	0.114
Mof_C 	C 	0.27115	0.81996	0.18004	-0.005
Mof_C 	C 	0.66425	0.1516	0.1516	0.11
Mof_C 	C 	0.72885	0.18004	0.18004	-0.009
Mof_C 	C 	0.1516	0.1516	0.66425	0.11
Mof_C 	C 	0.18004	0.18004	0.72885	-0.009
Mof_C 	C 	0.8484	0.1516	0.33575	0.114
Mof_C 	C 	0.81996	0.18004	0.27115	-0.005
Mof_C 	C 	0.8484	0.8484	0.66425	0.119
Mof_C 	C 	0.81996	0.81996	0.72885	0.004
Mof_C 	C 	0.1516	0.8484	0.33575	0.114
Mof_C 	C 	0.18004	0.81996	0.27115	-0.005
Mof_C 	C 	0.1516	0.33575	0.8484	0.114
Mof_C 	C 	0.18004	0.27115	0.81996	-0.005
Mof_C 	C 	0.1516	0.66425	0.1516	0.11
Mof_C 	C 	0.18004	0.72885	0.18004	-0.009
Mof_C 	C 	0.8484	0.33575	0.1516	0.114
Mof_C 	C 	0.81996	0.27115	0.18004	-0.005
Mof_C 	C 	0.8484	0.66425	0.8484	0.119
Mof_C 	C 	0.81996	0.72885	0.81996	0.004
Mof_C 	C 	0.24227	0.24227	0.14984	-0.037
Mof_H 	H 	0.26572	0.26572	0.10595	0.051
Mof_C 	C 	0.75773	0.75773	0.14984	-0.037
Mof_H 	H 	0.73428	0.73428	0.10595	0.054
Mof_C 	C 	0.75773	0.24227	0.85016	-0.036
Mof_H 	H 	0.73428	0.26572	0.89405	0.065
Mof_C 	C 	0.24227	0.75773	0.85016	-0.036
Mof_H 	H 	0.26572	0.73428	0.89405	0.065
Mof_C 	C 	0.14984	0.24227	0.24227	-0.037
Mof_H 	H 	0.10595	0.26572	0.26572	0.051
Mof_C 	C 	0.14984	0.75773	0.75773	-0.037
Mof_H 	H 	0.10595	0.73428	0.73428	0.054
Mof_C 	C 	0.85016	0.75773	0.24227	-0.036
Mof_H 	H 	0.89405	0.73428	0.26572	0.065
Mof_C 	C 	0.85016	0.24227	0.75773	-0.036
Mof_H 	H 	0.89405	0.26572	0.73428	0.065
Mof_C 	C 	0.24227	0.14984	0.24227	-0.037
Mof_H 	H 	0.26572	0.10595	0.26572	0.051
Mof_C 	C 	0.75773	0.14984	0.75773	-0.037
Mof_H 	H 	0.73428	0.10595	0.73428	0.054
Mof_C 	C 	0.24227	0.85016	0.75773	-0.036
Mof_H 	H 	0.26572	0.89405	0.73428	0.065
Mof_C 	C 	0.75773	0.85016	0.24227	-0.036
Mof_H 	H 	0.73428	0.89405	0.26572	0.065
Mof_C 	C 	0.24227	0.24227	0.85016	-0.036
Mof_H 	H 	0.26572	0.26572	0.89405	0.064
Mof_C 	C 	0.75773	0.75773	0.85016	-0.035
Mof_H 	H 	0.73428	0.73428	0.89405	0.067
Mof_C 	C 	0.24227	0.75773	0.14984	-0.037
Mof_H 	H 	0.26572	0.73428	0.10595	0.053
Mof_C 	C 	0.75773	0.24227	0.14984	-0.037
Mof_H 	H 	0.73428	0.26572	0.10595	0.053
Mof_C 	C 	0.24227	0.14984	0.75773	-0.037
Mof_H 	H 	0.26572	0.10595	0.73428	0.053
Mof_C 	C 	0.75773	0.14984	0.24227	-0.037
Mof_H 	H 	0.73428	0.10595	0.26572	0.053
Mof_C 	C 	0.75773	0.85016	0.75773	-0.035
Mof_H 	H 	0.73428	0.89405	0.73428	0.067
Mof_C 	C 	0.24227	0.85016	0.24227	-0.036
Mof_H 	H 	0.26572	0.89405	0.26572	0.064
Mof_C 	C 	0.14984	0.24227	0.75773	-0.037
Mof_H 	H 	0.10595	0.26572	0.73428	0.053
Mof_C 	C 	0.14984	0.75773	0.24227	-0.037
Mof_H 	H 	0.10595	0.73428	0.26572	0.053
Mof_C 	C 	0.85016	0.24227	0.24227	-0.036
Mof_H 	H 	0.89405	0.26572	0.26572	0.064
Mof_C 	C 	0.85016	0.75773	0.75773	-0.035
Mof_H 	H 	0.89405	0.73428	0.73428	0.067
Mof_Cl	Cl	3.75372e-33	0.5	-0	-0.608
Mof_Cl	Cl	5.62842e-33	3.75372e-33	0.5	-0.608
Mof_Cl	Cl	0.5	0	-0	-0.608
_end
