data_functionalizedCrystal
_audit_creation_method	'EQeq! by Chris Wilmer'
_symmetry_space_group_name_H-M	'P1'
_symmetry_Int_Tables_number	1
_symmetry_cell_setting	triclinic
loop_
_symmetry_equiv_pos_as_xyz
  x,y,z
_cell_length_a	8.8305
_cell_length_b	19.9787
_cell_length_c	25.7425
_cell_angle_alpha	90
_cell_angle_beta	96.821
_cell_angle_gamma	90
loop_
_atom_site_label
_atom_site_type_symbol
_atom_site_fract_x
_atom_site_fract_y
_atom_site_fract_z
_atom_site_charge
Mof_C 	C 	0.3872	0.0131	0.56744	0.115
Mof_H 	H 	0.3815	0.9848	0.5386	0.021
Mof_C 	C 	0.4333	0.9863	0.61618	-0.182
Mof_H 	H 	0.4599	0.9414	0.6193	0.114
Mof_C 	C 	0.4401	0.02574	0.66004	0.134
Mof_C 	C 	0.4016	0.0927	0.65203	-0.185
Mof_H 	H 	0.4043	0.1217	0.6804	0.097
Mof_C 	C 	0.3602	0.1156	0.60279	0.11
Mof_H 	H 	0.3367	0.1608	0.5986	-0.004
Mof_C 	C 	0.4848	0.99872	0.71358	-0.084
Mof_C 	C 	0.456	0.9326	0.725	0.047
Mof_H 	H 	0.4119	0.9045	0.6986	0.017
Mof_C 	C 	0.4916	0.9075	0.77469	-0.167
Mof_H 	H 	0.473	0.8627	0.7814	0.095
Mof_C 	C 	0.5551	0.9487	0.81477	0.15
Mof_C 	C 	0.5849	0.0146	0.80372	-0.173
Mof_H 	H 	0.6291	0.0426	0.8301	0.09
Mof_C 	C 	0.5495	0.0392	0.75368	0.046
Mof_H 	H 	0.5696	0.0838	0.7468	0.01
Mof_C 	C 	0.4686	0.8791	0.88302	0.148
Mof_C 	C 	0.3181	0.8981	0.87699	-0.168
Mof_H 	H 	0.2894	0.9387	0.861	0.09
Mof_C 	C 	0.2095	0.8571	0.89461	0.042
Mof_H 	H 	0.1076	0.8699	0.8896	0.016
Mof_C 	C 	0.249	0.79703	0.91963	-0.082
Mof_C 	C 	0.3989	0.7785	0.92414	0.044
Mof_H 	H 	0.4274	0.7377	0.9396	0.022
Mof_C 	C 	0.51	0.8187	0.90636	-0.165
Mof_H 	H 	0.6114	0.805	0.9101	0.094
Mof_C 	C 	0.1314	0.756	0.94129	0.129
Mof_C 	C 	0.006	0.7857	0.95954	-0.178
Mof_H 	H 	0.9942	0.832	0.958	0.097
Mof_C 	C 	0.8992	0.7468	0.9799	0.1
Mof_H 	H 	0.8163	0.7679	0.992	0.01
Mof_C 	C 	0.0297	0.6517	0.96547	0.102
Mof_H 	H 	0.0384	0.6054	0.9673	0.011
Mof_C 	C 	0.1421	0.6875	0.94469	-0.176
Mof_H 	H 	0.2244	0.6653	0.9331	0.101
Mof_C 	C 	0.7002	0.9458	0.90348	0.135
Mof_C 	C 	0.6793	0.9495	0.95553	-0.141
Mof_H 	H 	0.5853	0.9381	0.9658	0.085
Mof_C 	C 	0.7961	0.9701	0.99281	-0.003
Mof_H 	H 	0.7788	0.9712	0.0277	0.031
Mof_C 	C 	0.9374	0.98909	0.97995	-0.015
Mof_C 	C 	0.954	0.98679	0.92698	-0.003
Mof_H 	H 	0.0459	0.0004	0.9161	0.032
Mof_C 	C 	0.8387	0.96504	0.88997	-0.145
Mof_H 	H 	0.8557	0.9634	0.855	0.085
Mof_C 	C 	0.5055	0.1979	0.45234	0.329
Mof_C 	C 	0.6331	0.23572	0.43348	-0.114
Mof_C 	C 	0.6323	0.3048	0.43077	0.044
Mof_H 	H 	0.5529	0.3284	0.443	0.025
Mof_C 	C 	0.7466	0.3395	0.41032	-0.117
Mof_H 	H 	0.7418	0.386	0.4086	0.072
Mof_C 	C 	0.8685	0.30657	0.39224	0.048
Mof_C 	C 	0.8751	0.2367	0.39714	-0.118
Mof_H 	H 	0.9576	0.2133	0.3869	0.092
Mof_C 	C 	0.7594	0.2027	0.41714	0.047
Mof_H 	H 	0.7652	0.1563	0.4199	0.032
Mof_C 	C 	0.9864	0.34299	0.36746	0.044
Mof_C 	C 	0.1379	0.345	0.38874	-0.113
Mof_H 	H 	0.1686	0.322	0.4196	0.083
Mof_C 	C 	0.2432	0.3804	0.36486	0.035
Mof_H 	H 	0.3439	0.3824	0.3802	0.018
Mof_C 	C 	0.2006	0.4134	0.31808	-0.115
Mof_H 	H 	0.2733	0.437	0.3022	0.071
Mof_C 	C 	0.0516	0.4117	0.29479	0.044
Mof_C 	C 	0.946	0.37682	0.32044	-0.113
Mof_H 	H 	0.8446	0.376	0.3057	0.069
Mof_C 	C 	0.006	0.445	0.24377	0.042
Mof_C 	C 	0.0671	0.5049	0.2317	-0.107
Mof_H 	H 	0.1411	0.5245	0.2556	0.068
Mof_C 	C 	0.0223	0.5372	0.18482	0.035
Mof_H 	H 	0.0654	0.5783	0.178	0.03
Mof_C 	C 	0.9143	0.5091	0.14814	-0.1
Mof_C 	C 	0.8551	0.4479	0.1592	0.033
Mof_H 	H 	0.7843	0.4274	0.1346	0.031
Mof_C 	C 	0.8996	0.416	0.20669	-0.104
Mof_H 	H 	0.8573	0.3748	0.2136	0.067
Mof_C 	C 	0.8572	0.5464	0.09901	0.323
Mof_Cd	Cd	0.27435	0.12089	0.47925	0.439
Mof_N 	N 	0.5825	0.92218	0.86631	-0.18
Mof_N 	N 	0.3508	0.07679	0.5595	-0.166
Mof_N 	N 	0.9087	0.68057	0.98317	-0.161
Mof_O 	O 	0.3913	0.22798	0.46359	-0.289
Mof_O 	O 	0.5173	0.13634	0.45681	-0.291
Mof_O 	O 	0.7855	0.51613	0.06194	-0.281
Mof_O 	O 	0.8789	0.60749	0.0982	-0.29
Mof_C 	C 	0.6128	0.5131	0.93256	0.115
Mof_H 	H 	0.6185	0.4848	0.9614	0.02
Mof_C 	C 	0.5667	0.4863	0.88382	-0.184
Mof_H 	H 	0.5401	0.4414	0.8807	0.113
Mof_C 	C 	0.5599	0.52574	0.83996	0.134
Mof_C 	C 	0.5984	0.5927	0.84797	-0.187
Mof_H 	H 	0.5957	0.6217	0.8196	0.096
Mof_C 	C 	0.6398	0.6156	0.89721	0.109
Mof_H 	H 	0.6633	0.6608	0.9014	-0.005
Mof_C 	C 	0.5152	0.49872	0.78642	-0.085
Mof_C 	C 	0.544	0.4326	0.775	0.046
Mof_H 	H 	0.5881	0.4045	0.8014	0.016
Mof_C 	C 	0.5084	0.4075	0.72531	-0.168
Mof_H 	H 	0.527	0.3627	0.7186	0.094
Mof_C 	C 	0.4449	0.4487	0.68523	0.15
Mof_C 	C 	0.4151	0.5146	0.69628	-0.173
Mof_H 	H 	0.3709	0.5426	0.6699	0.09
Mof_C 	C 	0.4505	0.5392	0.74632	0.047
Mof_H 	H 	0.4304	0.5838	0.7532	0.01
Mof_C 	C 	0.5314	0.3791	0.61698	0.148
Mof_C 	C 	0.6819	0.3981	0.62301	-0.168
Mof_H 	H 	0.7106	0.4387	0.639	0.09
Mof_C 	C 	0.7905	0.3571	0.60539	0.042
Mof_H 	H 	0.8924	0.3699	0.6104	0.016
Mof_C 	C 	0.751	0.29703	0.58037	-0.082
Mof_C 	C 	0.6011	0.2785	0.57586	0.044
Mof_H 	H 	0.5726	0.2377	0.5604	0.022
Mof_C 	C 	0.49	0.3187	0.59364	-0.165
Mof_H 	H 	0.3886	0.305	0.5899	0.094
Mof_C 	C 	0.8686	0.256	0.55871	0.129
Mof_C 	C 	0.994	0.2857	0.54046	-0.178
Mof_H 	H 	0.0058	0.332	0.542	0.097
Mof_C 	C 	0.1008	0.2468	0.5201	0.101
Mof_H 	H 	0.1837	0.2679	0.508	0.01
Mof_C 	C 	0.9703	0.1517	0.53453	0.102
Mof_H 	H 	0.9616	0.1054	0.5327	0.011
Mof_C 	C 	0.8579	0.1875	0.55531	-0.176
Mof_H 	H 	0.7756	0.1653	0.5669	0.101
Mof_C 	C 	0.2998	0.4458	0.59652	0.135
Mof_C 	C 	0.3207	0.4495	0.54447	-0.141
Mof_H 	H 	0.4147	0.4381	0.5342	0.084
Mof_C 	C 	0.2039	0.4701	0.50719	-0.004
Mof_H 	H 	0.2212	0.4712	0.4723	0.032
Mof_C 	C 	0.0626	0.48909	0.52005	-0.015
Mof_C 	C 	0.046	0.48679	0.57302	-0.004
Mof_H 	H 	0.9541	0.5004	0.5839	0.032
Mof_C 	C 	0.1613	0.46504	0.61003	-0.144
Mof_H 	H 	0.1443	0.4634	0.645	0.085
Mof_C 	C 	0.4945	0.6979	0.04766	0.329
Mof_C 	C 	0.3669	0.73572	0.06652	-0.114
Mof_C 	C 	0.3677	0.8048	0.06923	0.044
Mof_H 	H 	0.4471	0.8284	0.057	0.025
Mof_C 	C 	0.2534	0.8395	0.08968	-0.117
Mof_H 	H 	0.2582	0.886	0.0914	0.072
Mof_C 	C 	0.1315	0.80657	0.10776	0.048
Mof_C 	C 	0.1249	0.7367	0.10286	-0.118
Mof_H 	H 	0.0424	0.7133	0.1131	0.092
Mof_C 	C 	0.2406	0.7027	0.08286	0.047
Mof_H 	H 	0.2348	0.6563	0.0801	0.032
Mof_C 	C 	0.0136	0.84299	0.13254	0.044
Mof_C 	C 	0.8621	0.845	0.11126	-0.113
Mof_H 	H 	0.8314	0.822	0.0804	0.083
Mof_C 	C 	0.7568	0.8804	0.13514	0.035
Mof_H 	H 	0.6561	0.8824	0.1198	0.018
Mof_C 	C 	0.7994	0.9134	0.18192	-0.115
Mof_H 	H 	0.7267	0.937	0.1978	0.071
Mof_C 	C 	0.9484	0.9117	0.20521	0.044
Mof_C 	C 	0.054	0.87682	0.17956	-0.113
Mof_H 	H 	0.1554	0.876	0.1943	0.069
Mof_C 	C 	0.994	0.945	0.25623	0.041
Mof_C 	C 	0.9329	0.0049	0.2683	-0.107
Mof_H 	H 	0.8589	0.0245	0.2444	0.068
Mof_C 	C 	0.9777	0.0372	0.31518	0.035
Mof_H 	H 	0.9346	0.0783	0.322	0.03
Mof_C 	C 	0.0857	0.0091	0.35186	-0.1
Mof_C 	C 	0.1449	0.9479	0.3408	0.032
Mof_H 	H 	0.2157	0.9274	0.3654	0.032
Mof_C 	C 	0.1004	0.916	0.29331	-0.104
Mof_H 	H 	0.1427	0.8748	0.2864	0.067
Mof_C 	C 	0.1428	0.0464	0.40099	0.323
Mof_Cd	Cd	0.72565	0.62089	0.02075	0.439
Mof_N 	N 	0.4175	0.42218	0.63369	-0.18
Mof_N 	N 	0.6492	0.57679	0.9405	-0.166
Mof_N 	N 	0.0913	0.18057	0.51683	-0.162
Mof_O 	O 	0.6087	0.72798	0.03641	-0.289
Mof_O 	O 	0.4827	0.63634	0.04319	-0.291
Mof_O 	O 	0.2145	0.01613	0.43806	-0.281
Mof_O 	O 	0.1211	0.10749	0.4018	-0.29
Mof_C 	C 	0.6128	0.9869	0.43256	0.114
Mof_H 	H 	0.6185	0.0152	0.4614	0.02
Mof_C 	C 	0.5667	0.0137	0.38382	-0.183
Mof_H 	H 	0.5401	0.0586	0.3807	0.113
Mof_C 	C 	0.5599	0.97426	0.33996	0.133
Mof_C 	C 	0.5984	0.9073	0.34797	-0.186
Mof_H 	H 	0.5957	0.8783	0.3196	0.096
Mof_C 	C 	0.6398	0.8844	0.39721	0.109
Mof_H 	H 	0.6633	0.8392	0.4014	-0.005
Mof_C 	C 	0.5152	0.00128	0.28642	-0.085
Mof_C 	C 	0.544	0.0674	0.275	0.046
Mof_H 	H 	0.5881	0.0955	0.3014	0.016
Mof_C 	C 	0.5084	0.0925	0.22531	-0.168
Mof_H 	H 	0.527	0.1373	0.2186	0.094
Mof_C 	C 	0.4449	0.0513	0.18523	0.15
Mof_C 	C 	0.4151	0.9854	0.19628	-0.173
Mof_H 	H 	0.3709	0.9574	0.1699	0.09
Mof_C 	C 	0.4505	0.9608	0.24632	0.046
Mof_H 	H 	0.4304	0.9162	0.2532	0.01
Mof_C 	C 	0.5314	0.1209	0.11698	0.148
Mof_C 	C 	0.6819	0.1019	0.12301	-0.168
Mof_H 	H 	0.7106	0.0613	0.139	0.09
Mof_C 	C 	0.7905	0.1429	0.10539	0.042
Mof_H 	H 	0.8924	0.1301	0.1104	0.016
Mof_C 	C 	0.751	0.20297	0.08037	-0.082
Mof_C 	C 	0.6011	0.2215	0.07586	0.044
Mof_H 	H 	0.5726	0.2623	0.0604	0.022
Mof_C 	C 	0.49	0.1813	0.09364	-0.165
Mof_H 	H 	0.3886	0.195	0.0899	0.094
Mof_C 	C 	0.8686	0.244	0.05871	0.129
Mof_C 	C 	0.994	0.2143	0.04046	-0.178
Mof_H 	H 	0.0058	0.168	0.042	0.097
Mof_C 	C 	0.1008	0.2532	0.0201	0.1
Mof_H 	H 	0.1837	0.2321	0.008	0.01
Mof_C 	C 	0.9703	0.3483	0.03453	0.102
Mof_H 	H 	0.9616	0.3946	0.0327	0.011
Mof_C 	C 	0.8579	0.3125	0.05531	-0.176
Mof_H 	H 	0.7756	0.3347	0.0669	0.101
Mof_C 	C 	0.2998	0.0542	0.09652	0.135
Mof_C 	C 	0.3207	0.0505	0.04447	-0.141
Mof_H 	H 	0.4147	0.0619	0.0342	0.085
Mof_C 	C 	0.2039	0.0299	0.00719	-0.003
Mof_H 	H 	0.2212	0.0288	0.9723	0.031
Mof_C 	C 	0.0626	0.01091	0.02005	-0.015
Mof_C 	C 	0.046	0.01321	0.07302	-0.003
Mof_H 	H 	0.9541	0.9996	0.0839	0.032
Mof_C 	C 	0.1613	0.03496	0.11003	-0.145
Mof_H 	H 	0.1443	0.0366	0.145	0.085
Mof_C 	C 	0.4945	0.8021	0.54766	0.329
Mof_C 	C 	0.3669	0.76428	0.56652	-0.114
Mof_C 	C 	0.3677	0.6952	0.56923	0.044
Mof_H 	H 	0.4471	0.6716	0.557	0.025
Mof_C 	C 	0.2534	0.6605	0.58968	-0.117
Mof_H 	H 	0.2582	0.614	0.5914	0.072
Mof_C 	C 	0.1315	0.69343	0.60776	0.048
Mof_C 	C 	0.1249	0.7633	0.60286	-0.118
Mof_H 	H 	0.0424	0.7867	0.6131	0.092
Mof_C 	C 	0.2406	0.7973	0.58286	0.047
Mof_H 	H 	0.2348	0.8437	0.5801	0.032
Mof_C 	C 	0.0136	0.65701	0.63254	0.044
Mof_C 	C 	0.8621	0.655	0.61126	-0.113
Mof_H 	H 	0.8314	0.678	0.5804	0.083
Mof_C 	C 	0.7568	0.6196	0.63514	0.035
Mof_H 	H 	0.6561	0.6176	0.6198	0.018
Mof_C 	C 	0.7994	0.5866	0.68192	-0.115
Mof_H 	H 	0.7267	0.563	0.6978	0.071
Mof_C 	C 	0.9484	0.5883	0.70521	0.044
Mof_C 	C 	0.054	0.62318	0.67956	-0.113
Mof_H 	H 	0.1554	0.624	0.6943	0.069
Mof_C 	C 	0.994	0.555	0.75623	0.042
Mof_C 	C 	0.9329	0.4951	0.7683	-0.107
Mof_H 	H 	0.8589	0.4755	0.7444	0.068
Mof_C 	C 	0.9777	0.4628	0.81518	0.035
Mof_H 	H 	0.9346	0.4217	0.822	0.03
Mof_C 	C 	0.0857	0.4909	0.85186	-0.1
Mof_C 	C 	0.1449	0.5521	0.8408	0.033
Mof_H 	H 	0.2157	0.5726	0.8654	0.031
Mof_C 	C 	0.1004	0.584	0.79331	-0.104
Mof_H 	H 	0.1427	0.6252	0.7864	0.067
Mof_C 	C 	0.1428	0.4536	0.90099	0.323
Mof_Cd	Cd	0.72565	0.87911	0.52075	0.439
Mof_N 	N 	0.4175	0.07782	0.13369	-0.18
Mof_N 	N 	0.6492	0.92321	0.4405	-0.166
Mof_N 	N 	0.0913	0.31943	0.01683	-0.161
Mof_O 	O 	0.6087	0.77202	0.53641	-0.289
Mof_O 	O 	0.4827	0.86366	0.54319	-0.291
Mof_O 	O 	0.2145	0.48387	0.93806	-0.281
Mof_O 	O 	0.1211	0.39251	0.9018	-0.29
Mof_C 	C 	0.3872	0.4869	0.06744	0.115
Mof_H 	H 	0.3815	0.5152	0.0386	0.02
Mof_C 	C 	0.4333	0.5137	0.11618	-0.184
Mof_H 	H 	0.4599	0.5586	0.1193	0.113
Mof_C 	C 	0.4401	0.47426	0.16004	0.134
Mof_C 	C 	0.4016	0.4073	0.15203	-0.187
Mof_H 	H 	0.4043	0.3783	0.1804	0.096
Mof_C 	C 	0.3602	0.3844	0.10279	0.109
Mof_H 	H 	0.3367	0.3392	0.0986	-0.005
Mof_C 	C 	0.4848	0.50128	0.21358	-0.085
Mof_C 	C 	0.456	0.5674	0.225	0.046
Mof_H 	H 	0.4119	0.5955	0.1986	0.016
Mof_C 	C 	0.4916	0.5925	0.27469	-0.168
Mof_H 	H 	0.473	0.6373	0.2814	0.094
Mof_C 	C 	0.5551	0.5513	0.31477	0.15
Mof_C 	C 	0.5849	0.4854	0.30372	-0.173
Mof_H 	H 	0.6291	0.4574	0.3301	0.09
Mof_C 	C 	0.5495	0.4608	0.25368	0.047
Mof_H 	H 	0.5696	0.4162	0.2468	0.01
Mof_C 	C 	0.4686	0.6209	0.38302	0.148
Mof_C 	C 	0.3181	0.6019	0.37699	-0.168
Mof_H 	H 	0.2894	0.5613	0.361	0.09
Mof_C 	C 	0.2095	0.6429	0.39461	0.042
Mof_H 	H 	0.1076	0.6301	0.3896	0.016
Mof_C 	C 	0.249	0.70297	0.41963	-0.082
Mof_C 	C 	0.3989	0.7215	0.42414	0.044
Mof_H 	H 	0.4274	0.7623	0.4396	0.022
Mof_C 	C 	0.51	0.6813	0.40636	-0.165
Mof_H 	H 	0.6114	0.695	0.4101	0.094
Mof_C 	C 	0.1314	0.744	0.44129	0.129
Mof_C 	C 	0.006	0.7143	0.45954	-0.178
Mof_H 	H 	0.9942	0.668	0.458	0.097
Mof_C 	C 	0.8992	0.7532	0.4799	0.101
Mof_H 	H 	0.8163	0.7321	0.492	0.01
Mof_C 	C 	0.0297	0.8483	0.46547	0.102
Mof_H 	H 	0.0384	0.8946	0.4673	0.011
Mof_C 	C 	0.1421	0.8125	0.44469	-0.176
Mof_H 	H 	0.2244	0.8347	0.4331	0.101
Mof_C 	C 	0.7002	0.5542	0.40348	0.135
Mof_C 	C 	0.6793	0.5505	0.45553	-0.141
Mof_H 	H 	0.5853	0.5619	0.4658	0.084
Mof_C 	C 	0.7961	0.5299	0.49281	-0.004
Mof_H 	H 	0.7788	0.5288	0.5277	0.032
Mof_C 	C 	0.9374	0.51091	0.47995	-0.015
Mof_C 	C 	0.954	0.51321	0.42698	-0.004
Mof_H 	H 	0.0459	0.4996	0.4161	0.032
Mof_C 	C 	0.8387	0.53496	0.38997	-0.144
Mof_H 	H 	0.8557	0.5366	0.355	0.085
Mof_C 	C 	0.5055	0.3021	0.95234	0.329
Mof_C 	C 	0.6331	0.26428	0.93348	-0.114
Mof_C 	C 	0.6323	0.1952	0.93077	0.044
Mof_H 	H 	0.5529	0.1716	0.943	0.025
Mof_C 	C 	0.7466	0.1605	0.91032	-0.117
Mof_H 	H 	0.7418	0.114	0.9086	0.072
Mof_C 	C 	0.8685	0.19343	0.89224	0.048
Mof_C 	C 	0.8751	0.2633	0.89714	-0.118
Mof_H 	H 	0.9576	0.2867	0.8869	0.092
Mof_C 	C 	0.7594	0.2973	0.91714	0.047
Mof_H 	H 	0.7652	0.3437	0.9199	0.032
Mof_C 	C 	0.9864	0.15701	0.86746	0.044
Mof_C 	C 	0.1379	0.155	0.88874	-0.113
Mof_H 	H 	0.1686	0.178	0.9196	0.083
Mof_C 	C 	0.2432	0.1196	0.86486	0.035
Mof_H 	H 	0.3439	0.1176	0.8802	0.018
Mof_C 	C 	0.2006	0.0866	0.81808	-0.115
Mof_H 	H 	0.2733	0.063	0.8022	0.071
Mof_C 	C 	0.0516	0.0883	0.79479	0.044
Mof_C 	C 	0.946	0.12318	0.82044	-0.113
Mof_H 	H 	0.8446	0.124	0.8057	0.069
Mof_C 	C 	0.006	0.055	0.74377	0.041
Mof_C 	C 	0.0671	0.9951	0.7317	-0.107
Mof_H 	H 	0.1411	0.9755	0.7556	0.068
Mof_C 	C 	0.0223	0.9628	0.68482	0.035
Mof_H 	H 	0.0654	0.9217	0.678	0.03
Mof_C 	C 	0.9143	0.9909	0.64814	-0.1
Mof_C 	C 	0.8551	0.0521	0.6592	0.032
Mof_H 	H 	0.7843	0.0726	0.6346	0.032
Mof_C 	C 	0.8996	0.084	0.70669	-0.104
Mof_H 	H 	0.8573	0.1252	0.7136	0.067
Mof_C 	C 	0.8572	0.9536	0.59901	0.323
Mof_Cd	Cd	0.27435	0.37911	0.97925	0.439
Mof_N 	N 	0.5825	0.57782	0.36631	-0.18
Mof_N 	N 	0.3508	0.42321	0.0595	-0.166
Mof_N 	N 	0.9087	0.81943	0.48317	-0.162
Mof_O 	O 	0.3913	0.27202	0.96359	-0.289
Mof_O 	O 	0.5173	0.36366	0.95681	-0.291
Mof_O 	O 	0.7855	0.98387	0.56194	-0.281
Mof_O 	O 	0.8789	0.89251	0.5982	-0.29
_end
