# CIF file generated by openbabel 3.1.0, see https://openbabel.org
data_I
_chemical_name_common 'image0'
_cell_length_a 28.486
_cell_length_b 28.486
_cell_length_c 46.678
_cell_angle_alpha 90
_cell_angle_beta 90
_cell_angle_gamma 90
_space_group_name_H-M_alt 'P 1'
_space_group_name_Hall 'P 1'
loop_
    _symmetry_equiv_pos_as_xyz
    x,y,z
loop_
    _atom_site_label
    _atom_site_type_symbol
    _atom_site_fract_x
    _atom_site_fract_y
    _atom_site_fract_z
    _atom_site_occupancy
    Tb1      Tb       0.79547    0.16387    0.25416    1.000
    C1       C        0.67810    0.09340    0.30200    1.000
    C2       C        0.64250    0.06840    0.28810    1.000
    C3       C        0.60000    0.06100    0.30070    1.000
    C4       C        0.59030    0.07580    0.32810    1.000
    C5       C        0.62690    0.09690    0.34240    1.000
    C6       C        0.67090    0.10510    0.32980    1.000
    C7       C        0.54240    0.06970    0.34050    1.000
    H1       H        0.53920    0.03780    0.33300    1.000
    C8       C        0.37320    0.13650    0.27890    1.000
    C9       C        0.41770    0.11880    0.29570    1.000
    C10      C        0.41980    0.07490    0.30740    1.000
    C11      C        0.46000    0.06000    0.32180    1.000
    C12      C        0.50040    0.08710    0.32483    1.000
    C13      C        0.49860    0.13180    0.31210    1.000
    C14      C        0.45790    0.14720    0.29760    1.000
    C15      C        0.50510    0.00410    0.45650    1.000
    C16      C        0.51500    0.02140    0.42700    1.000
    C17      C        0.50060    0.06440    0.41800    1.000
    C18      C        0.51110    0.08120    0.39080    1.000
    C19      C        0.53530    0.05460    0.37100    1.000
    C20      C        0.55110    0.01150    0.38000    1.000
    C21      C        0.54000    0.99500    0.40840    1.000
    O1       O        0.72810    0.12950    0.27420    1.000
    O2       O        0.74930    0.08110    0.29620    1.000
    O3       O        0.34760    0.16410    0.29144    1.000
    O4       O        0.36580    0.12150    0.25550    1.000
    O5       O        0.46620    0.98430    0.45928    1.000
    O6       O        0.53540    0.00900    0.47570    1.000
    Cl1      Cl       0.65424    0.04925    0.25341    1.000
    Cl2      Cl       0.55925    0.03083    0.28092    1.000
    Cl3      Cl       0.61937    0.11727    0.37772    1.000
    Cl4      Cl       0.71430    0.13292    0.34901    1.000
    Cl5      Cl       0.37107    0.03974    0.30546    1.000
    Cl6      Cl       0.45896    0.00313    0.33537    1.000
    Cl7      Cl       0.54419    0.16999    0.31439    1.000
    Cl8      Cl       0.45628    0.20219    0.28251    1.000
    Cl9      Cl       0.46993    0.09915    0.44179    1.000
    Cl10     Cl       0.49451    0.13807    0.38254    1.000
    Cl11     Cl       0.58138    0.97403    0.35717    1.000
    Cl12     Cl       0.55979    0.93952    0.41843    1.000
    C22      C        0.71430    0.10330    0.28900    1.000
    Tb2      Tb       0.29547    0.66387    0.75416    1.000
    C23      C        0.17810    0.59340    0.80200    1.000
    C24      C        0.14250    0.56840    0.78810    1.000
    C25      C        0.10000    0.56100    0.80070    1.000
    C26      C        0.09030    0.57580    0.82810    1.000
    C27      C        0.12690    0.59690    0.84240    1.000
    C28      C        0.17090    0.60510    0.82980    1.000
    C29      C        0.04240    0.56970    0.84050    1.000
    H2       H        0.03920    0.53780    0.83300    1.000
    C30      C        0.87320    0.63650    0.77890    1.000
    C31      C        0.91770    0.61880    0.79570    1.000
    C32      C        0.91980    0.57490    0.80740    1.000
    C33      C        0.96000    0.56000    0.82180    1.000
    C34      C        0.00040    0.58710    0.82483    1.000
    C35      C        0.99860    0.63180    0.81210    1.000
    C36      C        0.95790    0.64720    0.79760    1.000
    C37      C        0.00510    0.50410    0.95650    1.000
    C38      C        0.01500    0.52140    0.92700    1.000
    C39      C        0.00060    0.56440    0.91800    1.000
    C40      C        0.01110    0.58120    0.89080    1.000
    C41      C        0.03530    0.55460    0.87100    1.000
    C42      C        0.05110    0.51150    0.88000    1.000
    C43      C        0.04000    0.49500    0.90840    1.000
    O7       O        0.22810    0.62950    0.77420    1.000
    O8       O        0.24930    0.58110    0.79620    1.000
    O9       O        0.84760    0.66410    0.79144    1.000
    O10      O        0.86580    0.62150    0.75550    1.000
    O11      O        0.96620    0.48430    0.95928    1.000
    O12      O        0.03540    0.50900    0.97570    1.000
    Cl13     Cl       0.15424    0.54925    0.75341    1.000
    Cl14     Cl       0.05925    0.53083    0.78092    1.000
    Cl15     Cl       0.11937    0.61727    0.87772    1.000
    Cl16     Cl       0.21430    0.63292    0.84901    1.000
    Cl17     Cl       0.87107    0.53974    0.80546    1.000
    Cl18     Cl       0.95896    0.50313    0.83537    1.000
    Cl19     Cl       0.04419    0.66999    0.81439    1.000
    Cl20     Cl       0.95628    0.70219    0.78251    1.000
    Cl21     Cl       0.96993    0.59915    0.94179    1.000
    Cl22     Cl       0.99451    0.63807    0.88254    1.000
    Cl23     Cl       0.08138    0.47403    0.85717    1.000
    Cl24     Cl       0.05979    0.43952    0.91843    1.000
    C44      C        0.21430    0.60330    0.78900    1.000
    Tb3      Tb       0.70453    0.83613    0.75416    1.000
    C45      C        0.82190    0.90660    0.80200    1.000
    C46      C        0.85750    0.93160    0.78810    1.000
    C47      C        0.90000    0.93900    0.80070    1.000
    C48      C        0.90970    0.92420    0.82810    1.000
    C49      C        0.87310    0.90310    0.84240    1.000
    C50      C        0.82910    0.89490    0.82980    1.000
    C51      C        0.95760    0.93030    0.84050    1.000
    H3       H        0.96080    0.96220    0.83300    1.000
    C52      C        0.12680    0.86350    0.77890    1.000
    C53      C        0.08230    0.88120    0.79570    1.000
    C54      C        0.08020    0.92510    0.80740    1.000
    C55      C        0.04000    0.94000    0.82180    1.000
    C56      C        0.99960    0.91290    0.82483    1.000
    C57      C        0.00140    0.86820    0.81210    1.000
    C58      C        0.04210    0.85280    0.79760    1.000
    C59      C        0.99490    0.99590    0.95650    1.000
    C60      C        0.98500    0.97860    0.92700    1.000
    C61      C        0.99940    0.93560    0.91800    1.000
    C62      C        0.98890    0.91880    0.89080    1.000
    C63      C        0.96470    0.94540    0.87100    1.000
    C64      C        0.94890    0.98850    0.88000    1.000
    C65      C        0.96000    0.00500    0.90840    1.000
    O13      O        0.77190    0.87050    0.77420    1.000
    O14      O        0.75070    0.91890    0.79620    1.000
    O15      O        0.15240    0.83590    0.79144    1.000
    O16      O        0.13420    0.87850    0.75550    1.000
    O17      O        0.03380    0.01570    0.95928    1.000
    O18      O        0.96460    0.99100    0.97570    1.000
    Cl25     Cl       0.84576    0.95075    0.75341    1.000
    Cl26     Cl       0.94075    0.96917    0.78092    1.000
    Cl27     Cl       0.88063    0.88273    0.87772    1.000
    Cl28     Cl       0.78570    0.86708    0.84901    1.000
    Cl29     Cl       0.12893    0.96026    0.80546    1.000
    Cl30     Cl       0.04104    0.99687    0.83537    1.000
    Cl31     Cl       0.95581    0.83001    0.81439    1.000
    Cl32     Cl       0.04372    0.79781    0.78251    1.000
    Cl33     Cl       0.03007    0.90085    0.94179    1.000
    Cl34     Cl       0.00549    0.86193    0.88254    1.000
    Cl35     Cl       0.91862    0.02597    0.85717    1.000
    Cl36     Cl       0.94021    0.06048    0.91843    1.000
    C66      C        0.78570    0.89670    0.78900    1.000
    Tb4      Tb       0.20453    0.33613    0.25416    1.000
    C67      C        0.32190    0.40660    0.30200    1.000
    C68      C        0.35750    0.43160    0.28810    1.000
    C69      C        0.40000    0.43900    0.30070    1.000
    C70      C        0.40970    0.42420    0.32810    1.000
    C71      C        0.37310    0.40310    0.34240    1.000
    C72      C        0.32910    0.39490    0.32980    1.000
    C73      C        0.45760    0.43030    0.34050    1.000
    H4       H        0.46080    0.46220    0.33300    1.000
    C74      C        0.62680    0.36350    0.27890    1.000
    C75      C        0.58230    0.38120    0.29570    1.000
    C76      C        0.58020    0.42510    0.30740    1.000
    C77      C        0.54000    0.44000    0.32180    1.000
    C78      C        0.49960    0.41290    0.32483    1.000
    C79      C        0.50140    0.36820    0.31210    1.000
    C80      C        0.54210    0.35280    0.29760    1.000
    C81      C        0.49490    0.49590    0.45650    1.000
    C82      C        0.48500    0.47860    0.42700    1.000
    C83      C        0.49940    0.43560    0.41800    1.000
    C84      C        0.48890    0.41880    0.39080    1.000
    C85      C        0.46470    0.44540    0.37100    1.000
    C86      C        0.44890    0.48850    0.38000    1.000
    C87      C        0.46000    0.50500    0.40840    1.000
    O19      O        0.27190    0.37050    0.27420    1.000
    O20      O        0.25070    0.41890    0.29620    1.000
    O21      O        0.65240    0.33590    0.29144    1.000
    O22      O        0.63420    0.37850    0.25550    1.000
    O23      O        0.53380    0.51570    0.45928    1.000
    O24      O        0.46460    0.49100    0.47570    1.000
    Cl37     Cl       0.34576    0.45075    0.25341    1.000
    Cl38     Cl       0.44075    0.46917    0.28092    1.000
    Cl39     Cl       0.38063    0.38273    0.37772    1.000
    Cl40     Cl       0.28570    0.36708    0.34901    1.000
    Cl41     Cl       0.62893    0.46026    0.30546    1.000
    Cl42     Cl       0.54104    0.49687    0.33537    1.000
    Cl43     Cl       0.45581    0.33001    0.31439    1.000
    Cl44     Cl       0.54372    0.29781    0.28251    1.000
    Cl45     Cl       0.53007    0.40085    0.44179    1.000
    Cl46     Cl       0.50549    0.36193    0.38254    1.000
    Cl47     Cl       0.41862    0.52597    0.35717    1.000
    Cl48     Cl       0.44021    0.56048    0.41843    1.000
    C88      C        0.28570    0.39670    0.28900    1.000
    Tb5      Tb       0.58613    0.04547    0.50416    1.000
    C89      C        0.65660    0.92810    0.55200    1.000
    C90      C        0.68160    0.89250    0.53810    1.000
    C91      C        0.68900    0.85000    0.55070    1.000
    C92      C        0.67420    0.84030    0.57810    1.000
    C93      C        0.65310    0.87690    0.59240    1.000
    C94      C        0.64490    0.92090    0.57980    1.000
    C95      C        0.68030    0.79240    0.59050    1.000
    H5       H        0.71220    0.78920    0.58300    1.000
    C96      C        0.61350    0.62320    0.52890    1.000
    C97      C        0.63120    0.66770    0.54570    1.000
    C98      C        0.67510    0.66980    0.55740    1.000
    C99      C        0.69000    0.71000    0.57180    1.000
    C100     C        0.66290    0.75040    0.57483    1.000
    C101     C        0.61820    0.74860    0.56210    1.000
    C102     C        0.60280    0.70790    0.54760    1.000
    C103     C        0.74590    0.75510    0.70650    1.000
    C104     C        0.72860    0.76500    0.67700    1.000
    C105     C        0.68560    0.75060    0.66800    1.000
    C106     C        0.66880    0.76110    0.64080    1.000
    C107     C        0.69540    0.78530    0.62100    1.000
    C108     C        0.73850    0.80110    0.63000    1.000
    C109     C        0.75500    0.79000    0.65840    1.000
    O25      O        0.62050    0.97810    0.52420    1.000
    O26      O        0.66890    0.99930    0.54620    1.000
    O27      O        0.58590    0.59760    0.54144    1.000
    O28      O        0.62850    0.61580    0.50550    1.000
    O29      O        0.76570    0.71620    0.70928    1.000
    O30      O        0.74100    0.78540    0.72570    1.000
    Cl49     Cl       0.70075    0.90424    0.50341    1.000
    Cl50     Cl       0.71917    0.80925    0.53092    1.000
    Cl51     Cl       0.63273    0.86937    0.62772    1.000
    Cl52     Cl       0.61708    0.96430    0.59901    1.000
    Cl53     Cl       0.71026    0.62107    0.55546    1.000
    Cl54     Cl       0.74687    0.70896    0.58537    1.000
    Cl55     Cl       0.58001    0.79419    0.56439    1.000
    Cl56     Cl       0.54781    0.70628    0.53251    1.000
    Cl57     Cl       0.65085    0.71993    0.69179    1.000
    Cl58     Cl       0.61193    0.74451    0.63254    1.000
    Cl59     Cl       0.77597    0.83138    0.60717    1.000
    Cl60     Cl       0.81048    0.80979    0.66843    1.000
    C110     C        0.64670    0.96430    0.53900    1.000
    Tb6      Tb       0.08613    0.54547    0.00416    1.000
    C111     C        0.15660    0.42810    0.05200    1.000
    C112     C        0.18160    0.39250    0.03810    1.000
    C113     C        0.18900    0.35000    0.05070    1.000
    C114     C        0.17420    0.34030    0.07810    1.000
    C115     C        0.15310    0.37690    0.09240    1.000
    C116     C        0.14490    0.42090    0.07980    1.000
    C117     C        0.18030    0.29240    0.09050    1.000
    H6       H        0.21220    0.28920    0.08300    1.000
    C118     C        0.11350    0.12320    0.02890    1.000
    C119     C        0.13120    0.16770    0.04570    1.000
    C120     C        0.17510    0.16980    0.05740    1.000
    C121     C        0.19000    0.21000    0.07180    1.000
    C122     C        0.16290    0.25040    0.07483    1.000
    C123     C        0.11820    0.24860    0.06210    1.000
    C124     C        0.10280    0.20790    0.04760    1.000
    C125     C        0.24590    0.25510    0.20650    1.000
    C126     C        0.22860    0.26500    0.17700    1.000
    C127     C        0.18560    0.25060    0.16800    1.000
    C128     C        0.16880    0.26110    0.14080    1.000
    C129     C        0.19540    0.28530    0.12100    1.000
    C130     C        0.23850    0.30110    0.13000    1.000
    C131     C        0.25500    0.29000    0.15840    1.000
    O31      O        0.12050    0.47810    0.02420    1.000
    O32      O        0.16890    0.49930    0.04620    1.000
    O33      O        0.08590    0.09760    0.04144    1.000
    O34      O        0.12850    0.11580    0.00550    1.000
    O35      O        0.26570    0.21620    0.20928    1.000
    O36      O        0.24100    0.28540    0.22570    1.000
    Cl61     Cl       0.20075    0.40424    0.00341    1.000
    Cl62     Cl       0.21917    0.30925    0.03092    1.000
    Cl63     Cl       0.13273    0.36937    0.12772    1.000
    Cl64     Cl       0.11708    0.46430    0.09901    1.000
    Cl65     Cl       0.21026    0.12107    0.05546    1.000
    Cl66     Cl       0.24687    0.20896    0.08537    1.000
    Cl67     Cl       0.08001    0.29419    0.06439    1.000
    Cl68     Cl       0.04781    0.20628    0.03251    1.000
    Cl69     Cl       0.15085    0.21993    0.19179    1.000
    Cl70     Cl       0.11193    0.24451    0.13254    1.000
    Cl71     Cl       0.27597    0.33138    0.10717    1.000
    Cl72     Cl       0.31048    0.30979    0.16843    1.000
    C132     C        0.14670    0.46430    0.03900    1.000
    Tb7      Tb       0.91387    0.95453    0.00416    1.000
    C133     C        0.84340    0.07190    0.05200    1.000
    C134     C        0.81840    0.10750    0.03810    1.000
    C135     C        0.81100    0.15000    0.05070    1.000
    C136     C        0.82580    0.15970    0.07810    1.000
    C137     C        0.84690    0.12310    0.09240    1.000
    C138     C        0.85510    0.07910    0.07980    1.000
    C139     C        0.81970    0.20760    0.09050    1.000
    H7       H        0.78780    0.21080    0.08300    1.000
    C140     C        0.88650    0.37680    0.02890    1.000
    C141     C        0.86880    0.33230    0.04570    1.000
    C142     C        0.82490    0.33020    0.05740    1.000
    C143     C        0.81000    0.29000    0.07180    1.000
    C144     C        0.83710    0.24960    0.07483    1.000
    C145     C        0.88180    0.25140    0.06210    1.000
    C146     C        0.89720    0.29210    0.04760    1.000
    C147     C        0.75410    0.24490    0.20650    1.000
    C148     C        0.77140    0.23500    0.17700    1.000
    C149     C        0.81440    0.24940    0.16800    1.000
    C150     C        0.83120    0.23890    0.14080    1.000
    C151     C        0.80460    0.21470    0.12100    1.000
    C152     C        0.76150    0.19890    0.13000    1.000
    C153     C        0.74500    0.21000    0.15840    1.000
    O37      O        0.87950    0.02190    0.02420    1.000
    O38      O        0.83110    0.00070    0.04620    1.000
    O39      O        0.91410    0.40240    0.04144    1.000
    O40      O        0.87150    0.38420    0.00550    1.000
    O41      O        0.73430    0.28380    0.20928    1.000
    O42      O        0.75900    0.21460    0.22570    1.000
    Cl73     Cl       0.79925    0.09576    0.00341    1.000
    Cl74     Cl       0.78083    0.19075    0.03092    1.000
    Cl75     Cl       0.86727    0.13063    0.12772    1.000
    Cl76     Cl       0.88292    0.03570    0.09901    1.000
    Cl77     Cl       0.78974    0.37893    0.05546    1.000
    Cl78     Cl       0.75313    0.29104    0.08537    1.000
    Cl79     Cl       0.91999    0.20581    0.06439    1.000
    Cl80     Cl       0.95219    0.29372    0.03251    1.000
    Cl81     Cl       0.84915    0.28007    0.19179    1.000
    Cl82     Cl       0.88807    0.25549    0.13254    1.000
    Cl83     Cl       0.72403    0.16862    0.10717    1.000
    Cl84     Cl       0.68952    0.19021    0.16843    1.000
    C154     C        0.85330    0.03570    0.03900    1.000
    Tb8      Tb       0.41387    0.45453    0.50416    1.000
    C155     C        0.34340    0.57190    0.55200    1.000
    C156     C        0.31840    0.60750    0.53810    1.000
    C157     C        0.31100    0.65000    0.55070    1.000
    C158     C        0.32580    0.65970    0.57810    1.000
    C159     C        0.34690    0.62310    0.59240    1.000
    C160     C        0.35510    0.57910    0.57980    1.000
    C161     C        0.31970    0.70760    0.59050    1.000
    H8       H        0.28780    0.71080    0.58300    1.000
    C162     C        0.38650    0.87680    0.52890    1.000
    C163     C        0.36880    0.83230    0.54570    1.000
    C164     C        0.32490    0.83020    0.55740    1.000
    C165     C        0.31000    0.79000    0.57180    1.000
    C166     C        0.33710    0.74960    0.57483    1.000
    C167     C        0.38180    0.75140    0.56210    1.000
    C168     C        0.39720    0.79210    0.54760    1.000
    C169     C        0.25410    0.74490    0.70650    1.000
    C170     C        0.27140    0.73500    0.67700    1.000
    C171     C        0.31440    0.74940    0.66800    1.000
    C172     C        0.33120    0.73890    0.64080    1.000
    C173     C        0.30460    0.71470    0.62100    1.000
    C174     C        0.26150    0.69890    0.63000    1.000
    C175     C        0.24500    0.71000    0.65840    1.000
    O43      O        0.37950    0.52190    0.52420    1.000
    O44      O        0.33110    0.50070    0.54620    1.000
    O45      O        0.41410    0.90240    0.54144    1.000
    O46      O        0.37150    0.88420    0.50550    1.000
    O47      O        0.23430    0.78380    0.70928    1.000
    O48      O        0.25900    0.71460    0.72570    1.000
    Cl85     Cl       0.29925    0.59576    0.50341    1.000
    Cl86     Cl       0.28083    0.69075    0.53092    1.000
    Cl87     Cl       0.36727    0.63063    0.62772    1.000
    Cl88     Cl       0.38292    0.53570    0.59901    1.000
    Cl89     Cl       0.28974    0.87893    0.55546    1.000
    Cl90     Cl       0.25313    0.79104    0.58537    1.000
    Cl91     Cl       0.41999    0.70581    0.56439    1.000
    Cl92     Cl       0.45219    0.79372    0.53251    1.000
    Cl93     Cl       0.34915    0.78007    0.69179    1.000
    Cl94     Cl       0.38807    0.75549    0.63254    1.000
    Cl95     Cl       0.22403    0.66862    0.60717    1.000
    Cl96     Cl       0.18952    0.69021    0.66843    1.000
    C176     C        0.35330    0.53570    0.53900    1.000
    Tb9      Tb       0.20453    0.83613    0.74584    1.000
    C177     C        0.32190    0.90660    0.69800    1.000
    C178     C        0.35750    0.93160    0.71190    1.000
    C179     C        0.40000    0.93900    0.69930    1.000
    C180     C        0.40970    0.92420    0.67190    1.000
    C181     C        0.37310    0.90310    0.65760    1.000
    C182     C        0.32910    0.89490    0.67020    1.000
    C183     C        0.45760    0.93030    0.65950    1.000
    H9       H        0.46080    0.96220    0.66700    1.000
    C184     C        0.62680    0.86350    0.72110    1.000
    C185     C        0.58230    0.88120    0.70430    1.000
    C186     C        0.58020    0.92510    0.69260    1.000
    C187     C        0.54000    0.94000    0.67820    1.000
    C188     C        0.49960    0.91290    0.67517    1.000
    C189     C        0.50140    0.86820    0.68790    1.000
    C190     C        0.54210    0.85280    0.70240    1.000
    C191     C        0.49490    0.99590    0.54350    1.000
    C192     C        0.48500    0.97860    0.57300    1.000
    C193     C        0.49940    0.93560    0.58200    1.000
    C194     C        0.48890    0.91880    0.60920    1.000
    C195     C        0.46470    0.94540    0.62900    1.000
    C196     C        0.44890    0.98850    0.62000    1.000
    C197     C        0.46000    0.00500    0.59160    1.000
    O49      O        0.27190    0.87050    0.72580    1.000
    O50      O        0.25070    0.91890    0.70380    1.000
    O51      O        0.65240    0.83590    0.70856    1.000
    O52      O        0.63420    0.87850    0.74450    1.000
    O53      O        0.53380    0.01570    0.54072    1.000
    O54      O        0.46460    0.99100    0.52430    1.000
    Cl97     Cl       0.34576    0.95075    0.74659    1.000
    Cl98     Cl       0.44075    0.96917    0.71908    1.000
    Cl99     Cl       0.38063    0.88273    0.62228    1.000
    Cl100    Cl       0.28570    0.86708    0.65099    1.000
    Cl101    Cl       0.62893    0.96026    0.69454    1.000
    Cl102    Cl       0.54104    0.99687    0.66463    1.000
    Cl103    Cl       0.45581    0.83001    0.68561    1.000
    Cl104    Cl       0.54372    0.79781    0.71749    1.000
    Cl105    Cl       0.53007    0.90085    0.55821    1.000
    Cl106    Cl       0.50549    0.86193    0.61746    1.000
    Cl107    Cl       0.41862    0.02597    0.64283    1.000
    Cl108    Cl       0.44021    0.06048    0.58157    1.000
    C198     C        0.28570    0.89670    0.71100    1.000
    Tb10     Tb       0.70453    0.33613    0.24584    1.000
    C199     C        0.82190    0.40660    0.19800    1.000
    C200     C        0.85750    0.43160    0.21190    1.000
    C201     C        0.90000    0.43900    0.19930    1.000
    C202     C        0.90970    0.42420    0.17190    1.000
    C203     C        0.87310    0.40310    0.15760    1.000
    C204     C        0.82910    0.39490    0.17020    1.000
    C205     C        0.95760    0.43030    0.15950    1.000
    H10      H        0.96080    0.46220    0.16700    1.000
    C206     C        0.12680    0.36350    0.22110    1.000
    C207     C        0.08230    0.38120    0.20430    1.000
    C208     C        0.08020    0.42510    0.19260    1.000
    C209     C        0.04000    0.44000    0.17820    1.000
    C210     C        0.99960    0.41290    0.17517    1.000
    C211     C        0.00140    0.36820    0.18790    1.000
    C212     C        0.04210    0.35280    0.20240    1.000
    C213     C        0.99490    0.49590    0.04350    1.000
    C214     C        0.98500    0.47860    0.07300    1.000
    C215     C        0.99940    0.43560    0.08200    1.000
    C216     C        0.98890    0.41880    0.10920    1.000
    C217     C        0.96470    0.44540    0.12900    1.000
    C218     C        0.94890    0.48850    0.12000    1.000
    C219     C        0.96000    0.50500    0.09160    1.000
    O55      O        0.77190    0.37050    0.22580    1.000
    O56      O        0.75070    0.41890    0.20380    1.000
    O57      O        0.15240    0.33590    0.20856    1.000
    O58      O        0.13420    0.37850    0.24450    1.000
    O59      O        0.03380    0.51570    0.04072    1.000
    O60      O        0.96460    0.49100    0.02430    1.000
    Cl109    Cl       0.84576    0.45075    0.24659    1.000
    Cl110    Cl       0.94075    0.46917    0.21908    1.000
    Cl111    Cl       0.88063    0.38273    0.12228    1.000
    Cl112    Cl       0.78570    0.36708    0.15099    1.000
    Cl113    Cl       0.12893    0.46026    0.19454    1.000
    Cl114    Cl       0.04104    0.49687    0.16463    1.000
    Cl115    Cl       0.95581    0.33001    0.18561    1.000
    Cl116    Cl       0.04372    0.29781    0.21749    1.000
    Cl117    Cl       0.03007    0.40085    0.05821    1.000
    Cl118    Cl       0.00549    0.36193    0.11746    1.000
    Cl119    Cl       0.91862    0.52597    0.14283    1.000
    Cl120    Cl       0.94021    0.56048    0.08157    1.000
    C220     C        0.78570    0.39670    0.21100    1.000
    Tb11     Tb       0.29547    0.16387    0.24584    1.000
    C221     C        0.17810    0.09340    0.19800    1.000
    C222     C        0.14250    0.06840    0.21190    1.000
    C223     C        0.10000    0.06100    0.19930    1.000
    C224     C        0.09030    0.07580    0.17190    1.000
    C225     C        0.12690    0.09690    0.15760    1.000
    C226     C        0.17090    0.10510    0.17020    1.000
    C227     C        0.04240    0.06970    0.15950    1.000
    H11      H        0.03920    0.03780    0.16700    1.000
    C228     C        0.87320    0.13650    0.22110    1.000
    C229     C        0.91770    0.11880    0.20430    1.000
    C230     C        0.91980    0.07490    0.19260    1.000
    C231     C        0.96000    0.06000    0.17820    1.000
    C232     C        0.00040    0.08710    0.17517    1.000
    C233     C        0.99860    0.13180    0.18790    1.000
    C234     C        0.95790    0.14720    0.20240    1.000
    C235     C        0.00510    0.00410    0.04350    1.000
    C236     C        0.01500    0.02140    0.07300    1.000
    C237     C        0.00060    0.06440    0.08200    1.000
    C238     C        0.01110    0.08120    0.10920    1.000
    C239     C        0.03530    0.05460    0.12900    1.000
    C240     C        0.05110    0.01150    0.12000    1.000
    C241     C        0.04000    0.99500    0.09160    1.000
    O61      O        0.22810    0.12950    0.22580    1.000
    O62      O        0.24930    0.08110    0.20380    1.000
    O63      O        0.84760    0.16410    0.20856    1.000
    O64      O        0.86580    0.12150    0.24450    1.000
    O65      O        0.96620    0.98430    0.04072    1.000
    O66      O        0.03540    0.00900    0.02430    1.000
    Cl121    Cl       0.15424    0.04925    0.24659    1.000
    Cl122    Cl       0.05925    0.03083    0.21908    1.000
    Cl123    Cl       0.11937    0.11727    0.12228    1.000
    Cl124    Cl       0.21430    0.13292    0.15099    1.000
    Cl125    Cl       0.87107    0.03974    0.19454    1.000
    Cl126    Cl       0.95896    0.00313    0.16463    1.000
    Cl127    Cl       0.04419    0.16999    0.18561    1.000
    Cl128    Cl       0.95628    0.20219    0.21749    1.000
    Cl129    Cl       0.96993    0.09915    0.05821    1.000
    Cl130    Cl       0.99451    0.13807    0.11746    1.000
    Cl131    Cl       0.08138    0.97403    0.14283    1.000
    Cl132    Cl       0.05979    0.93952    0.08157    1.000
    C242     C        0.21430    0.10330    0.21100    1.000
    Tb12     Tb       0.79547    0.66387    0.74584    1.000
    C243     C        0.67810    0.59340    0.69800    1.000
    C244     C        0.64250    0.56840    0.71190    1.000
    C245     C        0.60000    0.56100    0.69930    1.000
    C246     C        0.59030    0.57580    0.67190    1.000
    C247     C        0.62690    0.59690    0.65760    1.000
    C248     C        0.67090    0.60510    0.67020    1.000
    C249     C        0.54240    0.56970    0.65950    1.000
    H12      H        0.53920    0.53780    0.66700    1.000
    C250     C        0.37320    0.63650    0.72110    1.000
    C251     C        0.41770    0.61880    0.70430    1.000
    C252     C        0.41980    0.57490    0.69260    1.000
    C253     C        0.46000    0.56000    0.67820    1.000
    C254     C        0.50040    0.58710    0.67517    1.000
    C255     C        0.49860    0.63180    0.68790    1.000
    C256     C        0.45790    0.64720    0.70240    1.000
    C257     C        0.50510    0.50410    0.54350    1.000
    C258     C        0.51500    0.52140    0.57300    1.000
    C259     C        0.50060    0.56440    0.58200    1.000
    C260     C        0.51110    0.58120    0.60920    1.000
    C261     C        0.53530    0.55460    0.62900    1.000
    C262     C        0.55110    0.51150    0.62000    1.000
    C263     C        0.54000    0.49500    0.59160    1.000
    O67      O        0.72810    0.62950    0.72580    1.000
    O68      O        0.74930    0.58110    0.70380    1.000
    O69      O        0.34760    0.66410    0.70856    1.000
    O70      O        0.36580    0.62150    0.74450    1.000
    O71      O        0.46620    0.48430    0.54072    1.000
    O72      O        0.53540    0.50900    0.52430    1.000
    Cl133    Cl       0.65424    0.54925    0.74659    1.000
    Cl134    Cl       0.55925    0.53083    0.71908    1.000
    Cl135    Cl       0.61937    0.61727    0.62228    1.000
    Cl136    Cl       0.71430    0.63292    0.65099    1.000
    Cl137    Cl       0.37107    0.53974    0.69454    1.000
    Cl138    Cl       0.45896    0.50313    0.66463    1.000
    Cl139    Cl       0.54419    0.66999    0.68561    1.000
    Cl140    Cl       0.45628    0.70219    0.71749    1.000
    Cl141    Cl       0.46993    0.59915    0.55821    1.000
    Cl142    Cl       0.49451    0.63807    0.61746    1.000
    Cl143    Cl       0.58138    0.47403    0.64283    1.000
    Cl144    Cl       0.55979    0.43952    0.58157    1.000
    C264     C        0.71430    0.60330    0.71100    1.000
    Tb13     Tb       0.41387    0.95453    0.49584    1.000
    C265     C        0.34340    0.07190    0.44800    1.000
    C266     C        0.31840    0.10750    0.46190    1.000
    C267     C        0.31100    0.15000    0.44930    1.000
    C268     C        0.32580    0.15970    0.42190    1.000
    C269     C        0.34690    0.12310    0.40760    1.000
    C270     C        0.35510    0.07910    0.42020    1.000
    C271     C        0.31970    0.20760    0.40950    1.000
    H13      H        0.28780    0.21080    0.41700    1.000
    C272     C        0.38650    0.37680    0.47110    1.000
    C273     C        0.36880    0.33230    0.45430    1.000
    C274     C        0.32490    0.33020    0.44260    1.000
    C275     C        0.31000    0.29000    0.42820    1.000
    C276     C        0.33710    0.24960    0.42517    1.000
    C277     C        0.38180    0.25140    0.43790    1.000
    C278     C        0.39720    0.29210    0.45240    1.000
    C279     C        0.25410    0.24490    0.29350    1.000
    C280     C        0.27140    0.23500    0.32300    1.000
    C281     C        0.31440    0.24940    0.33200    1.000
    C282     C        0.33120    0.23890    0.35920    1.000
    C283     C        0.30460    0.21470    0.37900    1.000
    C284     C        0.26150    0.19890    0.37000    1.000
    C285     C        0.24500    0.21000    0.34160    1.000
    O73      O        0.37950    0.02190    0.47580    1.000
    O74      O        0.33110    0.00070    0.45380    1.000
    O75      O        0.41410    0.40240    0.45856    1.000
    O76      O        0.37150    0.38420    0.49450    1.000
    O77      O        0.23430    0.28380    0.29072    1.000
    O78      O        0.25900    0.21460    0.27430    1.000
    Cl145    Cl       0.29925    0.09576    0.49659    1.000
    Cl146    Cl       0.28083    0.19075    0.46908    1.000
    Cl147    Cl       0.36727    0.13063    0.37228    1.000
    Cl148    Cl       0.38292    0.03570    0.40099    1.000
    Cl149    Cl       0.28974    0.37893    0.44454    1.000
    Cl150    Cl       0.25313    0.29104    0.41463    1.000
    Cl151    Cl       0.41999    0.20581    0.43561    1.000
    Cl152    Cl       0.45219    0.29372    0.46749    1.000
    Cl153    Cl       0.34915    0.28007    0.30821    1.000
    Cl154    Cl       0.38807    0.25549    0.36746    1.000
    Cl155    Cl       0.22403    0.16862    0.39283    1.000
    Cl156    Cl       0.18952    0.19021    0.33157    1.000
    C286     C        0.35330    0.03570    0.46100    1.000
    Tb14     Tb       0.91387    0.45453    0.99584    1.000
    C287     C        0.84340    0.57190    0.94800    1.000
    C288     C        0.81840    0.60750    0.96190    1.000
    C289     C        0.81100    0.65000    0.94930    1.000
    C290     C        0.82580    0.65970    0.92190    1.000
    C291     C        0.84690    0.62310    0.90760    1.000
    C292     C        0.85510    0.57910    0.92020    1.000
    C293     C        0.81970    0.70760    0.90950    1.000
    H14      H        0.78780    0.71080    0.91700    1.000
    C294     C        0.88650    0.87680    0.97110    1.000
    C295     C        0.86880    0.83230    0.95430    1.000
    C296     C        0.82490    0.83020    0.94260    1.000
    C297     C        0.81000    0.79000    0.92820    1.000
    C298     C        0.83710    0.74960    0.92517    1.000
    C299     C        0.88180    0.75140    0.93790    1.000
    C300     C        0.89720    0.79210    0.95240    1.000
    C301     C        0.75410    0.74490    0.79350    1.000
    C302     C        0.77140    0.73500    0.82300    1.000
    C303     C        0.81440    0.74940    0.83200    1.000
    C304     C        0.83120    0.73890    0.85920    1.000
    C305     C        0.80460    0.71470    0.87900    1.000
    C306     C        0.76150    0.69890    0.87000    1.000
    C307     C        0.74500    0.71000    0.84160    1.000
    O79      O        0.87950    0.52190    0.97580    1.000
    O80      O        0.83110    0.50070    0.95380    1.000
    O81      O        0.91410    0.90240    0.95856    1.000
    O82      O        0.87150    0.88420    0.99450    1.000
    O83      O        0.73430    0.78380    0.79072    1.000
    O84      O        0.75900    0.71460    0.77430    1.000
    Cl157    Cl       0.79925    0.59576    0.99659    1.000
    Cl158    Cl       0.78083    0.69075    0.96908    1.000
    Cl159    Cl       0.86727    0.63063    0.87228    1.000
    Cl160    Cl       0.88292    0.53570    0.90099    1.000
    Cl161    Cl       0.78974    0.87893    0.94454    1.000
    Cl162    Cl       0.75313    0.79104    0.91463    1.000
    Cl163    Cl       0.91999    0.70581    0.93561    1.000
    Cl164    Cl       0.95219    0.79372    0.96749    1.000
    Cl165    Cl       0.84915    0.78007    0.80821    1.000
    Cl166    Cl       0.88807    0.75549    0.86746    1.000
    Cl167    Cl       0.72403    0.66862    0.89283    1.000
    Cl168    Cl       0.68952    0.69021    0.83157    1.000
    C308     C        0.85330    0.53570    0.96100    1.000
    Tb15     Tb       0.08613    0.04547    0.99584    1.000
    C309     C        0.15660    0.92810    0.94800    1.000
    C310     C        0.18160    0.89250    0.96190    1.000
    C311     C        0.18900    0.85000    0.94930    1.000
    C312     C        0.17420    0.84030    0.92190    1.000
    C313     C        0.15310    0.87690    0.90760    1.000
    C314     C        0.14490    0.92090    0.92020    1.000
    C315     C        0.18030    0.79240    0.90950    1.000
    H15      H        0.21220    0.78920    0.91700    1.000
    C316     C        0.11350    0.62320    0.97110    1.000
    C317     C        0.13120    0.66770    0.95430    1.000
    C318     C        0.17510    0.66980    0.94260    1.000
    C319     C        0.19000    0.71000    0.92820    1.000
    C320     C        0.16290    0.75040    0.92517    1.000
    C321     C        0.11820    0.74860    0.93790    1.000
    C322     C        0.10280    0.70790    0.95240    1.000
    C323     C        0.24590    0.75510    0.79350    1.000
    C324     C        0.22860    0.76500    0.82300    1.000
    C325     C        0.18560    0.75060    0.83200    1.000
    C326     C        0.16880    0.76110    0.85920    1.000
    C327     C        0.19540    0.78530    0.87900    1.000
    C328     C        0.23850    0.80110    0.87000    1.000
    C329     C        0.25500    0.79000    0.84160    1.000
    O85      O        0.12050    0.97810    0.97580    1.000
    O86      O        0.16890    0.99930    0.95380    1.000
    O87      O        0.08590    0.59760    0.95856    1.000
    O88      O        0.12850    0.61580    0.99450    1.000
    O89      O        0.26570    0.71620    0.79072    1.000
    O90      O        0.24100    0.78540    0.77430    1.000
    Cl169    Cl       0.20075    0.90424    0.99659    1.000
    Cl170    Cl       0.21917    0.80925    0.96908    1.000
    Cl171    Cl       0.13273    0.86937    0.87228    1.000
    Cl172    Cl       0.11708    0.96430    0.90099    1.000
    Cl173    Cl       0.21026    0.62107    0.94454    1.000
    Cl174    Cl       0.24687    0.70896    0.91463    1.000
    Cl175    Cl       0.08001    0.79419    0.93561    1.000
    Cl176    Cl       0.04781    0.70628    0.96749    1.000
    Cl177    Cl       0.15085    0.71993    0.80821    1.000
    Cl178    Cl       0.11193    0.74451    0.86746    1.000
    Cl179    Cl       0.27597    0.83138    0.89283    1.000
    Cl180    Cl       0.31048    0.80979    0.83157    1.000
    C330     C        0.14670    0.96430    0.96100    1.000
    Tb16     Tb       0.58613    0.54547    0.49584    1.000
    C331     C        0.65660    0.42810    0.44800    1.000
    C332     C        0.68160    0.39250    0.46190    1.000
    C333     C        0.68900    0.35000    0.44930    1.000
    C334     C        0.67420    0.34030    0.42190    1.000
    C335     C        0.65310    0.37690    0.40760    1.000
    C336     C        0.64490    0.42090    0.42020    1.000
    C337     C        0.68030    0.29240    0.40950    1.000
    H16      H        0.71220    0.28920    0.41700    1.000
    C338     C        0.61350    0.12320    0.47110    1.000
    C339     C        0.63120    0.16770    0.45430    1.000
    C340     C        0.67510    0.16980    0.44260    1.000
    C341     C        0.69000    0.21000    0.42820    1.000
    C342     C        0.66290    0.25040    0.42517    1.000
    C343     C        0.61820    0.24860    0.43790    1.000
    C344     C        0.60280    0.20790    0.45240    1.000
    C345     C        0.74590    0.25510    0.29350    1.000
    C346     C        0.72860    0.26500    0.32300    1.000
    C347     C        0.68560    0.25060    0.33200    1.000
    C348     C        0.66880    0.26110    0.35920    1.000
    C349     C        0.69540    0.28530    0.37900    1.000
    C350     C        0.73850    0.30110    0.37000    1.000
    C351     C        0.75500    0.29000    0.34160    1.000
    O91      O        0.62050    0.47810    0.47580    1.000
    O92      O        0.66890    0.49930    0.45380    1.000
    O93      O        0.58590    0.09760    0.45856    1.000
    O94      O        0.62850    0.11580    0.49450    1.000
    O95      O        0.76570    0.21620    0.29072    1.000
    O96      O        0.74100    0.28540    0.27430    1.000
    Cl181    Cl       0.70075    0.40424    0.49659    1.000
    Cl182    Cl       0.71917    0.30925    0.46908    1.000
    Cl183    Cl       0.63273    0.36937    0.37228    1.000
    Cl184    Cl       0.61708    0.46430    0.40099    1.000
    Cl185    Cl       0.71026    0.12107    0.44454    1.000
    Cl186    Cl       0.74687    0.20896    0.41463    1.000
    Cl187    Cl       0.58001    0.29419    0.43561    1.000
    Cl188    Cl       0.54781    0.20628    0.46749    1.000
    Cl189    Cl       0.65085    0.21993    0.30821    1.000
    Cl190    Cl       0.61193    0.24451    0.36746    1.000
    Cl191    Cl       0.77597    0.33138    0.39283    1.000
    Cl192    Cl       0.81048    0.30979    0.33157    1.000
    C352     C        0.64670    0.46430    0.46100    1.000
