data_functionalizedCrystal
_audit_creation_method	'EQeq! by Chris Wilmer'
_symmetry_space_group_name_H-M	'P1'
_symmetry_Int_Tables_number	1
_symmetry_cell_setting	triclinic
loop_
_symmetry_equiv_pos_as_xyz
  x,y,z
_cell_length_a	7.168
_cell_length_b	10.723
_cell_length_c	17.155
_cell_angle_alpha	97.079
_cell_angle_beta	90
_cell_angle_gamma	90
loop_
_atom_site_label
_atom_site_type_symbol
_atom_site_fract_x
_atom_site_fract_y
_atom_site_fract_z
_atom_site_charge
Mof_Tb	Tb	0.47974	0.67572	0.74673	2.112
Mof_Tb	Tb	0.97974	0.82428	0.75327	2.084
Mof_Tb	Tb	0.52026	0.32428	0.25326	2.112
Mof_Tb	Tb	0.02026	0.17572	0.24673	2.084
Mof_H 	H 	0.67	0.515	0.477	0.054
Mof_H 	H 	0.344	0.832	0.551	0.043
Mof_H 	H 	0.037	0.194	0.562	0.224
Mof_H 	H 	0.17	0.985	0.023	0.054
Mof_H 	H 	0.844	0.668	0.949	0.044
Mof_H 	H 	0.537	0.306	0.938	0.229
Mof_H 	H 	0.33	0.485	0.523	0.054
Mof_H 	H 	0.656	0.168	0.449	0.043
Mof_H 	H 	0.963	0.806	0.438	0.224
Mof_H 	H 	0.83	0.015	0.977	0.054
Mof_H 	H 	0.156	0.332	0.051	0.044
Mof_H 	H 	0.463	0.694	0.062	0.229
Mof_C 	C 	0.7475	0.5956	0.62596	0.396
Mof_C 	C 	0.8826	0.548	0.56168	-0.078
Mof_C 	C 	0.0739	0.542	0.57302	-0.052
Mof_C 	C 	0.1733	0.5842	0.64887	0.367
Mof_C 	C 	0.8092	0.5056	0.48811	0.014
Mof_C 	C 	0.6473	0.8916	0.63491	0.481
Mof_C 	C 	0.6591	0.0537	0.53677	-0.032
Mof_C 	C 	0.8199	0.1219	0.57927	0.338
Mof_C 	C 	0.4102	0.9014	0.52963	0.022
Mof_C 	C 	0.5715	0.9528	0.56673	-0.101
Mof_C 	C 	0.2475	0.9044	0.87404	0.395
Mof_C 	C 	0.3826	0.952	0.93832	-0.073
Mof_C 	C 	0.5739	0.958	0.92698	-0.059
Mof_C 	C 	0.6733	0.9158	0.85113	0.369
Mof_C 	C 	0.3092	0.9944	0.01189	0.014
Mof_C 	C 	0.1473	0.6084	0.86509	0.477
Mof_C 	C 	0.1591	0.4463	0.96323	-0.031
Mof_C 	C 	0.3199	0.3781	0.92073	0.339
Mof_C 	C 	0.9102	0.5986	0.97037	0.01
Mof_C 	C 	0.0715	0.5472	0.93327	-0.09
Mof_C 	C 	0.2525	0.4044	0.37404	0.396
Mof_C 	C 	0.1174	0.452	0.43832	-0.078
Mof_C 	C 	0.9261	0.458	0.42698	-0.052
Mof_C 	C 	0.8267	0.4158	0.35113	0.367
Mof_C 	C 	0.1908	0.4944	0.51189	0.014
Mof_C 	C 	0.3527	0.1084	0.36509	0.481
Mof_C 	C 	0.3409	0.9463	0.46323	-0.032
Mof_C 	C 	0.1801	0.8781	0.42073	0.338
Mof_C 	C 	0.5898	0.0986	0.47037	0.022
Mof_C 	C 	0.4285	0.0472	0.43327	-0.101
Mof_C 	C 	0.7525	0.0956	0.12596	0.395
Mof_C 	C 	0.6174	0.048	0.06168	-0.073
Mof_C 	C 	0.4261	0.042	0.07302	-0.059
Mof_C 	C 	0.3267	0.0842	0.14887	0.369
Mof_C 	C 	0.6908	0.0056	0.98811	0.014
Mof_C 	C 	0.8527	0.3916	0.13491	0.477
Mof_C 	C 	0.8409	0.5537	0.03677	-0.031
Mof_C 	C 	0.6801	0.6219	0.07927	0.339
Mof_C 	C 	0.0898	0.4014	0.02963	0.01
Mof_C 	C 	0.9285	0.4528	0.06673	-0.09
Mof_O 	O 	0.578	0.5848	0.61355	-0.452
Mof_O 	O 	0.8101	0.6444	0.69206	-0.602
Mof_O 	O 	0.1913	0.70311	0.67064	-0.612
Mof_O 	O 	0.2536	0.50633	0.68473	-0.407
Mof_O 	O 	0.5308	0.8452	0.67685	-0.537
Mof_O 	O 	0.8213	0.88777	0.6434	-0.511
Mof_O 	O 	0.8189	0.1532	0.64992	-0.266
Mof_O 	O 	0.954	0.1488	0.53252	-0.39
Mof_O 	O 	0.078	0.9152	0.88645	-0.443
Mof_O 	O 	0.3101	0.8556	0.80794	-0.598
Mof_O 	O 	0.6913	0.79689	0.82936	-0.618
Mof_O 	O 	0.7536	0.99367	0.81527	-0.41
Mof_O 	O 	0.0308	0.6548	0.82315	-0.529
Mof_O 	O 	0.3213	0.61223	0.8566	-0.51
Mof_O 	O 	0.3189	0.3468	0.85008	-0.268
Mof_O 	O 	0.454	0.3512	0.96748	-0.397
Mof_O 	O 	0.422	0.4152	0.38645	-0.452
Mof_O 	O 	0.1899	0.3556	0.30794	-0.602
Mof_O 	O 	0.8087	0.29689	0.32936	-0.612
Mof_O 	O 	0.7464	0.49367	0.31527	-0.407
Mof_O 	O 	0.4692	0.1548	0.32315	-0.537
Mof_O 	O 	0.1787	0.11223	0.3566	-0.511
Mof_O 	O 	0.1811	0.8468	0.35008	-0.266
Mof_O 	O 	0.046	0.8512	0.46748	-0.39
Mof_O 	O 	0.922	0.0848	0.11355	-0.443
Mof_O 	O 	0.6899	0.1444	0.19206	-0.598
Mof_O 	O 	0.3087	0.20311	0.17064	-0.618
Mof_O 	O 	0.2464	0.00633	0.18473	-0.41
Mof_O 	O 	0.9692	0.3452	0.17685	-0.529
Mof_O 	O 	0.6787	0.38777	0.1434	-0.51
Mof_O 	O 	0.6811	0.6532	0.14992	-0.268
Mof_O 	O 	0.546	0.6488	0.03252	-0.397
_end
