# CIF file generated by openbabel 3.1.0, see https://openbabel.org
data_I
_chemical_name_common 'UKAQED_clean'
_cell_length_a 10.724
_cell_length_b 11.831
_cell_length_c 14.593
_cell_angle_alpha 73.66
_cell_angle_beta 71.98
_cell_angle_gamma 66.9
_space_group_name_H-M_alt 'P 1'
_space_group_name_Hall 'P 1'
loop_
    _symmetry_equiv_pos_as_xyz
    x,y,z
loop_
    _atom_site_label
    _atom_site_type_symbol
    _atom_site_fract_x
    _atom_site_fract_y
    _atom_site_fract_z
    _atom_site_occupancy
    Eu1      Eu       0.01243    0.44879    0.37223    1.000
    Eu2      Eu       0.98757    0.55121    0.62777    1.000
    P1       P        0.85726    0.28055    0.27380    1.000
    P2       P        0.14274    0.71945    0.72620    1.000
    H1       H        0.49230    0.36770    0.55740    1.000
    H2       H        0.04580    0.10240    0.38380    1.000
    H3       H        0.72010    0.32140    0.46500    1.000
    H4       H        0.03140    0.17830    0.10410    1.000
    H5       H        0.35850    0.38320    0.32180    1.000
    H6       H        0.58910    0.32820    0.22860    1.000
    H7       H        0.81260    0.08090    0.22010    1.000
    H8       H        0.74930    0.57650    0.98310    1.000
    H9       H        0.06420    0.25320    0.93680    1.000
    H10      H        0.11410    0.88510    0.43460    1.000
    H11      H        0.88870    0.86370    0.26630    1.000
    H12      H        0.72410    0.50440    0.15180    1.000
    H13      H        0.50770    0.63230    0.44260    1.000
    H14      H        0.95420    0.89760    0.61620    1.000
    H15      H        0.27990    0.67860    0.53500    1.000
    H16      H        0.96860    0.82170    0.89590    1.000
    H17      H        0.64150    0.61680    0.67820    1.000
    H18      H        0.41090    0.67180    0.77140    1.000
    H19      H        0.18740    0.91910    0.77990    1.000
    H20      H        0.25070    0.42350    0.01690    1.000
    H21      H        0.93580    0.74680    0.06320    1.000
    H22      H        0.88590    0.11490    0.56540    1.000
    H23      H        0.11130    0.13630    0.73370    1.000
    H24      H        0.27590    0.49560    0.84820    1.000
    C1       C        0.87130    0.33250    0.14430    1.000
    C2       C        0.51180    0.36070    0.49080    1.000
    C3       C        0.92180    0.11310    0.29730    1.000
    C4       C        0.67750    0.32240    0.33730    1.000
    C5       C        0.01220    0.05430    0.36110    1.000
    C6       C        0.64710    0.33320    0.43580    1.000
    C7       C        0.40480    0.37820    0.44860    1.000
    C8       C        0.97410    0.25920    0.07970    1.000
    C9       C        0.43280    0.36870    0.35070    1.000
    C10      C        0.56960    0.33820    0.29450    1.000
    C11      C        0.87450    0.04120    0.26310    1.000
    C12      C        0.90920    0.42050    0.94380    1.000
    C13      C        0.93280    0.46470    0.83460    1.000
    C14      C        0.80710    0.49600    0.00770    1.000
    C15      C        0.99290    0.30350    0.98070    1.000
    C16      C        0.00430    0.85400    0.35790    1.000
    C17      C        0.05280    0.92510    0.39110    1.000
    C18      C        0.91790    0.91240    0.29180    1.000
    C19      C        0.03870    0.71710    0.39770    1.000
    C20      C        0.25840    0.41500    0.50720    1.000
    C21      C        0.79090    0.45220    0.10760    1.000
    C22      C        0.12870    0.66750    0.85570    1.000
    C23      C        0.48820    0.63930    0.50920    1.000
    C24      C        0.07820    0.88690    0.70270    1.000
    C25      C        0.32250    0.67760    0.66270    1.000
    C26      C        0.98780    0.94570    0.63890    1.000
    C27      C        0.35290    0.66680    0.56420    1.000
    C28      C        0.59520    0.62180    0.55140    1.000
    C29      C        0.02590    0.74080    0.92030    1.000
    C30      C        0.56720    0.63130    0.64930    1.000
    C31      C        0.43040    0.66180    0.70550    1.000
    C32      C        0.12550    0.95880    0.73690    1.000
    C33      C        0.09080    0.57950    0.05620    1.000
    C34      C        0.06720    0.53530    0.16540    1.000
    C35      C        0.19290    0.50400    0.99230    1.000
    C36      C        0.00710    0.69650    0.01930    1.000
    C37      C        0.99570    0.14600    0.64210    1.000
    C38      C        0.94720    0.07490    0.60890    1.000
    C39      C        0.08210    0.08760    0.70820    1.000
    C40      C        0.96130    0.28290    0.60230    1.000
    C41      C        0.74160    0.58500    0.49280    1.000
    C42      C        0.20910    0.54780    0.89240    1.000
    O1       O        0.05320    0.42480    0.78360    1.000
    O2       O        0.23570    0.43930    0.59050    1.000
    O3       O        0.06730    0.68060    0.48230    1.000
    O4       O        0.83220    0.54100    0.79630    1.000
    O5       O        0.03350    0.64880    0.34730    1.000
    O6       O        0.15970    0.42500    0.47150    1.000
    O7       O        0.93590    0.32900    0.31300    1.000
    O8       O        0.94680    0.57520    0.21640    1.000
    O9       O        0.76430    0.56070    0.40950    1.000
    O10      O        0.93270    0.31940    0.51770    1.000
    O11      O        0.16780    0.45900    0.20370    1.000
    O12      O        0.96650    0.35120    0.65270    1.000
    O13      O        0.84030    0.57500    0.52850    1.000
    O14      O        0.06410    0.67100    0.68700    1.000
