data_functionalizedCrystal
_audit_creation_method	'EQeq! by Chris Wilmer'
_symmetry_space_group_name_H-M	'P1'
_symmetry_Int_Tables_number	1
_symmetry_cell_setting	triclinic
loop_
_symmetry_equiv_pos_as_xyz
  x,y,z
_cell_length_a	9.0862
_cell_length_b	10.7299
_cell_length_c	19.5496
_cell_angle_alpha	89.452
_cell_angle_beta	87.337
_cell_angle_gamma	80.347
loop_
_atom_site_label
_atom_site_type_symbol
_atom_site_fract_x
_atom_site_fract_y
_atom_site_fract_z
_atom_site_charge
Mof_Co	Co	0.82793	0.74841	0.77844	1.156
Mof_Co	Co	0.15303	0.76516	0.72303	1.102
Mof_Co	Co	0.93453	0.75918	0.5894	1.223
Mof_Co	Co	0.05762	0.74403	0.91108	1.164
Mof_Co	Co	0.17207	0.25159	0.22156	1.104
Mof_Co	Co	0.84697	0.23484	0.27697	1.146
Mof_Co	Co	0.06547	0.24082	0.4106	1.151
Mof_Co	Co	0.94238	0.25597	0.08892	1.215
Mof_Co	Co	1.41961e-17	0.5	0.5	1.14
Mof_Co	Co	-0	0	-0	1.089
Mof_Co	Co	-0	0.5	-0	1.113
Mof_Co	Co	-9.46406e-19	0	0.5	1.118
Mof_H 	H 	0.922	0.883	0.69	0.337
Mof_H 	H 	0.063	0.63	0.807	0.343
Mof_H 	H 	0.8864	0.2622	0.8295	0.012
Mof_H 	H 	0.0029	0.1394	0.8488	-0.12
Mof_H 	H 	0.4645	0.8442	0.5477	0.128
Mof_H 	H 	0.367	0.9821	0.5433	0.131
Mof_H 	H 	0.6443	0.5035	0.9602	0.093
Mof_H 	H 	0.5328	0.6339	0.9515	0.104
Mof_H 	H 	0.4519	0.8354	0.4361	0.113
Mof_H 	H 	0.2825	0.815	0.4493	0.097
Mof_H 	H 	0.6319	0.9282	0.968	-0.036
Mof_H 	H 	0.4987	0.8668	0.0031	-0.099
Mof_H 	H 	0.6982	0.6931	0.0483	0.131
Mof_H 	H 	0.538	0.6531	0.0622	0.118
Mof_H 	H 	0.5008	0.6336	0.4988	0.028
Mof_H 	H 	0.3678	0.5704	0.5328	0.039
Mof_H 	H 	0.5009	0.884	0.8766	0.163
Mof_H 	H 	0.4451	0.0326	0.8874	0.114
Mof_H 	H 	0.705	0.151	0.8424	0.159
Mof_H 	H 	0.7359	0.1376	0.9224	0.156
Mof_H 	H 	0.5547	0.4608	0.6116	0.127
Mof_H 	H 	0.501	0.609	0.6248	0.133
Mof_H 	H 	0.2737	0.3722	0.5794	0.075
Mof_H 	H 	0.3024	0.3571	0.6597	0.075
Mof_H 	H 	0.9988	0.3601	0.6496	0.269
Mof_H 	H 	0.1161	0.2393	0.6714	0.15
Mof_H 	H 	0.078	0.117	0.31	0.296
Mof_H 	H 	0.937	0.37	0.193	0.362
Mof_H 	H 	0.1136	0.7378	0.1705	0.169
Mof_H 	H 	0.9971	0.8606	0.1512	0.286
Mof_H 	H 	0.5355	0.1558	0.4523	0.127
Mof_H 	H 	0.633	0.0179	0.4567	0.103
Mof_H 	H 	0.3557	0.4965	0.0398	0.126
Mof_H 	H 	0.4672	0.3661	0.0485	0.137
Mof_H 	H 	0.5481	0.1646	0.5639	0.07
Mof_H 	H 	0.7175	0.185	0.5507	0.091
Mof_H 	H 	0.3681	0.0718	0.032	0.119
Mof_H 	H 	0.5013	0.1332	0.9969	0.169
Mof_H 	H 	0.3018	0.3069	0.9517	0.061
Mof_H 	H 	0.462	0.3469	0.9378	0.064
Mof_H 	H 	0.4992	0.3664	0.5012	0.031
Mof_H 	H 	0.6322	0.4296	0.4672	0.043
Mof_H 	H 	0.4991	0.116	0.1234	0.097
Mof_H 	H 	0.5549	0.9674	0.1126	0.14
Mof_H 	H 	0.295	0.849	0.1576	0.056
Mof_H 	H 	0.2641	0.8624	0.0776	0.052
Mof_H 	H 	0.4453	0.5392	0.3884	0.123
Mof_H 	H 	0.499	0.391	0.3752	0.133
Mof_H 	H 	0.7263	0.6278	0.4206	0.13
Mof_H 	H 	0.6976	0.6429	0.3403	0.144
Mof_H 	H 	0.0012	0.6399	0.3504	-0.081
Mof_H 	H 	0.8839	0.7607	0.3286	0.047
Mof_C 	C 	0.912	0.1974	0.86535	0.115
Mof_C 	C 	0.7108	0.5125	0.08589	0.397
Mof_C 	C 	0.9459	0.2615	0.92957	0.306
Mof_C 	C 	0.715	0.568	0.58131	0.415
Mof_C 	C 	0.3667	0.8914	0.53446	-0.269
Mof_C 	C 	0.3	0.9968	0.4202	0.506
Mof_C 	C 	0.0683	0.238	0.56934	0.499
Mof_C 	C 	0.6331	0.5961	0.96648	-0.165
Mof_C 	C 	0.8356	0.9823	0.86662	0.531
Mof_C 	C 	0.1603	0.5226	0.63676	0.382
Mof_C 	C 	0.2865	0.9253	0.91906	0.516
Mof_C 	C 	0.3532	0.874	0.45649	-0.277
Mof_C 	C 	0.5224	0.9414	0.97736	0.35
Mof_C 	C 	0.6407	0.6233	0.04337	-0.323
Mof_C 	C 	0.4772	0.5578	0.52333	-0.01
Mof_C 	C 	0.7499	0.6455	0.92016	0.394
Mof_C 	C 	0.445	0.9483	0.90834	-0.432
Mof_C 	C 	0.7822	0.1217	0.87578	-0.477
Mof_C 	C 	0.2457	0.8491	0.58036	0.443
Mof_C 	C 	0.5556	0.5461	0.59201	-0.342
Mof_C 	C 	0.2257	0.3848	0.6259	-0.174
Mof_C 	C 	0.092	0.3034	0.635	-0.546
Mof_C 	C 	0.088	0.8026	0.13465	-0.579
Mof_C 	C 	0.2892	0.4875	0.91411	0.335
Mof_C 	C 	0.0541	0.7385	0.07043	0.499
Mof_C 	C 	0.285	0.432	0.41869	0.425
Mof_C 	C 	0.6333	0.1086	0.46554	-0.291
Mof_C 	C 	0.7	0.0032	0.5798	0.236
Mof_C 	C 	0.9317	0.762	0.43066	0.343
Mof_C 	C 	0.3669	0.4039	0.03352	-0.386
Mof_C 	C 	0.1644	0.0177	0.13338	0.306
Mof_C 	C 	0.8397	0.4774	0.36324	0.46
Mof_C 	C 	0.7135	0.0747	0.08094	0.306
Mof_C 	C 	0.6468	0.126	0.54351	-0.171
Mof_C 	C 	0.4776	0.0586	0.02264	-0.382
Mof_C 	C 	0.3593	0.3767	0.95663	-0.114
Mof_C 	C 	0.5228	0.4422	0.47667	-0.012
Mof_C 	C 	0.2501	0.3545	0.07984	0.463
Mof_C 	C 	0.555	0.0517	0.09166	-0.254
Mof_C 	C 	0.2178	0.8783	0.12422	-0.065
Mof_C 	C 	0.7543	0.1509	0.41964	0.42
Mof_C 	C 	0.4444	0.4539	0.40799	-0.346
Mof_C 	C 	0.7743	0.6152	0.3741	-0.37
Mof_C 	C 	0.908	0.6966	0.365	0.033
Mof_O 	O 	0.9376	0.808	0.68925	-0.814
Mof_O 	O 	0.6595	0.5006	0.14559	-0.309
Mof_O 	O 	0.0435	0.7027	0.81188	-0.963
Mof_O 	O 	0.3775	0.0355	0.37358	-0.393
Mof_O 	O 	0.7912	0.9293	0.81674	-0.48
Mof_O 	O 	0.036	0.1287	0.57412	-0.534
Mof_O 	O 	0.7491	0.6681	0.60539	-0.443
Mof_O 	O 	0.195	0.5777	0.68809	-0.484
Mof_O 	O 	0.2552	0.8207	0.89941	-0.473
Mof_O 	O 	0.8799	0.6444	0.94314	-0.449
Mof_O 	O 	0.2789	0.8155	0.63984	-0.494
Mof_O 	O 	0.9785	0.3717	0.92442	-0.329
Mof_O 	O 	0.1963	0.0106	0.95067	-0.512
Mof_O 	O 	0.7121	0.6839	0.86206	-0.457
Mof_O 	O 	0.9269	0.9263	0.90986	-0.468
Mof_O 	O 	0.0704	0.3004	0.51403	-0.589
Mof_O 	O 	0.0683	0.575	0.59292	-0.591
Mof_O 	O 	0.1725	0.0595	0.44203	-0.614
Mof_O 	O 	0.8253	0.4393	0.05966	-0.5
Mof_O 	O 	0.1156	0.8522	0.55689	-0.597
Mof_O 	O 	0.8044	0.4842	0.54796	-0.413
Mof_O 	O 	0.9406	0.2018	0.9859	-0.415
Mof_O 	O 	0.0624	0.192	0.31075	-0.925
Mof_O 	O 	0.3405	0.4994	0.85441	-0.305
Mof_O 	O 	0.9565	0.2973	0.18812	-0.844
Mof_O 	O 	0.6225	0.9645	0.62642	-0.241
Mof_O 	O 	0.2088	0.0707	0.18326	-0.487
Mof_O 	O 	0.964	0.8713	0.42588	-0.341
Mof_O 	O 	0.2509	0.3319	0.39461	-0.471
Mof_O 	O 	0.805	0.4223	0.31191	-0.462
Mof_O 	O 	0.7448	0.1793	0.10059	-0.434
Mof_O 	O 	0.1201	0.3556	0.05686	-0.629
Mof_O 	O 	0.7211	0.1845	0.36016	-0.474
Mof_O 	O 	0.0215	0.6283	0.07558	-0.527
Mof_O 	O 	0.8037	0.9894	0.04933	-0.356
Mof_O 	O 	0.2879	0.3161	0.13794	-0.506
Mof_O 	O 	0.0731	0.0737	0.09014	-0.609
Mof_O 	O 	0.9296	0.6996	0.48597	-0.456
Mof_O 	O 	0.9317	0.425	0.40708	-0.473
Mof_O 	O 	0.8275	0.9405	0.55797	-0.417
Mof_O 	O 	0.1747	0.5607	0.94034	-0.5
Mof_O 	O 	0.8844	0.1478	0.44311	-0.488
Mof_O 	O 	0.1956	0.5158	0.45204	-0.477
Mof_O 	O 	0.0594	0.7982	0.0141	-0.608
_end
