data_functionalizedCrystal
_audit_creation_method	'EQeq! by Chris Wilmer'
_symmetry_space_group_name_H-M	'P1'
_symmetry_Int_Tables_number	1
_symmetry_cell_setting	triclinic
loop_
_symmetry_equiv_pos_as_xyz
  x,y,z
_cell_length_a	9.8767
_cell_length_b	17.4389
_cell_length_c	12.0177
_cell_angle_alpha	90
_cell_angle_beta	97.458
_cell_angle_gamma	90
loop_
_atom_site_label
_atom_site_type_symbol
_atom_site_fract_x
_atom_site_fract_y
_atom_site_fract_z
_atom_site_charge
Mof_C 	C 	0.3231	0.0823	0.1836	0.307
Mof_C 	C 	0.8318	0.1225	0.2108	0.324
Mof_C 	C 	0.5775	0.10485	0.1988	-0.02
Mof_H 	H 	0.5862	0.0577	0.1608	0.07
Mof_C 	C 	0.4496	0.12876	0.2217	-0.037
Mof_C 	C 	0.6926	0.1493	0.2311	-0.045
Mof_C 	C 	0.4363	0.19772	0.2776	-0.095
Mof_H 	H 	0.3499	0.214	0.2955	0.08
Mof_C 	C 	0.679	0.21985	0.2839	-0.091
Mof_H 	H 	0.7561	0.2519	0.3039	0.079
Mof_C 	C 	0.5511	0.24191	0.3065	0.109
Mof_C 	C 	0.6193	0.2646	0.5565	-0.711
Mof_H 	H 	0.7188	0.2626	0.5585	0.243
Mof_H 	H 	0.5799	0.2149	0.5318	0.241
Mof_H 	H 	0.5966	0.2763	0.6316	0.247
Mof_C 	C 	0.5629	0.32505	0.4772	0.296
Mof_C 	C 	0.4888	0.38188	0.3205	0.082
Mof_C 	C 	0.4444	0.40343	0.2031	0.081
Mof_C 	C 	0.3836	0.376	0.0206	0.07
Mof_H 	H 	0.3762	0.3409	0.9596	0.018
Mof_C 	C 	0.3419	0.4504	0.0007	-0.14
Mof_H 	H 	0.3016	0.4664	0.9283	0.085
Mof_C 	C 	0.3607	0.5011	0.0898	0.087
Mof_H 	H 	0.3345	0.5532	0.0781	0.009
Mof_N 	N 	0.5353	0.31382	0.3638	-0.18
Mof_N 	N 	0.5337	0.39649	0.5008	-0.245
Mof_N 	N 	0.4866	0.43232	0.4009	-0.206
Mof_N 	N 	0.4345	0.35075	0.1235	-0.13
Mof_N 	N 	0.4152	0.47831	0.192	-0.223
Mof_O 	O 	0.329	0.02858	0.1165	-0.294
Mof_O 	O 	0.2157	0.10252	0.2214	-0.423
Mof_O 	O 	0.8439	0.05596	0.1739	-0.402
Mof_O 	O 	0.9321	0.1622	0.2351	-0.338
Mof_Co	Co	0.4515	0.54625	0.34492	1.153
Mof_C 	C 	0.1769	0.5823	0.3164	0.306
Mof_C 	C 	0.6682	0.6225	0.2892	0.325
Mof_C 	C 	0.9225	0.60485	0.3012	-0.021
Mof_H 	H 	0.9138	0.5577	0.3392	0.07
Mof_C 	C 	0.0504	0.62876	0.2783	-0.037
Mof_C 	C 	0.8074	0.6493	0.2689	-0.046
Mof_C 	C 	0.0637	0.69772	0.2224	-0.091
Mof_H 	H 	0.1501	0.714	0.2045	0.079
Mof_C 	C 	0.821	0.71985	0.2161	-0.089
Mof_H 	H 	0.7439	0.7519	0.1961	0.078
Mof_C 	C 	0.9489	0.74191	0.1935	0.106
Mof_C 	C 	0.8807	0.7646	0.9435	-0.711
Mof_H 	H 	0.7812	0.7626	0.9415	0.242
Mof_H 	H 	0.9201	0.7149	0.9682	0.24
Mof_H 	H 	0.9034	0.7763	0.8684	0.246
Mof_C 	C 	0.9371	0.82505	0.0228	0.296
Mof_C 	C 	0.0112	0.88188	0.1795	0.086
Mof_C 	C 	0.0556	0.90343	0.2969	0.081
Mof_C 	C 	0.1164	0.876	0.4794	0.066
Mof_H 	H 	0.1238	0.8409	0.5404	0.02
Mof_C 	C 	0.1581	0.9504	0.4993	-0.127
Mof_H 	H 	0.1984	0.9664	0.5717	0.082
Mof_C 	C 	0.1393	0.0011	0.4102	0.074
Mof_H 	H 	0.1655	0.0532	0.4219	0.013
Mof_N 	N 	0.9647	0.81382	0.1362	-0.182
Mof_N 	N 	0.9663	0.89649	0.9992	-0.248
Mof_N 	N 	0.0134	0.93232	0.0991	-0.204
Mof_N 	N 	0.0655	0.85075	0.3765	-0.129
Mof_N 	N 	0.0848	0.97831	0.308	-0.218
Mof_O 	O 	0.171	0.52858	0.3835	-0.293
Mof_O 	O 	0.2843	0.60252	0.2786	-0.422
Mof_O 	O 	0.6561	0.55596	0.3261	-0.404
Mof_O 	O 	0.5679	0.6622	0.2649	-0.34
Mof_Co	Co	0.0485	0.04625	0.15508	1.151
Mof_C 	C 	0.6769	0.9177	0.8164	0.307
Mof_C 	C 	0.1682	0.8775	0.7892	0.324
Mof_C 	C 	0.4225	0.89515	0.8012	-0.02
Mof_H 	H 	0.4138	0.9423	0.8392	0.07
Mof_C 	C 	0.5504	0.87124	0.7783	-0.037
Mof_C 	C 	0.3074	0.8507	0.7689	-0.045
Mof_C 	C 	0.5637	0.80228	0.7224	-0.095
Mof_H 	H 	0.6501	0.786	0.7045	0.08
Mof_C 	C 	0.321	0.78015	0.7161	-0.091
Mof_H 	H 	0.2439	0.7481	0.6961	0.079
Mof_C 	C 	0.4489	0.75809	0.6935	0.109
Mof_C 	C 	0.3807	0.7354	0.4435	-0.711
Mof_H 	H 	0.2812	0.7374	0.4415	0.243
Mof_H 	H 	0.4201	0.7851	0.4682	0.241
Mof_H 	H 	0.4034	0.7237	0.3684	0.247
Mof_C 	C 	0.4371	0.67495	0.5228	0.296
Mof_C 	C 	0.5112	0.61812	0.6795	0.082
Mof_C 	C 	0.5556	0.59657	0.7969	0.081
Mof_C 	C 	0.6164	0.624	0.9794	0.07
Mof_H 	H 	0.6238	0.6591	0.0404	0.018
Mof_C 	C 	0.6581	0.5496	0.9993	-0.14
Mof_H 	H 	0.6984	0.5336	0.0717	0.085
Mof_C 	C 	0.6393	0.4989	0.9102	0.087
Mof_H 	H 	0.6655	0.4468	0.9219	0.009
Mof_N 	N 	0.4647	0.68618	0.6362	-0.18
Mof_N 	N 	0.4663	0.60351	0.4992	-0.245
Mof_N 	N 	0.5134	0.56768	0.5991	-0.206
Mof_N 	N 	0.5655	0.64925	0.8765	-0.13
Mof_N 	N 	0.5848	0.52169	0.808	-0.223
Mof_O 	O 	0.671	0.97142	0.8835	-0.294
Mof_O 	O 	0.7843	0.89748	0.7786	-0.423
Mof_O 	O 	0.1561	0.94404	0.8261	-0.402
Mof_O 	O 	0.0679	0.8378	0.7649	-0.338
Mof_Co	Co	0.5485	0.45375	0.65508	1.153
Mof_C 	C 	0.8231	0.4177	0.6836	0.306
Mof_C 	C 	0.3318	0.3775	0.7108	0.325
Mof_C 	C 	0.0775	0.39515	0.6988	-0.021
Mof_H 	H 	0.0862	0.4423	0.6608	0.07
Mof_C 	C 	0.9496	0.37124	0.7217	-0.037
Mof_C 	C 	0.1926	0.3507	0.7311	-0.046
Mof_C 	C 	0.9363	0.30228	0.7776	-0.091
Mof_H 	H 	0.8499	0.286	0.7955	0.079
Mof_C 	C 	0.179	0.28015	0.7839	-0.089
Mof_H 	H 	0.2561	0.2481	0.8039	0.078
Mof_C 	C 	0.0511	0.25809	0.8065	0.106
Mof_C 	C 	0.1193	0.2354	0.0565	-0.711
Mof_H 	H 	0.2188	0.2374	0.0585	0.242
Mof_H 	H 	0.0799	0.2851	0.0318	0.24
Mof_H 	H 	0.0966	0.2237	0.1316	0.246
Mof_C 	C 	0.0629	0.17495	0.9772	0.296
Mof_C 	C 	0.9888	0.11812	0.8205	0.086
Mof_C 	C 	0.9444	0.09657	0.7031	0.081
Mof_C 	C 	0.8836	0.124	0.5206	0.066
Mof_H 	H 	0.8762	0.1591	0.4596	0.02
Mof_C 	C 	0.8419	0.0496	0.5007	-0.127
Mof_H 	H 	0.8016	0.0336	0.4283	0.082
Mof_C 	C 	0.8607	0.9989	0.5898	0.074
Mof_H 	H 	0.8345	0.9468	0.5781	0.013
Mof_N 	N 	0.0353	0.18618	0.8638	-0.182
Mof_N 	N 	0.0337	0.10351	0.0008	-0.248
Mof_N 	N 	0.9866	0.06768	0.9009	-0.204
Mof_N 	N 	0.9345	0.14925	0.6235	-0.129
Mof_N 	N 	0.9152	0.02169	0.692	-0.218
Mof_O 	O 	0.829	0.47142	0.6165	-0.293
Mof_O 	O 	0.7157	0.39748	0.7214	-0.422
Mof_O 	O 	0.3439	0.44404	0.6739	-0.404
Mof_O 	O 	0.4321	0.3378	0.7351	-0.34
Mof_Co	Co	0.9515	0.95375	0.84492	1.151
_end
