# CIF file generated by openbabel 3.1.0, see https://openbabel.org
data_I
_chemical_name_common 'image0'
_cell_length_a 12.3804
_cell_length_b 12.3804
_cell_length_c 46.505
_cell_angle_alpha 90
_cell_angle_beta 90
_cell_angle_gamma 90
_space_group_name_H-M_alt 'P 1'
_space_group_name_Hall 'P 1'
loop_
    _symmetry_equiv_pos_as_xyz
    x,y,z
loop_
    _atom_site_label
    _atom_site_type_symbol
    _atom_site_fract_x
    _atom_site_fract_y
    _atom_site_fract_z
    _atom_site_occupancy
    N1       N        0.07900    0.88540    0.28180    1.000
    N2       N        0.89510    0.95510    0.37659    1.000
    N3       N        0.92560    0.13120    0.35770    1.000
    N4       N        0.84670    0.11130    0.40440    1.000
    N5       N        0.74690    0.79520    0.46777    1.000
    C1       C        0.01640    0.82620    0.29900    1.000
    C2       C        0.96350    0.86690    0.32280    1.000
    C3       C        0.97780    0.97560    0.32950    1.000
    C4       C        0.03720    0.04020    0.31110    1.000
    C5       C        0.08670    0.99040    0.28760    1.000
    C6       C        0.92930    0.02380    0.35590    1.000
    C7       C        0.88010    0.17060    0.38200    1.000
    C8       C        0.85470    0.00540    0.40010    1.000
    C9       C        0.82060    0.93170    0.42370    1.000
    C10      C        0.81970    0.82000    0.42020    1.000
    C11      C        0.78320    0.75280    0.44260    1.000
    C12      C        0.74740    0.90320    0.47050    1.000
    C13      C        0.78150    0.97270    0.45010    1.000
    H1       H        0.00800    0.75040    0.29470    1.000
    H2       H        0.91740    0.82210    0.33400    1.000
    H3       H        0.04320    0.11830    0.31450    1.000
    H4       H        0.12800    0.03500    0.27460    1.000
    H5       H        0.87180    0.24820    0.38360    1.000
    H6       H        0.84300    0.78830    0.40260    1.000
    H7       H        0.78430    0.67780    0.43970    1.000
    H8       H        0.72160    0.93270    0.48830    1.000
    H9       H        0.78020    0.04940    0.45330    1.000
    N6       N        0.92100    0.11460    0.78180    1.000
    N7       N        0.10490    0.04490    0.87659    1.000
    N8       N        0.07440    0.86880    0.85770    1.000
    N9       N        0.15330    0.88870    0.90440    1.000
    N10      N        0.25310    0.20480    0.96777    1.000
    C14      C        0.98360    0.17380    0.79900    1.000
    C15      C        0.03650    0.13310    0.82280    1.000
    C16      C        0.02220    0.02440    0.82950    1.000
    C17      C        0.96280    0.95980    0.81110    1.000
    C18      C        0.91330    0.00960    0.78760    1.000
    C19      C        0.07070    0.97620    0.85590    1.000
    C20      C        0.11990    0.82940    0.88200    1.000
    C21      C        0.14530    0.99460    0.90010    1.000
    C22      C        0.17940    0.06830    0.92370    1.000
    C23      C        0.18030    0.18000    0.92020    1.000
    C24      C        0.21680    0.24720    0.94260    1.000
    C25      C        0.25260    0.09680    0.97050    1.000
    C26      C        0.21850    0.02730    0.95010    1.000
    H10      H        0.99200    0.24960    0.79470    1.000
    H11      H        0.08260    0.17790    0.83400    1.000
    H12      H        0.95680    0.88170    0.81450    1.000
    H13      H        0.87200    0.96500    0.77460    1.000
    H14      H        0.12820    0.75180    0.88360    1.000
    H15      H        0.15700    0.21170    0.90260    1.000
    H16      H        0.21570    0.32220    0.93970    1.000
    H17      H        0.27840    0.06730    0.98830    1.000
    H18      H        0.21980    0.95060    0.95330    1.000
    N11      N        0.61460    0.57900    0.53180    1.000
    N12      N        0.54490    0.39510    0.62659    1.000
    N13      N        0.36880    0.42560    0.60770    1.000
    N14      N        0.38870    0.34670    0.65440    1.000
    N15      N        0.70480    0.24690    0.71777    1.000
    C27      C        0.67380    0.51640    0.54900    1.000
    C28      C        0.63310    0.46350    0.57280    1.000
    C29      C        0.52440    0.47780    0.57950    1.000
    C30      C        0.45980    0.53720    0.56110    1.000
    C31      C        0.50960    0.58670    0.53760    1.000
    C32      C        0.47620    0.42930    0.60590    1.000
    C33      C        0.32940    0.38010    0.63200    1.000
    C34      C        0.49460    0.35470    0.65010    1.000
    C35      C        0.56830    0.32060    0.67370    1.000
    C36      C        0.68000    0.31970    0.67020    1.000
    C37      C        0.74720    0.28320    0.69260    1.000
    C38      C        0.59680    0.24740    0.72050    1.000
    C39      C        0.52730    0.28150    0.70010    1.000
    H19      H        0.74960    0.50800    0.54470    1.000
    H20      H        0.67790    0.41740    0.58400    1.000
    H21      H        0.38170    0.54320    0.56450    1.000
    H22      H        0.46500    0.62800    0.52460    1.000
    H23      H        0.25180    0.37180    0.63360    1.000
    H24      H        0.71170    0.34300    0.65260    1.000
    H25      H        0.82220    0.28430    0.68970    1.000
    H26      H        0.56730    0.22160    0.73830    1.000
    H27      H        0.45060    0.28020    0.70330    1.000
    N16      N        0.38540    0.42100    0.03180    1.000
    N17      N        0.45510    0.60490    0.12659    1.000
    N18      N        0.63120    0.57440    0.10770    1.000
    N19      N        0.61130    0.65330    0.15440    1.000
    N20      N        0.29520    0.75310    0.21777    1.000
    C40      C        0.32620    0.48360    0.04900    1.000
    C41      C        0.36690    0.53650    0.07280    1.000
    C42      C        0.47560    0.52220    0.07950    1.000
    C43      C        0.54020    0.46280    0.06110    1.000
    C44      C        0.49040    0.41330    0.03760    1.000
    C45      C        0.52380    0.57070    0.10590    1.000
    C46      C        0.67060    0.61990    0.13200    1.000
    C47      C        0.50540    0.64530    0.15010    1.000
    C48      C        0.43170    0.67940    0.17370    1.000
    C49      C        0.32000    0.68030    0.17020    1.000
    C50      C        0.25280    0.71680    0.19260    1.000
    C51      C        0.40320    0.75260    0.22050    1.000
    C52      C        0.47270    0.71850    0.20010    1.000
    H28      H        0.25040    0.49200    0.04470    1.000
    H29      H        0.32210    0.58260    0.08400    1.000
    H30      H        0.61830    0.45680    0.06450    1.000
    H31      H        0.53500    0.37200    0.02460    1.000
    H32      H        0.74820    0.62820    0.13360    1.000
    H33      H        0.28830    0.65700    0.15260    1.000
    H34      H        0.17780    0.71570    0.18970    1.000
    H35      H        0.43270    0.77840    0.23830    1.000
    H36      H        0.54940    0.71980    0.20330    1.000
    N21      N        0.42100    0.38540    0.96820    1.000
    N22      N        0.60490    0.45510    0.87341    1.000
    N23      N        0.57440    0.63120    0.89230    1.000
    N24      N        0.65330    0.61130    0.84560    1.000
    N25      N        0.75310    0.29520    0.78223    1.000
    C53      C        0.48360    0.32620    0.95100    1.000
    C54      C        0.53650    0.36690    0.92720    1.000
    C55      C        0.52220    0.47560    0.92050    1.000
    C56      C        0.46280    0.54020    0.93890    1.000
    C57      C        0.41330    0.49040    0.96240    1.000
    C58      C        0.57070    0.52380    0.89410    1.000
    C59      C        0.61990    0.67060    0.86800    1.000
    C60      C        0.64530    0.50540    0.84990    1.000
    C61      C        0.67940    0.43170    0.82630    1.000
    C62      C        0.68030    0.32000    0.82980    1.000
    C63      C        0.71680    0.25280    0.80740    1.000
    C64      C        0.75260    0.40320    0.77950    1.000
    C65      C        0.71850    0.47270    0.79990    1.000
    H37      H        0.49200    0.25040    0.95530    1.000
    H38      H        0.58260    0.32210    0.91600    1.000
    H39      H        0.45680    0.61830    0.93550    1.000
    H40      H        0.37200    0.53500    0.97540    1.000
    H41      H        0.62820    0.74820    0.86640    1.000
    H42      H        0.65700    0.28830    0.84740    1.000
    H43      H        0.71570    0.17780    0.81030    1.000
    H44      H        0.77840    0.43270    0.76170    1.000
    H45      H        0.71980    0.54940    0.79670    1.000
    N26      N        0.57900    0.61460    0.46820    1.000
    N27      N        0.39510    0.54490    0.37341    1.000
    N28      N        0.42560    0.36880    0.39230    1.000
    N29      N        0.34670    0.38870    0.34560    1.000
    N30      N        0.24690    0.70480    0.28223    1.000
    C66      C        0.51640    0.67380    0.45100    1.000
    C67      C        0.46350    0.63310    0.42720    1.000
    C68      C        0.47780    0.52440    0.42050    1.000
    C69      C        0.53720    0.45980    0.43890    1.000
    C70      C        0.58670    0.50960    0.46240    1.000
    C71      C        0.42930    0.47620    0.39410    1.000
    C72      C        0.38010    0.32940    0.36800    1.000
    C73      C        0.35470    0.49460    0.34990    1.000
    C74      C        0.32060    0.56830    0.32630    1.000
    C75      C        0.31970    0.68000    0.32980    1.000
    C76      C        0.28320    0.74720    0.30740    1.000
    C77      C        0.24740    0.59680    0.27950    1.000
    C78      C        0.28150    0.52730    0.29990    1.000
    H46      H        0.50800    0.74960    0.45530    1.000
    H47      H        0.41740    0.67790    0.41600    1.000
    H48      H        0.54320    0.38170    0.43550    1.000
    H49      H        0.62800    0.46500    0.47540    1.000
    H50      H        0.37180    0.25180    0.36640    1.000
    H51      H        0.34300    0.71170    0.34740    1.000
    H52      H        0.28430    0.82220    0.31030    1.000
    H53      H        0.22160    0.56730    0.26170    1.000
    H54      H        0.28020    0.45060    0.29670    1.000
    N31      N        0.88540    0.07900    0.71820    1.000
    N32      N        0.95510    0.89510    0.62341    1.000
    N33      N        0.13120    0.92560    0.64230    1.000
    N34      N        0.11130    0.84670    0.59560    1.000
    N35      N        0.79520    0.74690    0.53223    1.000
    C79      C        0.82620    0.01640    0.70100    1.000
    C80      C        0.86690    0.96350    0.67720    1.000
    C81      C        0.97560    0.97780    0.67050    1.000
    C82      C        0.04020    0.03720    0.68890    1.000
    C83      C        0.99040    0.08670    0.71240    1.000
    C84      C        0.02380    0.92930    0.64410    1.000
    C85      C        0.17060    0.88010    0.61800    1.000
    C86      C        0.00540    0.85470    0.59990    1.000
    C87      C        0.93170    0.82060    0.57630    1.000
    C88      C        0.82000    0.81970    0.57980    1.000
    C89      C        0.75280    0.78320    0.55740    1.000
    C90      C        0.90320    0.74740    0.52950    1.000
    C91      C        0.97270    0.78150    0.54990    1.000
    H55      H        0.75040    0.00800    0.70530    1.000
    H56      H        0.82210    0.91740    0.66600    1.000
    H57      H        0.11830    0.04320    0.68550    1.000
    H58      H        0.03500    0.12800    0.72540    1.000
    H59      H        0.24820    0.87180    0.61640    1.000
    H60      H        0.78830    0.84300    0.59740    1.000
    H61      H        0.67780    0.78430    0.56030    1.000
    H62      H        0.93270    0.72160    0.51170    1.000
    H63      H        0.04940    0.78020    0.54670    1.000
    N36      N        0.11460    0.92100    0.21820    1.000
    N37      N        0.04490    0.10490    0.12341    1.000
    N38      N        0.86880    0.07440    0.14230    1.000
    N39      N        0.88870    0.15330    0.09560    1.000
    N40      N        0.20480    0.25310    0.03223    1.000
    C92      C        0.17380    0.98360    0.20100    1.000
    C93      C        0.13310    0.03650    0.17720    1.000
    C94      C        0.02440    0.02220    0.17050    1.000
    C95      C        0.95980    0.96280    0.18890    1.000
    C96      C        0.00960    0.91330    0.21240    1.000
    C97      C        0.97620    0.07070    0.14410    1.000
    C98      C        0.82940    0.11990    0.11800    1.000
    C99      C        0.99460    0.14530    0.09990    1.000
    C100     C        0.06830    0.17940    0.07630    1.000
    C101     C        0.18000    0.18030    0.07980    1.000
    C102     C        0.24720    0.21680    0.05740    1.000
    C103     C        0.09680    0.25260    0.02950    1.000
    C104     C        0.02730    0.21850    0.04990    1.000
    H64      H        0.24960    0.99200    0.20530    1.000
    H65      H        0.17790    0.08260    0.16600    1.000
    H66      H        0.88170    0.95680    0.18550    1.000
    H67      H        0.96500    0.87200    0.22540    1.000
    H68      H        0.75180    0.12820    0.11640    1.000
    H69      H        0.21170    0.15700    0.09740    1.000
    H70      H        0.32220    0.21570    0.06030    1.000
    H71      H        0.06730    0.27840    0.01170    1.000
    H72      H        0.95060    0.21980    0.04670    1.000
    Zn1      Zn       0.18518    0.81482    0.25000    1.000
    Zn2      Zn       0.81482    0.18518    0.75000    1.000
    Zn3      Zn       0.68518    0.68518    0.50000    1.000
    Zn4      Zn       0.31482    0.31482    0.00000    1.000
    N41      N        0.85180    0.34660    0.27610    1.000
    N42      N        0.06560    0.44840    0.36256    1.000
    N43      N        0.03980    0.61960    0.34000    1.000
    N44      N        0.12210    0.61200    0.38590    1.000
    N45      N        0.18880    0.32270    0.46064    1.000
    C105     C        0.91180    0.29390    0.29530    1.000
    C106     C        0.97510    0.34330    0.31570    1.000
    C107     C        0.97310    0.45420    0.31720    1.000
    C108     C        0.91190    0.51310    0.29750    1.000
    C109     C        0.85070    0.45280    0.27720    1.000
    C110     C        0.03120    0.51160    0.34120    1.000
    C111     C        0.08750    0.66160    0.36260    1.000
    C112     C        0.10920    0.50440    0.38480    1.000
    C113     C        0.13960    0.44010    0.41050    1.000
    C114     C        0.14280    0.32700    0.41040    1.000
    C115     C        0.16680    0.27250    0.43570    1.000
    C116     C        0.18590    0.42940    0.46010    1.000
    C117     C        0.16410    0.49310    0.43600    1.000
    H73      H        0.91300    0.21790    0.29420    1.000
    H74      H        0.01700    0.30320    0.32880    1.000
    H75      H        0.91060    0.58950    0.29760    1.000
    H76      H        0.80870    0.49050    0.26330    1.000
    H77      H        0.09890    0.73930    0.36240    1.000
    H78      H        0.12520    0.28780    0.39350    1.000
    H79      H        0.16820    0.19660    0.43560    1.000
    H80      H        0.19580    0.46590    0.47790    1.000
    H81      H        0.16640    0.57020    0.43660    1.000
    N46      N        0.14820    0.65340    0.77610    1.000
    N47      N        0.93440    0.55160    0.86256    1.000
    N48      N        0.96020    0.38040    0.84000    1.000
    N49      N        0.87790    0.38800    0.88590    1.000
    N50      N        0.81120    0.67730    0.96064    1.000
    C118     C        0.08820    0.70610    0.79530    1.000
    C119     C        0.02490    0.65670    0.81570    1.000
    C120     C        0.02690    0.54580    0.81720    1.000
    C121     C        0.08810    0.48690    0.79750    1.000
    C122     C        0.14930    0.54720    0.77720    1.000
    C123     C        0.96880    0.48840    0.84120    1.000
    C124     C        0.91250    0.33840    0.86260    1.000
    C125     C        0.89080    0.49560    0.88480    1.000
    C126     C        0.86040    0.55990    0.91050    1.000
    C127     C        0.85720    0.67300    0.91040    1.000
    C128     C        0.83320    0.72750    0.93570    1.000
    C129     C        0.81410    0.57060    0.96010    1.000
    C130     C        0.83590    0.50690    0.93600    1.000
    H82      H        0.08700    0.78210    0.79420    1.000
    H83      H        0.98300    0.69680    0.82880    1.000
    H84      H        0.08940    0.41050    0.79760    1.000
    H85      H        0.19130    0.50950    0.76330    1.000
    H86      H        0.90110    0.26070    0.86240    1.000
    H87      H        0.87480    0.71220    0.89350    1.000
    H88      H        0.83180    0.80340    0.93560    1.000
    H89      H        0.80420    0.53410    0.97790    1.000
    H90      H        0.83360    0.42980    0.93660    1.000
    N51      N        0.15340    0.35180    0.52610    1.000
    N52      N        0.05160    0.56560    0.61256    1.000
    N53      N        0.88040    0.53980    0.59000    1.000
    N54      N        0.88800    0.62210    0.63590    1.000
    N55      N        0.17730    0.68880    0.71064    1.000
    C131     C        0.20610    0.41180    0.54530    1.000
    C132     C        0.15670    0.47510    0.56570    1.000
    C133     C        0.04580    0.47310    0.56720    1.000
    C134     C        0.98690    0.41190    0.54750    1.000
    C135     C        0.04720    0.35070    0.52720    1.000
    C136     C        0.98840    0.53120    0.59120    1.000
    C137     C        0.83840    0.58750    0.61260    1.000
    C138     C        0.99560    0.60920    0.63480    1.000
    C139     C        0.05990    0.63960    0.66050    1.000
    C140     C        0.17300    0.64280    0.66040    1.000
    C141     C        0.22750    0.66680    0.68570    1.000
    C142     C        0.07060    0.68590    0.71010    1.000
    C143     C        0.00690    0.66410    0.68600    1.000
    H91      H        0.28210    0.41300    0.54420    1.000
    H92      H        0.19680    0.51700    0.57880    1.000
    H93      H        0.91050    0.41060    0.54760    1.000
    H94      H        0.00950    0.30870    0.51330    1.000
    H95      H        0.76070    0.59890    0.61240    1.000
    H96      H        0.21220    0.62520    0.64350    1.000
    H97      H        0.30340    0.66820    0.68560    1.000
    H98      H        0.03410    0.69580    0.72790    1.000
    H99      H        0.92980    0.66640    0.68660    1.000
    N56      N        0.84660    0.64820    0.02610    1.000
    N57      N        0.94840    0.43440    0.11256    1.000
    N58      N        0.11960    0.46020    0.09000    1.000
    N59      N        0.11200    0.37790    0.13590    1.000
    N60      N        0.82270    0.31120    0.21064    1.000
    C144     C        0.79390    0.58820    0.04530    1.000
    C145     C        0.84330    0.52490    0.06570    1.000
    C146     C        0.95420    0.52690    0.06720    1.000
    C147     C        0.01310    0.58810    0.04750    1.000
    C148     C        0.95280    0.64930    0.02720    1.000
    C149     C        0.01160    0.46880    0.09120    1.000
    C150     C        0.16160    0.41250    0.11260    1.000
    C151     C        0.00440    0.39080    0.13480    1.000
    C152     C        0.94010    0.36040    0.16050    1.000
    C153     C        0.82700    0.35720    0.16040    1.000
    C154     C        0.77250    0.33320    0.18570    1.000
    C155     C        0.92940    0.31410    0.21010    1.000
    C156     C        0.99310    0.33590    0.18600    1.000
    H100     H        0.71790    0.58700    0.04420    1.000
    H101     H        0.80320    0.48300    0.07880    1.000
    H102     H        0.08950    0.58940    0.04760    1.000
    H103     H        0.99050    0.69130    0.01330    1.000
    H104     H        0.23930    0.40110    0.11240    1.000
    H105     H        0.78780    0.37480    0.14350    1.000
    H106     H        0.69660    0.33180    0.18560    1.000
    H107     H        0.96590    0.30420    0.22790    1.000
    H108     H        0.07020    0.33360    0.18660    1.000
    N61      N        0.64820    0.84660    0.97390    1.000
    N62      N        0.43440    0.94840    0.88744    1.000
    N63      N        0.46020    0.11960    0.91000    1.000
    N64      N        0.37790    0.11200    0.86410    1.000
    N65      N        0.31120    0.82270    0.78936    1.000
    C157     C        0.58820    0.79390    0.95470    1.000
    C158     C        0.52490    0.84330    0.93430    1.000
    C159     C        0.52690    0.95420    0.93280    1.000
    C160     C        0.58810    0.01310    0.95250    1.000
    C161     C        0.64930    0.95280    0.97280    1.000
    C162     C        0.46880    0.01160    0.90880    1.000
    C163     C        0.41250    0.16160    0.88740    1.000
    C164     C        0.39080    0.00440    0.86520    1.000
    C165     C        0.36040    0.94010    0.83950    1.000
    C166     C        0.35720    0.82700    0.83960    1.000
    C167     C        0.33320    0.77250    0.81430    1.000
    C168     C        0.31410    0.92940    0.78990    1.000
    C169     C        0.33590    0.99310    0.81400    1.000
    H109     H        0.58700    0.71790    0.95580    1.000
    H110     H        0.48300    0.80320    0.92120    1.000
    H111     H        0.58940    0.08950    0.95240    1.000
    H112     H        0.69130    0.99050    0.98670    1.000
    H113     H        0.40110    0.23930    0.88760    1.000
    H114     H        0.37480    0.78780    0.85650    1.000
    H115     H        0.33180    0.69660    0.81440    1.000
    H116     H        0.30420    0.96590    0.77210    1.000
    H117     H        0.33360    0.07020    0.81340    1.000
    N66      N        0.35180    0.15340    0.47390    1.000
    N67      N        0.56560    0.05160    0.38744    1.000
    N68      N        0.53980    0.88040    0.41000    1.000
    N69      N        0.62210    0.88800    0.36410    1.000
    N70      N        0.68880    0.17730    0.28936    1.000
    C170     C        0.41180    0.20610    0.45470    1.000
    C171     C        0.47510    0.15670    0.43430    1.000
    C172     C        0.47310    0.04580    0.43280    1.000
    C173     C        0.41190    0.98690    0.45250    1.000
    C174     C        0.35070    0.04720    0.47280    1.000
    C175     C        0.53120    0.98840    0.40880    1.000
    C176     C        0.58750    0.83840    0.38740    1.000
    C177     C        0.60920    0.99560    0.36520    1.000
    C178     C        0.63960    0.05990    0.33950    1.000
    C179     C        0.64280    0.17300    0.33960    1.000
    C180     C        0.66680    0.22750    0.31430    1.000
    C181     C        0.68590    0.07060    0.28990    1.000
    C182     C        0.66410    0.00690    0.31400    1.000
    H118     H        0.41300    0.28210    0.45580    1.000
    H119     H        0.51700    0.19680    0.42120    1.000
    H120     H        0.41060    0.91050    0.45240    1.000
    H121     H        0.30870    0.00950    0.48670    1.000
    H122     H        0.59890    0.76070    0.38760    1.000
    H123     H        0.62520    0.21220    0.35650    1.000
    H124     H        0.66820    0.30340    0.31440    1.000
    H125     H        0.69580    0.03410    0.27210    1.000
    H126     H        0.66640    0.92980    0.31340    1.000
    N71      N        0.34660    0.85180    0.72390    1.000
    N72      N        0.44840    0.06560    0.63744    1.000
    N73      N        0.61960    0.03980    0.66000    1.000
    N74      N        0.61200    0.12210    0.61410    1.000
    N75      N        0.32270    0.18880    0.53936    1.000
    C183     C        0.29390    0.91180    0.70470    1.000
    C184     C        0.34330    0.97510    0.68430    1.000
    C185     C        0.45420    0.97310    0.68280    1.000
    C186     C        0.51310    0.91190    0.70250    1.000
    C187     C        0.45280    0.85070    0.72280    1.000
    C188     C        0.51160    0.03120    0.65880    1.000
    C189     C        0.66160    0.08750    0.63740    1.000
    C190     C        0.50440    0.10920    0.61520    1.000
    C191     C        0.44010    0.13960    0.58950    1.000
    C192     C        0.32700    0.14280    0.58960    1.000
    C193     C        0.27250    0.16680    0.56430    1.000
    C194     C        0.42940    0.18590    0.53990    1.000
    C195     C        0.49310    0.16410    0.56400    1.000
    H127     H        0.21790    0.91300    0.70580    1.000
    H128     H        0.30320    0.01700    0.67120    1.000
    H129     H        0.58950    0.91060    0.70240    1.000
    H130     H        0.49050    0.80870    0.73670    1.000
    H131     H        0.73930    0.09890    0.63760    1.000
    H132     H        0.28780    0.12520    0.60650    1.000
    H133     H        0.19660    0.16820    0.56440    1.000
    H134     H        0.46590    0.19580    0.52210    1.000
    H135     H        0.57020    0.16640    0.56340    1.000
    N76      N        0.65340    0.14820    0.22390    1.000
    N77      N        0.55160    0.93440    0.13744    1.000
    N78      N        0.38040    0.96020    0.16000    1.000
    N79      N        0.38800    0.87790    0.11410    1.000
    N80      N        0.67730    0.81120    0.03936    1.000
    C196     C        0.70610    0.08820    0.20470    1.000
    C197     C        0.65670    0.02490    0.18430    1.000
    C198     C        0.54580    0.02690    0.18280    1.000
    C199     C        0.48690    0.08810    0.20250    1.000
    C200     C        0.54720    0.14930    0.22280    1.000
    C201     C        0.48840    0.96880    0.15880    1.000
    C202     C        0.33840    0.91250    0.13740    1.000
    C203     C        0.49560    0.89080    0.11520    1.000
    C204     C        0.55990    0.86040    0.08950    1.000
    C205     C        0.67300    0.85720    0.08960    1.000
    C206     C        0.72750    0.83320    0.06430    1.000
    C207     C        0.57060    0.81410    0.03990    1.000
    C208     C        0.50690    0.83590    0.06400    1.000
    H136     H        0.78210    0.08700    0.20580    1.000
    H137     H        0.69680    0.98300    0.17120    1.000
    H138     H        0.41050    0.08940    0.20240    1.000
    H139     H        0.50950    0.19130    0.23670    1.000
    H140     H        0.26070    0.90110    0.13760    1.000
    H141     H        0.71220    0.87480    0.10650    1.000
    H142     H        0.80340    0.83180    0.06440    1.000
    H143     H        0.53410    0.80420    0.02210    1.000
    H144     H        0.42980    0.83360    0.06340    1.000
    Zn5      Zn       0.74361    0.25639    0.25000    1.000
    Zn6      Zn       0.25639    0.74361    0.75000    1.000
    Zn7      Zn       0.24361    0.24361    0.50000    1.000
    Zn8      Zn       0.75639    0.75639    0.00000    1.000
