data_functionalizedCrystal
_audit_creation_method	'EQeq! by Chris Wilmer'
_symmetry_space_group_name_H-M	'P1'
_symmetry_Int_Tables_number	1
_symmetry_cell_setting	triclinic
loop_
_symmetry_equiv_pos_as_xyz
  x,y,z
_cell_length_a	9.0494
_cell_length_b	17.475
_cell_length_c	10.5357
_cell_angle_alpha	90
_cell_angle_beta	106.359
_cell_angle_gamma	90
loop_
_atom_site_label
_atom_site_type_symbol
_atom_site_fract_x
_atom_site_fract_y
_atom_site_fract_z
_atom_site_charge
Mof_C 	C 	0.1204	0.1446	0.2312	-0.025
Mof_N 	N 	0.0886	0.0929	0.1643	-0.144
Mof_C 	C 	0.8204	0.1462	0.7905	-0.01
Mof_N 	N 	0.8559	0.0951	0.8568	-0.125
Mof_N 	N 	0.218	0.0304	0.9343	-0.27
Mof_H 	H 	0.2226	0.0818	0.9325	0.111
Mof_H 	H 	0.2996	0.0149	0.0001	0.08
Mof_C 	C 	0.2441	0.0041	0.8141	0.214
Mof_H 	H 	0.1854	0.9562	0.8018	-0.019
Mof_C 	C 	0.1576	0.0457	0.697	-0.347
Mof_H 	H 	0.1887	0.099	0.7061	0.121
Mof_H 	H 	0.0489	0.0435	0.6917	0.123
Mof_C 	C 	0.181	0.0142	0.5676	0.133
Mof_H 	H 	0.1306	0.9648	0.5478	-0.016
Mof_H 	H 	0.1345	0.0487	0.4952	-0.028
Mof_C 	C 	0.35	0.006	0.5817	-0.324
Mof_H 	H 	0.4034	0.0536	0.6118	0.119
Mof_H 	H 	0.3668	0.9918	0.498	0.121
Mof_C 	C 	0.404	0.9431	0.6839	0.142
Mof_H 	H 	0.5089	0.9283	0.6884	-0.024
Mof_H 	H 	0.3386	0.8984	0.66	-0.017
Mof_C 	C 	0.3968	0.9744	0.8169	-0.332
Mof_H 	H 	0.4245	0.934	0.8825	0.12
Mof_H 	H 	0.472	0.015	0.844	0.113
Mof_C 	C 	0.8796	0.6446	0.7688	-0.005
Mof_N 	N 	0.9114	0.5929	0.8357	-0.123
Mof_C 	C 	0.1796	0.6462	0.2095	-0.033
Mof_N 	N 	0.1441	0.5951	0.1432	-0.145
Mof_N 	N 	0.782	0.5304	0.0657	-0.312
Mof_H 	H 	0.7774	0.5818	0.0675	0.109
Mof_H 	H 	0.7004	0.5149	0.9999	0.132
Mof_C 	C 	0.7559	0.5041	0.1859	0.236
Mof_H 	H 	0.8146	0.4562	0.1982	-0.025
Mof_C 	C 	0.8424	0.5457	0.303	-0.363
Mof_H 	H 	0.8113	0.599	0.2939	0.127
Mof_H 	H 	0.9511	0.5435	0.3083	0.147
Mof_C 	C 	0.819	0.5142	0.4324	0.137
Mof_H 	H 	0.8694	0.4648	0.4522	-0.008
Mof_H 	H 	0.8655	0.5487	0.5048	-0.018
Mof_C 	C 	0.65	0.506	0.4183	-0.302
Mof_H 	H 	0.5966	0.5536	0.3882	0.112
Mof_H 	H 	0.6332	0.4918	0.502	0.111
Mof_C 	C 	0.596	0.4431	0.3161	0.134
Mof_H 	H 	0.4911	0.4283	0.3116	-0.025
Mof_H 	H 	0.6614	0.3984	0.34	-0.013
Mof_C 	C 	0.6032	0.4744	0.1831	-0.353
Mof_H 	H 	0.5755	0.434	0.1175	0.113
Mof_H 	H 	0.528	0.515	0.156	0.114
Mof_C 	C 	0.8796	0.8554	0.7688	-0.005
Mof_N 	N 	0.9114	0.9071	0.8357	-0.121
Mof_C 	C 	0.1796	0.8538	0.2095	-0.033
Mof_N 	N 	0.1441	0.9049	0.1432	-0.143
Mof_N 	N 	0.782	0.9696	0.0657	-0.316
Mof_H 	H 	0.7774	0.9182	0.0675	0.11
Mof_H 	H 	0.7004	0.9851	0.9999	0.135
Mof_C 	C 	0.7559	0.9959	0.1859	0.272
Mof_H 	H 	0.8146	0.0438	0.1982	-0.038
Mof_C 	C 	0.8424	0.9543	0.303	-0.391
Mof_H 	H 	0.8113	0.901	0.2939	0.135
Mof_H 	H 	0.9511	0.9565	0.3083	0.156
Mof_C 	C 	0.819	0.9858	0.4324	0.163
Mof_H 	H 	0.8694	0.0352	0.4522	-0.019
Mof_H 	H 	0.8655	0.9513	0.5048	-0.025
Mof_C 	C 	0.65	0.994	0.4183	-0.306
Mof_H 	H 	0.5966	0.9464	0.3882	0.114
Mof_H 	H 	0.6332	0.0082	0.502	0.108
Mof_C 	C 	0.596	0.0569	0.3161	0.151
Mof_H 	H 	0.4911	0.0717	0.3116	-0.032
Mof_H 	H 	0.6614	0.1016	0.34	-0.018
Mof_C 	C 	0.6032	0.0256	0.1831	-0.397
Mof_H 	H 	0.5755	0.066	0.1175	0.126
Mof_H 	H 	0.528	0.985	0.156	0.131
Mof_C 	C 	0.1204	0.3554	0.2312	-0.026
Mof_N 	N 	0.0886	0.4071	0.1643	-0.144
Mof_C 	C 	0.8204	0.3538	0.7905	-0.011
Mof_N 	N 	0.8559	0.4049	0.8568	-0.126
Mof_N 	N 	0.218	0.4696	0.9343	-0.277
Mof_H 	H 	0.2226	0.4182	0.9325	0.112
Mof_H 	H 	0.2996	0.4851	0.0001	0.083
Mof_C 	C 	0.2441	0.4959	0.8141	0.254
Mof_H 	H 	0.1854	0.5438	0.8018	-0.034
Mof_C 	C 	0.1576	0.4543	0.697	-0.381
Mof_H 	H 	0.1887	0.401	0.7061	0.13
Mof_H 	H 	0.0489	0.4565	0.6917	0.135
Mof_C 	C 	0.181	0.4858	0.5676	0.165
Mof_H 	H 	0.1306	0.5352	0.5478	-0.03
Mof_H 	H 	0.1345	0.4513	0.4952	-0.037
Mof_C 	C 	0.35	0.494	0.5817	-0.33
Mof_H 	H 	0.4034	0.4464	0.6118	0.122
Mof_H 	H 	0.3668	0.5082	0.498	0.118
Mof_C 	C 	0.404	0.5569	0.6839	0.16
Mof_H 	H 	0.5089	0.5717	0.6884	-0.031
Mof_H 	H 	0.3386	0.6016	0.66	-0.023
Mof_C 	C 	0.3968	0.5256	0.8169	-0.379
Mof_H 	H 	0.4245	0.566	0.8825	0.133
Mof_H 	H 	0.472	0.485	0.844	0.131
Mof_Cd	Cd	-0	0	-0	0.304
Mof_Cd	Cd	-0	0.5	-0	0.31
Mof_Cd	Cd	0.16794	0.25	0.34898	0.259
Mof_Cd	Cd	0.7723	0.25	0.66831	0.302
Mof_C 	C 	0.4089	0.25	0.4689	-0.022
Mof_N 	N 	0.5331	0.25	0.532	-0.148
Mof_C 	C 	0.0212	0.25	0.4829	-0.045
Mof_N 	N 	0.9372	0.25	0.5416	-0.124
Mof_Cd	Cd	0.83206	0.75	0.65102	0.266
Mof_Cd	Cd	0.2277	0.75	0.33169	0.288
Mof_C 	C 	0.5911	0.75	0.5311	-0.022
Mof_N 	N 	0.4669	0.75	0.468	-0.149
Mof_C 	C 	0.9788	0.75	0.5171	0.019
Mof_N 	N 	0.0628	0.75	0.4584	-0.172
_end
