data_functionalizedCrystal
_audit_creation_method	'EQeq! by Chris Wilmer'
_symmetry_space_group_name_H-M	'P1'
_symmetry_Int_Tables_number	1
_symmetry_cell_setting	triclinic
loop_
_symmetry_equiv_pos_as_xyz
  x,y,z
_cell_length_a	12.1
_cell_length_b	26.162
_cell_length_c	26.162
_cell_angle_alpha	90
_cell_angle_beta	90
_cell_angle_gamma	90
loop_
_atom_site_label
_atom_site_type_symbol
_atom_site_fract_x
_atom_site_fract_y
_atom_site_fract_z
_atom_site_charge
Mof_Cu	Cu	0.07621	0.99393	0.03557	0.904
Mof_Cu	Cu	0.92379	0.00607	0.53557	0.904
Mof_Cu	Cu	0.92379	0.49393	0.46443	0.907
Mof_Cu	Cu	0.07621	0.50607	0.96443	0.907
Mof_Cu	Cu	0.92379	0.00607	0.96443	0.903
Mof_Cu	Cu	0.07621	0.99393	0.46443	0.903
Mof_Cu	Cu	0.07621	0.50607	0.53557	0.906
Mof_Cu	Cu	0.92379	0.49393	0.03557	0.906
Mof_Cu	Cu	0.01028	0.70493	0.75	0.912
Mof_Cu	Cu	0.85594	0.7761	0.75	0.903
Mof_Cu	Cu	0.98972	0.29507	0.25	0.912
Mof_Cu	Cu	0.14406	0.2239	0.25	0.903
Mof_Cu	Cu	0.98972	0.20493	0.75	0.911
Mof_Cu	Cu	0.14406	0.2761	0.75	0.903
Mof_Cu	Cu	0.01028	0.79507	0.25	0.911
Mof_Cu	Cu	0.85594	0.7239	0.25	0.903
Mof_H 	H 	0.9021	0.6115	0.8688	0.077
Mof_H 	H 	0.6994	0.6128	0.9891	0.109
Mof_H 	H 	0.6683	0.7201	0.8807	0.101
Mof_H 	H 	0.5841	0.7603	0.9478	0.05
Mof_H 	H 	0.4881	0.7262	0.926	0.049
Mof_H 	H 	0.4309	0.6755	0.0239	0.052
Mof_H 	H 	0.3358	0.6958	0.9881	0.053
Mof_H 	H 	0.2457	0.633	0.0284	0.101
Mof_H 	H 	0.0004	0.6252	0.131	0.072
Mof_H 	H 	0.2114	0.7427	0.1328	0.11
Mof_H 	H 	0.0979	0.3885	0.3688	0.077
Mof_H 	H 	0.3006	0.3872	0.4891	0.109
Mof_H 	H 	0.3317	0.2799	0.3807	0.101
Mof_H 	H 	0.4159	0.2397	0.4478	0.051
Mof_H 	H 	0.5119	0.2738	0.426	0.049
Mof_H 	H 	0.5691	0.3245	0.5239	0.052
Mof_H 	H 	0.6642	0.3042	0.4881	0.053
Mof_H 	H 	0.7543	0.367	0.5284	0.101
Mof_H 	H 	0.9996	0.3748	0.631	0.072
Mof_H 	H 	0.7886	0.2573	0.6328	0.11
Mof_H 	H 	0.0979	0.1115	0.6312	0.078
Mof_H 	H 	0.3006	0.1128	0.5109	0.109
Mof_H 	H 	0.3317	0.2201	0.6193	0.101
Mof_H 	H 	0.4159	0.2603	0.5522	0.051
Mof_H 	H 	0.5119	0.2262	0.574	0.049
Mof_H 	H 	0.5691	0.1755	0.4761	0.052
Mof_H 	H 	0.6642	0.1958	0.5119	0.052
Mof_H 	H 	0.7543	0.133	0.4716	0.101
Mof_H 	H 	0.9996	0.1252	0.369	0.071
Mof_H 	H 	0.7886	0.2427	0.3672	0.111
Mof_H 	H 	0.9021	0.8885	0.1312	0.078
Mof_H 	H 	0.6994	0.8872	0.0109	0.109
Mof_H 	H 	0.6683	0.7799	0.1193	0.101
Mof_H 	H 	0.5841	0.7397	0.0522	0.05
Mof_H 	H 	0.4881	0.7738	0.074	0.049
Mof_H 	H 	0.4309	0.8245	0.9761	0.051
Mof_H 	H 	0.3358	0.8042	0.0119	0.05
Mof_H 	H 	0.2457	0.867	0.9716	0.102
Mof_H 	H 	0.0004	0.8748	0.869	0.071
Mof_H 	H 	0.2114	0.7573	0.8672	0.111
Mof_H 	H 	0.0979	0.3885	0.1312	0.077
Mof_H 	H 	0.3006	0.3872	0.0109	0.109
Mof_H 	H 	0.3317	0.2799	0.1193	0.101
Mof_H 	H 	0.4159	0.2397	0.0522	0.051
Mof_H 	H 	0.5119	0.2738	0.074	0.049
Mof_H 	H 	0.5691	0.3245	0.9761	0.052
Mof_H 	H 	0.6642	0.3042	0.0119	0.052
Mof_H 	H 	0.7543	0.367	0.9716	0.101
Mof_H 	H 	0.9996	0.3748	0.869	0.072
Mof_H 	H 	0.7886	0.2573	0.8672	0.111
Mof_H 	H 	0.9021	0.6115	0.6312	0.077
Mof_H 	H 	0.6994	0.6128	0.5109	0.109
Mof_H 	H 	0.6683	0.7201	0.6193	0.101
Mof_H 	H 	0.5841	0.7603	0.5522	0.051
Mof_H 	H 	0.4881	0.7262	0.574	0.049
Mof_H 	H 	0.4309	0.6755	0.4761	0.052
Mof_H 	H 	0.3358	0.6958	0.5119	0.053
Mof_H 	H 	0.2457	0.633	0.4716	0.101
Mof_H 	H 	0.0004	0.6252	0.369	0.072
Mof_H 	H 	0.2114	0.7427	0.3672	0.11
Mof_H 	H 	0.9021	0.8885	0.3688	0.078
Mof_H 	H 	0.6994	0.8872	0.4891	0.109
Mof_H 	H 	0.6683	0.7799	0.3807	0.101
Mof_H 	H 	0.5841	0.7397	0.4478	0.051
Mof_H 	H 	0.4881	0.7738	0.426	0.049
Mof_H 	H 	0.4309	0.8245	0.5239	0.052
Mof_H 	H 	0.3358	0.8042	0.4881	0.052
Mof_H 	H 	0.2457	0.867	0.5284	0.101
Mof_H 	H 	0.0004	0.8748	0.631	0.071
Mof_H 	H 	0.2114	0.7573	0.6328	0.111
Mof_H 	H 	0.0979	0.1115	0.8688	0.078
Mof_H 	H 	0.3006	0.1128	0.9891	0.109
Mof_H 	H 	0.3317	0.2201	0.8807	0.101
Mof_H 	H 	0.4159	0.2603	0.9478	0.051
Mof_H 	H 	0.5119	0.2262	0.926	0.049
Mof_H 	H 	0.5691	0.1755	0.0239	0.052
Mof_H 	H 	0.6642	0.1958	0.9881	0.052
Mof_H 	H 	0.7543	0.133	0.0284	0.102
Mof_H 	H 	0.9996	0.1252	0.131	0.071
Mof_H 	H 	0.7886	0.2427	0.1328	0.111
Mof_C 	C 	0.7933	0.66956	0.86871	-0.012
Mof_C 	C 	0.8451	0.62661	0.88725	-0.041
Mof_C 	C 	0.8117	0.60591	0.93374	-0.01
Mof_C 	C 	0.7238	0.62756	0.95877	-0.142
Mof_C 	C 	0.6704	0.67038	0.94056	0.205
Mof_C 	C 	0.7042	0.69178	0.89423	-0.144
Mof_C 	C 	0.835	0.69352	0.82103	0.327
Mof_C 	C 	0.8772	0.5628	0.9564	0.34
Mof_C 	C 	0.5324	0.73324	0.95609	0.01
Mof_C 	C 	0.3857	0.705	0.01562	-0.001
Mof_C 	C 	0.2416	0.69302	0.07668	0.209
Mof_C 	C 	0.2075	0.64684	0.056	-0.143
Mof_C 	C 	0.1171	0.62097	0.07591	-0.019
Mof_C 	C 	0.0615	0.64191	0.1174	-0.034
Mof_C 	C 	0.0966	0.68755	0.13861	-0.018
Mof_C 	C 	0.1871	0.71236	0.11815	-0.143
Mof_C 	C 	0.0783	0.57434	0.05009	0.336
Mof_C 	C 	0.0364	0.71115	0.18116	0.329
Mof_C 	C 	0.2067	0.33044	0.36871	-0.012
Mof_C 	C 	0.1549	0.37339	0.38725	-0.041
Mof_C 	C 	0.1883	0.39409	0.43374	-0.01
Mof_C 	C 	0.2762	0.37244	0.45877	-0.141
Mof_C 	C 	0.3296	0.32962	0.44056	0.205
Mof_C 	C 	0.2958	0.30822	0.39423	-0.144
Mof_C 	C 	0.165	0.30648	0.32103	0.327
Mof_C 	C 	0.1228	0.4372	0.4564	0.34
Mof_C 	C 	0.4676	0.26676	0.45609	0.007
Mof_C 	C 	0.6143	0.295	0.51562	-0.001
Mof_C 	C 	0.7584	0.30698	0.57668	0.21
Mof_C 	C 	0.7925	0.35316	0.556	-0.143
Mof_C 	C 	0.8829	0.37903	0.57591	-0.019
Mof_C 	C 	0.9385	0.35809	0.6174	-0.034
Mof_C 	C 	0.9034	0.31245	0.63861	-0.017
Mof_C 	C 	0.8129	0.28764	0.61815	-0.143
Mof_C 	C 	0.9217	0.42566	0.55009	0.336
Mof_C 	C 	0.9636	0.28885	0.68116	0.329
Mof_C 	C 	0.2067	0.16956	0.63129	-0.012
Mof_C 	C 	0.1549	0.12661	0.61275	-0.041
Mof_C 	C 	0.1883	0.10591	0.56626	-0.009
Mof_C 	C 	0.2762	0.12756	0.54123	-0.142
Mof_C 	C 	0.3296	0.17038	0.55944	0.205
Mof_C 	C 	0.2958	0.19178	0.60577	-0.144
Mof_C 	C 	0.165	0.19352	0.67897	0.327
Mof_C 	C 	0.1228	0.0628	0.5436	0.34
Mof_C 	C 	0.4676	0.23324	0.54391	0.007
Mof_C 	C 	0.6143	0.205	0.48438	-0.001
Mof_C 	C 	0.7584	0.19302	0.42332	0.21
Mof_C 	C 	0.7925	0.14684	0.444	-0.144
Mof_C 	C 	0.8829	0.12097	0.42409	-0.017
Mof_C 	C 	0.9385	0.14191	0.3826	-0.036
Mof_C 	C 	0.9034	0.18755	0.36139	-0.016
Mof_C 	C 	0.8129	0.21236	0.38185	-0.144
Mof_C 	C 	0.9217	0.07434	0.44991	0.33
Mof_C 	C 	0.9636	0.21115	0.31884	0.328
Mof_C 	C 	0.7933	0.83044	0.13129	-0.012
Mof_C 	C 	0.8451	0.87339	0.11275	-0.041
Mof_C 	C 	0.8117	0.89409	0.06626	-0.01
Mof_C 	C 	0.7238	0.87244	0.04123	-0.142
Mof_C 	C 	0.6704	0.82962	0.05944	0.205
Mof_C 	C 	0.7042	0.80822	0.10577	-0.144
Mof_C 	C 	0.835	0.80648	0.17897	0.327
Mof_C 	C 	0.8772	0.9372	0.0436	0.34
Mof_C 	C 	0.5324	0.76676	0.04391	0.009
Mof_C 	C 	0.3857	0.795	0.98438	0.004
Mof_C 	C 	0.2416	0.80698	0.92332	0.211
Mof_C 	C 	0.2075	0.85316	0.944	-0.145
Mof_C 	C 	0.1171	0.87903	0.92409	-0.016
Mof_C 	C 	0.0615	0.85809	0.8826	-0.036
Mof_C 	C 	0.0966	0.81245	0.86139	-0.016
Mof_C 	C 	0.1871	0.78764	0.88185	-0.144
Mof_C 	C 	0.0783	0.92566	0.94991	0.33
Mof_C 	C 	0.0364	0.78885	0.81884	0.328
Mof_C 	C 	0.2067	0.33044	0.13129	-0.012
Mof_C 	C 	0.1549	0.37339	0.11275	-0.041
Mof_C 	C 	0.1883	0.39409	0.06626	-0.01
Mof_C 	C 	0.2762	0.37244	0.04123	-0.141
Mof_C 	C 	0.3296	0.32962	0.05944	0.205
Mof_C 	C 	0.2958	0.30822	0.10577	-0.144
Mof_C 	C 	0.165	0.30648	0.17897	0.327
Mof_C 	C 	0.1228	0.4372	0.0436	0.34
Mof_C 	C 	0.4676	0.26676	0.04391	0.008
Mof_C 	C 	0.6143	0.295	0.98438	0
Mof_C 	C 	0.7584	0.30698	0.92332	0.21
Mof_C 	C 	0.7925	0.35316	0.944	-0.143
Mof_C 	C 	0.8829	0.37903	0.92409	-0.018
Mof_C 	C 	0.9385	0.35809	0.8826	-0.034
Mof_C 	C 	0.9034	0.31245	0.86139	-0.017
Mof_C 	C 	0.8129	0.28764	0.88185	-0.143
Mof_C 	C 	0.9217	0.42566	0.94991	0.336
Mof_C 	C 	0.9636	0.28885	0.81884	0.329
Mof_C 	C 	0.7933	0.66956	0.63129	-0.012
Mof_C 	C 	0.8451	0.62661	0.61275	-0.041
Mof_C 	C 	0.8117	0.60591	0.56626	-0.01
Mof_C 	C 	0.7238	0.62756	0.54123	-0.141
Mof_C 	C 	0.6704	0.67038	0.55944	0.205
Mof_C 	C 	0.7042	0.69178	0.60577	-0.144
Mof_C 	C 	0.835	0.69352	0.67897	0.327
Mof_C 	C 	0.8772	0.5628	0.5436	0.34
Mof_C 	C 	0.5324	0.73324	0.54391	0.007
Mof_C 	C 	0.3857	0.705	0.48438	-0.001
Mof_C 	C 	0.2416	0.69302	0.42332	0.21
Mof_C 	C 	0.2075	0.64684	0.444	-0.143
Mof_C 	C 	0.1171	0.62097	0.42409	-0.019
Mof_C 	C 	0.0615	0.64191	0.3826	-0.034
Mof_C 	C 	0.0966	0.68755	0.36139	-0.017
Mof_C 	C 	0.1871	0.71236	0.38185	-0.143
Mof_C 	C 	0.0783	0.57434	0.44991	0.336
Mof_C 	C 	0.0364	0.71115	0.31884	0.329
Mof_C 	C 	0.7933	0.83044	0.36871	-0.012
Mof_C 	C 	0.8451	0.87339	0.38725	-0.041
Mof_C 	C 	0.8117	0.89409	0.43374	-0.009
Mof_C 	C 	0.7238	0.87244	0.45877	-0.142
Mof_C 	C 	0.6704	0.82962	0.44056	0.205
Mof_C 	C 	0.7042	0.80822	0.39423	-0.144
Mof_C 	C 	0.835	0.80648	0.32103	0.327
Mof_C 	C 	0.8772	0.9372	0.4564	0.34
Mof_C 	C 	0.5324	0.76676	0.45609	0.007
Mof_C 	C 	0.3857	0.795	0.51562	-0.001
Mof_C 	C 	0.2416	0.80698	0.57668	0.21
Mof_C 	C 	0.2075	0.85316	0.556	-0.144
Mof_C 	C 	0.1171	0.87903	0.57591	-0.017
Mof_C 	C 	0.0615	0.85809	0.6174	-0.036
Mof_C 	C 	0.0966	0.81245	0.63861	-0.016
Mof_C 	C 	0.1871	0.78764	0.61815	-0.144
Mof_C 	C 	0.0783	0.92566	0.55009	0.33
Mof_C 	C 	0.0364	0.78885	0.68116	0.328
Mof_C 	C 	0.2067	0.16956	0.86871	-0.012
Mof_C 	C 	0.1549	0.12661	0.88725	-0.041
Mof_C 	C 	0.1883	0.10591	0.93374	-0.01
Mof_C 	C 	0.2762	0.12756	0.95877	-0.142
Mof_C 	C 	0.3296	0.17038	0.94056	0.205
Mof_C 	C 	0.2958	0.19178	0.89423	-0.144
Mof_C 	C 	0.165	0.19352	0.82103	0.327
Mof_C 	C 	0.1228	0.0628	0.9564	0.34
Mof_C 	C 	0.4676	0.23324	0.95609	0.008
Mof_C 	C 	0.6143	0.205	0.01562	-0
Mof_C 	C 	0.7584	0.19302	0.07668	0.21
Mof_C 	C 	0.7925	0.14684	0.056	-0.144
Mof_C 	C 	0.8829	0.12097	0.07591	-0.017
Mof_C 	C 	0.9385	0.14191	0.1174	-0.036
Mof_C 	C 	0.9034	0.18755	0.13861	-0.016
Mof_C 	C 	0.8129	0.21236	0.11815	-0.144
Mof_C 	C 	0.9217	0.07434	0.05009	0.33
Mof_C 	C 	0.9636	0.21115	0.18116	0.328
Mof_C 	C 	0.4581	0.75	-0	0.021
Mof_C 	C 	0.5419	0.25	0.5	0.024
Mof_C 	C 	0.5419	0.25	-0	0.023
Mof_C 	C 	0.4581	0.75	0.5	0.024
Mof_O 	O 	0.9218	0.67383	0.80208	-0.399
Mof_O 	O 	0.78996	0.73363	0.8041	-0.394
Mof_O 	O 	0.9666	0.55268	0.93567	-0.407
Mof_O 	O 	0.83752	0.54284	0.99622	-0.399
Mof_O 	O 	0.58998	0.68948	0.97037	-0.232
Mof_O 	O 	0.32535	0.72128	0.05925	-0.231
Mof_O 	O 	0.12511	0.5611	0.00994	-0.404
Mof_O 	O 	0.99469	0.55189	0.06948	-0.393
Mof_O 	O 	0.94832	0.6913	0.19733	-0.391
Mof_O 	O 	0.0767	0.75252	0.19821	-0.4
Mof_O 	O 	0.0782	0.32617	0.30208	-0.399
Mof_O 	O 	0.21004	0.26637	0.3041	-0.394
Mof_O 	O 	0.0334	0.44732	0.43567	-0.408
Mof_O 	O 	0.16248	0.45716	0.49622	-0.4
Mof_O 	O 	0.41002	0.31052	0.47037	-0.232
Mof_O 	O 	0.67465	0.27872	0.55925	-0.231
Mof_O 	O 	0.87489	0.4389	0.50994	-0.404
Mof_O 	O 	0.00531	0.44811	0.56948	-0.392
Mof_O 	O 	0.05168	0.3087	0.69733	-0.391
Mof_O 	O 	0.9233	0.24748	0.69821	-0.4
Mof_O 	O 	0.0782	0.17383	0.69792	-0.398
Mof_O 	O 	0.21004	0.23363	0.6959	-0.394
Mof_O 	O 	0.0334	0.05268	0.56433	-0.405
Mof_O 	O 	0.16248	0.04284	0.50378	-0.398
Mof_O 	O 	0.41002	0.18948	0.52963	-0.232
Mof_O 	O 	0.67465	0.22128	0.44075	-0.231
Mof_O 	O 	0.87489	0.0611	0.49006	-0.404
Mof_O 	O 	0.00531	0.05189	0.43052	-0.387
Mof_O 	O 	0.05168	0.1913	0.30267	-0.389
Mof_O 	O 	0.9233	0.25252	0.30179	-0.4
Mof_O 	O 	0.9218	0.82617	0.19792	-0.398
Mof_O 	O 	0.78996	0.76637	0.1959	-0.394
Mof_O 	O 	0.9666	0.94732	0.06433	-0.406
Mof_O 	O 	0.83752	0.95716	0.00378	-0.399
Mof_O 	O 	0.58998	0.81052	0.02963	-0.233
Mof_O 	O 	0.32535	0.77872	0.94075	-0.232
Mof_O 	O 	0.12511	0.9389	0.99006	-0.403
Mof_O 	O 	0.99469	0.94811	0.93052	-0.387
Mof_O 	O 	0.94832	0.8087	0.80267	-0.389
Mof_O 	O 	0.0767	0.74748	0.80179	-0.4
Mof_O 	O 	0.0782	0.32617	0.19792	-0.399
Mof_O 	O 	0.21004	0.26637	0.1959	-0.394
Mof_O 	O 	0.0334	0.44732	0.06433	-0.408
Mof_O 	O 	0.16248	0.45716	0.00378	-0.4
Mof_O 	O 	0.41002	0.31052	0.02963	-0.232
Mof_O 	O 	0.67465	0.27872	0.94075	-0.231
Mof_O 	O 	0.87489	0.4389	0.99006	-0.404
Mof_O 	O 	0.00531	0.44811	0.93052	-0.392
Mof_O 	O 	0.05168	0.3087	0.80267	-0.391
Mof_O 	O 	0.9233	0.24748	0.80179	-0.4
Mof_O 	O 	0.9218	0.67383	0.69792	-0.399
Mof_O 	O 	0.78996	0.73363	0.6959	-0.394
Mof_O 	O 	0.9666	0.55268	0.56433	-0.408
Mof_O 	O 	0.83752	0.54284	0.50378	-0.4
Mof_O 	O 	0.58998	0.68948	0.52963	-0.232
Mof_O 	O 	0.32535	0.72128	0.44075	-0.231
Mof_O 	O 	0.12511	0.5611	0.49006	-0.404
Mof_O 	O 	0.99469	0.55189	0.43052	-0.392
Mof_O 	O 	0.94832	0.6913	0.30267	-0.391
Mof_O 	O 	0.0767	0.75252	0.30179	-0.4
Mof_O 	O 	0.9218	0.82617	0.30208	-0.398
Mof_O 	O 	0.78996	0.76637	0.3041	-0.394
Mof_O 	O 	0.9666	0.94732	0.43567	-0.405
Mof_O 	O 	0.83752	0.95716	0.49622	-0.398
Mof_O 	O 	0.58998	0.81052	0.47037	-0.232
Mof_O 	O 	0.32535	0.77872	0.55925	-0.231
Mof_O 	O 	0.12511	0.9389	0.50994	-0.404
Mof_O 	O 	0.99469	0.94811	0.56948	-0.387
Mof_O 	O 	0.94832	0.8087	0.69733	-0.389
Mof_O 	O 	0.0767	0.74748	0.69821	-0.4
Mof_O 	O 	0.0782	0.17383	0.80208	-0.398
Mof_O 	O 	0.21004	0.23363	0.8041	-0.394
Mof_O 	O 	0.0334	0.05268	0.93567	-0.405
Mof_O 	O 	0.16248	0.04284	0.99622	-0.398
Mof_O 	O 	0.41002	0.18948	0.97037	-0.232
Mof_O 	O 	0.67465	0.22128	0.05925	-0.231
Mof_O 	O 	0.87489	0.0611	0.00994	-0.404
Mof_O 	O 	0.00531	0.05189	0.06948	-0.387
Mof_O 	O 	0.05168	0.1913	0.19733	-0.389
Mof_O 	O 	0.9233	0.25252	0.19821	-0.4
_end
