# CIF file generated by openbabel 3.1.0, see https://openbabel.org
data_I
_chemical_name_common 'image0'
_cell_length_a 11.238
_cell_length_b 11.644
_cell_length_c 10.02
_cell_angle_alpha 90
_cell_angle_beta 102.67
_cell_angle_gamma 90
_space_group_name_H-M_alt 'P 1'
_space_group_name_Hall 'P 1'
loop_
    _symmetry_equiv_pos_as_xyz
    x,y,z
loop_
    _atom_site_label
    _atom_site_type_symbol
    _atom_site_fract_x
    _atom_site_fract_y
    _atom_site_fract_z
    _atom_site_occupancy
    Cu1      Cu       0.25000    0.57450    0.25000    1.000
    Cu2      Cu       0.43100    0.40480    0.29340    1.000
    S1       S        0.15840    0.67480    0.05450    1.000
    C1       C        0.07190    0.75820    0.12390    1.000
    N1       N        0.01350    0.81750    0.17460    1.000
    S2       S        0.20850    0.37270    0.20320    1.000
    C2       C        0.21270    0.38010    0.03860    1.000
    N2       N        0.21620    0.38570    0.92460    1.000
    S3       S        0.46810    0.60850    0.26940    1.000
    C3       C        0.46400    0.61600    0.10310    1.000
    N3       N        0.46350    0.62010    0.98900    1.000
    Cu3      Cu       0.75000    0.07450    0.25000    1.000
    Cu4      Cu       0.93100    0.90480    0.29340    1.000
    S4       S        0.65840    0.17480    0.05450    1.000
    C4       C        0.57190    0.25820    0.12390    1.000
    N4       N        0.51350    0.31750    0.17460    1.000
    S5       S        0.70850    0.87270    0.20320    1.000
    C5       C        0.71270    0.88010    0.03860    1.000
    N5       N        0.71620    0.88570    0.92460    1.000
    S6       S        0.96810    0.10850    0.26940    1.000
    C6       C        0.96400    0.11600    0.10310    1.000
    N6       N        0.96350    0.12010    0.98900    1.000
    Cu5      Cu       0.25000    0.42550    0.75000    1.000
    Cu6      Cu       0.43100    0.59520    0.79340    1.000
    S7       S        0.15840    0.32520    0.55450    1.000
    C7       C        0.07190    0.24180    0.62390    1.000
    N7       N        0.01350    0.18250    0.67460    1.000
    S8       S        0.20850    0.62730    0.70320    1.000
    C8       C        0.21270    0.61990    0.53860    1.000
    N8       N        0.21620    0.61430    0.42460    1.000
    S9       S        0.46810    0.39150    0.76940    1.000
    C9       C        0.46400    0.38400    0.60310    1.000
    N9       N        0.46350    0.37990    0.48900    1.000
    Cu7      Cu       0.75000    0.92550    0.75000    1.000
    Cu8      Cu       0.93100    0.09520    0.79340    1.000
    S10      S        0.65840    0.82520    0.55450    1.000
    C10      C        0.57190    0.74180    0.62390    1.000
    N10      N        0.51350    0.68250    0.67460    1.000
    S11      S        0.70850    0.12730    0.70320    1.000
    C11      C        0.71270    0.11990    0.53860    1.000
    N11      N        0.71620    0.11430    0.42460    1.000
    S12      S        0.96810    0.89150    0.76940    1.000
    C12      C        0.96400    0.88400    0.60310    1.000
    N12      N        0.96350    0.87990    0.48900    1.000
