data_functionalizedCrystal
_audit_creation_method	'EQeq! by Chris Wilmer'
_symmetry_space_group_name_H-M	'P1'
_symmetry_Int_Tables_number	1
_symmetry_cell_setting	triclinic
loop_
_symmetry_equiv_pos_as_xyz
  x,y,z
_cell_length_a	14.3967
_cell_length_b	18.5633
_cell_length_c	18.5633
_cell_angle_alpha	120
_cell_angle_beta	90
_cell_angle_gamma	90
loop_
_atom_site_label
_atom_site_type_symbol
_atom_site_fract_x
_atom_site_fract_y
_atom_site_fract_z
_atom_site_charge
Mof_Cd	Cd	0.39646	0.33333	0.66666	0.401
Mof_Cd	Cd	0.89646	0.66667	0.33334	0.401
Mof_Cd	Cd	0.60354	0.66667	0.33334	0.401
Mof_Cd	Cd	0.10354	0.33333	0.66666	0.401
Mof_H 	H 	0.6187	0.429	0.6789	0.028
Mof_H 	H 	0.4738	0.6198	0.7002	-0.005
Mof_H 	H 	0.6151	0.6475	0.5065	-0.008
Mof_H 	H 	0.6074	0.617	0.6059	0.136
Mof_H 	H 	0.6638	0.531	0.5592	0.14
Mof_H 	H 	0.6102	0.7017	0.7645	0.087
Mof_H 	H 	0.6668	0.666	0.8145	0.088
Mof_H 	H 	0.8058	0.752	0.6838	0.092
Mof_H 	H 	0.6187	0.2499	0.571	0.028
Mof_H 	H 	0.4738	0.0804	0.3802	-0.005
Mof_H 	H 	0.6151	0.859	0.3525	-0.007
Mof_H 	H 	0.6074	0.9889	0.383	0.136
Mof_H 	H 	0.6638	0.0282	0.469	0.14
Mof_H 	H 	0.6102	0.0628	0.2983	0.088
Mof_H 	H 	0.6668	0.1485	0.334	0.089
Mof_H 	H 	0.8058	0.9318	0.248	0.092
Mof_H 	H 	0.6187	0.3211	0.7501	0.029
Mof_H 	H 	0.4738	0.2998	0.9196	-0.004
Mof_H 	H 	0.6151	0.4935	0.141	-0.007
Mof_H 	H 	0.6074	0.3941	0.0111	0.136
Mof_H 	H 	0.6638	0.4408	0.9718	0.14
Mof_H 	H 	0.6102	0.2355	0.9372	0.088
Mof_H 	H 	0.6668	0.1855	0.8515	0.089
Mof_H 	H 	0.8058	0.3162	0.0682	0.092
Mof_H 	H 	0.1187	0.571	0.3211	0.029
Mof_H 	H 	0.9738	0.3802	0.2998	-0.004
Mof_H 	H 	0.1151	0.3525	0.4935	-0.007
Mof_H 	H 	0.1074	0.383	0.3941	0.137
Mof_H 	H 	0.1638	0.469	0.4408	0.141
Mof_H 	H 	0.1102	0.2983	0.2355	0.088
Mof_H 	H 	0.1668	0.334	0.1855	0.089
Mof_H 	H 	0.3058	0.248	0.3162	0.093
Mof_H 	H 	0.1187	0.7501	0.429	0.029
Mof_H 	H 	0.9738	0.9196	0.6198	-0.004
Mof_H 	H 	0.1151	0.141	0.6475	-0.007
Mof_H 	H 	0.1074	0.0111	0.617	0.135
Mof_H 	H 	0.1638	0.9718	0.531	0.14
Mof_H 	H 	0.1102	0.9372	0.7017	0.088
Mof_H 	H 	0.1668	0.8515	0.666	0.089
Mof_H 	H 	0.3058	0.0682	0.752	0.092
Mof_H 	H 	0.1187	0.6789	0.2499	0.029
Mof_H 	H 	0.9738	0.7002	0.0804	-0.004
Mof_H 	H 	0.1151	0.5065	0.859	-0.007
Mof_H 	H 	0.1074	0.6059	0.9889	0.135
Mof_H 	H 	0.1638	0.5592	0.0282	0.14
Mof_H 	H 	0.1102	0.7645	0.0628	0.088
Mof_H 	H 	0.1668	0.8145	0.1485	0.089
Mof_H 	H 	0.3058	0.6838	0.9318	0.092
Mof_H 	H 	0.3813	0.571	0.3211	0.029
Mof_H 	H 	0.5262	0.3802	0.2998	-0.004
Mof_H 	H 	0.3849	0.3525	0.4935	-0.007
Mof_H 	H 	0.3926	0.383	0.3941	0.137
Mof_H 	H 	0.3362	0.469	0.4408	0.141
Mof_H 	H 	0.3898	0.2983	0.2355	0.088
Mof_H 	H 	0.3332	0.334	0.1855	0.089
Mof_H 	H 	0.1942	0.248	0.3162	0.093
Mof_H 	H 	0.3813	0.7501	0.429	0.029
Mof_H 	H 	0.5262	0.9196	0.6198	-0.004
Mof_H 	H 	0.3849	0.141	0.6475	-0.007
Mof_H 	H 	0.3926	0.0111	0.617	0.136
Mof_H 	H 	0.3362	0.9718	0.531	0.14
Mof_H 	H 	0.3898	0.9372	0.7017	0.088
Mof_H 	H 	0.3332	0.8515	0.666	0.089
Mof_H 	H 	0.1942	0.0682	0.752	0.092
Mof_H 	H 	0.3813	0.6789	0.2499	0.029
Mof_H 	H 	0.5262	0.7002	0.0804	-0.004
Mof_H 	H 	0.3849	0.5065	0.859	-0.007
Mof_H 	H 	0.3926	0.6059	0.9889	0.136
Mof_H 	H 	0.3362	0.5592	0.0282	0.14
Mof_H 	H 	0.3898	0.7645	0.0628	0.088
Mof_H 	H 	0.3332	0.8145	0.1485	0.089
Mof_H 	H 	0.1942	0.6838	0.9318	0.092
Mof_H 	H 	0.8813	0.429	0.6789	0.029
Mof_H 	H 	0.0262	0.6198	0.7002	-0.004
Mof_H 	H 	0.8849	0.6475	0.5065	-0.007
Mof_H 	H 	0.8926	0.617	0.6059	0.137
Mof_H 	H 	0.8362	0.531	0.5592	0.141
Mof_H 	H 	0.8898	0.7017	0.7645	0.088
Mof_H 	H 	0.8332	0.666	0.8145	0.089
Mof_H 	H 	0.6942	0.752	0.6838	0.093
Mof_H 	H 	0.8813	0.2499	0.571	0.029
Mof_H 	H 	0.0262	0.0804	0.3802	-0.004
Mof_H 	H 	0.8849	0.859	0.3525	-0.007
Mof_H 	H 	0.8926	0.9889	0.383	0.135
Mof_H 	H 	0.8362	0.0282	0.469	0.14
Mof_H 	H 	0.8898	0.0628	0.2983	0.088
Mof_H 	H 	0.8332	0.1485	0.334	0.089
Mof_H 	H 	0.6942	0.9318	0.248	0.092
Mof_H 	H 	0.8813	0.3211	0.7501	0.029
Mof_H 	H 	0.0262	0.2998	0.9196	-0.004
Mof_H 	H 	0.8849	0.4935	0.141	-0.007
Mof_H 	H 	0.8926	0.3941	0.0111	0.135
Mof_H 	H 	0.8362	0.4408	0.9718	0.14
Mof_H 	H 	0.8898	0.2355	0.9372	0.088
Mof_H 	H 	0.8332	0.1855	0.8515	0.089
Mof_H 	H 	0.6942	0.3162	0.0682	0.092
Mof_H 	H 	0.75	0.5295	0.742	0.141
Mof_H 	H 	0.75	0.4746	0.6418	0.147
Mof_H 	H 	0.75	0.2125	0.4705	0.141
Mof_H 	H 	0.75	0.1672	0.5254	0.147
Mof_H 	H 	0.75	0.258	0.7875	0.141
Mof_H 	H 	0.75	0.3582	0.8328	0.147
Mof_H 	H 	0.25	0.4705	0.258	0.141
Mof_H 	H 	0.25	0.5254	0.3582	0.147
Mof_H 	H 	0.25	0.7875	0.5295	0.141
Mof_H 	H 	0.25	0.8328	0.4746	0.147
Mof_H 	H 	0.25	0.742	0.2125	0.141
Mof_H 	H 	0.25	0.6418	0.1672	0.147
Mof_C 	C 	0.5688	0.464	0.6822	0.081
Mof_C 	C 	0.4902	0.5674	0.694	0.096
Mof_C 	C 	0.6779	0.6481	0.491	0.12
Mof_C 	C 	0.6638	0.5831	0.6866	0.247
Mof_C 	C 	0.6638	0.5877	0.6082	-0.369
Mof_C 	C 	0.6662	0.6701	0.7633	-0.196
Mof_C 	C 	0.5688	0.2182	0.536	0.081
Mof_C 	C 	0.4902	0.1266	0.4326	0.096
Mof_C 	C 	0.6779	0.8429	0.3519	0.12
Mof_C 	C 	0.6638	0.1035	0.4169	0.246
Mof_C 	C 	0.6638	0.0205	0.4123	-0.367
Mof_C 	C 	0.6662	0.0932	0.3299	-0.196
Mof_C 	C 	0.5688	0.3178	0.7818	0.081
Mof_C 	C 	0.4902	0.306	0.8734	0.096
Mof_C 	C 	0.6779	0.509	0.1571	0.12
Mof_C 	C 	0.6638	0.3134	0.8965	0.246
Mof_C 	C 	0.6638	0.3918	0.9795	-0.366
Mof_C 	C 	0.6662	0.2367	0.9068	-0.196
Mof_C 	C 	0.0688	0.536	0.3178	0.081
Mof_C 	C 	0.9902	0.4326	0.306	0.096
Mof_C 	C 	0.1779	0.3519	0.509	0.12
Mof_C 	C 	0.1638	0.4169	0.3134	0.247
Mof_C 	C 	0.1638	0.4123	0.3918	-0.369
Mof_C 	C 	0.1662	0.3299	0.2367	-0.196
Mof_C 	C 	0.0688	0.7818	0.464	0.082
Mof_C 	C 	0.9902	0.8734	0.5674	0.095
Mof_C 	C 	0.1779	0.1571	0.6481	0.12
Mof_C 	C 	0.1638	0.8965	0.5831	0.246
Mof_C 	C 	0.1638	0.9795	0.5877	-0.365
Mof_C 	C 	0.1662	0.9068	0.6701	-0.195
Mof_C 	C 	0.0688	0.6822	0.2182	0.082
Mof_C 	C 	0.9902	0.694	0.1266	0.094
Mof_C 	C 	0.1779	0.491	0.8429	0.12
Mof_C 	C 	0.1638	0.6866	0.1035	0.246
Mof_C 	C 	0.1638	0.6082	0.0205	-0.365
Mof_C 	C 	0.1662	0.7633	0.0932	-0.196
Mof_C 	C 	0.4312	0.536	0.3178	0.081
Mof_C 	C 	0.5098	0.4326	0.306	0.096
Mof_C 	C 	0.3221	0.3519	0.509	0.12
Mof_C 	C 	0.3362	0.4169	0.3134	0.247
Mof_C 	C 	0.3362	0.4123	0.3918	-0.369
Mof_C 	C 	0.3338	0.3299	0.2367	-0.196
Mof_C 	C 	0.4312	0.7818	0.464	0.081
Mof_C 	C 	0.5098	0.8734	0.5674	0.096
Mof_C 	C 	0.3221	0.1571	0.6481	0.12
Mof_C 	C 	0.3362	0.8965	0.5831	0.246
Mof_C 	C 	0.3362	0.9795	0.5877	-0.367
Mof_C 	C 	0.3338	0.9068	0.6701	-0.196
Mof_C 	C 	0.4312	0.6822	0.2182	0.081
Mof_C 	C 	0.5098	0.694	0.1266	0.096
Mof_C 	C 	0.3221	0.491	0.8429	0.12
Mof_C 	C 	0.3362	0.6866	0.1035	0.246
Mof_C 	C 	0.3362	0.6082	0.0205	-0.366
Mof_C 	C 	0.3338	0.7633	0.0932	-0.196
Mof_C 	C 	0.9312	0.464	0.6822	0.081
Mof_C 	C 	0.0098	0.5674	0.694	0.096
Mof_C 	C 	0.8221	0.6481	0.491	0.12
Mof_C 	C 	0.8362	0.5831	0.6866	0.247
Mof_C 	C 	0.8362	0.5877	0.6082	-0.369
Mof_C 	C 	0.8338	0.6701	0.7633	-0.196
Mof_C 	C 	0.9312	0.2182	0.536	0.082
Mof_C 	C 	0.0098	0.1266	0.4326	0.095
Mof_C 	C 	0.8221	0.8429	0.3519	0.12
Mof_C 	C 	0.8362	0.1035	0.4169	0.246
Mof_C 	C 	0.8362	0.0205	0.4123	-0.365
Mof_C 	C 	0.8338	0.0932	0.3299	-0.195
Mof_C 	C 	0.9312	0.3178	0.7818	0.082
Mof_C 	C 	0.0098	0.306	0.8734	0.094
Mof_C 	C 	0.8221	0.509	0.1571	0.12
Mof_C 	C 	0.8362	0.3134	0.8965	0.246
Mof_C 	C 	0.8362	0.3918	0.9795	-0.365
Mof_C 	C 	0.8338	0.2367	0.9068	-0.196
Mof_C 	C 	0.75	0.6344	0.6076	0.258
Mof_C 	C 	0.75	0.532	0.6899	-0.343
Mof_C 	C 	0.75	0.721	0.6842	-0.204
Mof_C 	C 	0.75	0.9732	0.3656	0.256
Mof_C 	C 	0.75	0.1579	0.468	-0.342
Mof_C 	C 	0.75	0.9632	0.279	-0.204
Mof_C 	C 	0.75	0.3924	0.0268	0.256
Mof_C 	C 	0.75	0.3101	0.8421	-0.342
Mof_C 	C 	0.75	0.3158	0.0368	-0.204
Mof_C 	C 	0.25	0.3656	0.3924	0.258
Mof_C 	C 	0.25	0.468	0.3101	-0.343
Mof_C 	C 	0.25	0.279	0.3158	-0.204
Mof_C 	C 	0.25	0.0268	0.6344	0.256
Mof_C 	C 	0.25	0.8421	0.532	-0.342
Mof_C 	C 	0.25	0.0368	0.721	-0.204
Mof_C 	C 	0.25	0.6076	0.9732	0.256
Mof_C 	C 	0.25	0.6899	0.1579	-0.342
Mof_C 	C 	0.25	0.6842	0.9632	-0.204
Mof_N 	N 	0.4812	0.4454	0.6807	-0.117
Mof_N 	N 	0.4295	0.5138	0.6894	-0.099
Mof_N 	N 	0.5796	0.5419	0.6892	-0.171
Mof_N 	N 	0.7026	0.656	0.4285	-0.114
Mof_N 	N 	0.4812	0.2353	0.5546	-0.117
Mof_N 	N 	0.4295	0.1756	0.4862	-0.099
Mof_N 	N 	0.5796	0.1473	0.4581	-0.171
Mof_N 	N 	0.7026	0.7725	0.344	-0.114
Mof_N 	N 	0.4812	0.3193	0.7647	-0.117
Mof_N 	N 	0.4295	0.3106	0.8244	-0.099
Mof_N 	N 	0.5796	0.3108	0.8527	-0.171
Mof_N 	N 	0.7026	0.5715	0.2275	-0.114
Mof_N 	N 	0.9812	0.5546	0.3193	-0.117
Mof_N 	N 	0.9295	0.4862	0.3106	-0.099
Mof_N 	N 	0.0796	0.4581	0.3108	-0.171
Mof_N 	N 	0.2026	0.344	0.5715	-0.114
Mof_N 	N 	0.9812	0.7647	0.4454	-0.117
Mof_N 	N 	0.9295	0.8244	0.5138	-0.099
Mof_N 	N 	0.0796	0.8527	0.5419	-0.171
Mof_N 	N 	0.2026	0.2275	0.656	-0.114
Mof_N 	N 	0.9812	0.6807	0.2353	-0.118
Mof_N 	N 	0.9295	0.6894	0.1756	-0.099
Mof_N 	N 	0.0796	0.6892	0.1473	-0.17
Mof_N 	N 	0.2026	0.4285	0.7725	-0.114
Mof_N 	N 	0.5188	0.5546	0.3193	-0.117
Mof_N 	N 	0.5705	0.4862	0.3106	-0.099
Mof_N 	N 	0.4204	0.4581	0.3108	-0.171
Mof_N 	N 	0.2974	0.344	0.5715	-0.114
Mof_N 	N 	0.5188	0.7647	0.4454	-0.117
Mof_N 	N 	0.5705	0.8244	0.5138	-0.099
Mof_N 	N 	0.4204	0.8527	0.5419	-0.171
Mof_N 	N 	0.2974	0.2275	0.656	-0.114
Mof_N 	N 	0.5188	0.6807	0.2353	-0.117
Mof_N 	N 	0.5705	0.6894	0.1756	-0.099
Mof_N 	N 	0.4204	0.6892	0.1473	-0.171
Mof_N 	N 	0.2974	0.4285	0.7725	-0.114
Mof_N 	N 	0.0188	0.4454	0.6807	-0.117
Mof_N 	N 	0.0705	0.5138	0.6894	-0.099
Mof_N 	N 	0.9204	0.5419	0.6892	-0.171
Mof_N 	N 	0.7974	0.656	0.4285	-0.114
Mof_N 	N 	0.0188	0.2353	0.5546	-0.117
Mof_N 	N 	0.0705	0.1756	0.4862	-0.099
Mof_N 	N 	0.9204	0.1473	0.4581	-0.171
Mof_N 	N 	0.7974	0.7725	0.344	-0.114
Mof_N 	N 	0.0188	0.3193	0.7647	-0.118
Mof_N 	N 	0.0705	0.3106	0.8244	-0.099
Mof_N 	N 	0.9204	0.3108	0.8527	-0.17
Mof_N 	N 	0.7974	0.5715	0.2275	-0.114
Mof_N 	N 	0.75	0.641	0.5308	-0.186
Mof_N 	N 	0.75	0.7131	0.7597	-0.038
Mof_N 	N 	0.75	0.8898	0.359	-0.185
Mof_N 	N 	0.75	0.0466	0.2869	-0.038
Mof_N 	N 	0.75	0.4692	0.1102	-0.185
Mof_N 	N 	0.75	0.2403	0.9534	-0.038
Mof_N 	N 	0.25	0.359	0.4692	-0.186
Mof_N 	N 	0.25	0.2869	0.2403	-0.038
Mof_N 	N 	0.25	0.1102	0.641	-0.185
Mof_N 	N 	0.25	0.9534	0.7131	-0.038
Mof_N 	N 	0.25	0.5308	0.8898	-0.185
Mof_N 	N 	0.25	0.7597	0.0466	-0.038
Mof_Cl	Cl	0.75	0.33333	0.66666	-0.381
Mof_Cl	Cl	0.25	0.66667	0.33334	-0.381
_end
