data_functionalizedCrystal
_audit_creation_method	'EQeq! by Chris Wilmer'
_symmetry_space_group_name_H-M	'P1'
_symmetry_Int_Tables_number	1
_symmetry_cell_setting	triclinic
loop_
_symmetry_equiv_pos_as_xyz
  x,y,z
_cell_length_a	10.1093
_cell_length_b	13.057
_cell_length_c	24.359
_cell_angle_alpha	85.542
_cell_angle_beta	85.314
_cell_angle_gamma	80.749
loop_
_atom_site_label
_atom_site_type_symbol
_atom_site_fract_x
_atom_site_fract_y
_atom_site_fract_z
_atom_site_charge
Mof_Cd	Cd	0.36366	0.54459	0.5831	0.494
Mof_Cd	Cd	0.07343	0.40745	0.57777	0.504
Mof_Cd	Cd	0.85158	0.67869	0.60729	0.469
Mof_Cd	Cd	0.63634	0.45541	0.4169	0.494
Mof_Cd	Cd	0.92657	0.59255	0.42223	0.504
Mof_Cd	Cd	0.14842	0.32131	0.39271	0.469
Mof_H 	H 	0.1417	0.0262	0.801	0.083
Mof_H 	H 	0.2083	0.0393	0.8901	0.041
Mof_H 	H 	0.5819	0.9207	0.8414	0.034
Mof_H 	H 	0.5177	0.9179	0.7532	0.083
Mof_H 	H 	0.4241	0.7703	0.5731	0.018
Mof_H 	H 	0.3872	0.9274	0.6118	0.113
Mof_H 	H 	0.2634	0.7811	0.7536	0.112
Mof_H 	H 	0.3054	0.6285	0.7097	0.003
Mof_H 	H 	0.2029	0.3113	0.6878	0.006
Mof_H 	H 	0.2878	0.1618	0.7362	0.116
Mof_H 	H 	0.1536	0.0051	0.622	0.12
Mof_H 	H 	0.085	0.1596	0.5758	0.014
Mof_H 	H 	0.8664	0.101	0.8664	0.039
Mof_H 	H 	0.7629	0.05	0.7937	0.077
Mof_H 	H 	0.8603	0.2967	0.7001	0.097
Mof_H 	H 	0.9632	0.3489	0.7722	0.062
Mof_H 	H 	0.4171	0.3645	0.992	0.042
Mof_H 	H 	0.526	0.4204	0.0639	0.083
Mof_H 	H 	0.1682	0.4888	0.1468	0.093
Mof_H 	H 	0.0631	0.4349	0.075	0.042
Mof_H 	H 	0.3967	0.4034	0.694	0.002
Mof_H 	H 	0.523	0.2583	0.7348	0.117
Mof_H 	H 	0.742	0.2224	0.592	0.136
Mof_H 	H 	0.6131	0.3688	0.5555	0.028
Mof_H 	H 	0.6534	0.8972	0.5937	0.002
Mof_H 	H 	0.6069	0.0588	0.6259	0.119
Mof_H 	H 	0.9361	0.9904	0.71	0.112
Mof_H 	H 	0.976	0.8303	0.6735	0.014
Mof_H 	H 	0.2865	0.2326	0.2741	-0.008
Mof_H 	H 	0.36	0.2944	0.1887	0.115
Mof_H 	H 	0.3951	0.5584	0.2548	0.121
Mof_H 	H 	0.3218	0.489	0.3374	0.012
Mof_H 	H 	0.4828	0.802	0.1119	-0.001
Mof_H 	H 	0.369	0.6657	0.1073	0.111
Mof_H 	H 	0.649	0.4947	0.198	0.115
Mof_H 	H 	0.7558	0.638	0.1956	0.014
Mof_H 	H 	0.8583	0.9738	0.199	0.083
Mof_H 	H 	0.7917	0.9607	0.1099	0.041
Mof_H 	H 	0.4181	0.0793	0.1586	0.034
Mof_H 	H 	0.4823	0.0821	0.2468	0.083
Mof_H 	H 	0.5759	0.2297	0.4269	0.018
Mof_H 	H 	0.6128	0.0726	0.3882	0.113
Mof_H 	H 	0.7366	0.2189	0.2464	0.112
Mof_H 	H 	0.6946	0.3715	0.2903	0.003
Mof_H 	H 	0.7971	0.6887	0.3122	0.006
Mof_H 	H 	0.7122	0.8382	0.2638	0.116
Mof_H 	H 	0.8464	0.9949	0.378	0.12
Mof_H 	H 	0.915	0.8404	0.4242	0.014
Mof_H 	H 	0.1336	0.899	0.1336	0.039
Mof_H 	H 	0.2371	0.95	0.2063	0.077
Mof_H 	H 	0.1397	0.7033	0.2999	0.097
Mof_H 	H 	0.0368	0.6511	0.2278	0.062
Mof_H 	H 	0.5829	0.6355	0.008	0.042
Mof_H 	H 	0.474	0.5796	0.9361	0.083
Mof_H 	H 	0.8318	0.5112	0.8532	0.093
Mof_H 	H 	0.9369	0.5651	0.925	0.042
Mof_H 	H 	0.6033	0.5966	0.306	0.002
Mof_H 	H 	0.477	0.7417	0.2652	0.117
Mof_H 	H 	0.258	0.7776	0.408	0.136
Mof_H 	H 	0.3869	0.6312	0.4445	0.028
Mof_H 	H 	0.3466	0.1028	0.4063	0.002
Mof_H 	H 	0.3931	0.9412	0.3741	0.119
Mof_H 	H 	0.0639	0.0096	0.29	0.112
Mof_H 	H 	0.024	0.1697	0.3265	0.014
Mof_H 	H 	0.7135	0.7674	0.7259	-0.008
Mof_H 	H 	0.64	0.7056	0.8113	0.115
Mof_H 	H 	0.6049	0.4416	0.7452	0.121
Mof_H 	H 	0.6782	0.511	0.6626	0.012
Mof_H 	H 	0.5172	0.198	0.8881	-0.001
Mof_H 	H 	0.631	0.3343	0.8927	0.111
Mof_H 	H 	0.351	0.5053	0.802	0.115
Mof_H 	H 	0.2442	0.362	0.8044	0.014
Mof_C 	C 	0.4445	0.9874	0.9286	-0.015
Mof_C 	C 	0.4787	0.9949	0.9729	-0.007
Mof_C 	C 	0.324	0.971	0.7679	0.134
Mof_C 	C 	0.2313	0.0064	0.8086	-0.134
Mof_C 	C 	0.2713	0.0132	0.8626	-0.012
Mof_C 	C 	0.4024	0.9814	0.8742	0.002
Mof_C 	C 	0.4931	0.9442	0.8337	-0.01
Mof_C 	C 	0.4535	0.9412	0.7808	-0.137
Mof_C 	C 	0.3908	0.773	0.6098	0.127
Mof_C 	C 	0.3683	0.8681	0.6327	-0.21
Mof_C 	C 	0.3166	0.8745	0.6876	0.182
Mof_C 	C 	0.295	0.7815	0.7167	-0.207
Mof_C 	C 	0.3211	0.6897	0.6899	0.129
Mof_C 	C 	0.1965	0.2482	0.6737	0.129
Mof_C 	C 	0.2472	0.1584	0.7037	-0.219
Mof_C 	C 	0.2368	0.0628	0.6844	0.189
Mof_C 	C 	0.169	0.0664	0.6357	-0.218
Mof_C 	C 	0.126	0.1598	0.6086	0.13
Mof_C 	C 	0.9859	0.2643	0.8721	-0.018
Mof_C 	C 	0.0419	0.2944	0.907	-0.002
Mof_C 	C 	0.1062	0.331	0.9472	-0.004
Mof_C 	C 	0.1632	0.3617	0.9822	-0.014
Mof_C 	C 	0.9228	0.2326	0.8269	0.006
Mof_C 	C 	0.8639	0.1408	0.833	-0.021
Mof_C 	C 	0.8027	0.1098	0.7896	-0.125
Mof_C 	C 	0.8015	0.1691	0.74	0.123
Mof_C 	C 	0.8613	0.2579	0.7337	-0.121
Mof_C 	C 	0.9225	0.2895	0.777	-0.021
Mof_C 	C 	0.2286	0.3976	0.0254	0
Mof_C 	C 	0.3665	0.3905	0.023	-0.015
Mof_C 	C 	0.4334	0.4218	0.0666	-0.133
Mof_C 	C 	0.3559	0.4541	0.1127	0.136
Mof_C 	C 	0.2189	0.4628	0.1159	-0.138
Mof_C 	C 	0.1559	0.432	0.0722	-0.009
Mof_C 	C 	0.4679	0.367	0.6733	0.123
Mof_C 	C 	0.5437	0.2799	0.6983	-0.227
Mof_C 	C 	0.6486	0.2269	0.6682	0.196
Mof_C 	C 	0.6734	0.259	0.6138	-0.222
Mof_C 	C 	0.5946	0.3464	0.5921	0.14
Mof_C 	C 	0.7117	0.9163	0.6173	0.133
Mof_C 	C 	0.6822	0.0136	0.637	-0.228
Mof_C 	C 	0.7635	0.0445	0.673	0.199
Mof_C 	C 	0.8766	0.9732	0.6863	-0.217
Mof_C 	C 	0.9001	0.8767	0.6642	0.121
Mof_C 	C 	0.3072	0.2998	0.2701	0.131
Mof_C 	C 	0.3512	0.3362	0.2185	-0.225
Mof_C 	C 	0.3823	0.436	0.2114	0.202
Mof_C 	C 	0.372	0.492	0.2574	-0.233
Mof_C 	C 	0.3277	0.4493	0.307	0.141
Mof_C 	C 	0.5178	0.7383	0.1289	0.119
Mof_C 	C 	0.4463	0.6574	0.1265	-0.214
Mof_C 	C 	0.4941	0.5635	0.1537	0.178
Mof_C 	C 	0.6126	0.5567	0.1797	-0.207
Mof_C 	C 	0.6765	0.6437	0.178	0.108
Mof_C 	C 	0.5555	0.0126	0.0714	-0.015
Mof_C 	C 	0.5213	0.0051	0.0271	-0.007
Mof_C 	C 	0.676	0.029	0.2321	0.134
Mof_C 	C 	0.7687	0.9936	0.1914	-0.134
Mof_C 	C 	0.7287	0.9868	0.1374	-0.012
Mof_C 	C 	0.5976	0.0186	0.1258	0.002
Mof_C 	C 	0.5069	0.0558	0.1663	-0.01
Mof_C 	C 	0.5465	0.0588	0.2192	-0.137
Mof_C 	C 	0.6092	0.227	0.3902	0.127
Mof_C 	C 	0.6317	0.1319	0.3673	-0.21
Mof_C 	C 	0.6834	0.1255	0.3124	0.182
Mof_C 	C 	0.705	0.2185	0.2833	-0.207
Mof_C 	C 	0.6789	0.3103	0.3101	0.129
Mof_C 	C 	0.8035	0.7518	0.3263	0.129
Mof_C 	C 	0.7528	0.8416	0.2963	-0.219
Mof_C 	C 	0.7632	0.9372	0.3156	0.189
Mof_C 	C 	0.831	0.9336	0.3643	-0.218
Mof_C 	C 	0.874	0.8402	0.3914	0.13
Mof_C 	C 	0.0141	0.7357	0.1279	-0.018
Mof_C 	C 	0.9581	0.7056	0.093	-0.002
Mof_C 	C 	0.8938	0.669	0.0528	-0.004
Mof_C 	C 	0.8368	0.6383	0.0178	-0.014
Mof_C 	C 	0.0772	0.7674	0.1731	0.006
Mof_C 	C 	0.1361	0.8592	0.167	-0.021
Mof_C 	C 	0.1973	0.8902	0.2104	-0.125
Mof_C 	C 	0.1985	0.8309	0.26	0.123
Mof_C 	C 	0.1387	0.7421	0.2663	-0.121
Mof_C 	C 	0.0775	0.7105	0.223	-0.021
Mof_C 	C 	0.7714	0.6024	0.9746	0
Mof_C 	C 	0.6335	0.6095	0.977	-0.015
Mof_C 	C 	0.5666	0.5782	0.9334	-0.133
Mof_C 	C 	0.6441	0.5459	0.8873	0.136
Mof_C 	C 	0.7811	0.5372	0.8841	-0.138
Mof_C 	C 	0.8441	0.568	0.9278	-0.009
Mof_C 	C 	0.5321	0.633	0.3267	0.123
Mof_C 	C 	0.4563	0.7201	0.3017	-0.227
Mof_C 	C 	0.3514	0.7731	0.3318	0.196
Mof_C 	C 	0.3266	0.741	0.3862	-0.222
Mof_C 	C 	0.4054	0.6536	0.4079	0.14
Mof_C 	C 	0.2883	0.0837	0.3827	0.133
Mof_C 	C 	0.3178	0.9864	0.363	-0.228
Mof_C 	C 	0.2365	0.9555	0.327	0.199
Mof_C 	C 	0.1234	0.0268	0.3137	-0.217
Mof_C 	C 	0.0999	0.1233	0.3358	0.121
Mof_C 	C 	0.6928	0.7002	0.7299	0.131
Mof_C 	C 	0.6488	0.6638	0.7815	-0.225
Mof_C 	C 	0.6177	0.564	0.7886	0.202
Mof_C 	C 	0.628	0.508	0.7426	-0.233
Mof_C 	C 	0.6723	0.5507	0.693	0.141
Mof_C 	C 	0.4822	0.2617	0.8711	0.119
Mof_C 	C 	0.5537	0.3426	0.8735	-0.214
Mof_C 	C 	0.5059	0.4365	0.8463	0.178
Mof_C 	C 	0.3874	0.4433	0.8203	-0.207
Mof_C 	C 	0.3235	0.3563	0.822	0.108
Mof_S 	S 	0.0663	0.52994	0.6791	0.651
Mof_S 	S 	0.08578	0.66566	0.51793	0.689
Mof_S 	S 	0.33564	0.37793	0.48013	0.72
Mof_S 	S 	0.9337	0.47006	0.3209	0.651
Mof_S 	S 	0.91422	0.33434	0.48207	0.689
Mof_S 	S 	0.66436	0.62207	0.51987	0.72
Mof_N 	N 	0.2867	0.9699	0.7128	-0.192
Mof_N 	N 	0.3676	0.6849	0.6372	-0.163
Mof_N 	N 	0.1393	0.2517	0.6264	-0.166
Mof_N 	N 	0.7353	0.1415	0.6946	-0.19
Mof_N 	N 	0.4932	0.4001	0.6212	-0.167
Mof_N 	N 	0.8187	0.8475	0.6301	-0.164
Mof_N 	N 	0.4196	0.4775	0.1586	-0.191
Mof_N 	N 	0.2923	0.3552	0.3153	-0.166
Mof_N 	N 	0.63	0.734	0.1527	-0.149
Mof_N 	N 	0.7133	0.0301	0.2872	-0.192
Mof_N 	N 	0.6324	0.3151	0.3628	-0.163
Mof_N 	N 	0.8607	0.7483	0.3736	-0.166
Mof_N 	N 	0.2647	0.8585	0.3054	-0.19
Mof_N 	N 	0.5068	0.5999	0.3788	-0.167
Mof_N 	N 	0.1813	0.1525	0.3699	-0.164
Mof_N 	N 	0.5804	0.5225	0.8414	-0.191
Mof_N 	N 	0.7077	0.6448	0.6847	-0.166
Mof_N 	N 	0.37	0.266	0.8473	-0.149
Mof_O 	O 	0.1946	0.4966	0.64598	-0.323
Mof_O 	O 	0.9652	0.4733	0.65871	-0.308
Mof_O 	O 	0.0227	0.6419	0.6689	-0.307
Mof_O 	O 	0.0862	0.5036	0.7369	-0.289
Mof_O 	O 	0.2267	0.6564	0.52924	-0.309
Mof_O 	O 	0.0204	0.5796	0.5459	-0.328
Mof_O 	O 	0.0098	0.7611	0.5379	-0.298
Mof_O 	O 	0.0765	0.6654	0.45807	-0.319
Mof_O 	O 	0.2739	0.4197	0.53271	-0.338
Mof_O 	O 	0.2641	0.4346	0.4335	-0.309
Mof_O 	O 	0.3206	0.272	0.478	-0.32
Mof_O 	O 	0.4719	0.3971	0.4743	-0.333
Mof_O 	O 	0.8054	0.5034	0.35402	-0.323
Mof_O 	O 	0.0348	0.5267	0.34129	-0.308
Mof_O 	O 	0.9773	0.3581	0.3311	-0.307
Mof_O 	O 	0.9138	0.4964	0.2631	-0.289
Mof_O 	O 	0.7733	0.3436	0.47076	-0.309
Mof_O 	O 	0.9796	0.4204	0.4541	-0.328
Mof_O 	O 	0.9902	0.2389	0.4621	-0.298
Mof_O 	O 	0.9235	0.3346	0.54193	-0.319
Mof_O 	O 	0.7261	0.5803	0.46729	-0.338
Mof_O 	O 	0.7359	0.5654	0.5665	-0.309
Mof_O 	O 	0.6794	0.728	0.522	-0.32
Mof_O 	O 	0.5281	0.6029	0.5257	-0.333
_end
