# CIF file generated by openbabel 3.1.0, see https://openbabel.org
data_I
_chemical_name_common 'LUKREO_clean'
_cell_length_a 7.9137
_cell_length_b 12.7304
_cell_length_c 27.357
_cell_angle_alpha 90
_cell_angle_beta 90
_cell_angle_gamma 90
_space_group_name_H-M_alt 'P 1'
_space_group_name_Hall 'P 1'
loop_
    _symmetry_equiv_pos_as_xyz
    x,y,z
loop_
    _atom_site_label
    _atom_site_type_symbol
    _atom_site_fract_x
    _atom_site_fract_y
    _atom_site_fract_z
    _atom_site_occupancy
    Mn1      Mn       0.34445    0.25753    0.02287    1.000
    Mn2      Mn       0.15555    0.74247    0.52287    1.000
    Mn3      Mn       0.65555    0.75753    0.47713    1.000
    Mn4      Mn       0.84445    0.24247    0.97713    1.000
    P1       P        0.59360    0.44848    0.96763    1.000
    P2       P        0.51730    0.62809    0.56103    1.000
    P3       P        0.90640    0.55152    0.46763    1.000
    P4       P        0.98270    0.37191    0.06103    1.000
    P5       P        0.40640    0.94848    0.53237    1.000
    P6       P        0.48270    0.12809    0.93897    1.000
    P7       P        0.09360    0.05152    0.03237    1.000
    P8       P        0.01730    0.87191    0.43897    1.000
    H1       H        0.13060    0.90310    0.91200    1.000
    H2       H        0.04190    0.01200    0.89810    1.000
    H3       H        0.96500    0.90370    0.87850    1.000
    H4       H        0.88030    0.83740    0.75310    1.000
    H5       H        0.70260    0.82290    0.78020    1.000
    H6       H        0.87360    0.78830    0.80700    1.000
    H7       H        0.50900    0.68600    0.83140    1.000
    H8       H        0.77400    0.70000    0.71200    1.000
    H9       H        0.00800    0.46200    0.88300    1.000
    H10      H        0.46900    0.92100    0.69400    1.000
    H11      H        0.27400    0.53700    0.71760    1.000
    H12      H        0.70800    0.63600    0.77600    1.000
    H13      H        0.66100    0.61000    0.89400    1.000
    H14      H        0.36400    0.50000    0.64000    1.000
    H15      H        0.82300    0.51000    0.81300    1.000
    H16      H        0.53000    0.80700    0.62500    1.000
    H17      H        0.12200    0.97300    0.81100    1.000
    H18      H        0.28500    0.97100    0.85400    1.000
    H19      H        0.25600    0.43500    0.93000    1.000
    H20      H        0.39700    0.96300    0.76600    1.000
    H21      H        0.46700    0.47000    0.55100    1.000
    H22      H        0.73900    0.53000    0.01300    1.000
    H23      H        0.36940    0.09690    0.41200    1.000
    H24      H        0.45810    0.98800    0.39810    1.000
    H25      H        0.53500    0.09630    0.37850    1.000
    H26      H        0.61970    0.16260    0.25310    1.000
    H27      H        0.79740    0.17710    0.28020    1.000
    H28      H        0.62640    0.21170    0.30700    1.000
    H29      H        0.99100    0.31400    0.33140    1.000
    H30      H        0.72600    0.30000    0.21200    1.000
    H31      H        0.49200    0.53800    0.38300    1.000
    H32      H        0.03100    0.07900    0.19400    1.000
    H33      H        0.22600    0.46300    0.21760    1.000
    H34      H        0.79200    0.36400    0.27600    1.000
    H35      H        0.83900    0.39000    0.39400    1.000
    H36      H        0.13600    0.50000    0.14000    1.000
    H37      H        0.67700    0.49000    0.31300    1.000
    H38      H        0.97000    0.19300    0.12500    1.000
    H39      H        0.37800    0.02700    0.31100    1.000
    H40      H        0.21500    0.02900    0.35400    1.000
    H41      H        0.24400    0.56500    0.43000    1.000
    H42      H        0.10300    0.03700    0.26600    1.000
    H43      H        0.03300    0.53000    0.05100    1.000
    H44      H        0.76100    0.47000    0.51300    1.000
    H45      H        0.86940    0.40310    0.58800    1.000
    H46      H        0.95810    0.51200    0.60190    1.000
    H47      H        0.03500    0.40370    0.62150    1.000
    H48      H        0.11970    0.33740    0.74690    1.000
    H49      H        0.29740    0.32290    0.71980    1.000
    H50      H        0.12640    0.28830    0.69300    1.000
    H51      H        0.49100    0.18600    0.66860    1.000
    H52      H        0.22600    0.20000    0.78800    1.000
    H53      H        0.99200    0.96200    0.61700    1.000
    H54      H        0.53100    0.42100    0.80600    1.000
    H55      H        0.72600    0.03700    0.78240    1.000
    H56      H        0.29200    0.13600    0.72400    1.000
    H57      H        0.33900    0.11000    0.60600    1.000
    H58      H        0.63600    0.00000    0.86000    1.000
    H59      H        0.17700    0.01000    0.68700    1.000
    H60      H        0.47000    0.30700    0.87500    1.000
    H61      H        0.87800    0.47300    0.68900    1.000
    H62      H        0.71500    0.47100    0.64600    1.000
    H63      H        0.74400    0.93500    0.57000    1.000
    H64      H        0.60300    0.46300    0.73400    1.000
    H65      H        0.53300    0.97000    0.94900    1.000
    H66      H        0.26100    0.03000    0.48700    1.000
    H67      H        0.63060    0.59690    0.08800    1.000
    H68      H        0.54190    0.48800    0.10190    1.000
    H69      H        0.46500    0.59630    0.12150    1.000
    H70      H        0.38030    0.66260    0.24690    1.000
    H71      H        0.20260    0.67710    0.21980    1.000
    H72      H        0.37360    0.71170    0.19300    1.000
    H73      H        0.00900    0.81400    0.16860    1.000
    H74      H        0.27400    0.80000    0.28800    1.000
    H75      H        0.50800    0.03800    0.11700    1.000
    H76      H        0.96900    0.57900    0.30600    1.000
    H77      H        0.77400    0.96300    0.28240    1.000
    H78      H        0.20800    0.86400    0.22400    1.000
    H79      H        0.16100    0.89000    0.10600    1.000
    H80      H        0.86400    0.00000    0.36000    1.000
    H81      H        0.32300    0.99000    0.18700    1.000
    H82      H        0.03000    0.69300    0.37500    1.000
    H83      H        0.62200    0.52700    0.18900    1.000
    H84      H        0.78500    0.52900    0.14600    1.000
    H85      H        0.75600    0.06500    0.07000    1.000
    H86      H        0.89700    0.53700    0.23400    1.000
    H87      H        0.96700    0.03000    0.44900    1.000
    H88      H        0.23900    0.97000    0.98700    1.000
    C1       C        0.54990    0.58840    0.88890    1.000
    C2       C        0.47920    0.74880    0.64320    1.000
    C3       C        0.20380    0.63900    0.80000    1.000
    C4       C        0.36400    0.90210    0.75390    1.000
    C5       C        0.95790    0.53610    0.82530    1.000
    C6       C        0.42120    0.77330    0.69020    1.000
    C7       C        0.46230    0.63030    0.85130    1.000
    C8       C        0.32860    0.59020    0.69910    1.000
    C9       C        0.21370    0.52970    0.87380    1.000
    C10      C        0.04010    0.60360    0.79190    1.000
    C11      C        0.30910    0.48610    0.91250    1.000
    C12      C        0.43140    0.87430    0.70900    1.000
    C13      C        0.28140    0.71900    0.76690    1.000
    C14      C        0.28830    0.82120    0.78240    1.000
    C15      C        0.34290    0.69320    0.71900    1.000
    C16      C        0.47550    0.51120    0.92000    1.000
    C17      C        0.38290    0.56930    0.65240    1.000
    C18      C        0.04400    0.50230    0.86540    1.000
    C19      C        0.79860    0.68370    0.75370    1.000
    C20      C        0.18050    0.94920    0.84060    1.000
    C21      C        0.06950    0.94130    0.88650    1.000
    C22      C        0.29360    0.60080    0.84080    1.000
    C23      C        0.45990    0.65030    0.62350    1.000
    C24      C        0.81520    0.79270    0.77540    1.000
    C25      C        0.95010    0.41160    0.38890    1.000
    C26      C        0.02080    0.25120    0.14320    1.000
    C27      C        0.29620    0.36100    0.30000    1.000
    C28      C        0.13600    0.09790    0.25390    1.000
    C29      C        0.54210    0.46390    0.32530    1.000
    C30      C        0.07880    0.22670    0.19020    1.000
    C31      C        0.03770    0.36970    0.35130    1.000
    C32      C        0.17140    0.40980    0.19910    1.000
    C33      C        0.28630    0.47030    0.37380    1.000
    C34      C        0.45990    0.39640    0.29190    1.000
    C35      C        0.19090    0.51390    0.41250    1.000
    C36      C        0.06860    0.12570    0.20900    1.000
    C37      C        0.21860    0.28100    0.26690    1.000
    C38      C        0.21170    0.17880    0.28240    1.000
    C39      C        0.15710    0.30680    0.21900    1.000
    C40      C        0.02450    0.48880    0.42000    1.000
    C41      C        0.11710    0.43070    0.15240    1.000
    C42      C        0.45600    0.49770    0.36540    1.000
    C43      C        0.70140    0.31630    0.25370    1.000
    C44      C        0.31950    0.05080    0.34060    1.000
    C45      C        0.43050    0.05870    0.38650    1.000
    C46      C        0.20640    0.39920    0.34080    1.000
    C47      C        0.04010    0.34970    0.12350    1.000
    C48      C        0.68480    0.20730    0.27540    1.000
    C49      C        0.45010    0.08840    0.61110    1.000
    C50      C        0.52080    0.24880    0.85680    1.000
    C51      C        0.79620    0.13900    0.70000    1.000
    C52      C        0.63600    0.40210    0.74610    1.000
    C53      C        0.04210    0.03610    0.67470    1.000
    C54      C        0.57880    0.27330    0.80980    1.000
    C55      C        0.53770    0.13030    0.64870    1.000
    C56      C        0.67140    0.09020    0.80090    1.000
    C57      C        0.78630    0.02970    0.62620    1.000
    C58      C        0.95990    0.10360    0.70810    1.000
    C59      C        0.69090    0.98610    0.58750    1.000
    C60      C        0.56860    0.37430    0.79100    1.000
    C61      C        0.71860    0.21900    0.73310    1.000
    C62      C        0.71170    0.32120    0.71760    1.000
    C63      C        0.65710    0.19320    0.78100    1.000
    C64      C        0.52450    0.01120    0.58000    1.000
    C65      C        0.61710    0.06930    0.84760    1.000
    C66      C        0.95600    0.00230    0.63460    1.000
    C67      C        0.20140    0.18370    0.74630    1.000
    C68      C        0.81950    0.44920    0.65940    1.000
    C69      C        0.93050    0.44130    0.61350    1.000
    C70      C        0.70640    0.10080    0.65920    1.000
    C71      C        0.54010    0.15030    0.87650    1.000
    C72      C        0.18480    0.29270    0.72460    1.000
    C73      C        0.04990    0.91160    0.11110    1.000
    C74      C        0.97920    0.75120    0.35680    1.000
    C75      C        0.70380    0.86100    0.20000    1.000
    C76      C        0.86400    0.59790    0.24610    1.000
    C77      C        0.45790    0.96390    0.17470    1.000
    C78      C        0.92120    0.72670    0.30980    1.000
    C79      C        0.96230    0.86970    0.14870    1.000
    C80      C        0.82860    0.90980    0.30090    1.000
    C81      C        0.71370    0.97030    0.12620    1.000
    C82      C        0.54010    0.89640    0.20810    1.000
    C83      C        0.80910    0.01390    0.08750    1.000
    C84      C        0.93140    0.62570    0.29100    1.000
    C85      C        0.78140    0.78100    0.23310    1.000
    C86      C        0.78830    0.67880    0.21760    1.000
    C87      C        0.84290    0.80680    0.28100    1.000
    C88      C        0.97550    0.98880    0.08000    1.000
    C89      C        0.88290    0.93070    0.34760    1.000
    C90      C        0.54400    0.99770    0.13460    1.000
    C91      C        0.29860    0.81630    0.24630    1.000
    C92      C        0.68050    0.55080    0.15940    1.000
    C93      C        0.56950    0.55870    0.11350    1.000
    C94      C        0.79360    0.89920    0.15920    1.000
    C95      C        0.95990    0.84970    0.37650    1.000
    C96      C        0.31520    0.70730    0.22460    1.000
    O1       O        0.96140    0.63410    0.74876    1.000
    O2       O        0.46830    0.39820    0.00218    1.000
    O3       O        0.67940    0.54620    0.99294    1.000
    O4       O        0.21840    0.84100    0.82701    1.000
    O5       O        0.37640    0.65570    0.52703    1.000
    O6       O        0.67730    0.68680    0.54942    1.000
    O7       O        0.72620    0.37730    0.94656    1.000
    O8       O        0.55260    0.50680    0.55592    1.000
    O9       O        0.53860    0.36590    0.24876    1.000
    O10      O        0.03170    0.60180    0.50218    1.000
    O11      O        0.82060    0.45380    0.49294    1.000
    O12      O        0.28160    0.15900    0.32701    1.000
    O13      O        0.12360    0.34430    0.02703    1.000
    O14      O        0.82270    0.31320    0.04942    1.000
    O15      O        0.77380    0.62270    0.44656    1.000
    O16      O        0.94740    0.49320    0.05592    1.000
    O17      O        0.03860    0.13410    0.75124    1.000
    O18      O        0.53170    0.89820    0.49782    1.000
    O19      O        0.32060    0.04620    0.50706    1.000
    O20      O        0.78160    0.34100    0.67299    1.000
    O21      O        0.62360    0.15570    0.97297    1.000
    O22      O        0.32270    0.18680    0.95058    1.000
    O23      O        0.27380    0.87730    0.55344    1.000
    O24      O        0.44740    0.00680    0.94408    1.000
    O25      O        0.46140    0.86590    0.25124    1.000
    O26      O        0.96830    0.10180    0.99782    1.000
    O27      O        0.17940    0.95380    0.00706    1.000
    O28      O        0.71840    0.65900    0.17299    1.000
    O29      O        0.87640    0.84430    0.47297    1.000
    O30      O        0.17730    0.81320    0.45058    1.000
    O31      O        0.22620    0.12270    0.05344    1.000
    O32      O        0.05260    0.99320    0.44408    1.000
