# CIF file generated by openbabel 3.1.0, see https://openbabel.org
data_I
_chemical_name_common 'image0'
_cell_length_a 6.595
_cell_length_b 9.1653
_cell_length_c 14.1958
_cell_angle_alpha 85.873
_cell_angle_beta 82.166
_cell_angle_gamma 74.734
_space_group_name_H-M_alt 'P 1'
_space_group_name_Hall 'P 1'
loop_
    _symmetry_equiv_pos_as_xyz
    x,y,z
loop_
    _atom_site_label
    _atom_site_type_symbol
    _atom_site_fract_x
    _atom_site_fract_y
    _atom_site_fract_z
    _atom_site_occupancy
    C1       C        0.22460    0.75500    0.19290    1.000
    C2       C        0.56500    0.07490    0.17170    1.000
    C3       C        0.65330    0.90540    0.18760    1.000
    C4       C        0.69240    0.83990    0.27720    1.000
    C5       C        0.67370    0.92590    0.36420    1.000
    C6       C        0.75750    0.68320    0.28620    1.000
    H1       H        0.78890    0.63730    0.34650    1.000
    C7       C        0.77790    0.59170    0.21040    1.000
    C8       C        0.84450    0.42350    0.23480    1.000
    C9       C        0.74010    0.65660    0.12080    1.000
    C10      C        0.73500    0.56810    0.03610    1.000
    C11      C        0.68160    0.81650    0.10970    1.000
    H2       H        0.66170    0.86290    0.04840    1.000
    Cd1      Cd       0.41306    0.38552    0.16468    1.000
    Cd2      Cd       0.05851    0.11128    0.27540    1.000
    Cd3      Cd       0.24604    0.87754    0.48855    1.000
    N1       N        0.21010    0.79100    0.10110    1.000
    H3       H        0.16960    0.88660    0.08200    1.000
    H4       H        0.24100    0.71930    0.05950    1.000
    N2       N        0.18170    0.85430    0.26310    1.000
    N3       N        0.21470    0.76850    0.34480    1.000
    N4       N        0.27300    0.62560    0.32570    1.000
    N5       N        0.28180    0.61200    0.23110    1.000
    O1       O        0.41200    0.14360    0.23140    1.000
    O2       O        0.64080    0.14180    0.10160    1.000
    O3       O        0.74430    0.04220    0.35930    1.000
    O4       O        0.59440    0.87330    0.44120    1.000
    O5       O        0.70500    0.34930    0.25190    1.000
    O6       O        0.03400    0.36460    0.24610    1.000
    O7       O        0.68690    0.44460    0.05090    1.000
    O8       O        0.77670    0.62670    0.95390    1.000
    O9       O        0.08390    0.10590    0.42990    1.000
    H5       H        0.15830    0.16420    0.43860    1.000
    C12      C        0.77540    0.24500    0.80710    1.000
    C13      C        0.43500    0.92510    0.82830    1.000
    C14      C        0.34670    0.09460    0.81240    1.000
    C15      C        0.30760    0.16010    0.72280    1.000
    C16      C        0.32630    0.07410    0.63580    1.000
    C17      C        0.24250    0.31680    0.71380    1.000
    H6       H        0.21110    0.36270    0.65350    1.000
    C18      C        0.22210    0.40830    0.78960    1.000
    C19      C        0.15550    0.57650    0.76520    1.000
    C20      C        0.25990    0.34340    0.87920    1.000
    C21      C        0.26500    0.43190    0.96390    1.000
    C22      C        0.31840    0.18350    0.89030    1.000
    H7       H        0.33830    0.13710    0.95160    1.000
    Cd4      Cd       0.58694    0.61448    0.83532    1.000
    Cd5      Cd       0.94149    0.88872    0.72460    1.000
    Cd6      Cd       0.75396    0.12246    0.51145    1.000
    N6       N        0.78990    0.20900    0.89890    1.000
    H8       H        0.83040    0.11340    0.91800    1.000
    H9       H        0.75900    0.28070    0.94050    1.000
    N7       N        0.81830    0.14570    0.73690    1.000
    N8       N        0.78530    0.23150    0.65520    1.000
    N9       N        0.72700    0.37440    0.67430    1.000
    N10      N        0.71820    0.38800    0.76890    1.000
    O10      O        0.58800    0.85640    0.76860    1.000
    O11      O        0.35920    0.85820    0.89840    1.000
    O12      O        0.25570    0.95780    0.64070    1.000
    O13      O        0.40560    0.12670    0.55880    1.000
    O14      O        0.29500    0.65070    0.74810    1.000
    O15      O        0.96600    0.63540    0.75390    1.000
    O16      O        0.31310    0.55540    0.94910    1.000
    O17      O        0.22330    0.37330    0.04610    1.000
    O18      O        0.91610    0.89410    0.57010    1.000
    H10      H        0.84170    0.83580    0.56140    1.000
