data_functionalizedCrystal
_audit_creation_method	'EQeq! by Chris Wilmer'
_symmetry_space_group_name_H-M	'P1'
_symmetry_Int_Tables_number	1
_symmetry_cell_setting	triclinic
loop_
_symmetry_equiv_pos_as_xyz
  x,y,z
_cell_length_a	8.779
_cell_length_b	20.742
_cell_length_c	34.287
_cell_angle_alpha	90
_cell_angle_beta	90
_cell_angle_gamma	90
loop_
_atom_site_label
_atom_site_type_symbol
_atom_site_fract_x
_atom_site_fract_y
_atom_site_fract_z
_atom_site_charge
Mof_O 	O 	0.2447	0.3351	0.5929	-0.602
Mof_O 	O 	0.0054	0.3321	0.5709	-0.575
Mof_O 	O 	0.2412	0.4573	0.6365	-0.58
Mof_C 	C 	0.145	0.3215	0.5685	0.563
Mof_C 	C 	0.2	0.286	0.5331	-0.157
Mof_C 	C 	0.103	0.2656	0.5048	0
Mof_C 	C 	0.158	0.2308	0.4713	0.026
Mof_C 	C 	0.2404	0.5886	0.6453	-0.06
Mof_C 	C 	0.234	0.6555	0.6441	0.058
Mof_H 	H 	0.9971	0.2754	0.5068	0.043
Mof_H 	H 	0.0863	0.2187	0.4518	0.023
Mof_H 	H 	0.3167	0.5661	0.6592	0.059
Mof_H 	H 	0.3112	0.6786	0.6581	0.01
Mof_O 	O 	0.2447	0.8351	0.0929	-0.603
Mof_O 	O 	0.0054	0.8321	0.0709	-0.574
Mof_O 	O 	0.2412	0.9573	0.1365	-0.581
Mof_C 	C 	0.145	0.8215	0.0685	0.563
Mof_C 	C 	0.2	0.786	0.0331	-0.162
Mof_C 	C 	0.103	0.7656	0.0048	0.008
Mof_C 	C 	0.158	0.7308	0.9713	0.019
Mof_C 	C 	0.2404	0.0886	0.1453	-0.061
Mof_C 	C 	0.234	0.1555	0.1441	0.059
Mof_H 	H 	0.9971	0.7754	0.0068	0.038
Mof_H 	H 	0.0863	0.7187	0.9518	0.026
Mof_H 	H 	0.3167	0.0661	0.1592	0.059
Mof_H 	H 	0.3112	0.1786	0.1581	0.01
Mof_O 	O 	0.7447	0.3351	0.0929	-0.602
Mof_O 	O 	0.5054	0.3321	0.0709	-0.576
Mof_O 	O 	0.7412	0.4573	0.1365	-0.581
Mof_C 	C 	0.645	0.3215	0.0685	0.561
Mof_C 	C 	0.7	0.286	0.0331	-0.156
Mof_C 	C 	0.603	0.2656	0.0048	-0.002
Mof_C 	C 	0.658	0.2308	0.9713	0.027
Mof_C 	C 	0.7404	0.5886	0.1453	-0.061
Mof_C 	C 	0.734	0.6555	0.1441	0.059
Mof_H 	H 	0.4971	0.2754	0.0068	0.043
Mof_H 	H 	0.5863	0.2187	0.9518	0.023
Mof_H 	H 	0.8167	0.5661	0.1592	0.059
Mof_H 	H 	0.8112	0.6786	0.1581	0.009
Mof_O 	O 	0.7447	0.8351	0.5929	-0.603
Mof_O 	O 	0.5054	0.8321	0.5709	-0.576
Mof_O 	O 	0.7412	0.9573	0.6365	-0.581
Mof_C 	C 	0.645	0.8215	0.5685	0.562
Mof_C 	C 	0.7	0.786	0.5331	-0.16
Mof_C 	C 	0.603	0.7656	0.5048	0.002
Mof_C 	C 	0.658	0.7308	0.4713	0.023
Mof_C 	C 	0.7404	0.0886	0.6453	-0.061
Mof_C 	C 	0.734	0.1555	0.6441	0.059
Mof_H 	H 	0.4971	0.7754	0.5068	0.042
Mof_H 	H 	0.5863	0.7187	0.4518	0.025
Mof_H 	H 	0.8167	0.0661	0.6592	0.059
Mof_H 	H 	0.8112	0.1786	0.6581	0.01
Mof_O 	O 	0.5053	0.4149	0.5929	-0.603
Mof_O 	O 	0.7446	0.4179	0.5709	-0.576
Mof_O 	O 	0.5088	0.2927	0.6365	-0.581
Mof_C 	C 	0.605	0.4285	0.5685	0.562
Mof_C 	C 	0.55	0.464	0.5331	-0.159
Mof_C 	C 	0.647	0.4844	0.5048	0.001
Mof_C 	C 	0.592	0.5192	0.4713	0.024
Mof_C 	C 	0.5096	0.1614	0.6453	-0.061
Mof_C 	C 	0.516	0.0945	0.6441	0.059
Mof_H 	H 	0.7529	0.4746	0.5068	0.042
Mof_H 	H 	0.6637	0.5313	0.4518	0.024
Mof_H 	H 	0.4333	0.1839	0.6592	0.059
Mof_H 	H 	0.4388	0.0714	0.6581	0.01
Mof_O 	O 	0.5053	0.9149	0.0929	-0.603
Mof_O 	O 	0.7446	0.9179	0.0709	-0.576
Mof_O 	O 	0.5088	0.7927	0.1365	-0.581
Mof_C 	C 	0.605	0.9285	0.0685	0.562
Mof_C 	C 	0.55	0.964	0.0331	-0.159
Mof_C 	C 	0.647	0.9844	0.0048	0.001
Mof_C 	C 	0.592	0.0192	0.9713	0.025
Mof_C 	C 	0.5096	0.6614	0.1453	-0.061
Mof_C 	C 	0.516	0.5945	0.1441	0.059
Mof_H 	H 	0.7529	0.9746	0.0068	0.042
Mof_H 	H 	0.6637	0.0313	0.9518	0.024
Mof_H 	H 	0.4333	0.6839	0.1592	0.059
Mof_H 	H 	0.4388	0.5714	0.1581	0.01
Mof_O 	O 	0.0053	0.4149	0.0929	-0.602
Mof_O 	O 	0.2446	0.4179	0.0709	-0.576
Mof_O 	O 	0.0088	0.2927	0.1365	-0.581
Mof_C 	C 	0.105	0.4285	0.0685	0.562
Mof_C 	C 	0.05	0.464	0.0331	-0.158
Mof_C 	C 	0.147	0.4844	0.0048	0.002
Mof_C 	C 	0.092	0.5192	0.9713	0.022
Mof_C 	C 	0.0096	0.1614	0.1453	-0.062
Mof_C 	C 	0.016	0.0945	0.1441	0.059
Mof_H 	H 	0.2529	0.4746	0.0068	0.042
Mof_H 	H 	0.1637	0.5313	0.9518	0.025
Mof_H 	H 	0.9333	0.1839	0.1592	0.059
Mof_H 	H 	0.9388	0.0714	0.1581	0.01
Mof_O 	O 	0.0053	0.9149	0.5929	-0.6
Mof_O 	O 	0.2446	0.9179	0.5709	-0.576
Mof_O 	O 	0.0088	0.7927	0.6365	-0.579
Mof_C 	C 	0.105	0.9285	0.5685	0.561
Mof_C 	C 	0.05	0.964	0.5331	-0.155
Mof_C 	C 	0.147	0.9844	0.5048	0.004
Mof_C 	C 	0.092	0.0192	0.4713	0.017
Mof_C 	C 	0.0096	0.6614	0.6453	-0.058
Mof_C 	C 	0.016	0.5945	0.6441	0.058
Mof_H 	H 	0.2529	0.9746	0.5068	0.041
Mof_H 	H 	0.1637	0.0313	0.4518	0.026
Mof_H 	H 	0.9333	0.6839	0.6592	0.057
Mof_H 	H 	0.9388	0.5714	0.6581	0.009
Mof_O 	O 	0.5053	0.3351	0.1571	-0.603
Mof_O 	O 	0.7446	0.3321	0.1791	-0.576
Mof_O 	O 	0.5088	0.4573	0.1135	-0.581
Mof_C 	C 	0.605	0.3215	0.1815	0.562
Mof_C 	C 	0.55	0.286	0.2169	-0.159
Mof_C 	C 	0.647	0.2656	0.2452	0.001
Mof_C 	C 	0.592	0.2308	0.2787	0.024
Mof_C 	C 	0.5096	0.5886	0.1047	-0.061
Mof_C 	C 	0.516	0.6555	0.1059	0.059
Mof_H 	H 	0.7529	0.2754	0.2432	0.042
Mof_H 	H 	0.6637	0.2187	0.2982	0.024
Mof_H 	H 	0.4333	0.5661	0.0908	0.059
Mof_H 	H 	0.4388	0.6786	0.0919	0.01
Mof_O 	O 	0.5053	0.8351	0.6571	-0.603
Mof_O 	O 	0.7446	0.8321	0.6791	-0.576
Mof_O 	O 	0.5088	0.9573	0.6135	-0.581
Mof_C 	C 	0.605	0.8215	0.6815	0.562
Mof_C 	C 	0.55	0.786	0.7169	-0.159
Mof_C 	C 	0.647	0.7656	0.7452	0.001
Mof_C 	C 	0.592	0.7308	0.7787	0.024
Mof_C 	C 	0.5096	0.0886	0.6047	-0.061
Mof_C 	C 	0.516	0.1555	0.6059	0.059
Mof_H 	H 	0.7529	0.7754	0.7432	0.042
Mof_H 	H 	0.6637	0.7187	0.7982	0.024
Mof_H 	H 	0.4333	0.0661	0.5908	0.059
Mof_H 	H 	0.4388	0.1786	0.5919	0.01
Mof_O 	O 	0.0053	0.3351	0.6571	-0.603
Mof_O 	O 	0.2446	0.3321	0.6791	-0.577
Mof_O 	O 	0.0088	0.4573	0.6135	-0.581
Mof_C 	C 	0.105	0.3215	0.6815	0.564
Mof_C 	C 	0.05	0.286	0.7169	-0.164
Mof_C 	C 	0.147	0.2656	0.7452	0.006
Mof_C 	C 	0.092	0.2308	0.7787	0.017
Mof_C 	C 	0.0096	0.5886	0.6047	-0.059
Mof_C 	C 	0.016	0.6555	0.6059	0.06
Mof_H 	H 	0.2529	0.2754	0.7432	0.04
Mof_H 	H 	0.1637	0.2187	0.7982	0.026
Mof_H 	H 	0.9333	0.5661	0.5908	0.058
Mof_H 	H 	0.9388	0.6786	0.5919	0.009
Mof_O 	O 	0.0053	0.8351	0.1571	-0.6
Mof_O 	O 	0.2446	0.8321	0.1791	-0.576
Mof_O 	O 	0.0088	0.9573	0.1135	-0.579
Mof_C 	C 	0.105	0.8215	0.1815	0.56
Mof_C 	C 	0.05	0.786	0.2169	-0.152
Mof_C 	C 	0.147	0.7656	0.2452	-0.003
Mof_C 	C 	0.092	0.7308	0.2787	0.029
Mof_C 	C 	0.0096	0.0886	0.1047	-0.062
Mof_C 	C 	0.016	0.1555	0.1059	0.059
Mof_H 	H 	0.2529	0.7754	0.2432	0.044
Mof_H 	H 	0.1637	0.7187	0.2982	0.023
Mof_H 	H 	0.9333	0.0661	0.0908	0.06
Mof_H 	H 	0.9388	0.1786	0.0919	0.01
Mof_O 	O 	0.2447	0.4149	0.1571	-0.603
Mof_O 	O 	0.0054	0.4179	0.1791	-0.576
Mof_O 	O 	0.2412	0.2927	0.1135	-0.581
Mof_C 	C 	0.145	0.4285	0.1815	0.562
Mof_C 	C 	0.2	0.464	0.2169	-0.159
Mof_C 	C 	0.103	0.4844	0.2452	0.002
Mof_C 	C 	0.158	0.5192	0.2787	0.024
Mof_C 	C 	0.2404	0.1614	0.1047	-0.062
Mof_C 	C 	0.234	0.0945	0.1059	0.06
Mof_H 	H 	0.9971	0.4746	0.2432	0.041
Mof_H 	H 	0.0863	0.5313	0.2982	0.024
Mof_H 	H 	0.3167	0.1839	0.0908	0.059
Mof_H 	H 	0.3112	0.0714	0.0919	0.009
Mof_O 	O 	0.2447	0.9149	0.6571	-0.603
Mof_O 	O 	0.0054	0.9179	0.6791	-0.575
Mof_O 	O 	0.2412	0.7927	0.6135	-0.581
Mof_C 	C 	0.145	0.9285	0.6815	0.564
Mof_C 	C 	0.2	0.964	0.7169	-0.165
Mof_C 	C 	0.103	0.9844	0.7452	0.012
Mof_C 	C 	0.158	0.0192	0.7787	0.015
Mof_C 	C 	0.2404	0.6614	0.6047	-0.06
Mof_C 	C 	0.234	0.5945	0.6059	0.058
Mof_H 	H 	0.9971	0.9746	0.7432	0.037
Mof_H 	H 	0.0863	0.0313	0.7982	0.026
Mof_H 	H 	0.3167	0.6839	0.5908	0.059
Mof_H 	H 	0.3112	0.5714	0.5919	0.01
Mof_O 	O 	0.7447	0.4149	0.6571	-0.603
Mof_O 	O 	0.5054	0.4179	0.6791	-0.576
Mof_O 	O 	0.7412	0.2927	0.6135	-0.581
Mof_C 	C 	0.645	0.4285	0.6815	0.562
Mof_C 	C 	0.7	0.464	0.7169	-0.159
Mof_C 	C 	0.603	0.4844	0.7452	0.001
Mof_C 	C 	0.658	0.5192	0.7787	0.024
Mof_C 	C 	0.7404	0.1614	0.6047	-0.061
Mof_C 	C 	0.734	0.0945	0.6059	0.059
Mof_H 	H 	0.4971	0.4746	0.7432	0.042
Mof_H 	H 	0.5863	0.5313	0.7982	0.024
Mof_H 	H 	0.8167	0.1839	0.5908	0.059
Mof_H 	H 	0.8112	0.0714	0.5919	0.01
Mof_O 	O 	0.7447	0.9149	0.1571	-0.602
Mof_O 	O 	0.5054	0.9179	0.1791	-0.576
Mof_O 	O 	0.7412	0.7927	0.1135	-0.581
Mof_C 	C 	0.645	0.9285	0.1815	0.56
Mof_C 	C 	0.7	0.964	0.2169	-0.153
Mof_C 	C 	0.603	0.9844	0.2452	-0.005
Mof_C 	C 	0.658	0.0192	0.2787	0.03
Mof_C 	C 	0.7404	0.6614	0.1047	-0.061
Mof_C 	C 	0.734	0.5945	0.1059	0.059
Mof_H 	H 	0.4971	0.9746	0.2432	0.044
Mof_H 	H 	0.5863	0.0313	0.2982	0.022
Mof_H 	H 	0.8167	0.6839	0.0908	0.058
Mof_H 	H 	0.8112	0.5714	0.0919	0.01
Mof_O 	O 	0.7553	0.6649	0.4071	-0.603
Mof_O 	O 	0.9946	0.6679	0.4291	-0.576
Mof_O 	O 	0.7588	0.5427	0.3635	-0.581
Mof_C 	C 	0.855	0.6785	0.4315	0.562
Mof_C 	C 	0.8	0.714	0.4669	-0.158
Mof_C 	C 	0.897	0.7344	0.4952	-0.001
Mof_C 	C 	0.842	0.7692	0.5287	0.026
Mof_C 	C 	0.7596	0.4114	0.3547	-0.06
Mof_C 	C 	0.766	0.3445	0.3559	0.058
Mof_H 	H 	0.0029	0.7246	0.4932	0.043
Mof_H 	H 	0.9137	0.7813	0.5482	0.023
Mof_H 	H 	0.6833	0.4339	0.3408	0.059
Mof_H 	H 	0.6888	0.3214	0.3419	0.01
Mof_O 	O 	0.7553	0.1649	0.9071	-0.603
Mof_O 	O 	0.9946	0.1679	0.9291	-0.574
Mof_O 	O 	0.7588	0.0427	0.8635	-0.581
Mof_C 	C 	0.855	0.1785	0.9315	0.563
Mof_C 	C 	0.8	0.214	0.9669	-0.162
Mof_C 	C 	0.897	0.2344	0.9952	0.008
Mof_C 	C 	0.842	0.2692	0.0287	0.019
Mof_C 	C 	0.7596	0.9114	0.8547	-0.061
Mof_C 	C 	0.766	0.8445	0.8559	0.059
Mof_H 	H 	0.0029	0.2246	0.9932	0.038
Mof_H 	H 	0.9137	0.2813	0.0482	0.026
Mof_H 	H 	0.6833	0.9339	0.8408	0.059
Mof_H 	H 	0.6888	0.8214	0.8419	0.01
Mof_O 	O 	0.2553	0.6649	0.9071	-0.602
Mof_O 	O 	0.4946	0.6679	0.9291	-0.576
Mof_O 	O 	0.2588	0.5427	0.8635	-0.581
Mof_C 	C 	0.355	0.6785	0.9315	0.561
Mof_C 	C 	0.3	0.714	0.9669	-0.156
Mof_C 	C 	0.397	0.7344	0.9952	-0.002
Mof_C 	C 	0.342	0.7692	0.0287	0.027
Mof_C 	C 	0.2596	0.4114	0.8547	-0.061
Mof_C 	C 	0.266	0.3445	0.8559	0.059
Mof_H 	H 	0.5029	0.7246	0.9932	0.043
Mof_H 	H 	0.4137	0.7813	0.0482	0.023
Mof_H 	H 	0.1833	0.4339	0.8408	0.059
Mof_H 	H 	0.1888	0.3214	0.8419	0.009
Mof_O 	O 	0.2553	0.1649	0.4071	-0.603
Mof_O 	O 	0.4946	0.1679	0.4291	-0.576
Mof_O 	O 	0.2588	0.0427	0.3635	-0.581
Mof_C 	C 	0.355	0.1785	0.4315	0.562
Mof_C 	C 	0.3	0.214	0.4669	-0.16
Mof_C 	C 	0.397	0.2344	0.4952	0.002
Mof_C 	C 	0.342	0.2692	0.5287	0.023
Mof_C 	C 	0.2596	0.9114	0.3547	-0.061
Mof_C 	C 	0.266	0.8445	0.3559	0.059
Mof_H 	H 	0.5029	0.2246	0.4932	0.042
Mof_H 	H 	0.4137	0.2813	0.5482	0.025
Mof_H 	H 	0.1833	0.9339	0.3408	0.059
Mof_H 	H 	0.1888	0.8214	0.3419	0.01
Mof_O 	O 	0.4947	0.5851	0.4071	-0.603
Mof_O 	O 	0.2554	0.5821	0.4291	-0.576
Mof_O 	O 	0.4912	0.7073	0.3635	-0.581
Mof_C 	C 	0.395	0.5715	0.4315	0.562
Mof_C 	C 	0.45	0.536	0.4669	-0.159
Mof_C 	C 	0.353	0.5156	0.4952	0.001
Mof_C 	C 	0.408	0.4808	0.5287	0.024
Mof_C 	C 	0.4904	0.8386	0.3547	-0.061
Mof_C 	C 	0.484	0.9055	0.3559	0.059
Mof_H 	H 	0.2471	0.5254	0.4932	0.042
Mof_H 	H 	0.3363	0.4687	0.5482	0.024
Mof_H 	H 	0.5667	0.8161	0.3408	0.059
Mof_H 	H 	0.5612	0.9286	0.3419	0.01
Mof_O 	O 	0.4947	0.0851	0.9071	-0.603
Mof_O 	O 	0.2554	0.0821	0.9291	-0.576
Mof_O 	O 	0.4912	0.2073	0.8635	-0.581
Mof_C 	C 	0.395	0.0715	0.9315	0.562
Mof_C 	C 	0.45	0.036	0.9669	-0.159
Mof_C 	C 	0.353	0.0156	0.9952	0.001
Mof_C 	C 	0.408	0.9808	0.0287	0.025
Mof_C 	C 	0.4904	0.3386	0.8547	-0.061
Mof_C 	C 	0.484	0.4055	0.8559	0.059
Mof_H 	H 	0.2471	0.0254	0.9932	0.042
Mof_H 	H 	0.3363	0.9687	0.0482	0.024
Mof_H 	H 	0.5667	0.3161	0.8408	0.059
Mof_H 	H 	0.5612	0.4286	0.8419	0.01
Mof_O 	O 	0.9947	0.5851	0.9071	-0.602
Mof_O 	O 	0.7554	0.5821	0.9291	-0.576
Mof_O 	O 	0.9912	0.7073	0.8635	-0.581
Mof_C 	C 	0.895	0.5715	0.9315	0.562
Mof_C 	C 	0.95	0.536	0.9669	-0.158
Mof_C 	C 	0.853	0.5156	0.9952	0.002
Mof_C 	C 	0.908	0.4808	0.0287	0.022
Mof_C 	C 	0.9904	0.8386	0.8547	-0.062
Mof_C 	C 	0.984	0.9055	0.8559	0.059
Mof_H 	H 	0.7471	0.5254	0.9932	0.042
Mof_H 	H 	0.8363	0.4687	0.0482	0.025
Mof_H 	H 	0.0667	0.8161	0.8408	0.059
Mof_H 	H 	0.0612	0.9286	0.8419	0.01
Mof_O 	O 	0.9947	0.0851	0.4071	-0.6
Mof_O 	O 	0.7554	0.0821	0.4291	-0.576
Mof_O 	O 	0.9912	0.2073	0.3635	-0.579
Mof_C 	C 	0.895	0.0715	0.4315	0.561
Mof_C 	C 	0.95	0.036	0.4669	-0.155
Mof_C 	C 	0.853	0.0156	0.4952	0.004
Mof_C 	C 	0.908	0.9808	0.5287	0.017
Mof_C 	C 	0.9904	0.3386	0.3547	-0.058
Mof_C 	C 	0.984	0.4055	0.3559	0.058
Mof_H 	H 	0.7471	0.0254	0.4932	0.041
Mof_H 	H 	0.8363	0.9687	0.5482	0.026
Mof_H 	H 	0.0667	0.3161	0.3408	0.057
Mof_H 	H 	0.0612	0.4286	0.3419	0.009
Mof_O 	O 	0.4947	0.6649	0.8429	-0.603
Mof_O 	O 	0.2554	0.6679	0.8209	-0.576
Mof_O 	O 	0.4912	0.5427	0.8865	-0.581
Mof_C 	C 	0.395	0.6785	0.8185	0.562
Mof_C 	C 	0.45	0.714	0.7831	-0.159
Mof_C 	C 	0.353	0.7344	0.7548	0.001
Mof_C 	C 	0.408	0.7692	0.7213	0.024
Mof_C 	C 	0.4904	0.4114	0.8953	-0.061
Mof_C 	C 	0.484	0.3445	0.8941	0.059
Mof_H 	H 	0.2471	0.7246	0.7568	0.042
Mof_H 	H 	0.3363	0.7813	0.7018	0.024
Mof_H 	H 	0.5667	0.4339	0.9092	0.059
Mof_H 	H 	0.5612	0.3214	0.9081	0.01
Mof_O 	O 	0.4947	0.1649	0.3429	-0.603
Mof_O 	O 	0.2554	0.1679	0.3209	-0.576
Mof_O 	O 	0.4912	0.0427	0.3865	-0.581
Mof_C 	C 	0.395	0.1785	0.3185	0.562
Mof_C 	C 	0.45	0.214	0.2831	-0.159
Mof_C 	C 	0.353	0.2344	0.2548	0.001
Mof_C 	C 	0.408	0.2692	0.2213	0.024
Mof_C 	C 	0.4904	0.9114	0.3953	-0.061
Mof_C 	C 	0.484	0.8445	0.3941	0.059
Mof_H 	H 	0.2471	0.2246	0.2568	0.042
Mof_H 	H 	0.3363	0.2813	0.2018	0.024
Mof_H 	H 	0.5667	0.9339	0.4092	0.059
Mof_H 	H 	0.5612	0.8214	0.4081	0.01
Mof_O 	O 	0.9947	0.6649	0.3429	-0.603
Mof_O 	O 	0.7554	0.6679	0.3209	-0.577
Mof_O 	O 	0.9912	0.5427	0.3865	-0.581
Mof_C 	C 	0.895	0.6785	0.3185	0.564
Mof_C 	C 	0.95	0.714	0.2831	-0.164
Mof_C 	C 	0.853	0.7344	0.2548	0.006
Mof_C 	C 	0.908	0.7692	0.2213	0.017
Mof_C 	C 	0.9904	0.4114	0.3953	-0.059
Mof_C 	C 	0.984	0.3445	0.3941	0.06
Mof_H 	H 	0.7471	0.7246	0.2568	0.04
Mof_H 	H 	0.8363	0.7813	0.2018	0.026
Mof_H 	H 	0.0667	0.4339	0.4092	0.058
Mof_H 	H 	0.0612	0.3214	0.4081	0.009
Mof_O 	O 	0.9947	0.1649	0.8429	-0.6
Mof_O 	O 	0.7554	0.1679	0.8209	-0.576
Mof_O 	O 	0.9912	0.0427	0.8865	-0.579
Mof_C 	C 	0.895	0.1785	0.8185	0.56
Mof_C 	C 	0.95	0.214	0.7831	-0.152
Mof_C 	C 	0.853	0.2344	0.7548	-0.003
Mof_C 	C 	0.908	0.2692	0.7213	0.029
Mof_C 	C 	0.9904	0.9114	0.8953	-0.062
Mof_C 	C 	0.984	0.8445	0.8941	0.059
Mof_H 	H 	0.7471	0.2246	0.7568	0.044
Mof_H 	H 	0.8363	0.2813	0.7018	0.023
Mof_H 	H 	0.0667	0.9339	0.9092	0.06
Mof_H 	H 	0.0612	0.8214	0.9081	0.01
Mof_O 	O 	0.7553	0.5851	0.8429	-0.603
Mof_O 	O 	0.9946	0.5821	0.8209	-0.576
Mof_O 	O 	0.7588	0.7073	0.8865	-0.581
Mof_C 	C 	0.855	0.5715	0.8185	0.562
Mof_C 	C 	0.8	0.536	0.7831	-0.159
Mof_C 	C 	0.897	0.5156	0.7548	0.002
Mof_C 	C 	0.842	0.4808	0.7213	0.024
Mof_C 	C 	0.7596	0.8386	0.8953	-0.062
Mof_C 	C 	0.766	0.9055	0.8941	0.06
Mof_H 	H 	0.0029	0.5254	0.7568	0.041
Mof_H 	H 	0.9137	0.4687	0.7018	0.024
Mof_H 	H 	0.6833	0.8161	0.9092	0.059
Mof_H 	H 	0.6888	0.9286	0.9081	0.009
Mof_O 	O 	0.7553	0.0851	0.3429	-0.603
Mof_O 	O 	0.9946	0.0821	0.3209	-0.575
Mof_O 	O 	0.7588	0.2073	0.3865	-0.581
Mof_C 	C 	0.855	0.0715	0.3185	0.564
Mof_C 	C 	0.8	0.036	0.2831	-0.165
Mof_C 	C 	0.897	0.0156	0.2548	0.012
Mof_C 	C 	0.842	0.9808	0.2213	0.015
Mof_C 	C 	0.7596	0.3386	0.3953	-0.06
Mof_C 	C 	0.766	0.4055	0.3941	0.058
Mof_H 	H 	0.0029	0.0254	0.2568	0.037
Mof_H 	H 	0.9137	0.9687	0.2018	0.026
Mof_H 	H 	0.6833	0.3161	0.4092	0.059
Mof_H 	H 	0.6888	0.4286	0.4081	0.01
Mof_O 	O 	0.2553	0.5851	0.3429	-0.603
Mof_O 	O 	0.4946	0.5821	0.3209	-0.576
Mof_O 	O 	0.2588	0.7073	0.3865	-0.581
Mof_C 	C 	0.355	0.5715	0.3185	0.562
Mof_C 	C 	0.3	0.536	0.2831	-0.159
Mof_C 	C 	0.397	0.5156	0.2548	0.001
Mof_C 	C 	0.342	0.4808	0.2213	0.024
Mof_C 	C 	0.2596	0.8386	0.3953	-0.061
Mof_C 	C 	0.266	0.9055	0.3941	0.059
Mof_H 	H 	0.5029	0.5254	0.2568	0.042
Mof_H 	H 	0.4137	0.4687	0.2018	0.024
Mof_H 	H 	0.1833	0.8161	0.4092	0.059
Mof_H 	H 	0.1888	0.9286	0.4081	0.01
Mof_O 	O 	0.2553	0.0851	0.8429	-0.602
Mof_O 	O 	0.4946	0.0821	0.8209	-0.576
Mof_O 	O 	0.2588	0.2073	0.8865	-0.581
Mof_C 	C 	0.355	0.0715	0.8185	0.56
Mof_C 	C 	0.3	0.036	0.7831	-0.153
Mof_C 	C 	0.397	0.0156	0.7548	-0.005
Mof_C 	C 	0.342	0.9808	0.7213	0.03
Mof_C 	C 	0.2596	0.3386	0.8953	-0.061
Mof_C 	C 	0.266	0.4055	0.8941	0.059
Mof_H 	H 	0.5029	0.0254	0.7568	0.044
Mof_H 	H 	0.4137	0.9687	0.7018	0.022
Mof_H 	H 	0.1833	0.3161	0.9092	0.058
Mof_H 	H 	0.1888	0.4286	0.9081	0.01
Mof_Sc	Sc	0.375	0.375	0.63628	2.006
Mof_Sc	Sc	0.375	0.875	0.13628	2.006
Mof_Sc	Sc	0.875	0.375	0.13628	2.004
Mof_Sc	Sc	0.875	0.875	0.63628	2.001
Mof_Sc	Sc	0.375	0.375	0.11372	2.006
Mof_Sc	Sc	0.375	0.875	0.61372	2.006
Mof_Sc	Sc	0.875	0.375	0.61372	2.006
Mof_Sc	Sc	0.875	0.875	0.11372	1.999
Mof_Sc	Sc	0.625	0.625	0.36372	2.006
Mof_Sc	Sc	0.625	0.125	0.86372	2.006
Mof_Sc	Sc	0.125	0.625	0.86372	2.004
Mof_Sc	Sc	0.125	0.125	0.36372	2.001
Mof_Sc	Sc	0.625	0.625	0.88628	2.006
Mof_Sc	Sc	0.625	0.125	0.38628	2.006
Mof_Sc	Sc	0.125	0.625	0.38628	2.006
Mof_Sc	Sc	0.125	0.125	0.88628	1.999
Mof_C 	C 	0.125	0.4864	0.625	0.56
Mof_C 	C 	0.125	0.5576	0.625	-0.169
Mof_C 	C 	0.125	0.9864	0.125	0.561
Mof_C 	C 	0.125	0.0576	0.125	-0.17
Mof_C 	C 	0.625	0.9864	0.625	0.559
Mof_C 	C 	0.625	0.0576	0.625	-0.167
Mof_C 	C 	0.625	0.2636	0.625	0.56
Mof_C 	C 	0.625	0.1924	0.625	-0.169
Mof_C 	C 	0.625	0.7636	0.125	0.56
Mof_C 	C 	0.625	0.6924	0.125	-0.168
Mof_C 	C 	0.625	0.4864	0.125	0.56
Mof_C 	C 	0.625	0.5576	0.125	-0.168
Mof_C 	C 	0.125	0.2636	0.125	0.56
Mof_C 	C 	0.125	0.1924	0.125	-0.168
Mof_C 	C 	0.125	0.7636	0.625	0.56
Mof_C 	C 	0.125	0.6924	0.625	-0.169
Mof_C 	C 	0.875	0.5136	0.375	0.56
Mof_C 	C 	0.875	0.4424	0.375	-0.169
Mof_C 	C 	0.875	0.0136	0.875	0.561
Mof_C 	C 	0.875	0.9424	0.875	-0.17
Mof_C 	C 	0.375	0.7364	0.375	0.56
Mof_C 	C 	0.375	0.8076	0.375	-0.169
Mof_C 	C 	0.375	0.2364	0.875	0.56
Mof_C 	C 	0.375	0.3076	0.875	-0.168
Mof_C 	C 	0.375	0.5136	0.875	0.56
Mof_C 	C 	0.375	0.4424	0.875	-0.168
Mof_C 	C 	0.375	0.0136	0.375	0.559
Mof_C 	C 	0.375	0.9424	0.375	-0.167
Mof_C 	C 	0.875	0.7364	0.875	0.56
Mof_C 	C 	0.875	0.8076	0.875	-0.168
Mof_C 	C 	0.875	0.2364	0.375	0.56
Mof_C 	C 	0.875	0.3076	0.375	-0.169
_end
