data_functionalizedCrystal
_audit_creation_method	'EQeq! by Chris Wilmer'
_symmetry_space_group_name_H-M	'P1'
_symmetry_Int_Tables_number	1
_symmetry_cell_setting	triclinic
loop_
_symmetry_equiv_pos_as_xyz
  x,y,z
_cell_length_a	23.9532
_cell_length_b	25.725
_cell_length_c	14.8141
_cell_angle_alpha	90
_cell_angle_beta	90
_cell_angle_gamma	90
loop_
_atom_site_label
_atom_site_type_symbol
_atom_site_fract_x
_atom_site_fract_y
_atom_site_fract_z
_atom_site_charge
Mof_Cl	Cl	0.3305	0.3159	0.9287	1.32
Mof_O 	O 	0.0587	0.4824	0.8879	-0.524
Mof_O 	O 	0.0581	0.4286	0.0053	-0.522
Mof_C 	C 	0.1991	0.3506	0.8061	0.113
Mof_C 	C 	0.1815	0.3947	0.7652	-0.2
Mof_H 	H 	0.197	0.405	0.7105	0.091
Mof_C 	C 	0.1405	0.4241	0.8056	0.123
Mof_H 	H 	0.1275	0.454	0.7771	-0.02
Mof_C 	C 	0.1189	0.4101	0.8862	-0.211
Mof_C 	C 	0.1372	0.3645	0.9273	0.123
Mof_H 	H 	0.122	0.3541	0.9822	-0.016
Mof_C 	C 	0.1772	0.3355	0.8872	-0.204
Mof_H 	H 	0.1898	0.3052	0.9148	0.089
Mof_C 	C 	0.0745	0.4423	0.9297	0.445
Mof_C 	C 	0.2879	0.276	0.8398	0.601
Mof_C 	C 	0.3188	0.3034	0.9014	-1.531
Mof_H 	H 	0.3207	0.3395	0.8987	-0.04
Mof_C 	C 	0.3469	0.2764	0.967	-0.003
Mof_H 	H 	0.366	0.2944	0.0118	-0.08
Mof_Cl	Cl	0.8305	0.8159	0.4287	1.314
Mof_O 	O 	0.5587	0.9824	0.3879	-0.5
Mof_O 	O 	0.5581	0.9286	0.5053	-0.497
Mof_C 	C 	0.6991	0.8506	0.3061	0.11
Mof_C 	C 	0.6815	0.8947	0.2652	-0.188
Mof_H 	H 	0.697	0.905	0.2105	0.092
Mof_C 	C 	0.6405	0.9241	0.3056	0.118
Mof_H 	H 	0.6275	0.954	0.2771	-0.008
Mof_C 	C 	0.6189	0.9101	0.3862	-0.194
Mof_C 	C 	0.6372	0.8645	0.4273	0.118
Mof_H 	H 	0.622	0.8541	0.4822	-0.004
Mof_C 	C 	0.6772	0.8355	0.3872	-0.192
Mof_H 	H 	0.6898	0.8052	0.4148	0.089
Mof_C 	C 	0.5745	0.9423	0.4297	0.443
Mof_C 	C 	0.7879	0.776	0.3398	0.603
Mof_C 	C 	0.8188	0.8034	0.4014	-1.52
Mof_H 	H 	0.8207	0.8395	0.3987	-0.034
Mof_C 	C 	0.8469	0.7764	0.467	0.002
Mof_H 	H 	0.866	0.7944	0.5118	-0.068
Mof_Cl	Cl	0.6695	0.1841	0.9287	1.32
Mof_O 	O 	0.9413	0.0176	0.8879	-0.463
Mof_O 	O 	0.9419	0.0714	0.0053	-0.461
Mof_C 	C 	0.8009	0.1494	0.8061	0.106
Mof_C 	C 	0.8185	0.1053	0.7652	-0.177
Mof_H 	H 	0.803	0.095	0.7105	0.091
Mof_C 	C 	0.8595	0.0759	0.8056	0.108
Mof_H 	H 	0.8725	0.046	0.7771	0.004
Mof_C 	C 	0.8811	0.0899	0.8862	-0.176
Mof_C 	C 	0.8628	0.1355	0.9273	0.11
Mof_H 	H 	0.878	0.1459	0.9822	0.008
Mof_C 	C 	0.8228	0.1645	0.8872	-0.18
Mof_H 	H 	0.8102	0.1948	0.9148	0.089
Mof_C 	C 	0.9255	0.0577	0.9297	0.435
Mof_C 	C 	0.7121	0.224	0.8398	0.602
Mof_C 	C 	0.6812	0.1966	0.9014	-1.529
Mof_H 	H 	0.6793	0.1605	0.8987	-0.039
Mof_C 	C 	0.6531	0.2236	0.967	-0.002
Mof_H 	H 	0.634	0.2056	0.0118	-0.079
Mof_Cl	Cl	0.1695	0.6841	0.4287	1.327
Mof_O 	O 	0.4413	0.5176	0.3879	-0.5
Mof_O 	O 	0.4419	0.5714	0.5053	-0.498
Mof_C 	C 	0.3009	0.6494	0.3061	0.111
Mof_C 	C 	0.3185	0.6053	0.2652	-0.191
Mof_H 	H 	0.303	0.595	0.2105	0.092
Mof_C 	C 	0.3595	0.5759	0.3056	0.118
Mof_H 	H 	0.3725	0.546	0.2771	-0.009
Mof_C 	C 	0.3811	0.5899	0.3862	-0.196
Mof_C 	C 	0.3628	0.6355	0.4273	0.119
Mof_H 	H 	0.378	0.6459	0.4822	-0.006
Mof_C 	C 	0.3228	0.6645	0.3872	-0.195
Mof_H 	H 	0.3102	0.6948	0.4148	0.089
Mof_C 	C 	0.4255	0.5577	0.4297	0.443
Mof_C 	C 	0.2121	0.724	0.3398	0.6
Mof_C 	C 	0.1812	0.6966	0.4014	-1.54
Mof_H 	H 	0.1793	0.6605	0.3987	-0.044
Mof_C 	C 	0.1531	0.7236	0.467	-0.006
Mof_H 	H 	0.134	0.7056	0.5118	-0.09
Mof_Cl	Cl	0.6695	0.8159	0.0713	1.32
Mof_O 	O 	0.9413	0.9824	0.1121	-0.463
Mof_O 	O 	0.9419	0.9286	0.9947	-0.461
Mof_C 	C 	0.8009	0.8506	0.1939	0.106
Mof_C 	C 	0.8185	0.8947	0.2348	-0.177
Mof_H 	H 	0.803	0.905	0.2895	0.091
Mof_C 	C 	0.8595	0.9241	0.1944	0.108
Mof_H 	H 	0.8725	0.954	0.2229	0.004
Mof_C 	C 	0.8811	0.9101	0.1138	-0.176
Mof_C 	C 	0.8628	0.8645	0.0727	0.11
Mof_H 	H 	0.878	0.8541	0.0178	0.008
Mof_C 	C 	0.8228	0.8355	0.1128	-0.18
Mof_H 	H 	0.8102	0.8052	0.0852	0.089
Mof_C 	C 	0.9255	0.9423	0.0703	0.435
Mof_C 	C 	0.7121	0.776	0.1602	0.602
Mof_C 	C 	0.6812	0.8034	0.0986	-1.529
Mof_H 	H 	0.6793	0.8395	0.1013	-0.039
Mof_C 	C 	0.6531	0.7764	0.033	-0.002
Mof_H 	H 	0.634	0.7944	0.9882	-0.079
Mof_Cl	Cl	0.1695	0.3159	0.5713	1.327
Mof_O 	O 	0.4413	0.4824	0.6121	-0.5
Mof_O 	O 	0.4419	0.4286	0.4947	-0.498
Mof_C 	C 	0.3009	0.3506	0.6939	0.111
Mof_C 	C 	0.3185	0.3947	0.7348	-0.191
Mof_H 	H 	0.303	0.405	0.7895	0.092
Mof_C 	C 	0.3595	0.4241	0.6944	0.118
Mof_H 	H 	0.3725	0.454	0.7229	-0.009
Mof_C 	C 	0.3811	0.4101	0.6138	-0.196
Mof_C 	C 	0.3628	0.3645	0.5727	0.119
Mof_H 	H 	0.378	0.3541	0.5178	-0.006
Mof_C 	C 	0.3228	0.3355	0.6128	-0.195
Mof_H 	H 	0.3102	0.3052	0.5852	0.089
Mof_C 	C 	0.4255	0.4423	0.5703	0.443
Mof_C 	C 	0.2121	0.276	0.6602	0.6
Mof_C 	C 	0.1812	0.3034	0.5986	-1.54
Mof_H 	H 	0.1793	0.3395	0.6013	-0.044
Mof_C 	C 	0.1531	0.2764	0.533	-0.006
Mof_H 	H 	0.134	0.2944	0.4882	-0.09
Mof_Cl	Cl	0.3305	0.6841	0.0713	1.321
Mof_O 	O 	0.0587	0.5176	0.1121	-0.523
Mof_O 	O 	0.0581	0.5714	0.9947	-0.521
Mof_C 	C 	0.1991	0.6494	0.1939	0.114
Mof_C 	C 	0.1815	0.6053	0.2348	-0.199
Mof_H 	H 	0.197	0.595	0.2895	0.092
Mof_C 	C 	0.1405	0.5759	0.1944	0.124
Mof_H 	H 	0.1275	0.546	0.2229	-0.019
Mof_C 	C 	0.1189	0.5899	0.1138	-0.21
Mof_C 	C 	0.1372	0.6355	0.0727	0.124
Mof_H 	H 	0.122	0.6459	0.0178	-0.016
Mof_C 	C 	0.1772	0.6645	0.1128	-0.204
Mof_H 	H 	0.1898	0.6948	0.0852	0.089
Mof_C 	C 	0.0745	0.5577	0.0703	0.445
Mof_C 	C 	0.2879	0.724	0.1602	0.601
Mof_C 	C 	0.3188	0.6966	0.0986	-1.531
Mof_H 	H 	0.3207	0.6605	0.1013	-0.04
Mof_C 	C 	0.3469	0.7236	0.033	-0.003
Mof_H 	H 	0.366	0.7056	0.9882	-0.08
Mof_Cl	Cl	0.8305	0.1841	0.5713	1.314
Mof_O 	O 	0.5587	0.0176	0.6121	-0.5
Mof_O 	O 	0.5581	0.0714	0.4947	-0.497
Mof_C 	C 	0.6991	0.1494	0.6939	0.11
Mof_C 	C 	0.6815	0.1053	0.7348	-0.188
Mof_H 	H 	0.697	0.095	0.7895	0.092
Mof_C 	C 	0.6405	0.0759	0.6944	0.118
Mof_H 	H 	0.6275	0.046	0.7229	-0.008
Mof_C 	C 	0.6189	0.0899	0.6138	-0.194
Mof_C 	C 	0.6372	0.1355	0.5727	0.118
Mof_H 	H 	0.622	0.1459	0.5178	-0.004
Mof_C 	C 	0.6772	0.1645	0.6128	-0.192
Mof_H 	H 	0.6898	0.1948	0.5852	0.089
Mof_C 	C 	0.5745	0.0577	0.5703	0.443
Mof_C 	C 	0.7879	0.224	0.6602	0.603
Mof_C 	C 	0.8188	0.1966	0.5986	-1.52
Mof_H 	H 	0.8207	0.1605	0.6013	-0.034
Mof_C 	C 	0.8469	0.2236	0.533	0.002
Mof_H 	H 	0.866	0.2056	0.4882	-0.068
Mof_Cl	Cl	0.6695	0.6841	0.0713	1.32
Mof_O 	O 	0.9413	0.5176	0.1121	-0.463
Mof_O 	O 	0.9419	0.5714	0.9947	-0.46
Mof_C 	C 	0.8009	0.6494	0.1939	0.106
Mof_C 	C 	0.8185	0.6053	0.2348	-0.177
Mof_H 	H 	0.803	0.595	0.2895	0.091
Mof_C 	C 	0.8595	0.5759	0.1944	0.108
Mof_H 	H 	0.8725	0.546	0.2229	0.004
Mof_C 	C 	0.8811	0.5899	0.1138	-0.176
Mof_C 	C 	0.8628	0.6355	0.0727	0.109
Mof_H 	H 	0.878	0.6459	0.0178	0.008
Mof_C 	C 	0.8228	0.6645	0.1128	-0.18
Mof_H 	H 	0.8102	0.6948	0.0852	0.089
Mof_C 	C 	0.9255	0.5577	0.0703	0.435
Mof_C 	C 	0.7121	0.724	0.1602	0.602
Mof_C 	C 	0.6812	0.6966	0.0986	-1.529
Mof_H 	H 	0.6793	0.6605	0.1013	-0.039
Mof_C 	C 	0.6531	0.7236	0.033	-0.002
Mof_H 	H 	0.634	0.7056	0.9882	-0.078
Mof_Cl	Cl	0.1695	0.1841	0.5713	1.327
Mof_O 	O 	0.4413	0.0176	0.6121	-0.5
Mof_O 	O 	0.4419	0.0714	0.4947	-0.498
Mof_C 	C 	0.3009	0.1494	0.6939	0.111
Mof_C 	C 	0.3185	0.1053	0.7348	-0.191
Mof_H 	H 	0.303	0.095	0.7895	0.092
Mof_C 	C 	0.3595	0.0759	0.6944	0.118
Mof_H 	H 	0.3725	0.046	0.7229	-0.009
Mof_C 	C 	0.3811	0.0899	0.6138	-0.196
Mof_C 	C 	0.3628	0.1355	0.5727	0.119
Mof_H 	H 	0.378	0.1459	0.5178	-0.006
Mof_C 	C 	0.3228	0.1645	0.6128	-0.195
Mof_H 	H 	0.3102	0.1948	0.5852	0.089
Mof_C 	C 	0.4255	0.0577	0.5703	0.443
Mof_C 	C 	0.2121	0.224	0.6602	0.6
Mof_C 	C 	0.1812	0.1966	0.5986	-1.54
Mof_H 	H 	0.1793	0.1605	0.6013	-0.044
Mof_C 	C 	0.1531	0.2236	0.533	-0.006
Mof_H 	H 	0.134	0.2056	0.4882	-0.09
Mof_Cl	Cl	0.3305	0.8159	0.0713	1.321
Mof_O 	O 	0.0587	0.9824	0.1121	-0.523
Mof_O 	O 	0.0581	0.9286	0.9947	-0.521
Mof_C 	C 	0.1991	0.8506	0.1939	0.114
Mof_C 	C 	0.1815	0.8947	0.2348	-0.199
Mof_H 	H 	0.197	0.905	0.2895	0.092
Mof_C 	C 	0.1405	0.9241	0.1944	0.124
Mof_H 	H 	0.1275	0.954	0.2229	-0.019
Mof_C 	C 	0.1189	0.9101	0.1138	-0.21
Mof_C 	C 	0.1372	0.8645	0.0727	0.124
Mof_H 	H 	0.122	0.8541	0.0178	-0.016
Mof_C 	C 	0.1772	0.8355	0.1128	-0.204
Mof_H 	H 	0.1898	0.8052	0.0852	0.089
Mof_C 	C 	0.0745	0.9423	0.0703	0.445
Mof_C 	C 	0.2879	0.776	0.1602	0.601
Mof_C 	C 	0.3188	0.8034	0.0986	-1.531
Mof_H 	H 	0.3207	0.8395	0.1013	-0.04
Mof_C 	C 	0.3469	0.7764	0.033	-0.003
Mof_H 	H 	0.366	0.7944	0.9882	-0.08
Mof_Cl	Cl	0.8305	0.3159	0.5713	1.314
Mof_O 	O 	0.5587	0.4824	0.6121	-0.499
Mof_O 	O 	0.5581	0.4286	0.4947	-0.497
Mof_C 	C 	0.6991	0.3506	0.6939	0.11
Mof_C 	C 	0.6815	0.3947	0.7348	-0.188
Mof_H 	H 	0.697	0.405	0.7895	0.092
Mof_C 	C 	0.6405	0.4241	0.6944	0.118
Mof_H 	H 	0.6275	0.454	0.7229	-0.008
Mof_C 	C 	0.6189	0.4101	0.6138	-0.194
Mof_C 	C 	0.6372	0.3645	0.5727	0.118
Mof_H 	H 	0.622	0.3541	0.5178	-0.004
Mof_C 	C 	0.6772	0.3355	0.6128	-0.192
Mof_H 	H 	0.6898	0.3052	0.5852	0.089
Mof_C 	C 	0.5745	0.4423	0.5703	0.443
Mof_C 	C 	0.7879	0.276	0.6602	0.603
Mof_C 	C 	0.8188	0.3034	0.5986	-1.52
Mof_H 	H 	0.8207	0.3395	0.6013	-0.034
Mof_C 	C 	0.8469	0.2764	0.533	0.002
Mof_H 	H 	0.866	0.2944	0.4882	-0.068
Mof_Cl	Cl	0.3305	0.1841	0.9287	1.321
Mof_O 	O 	0.0587	0.0176	0.8879	-0.523
Mof_O 	O 	0.0581	0.0714	0.0053	-0.521
Mof_C 	C 	0.1991	0.1494	0.8061	0.114
Mof_C 	C 	0.1815	0.1053	0.7652	-0.199
Mof_H 	H 	0.197	0.095	0.7105	0.092
Mof_C 	C 	0.1405	0.0759	0.8056	0.124
Mof_H 	H 	0.1275	0.046	0.7771	-0.019
Mof_C 	C 	0.1189	0.0899	0.8862	-0.21
Mof_C 	C 	0.1372	0.1355	0.9273	0.124
Mof_H 	H 	0.122	0.1459	0.9822	-0.016
Mof_C 	C 	0.1772	0.1645	0.8872	-0.204
Mof_H 	H 	0.1898	0.1948	0.9148	0.089
Mof_C 	C 	0.0745	0.0577	0.9297	0.445
Mof_C 	C 	0.2879	0.224	0.8398	0.601
Mof_C 	C 	0.3188	0.1966	0.9014	-1.531
Mof_H 	H 	0.3207	0.1605	0.8987	-0.04
Mof_C 	C 	0.3469	0.2236	0.967	-0.003
Mof_H 	H 	0.366	0.2056	0.0118	-0.08
Mof_Cl	Cl	0.8305	0.6841	0.4287	1.314
Mof_O 	O 	0.5587	0.5176	0.3879	-0.499
Mof_O 	O 	0.5581	0.5714	0.5053	-0.497
Mof_C 	C 	0.6991	0.6494	0.3061	0.11
Mof_C 	C 	0.6815	0.6053	0.2652	-0.188
Mof_H 	H 	0.697	0.595	0.2105	0.092
Mof_C 	C 	0.6405	0.5759	0.3056	0.118
Mof_H 	H 	0.6275	0.546	0.2771	-0.008
Mof_C 	C 	0.6189	0.5899	0.3862	-0.194
Mof_C 	C 	0.6372	0.6355	0.4273	0.118
Mof_H 	H 	0.622	0.6459	0.4822	-0.004
Mof_C 	C 	0.6772	0.6645	0.3872	-0.192
Mof_H 	H 	0.6898	0.6948	0.4148	0.089
Mof_C 	C 	0.5745	0.5577	0.4297	0.443
Mof_C 	C 	0.7879	0.724	0.3398	0.603
Mof_C 	C 	0.8188	0.6966	0.4014	-1.52
Mof_H 	H 	0.8207	0.6605	0.3987	-0.034
Mof_C 	C 	0.8469	0.7236	0.467	0.002
Mof_H 	H 	0.866	0.7056	0.5118	-0.068
Mof_Cl	Cl	0.6695	0.3159	0.9287	1.32
Mof_O 	O 	0.9413	0.4824	0.8879	-0.463
Mof_O 	O 	0.9419	0.4286	0.0053	-0.46
Mof_C 	C 	0.8009	0.3506	0.8061	0.106
Mof_C 	C 	0.8185	0.3947	0.7652	-0.177
Mof_H 	H 	0.803	0.405	0.7105	0.091
Mof_C 	C 	0.8595	0.4241	0.8056	0.108
Mof_H 	H 	0.8725	0.454	0.7771	0.004
Mof_C 	C 	0.8811	0.4101	0.8862	-0.176
Mof_C 	C 	0.8628	0.3645	0.9273	0.109
Mof_H 	H 	0.878	0.3541	0.9822	0.008
Mof_C 	C 	0.8228	0.3355	0.8872	-0.18
Mof_H 	H 	0.8102	0.3052	0.9148	0.089
Mof_C 	C 	0.9255	0.4423	0.9297	0.435
Mof_C 	C 	0.7121	0.276	0.8398	0.602
Mof_C 	C 	0.6812	0.3034	0.9014	-1.529
Mof_H 	H 	0.6793	0.3395	0.8987	-0.039
Mof_C 	C 	0.6531	0.2764	0.967	-0.002
Mof_H 	H 	0.634	0.2944	0.0118	-0.078
Mof_Cl	Cl	0.1695	0.8159	0.4287	1.327
Mof_O 	O 	0.4413	0.9824	0.3879	-0.5
Mof_O 	O 	0.4419	0.9286	0.5053	-0.498
Mof_C 	C 	0.3009	0.8506	0.3061	0.111
Mof_C 	C 	0.3185	0.8947	0.2652	-0.191
Mof_H 	H 	0.303	0.905	0.2105	0.092
Mof_C 	C 	0.3595	0.9241	0.3056	0.118
Mof_H 	H 	0.3725	0.954	0.2771	-0.009
Mof_C 	C 	0.3811	0.9101	0.3862	-0.196
Mof_C 	C 	0.3628	0.8645	0.4273	0.119
Mof_H 	H 	0.378	0.8541	0.4822	-0.006
Mof_C 	C 	0.3228	0.8355	0.3872	-0.195
Mof_H 	H 	0.3102	0.8052	0.4148	0.089
Mof_C 	C 	0.4255	0.9423	0.4297	0.443
Mof_C 	C 	0.2121	0.776	0.3398	0.6
Mof_C 	C 	0.1812	0.8034	0.4014	-1.54
Mof_H 	H 	0.1793	0.8395	0.3987	-0.044
Mof_C 	C 	0.1531	0.7764	0.467	-0.006
Mof_H 	H 	0.134	0.7944	0.5118	-0.09
Mof_Pd	Pd	0.2098	0.25	0.65958	-0.407
Mof_Pd	Pd	0.7098	0.75	0.15958	-0.41
Mof_Pd	Pd	0.7902	0.25	0.65958	-0.411
Mof_Pd	Pd	0.2902	0.75	0.15958	-0.409
Mof_Pd	Pd	0.7902	0.75	0.34042	-0.411
Mof_Pd	Pd	0.2902	0.25	0.84042	-0.409
Mof_Pd	Pd	0.2098	0.75	0.34042	-0.407
Mof_Pd	Pd	0.7098	0.25	0.84042	-0.41
Mof_P 	P 	0.25	0.30839	0.75	-0.101
Mof_P 	P 	0.75	0.19161	0.75	-0.097
Mof_P 	P 	0.75	0.80839	0.25	-0.097
Mof_P 	P 	0.25	0.69161	0.25	-0.101
Mof_P 	P 	0.75	0.69161	0.25	-0.097
Mof_P 	P 	0.25	0.80839	0.25	-0.101
Mof_P 	P 	0.25	0.19161	0.75	-0.101
Mof_P 	P 	0.75	0.30839	0.75	-0.097
Mof_Zn	Zn	7.66229e-33	0.53522	0.91921	1.176
Mof_Zn	Zn	0.5	0.03522	0.41921	1.203
Mof_Zn	Zn	1.31931e-32	0.96478	0.91921	1.176
Mof_Zn	Zn	0.5	0.46478	0.41921	1.203
Mof_Zn	Zn	5.33014e-34	0.03522	0.08079	1.176
Mof_Zn	Zn	0.5	0.53522	0.58079	1.203
Mof_Zn	Zn	-2.23238e-33	0.46478	0.08079	1.176
Mof_Zn	Zn	0.5	0.96478	0.58079	1.203
_end
