data_functionalizedCrystal
_audit_creation_method	'EQeq! by Chris Wilmer'
_symmetry_space_group_name_H-M	'P1'
_symmetry_Int_Tables_number	1
_symmetry_cell_setting	triclinic
loop_
_symmetry_equiv_pos_as_xyz
  x,y,z
_cell_length_a	35.0502
_cell_length_b	15.0503
_cell_length_c	31.3752
_cell_angle_alpha	90
_cell_angle_beta	102.531
_cell_angle_gamma	90
loop_
_atom_site_label
_atom_site_type_symbol
_atom_site_fract_x
_atom_site_fract_y
_atom_site_fract_z
_atom_site_charge
Mof_I 	I 	0.23856	0.7342	0.3044	0.003
Mof_I 	I 	0.13202	0.6766	0.20148	-0.427
Mof_I 	I 	0.35273	0.92664	0.50997	-0.369
Mof_I 	I 	0.61501	0.73452	0.56319	0.026
Mof_I 	I 	0.52031	0.63713	0.62901	-0.464
Mof_I 	I 	0.38912	0.76605	0.40531	-0.47
Mof_Zn	Zn	0.17717	0.64842	0.27826	1.152
Mof_Zn	Zn	0.37387	0.91323	0.4379	1.163
Mof_Zn	Zn	0.58092	0.61441	0.59415	1.153
Mof_N 	N 	0.18793	0.5129	0.28026	-0.279
Mof_N 	N 	0.56837	0.5131	0.54874	-0.276
Mof_N 	N 	0.33186	0.9772	0.39202	-0.275
Mof_N 	N 	0.21984	0.0604	0.27161	-0.143
Mof_N 	N 	0.18089	0.1879	0.24916	-0.133
Mof_N 	N 	0.11961	0.9555	0.14173	-0.274
Mof_N 	N 	0.2364	0.1981	0.30793	-0.141
Mof_N 	N 	0.42139	0.9954	0.44085	-0.284
Mof_N 	N 	0.64339	0.163	0.32423	-0.284
Mof_N 	N 	0.57743	0.274	0.43997	-0.135
Mof_N 	N 	0.52485	0.2282	0.47112	-0.148
Mof_C 	C 	0.24127	0.1112	0.30271	0.084
Mof_C 	C 	0.27307	0.0652	0.3339	0.055
Mof_N 	N 	0.53984	0.1482	0.41134	-0.132
Mof_C 	C 	0.1997	0.3301	0.28091	0.065
Mof_C 	C 	0.1622	0.459	0.2546	0.07
Mof_H 	H 	0.1403	0.4841	0.2365	-0.015
Mof_C 	C 	0.20624	0.2326	0.27961	0.098
Mof_C 	C 	0.16513	0.0504	0.21008	0.069
Mof_C 	C 	0.1115	0.0398	0.1496	0.086
Mof_H 	H 	0.0898	0.0662	0.1318	-0.007
Mof_C 	C 	0.55869	0.3636	0.49571	0.058
Mof_C 	C 	0.65572	0.2104	0.3607	0.083
Mof_H 	H 	0.6809	0.2337	0.3663	-0.018
Mof_C 	C 	0.17376	0.9624	0.20228	-0.138
Mof_H 	H 	0.1951	0.9342	0.2199	0.08
Mof_C 	C 	0.5536	0.2838	0.46756	0.092
Mof_C 	C 	0.56965	0.2045	0.41328	0.102
Mof_C 	C 	0.5189	0.1632	0.44174	0.083
Mof_C 	C 	0.31192	0.9361	0.35637	0.073
Mof_H 	H 	0.3183	0.8776	0.3512	-0.002
Mof_C 	C 	0.53079	0.3859	0.5195	-0.123
Mof_H 	H 	0.5085	0.3513	0.5178	0.073
Mof_C 	C 	0.219	0.4762	0.3063	0.08
Mof_H 	H 	0.2367	0.513	0.3245	-0.016
Mof_C 	C 	0.13353	0.0898	0.1828	-0.133
Mof_H 	H 	0.1272	0.1488	0.1868	0.102
Mof_C 	C 	0.48559	0.1036	0.4417	0.071
Mof_C 	C 	0.2944	0.108	0.37054	-0.129
Mof_H 	H 	0.2893	0.1671	0.3761	0.094
Mof_C 	C 	0.59556	0.1895	0.38226	0.08
Mof_C 	C 	0.28204	0.9775	0.32667	-0.132
Mof_H 	H 	0.2683	0.947	0.3024	0.09
Mof_C 	C 	0.4374	0.042	0.4752	0.1
Mof_H 	H 	0.4271	0.0372	0.5	-0.018
Mof_C 	C 	0.15042	0.9179	0.16823	0.078
Mof_H 	H 	0.1563	0.8591	0.1633	-0.014
Mof_C 	C 	0.5835	0.138	0.3454	-0.14
Mof_H 	H 	0.559	0.111	0.3398	0.093
Mof_C 	C 	0.16683	0.3677	0.2539	-0.131
Mof_H 	H 	0.1484	0.3322	0.2359	0.09
Mof_C 	C 	0.53691	0.4607	0.54577	0.07
Mof_H 	H 	0.5185	0.4753	0.562	-0.009
Mof_C 	C 	0.32323	0.0618	0.3986	0.079
Mof_H 	H 	0.3373	0.0907	0.4233	-0.005
Mof_C 	C 	0.59048	0.4192	0.4981	-0.128
Mof_H 	H 	0.6092	0.4069	0.482	0.087
Mof_C 	C 	0.6324	0.2259	0.39	-0.136
Mof_H 	H 	0.6414	0.2604	0.4147	0.093
Mof_C 	C 	0.22598	0.3855	0.3075	-0.138
Mof_H 	H 	0.2481	0.3623	0.326	0.087
Mof_C 	C 	0.5941	0.4926	0.5246	0.077
Mof_H 	H 	0.6155	0.5298	0.5257	-0.014
Mof_C 	C 	0.6082	0.1272	0.317	0.092
Mof_H 	H 	0.5998	0.0935	0.2919	-0.025
Mof_C 	C 	0.4688	0.0976	0.47664	-0.16
Mof_H 	H 	0.4785	0.1311	0.5015	0.091
Mof_C 	C 	0.435	0.0099	0.4048	0.087
Mof_H 	H 	0.4229	0.9805	0.3794	-0.02
Mof_C 	C 	0.466	0.0656	0.4028	-0.148
Mof_H 	H 	0.4733	0.0771	0.3766	0.095
Mof_C 	C 	0.18975	0.1024	0.24602	0.096
Mof_I 	I 	0.52944	0.6656	0.62076	0.106
Mof_I 	I 	0.63116	0.72197	0.56101	-0.367
Mof_I 	I 	0.14555	0.6924	0.21061	0.025
Mof_I 	I 	0.3747	0.7597	0.421	0.088
Mof_I 	I 	0.2494	0.7296	0.3168	-0.33
Mof_I 	I 	0.73856	0.2342	0.3044	0.004
Mof_I 	I 	0.63202	0.1766	0.20148	-0.426
Mof_I 	I 	0.85273	0.42664	0.50997	-0.368
Mof_I 	I 	0.11501	0.23452	0.56319	0.027
Mof_I 	I 	0.02031	0.13713	0.62901	-0.463
Mof_I 	I 	0.88912	0.26605	0.40531	-0.468
Mof_Zn	Zn	0.67717	0.14842	0.27826	1.153
Mof_Zn	Zn	0.87387	0.41323	0.4379	1.164
Mof_Zn	Zn	0.08092	0.11441	0.59415	1.154
Mof_N 	N 	0.68793	0.0129	0.28026	-0.277
Mof_N 	N 	0.06837	0.0131	0.54874	-0.276
Mof_N 	N 	0.83186	0.4772	0.39202	-0.275
Mof_N 	N 	0.71984	0.5604	0.27161	-0.143
Mof_N 	N 	0.68089	0.6879	0.24916	-0.133
Mof_N 	N 	0.61961	0.4555	0.14173	-0.274
Mof_N 	N 	0.7364	0.6981	0.30793	-0.141
Mof_N 	N 	0.92139	0.4954	0.44085	-0.284
Mof_N 	N 	0.14339	0.663	0.32423	-0.284
Mof_N 	N 	0.07743	0.774	0.43997	-0.135
Mof_N 	N 	0.02485	0.7282	0.47112	-0.148
Mof_C 	C 	0.74127	0.6112	0.30271	0.084
Mof_C 	C 	0.77307	0.5652	0.3339	0.055
Mof_N 	N 	0.03984	0.6482	0.41134	-0.132
Mof_C 	C 	0.6997	0.8301	0.28091	0.065
Mof_C 	C 	0.6622	0.959	0.2546	0.07
Mof_H 	H 	0.6403	0.9841	0.2365	-0.015
Mof_C 	C 	0.70624	0.7326	0.27961	0.098
Mof_C 	C 	0.66513	0.5504	0.21008	0.069
Mof_C 	C 	0.6115	0.5398	0.1496	0.086
Mof_H 	H 	0.5898	0.5662	0.1318	-0.007
Mof_C 	C 	0.05869	0.8636	0.49571	0.058
Mof_C 	C 	0.15572	0.7104	0.3607	0.083
Mof_H 	H 	0.1809	0.7337	0.3663	-0.018
Mof_C 	C 	0.67376	0.4624	0.20228	-0.138
Mof_H 	H 	0.6951	0.4342	0.2199	0.08
Mof_C 	C 	0.0536	0.7838	0.46756	0.092
Mof_C 	C 	0.06965	0.7045	0.41328	0.102
Mof_C 	C 	0.0189	0.6632	0.44174	0.083
Mof_C 	C 	0.81192	0.4361	0.35637	0.073
Mof_H 	H 	0.8183	0.3776	0.3512	-0.002
Mof_C 	C 	0.03079	0.8859	0.5195	-0.123
Mof_H 	H 	0.0085	0.8513	0.5178	0.073
Mof_C 	C 	0.719	0.9762	0.3063	0.08
Mof_H 	H 	0.7367	0.013	0.3245	-0.016
Mof_C 	C 	0.63353	0.5898	0.1828	-0.133
Mof_H 	H 	0.6272	0.6488	0.1868	0.102
Mof_C 	C 	0.98559	0.6036	0.4417	0.071
Mof_C 	C 	0.7944	0.608	0.37054	-0.129
Mof_H 	H 	0.7893	0.6671	0.3761	0.094
Mof_C 	C 	0.09556	0.6895	0.38226	0.08
Mof_C 	C 	0.78204	0.4775	0.32667	-0.132
Mof_H 	H 	0.7683	0.447	0.3024	0.09
Mof_C 	C 	0.9374	0.542	0.4752	0.1
Mof_H 	H 	0.9271	0.5372	0.5	-0.018
Mof_C 	C 	0.65042	0.4179	0.16823	0.078
Mof_H 	H 	0.6563	0.3591	0.1633	-0.014
Mof_C 	C 	0.0835	0.638	0.3454	-0.14
Mof_H 	H 	0.059	0.611	0.3398	0.093
Mof_C 	C 	0.66683	0.8677	0.2539	-0.131
Mof_H 	H 	0.6484	0.8322	0.2359	0.09
Mof_C 	C 	0.03691	0.9607	0.54577	0.07
Mof_H 	H 	0.0185	0.9753	0.562	-0.009
Mof_C 	C 	0.82323	0.5618	0.3986	0.079
Mof_H 	H 	0.8373	0.5907	0.4233	-0.005
Mof_C 	C 	0.09048	0.9192	0.4981	-0.128
Mof_H 	H 	0.1092	0.9069	0.482	0.087
Mof_C 	C 	0.1324	0.7259	0.39	-0.136
Mof_H 	H 	0.1414	0.7604	0.4147	0.093
Mof_C 	C 	0.72598	0.8855	0.3075	-0.138
Mof_H 	H 	0.7481	0.8623	0.326	0.087
Mof_C 	C 	0.0941	0.9926	0.5246	0.077
Mof_H 	H 	0.1155	0.0298	0.5257	-0.015
Mof_C 	C 	0.1082	0.6272	0.317	0.092
Mof_H 	H 	0.0998	0.5935	0.2919	-0.025
Mof_C 	C 	0.9688	0.5976	0.47664	-0.16
Mof_H 	H 	0.9785	0.6311	0.5015	0.091
Mof_C 	C 	0.935	0.5099	0.4048	0.087
Mof_H 	H 	0.9229	0.4805	0.3794	-0.02
Mof_C 	C 	0.966	0.5656	0.4028	-0.148
Mof_H 	H 	0.9733	0.5771	0.3766	0.095
Mof_C 	C 	0.68975	0.6024	0.24602	0.096
Mof_I 	I 	0.02944	0.1656	0.62076	0.106
Mof_I 	I 	0.13116	0.22197	0.56101	-0.367
Mof_I 	I 	0.64555	0.1924	0.21061	0.025
Mof_I 	I 	0.8747	0.2597	0.421	0.088
Mof_I 	I 	0.7494	0.2296	0.3168	-0.33
Mof_I 	I 	0.23856	0.2658	0.8044	0.004
Mof_I 	I 	0.13202	0.3234	0.70148	-0.426
Mof_I 	I 	0.35273	0.07336	0.00997	-0.368
Mof_I 	I 	0.61501	0.26548	0.06319	0.027
Mof_I 	I 	0.52031	0.36287	0.12901	-0.463
Mof_I 	I 	0.38912	0.23395	0.90531	-0.469
Mof_Zn	Zn	0.17717	0.35158	0.77826	1.153
Mof_Zn	Zn	0.37387	0.08677	0.9379	1.164
Mof_Zn	Zn	0.58092	0.38559	0.09415	1.154
Mof_N 	N 	0.18793	0.4871	0.78026	-0.278
Mof_N 	N 	0.56837	0.4869	0.04874	-0.276
Mof_N 	N 	0.33186	0.0228	0.89202	-0.275
Mof_N 	N 	0.21984	0.9396	0.77161	-0.143
Mof_N 	N 	0.18089	0.8121	0.74916	-0.133
Mof_N 	N 	0.11961	0.0445	0.64173	-0.274
Mof_N 	N 	0.2364	0.8019	0.80793	-0.141
Mof_N 	N 	0.42139	0.0046	0.94085	-0.284
Mof_N 	N 	0.64339	0.837	0.82423	-0.284
Mof_N 	N 	0.57743	0.726	0.93997	-0.135
Mof_N 	N 	0.52485	0.7718	0.97112	-0.148
Mof_C 	C 	0.24127	0.8888	0.80271	0.084
Mof_C 	C 	0.27307	0.9348	0.8339	0.055
Mof_N 	N 	0.53984	0.8518	0.91134	-0.132
Mof_C 	C 	0.1997	0.6699	0.78091	0.065
Mof_C 	C 	0.1622	0.541	0.7546	0.07
Mof_H 	H 	0.1403	0.5159	0.7365	-0.015
Mof_C 	C 	0.20624	0.7674	0.77961	0.098
Mof_C 	C 	0.16513	0.9496	0.71008	0.069
Mof_C 	C 	0.1115	0.9602	0.6496	0.086
Mof_H 	H 	0.0898	0.9338	0.6318	-0.007
Mof_C 	C 	0.55869	0.6364	0.99571	0.058
Mof_C 	C 	0.65572	0.7896	0.8607	0.083
Mof_H 	H 	0.6809	0.7663	0.8663	-0.018
Mof_C 	C 	0.17376	0.0376	0.70228	-0.138
Mof_H 	H 	0.1951	0.0658	0.7199	0.08
Mof_C 	C 	0.5536	0.7162	0.96756	0.092
Mof_C 	C 	0.56965	0.7955	0.91328	0.102
Mof_C 	C 	0.5189	0.8368	0.94174	0.082
Mof_C 	C 	0.31192	0.0639	0.85637	0.073
Mof_H 	H 	0.3183	0.1224	0.8512	-0.002
Mof_C 	C 	0.53079	0.6141	0.0195	-0.122
Mof_H 	H 	0.5085	0.6487	0.0178	0.072
Mof_C 	C 	0.219	0.5238	0.8063	0.08
Mof_H 	H 	0.2367	0.487	0.8245	-0.016
Mof_C 	C 	0.13353	0.9102	0.6828	-0.133
Mof_H 	H 	0.1272	0.8512	0.6868	0.102
Mof_C 	C 	0.48559	0.8964	0.9417	0.071
Mof_C 	C 	0.2944	0.892	0.87054	-0.129
Mof_H 	H 	0.2893	0.8329	0.8761	0.094
Mof_C 	C 	0.59556	0.8105	0.88226	0.08
Mof_C 	C 	0.28204	0.0225	0.82667	-0.132
Mof_H 	H 	0.2683	0.053	0.8024	0.09
Mof_C 	C 	0.4374	0.958	0.9752	0.1
Mof_H 	H 	0.4271	0.9628	-0	-0.018
Mof_C 	C 	0.15042	0.0821	0.66823	0.078
Mof_H 	H 	0.1563	0.1409	0.6633	-0.014
Mof_C 	C 	0.5835	0.862	0.8454	-0.14
Mof_H 	H 	0.559	0.889	0.8398	0.093
Mof_C 	C 	0.16683	0.6323	0.7539	-0.131
Mof_H 	H 	0.1484	0.6678	0.7359	0.09
Mof_C 	C 	0.53691	0.5393	0.04577	0.07
Mof_H 	H 	0.5185	0.5247	0.062	-0.009
Mof_C 	C 	0.32323	0.9382	0.8986	0.079
Mof_H 	H 	0.3373	0.9093	0.9233	-0.005
Mof_C 	C 	0.59048	0.5808	0.9981	-0.129
Mof_H 	H 	0.6092	0.5931	0.982	0.087
Mof_C 	C 	0.6324	0.7741	0.89	-0.136
Mof_H 	H 	0.6414	0.7396	0.9147	0.093
Mof_C 	C 	0.22598	0.6145	0.8075	-0.138
Mof_H 	H 	0.2481	0.6377	0.826	0.087
Mof_C 	C 	0.5941	0.5074	0.0246	0.077
Mof_H 	H 	0.6155	0.4702	0.0257	-0.015
Mof_C 	C 	0.6082	0.8728	0.817	0.092
Mof_H 	H 	0.5998	0.9065	0.7919	-0.025
Mof_C 	C 	0.4688	0.9024	0.97664	-0.16
Mof_H 	H 	0.4785	0.8689	0.0015	0.091
Mof_C 	C 	0.435	0.9901	0.9048	0.088
Mof_H 	H 	0.4229	0.0195	0.8794	-0.02
Mof_C 	C 	0.466	0.9344	0.9028	-0.148
Mof_H 	H 	0.4733	0.9229	0.8766	0.095
Mof_C 	C 	0.18975	0.8976	0.74602	0.096
Mof_I 	I 	0.52944	0.3344	0.12076	0.106
Mof_I 	I 	0.63116	0.27803	0.06101	-0.367
Mof_I 	I 	0.14555	0.3076	0.71061	0.025
Mof_I 	I 	0.3747	0.2403	0.921	0.089
Mof_I 	I 	0.2494	0.2704	0.8168	-0.33
Mof_I 	I 	0.73856	0.7658	0.8044	0.004
Mof_I 	I 	0.63202	0.8234	0.70148	-0.426
Mof_I 	I 	0.85273	0.57336	0.00997	-0.368
Mof_I 	I 	0.11501	0.76548	0.06319	0.027
Mof_I 	I 	0.02031	0.86287	0.12901	-0.463
Mof_I 	I 	0.88912	0.73395	0.90531	-0.469
Mof_Zn	Zn	0.67717	0.85158	0.77826	1.153
Mof_Zn	Zn	0.87387	0.58677	0.9379	1.164
Mof_Zn	Zn	0.08092	0.88559	0.09415	1.154
Mof_N 	N 	0.68793	0.9871	0.78026	-0.277
Mof_N 	N 	0.06837	0.9869	0.04874	-0.276
Mof_N 	N 	0.83186	0.5228	0.89202	-0.275
Mof_N 	N 	0.71984	0.4396	0.77161	-0.143
Mof_N 	N 	0.68089	0.3121	0.74916	-0.133
Mof_N 	N 	0.61961	0.5445	0.64173	-0.274
Mof_N 	N 	0.7364	0.3019	0.80793	-0.141
Mof_N 	N 	0.92139	0.5046	0.94085	-0.284
Mof_N 	N 	0.14339	0.337	0.82423	-0.284
Mof_N 	N 	0.07743	0.226	0.93997	-0.135
Mof_N 	N 	0.02485	0.2718	0.97112	-0.148
Mof_C 	C 	0.74127	0.3888	0.80271	0.084
Mof_C 	C 	0.77307	0.4348	0.8339	0.055
Mof_N 	N 	0.03984	0.3518	0.91134	-0.132
Mof_C 	C 	0.6997	0.1699	0.78091	0.065
Mof_C 	C 	0.6622	0.041	0.7546	0.07
Mof_H 	H 	0.6403	0.0159	0.7365	-0.015
Mof_C 	C 	0.70624	0.2674	0.77961	0.098
Mof_C 	C 	0.66513	0.4496	0.71008	0.069
Mof_C 	C 	0.6115	0.4602	0.6496	0.086
Mof_H 	H 	0.5898	0.4338	0.6318	-0.007
Mof_C 	C 	0.05869	0.1364	0.99571	0.058
Mof_C 	C 	0.15572	0.2896	0.8607	0.083
Mof_H 	H 	0.1809	0.2663	0.8663	-0.018
Mof_C 	C 	0.67376	0.5376	0.70228	-0.138
Mof_H 	H 	0.6951	0.5658	0.7199	0.08
Mof_C 	C 	0.0536	0.2162	0.96756	0.092
Mof_C 	C 	0.06965	0.2955	0.91328	0.102
Mof_C 	C 	0.0189	0.3368	0.94174	0.082
Mof_C 	C 	0.81192	0.5639	0.85637	0.073
Mof_H 	H 	0.8183	0.6224	0.8512	-0.002
Mof_C 	C 	0.03079	0.1141	0.0195	-0.122
Mof_H 	H 	0.0085	0.1487	0.0178	0.073
Mof_C 	C 	0.719	0.0238	0.8063	0.08
Mof_H 	H 	0.7367	0.987	0.8245	-0.016
Mof_C 	C 	0.63353	0.4102	0.6828	-0.133
Mof_H 	H 	0.6272	0.3512	0.6868	0.102
Mof_C 	C 	0.98559	0.3964	0.9417	0.071
Mof_C 	C 	0.7944	0.392	0.87054	-0.129
Mof_H 	H 	0.7893	0.3329	0.8761	0.094
Mof_C 	C 	0.09556	0.3105	0.88226	0.08
Mof_C 	C 	0.78204	0.5225	0.82667	-0.132
Mof_H 	H 	0.7683	0.553	0.8024	0.09
Mof_C 	C 	0.9374	0.458	0.9752	0.1
Mof_H 	H 	0.9271	0.4628	-0	-0.017
Mof_C 	C 	0.65042	0.5821	0.66823	0.078
Mof_H 	H 	0.6563	0.6409	0.6633	-0.014
Mof_C 	C 	0.0835	0.362	0.8454	-0.14
Mof_H 	H 	0.059	0.389	0.8398	0.093
Mof_C 	C 	0.66683	0.1323	0.7539	-0.13
Mof_H 	H 	0.6484	0.1678	0.7359	0.09
Mof_C 	C 	0.03691	0.0393	0.04577	0.07
Mof_H 	H 	0.0185	0.0247	0.062	-0.009
Mof_C 	C 	0.82323	0.4382	0.8986	0.079
Mof_H 	H 	0.8373	0.4093	0.9233	-0.005
Mof_C 	C 	0.09048	0.0808	0.9981	-0.129
Mof_H 	H 	0.1092	0.0931	0.982	0.087
Mof_C 	C 	0.1324	0.2741	0.89	-0.136
Mof_H 	H 	0.1414	0.2396	0.9147	0.093
Mof_C 	C 	0.72598	0.1145	0.8075	-0.138
Mof_H 	H 	0.7481	0.1377	0.826	0.087
Mof_C 	C 	0.0941	0.0074	0.0246	0.078
Mof_H 	H 	0.1155	0.9702	0.0257	-0.015
Mof_C 	C 	0.1082	0.3728	0.817	0.092
Mof_H 	H 	0.0998	0.4065	0.7919	-0.025
Mof_C 	C 	0.9688	0.4024	0.97664	-0.16
Mof_H 	H 	0.9785	0.3689	0.0015	0.091
Mof_C 	C 	0.935	0.4901	0.9048	0.087
Mof_H 	H 	0.9229	0.5195	0.8794	-0.02
Mof_C 	C 	0.966	0.4344	0.9028	-0.148
Mof_H 	H 	0.9733	0.4229	0.8766	0.095
Mof_C 	C 	0.68975	0.3976	0.74602	0.096
Mof_I 	I 	0.02944	0.8344	0.12076	0.106
Mof_I 	I 	0.13116	0.77803	0.06101	-0.367
Mof_I 	I 	0.64555	0.8076	0.71061	0.025
Mof_I 	I 	0.8747	0.7403	0.921	0.088
Mof_I 	I 	0.7494	0.7704	0.8168	-0.33
Mof_I 	I 	0.76144	0.7342	0.1956	0.004
Mof_I 	I 	0.86798	0.6766	0.29852	-0.426
Mof_I 	I 	0.64727	0.92664	0.99003	-0.368
Mof_I 	I 	0.38499	0.73452	0.93681	0.027
Mof_I 	I 	0.47969	0.63713	0.87099	-0.463
Mof_I 	I 	0.61088	0.76605	0.09469	-0.468
Mof_Zn	Zn	0.82283	0.64842	0.22174	1.153
Mof_Zn	Zn	0.62613	0.91323	0.0621	1.164
Mof_Zn	Zn	0.41908	0.61441	0.90585	1.154
Mof_N 	N 	0.81207	0.5129	0.21974	-0.277
Mof_N 	N 	0.43163	0.5131	0.95126	-0.276
Mof_N 	N 	0.66814	0.9772	0.10798	-0.275
Mof_N 	N 	0.78016	0.0604	0.22839	-0.143
Mof_N 	N 	0.81911	0.1879	0.25084	-0.133
Mof_N 	N 	0.88039	0.9555	0.35827	-0.274
Mof_N 	N 	0.7636	0.1981	0.19207	-0.141
Mof_N 	N 	0.57861	0.9954	0.05915	-0.284
Mof_N 	N 	0.35661	0.163	0.17577	-0.284
Mof_N 	N 	0.42257	0.274	0.06003	-0.135
Mof_N 	N 	0.47515	0.2282	0.02888	-0.148
Mof_C 	C 	0.75873	0.1112	0.19729	0.084
Mof_C 	C 	0.72693	0.0652	0.1661	0.055
Mof_N 	N 	0.46016	0.1482	0.08866	-0.132
Mof_C 	C 	0.8003	0.3301	0.21909	0.065
Mof_C 	C 	0.8378	0.459	0.2454	0.07
Mof_H 	H 	0.8597	0.4841	0.2635	-0.015
Mof_C 	C 	0.79376	0.2326	0.22039	0.098
Mof_C 	C 	0.83487	0.0504	0.28992	0.069
Mof_C 	C 	0.8885	0.0398	0.3504	0.086
Mof_H 	H 	0.9102	0.0662	0.3682	-0.007
Mof_C 	C 	0.44131	0.3636	0.00429	0.059
Mof_C 	C 	0.34428	0.2104	0.1393	0.083
Mof_H 	H 	0.3191	0.2337	0.1337	-0.018
Mof_C 	C 	0.82624	0.9624	0.29772	-0.138
Mof_H 	H 	0.8049	0.9342	0.2801	0.08
Mof_C 	C 	0.4464	0.2838	0.03244	0.092
Mof_C 	C 	0.43035	0.2045	0.08672	0.102
Mof_C 	C 	0.4811	0.1632	0.05826	0.083
Mof_C 	C 	0.68808	0.9361	0.14363	0.073
Mof_H 	H 	0.6817	0.8776	0.1488	-0.002
Mof_C 	C 	0.46921	0.3859	0.9805	-0.123
Mof_H 	H 	0.4915	0.3513	0.9822	0.073
Mof_C 	C 	0.781	0.4762	0.1937	0.08
Mof_H 	H 	0.7633	0.513	0.1755	-0.016
Mof_C 	C 	0.86647	0.0898	0.3172	-0.133
Mof_H 	H 	0.8728	0.1488	0.3132	0.102
Mof_C 	C 	0.51441	0.1036	0.0583	0.07
Mof_C 	C 	0.7056	0.108	0.12946	-0.129
Mof_H 	H 	0.7107	0.1671	0.1239	0.095
Mof_C 	C 	0.40444	0.1895	0.11774	0.08
Mof_C 	C 	0.71796	0.9775	0.17333	-0.132
Mof_H 	H 	0.7317	0.947	0.1976	0.09
Mof_C 	C 	0.5626	0.042	0.0248	0.1
Mof_H 	H 	0.5729	0.0372	-0	-0.017
Mof_C 	C 	0.84958	0.9179	0.33177	0.078
Mof_H 	H 	0.8437	0.8591	0.3367	-0.014
Mof_C 	C 	0.4165	0.138	0.1546	-0.14
Mof_H 	H 	0.441	0.111	0.1602	0.093
Mof_C 	C 	0.83317	0.3677	0.2461	-0.131
Mof_H 	H 	0.8516	0.3322	0.2641	0.09
Mof_C 	C 	0.46309	0.4607	0.95423	0.07
Mof_H 	H 	0.4815	0.4753	0.938	-0.009
Mof_C 	C 	0.67677	0.0618	0.1014	0.079
Mof_H 	H 	0.6627	0.0907	0.0767	-0.005
Mof_C 	C 	0.40952	0.4192	0.0019	-0.127
Mof_H 	H 	0.3908	0.4069	0.018	0.087
Mof_C 	C 	0.3676	0.2259	0.11	-0.136
Mof_H 	H 	0.3586	0.2604	0.0853	0.093
Mof_C 	C 	0.77402	0.3855	0.1925	-0.138
Mof_H 	H 	0.7519	0.3623	0.174	0.087
Mof_C 	C 	0.4059	0.4926	0.9754	0.076
Mof_H 	H 	0.3845	0.5298	0.9743	-0.014
Mof_C 	C 	0.3918	0.1272	0.183	0.092
Mof_H 	H 	0.4002	0.0935	0.2081	-0.025
Mof_C 	C 	0.5312	0.0976	0.02336	-0.158
Mof_H 	H 	0.5215	0.1311	0.9985	0.09
Mof_C 	C 	0.565	0.0099	0.0952	0.087
Mof_H 	H 	0.5771	0.9805	0.1206	-0.02
Mof_C 	C 	0.534	0.0656	0.0972	-0.148
Mof_H 	H 	0.5267	0.0771	0.1234	0.095
Mof_C 	C 	0.81025	0.1024	0.25398	0.096
Mof_I 	I 	0.47056	0.6656	0.87924	0.106
Mof_I 	I 	0.36884	0.72197	0.93899	-0.367
Mof_I 	I 	0.85445	0.6924	0.28939	0.025
Mof_I 	I 	0.6253	0.7597	0.079	0.088
Mof_I 	I 	0.7506	0.7296	0.1832	-0.33
Mof_I 	I 	0.26144	0.2342	0.1956	0.004
Mof_I 	I 	0.36798	0.1766	0.29852	-0.426
Mof_I 	I 	0.14727	0.42664	0.99003	-0.368
Mof_I 	I 	0.88499	0.23452	0.93681	0.027
Mof_I 	I 	0.97969	0.13713	0.87099	-0.463
Mof_I 	I 	0.11088	0.26605	0.09469	-0.468
Mof_Zn	Zn	0.32283	0.14842	0.22174	1.153
Mof_Zn	Zn	0.12613	0.41323	0.0621	1.164
Mof_Zn	Zn	0.91908	0.11441	0.90585	1.154
Mof_N 	N 	0.31207	0.0129	0.21974	-0.277
Mof_N 	N 	0.93163	0.0131	0.95126	-0.276
Mof_N 	N 	0.16814	0.4772	0.10798	-0.275
Mof_N 	N 	0.28016	0.5604	0.22839	-0.143
Mof_N 	N 	0.31911	0.6879	0.25084	-0.133
Mof_N 	N 	0.38039	0.4555	0.35827	-0.274
Mof_N 	N 	0.2636	0.6981	0.19207	-0.141
Mof_N 	N 	0.07861	0.4954	0.05915	-0.283
Mof_N 	N 	0.85661	0.663	0.17577	-0.284
Mof_N 	N 	0.92257	0.774	0.06003	-0.135
Mof_N 	N 	0.97515	0.7282	0.02888	-0.148
Mof_C 	C 	0.25873	0.6112	0.19729	0.084
Mof_C 	C 	0.22693	0.5652	0.1661	0.055
Mof_N 	N 	0.96016	0.6482	0.08866	-0.132
Mof_C 	C 	0.3003	0.8301	0.21909	0.065
Mof_C 	C 	0.3378	0.959	0.2454	0.07
Mof_H 	H 	0.3597	0.9841	0.2635	-0.015
Mof_C 	C 	0.29376	0.7326	0.22039	0.098
Mof_C 	C 	0.33487	0.5504	0.28992	0.069
Mof_C 	C 	0.3885	0.5398	0.3504	0.086
Mof_H 	H 	0.4102	0.5662	0.3682	-0.007
Mof_C 	C 	0.94131	0.8636	0.00429	0.059
Mof_C 	C 	0.84428	0.7104	0.1393	0.083
Mof_H 	H 	0.8191	0.7337	0.1337	-0.018
Mof_C 	C 	0.32624	0.4624	0.29772	-0.138
Mof_H 	H 	0.3049	0.4342	0.2801	0.08
Mof_C 	C 	0.9464	0.7838	0.03244	0.092
Mof_C 	C 	0.93035	0.7045	0.08672	0.102
Mof_C 	C 	0.9811	0.6632	0.05826	0.083
Mof_C 	C 	0.18808	0.4361	0.14363	0.073
Mof_H 	H 	0.1817	0.3776	0.1488	-0.002
Mof_C 	C 	0.96921	0.8859	0.9805	-0.123
Mof_H 	H 	0.9915	0.8513	0.9822	0.073
Mof_C 	C 	0.281	0.9762	0.1937	0.08
Mof_H 	H 	0.2633	0.013	0.1755	-0.016
Mof_C 	C 	0.36647	0.5898	0.3172	-0.133
Mof_H 	H 	0.3728	0.6488	0.3132	0.102
Mof_C 	C 	0.01441	0.6036	0.0583	0.07
Mof_C 	C 	0.2056	0.608	0.12946	-0.129
Mof_H 	H 	0.2107	0.6671	0.1239	0.094
Mof_C 	C 	0.90444	0.6895	0.11774	0.08
Mof_C 	C 	0.21796	0.4775	0.17333	-0.132
Mof_H 	H 	0.2317	0.447	0.1976	0.09
Mof_C 	C 	0.0626	0.542	0.0248	0.1
Mof_H 	H 	0.0729	0.5372	-0	-0.017
Mof_C 	C 	0.34958	0.4179	0.33177	0.078
Mof_H 	H 	0.3437	0.3591	0.3367	-0.014
Mof_C 	C 	0.9165	0.638	0.1546	-0.14
Mof_H 	H 	0.941	0.611	0.1602	0.093
Mof_C 	C 	0.33317	0.8677	0.2461	-0.13
Mof_H 	H 	0.3516	0.8322	0.2641	0.09
Mof_C 	C 	0.96309	0.9607	0.95423	0.071
Mof_H 	H 	0.9815	0.9753	0.938	-0.009
Mof_C 	C 	0.17677	0.5618	0.1014	0.079
Mof_H 	H 	0.1627	0.5907	0.0767	-0.005
Mof_C 	C 	0.90952	0.9192	0.0019	-0.128
Mof_H 	H 	0.8908	0.9069	0.018	0.087
Mof_C 	C 	0.8676	0.7259	0.11	-0.136
Mof_H 	H 	0.8586	0.7604	0.0853	0.093
Mof_C 	C 	0.27402	0.8855	0.1925	-0.138
Mof_H 	H 	0.2519	0.8623	0.174	0.087
Mof_C 	C 	0.9059	0.9926	0.9754	0.077
Mof_H 	H 	0.8845	0.0298	0.9743	-0.015
Mof_C 	C 	0.8918	0.6272	0.183	0.092
Mof_H 	H 	0.9002	0.5935	0.2081	-0.025
Mof_C 	C 	0.0312	0.5976	0.02336	-0.158
Mof_H 	H 	0.0215	0.6311	0.9985	0.09
Mof_C 	C 	0.065	0.5099	0.0952	0.087
Mof_H 	H 	0.0771	0.4805	0.1206	-0.02
Mof_C 	C 	0.034	0.5656	0.0972	-0.147
Mof_H 	H 	0.0267	0.5771	0.1234	0.095
Mof_C 	C 	0.31025	0.6024	0.25398	0.096
Mof_I 	I 	0.97056	0.1656	0.87924	0.106
Mof_I 	I 	0.86884	0.22197	0.93899	-0.367
Mof_I 	I 	0.35445	0.1924	0.28939	0.025
Mof_I 	I 	0.1253	0.2597	0.079	0.088
Mof_I 	I 	0.2506	0.2296	0.1832	-0.33
Mof_I 	I 	0.76144	0.2658	0.6956	0.004
Mof_I 	I 	0.86798	0.3234	0.79852	-0.426
Mof_I 	I 	0.64727	0.07336	0.49003	-0.368
Mof_I 	I 	0.38499	0.26548	0.43681	0.027
Mof_I 	I 	0.47969	0.36287	0.37099	-0.463
Mof_I 	I 	0.61088	0.23395	0.59469	-0.468
Mof_Zn	Zn	0.82283	0.35158	0.72174	1.153
Mof_Zn	Zn	0.62613	0.08677	0.5621	1.164
Mof_Zn	Zn	0.41908	0.38559	0.40585	1.154
Mof_N 	N 	0.81207	0.4871	0.71974	-0.278
Mof_N 	N 	0.43163	0.4869	0.45126	-0.276
Mof_N 	N 	0.66814	0.0228	0.60798	-0.275
Mof_N 	N 	0.78016	0.9396	0.72839	-0.143
Mof_N 	N 	0.81911	0.8121	0.75084	-0.133
Mof_N 	N 	0.88039	0.0445	0.85827	-0.274
Mof_N 	N 	0.7636	0.8019	0.69207	-0.141
Mof_N 	N 	0.57861	0.0046	0.55915	-0.284
Mof_N 	N 	0.35661	0.837	0.67577	-0.284
Mof_N 	N 	0.42257	0.726	0.56003	-0.135
Mof_N 	N 	0.47515	0.7718	0.52888	-0.148
Mof_C 	C 	0.75873	0.8888	0.69729	0.084
Mof_C 	C 	0.72693	0.9348	0.6661	0.055
Mof_N 	N 	0.46016	0.8518	0.58866	-0.132
Mof_C 	C 	0.8003	0.6699	0.71909	0.065
Mof_C 	C 	0.8378	0.541	0.7454	0.07
Mof_H 	H 	0.8597	0.5159	0.7635	-0.015
Mof_C 	C 	0.79376	0.7674	0.72039	0.098
Mof_C 	C 	0.83487	0.9496	0.78992	0.069
Mof_C 	C 	0.8885	0.9602	0.8504	0.086
Mof_H 	H 	0.9102	0.9338	0.8682	-0.007
Mof_C 	C 	0.44131	0.6364	0.50429	0.058
Mof_C 	C 	0.34428	0.7896	0.6393	0.083
Mof_H 	H 	0.3191	0.7663	0.6337	-0.018
Mof_C 	C 	0.82624	0.0376	0.79772	-0.138
Mof_H 	H 	0.8049	0.0658	0.7801	0.08
Mof_C 	C 	0.4464	0.7162	0.53244	0.092
Mof_C 	C 	0.43035	0.7955	0.58672	0.102
Mof_C 	C 	0.4811	0.8368	0.55826	0.083
Mof_C 	C 	0.68808	0.0639	0.64363	0.073
Mof_H 	H 	0.6817	0.1224	0.6488	-0.002
Mof_C 	C 	0.46921	0.6141	0.4805	-0.123
Mof_H 	H 	0.4915	0.6487	0.4822	0.073
Mof_C 	C 	0.781	0.5238	0.6937	0.08
Mof_H 	H 	0.7633	0.487	0.6755	-0.016
Mof_C 	C 	0.86647	0.9102	0.8172	-0.133
Mof_H 	H 	0.8728	0.8512	0.8132	0.102
Mof_C 	C 	0.51441	0.8964	0.5583	0.071
Mof_C 	C 	0.7056	0.892	0.62946	-0.129
Mof_H 	H 	0.7107	0.8329	0.6239	0.094
Mof_C 	C 	0.40444	0.8105	0.61774	0.08
Mof_C 	C 	0.71796	0.0225	0.67333	-0.132
Mof_H 	H 	0.7317	0.053	0.6976	0.09
Mof_C 	C 	0.5626	0.958	0.5248	0.1
Mof_H 	H 	0.5729	0.9628	0.5	-0.018
Mof_C 	C 	0.84958	0.0821	0.83177	0.078
Mof_H 	H 	0.8437	0.1409	0.8367	-0.014
Mof_C 	C 	0.4165	0.862	0.6546	-0.14
Mof_H 	H 	0.441	0.889	0.6602	0.093
Mof_C 	C 	0.83317	0.6323	0.7461	-0.131
Mof_H 	H 	0.8516	0.6678	0.7641	0.09
Mof_C 	C 	0.46309	0.5393	0.45423	0.07
Mof_H 	H 	0.4815	0.5247	0.438	-0.009
Mof_C 	C 	0.67677	0.9382	0.6014	0.079
Mof_H 	H 	0.6627	0.9093	0.5767	-0.005
Mof_C 	C 	0.40952	0.5808	0.5019	-0.128
Mof_H 	H 	0.3908	0.5931	0.518	0.087
Mof_C 	C 	0.3676	0.7741	0.61	-0.136
Mof_H 	H 	0.3586	0.7396	0.5853	0.093
Mof_C 	C 	0.77402	0.6145	0.6925	-0.138
Mof_H 	H 	0.7519	0.6377	0.674	0.087
Mof_C 	C 	0.4059	0.5074	0.4754	0.077
Mof_H 	H 	0.3845	0.4702	0.4743	-0.014
Mof_C 	C 	0.3918	0.8728	0.683	0.092
Mof_H 	H 	0.4002	0.9065	0.7081	-0.025
Mof_C 	C 	0.5312	0.9024	0.52336	-0.16
Mof_H 	H 	0.5215	0.8689	0.4985	0.091
Mof_C 	C 	0.565	0.9901	0.5952	0.087
Mof_H 	H 	0.5771	0.0195	0.6206	-0.02
Mof_C 	C 	0.534	0.9344	0.5972	-0.148
Mof_H 	H 	0.5267	0.9229	0.6234	0.095
Mof_C 	C 	0.81025	0.8976	0.75398	0.096
Mof_I 	I 	0.47056	0.3344	0.37924	0.106
Mof_I 	I 	0.36884	0.27803	0.43899	-0.367
Mof_I 	I 	0.85445	0.3076	0.78939	0.025
Mof_I 	I 	0.6253	0.2403	0.579	0.088
Mof_I 	I 	0.7506	0.2704	0.6832	-0.33
Mof_I 	I 	0.26144	0.7658	0.6956	0.004
Mof_I 	I 	0.36798	0.8234	0.79852	-0.426
Mof_I 	I 	0.14727	0.57336	0.49003	-0.368
Mof_I 	I 	0.88499	0.76548	0.43681	0.027
Mof_I 	I 	0.97969	0.86287	0.37099	-0.463
Mof_I 	I 	0.11088	0.73395	0.59469	-0.468
Mof_Zn	Zn	0.32283	0.85158	0.72174	1.153
Mof_Zn	Zn	0.12613	0.58677	0.5621	1.164
Mof_Zn	Zn	0.91908	0.88559	0.40585	1.154
Mof_N 	N 	0.31207	0.9871	0.71974	-0.277
Mof_N 	N 	0.93163	0.9869	0.45126	-0.276
Mof_N 	N 	0.16814	0.5228	0.60798	-0.275
Mof_N 	N 	0.28016	0.4396	0.72839	-0.143
Mof_N 	N 	0.31911	0.3121	0.75084	-0.133
Mof_N 	N 	0.38039	0.5445	0.85827	-0.274
Mof_N 	N 	0.2636	0.3019	0.69207	-0.141
Mof_N 	N 	0.07861	0.5046	0.55915	-0.284
Mof_N 	N 	0.85661	0.337	0.67577	-0.284
Mof_N 	N 	0.92257	0.226	0.56003	-0.135
Mof_N 	N 	0.97515	0.2718	0.52888	-0.148
Mof_C 	C 	0.25873	0.3888	0.69729	0.084
Mof_C 	C 	0.22693	0.4348	0.6661	0.055
Mof_N 	N 	0.96016	0.3518	0.58866	-0.132
Mof_C 	C 	0.3003	0.1699	0.71909	0.065
Mof_C 	C 	0.3378	0.041	0.7454	0.07
Mof_H 	H 	0.3597	0.0159	0.7635	-0.015
Mof_C 	C 	0.29376	0.2674	0.72039	0.098
Mof_C 	C 	0.33487	0.4496	0.78992	0.069
Mof_C 	C 	0.3885	0.4602	0.8504	0.086
Mof_H 	H 	0.4102	0.4338	0.8682	-0.007
Mof_C 	C 	0.94131	0.1364	0.50429	0.058
Mof_C 	C 	0.84428	0.2896	0.6393	0.083
Mof_H 	H 	0.8191	0.2663	0.6337	-0.018
Mof_C 	C 	0.32624	0.5376	0.79772	-0.138
Mof_H 	H 	0.3049	0.5658	0.7801	0.08
Mof_C 	C 	0.9464	0.2162	0.53244	0.092
Mof_C 	C 	0.93035	0.2955	0.58672	0.102
Mof_C 	C 	0.9811	0.3368	0.55826	0.083
Mof_C 	C 	0.18808	0.5639	0.64363	0.073
Mof_H 	H 	0.1817	0.6224	0.6488	-0.002
Mof_C 	C 	0.96921	0.1141	0.4805	-0.123
Mof_H 	H 	0.9915	0.1487	0.4822	0.073
Mof_C 	C 	0.281	0.0238	0.6937	0.08
Mof_H 	H 	0.2633	0.987	0.6755	-0.016
Mof_C 	C 	0.36647	0.4102	0.8172	-0.133
Mof_H 	H 	0.3728	0.3512	0.8132	0.102
Mof_C 	C 	0.01441	0.3964	0.5583	0.071
Mof_C 	C 	0.2056	0.392	0.62946	-0.129
Mof_H 	H 	0.2107	0.3329	0.6239	0.094
Mof_C 	C 	0.90444	0.3105	0.61774	0.08
Mof_C 	C 	0.21796	0.5225	0.67333	-0.132
Mof_H 	H 	0.2317	0.553	0.6976	0.09
Mof_C 	C 	0.0626	0.458	0.5248	0.1
Mof_H 	H 	0.0729	0.4628	0.5	-0.018
Mof_C 	C 	0.34958	0.5821	0.83177	0.078
Mof_H 	H 	0.3437	0.6409	0.8367	-0.014
Mof_C 	C 	0.9165	0.362	0.6546	-0.14
Mof_H 	H 	0.941	0.389	0.6602	0.093
Mof_C 	C 	0.33317	0.1323	0.7461	-0.13
Mof_H 	H 	0.3516	0.1678	0.7641	0.09
Mof_C 	C 	0.96309	0.0393	0.45423	0.07
Mof_H 	H 	0.9815	0.0247	0.438	-0.009
Mof_C 	C 	0.17677	0.4382	0.6014	0.079
Mof_H 	H 	0.1627	0.4093	0.5767	-0.005
Mof_C 	C 	0.90952	0.0808	0.5019	-0.128
Mof_H 	H 	0.8908	0.0931	0.518	0.087
Mof_C 	C 	0.8676	0.2741	0.61	-0.136
Mof_H 	H 	0.8586	0.2396	0.5853	0.093
Mof_C 	C 	0.27402	0.1145	0.6925	-0.138
Mof_H 	H 	0.2519	0.1377	0.674	0.087
Mof_C 	C 	0.9059	0.0074	0.4754	0.077
Mof_H 	H 	0.8845	0.9702	0.4743	-0.014
Mof_C 	C 	0.8918	0.3728	0.683	0.092
Mof_H 	H 	0.9002	0.4065	0.7081	-0.025
Mof_C 	C 	0.0312	0.4024	0.52336	-0.16
Mof_H 	H 	0.0215	0.3689	0.4985	0.091
Mof_C 	C 	0.065	0.4901	0.5952	0.087
Mof_H 	H 	0.0771	0.5195	0.6206	-0.02
Mof_C 	C 	0.034	0.4344	0.5972	-0.148
Mof_H 	H 	0.0267	0.4229	0.6234	0.095
Mof_C 	C 	0.31025	0.3976	0.75398	0.096
Mof_I 	I 	0.97056	0.8344	0.37924	0.106
Mof_I 	I 	0.86884	0.77803	0.43899	-0.367
Mof_I 	I 	0.35445	0.8076	0.78939	0.025
Mof_I 	I 	0.1253	0.7403	0.579	0.088
Mof_I 	I 	0.2506	0.7704	0.6832	-0.33
_end
