# CIF file generated by openbabel 3.1.0, see https://openbabel.org
data_I
_chemical_name_common 'image0'
_cell_length_a 6.765
_cell_length_b 11.482
_cell_length_c 17.858
_cell_angle_alpha 90
_cell_angle_beta 104.06
_cell_angle_gamma 90
_space_group_name_H-M_alt 'P 1'
_space_group_name_Hall 'P 1'
loop_
    _symmetry_equiv_pos_as_xyz
    x,y,z
loop_
    _atom_site_label
    _atom_site_type_symbol
    _atom_site_fract_x
    _atom_site_fract_y
    _atom_site_fract_z
    _atom_site_occupancy
    C1       C        0.19350    0.93640    0.11200    1.000
    C2       C        0.21910    0.84040    0.17160    1.000
    C3       C        0.21760    0.72470    0.14630    1.000
    H1       H        0.19850    0.70770    0.09410    1.000
    C4       C        0.24540    0.63520    0.20120    1.000
    C5       C        0.27050    0.65890    0.27910    1.000
    H2       H        0.29000    0.59870    0.31500    1.000
    C6       C        0.26620    0.77510    0.30290    1.000
    C7       C        0.24200    0.86440    0.25010    1.000
    H3       H        0.24070    0.94110    0.26670    1.000
    C8       C        0.28340    0.79800    0.38780    1.000
    C9       C        0.11530    0.48390    0.11280    1.000
    H4       H        0.13200    0.53080    0.06960    1.000
    H5       H        0.97880    0.49660    0.11940    1.000
    C10      C        0.14220    0.35720    0.09590    1.000
    Cd1      Cd       0.79595    0.85558    0.97215    1.000
    O1       O        0.21250    0.04160    0.13740    1.000
    O2       O        0.16220    0.91250    0.04130    1.000
    O3       O        0.25210    0.90280    0.40730    1.000
    O4       O        0.31640    0.71730    0.43530    1.000
    O5       O        0.26070    0.51870    0.18090    1.000
    O6       O        0.01770    0.31180    0.03910    1.000
    O7       O        0.29210    0.30270    0.13360    1.000
    C11      C        0.80650    0.93640    0.38800    1.000
    C12      C        0.78090    0.84040    0.32840    1.000
    C13      C        0.78240    0.72470    0.35370    1.000
    H6       H        0.80150    0.70770    0.40590    1.000
    C14      C        0.75460    0.63520    0.29880    1.000
    C15      C        0.72950    0.65890    0.22090    1.000
    H7       H        0.71000    0.59870    0.18500    1.000
    C16      C        0.73380    0.77510    0.19710    1.000
    C17      C        0.75800    0.86440    0.24990    1.000
    H8       H        0.75930    0.94110    0.23330    1.000
    C18      C        0.71660    0.79800    0.11220    1.000
    C19      C        0.88470    0.48390    0.38720    1.000
    H9       H        0.86800    0.53080    0.43040    1.000
    H10      H        0.02120    0.49660    0.38060    1.000
    C20      C        0.85780    0.35720    0.40410    1.000
    Cd2      Cd       0.20405    0.85558    0.52785    1.000
    O8       O        0.78750    0.04160    0.36260    1.000
    O9       O        0.83780    0.91250    0.45870    1.000
    O10      O        0.74790    0.90280    0.09270    1.000
    O11      O        0.68360    0.71730    0.06470    1.000
    O12      O        0.73930    0.51870    0.31910    1.000
    O13      O        0.98230    0.31180    0.46090    1.000
    O14      O        0.70790    0.30270    0.36640    1.000
    C21      C        0.80650    0.06360    0.88800    1.000
    C22      C        0.78090    0.15960    0.82840    1.000
    C23      C        0.78240    0.27530    0.85370    1.000
    H11      H        0.80150    0.29230    0.90590    1.000
    C24      C        0.75460    0.36480    0.79880    1.000
    C25      C        0.72950    0.34110    0.72090    1.000
    H12      H        0.71000    0.40130    0.68500    1.000
    C26      C        0.73380    0.22490    0.69710    1.000
    C27      C        0.75800    0.13560    0.74990    1.000
    H13      H        0.75930    0.05890    0.73330    1.000
    C28      C        0.71660    0.20200    0.61220    1.000
    C29      C        0.88470    0.51610    0.88720    1.000
    H14      H        0.86800    0.46920    0.93040    1.000
    H15      H        0.02120    0.50340    0.88060    1.000
    C30      C        0.85780    0.64280    0.90410    1.000
    Cd3      Cd       0.20405    0.14442    0.02785    1.000
    O15      O        0.78750    0.95840    0.86260    1.000
    O16      O        0.83780    0.08750    0.95870    1.000
    O17      O        0.74790    0.09720    0.59270    1.000
    O18      O        0.68360    0.28270    0.56470    1.000
    O19      O        0.73930    0.48130    0.81910    1.000
    O20      O        0.98230    0.68820    0.96090    1.000
    O21      O        0.70790    0.69730    0.86640    1.000
    C31      C        0.19350    0.06360    0.61200    1.000
    C32      C        0.21910    0.15960    0.67160    1.000
    C33      C        0.21760    0.27530    0.64630    1.000
    H16      H        0.19850    0.29230    0.59410    1.000
    C34      C        0.24540    0.36480    0.70120    1.000
    C35      C        0.27050    0.34110    0.77910    1.000
    H17      H        0.29000    0.40130    0.81500    1.000
    C36      C        0.26620    0.22490    0.80290    1.000
    C37      C        0.24200    0.13560    0.75010    1.000
    H18      H        0.24070    0.05890    0.76670    1.000
    C38      C        0.28340    0.20200    0.88780    1.000
    C39      C        0.11530    0.51610    0.61280    1.000
    H19      H        0.13200    0.46920    0.56960    1.000
    H20      H        0.97880    0.50340    0.61940    1.000
    C40      C        0.14220    0.64280    0.59590    1.000
    Cd4      Cd       0.79595    0.14442    0.47215    1.000
    O22      O        0.21250    0.95840    0.63740    1.000
    O23      O        0.16220    0.08750    0.54130    1.000
    O24      O        0.25210    0.09720    0.90730    1.000
    O25      O        0.31640    0.28270    0.93530    1.000
    O26      O        0.26070    0.48130    0.68090    1.000
    O27      O        0.01770    0.68820    0.53910    1.000
    O28      O        0.29210    0.69730    0.63360    1.000
    Cd5      Cd       0.50000    0.35121    0.25000    1.000
    Cd6      Cd       0.50000    0.64879    0.75000    1.000
