# CIF file generated by openbabel 3.1.0, see https://openbabel.org
data_I
_chemical_name_common 'image0'
_cell_length_a 10.1645
_cell_length_b 10.7048
_cell_length_c 6.2049
_cell_angle_alpha 90
_cell_angle_beta 114.277
_cell_angle_gamma 90
_space_group_name_H-M_alt 'P 1'
_space_group_name_Hall 'P 1'
loop_
    _symmetry_equiv_pos_as_xyz
    x,y,z
loop_
    _atom_site_label
    _atom_site_type_symbol
    _atom_site_fract_x
    _atom_site_fract_y
    _atom_site_fract_z
    _atom_site_occupancy
    C1       C        0.31800    0.21130    0.54400    1.000
    H1       H        0.40100    0.26580    0.56520    1.000
    H2       H        0.33440    0.17550    0.70010    1.000
    N1       N        0.31050    0.10880    0.37970    1.000
    H3       H        0.29480    0.14220    0.23450    1.000
    H4       H        0.23330    0.05820    0.36030    1.000
    C2       C        0.81800    0.71130    0.54400    1.000
    H5       H        0.90100    0.76580    0.56520    1.000
    H6       H        0.83440    0.67550    0.70010    1.000
    N2       N        0.81050    0.60880    0.37970    1.000
    H7       H        0.79480    0.64220    0.23450    1.000
    H8       H        0.73330    0.55820    0.36030    1.000
    C3       C        0.68200    0.21130    0.95600    1.000
    H9       H        0.59900    0.26580    0.93480    1.000
    H10      H        0.66560    0.17550    0.79990    1.000
    N3       N        0.68950    0.10880    0.12030    1.000
    H11      H        0.70520    0.14220    0.26550    1.000
    H12      H        0.76670    0.05820    0.13970    1.000
    C4       C        0.18200    0.71130    0.95600    1.000
    H13      H        0.09900    0.76580    0.93480    1.000
    H14      H        0.16560    0.67550    0.79990    1.000
    N4       N        0.18950    0.60880    0.12030    1.000
    H15      H        0.20520    0.64220    0.26550    1.000
    H16      H        0.26670    0.55820    0.13970    1.000
    C5       C        0.68200    0.78870    0.45600    1.000
    H17      H        0.59900    0.73420    0.43480    1.000
    H18      H        0.66560    0.82450    0.29990    1.000
    N5       N        0.68950    0.89120    0.62030    1.000
    H19      H        0.70520    0.85780    0.76550    1.000
    H20      H        0.76670    0.94180    0.63970    1.000
    C6       C        0.18200    0.28870    0.45600    1.000
    H21      H        0.09900    0.23420    0.43480    1.000
    H22      H        0.16560    0.32450    0.29990    1.000
    N6       N        0.18950    0.39120    0.62030    1.000
    H23      H        0.20520    0.35780    0.76550    1.000
    H24      H        0.26670    0.44180    0.63970    1.000
    C7       C        0.31800    0.78870    0.04400    1.000
    H25      H        0.40100    0.73420    0.06520    1.000
    H26      H        0.33440    0.82450    0.20010    1.000
    N7       N        0.31050    0.89120    0.87970    1.000
    H27      H        0.29480    0.85780    0.73450    1.000
    H28      H        0.23330    0.94180    0.86030    1.000
    C8       C        0.81800    0.28870    0.04400    1.000
    H29      H        0.90100    0.23420    0.06520    1.000
    H30      H        0.83440    0.32450    0.20010    1.000
    N8       N        0.81050    0.39120    0.87970    1.000
    H31      H        0.79480    0.35780    0.73450    1.000
    H32      H        0.73330    0.44180    0.86030    1.000
    Ag1      Ag       0.50000    0.00000    0.50000    1.000
    Ag2      Ag       0.00000    0.50000    0.50000    1.000
    Ag3      Ag       0.50000    0.00000    0.00000    1.000
    Ag4      Ag       0.00000    0.50000    0.00000    1.000
