data_functionalizedCrystal
_audit_creation_method	'EQeq! by Chris Wilmer'
_symmetry_space_group_name_H-M	'P1'
_symmetry_Int_Tables_number	1
_symmetry_cell_setting	triclinic
loop_
_symmetry_equiv_pos_as_xyz
  x,y,z
_cell_length_a	9.7373
_cell_length_b	15.1542
_cell_length_c	21.1695
_cell_angle_alpha	90
_cell_angle_beta	98.756
_cell_angle_gamma	90
loop_
_atom_site_label
_atom_site_type_symbol
_atom_site_fract_x
_atom_site_fract_y
_atom_site_fract_z
_atom_site_charge
Mof_C 	C 	0.4211	0.3362	0.16324	0.721
Mof_C 	C 	0.4545	0.4175	0.12812	-0.338
Mof_C 	C 	0.466	0.4962	0.16242	0.259
Mof_H 	H 	0.4518	0.4957	0.2058	-0.152
Mof_C 	C 	0.4974	0.575	0.13521	-0.313
Mof_C 	C 	0.521	0.6535	0.17922	0.61
Mof_C 	C 	0.5105	0.5785	0.06964	0.144
Mof_C 	C 	0.5319	0.6599	0.03789	-0.119
Mof_H 	H 	0.5404	0.7133	0.0616	0.062
Mof_C 	C 	0.4597	0.3382	0.02525	-0.071
Mof_H 	H 	0.446	0.2832	0.045	0.014
Mof_C 	C 	0.4709	0.4169	0.06317	0.134
Mof_C 	C 	0.4954	0.4989	0.03372	-0.082
Mof_C 	C 	0.1835	0.3957	0.33692	0.364
Mof_C 	C 	0.0882	0.4526	0.37032	-0.214
Mof_C 	C 	0.9995	0.5107	0.33383	0.129
Mof_H 	H 	0.9996	0.5138	0.289	-0.046
Mof_C 	C 	0.91	0.5649	0.362	-0.286
Mof_C 	C 	0.8088	0.6226	0.31973	0.7
Mof_C 	C 	0.0909	0.4471	0.43676	0.079
Mof_C 	C 	0.18	0.387	0.47661	-0.125
Mof_H 	H 	0.2398	0.3492	0.4576	0.048
Mof_C 	C 	0.8192	0.617	0.45951	-0.063
Mof_H 	H 	0.7582	0.6571	0.4347	-0.037
Mof_C 	C 	0.909	0.5617	0.42833	0.079
Mof_C 	C 	0.9998	0.5024	0.46606	-0.072
Mof_O 	O 	0.4748	0.26456	0.15315	-1.263
Mof_O 	O 	0.3378	0.35008	0.20298	-0.649
Mof_O 	O 	0.4448	0.66348	0.2202	-1.173
Mof_O 	O 	0.6249	0.70148	0.17184	-0.585
Mof_O 	O 	0.1249	0.33651	0.29945	-0.458
Mof_O 	O 	0.3095	0.40953	0.34639	-0.449
Mof_O 	O 	0.6849	0.60314	0.31301	-1.252
Mof_O 	O 	0.8599	0.68768	0.29286	-0.587
Mof_Li	Li	0.4962	0.1501	0.1891	3.779
Mof_Zn	Zn	0.26936	0.27102	0.26169	1.206
Mof_C 	C 	0.5789	0.8362	0.33676	0.722
Mof_C 	C 	0.5455	0.9175	0.37188	-0.337
Mof_C 	C 	0.534	0.9962	0.33758	0.261
Mof_H 	H 	0.5482	0.9957	0.2942	-0.152
Mof_C 	C 	0.5026	0.075	0.36479	-0.314
Mof_C 	C 	0.479	0.1535	0.32078	0.61
Mof_C 	C 	0.4895	0.0785	0.43036	0.145
Mof_C 	C 	0.4681	0.1599	0.46211	-0.12
Mof_H 	H 	0.4596	0.2133	0.4384	0.062
Mof_C 	C 	0.5403	0.8382	0.47475	-0.07
Mof_H 	H 	0.554	0.7832	0.455	0.013
Mof_C 	C 	0.5291	0.9169	0.43683	0.134
Mof_C 	C 	0.5046	0.9989	0.46628	-0.082
Mof_C 	C 	0.8165	0.8957	0.16308	0.364
Mof_C 	C 	0.9118	0.9526	0.12968	-0.212
Mof_C 	C 	0.0005	0.0107	0.16617	0.128
Mof_H 	H 	0.0004	0.0138	0.211	-0.046
Mof_C 	C 	0.09	0.0649	0.138	-0.286
Mof_C 	C 	0.1912	0.1226	0.18027	0.7
Mof_C 	C 	0.9091	0.9471	0.06324	0.08
Mof_C 	C 	0.82	0.887	0.02339	-0.121
Mof_H 	H 	0.7602	0.8492	0.0424	0.047
Mof_C 	C 	0.1808	0.117	0.04049	-0.067
Mof_H 	H 	0.2418	0.1571	0.0653	-0.036
Mof_C 	C 	0.091	0.0617	0.07167	0.08
Mof_C 	C 	0.0002	0.0024	0.03394	-0.073
Mof_O 	O 	0.5252	0.76456	0.34685	-1.264
Mof_O 	O 	0.6622	0.85008	0.29702	-0.649
Mof_O 	O 	0.5552	0.16348	0.2798	-1.172
Mof_O 	O 	0.3751	0.20148	0.32816	-0.585
Mof_O 	O 	0.8751	0.83651	0.20055	-0.457
Mof_O 	O 	0.6905	0.90953	0.15361	-0.448
Mof_O 	O 	0.3151	0.10314	0.18699	-1.252
Mof_O 	O 	0.1401	0.18768	0.20714	-0.587
Mof_Li	Li	0.5038	0.6501	0.3109	3.783
Mof_Zn	Zn	0.73064	0.77102	0.23831	1.206
Mof_C 	C 	0.5789	0.6638	0.83676	0.722
Mof_C 	C 	0.5455	0.5825	0.87188	-0.337
Mof_C 	C 	0.534	0.5038	0.83758	0.259
Mof_H 	H 	0.5482	0.5043	0.7942	-0.152
Mof_C 	C 	0.5026	0.425	0.86479	-0.313
Mof_C 	C 	0.479	0.3465	0.82078	0.61
Mof_C 	C 	0.4895	0.4215	0.93036	0.144
Mof_C 	C 	0.4681	0.3401	0.96211	-0.119
Mof_H 	H 	0.4596	0.2867	0.9384	0.062
Mof_C 	C 	0.5403	0.6618	0.97475	-0.071
Mof_H 	H 	0.554	0.7168	0.955	0.014
Mof_C 	C 	0.5291	0.5831	0.93683	0.134
Mof_C 	C 	0.5046	0.5011	0.96628	-0.082
Mof_C 	C 	0.8165	0.6043	0.66308	0.364
Mof_C 	C 	0.9118	0.5474	0.62968	-0.214
Mof_C 	C 	0.0005	0.4893	0.66617	0.129
Mof_H 	H 	0.0004	0.4862	0.711	-0.046
Mof_C 	C 	0.09	0.4351	0.638	-0.286
Mof_C 	C 	0.1912	0.3774	0.68027	0.7
Mof_C 	C 	0.9091	0.5529	0.56324	0.079
Mof_C 	C 	0.82	0.613	0.52339	-0.125
Mof_H 	H 	0.7602	0.6508	0.5424	0.048
Mof_C 	C 	0.1808	0.383	0.54049	-0.063
Mof_H 	H 	0.2418	0.3429	0.5653	-0.037
Mof_C 	C 	0.091	0.4383	0.57167	0.079
Mof_C 	C 	0.0002	0.4976	0.53394	-0.072
Mof_O 	O 	0.5252	0.73544	0.84685	-1.263
Mof_O 	O 	0.6622	0.64992	0.79702	-0.649
Mof_O 	O 	0.5552	0.33652	0.7798	-1.173
Mof_O 	O 	0.3751	0.29852	0.82816	-0.585
Mof_O 	O 	0.8751	0.66349	0.70055	-0.458
Mof_O 	O 	0.6905	0.59047	0.65361	-0.449
Mof_O 	O 	0.3151	0.39686	0.68699	-1.252
Mof_O 	O 	0.1401	0.31232	0.70714	-0.587
Mof_Li	Li	0.5038	0.8499	0.8109	3.779
Mof_Zn	Zn	0.73064	0.72898	0.73831	1.206
Mof_C 	C 	0.4211	0.1638	0.66324	0.722
Mof_C 	C 	0.4545	0.0825	0.62812	-0.337
Mof_C 	C 	0.466	0.0038	0.66242	0.261
Mof_H 	H 	0.4518	0.0043	0.7058	-0.152
Mof_C 	C 	0.4974	0.925	0.63521	-0.314
Mof_C 	C 	0.521	0.8465	0.67922	0.61
Mof_C 	C 	0.5105	0.9215	0.56964	0.145
Mof_C 	C 	0.5319	0.8401	0.53789	-0.12
Mof_H 	H 	0.5404	0.7867	0.5616	0.062
Mof_C 	C 	0.4597	0.1618	0.52525	-0.07
Mof_H 	H 	0.446	0.2168	0.545	0.013
Mof_C 	C 	0.4709	0.0831	0.56317	0.134
Mof_C 	C 	0.4954	0.0011	0.53372	-0.082
Mof_C 	C 	0.1835	0.1043	0.83692	0.364
Mof_C 	C 	0.0882	0.0474	0.87032	-0.212
Mof_C 	C 	0.9995	0.9893	0.83383	0.128
Mof_H 	H 	0.9996	0.9862	0.789	-0.046
Mof_C 	C 	0.91	0.9351	0.862	-0.286
Mof_C 	C 	0.8088	0.8774	0.81973	0.7
Mof_C 	C 	0.0909	0.0529	0.93676	0.08
Mof_C 	C 	0.18	0.113	0.97661	-0.121
Mof_H 	H 	0.2398	0.1508	0.9576	0.047
Mof_C 	C 	0.8192	0.883	0.95951	-0.067
Mof_H 	H 	0.7582	0.8429	0.9347	-0.036
Mof_C 	C 	0.909	0.9383	0.92833	0.08
Mof_C 	C 	0.9998	0.9976	0.96606	-0.073
Mof_O 	O 	0.4748	0.23544	0.65315	-1.264
Mof_O 	O 	0.3378	0.14992	0.70298	-0.649
Mof_O 	O 	0.4448	0.83652	0.7202	-1.172
Mof_O 	O 	0.6249	0.79852	0.67184	-0.585
Mof_O 	O 	0.1249	0.16349	0.79945	-0.457
Mof_O 	O 	0.3095	0.09047	0.84639	-0.448
Mof_O 	O 	0.6849	0.89686	0.81301	-1.252
Mof_O 	O 	0.8599	0.81232	0.79286	-0.587
Mof_Li	Li	0.4962	0.3499	0.6891	3.783
Mof_Zn	Zn	0.26936	0.22898	0.76169	1.206
_end
