data_functionalizedCrystal
_audit_creation_method	'EQeq! by Chris Wilmer'
_symmetry_space_group_name_H-M	'P1'
_symmetry_Int_Tables_number	1
_symmetry_cell_setting	triclinic
loop_
_symmetry_equiv_pos_as_xyz
  x,y,z
_cell_length_a	13.0157
_cell_length_b	13.0157
_cell_length_c	62.615
_cell_angle_alpha	90
_cell_angle_beta	90
_cell_angle_gamma	120
loop_
_atom_site_label
_atom_site_type_symbol
_atom_site_fract_x
_atom_site_fract_y
_atom_site_fract_z
_atom_site_charge
Mof_N 	N 	0.45971	0.65006	0.98407	-0.195
Mof_C 	C 	0.59225	0.60124	0.96128	-0.127
Mof_C 	C 	0.71019	0.65047	0.92735	-0.065
Mof_H 	H 	0.7683	0.6396	0.9345	0.063
Mof_C 	C 	0.60974	0.63348	0.93851	0.069
Mof_C 	C 	0.52012	0.62732	0.97393	0.128
Mof_C 	C 	0.52591	0.65029	0.92738	-0.067
Mof_H 	H 	0.4568	0.6392	0.9346	0.054
Mof_N 	N 	0.66717	0.47127	0.9778	-0.196
Mof_C 	C 	0.63491	0.53148	0.97027	0.127
Mof_N 	N 	0.12638	0.98339	0.3174	-0.185
Mof_C 	C 	0.25892	0.93457	0.29461	-0.108
Mof_C 	C 	0.37686	0.9838	0.26068	0.01
Mof_H 	H 	0.43497	0.97293	0.26783	0.039
Mof_C 	C 	0.27641	0.96681	0.27184	0.02
Mof_C 	C 	0.18679	0.96065	0.30726	0.121
Mof_C 	C 	0.19258	0.98362	0.26071	0.008
Mof_H 	H 	0.12347	0.97253	0.26793	0.031
Mof_N 	N 	0.33384	0.8046	0.31113	-0.194
Mof_C 	C 	0.30158	0.86481	0.3036	0.121
Mof_N 	N 	0.79304	0.31673	0.65074	-0.198
Mof_C 	C 	0.92558	0.26791	0.62795	-0.148
Mof_C 	C 	0.04352	0.31714	0.59402	-0.102
Mof_H 	H 	0.10163	0.30627	0.60117	0.062
Mof_C 	C 	0.94307	0.30015	0.60518	0.101
Mof_C 	C 	0.85345	0.29399	0.6406	0.135
Mof_C 	C 	0.85924	0.31696	0.59405	-0.08
Mof_H 	H 	0.79013	0.30587	0.60127	0.058
Mof_N 	N 	0.0005	0.13794	0.64447	-0.219
Mof_C 	C 	0.96824	0.19815	0.63694	0.159
Mof_N 	N 	0.34994	0.80965	0.98407	-0.195
Mof_C 	C 	0.39876	0.99101	0.96128	-0.105
Mof_C 	C 	0.34953	0.05972	0.92735	-0.082
Mof_H 	H 	0.3604	0.1287	0.9345	0.057
Mof_C 	C 	0.36652	0.97626	0.93851	0.079
Mof_C 	C 	0.37268	0.8928	0.97393	0.124
Mof_C 	C 	0.34971	0.87562	0.92738	-0.062
Mof_H 	H 	0.3608	0.8176	0.9346	0.052
Mof_N 	N 	0.52873	0.1959	0.9778	-0.192
Mof_C 	C 	0.46852	0.10343	0.97027	0.097
Mof_N 	N 	0.01661	0.14298	0.3174	-0.203
Mof_C 	C 	0.06543	0.32434	0.29461	-0.149
Mof_C 	C 	0.0162	0.39305	0.26068	-0.146
Mof_H 	H 	0.02707	0.46203	0.26783	0.078
Mof_C 	C 	0.03319	0.30959	0.27184	0.11
Mof_C 	C 	0.03935	0.22613	0.30726	0.122
Mof_C 	C 	0.01638	0.20895	0.26071	-0.146
Mof_H 	H 	0.02747	0.15093	0.26793	0.069
Mof_N 	N 	0.1954	0.52923	0.31113	-0.2
Mof_C 	C 	0.13519	0.43676	0.3036	0.128
Mof_N 	N 	0.68327	0.47632	0.65074	-0.197
Mof_C 	C 	0.73209	0.65768	0.62795	-0.127
Mof_C 	C 	0.68286	0.72639	0.59402	-0.067
Mof_H 	H 	0.69373	0.79537	0.60117	0.063
Mof_C 	C 	0.69985	0.64293	0.60518	0.069
Mof_C 	C 	0.70601	0.55947	0.6406	0.128
Mof_C 	C 	0.68304	0.54229	0.59405	-0.067
Mof_H 	H 	0.69413	0.48427	0.60127	0.055
Mof_N 	N 	0.86206	0.86257	0.64447	-0.179
Mof_C 	C 	0.80185	0.7701	0.63694	0.131
Mof_N 	N 	0.19035	0.54029	0.98407	-0.2
Mof_C 	C 	0.00899	0.40775	0.96128	-0.155
Mof_C 	C 	0.94028	0.28981	0.92735	-0.056
Mof_H 	H 	0.8713	0.2317	0.9345	0.055
Mof_C 	C 	0.02374	0.39026	0.93851	0.053
Mof_C 	C 	0.1072	0.47988	0.97393	0.126
Mof_C 	C 	0.12438	0.47409	0.92738	-0.076
Mof_H 	H 	0.1824	0.5432	0.9346	0.056
Mof_N 	N 	0.8041	0.33283	0.9778	-0.202
Mof_C 	C 	0.89657	0.36509	0.97027	0.154
Mof_N 	N 	0.85702	0.87362	0.3174	-0.179
Mof_C 	C 	0.67566	0.74108	0.29461	-0.127
Mof_C 	C 	0.60695	0.62314	0.26068	-0.067
Mof_H 	H 	0.53797	0.56503	0.26783	0.057
Mof_C 	C 	0.69041	0.72359	0.27184	0.069
Mof_C 	C 	0.77387	0.81321	0.30726	0.131
Mof_C 	C 	0.79105	0.80742	0.26071	-0.065
Mof_H 	H 	0.84907	0.87653	0.26793	0.063
Mof_N 	N 	0.47077	0.66616	0.31113	-0.196
Mof_C 	C 	0.56324	0.69842	0.3036	0.128
Mof_N 	N 	0.52368	0.20696	0.65074	-0.195
Mof_C 	C 	0.34232	0.07442	0.62795	-0.108
Mof_C 	C 	0.27361	0.95648	0.59402	-0.033
Mof_H 	H 	0.20463	0.89837	0.60117	0.049
Mof_C 	C 	0.35707	0.05693	0.60518	0.028
Mof_C 	C 	0.44053	0.14655	0.6406	0.114
Mof_C 	C 	0.45771	0.14076	0.59405	-0.055
Mof_H 	H 	0.51573	0.20987	0.60127	0.049
Mof_N 	N 	0.13743	0.9995	0.64447	-0.167
Mof_C 	C 	0.2299	0.03176	0.63694	0.084
Mof_N 	N 	0.65006	0.45971	0.51593	-0.196
Mof_C 	C 	0.60124	0.59225	0.53872	-0.128
Mof_C 	C 	0.65047	0.71019	0.57265	-0.066
Mof_H 	H 	0.6396	0.7683	0.5655	0.062
Mof_C 	C 	0.63348	0.60974	0.56149	0.068
Mof_C 	C 	0.62732	0.52012	0.52607	0.127
Mof_C 	C 	0.65029	0.52591	0.57262	-0.067
Mof_H 	H 	0.6392	0.4568	0.5654	0.054
Mof_N 	N 	0.47127	0.66717	0.5222	-0.196
Mof_C 	C 	0.53148	0.63491	0.52973	0.127
Mof_N 	N 	0.31673	0.79304	0.84926	-0.198
Mof_C 	C 	0.26791	0.92558	0.87205	-0.148
Mof_C 	C 	0.31714	0.04352	0.90598	-0.102
Mof_H 	H 	0.30627	0.10163	0.89883	0.062
Mof_C 	C 	0.30015	0.94307	0.89482	0.101
Mof_C 	C 	0.29399	0.85345	0.8594	0.135
Mof_C 	C 	0.31696	0.85924	0.90595	-0.08
Mof_H 	H 	0.30587	0.79013	0.89873	0.058
Mof_N 	N 	0.13794	0.0005	0.85553	-0.219
Mof_C 	C 	0.19815	0.96824	0.86306	0.159
Mof_N 	N 	0.98339	0.12638	0.1826	-0.185
Mof_C 	C 	0.93457	0.25892	0.20539	-0.108
Mof_C 	C 	0.9838	0.37686	0.23932	0.01
Mof_H 	H 	0.97293	0.43497	0.23217	0.039
Mof_C 	C 	0.96681	0.27641	0.22816	0.02
Mof_C 	C 	0.96065	0.18679	0.19274	0.121
Mof_C 	C 	0.98362	0.19258	0.23929	0.008
Mof_H 	H 	0.97253	0.12347	0.23207	0.031
Mof_N 	N 	0.8046	0.33384	0.18887	-0.194
Mof_C 	C 	0.86481	0.30158	0.1964	0.121
Mof_N 	N 	0.80965	0.34994	0.51593	-0.195
Mof_C 	C 	0.99101	0.39876	0.53872	-0.105
Mof_C 	C 	0.05972	0.34953	0.57265	-0.082
Mof_H 	H 	0.1287	0.3604	0.5655	0.057
Mof_C 	C 	0.97626	0.36652	0.56149	0.079
Mof_C 	C 	0.8928	0.37268	0.52607	0.124
Mof_C 	C 	0.87562	0.34971	0.57262	-0.062
Mof_H 	H 	0.8176	0.3608	0.5654	0.052
Mof_N 	N 	0.1959	0.52873	0.5222	-0.192
Mof_C 	C 	0.10343	0.46852	0.52973	0.097
Mof_N 	N 	0.47632	0.68327	0.84926	-0.197
Mof_C 	C 	0.65768	0.73209	0.87205	-0.127
Mof_C 	C 	0.72639	0.68286	0.90598	-0.067
Mof_H 	H 	0.79537	0.69373	0.89883	0.063
Mof_C 	C 	0.64293	0.69985	0.89482	0.069
Mof_C 	C 	0.55947	0.70601	0.8594	0.128
Mof_C 	C 	0.54229	0.68304	0.90595	-0.067
Mof_H 	H 	0.48427	0.69413	0.89873	0.055
Mof_N 	N 	0.86257	0.86206	0.85553	-0.179
Mof_C 	C 	0.7701	0.80185	0.86306	0.131
Mof_N 	N 	0.14298	0.01661	0.1826	-0.203
Mof_C 	C 	0.32434	0.06543	0.20539	-0.149
Mof_C 	C 	0.39305	0.0162	0.23932	-0.146
Mof_H 	H 	0.46203	0.02707	0.23217	0.078
Mof_C 	C 	0.30959	0.03319	0.22816	0.11
Mof_C 	C 	0.22613	0.03935	0.19274	0.122
Mof_C 	C 	0.20895	0.01638	0.23929	-0.146
Mof_H 	H 	0.15093	0.02747	0.23207	0.069
Mof_N 	N 	0.52923	0.1954	0.18887	-0.2
Mof_C 	C 	0.43676	0.13519	0.1964	0.128
Mof_N 	N 	0.54029	0.19035	0.51593	-0.2
Mof_C 	C 	0.40775	0.00899	0.53872	-0.155
Mof_C 	C 	0.28981	0.94028	0.57265	-0.056
Mof_H 	H 	0.2317	0.8713	0.5655	0.055
Mof_C 	C 	0.39026	0.02374	0.56149	0.053
Mof_C 	C 	0.47988	0.1072	0.52607	0.126
Mof_C 	C 	0.47409	0.12438	0.57262	-0.076
Mof_H 	H 	0.5432	0.1824	0.5654	0.056
Mof_N 	N 	0.33283	0.8041	0.5222	-0.202
Mof_C 	C 	0.36509	0.89657	0.52973	0.154
Mof_N 	N 	0.20696	0.52368	0.84926	-0.195
Mof_C 	C 	0.07442	0.34232	0.87205	-0.108
Mof_C 	C 	0.95648	0.27361	0.90598	-0.033
Mof_H 	H 	0.89837	0.20463	0.89883	0.049
Mof_C 	C 	0.05693	0.35707	0.89482	0.028
Mof_C 	C 	0.14655	0.44053	0.8594	0.114
Mof_C 	C 	0.14076	0.45771	0.90595	-0.055
Mof_H 	H 	0.20987	0.51573	0.89873	0.049
Mof_N 	N 	0.9995	0.13743	0.85553	-0.167
Mof_C 	C 	0.03176	0.2299	0.86306	0.084
Mof_N 	N 	0.87362	0.85702	0.1826	-0.179
Mof_C 	C 	0.74108	0.67566	0.20539	-0.127
Mof_C 	C 	0.62314	0.60695	0.23932	-0.067
Mof_H 	H 	0.56503	0.53797	0.23217	0.057
Mof_C 	C 	0.72359	0.69041	0.22816	0.069
Mof_C 	C 	0.81321	0.77387	0.19274	0.131
Mof_C 	C 	0.80742	0.79105	0.23929	-0.065
Mof_H 	H 	0.87653	0.84907	0.23207	0.063
Mof_N 	N 	0.66616	0.47077	0.18887	-0.196
Mof_C 	C 	0.69842	0.56324	0.1964	0.128
Mof_N 	N 	0.54029	0.34994	0.01593	-0.198
Mof_C 	C 	0.40775	0.39876	0.03872	-0.13
Mof_C 	C 	0.28981	0.34953	0.07265	-0.07
Mof_H 	H 	0.2317	0.3604	0.0655	0.054
Mof_C 	C 	0.39026	0.36652	0.06149	0.066
Mof_C 	C 	0.47988	0.37268	0.02607	0.124
Mof_C 	C 	0.47409	0.34971	0.07262	-0.069
Mof_H 	H 	0.5432	0.3608	0.0654	0.054
Mof_N 	N 	0.33283	0.52873	0.0222	-0.198
Mof_C 	C 	0.36509	0.46852	0.02973	0.124
Mof_N 	N 	0.20696	0.68327	0.34926	-0.195
Mof_C 	C 	0.07442	0.73209	0.37205	-0.109
Mof_C 	C 	0.95648	0.68286	0.40598	-0.034
Mof_H 	H 	0.89837	0.69373	0.39883	0.054
Mof_C 	C 	0.05693	0.69985	0.39482	0.033
Mof_C 	C 	0.14655	0.70601	0.3594	0.117
Mof_C 	C 	0.14076	0.68304	0.40595	-0.056
Mof_H 	H 	0.20987	0.69413	0.39873	0.05
Mof_N 	N 	0.9995	0.86206	0.35553	-0.16
Mof_C 	C 	0.03176	0.80185	0.36306	0.093
Mof_N 	N 	0.87362	0.01661	0.6826	-0.192
Mof_C 	C 	0.74108	0.06543	0.70539	-0.147
Mof_C 	C 	0.62314	0.0162	0.73932	-0.141
Mof_H 	H 	0.56503	0.02707	0.73217	0.076
Mof_C 	C 	0.72359	0.03319	0.72816	0.11
Mof_C 	C 	0.81321	0.03935	0.69274	0.128
Mof_C 	C 	0.80742	0.01638	0.73929	-0.138
Mof_H 	H 	0.87653	0.02747	0.73207	0.077
Mof_N 	N 	0.66616	0.1954	0.68887	-0.199
Mof_C 	C 	0.69842	0.13519	0.6964	0.13
Mof_N 	N 	0.65006	0.19035	0.01593	-0.199
Mof_C 	C 	0.60124	0.00899	0.03872	-0.154
Mof_C 	C 	0.65047	0.94028	0.07265	-0.054
Mof_H 	H 	0.6396	0.8713	0.0655	0.059
Mof_C 	C 	0.63348	0.02374	0.06149	0.054
Mof_C 	C 	0.62732	0.1072	0.02607	0.128
Mof_C 	C 	0.65029	0.12438	0.07262	-0.074
Mof_H 	H 	0.6392	0.1824	0.0654	0.055
Mof_N 	N 	0.47127	0.8041	0.0222	-0.201
Mof_C 	C 	0.53148	0.89657	0.02973	0.154
Mof_N 	N 	0.31673	0.52368	0.34926	-0.197
Mof_C 	C 	0.26791	0.34232	0.37205	-0.129
Mof_C 	C 	0.31714	0.27361	0.40598	-0.068
Mof_H 	H 	0.30627	0.20463	0.39883	0.053
Mof_C 	C 	0.30015	0.35707	0.39482	0.063
Mof_C 	C 	0.29399	0.44053	0.3594	0.124
Mof_C 	C 	0.31696	0.45771	0.40595	-0.068
Mof_H 	H 	0.30587	0.51573	0.39873	0.053
Mof_N 	N 	0.13794	0.13743	0.35553	-0.199
Mof_C 	C 	0.19815	0.2299	0.36306	0.119
Mof_N 	N 	0.98339	0.85702	0.6826	-0.176
Mof_C 	C 	0.93457	0.67566	0.70539	-0.108
Mof_C 	C 	0.9838	0.60695	0.73932	0.006
Mof_H 	H 	0.97293	0.53797	0.73217	0.04
Mof_C 	C 	0.96681	0.69041	0.72816	0.025
Mof_C 	C 	0.96065	0.77387	0.69274	0.127
Mof_C 	C 	0.98362	0.79105	0.73929	0.005
Mof_H 	H 	0.97253	0.84907	0.73207	0.041
Mof_N 	N 	0.8046	0.47077	0.68887	-0.194
Mof_C 	C 	0.86481	0.56324	0.6964	0.124
Mof_N 	N 	0.80965	0.45971	0.01593	-0.194
Mof_C 	C 	0.99101	0.59225	0.03872	-0.105
Mof_C 	C 	0.05972	0.71019	0.07265	-0.08
Mof_H 	H 	0.1287	0.7683	0.0655	0.061
Mof_C 	C 	0.97626	0.60974	0.06149	0.08
Mof_C 	C 	0.8928	0.52012	0.02607	0.125
Mof_C 	C 	0.87562	0.52591	0.07262	-0.061
Mof_H 	H 	0.8176	0.4568	0.0654	0.052
Mof_N 	N 	0.1959	0.66717	0.0222	-0.191
Mof_C 	C 	0.10343	0.63491	0.02973	0.099
Mof_N 	N 	0.47632	0.79304	0.34926	-0.198
Mof_C 	C 	0.65768	0.92558	0.37205	-0.145
Mof_C 	C 	0.72639	0.04352	0.40598	-0.099
Mof_H 	H 	0.79537	0.10163	0.39883	0.067
Mof_C 	C 	0.64293	0.94307	0.39482	0.101
Mof_C 	C 	0.55947	0.85345	0.3594	0.137
Mof_C 	C 	0.54229	0.85924	0.40595	-0.079
Mof_H 	H 	0.48427	0.79013	0.39873	0.058
Mof_N 	N 	0.86257	0.0005	0.35553	-0.207
Mof_C 	C 	0.7701	0.96824	0.36306	0.161
Mof_N 	N 	0.14298	0.12638	0.6826	-0.199
Mof_C 	C 	0.32434	0.25892	0.70539	-0.129
Mof_C 	C 	0.39305	0.37686	0.73932	-0.068
Mof_H 	H 	0.46203	0.43497	0.73217	0.059
Mof_C 	C 	0.30959	0.27641	0.72816	0.064
Mof_C 	C 	0.22613	0.18679	0.69274	0.118
Mof_C 	C 	0.20895	0.19258	0.73929	-0.07
Mof_H 	H 	0.15093	0.12347	0.73207	0.045
Mof_N 	N 	0.52923	0.33384	0.68887	-0.197
Mof_C 	C 	0.43676	0.30158	0.6964	0.124
Mof_N 	N 	0.34994	0.54029	0.48407	-0.198
Mof_C 	C 	0.39876	0.40775	0.46128	-0.13
Mof_C 	C 	0.34953	0.28981	0.42735	-0.07
Mof_H 	H 	0.3604	0.2317	0.4345	0.054
Mof_C 	C 	0.36652	0.39026	0.43851	0.066
Mof_C 	C 	0.37268	0.47988	0.47393	0.124
Mof_C 	C 	0.34971	0.47409	0.42738	-0.069
Mof_H 	H 	0.3608	0.5432	0.4346	0.054
Mof_N 	N 	0.52873	0.33283	0.4778	-0.198
Mof_C 	C 	0.46852	0.36509	0.47027	0.124
Mof_N 	N 	0.01661	0.87362	0.8174	-0.192
Mof_C 	C 	0.06543	0.74108	0.79461	-0.147
Mof_C 	C 	0.0162	0.62314	0.76068	-0.141
Mof_H 	H 	0.02707	0.56503	0.76783	0.076
Mof_C 	C 	0.03319	0.72359	0.77184	0.11
Mof_C 	C 	0.03935	0.81321	0.80726	0.128
Mof_C 	C 	0.01638	0.80742	0.76071	-0.138
Mof_H 	H 	0.02747	0.87653	0.76793	0.077
Mof_N 	N 	0.1954	0.66616	0.81113	-0.199
Mof_C 	C 	0.13519	0.69842	0.8036	0.13
Mof_N 	N 	0.68327	0.20696	0.15074	-0.195
Mof_C 	C 	0.73209	0.07442	0.12795	-0.109
Mof_C 	C 	0.68286	0.95648	0.09402	-0.034
Mof_H 	H 	0.69373	0.89837	0.10117	0.054
Mof_C 	C 	0.69985	0.05693	0.10518	0.033
Mof_C 	C 	0.70601	0.14655	0.1406	0.117
Mof_C 	C 	0.68304	0.14076	0.09405	-0.056
Mof_H 	H 	0.69413	0.20987	0.10127	0.05
Mof_N 	N 	0.86206	0.9995	0.14447	-0.16
Mof_C 	C 	0.80185	0.03176	0.13694	0.093
Mof_N 	N 	0.19035	0.65006	0.48407	-0.199
Mof_C 	C 	0.00899	0.60124	0.46128	-0.154
Mof_C 	C 	0.94028	0.65047	0.42735	-0.054
Mof_H 	H 	0.8713	0.6396	0.4345	0.059
Mof_C 	C 	0.02374	0.63348	0.43851	0.054
Mof_C 	C 	0.1072	0.62732	0.47393	0.128
Mof_C 	C 	0.12438	0.65029	0.42738	-0.074
Mof_H 	H 	0.1824	0.6392	0.4346	0.055
Mof_N 	N 	0.8041	0.47127	0.4778	-0.201
Mof_C 	C 	0.89657	0.53148	0.47027	0.154
Mof_N 	N 	0.85702	0.98339	0.8174	-0.176
Mof_C 	C 	0.67566	0.93457	0.79461	-0.108
Mof_C 	C 	0.60695	0.9838	0.76068	0.006
Mof_H 	H 	0.53797	0.97293	0.76783	0.04
Mof_C 	C 	0.69041	0.96681	0.77184	0.025
Mof_C 	C 	0.77387	0.96065	0.80726	0.127
Mof_C 	C 	0.79105	0.98362	0.76071	0.005
Mof_H 	H 	0.84907	0.97253	0.76793	0.041
Mof_N 	N 	0.47077	0.8046	0.81113	-0.194
Mof_C 	C 	0.56324	0.86481	0.8036	0.124
Mof_N 	N 	0.52368	0.31673	0.15074	-0.197
Mof_C 	C 	0.34232	0.26791	0.12795	-0.129
Mof_C 	C 	0.27361	0.31714	0.09402	-0.068
Mof_H 	H 	0.20463	0.30627	0.10117	0.053
Mof_C 	C 	0.35707	0.30015	0.10518	0.063
Mof_C 	C 	0.44053	0.29399	0.1406	0.124
Mof_C 	C 	0.45771	0.31696	0.09405	-0.068
Mof_H 	H 	0.51573	0.30587	0.10127	0.053
Mof_N 	N 	0.13743	0.13794	0.14447	-0.199
Mof_C 	C 	0.2299	0.19815	0.13694	0.119
Mof_N 	N 	0.45971	0.80965	0.48407	-0.194
Mof_C 	C 	0.59225	0.99101	0.46128	-0.105
Mof_C 	C 	0.71019	0.05972	0.42735	-0.08
Mof_H 	H 	0.7683	0.1287	0.4345	0.061
Mof_C 	C 	0.60974	0.97626	0.43851	0.08
Mof_C 	C 	0.52012	0.8928	0.47393	0.125
Mof_C 	C 	0.52591	0.87562	0.42738	-0.061
Mof_H 	H 	0.4568	0.8176	0.4346	0.052
Mof_N 	N 	0.66717	0.1959	0.4778	-0.191
Mof_C 	C 	0.63491	0.10343	0.47027	0.099
Mof_N 	N 	0.12638	0.14298	0.8174	-0.199
Mof_C 	C 	0.25892	0.32434	0.79461	-0.129
Mof_C 	C 	0.37686	0.39305	0.76068	-0.068
Mof_H 	H 	0.43497	0.46203	0.76783	0.059
Mof_C 	C 	0.27641	0.30959	0.77184	0.064
Mof_C 	C 	0.18679	0.22613	0.80726	0.118
Mof_C 	C 	0.19258	0.20895	0.76071	-0.07
Mof_H 	H 	0.12347	0.15093	0.76793	0.045
Mof_N 	N 	0.33384	0.52923	0.81113	-0.197
Mof_C 	C 	0.30158	0.43676	0.8036	0.124
Mof_N 	N 	0.79304	0.47632	0.15074	-0.198
Mof_C 	C 	0.92558	0.65768	0.12795	-0.145
Mof_C 	C 	0.04352	0.72639	0.09402	-0.099
Mof_H 	H 	0.10163	0.79537	0.10117	0.067
Mof_C 	C 	0.94307	0.64293	0.10518	0.101
Mof_C 	C 	0.85345	0.55947	0.1406	0.137
Mof_C 	C 	0.85924	0.54229	0.09405	-0.079
Mof_H 	H 	0.79013	0.48427	0.10127	0.058
Mof_N 	N 	0.0005	0.86257	0.14447	-0.207
Mof_C 	C 	0.96824	0.7701	0.13694	0.161
Mof_Fe	Fe	0.33333	0.66667	0.00354	0.688
Mof_Fe	Fe	4.39669e-32	4.39669e-32	0.33688	0.628
Mof_Fe	Fe	0.66667	0.33333	0.67021	0.688
Mof_Fe	Fe	0.66667	0.33333	0.49646	0.688
Mof_Fe	Fe	0.33333	0.66667	0.82979	0.688
Mof_Fe	Fe	-0	0	0.16312	0.628
Mof_Fe	Fe	0.66667	0.33333	0.99646	0.688
Mof_Fe	Fe	0.33333	0.66667	0.32979	0.688
Mof_Fe	Fe	-2.19835e-32	4.39669e-32	0.66312	0.629
Mof_Fe	Fe	0.33333	0.66667	0.50354	0.688
Mof_Fe	Fe	-4.39669e-32	0	0.83688	0.629
Mof_Fe	Fe	0.66667	0.33333	0.17021	0.688
_end
