# CIF file generated by openbabel 3.1.0, see https://openbabel.org
data_I
_chemical_name_common 'image0'
_cell_length_a 25.466
_cell_length_b 14.961
_cell_length_c 26.14
_cell_angle_alpha 90
_cell_angle_beta 94.842
_cell_angle_gamma 90
_space_group_name_H-M_alt 'P 1'
_space_group_name_Hall 'P 1'
loop_
    _symmetry_equiv_pos_as_xyz
    x,y,z
loop_
    _atom_site_label
    _atom_site_type_symbol
    _atom_site_fract_x
    _atom_site_fract_y
    _atom_site_fract_z
    _atom_site_occupancy
    Gd1      Gd       0.34824    0.26371    0.00658    1.000
    C1       C        0.24320    0.31970    0.92010    1.000
    C2       C        0.25550    0.35150    0.86830    1.000
    C3       C        0.22010    0.33870    0.82520    1.000
    H1       H        0.18780    0.31140    0.82890    1.000
    C4       C        0.23220    0.36590    0.77730    1.000
    C5       C        0.27800    0.41240    0.76850    1.000
    C6       C        0.31210    0.42490    0.81250    1.000
    C7       C        0.30390    0.39430    0.86160    1.000
    H2       H        0.32940    0.40180    0.88890    1.000
    C8       C        0.29180    0.44130    0.71560    1.000
    C9       C        0.27380    0.52450    0.69460    1.000
    C10      C        0.28730    0.55580    0.64880    1.000
    H3       H        0.27540    0.61160    0.63710    1.000
    C11      C        0.31820    0.50610    0.61980    1.000
    C12      C        0.33710    0.42330    0.63860    1.000
    H4       H        0.35890    0.38900    0.61960    1.000
    C13      C        0.32320    0.39320    0.68550    1.000
    C14      C        0.33470    0.53840    0.56790    1.000
    C15      C        0.36910    0.18250    0.88740    1.000
    C16      C        0.40780    0.19130    0.84590    1.000
    C17      C        0.40420    0.13610    0.80430    1.000
    H5       H        0.37800    0.09270    0.80100    1.000
    C18      C        0.43930    0.14420    0.76680    1.000
    C19      C        0.48010    0.20650    0.76960    1.000
    C20      C        0.48250    0.26270    0.81310    1.000
    C21      C        0.44700    0.25550    0.85070    1.000
    H6       H        0.44970    0.29370    0.87890    1.000
    N1       N        0.36270    0.47200    0.80820    1.000
    N2       N        0.19270    0.34490    0.73470    1.000
    N3       N        0.23980    0.58180    0.72410    1.000
    N4       N        0.34320    0.30110    0.70080    1.000
    N5       N        0.52480    0.32860    0.82280    1.000
    N6       N        0.43170    0.08490    0.72200    1.000
    O1       O        0.27780    0.32010    0.95550    1.000
    O2       O        0.19580    0.29190    0.92370    1.000
    O3       O        0.40100    0.44710    0.83700    1.000
    O4       O        0.36330    0.53360    0.77810    1.000
    O5       O        0.14860    0.32070    0.74390    1.000
    O6       O        0.20650    0.34540    0.69010    1.000
    O7       O        0.34630    0.28750    0.74670    1.000
    O8       O        0.35630    0.25080    0.66820    1.000
    O9       O        0.20460    0.54620    0.74450    1.000
    O10      O        0.25130    0.66240    0.72550    1.000
    O11      O        0.36870    0.49230    0.54860    1.000
    O12      O        0.31430    0.60880    0.55060    1.000
    O13      O        0.37820    0.23040    0.92600    1.000
    O14      O        0.33210    0.12980    0.87900    1.000
    O15      O        0.53420    0.35690    0.86520    1.000
    O16      O        0.54840    0.35260    0.78590    1.000
    O17      O        0.41210    0.01210    0.72980    1.000
    O18      O        0.44310    0.11160    0.68020    1.000
    Gd2      Gd       0.84824    0.76371    0.00658    1.000
    C22      C        0.74320    0.81970    0.92010    1.000
    C23      C        0.75550    0.85150    0.86830    1.000
    C24      C        0.72010    0.83870    0.82520    1.000
    H7       H        0.68780    0.81140    0.82890    1.000
    C25      C        0.73220    0.86590    0.77730    1.000
    C26      C        0.77800    0.91240    0.76850    1.000
    C27      C        0.81210    0.92490    0.81250    1.000
    C28      C        0.80390    0.89430    0.86160    1.000
    H8       H        0.82940    0.90180    0.88890    1.000
    C29      C        0.79180    0.94130    0.71560    1.000
    C30      C        0.77380    0.02450    0.69460    1.000
    C31      C        0.78730    0.05580    0.64880    1.000
    H9       H        0.77540    0.11160    0.63710    1.000
    C32      C        0.81820    0.00610    0.61980    1.000
    C33      C        0.83710    0.92330    0.63860    1.000
    H10      H        0.85890    0.88900    0.61960    1.000
    C34      C        0.82320    0.89320    0.68550    1.000
    C35      C        0.83470    0.03840    0.56790    1.000
    C36      C        0.86910    0.68250    0.88740    1.000
    C37      C        0.90780    0.69130    0.84590    1.000
    C38      C        0.90420    0.63610    0.80430    1.000
    H11      H        0.87800    0.59270    0.80100    1.000
    C39      C        0.93930    0.64420    0.76680    1.000
    C40      C        0.98010    0.70650    0.76960    1.000
    C41      C        0.98250    0.76270    0.81310    1.000
    C42      C        0.94700    0.75550    0.85070    1.000
    H12      H        0.94970    0.79370    0.87890    1.000
    N7       N        0.86270    0.97200    0.80820    1.000
    N8       N        0.69270    0.84490    0.73470    1.000
    N9       N        0.73980    0.08180    0.72410    1.000
    N10      N        0.84320    0.80110    0.70080    1.000
    N11      N        0.02480    0.82860    0.82280    1.000
    N12      N        0.93170    0.58490    0.72200    1.000
    O19      O        0.77780    0.82010    0.95550    1.000
    O20      O        0.69580    0.79190    0.92370    1.000
    O21      O        0.90100    0.94710    0.83700    1.000
    O22      O        0.86330    0.03360    0.77810    1.000
    O23      O        0.64860    0.82070    0.74390    1.000
    O24      O        0.70650    0.84540    0.69010    1.000
    O25      O        0.84630    0.78750    0.74670    1.000
    O26      O        0.85630    0.75080    0.66820    1.000
    O27      O        0.70460    0.04620    0.74450    1.000
    O28      O        0.75130    0.16240    0.72550    1.000
    O29      O        0.86870    0.99230    0.54860    1.000
    O30      O        0.81430    0.10880    0.55060    1.000
    O31      O        0.87820    0.73040    0.92600    1.000
    O32      O        0.83210    0.62980    0.87900    1.000
    O33      O        0.03420    0.85690    0.86520    1.000
    O34      O        0.04840    0.85260    0.78590    1.000
    O35      O        0.91210    0.51210    0.72980    1.000
    O36      O        0.94310    0.61160    0.68020    1.000
    Gd3      Gd       0.65176    0.26371    0.49342    1.000
    C43      C        0.75680    0.31970    0.57990    1.000
    C44      C        0.74450    0.35150    0.63170    1.000
    C45      C        0.77990    0.33870    0.67480    1.000
    H13      H        0.81220    0.31140    0.67110    1.000
    C46      C        0.76780    0.36590    0.72270    1.000
    C47      C        0.72200    0.41240    0.73150    1.000
    C48      C        0.68790    0.42490    0.68750    1.000
    C49      C        0.69610    0.39430    0.63840    1.000
    H14      H        0.67060    0.40180    0.61110    1.000
    C50      C        0.70820    0.44130    0.78440    1.000
    C51      C        0.72620    0.52450    0.80540    1.000
    C52      C        0.71270    0.55580    0.85120    1.000
    H15      H        0.72460    0.61160    0.86290    1.000
    C53      C        0.68180    0.50610    0.88020    1.000
    C54      C        0.66290    0.42330    0.86140    1.000
    H16      H        0.64110    0.38900    0.88040    1.000
    C55      C        0.67680    0.39320    0.81450    1.000
    C56      C        0.66530    0.53840    0.93210    1.000
    C57      C        0.63090    0.18250    0.61260    1.000
    C58      C        0.59220    0.19130    0.65410    1.000
    C59      C        0.59580    0.13610    0.69570    1.000
    H17      H        0.62200    0.09270    0.69900    1.000
    C60      C        0.56070    0.14420    0.73320    1.000
    C61      C        0.51990    0.20650    0.73040    1.000
    C62      C        0.51750    0.26270    0.68690    1.000
    C63      C        0.55300    0.25550    0.64930    1.000
    H18      H        0.55030    0.29370    0.62110    1.000
    N13      N        0.63730    0.47200    0.69180    1.000
    N14      N        0.80730    0.34490    0.76530    1.000
    N15      N        0.76020    0.58180    0.77590    1.000
    N16      N        0.65680    0.30110    0.79920    1.000
    N17      N        0.47520    0.32860    0.67720    1.000
    N18      N        0.56830    0.08490    0.77800    1.000
    O37      O        0.72220    0.32010    0.54450    1.000
    O38      O        0.80420    0.29190    0.57630    1.000
    O39      O        0.59900    0.44710    0.66300    1.000
    O40      O        0.63670    0.53360    0.72190    1.000
    O41      O        0.85140    0.32070    0.75610    1.000
    O42      O        0.79350    0.34540    0.80990    1.000
    O43      O        0.65370    0.28750    0.75330    1.000
    O44      O        0.64370    0.25080    0.83180    1.000
    O45      O        0.79540    0.54620    0.75550    1.000
    O46      O        0.74870    0.66240    0.77450    1.000
    O47      O        0.63130    0.49230    0.95140    1.000
    O48      O        0.68570    0.60880    0.94940    1.000
    O49      O        0.62180    0.23040    0.57400    1.000
    O50      O        0.66790    0.12980    0.62100    1.000
    O51      O        0.46580    0.35690    0.63480    1.000
    O52      O        0.45160    0.35260    0.71410    1.000
    O53      O        0.58790    0.01210    0.77020    1.000
    O54      O        0.55690    0.11160    0.81980    1.000
    Gd4      Gd       0.15176    0.76371    0.49342    1.000
    C64      C        0.25680    0.81970    0.57990    1.000
    C65      C        0.24450    0.85150    0.63170    1.000
    C66      C        0.27990    0.83870    0.67480    1.000
    H19      H        0.31220    0.81140    0.67110    1.000
    C67      C        0.26780    0.86590    0.72270    1.000
    C68      C        0.22200    0.91240    0.73150    1.000
    C69      C        0.18790    0.92490    0.68750    1.000
    C70      C        0.19610    0.89430    0.63840    1.000
    H20      H        0.17060    0.90180    0.61110    1.000
    C71      C        0.20820    0.94130    0.78440    1.000
    C72      C        0.22620    0.02450    0.80540    1.000
    C73      C        0.21270    0.05580    0.85120    1.000
    H21      H        0.22460    0.11160    0.86290    1.000
    C74      C        0.18180    0.00610    0.88020    1.000
    C75      C        0.16290    0.92330    0.86140    1.000
    H22      H        0.14110    0.88900    0.88040    1.000
    C76      C        0.17680    0.89320    0.81450    1.000
    C77      C        0.16530    0.03840    0.93210    1.000
    C78      C        0.13090    0.68250    0.61260    1.000
    C79      C        0.09220    0.69130    0.65410    1.000
    C80      C        0.09580    0.63610    0.69570    1.000
    H23      H        0.12200    0.59270    0.69900    1.000
    C81      C        0.06070    0.64420    0.73320    1.000
    C82      C        0.01990    0.70650    0.73040    1.000
    C83      C        0.01750    0.76270    0.68690    1.000
    C84      C        0.05300    0.75550    0.64930    1.000
    H24      H        0.05030    0.79370    0.62110    1.000
    N19      N        0.13730    0.97200    0.69180    1.000
    N20      N        0.30730    0.84490    0.76530    1.000
    N21      N        0.26020    0.08180    0.77590    1.000
    N22      N        0.15680    0.80110    0.79920    1.000
    N23      N        0.97520    0.82860    0.67720    1.000
    N24      N        0.06830    0.58490    0.77800    1.000
    O55      O        0.22220    0.82010    0.54450    1.000
    O56      O        0.30420    0.79190    0.57630    1.000
    O57      O        0.09900    0.94710    0.66300    1.000
    O58      O        0.13670    0.03360    0.72190    1.000
    O59      O        0.35140    0.82070    0.75610    1.000
    O60      O        0.29350    0.84540    0.80990    1.000
    O61      O        0.15370    0.78750    0.75330    1.000
    O62      O        0.14370    0.75080    0.83180    1.000
    O63      O        0.29540    0.04620    0.75550    1.000
    O64      O        0.24870    0.16240    0.77450    1.000
    O65      O        0.13130    0.99230    0.95140    1.000
    O66      O        0.18570    0.10880    0.94940    1.000
    O67      O        0.12180    0.73040    0.57400    1.000
    O68      O        0.16790    0.62980    0.62100    1.000
    O69      O        0.96580    0.85690    0.63480    1.000
    O70      O        0.95160    0.85260    0.71410    1.000
    O71      O        0.08790    0.51210    0.77020    1.000
    O72      O        0.05690    0.61160    0.81980    1.000
    Gd5      Gd       0.65176    0.73629    0.99342    1.000
    C85      C        0.75680    0.68030    0.07990    1.000
    C86      C        0.74450    0.64850    0.13170    1.000
    C87      C        0.77990    0.66130    0.17480    1.000
    H25      H        0.81220    0.68860    0.17110    1.000
    C88      C        0.76780    0.63410    0.22270    1.000
    C89      C        0.72200    0.58760    0.23150    1.000
    C90      C        0.68790    0.57510    0.18750    1.000
    C91      C        0.69610    0.60570    0.13840    1.000
    H26      H        0.67060    0.59820    0.11110    1.000
    C92      C        0.70820    0.55870    0.28440    1.000
    C93      C        0.72620    0.47550    0.30540    1.000
    C94      C        0.71270    0.44420    0.35120    1.000
    H27      H        0.72460    0.38840    0.36290    1.000
    C95      C        0.68180    0.49390    0.38020    1.000
    C96      C        0.66290    0.57670    0.36140    1.000
    H28      H        0.64110    0.61100    0.38040    1.000
    C97      C        0.67680    0.60680    0.31450    1.000
    C98      C        0.66530    0.46160    0.43210    1.000
    C99      C        0.63090    0.81750    0.11260    1.000
    C100     C        0.59220    0.80870    0.15410    1.000
    C101     C        0.59580    0.86390    0.19570    1.000
    H29      H        0.62200    0.90730    0.19900    1.000
    C102     C        0.56070    0.85580    0.23320    1.000
    C103     C        0.51990    0.79350    0.23040    1.000
    C104     C        0.51750    0.73730    0.18690    1.000
    C105     C        0.55300    0.74450    0.14930    1.000
    H30      H        0.55030    0.70630    0.12110    1.000
    N25      N        0.63730    0.52800    0.19180    1.000
    N26      N        0.80730    0.65510    0.26530    1.000
    N27      N        0.76020    0.41820    0.27590    1.000
    N28      N        0.65680    0.69890    0.29920    1.000
    N29      N        0.47520    0.67140    0.17720    1.000
    N30      N        0.56830    0.91510    0.27800    1.000
    O73      O        0.72220    0.67990    0.04450    1.000
    O74      O        0.80420    0.70810    0.07630    1.000
    O75      O        0.59900    0.55290    0.16300    1.000
    O76      O        0.63670    0.46640    0.22190    1.000
    O77      O        0.85140    0.67930    0.25610    1.000
    O78      O        0.79350    0.65460    0.30990    1.000
    O79      O        0.65370    0.71250    0.25330    1.000
    O80      O        0.64370    0.74920    0.33180    1.000
    O81      O        0.79540    0.45380    0.25550    1.000
    O82      O        0.74870    0.33760    0.27450    1.000
    O83      O        0.63130    0.50770    0.45140    1.000
    O84      O        0.68570    0.39120    0.44940    1.000
    O85      O        0.62180    0.76960    0.07400    1.000
    O86      O        0.66790    0.87020    0.12100    1.000
    O87      O        0.46580    0.64310    0.13480    1.000
    O88      O        0.45160    0.64740    0.21410    1.000
    O89      O        0.58790    0.98790    0.27020    1.000
    O90      O        0.55690    0.88840    0.31980    1.000
    Gd6      Gd       0.15176    0.23629    0.99342    1.000
    C106     C        0.25680    0.18030    0.07990    1.000
    C107     C        0.24450    0.14850    0.13170    1.000
    C108     C        0.27990    0.16130    0.17480    1.000
    H31      H        0.31220    0.18860    0.17110    1.000
    C109     C        0.26780    0.13410    0.22270    1.000
    C110     C        0.22200    0.08760    0.23150    1.000
    C111     C        0.18790    0.07510    0.18750    1.000
    C112     C        0.19610    0.10570    0.13840    1.000
    H32      H        0.17060    0.09820    0.11110    1.000
    C113     C        0.20820    0.05870    0.28440    1.000
    C114     C        0.22620    0.97550    0.30540    1.000
    C115     C        0.21270    0.94420    0.35120    1.000
    H33      H        0.22460    0.88840    0.36290    1.000
    C116     C        0.18180    0.99390    0.38020    1.000
    C117     C        0.16290    0.07670    0.36140    1.000
    H34      H        0.14110    0.11100    0.38040    1.000
    C118     C        0.17680    0.10680    0.31450    1.000
    C119     C        0.16530    0.96160    0.43210    1.000
    C120     C        0.13090    0.31750    0.11260    1.000
    C121     C        0.09220    0.30870    0.15410    1.000
    C122     C        0.09580    0.36390    0.19570    1.000
    H35      H        0.12200    0.40730    0.19900    1.000
    C123     C        0.06070    0.35580    0.23320    1.000
    C124     C        0.01990    0.29350    0.23040    1.000
    C125     C        0.01750    0.23730    0.18690    1.000
    C126     C        0.05300    0.24450    0.14930    1.000
    H36      H        0.05030    0.20630    0.12110    1.000
    N31      N        0.13730    0.02800    0.19180    1.000
    N32      N        0.30730    0.15510    0.26530    1.000
    N33      N        0.26020    0.91820    0.27590    1.000
    N34      N        0.15680    0.19890    0.29920    1.000
    N35      N        0.97520    0.17140    0.17720    1.000
    N36      N        0.06830    0.41510    0.27800    1.000
    O91      O        0.22220    0.17990    0.04450    1.000
    O92      O        0.30420    0.20810    0.07630    1.000
    O93      O        0.09900    0.05290    0.16300    1.000
    O94      O        0.13670    0.96640    0.22190    1.000
    O95      O        0.35140    0.17930    0.25610    1.000
    O96      O        0.29350    0.15460    0.30990    1.000
    O97      O        0.15370    0.21250    0.25330    1.000
    O98      O        0.14370    0.24920    0.33180    1.000
    O99      O        0.29540    0.95380    0.25550    1.000
    O100     O        0.24870    0.83760    0.27450    1.000
    O101     O        0.13130    0.00770    0.45140    1.000
    O102     O        0.18570    0.89120    0.44940    1.000
    O103     O        0.12180    0.26960    0.07400    1.000
    O104     O        0.16790    0.37020    0.12100    1.000
    O105     O        0.96580    0.14310    0.13480    1.000
    O106     O        0.95160    0.14740    0.21410    1.000
    O107     O        0.08790    0.48790    0.27020    1.000
    O108     O        0.05690    0.38840    0.31980    1.000
    Gd7      Gd       0.34824    0.73629    0.50658    1.000
    C127     C        0.24320    0.68030    0.42010    1.000
    C128     C        0.25550    0.64850    0.36830    1.000
    C129     C        0.22010    0.66130    0.32520    1.000
    H37      H        0.18780    0.68860    0.32890    1.000
    C130     C        0.23220    0.63410    0.27730    1.000
    C131     C        0.27800    0.58760    0.26850    1.000
    C132     C        0.31210    0.57510    0.31250    1.000
    C133     C        0.30390    0.60570    0.36160    1.000
    H38      H        0.32940    0.59820    0.38890    1.000
    C134     C        0.29180    0.55870    0.21560    1.000
    C135     C        0.27380    0.47550    0.19460    1.000
    C136     C        0.28730    0.44420    0.14880    1.000
    H39      H        0.27540    0.38840    0.13710    1.000
    C137     C        0.31820    0.49390    0.11980    1.000
    C138     C        0.33710    0.57670    0.13860    1.000
    H40      H        0.35890    0.61100    0.11960    1.000
    C139     C        0.32320    0.60680    0.18550    1.000
    C140     C        0.33470    0.46160    0.06790    1.000
    C141     C        0.36910    0.81750    0.38740    1.000
    C142     C        0.40780    0.80870    0.34590    1.000
    C143     C        0.40420    0.86390    0.30430    1.000
    H41      H        0.37800    0.90730    0.30100    1.000
    C144     C        0.43930    0.85580    0.26680    1.000
    C145     C        0.48010    0.79350    0.26960    1.000
    C146     C        0.48250    0.73730    0.31310    1.000
    C147     C        0.44700    0.74450    0.35070    1.000
    H42      H        0.44970    0.70630    0.37890    1.000
    N37      N        0.36270    0.52800    0.30820    1.000
    N38      N        0.19270    0.65510    0.23470    1.000
    N39      N        0.23980    0.41820    0.22410    1.000
    N40      N        0.34320    0.69890    0.20080    1.000
    N41      N        0.52480    0.67140    0.32280    1.000
    N42      N        0.43170    0.91510    0.22200    1.000
    O109     O        0.27780    0.67990    0.45550    1.000
    O110     O        0.19580    0.70810    0.42370    1.000
    O111     O        0.40100    0.55290    0.33700    1.000
    O112     O        0.36330    0.46640    0.27810    1.000
    O113     O        0.14860    0.67930    0.24390    1.000
    O114     O        0.20650    0.65460    0.19010    1.000
    O115     O        0.34630    0.71250    0.24670    1.000
    O116     O        0.35630    0.74920    0.16820    1.000
    O117     O        0.20460    0.45380    0.24450    1.000
    O118     O        0.25130    0.33760    0.22550    1.000
    O119     O        0.36870    0.50770    0.04860    1.000
    O120     O        0.31430    0.39120    0.05060    1.000
    O121     O        0.37820    0.76960    0.42600    1.000
    O122     O        0.33210    0.87020    0.37900    1.000
    O123     O        0.53420    0.64310    0.36520    1.000
    O124     O        0.54840    0.64740    0.28590    1.000
    O125     O        0.41210    0.98790    0.22980    1.000
    O126     O        0.44310    0.88840    0.18020    1.000
    Gd8      Gd       0.84824    0.23629    0.50658    1.000
    C148     C        0.74320    0.18030    0.42010    1.000
    C149     C        0.75550    0.14850    0.36830    1.000
    C150     C        0.72010    0.16130    0.32520    1.000
    H43      H        0.68780    0.18860    0.32890    1.000
    C151     C        0.73220    0.13410    0.27730    1.000
    C152     C        0.77800    0.08760    0.26850    1.000
    C153     C        0.81210    0.07510    0.31250    1.000
    C154     C        0.80390    0.10570    0.36160    1.000
    H44      H        0.82940    0.09820    0.38890    1.000
    C155     C        0.79180    0.05870    0.21560    1.000
    C156     C        0.77380    0.97550    0.19460    1.000
    C157     C        0.78730    0.94420    0.14880    1.000
    H45      H        0.77540    0.88840    0.13710    1.000
    C158     C        0.81820    0.99390    0.11980    1.000
    C159     C        0.83710    0.07670    0.13860    1.000
    H46      H        0.85890    0.11100    0.11960    1.000
    C160     C        0.82320    0.10680    0.18550    1.000
    C161     C        0.83470    0.96160    0.06790    1.000
    C162     C        0.86910    0.31750    0.38740    1.000
    C163     C        0.90780    0.30870    0.34590    1.000
    C164     C        0.90420    0.36390    0.30430    1.000
    H47      H        0.87800    0.40730    0.30100    1.000
    C165     C        0.93930    0.35580    0.26680    1.000
    C166     C        0.98010    0.29350    0.26960    1.000
    C167     C        0.98250    0.23730    0.31310    1.000
    C168     C        0.94700    0.24450    0.35070    1.000
    H48      H        0.94970    0.20630    0.37890    1.000
    N43      N        0.86270    0.02800    0.30820    1.000
    N44      N        0.69270    0.15510    0.23470    1.000
    N45      N        0.73980    0.91820    0.22410    1.000
    N46      N        0.84320    0.19890    0.20080    1.000
    N47      N        0.02480    0.17140    0.32280    1.000
    N48      N        0.93170    0.41510    0.22200    1.000
    O127     O        0.77780    0.17990    0.45550    1.000
    O128     O        0.69580    0.20810    0.42370    1.000
    O129     O        0.90100    0.05290    0.33700    1.000
    O130     O        0.86330    0.96640    0.27810    1.000
    O131     O        0.64860    0.17930    0.24390    1.000
    O132     O        0.70650    0.15460    0.19010    1.000
    O133     O        0.84630    0.21250    0.24670    1.000
    O134     O        0.85630    0.24920    0.16820    1.000
    O135     O        0.70460    0.95380    0.24450    1.000
    O136     O        0.75130    0.83760    0.22550    1.000
    O137     O        0.86870    0.00770    0.04860    1.000
    O138     O        0.81430    0.89120    0.05060    1.000
    O139     O        0.87820    0.26960    0.42600    1.000
    O140     O        0.83210    0.37020    0.37900    1.000
    O141     O        0.03420    0.14310    0.36520    1.000
    O142     O        0.04840    0.14740    0.28590    1.000
    O143     O        0.91210    0.48790    0.22980    1.000
    O144     O        0.94310    0.38840    0.18020    1.000
