data_functionalizedCrystal
_audit_creation_method	'EQeq! by Chris Wilmer'
_symmetry_space_group_name_H-M	'P1'
_symmetry_Int_Tables_number	1
_symmetry_cell_setting	triclinic
loop_
_symmetry_equiv_pos_as_xyz
  x,y,z
_cell_length_a	9.4611
_cell_length_b	13.424
_cell_length_c	13.453
_cell_angle_alpha	67.36
_cell_angle_beta	70.649
_cell_angle_gamma	88.418
loop_
_atom_site_label
_atom_site_type_symbol
_atom_site_fract_x
_atom_site_fract_y
_atom_site_fract_z
_atom_site_charge
Mof_U 	U 	0.97713	0.07786	0.34607	0.008
Mof_P 	P 	0.26631	0.14845	0.38341	0.417
Mof_U 	U 	0.29129	0.32084	0.07727	0.009
Mof_P 	P 	0.52524	0.43247	0.18082	0.453
Mof_P 	P 	0.72121	0.94458	0.28023	0.461
Mof_O 	O 	0.1359	0.0562	0.4668	-0.155
Mof_P 	P 	0.99951	0.25095	0.04756	0.418
Mof_O 	O 	0.2156	0.198	0.2778	-0.156
Mof_O 	O 	0.048	0.1967	0.1548	-0.151
Mof_O 	O 	0.7658	0.0231	0.3248	-0.211
Mof_C 	C 	0.4307	0.01	0.2898	0.092
Mof_H 	H 	0.364	0.0335	0.2437	0.04
Mof_H 	H 	0.3852	0.9383	0.3526	0.04
Mof_C 	C 	0.6771	0.3887	0.2332	-0.318
Mof_H 	H 	0.6939	0.4374	0.2689	0.157
Mof_H 	H 	0.6435	0.3151	0.295	0.136
Mof_O 	O 	0.4853	0.3542	0.1346	-0.198
Mof_C 	C 	0.8294	0.3848	0.148	0.104
Mof_H 	H 	0.9039	0.3665	0.1876	0.034
Mof_H 	H 	0.8645	0.4578	0.0851	0.034
Mof_O 	O 	0.1298	0.3383	0.964	-0.179
Mof_C 	C 	0.5854	0.9976	0.2133	-0.307
Mof_H 	H 	0.6295	0.0699	0.1513	0.142
Mof_H 	H 	0.5695	0.9497	0.1765	0.155
Mof_C 	C 	0.8243	0.3021	0.096	-0.302
Mof_H 	H 	0.789	0.3364	0.0303	0.151
Mof_H 	H 	0.7487	0.24	0.1543	0.136
Mof_O 	O 	0.5626	0.5497	0.0959	-0.163
Mof_C 	C 	0.4384	0.0919	0.3421	-0.29
Mof_H 	H 	0.5185	0.1518	0.2857	0.129
Mof_H 	H 	0.4678	0.0555	0.4106	0.133
Mof_O 	O 	0.9669	0.1681	0.0041	-0.176
Mof_O 	O 	0.8543	0.9234	0.1936	-0.171
Mof_O 	O 	0.3893	0.4313	0.2878	-0.381
Mof_H 	H 	0.363	0.3674	0.3374	0.277
Mof_O 	O 	0.6398	0.8355	0.3825	-0.405
Mof_H 	H 	0.6709	0.825	0.437	0.286
Mof_O 	O 	0.2886	0.2273	0.4332	-0.256
Mof_U 	U 	0.02287	0.92214	0.65393	0.007
Mof_P 	P 	0.73369	0.85155	0.61659	0.417
Mof_U 	U 	0.70871	0.67915	0.92273	0.01
Mof_P 	P 	0.47476	0.56753	0.81918	0.453
Mof_P 	P 	0.27879	0.05542	0.71977	0.461
Mof_O 	O 	0.8641	0.9438	0.5332	-0.154
Mof_P 	P 	0.00049	0.74905	0.95244	0.417
Mof_O 	O 	0.7844	0.802	0.7222	-0.156
Mof_O 	O 	0.952	0.8033	0.8452	-0.149
Mof_O 	O 	0.2342	0.9769	0.6752	-0.211
Mof_C 	C 	0.5693	0.99	0.7102	0.096
Mof_H 	H 	0.636	0.9665	0.7563	0.039
Mof_H 	H 	0.6148	0.0617	0.6474	0.039
Mof_C 	C 	0.3229	0.6113	0.7668	-0.318
Mof_H 	H 	0.3061	0.5626	0.7311	0.157
Mof_H 	H 	0.3565	0.6849	0.705	0.136
Mof_O 	O 	0.5147	0.6458	0.8654	-0.198
Mof_C 	C 	0.1706	0.6152	0.852	0.104
Mof_H 	H 	0.0961	0.6335	0.8124	0.033
Mof_H 	H 	0.1355	0.5422	0.9149	0.034
Mof_O 	O 	0.8702	0.6617	0.036	-0.18
Mof_C 	C 	0.4146	0.0024	0.7867	-0.311
Mof_H 	H 	0.3705	0.9301	0.8487	0.143
Mof_H 	H 	0.4305	0.0503	0.8235	0.157
Mof_C 	C 	0.1757	0.6979	0.904	-0.302
Mof_H 	H 	0.211	0.6636	0.9697	0.151
Mof_H 	H 	0.2513	0.76	0.8457	0.136
Mof_O 	O 	0.4374	0.4503	0.9041	-0.162
Mof_C 	C 	0.5616	0.9081	0.6579	-0.292
Mof_H 	H 	0.4815	0.8482	0.7143	0.129
Mof_H 	H 	0.5322	0.9445	0.5894	0.134
Mof_O 	O 	0.0331	0.8319	0.9959	-0.176
Mof_O 	O 	0.1457	0.0766	0.8064	-0.171
Mof_O 	O 	0.6107	0.5687	0.7122	-0.381
Mof_H 	H 	0.637	0.6326	0.6626	0.277
Mof_O 	O 	0.3602	0.1645	0.6175	-0.405
Mof_H 	H 	0.3291	0.175	0.563	0.286
Mof_O 	O 	0.7114	0.7727	0.5668	-0.256
Mof_U 	U 	-0	0	-0	0.013
_end
