# CIF file generated by openbabel 3.1.0, see https://openbabel.org
data_I
_chemical_name_common 'image0'
_cell_length_a 20.5138
_cell_length_b 20.5138
_cell_length_c 17.81
_cell_angle_alpha 90
_cell_angle_beta 90
_cell_angle_gamma 90
_space_group_name_H-M_alt 'P 1'
_space_group_name_Hall 'P 1'
loop_
    _symmetry_equiv_pos_as_xyz
    x,y,z
loop_
    _atom_site_label
    _atom_site_type_symbol
    _atom_site_fract_x
    _atom_site_fract_y
    _atom_site_fract_z
    _atom_site_occupancy
    Zn1      Zn       0.25748    0.11945    0.33239    1.000
    O1       O        0.23520    0.12950    0.22690    1.000
    O2       O        0.31290    0.05620    0.21420    1.000
    O3       O        0.33707    0.94511    0.96920    1.000
    O4       O        0.25740    0.96530    0.88430    1.000
    O5       O        0.17330    0.19184    0.88438    1.000
    O6       O        0.16030    0.24205    0.99391    1.000
    C1       C        0.27130    0.09310    0.18730    1.000
    C2       C        0.26070    0.09320    0.10400    1.000
    C3       C        0.28360    0.04054    0.06210    1.000
    H1       H        0.30740    0.00770    0.08540    1.000
    C4       C        0.27090    0.03711    0.98520    1.000
    C5       C        0.23740    0.08750    0.95130    1.000
    H2       H        0.22890    0.08550    0.90010    1.000
    C6       C        0.21600    0.14120    0.99210    1.000
    C7       C        0.22670    0.14340    0.06920    1.000
    H3       H        0.21130    0.17830    0.09740    1.000
    C8       C        0.29140    0.97810    0.94240    1.000
    C9       C        0.18110    0.19650    0.95450    1.000
    Zn2      Zn       0.34320    0.08059    0.30964    1.000
    Zn3      Zn       0.75748    0.61945    0.83239    1.000
    O7       O        0.73520    0.62950    0.72690    1.000
    O8       O        0.81290    0.55620    0.71420    1.000
    O9       O        0.83707    0.44511    0.46920    1.000
    O10      O        0.75740    0.46530    0.38430    1.000
    O11      O        0.67330    0.69184    0.38438    1.000
    O12      O        0.66030    0.74205    0.49391    1.000
    C10      C        0.77130    0.59310    0.68730    1.000
    C11      C        0.76070    0.59320    0.60400    1.000
    C12      C        0.78360    0.54054    0.56210    1.000
    H4       H        0.80740    0.50770    0.58540    1.000
    C13      C        0.77090    0.53711    0.48520    1.000
    C14      C        0.73740    0.58750    0.45130    1.000
    H5       H        0.72890    0.58550    0.40010    1.000
    C15      C        0.71600    0.64120    0.49210    1.000
    C16      C        0.72670    0.64340    0.56920    1.000
    H6       H        0.71130    0.67830    0.59740    1.000
    C17      C        0.79140    0.47810    0.44240    1.000
    C18      C        0.68110    0.69650    0.45450    1.000
    Zn4      Zn       0.84320    0.58059    0.80964    1.000
    Zn5      Zn       0.74252    0.88055    0.33239    1.000
    O13      O        0.76480    0.87050    0.22690    1.000
    O14      O        0.68710    0.94380    0.21420    1.000
    O15      O        0.66293    0.05489    0.96920    1.000
    O16      O        0.74260    0.03470    0.88430    1.000
    O17      O        0.82670    0.80816    0.88438    1.000
    O18      O        0.83970    0.75795    0.99391    1.000
    C19      C        0.72870    0.90690    0.18730    1.000
    C20      C        0.73930    0.90680    0.10400    1.000
    C21      C        0.71640    0.95946    0.06210    1.000
    H7       H        0.69260    0.99230    0.08540    1.000
    C22      C        0.72910    0.96289    0.98520    1.000
    C23      C        0.76260    0.91250    0.95130    1.000
    H8       H        0.77110    0.91450    0.90010    1.000
    C24      C        0.78400    0.85880    0.99210    1.000
    C25      C        0.77330    0.85660    0.06920    1.000
    H9       H        0.78870    0.82170    0.09740    1.000
    C26      C        0.70860    0.02190    0.94240    1.000
    C27      C        0.81890    0.80350    0.95450    1.000
    Zn6      Zn       0.65680    0.91941    0.30964    1.000
    Zn7      Zn       0.24252    0.38055    0.83239    1.000
    O19      O        0.26480    0.37050    0.72690    1.000
    O20      O        0.18710    0.44380    0.71420    1.000
    O21      O        0.16293    0.55489    0.46920    1.000
    O22      O        0.24260    0.53470    0.38430    1.000
    O23      O        0.32670    0.30816    0.38438    1.000
    O24      O        0.33970    0.25795    0.49391    1.000
    C28      C        0.22870    0.40690    0.68730    1.000
    C29      C        0.23930    0.40680    0.60400    1.000
    C30      C        0.21640    0.45946    0.56210    1.000
    H10      H        0.19260    0.49230    0.58540    1.000
    C31      C        0.22910    0.46289    0.48520    1.000
    C32      C        0.26260    0.41250    0.45130    1.000
    H11      H        0.27110    0.41450    0.40010    1.000
    C33      C        0.28400    0.35880    0.49210    1.000
    C34      C        0.27330    0.35660    0.56920    1.000
    H12      H        0.28870    0.32170    0.59740    1.000
    C35      C        0.20860    0.52190    0.44240    1.000
    C36      C        0.31890    0.30350    0.45450    1.000
    Zn8      Zn       0.15680    0.41941    0.80964    1.000
    Zn9      Zn       0.88055    0.25748    0.33239    1.000
    O25      O        0.87050    0.23520    0.22690    1.000
    O26      O        0.94380    0.31290    0.21420    1.000
    O27      O        0.05489    0.33707    0.96920    1.000
    O28      O        0.03470    0.25740    0.88430    1.000
    O29      O        0.80816    0.17330    0.88438    1.000
    O30      O        0.75795    0.16030    0.99391    1.000
    C37      C        0.90690    0.27130    0.18730    1.000
    C38      C        0.90680    0.26070    0.10400    1.000
    C39      C        0.95946    0.28360    0.06210    1.000
    H13      H        0.99230    0.30740    0.08540    1.000
    C40      C        0.96289    0.27090    0.98520    1.000
    C41      C        0.91250    0.23740    0.95130    1.000
    H14      H        0.91450    0.22890    0.90010    1.000
    C42      C        0.85880    0.21600    0.99210    1.000
    C43      C        0.85660    0.22670    0.06920    1.000
    H15      H        0.82170    0.21130    0.09740    1.000
    C44      C        0.02190    0.29140    0.94240    1.000
    C45      C        0.80350    0.18110    0.95450    1.000
    Zn10     Zn       0.91941    0.34320    0.30964    1.000
    Zn11     Zn       0.38055    0.75748    0.83239    1.000
    O31      O        0.37050    0.73520    0.72690    1.000
    O32      O        0.44380    0.81290    0.71420    1.000
    O33      O        0.55489    0.83707    0.46920    1.000
    O34      O        0.53470    0.75740    0.38430    1.000
    O35      O        0.30816    0.67330    0.38438    1.000
    O36      O        0.25795    0.66030    0.49391    1.000
    C46      C        0.40690    0.77130    0.68730    1.000
    C47      C        0.40680    0.76070    0.60400    1.000
    C48      C        0.45946    0.78360    0.56210    1.000
    H16      H        0.49230    0.80740    0.58540    1.000
    C49      C        0.46289    0.77090    0.48520    1.000
    C50      C        0.41250    0.73740    0.45130    1.000
    H17      H        0.41450    0.72890    0.40010    1.000
    C51      C        0.35880    0.71600    0.49210    1.000
    C52      C        0.35660    0.72670    0.56920    1.000
    H18      H        0.32170    0.71130    0.59740    1.000
    C53      C        0.52190    0.79140    0.44240    1.000
    C54      C        0.30350    0.68110    0.45450    1.000
    Zn12     Zn       0.41941    0.84320    0.80964    1.000
    Zn13     Zn       0.11945    0.74252    0.33239    1.000
    O37      O        0.12950    0.76480    0.22690    1.000
    O38      O        0.05620    0.68710    0.21420    1.000
    O39      O        0.94511    0.66293    0.96920    1.000
    O40      O        0.96530    0.74260    0.88430    1.000
    O41      O        0.19184    0.82670    0.88438    1.000
    O42      O        0.24205    0.83970    0.99391    1.000
    C55      C        0.09310    0.72870    0.18730    1.000
    C56      C        0.09320    0.73930    0.10400    1.000
    C57      C        0.04054    0.71640    0.06210    1.000
    H19      H        0.00770    0.69260    0.08540    1.000
    C58      C        0.03711    0.72910    0.98520    1.000
    C59      C        0.08750    0.76260    0.95130    1.000
    H20      H        0.08550    0.77110    0.90010    1.000
    C60      C        0.14120    0.78400    0.99210    1.000
    C61      C        0.14340    0.77330    0.06920    1.000
    H21      H        0.17830    0.78870    0.09740    1.000
    C62      C        0.97810    0.70860    0.94240    1.000
    C63      C        0.19650    0.81890    0.95450    1.000
    Zn14     Zn       0.08059    0.65680    0.30964    1.000
    Zn15     Zn       0.61945    0.24252    0.83239    1.000
    O43      O        0.62950    0.26480    0.72690    1.000
    O44      O        0.55620    0.18710    0.71420    1.000
    O45      O        0.44511    0.16293    0.46920    1.000
    O46      O        0.46530    0.24260    0.38430    1.000
    O47      O        0.69184    0.32670    0.38438    1.000
    O48      O        0.74205    0.33970    0.49391    1.000
    C64      C        0.59310    0.22870    0.68730    1.000
    C65      C        0.59320    0.23930    0.60400    1.000
    C66      C        0.54054    0.21640    0.56210    1.000
    H22      H        0.50770    0.19260    0.58540    1.000
    C67      C        0.53711    0.22910    0.48520    1.000
    C68      C        0.58750    0.26260    0.45130    1.000
    H23      H        0.58550    0.27110    0.40010    1.000
    C69      C        0.64120    0.28400    0.49210    1.000
    C70      C        0.64340    0.27330    0.56920    1.000
    H24      H        0.67830    0.28870    0.59740    1.000
    C71      C        0.47810    0.20860    0.44240    1.000
    C72      C        0.69650    0.31890    0.45450    1.000
    Zn16     Zn       0.58059    0.15680    0.80964    1.000
    Zn17     Zn       0.25748    0.88055    0.83239    1.000
    O49      O        0.23520    0.87050    0.72690    1.000
    O50      O        0.31290    0.94380    0.71420    1.000
    O51      O        0.33707    0.05489    0.46920    1.000
    O52      O        0.25740    0.03470    0.38430    1.000
    O53      O        0.17330    0.80816    0.38438    1.000
    O54      O        0.16030    0.75795    0.49391    1.000
    C73      C        0.27130    0.90690    0.68730    1.000
    C74      C        0.26070    0.90680    0.60400    1.000
    C75      C        0.28360    0.95946    0.56210    1.000
    H25      H        0.30740    0.99230    0.58540    1.000
    C76      C        0.27090    0.96289    0.48520    1.000
    C77      C        0.23740    0.91250    0.45130    1.000
    H26      H        0.22890    0.91450    0.40010    1.000
    C78      C        0.21600    0.85880    0.49210    1.000
    C79      C        0.22670    0.85660    0.56920    1.000
    H27      H        0.21130    0.82170    0.59740    1.000
    C80      C        0.29140    0.02190    0.44240    1.000
    C81      C        0.18110    0.80350    0.45450    1.000
    Zn18     Zn       0.34320    0.91941    0.80964    1.000
    Zn19     Zn       0.75748    0.38055    0.33239    1.000
    O55      O        0.73520    0.37050    0.22690    1.000
    O56      O        0.81290    0.44380    0.21420    1.000
    O57      O        0.83707    0.55489    0.96920    1.000
    O58      O        0.75740    0.53470    0.88430    1.000
    O59      O        0.67330    0.30816    0.88438    1.000
    O60      O        0.66030    0.25795    0.99391    1.000
    C82      C        0.77130    0.40690    0.18730    1.000
    C83      C        0.76070    0.40680    0.10400    1.000
    C84      C        0.78360    0.45946    0.06210    1.000
    H28      H        0.80740    0.49230    0.08540    1.000
    C85      C        0.77090    0.46289    0.98520    1.000
    C86      C        0.73740    0.41250    0.95130    1.000
    H29      H        0.72890    0.41450    0.90010    1.000
    C87      C        0.71600    0.35880    0.99210    1.000
    C88      C        0.72670    0.35660    0.06920    1.000
    H30      H        0.71130    0.32170    0.09740    1.000
    C89      C        0.79140    0.52190    0.94240    1.000
    C90      C        0.68110    0.30350    0.95450    1.000
    Zn20     Zn       0.84320    0.41941    0.30964    1.000
    Zn21     Zn       0.74252    0.11945    0.83239    1.000
    O61      O        0.76480    0.12950    0.72690    1.000
    O62      O        0.68710    0.05620    0.71420    1.000
    O63      O        0.66293    0.94511    0.46920    1.000
    O64      O        0.74260    0.96530    0.38430    1.000
    O65      O        0.82670    0.19184    0.38438    1.000
    O66      O        0.83970    0.24205    0.49391    1.000
    C91      C        0.72870    0.09310    0.68730    1.000
    C92      C        0.73930    0.09320    0.60400    1.000
    C93      C        0.71640    0.04054    0.56210    1.000
    H31      H        0.69260    0.00770    0.58540    1.000
    C94      C        0.72910    0.03711    0.48520    1.000
    C95      C        0.76260    0.08750    0.45130    1.000
    H32      H        0.77110    0.08550    0.40010    1.000
    C96      C        0.78400    0.14120    0.49210    1.000
    C97      C        0.77330    0.14340    0.56920    1.000
    H33      H        0.78870    0.17830    0.59740    1.000
    C98      C        0.70860    0.97810    0.44240    1.000
    C99      C        0.81890    0.19650    0.45450    1.000
    Zn22     Zn       0.65680    0.08059    0.80964    1.000
    Zn23     Zn       0.24252    0.61945    0.33239    1.000
    O67      O        0.26480    0.62950    0.22690    1.000
    O68      O        0.18710    0.55620    0.21420    1.000
    O69      O        0.16293    0.44511    0.96920    1.000
    O70      O        0.24260    0.46530    0.88430    1.000
    O71      O        0.32670    0.69184    0.88438    1.000
    O72      O        0.33970    0.74205    0.99391    1.000
    C100     C        0.22870    0.59310    0.18730    1.000
    C101     C        0.23930    0.59320    0.10400    1.000
    C102     C        0.21640    0.54054    0.06210    1.000
    H34      H        0.19260    0.50770    0.08540    1.000
    C103     C        0.22910    0.53711    0.98520    1.000
    C104     C        0.26260    0.58750    0.95130    1.000
    H35      H        0.27110    0.58550    0.90010    1.000
    C105     C        0.28400    0.64120    0.99210    1.000
    C106     C        0.27330    0.64340    0.06920    1.000
    H36      H        0.28870    0.67830    0.09740    1.000
    C107     C        0.20860    0.47810    0.94240    1.000
    C108     C        0.31890    0.69650    0.95450    1.000
    Zn24     Zn       0.15680    0.58059    0.30964    1.000
    Zn25     Zn       0.88055    0.74252    0.83239    1.000
    O73      O        0.87050    0.76480    0.72690    1.000
    O74      O        0.94380    0.68710    0.71420    1.000
    O75      O        0.05489    0.66293    0.46920    1.000
    O76      O        0.03470    0.74260    0.38430    1.000
    O77      O        0.80816    0.82670    0.38438    1.000
    O78      O        0.75795    0.83970    0.49391    1.000
    C109     C        0.90690    0.72870    0.68730    1.000
    C110     C        0.90680    0.73930    0.60400    1.000
    C111     C        0.95946    0.71640    0.56210    1.000
    H37      H        0.99230    0.69260    0.58540    1.000
    C112     C        0.96289    0.72910    0.48520    1.000
    C113     C        0.91250    0.76260    0.45130    1.000
    H38      H        0.91450    0.77110    0.40010    1.000
    C114     C        0.85880    0.78400    0.49210    1.000
    C115     C        0.85660    0.77330    0.56920    1.000
    H39      H        0.82170    0.78870    0.59740    1.000
    C116     C        0.02190    0.70860    0.44240    1.000
    C117     C        0.80350    0.81890    0.45450    1.000
    Zn26     Zn       0.91941    0.65680    0.80964    1.000
    Zn27     Zn       0.38055    0.24252    0.33239    1.000
    O79      O        0.37050    0.26480    0.22690    1.000
    O80      O        0.44380    0.18710    0.21420    1.000
    O81      O        0.55489    0.16293    0.96920    1.000
    O82      O        0.53470    0.24260    0.88430    1.000
    O83      O        0.30816    0.32670    0.88438    1.000
    O84      O        0.25795    0.33970    0.99391    1.000
    C118     C        0.40690    0.22870    0.18730    1.000
    C119     C        0.40680    0.23930    0.10400    1.000
    C120     C        0.45946    0.21640    0.06210    1.000
    H40      H        0.49230    0.19260    0.08540    1.000
    C121     C        0.46289    0.22910    0.98520    1.000
    C122     C        0.41250    0.26260    0.95130    1.000
    H41      H        0.41450    0.27110    0.90010    1.000
    C123     C        0.35880    0.28400    0.99210    1.000
    C124     C        0.35660    0.27330    0.06920    1.000
    H42      H        0.32170    0.28870    0.09740    1.000
    C125     C        0.52190    0.20860    0.94240    1.000
    C126     C        0.30350    0.31890    0.95450    1.000
    Zn28     Zn       0.41941    0.15680    0.30964    1.000
    Zn29     Zn       0.11945    0.25748    0.83239    1.000
    O85      O        0.12950    0.23520    0.72690    1.000
    O86      O        0.05620    0.31290    0.71420    1.000
    O87      O        0.94511    0.33707    0.46920    1.000
    O88      O        0.96530    0.25740    0.38430    1.000
    O89      O        0.19184    0.17330    0.38438    1.000
    O90      O        0.24205    0.16030    0.49391    1.000
    C127     C        0.09310    0.27130    0.68730    1.000
    C128     C        0.09320    0.26070    0.60400    1.000
    C129     C        0.04054    0.28360    0.56210    1.000
    H43      H        0.00770    0.30740    0.58540    1.000
    C130     C        0.03711    0.27090    0.48520    1.000
    C131     C        0.08750    0.23740    0.45130    1.000
    H44      H        0.08550    0.22890    0.40010    1.000
    C132     C        0.14120    0.21600    0.49210    1.000
    C133     C        0.14340    0.22670    0.56920    1.000
    H45      H        0.17830    0.21130    0.59740    1.000
    C134     C        0.97810    0.29140    0.44240    1.000
    C135     C        0.19650    0.18110    0.45450    1.000
    Zn30     Zn       0.08059    0.34320    0.80964    1.000
    Zn31     Zn       0.61945    0.75748    0.33239    1.000
    O91      O        0.62950    0.73520    0.22690    1.000
    O92      O        0.55620    0.81290    0.21420    1.000
    O93      O        0.44511    0.83707    0.96920    1.000
    O94      O        0.46530    0.75740    0.88430    1.000
    O95      O        0.69184    0.67330    0.88438    1.000
    O96      O        0.74205    0.66030    0.99391    1.000
    C136     C        0.59310    0.77130    0.18730    1.000
    C137     C        0.59320    0.76070    0.10400    1.000
    C138     C        0.54054    0.78360    0.06210    1.000
    H46      H        0.50770    0.80740    0.08540    1.000
    C139     C        0.53711    0.77090    0.98520    1.000
    C140     C        0.58750    0.73740    0.95130    1.000
    H47      H        0.58550    0.72890    0.90010    1.000
    C141     C        0.64120    0.71600    0.99210    1.000
    C142     C        0.64340    0.72670    0.06920    1.000
    H48      H        0.67830    0.71130    0.09740    1.000
    C143     C        0.47810    0.79140    0.94240    1.000
    C144     C        0.69650    0.68110    0.95450    1.000
    Zn32     Zn       0.58059    0.84320    0.30964    1.000
    Zn33     Zn       0.34369    0.15631    0.47802    1.000
    O97      O        0.33956    0.16044    0.36010    1.000
    O98      O        0.43030    0.06970    0.29380    1.000
    H49      H        0.44120    0.05880    0.25010    1.000
    H50      H        0.45070    0.04930    0.32720    1.000
    Zn34     Zn       0.65631    0.84369    0.47802    1.000
    O99      O        0.66044    0.83956    0.36010    1.000
    O100     O        0.56970    0.93030    0.29380    1.000
    H51      H        0.55880    0.94120    0.25010    1.000
    H52      H        0.54930    0.95070    0.32720    1.000
    Zn35     Zn       0.15631    0.34369    0.97802    1.000
    O101     O        0.16044    0.33956    0.86010    1.000
    O102     O        0.06970    0.43030    0.79380    1.000
    H53      H        0.05880    0.44120    0.75010    1.000
    H54      H        0.04930    0.45070    0.82720    1.000
    Zn36     Zn       0.84369    0.34369    0.47802    1.000
    O103     O        0.83956    0.33956    0.36010    1.000
    O104     O        0.93030    0.43030    0.29380    1.000
    H55      H        0.94120    0.44120    0.25010    1.000
    H56      H        0.95070    0.45070    0.32720    1.000
    Zn37     Zn       0.15631    0.65631    0.47802    1.000
    O105     O        0.16044    0.66044    0.36010    1.000
    O106     O        0.06970    0.56970    0.29380    1.000
    H57      H        0.05880    0.55880    0.25010    1.000
    H58      H        0.04930    0.54930    0.32720    1.000
    Zn38     Zn       0.34369    0.84369    0.97802    1.000
    O107     O        0.33956    0.83956    0.86010    1.000
    O108     O        0.43030    0.93030    0.79380    1.000
    H59      H        0.44120    0.94120    0.75010    1.000
    H60      H        0.45070    0.95070    0.82720    1.000
    Zn39     Zn       0.65631    0.15631    0.97802    1.000
    O109     O        0.66044    0.16044    0.86010    1.000
    O110     O        0.56970    0.06970    0.79380    1.000
    H61      H        0.55880    0.05880    0.75010    1.000
    H62      H        0.54930    0.04930    0.82720    1.000
    Zn40     Zn       0.84369    0.65631    0.97802    1.000
    O111     O        0.83956    0.66044    0.86010    1.000
    O112     O        0.93030    0.56970    0.79380    1.000
    H63      H        0.94120    0.55880    0.75010    1.000
    H64      H        0.95070    0.54930    0.82720    1.000
