data_functionalizedCrystal
_audit_creation_method	'EQeq! by Chris Wilmer'
_symmetry_space_group_name_H-M	'P1'
_symmetry_Int_Tables_number	1
_symmetry_cell_setting	triclinic
loop_
_symmetry_equiv_pos_as_xyz
  x,y,z
_cell_length_a	13.928
_cell_length_b	16.6222
_cell_length_c	18.957
_cell_angle_alpha	112.27
_cell_angle_beta	90
_cell_angle_gamma	114.769
loop_
_atom_site_label
_atom_site_type_symbol
_atom_site_fract_x
_atom_site_fract_y
_atom_site_fract_z
_atom_site_charge
Mof_Zn	Zn	0.88885	0.47028	0.8982	1.227
Mof_Zn	Zn	0.62417	0.5612	0.83424	1.208
Mof_Zn	Zn	0.93703	0.5612	0.33424	1.207
Mof_Zn	Zn	0.41857	0.52972	0.6018	1.227
Mof_Zn	Zn	0.11115	0.52972	0.1018	1.227
Mof_Zn	Zn	0.58143	0.47028	0.3982	1.227
Mof_Zn	Zn	0.37583	0.4388	0.16576	1.209
Mof_Zn	Zn	0.06297	0.4388	0.66576	1.208
Mof_H 	H 	0.1559	0.712	0.3428	0.026
Mof_H 	H 	0.3202	0.2812	0.7869	0.041
Mof_H 	H 	0.0202	0.1916	0.9156	0.093
Mof_H 	H 	0.3415	0.8234	0.9296	0.09
Mof_H 	H 	0.5426	0.2582	0.49	0.032
Mof_H 	H 	0.8624	0.82	0.2288	0.06
Mof_H 	H 	0.0151	0.2464	0.789	0.024
Mof_H 	H 	0.4114	0.3768	0.6498	-0.003
Mof_H 	H 	0.9184	0.9082	0.9408	0.059
Mof_H 	H 	0.1068	0.262	0.6112	0.006
Mof_H 	H 	0.1376	0.18	0.7712	0.06
Mof_H 	H 	0.9039	0.64	0.0363	-0.005
Mof_H 	H 	0.5561	0.712	0.8428	0.026
Mof_H 	H 	0.9576	0.82	0.7288	0.06
Mof_H 	H 	0.9898	0.9082	0.4408	0.055
Mof_H 	H 	0.0961	0.36	0.9637	-0.005
Mof_H 	H 	0.039	0.7188	0.7131	0.041
Mof_H 	H 	0.2844	0.7418	0.01	0.033
Mof_H 	H 	0.347	0.7356	0.8003	0.022
Mof_H 	H 	0.6214	0.8798	0.8943	0.072
Mof_H 	H 	0.6114	0.2644	0.6997	0.022
Mof_H 	H 	0.3886	0.7356	0.3003	0.022
Mof_H 	H 	0.2584	0.8798	0.3943	0.071
Mof_H 	H 	0.937	0.046	0.928	0.15
Mof_H 	H 	0.0346	0.6232	0.8502	-0.003
Mof_H 	H 	0.653	0.2644	0.1997	0.022
Mof_H 	H 	0.9654	0.3768	0.1498	-0.003
Mof_H 	H 	0.3786	0.1202	0.1057	0.072
Mof_H 	H 	0.8441	0.288	0.6572	0.026
Mof_H 	H 	0.5886	0.6232	0.3502	-0.003
Mof_H 	H 	0.891	0.954	0.572	0.149
Mof_H 	H 	0.7361	0.64	0.5363	-0.005
Mof_H 	H 	0.2313	0.2464	0.289	0.024
Mof_H 	H 	0.8286	0.8084	0.5844	0.093
Mof_H 	H 	0.2639	0.36	0.4637	-0.005
Mof_H 	H 	0.063	0.954	0.072	0.15
Mof_H 	H 	0.6706	0.7922	0.3968	0.112
Mof_H 	H 	0.1714	0.1916	0.4156	0.093
Mof_H 	H 	0.0424	0.18	0.2712	0.06
Mof_H 	H 	0.4574	0.7418	0.51	0.032
Mof_H 	H 	0.9798	0.8084	0.0844	0.093
Mof_H 	H 	0.1216	0.7922	0.8968	0.112
Mof_H 	H 	0.5181	0.1766	0.5704	0.091
Mof_H 	H 	0.6585	0.1766	0.0704	0.09
Mof_H 	H 	0.8932	0.738	0.3888	0.006
Mof_H 	H 	0.6798	0.7188	0.2131	0.041
Mof_H 	H 	0.961	0.2812	0.2869	0.041
Mof_H 	H 	0.9849	0.7536	0.211	0.024
Mof_H 	H 	0.7416	0.1202	0.6057	0.071
Mof_H 	H 	0.4819	0.8234	0.4296	0.091
Mof_H 	H 	0.4439	0.288	0.1572	0.026
Mof_H 	H 	0.8448	0.738	0.8888	0.004
Mof_H 	H 	0.7156	0.2582	0.99	0.033
Mof_H 	H 	0.0102	0.0918	0.5592	0.055
Mof_H 	H 	0.7687	0.7536	0.711	0.024
Mof_H 	H 	0.0816	0.0918	0.0592	0.059
Mof_H 	H 	0.1552	0.262	0.1112	0.004
Mof_H 	H 	0.8784	0.2078	0.1032	0.112
Mof_H 	H 	0.3294	0.2078	0.6032	0.112
Mof_H 	H 	0.109	0.046	0.428	0.149
Mof_C 	C 	0.94796	0.67152	0.0074	0.098
Mof_C 	C 	0.2182	0.0182	0.4694	0.381
Mof_C 	C 	0.91014	0.71288	0.2046	0.043
Mof_C 	C 	0.95963	0.53106	0.6696	0.299
Mof_C 	C 	0.7748	0.9112	0.9251	-0.006
Mof_C 	C 	0.80274	0.71288	0.7046	0.043
Mof_C 	C 	0.63634	0.66148	0.3991	0.107
Mof_C 	C 	0.3781	0.7036	0.3339	0.069
Mof_C 	C 	0.7616	0.9246	0.5138	-0.063
Mof_C 	C 	0.08986	0.28712	0.7954	0.043
Mof_C 	C 	0.1569	0.1312	0.078	-0.073
Mof_C 	C 	0.07629	0.76198	0.926	-0.181
Mof_C 	C 	0.37968	0.42596	0.3239	0.375
Mof_C 	C 	0.778	0.7718	0.5369	-0.189
Mof_C 	C 	0.83758	0.75236	0.215	-0.097
Mof_C 	C 	0.65694	0.38968	0.5673	-0.118
Mof_C 	C 	0.41722	0.70764	0.4585	0.059
Mof_C 	C 	0.30759	0.60498	0.3066	-0.151
Mof_C 	C 	0.8166	0.1474	0.6053	-0.08
Mof_C 	C 	0.23714	0.44848	0.8268	0.059
Mof_C 	C 	0.08522	0.24764	0.285	-0.097
Mof_C 	C 	0.837	0.0754	0.9862	-0.059
Mof_C 	C 	0.62032	0.57404	0.6761	0.375
Mof_C 	C 	0.95372	0.57404	0.1761	0.373
Mof_C 	C 	0.74108	0.61416	0.6851	-0.141
Mof_C 	C 	0.3308	0.1474	0.1053	-0.082
Mof_C 	C 	0.0257	0.8688	0.422	-0.064
Mof_C 	C 	0.87809	0.24738	0.6359	0.044
Mof_C 	C 	0.91478	0.75236	0.715	-0.097
Mof_C 	C 	0.5664	0.2442	0.5894	-0.12
Mof_C 	C 	0.96872	0.76724	0.3906	0.038
Mof_C 	C 	0.76286	0.55152	0.1732	0.059
Mof_C 	C 	0.32738	0.56516	0.4899	0.357
Mof_C 	C 	0.70059	0.44698	0.277	0.394
Mof_C 	C 	0.36366	0.33852	0.6009	0.107
Mof_C 	C 	0.42857	0.46894	0.8304	0.299
Mof_C 	C 	0.19726	0.28712	0.2954	0.043
Mof_C 	C 	0.74639	0.44698	0.777	0.394
Mof_C 	C 	0.72356	0.67152	0.5074	0.1
Mof_C 	C 	0.78866	0.55152	0.6732	0.059
Mof_C 	C 	0.6692	0.8526	0.8947	-0.082
Mof_C 	C 	0.70261	0.39502	0.1934	-0.15
Mof_C 	C 	0.67262	0.43484	0.5101	0.357
Mof_C 	C 	0.24231	0.18222	0.5035	0.168
Mof_C 	C 	0.76222	0.43484	0.0101	0.355
Mof_C 	C 	0.3222	0.7558	0.9106	-0.119
Mof_C 	C 	0.222	0.2282	0.4631	-0.189
Mof_C 	C 	0.4336	0.7558	0.4106	-0.12
Mof_C 	C 	0.8431	0.8688	0.922	-0.073
Mof_C 	C 	0.79852	0.76724	0.8906	0.045
Mof_C 	C 	0.04037	0.46894	0.3304	0.299
Mof_C 	C 	0.31431	0.23802	0.574	-0.182
Mof_C 	C 	0.27644	0.32848	0.4926	0.1
Mof_C 	C 	0.2252	0.0888	0.0749	-0.006
Mof_C 	C 	0.26998	0.55636	0.8555	0.088
Mof_C 	C 	0.71362	0.44364	0.6445	0.088
Mof_C 	C 	0.6745	0.2964	0.1661	0.069
Mof_C 	C 	0.1834	0.8526	0.3947	-0.08
Mof_C 	C 	0.90092	0.59144	0.6829	-0.086
Mof_C 	C 	0.27083	0.30806	0.7951	0.021
Mof_C 	C 	0.73002	0.44364	0.1445	0.088
Mof_C 	C 	0.34306	0.61032	0.4327	-0.118
Mof_C 	C 	0.12191	0.75262	0.3641	0.044
Mof_C 	C 	0.8	0.0182	0.9694	0.379
Mof_C 	C 	0.68569	0.76198	0.426	-0.182
Mof_C 	C 	0.7818	0.9818	0.5306	0.381
Mof_C 	C 	0.2	0.9818	0.0306	0.379
Mof_C 	C 	0.87308	0.61416	0.1851	-0.141
Mof_C 	C 	0.25892	0.38584	0.3149	-0.141
Mof_C 	C 	0.8636	0.0888	0.5749	-0.007
Mof_C 	C 	0.25361	0.55302	0.223	0.394
Mof_C 	C 	0.12692	0.38584	0.8149	-0.141
Mof_C 	C 	0.02514	0.66148	0.8991	0.106
Mof_C 	C 	0.29941	0.55302	0.723	0.394
Mof_C 	C 	0.6778	0.2442	0.0894	-0.119
Mof_C 	C 	0.29042	0.70764	0.9585	0.057
Mof_C 	C 	0.3255	0.7036	0.8339	0.069
Mof_C 	C 	0.96277	0.69194	0.7049	0.021
Mof_C 	C 	0.92371	0.23802	0.074	-0.181
Mof_C 	C 	0.09908	0.40856	0.3171	-0.086
Mof_C 	C 	0.26726	0.61032	0.9327	-0.117
Mof_C 	C 	0.05204	0.32848	0.9926	0.098
Mof_C 	C 	0.03723	0.30806	0.2951	0.021
Mof_C 	C 	0.36929	0.24738	0.1359	0.045
Mof_C 	C 	0.1364	0.9112	0.4251	-0.007
Mof_C 	C 	0.69052	0.59144	0.1829	-0.086
Mof_C 	C 	0.58278	0.29236	0.5415	0.059
Mof_C 	C 	0.9743	0.1312	0.578	-0.064
Mof_C 	C 	0.0062	0.2282	0.9631	-0.191
Mof_C 	C 	0.75769	0.81778	0.4965	0.168
Mof_C 	C 	0.21134	0.44848	0.3268	0.059
Mof_C 	C 	0.69241	0.39502	0.6934	-0.151
Mof_C 	C 	0.03128	0.23276	0.6094	0.038
Mof_C 	C 	0.04628	0.42596	0.8239	0.373
Mof_C 	C 	0.9938	0.7718	0.0369	-0.191
Mof_C 	C 	0.2384	0.0754	0.4862	-0.063
Mof_C 	C 	0.29739	0.60498	0.8066	-0.15
Mof_C 	C 	0.70958	0.29236	0.0415	0.057
Mof_C 	C 	0.30948	0.40856	0.8171	-0.086
Mof_C 	C 	0.16242	0.24764	0.785	-0.097
Mof_C 	C 	0.163	0.9246	0.0138	-0.059
Mof_C 	C 	0.06009	0.81778	0.9965	0.169
Mof_C 	C 	0.23778	0.56516	0.9899	0.355
Mof_C 	C 	0.6219	0.2964	0.6661	0.069
Mof_C 	C 	0.57143	0.53106	0.1696	0.299
Mof_C 	C 	0.72917	0.69194	0.2049	0.021
Mof_C 	C 	0.93991	0.18222	0.0035	0.169
Mof_C 	C 	0.28638	0.55636	0.3555	0.088
Mof_C 	C 	0.73274	0.38968	0.0673	-0.117
Mof_C 	C 	0.20148	0.23276	0.1094	0.045
Mof_C 	C 	0.97486	0.33852	0.1009	0.106
Mof_C 	C 	0.63071	0.75262	0.8641	0.045
Mof_N 	N 	0.01602	0.71084	0.3635	-0.242
Mof_N 	N 	0.8704	0.0158	0.9411	-0.221
Mof_N 	N 	0.1454	0.0158	0.4411	-0.222
Mof_N 	N 	0.96297	0.61654	0.9394	-0.273
Mof_N 	N 	0.03703	0.38346	0.0606	-0.273
Mof_N 	N 	0.34643	0.38346	0.5606	-0.275
Mof_N 	N 	0.9027	0.079	0.969	-0.121
Mof_N 	N 	0.65357	0.61654	0.4394	-0.275
Mof_N 	N 	0.8546	0.9842	0.5589	-0.222
Mof_N 	N 	0.30518	0.28916	0.1365	-0.245
Mof_N 	N 	0.1763	0.079	0.469	-0.12
Mof_N 	N 	0.1296	0.9842	0.0589	-0.221
Mof_N 	N 	0.0973	0.921	0.031	-0.121
Mof_N 	N 	0.98398	0.28916	0.6365	-0.242
Mof_N 	N 	0.8237	0.921	0.531	-0.12
Mof_N 	N 	0.69482	0.71084	0.8635	-0.245
Mof_O 	O 	0.38469	0.59578	0.70074	-0.457
Mof_O 	O 	0.03852	0.46764	0.78288	-0.445
Mof_O 	O 	0.93696	0.42612	0.31583	-0.387
Mof_O 	O 	0.77816	0.52672	0.32056	-0.497
Mof_O 	O 	0.57088	0.53236	0.71712	-0.445
Mof_O 	O 	0.61531	0.40422	0.29926	-0.457
Mof_O 	O 	0.42358	0.41356	0.37478	-0.451
Mof_O 	O 	0.41391	0.58522	0.52969	-0.461
Mof_O 	O 	0.22184	0.47328	0.67944	-0.497
Mof_O 	O 	0.30803	0.04906	0.5027	-0.278
Mof_O 	O 	0.96148	0.53236	0.21712	-0.445
Mof_O 	O 	0.58609	0.41478	0.47031	-0.461
Mof_O 	O 	0.72033	0.48566	0.00419	-0.304
Mof_O 	O 	0.25144	0.47328	0.17944	-0.496
Mof_O 	O 	0.17131	0.58522	0.02969	-0.46
Mof_O 	O 	0.53191	0.44062	0.14572	-0.375
Mof_O 	O 	0.25897	0.95094	0.9973	-0.278
Mof_O 	O 	0.01002	0.58644	0.12522	-0.449
Mof_O 	O 	0.48916	0.42612	0.81583	-0.387
Mof_O 	O 	0.76533	0.48566	0.50419	-0.304
Mof_O 	O 	0.98998	0.41356	0.87478	-0.449
Mof_O 	O 	0.90871	0.44062	0.64572	-0.375
Mof_O 	O 	0.74856	0.52672	0.82056	-0.496
Mof_O 	O 	0.06304	0.57388	0.68417	-0.387
Mof_O 	O 	0.69197	0.95094	0.4973	-0.278
Mof_O 	O 	0.42912	0.46764	0.28288	-0.445
Mof_O 	O 	0.57642	0.58644	0.62522	-0.451
Mof_O 	O 	0.21109	0.59578	0.20074	-0.456
Mof_O 	O 	0.74103	0.04906	0.0027	-0.278
Mof_O 	O 	0.23467	0.51434	0.49581	-0.304
Mof_O 	O 	0.09129	0.55938	0.35428	-0.375
Mof_O 	O 	0.27967	0.51434	0.99581	-0.304
Mof_O 	O 	0.46809	0.55938	0.85428	-0.375
Mof_O 	O 	0.82869	0.41478	0.97031	-0.46
Mof_O 	O 	0.78891	0.40422	0.79926	-0.456
Mof_O 	O 	0.51084	0.57388	0.18417	-0.387
_end
