data_functionalizedCrystal
_audit_creation_method	'EQeq! by Chris Wilmer'
_symmetry_space_group_name_H-M	'P1'
_symmetry_Int_Tables_number	1
_symmetry_cell_setting	triclinic
loop_
_symmetry_equiv_pos_as_xyz
  x,y,z
_cell_length_a	9.3359
_cell_length_b	11.2684
_cell_length_c	18.8508
_cell_angle_alpha	79.415
_cell_angle_beta	79.414
_cell_angle_gamma	66.27
loop_
_atom_site_label
_atom_site_type_symbol
_atom_site_fract_x
_atom_site_fract_y
_atom_site_fract_z
_atom_site_charge
Mof_N 	N 	0.9988	0.3164	0.49725	-0.243
Mof_O 	O 	0.8473	0.58799	0.42149	-0.396
Mof_C 	C 	0.8678	0.2979	0.4975	0.113
Mof_C 	C 	0.131	0.2112	0.497	0.098
Mof_C 	C 	0.8738	0.5793	0.35514	0.294
Mof_H 	H 	0.7735	0.3705	0.4969	-0.005
Mof_C 	C 	0.8628	0.1765	0.4987	-0.19
Mof_H 	H 	0.2251	0.2216	0.4964	-0.001
Mof_C 	C 	0.1365	0.087	0.4975	-0.202
Mof_C 	C 	0.7575	0.6837	0.30725	0.041
Mof_O 	O 	0.9917	0.496	0.32379	-0.269
Mof_H 	H 	0.7668	0.1693	0.4993	0.113
Mof_C 	C 	0.9996	0.0664	0.49911	0.143
Mof_H 	H 	0.2329	0.0165	0.4967	0.118
Mof_C 	C 	0.8085	0.7014	0.23331	-0.209
Mof_C 	C 	0.6098	0.7699	0.33441	-0.114
Mof_C 	C 	0.7156	0.8025	0.18786	0.27
Mof_H 	H 	0.9062	0.6445	0.2144	0.13
Mof_C 	C 	0.5196	0.8718	0.28793	0.104
Mof_C 	C 	0.5398	0.7567	0.41323	0.316
Mof_C 	C 	0.5739	0.8882	0.2138	-0.255
Mof_O 	O 	0.7848	0.823	0.11635	-0.307
Mof_H 	H 	0.4219	0.9299	0.3061	0.003
Mof_O 	O 	0.5005	0.6611	0.43562	-0.25
Mof_O 	O 	0.5161	0.847	0.44927	-0.254
Mof_H 	H 	0.5133	0.9571	0.1829	0.133
Mof_C 	C 	0.718	0.8187	0.05801	0.314
Mof_C 	C 	0.598	0.7751	0.06265	-0.299
Mof_C 	C 	0.7872	0.8561	0.99116	-0.287
Mof_C 	C 	0.5534	0.7632	0.99816	0.168
Mof_H 	H 	0.5478	0.754	0.1076	0.141
Mof_C 	C 	0.7429	0.8428	0.92821	0.163
Mof_H 	H 	0.8637	0.8903	0.9886	0.145
Mof_C 	C 	0.6261	0.7941	0.93101	-0.199
Mof_H 	H 	0.4726	0.7338	0.0007	-0.017
Mof_H 	H 	0.7915	0.8666	0.8834	-0.009
Mof_C 	C 	0.5915	0.7693	0.86134	0.361
Mof_O 	O 	0.4815	0.72747	0.86606	-0.416
Mof_O 	O 	0.6744	0.7883	0.80418	-0.293
Mof_Ni	Ni	0.39383	0.68733	0.78361	1.033
Mof_N 	N 	0.5687	0.4916	0.78738	-0.243
Mof_N 	N 	0.2494	0.6141	0.86419	-0.247
Mof_N 	N 	0.213	0.8785	0.78186	-0.257
Mof_C 	C 	0.5978	0.4168	0.73554	0.072
Mof_C 	C 	0.6616	0.4402	0.84011	0.079
Mof_C 	C 	0.1425	0.5789	0.84791	0.105
Mof_C 	C 	0.262	0.6	0.93508	0.079
Mof_H 	H 	0.531	0.447	0.6996	-0.016
Mof_C 	C 	0.7205	0.2976	0.73172	-0.124
Mof_H 	H 	0.6421	0.488	0.8785	-0.002
Mof_C 	C 	0.7848	0.3204	0.84103	-0.128
Mof_H 	H 	0.1337	0.584	0.799	-0.026
Mof_C 	C 	0.0418	0.5347	0.89873	-0.178
Mof_H 	H 	0.3384	0.6216	0.9488	0.006
Mof_C 	C 	0.1673	0.555	0.98917	-0.14
Mof_H 	H 	0.7371	0.2514	0.6928	0.08
Mof_C 	C 	0.8193	0.246	0.78537	0.039
Mof_H 	H 	0.845	0.2895	0.8796	0.08
Mof_H 	H 	0.9671	0.5128	0.8837	0.109
Mof_C 	C 	0.0533	0.5232	0.97174	0.071
Mof_H 	H 	0.1818	0.5464	0.0376	0.077
Mof_C 	C 	0.9547	0.1183	0.78386	0.129
Mof_C 	C 	0.0387	0.0725	0.71935	-0.183
Mof_C 	C 	0.0056	0.0403	0.84783	-0.211
Mof_H 	H 	0.0103	0.1216	0.6752	0.095
Mof_C 	C 	0.1649	0.9537	0.72056	0.101
Mof_H 	H 	0.9536	0.0664	0.8927	0.116
Mof_C 	C 	0.1334	0.9242	0.84393	0.122
Mof_H 	H 	0.219	0.9247	0.6765	-0.031
Mof_H 	H 	0.1666	0.8744	0.8873	-0.019
Mof_N 	N 	0.0012	0.6836	0.50275	-0.248
Mof_O 	O 	0.1527	0.41201	0.57851	-0.405
Mof_C 	C 	0.1322	0.7021	0.5025	0.059
Mof_C 	C 	0.869	0.7888	0.503	0.079
Mof_C 	C 	0.1262	0.4207	0.64486	0.297
Mof_H 	H 	0.2265	0.6295	0.5031	0.012
Mof_C 	C 	0.1372	0.8235	0.5013	-0.101
Mof_H 	H 	0.7749	0.7784	0.5036	0.01
Mof_C 	C 	0.8635	0.913	0.5025	-0.082
Mof_C 	C 	0.2425	0.3163	0.69275	0.034
Mof_O 	O 	0.0083	0.504	0.67621	-0.285
Mof_H 	H 	0.2332	0.8307	0.5007	0.077
Mof_C 	C 	0.0004	0.9336	0.50089	-0.02
Mof_H 	H 	0.7671	0.9835	0.5033	0.075
Mof_C 	C 	0.1915	0.2986	0.76669	-0.205
Mof_C 	C 	0.3902	0.2301	0.66559	-0.109
Mof_C 	C 	0.2844	0.1975	0.81214	0.265
Mof_H 	H 	0.0938	0.3555	0.7856	0.119
Mof_C 	C 	0.4804	0.1282	0.71207	0.099
Mof_C 	C 	0.4602	0.2433	0.58677	0.314
Mof_C 	C 	0.4261	0.1118	0.7862	-0.25
Mof_O 	O 	0.2152	0.177	0.88365	-0.311
Mof_H 	H 	0.5781	0.0701	0.6939	0.009
Mof_O 	O 	0.4995	0.3389	0.56438	-0.249
Mof_O 	O 	0.4839	0.153	0.55073	-0.252
Mof_H 	H 	0.4867	0.0429	0.8171	0.134
Mof_C 	C 	0.282	0.1813	0.94199	0.313
Mof_C 	C 	0.402	0.2249	0.93735	-0.298
Mof_C 	C 	0.2128	0.1439	0.00884	-0.29
Mof_C 	C 	0.4466	0.2368	0.00184	0.167
Mof_H 	H 	0.4522	0.246	0.8924	0.141
Mof_C 	C 	0.2571	0.1572	0.07179	0.162
Mof_H 	H 	0.1363	0.1097	0.0114	0.138
Mof_C 	C 	0.3739	0.2059	0.06899	-0.2
Mof_H 	H 	0.5274	0.2662	0.9993	-0.016
Mof_H 	H 	0.2085	0.1334	0.1166	-0.015
Mof_C 	C 	0.4085	0.2307	0.13866	0.362
Mof_O 	O 	0.5185	0.27253	0.13394	-0.417
Mof_O 	O 	0.3256	0.2117	0.19582	-0.3
Mof_Ni	Ni	0.60617	0.31267	0.21639	1.032
Mof_N 	N 	0.4313	0.5084	0.21262	-0.253
Mof_N 	N 	0.7506	0.3859	0.13581	-0.236
Mof_N 	N 	0.787	0.1215	0.21814	-0.226
Mof_C 	C 	0.4022	0.5832	0.26446	0.096
Mof_C 	C 	0.3384	0.5598	0.15989	0.102
Mof_C 	C 	0.8575	0.4211	0.15209	0.065
Mof_C 	C 	0.738	0.4	0.06492	0.071
Mof_H 	H 	0.469	0.553	0.3004	-0.025
Mof_C 	C 	0.2795	0.7024	0.26828	-0.176
Mof_H 	H 	0.3579	0.512	0.1215	-0.012
Mof_C 	C 	0.2152	0.6796	0.15897	-0.18
Mof_H 	H 	0.8663	0.416	0.201	-0.006
Mof_C 	C 	0.9582	0.4653	0.10127	-0.088
Mof_H 	H 	0.6616	0.3784	0.0512	0.009
Mof_C 	C 	0.8327	0.445	0.01083	-0.124
Mof_H 	H 	0.2629	0.7486	0.3072	0.094
Mof_C 	C 	0.1807	0.754	0.21463	0.112
Mof_H 	H 	0.155	0.7105	0.1204	0.093
Mof_H 	H 	0.0329	0.4872	0.1163	0.053
Mof_C 	C 	0.9467	0.4768	0.02826	0.058
Mof_H 	H 	0.8182	0.4536	0.9624	0.075
Mof_C 	C 	0.0453	0.8817	0.21614	-0.045
Mof_C 	C 	0.9613	0.9275	0.28065	-0.052
Mof_C 	C 	0.9944	0.9597	0.15217	-0.006
Mof_H 	H 	0.9897	0.8784	0.3248	0.06
Mof_C 	C 	0.8351	0.0463	0.27944	0.043
Mof_H 	H 	0.0464	0.9336	0.1073	0.021
Mof_C 	C 	0.8666	0.0758	0.15607	0.029
Mof_H 	H 	0.781	0.0753	0.3235	-0.008
Mof_H 	H 	0.8334	0.1256	0.1127	0.019
Mof_Ni	Ni	-8.02318e-18	0.5	0.5	1.051
_end
