data_functionalizedCrystal
_audit_creation_method	'EQeq! by Chris Wilmer'
_symmetry_space_group_name_H-M	'P1'
_symmetry_Int_Tables_number	1
_symmetry_cell_setting	triclinic
loop_
_symmetry_equiv_pos_as_xyz
  x,y,z
_cell_length_a	15.2169
_cell_length_b	15.2169
_cell_length_c	16.738
_cell_angle_alpha	90
_cell_angle_beta	90
_cell_angle_gamma	120
loop_
_atom_site_label
_atom_site_type_symbol
_atom_site_fract_x
_atom_site_fract_y
_atom_site_fract_z
_atom_site_charge
Mof_Fe	Fe	0.33333	0.66666	0.3174	1.029
Mof_Ag	Ag	0.75912	0.63305	0.77841	0.572
Mof_Ag	Ag	0.87393	0.24088	0.77841	0.572
Mof_Ag	Ag	0.36695	0.12607	0.77841	0.571
Mof_H 	H 	0.0199	0.5662	0.2856	0.127
Mof_H 	H 	0.2067	0.5194	0.1085	0.023
Mof_H 	H 	0.9339	0.4375	0.2033	0.005
Mof_H 	H 	0.1271	0.4295	0.9926	0.055
Mof_H 	H 	0.8553	0.3499	0.0888	0.058
Mof_H 	H 	0.1699	0.6501	0.5205	0.036
Mof_H 	H 	0.9482	0.6115	0.3711	-0.007
Mof_H 	H 	0.0802	0.6623	0.6279	0.058
Mof_H 	H 	0.8535	0.6155	0.4783	0.066
Mof_H 	H 	0.5463	0.9801	0.2856	0.127
Mof_H 	H 	0.3127	0.7933	0.1085	0.023
Mof_H 	H 	0.5036	0.0661	0.2033	0.005
Mof_H 	H 	0.3024	0.8729	0.9926	0.054
Mof_H 	H 	0.4946	0.1447	0.0888	0.058
Mof_H 	H 	0.4802	0.8301	0.5205	0.036
Mof_H 	H 	0.6633	0.0518	0.3711	-0.007
Mof_H 	H 	0.5821	0.9198	0.6279	0.058
Mof_H 	H 	0.762	0.1465	0.4783	0.066
Mof_H 	H 	0.4338	0.4537	0.2856	0.127
Mof_H 	H 	0.4806	0.6873	0.1085	0.022
Mof_H 	H 	0.5625	0.4964	0.2033	0.004
Mof_H 	H 	0.5705	0.6976	0.9926	0.056
Mof_H 	H 	0.6501	0.5054	0.0888	0.058
Mof_H 	H 	0.3499	0.5198	0.5205	0.036
Mof_H 	H 	0.3885	0.3367	0.3711	-0.007
Mof_H 	H 	0.3377	0.4179	0.6279	0.058
Mof_H 	H 	0.3845	0.238	0.4783	0.066
Mof_C 	C 	0.1277	0.6181	0.37	0.293
Mof_C 	C 	0.084	0.5759	0.297	-0.376
Mof_C 	C 	0.1329	0.5469	0.2386	0.283
Mof_C 	C 	0.0791	0.4901	0.1663	-0.123
Mof_C 	C 	0.1364	0.4861	0.1042	0.022
Mof_C 	C 	0.9727	0.4369	0.1606	0.021
Mof_C 	C 	0.0892	0.4323	0.0351	-0.104
Mof_C 	C 	0.9256	0.3842	0.093	-0.107
Mof_C 	C 	0.9846	0.383	0.0314	0.02
Mof_C 	C 	0.9357	0.3266	0.9588	0.059
Mof_C 	C 	0.0672	0.626	0.4363	-0.113
Mof_C 	C 	0.1064	0.6433	0.5121	0.03
Mof_C 	C 	0.9733	0.6191	0.4229	0.03
Mof_C 	C 	0.053	0.6506	0.5767	-0.102
Mof_C 	C 	0.9176	0.6235	0.4864	-0.104
Mof_C 	C 	0.9594	0.6403	0.563	0.026
Mof_C 	C 	0.9031	0.6487	0.6291	0.069
Mof_C 	C 	0.4904	0.8723	0.37	0.293
Mof_C 	C 	0.4919	0.916	0.297	-0.376
Mof_C 	C 	0.414	0.8671	0.2386	0.283
Mof_C 	C 	0.411	0.9209	0.1663	-0.123
Mof_C 	C 	0.3497	0.8636	0.1042	0.021
Mof_C 	C 	0.4642	0.0273	0.1606	0.021
Mof_C 	C 	0.3431	0.9108	0.0351	-0.103
Mof_C 	C 	0.4586	0.0744	0.093	-0.107
Mof_C 	C 	0.3984	0.0154	0.0314	0.019
Mof_C 	C 	0.3909	0.0643	0.9588	0.058
Mof_C 	C 	0.5588	0.9328	0.4363	-0.113
Mof_C 	C 	0.5369	0.8936	0.5121	0.031
Mof_C 	C 	0.6458	0.0267	0.4229	0.03
Mof_C 	C 	0.5976	0.947	0.5767	-0.103
Mof_C 	C 	0.7059	0.0824	0.4864	-0.104
Mof_C 	C 	0.6809	0.0406	0.563	0.026
Mof_C 	C 	0.7456	0.0969	0.6291	0.069
Mof_C 	C 	0.3819	0.5096	0.37	0.293
Mof_C 	C 	0.4241	0.5081	0.297	-0.377
Mof_C 	C 	0.4531	0.586	0.2386	0.284
Mof_C 	C 	0.5099	0.589	0.1663	-0.125
Mof_C 	C 	0.5139	0.6503	0.1042	0.024
Mof_C 	C 	0.5631	0.5358	0.1606	0.023
Mof_C 	C 	0.5677	0.6569	0.0351	-0.107
Mof_C 	C 	0.6158	0.5414	0.093	-0.109
Mof_C 	C 	0.617	0.6016	0.0314	0.022
Mof_C 	C 	0.6734	0.6091	0.9588	0.057
Mof_C 	C 	0.374	0.4412	0.4363	-0.113
Mof_C 	C 	0.3567	0.4631	0.5121	0.03
Mof_C 	C 	0.3809	0.3542	0.4229	0.03
Mof_C 	C 	0.3494	0.4024	0.5767	-0.102
Mof_C 	C 	0.3765	0.2941	0.4864	-0.104
Mof_C 	C 	0.3597	0.3191	0.563	0.026
Mof_C 	C 	0.3513	0.2544	0.6291	0.069
Mof_N 	N 	0.8571	0.6522	0.6822	-0.209
Mof_N 	N 	0.8976	0.2846	0.9016	-0.21
Mof_N 	N 	0.7951	0.1429	0.6822	-0.209
Mof_N 	N 	0.387	0.1024	0.9016	-0.21
Mof_N 	N 	0.3478	0.2049	0.6822	-0.209
Mof_N 	N 	0.7154	0.613	0.9016	-0.21
Mof_O 	O 	0.2205	0.6501	0.3868	-0.359
Mof_O 	O 	0.2244	0.567	0.2453	-0.379
Mof_O 	O 	0.4296	0.7795	0.3868	-0.359
Mof_O 	O 	0.3426	0.7756	0.2453	-0.379
Mof_O 	O 	0.3499	0.5704	0.3868	-0.359
Mof_O 	O 	0.433	0.6574	0.2453	-0.379
Mof_Fe	Fe	0.66667	0.33334	0.6826	1.028
Mof_Ag	Ag	0.24088	0.36695	0.22159	0.571
Mof_Ag	Ag	0.12607	0.75912	0.22159	0.572
Mof_Ag	Ag	0.63305	0.87393	0.22159	0.571
Mof_H 	H 	0.9801	0.4338	0.7144	0.127
Mof_H 	H 	0.7933	0.4806	0.8915	0.023
Mof_H 	H 	0.0661	0.5625	0.7967	0.005
Mof_H 	H 	0.8729	0.5705	0.0074	0.055
Mof_H 	H 	0.1447	0.6501	0.9112	0.058
Mof_H 	H 	0.8301	0.3499	0.4795	0.036
Mof_H 	H 	0.0518	0.3885	0.6289	-0.007
Mof_H 	H 	0.9198	0.3377	0.3721	0.058
Mof_H 	H 	0.1465	0.3845	0.5217	0.066
Mof_H 	H 	0.4537	0.0199	0.7144	0.127
Mof_H 	H 	0.6873	0.2067	0.8915	0.023
Mof_H 	H 	0.4964	0.9339	0.7967	0.005
Mof_H 	H 	0.6976	0.1271	0.0074	0.054
Mof_H 	H 	0.5054	0.8553	0.9112	0.058
Mof_H 	H 	0.5198	0.1699	0.4795	0.036
Mof_H 	H 	0.3367	0.9482	0.6289	-0.007
Mof_H 	H 	0.4179	0.0802	0.3721	0.058
Mof_H 	H 	0.238	0.8535	0.5217	0.066
Mof_H 	H 	0.5662	0.5463	0.7144	0.127
Mof_H 	H 	0.5194	0.3127	0.8915	0.022
Mof_H 	H 	0.4375	0.5036	0.7967	0.004
Mof_H 	H 	0.4295	0.3024	0.0074	0.056
Mof_H 	H 	0.3499	0.4946	0.9112	0.058
Mof_H 	H 	0.6501	0.4802	0.4795	0.036
Mof_H 	H 	0.6115	0.6633	0.6289	-0.007
Mof_H 	H 	0.6623	0.5821	0.3721	0.058
Mof_H 	H 	0.6155	0.762	0.5217	0.066
Mof_C 	C 	0.8723	0.3819	0.63	0.293
Mof_C 	C 	0.916	0.4241	0.703	-0.376
Mof_C 	C 	0.8671	0.4531	0.7614	0.283
Mof_C 	C 	0.9209	0.5099	0.8337	-0.123
Mof_C 	C 	0.8636	0.5139	0.8958	0.022
Mof_C 	C 	0.0273	0.5631	0.8394	0.021
Mof_C 	C 	0.9108	0.5677	0.9649	-0.104
Mof_C 	C 	0.0744	0.6158	0.907	-0.107
Mof_C 	C 	0.0154	0.617	0.9686	0.02
Mof_C 	C 	0.0643	0.6734	0.0412	0.059
Mof_C 	C 	0.9328	0.374	0.5637	-0.113
Mof_C 	C 	0.8936	0.3567	0.4879	0.03
Mof_C 	C 	0.0267	0.3809	0.5771	0.03
Mof_C 	C 	0.947	0.3494	0.4233	-0.102
Mof_C 	C 	0.0824	0.3765	0.5136	-0.104
Mof_C 	C 	0.0406	0.3597	0.437	0.026
Mof_C 	C 	0.0969	0.3513	0.3709	0.069
Mof_C 	C 	0.5096	0.1277	0.63	0.293
Mof_C 	C 	0.5081	0.084	0.703	-0.376
Mof_C 	C 	0.586	0.1329	0.7614	0.283
Mof_C 	C 	0.589	0.0791	0.8337	-0.123
Mof_C 	C 	0.6503	0.1364	0.8958	0.021
Mof_C 	C 	0.5358	0.9727	0.8394	0.021
Mof_C 	C 	0.6569	0.0892	0.9649	-0.103
Mof_C 	C 	0.5414	0.9256	0.907	-0.107
Mof_C 	C 	0.6016	0.9846	0.9686	0.019
Mof_C 	C 	0.6091	0.9357	0.0412	0.058
Mof_C 	C 	0.4412	0.0672	0.5637	-0.113
Mof_C 	C 	0.4631	0.1064	0.4879	0.031
Mof_C 	C 	0.3542	0.9733	0.5771	0.03
Mof_C 	C 	0.4024	0.053	0.4233	-0.103
Mof_C 	C 	0.2941	0.9176	0.5136	-0.104
Mof_C 	C 	0.3191	0.9594	0.437	0.026
Mof_C 	C 	0.2544	0.9031	0.3709	0.069
Mof_C 	C 	0.6181	0.4904	0.63	0.293
Mof_C 	C 	0.5759	0.4919	0.703	-0.377
Mof_C 	C 	0.5469	0.414	0.7614	0.284
Mof_C 	C 	0.4901	0.411	0.8337	-0.125
Mof_C 	C 	0.4861	0.3497	0.8958	0.024
Mof_C 	C 	0.4369	0.4642	0.8394	0.023
Mof_C 	C 	0.4323	0.3431	0.9649	-0.107
Mof_C 	C 	0.3842	0.4586	0.907	-0.109
Mof_C 	C 	0.383	0.3984	0.9686	0.022
Mof_C 	C 	0.3266	0.3909	0.0412	0.057
Mof_C 	C 	0.626	0.5588	0.5637	-0.113
Mof_C 	C 	0.6433	0.5369	0.4879	0.03
Mof_C 	C 	0.6191	0.6458	0.5771	0.03
Mof_C 	C 	0.6506	0.5976	0.4233	-0.102
Mof_C 	C 	0.6235	0.7059	0.5136	-0.104
Mof_C 	C 	0.6403	0.6809	0.437	0.026
Mof_C 	C 	0.6487	0.7456	0.3709	0.069
Mof_N 	N 	0.1429	0.3478	0.3178	-0.209
Mof_N 	N 	0.1024	0.7154	0.0984	-0.21
Mof_N 	N 	0.2049	0.8571	0.3178	-0.209
Mof_N 	N 	0.613	0.8976	0.0984	-0.21
Mof_N 	N 	0.6522	0.7951	0.3178	-0.209
Mof_N 	N 	0.2846	0.387	0.0984	-0.21
Mof_O 	O 	0.7795	0.3499	0.6132	-0.359
Mof_O 	O 	0.7756	0.433	0.7547	-0.379
Mof_O 	O 	0.5704	0.2205	0.6132	-0.359
Mof_O 	O 	0.6574	0.2244	0.7547	-0.379
Mof_O 	O 	0.6501	0.4296	0.6132	-0.359
Mof_O 	O 	0.567	0.3426	0.7547	-0.379
_end
