data_functionalizedCrystal
_audit_creation_method	'EQeq! by Chris Wilmer'
_symmetry_space_group_name_H-M	'P1'
_symmetry_Int_Tables_number	1
_symmetry_cell_setting	triclinic
loop_
_symmetry_equiv_pos_as_xyz
  x,y,z
_cell_length_a	12.1246
_cell_length_b	12.2087
_cell_length_c	12.4991
_cell_angle_alpha	90
_cell_angle_beta	91.394
_cell_angle_gamma	90
loop_
_atom_site_label
_atom_site_type_symbol
_atom_site_fract_x
_atom_site_fract_y
_atom_site_fract_z
_atom_site_charge
Mof_Mg	Mg	0.25858	0.24887	0.99422	1.483
Mof_Mg	Mg	0.75857	0.25082	0.99518	1.484
Mof_O 	O 	0.91933	0.19522	0.0268	-0.436
Mof_O 	O 	0.41881	0.29986	0.98601	-0.501
Mof_O 	O 	0.20258	0.40913	0.98351	-0.454
Mof_O 	O 	0.31446	0.08904	0.00123	-0.478
Mof_O 	O 	0.28581	0.26378	0.15881	-0.466
Mof_O 	O 	0.1007	0.19345	0.0208	-0.461
Mof_O 	O 	0.73514	0.24065	0.15742	-0.496
Mof_O 	O 	0.59906	0.30154	0.97151	-0.502
Mof_O 	O 	0.28891	0.25709	0.33416	-0.486
Mof_O 	O 	0.19079	0.58928	0.9907	-0.474
Mof_O 	O 	0.29248	0.91095	0.01761	-0.486
Mof_O 	O 	0.7288	0.25011	0.33198	-0.501
Mof_C 	C 	0.0094	0.2256	0.9912	0.54
Mof_H 	H 	0.0071	0.2777	0.9369	-0.123
Mof_C 	C 	0.7559	0.2825	0.2436	0.651
Mof_H 	H 	0.7972	0.3467	0.2425	-0.16
Mof_C 	C 	0.2732	0.9992	0.9761	0.624
Mof_H 	H 	0.2222	0.9994	0.9194	-0.148
Mof_C 	C 	0.2327	0.501	0.0164	0.573
Mof_H 	H 	0.2923	0.5031	0.0647	-0.13
Mof_C 	C 	0.2562	0.227	0.2454	0.61
Mof_H 	H 	0.204	0.1712	0.2431	-0.147
Mof_C 	C 	0.5066	0.2625	0.9593	0.647
Mof_H 	H 	0.5032	0.195	0.925	-0.16
Mof_Mg	Mg	0.24142	0.74887	0.50578	1.485
Mof_Mg	Mg	0.74143	0.75082	0.50482	1.485
Mof_O 	O 	0.58067	0.69522	0.4732	-0.45
Mof_O 	O 	0.08119	0.79986	0.51399	-0.496
Mof_O 	O 	0.29742	0.90913	0.51649	-0.449
Mof_O 	O 	0.18554	0.58904	0.49877	-0.475
Mof_O 	O 	0.21419	0.76378	0.34119	-0.468
Mof_O 	O 	0.3993	0.69345	0.4792	-0.475
Mof_O 	O 	0.76486	0.74065	0.34258	-0.499
Mof_O 	O 	0.90094	0.80154	0.52849	-0.5
Mof_O 	O 	0.21109	0.75709	0.16584	-0.488
Mof_O 	O 	0.30921	0.08928	0.5093	-0.475
Mof_O 	O 	0.20752	0.41095	0.48239	-0.472
Mof_O 	O 	0.7712	0.75011	0.16802	-0.504
Mof_C 	C 	0.4906	0.7256	0.5088	0.571
Mof_H 	H 	0.4929	0.7777	0.5631	-0.131
Mof_C 	C 	0.7441	0.7825	0.2564	0.653
Mof_H 	H 	0.7028	0.8467	0.2575	-0.163
Mof_C 	C 	0.2268	0.4992	0.5239	0.603
Mof_H 	H 	0.2778	0.4994	0.5806	-0.143
Mof_C 	C 	0.2673	0.001	0.4836	0.567
Mof_H 	H 	0.2077	0.0031	0.4353	-0.13
Mof_C 	C 	0.2438	0.727	0.2546	0.611
Mof_H 	H 	0.296	0.6712	0.2569	-0.147
Mof_C 	C 	0.9934	0.7625	0.5407	0.641
Mof_H 	H 	0.9968	0.695	0.575	-0.157
Mof_Mg	Mg	0.74142	0.75113	0.00578	1.484
Mof_Mg	Mg	0.24143	0.74918	0.00482	1.485
Mof_O 	O 	0.08067	0.80478	0.9732	-0.435
Mof_O 	O 	0.58119	0.70014	0.01399	-0.5
Mof_O 	O 	0.79742	0.59087	0.01649	-0.453
Mof_O 	O 	0.68554	0.91096	0.99877	-0.477
Mof_O 	O 	0.71419	0.73622	0.84119	-0.466
Mof_O 	O 	0.8993	0.80655	0.9792	-0.461
Mof_O 	O 	0.26486	0.75935	0.84258	-0.496
Mof_O 	O 	0.40094	0.69846	0.02849	-0.502
Mof_O 	O 	0.71109	0.74291	0.66584	-0.486
Mof_O 	O 	0.80921	0.41072	0.0093	-0.474
Mof_O 	O 	0.70752	0.08905	0.98239	-0.486
Mof_O 	O 	0.2712	0.74989	0.66802	-0.501
Mof_C 	C 	0.9906	0.7744	0.0088	0.54
Mof_H 	H 	0.9929	0.7223	0.0631	-0.123
Mof_C 	C 	0.2441	0.7175	0.7564	0.651
Mof_H 	H 	0.2028	0.6533	0.7575	-0.16
Mof_C 	C 	0.7268	0.0008	0.0239	0.624
Mof_H 	H 	0.7778	0.0006	0.0806	-0.148
Mof_C 	C 	0.7673	0.499	0.9836	0.573
Mof_H 	H 	0.7077	0.4969	0.9353	-0.13
Mof_C 	C 	0.7438	0.773	0.7546	0.61
Mof_H 	H 	0.796	0.8288	0.7569	-0.147
Mof_C 	C 	0.4934	0.7375	0.0407	0.647
Mof_H 	H 	0.4968	0.805	0.075	-0.16
Mof_Mg	Mg	0.75858	0.25113	0.49422	1.485
Mof_Mg	Mg	0.25857	0.24918	0.49518	1.485
Mof_O 	O 	0.41933	0.30478	0.5268	-0.45
Mof_O 	O 	0.91881	0.20014	0.48601	-0.496
Mof_O 	O 	0.70258	0.09087	0.48351	-0.449
Mof_O 	O 	0.81446	0.41096	0.50123	-0.475
Mof_O 	O 	0.78581	0.23622	0.65881	-0.468
Mof_O 	O 	0.6007	0.30655	0.5208	-0.475
Mof_O 	O 	0.23514	0.25935	0.65742	-0.499
Mof_O 	O 	0.09906	0.19846	0.47151	-0.5
Mof_O 	O 	0.78891	0.24291	0.83416	-0.488
Mof_O 	O 	0.69079	0.91072	0.4907	-0.475
Mof_O 	O 	0.79248	0.58905	0.51761	-0.472
Mof_O 	O 	0.2288	0.24989	0.83198	-0.504
Mof_C 	C 	0.5094	0.2744	0.4912	0.571
Mof_H 	H 	0.5071	0.2223	0.4369	-0.131
Mof_C 	C 	0.2559	0.2175	0.7436	0.653
Mof_H 	H 	0.2972	0.1533	0.7425	-0.163
Mof_C 	C 	0.7732	0.5008	0.4761	0.603
Mof_H 	H 	0.7222	0.5006	0.4194	-0.143
Mof_C 	C 	0.7327	0.999	0.5164	0.567
Mof_H 	H 	0.7923	0.9969	0.5647	-0.13
Mof_C 	C 	0.7562	0.273	0.7454	0.611
Mof_H 	H 	0.704	0.3288	0.7431	-0.147
Mof_C 	C 	0.0066	0.2375	0.4593	0.641
Mof_H 	H 	0.0032	0.305	0.425	-0.157
_end
