# CIF file generated by openbabel 3.1.0, see https://openbabel.org
data_I
_chemical_name_common 'image0'
_cell_length_a 14.8008
_cell_length_b 12.2543
_cell_length_c 30.2243
_cell_angle_alpha 90
_cell_angle_beta 90.991
_cell_angle_gamma 90
_space_group_name_H-M_alt 'P 1'
_space_group_name_Hall 'P 1'
loop_
    _symmetry_equiv_pos_as_xyz
    x,y,z
loop_
    _atom_site_label
    _atom_site_type_symbol
    _atom_site_fract_x
    _atom_site_fract_y
    _atom_site_fract_z
    _atom_site_occupancy
    U1       U        0.45495    0.67133    0.23476    1.000
    U2       U        0.53319    0.35956    0.07635    1.000
    U3       U        0.74841    0.42695    0.24292    1.000
    P1       P        0.98000    0.89560    0.30250    1.000
    P2       P        0.97640    0.44840    0.29164    1.000
    P3       P        0.69480    0.68430    0.19599    1.000
    P4       P        0.47520    0.63590    0.04756    1.000
    O1       O        0.60470    0.67710    0.21850    1.000
    O2       O        0.30980    0.58340    0.24950    1.000
    O3       O        0.31200    0.76160    0.25410    1.000
    O4       O        0.74590    0.57560    0.19780    1.000
    O5       O        0.75340    0.77510    0.21370    1.000
    O6       O        0.83400    0.92000    0.06630    1.000
    O7       O        0.72800    0.93600    0.01150    1.000
    O8       O        0.48870    0.64100    0.99870    1.000
    O9       O        0.39340    0.70900    0.05960    1.000
    O10      O        0.46060    0.52480    0.06620    1.000
    O11      O        0.01950    0.98700    0.27610    1.000
    O12      O        0.99080    0.91430    0.35210    1.000
    O13      O        0.88050    0.87350    0.29150    1.000
    O14      O        0.87820    0.47410    0.28060    1.000
    O15      O        0.98310    0.41700    0.34100    1.000
    O16      O        0.02140    0.36080    0.26490    1.000
    C1       C        0.26980    0.67090    0.25710    1.000
    C2       C        0.17280    0.67260    0.27020    1.000
    C3       C        0.12930    0.77090    0.27780    1.000
    H1       H        0.16030    0.83640    0.27490    1.000
    C4       C        0.03940    0.77080    0.28960    1.000
    C5       C        0.99330    0.67160    0.29280    1.000
    H2       H        0.93240    0.67100    0.29990    1.000
    C6       C        0.03860    0.57330    0.28540    1.000
    C7       C        0.12750    0.57380    0.27420    1.000
    H3       H        0.15770    0.50840    0.26930    1.000
    C8       C        0.76000    0.89900    0.04890    1.000
    C9       C        0.69830    0.81740    0.07250    1.000
    C10      C        0.72260    0.79250    0.11650    1.000
    H4       H        0.77200    0.82620    0.13020    1.000
    C11      C        0.67050    0.71550    0.13950    1.000
    C12      C        0.59800    0.66870    0.11720    1.000
    H5       H        0.56350    0.61760    0.13220    1.000
    C13      C        0.57330    0.69370    0.07340    1.000
    C14      C        0.62460    0.76740    0.05110    1.000
    H6       H        0.61060    0.78430    0.02170    1.000
    U4       U        0.04505    0.17133    0.26524    1.000
    U5       U        0.96681    0.85956    0.42365    1.000
    U6       U        0.75159    0.92695    0.25708    1.000
    P5       P        0.52000    0.39560    0.19750    1.000
    P6       P        0.52360    0.94840    0.20836    1.000
    P7       P        0.80520    0.18430    0.30401    1.000
    P8       P        0.02480    0.13590    0.45244    1.000
    O17      O        0.89530    0.17710    0.28150    1.000
    O18      O        0.19020    0.08340    0.25050    1.000
    O19      O        0.18800    0.26160    0.24590    1.000
    O20      O        0.75410    0.07560    0.30220    1.000
    O21      O        0.74660    0.27510    0.28630    1.000
    O22      O        0.66600    0.42000    0.43370    1.000
    O23      O        0.77200    0.43600    0.48850    1.000
    O24      O        0.01130    0.14100    0.50130    1.000
    O25      O        0.10660    0.20900    0.44040    1.000
    O26      O        0.03940    0.02480    0.43380    1.000
    O27      O        0.48050    0.48700    0.22390    1.000
    O28      O        0.50920    0.41430    0.14790    1.000
    O29      O        0.61950    0.37350    0.20850    1.000
    O30      O        0.62180    0.97410    0.21940    1.000
    O31      O        0.51690    0.91700    0.15900    1.000
    O32      O        0.47860    0.86080    0.23510    1.000
    C15      C        0.23020    0.17090    0.24290    1.000
    C16      C        0.32720    0.17260    0.22980    1.000
    C17      C        0.37070    0.27090    0.22220    1.000
    H7       H        0.33970    0.33640    0.22510    1.000
    C18      C        0.46060    0.27080    0.21040    1.000
    C19      C        0.50670    0.17160    0.20720    1.000
    H8       H        0.56760    0.17100    0.20010    1.000
    C20      C        0.46140    0.07330    0.21460    1.000
    C21      C        0.37250    0.07380    0.22580    1.000
    H9       H        0.34230    0.00840    0.23070    1.000
    C22      C        0.74000    0.39900    0.45110    1.000
    C23      C        0.80170    0.31740    0.42750    1.000
    C24      C        0.77740    0.29250    0.38350    1.000
    H10      H        0.72800    0.32620    0.36980    1.000
    C25      C        0.82950    0.21550    0.36050    1.000
    C26      C        0.90200    0.16870    0.38280    1.000
    H11      H        0.93650    0.11760    0.36780    1.000
    C27      C        0.92670    0.19370    0.42660    1.000
    C28      C        0.87540    0.26740    0.44890    1.000
    H12      H        0.88940    0.28430    0.47830    1.000
    U7       U        0.54505    0.32867    0.76524    1.000
    U8       U        0.46681    0.64044    0.92365    1.000
    U9       U        0.25159    0.57305    0.75708    1.000
    P9       P        0.02000    0.10440    0.69750    1.000
    P10      P        0.02360    0.55160    0.70836    1.000
    P11      P        0.30520    0.31570    0.80401    1.000
    P12      P        0.52480    0.36410    0.95244    1.000
    O33      O        0.39530    0.32290    0.78150    1.000
    O34      O        0.69020    0.41660    0.75050    1.000
    O35      O        0.68800    0.23840    0.74590    1.000
    O36      O        0.25410    0.42440    0.80220    1.000
    O37      O        0.24660    0.22490    0.78630    1.000
    O38      O        0.16600    0.08000    0.93370    1.000
    O39      O        0.27200    0.06400    0.98850    1.000
    O40      O        0.51130    0.35900    0.00130    1.000
    O41      O        0.60660    0.29100    0.94040    1.000
    O42      O        0.53940    0.47520    0.93380    1.000
    O43      O        0.98050    0.01300    0.72390    1.000
    O44      O        0.00920    0.08570    0.64790    1.000
    O45      O        0.11950    0.12650    0.70850    1.000
    O46      O        0.12180    0.52590    0.71940    1.000
    O47      O        0.01690    0.58300    0.65900    1.000
    O48      O        0.97860    0.63920    0.73510    1.000
    C29      C        0.73020    0.32910    0.74290    1.000
    C30      C        0.82720    0.32740    0.72980    1.000
    C31      C        0.87070    0.22910    0.72220    1.000
    H13      H        0.83970    0.16360    0.72510    1.000
    C32      C        0.96060    0.22920    0.71040    1.000
    C33      C        0.00670    0.32840    0.70720    1.000
    H14      H        0.06760    0.32900    0.70010    1.000
    C34      C        0.96140    0.42670    0.71460    1.000
    C35      C        0.87250    0.42620    0.72580    1.000
    H15      H        0.84230    0.49160    0.73070    1.000
    C36      C        0.24000    0.10100    0.95110    1.000
    C37      C        0.30170    0.18260    0.92750    1.000
    C38      C        0.27740    0.20750    0.88350    1.000
    H16      H        0.22800    0.17380    0.86980    1.000
    C39      C        0.32950    0.28450    0.86050    1.000
    C40      C        0.40200    0.33130    0.88280    1.000
    H17      H        0.43650    0.38240    0.86780    1.000
    C41      C        0.42670    0.30630    0.92660    1.000
    C42      C        0.37540    0.23260    0.94890    1.000
    H18      H        0.38940    0.21570    0.97830    1.000
    U10      U        0.95495    0.82867    0.73476    1.000
    U11      U        0.03319    0.14044    0.57635    1.000
    U12      U        0.24841    0.07305    0.74291    1.000
    P13      P        0.48000    0.60440    0.80250    1.000
    P14      P        0.47640    0.05160    0.79164    1.000
    P15      P        0.19480    0.81570    0.69599    1.000
    P16      P        0.97520    0.86410    0.54756    1.000
    O49      O        0.10470    0.82290    0.71850    1.000
    O50      O        0.80980    0.91660    0.74950    1.000
    O51      O        0.81200    0.73840    0.75410    1.000
    O52      O        0.24590    0.92440    0.69780    1.000
    O53      O        0.25340    0.72490    0.71370    1.000
    O54      O        0.33400    0.58000    0.56630    1.000
    O55      O        0.22800    0.56400    0.51150    1.000
    O56      O        0.98870    0.85900    0.49870    1.000
    O57      O        0.89340    0.79100    0.55960    1.000
    O58      O        0.96060    0.97520    0.56620    1.000
    O59      O        0.51950    0.51300    0.77610    1.000
    O60      O        0.49080    0.58570    0.85210    1.000
    O61      O        0.38050    0.62650    0.79150    1.000
    O62      O        0.37820    0.02590    0.78060    1.000
    O63      O        0.48310    0.08300    0.84100    1.000
    O64      O        0.52140    0.13920    0.76490    1.000
    C43      C        0.76980    0.82910    0.75710    1.000
    C44      C        0.67280    0.82740    0.77020    1.000
    C45      C        0.62930    0.72910    0.77780    1.000
    H19      H        0.66030    0.66360    0.77490    1.000
    C46      C        0.53940    0.72920    0.78960    1.000
    C47      C        0.49330    0.82840    0.79280    1.000
    H20      H        0.43240    0.82900    0.79990    1.000
    C48      C        0.53860    0.92670    0.78540    1.000
    C49      C        0.62750    0.92620    0.77420    1.000
    H21      H        0.65770    0.99160    0.76930    1.000
    C50      C        0.26000    0.60100    0.54890    1.000
    C51      C        0.19830    0.68260    0.57250    1.000
    C52      C        0.22260    0.70750    0.61650    1.000
    H22      H        0.27200    0.67380    0.63020    1.000
    C53      C        0.17050    0.78450    0.63950    1.000
    C54      C        0.09800    0.83130    0.61720    1.000
    H23      H        0.06350    0.88240    0.63220    1.000
    C55      C        0.07330    0.80630    0.57340    1.000
    C56      C        0.12460    0.73260    0.55110    1.000
    H24      H        0.11060    0.71570    0.52170    1.000
