data_functionalizedCrystal
_audit_creation_method	'EQeq! by Chris Wilmer'
_symmetry_space_group_name_H-M	'P1'
_symmetry_Int_Tables_number	1
_symmetry_cell_setting	triclinic
loop_
_symmetry_equiv_pos_as_xyz
  x,y,z
_cell_length_a	19.758
_cell_length_b	7.228
_cell_length_c	17.53
_cell_angle_alpha	90
_cell_angle_beta	90
_cell_angle_gamma	90
loop_
_atom_site_label
_atom_site_type_symbol
_atom_site_fract_x
_atom_site_fract_y
_atom_site_fract_z
_atom_site_charge
Mof_N 	N 	0.056	0.0971	0.3219	-0.117
Mof_N 	N 	0.0394	0.1611	0.391	-0.077
Mof_C 	C 	0.1267	0.101	0.1719	0.013
Mof_C 	C 	0.0618	0.121	0.1503	0.003
Mof_C 	C 	0.078	0.129	0.072	-0.011
Mof_C 	C 	0.1443	0.101	0.0934	-0.006
Mof_N 	N 	0.444	0.9029	0.8219	-0.099
Mof_N 	N 	0.4606	0.8389	0.891	-0.055
Mof_C 	C 	0.3733	0.899	0.6719	0.03
Mof_C 	C 	0.4382	0.879	0.6503	0.029
Mof_C 	C 	0.422	0.871	0.572	0.003
Mof_C 	C 	0.3557	0.899	0.5934	0.006
Mof_N 	N 	0.944	0.5971	0.6781	-0.104
Mof_N 	N 	0.9606	0.6611	0.609	-0.062
Mof_C 	C 	0.8733	0.601	0.8281	0.025
Mof_C 	C 	0.9382	0.621	0.8497	0.035
Mof_C 	C 	0.922	0.629	0.928	0
Mof_C 	C 	0.8557	0.601	0.9066	0.003
Mof_N 	N 	0.556	0.4029	0.1781	-0.108
Mof_N 	N 	0.5394	0.3389	0.109	-0.074
Mof_C 	C 	0.6267	0.399	0.3281	0.022
Mof_C 	C 	0.5618	0.379	0.3497	0.021
Mof_C 	C 	0.578	0.371	0.428	-0.002
Mof_C 	C 	0.6443	0.399	0.4066	0.004
Mof_N 	N 	0.944	0.9029	0.6781	-0.097
Mof_N 	N 	0.9606	0.8389	0.609	-0.056
Mof_C 	C 	0.8733	0.899	0.8281	0.032
Mof_C 	C 	0.9382	0.879	0.8497	0.04
Mof_C 	C 	0.922	0.871	0.928	0.006
Mof_C 	C 	0.8557	0.899	0.9066	0.01
Mof_N 	N 	0.556	0.0971	0.1781	-0.115
Mof_N 	N 	0.5394	0.1611	0.109	-0.076
Mof_C 	C 	0.6267	0.101	0.3281	0.015
Mof_C 	C 	0.5618	0.121	0.3497	0.015
Mof_C 	C 	0.578	0.129	0.428	-0.008
Mof_C 	C 	0.6443	0.101	0.4066	-0.003
Mof_N 	N 	0.056	0.4029	0.3219	-0.11
Mof_N 	N 	0.0394	0.3389	0.391	-0.074
Mof_C 	C 	0.1267	0.399	0.1719	0.02
Mof_C 	C 	0.0618	0.379	0.1503	0.008
Mof_C 	C 	0.078	0.371	0.072	-0.006
Mof_C 	C 	0.1443	0.399	0.0934	0.001
Mof_N 	N 	0.444	0.5971	0.8219	-0.106
Mof_N 	N 	0.4606	0.6611	0.891	-0.061
Mof_C 	C 	0.3733	0.601	0.6719	0.023
Mof_C 	C 	0.4382	0.621	0.6503	0.023
Mof_C 	C 	0.422	0.629	0.572	-0.003
Mof_C 	C 	0.3557	0.601	0.5934	-0.001
Mof_Cd	Cd	0.44007	0.25	0.81937	0.46
Mof_O 	O 	0.3475	0.25	0.9047	-0.257
Mof_O 	O 	0.3258	0.25	0.7823	-0.263
Mof_O 	O 	0.0037	0.25	0.7826	-0.298
Mof_O 	O 	0.0855	0.25	0.698	-0.253
Mof_C 	C 	0.0658	0.25	0.2805	0.136
Mof_C 	C 	0.3057	0.25	0.8501	0.276
Mof_C 	C 	0.2314	0.25	0.8691	-0.013
Mof_C 	C 	0.2105	0.25	0.9444	-0.089
Mof_H 	H 	0.2426	0.25	0.9832	0.095
Mof_C 	C 	0.1422	0.25	0.9628	0.093
Mof_C 	C 	0.1207	0.25	0.0441	-0.052
Mof_C 	C 	0.0651	0.25	0.7637	0.295
Mof_C 	C 	0.1169	0.25	0.8292	-0.016
Mof_C 	C 	0.0965	0.25	0.9035	-0.091
Mof_H 	H 	0.0504	0.25	0.9145	0.083
Mof_C 	C 	0.1837	0.25	0.8107	-0.042
Mof_H 	H 	0.1973	0.25	0.76	0.076
Mof_C 	C 	0.0848	0.25	0.1987	-0.052
Mof_O 	O 	0.5009	0.25	0.928	-0.23
Mof_Cd	Cd	0.05993	0.75	0.31937	0.454
Mof_O 	O 	0.1525	0.75	0.4047	-0.261
Mof_O 	O 	0.1742	0.75	0.2823	-0.257
Mof_O 	O 	0.4963	0.75	0.2826	-0.273
Mof_O 	O 	0.4145	0.75	0.198	-0.243
Mof_C 	C 	0.4342	0.75	0.7805	0.152
Mof_C 	C 	0.1943	0.75	0.3501	0.281
Mof_C 	C 	0.2686	0.75	0.3691	-0.022
Mof_C 	C 	0.2895	0.75	0.4444	-0.069
Mof_H 	H 	0.2574	0.75	0.4832	0.081
Mof_C 	C 	0.3578	0.75	0.4628	0.055
Mof_C 	C 	0.3793	0.75	0.5441	-0.021
Mof_C 	C 	0.4349	0.75	0.2637	0.298
Mof_C 	C 	0.3831	0.75	0.3292	-0.02
Mof_C 	C 	0.4035	0.75	0.4035	-0.071
Mof_H 	H 	0.4496	0.75	0.4145	0.081
Mof_C 	C 	0.3163	0.75	0.3107	-0.032
Mof_H 	H 	0.3027	0.75	0.26	0.076
Mof_C 	C 	0.4152	0.75	0.6987	-0.065
Mof_O 	O 	0.9991	0.75	0.428	-0.215
Mof_Cd	Cd	0.55993	0.75	0.18063	0.472
Mof_O 	O 	0.6525	0.75	0.0953	-0.264
Mof_O 	O 	0.6742	0.75	0.2177	-0.255
Mof_O 	O 	0.9963	0.75	0.2174	-0.257
Mof_O 	O 	0.9145	0.75	0.302	-0.233
Mof_C 	C 	0.9342	0.75	0.7195	0.158
Mof_C 	C 	0.6943	0.75	0.1499	0.285
Mof_C 	C 	0.7686	0.75	0.1309	-0.034
Mof_C 	C 	0.7895	0.75	0.0556	-0.048
Mof_H 	H 	0.7574	0.75	0.0168	0.066
Mof_C 	C 	0.8578	0.75	0.0372	0.014
Mof_C 	C 	0.8793	0.75	0.9559	0.014
Mof_C 	C 	0.9349	0.75	0.2363	0.301
Mof_C 	C 	0.8831	0.75	0.1708	-0.028
Mof_C 	C 	0.9035	0.75	0.0965	-0.05
Mof_H 	H 	0.9496	0.75	0.0855	0.074
Mof_C 	C 	0.8163	0.75	0.1893	-0.022
Mof_H 	H 	0.8027	0.75	0.24	0.076
Mof_C 	C 	0.9152	0.75	0.8013	-0.073
Mof_O 	O 	0.4991	0.75	0.072	-0.243
Mof_Cd	Cd	0.94007	0.25	0.68063	0.476
Mof_O 	O 	0.8475	0.25	0.5953	-0.262
Mof_O 	O 	0.8258	0.25	0.7177	-0.262
Mof_O 	O 	0.5037	0.25	0.7174	-0.282
Mof_O 	O 	0.5855	0.25	0.802	-0.243
Mof_C 	C 	0.5658	0.25	0.2195	0.142
Mof_C 	C 	0.8057	0.25	0.6499	0.28
Mof_C 	C 	0.7314	0.25	0.6309	-0.026
Mof_C 	C 	0.7105	0.25	0.5556	-0.067
Mof_H 	H 	0.7426	0.25	0.5168	0.078
Mof_C 	C 	0.6422	0.25	0.5372	0.048
Mof_C 	C 	0.6207	0.25	0.4559	-0.016
Mof_C 	C 	0.5651	0.25	0.7363	0.298
Mof_C 	C 	0.6169	0.25	0.6708	-0.025
Mof_C 	C 	0.5965	0.25	0.5965	-0.068
Mof_H 	H 	0.5504	0.25	0.5855	0.074
Mof_C 	C 	0.6837	0.25	0.6893	-0.031
Mof_H 	H 	0.6973	0.25	0.74	0.075
Mof_C 	C 	0.5848	0.25	0.3013	-0.06
Mof_O 	O 	0.0009	0.25	0.572	-0.262
Mof_Cd	Cd	0.5	0.5	-0	0.369
Mof_Cd	Cd	1.6633e-33	0.5	0.5	0.374
Mof_Cd	Cd	0.5	0	-0	0.344
Mof_Cd	Cd	1.6633e-33	1.00834e-32	0.5	0.35
_end
