# CIF file generated by openbabel 3.1.0, see https://openbabel.org
data_I
_chemical_name_common 'image0'
_cell_length_a 13.5715
_cell_length_b 13.5715
_cell_length_c 8.7125
_cell_angle_alpha 90
_cell_angle_beta 90
_cell_angle_gamma 120
_space_group_name_H-M_alt 'P 1'
_space_group_name_Hall 'P 1'
loop_
    _symmetry_equiv_pos_as_xyz
    x,y,z
loop_
    _atom_site_label
    _atom_site_type_symbol
    _atom_site_fract_x
    _atom_site_fract_y
    _atom_site_fract_z
    _atom_site_occupancy
    Mo1      Mo       0.66667    0.33333    0.34380    1.000
    Mo2      Mo       0.33333    0.66667    0.84380    1.000
    Cu1      Cu       0.56130    0.43871    0.47814    1.000
    N1       N        0.51240    0.48760    0.27140    1.000
    C1       C        0.48600    0.51400    0.15980    1.000
    Cu2      Cu       0.56130    0.12259    0.47814    1.000
    N2       N        0.51240    0.02480    0.27140    1.000
    C2       C        0.48600    0.97200    0.15980    1.000
    Cu3      Cu       0.87741    0.43871    0.47814    1.000
    N3       N        0.97520    0.48760    0.27140    1.000
    C3       C        0.02800    0.51400    0.15980    1.000
    Cu4      Cu       0.43870    0.56130    0.97814    1.000
    N4       N        0.48760    0.51240    0.77140    1.000
    C4       C        0.51400    0.48600    0.65980    1.000
    Cu5      Cu       0.43870    0.87741    0.97814    1.000
    N5       N        0.48760    0.97520    0.77140    1.000
    C5       C        0.51400    0.02800    0.65980    1.000
    Cu6      Cu       0.12259    0.56130    0.97814    1.000
    N6       N        0.02480    0.51240    0.77140    1.000
    C6       C        0.97200    0.48600    0.65980    1.000
    S1       S        0.75628    0.51256    0.43682    1.000
    S2       S        0.48744    0.24372    0.43682    1.000
    S3       S        0.75628    0.24372    0.43682    1.000
    S4       S        0.24372    0.48744    0.93682    1.000
    S5       S        0.51256    0.75628    0.93682    1.000
    S6       S        0.24372    0.75628    0.93682    1.000
    H1       H        0.13400    0.38390    0.63260    1.000
    H2       H        0.31300    0.50890    0.42110    1.000
    C7       C        0.23470    0.28940    0.38300    1.000
    H3       H        0.19160    0.21070    0.41600    1.000
    H4       H        0.24270    0.29200    0.27190    1.000
    H5       H        0.30940    0.32580    0.42990    1.000
    H6       H        0.24990    0.38390    0.63260    1.000
    H7       H        0.19590    0.50890    0.42110    1.000
    C8       C        0.05470    0.28940    0.38300    1.000
    H8       H        0.01910    0.21070    0.41600    1.000
    H9       H        0.04930    0.29200    0.27190    1.000
    H10      H        0.01640    0.32580    0.42990    1.000
    N7       N        0.17455    0.34910    0.42820    1.000
    C9       C        0.17250    0.34500    0.59370    1.000
    H11      H        0.13315    0.26630    0.62730    1.000
    C10      C        0.23600    0.47200    0.38130    1.000
    H12      H        0.23865    0.47730    0.27020    1.000
    H13      H        0.61610    0.75010    0.63260    1.000
    H14      H        0.49110    0.80410    0.42110    1.000
    C11      C        0.71060    0.94530    0.38300    1.000
    H15      H        0.78930    0.98090    0.41600    1.000
    H16      H        0.70800    0.95070    0.27190    1.000
    H17      H        0.67420    0.98360    0.42990    1.000
    H18      H        0.61610    0.86600    0.63260    1.000
    H19      H        0.49110    0.68700    0.42110    1.000
    C12      C        0.71060    0.76530    0.38300    1.000
    H20      H        0.78930    0.80840    0.41600    1.000
    H21      H        0.70800    0.75730    0.27190    1.000
    H22      H        0.67420    0.69060    0.42990    1.000
    N8       N        0.65090    0.82545    0.42820    1.000
    C13      C        0.65500    0.82750    0.59370    1.000
    H23      H        0.73370    0.86685    0.62730    1.000
    C14      C        0.52800    0.76400    0.38130    1.000
    H24      H        0.52270    0.76135    0.27020    1.000
    H25      H        0.24990    0.86600    0.63260    1.000
    H26      H        0.19590    0.68700    0.42110    1.000
    C15      C        0.05470    0.76530    0.38300    1.000
    H27      H        0.01910    0.80840    0.41600    1.000
    H28      H        0.04930    0.75730    0.27190    1.000
    H29      H        0.01640    0.69060    0.42990    1.000
    H30      H        0.13400    0.75010    0.63260    1.000
    H31      H        0.31300    0.80410    0.42110    1.000
    C16      C        0.23470    0.94530    0.38300    1.000
    H32      H        0.19160    0.98090    0.41600    1.000
    H33      H        0.24270    0.95070    0.27190    1.000
    H34      H        0.30940    0.98360    0.42990    1.000
    N9       N        0.17455    0.82545    0.42820    1.000
    C17      C        0.17250    0.82750    0.59370    1.000
    H35      H        0.13315    0.86685    0.62730    1.000
    C18      C        0.23600    0.76400    0.38130    1.000
    H36      H        0.23865    0.76135    0.27020    1.000
    H37      H        0.86600    0.61610    0.13260    1.000
    H38      H        0.68700    0.49110    0.92110    1.000
    C19      C        0.76530    0.71060    0.88300    1.000
    H39      H        0.80840    0.78930    0.91600    1.000
    H40      H        0.75730    0.70800    0.77190    1.000
    H41      H        0.69060    0.67420    0.92990    1.000
    H42      H        0.75010    0.61610    0.13260    1.000
    H43      H        0.80410    0.49110    0.92110    1.000
    C20      C        0.94530    0.71060    0.88300    1.000
    H44      H        0.98090    0.78930    0.91600    1.000
    H45      H        0.95070    0.70800    0.77190    1.000
    H46      H        0.98360    0.67420    0.92990    1.000
    N10      N        0.82545    0.65090    0.92820    1.000
    C21      C        0.82750    0.65500    0.09370    1.000
    H47      H        0.86685    0.73370    0.12730    1.000
    C22      C        0.76400    0.52800    0.88130    1.000
    H48      H        0.76135    0.52270    0.77020    1.000
    H49      H        0.38390    0.24990    0.13260    1.000
    H50      H        0.50890    0.19590    0.92110    1.000
    C23      C        0.28940    0.05470    0.88300    1.000
    H51      H        0.21070    0.01910    0.91600    1.000
    H52      H        0.29200    0.04930    0.77190    1.000
    H53      H        0.32580    0.01640    0.92990    1.000
    H54      H        0.38390    0.13400    0.13260    1.000
    H55      H        0.50890    0.31300    0.92110    1.000
    C24      C        0.28940    0.23470    0.88300    1.000
    H56      H        0.21070    0.19160    0.91600    1.000
    H57      H        0.29200    0.24270    0.77190    1.000
    H58      H        0.32580    0.30940    0.92990    1.000
    N11      N        0.34910    0.17455    0.92820    1.000
    C25      C        0.34500    0.17250    0.09370    1.000
    H59      H        0.26630    0.13315    0.12730    1.000
    C26      C        0.47200    0.23600    0.88130    1.000
    H60      H        0.47730    0.23865    0.77020    1.000
    H61      H        0.75010    0.13400    0.13260    1.000
    H62      H        0.80410    0.31300    0.92110    1.000
    C27      C        0.94530    0.23470    0.88300    1.000
    H63      H        0.98090    0.19160    0.91600    1.000
    H64      H        0.95070    0.24270    0.77190    1.000
    H65      H        0.98360    0.30940    0.92990    1.000
    H66      H        0.86600    0.24990    0.13260    1.000
    H67      H        0.68700    0.19590    0.92110    1.000
    C28      C        0.76530    0.05470    0.88300    1.000
    H68      H        0.80840    0.01910    0.91600    1.000
    H69      H        0.75730    0.04930    0.77190    1.000
    H70      H        0.69060    0.01640    0.92990    1.000
    N12      N        0.82545    0.17455    0.92820    1.000
    C29      C        0.82750    0.17250    0.09370    1.000
    H71      H        0.86685    0.13315    0.12730    1.000
    C30      C        0.76400    0.23600    0.88130    1.000
    H72      H        0.76135    0.23865    0.77020    1.000
