# CIF file generated by openbabel 3.1.0, see https://openbabel.org
data_I
_chemical_name_common 'image0'
_cell_length_a 15.2003
_cell_length_b 10.2122
_cell_length_c 18.5903
_cell_angle_alpha 90
_cell_angle_beta 103.53
_cell_angle_gamma 90
_space_group_name_H-M_alt 'P 1'
_space_group_name_Hall 'P 1'
loop_
    _symmetry_equiv_pos_as_xyz
    x,y,z
loop_
    _atom_site_label
    _atom_site_type_symbol
    _atom_site_fract_x
    _atom_site_fract_y
    _atom_site_fract_z
    _atom_site_occupancy
    V1       V        0.16025    0.38417    0.08394    1.000
    V2       V        0.24790    0.45352    0.28394    1.000
    P1       P        0.21364    0.37837    0.92221    1.000
    P2       P        0.83657    0.33134    0.83572    1.000
    O1       O        0.21142    0.42570    0.99987    1.000
    O2       O        0.82529    0.42700    0.89613    1.000
    O3       O        0.20250    0.35660    0.19155    1.000
    O4       O        0.29814    0.29920    0.92159    1.000
    O5       O        0.20981    0.50140    0.87420    1.000
    O6       O        0.76704    0.22190    0.83032    1.000
    O7       O        0.82841    0.39940    0.76113    1.000
    C1       C        0.11600    0.27900    0.88770    1.000
    H1       H        0.11400    0.20910    0.92420    1.000
    H2       H        0.12240    0.23630    0.84140    1.000
    C2       C        0.94680    0.25890    0.85990    1.000
    H3       H        0.95240    0.19720    0.82010    1.000
    H4       H        0.95170    0.20710    0.90560    1.000
    C3       C        0.02630    0.35350    0.87220    1.000
    H5       H        0.02130    0.40890    0.82770    1.000
    H6       H        0.02480    0.41150    0.91450    1.000
    H7       H        0.21400    0.29400    0.19600    1.000
    V3       V        0.66025    0.88417    0.08394    1.000
    V4       V        0.74790    0.95352    0.28394    1.000
    P3       P        0.71364    0.87837    0.92221    1.000
    P4       P        0.33657    0.83134    0.83572    1.000
    O8       O        0.71142    0.92570    0.99987    1.000
    O9       O        0.32529    0.92700    0.89613    1.000
    O10      O        0.70250    0.85660    0.19155    1.000
    O11      O        0.79814    0.79920    0.92159    1.000
    O12      O        0.70981    0.00140    0.87420    1.000
    O13      O        0.26704    0.72190    0.83032    1.000
    O14      O        0.32841    0.89940    0.76113    1.000
    C4       C        0.61600    0.77900    0.88770    1.000
    H8       H        0.61400    0.70910    0.92420    1.000
    H9       H        0.62240    0.73630    0.84140    1.000
    C5       C        0.44680    0.75890    0.85990    1.000
    H10      H        0.45240    0.69720    0.82010    1.000
    H11      H        0.45170    0.70710    0.90560    1.000
    C6       C        0.52630    0.85350    0.87220    1.000
    H12      H        0.52130    0.90890    0.82770    1.000
    H13      H        0.52480    0.91150    0.91450    1.000
    H14      H        0.71400    0.79400    0.19600    1.000
    V5       V        0.83975    0.38417    0.41606    1.000
    V6       V        0.75210    0.45352    0.21606    1.000
    P5       P        0.78636    0.37837    0.57779    1.000
    P6       P        0.16343    0.33134    0.66428    1.000
    O15      O        0.78858    0.42570    0.50013    1.000
    O16      O        0.17471    0.42700    0.60387    1.000
    O17      O        0.79750    0.35660    0.30845    1.000
    O18      O        0.70186    0.29920    0.57841    1.000
    O19      O        0.79019    0.50140    0.62580    1.000
    O20      O        0.23296    0.22190    0.66968    1.000
    O21      O        0.17159    0.39940    0.73887    1.000
    C7       C        0.88400    0.27900    0.61230    1.000
    H15      H        0.88600    0.20910    0.57580    1.000
    H16      H        0.87760    0.23630    0.65860    1.000
    C8       C        0.05320    0.25890    0.64010    1.000
    H17      H        0.04760    0.19720    0.67990    1.000
    H18      H        0.04830    0.20710    0.59440    1.000
    C9       C        0.97370    0.35350    0.62780    1.000
    H19      H        0.97870    0.40890    0.67230    1.000
    H20      H        0.97520    0.41150    0.58550    1.000
    H21      H        0.78600    0.29400    0.30400    1.000
    V7       V        0.33975    0.88417    0.41606    1.000
    V8       V        0.25210    0.95352    0.21606    1.000
    P7       P        0.28636    0.87837    0.57779    1.000
    P8       P        0.66343    0.83134    0.66428    1.000
    O22      O        0.28858    0.92570    0.50013    1.000
    O23      O        0.67471    0.92700    0.60387    1.000
    O24      O        0.29750    0.85660    0.30845    1.000
    O25      O        0.20186    0.79920    0.57841    1.000
    O26      O        0.29019    0.00140    0.62580    1.000
    O27      O        0.73296    0.72190    0.66968    1.000
    O28      O        0.67159    0.89940    0.73887    1.000
    C10      C        0.38400    0.77900    0.61230    1.000
    H22      H        0.38600    0.70910    0.57580    1.000
    H23      H        0.37760    0.73630    0.65860    1.000
    C11      C        0.55320    0.75890    0.64010    1.000
    H24      H        0.54760    0.69720    0.67990    1.000
    H25      H        0.54830    0.70710    0.59440    1.000
    C12      C        0.47370    0.85350    0.62780    1.000
    H26      H        0.47870    0.90890    0.67230    1.000
    H27      H        0.47520    0.91150    0.58550    1.000
    H28      H        0.28600    0.79400    0.30400    1.000
    V9       V        0.83975    0.61583    0.91606    1.000
    V10      V        0.75210    0.54648    0.71606    1.000
    P9       P        0.78636    0.62163    0.07779    1.000
    P10      P        0.16343    0.66866    0.16428    1.000
    O29      O        0.78858    0.57430    0.00013    1.000
    O30      O        0.17471    0.57300    0.10387    1.000
    O31      O        0.79750    0.64340    0.80845    1.000
    O32      O        0.70186    0.70080    0.07841    1.000
    O33      O        0.79019    0.49860    0.12580    1.000
    O34      O        0.23296    0.77810    0.16968    1.000
    O35      O        0.17159    0.60060    0.23887    1.000
    C13      C        0.88400    0.72100    0.11230    1.000
    H29      H        0.88600    0.79090    0.07580    1.000
    H30      H        0.87760    0.76370    0.15860    1.000
    C14      C        0.05320    0.74110    0.14010    1.000
    H31      H        0.04760    0.80280    0.17990    1.000
    H32      H        0.04830    0.79290    0.09440    1.000
    C15      C        0.97370    0.64650    0.12780    1.000
    H33      H        0.97870    0.59110    0.17230    1.000
    H34      H        0.97520    0.58850    0.08550    1.000
    H35      H        0.78600    0.70600    0.80400    1.000
    V11      V        0.33975    0.11583    0.91606    1.000
    V12      V        0.25210    0.04648    0.71606    1.000
    P11      P        0.28636    0.12163    0.07779    1.000
    P12      P        0.66343    0.16866    0.16428    1.000
    O36      O        0.28858    0.07430    0.00013    1.000
    O37      O        0.67471    0.07300    0.10387    1.000
    O38      O        0.29750    0.14340    0.80845    1.000
    O39      O        0.20186    0.20080    0.07841    1.000
    O40      O        0.29019    0.99860    0.12580    1.000
    O41      O        0.73296    0.27810    0.16968    1.000
    O42      O        0.67159    0.10060    0.23887    1.000
    C16      C        0.38400    0.22100    0.11230    1.000
    H36      H        0.38600    0.29090    0.07580    1.000
    H37      H        0.37760    0.26370    0.15860    1.000
    C17      C        0.55320    0.24110    0.14010    1.000
    H38      H        0.54760    0.30280    0.17990    1.000
    H39      H        0.54830    0.29290    0.09440    1.000
    C18      C        0.47370    0.14650    0.12780    1.000
    H40      H        0.47870    0.09110    0.17230    1.000
    H41      H        0.47520    0.08850    0.08550    1.000
    H42      H        0.28600    0.20600    0.80400    1.000
    V13      V        0.16025    0.61583    0.58394    1.000
    V14      V        0.24790    0.54648    0.78394    1.000
    P13      P        0.21364    0.62163    0.42221    1.000
    P14      P        0.83657    0.66866    0.33572    1.000
    O43      O        0.21142    0.57430    0.49987    1.000
    O44      O        0.82529    0.57300    0.39613    1.000
    O45      O        0.20250    0.64340    0.69155    1.000
    O46      O        0.29814    0.70080    0.42159    1.000
    O47      O        0.20981    0.49860    0.37420    1.000
    O48      O        0.76704    0.77810    0.33032    1.000
    O49      O        0.82841    0.60060    0.26113    1.000
    C19      C        0.11600    0.72100    0.38770    1.000
    H43      H        0.11400    0.79090    0.42420    1.000
    H44      H        0.12240    0.76370    0.34140    1.000
    C20      C        0.94680    0.74110    0.35990    1.000
    H45      H        0.95240    0.80280    0.32010    1.000
    H46      H        0.95170    0.79290    0.40560    1.000
    C21      C        0.02630    0.64650    0.37220    1.000
    H47      H        0.02130    0.59110    0.32770    1.000
    H48      H        0.02480    0.58850    0.41450    1.000
    H49      H        0.21400    0.70600    0.69600    1.000
    V15      V        0.66025    0.11583    0.58394    1.000
    V16      V        0.74790    0.04648    0.78394    1.000
    P15      P        0.71364    0.12163    0.42221    1.000
    P16      P        0.33657    0.16866    0.33572    1.000
    O50      O        0.71142    0.07430    0.49987    1.000
    O51      O        0.32529    0.07300    0.39613    1.000
    O52      O        0.70250    0.14340    0.69155    1.000
    O53      O        0.79814    0.20080    0.42159    1.000
    O54      O        0.70981    0.99860    0.37420    1.000
    O55      O        0.26704    0.27810    0.33032    1.000
    O56      O        0.32841    0.10060    0.26113    1.000
    C22      C        0.61600    0.22100    0.38770    1.000
    H50      H        0.61400    0.29090    0.42420    1.000
    H51      H        0.62240    0.26370    0.34140    1.000
    C23      C        0.44680    0.24110    0.35990    1.000
    H52      H        0.45240    0.30280    0.32010    1.000
    H53      H        0.45170    0.29290    0.40560    1.000
    C24      C        0.52630    0.14650    0.37220    1.000
    H54      H        0.52130    0.09110    0.32770    1.000
    H55      H        0.52480    0.08850    0.41450    1.000
    H56      H        0.71400    0.20600    0.69600    1.000
