# CIF file generated by openbabel 3.1.0, see https://openbabel.org
data_I
_chemical_name_common 'image0'
_cell_length_a 28.132
_cell_length_b 12.615
_cell_length_c 24.746
_cell_angle_alpha 90
_cell_angle_beta 120.026
_cell_angle_gamma 90
_space_group_name_H-M_alt 'P 1'
_space_group_name_Hall 'P 1'
loop_
    _symmetry_equiv_pos_as_xyz
    x,y,z
loop_
    _atom_site_label
    _atom_site_type_symbol
    _atom_site_fract_x
    _atom_site_fract_y
    _atom_site_fract_z
    _atom_site_occupancy
    C1       C        0.32665    0.39830    0.47850    1.000
    H1       H        0.32230    0.45030    0.50230    1.000
    C2       C        0.32122    0.25360    0.43220    1.000
    H2       H        0.31200    0.18450    0.41760    1.000
    C3       C        0.35250    0.31920    0.42000    1.000
    H3       H        0.36860    0.30410    0.39600    1.000
    C4       C        0.38162    0.50980    0.44550    1.000
    H4       H        0.37340    0.56620    0.46630    1.000
    H5       H        0.36560    0.52930    0.40190    1.000
    C5       C        0.44295    0.50180    0.47390    1.000
    C6       C        0.47668    0.46810    0.53480    1.000
    H6       H        0.46110    0.44590    0.55830    1.000
    C7       C        0.46695    0.53320    0.43900    1.000
    H7       H        0.44490    0.55510    0.39780    1.000
    C8       C        0.17325    0.45210    0.46440    1.000
    H8       H        0.17820    0.45940    0.50430    1.000
    C9       C        0.17910    0.39400    0.38760    1.000
    H9       H        0.18850    0.35300    0.36320    1.000
    C10      C        0.14130    0.51550    0.41530    1.000
    H10      H        0.12060    0.57310    0.41500    1.000
    C11      C        0.11800    0.52170    0.30300    1.000
    H11      H        0.12740    0.47960    0.27680    1.000
    H12      H        0.13070    0.59350    0.30400    1.000
    C12      C        0.02800    0.42700    0.26260    1.000
    H13      H        0.04680    0.36300    0.27110    1.000
    C13      C        0.05680    0.52200    0.27550    1.000
    C14      C        0.02820    0.61570    0.26300    1.000
    H14      H        0.04700    0.67970    0.27200    1.000
    N1       N        0.30506    0.30360    0.46918    1.000
    N2       N        0.35578    0.41190    0.44972    1.000
    N3       N        0.19691    0.37650    0.44689    1.000
    N4       N        0.14582    0.47780    0.36673    1.000
    C15      C        0.82665    0.89830    0.47850    1.000
    H15      H        0.82230    0.95030    0.50230    1.000
    C16      C        0.82122    0.75360    0.43220    1.000
    H16      H        0.81200    0.68450    0.41760    1.000
    C17      C        0.85250    0.81920    0.42000    1.000
    H17      H        0.86860    0.80410    0.39600    1.000
    C18      C        0.88162    0.00980    0.44550    1.000
    H18      H        0.87340    0.06620    0.46630    1.000
    H19      H        0.86560    0.02930    0.40190    1.000
    C19      C        0.94295    0.00180    0.47390    1.000
    C20      C        0.97668    0.96810    0.53480    1.000
    H20      H        0.96110    0.94590    0.55830    1.000
    C21      C        0.96695    0.03320    0.43900    1.000
    H21      H        0.94490    0.05510    0.39780    1.000
    C22      C        0.67325    0.95210    0.46440    1.000
    H22      H        0.67820    0.95940    0.50430    1.000
    C23      C        0.67910    0.89400    0.38760    1.000
    H23      H        0.68850    0.85300    0.36320    1.000
    C24      C        0.64130    0.01550    0.41530    1.000
    H24      H        0.62060    0.07310    0.41500    1.000
    C25      C        0.61800    0.02170    0.30300    1.000
    H25      H        0.62740    0.97960    0.27680    1.000
    H26      H        0.63070    0.09350    0.30400    1.000
    C26      C        0.52800    0.92700    0.26260    1.000
    H27      H        0.54680    0.86300    0.27110    1.000
    C27      C        0.55680    0.02200    0.27550    1.000
    C28      C        0.52820    0.11570    0.26300    1.000
    H28      H        0.54700    0.17970    0.27200    1.000
    N5       N        0.80506    0.80360    0.46918    1.000
    N6       N        0.85578    0.91190    0.44972    1.000
    N7       N        0.69691    0.87650    0.44689    1.000
    N8       N        0.64582    0.97780    0.36673    1.000
    C29      C        0.67335    0.39830    0.02150    1.000
    H29      H        0.67770    0.45030    0.99770    1.000
    C30      C        0.67878    0.25360    0.06780    1.000
    H30      H        0.68800    0.18450    0.08240    1.000
    C31      C        0.64750    0.31920    0.08000    1.000
    H31      H        0.63140    0.30410    0.10400    1.000
    C32      C        0.61838    0.50980    0.05450    1.000
    H32      H        0.62660    0.56620    0.03370    1.000
    H33      H        0.63440    0.52930    0.09810    1.000
    C33      C        0.55705    0.50180    0.02610    1.000
    C34      C        0.52332    0.46810    0.96520    1.000
    H34      H        0.53890    0.44590    0.94170    1.000
    C35      C        0.53305    0.53320    0.06100    1.000
    H35      H        0.55510    0.55510    0.10220    1.000
    C36      C        0.82675    0.45210    0.03560    1.000
    H36      H        0.82180    0.45940    0.99570    1.000
    C37      C        0.82090    0.39400    0.11240    1.000
    H37      H        0.81150    0.35300    0.13680    1.000
    C38      C        0.85870    0.51550    0.08470    1.000
    H38      H        0.87940    0.57310    0.08500    1.000
    C39      C        0.88200    0.52170    0.19700    1.000
    H39      H        0.87260    0.47960    0.22320    1.000
    H40      H        0.86930    0.59350    0.19600    1.000
    C40      C        0.97200    0.42700    0.23740    1.000
    H41      H        0.95320    0.36300    0.22890    1.000
    C41      C        0.94320    0.52200    0.22450    1.000
    C42      C        0.97180    0.61570    0.23700    1.000
    H42      H        0.95300    0.67970    0.22800    1.000
    N9       N        0.69494    0.30360    0.03082    1.000
    N10      N        0.64422    0.41190    0.05028    1.000
    N11      N        0.80309    0.37650    0.05311    1.000
    N12      N        0.85418    0.47780    0.13327    1.000
    C43      C        0.17335    0.89830    0.02150    1.000
    H43      H        0.17770    0.95030    0.99770    1.000
    C44      C        0.17878    0.75360    0.06780    1.000
    H44      H        0.18800    0.68450    0.08240    1.000
    C45      C        0.14750    0.81920    0.08000    1.000
    H45      H        0.13140    0.80410    0.10400    1.000
    C46      C        0.11838    0.00980    0.05450    1.000
    H46      H        0.12660    0.06620    0.03370    1.000
    H47      H        0.13440    0.02930    0.09810    1.000
    C47      C        0.05705    0.00180    0.02610    1.000
    C48      C        0.02332    0.96810    0.96520    1.000
    H48      H        0.03890    0.94590    0.94170    1.000
    C49      C        0.03305    0.03320    0.06100    1.000
    H49      H        0.05510    0.05510    0.10220    1.000
    C50      C        0.32675    0.95210    0.03560    1.000
    H50      H        0.32180    0.95940    0.99570    1.000
    C51      C        0.32090    0.89400    0.11240    1.000
    H51      H        0.31150    0.85300    0.13680    1.000
    C52      C        0.35870    0.01550    0.08470    1.000
    H52      H        0.37940    0.07310    0.08500    1.000
    C53      C        0.38200    0.02170    0.19700    1.000
    H53      H        0.37260    0.97960    0.22320    1.000
    H54      H        0.36930    0.09350    0.19600    1.000
    C54      C        0.47200    0.92700    0.23740    1.000
    H55      H        0.45320    0.86300    0.22890    1.000
    C55      C        0.44320    0.02200    0.22450    1.000
    C56      C        0.47180    0.11570    0.23700    1.000
    H56      H        0.45300    0.17970    0.22800    1.000
    N13      N        0.19494    0.80360    0.03082    1.000
    N14      N        0.14422    0.91190    0.05028    1.000
    N15      N        0.30309    0.87650    0.05311    1.000
    N16      N        0.35418    0.97780    0.13327    1.000
    C57      C        0.67335    0.60170    0.52150    1.000
    H57      H        0.67770    0.54970    0.49770    1.000
    C58      C        0.67878    0.74640    0.56780    1.000
    H58      H        0.68800    0.81550    0.58240    1.000
    C59      C        0.64750    0.68080    0.58000    1.000
    H59      H        0.63140    0.69590    0.60400    1.000
    C60      C        0.61838    0.49020    0.55450    1.000
    H60      H        0.62660    0.43380    0.53370    1.000
    H61      H        0.63440    0.47070    0.59810    1.000
    C61      C        0.55705    0.49820    0.52610    1.000
    C62      C        0.52332    0.53190    0.46520    1.000
    H62      H        0.53890    0.55410    0.44170    1.000
    C63      C        0.53305    0.46680    0.56100    1.000
    H63      H        0.55510    0.44490    0.60220    1.000
    C64      C        0.82675    0.54790    0.53560    1.000
    H64      H        0.82180    0.54060    0.49570    1.000
    C65      C        0.82090    0.60600    0.61240    1.000
    H65      H        0.81150    0.64700    0.63680    1.000
    C66      C        0.85870    0.48450    0.58470    1.000
    H66      H        0.87940    0.42690    0.58500    1.000
    C67      C        0.88200    0.47830    0.69700    1.000
    H67      H        0.87260    0.52040    0.72320    1.000
    H68      H        0.86930    0.40650    0.69600    1.000
    C68      C        0.97200    0.57300    0.73740    1.000
    H69      H        0.95320    0.63700    0.72890    1.000
    C69      C        0.94320    0.47800    0.72450    1.000
    C70      C        0.97180    0.38430    0.73700    1.000
    H70      H        0.95300    0.32030    0.72800    1.000
    N17      N        0.69494    0.69640    0.53082    1.000
    N18      N        0.64422    0.58810    0.55028    1.000
    N19      N        0.80309    0.62350    0.55311    1.000
    N20      N        0.85418    0.52220    0.63327    1.000
    C71      C        0.17335    0.10170    0.52150    1.000
    H71      H        0.17770    0.04970    0.49770    1.000
    C72      C        0.17878    0.24640    0.56780    1.000
    H72      H        0.18800    0.31550    0.58240    1.000
    C73      C        0.14750    0.18080    0.58000    1.000
    H73      H        0.13140    0.19590    0.60400    1.000
    C74      C        0.11838    0.99020    0.55450    1.000
    H74      H        0.12660    0.93380    0.53370    1.000
    H75      H        0.13440    0.97070    0.59810    1.000
    C75      C        0.05705    0.99820    0.52610    1.000
    C76      C        0.02332    0.03190    0.46520    1.000
    H76      H        0.03890    0.05410    0.44170    1.000
    C77      C        0.03305    0.96680    0.56100    1.000
    H77      H        0.05510    0.94490    0.60220    1.000
    C78      C        0.32675    0.04790    0.53560    1.000
    H78      H        0.32180    0.04060    0.49570    1.000
    C79      C        0.32090    0.10600    0.61240    1.000
    H79      H        0.31150    0.14700    0.63680    1.000
    C80      C        0.35870    0.98450    0.58470    1.000
    H80      H        0.37940    0.92690    0.58500    1.000
    C81      C        0.38200    0.97830    0.69700    1.000
    H81      H        0.37260    0.02040    0.72320    1.000
    H82      H        0.36930    0.90650    0.69600    1.000
    C82      C        0.47200    0.07300    0.73740    1.000
    H83      H        0.45320    0.13700    0.72890    1.000
    C83      C        0.44320    0.97800    0.72450    1.000
    C84      C        0.47180    0.88430    0.73700    1.000
    H84      H        0.45300    0.82030    0.72800    1.000
    N21      N        0.19494    0.19640    0.53082    1.000
    N22      N        0.14422    0.08810    0.55028    1.000
    N23      N        0.30309    0.12350    0.55311    1.000
    N24      N        0.35418    0.02220    0.63327    1.000
    C85      C        0.32665    0.60170    0.97850    1.000
    H85      H        0.32230    0.54970    0.00230    1.000
    C86      C        0.32122    0.74640    0.93220    1.000
    H86      H        0.31200    0.81550    0.91760    1.000
    C87      C        0.35250    0.68080    0.92000    1.000
    H87      H        0.36860    0.69590    0.89600    1.000
    C88      C        0.38162    0.49020    0.94550    1.000
    H88      H        0.37340    0.43380    0.96630    1.000
    H89      H        0.36560    0.47070    0.90190    1.000
    C89      C        0.44295    0.49820    0.97390    1.000
    C90      C        0.47668    0.53190    0.03480    1.000
    H90      H        0.46110    0.55410    0.05830    1.000
    C91      C        0.46695    0.46680    0.93900    1.000
    H91      H        0.44490    0.44490    0.89780    1.000
    C92      C        0.17325    0.54790    0.96440    1.000
    H92      H        0.17820    0.54060    0.00430    1.000
    C93      C        0.17910    0.60600    0.88760    1.000
    H93      H        0.18850    0.64700    0.86320    1.000
    C94      C        0.14130    0.48450    0.91530    1.000
    H94      H        0.12060    0.42690    0.91500    1.000
    C95      C        0.11800    0.47830    0.80300    1.000
    H95      H        0.12740    0.52040    0.77680    1.000
    H96      H        0.13070    0.40650    0.80400    1.000
    C96      C        0.02800    0.57300    0.76260    1.000
    H97      H        0.04680    0.63700    0.77110    1.000
    C97      C        0.05680    0.47800    0.77550    1.000
    C98      C        0.02820    0.38430    0.76300    1.000
    H98      H        0.04700    0.32030    0.77200    1.000
    N25      N        0.30506    0.69640    0.96918    1.000
    N26      N        0.35578    0.58810    0.94972    1.000
    N27      N        0.19691    0.62350    0.94689    1.000
    N28      N        0.14582    0.52220    0.86673    1.000
    C99      C        0.82665    0.10170    0.97850    1.000
    H99      H        0.82230    0.04970    0.00230    1.000
    C100     C        0.82122    0.24640    0.93220    1.000
    H100     H        0.81200    0.31550    0.91760    1.000
    C101     C        0.85250    0.18080    0.92000    1.000
    H101     H        0.86860    0.19590    0.89600    1.000
    C102     C        0.88162    0.99020    0.94550    1.000
    H102     H        0.87340    0.93380    0.96630    1.000
    H103     H        0.86560    0.97070    0.90190    1.000
    C103     C        0.94295    0.99820    0.97390    1.000
    C104     C        0.97668    0.03190    0.03480    1.000
    H104     H        0.96110    0.05410    0.05830    1.000
    C105     C        0.96695    0.96680    0.93900    1.000
    H105     H        0.94490    0.94490    0.89780    1.000
    C106     C        0.67325    0.04790    0.96440    1.000
    H106     H        0.67820    0.04060    0.00430    1.000
    C107     C        0.67910    0.10600    0.88760    1.000
    H107     H        0.68850    0.14700    0.86320    1.000
    C108     C        0.64130    0.98450    0.91530    1.000
    H108     H        0.62060    0.92690    0.91500    1.000
    C109     C        0.61800    0.97830    0.80300    1.000
    H109     H        0.62740    0.02040    0.77680    1.000
    H110     H        0.63070    0.90650    0.80400    1.000
    C110     C        0.52800    0.07300    0.76260    1.000
    H111     H        0.54680    0.13700    0.77110    1.000
    C111     C        0.55680    0.97800    0.77550    1.000
    C112     C        0.52820    0.88430    0.76300    1.000
    H112     H        0.54700    0.82030    0.77200    1.000
    N29      N        0.80506    0.19640    0.96918    1.000
    N30      N        0.85578    0.08810    0.94972    1.000
    N31      N        0.69691    0.12350    0.94689    1.000
    N32      N        0.64582    0.02220    0.86673    1.000
    Co1      Co       0.25000    0.25000    0.50000    1.000
    Co2      Co       0.75000    0.25000    0.00000    1.000
    Co3      Co       0.75000    0.75000    0.50000    1.000
    Co4      Co       0.25000    0.75000    0.00000    1.000
