data_functionalizedCrystal
_audit_creation_method	'EQeq! by Chris Wilmer'
_symmetry_space_group_name_H-M	'P1'
_symmetry_Int_Tables_number	1
_symmetry_cell_setting	triclinic
loop_
_symmetry_equiv_pos_as_xyz
  x,y,z
_cell_length_a	16.2244
_cell_length_b	20.9869
_cell_length_c	12.8491
_cell_angle_alpha	90
_cell_angle_beta	90
_cell_angle_gamma	90
loop_
_atom_site_label
_atom_site_type_symbol
_atom_site_fract_x
_atom_site_fract_y
_atom_site_fract_z
_atom_site_charge
Mof_Co	Co	0.66923	0.19686	0.02582	1.137
Mof_C 	C 	0.7716	0.2826	0.1186	0.382
Mof_C 	C 	0.8529	0.30881	0.1516	-0.287
Mof_C 	C 	0.9254	0.28231	0.1129	0.193
Mof_H 	H 	0.9231	0.2486	0.0636	-0.035
Mof_C 	C 	0.0005	0.30527	0.1466	-0.296
Mof_C 	C 	0.0028	0.3546	0.2189	0.27
Mof_H 	H 	0.0547	0.3699	0.2423	-0.087
Mof_C 	C 	0.9315	0.3822	0.2577	-0.477
Mof_C 	C 	0.8566	0.3577	0.2237	0.258
Mof_H 	H 	0.8069	0.375	0.2506	-0.106
Mof_C 	C 	0.078	0.2768	0.107	0.442
Mof_C 	C 	0.9347	0.4366	0.3367	0.989
Mof_C 	C 	0.9453	0.4075	0.4407	-1.223
Mof_H 	H 	0.9476	0.4411	0.4935	0.334
Mof_H 	H 	0.9966	0.3829	0.4422	0.355
Mof_H 	H 	0.8987	0.3792	0.4553	0.371
Mof_C 	C 	0.8583	0.4749	0.3406	-1.228
Mof_H 	H 	0.8499	0.4961	0.2734	0.317
Mof_H 	H 	0.863	0.5071	0.3956	0.355
Mof_H 	H 	0.8113	0.447	0.3553	0.358
Mof_C 	C 	0.0057	0.4788	0.318	-1.227
Mof_H 	H 	0.9999	0.4992	0.2497	0.336
Mof_H 	H 	0.0567	0.4537	0.3195	0.367
Mof_H 	H 	0.0078	0.5116	0.3722	0.336
Mof_C 	C 	0.2202	0.11644	0.1214	0.548
Mof_C 	C 	0.238	0.05592	0.1791	-0.526
Mof_C 	C 	0.2383	0.0559	0.2866	0.615
Mof_H 	H 	0.2303	0.0948	0.3229	-0.232
Mof_C 	C 	0.2283	0.0545	0.5091	-3.226
Mof_H 	H 	0.2305	0.0496	0.5849	0.884
Mof_H 	H 	0.1722	0.0659	0.488	0.91
Mof_H 	H 	0.2664	0.0883	0.4877	0.917
Mof_O 	O 	0.7065	0.30049	0.1587	-0.393
Mof_O 	O 	0.77364	0.24084	0.0462	-0.496
Mof_O 	O 	0.07199	0.24025	0.0279	-0.522
Mof_O 	O 	0.1443	0.28889	0.1511	-0.494
Mof_O 	O 	0.1943	0.11226	0.0302	-0.57
Mof_O 	O 	0.2314	0.16818	0.1642	-0.574
Mof_Co	Co	0.83077	0.80314	0.02582	1.14
Mof_C 	C 	0.7284	0.7174	0.1186	0.381
Mof_C 	C 	0.6471	0.69119	0.1516	-0.289
Mof_C 	C 	0.5746	0.71769	0.1129	0.195
Mof_H 	H 	0.5769	0.7514	0.0636	-0.033
Mof_C 	C 	0.4995	0.69473	0.1466	-0.298
Mof_C 	C 	0.4972	0.6454	0.2189	0.27
Mof_H 	H 	0.4453	0.6301	0.2423	-0.088
Mof_C 	C 	0.5685	0.6178	0.2577	-0.483
Mof_C 	C 	0.6434	0.6423	0.2237	0.261
Mof_H 	H 	0.6931	0.625	0.2506	-0.107
Mof_C 	C 	0.422	0.7232	0.107	0.442
Mof_C 	C 	0.5653	0.5634	0.3367	1.012
Mof_C 	C 	0.5547	0.5925	0.4407	-1.248
Mof_H 	H 	0.5524	0.5589	0.4935	0.345
Mof_H 	H 	0.5034	0.6171	0.4422	0.365
Mof_H 	H 	0.6013	0.6208	0.4553	0.378
Mof_C 	C 	0.6417	0.5251	0.3406	-1.249
Mof_H 	H 	0.6501	0.5039	0.2734	0.323
Mof_H 	H 	0.637	0.4929	0.3956	0.361
Mof_H 	H 	0.6887	0.553	0.3553	0.364
Mof_C 	C 	0.4943	0.5212	0.318	-1.259
Mof_H 	H 	0.5001	0.5008	0.2497	0.346
Mof_H 	H 	0.4433	0.5463	0.3195	0.375
Mof_H 	H 	0.4922	0.4884	0.3722	0.345
Mof_C 	C 	0.2798	0.88356	0.1214	0.548
Mof_C 	C 	0.262	0.94408	0.1791	-0.497
Mof_C 	C 	0.2617	0.9441	0.2866	0.65
Mof_H 	H 	0.2697	0.9052	0.3229	-0.238
Mof_C 	C 	0.2717	0.9455	0.5091	-3.187
Mof_H 	H 	0.2695	0.9504	0.5849	0.89
Mof_H 	H 	0.3278	0.9341	0.488	0.91
Mof_H 	H 	0.2336	0.9117	0.4877	0.913
Mof_O 	O 	0.7935	0.69951	0.1587	-0.392
Mof_O 	O 	0.72636	0.75916	0.0462	-0.491
Mof_O 	O 	0.42801	0.75975	0.0279	-0.517
Mof_O 	O 	0.3557	0.71111	0.1511	-0.494
Mof_O 	O 	0.3057	0.88774	0.0302	-0.559
Mof_O 	O 	0.2686	0.83182	0.1642	-0.572
Mof_Co	Co	0.83077	0.69686	0.47418	1.136
Mof_C 	C 	0.7284	0.7826	0.3814	0.371
Mof_C 	C 	0.6471	0.80881	0.3484	-0.256
Mof_C 	C 	0.5746	0.78231	0.3871	0.166
Mof_H 	H 	0.5769	0.7486	0.4364	-0.025
Mof_C 	C 	0.4995	0.80527	0.3534	-0.265
Mof_C 	C 	0.4972	0.8546	0.2811	0.212
Mof_H 	H 	0.4453	0.8699	0.2577	-0.063
Mof_C 	C 	0.5685	0.8822	0.2423	-0.383
Mof_C 	C 	0.6434	0.8577	0.2763	0.204
Mof_H 	H 	0.6931	0.875	0.2494	-0.081
Mof_C 	C 	0.422	0.7768	0.393	0.431
Mof_C 	C 	0.5653	0.9366	0.1633	0.787
Mof_C 	C 	0.5547	0.9075	0.0593	-1.043
Mof_H 	H 	0.5524	0.9411	0.0065	0.291
Mof_H 	H 	0.5034	0.8829	0.0578	0.306
Mof_H 	H 	0.6013	0.8792	0.0447	0.323
Mof_C 	C 	0.6417	0.9749	0.1594	-0.938
Mof_H 	H 	0.6501	0.9961	0.2266	0.25
Mof_H 	H 	0.637	0.0071	0.1044	0.246
Mof_H 	H 	0.6887	0.947	0.1447	0.282
Mof_C 	C 	0.4943	0.9788	0.182	-0.943
Mof_H 	H 	0.5001	0.9992	0.2503	0.271
Mof_H 	H 	0.4433	0.9537	0.1805	0.29
Mof_H 	H 	0.4922	0.0116	0.1278	0.225
Mof_C 	C 	0.2798	0.61644	0.3786	0.556
Mof_C 	C 	0.262	0.55592	0.3209	-0.54
Mof_C 	C 	0.2617	0.5559	0.2134	0.626
Mof_H 	H 	0.2697	0.5948	0.1771	-0.236
Mof_C 	C 	0.2717	0.5545	0.9909	-3.275
Mof_H 	H 	0.2695	0.5496	0.9151	0.905
Mof_H 	H 	0.3278	0.5659	0.012	0.924
Mof_H 	H 	0.2336	0.5883	0.0123	0.929
Mof_O 	O 	0.7935	0.80049	0.3413	-0.387
Mof_O 	O 	0.72636	0.74084	0.4538	-0.491
Mof_O 	O 	0.42801	0.74025	0.4721	-0.515
Mof_O 	O 	0.3557	0.78889	0.3489	-0.489
Mof_O 	O 	0.3057	0.61226	0.4698	-0.567
Mof_O 	O 	0.2686	0.66818	0.3358	-0.575
Mof_Co	Co	0.66923	0.30314	0.47418	1.136
Mof_C 	C 	0.7716	0.2174	0.3814	0.392
Mof_C 	C 	0.8529	0.19119	0.3484	-0.316
Mof_C 	C 	0.9254	0.21769	0.3871	0.212
Mof_H 	H 	0.9231	0.2514	0.4364	-0.042
Mof_C 	C 	0.0005	0.19473	0.3534	-0.32
Mof_C 	C 	0.0028	0.1454	0.2811	0.327
Mof_H 	H 	0.0547	0.1301	0.2577	-0.11
Mof_C 	C 	0.9315	0.1178	0.2423	-0.575
Mof_C 	C 	0.8566	0.1423	0.2763	0.313
Mof_H 	H 	0.8069	0.125	0.2494	-0.129
Mof_C 	C 	0.078	0.2232	0.393	0.451
Mof_C 	C 	0.9347	0.0634	0.1633	1.207
Mof_C 	C 	0.9453	0.0925	0.0593	-1.428
Mof_H 	H 	0.9476	0.0589	0.0065	0.393
Mof_H 	H 	0.9966	0.1171	0.0578	0.415
Mof_H 	H 	0.8987	0.1208	0.0447	0.43
Mof_C 	C 	0.8583	0.0251	0.1594	-1.548
Mof_H 	H 	0.8499	0.0039	0.2266	0.397
Mof_H 	H 	0.863	0.9929	0.1044	0.479
Mof_H 	H 	0.8113	0.053	0.1447	0.446
Mof_C 	C 	0.0057	0.0212	0.182	-1.505
Mof_H 	H 	0.9999	0.0008	0.2503	0.401
Mof_H 	H 	0.0567	0.0463	0.1805	0.444
Mof_H 	H 	0.0078	0.9884	0.1278	0.44
Mof_C 	C 	0.2202	0.38356	0.3786	0.557
Mof_C 	C 	0.238	0.44408	0.3209	-0.539
Mof_C 	C 	0.2383	0.4441	0.2134	0.626
Mof_H 	H 	0.2303	0.4052	0.1771	-0.236
Mof_C 	C 	0.2283	0.4455	0.9909	-3.269
Mof_H 	H 	0.2305	0.4504	0.9151	0.904
Mof_H 	H 	0.1722	0.4341	0.012	0.921
Mof_H 	H 	0.2664	0.4117	0.0123	0.927
Mof_O 	O 	0.7065	0.19951	0.3413	-0.397
Mof_O 	O 	0.77364	0.25916	0.4538	-0.498
Mof_O 	O 	0.07199	0.25975	0.4721	-0.518
Mof_O 	O 	0.1443	0.21111	0.3489	-0.496
Mof_O 	O 	0.1943	0.38774	0.4698	-0.566
Mof_O 	O 	0.2314	0.33182	0.3358	-0.575
Mof_Co	Co	0.33077	0.80314	0.97418	1.138
Mof_C 	C 	0.2284	0.7174	0.8814	0.386
Mof_C 	C 	0.1471	0.69119	0.8484	-0.302
Mof_C 	C 	0.0746	0.71769	0.8871	0.219
Mof_H 	H 	0.0769	0.7514	0.9364	-0.038
Mof_C 	C 	0.9995	0.69473	0.8534	-0.32
Mof_C 	C 	0.9972	0.6454	0.7811	0.277
Mof_H 	H 	0.9453	0.6301	0.7577	-0.093
Mof_C 	C 	0.0685	0.6178	0.7423	-0.501
Mof_C 	C 	0.1434	0.6423	0.7763	0.278
Mof_H 	H 	0.1931	0.625	0.7494	-0.114
Mof_C 	C 	0.922	0.7232	0.893	0.449
Mof_C 	C 	0.0653	0.5634	0.6633	1.076
Mof_C 	C 	0.0547	0.5925	0.5593	-1.306
Mof_H 	H 	0.0524	0.5589	0.5065	0.363
Mof_H 	H 	0.0034	0.6171	0.5578	0.384
Mof_H 	H 	0.1013	0.6208	0.5447	0.395
Mof_C 	C 	0.1417	0.5251	0.6594	-1.307
Mof_H 	H 	0.1501	0.5039	0.7266	0.34
Mof_H 	H 	0.137	0.4929	0.6044	0.379
Mof_H 	H 	0.1887	0.553	0.6447	0.38
Mof_C 	C 	0.9943	0.5212	0.682	-1.36
Mof_H 	H 	0.0001	0.5008	0.7503	0.382
Mof_H 	H 	0.9433	0.5463	0.6805	0.402
Mof_H 	H 	0.9922	0.4884	0.6278	0.371
Mof_C 	C 	0.7798	0.88356	0.8786	0.543
Mof_C 	C 	0.762	0.94408	0.8209	-0.482
Mof_C 	C 	0.7617	0.9441	0.7134	0.636
Mof_H 	H 	0.7697	0.9052	0.6771	-0.232
Mof_C 	C 	0.7717	0.9455	0.4909	-3.088
Mof_H 	H 	0.7695	0.9504	0.4151	0.865
Mof_H 	H 	0.8278	0.9341	0.512	0.883
Mof_H 	H 	0.7336	0.9117	0.5123	0.887
Mof_O 	O 	0.2935	0.69951	0.8413	-0.394
Mof_O 	O 	0.22636	0.75916	0.9538	-0.493
Mof_O 	O 	0.92801	0.75975	0.9721	-0.524
Mof_O 	O 	0.8557	0.71111	0.8489	-0.496
Mof_O 	O 	0.8057	0.88774	0.9698	-0.557
Mof_O 	O 	0.7686	0.83182	0.8358	-0.57
Mof_Co	Co	0.16923	0.19686	0.97418	1.138
Mof_C 	C 	0.2716	0.2826	0.8814	0.382
Mof_C 	C 	0.3529	0.30881	0.8484	-0.291
Mof_C 	C 	0.4254	0.28231	0.8871	0.197
Mof_H 	H 	0.4231	0.2486	0.9364	-0.037
Mof_C 	C 	0.5005	0.30527	0.8534	-0.301
Mof_C 	C 	0.5028	0.3546	0.7811	0.271
Mof_H 	H 	0.5547	0.3699	0.7577	-0.088
Mof_C 	C 	0.4315	0.3822	0.7423	-0.484
Mof_C 	C 	0.3566	0.3577	0.7763	0.263
Mof_H 	H 	0.3069	0.375	0.7494	-0.108
Mof_C 	C 	0.578	0.2768	0.893	0.443
Mof_C 	C 	0.4347	0.4366	0.6633	1.014
Mof_C 	C 	0.4453	0.4075	0.5593	-1.25
Mof_H 	H 	0.4476	0.4411	0.5065	0.345
Mof_H 	H 	0.4966	0.3829	0.5578	0.366
Mof_H 	H 	0.3987	0.3792	0.5447	0.38
Mof_C 	C 	0.3583	0.4749	0.6594	-1.25
Mof_H 	H 	0.3499	0.4961	0.7266	0.323
Mof_H 	H 	0.363	0.5071	0.6044	0.361
Mof_H 	H 	0.3113	0.447	0.6447	0.364
Mof_C 	C 	0.5057	0.4788	0.682	-1.261
Mof_H 	H 	0.4999	0.4992	0.7503	0.347
Mof_H 	H 	0.5567	0.4537	0.6805	0.376
Mof_H 	H 	0.5078	0.5116	0.6278	0.345
Mof_C 	C 	0.7202	0.11644	0.8786	0.543
Mof_C 	C 	0.738	0.05592	0.8209	-0.515
Mof_C 	C 	0.7383	0.0559	0.7134	0.596
Mof_H 	H 	0.7303	0.0948	0.6771	-0.225
Mof_C 	C 	0.7283	0.0545	0.4909	-3.132
Mof_H 	H 	0.7305	0.0496	0.4151	0.857
Mof_H 	H 	0.6722	0.0659	0.512	0.883
Mof_H 	H 	0.7664	0.0883	0.5123	0.89
Mof_O 	O 	0.2065	0.30049	0.8413	-0.392
Mof_O 	O 	0.27364	0.24084	0.9538	-0.496
Mof_O 	O 	0.57199	0.24025	0.9721	-0.522
Mof_O 	O 	0.6443	0.28889	0.8489	-0.495
Mof_O 	O 	0.6943	0.11226	0.9698	-0.569
Mof_O 	O 	0.7314	0.16818	0.8358	-0.574
Mof_Co	Co	0.16923	0.30314	0.52582	1.136
Mof_C 	C 	0.2716	0.2174	0.6186	0.394
Mof_C 	C 	0.3529	0.19119	0.6516	-0.325
Mof_C 	C 	0.4254	0.21769	0.6129	0.228
Mof_H 	H 	0.4231	0.2514	0.5636	-0.046
Mof_C 	C 	0.5005	0.19473	0.6466	-0.334
Mof_C 	C 	0.5028	0.1454	0.7189	0.333
Mof_H 	H 	0.5547	0.1301	0.7423	-0.114
Mof_C 	C 	0.4315	0.1178	0.7577	-0.588
Mof_C 	C 	0.3566	0.1423	0.7237	0.324
Mof_H 	H 	0.3069	0.125	0.7506	-0.133
Mof_C 	C 	0.578	0.2232	0.607	0.455
Mof_C 	C 	0.4347	0.0634	0.8367	1.251
Mof_C 	C 	0.4453	0.0925	0.9407	-1.468
Mof_H 	H 	0.4476	0.0589	0.9935	0.405
Mof_H 	H 	0.4966	0.1171	0.9422	0.428
Mof_H 	H 	0.3987	0.1208	0.9553	0.441
Mof_C 	C 	0.3583	0.0251	0.8406	-1.573
Mof_H 	H 	0.3499	0.0039	0.7734	0.404
Mof_H 	H 	0.363	0.9929	0.8956	0.481
Mof_H 	H 	0.3113	0.053	0.8553	0.454
Mof_C 	C 	0.5057	0.0212	0.818	-1.592
Mof_H 	H 	0.4999	0.0008	0.7497	0.43
Mof_H 	H 	0.5567	0.0463	0.8195	0.467
Mof_H 	H 	0.5078	0.9884	0.8722	0.47
Mof_C 	C 	0.7202	0.38356	0.6214	0.556
Mof_C 	C 	0.738	0.44408	0.6791	-0.539
Mof_C 	C 	0.7383	0.4441	0.7866	0.623
Mof_H 	H 	0.7303	0.4052	0.8229	-0.235
Mof_C 	C 	0.7283	0.4455	0.0091	-3.266
Mof_H 	H 	0.7305	0.4504	0.0849	0.903
Mof_H 	H 	0.6722	0.4341	0.988	0.922
Mof_H 	H 	0.7664	0.4117	0.9877	0.926
Mof_O 	O 	0.2065	0.19951	0.6587	-0.397
Mof_O 	O 	0.27364	0.25916	0.5462	-0.498
Mof_O 	O 	0.57199	0.25975	0.5279	-0.522
Mof_O 	O 	0.6443	0.21111	0.6511	-0.497
Mof_O 	O 	0.6943	0.38774	0.5302	-0.566
Mof_O 	O 	0.7314	0.33182	0.6642	-0.575
Mof_Co	Co	0.33077	0.69686	0.52582	1.136
Mof_C 	C 	0.2284	0.7826	0.6186	0.373
Mof_C 	C 	0.1471	0.80881	0.6516	-0.264
Mof_C 	C 	0.0746	0.78231	0.6129	0.18
Mof_H 	H 	0.0769	0.7486	0.5636	-0.029
Mof_C 	C 	0.9995	0.80527	0.6466	-0.277
Mof_C 	C 	0.9972	0.8546	0.7189	0.215
Mof_H 	H 	0.9453	0.8699	0.7423	-0.066
Mof_C 	C 	0.0685	0.8822	0.7577	-0.396
Mof_C 	C 	0.1434	0.8577	0.7237	0.214
Mof_H 	H 	0.1931	0.875	0.7506	-0.087
Mof_C 	C 	0.922	0.7768	0.607	0.435
Mof_C 	C 	0.0653	0.9366	0.8367	0.832
Mof_C 	C 	0.0547	0.9075	0.9407	-1.089
Mof_H 	H 	0.0524	0.9411	0.9935	0.308
Mof_H 	H 	0.0034	0.8829	0.9422	0.324
Mof_H 	H 	0.1013	0.8792	0.9553	0.337
Mof_C 	C 	0.1417	0.9749	0.8406	-0.994
Mof_H 	H 	0.1501	0.9961	0.7734	0.263
Mof_H 	H 	0.137	0.0071	0.8956	0.268
Mof_H 	H 	0.1887	0.947	0.8553	0.296
Mof_C 	C 	0.9943	0.9788	0.818	-0.996
Mof_H 	H 	0.0001	0.9992	0.7497	0.29
Mof_H 	H 	0.9433	0.9537	0.8195	0.304
Mof_H 	H 	0.9922	0.0116	0.8722	0.233
Mof_C 	C 	0.7798	0.61644	0.6214	0.555
Mof_C 	C 	0.762	0.55592	0.6791	-0.539
Mof_C 	C 	0.7617	0.5559	0.7866	0.623
Mof_H 	H 	0.7697	0.5948	0.8229	-0.235
Mof_C 	C 	0.7717	0.5545	0.0091	-3.26
Mof_H 	H 	0.7695	0.5496	0.0849	0.902
Mof_H 	H 	0.8278	0.5659	0.988	0.918
Mof_H 	H 	0.7336	0.5883	0.9877	0.925
Mof_O 	O 	0.2935	0.80049	0.6587	-0.389
Mof_O 	O 	0.22636	0.74084	0.5462	-0.493
Mof_O 	O 	0.92801	0.74025	0.5279	-0.518
Mof_O 	O 	0.8557	0.78889	0.6511	-0.49
Mof_O 	O 	0.8057	0.61226	0.5302	-0.567
Mof_O 	O 	0.7686	0.66818	0.6642	-0.574
Mof_Co	Co	0.23291	0.25	0.25	1.141
Mof_Co	Co	0.26709	0.75	0.25	1.141
Mof_Co	Co	0.76709	0.75	0.75	1.141
Mof_Co	Co	0.73291	0.25	0.75	1.14
Mof_C 	C 	0.25	-1.44245e-33	0.3427	-1.092
Mof_C 	C 	0.25	-2.8849e-33	0.4639	2.194
Mof_C 	C 	0.25	0	0.1253	0.356
Mof_H 	H 	0.25	0	0.0513	-0.117
Mof_C 	C 	0.25	0.5	0.1573	-1.077
Mof_C 	C 	0.25	0.5	0.0361	2.257
Mof_C 	C 	0.25	0.5	0.3747	0.413
Mof_H 	H 	0.25	0.5	0.4487	-0.123
Mof_C 	C 	0.75	0	0.6573	-1.067
Mof_C 	C 	0.75	-2.8849e-33	0.5361	2.122
Mof_C 	C 	0.75	0	0.8747	0.339
Mof_H 	H 	0.75	5.7698e-33	0.9487	-0.113
Mof_C 	C 	0.75	0.5	0.8427	-1.075
Mof_C 	C 	0.75	0.5	0.9639	2.251
Mof_C 	C 	0.75	0.5	0.6253	0.412
Mof_H 	H 	0.75	0.5	0.5513	-0.122
_end
