data_functionalizedCrystal
_audit_creation_method	'EQeq! by Chris Wilmer'
_symmetry_space_group_name_H-M	'P1'
_symmetry_Int_Tables_number	1
_symmetry_cell_setting	triclinic
loop_
_symmetry_equiv_pos_as_xyz
  x,y,z
_cell_length_a	31.0368
_cell_length_b	31.0368
_cell_length_c	31.0368
_cell_angle_alpha	108.284
_cell_angle_beta	108.284
_cell_angle_gamma	111.873
loop_
_atom_site_label
_atom_site_type_symbol
_atom_site_fract_x
_atom_site_fract_y
_atom_site_fract_z
_atom_site_charge
Mof_Zn	Zn	0.58574	0.88904	0.58136	1.235
Mof_Zn	Zn	0.63679	0.86799	0.50576	1.233
Mof_Zn	Zn	0.64269	0.81475	0.58158	1.23
Mof_H 	H 	0.8253	0.381	0.6815	0.07
Mof_H 	H 	0.8441	0.4483	0.7572	0.029
Mof_H 	H 	0.743	0.3397	0.7765	0.028
Mof_H 	H 	0.724	0.2722	0.7006	0.07
Mof_H 	H 	0.7265	0.166	0.5133	0.093
Mof_H 	H 	0.775	0.3195	0.5973	0.092
Mof_H 	H 	0.7447	0.2215	0.6574	0.08
Mof_H 	H 	0.7163	0.0236	0.5227	0.03
Mof_H 	H 	0.7509	0.1107	0.5384	0.066
Mof_H 	H 	0.6737	0.1333	0.6176	0.069
Mof_H 	H 	0.6391	0.0463	0.602	0.033
Mof_H 	H 	0.6287	0.3041	0.932	0.066
Mof_H 	H 	0.7034	0.3775	0.9491	0.034
Mof_H 	H 	0.6093	0.4092	0.8583	0.037
Mof_H 	H 	0.5347	0.3358	0.8413	0.067
Mof_H 	H 	0.5615	0.2212	0.8809	0.093
Mof_H 	H 	0.4752	0.2899	0.8613	0.078
Mof_H 	H 	0.4074	0.142	0.842	0.091
Mof_H 	H 	0.6681	0.1431	0.8788	0.079
Mof_H 	H 	0.5097	0.0722	0.7923	0.094
Mof_H 	H 	0.5859	0.1878	0.9407	0.091
Mof_H 	H 	0.5268	0.9827	0.6601	0.067
Mof_H 	H 	0.6545	0.0651	0.8258	0.056
Mof_H 	H 	0.6534	0.0085	0.7583	0.048
Mof_H 	H 	0.2558	0.1301	0.7513	0.012
Mof_H 	H 	0.3373	0.1365	0.7774	0.081
Mof_H 	H 	0.4058	0.2867	0.8829	0.081
Mof_H 	H 	0.3242	0.2776	0.862	0.019
Mof_H 	H 	0.8116	0.2877	0.0213	0.016
Mof_H 	H 	0.6508	0.1988	0.0128	0.08
Mof_H 	H 	0.7276	0.2536	0.092	0.016
Mof_H 	H 	0.7362	0.2347	0.9429	0.079
Mof_H 	H 	0.61358	0.81959	0.39976	0.132
Mof_H 	H 	0.522	0.0417	0.7275	0.053
Mof_H 	H 	0.8326	0.5095	0.8599	0.212
Mof_C 	C 	0.7728	0.31996	0.68354	0.04
Mof_C 	C 	0.80877	0.3727	0.70049	-0.113
Mof_C 	C 	0.82008	0.41304	0.7459	0.058
Mof_C 	C 	0.79543	0.40064	0.77437	-0.145
Mof_C 	C 	0.75946	0.3479	0.75742	0.058
Mof_C 	C 	0.74815	0.30756	0.71201	-0.113
Mof_C 	C 	0.73301	0.18545	0.58458	0.075
Mof_C 	C 	0.73543	0.19394	0.54379	-0.169
Mof_C 	C 	0.75118	0.24416	0.54854	0.122
Mof_C 	C 	0.76451	0.28589	0.5941	-0.168
Mof_C 	C 	0.7621	0.27741	0.63489	0.074
Mof_C 	C 	0.74634	0.22719	0.63013	-0.142
Mof_C 	C 	0.67428	0.02627	0.56079	-0.126
Mof_C 	C 	0.70774	0.04557	0.54173	0.047
Mof_C 	C 	0.72847	0.09774	0.55111	-0.106
Mof_C 	C 	0.71575	0.13064	0.57957	0.034
Mof_C 	C 	0.68229	0.11136	0.59865	-0.104
Mof_C 	C 	0.66155	0.05918	0.58925	0.044
Mof_C 	C 	0.57431	0.3127	0.88499	0.032
Mof_C 	C 	0.62485	0.3252	0.91729	-0.101
Mof_C 	C 	0.66958	0.36921	0.92751	0.036
Mof_C 	C 	0.66376	0.4007	0.90542	-0.113
Mof_C 	C 	0.61322	0.38819	0.87313	0.037
Mof_C 	C 	0.56849	0.34419	0.8629	-0.101
Mof_C 	C 	0.48506	0.17443	0.86147	0.119
Mof_C 	C 	0.52941	0.2198	0.87313	-0.168
Mof_C 	C 	0.52572	0.26307	0.87309	0.073
Mof_C 	C 	0.47767	0.26096	0.86139	-0.136
Mof_C 	C 	0.43333	0.2156	0.84975	0.061
Mof_C 	C 	0.43702	0.17232	0.84978	-0.165
Mof_C 	C 	0.63473	0.17163	0.91752	0.065
Mof_C 	C 	0.63592	0.13961	0.87553	-0.142
Mof_C 	C 	0.5891	0.10237	0.82863	0.082
Mof_C 	C 	0.54109	0.09716	0.82371	-0.172
Mof_C 	C 	0.5399	0.12918	0.8657	0.123
Mof_C 	C 	0.58672	0.16641	0.91261	-0.168
Mof_C 	C 	0.3805	0.2108	0.8351	0.062
Mof_C 	C 	0.7135	0.4463	0.914	0.405
Mof_C 	C 	0.6479	0.9678	0.5487	0.441
Mof_C 	C 	0.59122	0.99202	0.7032	-0.051
Mof_C 	C 	0.554	0.0004	0.6942	-0.028
Mof_C 	C 	0.5893	0.0647	0.783	0.01
Mof_C 	C 	0.628	0.0507	0.7921	-0.073
Mof_C 	C 	0.6263	0.0158	0.7509	-0.003
Mof_C 	C 	0.5909	0.9547	0.6584	0.303
Mof_C 	C 	0.2809	0.2024	0.8047	-0.183
Mof_C 	C 	0.286	0.1615	0.7795	0.094
Mof_C 	C 	0.3354	0.1656	0.795	-0.144
Mof_C 	C 	0.3752	0.2537	0.8577	-0.14
Mof_C 	C 	0.3263	0.2488	0.8441	0.094
Mof_C 	C 	0.23	0.1979	0.7905	0.435
Mof_C 	C 	0.7791	0.2701	0.02	0.084
Mof_C 	C 	0.778	0.2776	0.066	-0.169
Mof_C 	C 	0.8261	0.3119	0.1172	0.427
Mof_C 	C 	0.6844	0.2089	0.9693	0.055
Mof_C 	C 	0.6831	0.2163	0.014	-0.138
Mof_C 	C 	0.7296	0.25	0.062	0.081
Mof_C 	C 	0.7342	0.2378	0.9728	-0.139
Mof_C 	C 	0.5513	0.0378	0.7357	-0.063
Mof_C 	C 	0.8083	0.4439	0.8234	0.447
Mof_O 	O 	0.6283	0.859	0.4319	-0.392
Mof_O 	O 	0.61603	0.95235	0.56248	-0.458
Mof_O 	O 	0.66651	0.94388	0.52855	-0.487
Mof_O 	O 	0.64389	0.87679	0.57858	-0.772
Mof_O 	O 	0.55176	0.92752	0.61412	-0.374
Mof_O 	O 	0.63179	0.9513	0.66745	-0.35
Mof_O 	O 	0.2277	0.23651	0.81689	-0.459
Mof_O 	O 	0.18928	0.156	0.752	-0.505
Mof_O 	O 	0.87021	0.33544	0.11865	-0.499
Mof_O 	O 	0.82059	0.31529	0.15582	-0.504
Mof_O 	O 	0.70467	0.47593	0.897	-0.438
Mof_O 	O 	0.75582	0.45029	0.93489	-0.494
Mof_O 	O 	0.79088	0.43049	0.85125	-0.499
Mof_O 	O 	0.8276	0.4901	0.8315	-0.513
Mof_H 	H 	0.67611	0.90901	0.6108	0.161
Mof_H 	H 	0.11793	0.57092	0.7904	0.103
Mof_Zn	Zn	0.30768	0.00438	0.41864	1.232
Mof_Zn	Zn	0.36223	0.13103	0.49424	1.232
Mof_Zn	Zn	0.23317	0.06111	0.41842	1.228
Mof_H 	H 	0.6995	0.1438	0.3185	0.068
Mof_H 	H 	0.6911	0.0869	0.2428	0.029
Mof_H 	H 	0.5632	0.9665	0.2235	0.038
Mof_H 	H 	0.5716	0.0234	0.2994	0.066
Mof_H 	H 	0.6527	0.2132	0.4867	0.094
Mof_H 	H 	0.7222	0.1777	0.4027	0.092
Mof_H 	H 	0.5641	0.0873	0.3426	0.081
Mof_H 	H 	0.5009	0.1936	0.4773	0.034
Mof_H 	H 	0.5723	0.2125	0.4616	0.065
Mof_H 	H 	0.5157	0.0561	0.3824	0.067
Mof_H 	H 	0.4443	0.0371	0.398	0.036
Mof_H 	H 	0.3721	0.6967	0.068	0.067
Mof_H 	H 	0.4284	0.7543	0.0509	0.035
Mof_H 	H 	0.5509	0.751	0.1417	0.037
Mof_H 	H 	0.4945	0.6934	0.1587	0.067
Mof_H 	H 	0.3403	0.6806	0.1191	0.093
Mof_H 	H 	0.4286	0.6139	0.1387	0.078
Mof_H 	H 	0.3	0.5654	0.158	0.091
Mof_H 	H 	0.2643	0.7893	0.1212	0.074
Mof_H 	H 	0.2799	0.7174	0.2077	0.088
Mof_H 	H 	0.2471	0.6452	0.0593	0.088
Mof_H 	H 	0.3226	0.8667	0.3399	0.03
Mof_H 	H 	0.2393	0.8287	0.1742	0.082
Mof_H 	H 	0.2502	0.8951	0.2417	0.021
Mof_H 	H 	0.3788	0.5045	0.2487	0.013
Mof_H 	H 	0.3591	0.5599	0.2226	0.082
Mof_H 	H 	0.4038	0.5229	0.1171	0.081
Mof_H 	H 	0.4156	0.4622	0.138	0.019
Mof_H 	H 	0.2664	0.7903	0.9787	0.016
Mof_H 	H 	0.186	0.638	0.9872	0.082
Mof_H 	H 	0.1616	0.6356	0.908	0.016
Mof_H 	H 	0.2918	0.7933	0.0571	0.081
Mof_H 	H 	0.41983	0.21382	0.60024	0.132
Mof_H 	H 	0.3142	0.7945	0.2725	0.078
Mof_H 	H 	0.6496	0.9727	0.1401	0.212
Mof_C 	C 	0.63642	0.08926	0.31646	0.035
Mof_C 	C 	0.67221	0.10828	0.29951	-0.11
Mof_C 	C 	0.66714	0.07418	0.2541	0.056
Mof_C 	C 	0.62627	0.02106	0.22563	-0.145
Mof_C 	C 	0.59048	0.00204	0.24258	0.042
Mof_C 	C 	0.59555	0.03614	0.28799	-0.104
Mof_C 	C 	0.60087	0.14843	0.41542	0.077
Mof_C 	C 	0.65015	0.19164	0.45621	-0.171
Mof_C 	C 	0.69562	0.20264	0.45146	0.123
Mof_C 	C 	0.69179	0.17041	0.4059	-0.17
Mof_C 	C 	0.64252	0.12721	0.36511	0.076
Mof_C 	C 	0.59706	0.11621	0.36987	-0.144
Mof_C 	C 	0.46548	0.11349	0.43921	-0.116
Mof_C 	C 	0.50384	0.16601	0.45827	0.041
Mof_C 	C 	0.54663	0.17736	0.44889	-0.101
Mof_C 	C 	0.55107	0.13618	0.42043	0.031
Mof_C 	C 	0.51271	0.08364	0.40135	-0.099
Mof_C 	C 	0.46993	0.0723	0.41075	0.038
Mof_C 	C 	0.42771	0.68932	0.11501	0.032
Mof_C 	C 	0.40791	0.70756	0.08271	-0.1
Mof_C 	C 	0.4417	0.74207	0.07249	0.036
Mof_C 	C 	0.49528	0.75834	0.09458	-0.112
Mof_C 	C 	0.51506	0.74009	0.12687	0.037
Mof_C 	C 	0.48129	0.70559	0.1371	-0.101
Mof_C 	C 	0.31296	0.62359	0.13853	0.117
Mof_C 	C 	0.34667	0.65628	0.12687	-0.167
Mof_C 	C 	0.38998	0.65263	0.12691	0.073
Mof_C 	C 	0.39957	0.61628	0.13861	-0.136
Mof_C 	C 	0.36585	0.58358	0.15025	0.06
Mof_C 	C 	0.32254	0.58724	0.15022	-0.164
Mof_C 	C 	0.25411	0.71721	0.08248	0.056
Mof_C 	C 	0.26408	0.76039	0.12447	-0.126
Mof_C 	C 	0.27374	0.76047	0.17137	0.057
Mof_C 	C 	0.27345	0.71738	0.17629	-0.156
Mof_C 	C 	0.26348	0.6742	0.1343	0.114
Mof_C 	C 	0.2538	0.67411	0.08739	-0.159
Mof_C 	C 	0.3757	0.5454	0.1649	0.062
Mof_C 	C 	0.5323	0.7995	0.086	0.405
Mof_C 	C 	0.4191	0.0992	0.4513	0.433
Mof_C 	C 	0.28882	0.88802	0.2968	-0.145
Mof_C 	C 	0.3062	0.8598	0.3058	0.07
Mof_C 	C 	0.2817	0.8063	0.217	0.066
Mof_C 	C 	0.2586	0.8359	0.2079	-0.142
Mof_C 	C 	0.2649	0.8754	0.2491	0.089
Mof_C 	C 	0.2963	0.9325	0.3416	0.336
Mof_C 	C 	0.3977	0.4762	0.1953	-0.183
Mof_C 	C 	0.382	0.5065	0.2205	0.095
Mof_C 	C 	0.3706	0.5404	0.205	-0.144
Mof_C 	C 	0.396	0.5175	0.1423	-0.141
Mof_C 	C 	0.4047	0.4822	0.1559	0.094
Mof_C 	C 	0.4074	0.4395	0.2095	0.435
Mof_C 	C 	0.2501	0.7591	0.98	0.085
Mof_C 	C 	0.2116	0.712	0.934	-0.169
Mof_C 	C 	0.1947	0.7089	0.8828	0.427
Mof_C 	C 	0.2396	0.7151	0.0307	0.061
Mof_C 	C 	0.2023	0.6691	0.986	-0.142
Mof_C 	C 	0.188	0.6676	0.938	0.084
Mof_C 	C 	0.265	0.7614	0.0272	-0.141
Mof_C 	C 	0.3021	0.8156	0.2643	-0.131
Mof_C 	C 	0.6205	0.9849	0.1766	0.451
Mof_O 	O 	0.4271	0.1964	0.5681	-0.393
Mof_O 	O 	0.38987	0.05355	0.43752	-0.46
Mof_O 	O 	0.41533	0.13796	0.47145	-0.487
Mof_O 	O 	0.29821	0.06531	0.42142	-0.772
Mof_O 	O 	0.3134	0.93764	0.38588	-0.38
Mof_O 	O 	0.28385	0.96434	0.33255	-0.356
Mof_O 	O 	0.41962	0.41081	0.18311	-0.459
Mof_O 	O 	0.404	0.43728	0.248	-0.505
Mof_O 	O 	0.21679	0.75156	0.88135	-0.498
Mof_O 	O 	0.15947	0.66477	0.84418	-0.503
Mof_O 	O 	0.57893	0.80767	0.103	-0.438
Mof_O 	O 	0.5154	0.82093	0.06511	-0.494
Mof_O 	O 	0.57924	0.93963	0.14875	-0.499
Mof_O 	O 	0.6586	0.9961	0.1685	-0.511
Mof_H 	H 	0.29821	0.06531	0.3892	0.16
Mof_H 	H 	0.78053	0.32753	0.2096	0.102
Mof_Zn	Zn	0.11096	0.69232	0.6967	1.234
Mof_Zn	Zn	0.13201	0.63777	0.7688	1.232
Mof_Zn	Zn	0.18525	0.76683	0.82794	1.229
Mof_H 	H 	0.619	0.3005	0.4443	0.069
Mof_H 	H 	0.5517	0.3089	0.3958	0.03
Mof_H 	H 	0.6603	0.4368	0.4033	0.028
Mof_H 	H 	0.7278	0.4284	0.4518	0.07
Mof_H 	H 	0.834	0.3473	0.5605	0.093
Mof_H 	H 	0.6805	0.2778	0.4555	0.092
Mof_H 	H 	0.7785	0.4359	0.5232	0.08
Mof_H 	H 	0.9764	0.4991	0.6927	0.03
Mof_H 	H 	0.8893	0.4277	0.6402	0.066
Mof_H 	H 	0.8667	0.4843	0.5404	0.069
Mof_H 	H 	0.9537	0.5557	0.5928	0.033
Mof_H 	H 	0.6959	0.6279	0.3246	0.067
Mof_H 	H 	0.6225	0.5716	0.3259	0.035
Mof_H 	H 	0.5908	0.4491	0.2001	0.037
Mof_H 	H 	0.6642	0.5055	0.1989	0.067
Mof_H 	H 	0.7788	0.6597	0.3403	0.093
Mof_H 	H 	0.7101	0.5714	0.1853	0.078
Mof_H 	H 	0.858	0.7	0.2654	0.091
Mof_H 	H 	0.8569	0.7357	0.525	0.08
Mof_H 	H 	0.9278	0.7201	0.4375	0.094
Mof_H 	H 	0.8122	0.7529	0.3981	0.091
Mof_H 	H 	0.0173	0.6774	0.5441	0.068
Mof_H 	H 	0.9349	0.7607	0.5894	0.056
Mof_H 	H 	0.9915	0.7498	0.6449	0.049
Mof_H 	H 	0.8699	0.6212	0.1257	0.012
Mof_H 	H 	0.8635	0.6409	0.2008	0.081
Mof_H 	H 	0.7133	0.5962	0.1191	0.081
Mof_H 	H 	0.7224	0.5844	0.0466	0.019
Mof_H 	H 	0.7123	0.7336	0.5239	0.016
Mof_H 	H 	0.8012	0.814	0.452	0.08
Mof_H 	H 	0.7464	0.8384	0.474	0.017
Mof_H 	H 	0.7653	0.7082	0.5015	0.079
Mof_H 	H 	0.18041	0.58017	0.79399	0.132
Mof_H 	H 	0.9583	0.6858	0.4803	0.053
Mof_H 	H 	0.4905	0.3504	0.3231	0.212
Mof_C 	C 	0.68004	0.36358	0.45284	0.04
Mof_C 	C 	0.6273	0.32779	0.43607	-0.112
Mof_C 	C 	0.58696	0.33286	0.40704	0.058
Mof_C 	C 	0.59936	0.37373	0.39479	-0.144
Mof_C 	C 	0.6521	0.40952	0.41156	0.058
Mof_C 	C 	0.69244	0.40445	0.44059	-0.112
Mof_C 	C 	0.81455	0.39913	0.54756	0.075
Mof_C 	C 	0.80606	0.34985	0.54149	-0.169
Mof_C 	C 	0.75584	0.30438	0.50702	0.122
Mof_C 	C 	0.71411	0.30821	0.47862	-0.168
Mof_C 	C 	0.72259	0.35748	0.48469	0.074
Mof_C 	C 	0.77281	0.40294	0.51915	-0.142
Mof_C 	C 	0.97373	0.53452	0.64801	-0.126
Mof_C 	C 	0.95443	0.49616	0.66217	0.047
Mof_C 	C 	0.90226	0.45337	0.63073	-0.106
Mof_C 	C 	0.86936	0.44893	0.58511	0.034
Mof_C 	C 	0.88864	0.48729	0.57093	-0.104
Mof_C 	C 	0.94082	0.53007	0.60237	0.044
Mof_C 	C 	0.6873	0.57229	0.26161	0.032
Mof_C 	C 	0.6748	0.59209	0.29965	-0.101
Mof_C 	C 	0.63079	0.5583	0.30037	0.036
Mof_C 	C 	0.5993	0.50472	0.26306	-0.112
Mof_C 	C 	0.61181	0.48494	0.22503	0.037
Mof_C 	C 	0.65581	0.51871	0.2243	-0.101
Mof_C 	C 	0.82557	0.68704	0.31063	0.118
Mof_C 	C 	0.7802	0.65333	0.30961	-0.168
Mof_C 	C 	0.73693	0.61002	0.26265	0.073
Mof_C 	C 	0.73904	0.60043	0.21671	-0.136
Mof_C 	C 	0.7844	0.63415	0.21773	0.061
Mof_C 	C 	0.82768	0.67746	0.2647	-0.165
Mof_C 	C 	0.82837	0.74589	0.4631	0.066
Mof_C 	C 	0.86039	0.73592	0.49631	-0.142
Mof_C 	C 	0.89763	0.72626	0.48673	0.082
Mof_C 	C 	0.90284	0.72655	0.44393	-0.172
Mof_C 	C 	0.87082	0.73652	0.41072	0.122
Mof_C 	C 	0.83359	0.7462	0.42031	-0.168
Mof_C 	C 	0.7892	0.6243	0.1697	0.062
Mof_C 	C 	0.5537	0.4677	0.2672	0.405
Mof_C 	C 	0.0322	0.5809	0.6801	0.441
Mof_C 	C 	0.00798	0.71118	0.5992	-0.049
Mof_C 	C 	0.9996	0.6938	0.5536	-0.03
Mof_C 	C 	0.9353	0.7183	0.5246	0.009
Mof_C 	C 	0.9493	0.7414	0.5773	-0.072
Mof_C 	C 	0.9842	0.7351	0.6105	-0.004
Mof_C 	C 	0.0453	0.7037	0.6362	0.302
Mof_C 	C 	0.7976	0.6023	0.0785	-0.184
Mof_C 	C 	0.8385	0.618	0.1245	0.095
Mof_C 	C 	0.8344	0.6294	0.1698	-0.144
Mof_C 	C 	0.7463	0.604	0.1215	-0.141
Mof_C 	C 	0.7512	0.5953	0.0775	0.094
Mof_C 	C 	0.8021	0.5926	0.0321	0.436
Mof_C 	C 	0.7299	0.7499	0.509	0.083
Mof_C 	C 	0.7224	0.7884	0.5004	-0.168
Mof_C 	C 	0.6881	0.8053	0.5142	0.426
Mof_C 	C 	0.7911	0.7604	0.4755	0.055
Mof_C 	C 	0.7837	0.7977	0.4668	-0.138
Mof_C 	C 	0.75	0.812	0.4796	0.081
Mof_C 	C 	0.7622	0.735	0.4964	-0.138
Mof_C 	C 	0.9622	0.6979	0.5135	-0.062
Mof_C 	C 	0.5561	0.3795	0.3644	0.447
Mof_O 	O 	0.141	0.5729	0.7693	-0.392
Mof_O 	O 	0.04765	0.61013	0.66368	-0.458
Mof_O 	O 	0.05612	0.58467	0.72263	-0.486
Mof_O 	O 	0.12321	0.70179	0.7671	-0.772
Mof_O 	O 	0.07248	0.6866	0.62424	-0.373
Mof_O 	O 	0.0487	0.71615	0.68049	-0.35
Mof_O 	O 	0.76349	0.58038	0.99119	-0.46
Mof_O 	O 	0.844	0.596	0.03328	-0.505
Mof_O 	O 	0.66456	0.78321	0.53477	-0.498
Mof_O 	O 	0.68471	0.84053	0.5053	-0.503
Mof_O 	O 	0.52407	0.42107	0.22874	-0.438
Mof_O 	O 	0.54971	0.4846	0.30553	-0.494
Mof_O 	O 	0.56951	0.42076	0.36039	-0.499
Mof_O 	O 	0.5099	0.3414	0.3375	-0.512
Mof_H 	H 	0.09099	0.70179	0.7671	0.161
Mof_H 	H 	0.42908	0.21947	0.547	0.103
Mof_Zn	Zn	0.99562	0.41426	0.3033	1.232
Mof_Zn	Zn	0.86897	0.36321	0.2312	1.232
Mof_Zn	Zn	0.93889	0.35731	0.17206	1.228
Mof_H 	H 	0.8562	0.1747	0.5557	0.068
Mof_H 	H 	0.9131	0.1559	0.6042	0.028
Mof_H 	H 	0.0335	0.257	0.5967	0.038
Mof_H 	H 	0.9766	0.276	0.5482	0.065
Mof_H 	H 	0.7868	0.2735	0.4395	0.094
Mof_H 	H 	0.8223	0.225	0.5445	0.092
Mof_H 	H 	0.9127	0.2553	0.4768	0.08
Mof_H 	H 	0.8064	0.2837	0.3073	0.034
Mof_H 	H 	0.7875	0.2491	0.3598	0.064
Mof_H 	H 	0.9439	0.3263	0.4596	0.067
Mof_H 	H 	0.9629	0.3609	0.4072	0.036
Mof_H 	H 	0.3033	0.3713	0.6754	0.067
Mof_H 	H 	0.2457	0.2966	0.6741	0.035
Mof_H 	H 	0.249	0.3907	0.7999	0.037
Mof_H 	H 	0.3066	0.4653	0.8011	0.067
Mof_H 	H 	0.3194	0.4385	0.6597	0.093
Mof_H 	H 	0.3861	0.5248	0.8147	0.078
Mof_H 	H 	0.4346	0.5926	0.7346	0.091
Mof_H 	H 	0.2107	0.3319	0.475	0.074
Mof_H 	H 	0.2826	0.4903	0.5625	0.088
Mof_H 	H 	0.3548	0.4141	0.6019	0.088
Mof_H 	H 	0.1333	0.4732	0.4559	0.03
Mof_H 	H 	0.1713	0.3455	0.4106	0.082
Mof_H 	H 	0.1049	0.3466	0.3551	0.021
Mof_H 	H 	0.4955	0.7442	0.8743	0.013
Mof_H 	H 	0.4401	0.6627	0.7992	0.082
Mof_H 	H 	0.4771	0.5942	0.8809	0.081
Mof_H 	H 	0.5378	0.6758	0.9534	0.019
Mof_H 	H 	0.2097	0.1884	0.4761	0.015
Mof_H 	H 	0.362	0.3492	0.548	0.081
Mof_H 	H 	0.3644	0.2724	0.526	0.015
Mof_H 	H 	0.2067	0.2638	0.4985	0.081
Mof_H 	H 	0.78618	0.38642	0.20601	0.132
Mof_H 	H 	0.2055	0.478	0.5197	0.078
Mof_H 	H 	0.0273	0.1674	0.6769	0.212
Mof_C 	C 	0.91074	0.2272	0.54716	0.035
Mof_C 	C 	0.89172	0.19123	0.56393	-0.11
Mof_C 	C 	0.92582	0.17992	0.59296	0.056
Mof_C 	C 	0.97894	0.20457	0.60521	-0.145
Mof_C 	C 	0.99796	0.24054	0.58844	0.041
Mof_C 	C 	0.96386	0.25185	0.55941	-0.104
Mof_C 	C 	0.85157	0.26699	0.45244	0.077
Mof_C 	C 	0.80836	0.26457	0.45851	-0.171
Mof_C 	C 	0.79736	0.24882	0.49298	0.123
Mof_C 	C 	0.82959	0.23549	0.52138	-0.17
Mof_C 	C 	0.87279	0.2379	0.51531	0.076
Mof_C 	C 	0.88379	0.25366	0.48085	-0.144
Mof_C 	C 	0.88651	0.32572	0.35199	-0.116
Mof_C 	C 	0.83399	0.29226	0.33783	0.041
Mof_C 	C 	0.82264	0.27153	0.36927	-0.101
Mof_C 	C 	0.86382	0.28425	0.41489	0.031
Mof_C 	C 	0.91636	0.31771	0.42907	-0.1
Mof_C 	C 	0.9277	0.33845	0.39763	0.038
Mof_C 	C 	0.31068	0.42569	0.73839	0.032
Mof_C 	C 	0.29244	0.37515	0.70035	-0.101
Mof_C 	C 	0.25793	0.33042	0.69963	0.036
Mof_C 	C 	0.24166	0.33624	0.73694	-0.112
Mof_C 	C 	0.25991	0.38678	0.77497	0.037
Mof_C 	C 	0.29441	0.43151	0.7757	-0.101
Mof_C 	C 	0.37641	0.51494	0.68937	0.117
Mof_C 	C 	0.34372	0.47059	0.69039	-0.167
Mof_C 	C 	0.34737	0.47428	0.73735	0.073
Mof_C 	C 	0.38372	0.52233	0.78329	-0.136
Mof_C 	C 	0.41642	0.56667	0.78227	0.06
Mof_C 	C 	0.41276	0.56298	0.7353	-0.164
Mof_C 	C 	0.28279	0.36527	0.5369	0.056
Mof_C 	C 	0.23961	0.36408	0.50369	-0.126
Mof_C 	C 	0.23953	0.4109	0.51327	0.057
Mof_C 	C 	0.28262	0.45891	0.55607	-0.156
Mof_C 	C 	0.3258	0.4601	0.58928	0.114
Mof_C 	C 	0.32589	0.41328	0.57969	-0.159
Mof_C 	C 	0.4546	0.6195	0.8303	0.062
Mof_C 	C 	0.2005	0.2865	0.7328	0.405
Mof_C 	C 	0.9008	0.3521	0.3199	0.433
Mof_C 	C 	0.11198	0.40878	0.4008	-0.145
Mof_C 	C 	0.1402	0.446	0.4464	0.07
Mof_C 	C 	0.1937	0.4107	0.4754	0.066
Mof_C 	C 	0.1641	0.372	0.4227	-0.143
Mof_C 	C 	0.1246	0.3737	0.3895	0.089
Mof_C 	C 	0.0675	0.4091	0.3638	0.336
Mof_C 	C 	0.5238	0.7191	0.9215	-0.183
Mof_C 	C 	0.4935	0.714	0.8755	0.094
Mof_C 	C 	0.4596	0.6646	0.8302	-0.144
Mof_C 	C 	0.4825	0.6248	0.8785	-0.14
Mof_C 	C 	0.5178	0.6737	0.9225	0.093
Mof_C 	C 	0.5605	0.77	0.9679	0.434
Mof_C 	C 	0.2409	0.2209	0.491	0.086
Mof_C 	C 	0.288	0.222	0.4996	-0.17
Mof_C 	C 	0.2911	0.1739	0.4858	0.427
Mof_C 	C 	0.2849	0.3156	0.5245	0.061
Mof_C 	C 	0.3309	0.3169	0.5332	-0.142
Mof_C 	C 	0.3324	0.2704	0.5204	0.084
Mof_C 	C 	0.2386	0.2658	0.5036	-0.142
Mof_C 	C 	0.1844	0.4487	0.4865	-0.132
Mof_C 	C 	0.0151	0.1917	0.6356	0.451
Mof_O 	O 	0.8036	0.3717	0.2307	-0.393
Mof_O 	O 	0.94645	0.38397	0.33632	-0.46
Mof_O 	O 	0.86204	0.33349	0.27737	-0.487
Mof_O 	O 	0.93469	0.35611	0.2329	-0.772
Mof_O 	O 	0.06236	0.44824	0.37576	-0.38
Mof_O 	O 	0.03566	0.36821	0.31951	-0.357
Mof_O 	O 	0.58919	0.7723	0.00881	-0.459
Mof_O 	O 	0.56272	0.81072	0.96672	-0.505
Mof_O 	O 	0.24844	0.12979	0.46523	-0.499
Mof_O 	O 	0.33523	0.17941	0.4947	-0.504
Mof_O 	O 	0.19233	0.29533	0.77126	-0.438
Mof_O 	O 	0.17907	0.24418	0.69447	-0.494
Mof_O 	O 	0.06037	0.20912	0.63961	-0.499
Mof_O 	O 	0.0039	0.1724	0.6625	-0.511
Mof_H 	H 	0.93469	0.32389	0.2329	0.16
Mof_H 	H 	0.67247	0.88207	0.453	0.103
Mof_Zn	Zn	0.44232	0.36096	0.1967	1.234
Mof_Zn	Zn	0.38777	0.38201	0.2688	1.232
Mof_Zn	Zn	0.51683	0.43525	0.32794	1.229
Mof_H 	H 	0.0505	0.869	0.9443	0.071
Mof_H 	H 	0.0589	0.8017	0.8958	0.031
Mof_H 	H 	0.1868	0.9103	0.9033	0.029
Mof_H 	H 	0.1784	0.9778	0.9518	0.072
Mof_H 	H 	0.0973	0.084	0.0605	0.093
Mof_H 	H 	0.0278	0.9305	0.9555	0.091
Mof_H 	H 	0.1859	0.0285	0.0232	0.081
Mof_H 	H 	0.2491	0.2264	0.1927	0.035
Mof_H 	H 	0.1777	0.1393	0.1402	0.065
Mof_H 	H 	0.2343	0.1167	0.0404	0.067
Mof_H 	H 	0.3057	0.2037	0.0928	0.037
Mof_H 	H 	0.3779	0.9459	0.8246	0.067
Mof_H 	H 	0.3216	0.8725	0.8259	0.036
Mof_H 	H 	0.1991	0.8408	0.7001	0.038
Mof_H 	H 	0.2555	0.9142	0.6989	0.067
Mof_H 	H 	0.4097	0.0288	0.8403	0.096
Mof_H 	H 	0.3214	0.9601	0.6853	0.081
Mof_H 	H 	0.45	0.108	0.7654	0.094
Mof_H 	H 	0.4857	0.1069	0.025	0.074
Mof_H 	H 	0.4701	0.1778	0.9375	0.088
Mof_H 	H 	0.5029	0.0622	0.8981	0.088
Mof_H 	H 	0.4274	0.2673	0.0441	0.03
Mof_H 	H 	0.5107	0.1849	0.0894	0.081
Mof_H 	H 	0.4998	0.2415	0.1449	0.02
Mof_H 	H 	0.3712	0.1199	0.6257	0.023
Mof_H 	H 	0.3909	0.1135	0.7008	0.071
Mof_H 	H 	0.3462	0.9633	0.6191	0.064
Mof_H 	H 	0.3344	0.9724	0.5466	0.043
Mof_H 	H 	0.4836	0.9623	0.0239	0.017
Mof_H 	H 	0.564	0.0512	0.952	0.074
Mof_H 	H 	0.5884	0.9964	0.974	0.031
Mof_H 	H 	0.4582	0.0153	0.0015	0.08
Mof_H 	H 	0.33017	0.43041	0.29399	0.132
Mof_H 	H 	0.4358	0.2083	0.9803	0.077
Mof_H 	H 	0.1004	0.7405	0.8231	0.212
Mof_C 	C 	0.11358	0.93004	0.95284	0.04
Mof_C 	C 	0.07779	0.8773	0.93607	-0.112
Mof_C 	C 	0.08286	0.83696	0.90704	0.059
Mof_C 	C 	0.12373	0.84936	0.89479	-0.143
Mof_C 	C 	0.15952	0.9021	0.91156	0.059
Mof_C 	C 	0.15445	0.94244	0.94059	-0.111
Mof_C 	C 	0.14913	0.06455	0.04756	0.076
Mof_C 	C 	0.09985	0.05606	0.04149	-0.165
Mof_C 	C 	0.05438	0.00584	0.00702	0.11
Mof_C 	C 	0.05821	0.96411	0.97862	-0.157
Mof_C 	C 	0.10748	0.97259	0.98469	0.078
Mof_C 	C 	0.15294	0.02281	0.01915	-0.148
Mof_C 	C 	0.28452	0.22373	0.14801	-0.115
Mof_C 	C 	0.24616	0.20443	0.16217	0.041
Mof_C 	C 	0.20337	0.15226	0.13073	-0.101
Mof_C 	C 	0.19893	0.11936	0.08511	0.031
Mof_C 	C 	0.23729	0.13864	0.07093	-0.099
Mof_C 	C 	0.28007	0.19082	0.10237	0.038
Mof_C 	C 	0.32229	0.9373	0.76161	0.029
Mof_C 	C 	0.34209	0.9248	0.79965	-0.097
Mof_C 	C 	0.3083	0.88079	0.80037	0.035
Mof_C 	C 	0.25472	0.8493	0.76306	-0.111
Mof_C 	C 	0.23494	0.86181	0.72503	0.036
Mof_C 	C 	0.26871	0.90581	0.7243	-0.097
Mof_C 	C 	0.43704	0.07557	0.81063	0.125
Mof_C 	C 	0.40333	0.0302	0.80961	-0.181
Mof_C 	C 	0.36002	0.98693	0.76265	0.085
Mof_C 	C 	0.35043	0.98904	0.71671	-0.139
Mof_C 	C 	0.38415	0.0344	0.71773	0.07
Mof_C 	C 	0.42746	0.07768	0.7647	-0.174
Mof_C 	C 	0.49589	0.07837	0.9631	0.06
Mof_C 	C 	0.48592	0.11039	0.99631	-0.129
Mof_C 	C 	0.47626	0.14763	0.98673	0.058
Mof_C 	C 	0.47655	0.15284	0.94393	-0.158
Mof_C 	C 	0.48652	0.12082	0.91072	0.116
Mof_C 	C 	0.4962	0.08359	0.92031	-0.163
Mof_C 	C 	0.3743	0.0392	0.6697	0.028
Mof_C 	C 	0.2177	0.8037	0.7672	0.405
Mof_C 	C 	0.3309	0.2822	0.1801	0.433
Mof_C 	C 	0.46118	0.25798	0.0992	-0.146
Mof_C 	C 	0.4438	0.2496	0.0536	0.069
Mof_C 	C 	0.4683	0.1853	0.0246	0.065
Mof_C 	C 	0.4914	0.1993	0.0773	-0.143
Mof_C 	C 	0.4851	0.2342	0.1105	0.089
Mof_C 	C 	0.4537	0.2953	0.1362	0.336
Mof_C 	C 	0.3523	0.0476	0.5785	-0.152
Mof_C 	C 	0.368	0.0885	0.6245	0.064
Mof_C 	C 	0.3794	0.0844	0.6698	-0.114
Mof_C 	C 	0.354	0.9963	0.6215	-0.087
Mof_C 	C 	0.3453	0.0012	0.5775	0.037
Mof_C 	C 	0.3426	0.0521	0.5321	0.422
Mof_C 	C 	0.4999	0.9799	0.009	0.086
Mof_C 	C 	0.5384	0.9724	0.0004	-0.152
Mof_C 	C 	0.5553	0.9381	0.0142	0.421
Mof_C 	C 	0.5104	0.0411	0.9755	0.053
Mof_C 	C 	0.5477	0.0337	0.9668	-0.125
Mof_C 	C 	0.562	7.91404e-17	0.9796	0.05
Mof_C 	C 	0.485	0.0122	0.9964	-0.145
Mof_C 	C 	0.4479	0.2122	0.0135	-0.131
Mof_C 	C 	0.1295	0.8061	0.8644	0.446
Mof_O 	O 	0.3229	0.391	0.2693	-0.392
Mof_O 	O 	0.36013	0.29765	0.16368	-0.458
Mof_O 	O 	0.33467	0.30612	0.22263	-0.486
Mof_O 	O 	0.45179	0.37321	0.2671	-0.772
Mof_O 	O 	0.4366	0.32248	0.12424	-0.383
Mof_O 	O 	0.46615	0.2987	0.18049	-0.36
Mof_O 	O 	0.33038	0.01349	0.49119	-0.459
Mof_O 	O 	0.346	0.094	0.53328	-0.502
Mof_O 	O 	0.53321	0.91456	0.03477	-0.497
Mof_O 	O 	0.59053	0.93471	0.0053	-0.501
Mof_O 	O 	0.17107	0.77407	0.72874	-0.438
Mof_O 	O 	0.2346	0.79971	0.80553	-0.494
Mof_O 	O 	0.17076	0.81951	0.86039	-0.498
Mof_O 	O 	0.0914	0.7599	0.8375	-0.511
Mof_H 	H 	0.45179	0.34099	0.2671	0.161
Mof_H 	H 	0.96947	0.67908	0.047	0.102
Mof_Zn	Zn	0.16426	0.24562	0.8033	1.234
Mof_Zn	Zn	0.11321	0.11897	0.7312	1.232
Mof_Zn	Zn	0.10731	0.18889	0.67206	1.229
Mof_H 	H 	0.9247	0.1062	0.0557	0.062
Mof_H 	H 	0.9059	0.1631	0.1042	0.036
Mof_H 	H 	0.007	0.2835	0.0967	0.049
Mof_H 	H 	0.026	0.2266	0.0482	0.057
Mof_H 	H 	0.0235	0.0368	0.9395	0.087
Mof_H 	H 	0.975	0.0723	0.0445	0.086
Mof_H 	H 	0.0053	0.1627	0.9768	0.078
Mof_H 	H 	0.0337	0.0564	0.8073	0.039
Mof_H 	H 	0.9991	0.0375	0.8598	0.05
Mof_H 	H 	0.0763	0.1939	0.9596	0.066
Mof_H 	H 	0.1109	0.2129	0.9072	0.039
Mof_H 	H 	0.1213	0.5533	0.1754	0.068
Mof_H 	H 	0.0466	0.4957	0.1741	0.036
Mof_H 	H 	0.1407	0.499	0.2999	0.036
Mof_H 	H 	0.2153	0.5566	0.3011	0.068
Mof_H 	H 	0.1885	0.5694	0.1597	0.093
Mof_H 	H 	0.2748	0.6361	0.3147	0.078
Mof_H 	H 	0.3426	0.6846	0.2346	0.091
Mof_H 	H 	0.0819	0.4607	0.975	0.074
Mof_H 	H 	0.2403	0.5326	0.0625	0.088
Mof_H 	H 	0.1641	0.6048	0.1019	0.088
Mof_H 	H 	0.2232	0.3833	0.9559	0.029
Mof_H 	H 	0.0955	0.4213	0.9106	0.083
Mof_H 	H 	0.0966	0.3549	0.8551	0.02
Mof_H 	H 	0.4942	0.7455	0.3743	0.013
Mof_H 	H 	0.4127	0.6901	0.2992	0.082
Mof_H 	H 	0.3442	0.7271	0.3809	0.081
Mof_H 	H 	0.4258	0.7878	0.4534	0.019
Mof_H 	H 	0.9384	0.4597	0.9761	0.018
Mof_H 	H 	0.0992	0.612	0.048	0.082
Mof_H 	H 	0.0224	0.6144	0.026	0.015
Mof_H 	H 	0.0138	0.4567	0.9985	0.078
Mof_H 	H 	0.13642	0.03618	0.70601	0.131
Mof_H 	H 	0.228	0.4555	0.0197	0.079
Mof_H 	H 	0.9174	0.2773	0.1769	0.211
Mof_C 	C 	0.9772	0.16074	0.04716	0.016
Mof_C 	C 	0.94123	0.14172	0.06393	-0.093
Mof_C 	C 	0.92992	0.17582	0.09296	0.037
Mof_C 	C 	0.95457	0.22894	0.10521	-0.122
Mof_C 	C 	0.99054	0.24796	0.08844	0.011
Mof_C 	C 	0.00185	0.21386	0.05941	-0.069
Mof_C 	C 	0.01699	0.10157	0.95244	0.07
Mof_C 	C 	0.01457	0.05836	0.95851	-0.15
Mof_C 	C 	0.99882	0.04736	0.99298	0.096
Mof_C 	C 	0.98549	0.07959	0.02138	-0.156
Mof_C 	C 	0.9879	0.12279	0.01531	0.067
Mof_C 	C 	0.00366	0.13379	0.98085	-0.13
Mof_C 	C 	0.07572	0.13651	0.85199	-0.109
Mof_C 	C 	0.04226	0.08399	0.83783	0.029
Mof_C 	C 	0.02153	0.07264	0.86927	-0.081
Mof_C 	C 	0.03425	0.11382	0.91489	0.026
Mof_C 	C 	0.06771	0.16636	0.92907	-0.094
Mof_C 	C 	0.08845	0.1777	0.89763	0.033
Mof_C 	C 	0.17569	0.56068	0.23839	0.034
Mof_C 	C 	0.12515	0.54244	0.20035	-0.102
Mof_C 	C 	0.08042	0.50793	0.19963	0.039
Mof_C 	C 	0.08624	0.49166	0.23694	-0.115
Mof_C 	C 	0.13678	0.50991	0.27497	0.04
Mof_C 	C 	0.18151	0.54441	0.2757	-0.102
Mof_C 	C 	0.26494	0.62641	0.18937	0.117
Mof_C 	C 	0.22059	0.59372	0.19039	-0.166
Mof_C 	C 	0.22428	0.59737	0.23735	0.073
Mof_C 	C 	0.27233	0.63372	0.28329	-0.135
Mof_C 	C 	0.31667	0.66642	0.28227	0.06
Mof_C 	C 	0.31298	0.66276	0.2353	-0.164
Mof_C 	C 	0.11527	0.53279	0.0369	0.058
Mof_C 	C 	0.11408	0.48961	0.00369	-0.126
Mof_C 	C 	0.1609	0.48953	0.01327	0.057
Mof_C 	C 	0.20891	0.53262	0.05607	-0.156
Mof_C 	C 	0.2101	0.5758	0.08928	0.114
Mof_C 	C 	0.16328	0.57589	0.07969	-0.16
Mof_C 	C 	0.3695	0.7046	0.3303	0.062
Mof_C 	C 	0.0365	0.4505	0.2328	0.415
Mof_C 	C 	0.1021	0.1508	0.8199	0.431
Mof_C 	C 	0.15878	0.36198	0.9008	-0.148
Mof_C 	C 	0.196	0.3902	0.9464	0.072
Mof_C 	C 	0.1607	0.4437	0.9754	0.067
Mof_C 	C 	0.122	0.4141	0.9227	-0.144
Mof_C 	C 	0.1237	0.3746	0.8895	0.091
Mof_C 	C 	0.1591	0.3175	0.8638	0.337
Mof_C 	C 	0.4691	0.7738	0.4215	-0.183
Mof_C 	C 	0.464	0.7435	0.3755	0.095
Mof_C 	C 	0.4146	0.7096	0.3302	-0.144
Mof_C 	C 	0.3748	0.7325	0.3785	-0.141
Mof_C 	C 	0.4237	0.7678	0.4225	0.094
Mof_C 	C 	0.52	0.8105	0.4679	0.435
Mof_C 	C 	0.9709	0.4909	0.991	0.074
Mof_C 	C 	0.972	0.538	0.9996	-0.175
Mof_C 	C 	0.9239	0.5411	0.9858	0.428
Mof_C 	C 	0.0656	0.5349	0.0245	0.058
Mof_C 	C 	0.0669	0.5809	0.0332	-0.143
Mof_C 	C 	0.0204	0.5824	0.0204	0.093
Mof_C 	C 	0.0158	0.4886	0.0036	-0.129
Mof_C 	C 	0.1987	0.4344	0.9865	-0.134
Mof_C 	C 	0.9417	0.2651	0.1356	0.437
Mof_O 	O 	0.1217	0.0536	0.7307	-0.393
Mof_O 	O 	0.13397	0.19645	0.83632	-0.457
Mof_O 	O 	0.08349	0.11204	0.77737	-0.486
Mof_O 	O 	0.10611	0.18469	0.7329	-0.772
Mof_O 	O 	0.19824	0.31236	0.87576	-0.383
Mof_O 	O 	0.11821	0.28566	0.81951	-0.359
Mof_O 	O 	0.5223	0.83919	0.50881	-0.459
Mof_O 	O 	0.56072	0.81272	0.46672	-0.504
Mof_O 	O 	0.87979	0.49844	0.96523	-0.5
Mof_O 	O 	0.92941	0.58523	0.9947	-0.506
Mof_O 	O 	0.04533	0.44233	0.27126	-0.438
Mof_O 	O 	0.99418	0.42907	0.19447	-0.502
Mof_O 	O 	0.95912	0.31037	0.13961	-0.499
Mof_O 	O 	0.9224	0.2539	0.1625	-0.51
Mof_H 	H 	0.07389	0.18469	0.7329	0.161
Mof_H 	H 	0.63207	0.92247	0.953	0.103
Mof_Zn	Zn	0.75438	0.55768	0.91864	1.234
Mof_Zn	Zn	0.88103	0.61223	0.99424	1.232
Mof_Zn	Zn	0.81111	0.48317	0.91842	1.228
Mof_H 	H 	0.8938	0.9495	0.8185	0.07
Mof_H 	H 	0.8369	0.9411	0.7428	0.03
Mof_H 	H 	0.7165	0.8132	0.7235	0.028
Mof_H 	H 	0.7734	0.8216	0.7994	0.071
Mof_H 	H 	0.9632	0.9027	0.9867	0.091
Mof_H 	H 	0.9277	0.9722	0.9027	0.091
Mof_H 	H 	0.8373	0.8141	0.8426	0.08
Mof_H 	H 	0.9436	0.7509	0.9773	0.033
Mof_H 	H 	0.9625	0.8223	0.9616	0.064
Mof_H 	H 	0.8061	0.7657	0.8824	0.068
Mof_H 	H 	0.7871	0.6943	0.898	0.037
Mof_H 	H 	0.4467	0.6221	0.568	0.067
Mof_H 	H 	0.5043	0.6784	0.5509	0.035
Mof_H 	H 	0.501	0.8009	0.6417	0.037
Mof_H 	H 	0.4434	0.7445	0.6587	0.067
Mof_H 	H 	0.4306	0.5903	0.6191	0.093
Mof_H 	H 	0.3639	0.6786	0.6387	0.078
Mof_H 	H 	0.3154	0.55	0.658	0.091
Mof_H 	H 	0.5393	0.5143	0.6212	0.073
Mof_H 	H 	0.4674	0.5299	0.7077	0.088
Mof_H 	H 	0.3952	0.4971	0.5593	0.088
Mof_H 	H 	0.6167	0.5726	0.8399	0.029
Mof_H 	H 	0.5787	0.4893	0.6742	0.082
Mof_H 	H 	0.6451	0.5002	0.7417	0.019
Mof_H 	H 	0.2545	0.6288	0.7487	0.013
Mof_H 	H 	0.3099	0.6091	0.7226	0.082
Mof_H 	H 	0.2729	0.6538	0.6171	0.081
Mof_H 	H 	0.2122	0.6656	0.638	0.019
Mof_H 	H 	0.5403	0.5164	0.4787	0.015
Mof_H 	H 	0.388	0.436	0.4872	0.082
Mof_H 	H 	0.3856	0.4116	0.408	0.015
Mof_H 	H 	0.5433	0.5418	0.5571	0.081
Mof_H 	H 	0.96382	0.66983	0.10024	0.131
Mof_H 	H 	0.5445	0.5642	0.7725	0.079
Mof_H 	H 	0.7227	0.8996	0.6401	0.212
Mof_C 	C 	0.83926	0.88642	0.81646	0.041
Mof_C 	C 	0.85828	0.92221	0.79951	-0.114
Mof_C 	C 	0.82418	0.91714	0.7541	0.059
Mof_C 	C 	0.77106	0.87627	0.72563	-0.145
Mof_C 	C 	0.75204	0.84048	0.74258	0.059
Mof_C 	C 	0.78614	0.84555	0.78799	-0.113
Mof_C 	C 	0.89843	0.85087	0.91542	0.074
Mof_C 	C 	0.94164	0.90015	0.95621	-0.165
Mof_C 	C 	0.95264	0.94562	0.95146	0.114
Mof_C 	C 	0.92041	0.94179	0.9059	-0.162
Mof_C 	C 	0.87721	0.89252	0.86511	0.071
Mof_C 	C 	0.86621	0.84706	0.86987	-0.14
Mof_C 	C 	0.86349	0.71548	0.93921	-0.116
Mof_C 	C 	0.91601	0.75384	0.95827	0.041
Mof_C 	C 	0.92736	0.79663	0.94889	-0.102
Mof_C 	C 	0.88618	0.80107	0.92043	0.032
Mof_C 	C 	0.83364	0.76271	0.90135	-0.1
Mof_C 	C 	0.8223	0.71993	0.91075	0.038
Mof_C 	C 	0.43932	0.67771	0.61501	0.032
Mof_C 	C 	0.45756	0.65791	0.58271	-0.101
Mof_C 	C 	0.49207	0.6917	0.57249	0.036
Mof_C 	C 	0.50834	0.74528	0.59458	-0.112
Mof_C 	C 	0.49009	0.76506	0.62687	0.037
Mof_C 	C 	0.45559	0.73129	0.6371	-0.101
Mof_C 	C 	0.37359	0.56296	0.63853	0.117
Mof_C 	C 	0.40628	0.59667	0.62687	-0.167
Mof_C 	C 	0.40263	0.63998	0.62691	0.073
Mof_C 	C 	0.36628	0.64957	0.63861	-0.136
Mof_C 	C 	0.33358	0.61585	0.65025	0.06
Mof_C 	C 	0.33724	0.57254	0.65022	-0.164
Mof_C 	C 	0.46721	0.50411	0.58248	0.056
Mof_C 	C 	0.51039	0.51408	0.62447	-0.125
Mof_C 	C 	0.51047	0.52374	0.67137	0.056
Mof_C 	C 	0.46738	0.52345	0.67629	-0.155
Mof_C 	C 	0.4242	0.51348	0.6343	0.113
Mof_C 	C 	0.42411	0.5038	0.58739	-0.159
Mof_C 	C 	0.2954	0.6257	0.6649	0.062
Mof_C 	C 	0.5495	0.7823	0.586	0.405
Mof_C 	C 	0.8492	0.6691	0.9513	0.433
Mof_C 	C 	0.63802	0.53882	0.7968	-0.148
Mof_C 	C 	0.6098	0.5562	0.8058	0.072
Mof_C 	C 	0.5563	0.5317	0.717	0.067
Mof_C 	C 	0.5859	0.5086	0.7079	-0.145
Mof_C 	C 	0.6254	0.5149	0.7491	0.091
Mof_C 	C 	0.6825	0.5463	0.8416	0.337
Mof_C 	C 	0.2262	0.6477	0.6953	-0.183
Mof_C 	C 	0.2565	0.632	0.7205	0.095
Mof_C 	C 	0.2904	0.6206	0.705	-0.144
Mof_C 	C 	0.2675	0.646	0.6423	-0.14
Mof_C 	C 	0.2322	0.6547	0.6559	0.094
Mof_C 	C 	0.1895	0.6574	0.7095	0.435
Mof_C 	C 	0.5091	0.5001	0.48	0.086
Mof_C 	C 	0.462	0.4616	0.434	-0.17
Mof_C 	C 	0.4589	0.4447	0.3828	0.427
Mof_C 	C 	0.4651	0.4896	0.5307	0.061
Mof_C 	C 	0.4191	0.4523	0.486	-0.142
Mof_C 	C 	0.4176	0.438	0.438	0.084
Mof_C 	C 	0.5114	0.515	0.5272	-0.142
Mof_C 	C 	0.5656	0.5521	0.7643	-0.134
Mof_C 	C 	0.7349	0.8705	0.6766	0.447
Mof_O 	O 	0.9464	0.6771	0.0681	-0.392
Mof_O 	O 	0.80355	0.63987	0.93752	-0.458
Mof_O 	O 	0.88796	0.66533	0.97145	-0.487
Mof_O 	O 	0.81531	0.54821	0.92142	-0.772
Mof_O 	O 	0.68764	0.5634	0.88588	-0.383
Mof_O 	O 	0.71434	0.53385	0.83255	-0.36
Mof_O 	O 	0.16081	0.66962	0.68311	-0.459
Mof_O 	O 	0.18728	0.654	0.748	-0.504
Mof_O 	O 	0.50156	0.46679	0.38135	-0.499
Mof_O 	O 	0.41477	0.40947	0.34418	-0.504
Mof_O 	O 	0.55767	0.82893	0.603	-0.438
Mof_O 	O 	0.57093	0.7654	0.56511	-0.494
Mof_O 	O 	0.68963	0.82924	0.64875	-0.499
Mof_O 	O 	0.7461	0.9086	0.6685	-0.512
Mof_H 	H 	0.81531	0.54821	0.8892	0.161
Mof_H 	H 	0.07753	0.03053	0.7096	0.102
Mof_Zn	Zn	0.63904	0.83574	0.08136	1.234
Mof_Zn	Zn	0.61799	0.88679	0.00576	1.232
Mof_Zn	Zn	0.56475	0.89269	0.08158	1.229
Mof_H 	H 	0.131	0.0753	0.1815	0.063
Mof_H 	H 	0.1983	0.0941	0.2572	0.036
Mof_H 	H 	0.0897	0.993	0.2765	0.048
Mof_H 	H 	0.0222	0.974	0.2006	0.059
Mof_H 	H 	0.916	0.9765	0.0133	0.089
Mof_H 	H 	0.0695	0.025	0.0973	0.086
Mof_H 	H 	0.9715	0.9947	0.1574	0.079
Mof_H 	H 	0.7736	0.9663	0.0227	0.04
Mof_H 	H 	0.8607	0.0009	0.0384	0.052
Mof_H 	H 	0.8833	0.9237	0.1176	0.066
Mof_H 	H 	0.7963	0.8891	0.102	0.039
Mof_H 	H 	0.0541	0.8787	0.432	0.068
Mof_H 	H 	0.1275	0.9534	0.4491	0.037
Mof_H 	H 	0.1592	0.8593	0.3583	0.037
Mof_H 	H 	0.0858	0.7847	0.3413	0.067
Mof_H 	H 	0.9712	0.8115	0.3809	0.096
Mof_H 	H 	0.0399	0.7252	0.3613	0.08
Mof_H 	H 	0.892	0.6574	0.342	0.094
Mof_H 	H 	0.8931	0.9181	0.3788	0.071
Mof_H 	H 	0.8222	0.7597	0.2923	0.087
Mof_H 	H 	0.9378	0.8359	0.4407	0.085
Mof_H 	H 	0.7327	0.7768	0.1601	0.029
Mof_H 	H 	0.8151	0.9045	0.3258	0.083
Mof_H 	H 	0.7585	0.9034	0.2583	0.02
Mof_H 	H 	0.8801	0.5058	0.2513	0.023
Mof_H 	H 	0.8865	0.5873	0.2774	0.071
Mof_H 	H 	0.0367	0.6558	0.3829	0.064
Mof_H 	H 	0.0276	0.5742	0.362	0.044
Mof_H 	H 	0.0377	0.0616	0.5213	0.009
Mof_H 	H 	0.9488	0.9008	0.5128	0.091
Mof_H 	H 	0.0036	0.9776	0.592	0.006
Mof_H 	H 	0.9847	0.9862	0.4429	0.087
Mof_H 	H 	0.56959	0.86358	0.89976	0.132
Mof_H 	H 	0.7917	0.772	0.2275	0.079
Mof_H 	H 	0.2595	0.0826	0.3599	0.211
Mof_C 	C 	0.06996	0.0228	0.18354	0.018
Mof_C 	C 	0.1227	0.05877	0.20049	-0.094
Mof_C 	C 	0.16304	0.07008	0.2459	0.039
Mof_C 	C 	0.15064	0.04543	0.27437	-0.123
Mof_C 	C 	0.0979	0.00946	0.25742	0.015
Mof_C 	C 	0.05756	0.99815	0.21201	-0.071
Mof_C 	C 	0.93545	0.98301	0.08458	0.072
Mof_C 	C 	0.94394	0.98543	0.04379	-0.149
Mof_C 	C 	0.99416	0.00118	0.04854	0.092
Mof_C 	C 	0.03589	0.01451	0.0941	-0.149
Mof_C 	C 	0.02741	0.0121	0.13489	0.073
Mof_C 	C 	0.97719	0.99634	0.13013	-0.139
Mof_C 	C 	0.77627	0.92428	0.06079	-0.109
Mof_C 	C 	0.79557	0.95774	0.04173	0.029
Mof_C 	C 	0.84774	0.97847	0.05111	-0.081
Mof_C 	C 	0.88064	0.96575	0.07957	0.026
Mof_C 	C 	0.86136	0.93229	0.09865	-0.094
Mof_C 	C 	0.80918	0.91155	0.08925	0.032
Mof_C 	C 	0.0627	0.82431	0.38499	0.03
Mof_C 	C 	0.0752	0.87485	0.41729	-0.098
Mof_C 	C 	0.11921	0.91958	0.42751	0.037
Mof_C 	C 	0.1507	0.91376	0.40542	-0.113
Mof_C 	C 	0.13819	0.86322	0.37313	0.038
Mof_C 	C 	0.09419	0.81849	0.3629	-0.099
Mof_C 	C 	0.92443	0.73506	0.36147	0.124
Mof_C 	C 	0.9698	0.77941	0.37313	-0.181
Mof_C 	C 	0.01307	0.77572	0.37309	0.085
Mof_C 	C 	0.01096	0.72767	0.36139	-0.139
Mof_C 	C 	0.9656	0.68333	0.34975	0.07
Mof_C 	C 	0.92232	0.68702	0.34978	-0.174
Mof_C 	C 	0.92163	0.88473	0.41752	0.047
Mof_C 	C 	0.88961	0.88592	0.37553	-0.12
Mof_C 	C 	0.85237	0.8391	0.32863	0.053
Mof_C 	C 	0.84716	0.79109	0.32371	-0.154
Mof_C 	C 	0.87918	0.7899	0.3657	0.112
Mof_C 	C 	0.91641	0.83672	0.41261	-0.155
Mof_C 	C 	0.9608	0.6305	0.3351	0.027
Mof_C 	C 	0.1963	0.9635	0.414	0.414
Mof_C 	C 	0.7178	0.8979	0.0487	0.431
Mof_C 	C 	0.74202	0.84122	0.2032	-0.149
Mof_C 	C 	0.7504	0.804	0.1942	0.072
Mof_C 	C 	0.8147	0.8393	0.283	0.068
Mof_C 	C 	0.8007	0.878	0.2921	-0.146
Mof_C 	C 	0.7658	0.8763	0.2509	0.092
Mof_C 	C 	0.7047	0.8409	0.1584	0.337
Mof_C 	C 	0.9524	0.5309	0.3047	-0.151
Mof_C 	C 	0.9115	0.536	0.2795	0.063
Mof_C 	C 	0.9156	0.5854	0.295	-0.113
Mof_C 	C 	0.0037	0.6252	0.3577	-0.085
Mof_C 	C 	0.9988	0.5763	0.3441	0.035
Mof_C 	C 	0.9479	0.48	0.2905	0.422
Mof_C 	C 	0.0201	0.0291	0.52	0.106
Mof_C 	C 	0.0276	0.028	0.566	-0.195
Mof_C 	C 	0.0619	0.0761	0.6172	0.436
Mof_C 	C 	0.9589	0.9344	0.4693	0.079
Mof_C 	C 	0.9663	0.9331	0.514	-0.173
Mof_C 	C 	-0	0.9796	0.562	0.122
Mof_C 	C 	0.9878	0.9842	0.4728	-0.161
Mof_C 	C 	0.7878	0.8013	0.2357	-0.135
Mof_C 	C 	0.1939	0.0583	0.3234	0.438
Mof_O 	O 	0.609	0.8783	0.9319	-0.392
Mof_O 	O 	0.70235	0.86603	0.06248	-0.457
Mof_O 	O 	0.69388	0.91651	0.02855	-0.485
Mof_O 	O 	0.62679	0.89389	0.07858	-0.772
Mof_O 	O 	0.67752	0.80176	0.11412	-0.383
Mof_O 	O 	0.7013	0.88179	0.16745	-0.359
Mof_O 	O 	0.98651	0.4777	0.31689	-0.459
Mof_O 	O 	0.906	0.43928	0.252	-0.502
Mof_O 	O 	0.08544	0.12021	0.61865	-0.501
Mof_O 	O 	0.06529	0.07059	0.65582	-0.507
Mof_O 	O 	0.22593	0.95467	0.397	-0.438
Mof_O 	O 	0.20029	0.00582	0.43489	-0.501
Mof_O 	O 	0.18049	0.04088	0.35125	-0.498
Mof_O 	O 	0.2401	0.0776	0.3315	-0.51
Mof_H 	H 	0.65901	0.92611	0.1108	0.161
Mof_H 	H 	0.32092	0.36793	0.2904	0.103
Mof_C 	C 	0.4873	0.125	0.8623	-0.141
Mof_C 	C 	0.2627	0.625	0.1377	-0.136
Mof_C 	C 	0.875	0.7373	0.3623	-0.14
Mof_C 	C 	0.375	0.5127	0.6377	-0.136
Mof_C 	C 	0.75	0.25	0.5	-0.142
Mof_C 	C 	-0	0	-0	-0.118
_end
