data_functionalizedCrystal
_audit_creation_method	'EQeq! by Chris Wilmer'
_symmetry_space_group_name_H-M	'P1'
_symmetry_Int_Tables_number	1
_symmetry_cell_setting	triclinic
loop_
_symmetry_equiv_pos_as_xyz
  x,y,z
_cell_length_a	15.8774
_cell_length_b	15.8774
_cell_length_c	21.542
_cell_angle_alpha	90
_cell_angle_beta	90
_cell_angle_gamma	90
loop_
_atom_site_label
_atom_site_type_symbol
_atom_site_fract_x
_atom_site_fract_y
_atom_site_fract_z
_atom_site_charge
Mof_Cd	Cd	0.05884	0.94116	0.75	0.381
Mof_Cd	Cd	0.94116	0.05884	0.25	0.381
Mof_Cd	Cd	0.55884	0.55884	-0	0.382
Mof_Cd	Cd	0.44116	0.44116	0.5	0.384
Mof_H 	H 	0.3891	0.4616	0.6515	0.035
Mof_H 	H 	0.2861	0.4113	0.7182	0.087
Mof_H 	H 	0.2562	0.2127	0.6021	0.089
Mof_H 	H 	0.3583	0.2715	0.5392	0.013
Mof_H 	H 	0.2017	0.3463	0.783	0.062
Mof_H 	H 	0.0881	0.2984	0.837	0.027
Mof_H 	H 	0.9946	0.1998	0.7935	0.064
Mof_H 	H 	0.1378	0.1976	0.6373	0.081
Mof_H 	H 	0.8781	0.9542	0.5405	0.064
Mof_H 	H 	0.7671	0.9331	0.4728	0.024
Mof_H 	H 	0.6645	0.0373	0.4592	0.056
Mof_H 	H 	0.7762	0.1751	0.5946	0.065
Mof_H 	H 	0.6068	0.1554	0.4327	0.075
Mof_H 	H 	0.5134	0.2687	0.4237	0.015
Mof_H 	H 	0.5537	0.3367	0.5948	0.015
Mof_H 	H 	0.6491	0.2298	0.6106	0.069
Mof_H 	H 	0.9084	0.2614	0.6539	0.112
Mof_H 	H 	0.9667	0.2519	0.6005	0.123
Mof_H 	H 	0.6109	0.5384	0.1515	0.035
Mof_H 	H 	0.7139	0.5887	0.2182	0.087
Mof_H 	H 	0.7438	0.7873	0.1021	0.089
Mof_H 	H 	0.6417	0.7285	0.0392	0.013
Mof_H 	H 	0.7983	0.6537	0.283	0.062
Mof_H 	H 	0.9119	0.7016	0.337	0.027
Mof_H 	H 	0.0054	0.8002	0.2935	0.064
Mof_H 	H 	0.8622	0.8024	0.1373	0.081
Mof_H 	H 	0.1219	0.0458	0.0405	0.066
Mof_H 	H 	0.2329	0.0669	0.9728	0.022
Mof_H 	H 	0.3355	0.9627	0.9592	0.058
Mof_H 	H 	0.2238	0.8249	0.0946	0.066
Mof_H 	H 	0.3932	0.8446	0.9327	0.074
Mof_H 	H 	0.4866	0.7313	0.9237	0.015
Mof_H 	H 	0.4463	0.6633	0.0948	0.015
Mof_H 	H 	0.3509	0.7702	0.1106	0.069
Mof_H 	H 	0.0916	0.7386	0.1539	0.112
Mof_H 	H 	0.0333	0.7481	0.1005	0.123
Mof_H 	H 	0.0384	0.8891	0.9015	0.035
Mof_H 	H 	0.0887	0.7861	0.9682	0.086
Mof_H 	H 	0.2873	0.7562	0.8521	0.088
Mof_H 	H 	0.2285	0.8583	0.7892	0.013
Mof_H 	H 	0.1537	0.7017	0.033	0.064
Mof_H 	H 	0.2016	0.5881	0.087	0.024
Mof_H 	H 	0.3002	0.4946	0.0435	0.067
Mof_H 	H 	0.3024	0.6378	0.8873	0.083
Mof_H 	H 	0.5458	0.3781	0.7905	0.064
Mof_H 	H 	0.5669	0.2671	0.7228	0.024
Mof_H 	H 	0.4627	0.1645	0.7092	0.056
Mof_H 	H 	0.3249	0.2762	0.8446	0.066
Mof_H 	H 	0.3446	0.1068	0.6827	0.075
Mof_H 	H 	0.2313	0.0134	0.6737	0.016
Mof_H 	H 	0.1633	0.0537	0.8448	0.016
Mof_H 	H 	0.2702	0.1491	0.8606	0.07
Mof_H 	H 	0.2386	0.4084	0.9039	0.112
Mof_H 	H 	0.2481	0.4667	0.8505	0.124
Mof_H 	H 	0.9616	0.1109	0.4015	0.035
Mof_H 	H 	0.9113	0.2139	0.4682	0.086
Mof_H 	H 	0.7127	0.2438	0.3521	0.089
Mof_H 	H 	0.7715	0.1417	0.2892	0.013
Mof_H 	H 	0.8463	0.2983	0.533	0.062
Mof_H 	H 	0.7984	0.4119	0.587	0.026
Mof_H 	H 	0.6998	0.5054	0.5435	0.066
Mof_H 	H 	0.6976	0.3622	0.3873	0.082
Mof_H 	H 	0.4542	0.6219	0.2905	0.064
Mof_H 	H 	0.4331	0.7329	0.2228	0.024
Mof_H 	H 	0.5373	0.8355	0.2092	0.056
Mof_H 	H 	0.6751	0.7238	0.3446	0.066
Mof_H 	H 	0.6554	0.8932	0.1827	0.075
Mof_H 	H 	0.7687	0.9866	0.1737	0.016
Mof_H 	H 	0.8367	0.9463	0.3448	0.015
Mof_H 	H 	0.7298	0.8509	0.3606	0.069
Mof_H 	H 	0.7614	0.5916	0.4039	0.112
Mof_H 	H 	0.7519	0.5333	0.3505	0.124
Mof_H 	H 	0.1109	0.9616	0.5985	0.035
Mof_H 	H 	0.2139	0.9113	0.5318	0.086
Mof_H 	H 	0.2438	0.7127	0.6479	0.089
Mof_H 	H 	0.1417	0.7715	0.7108	0.013
Mof_H 	H 	0.2983	0.8463	0.467	0.062
Mof_H 	H 	0.4119	0.7984	0.413	0.026
Mof_H 	H 	0.5054	0.6998	0.4565	0.066
Mof_H 	H 	0.3622	0.6976	0.6127	0.082
Mof_H 	H 	0.6219	0.4542	0.7095	0.064
Mof_H 	H 	0.7329	0.4331	0.7772	0.024
Mof_H 	H 	0.8355	0.5373	0.7908	0.056
Mof_H 	H 	0.7238	0.6751	0.6554	0.066
Mof_H 	H 	0.8932	0.6554	0.8173	0.075
Mof_H 	H 	0.9866	0.7687	0.8263	0.016
Mof_H 	H 	0.9463	0.8367	0.6552	0.015
Mof_H 	H 	0.8509	0.7298	0.6394	0.069
Mof_H 	H 	0.5916	0.7614	0.5961	0.112
Mof_H 	H 	0.5333	0.7519	0.6495	0.124
Mof_H 	H 	0.8891	0.0384	0.0985	0.034
Mof_H 	H 	0.7861	0.0887	0.0318	0.086
Mof_H 	H 	0.7562	0.2873	0.1479	0.089
Mof_H 	H 	0.8583	0.2285	0.2108	0.013
Mof_H 	H 	0.7017	0.1537	0.967	0.06
Mof_H 	H 	0.5881	0.2016	0.913	0.029
Mof_H 	H 	0.4946	0.3002	0.9565	0.063
Mof_H 	H 	0.6378	0.3024	0.1127	0.08
Mof_H 	H 	0.3781	0.5458	0.2095	0.064
Mof_H 	H 	0.2671	0.5669	0.2772	0.024
Mof_H 	H 	0.1645	0.4627	0.2908	0.056
Mof_H 	H 	0.2762	0.3249	0.1554	0.065
Mof_H 	H 	0.1068	0.3446	0.3173	0.075
Mof_H 	H 	0.0134	0.2313	0.3263	0.016
Mof_H 	H 	0.0537	0.1633	0.1552	0.015
Mof_H 	H 	0.1491	0.2702	0.1394	0.069
Mof_H 	H 	0.4084	0.2386	0.0961	0.112
Mof_H 	H 	0.4667	0.2481	0.1495	0.124
Mof_H 	H 	0.4616	0.3891	0.3485	0.035
Mof_H 	H 	0.4113	0.2861	0.2818	0.087
Mof_H 	H 	0.2127	0.2562	0.3979	0.089
Mof_H 	H 	0.2715	0.3583	0.4608	0.013
Mof_H 	H 	0.3463	0.2017	0.217	0.062
Mof_H 	H 	0.2984	0.0881	0.163	0.027
Mof_H 	H 	0.1998	0.9946	0.2065	0.064
Mof_H 	H 	0.1976	0.1378	0.3627	0.081
Mof_H 	H 	0.9542	0.8781	0.4595	0.064
Mof_H 	H 	0.9331	0.7671	0.5272	0.024
Mof_H 	H 	0.0373	0.6645	0.5408	0.056
Mof_H 	H 	0.1751	0.7762	0.4054	0.065
Mof_H 	H 	0.1554	0.6068	0.5673	0.075
Mof_H 	H 	0.2687	0.5134	0.5763	0.015
Mof_H 	H 	0.3367	0.5537	0.4052	0.015
Mof_H 	H 	0.2298	0.6491	0.3894	0.069
Mof_H 	H 	0.2614	0.9084	0.3461	0.112
Mof_H 	H 	0.2519	0.9667	0.3995	0.124
Mof_H 	H 	0.5384	0.6109	0.8485	0.035
Mof_H 	H 	0.5887	0.7139	0.7818	0.087
Mof_H 	H 	0.7873	0.7438	0.8979	0.089
Mof_H 	H 	0.7285	0.6417	0.9608	0.014
Mof_H 	H 	0.6537	0.7983	0.717	0.062
Mof_H 	H 	0.7016	0.9119	0.663	0.027
Mof_H 	H 	0.8002	0.0054	0.7065	0.064
Mof_H 	H 	0.8024	0.8622	0.8627	0.081
Mof_H 	H 	0.0458	0.1219	0.9595	0.064
Mof_H 	H 	0.0669	0.2329	0.0272	0.025
Mof_H 	H 	0.9627	0.3355	0.0408	0.057
Mof_H 	H 	0.8249	0.2238	0.9054	0.065
Mof_H 	H 	0.8446	0.3932	0.0673	0.075
Mof_H 	H 	0.7313	0.4866	0.0763	0.016
Mof_H 	H 	0.6633	0.4463	0.9052	0.015
Mof_H 	H 	0.7702	0.3509	0.8894	0.069
Mof_H 	H 	0.7386	0.0916	0.8461	0.112
Mof_H 	H 	0.7481	0.0333	0.8995	0.124
Mof_C 	C 	0.3599	0.4116	0.6404	0.072
Mof_C 	C 	0.298	0.3818	0.6808	-0.122
Mof_C 	C 	0.2538	0.3088	0.6662	0.064
Mof_C 	C 	0.2803	0.2655	0.6127	-0.129
Mof_C 	C 	0.342	0.301	0.5756	0.074
Mof_C 	C 	0.1822	0.2774	0.7028	0.026
Mof_C 	C 	0.1651	0.3063	0.7643	-0.083
Mof_C 	C 	0.0979	0.2779	0.7962	0.008
Mof_C 	C 	0.0421	0.219	0.7708	-0.08
Mof_C 	C 	0.0583	0.1892	0.7109	0.025
Mof_C 	C 	0.1277	0.2185	0.6779	-0.089
Mof_C 	C 	0.003	0.1261	0.6805	0.1
Mof_C 	C 	0.9076	0.0751	0.6183	0.102
Mof_C 	C 	0.837	0.0667	0.5741	0.026
Mof_C 	C 	0.8347	0.9951	0.5374	-0.078
Mof_C 	C 	0.7696	0.9834	0.4967	0.006
Mof_C 	C 	0.7071	0.044	0.4899	-0.08
Mof_C 	C 	0.7073	0.1141	0.528	0.022
Mof_C 	C 	0.7742	0.1259	0.5695	-0.085
Mof_C 	C 	0.6414	0.1804	0.5217	0.061
Mof_C 	C 	0.5984	0.1924	0.4668	-0.126
Mof_C 	C 	0.5417	0.2605	0.4621	0.077
Mof_C 	C 	0.5657	0.2997	0.5613	0.073
Mof_C 	C 	0.6227	0.2363	0.5713	-0.124
Mof_C 	C 	0.6401	0.5884	0.1404	0.072
Mof_C 	C 	0.702	0.6182	0.1808	-0.122
Mof_C 	C 	0.7462	0.6912	0.1662	0.064
Mof_C 	C 	0.7197	0.7345	0.1127	-0.129
Mof_C 	C 	0.658	0.699	0.0756	0.074
Mof_C 	C 	0.8178	0.7226	0.2028	0.026
Mof_C 	C 	0.8349	0.6937	0.2643	-0.084
Mof_C 	C 	0.9021	0.7221	0.2962	0.008
Mof_C 	C 	0.9579	0.781	0.2708	-0.081
Mof_C 	C 	0.9417	0.8108	0.2109	0.025
Mof_C 	C 	0.8723	0.7815	0.1779	-0.09
Mof_C 	C 	0.997	0.8739	0.1805	0.099
Mof_C 	C 	0.0924	0.9249	0.1183	0.101
Mof_C 	C 	0.163	0.9333	0.0741	0.03
Mof_C 	C 	0.1653	0.0049	0.0374	-0.086
Mof_C 	C 	0.2304	0.0166	0.9967	0.014
Mof_C 	C 	0.2929	0.956	0.9899	-0.084
Mof_C 	C 	0.2927	0.8859	0.028	0.023
Mof_C 	C 	0.2258	0.8741	0.0695	-0.088
Mof_C 	C 	0.3586	0.8196	0.0217	0.058
Mof_C 	C 	0.4016	0.8076	0.9668	-0.123
Mof_C 	C 	0.4583	0.7395	0.9621	0.078
Mof_C 	C 	0.4343	0.7003	0.0613	0.072
Mof_C 	C 	0.3773	0.7637	0.0713	-0.123
Mof_C 	C 	0.0884	0.8599	0.8904	0.071
Mof_C 	C 	0.1182	0.798	0.9308	-0.12
Mof_C 	C 	0.1912	0.7538	0.9162	0.061
Mof_C 	C 	0.2345	0.7803	0.8627	-0.128
Mof_C 	C 	0.199	0.842	0.8256	0.073
Mof_C 	C 	0.2226	0.6822	0.9528	0.032
Mof_C 	C 	0.1937	0.6651	0.0143	-0.092
Mof_C 	C 	0.2221	0.5979	0.0462	0.015
Mof_C 	C 	0.281	0.5421	0.0208	-0.091
Mof_C 	C 	0.3108	0.5583	0.9609	0.032
Mof_C 	C 	0.2815	0.6277	0.9279	-0.095
Mof_C 	C 	0.3739	0.503	0.9305	0.097
Mof_C 	C 	0.4249	0.4076	0.8683	0.102
Mof_C 	C 	0.4333	0.337	0.8241	0.028
Mof_C 	C 	0.5049	0.3347	0.7874	-0.079
Mof_C 	C 	0.5166	0.2696	0.7467	0.005
Mof_C 	C 	0.456	0.2071	0.7399	-0.079
Mof_C 	C 	0.3859	0.2073	0.778	0.022
Mof_C 	C 	0.3741	0.2742	0.8195	-0.085
Mof_C 	C 	0.3196	0.1414	0.7717	0.061
Mof_C 	C 	0.3076	0.0984	0.7168	-0.126
Mof_C 	C 	0.2395	0.0417	0.7121	0.077
Mof_C 	C 	0.2003	0.0657	0.8113	0.073
Mof_C 	C 	0.2637	0.1227	0.8213	-0.124
Mof_C 	C 	0.9116	0.1401	0.3904	0.071
Mof_C 	C 	0.8818	0.202	0.4308	-0.122
Mof_C 	C 	0.8088	0.2462	0.4162	0.063
Mof_C 	C 	0.7655	0.2197	0.3627	-0.129
Mof_C 	C 	0.801	0.158	0.3256	0.074
Mof_C 	C 	0.7774	0.3178	0.4528	0.027
Mof_C 	C 	0.8063	0.3349	0.5143	-0.085
Mof_C 	C 	0.7779	0.4021	0.5462	0.01
Mof_C 	C 	0.719	0.4579	0.5208	-0.084
Mof_C 	C 	0.6892	0.4417	0.4609	0.026
Mof_C 	C 	0.7185	0.3723	0.4279	-0.091
Mof_C 	C 	0.6261	0.497	0.4305	0.098
Mof_C 	C 	0.5751	0.5924	0.3683	0.102
Mof_C 	C 	0.5667	0.663	0.3241	0.028
Mof_C 	C 	0.4951	0.6653	0.2874	-0.079
Mof_C 	C 	0.4834	0.7304	0.2467	0.005
Mof_C 	C 	0.544	0.7929	0.2399	-0.079
Mof_C 	C 	0.6141	0.7927	0.278	0.022
Mof_C 	C 	0.6259	0.7258	0.3195	-0.085
Mof_C 	C 	0.6804	0.8586	0.2717	0.061
Mof_C 	C 	0.6924	0.9016	0.2168	-0.126
Mof_C 	C 	0.7605	0.9583	0.2121	0.077
Mof_C 	C 	0.7997	0.9343	0.3113	0.073
Mof_C 	C 	0.7363	0.8773	0.3213	-0.124
Mof_C 	C 	0.1401	0.9116	0.6096	0.071
Mof_C 	C 	0.202	0.8818	0.5692	-0.122
Mof_C 	C 	0.2462	0.8088	0.5838	0.063
Mof_C 	C 	0.2197	0.7655	0.6373	-0.129
Mof_C 	C 	0.158	0.801	0.6744	0.074
Mof_C 	C 	0.3178	0.7774	0.5472	0.027
Mof_C 	C 	0.3349	0.8063	0.4857	-0.085
Mof_C 	C 	0.4021	0.7779	0.4538	0.01
Mof_C 	C 	0.4579	0.719	0.4792	-0.084
Mof_C 	C 	0.4417	0.6892	0.5391	0.026
Mof_C 	C 	0.3723	0.7185	0.5721	-0.091
Mof_C 	C 	0.497	0.6261	0.5695	0.098
Mof_C 	C 	0.5924	0.5751	0.6317	0.102
Mof_C 	C 	0.663	0.5667	0.6759	0.028
Mof_C 	C 	0.6653	0.4951	0.7126	-0.079
Mof_C 	C 	0.7304	0.4834	0.7533	0.005
Mof_C 	C 	0.7929	0.544	0.7601	-0.079
Mof_C 	C 	0.7927	0.6141	0.722	0.022
Mof_C 	C 	0.7258	0.6259	0.6805	-0.085
Mof_C 	C 	0.8586	0.6804	0.7283	0.061
Mof_C 	C 	0.9016	0.6924	0.7832	-0.126
Mof_C 	C 	0.9583	0.7605	0.7879	0.077
Mof_C 	C 	0.9343	0.7997	0.6887	0.073
Mof_C 	C 	0.8773	0.7363	0.6787	-0.124
Mof_C 	C 	0.8599	0.0884	0.1096	0.072
Mof_C 	C 	0.798	0.1182	0.0692	-0.123
Mof_C 	C 	0.7538	0.1912	0.0838	0.066
Mof_C 	C 	0.7803	0.2345	0.1373	-0.131
Mof_C 	C 	0.842	0.199	0.1744	0.074
Mof_C 	C 	0.6822	0.2226	0.0472	0.02
Mof_C 	C 	0.6651	0.1937	0.9857	-0.076
Mof_C 	C 	0.5979	0.2221	0.9538	0.003
Mof_C 	C 	0.5421	0.281	0.9792	-0.075
Mof_C 	C 	0.5583	0.3108	0.0391	0.019
Mof_C 	C 	0.6277	0.2815	0.0721	-0.085
Mof_C 	C 	0.503	0.3739	0.0695	0.099
Mof_C 	C 	0.4076	0.4249	0.1317	0.102
Mof_C 	C 	0.337	0.4333	0.1759	0.028
Mof_C 	C 	0.3347	0.5049	0.2126	-0.079
Mof_C 	C 	0.2696	0.5166	0.2533	0.005
Mof_C 	C 	0.2071	0.456	0.2601	-0.079
Mof_C 	C 	0.2073	0.3859	0.222	0.022
Mof_C 	C 	0.2742	0.3741	0.1805	-0.085
Mof_C 	C 	0.1414	0.3196	0.2283	0.061
Mof_C 	C 	0.0984	0.3076	0.2832	-0.126
Mof_C 	C 	0.0417	0.2395	0.2879	0.077
Mof_C 	C 	0.0657	0.2003	0.1887	0.073
Mof_C 	C 	0.1227	0.2637	0.1787	-0.124
Mof_C 	C 	0.4116	0.3599	0.3596	0.072
Mof_C 	C 	0.3818	0.298	0.3192	-0.122
Mof_C 	C 	0.3088	0.2538	0.3338	0.064
Mof_C 	C 	0.2655	0.2803	0.3873	-0.129
Mof_C 	C 	0.301	0.342	0.4244	0.074
Mof_C 	C 	0.2774	0.1822	0.2972	0.026
Mof_C 	C 	0.3063	0.1651	0.2357	-0.084
Mof_C 	C 	0.2779	0.0979	0.2038	0.008
Mof_C 	C 	0.219	0.0421	0.2292	-0.081
Mof_C 	C 	0.1892	0.0583	0.2891	0.025
Mof_C 	C 	0.2185	0.1277	0.3221	-0.09
Mof_C 	C 	0.1261	0.003	0.3195	0.1
Mof_C 	C 	0.0751	0.9076	0.3817	0.102
Mof_C 	C 	0.0667	0.837	0.4259	0.026
Mof_C 	C 	0.9951	0.8347	0.4626	-0.078
Mof_C 	C 	0.9834	0.7696	0.5033	0.006
Mof_C 	C 	0.044	0.7071	0.5101	-0.08
Mof_C 	C 	0.1141	0.7073	0.472	0.022
Mof_C 	C 	0.1259	0.7742	0.4305	-0.085
Mof_C 	C 	0.1804	0.6414	0.4783	0.061
Mof_C 	C 	0.1924	0.5984	0.5332	-0.126
Mof_C 	C 	0.2605	0.5417	0.5379	0.077
Mof_C 	C 	0.2997	0.5657	0.4387	0.073
Mof_C 	C 	0.2363	0.6227	0.4287	-0.124
Mof_C 	C 	0.5884	0.6401	0.8596	0.072
Mof_C 	C 	0.6182	0.702	0.8192	-0.122
Mof_C 	C 	0.6912	0.7462	0.8338	0.064
Mof_C 	C 	0.7345	0.7197	0.8873	-0.129
Mof_C 	C 	0.699	0.658	0.9244	0.074
Mof_C 	C 	0.7226	0.8178	0.7972	0.026
Mof_C 	C 	0.6937	0.8349	0.7357	-0.084
Mof_C 	C 	0.7221	0.9021	0.7038	0.008
Mof_C 	C 	0.781	0.9579	0.7292	-0.081
Mof_C 	C 	0.8108	0.9417	0.7891	0.025
Mof_C 	C 	0.7815	0.8723	0.8221	-0.09
Mof_C 	C 	0.8739	0.997	0.8195	0.099
Mof_C 	C 	0.9249	0.0924	0.8817	0.103
Mof_C 	C 	0.9333	0.163	0.9259	0.026
Mof_C 	C 	0.0049	0.1653	0.9626	-0.074
Mof_C 	C 	0.0166	0.2304	0.0033	0.003
Mof_C 	C 	0.956	0.2929	0.0101	-0.083
Mof_C 	C 	0.8859	0.2927	0.972	0.024
Mof_C 	C 	0.8741	0.2258	0.9305	-0.085
Mof_C 	C 	0.8196	0.3586	0.9783	0.064
Mof_C 	C 	0.8076	0.4016	0.0332	-0.129
Mof_C 	C 	0.7395	0.4583	0.0379	0.076
Mof_C 	C 	0.7003	0.4343	0.9387	0.074
Mof_C 	C 	0.7637	0.3773	0.9287	-0.125
Mof_N 	N 	0.0071	0.0435	0.6831	-0.112
Mof_N 	N 	0.9461	0.0114	0.6446	-0.1
Mof_N 	N 	0.9417	0.1475	0.64	-0.104
Mof_N 	N 	0.9216	0.2291	0.6204	-0.21
Mof_N 	N 	0.3803	0.3744	0.5878	-0.151
Mof_N 	N 	0.5258	0.3129	0.5072	-0.15
Mof_N 	N 	0.9929	0.9565	0.1831	-0.112
Mof_N 	N 	0.0539	0.9886	0.1446	-0.099
Mof_N 	N 	0.0583	0.8525	0.14	-0.104
Mof_N 	N 	0.0784	0.7709	0.1204	-0.211
Mof_N 	N 	0.6197	0.6256	0.0878	-0.152
Mof_N 	N 	0.4742	0.6871	0.0072	-0.151
Mof_N 	N 	0.4565	0.5071	0.9331	-0.112
Mof_N 	N 	0.4886	0.4461	0.8946	-0.099
Mof_N 	N 	0.3525	0.4417	0.89	-0.103
Mof_N 	N 	0.2709	0.4216	0.8704	-0.211
Mof_N 	N 	0.1256	0.8803	0.8378	-0.151
Mof_N 	N 	0.1871	0.0258	0.7572	-0.149
Mof_N 	N 	0.5435	0.4929	0.4331	-0.113
Mof_N 	N 	0.5114	0.5539	0.3946	-0.099
Mof_N 	N 	0.6475	0.5583	0.39	-0.103
Mof_N 	N 	0.7291	0.5784	0.3704	-0.211
Mof_N 	N 	0.8744	0.1197	0.3378	-0.152
Mof_N 	N 	0.8129	0.9742	0.2572	-0.149
Mof_N 	N 	0.4929	0.5435	0.5669	-0.113
Mof_N 	N 	0.5539	0.5114	0.6054	-0.099
Mof_N 	N 	0.5583	0.6475	0.61	-0.103
Mof_N 	N 	0.5784	0.7291	0.6296	-0.211
Mof_N 	N 	0.1197	0.8744	0.6622	-0.152
Mof_N 	N 	0.9742	0.8129	0.7428	-0.149
Mof_N 	N 	0.5071	0.4565	0.0669	-0.114
Mof_N 	N 	0.4461	0.4886	0.1054	-0.099
Mof_N 	N 	0.4417	0.3525	0.11	-0.104
Mof_N 	N 	0.4216	0.2709	0.1296	-0.21
Mof_N 	N 	0.8803	0.1256	0.1622	-0.152
Mof_N 	N 	0.0258	0.1871	0.2428	-0.149
Mof_N 	N 	0.0435	0.0071	0.3169	-0.112
Mof_N 	N 	0.0114	0.9461	0.3554	-0.1
Mof_N 	N 	0.1475	0.9417	0.36	-0.104
Mof_N 	N 	0.2291	0.9216	0.3796	-0.21
Mof_N 	N 	0.3744	0.3803	0.4122	-0.151
Mof_N 	N 	0.3129	0.5258	0.4928	-0.15
Mof_N 	N 	0.9565	0.9929	0.8169	-0.112
Mof_N 	N 	0.9886	0.0539	0.8554	-0.1
Mof_N 	N 	0.8525	0.0583	0.86	-0.104
Mof_N 	N 	0.7709	0.0784	0.8796	-0.21
Mof_N 	N 	0.6256	0.6197	0.9122	-0.151
Mof_N 	N 	0.6871	0.4742	0.9928	-0.148
Mof_Cl	Cl	0.88123	0.88123	-0	-0.259
Mof_O 	O 	0.8185	0.8881	0.0388	-0.031
Mof_O 	O 	0.9425	0.856	0.0356	-0.019
Mof_O 	O 	0.8881	0.8185	0.9612	-0.029
Mof_O 	O 	0.856	0.9425	0.9644	-0.017
Mof_Cl	Cl	0.11877	0.11877	0.5	-0.254
Mof_O 	O 	0.1815	0.1119	0.5388	-0.031
Mof_O 	O 	0.0575	0.144	0.5356	-0.02
Mof_O 	O 	0.1119	0.1815	0.4612	-0.031
Mof_O 	O 	0.144	0.0575	0.4644	-0.02
Mof_Cl	Cl	0.61877	0.38123	0.25	-0.254
Mof_O 	O 	0.6119	0.3185	0.2888	-0.031
Mof_O 	O 	0.644	0.4425	0.2856	-0.02
Mof_O 	O 	0.6815	0.3881	0.2112	-0.031
Mof_O 	O 	0.5575	0.356	0.2144	-0.02
Mof_Cl	Cl	0.38123	0.61877	0.75	-0.254
Mof_O 	O 	0.3881	0.6815	0.7888	-0.031
Mof_O 	O 	0.356	0.5575	0.7856	-0.02
Mof_O 	O 	0.3185	0.6119	0.7112	-0.031
Mof_O 	O 	0.4425	0.644	0.7144	-0.02
_end
