data_functionalizedCrystal
_audit_creation_method	'EQeq! by Chris Wilmer'
_symmetry_space_group_name_H-M	'P1'
_symmetry_Int_Tables_number	1
_symmetry_cell_setting	triclinic
loop_
_symmetry_equiv_pos_as_xyz
  x,y,z
_cell_length_a	8.3936
_cell_length_b	10.5347
_cell_length_c	17.4093
_cell_angle_alpha	99.174
_cell_angle_beta	97.13
_cell_angle_gamma	100.348
loop_
_atom_site_label
_atom_site_type_symbol
_atom_site_fract_x
_atom_site_fract_y
_atom_site_fract_z
_atom_site_charge
Mof_C 	C 	0.9749	0.5575	0.30462	0.34
Mof_C 	C 	0.9723	0.4273	0.3289	-0.126
Mof_C 	C 	0.0637	0.42	0.3999	0.071
Mof_H 	H 	0.1287	0.4957	0.4314	0.019
Mof_C 	C 	0.0581	0.3	0.4238	-0.163
Mof_H 	H 	0.1176	0.2956	0.4717	0.097
Mof_C 	C 	0.9638	0.1864	0.3762	0.103
Mof_H 	H 	0.9625	0.1059	0.3918	-0.004
Mof_C 	C 	0.8716	0.1924	0.3055	-0.177
Mof_C 	C 	0.8768	0.3137	0.2825	0.083
Mof_H 	H 	0.8151	0.3184	0.2352	0.031
Mof_C 	C 	0.7565	0.0745	0.2572	0.436
Mof_C 	C 	0.8382	0.0036	0.85932	0.59
Mof_C 	C 	0.8723	0.9066	0.91074	-0.277
Mof_C 	C 	0.997	0.8378	0.8998	0.176
Mof_H 	H 	0.0598	0.8509	0.8603	-0.021
Mof_C 	C 	0.0269	0.7496	0.9483	-0.233
Mof_H 	H 	0.1077	0.7013	0.94	0.122
Mof_C 	C 	0.9374	0.7329	0.0088	0.18
Mof_H 	H 	0.9601	0.675	0.0418	-0.04
Mof_C 	C 	0.8149	0.8016	0.02047	-0.266
Mof_C 	C 	0.7806	0.8873	0.97033	0.205
Mof_H 	H 	0.6957	0.9318	0.9769	-0.015
Mof_C 	C 	0.7224	0.79	0.08796	0.521
Mof_C 	C 	0.689	0.0008	0.63713	0.611
Mof_C 	C 	0.5991	0.9054	0.56475	-0.303
Mof_C 	C 	0.4365	0.8462	0.5632	0.213
Mof_H 	H 	0.3873	0.8623	0.6078	-0.043
Mof_C 	C 	0.3473	0.7637	0.4961	-0.273
Mof_H 	H 	0.2383	0.725	0.4954	0.139
Mof_C 	C 	0.4204	0.7391	0.4305	0.205
Mof_H 	H 	0.3597	0.6845	0.3851	-0.031
Mof_C 	C 	0.583	0.7944	0.43108	-0.281
Mof_C 	C 	0.6595	0.7691	0.35878	0.517
Mof_C 	C 	0.6727	0.8787	0.49879	0.213
Mof_H 	H 	0.7819	0.9169	0.4995	-0.031
Mof_C 	C 	0.2145	0.6277	0.1614	0.595
Mof_H 	H 	0.1332	0.5517	0.1475	-0.164
Mof_Eu	Eu	0.47769	0.86133	0.2033	2.57
Mof_Eu	Eu	0.96636	0.80744	0.26231	2.586
Mof_O 	O 	0.0707	0.657	0.34339	-0.454
Mof_O 	O 	0.8769	0.5641	0.24341	-0.442
Mof_O 	O 	0.6385	0.0886	0.21063	-0.48
Mof_O 	O 	0.7742	0.9599	0.2677	-0.691
Mof_O 	O 	0.9382	0.0333	0.81391	-0.6
Mof_O 	O 	0.7105	0.0489	0.86598	-0.624
Mof_O 	O 	0.5935	0.8335	0.08689	-0.579
Mof_O 	O 	0.7768	0.7353	0.14286	-0.611
Mof_O 	O 	0.8385	0.0472	0.64084	-0.614
Mof_O 	O 	0.6054	0.0306	0.69045	-0.669
Mof_O 	O 	0.5652	0.731	0.29226	-0.6
Mof_O 	O 	0.812	0.7859	0.36658	-0.568
Mof_O 	O 	0.3485	0.6267	0.13763	-0.514
Mof_O 	O 	0.1844	0.725	0.20253	-0.729
Mof_C 	C 	0.0251	0.4425	0.69538	0.34
Mof_C 	C 	0.0277	0.5727	0.6711	-0.126
Mof_C 	C 	0.9363	0.58	0.6001	0.071
Mof_H 	H 	0.8713	0.5043	0.5686	0.019
Mof_C 	C 	0.9419	0.7	0.5762	-0.163
Mof_H 	H 	0.8824	0.7044	0.5283	0.097
Mof_C 	C 	0.0362	0.8136	0.6238	0.103
Mof_H 	H 	0.0375	0.8941	0.6082	-0.004
Mof_C 	C 	0.1284	0.8076	0.6945	-0.177
Mof_C 	C 	0.1232	0.6863	0.7175	0.083
Mof_H 	H 	0.1849	0.6816	0.7648	0.031
Mof_C 	C 	0.2435	0.9255	0.7428	0.436
Mof_C 	C 	0.1618	0.9964	0.14068	0.59
Mof_C 	C 	0.1277	0.0934	0.08926	-0.277
Mof_C 	C 	0.003	0.1622	0.1002	0.176
Mof_H 	H 	0.9402	0.1491	0.1397	-0.021
Mof_C 	C 	0.9731	0.2504	0.0517	-0.233
Mof_H 	H 	0.8923	0.2987	0.06	0.122
Mof_C 	C 	0.0626	0.2671	0.9912	0.18
Mof_H 	H 	0.0399	0.325	0.9582	-0.04
Mof_C 	C 	0.1851	0.1984	0.97953	-0.266
Mof_C 	C 	0.2194	0.1127	0.02967	0.205
Mof_H 	H 	0.3043	0.0682	0.0231	-0.015
Mof_C 	C 	0.2776	0.21	0.91204	0.521
Mof_C 	C 	0.311	0.9992	0.36287	0.611
Mof_C 	C 	0.4009	0.0946	0.43525	-0.303
Mof_C 	C 	0.5635	0.1538	0.4368	0.213
Mof_H 	H 	0.6127	0.1377	0.3922	-0.043
Mof_C 	C 	0.6527	0.2363	0.5039	-0.273
Mof_H 	H 	0.7617	0.275	0.5046	0.139
Mof_C 	C 	0.5796	0.2609	0.5695	0.205
Mof_H 	H 	0.6403	0.3155	0.6149	-0.031
Mof_C 	C 	0.417	0.2056	0.56892	-0.281
Mof_C 	C 	0.3405	0.2309	0.64122	0.517
Mof_C 	C 	0.3273	0.1213	0.50121	0.213
Mof_H 	H 	0.2181	0.0831	0.5005	-0.031
Mof_C 	C 	0.7855	0.3723	0.8386	0.595
Mof_H 	H 	0.8668	0.4483	0.8525	-0.164
Mof_Eu	Eu	0.52231	0.13867	0.79671	2.57
Mof_Eu	Eu	0.03364	0.19256	0.73769	2.586
Mof_O 	O 	0.9293	0.343	0.65661	-0.454
Mof_O 	O 	0.1231	0.4359	0.75659	-0.442
Mof_O 	O 	0.3615	0.9114	0.78937	-0.48
Mof_O 	O 	0.2258	0.0401	0.7323	-0.691
Mof_O 	O 	0.0618	0.9667	0.18609	-0.6
Mof_O 	O 	0.2895	0.9511	0.13402	-0.624
Mof_O 	O 	0.4065	0.1665	0.91311	-0.579
Mof_O 	O 	0.2232	0.2647	0.85714	-0.611
Mof_O 	O 	0.1615	0.9528	0.35916	-0.614
Mof_O 	O 	0.3946	0.9694	0.30955	-0.669
Mof_O 	O 	0.4348	0.269	0.70774	-0.6
Mof_O 	O 	0.188	0.2141	0.63342	-0.568
Mof_O 	O 	0.6515	0.3733	0.86237	-0.514
Mof_O 	O 	0.8156	0.275	0.79747	-0.729
_end
