# CIF file generated by openbabel 3.1.0, see https://openbabel.org
data_I
_chemical_name_common 'image0'
_cell_length_a 34.44
_cell_length_b 14.9178
_cell_length_c 29.894
_cell_angle_alpha 90
_cell_angle_beta 99.307
_cell_angle_gamma 90
_space_group_name_H-M_alt 'P 1'
_space_group_name_Hall 'P 1'
loop_
    _symmetry_equiv_pos_as_xyz
    x,y,z
loop_
    _atom_site_label
    _atom_site_type_symbol
    _atom_site_fract_x
    _atom_site_fract_y
    _atom_site_fract_z
    _atom_site_occupancy
    C1       C        0.30690    0.57740    0.36480    1.000
    H1       H        0.31280    0.63840    0.35970    1.000
    C2       C        0.27810    0.53580    0.33600    1.000
    H2       H        0.26400    0.56840    0.31130    1.000
    C3       C        0.26900    0.44840    0.34170    1.000
    C4       C        0.28980    0.40280    0.37800    1.000
    H3       H        0.28430    0.34180    0.38370    1.000
    C5       C        0.31880    0.44890    0.40560    1.000
    H4       H        0.33370    0.41710    0.43000    1.000
    C6       C        0.23790    0.40400    0.30980    1.000
    C7       C        0.18870    0.41490    0.24970    1.000
    C8       C        0.20260    0.28300    0.28430    1.000
    C9       C        0.21260    0.03400    0.30570    1.000
    H5       H        0.22970    0.99380    0.32410    1.000
    C10      C        0.22030    0.12560    0.31100    1.000
    H6       H        0.24220    0.14620    0.33180    1.000
    C11      C        0.19560    0.18550    0.28550    1.000
    C12      C        0.16390    0.14720    0.25560    1.000
    H7       H        0.14560    0.18510    0.23730    1.000
    C13      C        0.15910    0.05630    0.25260    1.000
    H8       H        0.13760    0.03230    0.23220    1.000
    C14      C        0.14810    0.60010    0.17060    1.000
    H9       H        0.15300    0.66170    0.16580    1.000
    C15      C        0.17110    0.55590    0.20650    1.000
    H10      H        0.19050    0.58740    0.22680    1.000
    C16      C        0.16530    0.46750    0.21180    1.000
    C17      C        0.13710    0.42600    0.18310    1.000
    H11      H        0.13190    0.36410    0.18700    1.000
    C18      C        0.11530    0.47350    0.14780    1.000
    H12      H        0.09660    0.44260    0.12640    1.000
    N1       N        0.32740    0.53320    0.40080    1.000
    N2       N        0.21820    0.45590    0.27680    1.000
    N3       N        0.17930    0.32830    0.25220    1.000
    N4       N        0.23130    0.31720    0.31450    1.000
    N5       N        0.18420    0.00000    0.27790    1.000
    N6       N        0.11990    0.55960    0.14320    1.000
    C19      C        0.43030    0.46760    0.48940    1.000
    H13      H        0.41940    0.47450    0.51640    1.000
    C20      C        0.46340    0.40970    0.48920    1.000
    H14      H        0.47450    0.37910    0.51610    1.000
    C21      C        0.47800    0.39900    0.45260    1.000
    C22      C        0.46070    0.44440    0.41510    1.000
    H15      H        0.47120    0.43840    0.38780    1.000
    C23      C        0.42960    0.49670    0.41560    1.000
    H16      H        0.41780    0.52400    0.38800    1.000
    C24      C        0.51210    0.34090    0.45150    1.000
    C25      C        0.54540    0.21360    0.47220    1.000
    C26      C        0.56380    0.30000    0.41780    1.000
    C27      C        0.53280    0.02930    0.55330    1.000
    H17      H        0.51500    0.01350    0.57320    1.000
    C28      C        0.52590    0.10620    0.52790    1.000
    H18      H        0.50360    0.14230    0.53020    1.000
    C29      C        0.55080    0.12980    0.49970    1.000
    C30      C        0.58230    0.07660    0.49820    1.000
    H19      H        0.60120    0.09230    0.47960    1.000
    C31      C        0.58690    0.99870    0.52410    1.000
    H20      H        0.60850    0.96070    0.52130    1.000
    C32      C        0.64380    0.27990    0.35030    1.000
    H21      H        0.66570    0.24150    0.34910    1.000
    C33      C        0.62080    0.26240    0.38440    1.000
    H22      H        0.62770    0.21620    0.40620    1.000
    C34      C        0.58860    0.31440    0.38490    1.000
    C35      C        0.58570    0.38630    0.35220    1.000
    H23      H        0.56530    0.42880    0.35300    1.000
    C36      C        0.60770    0.39850    0.32240    1.000
    H24      H        0.60240    0.44700    0.30170    1.000
    N7       N        0.41470    0.51200    0.45220    1.000
    N8       N        0.51610    0.26860    0.47950    1.000
    N9       N        0.57070    0.22460    0.44140    1.000
    N10      N        0.53560    0.35700    0.42030    1.000
    N11      N        0.56390    0.97540    0.55120    1.000
    N12      N        0.63770    0.34490    0.31980    1.000
    Zn1      Zn       0.35855    0.58940    0.46370    1.000
    Zn2      Zn       0.17160    0.86330    0.26830    1.000
    Zn3      Zn       0.08051    0.62977    0.09563    1.000
    I1       I        0.33247    0.55990    0.53530    1.000
    I2       I        0.23406    0.76910    0.28890    1.000
    I3       I        0.12737    0.84909    0.19295    1.000
    I4       I        0.11955    0.73890    0.05211    1.000
    I5       I        0.02285    0.66358    0.13581    1.000
    I6       I        0.37660    0.74220    0.42830    1.000
    Zn4      Zn       0.37422    0.60100    0.43833    1.000
    Zn5      Zn       0.17810    0.86740    0.28050    1.000
    I7       I        0.34841    0.60680    0.51220    1.000
    I8       I        0.36260    0.73750    0.45360    1.000
    I9       I        0.23350    0.78120    0.30740    1.000
    I10      I        0.25240    0.79330    0.33170    1.000
    I11      I        0.14470    0.83200    0.20400    1.000
    I12      I        0.16860    0.80600    0.21510    1.000
    I13      I        0.11060    0.74110    0.06520    1.000
    I14      I        0.02590    0.66350    0.13690    1.000
    I15      I        0.39592    0.73756    0.39816    1.000
    C37      C        0.80690    0.07740    0.36480    1.000
    H25      H        0.81280    0.13840    0.35970    1.000
    C38      C        0.77810    0.03580    0.33600    1.000
    H26      H        0.76400    0.06840    0.31130    1.000
    C39      C        0.76900    0.94840    0.34170    1.000
    C40      C        0.78980    0.90280    0.37800    1.000
    H27      H        0.78430    0.84180    0.38370    1.000
    C41      C        0.81880    0.94890    0.40560    1.000
    H28      H        0.83370    0.91710    0.43000    1.000
    C42      C        0.73790    0.90400    0.30980    1.000
    C43      C        0.68870    0.91490    0.24970    1.000
    C44      C        0.70260    0.78300    0.28430    1.000
    C45      C        0.71260    0.53400    0.30570    1.000
    H29      H        0.72970    0.49380    0.32410    1.000
    C46      C        0.72030    0.62560    0.31100    1.000
    H30      H        0.74220    0.64620    0.33180    1.000
    C47      C        0.69560    0.68550    0.28550    1.000
    C48      C        0.66390    0.64720    0.25560    1.000
    H31      H        0.64560    0.68510    0.23730    1.000
    C49      C        0.65910    0.55630    0.25260    1.000
    H32      H        0.63760    0.53230    0.23220    1.000
    C50      C        0.64810    0.10010    0.17060    1.000
    H33      H        0.65300    0.16170    0.16580    1.000
    C51      C        0.67110    0.05590    0.20650    1.000
    H34      H        0.69050    0.08740    0.22680    1.000
    C52      C        0.66530    0.96750    0.21180    1.000
    C53      C        0.63710    0.92600    0.18310    1.000
    H35      H        0.63190    0.86410    0.18700    1.000
    C54      C        0.61530    0.97350    0.14780    1.000
    H36      H        0.59660    0.94260    0.12640    1.000
    N13      N        0.82740    0.03320    0.40080    1.000
    N14      N        0.71820    0.95590    0.27680    1.000
    N15      N        0.67930    0.82830    0.25220    1.000
    N16      N        0.73130    0.81720    0.31450    1.000
    N17      N        0.68420    0.50000    0.27790    1.000
    N18      N        0.61990    0.05960    0.14320    1.000
    C55      C        0.93030    0.96760    0.48940    1.000
    H37      H        0.91940    0.97450    0.51640    1.000
    C56      C        0.96340    0.90970    0.48920    1.000
    H38      H        0.97450    0.87910    0.51610    1.000
    C57      C        0.97800    0.89900    0.45260    1.000
    C58      C        0.96070    0.94440    0.41510    1.000
    H39      H        0.97120    0.93840    0.38780    1.000
    C59      C        0.92960    0.99670    0.41560    1.000
    H40      H        0.91780    0.02400    0.38800    1.000
    C60      C        0.01210    0.84090    0.45150    1.000
    C61      C        0.04540    0.71360    0.47220    1.000
    C62      C        0.06380    0.80000    0.41780    1.000
    C63      C        0.03280    0.52930    0.55330    1.000
    H41      H        0.01500    0.51350    0.57320    1.000
    C64      C        0.02590    0.60620    0.52790    1.000
    H42      H        0.00360    0.64230    0.53020    1.000
    C65      C        0.05080    0.62980    0.49970    1.000
    C66      C        0.08230    0.57660    0.49820    1.000
    H43      H        0.10120    0.59230    0.47960    1.000
    C67      C        0.08690    0.49870    0.52410    1.000
    H44      H        0.10850    0.46070    0.52130    1.000
    C68      C        0.14380    0.77990    0.35030    1.000
    H45      H        0.16570    0.74150    0.34910    1.000
    C69      C        0.12080    0.76240    0.38440    1.000
    H46      H        0.12770    0.71620    0.40620    1.000
    C70      C        0.08860    0.81440    0.38490    1.000
    C71      C        0.08570    0.88630    0.35220    1.000
    H47      H        0.06530    0.92880    0.35300    1.000
    C72      C        0.10770    0.89850    0.32240    1.000
    H48      H        0.10240    0.94700    0.30170    1.000
    N19      N        0.91470    0.01200    0.45220    1.000
    N20      N        0.01610    0.76860    0.47950    1.000
    N21      N        0.07070    0.72460    0.44140    1.000
    N22      N        0.03560    0.85700    0.42030    1.000
    N23      N        0.06390    0.47540    0.55120    1.000
    N24      N        0.13770    0.84490    0.31980    1.000
    Zn6      Zn       0.85855    0.08940    0.46370    1.000
    Zn7      Zn       0.67160    0.36330    0.26830    1.000
    Zn8      Zn       0.58051    0.12977    0.09563    1.000
    I16      I        0.83247    0.05990    0.53530    1.000
    I17      I        0.73406    0.26910    0.28890    1.000
    I18      I        0.62737    0.34909    0.19295    1.000
    I19      I        0.61955    0.23890    0.05211    1.000
    I20      I        0.52285    0.16358    0.13581    1.000
    I21      I        0.87660    0.24220    0.42830    1.000
    Zn9      Zn       0.87422    0.10100    0.43833    1.000
    Zn10     Zn       0.67810    0.36740    0.28050    1.000
    I22      I        0.84841    0.10680    0.51220    1.000
    I23      I        0.86260    0.23750    0.45360    1.000
    I24      I        0.73350    0.28120    0.30740    1.000
    I25      I        0.75240    0.29330    0.33170    1.000
    I26      I        0.64470    0.33200    0.20400    1.000
    I27      I        0.66860    0.30600    0.21510    1.000
    I28      I        0.61060    0.24110    0.06520    1.000
    I29      I        0.52590    0.16350    0.13690    1.000
    I30      I        0.89592    0.23756    0.39816    1.000
    C73      C        0.30690    0.42260    0.86480    1.000
    H49      H        0.31280    0.36160    0.85970    1.000
    C74      C        0.27810    0.46420    0.83600    1.000
    H50      H        0.26400    0.43160    0.81130    1.000
    C75      C        0.26900    0.55160    0.84170    1.000
    C76      C        0.28980    0.59720    0.87800    1.000
    H51      H        0.28430    0.65820    0.88370    1.000
    C77      C        0.31880    0.55110    0.90560    1.000
    H52      H        0.33370    0.58290    0.93000    1.000
    C78      C        0.23790    0.59600    0.80980    1.000
    C79      C        0.18870    0.58510    0.74970    1.000
    C80      C        0.20260    0.71700    0.78430    1.000
    C81      C        0.21260    0.96600    0.80570    1.000
    H53      H        0.22970    0.00620    0.82410    1.000
    C82      C        0.22030    0.87440    0.81100    1.000
    H54      H        0.24220    0.85380    0.83180    1.000
    C83      C        0.19560    0.81450    0.78550    1.000
    C84      C        0.16390    0.85280    0.75560    1.000
    H55      H        0.14560    0.81490    0.73730    1.000
    C85      C        0.15910    0.94370    0.75260    1.000
    H56      H        0.13760    0.96770    0.73220    1.000
    C86      C        0.14810    0.39990    0.67060    1.000
    H57      H        0.15300    0.33830    0.66580    1.000
    C87      C        0.17110    0.44410    0.70650    1.000
    H58      H        0.19050    0.41260    0.72680    1.000
    C88      C        0.16530    0.53250    0.71180    1.000
    C89      C        0.13710    0.57400    0.68310    1.000
    H59      H        0.13190    0.63590    0.68700    1.000
    C90      C        0.11530    0.52650    0.64780    1.000
    H60      H        0.09660    0.55740    0.62640    1.000
    N25      N        0.32740    0.46680    0.90080    1.000
    N26      N        0.21820    0.54410    0.77680    1.000
    N27      N        0.17930    0.67170    0.75220    1.000
    N28      N        0.23130    0.68280    0.81450    1.000
    N29      N        0.18420    0.00000    0.77790    1.000
    N30      N        0.11990    0.44040    0.64320    1.000
    C91      C        0.43030    0.53240    0.98940    1.000
    H61      H        0.41940    0.52550    0.01640    1.000
    C92      C        0.46340    0.59030    0.98920    1.000
    H62      H        0.47450    0.62090    0.01610    1.000
    C93      C        0.47800    0.60100    0.95260    1.000
    C94      C        0.46070    0.55560    0.91510    1.000
    H63      H        0.47120    0.56160    0.88780    1.000
    C95      C        0.42960    0.50330    0.91560    1.000
    H64      H        0.41780    0.47600    0.88800    1.000
    C96      C        0.51210    0.65910    0.95150    1.000
    C97      C        0.54540    0.78640    0.97220    1.000
    C98      C        0.56380    0.70000    0.91780    1.000
    C99      C        0.53280    0.97070    0.05330    1.000
    H65      H        0.51500    0.98650    0.07320    1.000
    C100     C        0.52590    0.89380    0.02790    1.000
    H66      H        0.50360    0.85770    0.03020    1.000
    C101     C        0.55080    0.87020    0.99970    1.000
    C102     C        0.58230    0.92340    0.99820    1.000
    H67      H        0.60120    0.90770    0.97960    1.000
    C103     C        0.58690    0.00130    0.02410    1.000
    H68      H        0.60850    0.03930    0.02130    1.000
    C104     C        0.64380    0.72010    0.85030    1.000
    H69      H        0.66570    0.75850    0.84910    1.000
    C105     C        0.62080    0.73760    0.88440    1.000
    H70      H        0.62770    0.78380    0.90620    1.000
    C106     C        0.58860    0.68560    0.88490    1.000
    C107     C        0.58570    0.61370    0.85220    1.000
    H71      H        0.56530    0.57120    0.85300    1.000
    C108     C        0.60770    0.60150    0.82240    1.000
    H72      H        0.60240    0.55300    0.80170    1.000
    N31      N        0.41470    0.48800    0.95220    1.000
    N32      N        0.51610    0.73140    0.97950    1.000
    N33      N        0.57070    0.77540    0.94140    1.000
    N34      N        0.53560    0.64300    0.92030    1.000
    N35      N        0.56390    0.02460    0.05120    1.000
    N36      N        0.63770    0.65510    0.81980    1.000
    Zn11     Zn       0.35855    0.41060    0.96370    1.000
    Zn12     Zn       0.17160    0.13670    0.76830    1.000
    Zn13     Zn       0.08051    0.37023    0.59563    1.000
    I31      I        0.33247    0.44010    0.03530    1.000
    I32      I        0.23406    0.23090    0.78890    1.000
    I33      I        0.12737    0.15091    0.69295    1.000
    I34      I        0.11955    0.26110    0.55211    1.000
    I35      I        0.02285    0.33642    0.63581    1.000
    I36      I        0.37660    0.25780    0.92830    1.000
    Zn14     Zn       0.37422    0.39900    0.93833    1.000
    Zn15     Zn       0.17810    0.13260    0.78050    1.000
    I37      I        0.34841    0.39320    0.01220    1.000
    I38      I        0.36260    0.26250    0.95360    1.000
    I39      I        0.23350    0.21880    0.80740    1.000
    I40      I        0.25240    0.20670    0.83170    1.000
    I41      I        0.14470    0.16800    0.70400    1.000
    I42      I        0.16860    0.19400    0.71510    1.000
    I43      I        0.11060    0.25890    0.56520    1.000
    I44      I        0.02590    0.33650    0.63690    1.000
    I45      I        0.39592    0.26244    0.89816    1.000
    C109     C        0.80690    0.92260    0.86480    1.000
    H73      H        0.81280    0.86160    0.85970    1.000
    C110     C        0.77810    0.96420    0.83600    1.000
    H74      H        0.76400    0.93160    0.81130    1.000
    C111     C        0.76900    0.05160    0.84170    1.000
    C112     C        0.78980    0.09720    0.87800    1.000
    H75      H        0.78430    0.15820    0.88370    1.000
    C113     C        0.81880    0.05110    0.90560    1.000
    H76      H        0.83370    0.08290    0.93000    1.000
    C114     C        0.73790    0.09600    0.80980    1.000
    C115     C        0.68870    0.08510    0.74970    1.000
    C116     C        0.70260    0.21700    0.78430    1.000
    C117     C        0.71260    0.46600    0.80570    1.000
    H77      H        0.72970    0.50620    0.82410    1.000
    C118     C        0.72030    0.37440    0.81100    1.000
    H78      H        0.74220    0.35380    0.83180    1.000
    C119     C        0.69560    0.31450    0.78550    1.000
    C120     C        0.66390    0.35280    0.75560    1.000
    H79      H        0.64560    0.31490    0.73730    1.000
    C121     C        0.65910    0.44370    0.75260    1.000
    H80      H        0.63760    0.46770    0.73220    1.000
    C122     C        0.64810    0.89990    0.67060    1.000
    H81      H        0.65300    0.83830    0.66580    1.000
    C123     C        0.67110    0.94410    0.70650    1.000
    H82      H        0.69050    0.91260    0.72680    1.000
    C124     C        0.66530    0.03250    0.71180    1.000
    C125     C        0.63710    0.07400    0.68310    1.000
    H83      H        0.63190    0.13590    0.68700    1.000
    C126     C        0.61530    0.02650    0.64780    1.000
    H84      H        0.59660    0.05740    0.62640    1.000
    N37      N        0.82740    0.96680    0.90080    1.000
    N38      N        0.71820    0.04410    0.77680    1.000
    N39      N        0.67930    0.17170    0.75220    1.000
    N40      N        0.73130    0.18280    0.81450    1.000
    N41      N        0.68420    0.50000    0.77790    1.000
    N42      N        0.61990    0.94040    0.64320    1.000
    C127     C        0.93030    0.03240    0.98940    1.000
    H85      H        0.91940    0.02550    0.01640    1.000
    C128     C        0.96340    0.09030    0.98920    1.000
    H86      H        0.97450    0.12090    0.01610    1.000
    C129     C        0.97800    0.10100    0.95260    1.000
    C130     C        0.96070    0.05560    0.91510    1.000
    H87      H        0.97120    0.06160    0.88780    1.000
    C131     C        0.92960    0.00330    0.91560    1.000
    H88      H        0.91780    0.97600    0.88800    1.000
    C132     C        0.01210    0.15910    0.95150    1.000
    C133     C        0.04540    0.28640    0.97220    1.000
    C134     C        0.06380    0.20000    0.91780    1.000
    C135     C        0.03280    0.47070    0.05330    1.000
    H89      H        0.01500    0.48650    0.07320    1.000
    C136     C        0.02590    0.39380    0.02790    1.000
    H90      H        0.00360    0.35770    0.03020    1.000
    C137     C        0.05080    0.37020    0.99970    1.000
    C138     C        0.08230    0.42340    0.99820    1.000
    H91      H        0.10120    0.40770    0.97960    1.000
    C139     C        0.08690    0.50130    0.02410    1.000
    H92      H        0.10850    0.53930    0.02130    1.000
    C140     C        0.14380    0.22010    0.85030    1.000
    H93      H        0.16570    0.25850    0.84910    1.000
    C141     C        0.12080    0.23760    0.88440    1.000
    H94      H        0.12770    0.28380    0.90620    1.000
    C142     C        0.08860    0.18560    0.88490    1.000
    C143     C        0.08570    0.11370    0.85220    1.000
    H95      H        0.06530    0.07120    0.85300    1.000
    C144     C        0.10770    0.10150    0.82240    1.000
    H96      H        0.10240    0.05300    0.80170    1.000
    N43      N        0.91470    0.98800    0.95220    1.000
    N44      N        0.01610    0.23140    0.97950    1.000
    N45      N        0.07070    0.27540    0.94140    1.000
    N46      N        0.03560    0.14300    0.92030    1.000
    N47      N        0.06390    0.52460    0.05120    1.000
    N48      N        0.13770    0.15510    0.81980    1.000
    Zn16     Zn       0.85855    0.91060    0.96370    1.000
    Zn17     Zn       0.67160    0.63670    0.76830    1.000
    Zn18     Zn       0.58051    0.87023    0.59563    1.000
    I46      I        0.83247    0.94010    0.03530    1.000
    I47      I        0.73406    0.73090    0.78890    1.000
    I48      I        0.62737    0.65091    0.69295    1.000
    I49      I        0.61955    0.76110    0.55211    1.000
    I50      I        0.52285    0.83642    0.63581    1.000
    I51      I        0.87660    0.75780    0.92830    1.000
    Zn19     Zn       0.87422    0.89900    0.93833    1.000
    Zn20     Zn       0.67810    0.63260    0.78050    1.000
    I52      I        0.84841    0.89320    0.01220    1.000
    I53      I        0.86260    0.76250    0.95360    1.000
    I54      I        0.73350    0.71880    0.80740    1.000
    I55      I        0.75240    0.70670    0.83170    1.000
    I56      I        0.64470    0.66800    0.70400    1.000
    I57      I        0.66860    0.69400    0.71510    1.000
    I58      I        0.61060    0.75890    0.56520    1.000
    I59      I        0.52590    0.83650    0.63690    1.000
    I60      I        0.89592    0.76244    0.89816    1.000
    C145     C        0.69310    0.57740    0.13520    1.000
    H97      H        0.68720    0.63840    0.14030    1.000
    C146     C        0.72190    0.53580    0.16400    1.000
    H98      H        0.73600    0.56840    0.18870    1.000
    C147     C        0.73100    0.44840    0.15830    1.000
    C148     C        0.71020    0.40280    0.12200    1.000
    H99      H        0.71570    0.34180    0.11630    1.000
    C149     C        0.68120    0.44890    0.09440    1.000
    H100     H        0.66630    0.41710    0.07000    1.000
    C150     C        0.76210    0.40400    0.19020    1.000
    C151     C        0.81130    0.41490    0.25030    1.000
    C152     C        0.79740    0.28300    0.21570    1.000
    C153     C        0.78740    0.03400    0.19430    1.000
    H101     H        0.77030    0.99380    0.17590    1.000
    C154     C        0.77970    0.12560    0.18900    1.000
    H102     H        0.75780    0.14620    0.16820    1.000
    C155     C        0.80440    0.18550    0.21450    1.000
    C156     C        0.83610    0.14720    0.24440    1.000
    H103     H        0.85440    0.18510    0.26270    1.000
    C157     C        0.84090    0.05630    0.24740    1.000
    H104     H        0.86240    0.03230    0.26780    1.000
    C158     C        0.85190    0.60010    0.32940    1.000
    H105     H        0.84700    0.66170    0.33420    1.000
    C159     C        0.82890    0.55590    0.29350    1.000
    H106     H        0.80950    0.58740    0.27320    1.000
    C160     C        0.83470    0.46750    0.28820    1.000
    C161     C        0.86290    0.42600    0.31690    1.000
    H107     H        0.86810    0.36410    0.31300    1.000
    C162     C        0.88470    0.47350    0.35220    1.000
    H108     H        0.90340    0.44260    0.37360    1.000
    N49      N        0.67260    0.53320    0.09920    1.000
    N50      N        0.78180    0.45590    0.22320    1.000
    N51      N        0.82070    0.32830    0.24780    1.000
    N52      N        0.76870    0.31720    0.18550    1.000
    N53      N        0.81580    0.00000    0.22210    1.000
    N54      N        0.88010    0.55960    0.35680    1.000
    C163     C        0.56970    0.46760    0.01060    1.000
    H109     H        0.58060    0.47450    0.98360    1.000
    C164     C        0.53660    0.40970    0.01080    1.000
    H110     H        0.52550    0.37910    0.98390    1.000
    C165     C        0.52200    0.39900    0.04740    1.000
    C166     C        0.53930    0.44440    0.08490    1.000
    H111     H        0.52880    0.43840    0.11220    1.000
    C167     C        0.57040    0.49670    0.08440    1.000
    H112     H        0.58220    0.52400    0.11200    1.000
    C168     C        0.48790    0.34090    0.04850    1.000
    C169     C        0.45460    0.21360    0.02780    1.000
    C170     C        0.43620    0.30000    0.08220    1.000
    C171     C        0.46720    0.02930    0.94670    1.000
    H113     H        0.48500    0.01350    0.92680    1.000
    C172     C        0.47410    0.10620    0.97210    1.000
    H114     H        0.49640    0.14230    0.96980    1.000
    C173     C        0.44920    0.12980    0.00030    1.000
    C174     C        0.41770    0.07660    0.00180    1.000
    H115     H        0.39880    0.09230    0.02040    1.000
    C175     C        0.41310    0.99870    0.97590    1.000
    H116     H        0.39150    0.96070    0.97870    1.000
    C176     C        0.35620    0.27990    0.14970    1.000
    H117     H        0.33430    0.24150    0.15090    1.000
    C177     C        0.37920    0.26240    0.11560    1.000
    H118     H        0.37230    0.21620    0.09380    1.000
    C178     C        0.41140    0.31440    0.11510    1.000
    C179     C        0.41430    0.38630    0.14780    1.000
    H119     H        0.43470    0.42880    0.14700    1.000
    C180     C        0.39230    0.39850    0.17760    1.000
    H120     H        0.39760    0.44700    0.19830    1.000
    N55      N        0.58530    0.51200    0.04780    1.000
    N56      N        0.48390    0.26860    0.02050    1.000
    N57      N        0.42930    0.22460    0.05860    1.000
    N58      N        0.46440    0.35700    0.07970    1.000
    N59      N        0.43610    0.97540    0.94880    1.000
    N60      N        0.36230    0.34490    0.18020    1.000
    Zn21     Zn       0.64145    0.58940    0.03630    1.000
    Zn22     Zn       0.82840    0.86330    0.23170    1.000
    Zn23     Zn       0.91949    0.62977    0.40437    1.000
    I61      I        0.66753    0.55990    0.96470    1.000
    I62      I        0.76594    0.76910    0.21110    1.000
    I63      I        0.87263    0.84909    0.30705    1.000
    I64      I        0.88045    0.73890    0.44789    1.000
    I65      I        0.97715    0.66358    0.36419    1.000
    I66      I        0.62340    0.74220    0.07170    1.000
    Zn24     Zn       0.62578    0.60100    0.06167    1.000
    Zn25     Zn       0.82190    0.86740    0.21950    1.000
    I67      I        0.65159    0.60680    0.98780    1.000
    I68      I        0.63740    0.73750    0.04640    1.000
    I69      I        0.76650    0.78120    0.19260    1.000
    I70      I        0.74760    0.79330    0.16830    1.000
    I71      I        0.85530    0.83200    0.29600    1.000
    I72      I        0.83140    0.80600    0.28490    1.000
    I73      I        0.88940    0.74110    0.43480    1.000
    I74      I        0.97410    0.66350    0.36310    1.000
    I75      I        0.60408    0.73756    0.10184    1.000
    C181     C        0.19310    0.07740    0.13520    1.000
    H121     H        0.18720    0.13840    0.14030    1.000
    C182     C        0.22190    0.03580    0.16400    1.000
    H122     H        0.23600    0.06840    0.18870    1.000
    C183     C        0.23100    0.94840    0.15830    1.000
    C184     C        0.21020    0.90280    0.12200    1.000
    H123     H        0.21570    0.84180    0.11630    1.000
    C185     C        0.18120    0.94890    0.09440    1.000
    H124     H        0.16630    0.91710    0.07000    1.000
    C186     C        0.26210    0.90400    0.19020    1.000
    C187     C        0.31130    0.91490    0.25030    1.000
    C188     C        0.29740    0.78300    0.21570    1.000
    C189     C        0.28740    0.53400    0.19430    1.000
    H125     H        0.27030    0.49380    0.17590    1.000
    C190     C        0.27970    0.62560    0.18900    1.000
    H126     H        0.25780    0.64620    0.16820    1.000
    C191     C        0.30440    0.68550    0.21450    1.000
    C192     C        0.33610    0.64720    0.24440    1.000
    H127     H        0.35440    0.68510    0.26270    1.000
    C193     C        0.34090    0.55630    0.24740    1.000
    H128     H        0.36240    0.53230    0.26780    1.000
    C194     C        0.35190    0.10010    0.32940    1.000
    H129     H        0.34700    0.16170    0.33420    1.000
    C195     C        0.32890    0.05590    0.29350    1.000
    H130     H        0.30950    0.08740    0.27320    1.000
    C196     C        0.33470    0.96750    0.28820    1.000
    C197     C        0.36290    0.92600    0.31690    1.000
    H131     H        0.36810    0.86410    0.31300    1.000
    C198     C        0.38470    0.97350    0.35220    1.000
    H132     H        0.40340    0.94260    0.37360    1.000
    N61      N        0.17260    0.03320    0.09920    1.000
    N62      N        0.28180    0.95590    0.22320    1.000
    N63      N        0.32070    0.82830    0.24780    1.000
    N64      N        0.26870    0.81720    0.18550    1.000
    N65      N        0.31580    0.50000    0.22210    1.000
    N66      N        0.38010    0.05960    0.35680    1.000
    C199     C        0.06970    0.96760    0.01060    1.000
    H133     H        0.08060    0.97450    0.98360    1.000
    C200     C        0.03660    0.90970    0.01080    1.000
    H134     H        0.02550    0.87910    0.98390    1.000
    C201     C        0.02200    0.89900    0.04740    1.000
    C202     C        0.03930    0.94440    0.08490    1.000
    H135     H        0.02880    0.93840    0.11220    1.000
    C203     C        0.07040    0.99670    0.08440    1.000
    H136     H        0.08220    0.02400    0.11200    1.000
    C204     C        0.98790    0.84090    0.04850    1.000
    C205     C        0.95460    0.71360    0.02780    1.000
    C206     C        0.93620    0.80000    0.08220    1.000
    C207     C        0.96720    0.52930    0.94670    1.000
    H137     H        0.98500    0.51350    0.92680    1.000
    C208     C        0.97410    0.60620    0.97210    1.000
    H138     H        0.99640    0.64230    0.96980    1.000
    C209     C        0.94920    0.62980    0.00030    1.000
    C210     C        0.91770    0.57660    0.00180    1.000
    H139     H        0.89880    0.59230    0.02040    1.000
    C211     C        0.91310    0.49870    0.97590    1.000
    H140     H        0.89150    0.46070    0.97870    1.000
    C212     C        0.85620    0.77990    0.14970    1.000
    H141     H        0.83430    0.74150    0.15090    1.000
    C213     C        0.87920    0.76240    0.11560    1.000
    H142     H        0.87230    0.71620    0.09380    1.000
    C214     C        0.91140    0.81440    0.11510    1.000
    C215     C        0.91430    0.88630    0.14780    1.000
    H143     H        0.93470    0.92880    0.14700    1.000
    C216     C        0.89230    0.89850    0.17760    1.000
    H144     H        0.89760    0.94700    0.19830    1.000
    N67      N        0.08530    0.01200    0.04780    1.000
    N68      N        0.98390    0.76860    0.02050    1.000
    N69      N        0.92930    0.72460    0.05860    1.000
    N70      N        0.96440    0.85700    0.07970    1.000
    N71      N        0.93610    0.47540    0.94880    1.000
    N72      N        0.86230    0.84490    0.18020    1.000
    Zn26     Zn       0.14145    0.08940    0.03630    1.000
    Zn27     Zn       0.32840    0.36330    0.23170    1.000
    Zn28     Zn       0.41949    0.12977    0.40437    1.000
    I76      I        0.16753    0.05990    0.96470    1.000
    I77      I        0.26594    0.26910    0.21110    1.000
    I78      I        0.37263    0.34909    0.30705    1.000
    I79      I        0.38045    0.23890    0.44789    1.000
    I80      I        0.47715    0.16358    0.36419    1.000
    I81      I        0.12340    0.24220    0.07170    1.000
    Zn29     Zn       0.12578    0.10100    0.06167    1.000
    Zn30     Zn       0.32190    0.36740    0.21950    1.000
    I82      I        0.15159    0.10680    0.98780    1.000
    I83      I        0.13740    0.23750    0.04640    1.000
    I84      I        0.26650    0.28120    0.19260    1.000
    I85      I        0.24760    0.29330    0.16830    1.000
    I86      I        0.35530    0.33200    0.29600    1.000
    I87      I        0.33140    0.30600    0.28490    1.000
    I88      I        0.38940    0.24110    0.43480    1.000
    I89      I        0.47410    0.16350    0.36310    1.000
    I90      I        0.10408    0.23756    0.10184    1.000
    C217     C        0.69310    0.42260    0.63520    1.000
    H145     H        0.68720    0.36160    0.64030    1.000
    C218     C        0.72190    0.46420    0.66400    1.000
    H146     H        0.73600    0.43160    0.68870    1.000
    C219     C        0.73100    0.55160    0.65830    1.000
    C220     C        0.71020    0.59720    0.62200    1.000
    H147     H        0.71570    0.65820    0.61630    1.000
    C221     C        0.68120    0.55110    0.59440    1.000
    H148     H        0.66630    0.58290    0.57000    1.000
    C222     C        0.76210    0.59600    0.69020    1.000
    C223     C        0.81130    0.58510    0.75030    1.000
    C224     C        0.79740    0.71700    0.71570    1.000
    C225     C        0.78740    0.96600    0.69430    1.000
    H149     H        0.77030    0.00620    0.67590    1.000
    C226     C        0.77970    0.87440    0.68900    1.000
    H150     H        0.75780    0.85380    0.66820    1.000
    C227     C        0.80440    0.81450    0.71450    1.000
    C228     C        0.83610    0.85280    0.74440    1.000
    H151     H        0.85440    0.81490    0.76270    1.000
    C229     C        0.84090    0.94370    0.74740    1.000
    H152     H        0.86240    0.96770    0.76780    1.000
    C230     C        0.85190    0.39990    0.82940    1.000
    H153     H        0.84700    0.33830    0.83420    1.000
    C231     C        0.82890    0.44410    0.79350    1.000
    H154     H        0.80950    0.41260    0.77320    1.000
    C232     C        0.83470    0.53250    0.78820    1.000
    C233     C        0.86290    0.57400    0.81690    1.000
    H155     H        0.86810    0.63590    0.81300    1.000
    C234     C        0.88470    0.52650    0.85220    1.000
    H156     H        0.90340    0.55740    0.87360    1.000
    N73      N        0.67260    0.46680    0.59920    1.000
    N74      N        0.78180    0.54410    0.72320    1.000
    N75      N        0.82070    0.67170    0.74780    1.000
    N76      N        0.76870    0.68280    0.68550    1.000
    N77      N        0.81580    0.00000    0.72210    1.000
    N78      N        0.88010    0.44040    0.85680    1.000
    C235     C        0.56970    0.53240    0.51060    1.000
    H157     H        0.58060    0.52550    0.48360    1.000
    C236     C        0.53660    0.59030    0.51080    1.000
    H158     H        0.52550    0.62090    0.48390    1.000
    C237     C        0.52200    0.60100    0.54740    1.000
    C238     C        0.53930    0.55560    0.58490    1.000
    H159     H        0.52880    0.56160    0.61220    1.000
    C239     C        0.57040    0.50330    0.58440    1.000
    H160     H        0.58220    0.47600    0.61200    1.000
    C240     C        0.48790    0.65910    0.54850    1.000
    C241     C        0.45460    0.78640    0.52780    1.000
    C242     C        0.43620    0.70000    0.58220    1.000
    C243     C        0.46720    0.97070    0.44670    1.000
    H161     H        0.48500    0.98650    0.42680    1.000
    C244     C        0.47410    0.89380    0.47210    1.000
    H162     H        0.49640    0.85770    0.46980    1.000
    C245     C        0.44920    0.87020    0.50030    1.000
    C246     C        0.41770    0.92340    0.50180    1.000
    H163     H        0.39880    0.90770    0.52040    1.000
    C247     C        0.41310    0.00130    0.47590    1.000
    H164     H        0.39150    0.03930    0.47870    1.000
    C248     C        0.35620    0.72010    0.64970    1.000
    H165     H        0.33430    0.75850    0.65090    1.000
    C249     C        0.37920    0.73760    0.61560    1.000
    H166     H        0.37230    0.78380    0.59380    1.000
    C250     C        0.41140    0.68560    0.61510    1.000
    C251     C        0.41430    0.61370    0.64780    1.000
    H167     H        0.43470    0.57120    0.64700    1.000
    C252     C        0.39230    0.60150    0.67760    1.000
    H168     H        0.39760    0.55300    0.69830    1.000
    N79      N        0.58530    0.48800    0.54780    1.000
    N80      N        0.48390    0.73140    0.52050    1.000
    N81      N        0.42930    0.77540    0.55860    1.000
    N82      N        0.46440    0.64300    0.57970    1.000
    N83      N        0.43610    0.02460    0.44880    1.000
    N84      N        0.36230    0.65510    0.68020    1.000
    Zn31     Zn       0.64145    0.41060    0.53630    1.000
    Zn32     Zn       0.82840    0.13670    0.73170    1.000
    Zn33     Zn       0.91949    0.37023    0.90437    1.000
    I91      I        0.66753    0.44010    0.46470    1.000
    I92      I        0.76594    0.23090    0.71110    1.000
    I93      I        0.87263    0.15091    0.80705    1.000
    I94      I        0.88045    0.26110    0.94789    1.000
    I95      I        0.97715    0.33642    0.86419    1.000
    I96      I        0.62340    0.25780    0.57170    1.000
    Zn34     Zn       0.62578    0.39900    0.56167    1.000
    Zn35     Zn       0.82190    0.13260    0.71950    1.000
    I97      I        0.65159    0.39320    0.48780    1.000
    I98      I        0.63740    0.26250    0.54640    1.000
    I99      I        0.76650    0.21880    0.69260    1.000
    I100     I        0.74760    0.20670    0.66830    1.000
    I101     I        0.85530    0.16800    0.79600    1.000
    I102     I        0.83140    0.19400    0.78490    1.000
    I103     I        0.88940    0.25890    0.93480    1.000
    I104     I        0.97410    0.33650    0.86310    1.000
    I105     I        0.60408    0.26244    0.60184    1.000
    C253     C        0.19310    0.92260    0.63520    1.000
    H169     H        0.18720    0.86160    0.64030    1.000
    C254     C        0.22190    0.96420    0.66400    1.000
    H170     H        0.23600    0.93160    0.68870    1.000
    C255     C        0.23100    0.05160    0.65830    1.000
    C256     C        0.21020    0.09720    0.62200    1.000
    H171     H        0.21570    0.15820    0.61630    1.000
    C257     C        0.18120    0.05110    0.59440    1.000
    H172     H        0.16630    0.08290    0.57000    1.000
    C258     C        0.26210    0.09600    0.69020    1.000
    C259     C        0.31130    0.08510    0.75030    1.000
    C260     C        0.29740    0.21700    0.71570    1.000
    C261     C        0.28740    0.46600    0.69430    1.000
    H173     H        0.27030    0.50620    0.67590    1.000
    C262     C        0.27970    0.37440    0.68900    1.000
    H174     H        0.25780    0.35380    0.66820    1.000
    C263     C        0.30440    0.31450    0.71450    1.000
    C264     C        0.33610    0.35280    0.74440    1.000
    H175     H        0.35440    0.31490    0.76270    1.000
    C265     C        0.34090    0.44370    0.74740    1.000
    H176     H        0.36240    0.46770    0.76780    1.000
    C266     C        0.35190    0.89990    0.82940    1.000
    H177     H        0.34700    0.83830    0.83420    1.000
    C267     C        0.32890    0.94410    0.79350    1.000
    H178     H        0.30950    0.91260    0.77320    1.000
    C268     C        0.33470    0.03250    0.78820    1.000
    C269     C        0.36290    0.07400    0.81690    1.000
    H179     H        0.36810    0.13590    0.81300    1.000
    C270     C        0.38470    0.02650    0.85220    1.000
    H180     H        0.40340    0.05740    0.87360    1.000
    N85      N        0.17260    0.96680    0.59920    1.000
    N86      N        0.28180    0.04410    0.72320    1.000
    N87      N        0.32070    0.17170    0.74780    1.000
    N88      N        0.26870    0.18280    0.68550    1.000
    N89      N        0.31580    0.50000    0.72210    1.000
    N90      N        0.38010    0.94040    0.85680    1.000
    C271     C        0.06970    0.03240    0.51060    1.000
    H181     H        0.08060    0.02550    0.48360    1.000
    C272     C        0.03660    0.09030    0.51080    1.000
    H182     H        0.02550    0.12090    0.48390    1.000
    C273     C        0.02200    0.10100    0.54740    1.000
    C274     C        0.03930    0.05560    0.58490    1.000
    H183     H        0.02880    0.06160    0.61220    1.000
    C275     C        0.07040    0.00330    0.58440    1.000
    H184     H        0.08220    0.97600    0.61200    1.000
    C276     C        0.98790    0.15910    0.54850    1.000
    C277     C        0.95460    0.28640    0.52780    1.000
    C278     C        0.93620    0.20000    0.58220    1.000
    C279     C        0.96720    0.47070    0.44670    1.000
    H185     H        0.98500    0.48650    0.42680    1.000
    C280     C        0.97410    0.39380    0.47210    1.000
    H186     H        0.99640    0.35770    0.46980    1.000
    C281     C        0.94920    0.37020    0.50030    1.000
    C282     C        0.91770    0.42340    0.50180    1.000
    H187     H        0.89880    0.40770    0.52040    1.000
    C283     C        0.91310    0.50130    0.47590    1.000
    H188     H        0.89150    0.53930    0.47870    1.000
    C284     C        0.85620    0.22010    0.64970    1.000
    H189     H        0.83430    0.25850    0.65090    1.000
    C285     C        0.87920    0.23760    0.61560    1.000
    H190     H        0.87230    0.28380    0.59380    1.000
    C286     C        0.91140    0.18560    0.61510    1.000
    C287     C        0.91430    0.11370    0.64780    1.000
    H191     H        0.93470    0.07120    0.64700    1.000
    C288     C        0.89230    0.10150    0.67760    1.000
    H192     H        0.89760    0.05300    0.69830    1.000
    N91      N        0.08530    0.98800    0.54780    1.000
    N92      N        0.98390    0.23140    0.52050    1.000
    N93      N        0.92930    0.27540    0.55860    1.000
    N94      N        0.96440    0.14300    0.57970    1.000
    N95      N        0.93610    0.52460    0.44880    1.000
    N96      N        0.86230    0.15510    0.68020    1.000
    Zn36     Zn       0.14145    0.91060    0.53630    1.000
    Zn37     Zn       0.32840    0.63670    0.73170    1.000
    Zn38     Zn       0.41949    0.87023    0.90437    1.000
    I106     I        0.16753    0.94010    0.46470    1.000
    I107     I        0.26594    0.73090    0.71110    1.000
    I108     I        0.37263    0.65091    0.80705    1.000
    I109     I        0.38045    0.76110    0.94789    1.000
    I110     I        0.47715    0.83642    0.86419    1.000
    I111     I        0.12340    0.75780    0.57170    1.000
    Zn39     Zn       0.12578    0.89900    0.56167    1.000
    Zn40     Zn       0.32190    0.63260    0.71950    1.000
    I112     I        0.15159    0.89320    0.48780    1.000
    I113     I        0.13740    0.76250    0.54640    1.000
    I114     I        0.26650    0.71880    0.69260    1.000
    I115     I        0.24760    0.70670    0.66830    1.000
    I116     I        0.35530    0.66800    0.79600    1.000
    I117     I        0.33140    0.69400    0.78490    1.000
    I118     I        0.38940    0.75890    0.93480    1.000
    I119     I        0.47410    0.83650    0.86310    1.000
    I120     I        0.10408    0.76244    0.60184    1.000
