data_functionalizedCrystal
_audit_creation_method	'EQeq! by Chris Wilmer'
_symmetry_space_group_name_H-M	'P1'
_symmetry_Int_Tables_number	1
_symmetry_cell_setting	triclinic
loop_
_symmetry_equiv_pos_as_xyz
  x,y,z
_cell_length_a	16.2107
_cell_length_b	14.9781
_cell_length_c	7.9573
_cell_angle_alpha	90
_cell_angle_beta	92.069
_cell_angle_gamma	90
loop_
_atom_site_label
_atom_site_type_symbol
_atom_site_fract_x
_atom_site_fract_y
_atom_site_fract_z
_atom_site_charge
Mof_Ag	Ag	0.02724	0.26053	0.39942	0.441
Mof_Tb	Tb	0.54616	0.38364	0.95109	2.232
Mof_C 	C 	0.8676	0.3286	0.5406	0
Mof_H 	H 	0.8941	0.3827	0.5232	-0.012
Mof_C 	C 	0.78985	0.3292	0.6066	-0.015
Mof_H 	H 	0.765	0.3829	0.6346	0.024
Mof_C 	C 	0.74937	0.24911	0.6306	-0.149
Mof_C 	C 	0.78861	0.1711	0.5886	0.004
Mof_H 	H 	0.7629	0.1163	0.603	0.002
Mof_C 	C 	0.86702	0.1752	0.5245	-0.005
Mof_H 	H 	0.8934	0.1223	0.497	-0.005
Mof_C 	C 	0.66426	0.24908	0.7001	0.493
Mof_C 	C 	0.2114	0.2529	0.2939	0.001
Mof_H 	H 	0.2089	0.193	0.3244	-0.002
Mof_C 	C 	0.28536	0.2873	0.2422	-0.019
Mof_H 	H 	0.3317	0.2509	0.2378	0.026
Mof_C 	C 	0.28995	0.3757	0.1974	-0.135
Mof_C 	C 	0.21958	0.427	0.2041	-0.034
Mof_H 	H 	0.2207	0.487	0.1743	0.033
Mof_C 	C 	0.1474	0.3885	0.2554	-0
Mof_H 	H 	0.1	0.4235	0.2581	-0.015
Mof_C 	C 	0.36818	0.4185	0.141	0.484
Mof_C 	C 	0.4297	0.45765	0.7123	0.79
Mof_C 	C 	0.3635	0.493	0.5949	-1.299
Mof_H 	H 	0.3202	0.4495	0.5819	0.405
Mof_H 	H 	0.3415	0.5471	0.6399	0.413
Mof_H 	H 	0.3862	0.5049	0.4874	0.409
Mof_N 	N 	0.90607	0.25295	0.501	-0.186
Mof_N 	N 	0.14304	0.3031	0.3014	-0.191
Mof_O 	O 	0.64283	0.31548	0.7817	-0.571
Mof_O 	O 	0.61935	0.18103	0.672	-0.599
Mof_O 	O 	0.42524	0.36614	0.098	-0.567
Mof_O 	O 	0.37085	0.50152	0.1419	-0.565
Mof_O 	O 	0.45016	0.50164	0.8425	-0.762
Mof_O 	O 	0.46498	0.38449	0.6869	-0.628
Mof_Ag	Ag	0.97276	0.76053	0.10058	0.438
Mof_Tb	Tb	0.45384	0.88364	0.54891	2.236
Mof_C 	C 	0.1324	0.8286	0.9594	0.002
Mof_H 	H 	0.1059	0.8827	0.9768	-0.01
Mof_C 	C 	0.21015	0.8292	0.8934	-0.014
Mof_H 	H 	0.235	0.8829	0.8654	0.026
Mof_C 	C 	0.25063	0.74911	0.8694	-0.148
Mof_C 	C 	0.21139	0.6711	0.9114	0.002
Mof_H 	H 	0.2371	0.6163	0.897	0.003
Mof_C 	C 	0.13298	0.6752	0.9755	-0.001
Mof_H 	H 	0.1066	0.6223	0.003	-0.007
Mof_C 	C 	0.33574	0.74908	0.7999	0.493
Mof_C 	C 	0.7886	0.7529	0.2061	0.001
Mof_H 	H 	0.7911	0.693	0.1756	-0.002
Mof_C 	C 	0.71464	0.7873	0.2578	-0.02
Mof_H 	H 	0.6683	0.7509	0.2622	0.025
Mof_C 	C 	0.71005	0.8757	0.3026	-0.135
Mof_C 	C 	0.78042	0.927	0.2959	-0.034
Mof_H 	H 	0.7793	0.987	0.3257	0.031
Mof_C 	C 	0.8526	0.8885	0.2446	-0.001
Mof_H 	H 	0.9	0.9235	0.2419	-0.016
Mof_C 	C 	0.63182	0.9185	0.359	0.482
Mof_C 	C 	0.5703	0.95765	0.7877	0.79
Mof_C 	C 	0.6365	0.993	0.9051	-1.294
Mof_H 	H 	0.6798	0.9495	0.9181	0.404
Mof_H 	H 	0.6585	0.0471	0.8601	0.409
Mof_H 	H 	0.6138	0.0049	0.0126	0.409
Mof_N 	N 	0.09393	0.75295	0.999	-0.186
Mof_N 	N 	0.85696	0.8031	0.1986	-0.191
Mof_O 	O 	0.35717	0.81548	0.7183	-0.571
Mof_O 	O 	0.38065	0.68103	0.828	-0.598
Mof_O 	O 	0.57476	0.86614	0.402	-0.568
Mof_O 	O 	0.62915	0.00152	0.3581	-0.564
Mof_O 	O 	0.54984	0.00164	0.6575	-0.764
Mof_O 	O 	0.53502	0.88449	0.8131	-0.628
Mof_Ag	Ag	0.97276	0.73947	0.60058	0.442
Mof_Tb	Tb	0.45384	0.61636	0.04891	2.233
Mof_C 	C 	0.1324	0.6714	0.4594	0.001
Mof_H 	H 	0.1059	0.6173	0.4768	-0.011
Mof_C 	C 	0.21015	0.6708	0.3934	-0.014
Mof_H 	H 	0.235	0.6171	0.3654	0.025
Mof_C 	C 	0.25063	0.75089	0.3694	-0.149
Mof_C 	C 	0.21139	0.8289	0.4114	0.004
Mof_H 	H 	0.2371	0.8837	0.397	0.002
Mof_C 	C 	0.13298	0.8248	0.4755	-0.005
Mof_H 	H 	0.1066	0.8777	0.503	-0.005
Mof_C 	C 	0.33574	0.75092	0.2999	0.493
Mof_C 	C 	0.7886	0.7471	0.7061	0.001
Mof_H 	H 	0.7911	0.807	0.6756	-0.002
Mof_C 	C 	0.71464	0.7127	0.7578	-0.019
Mof_H 	H 	0.6683	0.7491	0.7622	0.026
Mof_C 	C 	0.71005	0.6243	0.8026	-0.135
Mof_C 	C 	0.78042	0.573	0.7959	-0.034
Mof_H 	H 	0.7793	0.513	0.8257	0.033
Mof_C 	C 	0.8526	0.6115	0.7446	-0
Mof_H 	H 	0.9	0.5765	0.7419	-0.015
Mof_C 	C 	0.63182	0.5815	0.859	0.484
Mof_C 	C 	0.5703	0.54235	0.2877	0.79
Mof_C 	C 	0.6365	0.507	0.4051	-1.299
Mof_H 	H 	0.6798	0.5505	0.4181	0.405
Mof_H 	H 	0.6585	0.4529	0.3601	0.413
Mof_H 	H 	0.6138	0.4951	0.5126	0.409
Mof_N 	N 	0.09393	0.74705	0.499	-0.186
Mof_N 	N 	0.85696	0.6969	0.6986	-0.191
Mof_O 	O 	0.35717	0.68452	0.2183	-0.571
Mof_O 	O 	0.38065	0.81897	0.328	-0.599
Mof_O 	O 	0.57476	0.63386	0.902	-0.567
Mof_O 	O 	0.62915	0.49848	0.8581	-0.565
Mof_O 	O 	0.54984	0.49836	0.1575	-0.762
Mof_O 	O 	0.53502	0.61551	0.3131	-0.628
Mof_Ag	Ag	0.02724	0.23947	0.89942	0.438
Mof_Tb	Tb	0.54616	0.11636	0.45109	2.236
Mof_C 	C 	0.8676	0.1714	0.0406	0.002
Mof_H 	H 	0.8941	0.1173	0.0232	-0.01
Mof_C 	C 	0.78985	0.1708	0.1066	-0.014
Mof_H 	H 	0.765	0.1171	0.1346	0.026
Mof_C 	C 	0.74937	0.25089	0.1306	-0.148
Mof_C 	C 	0.78861	0.3289	0.0886	0.002
Mof_H 	H 	0.7629	0.3837	0.103	0.003
Mof_C 	C 	0.86702	0.3248	0.0245	-0.001
Mof_H 	H 	0.8934	0.3777	0.997	-0.007
Mof_C 	C 	0.66426	0.25092	0.2001	0.493
Mof_C 	C 	0.2114	0.2471	0.7939	0.001
Mof_H 	H 	0.2089	0.307	0.8244	-0.002
Mof_C 	C 	0.28536	0.2127	0.7422	-0.02
Mof_H 	H 	0.3317	0.2491	0.7378	0.025
Mof_C 	C 	0.28995	0.1243	0.6974	-0.135
Mof_C 	C 	0.21958	0.073	0.7041	-0.034
Mof_H 	H 	0.2207	0.013	0.6743	0.031
Mof_C 	C 	0.1474	0.1115	0.7554	-0.001
Mof_H 	H 	0.1	0.0765	0.7581	-0.016
Mof_C 	C 	0.36818	0.0815	0.641	0.482
Mof_C 	C 	0.4297	0.04235	0.2123	0.79
Mof_C 	C 	0.3635	0.007	0.0949	-1.294
Mof_H 	H 	0.3202	0.0505	0.0819	0.404
Mof_H 	H 	0.3415	0.9529	0.1399	0.409
Mof_H 	H 	0.3862	0.9951	0.9874	0.409
Mof_N 	N 	0.90607	0.24705	0.001	-0.186
Mof_N 	N 	0.14304	0.1969	0.8014	-0.191
Mof_O 	O 	0.64283	0.18452	0.2817	-0.571
Mof_O 	O 	0.61935	0.31897	0.172	-0.598
Mof_O 	O 	0.42524	0.13386	0.598	-0.568
Mof_O 	O 	0.37085	0.99848	0.6419	-0.564
Mof_O 	O 	0.45016	0.99836	0.3425	-0.764
Mof_O 	O 	0.46498	0.11551	0.1869	-0.628
_end
