# CIF file generated by openbabel 3.1.0, see https://openbabel.org
data_I
_chemical_name_common 'image0'
_cell_length_a 11.9807
_cell_length_b 5.2345
_cell_length_c 21.796
_cell_angle_alpha 90
_cell_angle_beta 99.274
_cell_angle_gamma 90
_space_group_name_H-M_alt 'P 1'
_space_group_name_Hall 'P 1'
loop_
    _symmetry_equiv_pos_as_xyz
    x,y,z
loop_
    _atom_site_label
    _atom_site_type_symbol
    _atom_site_fract_x
    _atom_site_fract_y
    _atom_site_fract_z
    _atom_site_occupancy
    Na1      Na       0.58930    0.69400    0.02910    1.000
    Na2      Na       0.32290    0.72300    0.06850    1.000
    Na3      Na       0.11040    0.17000    0.96800    1.000
    Na4      Na       0.15760    0.77600    0.18970    1.000
    O1       O        0.48750    0.99000    0.07220    1.000
    O2       O        0.26050    0.89700    0.96810    1.000
    O3       O        0.25460    0.47500    0.96600    1.000
    O4       O        0.46780    0.42000    0.07700    1.000
    O5       O        0.21050    0.47900    0.12540    1.000
    N1       N        0.37400    0.31600    0.25310    1.000
    H1       H        0.38550    0.16610    0.27150    1.000
    O6       O        0.33400    0.73000    0.26540    1.000
    O7       O        0.25330    0.04300    0.13150    1.000
    N2       N        0.23480    0.49300    0.77090    1.000
    H2       H        0.23190    0.64600    0.75410    1.000
    O8       O        0.02030    0.30800    0.05180    1.000
    H3       H        0.07990    0.35370    0.08710    1.000
    H4       H        0.97810    0.16120    0.06530    1.000
    C1       C        0.31800    0.40200    0.54770    1.000
    C2       C        0.24900    0.70100    0.93930    1.000
    C3       C        0.39600    0.28200    0.39050    1.000
    H5       H        0.43950    0.16010    0.37240    1.000
    C4       C        0.32700    0.42000    0.48110    1.000
    C5       C        0.47840    0.20800    0.10070    1.000
    C6       C        0.28300    0.34500    0.67410    1.000
    C7       C        0.34800    0.51100    0.28560    1.000
    C8       C        0.47900    0.18400    0.17100    1.000
    H6       H        0.47090    0.00260    0.18220    1.000
    H7       H        0.55220    0.24740    0.19390    1.000
    C9       C        0.34400    0.46800    0.35370    1.000
    C10      C        0.22500    0.71900    0.86850    1.000
    H8       H        0.29020    0.80660    0.85450    1.000
    H9       H        0.15800    0.82860    0.85660    1.000
    C11      C        0.38500    0.33600    0.18820    1.000
    H10      H        0.40280    0.51900    0.18100    1.000
    C12      C        0.26600    0.29200    0.73740    1.000
    O9       O        0.30800    0.07400    0.76600    1.000
    C13      C        0.38900    0.25900    0.45160    1.000
    H11      H        0.42980    0.12450    0.47470    1.000
    O10      O        0.02500    0.36600    0.87760    1.000
    C14      C        0.27700    0.63500    0.38340    1.000
    H12      H        0.23530    0.76470    0.35940    1.000
    C15      C        0.27000    0.27500    0.14330    1.000
    C16      C        0.27000    0.61800    0.44500    1.000
    H13      H        0.22720    0.74010    0.46360    1.000
    C17      C        0.20600    0.46600    0.83360    1.000
    H14      H        0.24680    0.32170    0.85720    1.000
    O11      O        0.00500    0.44900    0.77520    1.000
    C18      C        0.27700    0.59600    0.58200    1.000
    H15      H        0.25850    0.75390    0.56130    1.000
    C19      C        0.32900    0.14900    0.64200    1.000
    H16      H        0.35220    0.99570    0.66320    1.000
    C20      C        0.26000    0.57800    0.64400    1.000
    H17      H        0.23310    0.72010    0.66420    1.000
    C21      C        0.34200    0.16900    0.57900    1.000
    H18      H        0.36770    0.02650    0.55800    1.000
    C22      C        0.07100    0.43300    0.82610    1.000
    C23      C        0.39200    0.25200    0.58900    1.000
    H19      H        0.45490    0.17120    0.57570    1.000
    C24      C        0.22800    0.52200    0.57000    1.000
    H20      H        0.18090    0.63680    0.54380    1.000
    C25      C        0.20600    0.47500    0.63000    1.000
    H21      H        0.13750    0.53360    0.64130    1.000
    C26      C        0.37200    0.22000    0.65000    1.000
    H22      H        0.42060    0.11470    0.67710    1.000
    O12      O        0.24600    0.08200    0.75500    1.000
    Na5      Na       0.41070    0.19400    0.97090    1.000
    Na6      Na       0.67710    0.22300    0.93150    1.000
    Na7      Na       0.88960    0.67000    0.03200    1.000
    Na8      Na       0.84240    0.27600    0.81030    1.000
    O13      O        0.51250    0.49000    0.92780    1.000
    O14      O        0.73950    0.39700    0.03190    1.000
    O15      O        0.74540    0.97500    0.03400    1.000
    O16      O        0.53220    0.92000    0.92300    1.000
    O17      O        0.78950    0.97900    0.87460    1.000
    N3       N        0.62600    0.81600    0.74690    1.000
    H23      H        0.61450    0.66610    0.72850    1.000
    O18      O        0.66600    0.23000    0.73460    1.000
    O19      O        0.74670    0.54300    0.86850    1.000
    N4       N        0.76520    0.99300    0.22910    1.000
    H24      H        0.76810    0.14600    0.24590    1.000
    O20      O        0.97970    0.80800    0.94820    1.000
    H25      H        0.92010    0.85370    0.91290    1.000
    H26      H        0.02190    0.66120    0.93470    1.000
    C27      C        0.68200    0.90200    0.45230    1.000
    C28      C        0.75100    0.20100    0.06070    1.000
    C29      C        0.60400    0.78200    0.60950    1.000
    H27      H        0.56050    0.66010    0.62760    1.000
    C30      C        0.67300    0.92000    0.51890    1.000
    C31      C        0.52160    0.70800    0.89930    1.000
    C32      C        0.71700    0.84500    0.32590    1.000
    C33      C        0.65200    0.01100    0.71440    1.000
    C34      C        0.52100    0.68400    0.82900    1.000
    H28      H        0.52910    0.50260    0.81780    1.000
    H29      H        0.44780    0.74740    0.80610    1.000
    C35      C        0.65600    0.96800    0.64630    1.000
    C36      C        0.77500    0.21900    0.13150    1.000
    H30      H        0.70980    0.30660    0.14550    1.000
    H31      H        0.84200    0.32860    0.14340    1.000
    C37      C        0.61500    0.83600    0.81180    1.000
    H32      H        0.59720    0.01900    0.81900    1.000
    C38      C        0.73400    0.79200    0.26260    1.000
    O21      O        0.69200    0.57400    0.23400    1.000
    C39      C        0.61100    0.75900    0.54840    1.000
    H33      H        0.57020    0.62450    0.52530    1.000
    O22      O        0.97500    0.86600    0.12240    1.000
    C40      C        0.72300    0.13500    0.61660    1.000
    H34      H        0.76470    0.26470    0.64060    1.000
    C41      C        0.73000    0.77500    0.85670    1.000
    C42      C        0.73000    0.11800    0.55500    1.000
    H35      H        0.77280    0.24010    0.53640    1.000
    C43      C        0.79400    0.96600    0.16640    1.000
    H36      H        0.75320    0.82170    0.14280    1.000
    O23      O        0.99500    0.94900    0.22480    1.000
    C44      C        0.72300    0.09600    0.41800    1.000
    H37      H        0.74150    0.25390    0.43870    1.000
    C45      C        0.67100    0.64900    0.35800    1.000
    H38      H        0.64780    0.49570    0.33680    1.000
    C46      C        0.74000    0.07800    0.35600    1.000
    H39      H        0.76690    0.22010    0.33580    1.000
    C47      C        0.65800    0.66900    0.42100    1.000
    H40      H        0.63230    0.52650    0.44200    1.000
    C48      C        0.92900    0.93300    0.17390    1.000
    C49      C        0.60800    0.75200    0.41100    1.000
    H41      H        0.54510    0.67120    0.42430    1.000
    C50      C        0.77200    0.02200    0.43000    1.000
    H42      H        0.81910    0.13680    0.45620    1.000
    C51      C        0.79400    0.97500    0.37000    1.000
    H43      H        0.86250    0.03360    0.35870    1.000
    C52      C        0.62800    0.72000    0.35000    1.000
    H44      H        0.57940    0.61470    0.32290    1.000
    O24      O        0.75400    0.58200    0.24500    1.000
