data_functionalizedCrystal
_audit_creation_method	'EQeq! by Chris Wilmer'
_symmetry_space_group_name_H-M	'P1'
_symmetry_Int_Tables_number	1
_symmetry_cell_setting	triclinic
loop_
_symmetry_equiv_pos_as_xyz
  x,y,z
_cell_length_a	10.212
_cell_length_b	21.288
_cell_length_c	7.905
_cell_angle_alpha	90
_cell_angle_beta	98.851
_cell_angle_gamma	90
loop_
_atom_site_label
_atom_site_type_symbol
_atom_site_fract_x
_atom_site_fract_y
_atom_site_fract_z
_atom_site_charge
Mof_Pr	Pr	0.01055	0.21505	0.00493	2.693
Mof_O 	O 	0.8709	0.2405	0.2485	-0.707
Mof_O 	O 	0.2464	0.3101	0.4703	-0.478
Mof_O 	O 	0.7755	0.1838	0.0338	-0.459
Mof_F 	F 	0.5894	0.1227	0.2416	-0.322
Mof_C 	C 	0.7691	0.2167	0.1617	0.554
Mof_O 	O 	0.1522	0.242	0.2829	-0.704
Mof_F 	F 	0.666	0.3388	0.1775	-0.368
Mof_C 	C 	0.2529	0.272	0.357	0.544
Mof_O 	O 	0.9898	0.1328	0.7911	-0.564
Mof_F 	F 	0.4319	0.3644	0.2725	-0.313
Mof_F 	F 	0.3563	0.1478	0.3378	-0.36
Mof_F 	F 	0.2302	0.059	0.6123	-0.338
Mof_C 	C 	0.6363	0.2301	0.2116	-0.256
Mof_C 	C 	0.552	0.1829	0.2503	0.314
Mof_C 	C 	0.0003	0.0602	0.5667	-0.279
Mof_C 	C 	0.3874	0.2566	0.306	-0.244
Mof_C 	C 	0.0007	0.1272	0.6364	0.66
Mof_C 	C 	0.431	0.1963	0.2948	0.29
Mof_C 	C 	0.5911	0.292	0.2216	0.302
Mof_O 	O 	0.0145	0.1698	0.5307	-0.592
Mof_C 	C 	0.1175	0.0296	0.5578	0.305
Mof_F 	F 	0.7693	0.0592	0.5155	-0.329
Mof_C 	C 	0.8831	0.0299	0.5084	0.324
Mof_C 	C 	0.4706	0.3036	0.2676	0.285
Mof_Pr	Pr	0.98945	0.71505	0.49507	2.757
Mof_O 	O 	0.1291	0.7405	0.2515	-0.707
Mof_O 	O 	0.7536	0.8101	0.0297	-0.465
Mof_O 	O 	0.2245	0.6838	0.4662	-0.464
Mof_F 	F 	0.4106	0.6227	0.2584	-0.321
Mof_C 	C 	0.2309	0.7167	0.3383	0.552
Mof_O 	O 	0.8478	0.742	0.2171	-0.699
Mof_F 	F 	0.334	0.8388	0.3225	-0.367
Mof_C 	C 	0.7471	0.772	0.143	0.545
Mof_O 	O 	0.0102	0.6328	0.7089	-0.564
Mof_F 	F 	0.5681	0.8644	0.2275	-0.312
Mof_F 	F 	0.6437	0.6478	0.1622	-0.356
Mof_F 	F 	0.7698	0.559	0.8877	-0.339
Mof_C 	C 	0.3637	0.7301	0.2884	-0.254
Mof_C 	C 	0.448	0.6829	0.2497	0.315
Mof_C 	C 	0.9997	0.5602	0.9333	-0.284
Mof_C 	C 	0.6126	0.7566	0.194	-0.242
Mof_C 	C 	0.9993	0.6272	0.8636	0.653
Mof_C 	C 	0.569	0.6963	0.2052	0.292
Mof_C 	C 	0.4089	0.792	0.2784	0.303
Mof_O 	O 	0.9855	0.6698	0.9693	-0.592
Mof_C 	C 	0.8825	0.5296	0.9422	0.303
Mof_F 	F 	0.2307	0.5592	0.9845	-0.33
Mof_C 	C 	0.1169	0.5299	0.9916	0.33
Mof_C 	C 	0.5294	0.8036	0.2324	0.286
Mof_Pr	Pr	0.98945	0.78495	0.99507	2.694
Mof_O 	O 	0.1291	0.7595	0.7515	-0.706
Mof_O 	O 	0.7536	0.6899	0.5297	-0.477
Mof_O 	O 	0.2245	0.8162	0.9662	-0.458
Mof_F 	F 	0.4106	0.8773	0.7584	-0.322
Mof_C 	C 	0.2309	0.7833	0.8383	0.554
Mof_O 	O 	0.8478	0.758	0.7171	-0.704
Mof_F 	F 	0.334	0.6612	0.8225	-0.368
Mof_C 	C 	0.7471	0.728	0.643	0.544
Mof_O 	O 	0.0102	0.8672	0.2089	-0.564
Mof_F 	F 	0.5681	0.6356	0.7275	-0.313
Mof_F 	F 	0.6437	0.8522	0.6622	-0.36
Mof_F 	F 	0.7698	0.941	0.3877	-0.338
Mof_C 	C 	0.3637	0.7699	0.7884	-0.256
Mof_C 	C 	0.448	0.8171	0.7497	0.314
Mof_C 	C 	0.9997	0.9398	0.4333	-0.279
Mof_C 	C 	0.6126	0.7434	0.694	-0.244
Mof_C 	C 	0.9993	0.8728	0.3636	0.66
Mof_C 	C 	0.569	0.8037	0.7052	0.29
Mof_C 	C 	0.4089	0.708	0.7784	0.302
Mof_O 	O 	0.9855	0.8302	0.4693	-0.592
Mof_C 	C 	0.8825	0.9704	0.4422	0.305
Mof_F 	F 	0.2307	0.9408	0.4845	-0.329
Mof_C 	C 	0.1169	0.9701	0.4916	0.324
Mof_C 	C 	0.5294	0.6964	0.7324	0.285
Mof_Pr	Pr	0.01055	0.28495	0.50493	2.757
Mof_O 	O 	0.8709	0.2595	0.7485	-0.707
Mof_O 	O 	0.2464	0.1899	0.9703	-0.465
Mof_O 	O 	0.7755	0.3162	0.5338	-0.464
Mof_F 	F 	0.5894	0.3773	0.7416	-0.321
Mof_C 	C 	0.7691	0.2833	0.6617	0.552
Mof_O 	O 	0.1522	0.258	0.7829	-0.699
Mof_F 	F 	0.666	0.1612	0.6775	-0.367
Mof_C 	C 	0.2529	0.228	0.857	0.545
Mof_O 	O 	0.9898	0.3672	0.2911	-0.564
Mof_F 	F 	0.4319	0.1356	0.7725	-0.312
Mof_F 	F 	0.3563	0.3522	0.8378	-0.356
Mof_F 	F 	0.2302	0.441	0.1123	-0.339
Mof_C 	C 	0.6363	0.2699	0.7116	-0.254
Mof_C 	C 	0.552	0.3171	0.7503	0.315
Mof_C 	C 	0.0003	0.4398	0.0667	-0.284
Mof_C 	C 	0.3874	0.2434	0.806	-0.242
Mof_C 	C 	0.0007	0.3728	0.1364	0.653
Mof_C 	C 	0.431	0.3037	0.7948	0.292
Mof_C 	C 	0.5911	0.208	0.7216	0.303
Mof_O 	O 	0.0145	0.3302	0.0307	-0.592
Mof_C 	C 	0.1175	0.4704	0.0578	0.303
Mof_F 	F 	0.7693	0.4408	0.0155	-0.33
Mof_C 	C 	0.8831	0.4701	0.0084	0.33
Mof_C 	C 	0.4706	0.1964	0.7676	0.286
_end
