data_functionalizedCrystal
_audit_creation_method	'EQeq! by Chris Wilmer'
_symmetry_space_group_name_H-M	'P1'
_symmetry_Int_Tables_number	1
_symmetry_cell_setting	triclinic
loop_
_symmetry_equiv_pos_as_xyz
  x,y,z
_cell_length_a	18.555
_cell_length_b	18.555
_cell_length_c	38.688
_cell_angle_alpha	90
_cell_angle_beta	90
_cell_angle_gamma	120
loop_
_atom_site_label
_atom_site_type_symbol
_atom_site_fract_x
_atom_site_fract_y
_atom_site_fract_z
_atom_site_charge
Mof_O 	O 	0.48161	0.37136	0.99709	-0.406
Mof_O 	O 	0.44086	0.41067	0.04439	-0.408
Mof_C 	C 	0.4527	0.3607	0.02737	0.364
Mof_C 	C 	0.4312	0.2807	0.04421	-0.081
Mof_C 	C 	0.4006	0.2648	0.07796	-0.027
Mof_H 	H 	0.3903	0.303	0.0892	0.062
Mof_C 	C 	0.293	0.1897	0.1434	-0.001
Mof_C 	C 	0.3969	0.2439	0.1556	-0.002
Mof_O 	O 	0.14828	0.70469	0.33042	-0.406
Mof_O 	O 	0.10753	0.744	0.37772	-0.408
Mof_C 	C 	0.11937	0.69403	0.3607	0.364
Mof_C 	C 	0.09787	0.61403	0.37754	-0.081
Mof_C 	C 	0.06727	0.59813	0.41129	-0.027
Mof_H 	H 	0.05697	0.63633	0.42253	0.062
Mof_C 	C 	0.95967	0.52303	0.47673	-0.001
Mof_C 	C 	0.06357	0.57723	0.48893	-0.002
Mof_O 	O 	0.81494	0.03803	0.66376	-0.406
Mof_O 	O 	0.77419	0.07734	0.71106	-0.408
Mof_C 	C 	0.78603	0.02737	0.69404	0.364
Mof_C 	C 	0.76453	0.94737	0.71088	-0.081
Mof_C 	C 	0.73393	0.93147	0.74463	-0.027
Mof_H 	H 	0.72363	0.96967	0.75587	0.063
Mof_C 	C 	0.62633	0.85637	0.81007	-0.001
Mof_C 	C 	0.73023	0.91057	0.82227	-0.002
Mof_O 	O 	0.62864	0.11025	0.99709	-0.406
Mof_O 	O 	0.58933	0.03019	0.04439	-0.408
Mof_C 	C 	0.6393	0.092	0.02737	0.364
Mof_C 	C 	0.7193	0.1505	0.04421	-0.081
Mof_C 	C 	0.7352	0.1358	0.07796	-0.027
Mof_H 	H 	0.697	0.0873	0.0892	0.062
Mof_C 	C 	0.8103	0.1033	0.1434	-0.001
Mof_C 	C 	0.7561	0.153	0.1556	-0.002
Mof_O 	O 	0.29531	0.44358	0.33042	-0.406
Mof_O 	O 	0.256	0.36352	0.37772	-0.408
Mof_C 	C 	0.30597	0.42533	0.3607	0.364
Mof_C 	C 	0.38597	0.48383	0.37754	-0.081
Mof_C 	C 	0.40187	0.46913	0.41129	-0.027
Mof_H 	H 	0.36367	0.42063	0.42253	0.063
Mof_C 	C 	0.47697	0.43663	0.47673	-0.001
Mof_C 	C 	0.42277	0.48633	0.48893	-0.002
Mof_O 	O 	0.96197	0.77692	0.66376	-0.406
Mof_O 	O 	0.92266	0.69686	0.71106	-0.408
Mof_C 	C 	0.97263	0.75867	0.69404	0.364
Mof_C 	C 	0.05263	0.81717	0.71088	-0.081
Mof_C 	C 	0.06853	0.80247	0.74463	-0.027
Mof_H 	H 	0.03033	0.75397	0.75587	0.063
Mof_C 	C 	0.14363	0.76997	0.81007	-0.001
Mof_C 	C 	0.08943	0.81967	0.82227	-0.002
Mof_O 	O 	0.88975	0.51839	0.99709	-0.406
Mof_O 	O 	0.96981	0.55914	0.04439	-0.408
Mof_C 	C 	0.908	0.5473	0.02737	0.364
Mof_C 	C 	0.8495	0.5688	0.04421	-0.081
Mof_C 	C 	0.8642	0.5994	0.07796	-0.027
Mof_H 	H 	0.9127	0.6097	0.0892	0.062
Mof_C 	C 	0.8967	0.707	0.1434	-0.001
Mof_C 	C 	0.847	0.6031	0.1556	-0.002
Mof_O 	O 	0.55642	0.85172	0.33042	-0.406
Mof_O 	O 	0.63648	0.89247	0.37772	-0.408
Mof_C 	C 	0.57467	0.88063	0.3607	0.364
Mof_C 	C 	0.51617	0.90213	0.37754	-0.081
Mof_C 	C 	0.53087	0.93273	0.41129	-0.027
Mof_H 	H 	0.57937	0.94303	0.42253	0.062
Mof_C 	C 	0.56337	0.04033	0.47673	-0.001
Mof_C 	C 	0.51367	0.93643	0.48893	-0.002
Mof_O 	O 	0.22308	0.18506	0.66376	-0.406
Mof_O 	O 	0.30314	0.22581	0.71106	-0.408
Mof_C 	C 	0.24133	0.21397	0.69404	0.364
Mof_C 	C 	0.18283	0.23547	0.71088	-0.081
Mof_C 	C 	0.19753	0.26607	0.74463	-0.027
Mof_H 	H 	0.24603	0.27637	0.75587	0.063
Mof_C 	C 	0.23003	0.37367	0.81007	-0.001
Mof_C 	C 	0.18033	0.26977	0.82227	-0.002
Mof_O 	O 	0.37136	0.48161	0.00291	-0.406
Mof_O 	O 	0.41067	0.44086	0.95561	-0.408
Mof_C 	C 	0.3607	0.4527	0.97263	0.364
Mof_C 	C 	0.2807	0.4312	0.95579	-0.081
Mof_C 	C 	0.2648	0.4006	0.92204	-0.027
Mof_H 	H 	0.303	0.3903	0.9108	0.062
Mof_C 	C 	0.1897	0.293	0.8566	-0.001
Mof_C 	C 	0.2439	0.3969	0.8444	-0.002
Mof_O 	O 	0.03803	0.81494	0.33624	-0.406
Mof_O 	O 	0.07734	0.77419	0.28894	-0.408
Mof_C 	C 	0.02737	0.78603	0.30596	0.364
Mof_C 	C 	0.94737	0.76453	0.28912	-0.081
Mof_C 	C 	0.93147	0.73393	0.25537	-0.027
Mof_H 	H 	0.96967	0.72363	0.24413	0.063
Mof_C 	C 	0.85637	0.62633	0.18993	-0.001
Mof_C 	C 	0.91057	0.73023	0.17773	-0.002
Mof_O 	O 	0.70469	0.14828	0.66958	-0.406
Mof_O 	O 	0.744	0.10753	0.62228	-0.408
Mof_C 	C 	0.69403	0.11937	0.6393	0.364
Mof_C 	C 	0.61403	0.09787	0.62246	-0.081
Mof_C 	C 	0.59813	0.06727	0.58871	-0.027
Mof_H 	H 	0.63633	0.05697	0.57747	0.062
Mof_C 	C 	0.52303	0.95967	0.52327	-0.001
Mof_C 	C 	0.57723	0.06357	0.51107	-0.002
Mof_O 	O 	0.11025	0.62864	0.00291	-0.406
Mof_O 	O 	0.03019	0.58933	0.95561	-0.408
Mof_C 	C 	0.092	0.6393	0.97263	0.364
Mof_C 	C 	0.1505	0.7193	0.95579	-0.081
Mof_C 	C 	0.1358	0.7352	0.92204	-0.027
Mof_H 	H 	0.0873	0.697	0.9108	0.062
Mof_C 	C 	0.1033	0.8103	0.8566	-0.001
Mof_C 	C 	0.153	0.7561	0.8444	-0.002
Mof_O 	O 	0.77692	0.96197	0.33624	-0.406
Mof_O 	O 	0.69686	0.92266	0.28894	-0.408
Mof_C 	C 	0.75867	0.97263	0.30596	0.364
Mof_C 	C 	0.81717	0.05263	0.28912	-0.081
Mof_C 	C 	0.80247	0.06853	0.25537	-0.027
Mof_H 	H 	0.75397	0.03033	0.24413	0.063
Mof_C 	C 	0.76997	0.14363	0.18993	-0.001
Mof_C 	C 	0.81967	0.08943	0.17773	-0.002
Mof_O 	O 	0.44358	0.29531	0.66958	-0.406
Mof_O 	O 	0.36352	0.256	0.62228	-0.408
Mof_C 	C 	0.42533	0.30597	0.6393	0.364
Mof_C 	C 	0.48383	0.38597	0.62246	-0.081
Mof_C 	C 	0.46913	0.40187	0.58871	-0.027
Mof_H 	H 	0.42063	0.36367	0.57747	0.063
Mof_C 	C 	0.43663	0.47697	0.52327	-0.001
Mof_C 	C 	0.48633	0.42277	0.51107	-0.002
Mof_O 	O 	0.51839	0.88975	0.00291	-0.406
Mof_O 	O 	0.55914	0.96981	0.95561	-0.408
Mof_C 	C 	0.5473	0.908	0.97263	0.364
Mof_C 	C 	0.5688	0.8495	0.95579	-0.081
Mof_C 	C 	0.5994	0.8642	0.92204	-0.027
Mof_H 	H 	0.6097	0.9127	0.9108	0.062
Mof_C 	C 	0.707	0.8967	0.8566	-0.001
Mof_C 	C 	0.6031	0.847	0.8444	-0.002
Mof_O 	O 	0.18506	0.22308	0.33624	-0.406
Mof_O 	O 	0.22581	0.30314	0.28894	-0.408
Mof_C 	C 	0.21397	0.24133	0.30596	0.364
Mof_C 	C 	0.23547	0.18283	0.28912	-0.081
Mof_C 	C 	0.26607	0.19753	0.25537	-0.027
Mof_H 	H 	0.27637	0.24603	0.24413	0.063
Mof_C 	C 	0.37367	0.23003	0.18993	-0.001
Mof_C 	C 	0.26977	0.18033	0.17773	-0.002
Mof_O 	O 	0.85172	0.55642	0.66958	-0.406
Mof_O 	O 	0.89247	0.63648	0.62228	-0.408
Mof_C 	C 	0.88063	0.57467	0.6393	0.364
Mof_C 	C 	0.90213	0.51617	0.62246	-0.081
Mof_C 	C 	0.93273	0.53087	0.58871	-0.027
Mof_H 	H 	0.94303	0.57937	0.57747	0.062
Mof_C 	C 	0.04033	0.56337	0.52327	-0.001
Mof_C 	C 	0.93643	0.51367	0.51107	-0.002
Mof_O 	O 	0.51839	0.62864	0.00291	-0.406
Mof_O 	O 	0.55914	0.58933	0.95561	-0.408
Mof_C 	C 	0.5473	0.6393	0.97263	0.364
Mof_C 	C 	0.5688	0.7193	0.95579	-0.081
Mof_C 	C 	0.5994	0.7352	0.92204	-0.027
Mof_H 	H 	0.6097	0.697	0.9108	0.062
Mof_C 	C 	0.707	0.8103	0.8566	-0.001
Mof_C 	C 	0.6031	0.7561	0.8444	-0.002
Mof_O 	O 	0.18506	0.96197	0.33624	-0.406
Mof_O 	O 	0.22581	0.92266	0.28894	-0.408
Mof_C 	C 	0.21397	0.97263	0.30596	0.364
Mof_C 	C 	0.23547	0.05263	0.28912	-0.081
Mof_C 	C 	0.26607	0.06853	0.25537	-0.027
Mof_H 	H 	0.27637	0.03033	0.24413	0.063
Mof_C 	C 	0.37367	0.14363	0.18993	-0.001
Mof_C 	C 	0.26977	0.08943	0.17773	-0.002
Mof_O 	O 	0.85172	0.29531	0.66958	-0.406
Mof_O 	O 	0.89247	0.256	0.62228	-0.408
Mof_C 	C 	0.88063	0.30597	0.6393	0.364
Mof_C 	C 	0.90213	0.38597	0.62246	-0.081
Mof_C 	C 	0.93273	0.40187	0.58871	-0.027
Mof_H 	H 	0.94303	0.36367	0.57747	0.062
Mof_C 	C 	0.04033	0.47697	0.52327	-0.001
Mof_C 	C 	0.93643	0.42277	0.51107	-0.002
Mof_O 	O 	0.37136	0.88975	0.00291	-0.406
Mof_O 	O 	0.41067	0.96981	0.95561	-0.408
Mof_C 	C 	0.3607	0.908	0.97263	0.364
Mof_C 	C 	0.2807	0.8495	0.95579	-0.081
Mof_C 	C 	0.2648	0.8642	0.92204	-0.027
Mof_H 	H 	0.303	0.9127	0.9108	0.062
Mof_C 	C 	0.1897	0.8967	0.8566	-0.001
Mof_C 	C 	0.2439	0.847	0.8444	-0.002
Mof_O 	O 	0.03803	0.22308	0.33624	-0.406
Mof_O 	O 	0.07734	0.30314	0.28894	-0.408
Mof_C 	C 	0.02737	0.24133	0.30596	0.364
Mof_C 	C 	0.94737	0.18283	0.28912	-0.081
Mof_C 	C 	0.93147	0.19753	0.25537	-0.027
Mof_H 	H 	0.96967	0.24603	0.24413	0.063
Mof_C 	C 	0.85637	0.23003	0.18993	-0.001
Mof_C 	C 	0.91057	0.18033	0.17773	-0.002
Mof_O 	O 	0.70469	0.55642	0.66958	-0.406
Mof_O 	O 	0.744	0.63648	0.62228	-0.408
Mof_C 	C 	0.69403	0.57467	0.6393	0.364
Mof_C 	C 	0.61403	0.51617	0.62246	-0.081
Mof_C 	C 	0.59813	0.53087	0.58871	-0.027
Mof_H 	H 	0.63633	0.57937	0.57747	0.063
Mof_C 	C 	0.52303	0.56337	0.52327	-0.001
Mof_C 	C 	0.57723	0.51367	0.51107	-0.002
Mof_O 	O 	0.11025	0.48161	0.00291	-0.406
Mof_O 	O 	0.03019	0.44086	0.95561	-0.408
Mof_C 	C 	0.092	0.4527	0.97263	0.364
Mof_C 	C 	0.1505	0.4312	0.95579	-0.081
Mof_C 	C 	0.1358	0.4006	0.92204	-0.027
Mof_H 	H 	0.0873	0.3903	0.9108	0.062
Mof_C 	C 	0.1033	0.293	0.8566	-0.001
Mof_C 	C 	0.153	0.3969	0.8444	-0.002
Mof_O 	O 	0.77692	0.81494	0.33624	-0.406
Mof_O 	O 	0.69686	0.77419	0.28894	-0.408
Mof_C 	C 	0.75867	0.78603	0.30596	0.364
Mof_C 	C 	0.81717	0.76453	0.28912	-0.081
Mof_C 	C 	0.80247	0.73393	0.25537	-0.027
Mof_H 	H 	0.75397	0.72363	0.24413	0.063
Mof_C 	C 	0.76997	0.62633	0.18993	-0.001
Mof_C 	C 	0.81967	0.73023	0.17773	-0.002
Mof_O 	O 	0.44358	0.14828	0.66958	-0.406
Mof_O 	O 	0.36352	0.10753	0.62228	-0.408
Mof_C 	C 	0.42533	0.11937	0.6393	0.364
Mof_C 	C 	0.48383	0.09787	0.62246	-0.081
Mof_C 	C 	0.46913	0.06727	0.58871	-0.027
Mof_H 	H 	0.42063	0.05697	0.57747	0.062
Mof_C 	C 	0.43663	0.95967	0.52327	-0.001
Mof_C 	C 	0.48633	0.06357	0.51107	-0.002
Mof_O 	O 	0.62864	0.51839	0.99709	-0.406
Mof_O 	O 	0.58933	0.55914	0.04439	-0.408
Mof_C 	C 	0.6393	0.5473	0.02737	0.364
Mof_C 	C 	0.7193	0.5688	0.04421	-0.081
Mof_C 	C 	0.7352	0.5994	0.07796	-0.027
Mof_H 	H 	0.697	0.6097	0.0892	0.062
Mof_C 	C 	0.8103	0.707	0.1434	-0.001
Mof_C 	C 	0.7561	0.6031	0.1556	-0.002
Mof_O 	O 	0.29531	0.85172	0.33042	-0.406
Mof_O 	O 	0.256	0.89247	0.37772	-0.408
Mof_C 	C 	0.30597	0.88063	0.3607	0.364
Mof_C 	C 	0.38597	0.90213	0.37754	-0.081
Mof_C 	C 	0.40187	0.93273	0.41129	-0.027
Mof_H 	H 	0.36367	0.94303	0.42253	0.062
Mof_C 	C 	0.47697	0.04033	0.47673	-0.001
Mof_C 	C 	0.42277	0.93643	0.48893	-0.002
Mof_O 	O 	0.96197	0.18506	0.66376	-0.406
Mof_O 	O 	0.92266	0.22581	0.71106	-0.408
Mof_C 	C 	0.97263	0.21397	0.69404	0.364
Mof_C 	C 	0.05263	0.23547	0.71088	-0.081
Mof_C 	C 	0.06853	0.26607	0.74463	-0.027
Mof_H 	H 	0.03033	0.27637	0.75587	0.063
Mof_C 	C 	0.14363	0.37367	0.81007	-0.001
Mof_C 	C 	0.08943	0.26977	0.82227	-0.002
Mof_O 	O 	0.88975	0.37136	0.99709	-0.406
Mof_O 	O 	0.96981	0.41067	0.04439	-0.408
Mof_C 	C 	0.908	0.3607	0.02737	0.364
Mof_C 	C 	0.8495	0.2807	0.04421	-0.081
Mof_C 	C 	0.8642	0.2648	0.07796	-0.027
Mof_H 	H 	0.9127	0.303	0.0892	0.062
Mof_C 	C 	0.8967	0.1897	0.1434	-0.001
Mof_C 	C 	0.847	0.2439	0.1556	-0.002
Mof_O 	O 	0.55642	0.70469	0.33042	-0.406
Mof_O 	O 	0.63648	0.744	0.37772	-0.408
Mof_C 	C 	0.57467	0.69403	0.3607	0.364
Mof_C 	C 	0.51617	0.61403	0.37754	-0.081
Mof_C 	C 	0.53087	0.59813	0.41129	-0.027
Mof_H 	H 	0.57937	0.63633	0.42253	0.063
Mof_C 	C 	0.56337	0.52303	0.47673	-0.001
Mof_C 	C 	0.51367	0.57723	0.48893	-0.002
Mof_O 	O 	0.22308	0.03803	0.66376	-0.406
Mof_O 	O 	0.30314	0.07734	0.71106	-0.408
Mof_C 	C 	0.24133	0.02737	0.69404	0.364
Mof_C 	C 	0.18283	0.94737	0.71088	-0.081
Mof_C 	C 	0.19753	0.93147	0.74463	-0.027
Mof_H 	H 	0.24603	0.96967	0.75587	0.063
Mof_C 	C 	0.23003	0.85637	0.81007	-0.001
Mof_C 	C 	0.18033	0.91057	0.82227	-0.002
Mof_O 	O 	0.48161	0.11025	0.99709	-0.406
Mof_O 	O 	0.44086	0.03019	0.04439	-0.408
Mof_C 	C 	0.4527	0.092	0.02737	0.364
Mof_C 	C 	0.4312	0.1505	0.04421	-0.081
Mof_C 	C 	0.4006	0.1358	0.07796	-0.027
Mof_H 	H 	0.3903	0.0873	0.0892	0.062
Mof_C 	C 	0.293	0.1033	0.1434	-0.001
Mof_C 	C 	0.3969	0.153	0.1556	-0.002
Mof_O 	O 	0.14828	0.44358	0.33042	-0.406
Mof_O 	O 	0.10753	0.36352	0.37772	-0.408
Mof_C 	C 	0.11937	0.42533	0.3607	0.364
Mof_C 	C 	0.09787	0.48383	0.37754	-0.081
Mof_C 	C 	0.06727	0.46913	0.41129	-0.027
Mof_H 	H 	0.05697	0.42063	0.42253	0.062
Mof_C 	C 	0.95967	0.43663	0.47673	-0.001
Mof_C 	C 	0.06357	0.48633	0.48893	-0.002
Mof_O 	O 	0.81494	0.77692	0.66376	-0.406
Mof_O 	O 	0.77419	0.69686	0.71106	-0.408
Mof_C 	C 	0.78603	0.75867	0.69404	0.364
Mof_C 	C 	0.76453	0.81717	0.71088	-0.081
Mof_C 	C 	0.73393	0.80247	0.74463	-0.027
Mof_H 	H 	0.72363	0.75397	0.75587	0.063
Mof_C 	C 	0.62633	0.76997	0.81007	-0.001
Mof_C 	C 	0.73023	0.81967	0.82227	-0.002
Mof_Cu	Cu	0.52396	0.47604	0.97199	0.906
Mof_Cu	Cu	0.19063	0.80937	0.30533	0.906
Mof_Cu	Cu	0.85729	0.14271	0.63866	0.906
Mof_Cu	Cu	0.52396	0.04792	0.97199	0.906
Mof_Cu	Cu	0.19063	0.38125	0.30533	0.906
Mof_Cu	Cu	0.85729	0.71459	0.63866	0.906
Mof_Cu	Cu	0.95208	0.47604	0.97199	0.906
Mof_Cu	Cu	0.61875	0.80937	0.30533	0.906
Mof_Cu	Cu	0.28541	0.14271	0.63866	0.906
Mof_Cu	Cu	0.47604	0.52396	0.02801	0.906
Mof_Cu	Cu	0.14271	0.85729	0.36134	0.906
Mof_Cu	Cu	0.80937	0.19063	0.69467	0.906
Mof_Cu	Cu	0.04792	0.52396	0.02801	0.906
Mof_Cu	Cu	0.71459	0.85729	0.36134	0.906
Mof_Cu	Cu	0.38125	0.19063	0.69467	0.906
Mof_Cu	Cu	0.47604	0.95208	0.02801	0.906
Mof_Cu	Cu	0.14271	0.28541	0.36134	0.906
Mof_Cu	Cu	0.80937	0.61875	0.69467	0.906
Mof_C 	C 	0.3855	0.19275	0.0949	0.019
Mof_C 	C 	0.4446	0.2223	0.02785	0.028
Mof_H 	H 	0.4632	0.2316	0.0051	0.054
Mof_C 	C 	0.3568	0.1784	0.13205	-0.01
Mof_C 	C 	0.05217	0.52608	0.42823	0.019
Mof_C 	C 	0.11127	0.55563	0.36118	0.028
Mof_H 	H 	0.12987	0.56493	0.33843	0.054
Mof_C 	C 	0.02347	0.51173	0.46538	-0.01
Mof_C 	C 	0.71883	0.85942	0.76157	0.019
Mof_C 	C 	0.77793	0.88897	0.69452	0.028
Mof_H 	H 	0.79653	0.89827	0.67177	0.054
Mof_C 	C 	0.69013	0.84507	0.79872	-0.01
Mof_C 	C 	0.80725	0.19275	0.0949	0.019
Mof_C 	C 	0.7777	0.2223	0.02785	0.028
Mof_H 	H 	0.7684	0.2316	0.0051	0.054
Mof_C 	C 	0.8216	0.1784	0.13205	-0.01
Mof_C 	C 	0.47392	0.52608	0.42823	0.019
Mof_C 	C 	0.44437	0.55563	0.36118	0.028
Mof_H 	H 	0.43507	0.56493	0.33843	0.054
Mof_C 	C 	0.48827	0.51173	0.46538	-0.01
Mof_C 	C 	0.14058	0.85942	0.76157	0.02
Mof_C 	C 	0.11103	0.88897	0.69452	0.028
Mof_H 	H 	0.10173	0.89827	0.67177	0.054
Mof_C 	C 	0.15493	0.84507	0.79872	-0.01
Mof_C 	C 	0.80725	0.6145	0.0949	0.019
Mof_C 	C 	0.7777	0.5554	0.02785	0.028
Mof_H 	H 	0.7684	0.5368	0.0051	0.054
Mof_C 	C 	0.8216	0.6432	0.13205	-0.01
Mof_C 	C 	0.47392	0.94783	0.42823	0.019
Mof_C 	C 	0.44437	0.88873	0.36118	0.028
Mof_H 	H 	0.43507	0.87013	0.33843	0.054
Mof_C 	C 	0.48827	0.97653	0.46538	-0.01
Mof_C 	C 	0.14058	0.28117	0.76157	0.019
Mof_C 	C 	0.11103	0.22207	0.69452	0.028
Mof_H 	H 	0.10173	0.20347	0.67177	0.054
Mof_C 	C 	0.15493	0.30987	0.79872	-0.01
Mof_C 	C 	0.19275	0.3855	0.9051	0.019
Mof_C 	C 	0.2223	0.4446	0.97215	0.028
Mof_H 	H 	0.2316	0.4632	0.9949	0.054
Mof_C 	C 	0.1784	0.3568	0.86795	-0.01
Mof_C 	C 	0.85942	0.71883	0.23843	0.019
Mof_C 	C 	0.88897	0.77793	0.30548	0.028
Mof_H 	H 	0.89827	0.79653	0.32823	0.054
Mof_C 	C 	0.84507	0.69013	0.20128	-0.01
Mof_C 	C 	0.52608	0.05217	0.57177	0.019
Mof_C 	C 	0.55563	0.11127	0.63882	0.028
Mof_H 	H 	0.56493	0.12987	0.66157	0.054
Mof_C 	C 	0.51173	0.02347	0.53462	-0.01
Mof_C 	C 	0.19275	0.80725	0.9051	0.019
Mof_C 	C 	0.2223	0.7777	0.97215	0.028
Mof_H 	H 	0.2316	0.7684	0.9949	0.054
Mof_C 	C 	0.1784	0.8216	0.86795	-0.01
Mof_C 	C 	0.85942	0.14058	0.23843	0.02
Mof_C 	C 	0.88897	0.11103	0.30548	0.028
Mof_H 	H 	0.89827	0.10173	0.32823	0.054
Mof_C 	C 	0.84507	0.15493	0.20128	-0.01
Mof_C 	C 	0.52608	0.47392	0.57177	0.019
Mof_C 	C 	0.55563	0.44437	0.63882	0.028
Mof_H 	H 	0.56493	0.43507	0.66157	0.054
Mof_C 	C 	0.51173	0.48827	0.53462	-0.01
Mof_C 	C 	0.6145	0.80725	0.9051	0.019
Mof_C 	C 	0.5554	0.7777	0.97215	0.028
Mof_H 	H 	0.5368	0.7684	0.9949	0.054
Mof_C 	C 	0.6432	0.8216	0.86795	-0.01
Mof_C 	C 	0.28117	0.14058	0.23843	0.019
Mof_C 	C 	0.22207	0.11103	0.30548	0.028
Mof_H 	H 	0.20347	0.10173	0.32823	0.054
Mof_C 	C 	0.30987	0.15493	0.20128	-0.01
Mof_C 	C 	0.94783	0.47392	0.57177	0.019
Mof_C 	C 	0.88873	0.44437	0.63882	0.028
Mof_H 	H 	0.87013	0.43507	0.66157	0.054
Mof_C 	C 	0.97653	0.48827	0.53462	-0.01
_end
