# CIF file generated by openbabel 3.1.0, see https://openbabel.org
data_I
_chemical_name_common 'image0'
_cell_length_a 30.585
_cell_length_b 30.585
_cell_length_c 27.348
_cell_angle_alpha 90
_cell_angle_beta 90
_cell_angle_gamma 90
_space_group_name_H-M_alt 'P 1'
_space_group_name_Hall 'P 1'
loop_
    _symmetry_equiv_pos_as_xyz
    x,y,z
loop_
    _atom_site_label
    _atom_site_type_symbol
    _atom_site_fract_x
    _atom_site_fract_y
    _atom_site_fract_z
    _atom_site_occupancy
    Nb1      Nb       0.04054    0.99010    0.80646    1.000
    Nb2      Nb       0.04113    0.99012    0.69930    1.000
    Nb3      Nb       0.98069    0.93278    0.75251    1.000
    Nb4      Nb       0.94700    0.00916    0.80588    1.000
    Nb5      Nb       0.94739    0.00901    0.69870    1.000
    Nb6      Nb       0.00743    0.06633    0.75254    1.000
    Cl1      Cl       0.03291    0.91028    0.81600    1.000
    Cl2      Cl       0.99338    0.99952    0.87885    1.000
    Cl3      Cl       0.10461    0.97778    0.75344    1.000
    Cl4      Cl       0.06469    0.06662    0.81624    1.000
    Cl5      Cl       0.03377    0.91055    0.68975    1.000
    Cl6      Cl       0.99461    0.99954    0.62648    1.000
    Cl7      Cl       0.06551    0.06666    0.68976    1.000
    Cl8      Cl       0.92260    0.93247    0.81530    1.000
    Cl9      Cl       0.92334    0.93239    0.68924    1.000
    Cl10     Cl       0.88370    0.02140    0.75208    1.000
    Cl11     Cl       0.95429    0.08925    0.81519    1.000
    Cl12     Cl       0.95467    0.08897    0.68914    1.000
    N1       N        0.11562    0.96749    0.89528    1.000
    N2       N        0.11954    0.97074    0.61336    1.000
    N3       N        0.96749    0.82076    0.75120    1.000
    N4       N        0.87015    0.03100    0.89337    1.000
    N5       N        0.86942    0.02771    0.61216    1.000
    N6       N        0.02371    0.17753    0.75150    1.000
    N7       N        0.03939    0.77021    0.80087    1.000
    N8       N        0.03908    0.77111    0.69996    1.000
    C1       C        0.09109    0.97726    0.86575    1.000
    C2       C        0.09338    0.97819    0.64179    1.000
    C3       C        0.96911    0.85843    0.75203    1.000
    C4       C        0.89543    0.02188    0.86448    1.000
    C5       C        0.89562    0.01998    0.64060    1.000
    C6       C        0.02017    0.14027    0.75211    1.000
    C7       C        0.97690    0.24550    0.64990    1.000
    C8       C        0.91945    0.21912    0.70547    1.000
    C9       C        0.89410    0.20890    0.66018    1.000
    H1       H        0.91200    0.21560    0.63140    1.000
    H2       H        0.86740    0.22660    0.65950    1.000
    H3       H        0.88630    0.17780    0.66000    1.000
    C10      C        0.90078    0.21191    0.75113    1.000
    H4       H        0.87150    0.20170    0.75140    1.000
    C11      C        0.98270    0.23200    0.85130    1.000
    C12      C        0.92028    0.21804    0.79630    1.000
    C13      C        0.89550    0.20540    0.84174    1.000
    H5       H        0.86690    0.19340    0.83260    1.000
    H6       H        0.89140    0.23120    0.86240    1.000
    H7       H        0.91210    0.18320    0.85980    1.000
    C14      C        0.09376    0.81522    0.66003    1.000
    H8       H        0.08050    0.80200    0.63090    1.000
    H9       H        0.12470    0.80710    0.66170    1.000
    H10      H        0.09110    0.84710    0.65810    1.000
    C15      C        0.07055    0.79895    0.70505    1.000
    C16      C        0.08470    0.81366    0.75082    1.000
    H11      H        0.10580    0.83650    0.75100    1.000
    C17      C        0.00260    0.22570    0.10040    1.000
    C18      C        0.07105    0.79835    0.79574    1.000
    C19      C        0.09393    0.81311    0.84166    1.000
    H12      H        0.11700    0.83410    0.83320    1.000
    H13      H        0.10690    0.78780    0.85810    1.000
    H14      H        0.07280    0.82710    0.86360    1.000
    C20      C        0.02500    0.75200    0.65040    1.000
    O1       O        0.95864    0.23463    0.69978    1.000
    O2       O        0.95863    0.23431    0.80149    1.000
    O3       O        0.02021    0.21061    0.05087    1.000
    O4       O        0.02111    0.21092    0.94996    1.000
    Nb7      Nb       0.54054    0.49010    0.30646    1.000
    Nb8      Nb       0.54113    0.49012    0.19930    1.000
    Nb9      Nb       0.48069    0.43278    0.25251    1.000
    Nb10     Nb       0.44700    0.50916    0.30588    1.000
    Nb11     Nb       0.44739    0.50901    0.19870    1.000
    Nb12     Nb       0.50743    0.56633    0.25254    1.000
    Cl13     Cl       0.53291    0.41028    0.31600    1.000
    Cl14     Cl       0.49338    0.49952    0.37885    1.000
    Cl15     Cl       0.60461    0.47778    0.25344    1.000
    Cl16     Cl       0.56469    0.56662    0.31624    1.000
    Cl17     Cl       0.53377    0.41055    0.18975    1.000
    Cl18     Cl       0.49461    0.49954    0.12648    1.000
    Cl19     Cl       0.56551    0.56666    0.18976    1.000
    Cl20     Cl       0.42260    0.43247    0.31530    1.000
    Cl21     Cl       0.42334    0.43239    0.18924    1.000
    Cl22     Cl       0.38370    0.52140    0.25208    1.000
    Cl23     Cl       0.45429    0.58925    0.31519    1.000
    Cl24     Cl       0.45467    0.58897    0.18914    1.000
    N9       N        0.61562    0.46749    0.39528    1.000
    N10      N        0.61954    0.47074    0.11336    1.000
    N11      N        0.46749    0.32076    0.25120    1.000
    N12      N        0.37015    0.53100    0.39337    1.000
    N13      N        0.36942    0.52771    0.11216    1.000
    N14      N        0.52371    0.67753    0.25150    1.000
    N15      N        0.53939    0.27021    0.30087    1.000
    N16      N        0.53908    0.27111    0.19996    1.000
    C21      C        0.59109    0.47726    0.36575    1.000
    C22      C        0.59338    0.47819    0.14179    1.000
    C23      C        0.46911    0.35843    0.25203    1.000
    C24      C        0.39543    0.52188    0.36448    1.000
    C25      C        0.39562    0.51998    0.14060    1.000
    C26      C        0.52017    0.64027    0.25211    1.000
    C27      C        0.47690    0.74550    0.14990    1.000
    C28      C        0.41945    0.71912    0.20547    1.000
    C29      C        0.39410    0.70890    0.16018    1.000
    H15      H        0.41200    0.71560    0.13140    1.000
    H16      H        0.36740    0.72660    0.15950    1.000
    H17      H        0.38630    0.67780    0.16000    1.000
    C30      C        0.40078    0.71191    0.25113    1.000
    H18      H        0.37150    0.70170    0.25140    1.000
    C31      C        0.48270    0.73200    0.35130    1.000
    C32      C        0.42028    0.71804    0.29630    1.000
    C33      C        0.39550    0.70540    0.34174    1.000
    H19      H        0.36690    0.69340    0.33260    1.000
    H20      H        0.39140    0.73120    0.36240    1.000
    H21      H        0.41210    0.68320    0.35980    1.000
    C34      C        0.59376    0.31522    0.16003    1.000
    H22      H        0.58050    0.30200    0.13090    1.000
    H23      H        0.62470    0.30710    0.16170    1.000
    H24      H        0.59110    0.34710    0.15810    1.000
    C35      C        0.57055    0.29895    0.20505    1.000
    C36      C        0.58470    0.31366    0.25082    1.000
    H25      H        0.60580    0.33650    0.25100    1.000
    C37      C        0.50260    0.72570    0.60040    1.000
    C38      C        0.57105    0.29835    0.29574    1.000
    C39      C        0.59393    0.31311    0.34166    1.000
    H26      H        0.61700    0.33410    0.33320    1.000
    H27      H        0.60690    0.28780    0.35810    1.000
    H28      H        0.57280    0.32710    0.36360    1.000
    C40      C        0.52500    0.25200    0.15040    1.000
    O5       O        0.45864    0.73463    0.19978    1.000
    O6       O        0.45863    0.73431    0.30149    1.000
    O7       O        0.52021    0.71061    0.55087    1.000
    O8       O        0.52111    0.71092    0.44996    1.000
    Nb13     Nb       0.45946    0.00990    0.30646    1.000
    Nb14     Nb       0.45887    0.00988    0.19930    1.000
    Nb15     Nb       0.51931    0.06722    0.25251    1.000
    Nb16     Nb       0.55300    0.99084    0.30588    1.000
    Nb17     Nb       0.55261    0.99099    0.19870    1.000
    Nb18     Nb       0.49257    0.93367    0.25254    1.000
    Cl25     Cl       0.46709    0.08972    0.31600    1.000
    Cl26     Cl       0.50662    0.00048    0.37885    1.000
    Cl27     Cl       0.39539    0.02222    0.25344    1.000
    Cl28     Cl       0.43531    0.93338    0.31624    1.000
    Cl29     Cl       0.46623    0.08945    0.18975    1.000
    Cl30     Cl       0.50539    0.00046    0.12648    1.000
    Cl31     Cl       0.43449    0.93334    0.18976    1.000
    Cl32     Cl       0.57740    0.06753    0.31530    1.000
    Cl33     Cl       0.57666    0.06761    0.18924    1.000
    Cl34     Cl       0.61630    0.97860    0.25208    1.000
    Cl35     Cl       0.54571    0.91075    0.31519    1.000
    Cl36     Cl       0.54533    0.91103    0.18914    1.000
    N17      N        0.38438    0.03251    0.39528    1.000
    N18      N        0.38046    0.02926    0.11336    1.000
    N19      N        0.53251    0.17924    0.25120    1.000
    N20      N        0.62985    0.96900    0.39337    1.000
    N21      N        0.63058    0.97229    0.11216    1.000
    N22      N        0.47629    0.82247    0.25150    1.000
    N23      N        0.46061    0.22979    0.30087    1.000
    N24      N        0.46092    0.22889    0.19996    1.000
    C41      C        0.40891    0.02274    0.36575    1.000
    C42      C        0.40662    0.02181    0.14179    1.000
    C43      C        0.53089    0.14157    0.25203    1.000
    C44      C        0.60457    0.97812    0.36448    1.000
    C45      C        0.60438    0.98002    0.14060    1.000
    C46      C        0.47983    0.85973    0.25211    1.000
    C47      C        0.52310    0.75450    0.14990    1.000
    C48      C        0.58055    0.78088    0.20547    1.000
    C49      C        0.60590    0.79110    0.16018    1.000
    H29      H        0.58800    0.78440    0.13140    1.000
    H30      H        0.63260    0.77340    0.15950    1.000
    H31      H        0.61370    0.82220    0.16000    1.000
    C50      C        0.59922    0.78809    0.25113    1.000
    H32      H        0.62850    0.79830    0.25140    1.000
    C51      C        0.51730    0.76800    0.35130    1.000
    C52      C        0.57972    0.78196    0.29630    1.000
    C53      C        0.60450    0.79460    0.34174    1.000
    H33      H        0.63310    0.80660    0.33260    1.000
    H34      H        0.60860    0.76880    0.36240    1.000
    H35      H        0.58790    0.81680    0.35980    1.000
    C54      C        0.40624    0.18478    0.16003    1.000
    H36      H        0.41950    0.19800    0.13090    1.000
    H37      H        0.37530    0.19290    0.16170    1.000
    H38      H        0.40890    0.15290    0.15810    1.000
    C55      C        0.42945    0.20105    0.20505    1.000
    C56      C        0.41530    0.18634    0.25082    1.000
    H39      H        0.39420    0.16350    0.25100    1.000
    C57      C        0.49740    0.77430    0.60040    1.000
    C58      C        0.42895    0.20165    0.29574    1.000
    C59      C        0.40607    0.18689    0.34166    1.000
    H40      H        0.38300    0.16590    0.33320    1.000
    H41      H        0.39310    0.21220    0.35810    1.000
    H42      H        0.42720    0.17290    0.36360    1.000
    C60      C        0.47500    0.24800    0.15040    1.000
    O9       O        0.54136    0.76537    0.19978    1.000
    O10      O        0.54137    0.76569    0.30149    1.000
    O11      O        0.47979    0.78939    0.55087    1.000
    O12      O        0.47889    0.78908    0.44996    1.000
    Nb19     Nb       0.95946    0.50990    0.80646    1.000
    Nb20     Nb       0.95887    0.50988    0.69930    1.000
    Nb21     Nb       0.01931    0.56722    0.75251    1.000
    Nb22     Nb       0.05300    0.49084    0.80588    1.000
    Nb23     Nb       0.05261    0.49099    0.69870    1.000
    Nb24     Nb       0.99257    0.43367    0.75254    1.000
    Cl37     Cl       0.96709    0.58972    0.81600    1.000
    Cl38     Cl       0.00662    0.50048    0.87885    1.000
    Cl39     Cl       0.89539    0.52222    0.75344    1.000
    Cl40     Cl       0.93531    0.43338    0.81624    1.000
    Cl41     Cl       0.96623    0.58945    0.68975    1.000
    Cl42     Cl       0.00539    0.50046    0.62648    1.000
    Cl43     Cl       0.93449    0.43334    0.68976    1.000
    Cl44     Cl       0.07740    0.56753    0.81530    1.000
    Cl45     Cl       0.07666    0.56761    0.68924    1.000
    Cl46     Cl       0.11630    0.47860    0.75208    1.000
    Cl47     Cl       0.04571    0.41075    0.81519    1.000
    Cl48     Cl       0.04533    0.41103    0.68914    1.000
    N25      N        0.88438    0.53251    0.89528    1.000
    N26      N        0.88046    0.52926    0.61336    1.000
    N27      N        0.03251    0.67924    0.75120    1.000
    N28      N        0.12985    0.46900    0.89337    1.000
    N29      N        0.13058    0.47229    0.61216    1.000
    N30      N        0.97629    0.32247    0.75150    1.000
    N31      N        0.96061    0.72979    0.80087    1.000
    N32      N        0.96092    0.72889    0.69996    1.000
    C61      C        0.90891    0.52274    0.86575    1.000
    C62      C        0.90662    0.52181    0.64179    1.000
    C63      C        0.03089    0.64157    0.75203    1.000
    C64      C        0.10457    0.47812    0.86448    1.000
    C65      C        0.10438    0.48002    0.64060    1.000
    C66      C        0.97983    0.35973    0.75211    1.000
    C67      C        0.02310    0.25450    0.64990    1.000
    C68      C        0.08055    0.28088    0.70547    1.000
    C69      C        0.10590    0.29110    0.66018    1.000
    H43      H        0.08800    0.28440    0.63140    1.000
    H44      H        0.13260    0.27340    0.65950    1.000
    H45      H        0.11370    0.32220    0.66000    1.000
    C70      C        0.09922    0.28809    0.75113    1.000
    H46      H        0.12850    0.29830    0.75140    1.000
    C71      C        0.01730    0.26800    0.85130    1.000
    C72      C        0.07972    0.28196    0.79630    1.000
    C73      C        0.10450    0.29460    0.84174    1.000
    H47      H        0.13310    0.30660    0.83260    1.000
    H48      H        0.10860    0.26880    0.86240    1.000
    H49      H        0.08790    0.31680    0.85980    1.000
    C74      C        0.90624    0.68478    0.66003    1.000
    H50      H        0.91950    0.69800    0.63090    1.000
    H51      H        0.87530    0.69290    0.66170    1.000
    H52      H        0.90890    0.65290    0.65810    1.000
    C75      C        0.92945    0.70105    0.70505    1.000
    C76      C        0.91530    0.68634    0.75082    1.000
    H53      H        0.89420    0.66350    0.75100    1.000
    C77      C        0.99740    0.27430    0.10040    1.000
    C78      C        0.92895    0.70165    0.79574    1.000
    C79      C        0.90607    0.68689    0.84166    1.000
    H54      H        0.88300    0.66590    0.83320    1.000
    H55      H        0.89310    0.71220    0.85810    1.000
    H56      H        0.92720    0.67290    0.86360    1.000
    C80      C        0.97500    0.74800    0.65040    1.000
    O13      O        0.04136    0.26537    0.69978    1.000
    O14      O        0.04137    0.26569    0.80149    1.000
    O15      O        0.97979    0.28939    0.05087    1.000
    O16      O        0.97889    0.28908    0.94996    1.000
    Nb25     Nb       0.75990    0.29054    0.05646    1.000
    Nb26     Nb       0.75988    0.29113    0.94930    1.000
    Nb27     Nb       0.81722    0.23069    0.00251    1.000
    Nb28     Nb       0.74084    0.19700    0.05588    1.000
    Nb29     Nb       0.74099    0.19739    0.94870    1.000
    Nb30     Nb       0.68367    0.25743    0.00254    1.000
    Cl49     Cl       0.83972    0.28291    0.06600    1.000
    Cl50     Cl       0.75048    0.24338    0.12885    1.000
    Cl51     Cl       0.77222    0.35461    0.00344    1.000
    Cl52     Cl       0.68338    0.31469    0.06624    1.000
    Cl53     Cl       0.83945    0.28377    0.93975    1.000
    Cl54     Cl       0.75046    0.24461    0.87648    1.000
    Cl55     Cl       0.68334    0.31551    0.93976    1.000
    Cl56     Cl       0.81753    0.17260    0.06530    1.000
    Cl57     Cl       0.81761    0.17334    0.93924    1.000
    Cl58     Cl       0.72860    0.13370    0.00208    1.000
    Cl59     Cl       0.66075    0.20429    0.06519    1.000
    Cl60     Cl       0.66103    0.20467    0.93914    1.000
    N33      N        0.78251    0.36562    0.14528    1.000
    N34      N        0.77926    0.36954    0.86336    1.000
    N35      N        0.92924    0.21749    0.00120    1.000
    N36      N        0.71900    0.12015    0.14337    1.000
    N37      N        0.72229    0.11942    0.86216    1.000
    N38      N        0.57247    0.27371    0.00150    1.000
    C81      C        0.77274    0.34109    0.11575    1.000
    C82      C        0.77181    0.34338    0.89179    1.000
    C83      C        0.89157    0.21911    0.00203    1.000
    C84      C        0.72812    0.14543    0.11448    1.000
    C85      C        0.73002    0.14562    0.89060    1.000
    C86      C        0.60973    0.27017    0.00211    1.000
    C87      C        0.50450    0.22690    0.89990    1.000
    C88      C        0.53088    0.16945    0.95547    1.000
    C89      C        0.54110    0.14410    0.91018    1.000
    H57      H        0.53440    0.16200    0.88140    1.000
    H58      H        0.52340    0.11740    0.90950    1.000
    H59      H        0.57220    0.13630    0.91000    1.000
    C90      C        0.53809    0.15078    0.00113    1.000
    H60      H        0.54830    0.12150    0.00140    1.000
    C91      C        0.51800    0.23270    0.10130    1.000
    C92      C        0.53196    0.17028    0.04630    1.000
    C93      C        0.54460    0.14550    0.09174    1.000
    H61      H        0.55660    0.11690    0.08260    1.000
    H62      H        0.51880    0.14140    0.11240    1.000
    H63      H        0.56680    0.16210    0.10980    1.000
    C94      C        0.93478    0.34376    0.91003    1.000
    H64      H        0.94800    0.33050    0.88090    1.000
    H65      H        0.94290    0.37470    0.91170    1.000
    H66      H        0.90290    0.34110    0.90810    1.000
    C95      C        0.95105    0.32055    0.95505    1.000
    C96      C        0.93634    0.33470    0.00082    1.000
    H67      H        0.91350    0.35580    0.00100    1.000
    C97      C        0.52430    0.25260    0.35040    1.000
    C98      C        0.95165    0.32105    0.04574    1.000
    C99      C        0.93689    0.34393    0.09166    1.000
    H68      H        0.91590    0.36700    0.08320    1.000
    H69      H        0.96220    0.35690    0.10810    1.000
    H70      H        0.92290    0.32280    0.11360    1.000
    C100     C        0.99800    0.27500    0.90040    1.000
    O17      O        0.51537    0.20864    0.94978    1.000
    O18      O        0.51569    0.20863    0.05149    1.000
    Nb31     Nb       0.25990    0.79054    0.55646    1.000
    Nb32     Nb       0.25988    0.79113    0.44930    1.000
    Nb33     Nb       0.31722    0.73069    0.50251    1.000
    Nb34     Nb       0.24084    0.69700    0.55588    1.000
    Nb35     Nb       0.24099    0.69739    0.44870    1.000
    Nb36     Nb       0.18367    0.75743    0.50254    1.000
    Cl61     Cl       0.33972    0.78291    0.56600    1.000
    Cl62     Cl       0.25048    0.74338    0.62885    1.000
    Cl63     Cl       0.27222    0.85461    0.50344    1.000
    Cl64     Cl       0.18338    0.81469    0.56624    1.000
    Cl65     Cl       0.33945    0.78377    0.43975    1.000
    Cl66     Cl       0.25046    0.74461    0.37648    1.000
    Cl67     Cl       0.18334    0.81551    0.43976    1.000
    Cl68     Cl       0.31753    0.67260    0.56530    1.000
    Cl69     Cl       0.31761    0.67334    0.43924    1.000
    Cl70     Cl       0.22860    0.63370    0.50208    1.000
    Cl71     Cl       0.16075    0.70429    0.56519    1.000
    Cl72     Cl       0.16103    0.70467    0.43914    1.000
    N39      N        0.28251    0.86562    0.64528    1.000
    N40      N        0.27926    0.86954    0.36336    1.000
    N41      N        0.42924    0.71749    0.50120    1.000
    N42      N        0.21900    0.62015    0.64337    1.000
    N43      N        0.22229    0.61942    0.36216    1.000
    N44      N        0.07247    0.77371    0.50150    1.000
    C101     C        0.27274    0.84109    0.61575    1.000
    C102     C        0.27181    0.84338    0.39179    1.000
    C103     C        0.39157    0.71911    0.50203    1.000
    C104     C        0.22812    0.64543    0.61448    1.000
    C105     C        0.23002    0.64562    0.39060    1.000
    C106     C        0.10973    0.77017    0.50211    1.000
    C107     C        0.00450    0.72690    0.39990    1.000
    C108     C        0.03088    0.66945    0.45547    1.000
    C109     C        0.04110    0.64410    0.41018    1.000
    H71      H        0.03440    0.66200    0.38140    1.000
    H72      H        0.02340    0.61740    0.40950    1.000
    H73      H        0.07220    0.63630    0.41000    1.000
    C110     C        0.03809    0.65078    0.50113    1.000
    H74      H        0.04830    0.62150    0.50140    1.000
    C111     C        0.01800    0.73270    0.60130    1.000
    C112     C        0.03196    0.67028    0.54630    1.000
    C113     C        0.04460    0.64550    0.59174    1.000
    H75      H        0.05660    0.61690    0.58260    1.000
    H76      H        0.01880    0.64140    0.61240    1.000
    H77      H        0.06680    0.66210    0.60980    1.000
    C114     C        0.43478    0.84376    0.41003    1.000
    H78      H        0.44800    0.83050    0.38090    1.000
    H79      H        0.44290    0.87470    0.41170    1.000
    H80      H        0.40290    0.84110    0.40810    1.000
    C115     C        0.45105    0.82055    0.45505    1.000
    C116     C        0.43634    0.83470    0.50082    1.000
    H81      H        0.41350    0.85580    0.50100    1.000
    C117     C        0.02430    0.75260    0.85040    1.000
    C118     C        0.45165    0.82105    0.54574    1.000
    C119     C        0.43689    0.84393    0.59166    1.000
    H82      H        0.41590    0.86700    0.58320    1.000
    H83      H        0.46220    0.85690    0.60810    1.000
    H84      H        0.42290    0.82280    0.61360    1.000
    C120     C        0.49800    0.77500    0.40040    1.000
    O19      O        0.01537    0.70864    0.44978    1.000
    O20      O        0.01569    0.70863    0.55149    1.000
    Nb37     Nb       0.74010    0.70946    0.55646    1.000
    Nb38     Nb       0.74012    0.70887    0.44930    1.000
    Nb39     Nb       0.68278    0.76931    0.50251    1.000
    Nb40     Nb       0.75916    0.80300    0.55588    1.000
    Nb41     Nb       0.75901    0.80261    0.44870    1.000
    Nb42     Nb       0.81633    0.74257    0.50254    1.000
    Cl73     Cl       0.66028    0.71709    0.56600    1.000
    Cl74     Cl       0.74952    0.75662    0.62885    1.000
    Cl75     Cl       0.72778    0.64539    0.50344    1.000
    Cl76     Cl       0.81662    0.68531    0.56624    1.000
    Cl77     Cl       0.66055    0.71623    0.43975    1.000
    Cl78     Cl       0.74954    0.75539    0.37648    1.000
    Cl79     Cl       0.81666    0.68449    0.43976    1.000
    Cl80     Cl       0.68247    0.82740    0.56530    1.000
    Cl81     Cl       0.68239    0.82666    0.43924    1.000
    Cl82     Cl       0.77140    0.86630    0.50208    1.000
    Cl83     Cl       0.83925    0.79571    0.56519    1.000
    Cl84     Cl       0.83897    0.79533    0.43914    1.000
    N45      N        0.71749    0.63438    0.64528    1.000
    N46      N        0.72074    0.63046    0.36336    1.000
    N47      N        0.57076    0.78251    0.50120    1.000
    N48      N        0.78100    0.87985    0.64337    1.000
    N49      N        0.77771    0.88058    0.36216    1.000
    N50      N        0.92753    0.72629    0.50150    1.000
    C121     C        0.72726    0.65891    0.61575    1.000
    C122     C        0.72819    0.65662    0.39179    1.000
    C123     C        0.60843    0.78089    0.50203    1.000
    C124     C        0.77188    0.85457    0.61448    1.000
    C125     C        0.76998    0.85438    0.39060    1.000
    C126     C        0.89027    0.72983    0.50211    1.000
    C127     C        0.99550    0.77310    0.39990    1.000
    C128     C        0.96912    0.83055    0.45547    1.000
    C129     C        0.95890    0.85590    0.41018    1.000
    H85      H        0.96560    0.83800    0.38140    1.000
    H86      H        0.97660    0.88260    0.40950    1.000
    H87      H        0.92780    0.86370    0.41000    1.000
    C130     C        0.96191    0.84922    0.50113    1.000
    H88      H        0.95170    0.87850    0.50140    1.000
    C131     C        0.98200    0.76730    0.60130    1.000
    C132     C        0.96804    0.82972    0.54630    1.000
    C133     C        0.95540    0.85450    0.59174    1.000
    H89      H        0.94340    0.88310    0.58260    1.000
    H90      H        0.98120    0.85860    0.61240    1.000
    H91      H        0.93320    0.83790    0.60980    1.000
    C134     C        0.56522    0.65624    0.41003    1.000
    H92      H        0.55200    0.66950    0.38090    1.000
    H93      H        0.55710    0.62530    0.41170    1.000
    H94      H        0.59710    0.65890    0.40810    1.000
    C135     C        0.54895    0.67945    0.45505    1.000
    C136     C        0.56366    0.66530    0.50082    1.000
    H95      H        0.58650    0.64420    0.50100    1.000
    C137     C        0.97570    0.74740    0.85040    1.000
    C138     C        0.54835    0.67895    0.54574    1.000
    C139     C        0.56311    0.65607    0.59166    1.000
    H96      H        0.58410    0.63300    0.58320    1.000
    H97      H        0.53780    0.64310    0.60810    1.000
    H98      H        0.57710    0.67720    0.61360    1.000
    C140     C        0.50200    0.72500    0.40040    1.000
    O21      O        0.98463    0.79136    0.44978    1.000
    O22      O        0.98431    0.79137    0.55149    1.000
    Nb43     Nb       0.24010    0.20946    0.05646    1.000
    Nb44     Nb       0.24012    0.20887    0.94930    1.000
    Nb45     Nb       0.18278    0.26931    0.00251    1.000
    Nb46     Nb       0.25916    0.30300    0.05588    1.000
    Nb47     Nb       0.25901    0.30261    0.94870    1.000
    Nb48     Nb       0.31633    0.24257    0.00254    1.000
    Cl85     Cl       0.16028    0.21709    0.06600    1.000
    Cl86     Cl       0.24952    0.25662    0.12885    1.000
    Cl87     Cl       0.22778    0.14539    0.00344    1.000
    Cl88     Cl       0.31662    0.18531    0.06624    1.000
    Cl89     Cl       0.16055    0.21623    0.93975    1.000
    Cl90     Cl       0.24954    0.25539    0.87648    1.000
    Cl91     Cl       0.31666    0.18449    0.93976    1.000
    Cl92     Cl       0.18247    0.32740    0.06530    1.000
    Cl93     Cl       0.18239    0.32666    0.93924    1.000
    Cl94     Cl       0.27140    0.36630    0.00208    1.000
    Cl95     Cl       0.33925    0.29571    0.06519    1.000
    Cl96     Cl       0.33897    0.29533    0.93914    1.000
    N51      N        0.21749    0.13438    0.14528    1.000
    N52      N        0.22074    0.13046    0.86336    1.000
    N53      N        0.07076    0.28251    0.00120    1.000
    N54      N        0.28100    0.37985    0.14337    1.000
    N55      N        0.27771    0.38058    0.86216    1.000
    N56      N        0.42753    0.22629    0.00150    1.000
    C141     C        0.22726    0.15891    0.11575    1.000
    C142     C        0.22819    0.15662    0.89179    1.000
    C143     C        0.10843    0.28089    0.00203    1.000
    C144     C        0.27188    0.35457    0.11448    1.000
    C145     C        0.26998    0.35438    0.89060    1.000
    C146     C        0.39027    0.22983    0.00211    1.000
    C147     C        0.49550    0.27310    0.89990    1.000
    C148     C        0.46912    0.33055    0.95547    1.000
    C149     C        0.45890    0.35590    0.91018    1.000
    H99      H        0.46560    0.33800    0.88140    1.000
    H100     H        0.47660    0.38260    0.90950    1.000
    H101     H        0.42780    0.36370    0.91000    1.000
    C150     C        0.46191    0.34922    0.00113    1.000
    H102     H        0.45170    0.37850    0.00140    1.000
    C151     C        0.48200    0.26730    0.10130    1.000
    C152     C        0.46804    0.32972    0.04630    1.000
    C153     C        0.45540    0.35450    0.09174    1.000
    H103     H        0.44340    0.38310    0.08260    1.000
    H104     H        0.48120    0.35860    0.11240    1.000
    H105     H        0.43320    0.33790    0.10980    1.000
    C154     C        0.06522    0.15624    0.91003    1.000
    H106     H        0.05200    0.16950    0.88090    1.000
    H107     H        0.05710    0.12530    0.91170    1.000
    H108     H        0.09710    0.15890    0.90810    1.000
    C155     C        0.04895    0.17945    0.95505    1.000
    C156     C        0.06366    0.16530    0.00082    1.000
    H109     H        0.08650    0.14420    0.00100    1.000
    C157     C        0.47570    0.24740    0.35040    1.000
    C158     C        0.04835    0.17895    0.04574    1.000
    C159     C        0.06311    0.15607    0.09166    1.000
    H110     H        0.08410    0.13300    0.08320    1.000
    H111     H        0.03780    0.14310    0.10810    1.000
    H112     H        0.07710    0.17720    0.11360    1.000
    C160     C        0.00200    0.22500    0.90040    1.000
    O23      O        0.48463    0.29136    0.94978    1.000
    O24      O        0.48431    0.29137    0.05149    1.000
    Mn1      Mn       0.00000    0.25000    0.75068    1.000
    Mn2      Mn       0.50000    0.75000    0.25068    1.000
    Mn3      Mn       0.50000    0.25000    0.00068    1.000
    Mn4      Mn       0.00000    0.75000    0.50068    1.000
    Mn5      Mn       0.00000    0.75000    0.75040    1.000
    Mn6      Mn       0.50000    0.25000    0.25040    1.000
    Mn7      Mn       0.00000    0.25000    0.00040    1.000
    Mn8      Mn       0.50000    0.75000    0.50040    1.000
    N57      N        0.04136    0.76537    0.30022    1.000
    N58      N        0.04137    0.76569    0.19851    1.000
    N59      N        0.54136    0.26537    0.80022    1.000
    N60      N        0.54137    0.26569    0.69851    1.000
    N61      N        0.45864    0.23463    0.80022    1.000
    N62      N        0.45863    0.23431    0.69851    1.000
    N63      N        0.95864    0.73463    0.30022    1.000
    N64      N        0.95863    0.73431    0.19851    1.000
    N65      N        0.98463    0.29136    0.55022    1.000
    N66      N        0.98431    0.29137    0.44851    1.000
    N67      N        0.48463    0.79136    0.05022    1.000
    N68      N        0.48431    0.79137    0.94851    1.000
    N69      N        0.51537    0.70864    0.05022    1.000
    N70      N        0.51569    0.70863    0.94851    1.000
    N71      N        0.01537    0.20864    0.55022    1.000
    N72      N        0.01569    0.20863    0.44851    1.000
    Nb49     Nb       0.95946    0.00990    0.19354    1.000
    Nb50     Nb       0.95887    0.00988    0.30070    1.000
    Nb51     Nb       0.01931    0.06722    0.24749    1.000
    Nb52     Nb       0.05300    0.99084    0.19412    1.000
    Nb53     Nb       0.05261    0.99099    0.30130    1.000
    Nb54     Nb       0.99257    0.93367    0.24746    1.000
    Cl97     Cl       0.96709    0.08972    0.18400    1.000
    Cl98     Cl       0.00662    0.00048    0.12115    1.000
    Cl99     Cl       0.89539    0.02222    0.24656    1.000
    Cl100    Cl       0.93531    0.93338    0.18376    1.000
    Cl101    Cl       0.96623    0.08945    0.31025    1.000
    Cl102    Cl       0.00539    0.00046    0.37352    1.000
    Cl103    Cl       0.93449    0.93334    0.31024    1.000
    Cl104    Cl       0.07740    0.06753    0.18470    1.000
    Cl105    Cl       0.07666    0.06761    0.31076    1.000
    Cl106    Cl       0.11630    0.97860    0.24792    1.000
    Cl107    Cl       0.04571    0.91075    0.18481    1.000
    Cl108    Cl       0.04533    0.91103    0.31086    1.000
    N73      N        0.88438    0.03251    0.10472    1.000
    N74      N        0.88046    0.02926    0.38664    1.000
    N75      N        0.03251    0.17924    0.24880    1.000
    N76      N        0.12985    0.96900    0.10663    1.000
    N77      N        0.13058    0.97229    0.38784    1.000
    N78      N        0.97629    0.82247    0.24850    1.000
    N79      N        0.96061    0.22979    0.19913    1.000
    N80      N        0.96092    0.22889    0.30004    1.000
    C161     C        0.90891    0.02274    0.13425    1.000
    C162     C        0.90662    0.02181    0.35821    1.000
    C163     C        0.03089    0.14157    0.24797    1.000
    C164     C        0.10457    0.97812    0.13552    1.000
    C165     C        0.10438    0.98002    0.35940    1.000
    C166     C        0.97983    0.85973    0.24789    1.000
    C167     C        0.02310    0.75450    0.35010    1.000
    C168     C        0.08055    0.78088    0.29453    1.000
    C169     C        0.10590    0.79110    0.33982    1.000
    H113     H        0.08800    0.78440    0.36860    1.000
    H114     H        0.13260    0.77340    0.34050    1.000
    H115     H        0.11370    0.82220    0.34000    1.000
    C170     C        0.09922    0.78809    0.24887    1.000
    H116     H        0.12850    0.79830    0.24860    1.000
    C171     C        0.01730    0.76800    0.14870    1.000
    C172     C        0.07972    0.78196    0.20370    1.000
    C173     C        0.10450    0.79460    0.15826    1.000
    H117     H        0.13310    0.80660    0.16740    1.000
    H118     H        0.10860    0.76880    0.13760    1.000
    H119     H        0.08790    0.81680    0.14020    1.000
    C174     C        0.90624    0.18478    0.33997    1.000
    H120     H        0.91950    0.19800    0.36910    1.000
    H121     H        0.87530    0.19290    0.33830    1.000
    H122     H        0.90890    0.15290    0.34190    1.000
    C175     C        0.92945    0.20105    0.29495    1.000
    C176     C        0.91530    0.18634    0.24918    1.000
    H123     H        0.89420    0.16350    0.24900    1.000
    C177     C        0.99740    0.77430    0.89960    1.000
    C178     C        0.92895    0.20165    0.20426    1.000
    C179     C        0.90607    0.18689    0.15834    1.000
    H124     H        0.88300    0.16590    0.16680    1.000
    H125     H        0.89310    0.21220    0.14190    1.000
    H126     H        0.92720    0.17290    0.13640    1.000
    C180     C        0.97500    0.24800    0.34960    1.000
    O25      O        0.97979    0.78939    0.94913    1.000
    O26      O        0.97889    0.78908    0.05004    1.000
    Nb55     Nb       0.45946    0.50990    0.69354    1.000
    Nb56     Nb       0.45887    0.50988    0.80070    1.000
    Nb57     Nb       0.51931    0.56722    0.74749    1.000
    Nb58     Nb       0.55300    0.49084    0.69412    1.000
    Nb59     Nb       0.55261    0.49099    0.80130    1.000
    Nb60     Nb       0.49257    0.43367    0.74746    1.000
    Cl109    Cl       0.46709    0.58972    0.68400    1.000
    Cl110    Cl       0.50662    0.50048    0.62115    1.000
    Cl111    Cl       0.39539    0.52222    0.74656    1.000
    Cl112    Cl       0.43531    0.43338    0.68376    1.000
    Cl113    Cl       0.46623    0.58945    0.81025    1.000
    Cl114    Cl       0.50539    0.50046    0.87352    1.000
    Cl115    Cl       0.43449    0.43334    0.81024    1.000
    Cl116    Cl       0.57740    0.56753    0.68470    1.000
    Cl117    Cl       0.57666    0.56761    0.81076    1.000
    Cl118    Cl       0.61630    0.47860    0.74792    1.000
    Cl119    Cl       0.54571    0.41075    0.68481    1.000
    Cl120    Cl       0.54533    0.41103    0.81086    1.000
    N81      N        0.38438    0.53251    0.60472    1.000
    N82      N        0.38046    0.52926    0.88664    1.000
    N83      N        0.53251    0.67924    0.74880    1.000
    N84      N        0.62985    0.46900    0.60663    1.000
    N85      N        0.63058    0.47229    0.88784    1.000
    N86      N        0.47629    0.32247    0.74850    1.000
    N87      N        0.46061    0.72979    0.69913    1.000
    N88      N        0.46092    0.72889    0.80004    1.000
    C181     C        0.40891    0.52274    0.63425    1.000
    C182     C        0.40662    0.52181    0.85821    1.000
    C183     C        0.53089    0.64157    0.74797    1.000
    C184     C        0.60457    0.47812    0.63552    1.000
    C185     C        0.60438    0.48002    0.85940    1.000
    C186     C        0.47983    0.35973    0.74789    1.000
    C187     C        0.52310    0.25450    0.85010    1.000
    C188     C        0.58055    0.28088    0.79453    1.000
    C189     C        0.60590    0.29110    0.83982    1.000
    H127     H        0.58800    0.28440    0.86860    1.000
    H128     H        0.63260    0.27340    0.84050    1.000
    H129     H        0.61370    0.32220    0.84000    1.000
    C190     C        0.59922    0.28809    0.74887    1.000
    H130     H        0.62850    0.29830    0.74860    1.000
    C191     C        0.51730    0.26800    0.64870    1.000
    C192     C        0.57972    0.28196    0.70370    1.000
    C193     C        0.60450    0.29460    0.65826    1.000
    H131     H        0.63310    0.30660    0.66740    1.000
    H132     H        0.60860    0.26880    0.63760    1.000
    H133     H        0.58790    0.31680    0.64020    1.000
    C194     C        0.40624    0.68478    0.83997    1.000
    H134     H        0.41950    0.69800    0.86910    1.000
    H135     H        0.37530    0.69290    0.83830    1.000
    H136     H        0.40890    0.65290    0.84190    1.000
    C195     C        0.42945    0.70105    0.79495    1.000
    C196     C        0.41530    0.68634    0.74918    1.000
    H137     H        0.39420    0.66350    0.74900    1.000
    C197     C        0.49740    0.27430    0.39960    1.000
    C198     C        0.42895    0.70165    0.70426    1.000
    C199     C        0.40607    0.68689    0.65834    1.000
    H138     H        0.38300    0.66590    0.66680    1.000
    H139     H        0.39310    0.71220    0.64190    1.000
    H140     H        0.42720    0.67290    0.63640    1.000
    C200     C        0.47500    0.74800    0.84960    1.000
    O27      O        0.47979    0.28939    0.44913    1.000
    O28      O        0.47889    0.28908    0.55004    1.000
    Nb61     Nb       0.54054    0.99010    0.69354    1.000
    Nb62     Nb       0.54113    0.99012    0.80070    1.000
    Nb63     Nb       0.48069    0.93278    0.74749    1.000
    Nb64     Nb       0.44700    0.00916    0.69412    1.000
    Nb65     Nb       0.44739    0.00901    0.80130    1.000
    Nb66     Nb       0.50743    0.06633    0.74746    1.000
    Cl121    Cl       0.53291    0.91028    0.68400    1.000
    Cl122    Cl       0.49338    0.99952    0.62115    1.000
    Cl123    Cl       0.60461    0.97778    0.74656    1.000
    Cl124    Cl       0.56469    0.06662    0.68376    1.000
    Cl125    Cl       0.53377    0.91055    0.81025    1.000
    Cl126    Cl       0.49461    0.99954    0.87352    1.000
    Cl127    Cl       0.56551    0.06666    0.81024    1.000
    Cl128    Cl       0.42260    0.93247    0.68470    1.000
    Cl129    Cl       0.42334    0.93239    0.81076    1.000
    Cl130    Cl       0.38370    0.02140    0.74792    1.000
    Cl131    Cl       0.45429    0.08925    0.68481    1.000
    Cl132    Cl       0.45467    0.08897    0.81086    1.000
    N89      N        0.61562    0.96749    0.60472    1.000
    N90      N        0.61954    0.97074    0.88664    1.000
    N91      N        0.46749    0.82076    0.74880    1.000
    N92      N        0.37015    0.03100    0.60663    1.000
    N93      N        0.36942    0.02771    0.88784    1.000
    N94      N        0.52371    0.17753    0.74850    1.000
    N95      N        0.53939    0.77021    0.69913    1.000
    N96      N        0.53908    0.77111    0.80004    1.000
    C201     C        0.59109    0.97726    0.63425    1.000
    C202     C        0.59338    0.97819    0.85821    1.000
    C203     C        0.46911    0.85843    0.74797    1.000
    C204     C        0.39543    0.02188    0.63552    1.000
    C205     C        0.39562    0.01998    0.85940    1.000
    C206     C        0.52017    0.14027    0.74789    1.000
    C207     C        0.47690    0.24550    0.85010    1.000
    C208     C        0.41945    0.21912    0.79453    1.000
    C209     C        0.39410    0.20890    0.83982    1.000
    H141     H        0.41200    0.21560    0.86860    1.000
    H142     H        0.36740    0.22660    0.84050    1.000
    H143     H        0.38630    0.17780    0.84000    1.000
    C210     C        0.40078    0.21191    0.74887    1.000
    H144     H        0.37150    0.20170    0.74860    1.000
    C211     C        0.48270    0.23200    0.64870    1.000
    C212     C        0.42028    0.21804    0.70370    1.000
    C213     C        0.39550    0.20540    0.65826    1.000
    H145     H        0.36690    0.19340    0.66740    1.000
    H146     H        0.39140    0.23120    0.63760    1.000
    H147     H        0.41210    0.18320    0.64020    1.000
    C214     C        0.59376    0.81522    0.83997    1.000
    H148     H        0.58050    0.80200    0.86910    1.000
    H149     H        0.62470    0.80710    0.83830    1.000
    H150     H        0.59110    0.84710    0.84190    1.000
    C215     C        0.57055    0.79895    0.79495    1.000
    C216     C        0.58470    0.81366    0.74918    1.000
    H151     H        0.60580    0.83650    0.74900    1.000
    C217     C        0.50260    0.22570    0.39960    1.000
    C218     C        0.57105    0.79835    0.70426    1.000
    C219     C        0.59393    0.81311    0.65834    1.000
    H152     H        0.61700    0.83410    0.66680    1.000
    H153     H        0.60690    0.78780    0.64190    1.000
    H154     H        0.57280    0.82710    0.63640    1.000
    C220     C        0.52500    0.75200    0.84960    1.000
    O29      O        0.52021    0.21061    0.44913    1.000
    O30      O        0.52111    0.21092    0.55004    1.000
    Nb67     Nb       0.04054    0.49010    0.19354    1.000
    Nb68     Nb       0.04113    0.49012    0.30070    1.000
    Nb69     Nb       0.98069    0.43278    0.24749    1.000
    Nb70     Nb       0.94700    0.50916    0.19412    1.000
    Nb71     Nb       0.94739    0.50901    0.30130    1.000
    Nb72     Nb       0.00743    0.56633    0.24746    1.000
    Cl133    Cl       0.03291    0.41028    0.18400    1.000
    Cl134    Cl       0.99338    0.49952    0.12115    1.000
    Cl135    Cl       0.10461    0.47778    0.24656    1.000
    Cl136    Cl       0.06469    0.56662    0.18376    1.000
    Cl137    Cl       0.03377    0.41055    0.31025    1.000
    Cl138    Cl       0.99461    0.49954    0.37352    1.000
    Cl139    Cl       0.06551    0.56666    0.31024    1.000
    Cl140    Cl       0.92260    0.43247    0.18470    1.000
    Cl141    Cl       0.92334    0.43239    0.31076    1.000
    Cl142    Cl       0.88370    0.52140    0.24792    1.000
    Cl143    Cl       0.95429    0.58925    0.18481    1.000
    Cl144    Cl       0.95467    0.58897    0.31086    1.000
    N97      N        0.11562    0.46749    0.10472    1.000
    N98      N        0.11954    0.47074    0.38664    1.000
    N99      N        0.96749    0.32076    0.24880    1.000
    N100     N        0.87015    0.53100    0.10663    1.000
    N101     N        0.86942    0.52771    0.38784    1.000
    N102     N        0.02371    0.67753    0.24850    1.000
    N103     N        0.03939    0.27021    0.19913    1.000
    N104     N        0.03908    0.27111    0.30004    1.000
    C221     C        0.09109    0.47726    0.13425    1.000
    C222     C        0.09338    0.47819    0.35821    1.000
    C223     C        0.96911    0.35843    0.24797    1.000
    C224     C        0.89543    0.52188    0.13552    1.000
    C225     C        0.89562    0.51998    0.35940    1.000
    C226     C        0.02017    0.64027    0.24789    1.000
    C227     C        0.97690    0.74550    0.35010    1.000
    C228     C        0.91945    0.71912    0.29453    1.000
    C229     C        0.89410    0.70890    0.33982    1.000
    H155     H        0.91200    0.71560    0.36860    1.000
    H156     H        0.86740    0.72660    0.34050    1.000
    H157     H        0.88630    0.67780    0.34000    1.000
    C230     C        0.90078    0.71191    0.24887    1.000
    H158     H        0.87150    0.70170    0.24860    1.000
    C231     C        0.98270    0.73200    0.14870    1.000
    C232     C        0.92028    0.71804    0.20370    1.000
    C233     C        0.89550    0.70540    0.15826    1.000
    H159     H        0.86690    0.69340    0.16740    1.000
    H160     H        0.89140    0.73120    0.13760    1.000
    H161     H        0.91210    0.68320    0.14020    1.000
    C234     C        0.09376    0.31522    0.33997    1.000
    H162     H        0.08050    0.30200    0.36910    1.000
    H163     H        0.12470    0.30710    0.33830    1.000
    H164     H        0.09110    0.34710    0.34190    1.000
    C235     C        0.07055    0.29895    0.29495    1.000
    C236     C        0.08470    0.31366    0.24918    1.000
    H165     H        0.10580    0.33650    0.24900    1.000
    C237     C        0.00260    0.72570    0.89960    1.000
    C238     C        0.07105    0.29835    0.20426    1.000
    C239     C        0.09393    0.31311    0.15834    1.000
    H166     H        0.11700    0.33410    0.16680    1.000
    H167     H        0.10690    0.28780    0.14190    1.000
    H168     H        0.07280    0.32710    0.13640    1.000
    C240     C        0.02500    0.25200    0.34960    1.000
    O31      O        0.02021    0.71061    0.94913    1.000
    O32      O        0.02111    0.71092    0.05004    1.000
    Nb73     Nb       0.24010    0.70946    0.94354    1.000
    Nb74     Nb       0.24012    0.70887    0.05070    1.000
    Nb75     Nb       0.18278    0.76931    0.99749    1.000
    Nb76     Nb       0.25916    0.80300    0.94412    1.000
    Nb77     Nb       0.25901    0.80261    0.05130    1.000
    Nb78     Nb       0.31633    0.74257    0.99746    1.000
    Cl145    Cl       0.16028    0.71709    0.93400    1.000
    Cl146    Cl       0.24952    0.75662    0.87115    1.000
    Cl147    Cl       0.22778    0.64539    0.99656    1.000
    Cl148    Cl       0.31662    0.68531    0.93376    1.000
    Cl149    Cl       0.16055    0.71623    0.06025    1.000
    Cl150    Cl       0.24954    0.75539    0.12352    1.000
    Cl151    Cl       0.31666    0.68449    0.06024    1.000
    Cl152    Cl       0.18247    0.82740    0.93470    1.000
    Cl153    Cl       0.18239    0.82666    0.06076    1.000
    Cl154    Cl       0.27140    0.86630    0.99792    1.000
    Cl155    Cl       0.33925    0.79571    0.93481    1.000
    Cl156    Cl       0.33897    0.79533    0.06086    1.000
    N105     N        0.21749    0.63438    0.85472    1.000
    N106     N        0.22074    0.63046    0.13664    1.000
    N107     N        0.07076    0.78251    0.99880    1.000
    N108     N        0.28100    0.87985    0.85663    1.000
    N109     N        0.27771    0.88058    0.13784    1.000
    N110     N        0.42753    0.72629    0.99850    1.000
    C241     C        0.22726    0.65891    0.88425    1.000
    C242     C        0.22819    0.65662    0.10821    1.000
    C243     C        0.10843    0.78089    0.99797    1.000
    C244     C        0.27188    0.85457    0.88552    1.000
    C245     C        0.26998    0.85438    0.10940    1.000
    C246     C        0.39027    0.72983    0.99789    1.000
    C247     C        0.49550    0.77310    0.10010    1.000
    C248     C        0.46912    0.83055    0.04453    1.000
    C249     C        0.45890    0.85590    0.08982    1.000
    H169     H        0.46560    0.83800    0.11860    1.000
    H170     H        0.47660    0.88260    0.09050    1.000
    H171     H        0.42780    0.86370    0.09000    1.000
    C250     C        0.46191    0.84922    0.99887    1.000
    H172     H        0.45170    0.87850    0.99860    1.000
    C251     C        0.48200    0.76730    0.89870    1.000
    C252     C        0.46804    0.82972    0.95370    1.000
    C253     C        0.45540    0.85450    0.90826    1.000
    H173     H        0.44340    0.88310    0.91740    1.000
    H174     H        0.48120    0.85860    0.88760    1.000
    H175     H        0.43320    0.83790    0.89020    1.000
    C254     C        0.06522    0.65624    0.08997    1.000
    H176     H        0.05200    0.66950    0.11910    1.000
    H177     H        0.05710    0.62530    0.08830    1.000
    H178     H        0.09710    0.65890    0.09190    1.000
    C255     C        0.04895    0.67945    0.04495    1.000
    C256     C        0.06366    0.66530    0.99918    1.000
    H179     H        0.08650    0.64420    0.99900    1.000
    C257     C        0.47570    0.74740    0.64960    1.000
    C258     C        0.04835    0.67895    0.95426    1.000
    C259     C        0.06311    0.65607    0.90834    1.000
    H180     H        0.08410    0.63300    0.91680    1.000
    H181     H        0.03780    0.64310    0.89190    1.000
    H182     H        0.07710    0.67720    0.88640    1.000
    C260     C        0.00200    0.72500    0.09960    1.000
    Nb79     Nb       0.74010    0.20946    0.44354    1.000
    Nb80     Nb       0.74012    0.20887    0.55070    1.000
    Nb81     Nb       0.68278    0.26931    0.49749    1.000
    Nb82     Nb       0.75916    0.30300    0.44412    1.000
    Nb83     Nb       0.75901    0.30261    0.55130    1.000
    Nb84     Nb       0.81633    0.24257    0.49746    1.000
    Cl157    Cl       0.66028    0.21709    0.43400    1.000
    Cl158    Cl       0.74952    0.25662    0.37115    1.000
    Cl159    Cl       0.72778    0.14539    0.49656    1.000
    Cl160    Cl       0.81662    0.18531    0.43376    1.000
    Cl161    Cl       0.66055    0.21623    0.56025    1.000
    Cl162    Cl       0.74954    0.25539    0.62352    1.000
    Cl163    Cl       0.81666    0.18449    0.56024    1.000
    Cl164    Cl       0.68247    0.32740    0.43470    1.000
    Cl165    Cl       0.68239    0.32666    0.56076    1.000
    Cl166    Cl       0.77140    0.36630    0.49792    1.000
    Cl167    Cl       0.83925    0.29571    0.43481    1.000
    Cl168    Cl       0.83897    0.29533    0.56086    1.000
    N111     N        0.71749    0.13438    0.35472    1.000
    N112     N        0.72074    0.13046    0.63664    1.000
    N113     N        0.57076    0.28251    0.49880    1.000
    N114     N        0.78100    0.37985    0.35663    1.000
    N115     N        0.77771    0.38058    0.63784    1.000
    N116     N        0.92753    0.22629    0.49850    1.000
    C261     C        0.72726    0.15891    0.38425    1.000
    C262     C        0.72819    0.15662    0.60821    1.000
    C263     C        0.60843    0.28089    0.49797    1.000
    C264     C        0.77188    0.35457    0.38552    1.000
    C265     C        0.76998    0.35438    0.60940    1.000
    C266     C        0.89027    0.22983    0.49789    1.000
    C267     C        0.99550    0.27310    0.60010    1.000
    C268     C        0.96912    0.33055    0.54453    1.000
    C269     C        0.95890    0.35590    0.58982    1.000
    H183     H        0.96560    0.33800    0.61860    1.000
    H184     H        0.97660    0.38260    0.59050    1.000
    H185     H        0.92780    0.36370    0.59000    1.000
    C270     C        0.96191    0.34922    0.49887    1.000
    H186     H        0.95170    0.37850    0.49860    1.000
    C271     C        0.98200    0.26730    0.39870    1.000
    C272     C        0.96804    0.32972    0.45370    1.000
    C273     C        0.95540    0.35450    0.40826    1.000
    H187     H        0.94340    0.38310    0.41740    1.000
    H188     H        0.98120    0.35860    0.38760    1.000
    H189     H        0.93320    0.33790    0.39020    1.000
    C274     C        0.56522    0.15624    0.58997    1.000
    H190     H        0.55200    0.16950    0.61910    1.000
    H191     H        0.55710    0.12530    0.58830    1.000
    H192     H        0.59710    0.15890    0.59190    1.000
    C275     C        0.54895    0.17945    0.54495    1.000
    C276     C        0.56366    0.16530    0.49918    1.000
    H193     H        0.58650    0.14420    0.49900    1.000
    C277     C        0.97570    0.24740    0.14960    1.000
    C278     C        0.54835    0.17895    0.45426    1.000
    C279     C        0.56311    0.15607    0.40834    1.000
    H194     H        0.58410    0.13300    0.41680    1.000
    H195     H        0.53780    0.14310    0.39190    1.000
    H196     H        0.57710    0.17720    0.38640    1.000
    C280     C        0.50200    0.22500    0.59960    1.000
    Nb85     Nb       0.25990    0.29054    0.44354    1.000
    Nb86     Nb       0.25988    0.29113    0.55070    1.000
    Nb87     Nb       0.31722    0.23069    0.49749    1.000
    Nb88     Nb       0.24084    0.19700    0.44412    1.000
    Nb89     Nb       0.24099    0.19739    0.55130    1.000
    Nb90     Nb       0.18367    0.25743    0.49746    1.000
    Cl169    Cl       0.33972    0.28291    0.43400    1.000
    Cl170    Cl       0.25048    0.24338    0.37115    1.000
    Cl171    Cl       0.27222    0.35461    0.49656    1.000
    Cl172    Cl       0.18338    0.31469    0.43376    1.000
    Cl173    Cl       0.33945    0.28377    0.56025    1.000
    Cl174    Cl       0.25046    0.24461    0.62352    1.000
    Cl175    Cl       0.18334    0.31551    0.56024    1.000
    Cl176    Cl       0.31753    0.17260    0.43470    1.000
    Cl177    Cl       0.31761    0.17334    0.56076    1.000
    Cl178    Cl       0.22860    0.13370    0.49792    1.000
    Cl179    Cl       0.16075    0.20429    0.43481    1.000
    Cl180    Cl       0.16103    0.20467    0.56086    1.000
    N117     N        0.28251    0.36562    0.35472    1.000
    N118     N        0.27926    0.36954    0.63664    1.000
    N119     N        0.42924    0.21749    0.49880    1.000
    N120     N        0.21900    0.12015    0.35663    1.000
    N121     N        0.22229    0.11942    0.63784    1.000
    N122     N        0.07247    0.27371    0.49850    1.000
    C281     C        0.27274    0.34109    0.38425    1.000
    C282     C        0.27181    0.34338    0.60821    1.000
    C283     C        0.39157    0.21911    0.49797    1.000
    C284     C        0.22812    0.14543    0.38552    1.000
    C285     C        0.23002    0.14562    0.60940    1.000
    C286     C        0.10973    0.27017    0.49789    1.000
    C287     C        0.00450    0.22690    0.60010    1.000
    C288     C        0.03088    0.16945    0.54453    1.000
    C289     C        0.04110    0.14410    0.58982    1.000
    H197     H        0.03440    0.16200    0.61860    1.000
    H198     H        0.02340    0.11740    0.59050    1.000
    H199     H        0.07220    0.13630    0.59000    1.000
    C290     C        0.03809    0.15078    0.49887    1.000
    H200     H        0.04830    0.12150    0.49860    1.000
    C291     C        0.01800    0.23270    0.39870    1.000
    C292     C        0.03196    0.17028    0.45370    1.000
    C293     C        0.04460    0.14550    0.40826    1.000
    H201     H        0.05660    0.11690    0.41740    1.000
    H202     H        0.01880    0.14140    0.38760    1.000
    H203     H        0.06680    0.16210    0.39020    1.000
    C294     C        0.43478    0.34376    0.58997    1.000
    H204     H        0.44800    0.33050    0.61910    1.000
    H205     H        0.44290    0.37470    0.58830    1.000
    H206     H        0.40290    0.34110    0.59190    1.000
    C295     C        0.45105    0.32055    0.54495    1.000
    C296     C        0.43634    0.33470    0.49918    1.000
    H207     H        0.41350    0.35580    0.49900    1.000
    C297     C        0.02430    0.25260    0.14960    1.000
    C298     C        0.45165    0.32105    0.45426    1.000
    C299     C        0.43689    0.34393    0.40834    1.000
    H208     H        0.41590    0.36700    0.41680    1.000
    H209     H        0.46220    0.35690    0.39190    1.000
    H210     H        0.42290    0.32280    0.38640    1.000
    C300     C        0.49800    0.27500    0.59960    1.000
    Nb91     Nb       0.75990    0.79054    0.94354    1.000
    Nb92     Nb       0.75988    0.79113    0.05070    1.000
    Nb93     Nb       0.81722    0.73069    0.99749    1.000
    Nb94     Nb       0.74084    0.69700    0.94412    1.000
    Nb95     Nb       0.74099    0.69739    0.05130    1.000
    Nb96     Nb       0.68367    0.75743    0.99746    1.000
    Cl181    Cl       0.83972    0.78291    0.93400    1.000
    Cl182    Cl       0.75048    0.74338    0.87115    1.000
    Cl183    Cl       0.77222    0.85461    0.99656    1.000
    Cl184    Cl       0.68338    0.81469    0.93376    1.000
    Cl185    Cl       0.83945    0.78377    0.06025    1.000
    Cl186    Cl       0.75046    0.74461    0.12352    1.000
    Cl187    Cl       0.68334    0.81551    0.06024    1.000
    Cl188    Cl       0.81753    0.67260    0.93470    1.000
    Cl189    Cl       0.81761    0.67334    0.06076    1.000
    Cl190    Cl       0.72860    0.63370    0.99792    1.000
    Cl191    Cl       0.66075    0.70429    0.93481    1.000
    Cl192    Cl       0.66103    0.70467    0.06086    1.000
    N123     N        0.78251    0.86562    0.85472    1.000
    N124     N        0.77926    0.86954    0.13664    1.000
    N125     N        0.92924    0.71749    0.99880    1.000
    N126     N        0.71900    0.62015    0.85663    1.000
    N127     N        0.72229    0.61942    0.13784    1.000
    N128     N        0.57247    0.77371    0.99850    1.000
    C301     C        0.77274    0.84109    0.88425    1.000
    C302     C        0.77181    0.84338    0.10821    1.000
    C303     C        0.89157    0.71911    0.99797    1.000
    C304     C        0.72812    0.64543    0.88552    1.000
    C305     C        0.73002    0.64562    0.10940    1.000
    C306     C        0.60973    0.77017    0.99789    1.000
    C307     C        0.50450    0.72690    0.10010    1.000
    C308     C        0.53088    0.66945    0.04453    1.000
    C309     C        0.54110    0.64410    0.08982    1.000
    H211     H        0.53440    0.66200    0.11860    1.000
    H212     H        0.52340    0.61740    0.09050    1.000
    H213     H        0.57220    0.63630    0.09000    1.000
    C310     C        0.53809    0.65078    0.99887    1.000
    H214     H        0.54830    0.62150    0.99860    1.000
    C311     C        0.51800    0.73270    0.89870    1.000
    C312     C        0.53196    0.67028    0.95370    1.000
    C313     C        0.54460    0.64550    0.90826    1.000
    H215     H        0.55660    0.61690    0.91740    1.000
    H216     H        0.51880    0.64140    0.88760    1.000
    H217     H        0.56680    0.66210    0.89020    1.000
    C314     C        0.93478    0.84376    0.08997    1.000
    H218     H        0.94800    0.83050    0.11910    1.000
    H219     H        0.94290    0.87470    0.08830    1.000
    H220     H        0.90290    0.84110    0.09190    1.000
    C315     C        0.95105    0.82055    0.04495    1.000
    C316     C        0.93634    0.83470    0.99918    1.000
    H221     H        0.91350    0.85580    0.99900    1.000
    C317     C        0.52430    0.75260    0.64960    1.000
    C318     C        0.95165    0.82105    0.95426    1.000
    C319     C        0.93689    0.84393    0.90834    1.000
    H222     H        0.91590    0.86700    0.91680    1.000
    H223     H        0.96220    0.85690    0.89190    1.000
    H224     H        0.92290    0.82280    0.88640    1.000
    C320     C        0.99800    0.77500    0.09960    1.000
    Mn9      Mn       0.00000    0.75000    0.24932    1.000
    Mn10     Mn       0.50000    0.25000    0.74932    1.000
    Mn11     Mn       0.50000    0.75000    0.99932    1.000
    Mn12     Mn       0.00000    0.25000    0.49932    1.000
    Mn13     Mn       0.00000    0.25000    0.24960    1.000
    Mn14     Mn       0.50000    0.75000    0.74960    1.000
    Mn15     Mn       0.00000    0.75000    0.99960    1.000
    Mn16     Mn       0.50000    0.25000    0.49960    1.000
