data_functionalizedCrystal
_audit_creation_method	'EQeq! by Chris Wilmer'
_symmetry_space_group_name_H-M	'P1'
_symmetry_Int_Tables_number	1
_symmetry_cell_setting	triclinic
loop_
_symmetry_equiv_pos_as_xyz
  x,y,z
_cell_length_a	9.638
_cell_length_b	20.5979
_cell_length_c	10.4207
_cell_angle_alpha	90
_cell_angle_beta	95.034
_cell_angle_gamma	90
loop_
_atom_site_label
_atom_site_type_symbol
_atom_site_fract_x
_atom_site_fract_y
_atom_site_fract_z
_atom_site_charge
Mof_Zn	Zn	0.17007	0.3074	0.36014	1.236
Mof_Zn	Zn	0.69379	0.45704	0.59123	1.233
Mof_Zn	Zn	0.92422	0.42964	0.12006	1.233
Mof_P 	P 	0.06112	0.29241	0.05967	0.479
Mof_H 	H 	0.971	0.2437	0.08	-0.054
Mof_P 	P 	0.43148	0.39996	0.43668	0.461
Mof_H 	H 	0.475	0.4171	0.326	-0.064
Mof_P 	P 	0.78878	0.49864	0.87175	0.438
Mof_H 	H 	0.732	0.5574	0.868	-0.052
Mof_P 	P 	0.88514	0.38787	0.40393	0.464
Mof_H 	H 	0.81	0.3355	0.415	-0.054
Mof_O 	O 	0.9776	0.35326	0.0365	-0.469
Mof_O 	O 	0.1597	0.29428	0.1783	-0.475
Mof_O 	O 	0.1334	0.27431	0.94189	-0.427
Mof_O 	O 	0.3558	0.33635	0.4189	-0.424
Mof_O 	O 	0.3379	0.45546	0.4722	-0.462
Mof_O 	O 	0.5574	0.39255	0.533	-0.432
Mof_O 	O 	0.6989	0.45588	0.77826	-0.422
Mof_O 	O 	0.7832	0.47472	0.00785	-0.421
Mof_O 	O 	0.9341	0.50605	0.82964	-0.473
Mof_O 	O 	0.8638	0.43175	0.5185	-0.413
Mof_O 	O 	0.036	0.36926	0.4113	-0.466
Mof_O 	O 	0.8303	0.41805	0.2777	-0.442
Mof_Zn	Zn	0.82993	0.8074	0.13986	1.237
Mof_Zn	Zn	0.30621	0.95704	0.90877	1.233
Mof_Zn	Zn	0.07578	0.92964	0.37994	1.233
Mof_P 	P 	0.93888	0.79241	0.44033	0.49
Mof_H 	H 	0.029	0.7437	0.42	-0.056
Mof_P 	P 	0.56852	0.89996	0.06332	0.462
Mof_H 	H 	0.525	0.9171	0.174	-0.063
Mof_P 	P 	0.21122	0.99864	0.62825	0.437
Mof_H 	H 	0.268	0.0574	0.632	-0.05
Mof_P 	P 	0.11486	0.88787	0.09607	0.459
Mof_H 	H 	0.19	0.8355	0.085	-0.054
Mof_O 	O 	0.0224	0.85326	0.4635	-0.474
Mof_O 	O 	0.8403	0.79428	0.3217	-0.475
Mof_O 	O 	0.8666	0.77431	0.55811	-0.431
Mof_O 	O 	0.6442	0.83635	0.0811	-0.424
Mof_O 	O 	0.6621	0.95546	0.0278	-0.46
Mof_O 	O 	0.4426	0.89255	0.967	-0.434
Mof_O 	O 	0.3011	0.95588	0.72174	-0.422
Mof_O 	O 	0.2168	0.97472	0.49215	-0.422
Mof_O 	O 	0.0659	0.00605	0.67036	-0.467
Mof_O 	O 	0.1362	0.93175	0.9815	-0.413
Mof_O 	O 	0.964	0.86926	0.0887	-0.461
Mof_O 	O 	0.1697	0.91805	0.2223	-0.443
Mof_Zn	Zn	0.82993	0.6926	0.63986	1.237
Mof_Zn	Zn	0.30621	0.54296	0.40877	1.234
Mof_Zn	Zn	0.07578	0.57036	0.87994	1.234
Mof_P 	P 	0.93888	0.70759	0.94033	0.48
Mof_H 	H 	0.029	0.7563	0.92	-0.053
Mof_P 	P 	0.56852	0.60004	0.56332	0.462
Mof_H 	H 	0.525	0.5829	0.674	-0.063
Mof_P 	P 	0.21122	0.50136	0.12825	0.439
Mof_H 	H 	0.268	0.4426	0.132	-0.052
Mof_P 	P 	0.11486	0.61213	0.59607	0.464
Mof_H 	H 	0.19	0.6645	0.585	-0.054
Mof_O 	O 	0.0224	0.64674	0.9635	-0.469
Mof_O 	O 	0.8403	0.70572	0.8217	-0.475
Mof_O 	O 	0.8666	0.72569	0.05811	-0.427
Mof_O 	O 	0.6442	0.66365	0.5811	-0.424
Mof_O 	O 	0.6621	0.54454	0.5278	-0.462
Mof_O 	O 	0.4426	0.60745	0.467	-0.432
Mof_O 	O 	0.3011	0.54412	0.22174	-0.422
Mof_O 	O 	0.2168	0.52528	0.99215	-0.421
Mof_O 	O 	0.0659	0.49395	0.17036	-0.473
Mof_O 	O 	0.1362	0.56825	0.4815	-0.413
Mof_O 	O 	0.964	0.63074	0.5887	-0.466
Mof_O 	O 	0.1697	0.58195	0.7223	-0.442
Mof_Zn	Zn	0.17007	0.1926	0.86014	1.237
Mof_Zn	Zn	0.69379	0.04296	0.09123	1.233
Mof_Zn	Zn	0.92422	0.07036	0.62006	1.233
Mof_P 	P 	0.06112	0.20759	0.55967	0.49
Mof_H 	H 	0.971	0.2563	0.58	-0.056
Mof_P 	P 	0.43148	0.10004	0.93668	0.462
Mof_H 	H 	0.475	0.0829	0.826	-0.063
Mof_P 	P 	0.78878	0.00136	0.37175	0.437
Mof_H 	H 	0.732	0.9426	0.368	-0.05
Mof_P 	P 	0.88514	0.11213	0.90393	0.459
Mof_H 	H 	0.81	0.1645	0.915	-0.054
Mof_O 	O 	0.9776	0.14674	0.5365	-0.474
Mof_O 	O 	0.1597	0.20572	0.6783	-0.475
Mof_O 	O 	0.1334	0.22569	0.44189	-0.431
Mof_O 	O 	0.3558	0.16365	0.9189	-0.424
Mof_O 	O 	0.3379	0.04454	0.9722	-0.46
Mof_O 	O 	0.5574	0.10745	0.033	-0.434
Mof_O 	O 	0.6989	0.04412	0.27826	-0.422
Mof_O 	O 	0.7832	0.02528	0.50785	-0.422
Mof_O 	O 	0.9341	0.99395	0.32964	-0.467
Mof_O 	O 	0.8638	0.06825	0.0185	-0.413
Mof_O 	O 	0.036	0.13074	0.9113	-0.461
Mof_O 	O 	0.8303	0.08195	0.7777	-0.443
_end
