data_functionalizedCrystal
_audit_creation_method	'EQeq! by Chris Wilmer'
_symmetry_space_group_name_H-M	'P1'
_symmetry_Int_Tables_number	1
_symmetry_cell_setting	triclinic
loop_
_symmetry_equiv_pos_as_xyz
  x,y,z
_cell_length_a	30.095
_cell_length_b	30.095
_cell_length_c	6.7707
_cell_angle_alpha	90
_cell_angle_beta	90
_cell_angle_gamma	120
loop_
_atom_site_label
_atom_site_type_symbol
_atom_site_fract_x
_atom_site_fract_y
_atom_site_fract_z
_atom_site_charge
Mof_C 	C 	0.20062	0.29965	0.2988	0.889
Mof_Zn	Zn	0.18109	0.21764	0.57502	1.209
Mof_Zn	Zn	0.22094	0.22715	0.07339	1.198
Mof_O 	O 	0.18156	0.18628	0.8468	-0.609
Mof_O 	O 	0.19858	0.25167	0.2988	-0.694
Mof_N 	N 	0.18983	0.16001	0.458	-0.262
Mof_N 	N 	0.20517	0.16068	0.2701	-0.159
Mof_N 	N 	0.2144	0.12346	0.2404	-0.076
Mof_N 	N 	0.20446	0.09693	0.4122	-0.241
Mof_N 	N 	0.2844	0.36863	0.7386	-0.271
Mof_N 	N 	0.27619	0.34376	0.9122	-0.094
Mof_N 	N 	0.24402	0.29525	0.8812	-0.175
Mof_N 	N 	0.2305	0.28784	0.6896	-0.264
Mof_C 	C 	0.18969	0.12026	0.5429	0.228
Mof_C 	C 	0.17548	0.10506	0.7548	-0.47
Mof_H 	H 	0.2062	0.1131	0.8291	0.156
Mof_H 	H 	0.1524	0.0683	0.7621	0.149
Mof_C 	C 	0.14962	0.13253	0.848	0.319
Mof_H 	H 	0.1183	0.1235	0.7763	-0.091
Mof_H 	H 	0.1403	0.1209	0.9833	-0.087
Mof_C 	C 	0.25605	0.33389	0.6046	0.291
Mof_C 	C 	0.25111	0.3419	0.3888	-0.659
Mof_H 	H 	0.2797	0.3429	0.3185	0.184
Mof_H 	H 	0.2531	0.3748	0.3709	0.218
Mof_C 	C 	0.1779	0.2981	0.367	-0.682
Mof_C 	C 	0.86729	0.63298	0.63213	0.893
Mof_Zn	Zn	0.84775	0.55097	0.90835	1.205
Mof_Zn	Zn	0.88761	0.56049	0.40672	1.197
Mof_O 	O 	0.84823	0.51961	0.18013	-0.606
Mof_O 	O 	0.86525	0.585	0.63213	-0.696
Mof_N 	N 	0.8565	0.49334	0.79133	-0.261
Mof_N 	N 	0.87184	0.49401	0.60343	-0.159
Mof_N 	N 	0.88107	0.45679	0.57373	-0.076
Mof_N 	N 	0.87113	0.43026	0.74553	-0.239
Mof_N 	N 	0.95107	0.70196	0.07193	-0.268
Mof_N 	N 	0.94286	0.67709	0.24553	-0.095
Mof_N 	N 	0.91069	0.62858	0.21453	-0.175
Mof_N 	N 	0.89717	0.62117	0.02293	-0.259
Mof_C 	C 	0.85636	0.45359	0.87623	0.214
Mof_C 	C 	0.84215	0.43839	0.08813	-0.45
Mof_H 	H 	0.87287	0.44643	0.16243	0.152
Mof_H 	H 	0.81907	0.40163	0.09543	0.146
Mof_C 	C 	0.81629	0.46586	0.18133	0.309
Mof_H 	H 	0.78497	0.45683	0.10963	-0.085
Mof_H 	H 	0.80697	0.45423	0.31663	-0.085
Mof_C 	C 	0.92272	0.66722	0.93793	0.282
Mof_C 	C 	0.91778	0.67523	0.72213	-0.658
Mof_H 	H 	0.94637	0.67623	0.65183	0.184
Mof_H 	H 	0.91977	0.70813	0.70423	0.218
Mof_C 	C 	0.84457	0.63143	0.70033	-0.688
Mof_C 	C 	0.53395	0.96632	0.96547	0.922
Mof_Zn	Zn	0.51442	0.8843	0.24169	1.207
Mof_Zn	Zn	0.55428	0.89382	0.74006	1.197
Mof_O 	O 	0.51489	0.85295	0.51347	-0.611
Mof_O 	O 	0.53191	0.91834	0.96547	-0.696
Mof_N 	N 	0.52316	0.82668	0.12467	-0.266
Mof_N 	N 	0.5385	0.82735	0.93677	-0.155
Mof_N 	N 	0.54773	0.79013	0.90707	-0.072
Mof_N 	N 	0.53779	0.7636	0.07887	-0.246
Mof_N 	N 	0.61773	0.0353	0.40527	-0.272
Mof_N 	N 	0.60952	0.01043	0.57887	-0.095
Mof_N 	N 	0.57735	0.96192	0.54787	-0.176
Mof_N 	N 	0.56383	0.95451	0.35627	-0.265
Mof_C 	C 	0.52302	0.78693	0.20957	0.227
Mof_C 	C 	0.50881	0.77173	0.42147	-0.47
Mof_H 	H 	0.53953	0.77977	0.49577	0.156
Mof_H 	H 	0.48573	0.73497	0.42877	0.148
Mof_C 	C 	0.48295	0.7992	0.51467	0.319
Mof_H 	H 	0.45163	0.79017	0.44297	-0.092
Mof_H 	H 	0.47363	0.78757	0.64997	-0.087
Mof_C 	C 	0.58938	0.00056	0.27127	0.295
Mof_C 	C 	0.58444	0.00857	0.05547	-0.669
Mof_H 	H 	0.61303	0.00957	0.98517	0.184
Mof_H 	H 	0.58643	0.04147	0.03757	0.224
Mof_C 	C 	0.51123	0.96477	0.03367	-0.712
Mof_C 	C 	0.70035	0.90097	0.2988	0.887
Mof_Zn	Zn	0.78236	0.96345	0.57502	1.208
Mof_Zn	Zn	0.77285	0.99379	0.07339	1.196
Mof_O 	O 	0.81372	0.99528	0.8468	-0.609
Mof_O 	O 	0.74833	0.94691	0.2988	-0.694
Mof_N 	N 	0.83999	0.02982	0.458	-0.262
Mof_N 	N 	0.83932	0.04449	0.2701	-0.159
Mof_N 	N 	0.87654	0.09094	0.2404	-0.075
Mof_N 	N 	0.90307	0.10753	0.4122	-0.241
Mof_N 	N 	0.63137	0.91577	0.7386	-0.271
Mof_N 	N 	0.65624	0.93243	0.9122	-0.094
Mof_N 	N 	0.70475	0.94877	0.8812	-0.175
Mof_N 	N 	0.71216	0.94266	0.6896	-0.264
Mof_C 	C 	0.87974	0.06943	0.5429	0.228
Mof_C 	C 	0.89494	0.07042	0.7548	-0.468
Mof_H 	H 	0.8869	0.0931	0.8291	0.155
Mof_H 	H 	0.9317	0.0841	0.7621	0.148
Mof_C 	C 	0.86747	0.01709	0.848	0.316
Mof_H 	H 	0.8765	0.9948	0.7763	-0.089
Mof_H 	H 	0.8791	0.0194	0.9833	-0.087
Mof_C 	C 	0.66611	0.92216	0.6046	0.291
Mof_C 	C 	0.6581	0.90921	0.3888	-0.659
Mof_H 	H 	0.6571	0.9368	0.3185	0.184
Mof_H 	H 	0.6252	0.8783	0.3709	0.218
Mof_C 	C 	0.7019	0.8798	0.367	-0.682
Mof_C 	C 	0.36702	0.2343	0.63213	0.894
Mof_Zn	Zn	0.44903	0.29678	0.90835	1.206
Mof_Zn	Zn	0.43951	0.32712	0.40672	1.197
Mof_O 	O 	0.48039	0.32861	0.18013	-0.606
Mof_O 	O 	0.415	0.28024	0.63213	-0.696
Mof_N 	N 	0.50666	0.36315	0.79133	-0.261
Mof_N 	N 	0.50599	0.37782	0.60343	-0.159
Mof_N 	N 	0.54321	0.42427	0.57373	-0.076
Mof_N 	N 	0.56974	0.44086	0.74553	-0.239
Mof_N 	N 	0.29804	0.2491	0.07193	-0.268
Mof_N 	N 	0.32291	0.26576	0.24553	-0.095
Mof_N 	N 	0.37142	0.2821	0.21453	-0.175
Mof_N 	N 	0.37883	0.27599	0.02293	-0.259
Mof_C 	C 	0.54641	0.40276	0.87623	0.215
Mof_C 	C 	0.56161	0.40375	0.08813	-0.451
Mof_H 	H 	0.55357	0.42643	0.16243	0.152
Mof_H 	H 	0.59837	0.41743	0.09543	0.146
Mof_C 	C 	0.53414	0.35042	0.18133	0.31
Mof_H 	H 	0.54317	0.32813	0.10963	-0.085
Mof_H 	H 	0.54577	0.35273	0.31663	-0.085
Mof_C 	C 	0.33278	0.25549	0.93793	0.283
Mof_C 	C 	0.32477	0.24254	0.72213	-0.658
Mof_H 	H 	0.32377	0.27013	0.65183	0.184
Mof_H 	H 	0.29187	0.21163	0.70423	0.218
Mof_C 	C 	0.36857	0.21313	0.70033	-0.688
Mof_C 	C 	0.03368	0.56764	0.96547	0.925
Mof_Zn	Zn	0.1157	0.63012	0.24169	1.207
Mof_Zn	Zn	0.10618	0.66046	0.74006	1.197
Mof_O 	O 	0.14705	0.66195	0.51347	-0.611
Mof_O 	O 	0.08166	0.61358	0.96547	-0.696
Mof_N 	N 	0.17332	0.69649	0.12467	-0.267
Mof_N 	N 	0.17265	0.71116	0.93677	-0.155
Mof_N 	N 	0.20987	0.75761	0.90707	-0.071
Mof_N 	N 	0.2364	0.7742	0.07887	-0.247
Mof_N 	N 	0.9647	0.58244	0.40527	-0.272
Mof_N 	N 	0.98957	0.5991	0.57887	-0.095
Mof_N 	N 	0.03808	0.61544	0.54787	-0.176
Mof_N 	N 	0.04549	0.60933	0.35627	-0.265
Mof_C 	C 	0.21307	0.7361	0.20957	0.227
Mof_C 	C 	0.22827	0.73709	0.42147	-0.47
Mof_H 	H 	0.22023	0.75977	0.49577	0.156
Mof_H 	H 	0.26503	0.75077	0.42877	0.148
Mof_C 	C 	0.2008	0.68376	0.51467	0.319
Mof_H 	H 	0.20983	0.66147	0.44297	-0.092
Mof_H 	H 	0.21243	0.68607	0.64997	-0.087
Mof_C 	C 	0.99944	0.58883	0.27127	0.295
Mof_C 	C 	0.99143	0.57588	0.05547	-0.671
Mof_H 	H 	0.99043	0.60347	0.98517	0.185
Mof_H 	H 	0.95853	0.54497	0.03757	0.225
Mof_C 	C 	0.03523	0.54647	0.03367	-0.714
Mof_C 	C 	0.09903	0.79938	0.2988	0.886
Mof_Zn	Zn	0.03655	0.81891	0.57502	1.208
Mof_Zn	Zn	0.00621	0.77906	0.07339	1.196
Mof_O 	O 	0.00472	0.81844	0.8468	-0.608
Mof_O 	O 	0.05309	0.80142	0.2988	-0.694
Mof_N 	N 	0.97018	0.81017	0.458	-0.262
Mof_N 	N 	0.95551	0.79483	0.2701	-0.159
Mof_N 	N 	0.90906	0.7856	0.2404	-0.076
Mof_N 	N 	0.89247	0.79554	0.4122	-0.241
Mof_N 	N 	0.08423	0.7156	0.7386	-0.271
Mof_N 	N 	0.06757	0.72381	0.9122	-0.094
Mof_N 	N 	0.05123	0.75598	0.8812	-0.175
Mof_N 	N 	0.05734	0.7695	0.6896	-0.264
Mof_C 	C 	0.93057	0.81031	0.5429	0.227
Mof_C 	C 	0.92958	0.82452	0.7548	-0.468
Mof_H 	H 	0.9069	0.7938	0.8291	0.155
Mof_H 	H 	0.9159	0.8476	0.7621	0.148
Mof_C 	C 	0.98291	0.85038	0.848	0.315
Mof_H 	H 	0.0052	0.8817	0.7763	-0.089
Mof_H 	H 	0.9806	0.8597	0.9833	-0.086
Mof_C 	C 	0.07784	0.74395	0.6046	0.291
Mof_C 	C 	0.09079	0.74889	0.3888	-0.659
Mof_H 	H 	0.0632	0.7203	0.3185	0.184
Mof_H 	H 	0.1217	0.7469	0.3709	0.218
Mof_C 	C 	0.1202	0.8221	0.367	-0.681
Mof_C 	C 	0.7657	0.13271	0.63213	0.893
Mof_Zn	Zn	0.70322	0.15225	0.90835	1.205
Mof_Zn	Zn	0.67288	0.11239	0.40672	1.197
Mof_O 	O 	0.67139	0.15177	0.18013	-0.606
Mof_O 	O 	0.71976	0.13475	0.63213	-0.696
Mof_N 	N 	0.63685	0.1435	0.79133	-0.261
Mof_N 	N 	0.62218	0.12816	0.60343	-0.16
Mof_N 	N 	0.57573	0.11893	0.57373	-0.076
Mof_N 	N 	0.55914	0.12887	0.74553	-0.239
Mof_N 	N 	0.7509	0.04893	0.07193	-0.267
Mof_N 	N 	0.73424	0.05714	0.24553	-0.095
Mof_N 	N 	0.7179	0.08931	0.21453	-0.175
Mof_N 	N 	0.72401	0.10283	0.02293	-0.258
Mof_C 	C 	0.59724	0.14364	0.87623	0.214
Mof_C 	C 	0.59625	0.15785	0.08813	-0.449
Mof_H 	H 	0.57357	0.12713	0.16243	0.152
Mof_H 	H 	0.58257	0.18093	0.09543	0.146
Mof_C 	C 	0.64958	0.18371	0.18133	0.309
Mof_H 	H 	0.67187	0.21503	0.10963	-0.084
Mof_H 	H 	0.64727	0.19303	0.31663	-0.085
Mof_C 	C 	0.74451	0.07728	0.93793	0.281
Mof_C 	C 	0.75746	0.08222	0.72213	-0.657
Mof_H 	H 	0.72987	0.05363	0.65183	0.184
Mof_H 	H 	0.78837	0.08023	0.70423	0.217
Mof_C 	C 	0.78687	0.15543	0.70033	-0.688
Mof_C 	C 	0.43236	0.46605	0.96547	0.912
Mof_Zn	Zn	0.36988	0.48558	0.24169	1.207
Mof_Zn	Zn	0.33954	0.44572	0.74006	1.197
Mof_O 	O 	0.33805	0.48511	0.51347	-0.61
Mof_O 	O 	0.38642	0.46809	0.96547	-0.695
Mof_N 	N 	0.30351	0.47684	0.12467	-0.266
Mof_N 	N 	0.28884	0.4615	0.93677	-0.155
Mof_N 	N 	0.24239	0.45227	0.90707	-0.072
Mof_N 	N 	0.2258	0.46221	0.07887	-0.246
Mof_N 	N 	0.41756	0.38227	0.40527	-0.272
Mof_N 	N 	0.4009	0.39048	0.57887	-0.095
Mof_N 	N 	0.38456	0.42265	0.54787	-0.176
Mof_N 	N 	0.39067	0.43617	0.35627	-0.265
Mof_C 	C 	0.2639	0.47698	0.20957	0.227
Mof_C 	C 	0.26291	0.49119	0.42147	-0.47
Mof_H 	H 	0.24023	0.46047	0.49577	0.156
Mof_H 	H 	0.24923	0.51427	0.42877	0.148
Mof_C 	C 	0.31624	0.51705	0.51467	0.319
Mof_H 	H 	0.33853	0.54837	0.44297	-0.092
Mof_H 	H 	0.31393	0.52637	0.64997	-0.087
Mof_C 	C 	0.41117	0.41062	0.27127	0.294
Mof_C 	C 	0.42412	0.41556	0.05547	-0.669
Mof_H 	H 	0.39653	0.38697	0.98517	0.186
Mof_H 	H 	0.45503	0.41357	0.03757	0.223
Mof_C 	C 	0.45353	0.48877	0.03367	-0.703
Mof_C 	C 	0.79938	0.70035	0.7012	0.888
Mof_Zn	Zn	0.81891	0.78236	0.42498	1.208
Mof_Zn	Zn	0.77906	0.77285	0.92661	1.197
Mof_O 	O 	0.81844	0.81372	0.1532	-0.61
Mof_O 	O 	0.80142	0.74833	0.7012	-0.694
Mof_N 	N 	0.81017	0.83999	0.542	-0.262
Mof_N 	N 	0.79483	0.83932	0.7299	-0.159
Mof_N 	N 	0.7856	0.87654	0.7596	-0.076
Mof_N 	N 	0.79554	0.90307	0.5878	-0.241
Mof_N 	N 	0.7156	0.63137	0.2614	-0.271
Mof_N 	N 	0.72381	0.65624	0.0878	-0.094
Mof_N 	N 	0.75598	0.70475	0.1188	-0.175
Mof_N 	N 	0.7695	0.71216	0.3104	-0.264
Mof_C 	C 	0.81031	0.87974	0.4571	0.228
Mof_C 	C 	0.82452	0.89494	0.2452	-0.47
Mof_H 	H 	0.7938	0.8869	0.1709	0.156
Mof_H 	H 	0.8476	0.9317	0.2379	0.149
Mof_C 	C 	0.85038	0.86747	0.152	0.319
Mof_H 	H 	0.8817	0.8765	0.2237	-0.091
Mof_H 	H 	0.8597	0.8791	0.0167	-0.087
Mof_C 	C 	0.74395	0.66611	0.3954	0.291
Mof_C 	C 	0.74889	0.6581	0.6112	-0.659
Mof_H 	H 	0.7203	0.6571	0.6815	0.184
Mof_H 	H 	0.7469	0.6252	0.6291	0.218
Mof_C 	C 	0.8221	0.7019	0.633	-0.682
Mof_C 	C 	0.46605	0.03368	0.03453	0.922
Mof_Zn	Zn	0.48558	0.1157	0.75831	1.207
Mof_Zn	Zn	0.44572	0.10618	0.25994	1.197
Mof_O 	O 	0.48511	0.14705	0.48653	-0.611
Mof_O 	O 	0.46809	0.08166	0.03453	-0.696
Mof_N 	N 	0.47684	0.17332	0.87533	-0.266
Mof_N 	N 	0.4615	0.17265	0.06323	-0.155
Mof_N 	N 	0.45227	0.20987	0.09293	-0.072
Mof_N 	N 	0.46221	0.2364	0.92113	-0.246
Mof_N 	N 	0.38227	0.9647	0.59473	-0.272
Mof_N 	N 	0.39048	0.98957	0.42113	-0.095
Mof_N 	N 	0.42265	0.03808	0.45213	-0.176
Mof_N 	N 	0.43617	0.04549	0.64373	-0.265
Mof_C 	C 	0.47698	0.21307	0.79043	0.227
Mof_C 	C 	0.49119	0.22827	0.57853	-0.47
Mof_H 	H 	0.46047	0.22023	0.50423	0.156
Mof_H 	H 	0.51427	0.26503	0.57123	0.148
Mof_C 	C 	0.51705	0.2008	0.48533	0.319
Mof_H 	H 	0.54837	0.20983	0.55703	-0.092
Mof_H 	H 	0.52637	0.21243	0.35003	-0.087
Mof_C 	C 	0.41062	0.99944	0.72873	0.295
Mof_C 	C 	0.41556	0.99143	0.94453	-0.669
Mof_H 	H 	0.38697	0.99043	0.01483	0.184
Mof_H 	H 	0.41357	0.95853	0.96243	0.224
Mof_C 	C 	0.48877	0.03523	0.96633	-0.712
Mof_C 	C 	0.13271	0.36702	0.36787	0.893
Mof_Zn	Zn	0.15225	0.44903	0.09165	1.205
Mof_Zn	Zn	0.11239	0.43951	0.59328	1.197
Mof_O 	O 	0.15177	0.48039	0.81987	-0.606
Mof_O 	O 	0.13475	0.415	0.36787	-0.696
Mof_N 	N 	0.1435	0.50666	0.20867	-0.261
Mof_N 	N 	0.12816	0.50599	0.39657	-0.159
Mof_N 	N 	0.11893	0.54321	0.42627	-0.076
Mof_N 	N 	0.12887	0.56974	0.25447	-0.239
Mof_N 	N 	0.04893	0.29804	0.92807	-0.268
Mof_N 	N 	0.05714	0.32291	0.75447	-0.095
Mof_N 	N 	0.08931	0.37142	0.78547	-0.175
Mof_N 	N 	0.10283	0.37883	0.97707	-0.259
Mof_C 	C 	0.14364	0.54641	0.12377	0.214
Mof_C 	C 	0.15785	0.56161	0.91187	-0.45
Mof_H 	H 	0.12713	0.55357	0.83757	0.152
Mof_H 	H 	0.18093	0.59837	0.90457	0.146
Mof_C 	C 	0.18371	0.53414	0.81867	0.309
Mof_H 	H 	0.21503	0.54317	0.89037	-0.085
Mof_H 	H 	0.19303	0.54577	0.68337	-0.085
Mof_C 	C 	0.07728	0.33278	0.06207	0.282
Mof_C 	C 	0.08222	0.32477	0.27787	-0.658
Mof_H 	H 	0.05363	0.32377	0.34817	0.184
Mof_H 	H 	0.08023	0.29187	0.29577	0.218
Mof_C 	C 	0.15543	0.36857	0.29967	-0.688
Mof_C 	C 	0.29965	0.09903	0.7012	0.887
Mof_Zn	Zn	0.21764	0.03655	0.42498	1.208
Mof_Zn	Zn	0.22715	0.00621	0.92661	1.196
Mof_O 	O 	0.18628	0.00472	0.1532	-0.609
Mof_O 	O 	0.25167	0.05309	0.7012	-0.694
Mof_N 	N 	0.16001	0.97018	0.542	-0.262
Mof_N 	N 	0.16068	0.95551	0.7299	-0.159
Mof_N 	N 	0.12346	0.90906	0.7596	-0.075
Mof_N 	N 	0.09693	0.89247	0.5878	-0.241
Mof_N 	N 	0.36863	0.08423	0.2614	-0.271
Mof_N 	N 	0.34376	0.06757	0.0878	-0.094
Mof_N 	N 	0.29525	0.05123	0.1188	-0.175
Mof_N 	N 	0.28784	0.05734	0.3104	-0.264
Mof_C 	C 	0.12026	0.93057	0.4571	0.228
Mof_C 	C 	0.10506	0.92958	0.2452	-0.468
Mof_H 	H 	0.1131	0.9069	0.1709	0.155
Mof_H 	H 	0.0683	0.9159	0.2379	0.148
Mof_C 	C 	0.13253	0.98291	0.152	0.316
Mof_H 	H 	0.1235	0.0052	0.2237	-0.089
Mof_H 	H 	0.1209	0.9806	0.0167	-0.087
Mof_C 	C 	0.33389	0.07784	0.3954	0.291
Mof_C 	C 	0.3419	0.09079	0.6112	-0.659
Mof_H 	H 	0.3429	0.0632	0.6815	0.184
Mof_H 	H 	0.3748	0.1217	0.6291	0.218
Mof_C 	C 	0.2981	0.1202	0.633	-0.682
Mof_C 	C 	0.96632	0.43236	0.03453	0.925
Mof_Zn	Zn	0.8843	0.36988	0.75831	1.207
Mof_Zn	Zn	0.89382	0.33954	0.25994	1.197
Mof_O 	O 	0.85295	0.33805	0.48653	-0.611
Mof_O 	O 	0.91834	0.38642	0.03453	-0.696
Mof_N 	N 	0.82668	0.30351	0.87533	-0.267
Mof_N 	N 	0.82735	0.28884	0.06323	-0.155
Mof_N 	N 	0.79013	0.24239	0.09293	-0.071
Mof_N 	N 	0.7636	0.2258	0.92113	-0.247
Mof_N 	N 	0.0353	0.41756	0.59473	-0.272
Mof_N 	N 	0.01043	0.4009	0.42113	-0.095
Mof_N 	N 	0.96192	0.38456	0.45213	-0.176
Mof_N 	N 	0.95451	0.39067	0.64373	-0.265
Mof_C 	C 	0.78693	0.2639	0.79043	0.227
Mof_C 	C 	0.77173	0.26291	0.57853	-0.47
Mof_H 	H 	0.77977	0.24023	0.50423	0.156
Mof_H 	H 	0.73497	0.24923	0.57123	0.148
Mof_C 	C 	0.7992	0.31624	0.48533	0.319
Mof_H 	H 	0.79017	0.33853	0.55703	-0.092
Mof_H 	H 	0.78757	0.31393	0.35003	-0.087
Mof_C 	C 	0.00056	0.41117	0.72873	0.295
Mof_C 	C 	0.00857	0.42412	0.94453	-0.671
Mof_H 	H 	0.00957	0.39653	0.01483	0.185
Mof_H 	H 	0.04147	0.45503	0.96243	0.225
Mof_C 	C 	0.96477	0.45353	0.96633	-0.714
Mof_C 	C 	0.63298	0.7657	0.36787	0.894
Mof_Zn	Zn	0.55097	0.70322	0.09165	1.206
Mof_Zn	Zn	0.56049	0.67288	0.59328	1.197
Mof_O 	O 	0.51961	0.67139	0.81987	-0.606
Mof_O 	O 	0.585	0.71976	0.36787	-0.696
Mof_N 	N 	0.49334	0.63685	0.20867	-0.261
Mof_N 	N 	0.49401	0.62218	0.39657	-0.159
Mof_N 	N 	0.45679	0.57573	0.42627	-0.076
Mof_N 	N 	0.43026	0.55914	0.25447	-0.239
Mof_N 	N 	0.70196	0.7509	0.92807	-0.268
Mof_N 	N 	0.67709	0.73424	0.75447	-0.095
Mof_N 	N 	0.62858	0.7179	0.78547	-0.175
Mof_N 	N 	0.62117	0.72401	0.97707	-0.259
Mof_C 	C 	0.45359	0.59724	0.12377	0.215
Mof_C 	C 	0.43839	0.59625	0.91187	-0.451
Mof_H 	H 	0.44643	0.57357	0.83757	0.152
Mof_H 	H 	0.40163	0.58257	0.90457	0.146
Mof_C 	C 	0.46586	0.64958	0.81867	0.31
Mof_H 	H 	0.45683	0.67187	0.89037	-0.085
Mof_H 	H 	0.45423	0.64727	0.68337	-0.085
Mof_C 	C 	0.66722	0.74451	0.06207	0.283
Mof_C 	C 	0.67523	0.75746	0.27787	-0.658
Mof_H 	H 	0.67623	0.72987	0.34817	0.184
Mof_H 	H 	0.70813	0.78837	0.29577	0.218
Mof_C 	C 	0.63143	0.78687	0.29967	-0.688
Mof_C 	C 	0.90097	0.20062	0.7012	0.886
Mof_Zn	Zn	0.96345	0.18109	0.42498	1.208
Mof_Zn	Zn	0.99379	0.22094	0.92661	1.196
Mof_O 	O 	0.99528	0.18156	0.1532	-0.608
Mof_O 	O 	0.94691	0.19858	0.7012	-0.694
Mof_N 	N 	0.02982	0.18983	0.542	-0.262
Mof_N 	N 	0.04449	0.20517	0.7299	-0.159
Mof_N 	N 	0.09094	0.2144	0.7596	-0.076
Mof_N 	N 	0.10753	0.20446	0.5878	-0.241
Mof_N 	N 	0.91577	0.2844	0.2614	-0.271
Mof_N 	N 	0.93243	0.27619	0.0878	-0.094
Mof_N 	N 	0.94877	0.24402	0.1188	-0.175
Mof_N 	N 	0.94266	0.2305	0.3104	-0.264
Mof_C 	C 	0.06943	0.18969	0.4571	0.227
Mof_C 	C 	0.07042	0.17548	0.2452	-0.468
Mof_H 	H 	0.0931	0.2062	0.1709	0.155
Mof_H 	H 	0.0841	0.1524	0.2379	0.148
Mof_C 	C 	0.01709	0.14962	0.152	0.315
Mof_H 	H 	0.9948	0.1183	0.2237	-0.089
Mof_H 	H 	0.0194	0.1403	0.0167	-0.086
Mof_C 	C 	0.92216	0.25605	0.3954	0.291
Mof_C 	C 	0.90921	0.25111	0.6112	-0.659
Mof_H 	H 	0.9368	0.2797	0.6815	0.184
Mof_H 	H 	0.8783	0.2531	0.6291	0.218
Mof_C 	C 	0.8798	0.1779	0.633	-0.681
Mof_C 	C 	0.56764	0.53395	0.03453	0.912
Mof_Zn	Zn	0.63012	0.51442	0.75831	1.207
Mof_Zn	Zn	0.66046	0.55428	0.25994	1.197
Mof_O 	O 	0.66195	0.51489	0.48653	-0.61
Mof_O 	O 	0.61358	0.53191	0.03453	-0.695
Mof_N 	N 	0.69649	0.52316	0.87533	-0.266
Mof_N 	N 	0.71116	0.5385	0.06323	-0.155
Mof_N 	N 	0.75761	0.54773	0.09293	-0.072
Mof_N 	N 	0.7742	0.53779	0.92113	-0.246
Mof_N 	N 	0.58244	0.61773	0.59473	-0.272
Mof_N 	N 	0.5991	0.60952	0.42113	-0.095
Mof_N 	N 	0.61544	0.57735	0.45213	-0.176
Mof_N 	N 	0.60933	0.56383	0.64373	-0.265
Mof_C 	C 	0.7361	0.52302	0.79043	0.227
Mof_C 	C 	0.73709	0.50881	0.57853	-0.47
Mof_H 	H 	0.75977	0.53953	0.50423	0.156
Mof_H 	H 	0.75077	0.48573	0.57123	0.148
Mof_C 	C 	0.68376	0.48295	0.48533	0.319
Mof_H 	H 	0.66147	0.45163	0.55703	-0.092
Mof_H 	H 	0.68607	0.47363	0.35003	-0.087
Mof_C 	C 	0.58883	0.58938	0.72873	0.294
Mof_C 	C 	0.57588	0.58444	0.94453	-0.669
Mof_H 	H 	0.60347	0.61303	0.01483	0.186
Mof_H 	H 	0.54497	0.58643	0.96243	0.223
Mof_C 	C 	0.54647	0.51123	0.96633	-0.703
Mof_C 	C 	0.2343	0.86729	0.36787	0.893
Mof_Zn	Zn	0.29678	0.84775	0.09165	1.205
Mof_Zn	Zn	0.32712	0.88761	0.59328	1.197
Mof_O 	O 	0.32861	0.84823	0.81987	-0.606
Mof_O 	O 	0.28024	0.86525	0.36787	-0.696
Mof_N 	N 	0.36315	0.8565	0.20867	-0.261
Mof_N 	N 	0.37782	0.87184	0.39657	-0.16
Mof_N 	N 	0.42427	0.88107	0.42627	-0.076
Mof_N 	N 	0.44086	0.87113	0.25447	-0.239
Mof_N 	N 	0.2491	0.95107	0.92807	-0.267
Mof_N 	N 	0.26576	0.94286	0.75447	-0.095
Mof_N 	N 	0.2821	0.91069	0.78547	-0.175
Mof_N 	N 	0.27599	0.89717	0.97707	-0.258
Mof_C 	C 	0.40276	0.85636	0.12377	0.214
Mof_C 	C 	0.40375	0.84215	0.91187	-0.449
Mof_H 	H 	0.42643	0.87287	0.83757	0.152
Mof_H 	H 	0.41743	0.81907	0.90457	0.146
Mof_C 	C 	0.35042	0.81629	0.81867	0.309
Mof_H 	H 	0.32813	0.78497	0.89037	-0.084
Mof_H 	H 	0.35273	0.80697	0.68337	-0.085
Mof_C 	C 	0.25549	0.92272	0.06207	0.281
Mof_C 	C 	0.24254	0.91778	0.27787	-0.657
Mof_H 	H 	0.27013	0.94637	0.34817	0.184
Mof_H 	H 	0.21163	0.91977	0.29577	0.217
Mof_C 	C 	0.21313	0.84457	0.29967	-0.688
_end
