data_functionalizedCrystal
_audit_creation_method	'EQeq! by Chris Wilmer'
_symmetry_space_group_name_H-M	'P1'
_symmetry_Int_Tables_number	1
_symmetry_cell_setting	triclinic
loop_
_symmetry_equiv_pos_as_xyz
  x,y,z
_cell_length_a	17.855
_cell_length_b	23.8756
_cell_length_c	34.8405
_cell_angle_alpha	90
_cell_angle_beta	90
_cell_angle_gamma	90
loop_
_atom_site_label
_atom_site_type_symbol
_atom_site_fract_x
_atom_site_fract_y
_atom_site_fract_z
_atom_site_charge
Mof_K 	K 	0.9146	0.8373	0.7381	1.945
Mof_K 	K 	0.5854	0.1627	0.2381	1.938
Mof_K 	K 	0.0854	0.3373	0.7619	1.946
Mof_K 	K 	0.4146	0.6627	0.2619	1.939
Mof_Na	Na	0.4903	0.0596	0.8817	1.088
Mof_Na	Na	0.8868	0.3079	0.8309	1.515
Mof_Na	Na	0.9979	0.022	0.9488	1.161
Mof_Na	Na	0.0103	0.8714	0.9422	0.819
Mof_Na	Na	0.486	0.088	0.8813	1.189
Mof_Na	Na	0.0097	0.9404	0.3817	1.087
Mof_Na	Na	0.6132	0.6921	0.3309	1.517
Mof_Na	Na	0.5021	0.978	0.4488	1.171
Mof_Na	Na	0.4897	0.1286	0.4422	0.819
Mof_Na	Na	0.014	0.912	0.3813	1.185
Mof_Na	Na	0.5097	0.5596	0.6183	1.089
Mof_Na	Na	0.1132	0.8079	0.6691	1.515
Mof_Na	Na	0.0021	0.522	0.5512	1.175
Mof_Na	Na	0.9897	0.3714	0.5578	0.818
Mof_Na	Na	0.514	0.588	0.6187	1.19
Mof_Na	Na	0.9903	0.4404	0.1183	1.089
Mof_Na	Na	0.3868	0.1921	0.1691	1.517
Mof_Na	Na	0.4979	0.478	0.0512	1.172
Mof_Na	Na	0.5103	0.6286	0.0578	0.819
Mof_Na	Na	0.986	0.412	0.1187	1.191
Mof_Sm	Sm	0.6012	0.69386	0.96848	2.026
Mof_Sm	Sm	0.88071	0.80959	0.03675	2.12
Mof_Sm	Sm	0.31611	0.32837	0.85662	2.106
Mof_Sm	Sm	0.6858	0.32692	0.85955	2.12
Mof_Sm	Sm	0.89135	0.21399	0.72443	1.239
Mof_Sm	Sm	0.99666	0.20667	0.91056	1.947
Mof_Sm	Sm	0.8988	0.30614	0.46848	2.024
Mof_Sm	Sm	0.61929	0.19041	0.53675	2.119
Mof_Sm	Sm	0.18389	0.67163	0.35662	2.106
Mof_Sm	Sm	0.8142	0.67308	0.35955	2.12
Mof_Sm	Sm	0.60865	0.78601	0.22443	1.241
Mof_Sm	Sm	0.50334	0.79333	0.41056	1.952
Mof_Sm	Sm	0.3988	0.19386	0.53152	2.026
Mof_Sm	Sm	0.11929	0.30959	0.46325	2.119
Mof_Sm	Sm	0.68389	0.82837	0.64338	2.106
Mof_Sm	Sm	0.3142	0.82692	0.64045	2.119
Mof_Sm	Sm	0.10865	0.71399	0.77557	1.24
Mof_Sm	Sm	0.00334	0.70667	0.58944	1.951
Mof_Sm	Sm	0.1012	0.80614	0.03152	2.018
Mof_Sm	Sm	0.38071	0.69041	0.96325	2.119
Mof_Sm	Sm	0.81611	0.17163	0.14338	2.105
Mof_Sm	Sm	0.1858	0.17308	0.14045	2.12
Mof_Sm	Sm	0.39135	0.28601	0.27557	1.241
Mof_Sm	Sm	0.49666	0.29333	0.08944	1.952
Mof_Mn	Mn	0.3374	0.2191	0.6611	0.733
Mof_Mn	Mn	0.1626	0.7809	0.1611	0.733
Mof_Mn	Mn	0.6626	0.7191	0.8389	0.733
Mof_Mn	Mn	0.8374	0.2809	0.3389	0.733
Mof_P 	P 	0.4963	0.0193	0.77926	0.574
Mof_P 	P 	0.3725	0.0011	0.9576	0.582
Mof_P 	P 	0.6024	0.0044	0.9614	0.58
Mof_P 	P 	0.3066	0.0133	0.8462	0.566
Mof_P 	P 	0.6787	0.0154	0.8516	0.599
Mof_P 	P 	0.0037	0.9807	0.27926	0.57
Mof_P 	P 	0.1275	0.9989	0.4576	0.576
Mof_P 	P 	0.8976	0.9956	0.4614	0.585
Mof_P 	P 	0.1934	0.9867	0.3462	0.563
Mof_P 	P 	0.8213	0.9846	0.3516	0.601
Mof_P 	P 	0.5037	0.5193	0.72074	0.574
Mof_P 	P 	0.6275	0.5011	0.5424	0.581
Mof_P 	P 	0.3976	0.5044	0.5386	0.582
Mof_P 	P 	0.6934	0.5133	0.6538	0.565
Mof_P 	P 	0.3213	0.5154	0.6484	0.6
Mof_P 	P 	0.9963	0.4807	0.22074	0.575
Mof_P 	P 	0.8725	0.4989	0.0424	0.581
Mof_P 	P 	0.1024	0.4956	0.0386	0.581
Mof_P 	P 	0.8066	0.4867	0.1538	0.565
Mof_P 	P 	0.1787	0.4846	0.1484	0.6
Mof_H 	H 	0.7406	0.2245	0.9497	0.089
Mof_H 	H 	0.7715	0.2809	0.9663	0.052
Mof_H 	H 	0.9748	0.1174	0.8068	0.059
Mof_H 	H 	0.0489	0.153	0.8032	0.015
Mof_H 	H 	0.7281	0.7266	0.0919	0.024
Mof_H 	H 	0.6773	0.7803	0.0917	-0.007
Mof_H 	H 	0.1791	0.2655	0.966	0.034
Mof_H 	H 	0.2202	0.2138	0.9477	0.069
Mof_H 	H 	0.6501	0.2973	0.7426	0.076
Mof_H 	H 	0.6505	0.2367	0.7603	0.1
Mof_H 	H 	0.9679	0.7236	0.1393	0.072
Mof_H 	H 	0.9436	0.786	0.1471	0.033
Mof_H 	H 	0.4734	0.2445	0.9169	0.058
Mof_H 	H 	0.4761	0.3034	0.937	0.026
Mof_H 	H 	0.7594	0.7755	0.4497	0.089
Mof_H 	H 	0.7285	0.7191	0.4663	0.052
Mof_H 	H 	0.5252	0.8826	0.3068	0.058
Mof_H 	H 	0.4511	0.847	0.3032	0.011
Mof_H 	H 	0.7719	0.2734	0.5919	0.024
Mof_H 	H 	0.8227	0.2197	0.5917	-0.008
Mof_H 	H 	0.3209	0.7345	0.466	0.033
Mof_H 	H 	0.2798	0.7862	0.4477	0.069
Mof_H 	H 	0.8499	0.7027	0.2426	0.076
Mof_H 	H 	0.8495	0.7633	0.2603	0.1
Mof_H 	H 	0.5321	0.2764	0.6393	0.074
Mof_H 	H 	0.5564	0.214	0.6471	0.035
Mof_H 	H 	0.0266	0.7555	0.4169	0.057
Mof_H 	H 	0.0239	0.6966	0.437	0.025
Mof_H 	H 	0.2594	0.7245	0.5503	0.089
Mof_H 	H 	0.2285	0.7809	0.5337	0.052
Mof_H 	H 	0.0252	0.6174	0.6932	0.058
Mof_H 	H 	0.9511	0.653	0.6968	0.011
Mof_H 	H 	0.2719	0.2266	0.4081	0.024
Mof_H 	H 	0.3227	0.2803	0.4083	-0.007
Mof_H 	H 	0.8209	0.7655	0.534	0.033
Mof_H 	H 	0.7798	0.7138	0.5523	0.069
Mof_H 	H 	0.3499	0.7973	0.7574	0.076
Mof_H 	H 	0.3495	0.7367	0.7397	0.1
Mof_H 	H 	0.0321	0.2236	0.3607	0.073
Mof_H 	H 	0.0564	0.286	0.3529	0.034
Mof_H 	H 	0.5266	0.7445	0.5831	0.058
Mof_H 	H 	0.5239	0.8034	0.563	0.026
Mof_H 	H 	0.2406	0.2755	0.0503	0.089
Mof_H 	H 	0.2715	0.2191	0.0337	0.052
Mof_H 	H 	0.4748	0.3826	0.1932	0.058
Mof_H 	H 	0.5489	0.347	0.1968	0.011
Mof_H 	H 	0.2281	0.7734	0.9081	0.024
Mof_H 	H 	0.1773	0.7197	0.9083	-0.007
Mof_H 	H 	0.6791	0.2345	0.034	0.033
Mof_H 	H 	0.7202	0.2862	0.0523	0.069
Mof_H 	H 	0.1501	0.2027	0.2574	0.076
Mof_H 	H 	0.1505	0.2633	0.2397	0.1
Mof_H 	H 	0.4679	0.7764	0.8607	0.074
Mof_H 	H 	0.4436	0.714	0.8529	0.035
Mof_H 	H 	0.9734	0.2555	0.0831	0.057
Mof_H 	H 	0.9761	0.1966	0.063	0.026
Mof_W 	W 	0.83565	0.08445	0.88104	1.348
Mof_W 	W 	0.38816	0.86103	0.94486	1.471
Mof_W 	W 	0.14828	0.07988	0.88166	1.285
Mof_W 	W 	0.38519	0.06189	0.04713	0.944
Mof_W 	W 	0.49542	0.87783	0.78316	1.119
Mof_W 	W 	0.49572	0.15947	0.79357	1.109
Mof_W 	W 	0.59799	0.06589	0.04928	0.951
Mof_W 	W 	0.2111	0.06697	0.98596	0.992
Mof_W 	W 	0.21026	0.08749	0.77878	0.977
Mof_W 	W 	0.58789	0.14618	0.96056	1.051
Mof_W 	W 	0.7674	0.07522	0.98477	0.968
Mof_W 	W 	0.5972	0.86391	0.94862	1.447
Mof_W 	W 	0.38488	0.09246	0.71585	1.322
Mof_W 	W 	0.76574	0.09205	0.77944	1.408
Mof_W 	W 	0.32237	0.86995	0.84315	1.056
Mof_W 	W 	0.3786	0.14316	0.95667	1.051
Mof_W 	W 	0.58196	0.92743	0.04542	1.026
Mof_W 	W 	0.36829	0.92386	0.04013	0.99
Mof_W 	W 	0.6135	0.95656	0.71354	1.404
Mof_W 	W 	0.3228	0.15424	0.85318	1.398
Mof_W 	W 	0.65939	0.15535	0.86005	1.47
Mof_W 	W 	0.66298	0.87426	0.84707	1.456
Mof_W 	W 	0.40361	0.95463	0.70609	1.407
Mof_W 	W 	0.59622	0.09569	0.71356	1.042
Mof_W 	W 	0.20786	0.92937	0.97082	1.299
Mof_W 	W 	0.78084	0.95327	0.78081	1.376
Mof_W 	W 	0.76026	0.9357	0.98755	1.392
Mof_W 	W 	0.14722	0.94098	0.86627	0.875
Mof_W 	W 	0.22555	0.9495	0.76629	0.893
Mof_W 	W 	0.83292	0.94496	0.88552	0.896
Mof_W 	W 	0.66435	0.91555	0.38104	1.349
Mof_W 	W 	0.11184	0.13897	0.44486	1.471
Mof_W 	W 	0.35172	0.92012	0.38166	1.285
Mof_W 	W 	0.11481	0.93811	0.54713	0.94
Mof_W 	W 	0.00458	0.12217	0.28316	1.123
Mof_W 	W 	0.00428	0.84053	0.29357	1.105
Mof_W 	W 	0.90201	0.93411	0.54928	0.957
Mof_W 	W 	0.2889	0.93303	0.48596	0.986
Mof_W 	W 	0.28974	0.91251	0.27878	0.977
Mof_W 	W 	0.91211	0.85382	0.46056	1.053
Mof_W 	W 	0.7326	0.92478	0.48477	0.969
Mof_W 	W 	0.9028	0.13609	0.44862	1.445
Mof_W 	W 	0.11512	0.90754	0.21585	1.322
Mof_W 	W 	0.73426	0.90795	0.27944	1.409
Mof_W 	W 	0.17763	0.13005	0.34315	1.057
Mof_W 	W 	0.1214	0.85684	0.45667	1.05
Mof_W 	W 	0.91804	0.07257	0.54542	1.024
Mof_W 	W 	0.13171	0.07614	0.54013	0.991
Mof_W 	W 	0.8865	0.04344	0.21354	1.399
Mof_W 	W 	0.1772	0.84576	0.35318	1.398
Mof_W 	W 	0.84061	0.84465	0.36005	1.47
Mof_W 	W 	0.83702	0.12574	0.34707	1.455
Mof_W 	W 	0.09639	0.04537	0.20609	1.413
Mof_W 	W 	0.90378	0.90431	0.21356	1.046
Mof_W 	W 	0.29214	0.07063	0.47082	1.299
Mof_W 	W 	0.71916	0.04673	0.28081	1.371
Mof_W 	W 	0.73974	0.0643	0.48755	1.389
Mof_W 	W 	0.35278	0.05902	0.36627	0.878
Mof_W 	W 	0.27445	0.0505	0.26629	0.897
Mof_W 	W 	0.66708	0.05504	0.38552	0.891
Mof_W 	W 	0.16435	0.58445	0.61896	1.348
Mof_W 	W 	0.61184	0.36103	0.55514	1.471
Mof_W 	W 	0.85172	0.57988	0.61834	1.285
Mof_W 	W 	0.61481	0.56189	0.45287	0.943
Mof_W 	W 	0.50458	0.37783	0.71684	1.119
Mof_W 	W 	0.50428	0.65947	0.70643	1.109
Mof_W 	W 	0.40201	0.56589	0.45072	0.952
Mof_W 	W 	0.7889	0.56697	0.51404	0.988
Mof_W 	W 	0.78974	0.58749	0.72122	0.977
Mof_W 	W 	0.41211	0.64618	0.53944	1.05
Mof_W 	W 	0.2326	0.57522	0.51523	0.968
Mof_W 	W 	0.4028	0.36391	0.55138	1.447
Mof_W 	W 	0.61512	0.59246	0.78415	1.322
Mof_W 	W 	0.23426	0.59205	0.72056	1.409
Mof_W 	W 	0.67763	0.36995	0.65685	1.056
Mof_W 	W 	0.6214	0.64316	0.54333	1.05
Mof_W 	W 	0.41804	0.42743	0.45458	1.026
Mof_W 	W 	0.63171	0.42386	0.45987	0.991
Mof_W 	W 	0.3865	0.45656	0.78646	1.404
Mof_W 	W 	0.6772	0.65424	0.64682	1.398
Mof_W 	W 	0.34061	0.65535	0.63995	1.47
Mof_W 	W 	0.33702	0.37426	0.65293	1.456
Mof_W 	W 	0.59639	0.45463	0.79391	1.408
Mof_W 	W 	0.40378	0.59569	0.78644	1.043
Mof_W 	W 	0.79214	0.42937	0.52918	1.299
Mof_W 	W 	0.21916	0.45327	0.71919	1.374
Mof_W 	W 	0.23974	0.4357	0.51245	1.391
Mof_W 	W 	0.85278	0.44098	0.63373	0.878
Mof_W 	W 	0.77445	0.4495	0.73371	0.896
Mof_W 	W 	0.16708	0.44496	0.61448	0.893
Mof_W 	W 	0.33565	0.41555	0.11896	1.348
Mof_W 	W 	0.88816	0.63897	0.05514	1.471
Mof_W 	W 	0.64828	0.42012	0.11834	1.285
Mof_W 	W 	0.88519	0.43811	0.95287	0.943
Mof_W 	W 	0.99542	0.62217	0.21684	1.122
Mof_W 	W 	0.99572	0.34053	0.20643	1.108
Mof_W 	W 	0.09799	0.43411	0.95072	0.953
Mof_W 	W 	0.7111	0.43303	0.01404	0.988
Mof_W 	W 	0.71026	0.41251	0.22122	0.977
Mof_W 	W 	0.08789	0.35382	0.03944	1.049
Mof_W 	W 	0.2674	0.42478	0.01523	0.967
Mof_W 	W 	0.0972	0.63609	0.05138	1.444
Mof_W 	W 	0.88488	0.40754	0.28415	1.322
Mof_W 	W 	0.26574	0.40795	0.22056	1.409
Mof_W 	W 	0.82237	0.63005	0.15685	1.057
Mof_W 	W 	0.8786	0.35684	0.04333	1.05
Mof_W 	W 	0.08196	0.57257	0.95458	1.027
Mof_W 	W 	0.86829	0.57614	0.95987	0.99
Mof_W 	W 	0.1135	0.54344	0.28646	1.404
Mof_W 	W 	0.8228	0.34576	0.14682	1.398
Mof_W 	W 	0.15939	0.34465	0.13995	1.47
Mof_W 	W 	0.16298	0.62574	0.15293	1.455
Mof_W 	W 	0.90361	0.54537	0.29391	1.409
Mof_W 	W 	0.09622	0.40431	0.28644	1.043
Mof_W 	W 	0.70786	0.57063	0.02918	1.299
Mof_W 	W 	0.28084	0.54673	0.21919	1.374
Mof_W 	W 	0.26026	0.5643	0.01245	1.389
Mof_W 	W 	0.64722	0.55902	0.13373	0.878
Mof_W 	W 	0.72555	0.5505	0.23371	0.896
Mof_W 	W 	0.33292	0.55504	0.11448	0.893
Mof_C 	C 	0.7543	0.2626	0.9431	-0.249
Mof_C 	C 	0.7436	0.2819	0.7747	0.547
Mof_C 	C 	0.996	0.1513	0.7962	-0.115
Mof_C 	C 	0.03	0.7808	0.1066	0.452
Mof_C 	C 	0.7213	0.7632	0.0803	-0.14
Mof_C 	C 	0.1755	0.2368	0.9464	-0.16
Mof_C 	C 	0.6625	0.2757	0.7653	-0.271
Mof_C 	C 	0.9528	0.2053	0.8114	0.431
Mof_C 	C 	0.9861	0.7616	0.1426	-0.154
Mof_C 	C 	0.1703	0.2646	0.9064	0.483
Mof_C 	C 	0.488	0.3075	0.8803	0.435
Mof_C 	C 	0.71	0.7569	0.0398	0.406
Mof_C 	C 	0.458	0.2833	0.9147	-0.203
Mof_C 	C 	0.8132	0.2612	0.9167	0.448
Mof_C 	C 	0.7457	0.7374	0.4431	-0.25
Mof_C 	C 	0.7564	0.7181	0.2747	0.547
Mof_C 	C 	0.504	0.8487	0.2962	-0.109
Mof_C 	C 	0.47	0.2192	0.6066	0.459
Mof_C 	C 	0.7787	0.2368	0.5803	-0.14
Mof_C 	C 	0.3245	0.7632	0.4464	-0.16
Mof_C 	C 	0.8375	0.7243	0.2653	-0.271
Mof_C 	C 	0.5472	0.7947	0.3114	0.43
Mof_C 	C 	0.5139	0.2384	0.6426	-0.163
Mof_C 	C 	0.3297	0.7354	0.4064	0.483
Mof_C 	C 	0.012	0.6925	0.3803	0.433
Mof_C 	C 	0.79	0.2431	0.5398	0.406
Mof_C 	C 	0.042	0.7167	0.4147	-0.202
Mof_C 	C 	0.6868	0.7388	0.4167	0.448
Mof_C 	C 	0.2457	0.7626	0.5569	-0.25
Mof_C 	C 	0.2564	0.7819	0.7253	0.547
Mof_C 	C 	0.004	0.6513	0.7038	-0.11
Mof_C 	C 	0.97	0.2808	0.3934	0.455
Mof_C 	C 	0.2787	0.2632	0.4197	-0.14
Mof_C 	C 	0.8245	0.7368	0.5536	-0.16
Mof_C 	C 	0.3375	0.7757	0.7347	-0.271
Mof_C 	C 	0.0472	0.7053	0.6886	0.43
Mof_C 	C 	0.0139	0.2616	0.3574	-0.158
Mof_C 	C 	0.8297	0.7646	0.5936	0.483
Mof_C 	C 	0.512	0.8075	0.6197	0.435
Mof_C 	C 	0.29	0.2569	0.4602	0.406
Mof_C 	C 	0.542	0.7833	0.5853	-0.203
Mof_C 	C 	0.1868	0.7612	0.5833	0.448
Mof_C 	C 	0.2543	0.2374	0.0569	-0.249
Mof_C 	C 	0.2436	0.2181	0.2253	0.547
Mof_C 	C 	0.496	0.3487	0.2038	-0.109
Mof_C 	C 	0.53	0.7192	0.8934	0.459
Mof_C 	C 	0.2213	0.7368	0.9197	-0.14
Mof_C 	C 	0.6755	0.2632	0.0536	-0.16
Mof_C 	C 	0.1625	0.2243	0.2347	-0.271
Mof_C 	C 	0.4528	0.2947	0.1886	0.43
Mof_C 	C 	0.4861	0.7384	0.8574	-0.163
Mof_C 	C 	0.6703	0.2354	0.0936	0.483
Mof_C 	C 	0.988	0.1925	0.1197	0.433
Mof_C 	C 	0.21	0.7431	0.9602	0.405
Mof_C 	C 	0.958	0.2167	0.0853	-0.202
Mof_C 	C 	0.3132	0.2388	0.0833	0.448
Mof_O 	O 	0.652	0.7312	0.0256	-0.55
Mof_O 	O 	0.7595	0.7768	0.0162	-0.528
Mof_O 	O 	0.9739	0.2219	0.8469	-0.709
Mof_O 	O 	0.1104	0.2027	0.9534	-0.408
Mof_O 	O 	0.8744	0.2324	0.9217	-0.635
Mof_O 	O 	0.376	0.2866	0.913	-0.381
Mof_O 	O 	0.4526	0.324	0.853	-0.539
Mof_O 	O 	0.5639	0.3105	0.8795	-0.532
Mof_O 	O 	0.6178	0.2973	0.8003	-0.304
Mof_O 	O 	0.11	0.2558	0.8885	-0.602
Mof_O 	O 	0.2221	0.2971	0.899	-0.627
Mof_O 	O 	0.6878	0.2918	0.9289	-0.342
Mof_O 	O 	0.7645	0.3	0.8057	-0.801
Mof_O 	O 	0.8044	0.2893	0.8823	-0.737
Mof_O 	O 	0.7844	0.2584	0.7486	-0.584
Mof_O 	O 	0.9261	0.2389	0.7896	-0.801
Mof_O 	O 	0.9876	0.153	0.756	-0.394
Mof_O 	O 	0.9913	0.8753	0.0163	-0.648
Mof_O 	O 	0.4911	0.7342	0.9992	-0.592
Mof_O 	O 	0.9885	0.7939	0.0783	-0.675
Mof_O 	O 	0.0984	0.783	0.1074	-0.556
Mof_O 	O 	0.0355	0.7643	0.173	-0.237
Mof_O 	O 	0.7855	0.7972	0.088	-0.393
Mof_O 	O 	0.7514	0.1332	0.8836	-0.515
Mof_O 	O 	0.6933	0.9338	0.0266	-0.497
Mof_O 	O 	0.6256	0.026	0.6867	-0.491
Mof_O 	O 	0.5655	0.8707	0.8239	-0.479
Mof_O 	O 	0.2311	0.8923	0.8679	-0.477
Mof_O 	O 	0.4921	0.8594	0.9386	-0.522
Mof_O 	O 	0.2282	0.1299	0.876	-0.498
Mof_O 	O 	0.6982	0.8887	0.9572	-0.526
Mof_O 	O 	0.4841	0.147	0.9502	-0.579
Mof_O 	O 	0.2849	0.881	0.9504	-0.511
Mof_O 	O 	0.8144	0.074	0.9392	-0.527
Mof_O 	O 	0.3651	0.155	0.9039	-0.58
Mof_O 	O 	0.7016	0.9625	0.7394	-0.516
Mof_O 	O 	0.1758	0.0213	0.753	-0.475
Mof_O 	O 	0.8176	0.0243	0.7641	-0.531
Mof_O 	O 	0.37	0.8624	0.8904	-0.485
Mof_O 	O 	0.1629	0.066	0.9332	-0.545
Mof_O 	O 	0.2819	0.017	0.8036	-0.346
Mof_O 	O 	0.6101	0.1552	0.9064	-0.598
Mof_O 	O 	0.4286	0.022	0.7512	-0.415
Mof_O 	O 	0.8055	0.0047	0.0037	-0.548
Mof_O 	O 	0.8302	0.0848	0.8285	-0.493
Mof_O 	O 	0.4247	0.904	0.7446	-0.504
Mof_O 	O 	0.569	0.0221	0.753	-0.396
Mof_O 	O 	0.6315	0.0659	0.8596	-0.535
Mof_O 	O 	0.696	0.0888	0.7413	-0.5
Mof_O 	O 	0.5667	0.1592	0.8334	-0.603
Mof_O 	O 	0.2842	0.9992	0.957	-0.386
Mof_O 	O 	0.5759	0.8829	0.0018	-0.493
Mof_O 	O 	0.7079	0.1351	0.8114	-0.527
Mof_O 	O 	0.6945	0.0656	0.0326	-0.462
Mof_O 	O 	0.7106	0.9002	0.8016	-0.547
Mof_O 	O 	0.075	0.1293	0.8836	-0.597
Mof_O 	O 	0.4818	0.9292	0.0513	-0.47
Mof_O 	O 	0.0922	0.0104	0.8746	-0.554
Mof_O 	O 	0.8898	0.0137	0.8859	-0.59
Mof_O 	O 	0.494	0.0704	0.8068	-0.503
Mof_O 	O 	0.4994	0.0927	0.7005	-0.464
Mof_O 	O 	0.3978	0.1127	0.0082	-0.482
Mof_O 	O 	0.6107	0.7917	0.9554	-0.615
Mof_O 	O 	0.2742	0.0583	0.0261	-0.474
Mof_O 	O 	0.5036	0.9596	0.6952	-0.5
Mof_O 	O 	0.1472	0.8791	0.9914	-0.709
Mof_O 	O 	0.2814	0.1375	0.8063	-0.503
Mof_O 	O 	0.4035	0.9503	0.9366	-0.383
Mof_O 	O 	0.5742	0.9978	0.0043	-0.353
Mof_O 	O 	0.7538	0.8942	0.8739	-0.508
Mof_O 	O 	0.5704	0.141	0.7552	-0.47
Mof_O 	O 	0.2767	0.1204	0.962	-0.455
Mof_O 	O 	0.3999	0.0557	0.9403	-0.501
Mof_O 	O 	0.6902	0.1235	0.9669	-0.457
Mof_O 	O 	0.8233	0.1413	0.7583	-0.563
Mof_O 	O 	0.3578	0.9899	0.0697	-0.494
Mof_O 	O 	0.4206	0.8717	0.8207	-0.452
Mof_O 	O 	0.4943	0.9652	0.8024	-0.352
Mof_O 	O 	0.3645	0.1378	0.6788	-0.544
Mof_O 	O 	0.2947	0.0824	0.7382	-0.488
Mof_O 	O 	0.5739	0.0572	0.9424	-0.489
Mof_O 	O 	0.6878	0.8074	0.8411	-0.599
Mof_O 	O 	0.7493	0.0144	0.8778	-0.391
Mof_O 	O 	0.6336	0.9609	0.8559	-0.386
Mof_O 	O 	0.3527	0.9597	0.8523	-0.327
Mof_O 	O 	0.6402	0.913	0.6761	-0.655
Mof_O 	O 	0.6787	0.2248	0.8589	-0.599
Mof_O 	O 	0.421	0.157	0.8321	-0.62
Mof_O 	O 	0.3772	0.0264	0.6844	-0.514
Mof_O 	O 	0.3752	0.9101	0.6714	-0.664
Mof_O 	O 	0.4849	0.0558	0.0549	-0.481
Mof_O 	O 	0.7121	0.0206	0.8092	-0.425
Mof_O 	O 	0.1622	0.9393	0.9249	-0.566
Mof_O 	O 	0.8323	0.9544	0.8252	-0.537
Mof_O 	O 	0.3049	0.2262	0.8504	-0.611
Mof_O 	O 	0.3509	0.067	0.8562	-0.535
Mof_O 	O 	0.8244	0.8885	0.0056	-0.71
Mof_O 	O 	0.1532	0.0818	0.8214	-0.459
Mof_O 	O 	0.5717	0.9053	0.7479	-0.513
Mof_O 	O 	0.5687	0.117	0.0102	-0.483
Mof_O 	O 	0.1623	0.9971	0.9931	-0.563
Mof_O 	O 	0.6905	0.0054	0.9611	-0.378
Mof_O 	O 	0.6044	0.9953	0.0745	-0.487
Mof_O 	O 	0.4203	0.1402	0.7554	-0.493
Mof_O 	O 	0.2995	0.9589	0.7301	-0.483
Mof_O 	O 	0.3975	0.9974	0.0011	-0.346
Mof_O 	O 	0.6161	0.8659	0.8951	-0.514
Mof_O 	O 	0.2328	0.0107	0.8709	-0.367
Mof_O 	O 	0.2804	0.8977	0.7957	-0.481
Mof_O 	O 	0.2749	0.9286	0.02	-0.492
Mof_O 	O 	0.3993	0.8797	0.9974	-0.507
Mof_O 	O 	0.1579	0.9489	0.815	-0.498
Mof_O 	O 	0.3741	0.79	0.9515	-0.63
Mof_O 	O 	0.5769	0.9536	0.9392	-0.375
Mof_O 	O 	0.8134	0.9452	0.9378	-0.538
Mof_O 	O 	0.8372	0.9087	0.7531	-0.839
Mof_O 	O 	0.91	0.1286	0.8876	-0.621
Mof_O 	O 	0.2305	0.3247	0.8016	-0.611
Mof_O 	O 	0.848	0.2688	0.5256	-0.55
Mof_O 	O 	0.7405	0.2232	0.5162	-0.528
Mof_O 	O 	0.5261	0.7781	0.3469	-0.709
Mof_O 	O 	0.3896	0.7973	0.4534	-0.41
Mof_O 	O 	0.6256	0.7676	0.4217	-0.636
Mof_O 	O 	0.124	0.7134	0.413	-0.381
Mof_O 	O 	0.0474	0.676	0.353	-0.538
Mof_O 	O 	0.9361	0.6895	0.3795	-0.53
Mof_O 	O 	0.8822	0.7027	0.3003	-0.304
Mof_O 	O 	0.39	0.7442	0.3885	-0.604
Mof_O 	O 	0.2779	0.7029	0.399	-0.627
Mof_O 	O 	0.8122	0.7082	0.4289	-0.342
Mof_O 	O 	0.7355	0.7	0.3057	-0.801
Mof_O 	O 	0.6956	0.7107	0.3823	-0.737
Mof_O 	O 	0.7156	0.7416	0.2486	-0.584
Mof_O 	O 	0.5739	0.7611	0.2896	-0.801
Mof_O 	O 	0.5124	0.847	0.256	-0.394
Mof_O 	O 	0.5087	0.1247	0.5163	-0.651
Mof_O 	O 	0.0089	0.2658	0.4992	-0.59
Mof_O 	O 	0.5115	0.2061	0.5783	-0.679
Mof_O 	O 	0.4016	0.217	0.6074	-0.558
Mof_O 	O 	0.4645	0.2357	0.673	-0.234
Mof_O 	O 	0.7145	0.2028	0.588	-0.393
Mof_O 	O 	0.7486	0.8668	0.3836	-0.515
Mof_O 	O 	0.8067	0.0662	0.5266	-0.497
Mof_O 	O 	0.8744	0.974	0.1867	-0.488
Mof_O 	O 	0.9345	0.1293	0.3239	-0.481
Mof_O 	O 	0.2689	0.1077	0.3679	-0.477
Mof_O 	O 	0.0079	0.1406	0.4386	-0.52
Mof_O 	O 	0.2718	0.8701	0.376	-0.498
Mof_O 	O 	0.8018	0.1113	0.4572	-0.526
Mof_O 	O 	0.0159	0.853	0.4502	-0.58
Mof_O 	O 	0.2151	0.119	0.4504	-0.511
Mof_O 	O 	0.6856	0.926	0.4392	-0.527
Mof_O 	O 	0.1349	0.845	0.4039	-0.58
Mof_O 	O 	0.7984	0.0375	0.2394	-0.516
Mof_O 	O 	0.3242	0.9787	0.253	-0.477
Mof_O 	O 	0.6824	0.9757	0.2641	-0.528
Mof_O 	O 	0.13	0.1376	0.3904	-0.484
Mof_O 	O 	0.3371	0.934	0.4332	-0.546
Mof_O 	O 	0.2181	0.983	0.3036	-0.347
Mof_O 	O 	0.8899	0.8448	0.4064	-0.597
Mof_O 	O 	0.0714	0.978	0.2512	-0.416
Mof_O 	O 	0.6945	0.9953	0.5037	-0.546
Mof_O 	O 	0.6698	0.9152	0.3285	-0.493
Mof_O 	O 	0.0753	0.096	0.2446	-0.504
Mof_O 	O 	0.931	0.9779	0.253	-0.392
Mof_O 	O 	0.8685	0.9341	0.3596	-0.534
Mof_O 	O 	0.804	0.9112	0.2413	-0.5
Mof_O 	O 	0.9333	0.8408	0.3334	-0.601
Mof_O 	O 	0.2158	0.0008	0.457	-0.383
Mof_O 	O 	0.9241	0.1171	0.5018	-0.493
Mof_O 	O 	0.7921	0.8649	0.3114	-0.527
Mof_O 	O 	0.8055	0.9344	0.5326	-0.462
Mof_O 	O 	0.7894	0.0998	0.3016	-0.546
Mof_O 	O 	0.425	0.8707	0.3836	-0.599
Mof_O 	O 	0.0182	0.0708	0.5513	-0.467
Mof_O 	O 	0.4078	0.9896	0.3746	-0.557
Mof_O 	O 	0.6102	0.9863	0.3859	-0.588
Mof_O 	O 	0.006	0.9296	0.3068	-0.502
Mof_O 	O 	0.0006	0.9073	0.2005	-0.466
Mof_O 	O 	0.1022	0.8873	0.5082	-0.481
Mof_O 	O 	0.8893	0.2083	0.4554	-0.615
Mof_O 	O 	0.2258	0.9417	0.5261	-0.473
Mof_O 	O 	0.9964	0.0404	0.1952	-0.502
Mof_O 	O 	0.3528	0.1209	0.4914	-0.71
Mof_O 	O 	0.2186	0.8625	0.3063	-0.503
Mof_O 	O 	0.0965	0.0497	0.4366	-0.38
Mof_O 	O 	0.9258	0.0022	0.5043	-0.357
Mof_O 	O 	0.7462	0.1058	0.3739	-0.508
Mof_O 	O 	0.9296	0.859	0.2552	-0.468
Mof_O 	O 	0.2233	0.8796	0.462	-0.454
Mof_O 	O 	0.1001	0.9443	0.4403	-0.5
Mof_O 	O 	0.8098	0.8765	0.4669	-0.458
Mof_O 	O 	0.6767	0.8587	0.2583	-0.564
Mof_O 	O 	0.1422	0.0101	0.5697	-0.492
Mof_O 	O 	0.0794	0.1283	0.3207	-0.452
Mof_O 	O 	0.0057	0.0348	0.3024	-0.349
Mof_O 	O 	0.1355	0.8622	0.1788	-0.544
Mof_O 	O 	0.2053	0.9176	0.2382	-0.489
Mof_O 	O 	0.9261	0.9428	0.4424	-0.488
Mof_O 	O 	0.8122	0.1926	0.3411	-0.599
Mof_O 	O 	0.7507	0.9856	0.3778	-0.389
Mof_O 	O 	0.8664	0.0391	0.3559	-0.389
Mof_O 	O 	0.1473	0.0403	0.3523	-0.325
Mof_O 	O 	0.8598	0.087	0.1761	-0.655
Mof_O 	O 	0.8213	0.7752	0.3589	-0.599
Mof_O 	O 	0.079	0.843	0.3321	-0.619
Mof_O 	O 	0.1228	0.9736	0.1844	-0.516
Mof_O 	O 	0.1248	0.0899	0.1714	-0.664
Mof_O 	O 	0.0151	0.9442	0.5549	-0.482
Mof_O 	O 	0.7879	0.9794	0.3092	-0.424
Mof_O 	O 	0.3378	0.0607	0.4249	-0.566
Mof_O 	O 	0.6677	0.0456	0.3252	-0.538
Mof_O 	O 	0.1951	0.7738	0.3504	-0.611
Mof_O 	O 	0.1491	0.933	0.3562	-0.534
Mof_O 	O 	0.6756	0.1115	0.5056	-0.71
Mof_O 	O 	0.3468	0.9182	0.3214	-0.459
Mof_O 	O 	0.9283	0.0947	0.2479	-0.514
Mof_O 	O 	0.9313	0.883	0.5102	-0.482
Mof_O 	O 	0.3377	0.0029	0.4931	-0.562
Mof_O 	O 	0.8095	0.9946	0.4611	-0.376
Mof_O 	O 	0.8956	0.0047	0.5745	-0.49
Mof_O 	O 	0.0797	0.8598	0.2554	-0.493
Mof_O 	O 	0.2005	0.0411	0.2301	-0.483
Mof_O 	O 	0.1025	0.0026	0.5011	-0.342
Mof_O 	O 	0.8839	0.1341	0.3951	-0.514
Mof_O 	O 	0.2672	0.9893	0.3709	-0.369
Mof_O 	O 	0.2196	0.1023	0.2957	-0.481
Mof_O 	O 	0.2251	0.0714	0.52	-0.491
Mof_O 	O 	0.1007	0.1203	0.4974	-0.507
Mof_O 	O 	0.3421	0.0511	0.315	-0.497
Mof_O 	O 	0.1259	0.21	0.4515	-0.63
Mof_O 	O 	0.9231	0.0464	0.4392	-0.378
Mof_O 	O 	0.6866	0.0548	0.4378	-0.538
Mof_O 	O 	0.6628	0.0913	0.2531	-0.838
Mof_O 	O 	0.59	0.8714	0.3876	-0.621
Mof_O 	O 	0.2695	0.6753	0.3016	-0.611
Mof_O 	O 	0.348	0.2312	0.4744	-0.55
Mof_O 	O 	0.2405	0.2768	0.4838	-0.528
Mof_O 	O 	0.0261	0.7219	0.6531	-0.709
Mof_O 	O 	0.8896	0.7027	0.5466	-0.409
Mof_O 	O 	0.1256	0.7324	0.5783	-0.636
Mof_O 	O 	0.624	0.7866	0.587	-0.381
Mof_O 	O 	0.5474	0.824	0.647	-0.539
Mof_O 	O 	0.4361	0.8105	0.6205	-0.532
Mof_O 	O 	0.3822	0.7973	0.6997	-0.304
Mof_O 	O 	0.89	0.7558	0.6115	-0.603
Mof_O 	O 	0.7779	0.7971	0.601	-0.627
Mof_O 	O 	0.3122	0.7918	0.5711	-0.342
Mof_O 	O 	0.2355	0.8	0.6943	-0.801
Mof_O 	O 	0.1956	0.7893	0.6177	-0.737
Mof_O 	O 	0.2156	0.7584	0.7514	-0.584
Mof_O 	O 	0.0739	0.7389	0.7104	-0.801
Mof_O 	O 	0.0124	0.653	0.744	-0.394
Mof_O 	O 	0.0087	0.3753	0.4837	-0.65
Mof_O 	O 	0.5089	0.2342	0.5008	-0.592
Mof_O 	O 	0.0115	0.2939	0.4217	-0.677
Mof_O 	O 	0.9016	0.283	0.3926	-0.557
Mof_O 	O 	0.9645	0.2643	0.327	-0.236
Mof_O 	O 	0.2145	0.2972	0.412	-0.393
Mof_O 	O 	0.2486	0.6332	0.6164	-0.515
Mof_O 	O 	0.3067	0.4338	0.4734	-0.497
Mof_O 	O 	0.3744	0.526	0.8133	-0.49
Mof_O 	O 	0.4345	0.3707	0.6761	-0.479
Mof_O 	O 	0.7689	0.3923	0.6321	-0.477
Mof_O 	O 	0.5079	0.3594	0.5614	-0.522
Mof_O 	O 	0.7718	0.6299	0.624	-0.498
Mof_O 	O 	0.3018	0.3887	0.5428	-0.526
Mof_O 	O 	0.5159	0.647	0.5498	-0.579
Mof_O 	O 	0.7151	0.381	0.5496	-0.511
Mof_O 	O 	0.1856	0.574	0.5608	-0.527
Mof_O 	O 	0.6349	0.655	0.5961	-0.58
Mof_O 	O 	0.2984	0.4625	0.7606	-0.516
Mof_O 	O 	0.8242	0.5213	0.747	-0.476
Mof_O 	O 	0.1824	0.5243	0.7359	-0.529
Mof_O 	O 	0.63	0.3624	0.6096	-0.485
Mof_O 	O 	0.8371	0.566	0.5668	-0.546
Mof_O 	O 	0.7181	0.517	0.6964	-0.346
Mof_O 	O 	0.3899	0.6552	0.5936	-0.598
Mof_O 	O 	0.5714	0.522	0.7488	-0.415
Mof_O 	O 	0.1945	0.5047	0.4963	-0.546
Mof_O 	O 	0.1698	0.5848	0.6715	-0.493
Mof_O 	O 	0.5753	0.404	0.7554	-0.504
Mof_O 	O 	0.431	0.5221	0.747	-0.395
Mof_O 	O 	0.3685	0.5659	0.6404	-0.535
Mof_O 	O 	0.304	0.5888	0.7587	-0.5
Mof_O 	O 	0.4333	0.6592	0.6666	-0.603
Mof_O 	O 	0.7158	0.4992	0.543	-0.385
Mof_O 	O 	0.4241	0.3829	0.4982	-0.493
Mof_O 	O 	0.2921	0.6351	0.6886	-0.527
Mof_O 	O 	0.3055	0.5656	0.4674	-0.461
Mof_O 	O 	0.2894	0.4002	0.6984	-0.547
Mof_O 	O 	0.925	0.6293	0.6164	-0.599
Mof_O 	O 	0.5182	0.4292	0.4487	-0.47
Mof_O 	O 	0.9078	0.5104	0.6254	-0.557
Mof_O 	O 	0.1102	0.5137	0.6141	-0.589
Mof_O 	O 	0.506	0.5704	0.6932	-0.503
Mof_O 	O 	0.5006	0.5927	0.7995	-0.464
Mof_O 	O 	0.6022	0.6127	0.4918	-0.481
Mof_O 	O 	0.3893	0.2917	0.5446	-0.615
Mof_O 	O 	0.7258	0.5583	0.4739	-0.473
Mof_O 	O 	0.4964	0.4596	0.8048	-0.5
Mof_O 	O 	0.8528	0.3791	0.5086	-0.71
Mof_O 	O 	0.7186	0.6375	0.6937	-0.503
Mof_O 	O 	0.5965	0.4503	0.5634	-0.382
Mof_O 	O 	0.4258	0.4978	0.4957	-0.354
Mof_O 	O 	0.2462	0.3942	0.6261	-0.508
Mof_O 	O 	0.4296	0.641	0.7448	-0.47
Mof_O 	O 	0.7233	0.6204	0.538	-0.455
Mof_O 	O 	0.6001	0.5557	0.5597	-0.501
Mof_O 	O 	0.3098	0.6235	0.5331	-0.458
Mof_O 	O 	0.1767	0.6413	0.7417	-0.563
Mof_O 	O 	0.6422	0.4899	0.4303	-0.493
Mof_O 	O 	0.5794	0.3717	0.6793	-0.452
Mof_O 	O 	0.5057	0.4652	0.6976	-0.352
Mof_O 	O 	0.6355	0.6378	0.8212	-0.544
Mof_O 	O 	0.7053	0.5824	0.7618	-0.489
Mof_O 	O 	0.4261	0.5572	0.5576	-0.489
Mof_O 	O 	0.3122	0.3074	0.6589	-0.599
Mof_O 	O 	0.2507	0.5144	0.6222	-0.39
Mof_O 	O 	0.3664	0.4609	0.6441	-0.387
Mof_O 	O 	0.6473	0.4597	0.6477	-0.327
Mof_O 	O 	0.3598	0.413	0.8239	-0.655
Mof_O 	O 	0.3213	0.7248	0.6411	-0.599
Mof_O 	O 	0.579	0.657	0.6679	-0.62
Mof_O 	O 	0.6228	0.5264	0.8156	-0.514
Mof_O 	O 	0.6248	0.4101	0.8286	-0.664
Mof_O 	O 	0.5151	0.5558	0.4451	-0.48
Mof_O 	O 	0.2879	0.5206	0.6908	-0.424
Mof_O 	O 	0.8378	0.4393	0.5751	-0.566
Mof_O 	O 	0.1677	0.4544	0.6748	-0.538
Mof_O 	O 	0.6951	0.7262	0.6496	-0.611
Mof_O 	O 	0.6491	0.567	0.6438	-0.535
Mof_O 	O 	0.1756	0.3885	0.4944	-0.71
Mof_O 	O 	0.8468	0.5818	0.6786	-0.459
Mof_O 	O 	0.4283	0.4053	0.7521	-0.512
Mof_O 	O 	0.4313	0.617	0.4898	-0.482
Mof_O 	O 	0.8377	0.4971	0.5069	-0.562
Mof_O 	O 	0.3095	0.5054	0.5389	-0.377
Mof_O 	O 	0.3956	0.4953	0.4255	-0.488
Mof_O 	O 	0.5797	0.6402	0.7446	-0.493
Mof_O 	O 	0.7005	0.4589	0.7699	-0.483
Mof_O 	O 	0.6025	0.4974	0.4989	-0.345
Mof_O 	O 	0.3839	0.3659	0.6049	-0.514
Mof_O 	O 	0.7672	0.5107	0.6291	-0.368
Mof_O 	O 	0.7196	0.3977	0.7043	-0.481
Mof_O 	O 	0.7251	0.4286	0.48	-0.491
Mof_O 	O 	0.6007	0.3797	0.5026	-0.507
Mof_O 	O 	0.8421	0.4489	0.685	-0.497
Mof_O 	O 	0.6259	0.29	0.5485	-0.63
Mof_O 	O 	0.4231	0.4536	0.5608	-0.375
Mof_O 	O 	0.1866	0.4452	0.5622	-0.538
Mof_O 	O 	0.1628	0.4087	0.7469	-0.84
Mof_O 	O 	0.09	0.6286	0.6124	-0.621
Mof_O 	O 	0.7695	0.8247	0.6984	-0.611
Mof_O 	O 	0.152	0.7688	0.9744	-0.549
Mof_O 	O 	0.2595	0.7232	0.9838	-0.528
Mof_O 	O 	0.4739	0.2781	0.1531	-0.709
Mof_O 	O 	0.6104	0.2973	0.0466	-0.41
Mof_O 	O 	0.3744	0.2676	0.0783	-0.636
Mof_O 	O 	0.876	0.2134	0.087	-0.381
Mof_O 	O 	0.9526	0.176	0.147	-0.538
Mof_O 	O 	0.0639	0.1895	0.1205	-0.531
Mof_O 	O 	0.1178	0.2027	0.1997	-0.304
Mof_O 	O 	0.61	0.2442	0.1115	-0.604
Mof_O 	O 	0.7221	0.2029	0.101	-0.627
Mof_O 	O 	0.1878	0.2082	0.0711	-0.342
Mof_O 	O 	0.2645	0.2	0.1943	-0.801
Mof_O 	O 	0.3044	0.2107	0.1177	-0.737
Mof_O 	O 	0.2844	0.2416	0.2514	-0.584
Mof_O 	O 	0.4261	0.2611	0.2104	-0.801
Mof_O 	O 	0.4876	0.347	0.244	-0.394
Mof_O 	O 	0.4913	0.6247	0.9837	-0.651
Mof_O 	O 	0.9911	0.7658	0.0008	-0.59
Mof_O 	O 	0.4885	0.7061	0.9217	-0.679
Mof_O 	O 	0.5984	0.717	0.8926	-0.558
Mof_O 	O 	0.5355	0.7357	0.827	-0.234
Mof_O 	O 	0.2855	0.7028	0.912	-0.393
Mof_O 	O 	0.2514	0.3668	0.1164	-0.515
Mof_O 	O 	0.1933	0.5662	0.9734	-0.497
Mof_O 	O 	0.1256	0.474	0.3133	-0.49
Mof_O 	O 	0.0655	0.6293	0.1761	-0.48
Mof_O 	O 	0.7311	0.6077	0.1321	-0.477
Mof_O 	O 	0.9921	0.6406	0.0614	-0.52
Mof_O 	O 	0.7282	0.3701	0.124	-0.498
Mof_O 	O 	0.1982	0.6113	0.0428	-0.526
Mof_O 	O 	0.9841	0.353	0.0498	-0.579
Mof_O 	O 	0.7849	0.619	0.0496	-0.511
Mof_O 	O 	0.3144	0.426	0.0608	-0.527
Mof_O 	O 	0.8651	0.345	0.0961	-0.58
Mof_O 	O 	0.2016	0.5375	0.2606	-0.516
Mof_O 	O 	0.6758	0.4787	0.247	-0.476
Mof_O 	O 	0.3176	0.4757	0.2359	-0.529
Mof_O 	O 	0.87	0.6376	0.1096	-0.484
Mof_O 	O 	0.6629	0.434	0.0668	-0.546
Mof_O 	O 	0.7819	0.483	0.1964	-0.346
Mof_O 	O 	0.1101	0.3448	0.0936	-0.598
Mof_O 	O 	0.9286	0.478	0.2488	-0.415
Mof_O 	O 	0.3055	0.4953	0.9963	-0.545
Mof_O 	O 	0.3302	0.4152	0.1715	-0.493
Mof_O 	O 	0.9247	0.596	0.2554	-0.504
Mof_O 	O 	0.069	0.4779	0.247	-0.395
Mof_O 	O 	0.1315	0.4341	0.1404	-0.535
Mof_O 	O 	0.196	0.4112	0.2587	-0.5
Mof_O 	O 	0.0667	0.3408	0.1666	-0.603
Mof_O 	O 	0.7842	0.5008	0.043	-0.385
Mof_O 	O 	0.0759	0.6171	0.9982	-0.492
Mof_O 	O 	0.2079	0.3649	0.1886	-0.527
Mof_O 	O 	0.1945	0.4344	0.9674	-0.461
Mof_O 	O 	0.2106	0.5998	0.1984	-0.547
Mof_O 	O 	0.575	0.3707	0.1164	-0.599
Mof_O 	O 	0.9818	0.5708	0.9487	-0.47
Mof_O 	O 	0.5922	0.4896	0.1254	-0.557
Mof_O 	O 	0.3898	0.4863	0.1141	-0.589
Mof_O 	O 	0.994	0.4296	0.1932	-0.503
Mof_O 	O 	0.9994	0.4073	0.2995	-0.463
Mof_O 	O 	0.8978	0.3873	0.9918	-0.481
Mof_O 	O 	0.1107	0.7083	0.0446	-0.615
Mof_O 	O 	0.7742	0.4417	0.9739	-0.473
Mof_O 	O 	0.0036	0.5404	0.3048	-0.5
Mof_O 	O 	0.6472	0.6209	0.0086	-0.71
Mof_O 	O 	0.7814	0.3625	0.1937	-0.503
Mof_O 	O 	0.9035	0.5497	0.0634	-0.382
Mof_O 	O 	0.0742	0.5022	0.9957	-0.353
Mof_O 	O 	0.2538	0.6058	0.1261	-0.508
Mof_O 	O 	0.0704	0.359	0.2448	-0.47
Mof_O 	O 	0.7767	0.3796	0.038	-0.454
Mof_O 	O 	0.8999	0.4443	0.0597	-0.501
Mof_O 	O 	0.1902	0.3765	0.0331	-0.458
Mof_O 	O 	0.3233	0.3587	0.2417	-0.564
Mof_O 	O 	0.8578	0.5101	0.9303	-0.493
Mof_O 	O 	0.9206	0.6283	0.1793	-0.452
Mof_O 	O 	0.9943	0.5348	0.1976	-0.351
Mof_O 	O 	0.8645	0.3622	0.3212	-0.544
Mof_O 	O 	0.7947	0.4176	0.2618	-0.489
Mof_O 	O 	0.0739	0.4428	0.0576	-0.489
Mof_O 	O 	0.1878	0.6926	0.1589	-0.599
Mof_O 	O 	0.2493	0.4856	0.1222	-0.39
Mof_O 	O 	0.1336	0.5391	0.1441	-0.387
Mof_O 	O 	0.8527	0.5403	0.1477	-0.327
Mof_O 	O 	0.1402	0.587	0.3239	-0.655
Mof_O 	O 	0.1787	0.2752	0.1411	-0.599
Mof_O 	O 	0.921	0.343	0.1679	-0.62
Mof_O 	O 	0.8772	0.4736	0.3156	-0.514
Mof_O 	O 	0.8752	0.5899	0.3286	-0.664
Mof_O 	O 	0.9849	0.4442	0.9451	-0.481
Mof_O 	O 	0.2121	0.4794	0.1908	-0.424
Mof_O 	O 	0.6622	0.5607	0.0751	-0.566
Mof_O 	O 	0.3323	0.5456	0.1748	-0.538
Mof_O 	O 	0.8049	0.2738	0.1496	-0.611
Mof_O 	O 	0.8509	0.433	0.1438	-0.535
Mof_O 	O 	0.3244	0.6115	0.9944	-0.709
Mof_O 	O 	0.6532	0.4182	0.1786	-0.459
Mof_O 	O 	0.0717	0.5947	0.2521	-0.513
Mof_O 	O 	0.0687	0.383	0.9898	-0.481
Mof_O 	O 	0.6623	0.5029	0.0069	-0.562
Mof_O 	O 	0.1905	0.4946	0.0389	-0.376
Mof_O 	O 	0.1044	0.5047	0.9255	-0.487
Mof_O 	O 	0.9203	0.3598	0.2446	-0.493
Mof_O 	O 	0.7995	0.5411	0.2699	-0.483
Mof_O 	O 	0.8975	0.5026	0.9989	-0.346
Mof_O 	O 	0.1161	0.6341	0.1049	-0.514
Mof_O 	O 	0.7328	0.4893	0.1291	-0.368
Mof_O 	O 	0.7804	0.6023	0.2043	-0.481
Mof_O 	O 	0.7749	0.5714	0.98	-0.491
Mof_O 	O 	0.8993	0.6203	0.0026	-0.507
Mof_O 	O 	0.6579	0.5511	0.185	-0.497
Mof_O 	O 	0.8741	0.71	0.0485	-0.63
Mof_O 	O 	0.0769	0.5464	0.0608	-0.375
Mof_O 	O 	0.3134	0.5548	0.0622	-0.538
Mof_O 	O 	0.3372	0.5913	0.2469	-0.839
Mof_O 	O 	0.41	0.3714	0.1124	-0.621
Mof_O 	O 	0.7305	0.1753	0.1984	-0.611
_end
