data_functionalizedCrystal
_audit_creation_method	'EQeq! by Chris Wilmer'
_symmetry_space_group_name_H-M	'P1'
_symmetry_Int_Tables_number	1
_symmetry_cell_setting	triclinic
loop_
_symmetry_equiv_pos_as_xyz
  x,y,z
_cell_length_a	20.3177
_cell_length_b	20.3177
_cell_length_c	20.3177
_cell_angle_alpha	90
_cell_angle_beta	90
_cell_angle_gamma	90
loop_
_atom_site_label
_atom_site_type_symbol
_atom_site_fract_x
_atom_site_fract_y
_atom_site_fract_z
_atom_site_charge
Mof_O 	O 	0.1297	0.8146	0.2441	-0.442
Mof_O 	O 	0.0474	0.8839	0.2156	-0.33
Mof_N 	N 	0.997	0.6559	0.0089	-0.255
Mof_H 	H 	0.9608	0.67	0.9896	0.163
Mof_N 	N 	0.9908	0.5776	0.93	-0.178
Mof_C 	C 	0.0779	0.8315	0.209	0.353
Mof_C 	C 	0.0576	0.7838	0.1548	-0.188
Mof_C 	C 	0.0118	0.7992	0.1168	0.14
Mof_H 	H 	0.9911	0.8409	0.1211	-0.015
Mof_C 	C 	0.9906	0.7549	0.0675	-0.23
Mof_H 	H 	0.9571	0.7686	0.0379	0.105
Mof_C 	C 	0.0167	0.6929	0.0609	0.213
Mof_C 	C 	0.0733	0.6798	0.0998	-0.209
Mof_H 	H 	0.0982	0.6409	0.0927	0.117
Mof_C 	C 	0.0921	0.7241	0.1484	0.111
Mof_H 	H 	0.1278	0.7142	0.1769	0.012
Mof_C 	C 	0.0242	0.5988	0.9802	0.191
Mof_O 	O 	0.3703	0.1854	0.7441	-0.441
Mof_O 	O 	0.4526	0.1161	0.7156	-0.329
Mof_N 	N 	0.503	0.3441	0.5089	-0.254
Mof_H 	H 	0.5392	0.33	0.4896	0.163
Mof_N 	N 	0.5092	0.4224	0.43	-0.178
Mof_C 	C 	0.4221	0.1685	0.709	0.353
Mof_C 	C 	0.4424	0.2162	0.6548	-0.187
Mof_C 	C 	0.4882	0.2008	0.6168	0.138
Mof_H 	H 	0.5089	0.1591	0.6211	-0.014
Mof_C 	C 	0.5094	0.2451	0.5675	-0.229
Mof_H 	H 	0.5429	0.2314	0.5379	0.105
Mof_C 	C 	0.4833	0.3071	0.5609	0.212
Mof_C 	C 	0.4267	0.3202	0.5998	-0.208
Mof_H 	H 	0.4018	0.3591	0.5927	0.117
Mof_C 	C 	0.4079	0.2759	0.6484	0.111
Mof_H 	H 	0.3722	0.2858	0.6769	0.012
Mof_C 	C 	0.4758	0.4012	0.4802	0.191
Mof_O 	O 	0.8703	0.3146	0.2559	-0.441
Mof_O 	O 	0.9526	0.3839	0.2844	-0.329
Mof_N 	N 	0.003	0.1559	0.4911	-0.253
Mof_H 	H 	0.0392	0.17	0.5104	0.163
Mof_N 	N 	0.0092	0.0776	0.57	-0.178
Mof_C 	C 	0.9221	0.3315	0.291	0.353
Mof_C 	C 	0.9424	0.2838	0.3452	-0.187
Mof_C 	C 	0.9882	0.2992	0.3832	0.137
Mof_H 	H 	0.0089	0.3409	0.3789	-0.013
Mof_C 	C 	0.0094	0.2549	0.4325	-0.228
Mof_H 	H 	0.0429	0.2686	0.4621	0.104
Mof_C 	C 	0.9833	0.1929	0.4391	0.211
Mof_C 	C 	0.9267	0.1798	0.4002	-0.208
Mof_H 	H 	0.9018	0.1409	0.4073	0.117
Mof_C 	C 	0.9079	0.2241	0.3516	0.11
Mof_H 	H 	0.8722	0.2142	0.3231	0.012
Mof_C 	C 	0.9758	0.0988	0.5198	0.19
Mof_O 	O 	0.6297	0.6854	0.7559	-0.441
Mof_O 	O 	0.5474	0.6161	0.7844	-0.329
Mof_N 	N 	0.497	0.8441	0.9911	-0.254
Mof_H 	H 	0.4608	0.83	0.0104	0.164
Mof_N 	N 	0.4908	0.9224	0.07	-0.178
Mof_C 	C 	0.5779	0.6685	0.791	0.353
Mof_C 	C 	0.5576	0.7162	0.8452	-0.187
Mof_C 	C 	0.5118	0.7008	0.8832	0.138
Mof_H 	H 	0.4911	0.6591	0.8789	-0.014
Mof_C 	C 	0.4906	0.7451	0.9325	-0.229
Mof_H 	H 	0.4571	0.7314	0.9621	0.105
Mof_C 	C 	0.5167	0.8071	0.9391	0.212
Mof_C 	C 	0.5733	0.8202	0.9002	-0.208
Mof_H 	H 	0.5982	0.8591	0.9073	0.117
Mof_C 	C 	0.5921	0.7759	0.8516	0.111
Mof_H 	H 	0.6278	0.7858	0.8231	0.012
Mof_C 	C 	0.5242	0.9012	0.0198	0.191
Mof_O 	O 	0.2441	0.1297	0.8146	-0.441
Mof_O 	O 	0.2156	0.0474	0.8839	-0.329
Mof_N 	N 	0.0089	0.997	0.6559	-0.254
Mof_H 	H 	0.9896	0.9608	0.67	0.163
Mof_N 	N 	0.93	0.9908	0.5776	-0.178
Mof_C 	C 	0.209	0.0779	0.8315	0.353
Mof_C 	C 	0.1548	0.0576	0.7838	-0.188
Mof_C 	C 	0.1168	0.0118	0.7992	0.14
Mof_H 	H 	0.1211	0.9911	0.8409	-0.015
Mof_C 	C 	0.0675	0.9906	0.7549	-0.23
Mof_H 	H 	0.0379	0.9571	0.7686	0.105
Mof_C 	C 	0.0609	0.0167	0.6929	0.213
Mof_C 	C 	0.0998	0.0733	0.6798	-0.209
Mof_H 	H 	0.0927	0.0982	0.6409	0.117
Mof_C 	C 	0.1484	0.0921	0.7241	0.111
Mof_H 	H 	0.1769	0.1278	0.7142	0.012
Mof_C 	C 	0.9802	0.0242	0.5988	0.191
Mof_O 	O 	0.7441	0.3703	0.1854	-0.441
Mof_O 	O 	0.7156	0.4526	0.1161	-0.329
Mof_N 	N 	0.5089	0.503	0.3441	-0.254
Mof_H 	H 	0.4896	0.5392	0.33	0.163
Mof_N 	N 	0.43	0.5092	0.4224	-0.178
Mof_C 	C 	0.709	0.4221	0.1685	0.353
Mof_C 	C 	0.6548	0.4424	0.2162	-0.187
Mof_C 	C 	0.6168	0.4882	0.2008	0.138
Mof_H 	H 	0.6211	0.5089	0.1591	-0.014
Mof_C 	C 	0.5675	0.5094	0.2451	-0.229
Mof_H 	H 	0.5379	0.5429	0.2314	0.105
Mof_C 	C 	0.5609	0.4833	0.3071	0.212
Mof_C 	C 	0.5998	0.4267	0.3202	-0.208
Mof_H 	H 	0.5927	0.4018	0.3591	0.117
Mof_C 	C 	0.6484	0.4079	0.2759	0.111
Mof_H 	H 	0.6769	0.3722	0.2858	0.012
Mof_C 	C 	0.4802	0.4758	0.4012	0.191
Mof_O 	O 	0.2559	0.8703	0.3146	-0.441
Mof_O 	O 	0.2844	0.9526	0.3839	-0.329
Mof_N 	N 	0.4911	0.003	0.1559	-0.253
Mof_H 	H 	0.5104	0.0392	0.17	0.163
Mof_N 	N 	0.57	0.0092	0.0776	-0.178
Mof_C 	C 	0.291	0.9221	0.3315	0.353
Mof_C 	C 	0.3452	0.9424	0.2838	-0.187
Mof_C 	C 	0.3832	0.9882	0.2992	0.137
Mof_H 	H 	0.3789	0.0089	0.3409	-0.013
Mof_C 	C 	0.4325	0.0094	0.2549	-0.228
Mof_H 	H 	0.4621	0.0429	0.2686	0.104
Mof_C 	C 	0.4391	0.9833	0.1929	0.211
Mof_C 	C 	0.4002	0.9267	0.1798	-0.208
Mof_H 	H 	0.4073	0.9018	0.1409	0.117
Mof_C 	C 	0.3516	0.9079	0.2241	0.11
Mof_H 	H 	0.3231	0.8722	0.2142	0.012
Mof_C 	C 	0.5198	0.9758	0.0988	0.19
Mof_O 	O 	0.7559	0.6297	0.6854	-0.441
Mof_O 	O 	0.7844	0.5474	0.6161	-0.329
Mof_N 	N 	0.9911	0.497	0.8441	-0.254
Mof_H 	H 	0.0104	0.4608	0.83	0.164
Mof_N 	N 	0.07	0.4908	0.9224	-0.178
Mof_C 	C 	0.791	0.5779	0.6685	0.353
Mof_C 	C 	0.8452	0.5576	0.7162	-0.187
Mof_C 	C 	0.8832	0.5118	0.7008	0.138
Mof_H 	H 	0.8789	0.4911	0.6591	-0.014
Mof_C 	C 	0.9325	0.4906	0.7451	-0.229
Mof_H 	H 	0.9621	0.4571	0.7314	0.105
Mof_C 	C 	0.9391	0.5167	0.8071	0.212
Mof_C 	C 	0.9002	0.5733	0.8202	-0.208
Mof_H 	H 	0.9073	0.5982	0.8591	0.117
Mof_C 	C 	0.8516	0.5921	0.7759	0.111
Mof_H 	H 	0.8231	0.6278	0.7858	0.012
Mof_C 	C 	0.0198	0.5242	0.9012	0.191
Mof_O 	O 	0.8146	0.2441	0.1297	-0.441
Mof_O 	O 	0.8839	0.2156	0.0474	-0.329
Mof_N 	N 	0.6559	0.0089	0.997	-0.254
Mof_H 	H 	0.67	0.9896	0.9608	0.163
Mof_N 	N 	0.5776	0.93	0.9908	-0.178
Mof_C 	C 	0.8315	0.209	0.0779	0.353
Mof_C 	C 	0.7838	0.1548	0.0576	-0.188
Mof_C 	C 	0.7992	0.1168	0.0118	0.14
Mof_H 	H 	0.8409	0.1211	0.9911	-0.015
Mof_C 	C 	0.7549	0.0675	0.9906	-0.23
Mof_H 	H 	0.7686	0.0379	0.9571	0.105
Mof_C 	C 	0.6929	0.0609	0.0167	0.213
Mof_C 	C 	0.6798	0.0998	0.0733	-0.209
Mof_H 	H 	0.6409	0.0927	0.0982	0.117
Mof_C 	C 	0.7241	0.1484	0.0921	0.111
Mof_H 	H 	0.7142	0.1769	0.1278	0.012
Mof_C 	C 	0.5988	0.9802	0.0242	0.191
Mof_O 	O 	0.1854	0.7441	0.3703	-0.441
Mof_O 	O 	0.1161	0.7156	0.4526	-0.329
Mof_N 	N 	0.3441	0.5089	0.503	-0.254
Mof_H 	H 	0.33	0.4896	0.5392	0.163
Mof_N 	N 	0.4224	0.43	0.5092	-0.178
Mof_C 	C 	0.1685	0.709	0.4221	0.353
Mof_C 	C 	0.2162	0.6548	0.4424	-0.187
Mof_C 	C 	0.2008	0.6168	0.4882	0.138
Mof_H 	H 	0.1591	0.6211	0.5089	-0.014
Mof_C 	C 	0.2451	0.5675	0.5094	-0.229
Mof_H 	H 	0.2314	0.5379	0.5429	0.105
Mof_C 	C 	0.3071	0.5609	0.4833	0.212
Mof_C 	C 	0.3202	0.5998	0.4267	-0.208
Mof_H 	H 	0.3591	0.5927	0.4018	0.117
Mof_C 	C 	0.2759	0.6484	0.4079	0.111
Mof_H 	H 	0.2858	0.6769	0.3722	0.012
Mof_C 	C 	0.4012	0.4802	0.4758	0.191
Mof_O 	O 	0.3146	0.2559	0.8703	-0.441
Mof_O 	O 	0.3839	0.2844	0.9526	-0.329
Mof_N 	N 	0.1559	0.4911	0.003	-0.253
Mof_H 	H 	0.17	0.5104	0.0392	0.163
Mof_N 	N 	0.0776	0.57	0.0092	-0.178
Mof_C 	C 	0.3315	0.291	0.9221	0.353
Mof_C 	C 	0.2838	0.3452	0.9424	-0.187
Mof_C 	C 	0.2992	0.3832	0.9882	0.137
Mof_H 	H 	0.3409	0.3789	0.0089	-0.013
Mof_C 	C 	0.2549	0.4325	0.0094	-0.228
Mof_H 	H 	0.2686	0.4621	0.0429	0.104
Mof_C 	C 	0.1929	0.4391	0.9833	0.211
Mof_C 	C 	0.1798	0.4002	0.9267	-0.208
Mof_H 	H 	0.1409	0.4073	0.9018	0.117
Mof_C 	C 	0.2241	0.3516	0.9079	0.11
Mof_H 	H 	0.2142	0.3231	0.8722	0.012
Mof_C 	C 	0.0988	0.5198	0.9758	0.19
Mof_O 	O 	0.6854	0.7559	0.6297	-0.441
Mof_O 	O 	0.6161	0.7844	0.5474	-0.329
Mof_N 	N 	0.8441	0.9911	0.497	-0.254
Mof_H 	H 	0.83	0.0104	0.4608	0.164
Mof_N 	N 	0.9224	0.07	0.4908	-0.178
Mof_C 	C 	0.6685	0.791	0.5779	0.353
Mof_C 	C 	0.7162	0.8452	0.5576	-0.187
Mof_C 	C 	0.7008	0.8832	0.5118	0.138
Mof_H 	H 	0.6591	0.8789	0.4911	-0.014
Mof_C 	C 	0.7451	0.9325	0.4906	-0.229
Mof_H 	H 	0.7314	0.9621	0.4571	0.105
Mof_C 	C 	0.8071	0.9391	0.5167	0.212
Mof_C 	C 	0.8202	0.9002	0.5733	-0.208
Mof_H 	H 	0.8591	0.9073	0.5982	0.117
Mof_C 	C 	0.7759	0.8516	0.5921	0.111
Mof_H 	H 	0.7858	0.8231	0.6278	0.012
Mof_C 	C 	0.9012	0.0198	0.5242	0.191
Mof_Yb	Yb	0.15627	0.84373	0.34373	1.323
Mof_Yb	Yb	0.34373	0.15627	0.84373	1.323
Mof_Yb	Yb	0.84373	0.34373	0.15627	1.323
Mof_Yb	Yb	0.65627	0.65627	0.65627	1.323
Mof_O 	O 	0.2419	0.6269	0.1808	-0.495
Mof_O 	O 	0.212	0.5501	0.1138	-0.365
Mof_N 	N 	0.0126	0.494	0.3516	-0.253
Mof_H 	H 	0.998	0.4544	0.3421	0.156
Mof_N 	N 	0.0124	0.5726	0.4305	-0.181
Mof_C 	C 	0.2065	0.5804	0.1647	0.451
Mof_C 	C 	0.1594	0.5588	0.2157	-0.199
Mof_C 	C 	0.1535	0.587	0.2759	0.131
Mof_H 	H 	0.1832	0.6213	0.2872	0.005
Mof_C 	C 	0.1063	0.5686	0.3221	-0.218
Mof_H 	H 	0.1051	0.5888	0.3642	0.12
Mof_C 	C 	0.0613	0.5206	0.3055	0.194
Mof_C 	C 	0.0704	0.4814	0.249	-0.216
Mof_H 	H 	0.0458	0.442	0.2433	0.107
Mof_C 	C 	0.114	0.5003	0.2037	0.108
Mof_H 	H 	0.1168	0.477	0.1632	-0.004
Mof_C 	C 	0.9879	0.5202	0.4043	0.206
Mof_O 	O 	0.2581	0.3731	0.6808	-0.495
Mof_O 	O 	0.288	0.4499	0.6138	-0.365
Mof_N 	N 	0.4874	0.506	0.8516	-0.253
Mof_H 	H 	0.502	0.5456	0.8421	0.156
Mof_N 	N 	0.4876	0.4274	0.9305	-0.181
Mof_C 	C 	0.2935	0.4196	0.6647	0.451
Mof_C 	C 	0.3406	0.4412	0.7157	-0.199
Mof_C 	C 	0.3465	0.413	0.7759	0.131
Mof_H 	H 	0.3168	0.3787	0.7872	0.005
Mof_C 	C 	0.3937	0.4314	0.8221	-0.218
Mof_H 	H 	0.3949	0.4112	0.8642	0.12
Mof_C 	C 	0.4387	0.4794	0.8055	0.195
Mof_C 	C 	0.4296	0.5186	0.749	-0.217
Mof_H 	H 	0.4542	0.558	0.7433	0.107
Mof_C 	C 	0.386	0.4997	0.7037	0.108
Mof_H 	H 	0.3832	0.523	0.6632	-0.004
Mof_C 	C 	0.5121	0.4798	0.9043	0.206
Mof_O 	O 	0.7581	0.1269	0.3192	-0.495
Mof_O 	O 	0.788	0.0501	0.3862	-0.365
Mof_N 	N 	0.9874	0.994	0.1484	-0.254
Mof_H 	H 	0.002	0.9544	0.1579	0.157
Mof_N 	N 	0.9876	0.0726	0.0695	-0.181
Mof_C 	C 	0.7935	0.0804	0.3353	0.452
Mof_C 	C 	0.8406	0.0588	0.2843	-0.2
Mof_C 	C 	0.8465	0.087	0.2241	0.132
Mof_H 	H 	0.8168	0.1213	0.2128	0.005
Mof_C 	C 	0.8937	0.0686	0.1779	-0.219
Mof_H 	H 	0.8949	0.0888	0.1358	0.12
Mof_C 	C 	0.9387	0.0206	0.1945	0.195
Mof_C 	C 	0.9296	0.9814	0.251	-0.218
Mof_H 	H 	0.9542	0.942	0.2567	0.107
Mof_C 	C 	0.886	0.0003	0.2963	0.109
Mof_H 	H 	0.8832	0.977	0.3368	-0.004
Mof_C 	C 	0.0121	0.0202	0.0957	0.207
Mof_O 	O 	0.7419	0.8731	0.8192	-0.495
Mof_O 	O 	0.712	0.9499	0.8862	-0.365
Mof_N 	N 	0.5126	0.006	0.6484	-0.253
Mof_H 	H 	0.498	0.0456	0.6579	0.156
Mof_N 	N 	0.5124	0.9274	0.5695	-0.181
Mof_C 	C 	0.7065	0.9196	0.8353	0.451
Mof_C 	C 	0.6594	0.9412	0.7843	-0.199
Mof_C 	C 	0.6535	0.913	0.7241	0.13
Mof_H 	H 	0.6832	0.8787	0.7128	0.005
Mof_C 	C 	0.6063	0.9314	0.6779	-0.218
Mof_H 	H 	0.6051	0.9112	0.6358	0.119
Mof_C 	C 	0.5613	0.9794	0.6945	0.194
Mof_C 	C 	0.5704	0.0186	0.751	-0.215
Mof_H 	H 	0.5458	0.058	0.7567	0.106
Mof_C 	C 	0.614	0.9997	0.7963	0.107
Mof_H 	H 	0.6168	0.023	0.8368	-0.003
Mof_C 	C 	0.4879	0.9798	0.5957	0.206
Mof_O 	O 	0.1808	0.2419	0.6269	-0.495
Mof_O 	O 	0.1138	0.212	0.5501	-0.365
Mof_N 	N 	0.3516	0.0126	0.494	-0.253
Mof_H 	H 	0.3421	0.998	0.4544	0.156
Mof_N 	N 	0.4305	0.0124	0.5726	-0.181
Mof_C 	C 	0.1647	0.2065	0.5804	0.451
Mof_C 	C 	0.2157	0.1594	0.5588	-0.199
Mof_C 	C 	0.2759	0.1535	0.587	0.131
Mof_H 	H 	0.2872	0.1832	0.6213	0.005
Mof_C 	C 	0.3221	0.1063	0.5686	-0.218
Mof_H 	H 	0.3642	0.1051	0.5888	0.12
Mof_C 	C 	0.3055	0.0613	0.5206	0.194
Mof_C 	C 	0.249	0.0704	0.4814	-0.216
Mof_H 	H 	0.2433	0.0458	0.442	0.107
Mof_C 	C 	0.2037	0.114	0.5003	0.108
Mof_H 	H 	0.1632	0.1168	0.477	-0.004
Mof_C 	C 	0.4043	0.9879	0.5202	0.206
Mof_O 	O 	0.6808	0.2581	0.3731	-0.495
Mof_O 	O 	0.6138	0.288	0.4499	-0.365
Mof_N 	N 	0.8516	0.4874	0.506	-0.253
Mof_H 	H 	0.8421	0.502	0.5456	0.156
Mof_N 	N 	0.9305	0.4876	0.4274	-0.181
Mof_C 	C 	0.6647	0.2935	0.4196	0.451
Mof_C 	C 	0.7157	0.3406	0.4412	-0.199
Mof_C 	C 	0.7759	0.3465	0.413	0.131
Mof_H 	H 	0.7872	0.3168	0.3787	0.005
Mof_C 	C 	0.8221	0.3937	0.4314	-0.218
Mof_H 	H 	0.8642	0.3949	0.4112	0.12
Mof_C 	C 	0.8055	0.4387	0.4794	0.195
Mof_C 	C 	0.749	0.4296	0.5186	-0.217
Mof_H 	H 	0.7433	0.4542	0.558	0.107
Mof_C 	C 	0.7037	0.386	0.4997	0.108
Mof_H 	H 	0.6632	0.3832	0.523	-0.004
Mof_C 	C 	0.9043	0.5121	0.4798	0.206
Mof_O 	O 	0.3192	0.7581	0.1269	-0.495
Mof_O 	O 	0.3862	0.788	0.0501	-0.365
Mof_N 	N 	0.1484	0.9874	0.994	-0.254
Mof_H 	H 	0.1579	0.002	0.9544	0.157
Mof_N 	N 	0.0695	0.9876	0.0726	-0.181
Mof_C 	C 	0.3353	0.7935	0.0804	0.452
Mof_C 	C 	0.2843	0.8406	0.0588	-0.2
Mof_C 	C 	0.2241	0.8465	0.087	0.132
Mof_H 	H 	0.2128	0.8168	0.1213	0.005
Mof_C 	C 	0.1779	0.8937	0.0686	-0.219
Mof_H 	H 	0.1358	0.8949	0.0888	0.12
Mof_C 	C 	0.1945	0.9387	0.0206	0.195
Mof_C 	C 	0.251	0.9296	0.9814	-0.218
Mof_H 	H 	0.2567	0.9542	0.942	0.107
Mof_C 	C 	0.2963	0.886	0.0003	0.109
Mof_H 	H 	0.3368	0.8832	0.977	-0.004
Mof_C 	C 	0.0957	0.0121	0.0202	0.207
Mof_O 	O 	0.8192	0.7419	0.8731	-0.495
Mof_O 	O 	0.8862	0.712	0.9499	-0.365
Mof_N 	N 	0.6484	0.5126	0.006	-0.253
Mof_H 	H 	0.6579	0.498	0.0456	0.156
Mof_N 	N 	0.5695	0.5124	0.9274	-0.181
Mof_C 	C 	0.8353	0.7065	0.9196	0.451
Mof_C 	C 	0.7843	0.6594	0.9412	-0.199
Mof_C 	C 	0.7241	0.6535	0.913	0.13
Mof_H 	H 	0.7128	0.6832	0.8787	0.005
Mof_C 	C 	0.6779	0.6063	0.9314	-0.218
Mof_H 	H 	0.6358	0.6051	0.9112	0.119
Mof_C 	C 	0.6945	0.5613	0.9794	0.194
Mof_C 	C 	0.751	0.5704	0.0186	-0.215
Mof_H 	H 	0.7567	0.5458	0.058	0.106
Mof_C 	C 	0.7963	0.614	0.9997	0.107
Mof_H 	H 	0.8368	0.6168	0.023	-0.003
Mof_C 	C 	0.5957	0.4879	0.9798	0.206
Mof_O 	O 	0.6269	0.1808	0.2419	-0.495
Mof_O 	O 	0.5501	0.1138	0.212	-0.365
Mof_N 	N 	0.494	0.3516	0.0126	-0.253
Mof_H 	H 	0.4544	0.3421	0.998	0.156
Mof_N 	N 	0.5726	0.4305	0.0124	-0.181
Mof_C 	C 	0.5804	0.1647	0.2065	0.451
Mof_C 	C 	0.5588	0.2157	0.1594	-0.199
Mof_C 	C 	0.587	0.2759	0.1535	0.131
Mof_H 	H 	0.6213	0.2872	0.1832	0.005
Mof_C 	C 	0.5686	0.3221	0.1063	-0.218
Mof_H 	H 	0.5888	0.3642	0.1051	0.12
Mof_C 	C 	0.5206	0.3055	0.0613	0.194
Mof_C 	C 	0.4814	0.249	0.0704	-0.216
Mof_H 	H 	0.442	0.2433	0.0458	0.107
Mof_C 	C 	0.5003	0.2037	0.114	0.108
Mof_H 	H 	0.477	0.1632	0.1168	-0.004
Mof_C 	C 	0.5202	0.4043	0.9879	0.206
Mof_O 	O 	0.3731	0.6808	0.2581	-0.495
Mof_O 	O 	0.4499	0.6138	0.288	-0.365
Mof_N 	N 	0.506	0.8516	0.4874	-0.253
Mof_H 	H 	0.5456	0.8421	0.502	0.156
Mof_N 	N 	0.4274	0.9305	0.4876	-0.181
Mof_C 	C 	0.4196	0.6647	0.2935	0.451
Mof_C 	C 	0.4412	0.7157	0.3406	-0.199
Mof_C 	C 	0.413	0.7759	0.3465	0.131
Mof_H 	H 	0.3787	0.7872	0.3168	0.005
Mof_C 	C 	0.4314	0.8221	0.3937	-0.218
Mof_H 	H 	0.4112	0.8642	0.3949	0.12
Mof_C 	C 	0.4794	0.8055	0.4387	0.195
Mof_C 	C 	0.5186	0.749	0.4296	-0.217
Mof_H 	H 	0.558	0.7433	0.4542	0.107
Mof_C 	C 	0.4997	0.7037	0.386	0.108
Mof_H 	H 	0.523	0.6632	0.3832	-0.004
Mof_C 	C 	0.4798	0.9043	0.5121	0.206
Mof_O 	O 	0.1269	0.3192	0.7581	-0.495
Mof_O 	O 	0.0501	0.3862	0.788	-0.365
Mof_N 	N 	0.994	0.1484	0.9874	-0.254
Mof_H 	H 	0.9544	0.1579	0.002	0.157
Mof_N 	N 	0.0726	0.0695	0.9876	-0.181
Mof_C 	C 	0.0804	0.3353	0.7935	0.452
Mof_C 	C 	0.0588	0.2843	0.8406	-0.2
Mof_C 	C 	0.087	0.2241	0.8465	0.132
Mof_H 	H 	0.1213	0.2128	0.8168	0.005
Mof_C 	C 	0.0686	0.1779	0.8937	-0.219
Mof_H 	H 	0.0888	0.1358	0.8949	0.12
Mof_C 	C 	0.0206	0.1945	0.9387	0.195
Mof_C 	C 	0.9814	0.251	0.9296	-0.218
Mof_H 	H 	0.942	0.2567	0.9542	0.107
Mof_C 	C 	0.0003	0.2963	0.886	0.109
Mof_H 	H 	0.977	0.3368	0.8832	-0.004
Mof_C 	C 	0.0202	0.0957	0.0121	0.207
Mof_O 	O 	0.8731	0.8192	0.7419	-0.495
Mof_O 	O 	0.9499	0.8862	0.712	-0.365
Mof_N 	N 	0.006	0.6484	0.5126	-0.253
Mof_H 	H 	0.0456	0.6579	0.498	0.156
Mof_N 	N 	0.9274	0.5695	0.5124	-0.181
Mof_C 	C 	0.9196	0.8353	0.7065	0.451
Mof_C 	C 	0.9412	0.7843	0.6594	-0.199
Mof_C 	C 	0.913	0.7241	0.6535	0.13
Mof_H 	H 	0.8787	0.7128	0.6832	0.005
Mof_C 	C 	0.9314	0.6779	0.6063	-0.218
Mof_H 	H 	0.9112	0.6358	0.6051	0.119
Mof_C 	C 	0.9794	0.6945	0.5613	0.194
Mof_C 	C 	0.0186	0.751	0.5704	-0.215
Mof_H 	H 	0.058	0.7567	0.5458	0.106
Mof_C 	C 	0.9997	0.7963	0.614	0.107
Mof_H 	H 	0.023	0.8368	0.6168	-0.003
Mof_C 	C 	0.9798	0.5957	0.4879	0.206
Mof_Yb	Yb	0.34236	0.65764	0.15764	1.353
Mof_Yb	Yb	0.15764	0.34236	0.65764	1.353
Mof_Yb	Yb	0.65764	0.15764	0.34236	1.353
Mof_Yb	Yb	0.84236	0.84236	0.84236	1.353
_end
