data_functionalizedCrystal
_audit_creation_method	'EQeq! by Chris Wilmer'
_symmetry_space_group_name_H-M	'P1'
_symmetry_Int_Tables_number	1
_symmetry_cell_setting	triclinic
loop_
_symmetry_equiv_pos_as_xyz
  x,y,z
_cell_length_a	8.2326
_cell_length_b	13.5545
_cell_length_c	17.4759
_cell_angle_alpha	90
_cell_angle_beta	90
_cell_angle_gamma	90
loop_
_atom_site_label
_atom_site_type_symbol
_atom_site_fract_x
_atom_site_fract_y
_atom_site_fract_z
_atom_site_charge
Mof_C 	C 	0.6555	0.9526	0.9146	-0.499
Mof_H 	H 	0.731	0.9148	0.9456	0.155
Mof_H 	H 	0.7125	0.9768	0.8698	0.164
Mof_C 	C 	0.589	0.0345	0.9585	0.563
Mof_C 	C 	0.582	0.0302	0.0355	-1.328
Mof_H 	H 	0.6553	0.9806	0.0538	0.405
Mof_H 	H 	0.473	0.0139	0.051	0.408
Mof_H 	H 	0.6111	0.0931	0.0566	0.395
Mof_C 	C 	0.4819	0.1106	0.9108	-0.413
Mof_C 	C 	0.3897	0.1815	0.9637	0.431
Mof_C 	C 	0.531	0.1836	0.7818	-0.182
Mof_C 	C 	0.4943	0.0903	0.7372	0.14
Mof_C 	C 	0.6124	0.0248	0.7147	-0.206
Mof_H 	H 	0.7201	0.036	0.7283	0.076
Mof_C 	C 	0.5715	0.9413	0.6715	0.102
Mof_H 	H 	0.6536	0.8984	0.6564	-0.047
Mof_C 	C 	0.3049	0.9849	0.6728	0.109
Mof_H 	H 	0.1982	0.9723	0.6584	-0.072
Mof_C 	C 	0.3356	0.0684	0.7153	-0.214
Mof_H 	H 	0.2507	0.1099	0.7294	0.08
Mof_N 	N 	0.4188	0.9214	0.6513	-0.289
Mof_N 	N 	0.5941	0.1658	0.86	-0.206
Mof_O 	O 	0.2704	0.1452	0.99816	-0.533
Mof_O 	O 	0.4389	0.2683	0.97028	-0.524
Mof_Zn	Zn	0.15366	0.20017	0.08627	1.184
Mof_H 	H 	0.689	0.128	0.849	0.041
Mof_H 	H 	0.4	0.086	0.877	0.171
Mof_H 	H 	0.429	0.194	0.784	0.083
Mof_C 	C 	0.8445	0.0474	0.4146	-0.517
Mof_H 	H 	0.769	0.0852	0.4456	0.161
Mof_H 	H 	0.7875	0.0232	0.3698	0.169
Mof_C 	C 	0.911	0.9655	0.4585	0.588
Mof_C 	C 	0.918	0.9698	0.5355	-1.372
Mof_H 	H 	0.8447	0.0194	0.5538	0.418
Mof_H 	H 	0.027	0.9861	0.551	0.42
Mof_H 	H 	0.8889	0.9069	0.5566	0.408
Mof_C 	C 	0.0181	0.8894	0.4108	-0.422
Mof_C 	C 	0.1103	0.8185	0.4637	0.434
Mof_C 	C 	0.969	0.8164	0.2818	-0.174
Mof_C 	C 	0.0057	0.9097	0.2372	0.132
Mof_C 	C 	0.8876	0.9752	0.2147	-0.199
Mof_H 	H 	0.7799	0.964	0.2283	0.074
Mof_C 	C 	0.9285	0.0587	0.1715	0.099
Mof_H 	H 	0.8464	0.1016	0.1564	-0.045
Mof_C 	C 	0.1951	0.0151	0.1728	0.108
Mof_H 	H 	0.3018	0.0277	0.1584	-0.071
Mof_C 	C 	0.1644	0.9316	0.2153	-0.211
Mof_H 	H 	0.2493	0.8901	0.2294	0.079
Mof_N 	N 	0.0812	0.0786	0.1513	-0.288
Mof_N 	N 	0.9059	0.8342	0.36	-0.205
Mof_O 	O 	0.2296	0.8548	0.49816	-0.535
Mof_O 	O 	0.0611	0.7317	0.47028	-0.525
Mof_Zn	Zn	0.34634	0.79983	0.58627	1.184
Mof_H 	H 	0.811	0.872	0.349	0.041
Mof_H 	H 	0.1	0.914	0.377	0.174
Mof_H 	H 	0.071	0.806	0.284	0.079
Mof_C 	C 	0.3445	0.4526	0.5854	-0.517
Mof_H 	H 	0.269	0.4148	0.5544	0.161
Mof_H 	H 	0.2875	0.4768	0.6302	0.17
Mof_C 	C 	0.411	0.5345	0.5415	0.589
Mof_C 	C 	0.418	0.5302	0.4645	-1.379
Mof_H 	H 	0.3447	0.4806	0.4462	0.422
Mof_H 	H 	0.527	0.5139	0.449	0.422
Mof_H 	H 	0.3889	0.5931	0.4434	0.41
Mof_C 	C 	0.5181	0.6106	0.5892	-0.422
Mof_C 	C 	0.6103	0.6815	0.5363	0.434
Mof_C 	C 	0.469	0.6836	0.7182	-0.18
Mof_C 	C 	0.5057	0.5903	0.7628	0.137
Mof_C 	C 	0.3876	0.5248	0.7853	-0.202
Mof_H 	H 	0.2799	0.536	0.7717	0.076
Mof_C 	C 	0.4285	0.4413	0.8285	0.099
Mof_H 	H 	0.3464	0.3984	0.8436	-0.045
Mof_C 	C 	0.6951	0.4849	0.8272	0.106
Mof_H 	H 	0.8018	0.4723	0.8416	-0.071
Mof_C 	C 	0.6644	0.5684	0.7847	-0.21
Mof_H 	H 	0.7493	0.6099	0.7706	0.078
Mof_N 	N 	0.5812	0.4214	0.8487	-0.288
Mof_N 	N 	0.4059	0.6658	0.64	-0.205
Mof_O 	O 	0.7296	0.6452	0.50184	-0.535
Mof_O 	O 	0.5611	0.7683	0.52972	-0.525
Mof_Zn	Zn	0.84634	0.70017	0.41373	1.184
Mof_H 	H 	0.311	0.628	0.651	0.042
Mof_H 	H 	0.6	0.586	0.623	0.174
Mof_H 	H 	0.571	0.694	0.716	0.082
Mof_C 	C 	0.1555	0.5474	0.0854	-0.498
Mof_H 	H 	0.231	0.5852	0.0544	0.155
Mof_H 	H 	0.2125	0.5232	0.1302	0.164
Mof_C 	C 	0.089	0.4655	0.0415	0.554
Mof_C 	C 	0.082	0.4698	0.9645	-1.303
Mof_H 	H 	0.1553	0.5194	0.9462	0.4
Mof_H 	H 	0.973	0.4861	0.949	0.396
Mof_H 	H 	0.1111	0.4069	0.9434	0.388
Mof_C 	C 	0.9819	0.3894	0.0892	-0.405
Mof_C 	C 	0.8897	0.3185	0.0363	0.429
Mof_C 	C 	0.031	0.3164	0.2182	-0.184
Mof_C 	C 	0.9943	0.4097	0.2628	0.141
Mof_C 	C 	0.1124	0.4752	0.2853	-0.205
Mof_H 	H 	0.2201	0.464	0.2717	0.076
Mof_C 	C 	0.0715	0.5587	0.3285	0.099
Mof_H 	H 	0.1536	0.6016	0.3436	-0.046
Mof_C 	C 	0.8049	0.5151	0.3272	0.107
Mof_H 	H 	0.6982	0.5277	0.3416	-0.072
Mof_C 	C 	0.8356	0.4316	0.2847	-0.212
Mof_H 	H 	0.7507	0.3901	0.2706	0.079
Mof_N 	N 	0.9188	0.5786	0.3487	-0.288
Mof_N 	N 	0.0941	0.3342	0.14	-0.207
Mof_O 	O 	0.7704	0.3548	0.00184	-0.531
Mof_O 	O 	0.9389	0.2317	0.02972	-0.521
Mof_Zn	Zn	0.65366	0.29983	0.91373	1.184
Mof_H 	H 	0.189	0.372	0.151	0.042
Mof_H 	H 	0.9	0.414	0.123	0.169
Mof_H 	H 	0.929	0.306	0.216	0.084
_end
