# CIF file generated by openbabel 3.1.0, see https://openbabel.org
data_I
_chemical_name_common 'image0'
_cell_length_a 9.5297
_cell_length_b 12.6996
_cell_length_c 18.8203
_cell_angle_alpha 106.347
_cell_angle_beta 98.63
_cell_angle_gamma 100.059
_space_group_name_H-M_alt 'P 1'
_space_group_name_Hall 'P 1'
loop_
    _symmetry_equiv_pos_as_xyz
    x,y,z
loop_
    _atom_site_label
    _atom_site_type_symbol
    _atom_site_fract_x
    _atom_site_fract_y
    _atom_site_fract_z
    _atom_site_occupancy
    Nd1      Nd       0.76665    0.98368    0.99668    1.000
    O1       O        0.45420    0.03010    0.08680    1.000
    N1       N        0.00050    0.14830    0.67990    1.000
    O2       O        0.68660    0.02440    0.11740    1.000
    O3       O        0.86080    0.06520    0.90400    1.000
    O4       O        0.00870    0.89090    0.92610    1.000
    N2       N        0.95870    0.60730    0.67460    1.000
    O5       O        0.76980    0.82290    0.88780    1.000
    O6       O        0.10530    0.12000    0.93650    1.000
    N3       N        0.56630    0.16720    0.36660    1.000
    C1       C        0.91990    0.23170    0.57800    1.000
    C2       C        0.56750    0.04140    0.13290    1.000
    C3       C        0.56500    0.08250    0.21630    1.000
    C4       C        0.90540    0.41820    0.57410    1.000
    C5       C        0.43760    0.10210    0.24020    1.000
    H1       H        0.34880    0.08610    0.20440    1.000
    C6       C        0.68750    0.14570    0.34610    1.000
    H2       H        0.77300    0.15970    0.38370    1.000
    C7       C        0.77230    0.37530    0.52340    1.000
    C8       C        0.97950    0.34670    0.60250    1.000
    C9       C        0.70960    0.25800    0.50230    1.000
    C10      C        0.78200    0.18610    0.52850    1.000
    C11      C        0.89750    0.82350    0.88000    1.000
    C12      C        0.98860    0.11850    0.81670    1.000
    C13      C        0.69100    0.10280    0.27040    1.000
    H3       H        0.77840    0.08740    0.25580    1.000
    C14      C        0.05920    0.73760    0.79710    1.000
    H4       H        0.14230    0.78110    0.83530    1.000
    C15      C        0.98330    0.10020    0.89290    1.000
    C16      C        0.80190    0.67560    0.75330    1.000
    H5       H        0.70580    0.67600    0.76120    1.000
    C17      C        0.12300    0.39620    0.65950    1.000
    H6       H        0.15760    0.33600    0.67490    1.000
    H7       H        0.10900    0.45250    0.70400    1.000
    H8       H        0.19520    0.43200    0.63640    1.000
    C18      C        0.00670    0.15370    0.60040    1.000
    H9       H        0.10960    0.17920    0.59800    1.000
    H10      H        0.96900    0.07700    0.56360    1.000
    C19      C        0.87420    0.14360    0.70310    1.000
    H11      H        0.79030    0.15030    0.67190    1.000
    C20      C        0.92070    0.74250    0.80910    1.000
    C21      C        0.44280    0.14520    0.31680    1.000
    H12      H        0.35690    0.15920    0.33390    1.000
    C22      C        0.11800    0.12520    0.79150    1.000
    H13      H        0.20390    0.12080    0.82240    1.000
    C23      C        0.86640    0.12930    0.77160    1.000
    H14      H        0.77710    0.12670    0.78840    1.000
    C24      C        0.07590    0.66920    0.72930    1.000
    H15      H        0.17100    0.66560    0.72090    1.000
    C25      C        0.82300    0.60850    0.68620    1.000
    H16      H        0.74130    0.56270    0.64790    1.000
    C26      C        0.97900    0.54310    0.59880    1.000
    H17      H        0.08470    0.55100    0.60010    1.000
    H18      H        0.93910    0.57630    0.56070    1.000
    C27      C        0.55910    0.21090    0.45040    1.000
    H19      H        0.50340    0.27060    0.45750    1.000
    H20      H        0.50620    0.14850    0.46490    1.000
    C28      C        0.68910    0.44840    0.49050    1.000
    H21      H        0.60760    0.46030    0.51560    1.000
    H22      H        0.65160    0.41080    0.43600    1.000
    H23      H        0.75460    0.52140    0.49860    1.000
    C29      C        0.12170    0.13820    0.72140    1.000
    H24      H        0.20900    0.14010    0.70280    1.000
    C30      C        0.71760    0.06090    0.50280    1.000
    H25      H        0.61890    0.04460    0.47240    1.000
    H26      H        0.71370    0.03540    0.54720    1.000
    H27      H        0.77850    0.02120    0.47220    1.000
    Nd2      Nd       0.23335    0.01632    0.00332    1.000
    O7       O        0.54580    0.96990    0.91320    1.000
    N4       N        0.99950    0.85170    0.32010    1.000
    O8       O        0.31340    0.97560    0.88260    1.000
    O9       O        0.13920    0.93480    0.09600    1.000
    O10      O        0.99130    0.10910    0.07390    1.000
    N5       N        0.04130    0.39270    0.32540    1.000
    O11      O        0.23020    0.17710    0.11220    1.000
    O12      O        0.89470    0.88000    0.06350    1.000
    N6       N        0.43370    0.83280    0.63340    1.000
    C31      C        0.08010    0.76830    0.42200    1.000
    C32      C        0.43250    0.95860    0.86710    1.000
    C33      C        0.43500    0.91750    0.78370    1.000
    C34      C        0.09460    0.58180    0.42590    1.000
    C35      C        0.56240    0.89790    0.75980    1.000
    H28      H        0.65120    0.91390    0.79560    1.000
    C36      C        0.31250    0.85430    0.65390    1.000
    H29      H        0.22700    0.84030    0.61630    1.000
    C37      C        0.22770    0.62470    0.47660    1.000
    C38      C        0.02050    0.65330    0.39750    1.000
    C39      C        0.29040    0.74200    0.49770    1.000
    C40      C        0.21800    0.81390    0.47150    1.000
    C41      C        0.10250    0.17650    0.12000    1.000
    C42      C        0.01140    0.88150    0.18330    1.000
    C43      C        0.30900    0.89720    0.72960    1.000
    H30      H        0.22160    0.91260    0.74420    1.000
    C44      C        0.94080    0.26240    0.20290    1.000
    H31      H        0.85770    0.21890    0.16470    1.000
    C45      C        0.01670    0.89980    0.10710    1.000
    C46      C        0.19810    0.32440    0.24670    1.000
    H32      H        0.29420    0.32400    0.23880    1.000
    C47      C        0.87700    0.60380    0.34050    1.000
    H33      H        0.84240    0.66400    0.32510    1.000
    H34      H        0.89100    0.54750    0.29600    1.000
    H35      H        0.80480    0.56800    0.36360    1.000
    C48      C        0.99330    0.84630    0.39960    1.000
    H36      H        0.89040    0.82080    0.40200    1.000
    H37      H        0.03100    0.92300    0.43640    1.000
    C49      C        0.12580    0.85640    0.29690    1.000
    H38      H        0.20970    0.84970    0.32810    1.000
    C50      C        0.07930    0.25750    0.19090    1.000
    C51      C        0.55720    0.85480    0.68320    1.000
    H39      H        0.64310    0.84080    0.66610    1.000
    C52      C        0.88200    0.87480    0.20850    1.000
    H40      H        0.79610    0.87920    0.17760    1.000
    C53      C        0.13360    0.87070    0.22840    1.000
    H41      H        0.22290    0.87330    0.21160    1.000
    C54      C        0.92410    0.33080    0.27070    1.000
    H42      H        0.82900    0.33440    0.27910    1.000
    C55      C        0.17700    0.39150    0.31380    1.000
    H43      H        0.25870    0.43730    0.35210    1.000
    C56      C        0.02100    0.45690    0.40120    1.000
    H44      H        0.91530    0.44900    0.39990    1.000
    H45      H        0.06090    0.42370    0.43930    1.000
    C57      C        0.44090    0.78910    0.54960    1.000
    H46      H        0.49660    0.72940    0.54250    1.000
    H47      H        0.49380    0.85150    0.53510    1.000
    C58      C        0.31090    0.55160    0.50950    1.000
    H48      H        0.39240    0.53970    0.48440    1.000
    H49      H        0.34840    0.58920    0.56400    1.000
    H50      H        0.24540    0.47860    0.50140    1.000
    C59      C        0.87830    0.86180    0.27860    1.000
    H51      H        0.79100    0.85990    0.29720    1.000
    C60      C        0.28240    0.93910    0.49720    1.000
    H52      H        0.38110    0.95540    0.52760    1.000
    H53      H        0.28630    0.96460    0.45280    1.000
    H54      H        0.22150    0.97880    0.52780    1.000
