data_functionalizedCrystal
_audit_creation_method	'EQeq! by Chris Wilmer'
_symmetry_space_group_name_H-M	'P1'
_symmetry_Int_Tables_number	1
_symmetry_cell_setting	triclinic
loop_
_symmetry_equiv_pos_as_xyz
  x,y,z
_cell_length_a	9.9949
_cell_length_b	15.8229
_cell_length_c	18.1963
_cell_angle_alpha	90
_cell_angle_beta	90
_cell_angle_gamma	90
loop_
_atom_site_label
_atom_site_type_symbol
_atom_site_fract_x
_atom_site_fract_y
_atom_site_fract_z
_atom_site_charge
Mof_Al	Al	0.6847	0.0375	0.2823	6.637
Mof_Al	Al	0.831	0.8501	0.3234	6.27
Mof_Al	Al	0.6577	0.0097	0.094	6.375
Mof_P 	P 	0.8593	0.0093	0.42271	1.461
Mof_P 	P 	0.6458	0.1836	0.16993	1.483
Mof_P 	P 	0.8841	0.9427	0.18548	1.368
Mof_F 	F 	0.6787	0.921	0.3072	-1.996
Mof_F 	F 	0.6005	0.0039	0.1953	-2.138
Mof_O 	O 	0.0046	0.0419	0.4274	-1.701
Mof_O 	O 	0.7907	0.0191	0.4975	-1.537
Mof_O 	O 	0.8637	0.916	0.3998	-1.834
Mof_O 	O 	0.7824	0.0636	0.367	-1.511
Mof_O 	O 	0.7292	0.2629	0.1549	-1.644
Mof_O 	O 	0.684	0.1485	0.2461	-1.591
Mof_O 	O 	0.6831	0.12	0.1078	-1.72
Mof_O 	O 	0.4977	0.2074	0.165	-1.474
Mof_O 	O 	0.7978	0.9433	0.1152	-1.589
Mof_O 	O 	0.8588	0.8572	0.2254	-1.62
Mof_O 	O 	0.8466	0.0162	0.2351	-1.739
Mof_O 	O 	0.0311	0.9482	0.1635	-1.527
Mof_Al	Al	0.3153	0.4625	0.7823	6.665
Mof_Al	Al	0.169	0.6499	0.8234	6.258
Mof_Al	Al	0.3423	0.4903	0.594	6.536
Mof_P 	P 	0.1407	0.4907	0.92271	1.502
Mof_P 	P 	0.3542	0.3164	0.66993	1.49
Mof_P 	P 	0.1159	0.5573	0.68548	1.329
Mof_F 	F 	0.3213	0.579	0.8072	-2.008
Mof_F 	F 	0.3995	0.4961	0.6953	-2.156
Mof_O 	O 	0.9954	0.4581	0.9274	-1.753
Mof_O 	O 	0.2093	0.4809	0.9975	-1.556
Mof_O 	O 	0.1363	0.584	0.8998	-1.86
Mof_O 	O 	0.2176	0.4364	0.867	-1.516
Mof_O 	O 	0.2708	0.2371	0.6549	-1.643
Mof_O 	O 	0.316	0.3515	0.7461	-1.595
Mof_O 	O 	0.3169	0.38	0.6078	-1.744
Mof_O 	O 	0.5023	0.2926	0.665	-1.475
Mof_O 	O 	0.2022	0.5567	0.6152	-1.635
Mof_O 	O 	0.1412	0.6428	0.7254	-1.622
Mof_O 	O 	0.1534	0.4838	0.7351	-1.72
Mof_O 	O 	0.9689	0.5518	0.6635	-1.509
Mof_Al	Al	0.1847	0.9625	0.2177	6.66
Mof_Al	Al	0.331	0.1499	0.1766	6.258
Mof_Al	Al	0.1577	0.9903	0.406	6.441
Mof_P 	P 	0.3593	0.9907	0.07729	1.499
Mof_P 	P 	0.1458	0.8164	0.33007	1.474
Mof_P 	P 	0.3841	0.0573	0.31452	1.328
Mof_F 	F 	0.1787	0.079	0.1928	-2.001
Mof_F 	F 	0.1005	0.9961	0.3047	-2.149
Mof_O 	O 	0.5046	0.9581	0.0726	-1.702
Mof_O 	O 	0.2907	0.9809	0.0025	-1.52
Mof_O 	O 	0.3637	0.084	0.1002	-1.858
Mof_O 	O 	0.2824	0.9364	0.133	-1.514
Mof_O 	O 	0.2292	0.7371	0.3451	-1.642
Mof_O 	O 	0.184	0.8515	0.2539	-1.595
Mof_O 	O 	0.1831	0.88	0.3922	-1.728
Mof_O 	O 	0.9977	0.7926	0.335	-1.465
Mof_O 	O 	0.2978	0.0567	0.3848	-1.606
Mof_O 	O 	0.3588	0.1428	0.2746	-1.618
Mof_O 	O 	0.3466	0.9838	0.2649	-1.711
Mof_O 	O 	0.5311	0.0518	0.3365	-1.503
Mof_Al	Al	0.8153	0.5375	0.7177	6.665
Mof_Al	Al	0.669	0.3501	0.6766	6.259
Mof_Al	Al	0.8423	0.5097	0.906	6.537
Mof_P 	P 	0.6407	0.5093	0.57729	1.501
Mof_P 	P 	0.8542	0.6836	0.83007	1.498
Mof_P 	P 	0.6159	0.4427	0.81452	1.332
Mof_F 	F 	0.8213	0.421	0.6928	-2.01
Mof_F 	F 	0.8995	0.5039	0.8047	-2.156
Mof_O 	O 	0.4954	0.5419	0.5726	-1.749
Mof_O 	O 	0.7093	0.5191	0.5025	-1.555
Mof_O 	O 	0.6363	0.416	0.6002	-1.857
Mof_O 	O 	0.7176	0.5636	0.633	-1.516
Mof_O 	O 	0.7708	0.7629	0.8451	-1.642
Mof_O 	O 	0.816	0.6485	0.7539	-1.595
Mof_O 	O 	0.8169	0.62	0.8922	-1.746
Mof_O 	O 	0.0023	0.7074	0.835	-1.488
Mof_O 	O 	0.7022	0.4433	0.8848	-1.635
Mof_O 	O 	0.6412	0.3572	0.7746	-1.62
Mof_O 	O 	0.6534	0.5162	0.7649	-1.721
Mof_O 	O 	0.4689	0.4482	0.8365	-1.509
Mof_Al	Al	0.3153	0.9625	0.7177	6.636
Mof_Al	Al	0.169	0.1499	0.6766	6.269
Mof_Al	Al	0.3423	0.9903	0.906	6.374
Mof_P 	P 	0.1407	0.9907	0.57729	1.46
Mof_P 	P 	0.3542	0.8164	0.83007	1.483
Mof_P 	P 	0.1159	0.0573	0.81452	1.368
Mof_F 	F 	0.3213	0.079	0.6928	-1.996
Mof_F 	F 	0.3995	0.9961	0.8047	-2.138
Mof_O 	O 	0.9954	0.9581	0.5726	-1.701
Mof_O 	O 	0.2093	0.9809	0.5025	-1.537
Mof_O 	O 	0.1363	0.084	0.6002	-1.834
Mof_O 	O 	0.2176	0.9364	0.633	-1.511
Mof_O 	O 	0.2708	0.7371	0.8451	-1.644
Mof_O 	O 	0.316	0.8515	0.7539	-1.591
Mof_O 	O 	0.3169	0.88	0.8922	-1.72
Mof_O 	O 	0.5023	0.7926	0.835	-1.474
Mof_O 	O 	0.2022	0.0567	0.8848	-1.589
Mof_O 	O 	0.1412	0.1428	0.7746	-1.62
Mof_O 	O 	0.1534	0.9838	0.7649	-1.739
Mof_O 	O 	0.9689	0.0518	0.8365	-1.527
Mof_Al	Al	0.6847	0.5375	0.2177	6.665
Mof_Al	Al	0.831	0.3501	0.1766	6.258
Mof_Al	Al	0.6577	0.5097	0.406	6.536
Mof_P 	P 	0.8593	0.5093	0.07729	1.502
Mof_P 	P 	0.6458	0.6836	0.33007	1.49
Mof_P 	P 	0.8841	0.4427	0.31452	1.329
Mof_F 	F 	0.6787	0.421	0.1928	-2.008
Mof_F 	F 	0.6005	0.5039	0.3047	-2.156
Mof_O 	O 	0.0046	0.5419	0.0726	-1.753
Mof_O 	O 	0.7907	0.5191	0.0025	-1.556
Mof_O 	O 	0.8637	0.416	0.1002	-1.86
Mof_O 	O 	0.7824	0.5636	0.133	-1.516
Mof_O 	O 	0.7292	0.7629	0.3451	-1.643
Mof_O 	O 	0.684	0.6485	0.2539	-1.595
Mof_O 	O 	0.6831	0.62	0.3922	-1.744
Mof_O 	O 	0.4977	0.7074	0.335	-1.475
Mof_O 	O 	0.7978	0.4433	0.3848	-1.635
Mof_O 	O 	0.8588	0.3572	0.2746	-1.622
Mof_O 	O 	0.8466	0.5162	0.2649	-1.72
Mof_O 	O 	0.0311	0.4482	0.3365	-1.509
Mof_Al	Al	0.8153	0.0375	0.7823	6.66
Mof_Al	Al	0.669	0.8501	0.8234	6.258
Mof_Al	Al	0.8423	0.0097	0.594	6.441
Mof_P 	P 	0.6407	0.0093	0.92271	1.499
Mof_P 	P 	0.8542	0.1836	0.66993	1.474
Mof_P 	P 	0.6159	0.9427	0.68548	1.328
Mof_F 	F 	0.8213	0.921	0.8072	-2.001
Mof_F 	F 	0.8995	0.0039	0.6953	-2.149
Mof_O 	O 	0.4954	0.0419	0.9274	-1.702
Mof_O 	O 	0.7093	0.0191	0.9975	-1.52
Mof_O 	O 	0.6363	0.916	0.8998	-1.858
Mof_O 	O 	0.7176	0.0636	0.867	-1.514
Mof_O 	O 	0.7708	0.2629	0.6549	-1.642
Mof_O 	O 	0.816	0.1485	0.7461	-1.595
Mof_O 	O 	0.8169	0.12	0.6078	-1.728
Mof_O 	O 	0.0023	0.2074	0.665	-1.465
Mof_O 	O 	0.7022	0.9433	0.6152	-1.606
Mof_O 	O 	0.6412	0.8572	0.7254	-1.618
Mof_O 	O 	0.6534	0.0162	0.7351	-1.711
Mof_O 	O 	0.4689	0.9482	0.6635	-1.503
Mof_Al	Al	0.1847	0.4625	0.2823	6.665
Mof_Al	Al	0.331	0.6499	0.3234	6.259
Mof_Al	Al	0.1577	0.4903	0.094	6.537
Mof_P 	P 	0.3593	0.4907	0.42271	1.501
Mof_P 	P 	0.1458	0.3164	0.16993	1.498
Mof_P 	P 	0.3841	0.5573	0.18548	1.332
Mof_F 	F 	0.1787	0.579	0.3072	-2.01
Mof_F 	F 	0.1005	0.4961	0.1953	-2.156
Mof_O 	O 	0.5046	0.4581	0.4274	-1.749
Mof_O 	O 	0.2907	0.4809	0.4975	-1.555
Mof_O 	O 	0.3637	0.584	0.3998	-1.857
Mof_O 	O 	0.2824	0.4364	0.367	-1.516
Mof_O 	O 	0.2292	0.2371	0.1549	-1.642
Mof_O 	O 	0.184	0.3515	0.2461	-1.595
Mof_O 	O 	0.1831	0.38	0.1078	-1.746
Mof_O 	O 	0.9977	0.2926	0.165	-1.488
Mof_O 	O 	0.2978	0.5567	0.1152	-1.635
Mof_O 	O 	0.3588	0.6428	0.2254	-1.62
Mof_O 	O 	0.3466	0.4838	0.2351	-1.721
Mof_O 	O 	0.5311	0.5518	0.1635	-1.509
_end
