# CIF file generated by openbabel 3.1.0, see https://openbabel.org
data_I
_chemical_name_common 'image0'
_cell_length_a 7.877
_cell_length_b 15.693
_cell_length_c 11.2
_cell_angle_alpha 90
_cell_angle_beta 91.77
_cell_angle_gamma 90
_space_group_name_H-M_alt 'P 1'
_space_group_name_Hall 'P 1'
loop_
    _symmetry_equiv_pos_as_xyz
    x,y,z
loop_
    _atom_site_label
    _atom_site_type_symbol
    _atom_site_fract_x
    _atom_site_fract_y
    _atom_site_fract_z
    _atom_site_occupancy
    C1       C        0.60170    0.24175    0.19930    1.000
    C2       C        0.75790    0.15132    0.36940    1.000
    C3       C        0.55200    0.07570    0.20550    1.000
    C4       C        0.74200    0.14054    0.03040    1.000
    C5       C        0.94040    0.21920    0.19780    1.000
    C6       C        0.60300    0.55035    0.29910    1.000
    Co1      Co       0.74849    0.14579    0.19996    1.000
    N1       N        0.50830    0.29750    0.20420    1.000
    N2       N        0.76210    0.15672    0.47140    1.000
    N3       N        0.05740    0.26242    0.19720    1.000
    N4       N        0.74400    0.13645    0.92850    1.000
    N5       N        0.42880    0.03646    0.21170    1.000
    N6       N        0.50870    0.49461    0.30290    1.000
    Sr1      Sr       0.24904    0.40452    0.19587    1.000
    C7       C        0.89830    0.74175    0.30070    1.000
    C8       C        0.74210    0.65132    0.13060    1.000
    C9       C        0.94800    0.57570    0.29450    1.000
    C10      C        0.75800    0.64054    0.46960    1.000
    C11      C        0.55960    0.71920    0.30220    1.000
    C12      C        0.89700    0.05035    0.20090    1.000
    Co2      Co       0.75151    0.64579    0.30004    1.000
    N7       N        0.99170    0.79750    0.29580    1.000
    N8       N        0.73790    0.65672    0.02860    1.000
    N9       N        0.44260    0.76242    0.30280    1.000
    N10      N        0.75600    0.63645    0.57150    1.000
    N11      N        0.07120    0.53646    0.28830    1.000
    N12      N        0.99130    0.99461    0.19710    1.000
    Sr2      Sr       0.25096    0.90452    0.30413    1.000
    C13      C        0.39830    0.75825    0.80070    1.000
    C14      C        0.24210    0.84868    0.63060    1.000
    C15      C        0.44800    0.92430    0.79450    1.000
    C16      C        0.25800    0.85946    0.96960    1.000
    C17      C        0.05960    0.78080    0.80220    1.000
    C18      C        0.39700    0.44965    0.70090    1.000
    Co3      Co       0.25151    0.85421    0.80004    1.000
    N13      N        0.49170    0.70250    0.79580    1.000
    N14      N        0.23790    0.84328    0.52860    1.000
    N15      N        0.94260    0.73758    0.80280    1.000
    N16      N        0.25600    0.86355    0.07150    1.000
    N17      N        0.57120    0.96354    0.78830    1.000
    N18      N        0.49130    0.50539    0.69710    1.000
    Sr3      Sr       0.75096    0.59548    0.80413    1.000
    C19      C        0.10170    0.25825    0.69930    1.000
    C20      C        0.25790    0.34868    0.86940    1.000
    C21      C        0.05200    0.42430    0.70550    1.000
    C22      C        0.24200    0.35946    0.53040    1.000
    C23      C        0.44040    0.28080    0.69780    1.000
    C24      C        0.10300    0.94965    0.79910    1.000
    Co4      Co       0.24849    0.35421    0.69996    1.000
    N19      N        0.00830    0.20250    0.70420    1.000
    N20      N        0.26210    0.34328    0.97140    1.000
    N21      N        0.55740    0.23758    0.69720    1.000
    N22      N        0.24400    0.36355    0.42850    1.000
    N23      N        0.92880    0.46354    0.71170    1.000
    N24      N        0.00870    0.00539    0.80290    1.000
    Sr4      Sr       0.74904    0.09548    0.69587    1.000
