data_functionalizedCrystal
_audit_creation_method	'EQeq! by Chris Wilmer'
_symmetry_space_group_name_H-M	'P1'
_symmetry_Int_Tables_number	1
_symmetry_cell_setting	triclinic
loop_
_symmetry_equiv_pos_as_xyz
  x,y,z
_cell_length_a	24.7318
_cell_length_b	24.7318
_cell_length_c	24.7318
_cell_angle_alpha	127.653
_cell_angle_beta	127.653
_cell_angle_gamma	77.1881
loop_
_atom_site_label
_atom_site_type_symbol
_atom_site_fract_x
_atom_site_fract_y
_atom_site_fract_z
_atom_site_charge
Mof_Zn	Zn	0.02843	0.55264	0.00373	1.215
Mof_C 	C 	0.67127	0.49117	0.6677	-0.112
Mof_C 	C 	0.80425	0.50915	0.8095	-0.108
Mof_C 	C 	0.87325	0.51255	0.8821	0.417
Mof_C 	C 	0.60238	0.48688	0.5951	0.408
Mof_C 	C 	0.20026	0.62516	0.0399	-0.047
Mof_C 	C 	0.094	0.6304	0.9304	-0.032
Mof_C 	C 	0.0102	0.2528	0.708	-0.036
Mof_C 	C 	0.7282	0.5448	0.7194	-0.029
Mof_C 	C 	0.79284	0.55294	0.7885	0.197
Mof_C 	C 	0.00553	0.31743	0.7637	0.209
Mof_C 	C 	0.1475	0.724	0.0817	-0.035
Mof_N 	N 	0.16224	0.67314	0.0189	-0.199
Mof_Cl	Cl	0.99082	0.14068	0.76508	-0.311
Mof_Cl	Cl	0.01102	0.38373	0.76001	-0.307
Mof_O 	O 	0.86935	0.49565	0.9179	-0.457
Mof_O 	O 	0.9284	0.5308	0.8988	-0.431
Mof_O 	O 	0.54716	0.47156	0.58	-0.433
Mof_O 	O 	0.94963	0.39453	0.8947	-0.452
Mof_H 	H 	0.2102	0.58501	0.99093	0.079
Mof_H 	H 	0.25275	0.65742	0.10774	0.075
Mof_H 	H 	0.06367	0.66664	0.91421	0.054
Mof_H 	H 	0.10475	0.59162	0.88192	0.062
Mof_H 	H 	0.01827	0.24506	0.66318	0.083
Mof_H 	H 	0.72167	0.58252	0.70482	0.08
Mof_H 	H 	0.19935	0.75657	0.15018	0.057
Mof_H 	H 	0.11793	0.76043	0.06542	0.047
Mof_Zn	Zn	0.54891	0.0247	0.99627	1.212
Mof_C 	C 	0.82347	0.00357	0.3323	-0.114
Mof_C 	C 	0.69965	0.99475	0.1905	-0.105
Mof_C 	C 	0.63045	0.99115	0.1179	0.416
Mof_C 	C 	0.89178	0.00728	0.4049	0.405
Mof_C 	C 	0.58526	0.16036	0.9601	-0.047
Mof_C 	C 	0.7	0.1636	0.0696	-0.028
Mof_C 	C 	0.5448	0.3022	0.292	-0.031
Mof_C 	C 	0.8254	0.0088	0.2806	-0.028
Mof_C 	C 	0.76444	0.00434	0.2115	0.195
Mof_C 	C 	0.55373	0.24183	0.2363	0.2
Mof_C 	C 	0.6423	0.0658	0.9183	-0.029
Mof_N 	N 	0.65424	0.14334	0.9811	-0.201
Mof_Cl	Cl	0.3756	0.22574	0.23492	-0.305
Mof_Cl	Cl	0.62372	0.25101	0.23999	-0.309
Mof_O 	O 	0.57775	0.95145	0.0821	-0.456
Mof_O 	O 	0.632	0.0296	0.1012	-0.427
Mof_O 	O 	0.89156	0.96716	0.42	-0.431
Mof_O 	O 	0.49983	0.05493	0.1053	-0.452
Mof_H 	H 	0.59408	0.21927	0.00907	0.081
Mof_H 	H 	0.54968	0.14501	0.89226	0.074
Mof_H 	H 	0.75243	0.14946	0.08579	0.052
Mof_H 	H 	0.7097	0.22283	0.11808	0.061
Mof_H 	H 	0.58188	0.3551	0.33682	0.082
Mof_H 	H 	0.8777	0.01685	0.29518	0.08
Mof_H 	H 	0.60638	0.04917	0.84982	0.054
Mof_H 	H 	0.695	0.05251	0.93458	0.043
Mof_Zn	Zn	0.30264	0.79891	0.02421	1.214
Mof_C 	C 	0.24117	0.07347	0.3199	-0.109
Mof_C 	C 	0.25915	0.94965	0.2049	-0.105
Mof_C 	C 	0.26255	0.88045	0.1393	0.417
Mof_C 	C 	0.23688	0.14178	0.3845	0.407
Mof_C 	C 	0.37516	0.83526	0.9249	-0.04
Mof_C 	C 	0.3804	0.95	0.0364	-0.037
Mof_C 	C 	0.0028	0.7948	0.7426	-0.01
Mof_C 	C 	0.2948	0.0754	0.3166	-0.03
Mof_C 	C 	0.30294	0.01444	0.2601	0.194
Mof_C 	C 	0.06743	0.80373	0.8119	0.195
Mof_C 	C 	0.474	0.8923	0.0765	-0.035
Mof_N 	N 	0.42314	0.90424	0.0109	-0.2
Mof_Cl	Cl	0.89068	0.6256	0.64986	-0.308
Mof_Cl	Cl	0.13373	0.87372	0.87271	-0.301
Mof_O 	O 	0.24565	0.82775	0.1263	-0.456
Mof_O 	O 	0.2808	0.882	0.1024	-0.429
Mof_O 	O 	0.22156	0.14156	0.4244	-0.434
Mof_O 	O 	0.14453	0.74983	0.9449	-0.449
Mof_H 	H 	0.33501	0.84408	0.8748	0.077
Mof_H 	H 	0.40742	0.79968	0.90467	0.074
Mof_H 	H 	0.41664	0.00243	0.10297	0.052
Mof_H 	H 	0.34162	0.9597	0.98687	0.067
Mof_H 	H 	0.99506	0.83188	0.72678	0.072
Mof_H 	H 	0.33252	0.1277	0.36085	0.08
Mof_H 	H 	0.50657	0.85638	0.05722	0.056
Mof_H 	H 	0.51043	0.945	0.14249	0.048
Mof_Zn	Zn	0.7747	0.27843	0.97579	1.214
Mof_C 	C 	0.75357	0.92127	0.6801	-0.109
Mof_C 	C 	0.74475	0.05425	0.7951	-0.121
Mof_C 	C 	0.74115	0.12325	0.8607	0.42
Mof_C 	C 	0.75728	0.85238	0.6155	0.408
Mof_C 	C 	0.91036	0.45026	0.0751	-0.042
Mof_C 	C 	0.9136	0.344	0.9636	-0.035
Mof_C 	C 	0.0522	0.2602	0.2574	-0.028
Mof_C 	C 	0.7588	0.9782	0.6834	-0.022
Mof_C 	C 	0.75434	0.04284	0.7399	0.192
Mof_C 	C 	0.99183	0.25553	0.1881	0.193
Mof_C 	C 	0.8158	0.3975	0.9235	-0.035
Mof_N 	N 	0.89334	0.41224	0.9891	-0.199
Mof_Cl	Cl	0.97574	0.24082	0.35014	-0.309
Mof_Cl	Cl	0.00101	0.26102	0.12729	-0.304
Mof_O 	O 	0.70145	0.11935	0.8737	-0.458
Mof_O 	O 	0.7796	0.1784	0.8976	-0.431
Mof_O 	O 	0.71716	0.79716	0.5756	-0.433
Mof_O 	O 	0.80493	0.19963	0.0551	-0.449
Mof_H 	H 	0.96927	0.4602	0.1252	0.075
Mof_H 	H 	0.89501	0.50275	0.09533	0.074
Mof_H 	H 	0.89946	0.31367	0.89703	0.052
Mof_H 	H 	0.97283	0.35475	0.01313	0.063
Mof_H 	H 	0.1051	0.26827	0.27322	0.081
Mof_H 	H 	0.76685	0.97167	0.63915	0.081
Mof_H 	H 	0.79917	0.44935	0.94278	0.057
Mof_H 	H 	0.80251	0.36793	0.85751	0.048
Mof_Zn	Zn	0.70109	0.19736	0.97579	1.214
Mof_C 	C 	0.42653	0.25883	0.6801	-0.111
Mof_C 	C 	0.55035	0.24085	0.7951	-0.107
Mof_C 	C 	0.61955	0.23745	0.8607	0.417
Mof_C 	C 	0.35822	0.26312	0.6155	0.408
Mof_C 	C 	0.66474	0.12484	0.0751	-0.04
Mof_C 	C 	0.55	0.1196	0.9636	-0.036
Mof_C 	C 	0.7052	0.4972	0.2574	-0.031
Mof_C 	C 	0.4246	0.2052	0.6834	-0.029
Mof_C 	C 	0.48556	0.19706	0.7399	0.197
Mof_C 	C 	0.69627	0.43257	0.1881	0.2
Mof_C 	C 	0.6077	0.026	0.9235	-0.06
Mof_N 	N 	0.59576	0.07686	0.9891	-0.198
Mof_Cl	Cl	0.8744	0.60932	0.35014	-0.307
Mof_Cl	Cl	0.62628	0.36627	0.12729	-0.307
Mof_O 	O 	0.67225	0.25435	0.8737	-0.456
Mof_O 	O 	0.618	0.2192	0.8976	-0.429
Mof_O 	O 	0.35844	0.27844	0.5756	-0.433
Mof_O 	O 	0.75017	0.35547	0.0551	-0.45
Mof_H 	H 	0.65592	0.16499	0.1252	0.077
Mof_H 	H 	0.70032	0.09258	0.09533	0.074
Mof_H 	H 	0.49757	0.08336	0.89703	0.051
Mof_H 	H 	0.5403	0.15838	0.01313	0.065
Mof_H 	H 	0.66812	0.50494	0.27322	0.082
Mof_H 	H 	0.3723	0.16748	0.63915	0.08
Mof_H 	H 	0.64362	0.99343	0.94278	0.069
Mof_H 	H 	0.555	0.98957	0.85751	0.061
Mof_Zn	Zn	0.22157	0.7253	0.02421	1.214
Mof_C 	C 	0.57873	0.74643	0.3199	-0.111
Mof_C 	C 	0.44575	0.75525	0.2049	-0.107
Mof_C 	C 	0.37675	0.75885	0.1393	0.417
Mof_C 	C 	0.64762	0.74272	0.3845	0.408
Mof_C 	C 	0.04974	0.58964	0.9249	-0.032
Mof_C 	C 	0.156	0.5864	0.0364	-0.034
Mof_C 	C 	0.2398	0.4478	0.7426	-0.031
Mof_C 	C 	0.5218	0.7412	0.3166	-0.029
Mof_C 	C 	0.45716	0.74566	0.2601	0.197
Mof_C 	C 	0.24447	0.50817	0.8119	0.2
Mof_C 	C 	0.1025	0.6842	0.0765	-0.035
Mof_N 	N 	0.08776	0.60666	0.0109	-0.2
Mof_Cl	Cl	0.25918	0.52426	0.64986	-0.305
Mof_Cl	Cl	0.23898	0.49899	0.87271	-0.307
Mof_O 	O 	0.38065	0.79855	0.1263	-0.456
Mof_O 	O 	0.3216	0.7204	0.1024	-0.429
Mof_O 	O 	0.70284	0.78284	0.4244	-0.433
Mof_O 	O 	0.30037	0.69507	0.9449	-0.45
Mof_H 	H 	0.0398	0.53073	0.8748	0.076
Mof_H 	H 	0.99725	0.60499	0.90467	0.066
Mof_H 	H 	0.18633	0.60054	0.10297	0.052
Mof_H 	H 	0.14525	0.52717	0.98687	0.063
Mof_H 	H 	0.23173	0.3949	0.72678	0.082
Mof_H 	H 	0.52833	0.73315	0.36085	0.081
Mof_H 	H 	0.05065	0.70083	0.05722	0.058
Mof_H 	H 	0.13207	0.69749	0.14249	0.048
Mof_Zn	Zn	0.4753	0.95109	0.00373	1.214
Mof_C 	C 	0.49643	0.67653	0.6677	-0.111
Mof_C 	C 	0.50525	0.80035	0.8095	-0.106
Mof_C 	C 	0.50885	0.86955	0.8821	0.416
Mof_C 	C 	0.49272	0.60822	0.5951	0.408
Mof_C 	C 	0.33964	0.91474	0.0399	-0.05
Mof_C 	C 	0.3364	0.8	0.9304	-0.028
Mof_C 	C 	0.1978	0.9552	0.708	-0.014
Mof_C 	C 	0.4912	0.6746	0.7194	-0.029
Mof_C 	C 	0.49566	0.73556	0.7885	0.197
Mof_C 	C 	0.25817	0.94627	0.7637	0.193
Mof_C 	C 	0.4342	0.8577	0.0817	-0.035
Mof_N 	N 	0.35666	0.84576	0.0189	-0.2
Mof_Cl	Cl	0.27426	0.1244	0.76508	-0.307
Mof_Cl	Cl	0.24899	0.87628	0.76001	-0.305
Mof_O 	O 	0.54855	0.92225	0.9179	-0.451
Mof_O 	O 	0.4704	0.868	0.8988	-0.425
Mof_O 	O 	0.53284	0.60844	0.58	-0.433
Mof_O 	O 	0.44507	0.00017	0.8947	-0.464
Mof_H 	H 	0.28073	0.90592	0.99093	0.083
Mof_H 	H 	0.35499	0.95032	0.10774	0.076
Mof_H 	H 	0.35054	0.74757	0.91421	0.052
Mof_H 	H 	0.27717	0.7903	0.88192	0.061
Mof_H 	H 	0.1449	0.91812	0.66318	0.08
Mof_H 	H 	0.48315	0.6223	0.70482	0.081
Mof_H 	H 	0.45083	0.89362	0.15018	0.058
Mof_H 	H 	0.44749	0.805	0.06542	0.047
Mof_Zn	Zn	0.94736	0.47157	0.99627	1.214
Mof_C 	C 	0.00883	0.82873	0.3323	-0.102
Mof_C 	C 	0.99085	0.69575	0.1905	-0.115
Mof_C 	C 	0.98745	0.62675	0.1179	0.413
Mof_C 	C 	0.01312	0.89762	0.4049	0.415
Mof_C 	C 	0.87484	0.29974	0.9601	-0.048
Mof_C 	C 	0.8696	0.406	0.0696	-0.029
Mof_C 	C 	0.2472	0.4898	0.292	-0.031
Mof_C 	C 	0.9552	0.7718	0.2806	-0.039
Mof_C 	C 	0.94706	0.70716	0.2115	0.201
Mof_C 	C 	0.18257	0.49447	0.2363	0.2
Mof_C 	C 	0.776	0.3525	0.9183	-0.035
Mof_N 	N 	0.82686	0.33776	0.9811	-0.199
Mof_Cl	Cl	0.35932	0.50918	0.23492	-0.305
Mof_Cl	Cl	0.11627	0.48898	0.23999	-0.306
Mof_O 	O 	0.00435	0.63065	0.0821	-0.451
Mof_O 	O 	0.9692	0.5716	0.1012	-0.428
Mof_O 	O 	0.02844	0.95284	0.42	-0.429
Mof_O 	O 	0.10547	0.55037	0.1053	-0.451
Mof_H 	H 	0.91499	0.2898	0.00907	0.08
Mof_H 	H 	0.84258	0.24725	0.89226	0.074
Mof_H 	H 	0.83336	0.43633	0.08579	0.052
Mof_H 	H 	0.90838	0.39525	0.11808	0.06
Mof_H 	H 	0.25494	0.48173	0.33682	0.082
Mof_H 	H 	0.91748	0.77833	0.29518	0.082
Mof_H 	H 	0.74343	0.30065	0.84982	0.057
Mof_H 	H 	0.73957	0.38207	0.93458	0.047
Mof_Zn	Zn	0.72157	0.69736	0.49627	1.215
Mof_C 	C 	0.07873	0.75883	0.8323	-0.109
Mof_C 	C 	0.94575	0.74085	0.6905	-0.119
Mof_C 	C 	0.87675	0.73745	0.6179	0.42
Mof_C 	C 	0.14762	0.76312	0.9049	0.408
Mof_C 	C 	0.54974	0.62484	0.4601	-0.044
Mof_C 	C 	0.656	0.6196	0.5696	-0.032
Mof_C 	C 	0.7398	0.9972	0.792	-0.008
Mof_C 	C 	0.0218	0.7052	0.7806	-0.022
Mof_C 	C 	0.95716	0.69706	0.7115	0.191
Mof_C 	C 	0.74447	0.93257	0.7363	0.194
Mof_C 	C 	0.6025	0.526	0.4183	-0.035
Mof_N 	N 	0.58776	0.57686	0.4811	-0.198
Mof_Cl	Cl	0.75918	0.10932	0.73492	-0.307
Mof_Cl	Cl	0.73898	0.86627	0.73999	-0.305
Mof_O 	O 	0.88065	0.75435	0.5821	-0.458
Mof_O 	O 	0.8216	0.7192	0.6012	-0.429
Mof_O 	O 	0.20284	0.77844	0.92	-0.431
Mof_O 	O 	0.80037	0.85547	0.6053	-0.452
Mof_H 	H 	0.5398	0.66499	0.50907	0.077
Mof_H 	H 	0.49725	0.59258	0.39226	0.074
Mof_H 	H 	0.68633	0.58336	0.58579	0.051
Mof_H 	H 	0.64525	0.65838	0.61808	0.061
Mof_H 	H 	0.73173	0.00494	0.83682	0.071
Mof_H 	H 	0.02833	0.66748	0.79518	0.081
Mof_H 	H 	0.55065	0.49343	0.34982	0.057
Mof_H 	H 	0.63207	0.48957	0.43458	0.047
Mof_Zn	Zn	0.20109	0.2253	0.50373	1.215
Mof_C 	C 	0.92653	0.24643	0.1677	-0.109
Mof_C 	C 	0.05035	0.25525	0.3095	-0.104
Mof_C 	C 	0.11955	0.25885	0.3821	0.416
Mof_C 	C 	0.85822	0.24272	0.0951	0.407
Mof_C 	C 	0.16474	0.08964	0.5399	-0.044
Mof_C 	C 	0.05	0.0864	0.4304	-0.028
Mof_C 	C 	0.2052	0.9478	0.208	-0.025
Mof_C 	C 	0.9246	0.2412	0.2194	-0.029
Mof_C 	C 	0.98556	0.24566	0.2885	0.193
Mof_C 	C 	0.19627	0.00817	0.2637	0.192
Mof_C 	C 	0.1077	0.1842	0.5817	-0.035
Mof_N 	N 	0.09576	0.10666	0.5189	-0.199
Mof_Cl	Cl	0.3744	0.02426	0.26508	-0.306
Mof_Cl	Cl	0.12628	0.99899	0.26001	-0.3
Mof_O 	O 	0.17225	0.29855	0.4179	-0.456
Mof_O 	O 	0.118	0.2204	0.3988	-0.427
Mof_O 	O 	0.85844	0.28284	0.08	-0.432
Mof_O 	O 	0.25017	0.19507	0.3947	-0.452
Mof_H 	H 	0.15592	0.03073	0.49093	0.075
Mof_H 	H 	0.20032	0.10499	0.60774	0.074
Mof_H 	H 	0.99757	0.10054	0.41421	0.048
Mof_H 	H 	0.0403	0.02717	0.38192	0.059
Mof_H 	H 	0.16812	0.8949	0.16318	0.081
Mof_H 	H 	0.8723	0.23315	0.20482	0.08
Mof_H 	H 	0.14362	0.20083	0.65018	0.057
Mof_H 	H 	0.055	0.19749	0.56542	0.048
Mof_Zn	Zn	0.44736	0.45109	0.47579	1.215
Mof_C 	C 	0.50883	0.17653	0.1801	-0.111
Mof_C 	C 	0.49085	0.30035	0.2951	-0.107
Mof_C 	C 	0.48745	0.36955	0.3607	0.417
Mof_C 	C 	0.51312	0.10822	0.1155	0.407
Mof_C 	C 	0.37484	0.41474	0.5751	-0.044
Mof_C 	C 	0.3696	0.3	0.4636	-0.032
Mof_C 	C 	0.7472	0.4552	0.7574	-0.031
Mof_C 	C 	0.4552	0.1746	0.1834	-0.029
Mof_C 	C 	0.44706	0.23556	0.2399	0.197
Mof_C 	C 	0.68257	0.44627	0.6881	0.2
Mof_C 	C 	0.276	0.3577	0.4235	-0.035
Mof_N 	N 	0.32686	0.34576	0.4891	-0.198
Mof_Cl	Cl	0.85932	0.6244	0.85014	-0.307
Mof_Cl	Cl	0.61627	0.37628	0.62729	-0.309
Mof_O 	O 	0.50435	0.42225	0.3737	-0.456
Mof_O 	O 	0.4692	0.368	0.3976	-0.428
Mof_O 	O 	0.52844	0.10844	0.0756	-0.432
Mof_O 	O 	0.60547	0.50017	0.5551	-0.452
Mof_H 	H 	0.41499	0.40592	0.6252	0.077
Mof_H 	H 	0.34258	0.45032	0.59533	0.074
Mof_H 	H 	0.33336	0.24757	0.39703	0.052
Mof_H 	H 	0.40838	0.2903	0.51313	0.061
Mof_H 	H 	0.75494	0.41812	0.77322	0.082
Mof_H 	H 	0.41748	0.1223	0.13915	0.08
Mof_H 	H 	0.24343	0.39362	0.44278	0.057
Mof_H 	H 	0.23957	0.305	0.35751	0.048
Mof_Zn	Zn	0.9753	0.97157	0.52421	1.214
Mof_C 	C 	0.99643	0.32873	0.8199	-0.119
Mof_C 	C 	0.00525	0.19575	0.7049	-0.099
Mof_C 	C 	0.00885	0.12675	0.6393	0.42
Mof_C 	C 	0.99272	0.39762	0.8845	0.4
Mof_C 	C 	0.83964	0.79974	0.4249	-0.044
Mof_C 	C 	0.8364	0.906	0.5364	-0.033
Mof_C 	C 	0.6978	0.9898	0.2426	-0.032
Mof_C 	C 	0.9912	0.2718	0.8166	-0.026
Mof_C 	C 	0.99566	0.20716	0.7601	0.188
Mof_C 	C 	0.75817	0.99447	0.3119	0.202
Mof_C 	C 	0.9342	0.8525	0.5765	-0.03
Mof_N 	N 	0.85666	0.83776	0.5109	-0.198
Mof_Cl	Cl	0.77426	0.00918	0.14986	-0.305
Mof_Cl	Cl	0.74899	0.98898	0.37271	-0.306
Mof_O 	O 	0.04855	0.13065	0.6263	-0.457
Mof_O 	O 	0.9704	0.0716	0.6024	-0.435
Mof_O 	O 	0.03284	0.45284	0.9244	-0.425
Mof_O 	O 	0.94507	0.05037	0.4449	-0.454
Mof_H 	H 	0.78073	0.7898	0.3748	0.077
Mof_H 	H 	0.85499	0.74725	0.40467	0.074
Mof_H 	H 	0.85054	0.93633	0.60297	0.053
Mof_H 	H 	0.77717	0.89525	0.48687	0.062
Mof_H 	H 	0.6449	0.98173	0.22678	0.082
Mof_H 	H 	0.98315	0.27833	0.86085	0.078
Mof_H 	H 	0.95083	0.80065	0.55722	0.054
Mof_H 	H 	0.94749	0.88207	0.64249	0.046
Mof_Zn	Zn	0.04891	0.05264	0.52421	1.215
Mof_C 	C 	0.32347	0.99117	0.8199	-0.095
Mof_C 	C 	0.19965	0.00915	0.7049	-0.121
Mof_C 	C 	0.13045	0.01255	0.6393	0.408
Mof_C 	C 	0.39178	0.98688	0.8845	0.419
Mof_C 	C 	0.08526	0.12516	0.4249	-0.045
Mof_C 	C 	0.2	0.1304	0.5364	-0.032
Mof_C 	C 	0.0448	0.7528	0.2426	-0.022
Mof_C 	C 	0.3254	0.0448	0.8166	-0.047
Mof_C 	C 	0.26444	0.05294	0.7601	0.204
Mof_C 	C 	0.05373	0.81743	0.3119	0.196
Mof_C 	C 	0.1423	0.224	0.5765	-0.035
Mof_N 	N 	0.15424	0.17314	0.5109	-0.198
Mof_Cl	Cl	0.8756	0.64068	0.14986	-0.306
Mof_Cl	Cl	0.12372	0.88373	0.37271	-0.303
Mof_O 	O 	0.07775	0.99565	0.6263	-0.442
Mof_O 	O 	0.132	0.0308	0.6024	-0.427
Mof_O 	O 	0.39156	0.97156	0.9244	-0.431
Mof_O 	O 	0.99983	0.89453	0.4449	-0.459
Mof_H 	H 	0.09408	0.08501	0.3748	0.076
Mof_H 	H 	0.04968	0.15742	0.40467	0.075
Mof_H 	H 	0.25243	0.16664	0.60297	0.051
Mof_H 	H 	0.2097	0.09162	0.48687	0.06
Mof_H 	H 	0.08188	0.74506	0.22678	0.081
Mof_H 	H 	0.3777	0.08252	0.86085	0.083
Mof_H 	H 	0.10638	0.25657	0.55722	0.057
Mof_H 	H 	0.195	0.26043	0.64249	0.048
Mof_Zn	Zn	0.52843	0.5247	0.47579	1.215
Mof_C 	C 	0.17127	0.50357	0.1801	-0.11
Mof_C 	C 	0.30425	0.49475	0.2951	-0.107
Mof_C 	C 	0.37325	0.49115	0.3607	0.417
Mof_C 	C 	0.10238	0.50728	0.1155	0.408
Mof_C 	C 	0.70026	0.66036	0.5751	-0.044
Mof_C 	C 	0.594	0.6636	0.4636	-0.032
Mof_C 	C 	0.5102	0.8022	0.7574	-0.031
Mof_C 	C 	0.2282	0.5088	0.1834	-0.029
Mof_C 	C 	0.29284	0.50434	0.2399	0.197
Mof_C 	C 	0.50553	0.74183	0.6881	0.2
Mof_C 	C 	0.6475	0.5658	0.4235	-0.035
Mof_N 	N 	0.66224	0.64334	0.4891	-0.198
Mof_Cl	Cl	0.49082	0.72574	0.85014	-0.304
Mof_Cl	Cl	0.51102	0.75101	0.62729	-0.307
Mof_O 	O 	0.36935	0.45145	0.3737	-0.456
Mof_O 	O 	0.4284	0.5296	0.3976	-0.428
Mof_O 	O 	0.04716	0.46716	0.0756	-0.43
Mof_O 	O 	0.44963	0.55493	0.5551	-0.452
Mof_H 	H 	0.7102	0.71927	0.6252	0.077
Mof_H 	H 	0.75275	0.64501	0.59533	0.074
Mof_H 	H 	0.56367	0.64946	0.39703	0.052
Mof_H 	H 	0.60475	0.72283	0.51313	0.061
Mof_H 	H 	0.51827	0.8551	0.77322	0.083
Mof_H 	H 	0.22167	0.51685	0.13915	0.081
Mof_H 	H 	0.69935	0.54917	0.44278	0.057
Mof_H 	H 	0.61793	0.55251	0.35751	0.048
Mof_Zn	Zn	0.2747	0.29891	0.49627	1.215
Mof_C 	C 	0.25357	0.57347	0.8323	-0.11
Mof_C 	C 	0.24475	0.44965	0.6905	-0.107
Mof_C 	C 	0.24115	0.38045	0.6179	0.417
Mof_C 	C 	0.25728	0.64178	0.9049	0.408
Mof_C 	C 	0.41036	0.33526	0.4601	-0.044
Mof_C 	C 	0.4136	0.45	0.5696	-0.032
Mof_C 	C 	0.5522	0.2948	0.792	-0.031
Mof_C 	C 	0.2588	0.5754	0.7806	-0.029
Mof_C 	C 	0.25434	0.51444	0.7115	0.197
Mof_C 	C 	0.49183	0.30373	0.7363	0.2
Mof_C 	C 	0.3158	0.3923	0.4183	-0.035
Mof_N 	N 	0.39334	0.40424	0.4811	-0.198
Mof_Cl	Cl	0.47574	0.1256	0.73492	-0.307
Mof_Cl	Cl	0.50101	0.37372	0.73999	-0.308
Mof_O 	O 	0.20145	0.32775	0.5821	-0.456
Mof_O 	O 	0.2796	0.382	0.6012	-0.428
Mof_O 	O 	0.21716	0.64156	0.92	-0.432
Mof_O 	O 	0.30493	0.24983	0.6053	-0.452
Mof_H 	H 	0.46927	0.34408	0.50907	0.077
Mof_H 	H 	0.39501	0.29968	0.39226	0.074
Mof_H 	H 	0.39946	0.50243	0.58579	0.052
Mof_H 	H 	0.47283	0.4597	0.61808	0.061
Mof_H 	H 	0.6051	0.33188	0.83682	0.082
Mof_H 	H 	0.26685	0.6277	0.79518	0.081
Mof_H 	H 	0.29917	0.35638	0.34982	0.057
Mof_H 	H 	0.30251	0.445	0.43458	0.048
Mof_Zn	Zn	0.80264	0.77843	0.50373	1.215
Mof_C 	C 	0.74117	0.42127	0.1677	-0.11
Mof_C 	C 	0.75915	0.55425	0.3095	-0.107
Mof_C 	C 	0.76255	0.62325	0.3821	0.417
Mof_C 	C 	0.73688	0.35238	0.0951	0.408
Mof_C 	C 	0.87516	0.95026	0.5399	-0.038
Mof_C 	C 	0.8804	0.844	0.4304	-0.032
Mof_C 	C 	0.5028	0.7602	0.208	-0.031
Mof_C 	C 	0.7948	0.4782	0.2194	-0.03
Mof_C 	C 	0.80294	0.54284	0.2885	0.197
Mof_C 	C 	0.56743	0.75553	0.2637	0.2
Mof_C 	C 	0.974	0.8975	0.5817	-0.054
Mof_N 	N 	0.92314	0.91224	0.5189	-0.197
Mof_Cl	Cl	0.39068	0.74082	0.26508	-0.304
Mof_Cl	Cl	0.63373	0.76102	0.26001	-0.308
Mof_O 	O 	0.74565	0.61935	0.4179	-0.456
Mof_O 	O 	0.7808	0.6784	0.3988	-0.428
Mof_O 	O 	0.72156	0.29716	0.08	-0.432
Mof_O 	O 	0.64453	0.69963	0.3947	-0.452
Mof_H 	H 	0.83501	0.9602	0.49093	0.077
Mof_H 	H 	0.90742	0.00275	0.60774	0.068
Mof_H 	H 	0.91664	0.81367	0.41421	0.051
Mof_H 	H 	0.84162	0.85475	0.38192	0.061
Mof_H 	H 	0.49506	0.76827	0.16318	0.082
Mof_H 	H 	0.83252	0.47167	0.20482	0.08
Mof_H 	H 	0.00657	0.94935	0.65018	0.069
Mof_H 	H 	0.01043	0.86793	0.56542	0.057
_end
