data_functionalizedCrystal
_audit_creation_method	'EQeq! by Chris Wilmer'
_symmetry_space_group_name_H-M	'P1'
_symmetry_Int_Tables_number	1
_symmetry_cell_setting	triclinic
loop_
_symmetry_equiv_pos_as_xyz
  x,y,z
_cell_length_a	10.179
_cell_length_b	10.9184
_cell_length_c	13.8704
_cell_angle_alpha	78.682
_cell_angle_beta	79.271
_cell_angle_gamma	86.079
loop_
_atom_site_label
_atom_site_type_symbol
_atom_site_fract_x
_atom_site_fract_y
_atom_site_fract_z
_atom_site_charge
Mof_Eu	Eu	0.68011	0.07666	0.70336	2.159
Mof_Eu	Eu	0.31989	0.92334	0.29664	2.152
Mof_Mn	Mn	-2.15415e-17	0.5	0.5	0.717
Mof_H 	H 	0.1734	0.0868	0.7215	0.038
Mof_H 	H 	0.9117	0.1529	0.9605	0.078
Mof_H 	H 	0.3059	0.1469	0.9627	0.095
Mof_H 	H 	0.9879	0.1664	0.281	0.061
Mof_H 	H 	0.9653	0.2479	0.4253	-0.022
Mof_H 	H 	0.9851	0.5888	0.2726	0.001
Mof_H 	H 	0.9909	0.5187	0.125	0.11
Mof_H 	H 	0.6704	0.3309	0.8467	0.062
Mof_H 	H 	0.6523	0.6681	0.9229	0.098
Mof_H 	H 	0.7144	0.6391	0.6331	0.029
Mof_H 	H 	0.656	0.2258	0.1469	0.064
Mof_H 	H 	0.646	0.1177	0.3097	0.009
Mof_H 	H 	0.6374	0.4259	0.4108	0.017
Mof_H 	H 	0.644	0.5434	0.2544	0.08
Mof_H 	H 	0.1229	0.1582	0.1159	0.15
Mof_H 	H 	0.6192	0.3536	0.0169	0.139
Mof_H 	H 	0.8266	0.9132	0.2785	0.082
Mof_H 	H 	0.0883	0.8471	0.0395	0.135
Mof_H 	H 	0.6941	0.8531	0.0373	0.121
Mof_H 	H 	0.0121	0.8336	0.719	0.053
Mof_H 	H 	0.0347	0.7521	0.5747	-0.03
Mof_H 	H 	0.0149	0.4112	0.7274	-0.009
Mof_H 	H 	0.0091	0.4813	0.875	0.102
Mof_H 	H 	0.3296	0.6691	0.1533	0.056
Mof_H 	H 	0.3477	0.3319	0.0771	0.093
Mof_H 	H 	0.2856	0.3609	0.3669	0.023
Mof_H 	H 	0.344	0.7742	0.8531	0.063
Mof_H 	H 	0.354	0.8823	0.6903	0.009
Mof_H 	H 	0.3626	0.5741	0.5892	0.017
Mof_H 	H 	0.356	0.4566	0.7456	0.079
Mof_H 	H 	0.8771	0.8418	0.8841	0.159
Mof_H 	H 	0.3808	0.6464	0.9831	0.139
Mof_C 	C 	0.4049	0.0991	0.7858	0.31
Mof_C 	C 	0.262	0.1145	0.8331	-0.047
Mof_C 	C 	0.1564	0.1041	0.7857	0.002
Mof_C 	C 	0.0273	0.119	0.8322	-0.091
Mof_C 	C 	0.9996	0.1455	0.928	-0.031
Mof_C 	C 	0.1061	0.1608	0.9748	0.108
Mof_C 	C 	0.2357	0.1417	0.9294	-0.083
Mof_C 	C 	0.9079	0.1068	0.7844	0.332
Mof_C 	C 	0.9961	0.2939	0.0889	0.223
Mof_C 	C 	0.9912	0.3339	0.1866	0.022
Mof_C 	C 	0.9851	0.2524	0.2777	-0.107
Mof_C 	C 	0.9747	0.3024	0.364	0.079
Mof_C 	C 	0.984	0.5033	0.2743	0.083
Mof_C 	C 	0.9891	0.4619	0.1847	-0.109
Mof_C 	C 	0.7281	0.3949	0.647	0.464
Mof_C 	C 	0.7	0.4719	0.7269	-0.12
Mof_C 	C 	0.677	0.4172	0.8282	-0.053
Mof_C 	C 	0.6636	0.4894	0.9015	0.128
Mof_C 	C 	0.6643	0.6187	0.8742	-0.087
Mof_C 	C 	0.6831	0.6747	0.7726	-0.063
Mof_C 	C 	0.7013	0.6014	0.7002	0.033
Mof_C 	C 	0.6872	0.8107	0.7475	0.325
Mof_C 	C 	0.6666	0.4809	0.0793	0.226
Mof_C 	C 	0.6518	0.3977	0.1812	0.008
Mof_C 	C 	0.6521	0.2689	0.199	-0.089
Mof_C 	C 	0.6463	0.2045	0.2977	0.059
Mof_C 	C 	0.6408	0.3855	0.3572	0.061
Mof_C 	C 	0.6453	0.4567	0.2634	-0.091
Mof_C 	C 	0.5951	0.9009	0.2142	0.285
Mof_C 	C 	0.738	0.8855	0.1669	0.025
Mof_C 	C 	0.8436	0.8959	0.2143	-0.104
Mof_C 	C 	0.9727	0.881	0.1678	0.077
Mof_C 	C 	0.0004	0.8545	0.072	-0.228
Mof_C 	C 	0.8939	0.8392	0.0252	0.219
Mof_C 	C 	0.7643	0.8583	0.0706	-0.164
Mof_C 	C 	0.0921	0.8932	0.2156	0.249
Mof_C 	C 	0.0039	0.7061	0.9111	0.191
Mof_C 	C 	0.0088	0.6661	0.8134	0.021
Mof_C 	C 	0.0149	0.7476	0.7223	-0.115
Mof_C 	C 	0.0253	0.6976	0.636	0.074
Mof_C 	C 	0.016	0.4967	0.7257	0.077
Mof_C 	C 	0.0109	0.5381	0.8153	-0.115
Mof_C 	C 	0.2719	0.6051	0.353	0.464
Mof_C 	C 	0.3	0.5281	0.2731	-0.129
Mof_C 	C 	0.323	0.5828	0.1718	-0.05
Mof_C 	C 	0.3364	0.5106	0.0985	0.113
Mof_C 	C 	0.3357	0.3813	0.1258	-0.083
Mof_C 	C 	0.3169	0.3253	0.2274	-0.071
Mof_C 	C 	0.2987	0.3986	0.2998	0.034
Mof_C 	C 	0.3128	0.1893	0.2525	0.323
Mof_C 	C 	0.3334	0.5191	0.9207	0.224
Mof_C 	C 	0.3482	0.6023	0.8188	0.008
Mof_C 	C 	0.3479	0.7311	0.801	-0.089
Mof_C 	C 	0.3537	0.7955	0.7023	0.059
Mof_C 	C 	0.3592	0.6145	0.6428	0.061
Mof_C 	C 	0.3547	0.5433	0.7366	-0.091
Mof_N 	N 	0.0819	0.1979	0.0697	-0.246
Mof_N 	N 	0.9777	0.4256	0.3627	-0.187
Mof_N 	N 	0.6456	0.4292	0.0028	-0.238
Mof_N 	N 	0.6412	0.2613	0.3747	-0.143
Mof_N 	N 	0.9181	0.8021	0.9303	-0.238
Mof_N 	N 	0.0223	0.5744	0.6373	-0.194
Mof_N 	N 	0.3544	0.5708	0.9972	-0.233
Mof_N 	N 	0.3588	0.7387	0.6253	-0.144
Mof_O 	O 	0.4379	0.0988	0.692	-0.444
Mof_O 	O 	0.4945	0.086	0.8379	-0.439
Mof_O 	O 	0.9275	0.0948	0.6921	-0.45
Mof_O 	O 	0.7945	0.1113	0.8337	-0.446
Mof_O 	O 	0.9238	0.3473	0.0314	-0.221
Mof_O 	O 	0.6786	0.2879	0.6665	-0.577
Mof_O 	O 	0.8006	0.4374	0.5666	-0.411
Mof_O 	O 	0.6741	0.8693	0.661	-0.472
Mof_O 	O 	0.7042	0.8737	0.8109	-0.446
Mof_O 	O 	0.6942	0.5883	0.0713	-0.232
Mof_O 	O 	0.5621	0.9012	0.308	-0.436
Mof_O 	O 	0.5055	0.914	0.1621	-0.433
Mof_O 	O 	0.0725	0.9052	0.3079	-0.448
Mof_O 	O 	0.2055	0.8887	0.1663	-0.428
Mof_O 	O 	0.0762	0.6527	0.9686	-0.223
Mof_O 	O 	0.3214	0.7121	0.3335	-0.578
Mof_O 	O 	0.1994	0.5626	0.4334	-0.421
Mof_O 	O 	0.3259	0.1307	0.339	-0.477
Mof_O 	O 	0.2958	0.1263	0.1891	-0.45
Mof_O 	O 	0.3058	0.4117	0.9287	-0.231
_end
