data_functionalizedCrystal
_audit_creation_method	'EQeq! by Chris Wilmer'
_symmetry_space_group_name_H-M	'P1'
_symmetry_Int_Tables_number	1
_symmetry_cell_setting	triclinic
loop_
_symmetry_equiv_pos_as_xyz
  x,y,z
_cell_length_a	8.945
_cell_length_b	14.936
_cell_length_c	12.408
_cell_angle_alpha	90
_cell_angle_beta	108.531
_cell_angle_gamma	90
loop_
_atom_site_label
_atom_site_type_symbol
_atom_site_fract_x
_atom_site_fract_y
_atom_site_fract_z
_atom_site_charge
Mof_Fe	Fe	0.12132	0.04953	0.67924	0.995
Mof_Fe	Fe	0.235	0.20554	0.90427	1.012
Mof_Cl	Cl	0.0852	0.94945	0.80424	-0.343
Mof_Cl	Cl	0.0809	0.3125	0.79043	-0.347
Mof_O 	O 	0.2482	0.2849	0.0487	-0.264
Mof_O 	O 	0.2588	0.1339	0.7811	-0.604
Mof_O 	O 	0.3056	0.9923	0.6415	-0.263
Mof_O 	O 	0.6139	0.3609	0.0452	-0.264
Mof_O 	O 	0.3579	0.8897	0.5249	-0.252
Mof_O 	O 	0.0515	0.8582	0.4325	-0.277
Mof_O 	O 	0.9969	0.9642	0.5433	-0.225
Mof_O 	O 	0.4507	0.2626	0.9307	-0.27
Mof_O 	O 	0.4091	0.3882	0.1577	-0.27
Mof_C 	C 	0.489	0.3171	0.0129	0.257
Mof_C 	C 	0.2663	0.9348	0.5624	0.26
Mof_C 	C 	0.0876	0.9186	0.5079	0.236
Mof_C 	C 	0.3702	0.3303	0.0785	0.255
Mof_H 	H 	0.3143	0.1637	0.7494	0.325
Mof_Fe	Fe	0.62132	0.54953	0.67924	1.02
Mof_Fe	Fe	0.735	0.70554	0.90427	1.019
Mof_Cl	Cl	0.5852	0.44945	0.80424	-0.332
Mof_Cl	Cl	0.5809	0.8125	0.79043	-0.328
Mof_O 	O 	0.7482	0.7849	0.0487	-0.258
Mof_O 	O 	0.7588	0.6339	0.7811	-0.606
Mof_O 	O 	0.8056	0.4923	0.6415	-0.258
Mof_O 	O 	0.1139	0.8609	0.0452	-0.29
Mof_O 	O 	0.8579	0.3897	0.5249	-0.245
Mof_O 	O 	0.5515	0.3582	0.4325	-0.279
Mof_O 	O 	0.4969	0.4642	0.5433	-0.26
Mof_O 	O 	0.9507	0.7626	0.9307	-0.269
Mof_O 	O 	0.9091	0.8882	0.1577	-0.251
Mof_C 	C 	0.989	0.8171	0.0129	0.287
Mof_C 	C 	0.7663	0.4348	0.5624	0.253
Mof_C 	C 	0.5876	0.4186	0.5079	0.267
Mof_C 	C 	0.8702	0.8303	0.0785	0.248
Mof_H 	H 	0.8143	0.6637	0.7494	0.33
Mof_Fe	Fe	0.12132	0.95047	0.17924	0.994
Mof_Fe	Fe	0.235	0.79446	0.40427	1.01
Mof_Cl	Cl	0.0852	0.05055	0.30424	-0.347
Mof_Cl	Cl	0.0809	0.6875	0.29043	-0.349
Mof_O 	O 	0.2482	0.7151	0.5487	-0.262
Mof_O 	O 	0.2588	0.8661	0.2811	-0.604
Mof_O 	O 	0.3056	0.0077	0.1415	-0.263
Mof_O 	O 	0.6139	0.6391	0.5452	-0.264
Mof_O 	O 	0.3579	0.1103	0.0249	-0.253
Mof_O 	O 	0.0515	0.1418	0.9325	-0.275
Mof_O 	O 	0.9969	0.0358	0.0433	-0.221
Mof_O 	O 	0.4507	0.7374	0.4307	-0.273
Mof_O 	O 	0.4091	0.6118	0.6577	-0.269
Mof_C 	C 	0.489	0.6829	0.5129	0.26
Mof_C 	C 	0.2663	0.0652	0.0624	0.261
Mof_C 	C 	0.0876	0.0814	0.0079	0.23
Mof_C 	C 	0.3702	0.6697	0.5785	0.254
Mof_H 	H 	0.3143	0.8363	0.2494	0.325
Mof_Fe	Fe	0.62132	0.45047	0.17924	1.02
Mof_Fe	Fe	0.735	0.29446	0.40427	1.014
Mof_Cl	Cl	0.5852	0.55055	0.30424	-0.335
Mof_Cl	Cl	0.5809	0.1875	0.29043	-0.33
Mof_O 	O 	0.7482	0.2151	0.5487	-0.255
Mof_O 	O 	0.7588	0.3661	0.2811	-0.606
Mof_O 	O 	0.8056	0.5077	0.1415	-0.259
Mof_O 	O 	0.1139	0.1391	0.5452	-0.29
Mof_O 	O 	0.8579	0.6103	0.0249	-0.248
Mof_O 	O 	0.5515	0.6418	0.9325	-0.274
Mof_O 	O 	0.4969	0.5358	0.0433	-0.26
Mof_O 	O 	0.9507	0.2374	0.4307	-0.275
Mof_O 	O 	0.9091	0.1118	0.6577	-0.25
Mof_C 	C 	0.989	0.1829	0.5129	0.294
Mof_C 	C 	0.7663	0.5652	0.0624	0.254
Mof_C 	C 	0.5876	0.5814	0.0079	0.26
Mof_C 	C 	0.8702	0.1697	0.5785	0.247
Mof_H 	H 	0.8143	0.3363	0.2494	0.33
_end
