# CIF file generated by openbabel 3.1.0, see https://openbabel.org
data_I
_chemical_name_common 'SAHYAD01_charged'
_cell_length_a 15.8632
_cell_length_b 15.8632
_cell_length_c 21.76
_cell_angle_alpha 90
_cell_angle_beta 90
_cell_angle_gamma 90
_space_group_name_H-M_alt 'P 1'
_space_group_name_Hall 'P 1'
loop_
    _symmetry_equiv_pos_as_xyz
    x,y,z
loop_
    _atom_site_label
    _atom_site_type_symbol
    _atom_site_fract_x
    _atom_site_fract_y
    _atom_site_fract_z
    _atom_site_occupancy
    Cd1      Cd       0.44184    0.55816    0.25000    1.000
    Cd2      Cd       0.55816    0.44184    0.75000    1.000
    Cd3      Cd       0.94184    0.94184    0.00000    1.000
    Cd4      Cd       0.05816    0.05816    0.50000    1.000
    H1       H        0.26460    0.49130    0.32260    1.000
    H2       H        0.15360    0.39720    0.31320    1.000
    H3       H        0.23760    0.34260    0.14290    1.000
    H4       H        0.34220    0.44050    0.15660    1.000
    H5       H        0.03850    0.33360    0.28790    1.000
    H6       H        0.93730    0.22970    0.27880    1.000
    H7       H        0.95570    0.11860    0.20920    1.000
    H8       H        0.17600    0.22210    0.15450    1.000
    H9       H        0.20220    0.00510    0.95930    1.000
    H10      H        0.30250    0.91380    0.91570    1.000
    H11      H        0.35220    0.79920    0.97040    1.000
    H12      H        0.19810    0.85970    0.11180    1.000
    H13      H        0.41560    0.71450    0.03430    1.000
    H14      H        0.46310    0.60880    0.09840    1.000
    H15      H        0.27020    0.64070    0.20910    1.000
    H16      H        0.21350    0.73920    0.14530    1.000
    H17      H        0.25250    0.02600    0.15020    1.000
    H18      H        0.26010    0.08420    0.09970    1.000
    H19      H        0.73540    0.50870    0.82260    1.000
    H20      H        0.84640    0.60280    0.81320    1.000
    H21      H        0.76240    0.65740    0.64290    1.000
    H22      H        0.65780    0.55950    0.65660    1.000
    H23      H        0.96150    0.66640    0.78790    1.000
    H24      H        0.06270    0.77030    0.77880    1.000
    H25      H        0.04430    0.88140    0.70920    1.000
    H26      H        0.82400    0.77790    0.65450    1.000
    H27      H        0.79780    0.99490    0.45930    1.000
    H28      H        0.69750    0.08620    0.41570    1.000
    H29      H        0.64780    0.20080    0.47040    1.000
    H30      H        0.80190    0.14030    0.61180    1.000
    H31      H        0.58440    0.28550    0.53430    1.000
    H32      H        0.53690    0.39120    0.59840    1.000
    H33      H        0.72980    0.35930    0.70910    1.000
    H34      H        0.78650    0.26080    0.64530    1.000
    H35      H        0.74750    0.97400    0.65020    1.000
    H36      H        0.73990    0.91580    0.59970    1.000
    H37      H        0.00870    0.76460    0.07260    1.000
    H38      H        0.10280    0.65360    0.06320    1.000
    H39      H        0.15740    0.73760    0.89290    1.000
    H40      H        0.05950    0.84220    0.90660    1.000
    H41      H        0.16640    0.53850    0.03790    1.000
    H42      H        0.27030    0.43730    0.02880    1.000
    H43      H        0.38140    0.45570    0.95920    1.000
    H44      H        0.27790    0.67600    0.90450    1.000
    H45      H        0.49490    0.70220    0.70930    1.000
    H46      H        0.58620    0.80250    0.66570    1.000
    H47      H        0.70080    0.85220    0.72040    1.000
    H48      H        0.64030    0.69810    0.86180    1.000
    H49      H        0.78550    0.91560    0.78430    1.000
    H50      H        0.89120    0.96310    0.84840    1.000
    H51      H        0.85930    0.77020    0.95910    1.000
    H52      H        0.76080    0.71350    0.89530    1.000
    H53      H        0.47400    0.75250    0.90020    1.000
    H54      H        0.41580    0.76010    0.84970    1.000
    H55      H        0.99130    0.23540    0.57260    1.000
    H56      H        0.89720    0.34640    0.56320    1.000
    H57      H        0.84260    0.26240    0.39290    1.000
    H58      H        0.94050    0.15780    0.40660    1.000
    H59      H        0.83360    0.46150    0.53790    1.000
    H60      H        0.72970    0.56270    0.52880    1.000
    H61      H        0.61860    0.54430    0.45920    1.000
    H62      H        0.72210    0.32400    0.40450    1.000
    H63      H        0.50510    0.29780    0.20930    1.000
    H64      H        0.41380    0.19750    0.16570    1.000
    H65      H        0.29920    0.14780    0.22040    1.000
    H66      H        0.35970    0.30190    0.36180    1.000
    H67      H        0.21450    0.08440    0.28430    1.000
    H68      H        0.10880    0.03690    0.34840    1.000
    H69      H        0.14070    0.22980    0.45910    1.000
    H70      H        0.23920    0.28650    0.39530    1.000
    H71      H        0.52600    0.24750    0.40020    1.000
    H72      H        0.58420    0.23990    0.34970    1.000
    H73      H        0.23540    0.99130    0.42740    1.000
    H74      H        0.34640    0.89720    0.43680    1.000
    H75      H        0.26240    0.84260    0.60710    1.000
    H76      H        0.15780    0.94050    0.59340    1.000
    H77      H        0.46150    0.83360    0.46210    1.000
    H78      H        0.56270    0.72970    0.47120    1.000
    H79      H        0.54430    0.61860    0.54080    1.000
    H80      H        0.32400    0.72210    0.59550    1.000
    H81      H        0.29780    0.50510    0.79070    1.000
    H82      H        0.19750    0.41380    0.83430    1.000
    H83      H        0.14780    0.29920    0.77960    1.000
    H84      H        0.30190    0.35970    0.63820    1.000
    H85      H        0.08440    0.21450    0.71570    1.000
    H86      H        0.03690    0.10880    0.65160    1.000
    H87      H        0.22980    0.14070    0.54090    1.000
    H88      H        0.28650    0.23920    0.60470    1.000
    H89      H        0.24750    0.52600    0.59980    1.000
    H90      H        0.23990    0.58420    0.65030    1.000
    H91      H        0.76460    0.00870    0.92740    1.000
    H92      H        0.65360    0.10280    0.93680    1.000
    H93      H        0.73760    0.15740    0.10710    1.000
    H94      H        0.84220    0.05950    0.09340    1.000
    H95      H        0.53850    0.16640    0.96210    1.000
    H96      H        0.43730    0.27030    0.97120    1.000
    H97      H        0.45570    0.38140    0.04080    1.000
    H98      H        0.67600    0.27790    0.09550    1.000
    H99      H        0.70220    0.49490    0.29070    1.000
    H100     H        0.80250    0.58620    0.33430    1.000
    H101     H        0.85220    0.70080    0.27960    1.000
    H102     H        0.69810    0.64030    0.13820    1.000
    H103     H        0.91560    0.78550    0.21570    1.000
    H104     H        0.96310    0.89120    0.15160    1.000
    H105     H        0.77020    0.85930    0.04090    1.000
    H106     H        0.71350    0.76080    0.10470    1.000
    H107     H        0.75250    0.47400    0.09980    1.000
    H108     H        0.76010    0.41580    0.15030    1.000
    H109     H        0.49130    0.26460    0.67740    1.000
    H110     H        0.39720    0.15360    0.68680    1.000
    H111     H        0.34260    0.23760    0.85710    1.000
    H112     H        0.44050    0.34220    0.84340    1.000
    H113     H        0.33360    0.03850    0.71210    1.000
    H114     H        0.22970    0.93730    0.72120    1.000
    H115     H        0.11860    0.95570    0.79080    1.000
    H116     H        0.22210    0.17600    0.84550    1.000
    H117     H        0.00510    0.20220    0.04070    1.000
    H118     H        0.91380    0.30250    0.08430    1.000
    H119     H        0.79920    0.35220    0.02960    1.000
    H120     H        0.85970    0.19810    0.88820    1.000
    H121     H        0.71450    0.41560    0.96570    1.000
    H122     H        0.60880    0.46310    0.90160    1.000
    H123     H        0.64070    0.27020    0.79090    1.000
    H124     H        0.73920    0.21350    0.85470    1.000
    H125     H        0.02600    0.25250    0.84980    1.000
    H126     H        0.08420    0.26010    0.90030    1.000
    H127     H        0.50870    0.73540    0.17740    1.000
    H128     H        0.60280    0.84640    0.18680    1.000
    H129     H        0.65740    0.76240    0.35710    1.000
    H130     H        0.55950    0.65780    0.34340    1.000
    H131     H        0.66640    0.96150    0.21210    1.000
    H132     H        0.77030    0.06270    0.22120    1.000
    H133     H        0.88140    0.04430    0.29080    1.000
    H134     H        0.77790    0.82400    0.34550    1.000
    H135     H        0.99490    0.79780    0.54070    1.000
    H136     H        0.08620    0.69750    0.58430    1.000
    H137     H        0.20080    0.64780    0.52960    1.000
    H138     H        0.14030    0.80190    0.38820    1.000
    H139     H        0.28550    0.58440    0.46570    1.000
    H140     H        0.39120    0.53690    0.40160    1.000
    H141     H        0.35930    0.72980    0.29090    1.000
    H142     H        0.26080    0.78650    0.35470    1.000
    H143     H        0.97400    0.74750    0.34980    1.000
    H144     H        0.91580    0.73990    0.40030    1.000
    C1       C        0.25900    0.46050    0.28540    1.000
    C2       C        0.19260    0.40360    0.28040    1.000
    C3       C        0.18370    0.35640    0.22750    1.000
    C4       C        0.24150    0.37220    0.18070    1.000
    C5       C        0.30410    0.43050    0.18940    1.000
    C6       C        0.11840    0.28950    0.22200    1.000
    C7       C        0.04630    0.28970    0.25880    1.000
    C8       C        0.98640    0.22760    0.25380    1.000
    C9       C        0.99700    0.16180    0.21260    1.000
    C10      C        0.06940    0.16000    0.17620    1.000
    C11      C        0.12790    0.22330    0.18050    1.000
    C12      C        0.07710    0.09000    0.13180    1.000
    C13      C        0.12840    0.99540    0.06960    1.000
    C14      C        0.19020    0.93950    0.03930    1.000
    C15      C        0.22140    0.95710    0.98140    1.000
    C16      C        0.28160    0.90310    0.95590    1.000
    C17      C        0.31080    0.83490    0.98830    1.000
    C18      C        0.28030    0.81710    0.04740    1.000
    C19      C        0.21970    0.87060    0.07190    1.000
    C20      C        0.31130    0.74490    0.08430    1.000
    C21      C        0.38500    0.70140    0.07060    1.000
    C22      C        0.41380    0.63910    0.10980    1.000
    C23      C        0.30110    0.65670    0.17360    1.000
    C24      C        0.26740    0.71650    0.13620    1.000
    C25      C        0.74100    0.53950    0.78540    1.000
    C26      C        0.80740    0.59640    0.78040    1.000
    C27      C        0.81630    0.64360    0.72750    1.000
    C28      C        0.75850    0.62780    0.68070    1.000
    C29      C        0.69590    0.56950    0.68940    1.000
    C30      C        0.88160    0.71050    0.72200    1.000
    C31      C        0.95370    0.71030    0.75880    1.000
    C32      C        0.01360    0.77240    0.75380    1.000
    C33      C        0.00300    0.83820    0.71260    1.000
    C34      C        0.93060    0.84000    0.67620    1.000
    C35      C        0.87210    0.77670    0.68050    1.000
    C36      C        0.92290    0.91000    0.63180    1.000
    C37      C        0.87160    0.00460    0.56960    1.000
    C38      C        0.80980    0.06050    0.53930    1.000
    C39      C        0.77860    0.04290    0.48140    1.000
    C40      C        0.71840    0.09690    0.45590    1.000
    C41      C        0.68920    0.16510    0.48830    1.000
    C42      C        0.71970    0.18290    0.54740    1.000
    C43      C        0.78030    0.12940    0.57190    1.000
    C44      C        0.68870    0.25510    0.58430    1.000
    C45      C        0.61500    0.29860    0.57060    1.000
    C46      C        0.58620    0.36090    0.60980    1.000
    C47      C        0.69890    0.34330    0.67360    1.000
    C48      C        0.73260    0.28350    0.63620    1.000
    C49      C        0.03950    0.75900    0.03540    1.000
    C50      C        0.09640    0.69260    0.03040    1.000
    C51      C        0.14360    0.68370    0.97750    1.000
    C52      C        0.12780    0.74150    0.93070    1.000
    C53      C        0.06950    0.80410    0.93940    1.000
    C54      C        0.21050    0.61840    0.97200    1.000
    C55      C        0.21030    0.54630    0.00880    1.000
    C56      C        0.27240    0.48640    0.00380    1.000
    C57      C        0.33820    0.49700    0.96260    1.000
    C58      C        0.34000    0.56940    0.92620    1.000
    C59      C        0.27670    0.62790    0.93050    1.000
    C60      C        0.41000    0.57710    0.88180    1.000
    C61      C        0.50460    0.62840    0.81960    1.000
    C62      C        0.56050    0.69020    0.78930    1.000
    C63      C        0.54290    0.72140    0.73140    1.000
    C64      C        0.59690    0.78160    0.70590    1.000
    C65      C        0.66510    0.81080    0.73830    1.000
    C66      C        0.68290    0.78030    0.79740    1.000
    C67      C        0.62940    0.71970    0.82190    1.000
    C68      C        0.75510    0.81130    0.83430    1.000
    C69      C        0.79860    0.88500    0.82060    1.000
    C70      C        0.86090    0.91380    0.85980    1.000
    C71      C        0.84330    0.80110    0.92360    1.000
    C72      C        0.78350    0.76740    0.88620    1.000
    C73      C        0.96050    0.24100    0.53540    1.000
    C74      C        0.90360    0.30740    0.53040    1.000
    C75      C        0.85640    0.31630    0.47750    1.000
    C76      C        0.87220    0.25850    0.43070    1.000
    C77      C        0.93050    0.19590    0.43940    1.000
    C78      C        0.78950    0.38160    0.47200    1.000
    C79      C        0.78970    0.45370    0.50880    1.000
    C80      C        0.72760    0.51360    0.50380    1.000
    C81      C        0.66180    0.50300    0.46260    1.000
    C82      C        0.66000    0.43060    0.42620    1.000
    C83      C        0.72330    0.37210    0.43050    1.000
    C84      C        0.59000    0.42290    0.38180    1.000
    C85      C        0.49540    0.37160    0.31960    1.000
    C86      C        0.43950    0.30980    0.28930    1.000
    C87      C        0.45710    0.27860    0.23140    1.000
    C88      C        0.40310    0.21840    0.20590    1.000
    C89      C        0.33490    0.18920    0.23830    1.000
    C90      C        0.31710    0.21970    0.29740    1.000
    C91      C        0.37060    0.28030    0.32190    1.000
    C92      C        0.24490    0.18870    0.33430    1.000
    C93      C        0.20140    0.11500    0.32060    1.000
    C94      C        0.13910    0.08620    0.35980    1.000
    C95      C        0.15670    0.19890    0.42360    1.000
    C96      C        0.21650    0.23260    0.38620    1.000
    C97      C        0.24100    0.96050    0.46460    1.000
    C98      C        0.30740    0.90360    0.46960    1.000
    C99      C        0.31630    0.85640    0.52250    1.000
    C100     C        0.25850    0.87220    0.56930    1.000
    C101     C        0.19590    0.93050    0.56060    1.000
    C102     C        0.38160    0.78950    0.52800    1.000
    C103     C        0.45370    0.78970    0.49120    1.000
    C104     C        0.51360    0.72760    0.49620    1.000
    C105     C        0.50300    0.66180    0.53740    1.000
    C106     C        0.43060    0.66000    0.57380    1.000
    C107     C        0.37210    0.72330    0.56950    1.000
    C108     C        0.42290    0.59000    0.61820    1.000
    C109     C        0.37160    0.49540    0.68040    1.000
    C110     C        0.30980    0.43950    0.71070    1.000
    C111     C        0.27860    0.45710    0.76860    1.000
    C112     C        0.21840    0.40310    0.79410    1.000
    C113     C        0.18920    0.33490    0.76170    1.000
    C114     C        0.21970    0.31710    0.70260    1.000
    C115     C        0.28030    0.37060    0.67810    1.000
    C116     C        0.18870    0.24490    0.66570    1.000
    C117     C        0.11500    0.20140    0.67940    1.000
    C118     C        0.08620    0.13910    0.64020    1.000
    C119     C        0.19890    0.15670    0.57640    1.000
    C120     C        0.23260    0.21650    0.61380    1.000
    C121     C        0.75900    0.03950    0.96460    1.000
    C122     C        0.69260    0.09640    0.96960    1.000
    C123     C        0.68370    0.14360    0.02250    1.000
    C124     C        0.74150    0.12780    0.06930    1.000
    C125     C        0.80410    0.06950    0.06060    1.000
    C126     C        0.61840    0.21050    0.02800    1.000
    C127     C        0.54630    0.21030    0.99120    1.000
    C128     C        0.48640    0.27240    0.99620    1.000
    C129     C        0.49700    0.33820    0.03740    1.000
    C130     C        0.56940    0.34000    0.07380    1.000
    C131     C        0.62790    0.27670    0.06950    1.000
    C132     C        0.57710    0.41000    0.11820    1.000
    C133     C        0.62840    0.50460    0.18040    1.000
    C134     C        0.69020    0.56050    0.21070    1.000
    C135     C        0.72140    0.54290    0.26860    1.000
    C136     C        0.78160    0.59690    0.29410    1.000
    C137     C        0.81080    0.66510    0.26170    1.000
    C138     C        0.78030    0.68290    0.20260    1.000
    C139     C        0.71970    0.62940    0.17810    1.000
    C140     C        0.81130    0.75510    0.16570    1.000
    C141     C        0.88500    0.79860    0.17940    1.000
    C142     C        0.91380    0.86090    0.14020    1.000
    C143     C        0.80110    0.84330    0.07640    1.000
    C144     C        0.76740    0.78350    0.11380    1.000
    C145     C        0.46050    0.25900    0.71460    1.000
    C146     C        0.40360    0.19260    0.71960    1.000
    C147     C        0.35640    0.18370    0.77250    1.000
    C148     C        0.37220    0.24150    0.81930    1.000
    C149     C        0.43050    0.30410    0.81060    1.000
    C150     C        0.28950    0.11840    0.77800    1.000
    C151     C        0.28970    0.04630    0.74120    1.000
    C152     C        0.22760    0.98640    0.74620    1.000
    C153     C        0.16180    0.99700    0.78740    1.000
    C154     C        0.16000    0.06940    0.82380    1.000
    C155     C        0.22330    0.12790    0.81950    1.000
    C156     C        0.09000    0.07710    0.86820    1.000
    C157     C        0.99540    0.12840    0.93040    1.000
    C158     C        0.93950    0.19020    0.96070    1.000
    C159     C        0.95710    0.22140    0.01860    1.000
    C160     C        0.90310    0.28160    0.04410    1.000
    C161     C        0.83490    0.31080    0.01170    1.000
    C162     C        0.81710    0.28030    0.95260    1.000
    C163     C        0.87060    0.21970    0.92810    1.000
    C164     C        0.74490    0.31130    0.91570    1.000
    C165     C        0.70140    0.38500    0.92940    1.000
    C166     C        0.63910    0.41380    0.89020    1.000
    C167     C        0.65670    0.30110    0.82640    1.000
    C168     C        0.71650    0.26740    0.86380    1.000
    C169     C        0.53950    0.74100    0.21460    1.000
    C170     C        0.59640    0.80740    0.21960    1.000
    C171     C        0.64360    0.81630    0.27250    1.000
    C172     C        0.62780    0.75850    0.31930    1.000
    C173     C        0.56950    0.69590    0.31060    1.000
    C174     C        0.71050    0.88160    0.27800    1.000
    C175     C        0.71030    0.95370    0.24120    1.000
    C176     C        0.77240    0.01360    0.24620    1.000
    C177     C        0.83820    0.00300    0.28740    1.000
    C178     C        0.84000    0.93060    0.32380    1.000
    C179     C        0.77670    0.87210    0.31950    1.000
    C180     C        0.91000    0.92290    0.36820    1.000
    C181     C        0.00460    0.87160    0.43040    1.000
    C182     C        0.06050    0.80980    0.46070    1.000
    C183     C        0.04290    0.77860    0.51860    1.000
    C184     C        0.09690    0.71840    0.54410    1.000
    C185     C        0.16510    0.68920    0.51170    1.000
    C186     C        0.18290    0.71970    0.45260    1.000
    C187     C        0.12940    0.78030    0.42810    1.000
    C188     C        0.25510    0.68870    0.41570    1.000
    C189     C        0.29860    0.61500    0.42940    1.000
    C190     C        0.36090    0.58620    0.39020    1.000
    C191     C        0.34330    0.69890    0.32640    1.000
    C192     C        0.28350    0.73260    0.36380    1.000
    N1       N        0.31450    0.47390    0.24130    1.000
    N2       N        0.01340    0.05460    0.10380    1.000
    N3       N        0.04540    0.99410    0.06510    1.000
    N4       N        0.14980    0.05480    0.11190    1.000
    N5       N        0.23150    0.07170    0.13330    1.000
    N6       N        0.37580    0.61900    0.16300    1.000
    N7       N        0.68550    0.52610    0.74130    1.000
    N8       N        0.98660    0.94540    0.60380    1.000
    N9       N        0.95460    0.00590    0.56510    1.000
    N10      N        0.85020    0.94520    0.61190    1.000
    N11      N        0.76850    0.92830    0.63330    1.000
    N12      N        0.62420    0.38100    0.66300    1.000
    N13      N        0.02610    0.81450    0.99130    1.000
    N14      N        0.44540    0.51340    0.85380    1.000
    N15      N        0.50590    0.54540    0.81510    1.000
    N16      N        0.44520    0.64980    0.86190    1.000
    N17      N        0.42830    0.73150    0.88330    1.000
    N18      N        0.88100    0.87580    0.91300    1.000
    N19      N        0.97390    0.18550    0.49130    1.000
    N20      N        0.55460    0.48660    0.35380    1.000
    N21      N        0.49410    0.45460    0.31510    1.000
    N22      N        0.55480    0.35020    0.36190    1.000
    N23      N        0.57170    0.26850    0.38330    1.000
    N24      N        0.11900    0.12420    0.41300    1.000
    N25      N        0.18550    0.97390    0.50870    1.000
    N26      N        0.48660    0.55460    0.64620    1.000
    N27      N        0.45460    0.49410    0.68490    1.000
    N28      N        0.35020    0.55480    0.63810    1.000
    N29      N        0.26850    0.57170    0.61670    1.000
    N30      N        0.12420    0.11900    0.58700    1.000
    N31      N        0.81450    0.02610    0.00870    1.000
    N32      N        0.51340    0.44540    0.14620    1.000
    N33      N        0.54540    0.50590    0.18490    1.000
    N34      N        0.64980    0.44520    0.13810    1.000
    N35      N        0.73150    0.42830    0.11670    1.000
    N36      N        0.87580    0.88100    0.08700    1.000
    N37      N        0.47390    0.31450    0.75870    1.000
    N38      N        0.05460    0.01340    0.89620    1.000
    N39      N        0.99410    0.04540    0.93490    1.000
    N40      N        0.05480    0.14980    0.88810    1.000
    N41      N        0.07170    0.23150    0.86670    1.000
    N42      N        0.61900    0.37580    0.83700    1.000
    N43      N        0.52610    0.68550    0.25870    1.000
    N44      N        0.94540    0.98660    0.39620    1.000
    N45      N        0.00590    0.95460    0.43490    1.000
    N46      N        0.94520    0.85020    0.38810    1.000
    N47      N        0.92830    0.76850    0.36670    1.000
    N48      N        0.38100    0.62420    0.33700    1.000
    Cl1      Cl       0.87446    0.12554    0.75000    1.000
    O1       O        0.88670    0.21220    0.75470    1.000
    O2       O        0.92560    0.11360    0.79470    1.000
    O3       O        0.78780    0.11330    0.74530    1.000
    O4       O        0.88640    0.07440    0.70530    1.000
    Cl2      Cl       0.12554    0.87446    0.25000    1.000
    O5       O        0.11330    0.78780    0.25470    1.000
    O6       O        0.07440    0.88640    0.29470    1.000
    O7       O        0.21220    0.88670    0.24530    1.000
    O8       O        0.11360    0.92560    0.20530    1.000
    Cl3      Cl       0.37446    0.37446    0.50000    1.000
    O9       O        0.28780    0.38670    0.50470    1.000
    O10      O        0.38640    0.42560    0.54470    1.000
    O11      O        0.38670    0.28780    0.49530    1.000
    O12      O        0.42560    0.38640    0.45530    1.000
    Cl4      Cl       0.62554    0.62554    0.00000    1.000
    O13      O        0.71220    0.61330    0.00470    1.000
    O14      O        0.61360    0.57440    0.04470    1.000
    O15      O        0.61330    0.71220    0.99530    1.000
    O16      O        0.57440    0.61360    0.95530    1.000
    Cl5      Cl       0.23068    0.23068    0.00000    1.000
    O17      O        0.27310    0.25430    0.05030    1.000
    O18      O        0.29040    0.16330    0.97490    1.000
    O19      O        0.25430    0.27310    0.94970    1.000
    O20      O        0.16330    0.29040    0.02510    1.000
    Cl6      Cl       0.76932    0.76932    0.50000    1.000
    O21      O        0.72690    0.74570    0.55030    1.000
    O22      O        0.70960    0.83670    0.47490    1.000
    O23      O        0.74570    0.72690    0.44970    1.000
    O24      O        0.83670    0.70960    0.52510    1.000
    Cl7      Cl       0.26932    0.73068    0.75000    1.000
    O25      O        0.24570    0.77310    0.80030    1.000
    O26      O        0.33670    0.79040    0.72490    1.000
    O27      O        0.22690    0.75430    0.69970    1.000
    O28      O        0.20960    0.66330    0.77510    1.000
    Cl8      Cl       0.73068    0.26932    0.25000    1.000
    O29      O        0.75430    0.22690    0.30030    1.000
    O30      O        0.66330    0.20960    0.22490    1.000
    O31      O        0.77310    0.24570    0.19970    1.000
    O32      O        0.79040    0.33670    0.27510    1.000
