data_functionalizedCrystal
_audit_creation_method	'EQeq! by Chris Wilmer'
_symmetry_space_group_name_H-M	'P1'
_symmetry_Int_Tables_number	1
_symmetry_cell_setting	triclinic
loop_
_symmetry_equiv_pos_as_xyz
  x,y,z
_cell_length_a	20.512
_cell_length_b	9.9435
_cell_length_c	26.994
_cell_angle_alpha	90
_cell_angle_beta	101.945
_cell_angle_gamma	90
loop_
_atom_site_label
_atom_site_type_symbol
_atom_site_fract_x
_atom_site_fract_y
_atom_site_fract_z
_atom_site_charge
Mof_Co	Co	0.85893	0.95292	0.32287	1.151
Mof_O 	O 	0.44636	0.58228	0.3304	-0.363
Mof_O 	O 	0.34999	0.68255	0.32354	-0.357
Mof_O 	O 	0.43096	0.30175	0.3268	-0.38
Mof_O 	O 	0.33802	0.18598	0.31581	-0.318
Mof_O 	O 	0.79152	0.8446	0.56798	-0.283
Mof_N 	N 	0.75247	0.95726	0.3169	-0.231
Mof_N 	N 	0.87888	0.9731	0.5597	-0.2
Mof_H 	H 	0.9133	0.0174	0.577	0.088
Mof_N 	N 	0.84886	0.03959	0.74218	-0.192
Mof_N 	N 	0.86879	0.9398	0.40368	-0.186
Mof_C 	C 	0.54371	0.9506	0.32046	-0.02
Mof_C 	C 	0.51226	0.8274	0.32361	-0.017
Mof_H 	H 	0.537	0.7464	0.3245	0.055
Mof_C 	C 	0.44497	0.8222	0.32551	-0.064
Mof_C 	C 	0.40872	0.9398	0.32442	0.008
Mof_H 	H 	0.3628	0.9358	0.3255	0.057
Mof_C 	C 	0.43901	0.0642	0.32178	-0.065
Mof_C 	C 	0.50638	0.0688	0.31944	-0.012
Mof_H 	H 	0.5272	0.1533	0.3171	0.053
Mof_C 	C 	0.71283	0.855	0.29721	0.081
Mof_H 	H 	0.732	0.7822	0.2824	0.012
Mof_C 	C 	0.64562	0.85	0.29734	-0.131
Mof_H 	H 	0.6198	0.7749	0.283	0.085
Mof_C 	C 	0.61559	0.955	0.31851	0.085
Mof_C 	C 	0.65633	0.063	0.33789	-0.129
Mof_H 	H 	0.6381	0.1381	0.3521	0.082
Mof_C 	C 	0.72334	0.0606	0.33637	0.079
Mof_H 	H 	0.7501	0.1354	0.3497	0.013
Mof_C 	C 	0.8328	0.9275	0.5855	0.183
Mof_C 	C 	0.79	0.9981	0.711	0.108
Mof_H 	H 	0.7515	0.9887	0.7252	-0.045
Mof_C 	C 	0.7844	0.9696	0.66	-0.038
Mof_H 	H 	0.7425	0.9457	0.6396	-0.005
Mof_C 	C 	0.8401	0.976	0.6392	0.107
Mof_C 	C 	0.8992	0.0134	0.6697	-0.074
Mof_H 	H 	0.9388	0.018	0.6567	0.059
Mof_C 	C 	0.9003	0.0446	0.7203	-0.116
Mof_H 	H 	0.9418	0.0716	0.7406	0.159
Mof_C 	C 	0.41162	0.6876	0.32676	0.295
Mof_C 	C 	0.8335	0.8662	0.4263	-0.061
Mof_H 	H 	0.8045	0.804	0.406	0.055
Mof_C 	C 	0.8332	0.8673	0.4775	-0.103
Mof_H 	H 	0.8045	0.8096	0.4912	0.094
Mof_C 	C 	0.8759	0.9553	0.5081	-0.001
Mof_C 	C 	0.9184	0.0316	0.4856	0.028
Mof_H 	H 	0.9501	0.0895	0.5057	-0.007
Mof_C 	C 	0.9147	0.0235	0.4342	0.109
Mof_H 	H 	0.9441	0.0761	0.4192	-0.104
Mof_C 	C 	0.399	0.1909	0.32108	0.31
Mof_C 	C 	0.841	0.9066	0.5593	0.162
Mof_C 	C 	0.8032	0.005	0.7079	-0.044
Mof_C 	C 	0.8061	0.9799	0.6582	-0.115
Mof_C 	C 	0.864	0.0055	0.6431	-0.006
Mof_C 	C 	0.9159	0.0541	0.6784	0.024
Mof_C 	C 	0.9102	0.071	0.7283	0.073
Mof_C 	C 	0.8238	0.844	0.4197	0.112
Mof_C 	C 	0.8199	0.8307	0.4702	-0.041
Mof_C 	C 	0.856	0.9152	0.5052	0.113
Mof_C 	C 	0.8974	0.0063	0.4903	-0.084
Mof_C 	C 	0.9011	0.007	0.4391	-0.123
Mof_H 	H 	0.7685	0.9457	0.6351	0.11
Mof_H 	H 	0.9565	0.0767	0.6687	0.016
Mof_H 	H 	0.9468	0.1034	0.7528	-0.12
Mof_H 	H 	0.7964	0.7885	0.395	-0.048
Mof_H 	H 	0.7924	0.7635	0.4802	0.015
Mof_H 	H 	0.9229	0.0672	0.5137	0.059
Mof_H 	H 	0.9329	0.0667	0.4303	0.122
Mof_H 	H 	0.9033	0.0461	0.584	0.094
Mof_H 	H 	0.7609	0.9938	0.7165	0.051
Mof_N 	N 	0.8737	0.9931	0.5933	-0.205
Mof_Co	Co	0.35893	0.45292	0.32287	1.151
Mof_O 	O 	0.94636	0.08228	0.3304	-0.363
Mof_O 	O 	0.84999	0.18255	0.32354	-0.357
Mof_O 	O 	0.93096	0.80175	0.3268	-0.381
Mof_O 	O 	0.83802	0.68598	0.31581	-0.319
Mof_O 	O 	0.29152	0.3446	0.56798	-0.284
Mof_N 	N 	0.25247	0.45726	0.3169	-0.231
Mof_N 	N 	0.37888	0.4731	0.5597	-0.202
Mof_H 	H 	0.4133	0.5174	0.577	0.081
Mof_N 	N 	0.34886	0.53959	0.74218	-0.192
Mof_N 	N 	0.36879	0.4398	0.40368	-0.187
Mof_C 	C 	0.04371	0.4506	0.32046	-0.02
Mof_C 	C 	0.01226	0.3274	0.32361	-0.018
Mof_H 	H 	0.037	0.2464	0.3245	0.054
Mof_C 	C 	0.94497	0.3222	0.32551	-0.066
Mof_C 	C 	0.90872	0.4398	0.32442	0.009
Mof_H 	H 	0.8628	0.4358	0.3255	0.056
Mof_C 	C 	0.93901	0.5642	0.32178	-0.068
Mof_C 	C 	0.00638	0.5688	0.31944	-0.015
Mof_H 	H 	0.0272	0.6533	0.3171	0.053
Mof_C 	C 	0.21283	0.355	0.29721	0.082
Mof_H 	H 	0.232	0.2822	0.2824	0.011
Mof_C 	C 	0.14562	0.35	0.29734	-0.132
Mof_H 	H 	0.1198	0.2749	0.283	0.086
Mof_C 	C 	0.11559	0.455	0.31851	0.087
Mof_C 	C 	0.15633	0.563	0.33789	-0.131
Mof_H 	H 	0.1381	0.6381	0.3521	0.082
Mof_C 	C 	0.22334	0.5606	0.33637	0.078
Mof_H 	H 	0.2501	0.6354	0.3497	0.013
Mof_C 	C 	0.3328	0.4275	0.5855	0.171
Mof_C 	C 	0.29	0.4981	0.711	0.115
Mof_H 	H 	0.2515	0.4887	0.7252	-0.05
Mof_C 	C 	0.2844	0.4696	0.66	-0.042
Mof_H 	H 	0.2425	0.4457	0.6396	-0.006
Mof_C 	C 	0.3401	0.476	0.6392	0.111
Mof_C 	C 	0.3992	0.5134	0.6697	-0.074
Mof_H 	H 	0.4388	0.518	0.6567	0.059
Mof_C 	C 	0.4003	0.5446	0.7203	-0.117
Mof_H 	H 	0.4418	0.5716	0.7406	0.161
Mof_C 	C 	0.91162	0.1876	0.32676	0.295
Mof_C 	C 	0.3335	0.3662	0.4263	-0.061
Mof_H 	H 	0.3045	0.304	0.406	0.055
Mof_C 	C 	0.3332	0.3673	0.4775	-0.103
Mof_H 	H 	0.3045	0.3096	0.4912	0.093
Mof_C 	C 	0.3759	0.4553	0.5081	-0.005
Mof_C 	C 	0.4184	0.5316	0.4856	0.031
Mof_H 	H 	0.4501	0.5895	0.5057	-0.008
Mof_C 	C 	0.4147	0.5235	0.4342	0.108
Mof_H 	H 	0.4441	0.5761	0.4192	-0.102
Mof_C 	C 	0.899	0.6909	0.32108	0.31
Mof_C 	C 	0.341	0.4066	0.5593	0.173
Mof_C 	C 	0.3032	0.505	0.7079	-0.049
Mof_C 	C 	0.3061	0.4799	0.6582	-0.117
Mof_C 	C 	0.364	0.5055	0.6431	-0.007
Mof_C 	C 	0.4159	0.5541	0.6784	0.025
Mof_C 	C 	0.4102	0.571	0.7283	0.073
Mof_C 	C 	0.3238	0.344	0.4197	0.112
Mof_C 	C 	0.3199	0.3307	0.4702	-0.041
Mof_C 	C 	0.356	0.4152	0.5052	0.115
Mof_C 	C 	0.3974	0.5063	0.4903	-0.085
Mof_C 	C 	0.4011	0.507	0.4391	-0.122
Mof_H 	H 	0.2685	0.4457	0.6351	0.113
Mof_H 	H 	0.4565	0.5767	0.6687	0.016
Mof_H 	H 	0.4468	0.6034	0.7528	-0.121
Mof_H 	H 	0.2964	0.2885	0.395	-0.048
Mof_H 	H 	0.2924	0.2635	0.4802	0.016
Mof_H 	H 	0.4229	0.5672	0.5137	0.059
Mof_H 	H 	0.4329	0.5667	0.4303	0.119
Mof_H 	H 	0.4033	0.5461	0.584	0.101
Mof_H 	H 	0.2609	0.4938	0.7165	0.053
Mof_N 	N 	0.3737	0.4931	0.5933	-0.205
Mof_Co	Co	0.85893	0.04708	0.82287	1.15
Mof_O 	O 	0.44636	0.41772	0.8304	-0.364
Mof_O 	O 	0.34999	0.31745	0.82354	-0.358
Mof_O 	O 	0.43096	0.69825	0.8268	-0.381
Mof_O 	O 	0.33802	0.81402	0.81581	-0.319
Mof_O 	O 	0.79152	0.1554	0.06798	-0.284
Mof_N 	N 	0.75247	0.04274	0.8169	-0.232
Mof_N 	N 	0.87888	0.0269	0.0597	-0.2
Mof_H 	H 	0.9133	0.9826	0.077	0.087
Mof_N 	N 	0.84886	0.96041	0.24218	-0.193
Mof_N 	N 	0.86879	0.0602	0.90368	-0.188
Mof_C 	C 	0.54371	0.0494	0.82046	-0.022
Mof_C 	C 	0.51226	0.1726	0.82361	-0.018
Mof_H 	H 	0.537	0.2536	0.8245	0.054
Mof_C 	C 	0.44497	0.1778	0.82551	-0.065
Mof_C 	C 	0.40872	0.0602	0.82442	0.006
Mof_H 	H 	0.3628	0.0642	0.8255	0.056
Mof_C 	C 	0.43901	0.9358	0.82178	-0.065
Mof_C 	C 	0.50638	0.9312	0.81944	-0.013
Mof_H 	H 	0.5272	0.8467	0.8171	0.052
Mof_C 	C 	0.71283	0.145	0.79721	0.081
Mof_H 	H 	0.732	0.2178	0.7824	0.012
Mof_C 	C 	0.64562	0.15	0.79734	-0.131
Mof_H 	H 	0.6198	0.2251	0.783	0.085
Mof_C 	C 	0.61559	0.045	0.81851	0.084
Mof_C 	C 	0.65633	0.937	0.83789	-0.128
Mof_H 	H 	0.6381	0.8619	0.8521	0.082
Mof_C 	C 	0.72334	0.9394	0.83637	0.079
Mof_H 	H 	0.7501	0.8646	0.8497	0.013
Mof_C 	C 	0.8328	0.0725	0.0855	0.183
Mof_C 	C 	0.79	0.0019	0.211	0.107
Mof_H 	H 	0.7515	0.0113	0.2252	-0.045
Mof_C 	C 	0.7844	0.0304	0.16	-0.037
Mof_H 	H 	0.7425	0.0543	0.1396	-0.005
Mof_C 	C 	0.8401	0.024	0.1392	0.105
Mof_C 	C 	0.8992	0.9866	0.1697	-0.073
Mof_H 	H 	0.9388	0.982	0.1567	0.058
Mof_C 	C 	0.9003	0.9554	0.2203	-0.116
Mof_H 	H 	0.9418	0.9284	0.2406	0.159
Mof_C 	C 	0.41162	0.3124	0.82676	0.295
Mof_C 	C 	0.8335	0.1338	0.9263	-0.061
Mof_H 	H 	0.8045	0.196	0.906	0.055
Mof_C 	C 	0.8332	0.1327	0.9775	-0.103
Mof_H 	H 	0.8045	0.1904	0.9912	0.094
Mof_C 	C 	0.8759	0.0447	0.0081	0
Mof_C 	C 	0.9184	0.9684	0.9856	0.028
Mof_H 	H 	0.9501	0.9105	0.0057	-0.007
Mof_C 	C 	0.9147	0.9765	0.9342	0.109
Mof_H 	H 	0.9441	0.9239	0.9192	-0.104
Mof_C 	C 	0.399	0.8091	0.82108	0.31
Mof_C 	C 	0.841	0.0934	0.0593	0.162
Mof_C 	C 	0.8032	0.995	0.2079	-0.044
Mof_C 	C 	0.8061	0.0201	0.1582	-0.115
Mof_C 	C 	0.864	0.9945	0.1431	-0.004
Mof_C 	C 	0.9159	0.9459	0.1784	0.023
Mof_C 	C 	0.9102	0.929	0.2283	0.073
Mof_C 	C 	0.8238	0.156	0.9197	0.112
Mof_C 	C 	0.8199	0.1693	0.9702	-0.041
Mof_C 	C 	0.856	0.0848	0.0052	0.111
Mof_C 	C 	0.8974	0.9937	0.9903	-0.082
Mof_C 	C 	0.9011	0.993	0.9391	-0.123
Mof_H 	H 	0.7685	0.0543	0.1351	0.11
Mof_H 	H 	0.9565	0.9233	0.1687	0.016
Mof_H 	H 	0.9468	0.8966	0.2528	-0.12
Mof_H 	H 	0.7964	0.2115	0.895	-0.048
Mof_H 	H 	0.7924	0.2365	0.9802	0.015
Mof_H 	H 	0.9229	0.9328	0.0137	0.057
Mof_H 	H 	0.9329	0.9333	0.9303	0.122
Mof_H 	H 	0.9033	0.9539	0.084	0.093
Mof_H 	H 	0.7609	0.0062	0.2165	0.051
Mof_N 	N 	0.8737	0.0069	0.0933	-0.205
Mof_Co	Co	0.35893	0.54708	0.82287	1.151
Mof_O 	O 	0.94636	0.91772	0.8304	-0.363
Mof_O 	O 	0.84999	0.81745	0.82354	-0.357
Mof_O 	O 	0.93096	0.19825	0.8268	-0.381
Mof_O 	O 	0.83802	0.31402	0.81581	-0.319
Mof_O 	O 	0.29152	0.6554	0.06798	-0.284
Mof_N 	N 	0.25247	0.54274	0.8169	-0.231
Mof_N 	N 	0.37888	0.5269	0.0597	-0.202
Mof_H 	H 	0.4133	0.4826	0.077	0.081
Mof_N 	N 	0.34886	0.46041	0.24218	-0.192
Mof_N 	N 	0.36879	0.5602	0.90368	-0.187
Mof_C 	C 	0.04371	0.5494	0.82046	-0.02
Mof_C 	C 	0.01226	0.6726	0.82361	-0.019
Mof_H 	H 	0.037	0.7536	0.8245	0.055
Mof_C 	C 	0.94497	0.6778	0.82551	-0.065
Mof_C 	C 	0.90872	0.5602	0.82442	0.008
Mof_H 	H 	0.8628	0.5642	0.8255	0.056
Mof_C 	C 	0.93901	0.4358	0.82178	-0.067
Mof_C 	C 	0.00638	0.4312	0.81944	-0.016
Mof_H 	H 	0.0272	0.3467	0.8171	0.053
Mof_C 	C 	0.21283	0.645	0.79721	0.082
Mof_H 	H 	0.232	0.7178	0.7824	0.011
Mof_C 	C 	0.14562	0.65	0.79734	-0.131
Mof_H 	H 	0.1198	0.7251	0.783	0.086
Mof_C 	C 	0.11559	0.545	0.81851	0.086
Mof_C 	C 	0.15633	0.437	0.83789	-0.131
Mof_H 	H 	0.1381	0.3619	0.8521	0.082
Mof_C 	C 	0.22334	0.4394	0.83637	0.078
Mof_H 	H 	0.2501	0.3646	0.8497	0.013
Mof_C 	C 	0.3328	0.5725	0.0855	0.172
Mof_C 	C 	0.29	0.5019	0.211	0.115
Mof_H 	H 	0.2515	0.5113	0.2252	-0.05
Mof_C 	C 	0.2844	0.5304	0.16	-0.042
Mof_H 	H 	0.2425	0.5543	0.1396	-0.006
Mof_C 	C 	0.3401	0.524	0.1392	0.111
Mof_C 	C 	0.3992	0.4866	0.1697	-0.074
Mof_H 	H 	0.4388	0.482	0.1567	0.059
Mof_C 	C 	0.4003	0.4554	0.2203	-0.117
Mof_H 	H 	0.4418	0.4284	0.2406	0.161
Mof_C 	C 	0.91162	0.8124	0.82676	0.295
Mof_C 	C 	0.3335	0.6338	0.9263	-0.061
Mof_H 	H 	0.3045	0.696	0.906	0.055
Mof_C 	C 	0.3332	0.6327	0.9775	-0.103
Mof_H 	H 	0.3045	0.6904	0.9912	0.093
Mof_C 	C 	0.3759	0.5447	0.0081	-0.005
Mof_C 	C 	0.4184	0.4684	0.9856	0.031
Mof_H 	H 	0.4501	0.4105	0.0057	-0.008
Mof_C 	C 	0.4147	0.4765	0.9342	0.108
Mof_H 	H 	0.4441	0.4239	0.9192	-0.102
Mof_C 	C 	0.899	0.3091	0.82108	0.31
Mof_C 	C 	0.341	0.5934	0.0593	0.172
Mof_C 	C 	0.3032	0.495	0.2079	-0.049
Mof_C 	C 	0.3061	0.5201	0.1582	-0.117
Mof_C 	C 	0.364	0.4945	0.1431	-0.007
Mof_C 	C 	0.4159	0.4459	0.1784	0.025
Mof_C 	C 	0.4102	0.429	0.2283	0.073
Mof_C 	C 	0.3238	0.656	0.9197	0.112
Mof_C 	C 	0.3199	0.6693	0.9702	-0.041
Mof_C 	C 	0.356	0.5848	0.0052	0.115
Mof_C 	C 	0.3974	0.4937	0.9903	-0.085
Mof_C 	C 	0.4011	0.493	0.9391	-0.122
Mof_H 	H 	0.2685	0.5543	0.1351	0.113
Mof_H 	H 	0.4565	0.4233	0.1687	0.016
Mof_H 	H 	0.4468	0.3966	0.2528	-0.121
Mof_H 	H 	0.2964	0.7115	0.895	-0.048
Mof_H 	H 	0.2924	0.7365	0.9802	0.016
Mof_H 	H 	0.4229	0.4328	0.0137	0.059
Mof_H 	H 	0.4329	0.4333	0.9303	0.119
Mof_H 	H 	0.4033	0.4539	0.084	0.101
Mof_H 	H 	0.2609	0.5062	0.2165	0.053
Mof_N 	N 	0.3737	0.5069	0.0933	-0.205
Mof_Co	Co	0.14107	0.95292	0.17713	1.15
Mof_O 	O 	0.55364	0.58228	0.1696	-0.364
Mof_O 	O 	0.65001	0.68255	0.17646	-0.358
Mof_O 	O 	0.56904	0.30175	0.1732	-0.381
Mof_O 	O 	0.66198	0.18598	0.18419	-0.319
Mof_O 	O 	0.20848	0.8446	0.93202	-0.284
Mof_N 	N 	0.24753	0.95726	0.1831	-0.232
Mof_N 	N 	0.12112	0.9731	0.9403	-0.2
Mof_H 	H 	0.0867	0.0174	0.923	0.087
Mof_N 	N 	0.15114	0.03959	0.75782	-0.193
Mof_N 	N 	0.13121	0.9398	0.09632	-0.188
Mof_C 	C 	0.45629	0.9506	0.17954	-0.022
Mof_C 	C 	0.48774	0.8274	0.17639	-0.018
Mof_H 	H 	0.463	0.7464	0.1755	0.054
Mof_C 	C 	0.55503	0.8222	0.17449	-0.065
Mof_C 	C 	0.59128	0.9398	0.17558	0.006
Mof_H 	H 	0.6372	0.9358	0.1745	0.056
Mof_C 	C 	0.56099	0.0642	0.17822	-0.065
Mof_C 	C 	0.49362	0.0688	0.18056	-0.013
Mof_H 	H 	0.4728	0.1533	0.1829	0.052
Mof_C 	C 	0.28717	0.855	0.20279	0.081
Mof_H 	H 	0.268	0.7822	0.2176	0.012
Mof_C 	C 	0.35438	0.85	0.20266	-0.131
Mof_H 	H 	0.3802	0.7749	0.217	0.085
Mof_C 	C 	0.38441	0.955	0.18149	0.084
Mof_C 	C 	0.34367	0.063	0.16211	-0.128
Mof_H 	H 	0.3619	0.1381	0.1479	0.082
Mof_C 	C 	0.27666	0.0606	0.16363	0.079
Mof_H 	H 	0.2499	0.1354	0.1503	0.013
Mof_C 	C 	0.1672	0.9275	0.9145	0.183
Mof_C 	C 	0.21	0.9981	0.789	0.107
Mof_H 	H 	0.2485	0.9887	0.7748	-0.045
Mof_C 	C 	0.2156	0.9696	0.84	-0.037
Mof_H 	H 	0.2575	0.9457	0.8604	-0.005
Mof_C 	C 	0.1599	0.976	0.8608	0.105
Mof_C 	C 	0.1008	0.0134	0.8303	-0.073
Mof_H 	H 	0.0612	0.018	0.8433	0.058
Mof_C 	C 	0.0997	0.0446	0.7797	-0.116
Mof_H 	H 	0.0582	0.0716	0.7594	0.159
Mof_C 	C 	0.58838	0.6876	0.17324	0.295
Mof_C 	C 	0.1665	0.8662	0.0737	-0.061
Mof_H 	H 	0.1955	0.804	0.094	0.055
Mof_C 	C 	0.1668	0.8673	0.0225	-0.103
Mof_H 	H 	0.1955	0.8096	0.0088	0.094
Mof_C 	C 	0.1241	0.9553	0.9919	0
Mof_C 	C 	0.0816	0.0316	0.0144	0.028
Mof_H 	H 	0.0499	0.0895	0.9943	-0.007
Mof_C 	C 	0.0853	0.0235	0.0658	0.109
Mof_H 	H 	0.0559	0.0761	0.0808	-0.104
Mof_C 	C 	0.601	0.1909	0.17892	0.31
Mof_C 	C 	0.159	0.9066	0.9407	0.162
Mof_C 	C 	0.1968	0.005	0.7921	-0.044
Mof_C 	C 	0.1939	0.9799	0.8418	-0.115
Mof_C 	C 	0.136	0.0055	0.8569	-0.004
Mof_C 	C 	0.0841	0.0541	0.8216	0.023
Mof_C 	C 	0.0898	0.071	0.7717	0.073
Mof_C 	C 	0.1762	0.844	0.0803	0.112
Mof_C 	C 	0.1801	0.8307	0.0298	-0.041
Mof_C 	C 	0.144	0.9152	0.9948	0.111
Mof_C 	C 	0.1026	0.0063	0.0097	-0.082
Mof_C 	C 	0.0989	0.007	0.0609	-0.123
Mof_H 	H 	0.2315	0.9457	0.8649	0.11
Mof_H 	H 	0.0435	0.0767	0.8313	0.016
Mof_H 	H 	0.0532	0.1034	0.7472	-0.12
Mof_H 	H 	0.2036	0.7885	0.105	-0.048
Mof_H 	H 	0.2076	0.7635	0.0198	0.015
Mof_H 	H 	0.0771	0.0672	0.9863	0.057
Mof_H 	H 	0.0671	0.0667	0.0697	0.122
Mof_H 	H 	0.0967	0.0461	0.916	0.093
Mof_H 	H 	0.2391	0.9938	0.7835	0.051
Mof_N 	N 	0.1263	0.9931	0.9067	-0.205
Mof_Co	Co	0.64107	0.45292	0.17713	1.151
Mof_O 	O 	0.05364	0.08228	0.1696	-0.363
Mof_O 	O 	0.15001	0.18255	0.17646	-0.357
Mof_O 	O 	0.06904	0.80175	0.1732	-0.381
Mof_O 	O 	0.16198	0.68598	0.18419	-0.319
Mof_O 	O 	0.70848	0.3446	0.93202	-0.284
Mof_N 	N 	0.74753	0.45726	0.1831	-0.231
Mof_N 	N 	0.62112	0.4731	0.9403	-0.202
Mof_H 	H 	0.5867	0.5174	0.923	0.081
Mof_N 	N 	0.65114	0.53959	0.75782	-0.192
Mof_N 	N 	0.63121	0.4398	0.09632	-0.187
Mof_C 	C 	0.95629	0.4506	0.17954	-0.02
Mof_C 	C 	0.98774	0.3274	0.17639	-0.019
Mof_H 	H 	0.963	0.2464	0.1755	0.055
Mof_C 	C 	0.05503	0.3222	0.17449	-0.065
Mof_C 	C 	0.09128	0.4398	0.17558	0.008
Mof_H 	H 	0.1372	0.4358	0.1745	0.056
Mof_C 	C 	0.06099	0.5642	0.17822	-0.067
Mof_C 	C 	0.99362	0.5688	0.18056	-0.016
Mof_H 	H 	0.9728	0.6533	0.1829	0.053
Mof_C 	C 	0.78717	0.355	0.20279	0.082
Mof_H 	H 	0.768	0.2822	0.2176	0.011
Mof_C 	C 	0.85438	0.35	0.20266	-0.131
Mof_H 	H 	0.8802	0.2749	0.217	0.086
Mof_C 	C 	0.88441	0.455	0.18149	0.086
Mof_C 	C 	0.84367	0.563	0.16211	-0.131
Mof_H 	H 	0.8619	0.6381	0.1479	0.082
Mof_C 	C 	0.77666	0.5606	0.16363	0.078
Mof_H 	H 	0.7499	0.6354	0.1503	0.013
Mof_C 	C 	0.6672	0.4275	0.9145	0.172
Mof_C 	C 	0.71	0.4981	0.789	0.115
Mof_H 	H 	0.7485	0.4887	0.7748	-0.05
Mof_C 	C 	0.7156	0.4696	0.84	-0.042
Mof_H 	H 	0.7575	0.4457	0.8604	-0.006
Mof_C 	C 	0.6599	0.476	0.8608	0.111
Mof_C 	C 	0.6008	0.5134	0.8303	-0.074
Mof_H 	H 	0.5612	0.518	0.8433	0.059
Mof_C 	C 	0.5997	0.5446	0.7797	-0.117
Mof_H 	H 	0.5582	0.5716	0.7594	0.161
Mof_C 	C 	0.08838	0.1876	0.17324	0.295
Mof_C 	C 	0.6665	0.3662	0.0737	-0.061
Mof_H 	H 	0.6955	0.304	0.094	0.055
Mof_C 	C 	0.6668	0.3673	0.0225	-0.103
Mof_H 	H 	0.6955	0.3096	0.0088	0.093
Mof_C 	C 	0.6241	0.4553	0.9919	-0.005
Mof_C 	C 	0.5816	0.5316	0.0144	0.031
Mof_H 	H 	0.5499	0.5895	0.9943	-0.008
Mof_C 	C 	0.5853	0.5235	0.0658	0.108
Mof_H 	H 	0.5559	0.5761	0.0808	-0.102
Mof_C 	C 	0.101	0.6909	0.17892	0.31
Mof_C 	C 	0.659	0.4066	0.9407	0.172
Mof_C 	C 	0.6968	0.505	0.7921	-0.049
Mof_C 	C 	0.6939	0.4799	0.8418	-0.117
Mof_C 	C 	0.636	0.5055	0.8569	-0.007
Mof_C 	C 	0.5841	0.5541	0.8216	0.025
Mof_C 	C 	0.5898	0.571	0.7717	0.073
Mof_C 	C 	0.6762	0.344	0.0803	0.112
Mof_C 	C 	0.6801	0.3307	0.0298	-0.041
Mof_C 	C 	0.644	0.4152	0.9948	0.115
Mof_C 	C 	0.6026	0.5063	0.0097	-0.085
Mof_C 	C 	0.5989	0.507	0.0609	-0.122
Mof_H 	H 	0.7315	0.4457	0.8649	0.113
Mof_H 	H 	0.5435	0.5767	0.8313	0.016
Mof_H 	H 	0.5532	0.6034	0.7472	-0.121
Mof_H 	H 	0.7036	0.2885	0.105	-0.048
Mof_H 	H 	0.7076	0.2635	0.0198	0.016
Mof_H 	H 	0.5771	0.5672	0.9863	0.059
Mof_H 	H 	0.5671	0.5667	0.0697	0.119
Mof_H 	H 	0.5967	0.5461	0.916	0.101
Mof_H 	H 	0.7391	0.4938	0.7835	0.053
Mof_N 	N 	0.6263	0.4931	0.9067	-0.205
Mof_Co	Co	0.14107	0.04708	0.67713	1.15
Mof_O 	O 	0.55364	0.41772	0.6696	-0.364
Mof_O 	O 	0.65001	0.31745	0.67646	-0.358
Mof_O 	O 	0.56904	0.69825	0.6732	-0.381
Mof_O 	O 	0.66198	0.81402	0.68419	-0.319
Mof_O 	O 	0.20848	0.1554	0.43202	-0.284
Mof_N 	N 	0.24753	0.04274	0.6831	-0.232
Mof_N 	N 	0.12112	0.0269	0.4403	-0.201
Mof_H 	H 	0.0867	0.9826	0.423	0.087
Mof_N 	N 	0.15114	0.96041	0.25782	-0.193
Mof_N 	N 	0.13121	0.0602	0.59632	-0.187
Mof_C 	C 	0.45629	0.0494	0.67954	-0.021
Mof_C 	C 	0.48774	0.1726	0.67639	-0.018
Mof_H 	H 	0.463	0.2536	0.6755	0.054
Mof_C 	C 	0.55503	0.1778	0.67449	-0.065
Mof_C 	C 	0.59128	0.0602	0.67558	0.007
Mof_H 	H 	0.6372	0.0642	0.6745	0.056
Mof_C 	C 	0.56099	0.9358	0.67822	-0.066
Mof_C 	C 	0.49362	0.9312	0.68056	-0.013
Mof_H 	H 	0.4728	0.8467	0.6829	0.052
Mof_C 	C 	0.28717	0.145	0.70279	0.081
Mof_H 	H 	0.268	0.2178	0.7176	0.012
Mof_C 	C 	0.35438	0.15	0.70266	-0.131
Mof_H 	H 	0.3802	0.2251	0.717	0.085
Mof_C 	C 	0.38441	0.045	0.68149	0.085
Mof_C 	C 	0.34367	0.937	0.66211	-0.129
Mof_H 	H 	0.3619	0.8619	0.6479	0.082
Mof_C 	C 	0.27666	0.9394	0.66363	0.079
Mof_H 	H 	0.2499	0.8646	0.6503	0.013
Mof_C 	C 	0.1672	0.0725	0.4145	0.183
Mof_C 	C 	0.21	0.0019	0.289	0.108
Mof_H 	H 	0.2485	0.0113	0.2748	-0.045
Mof_C 	C 	0.2156	0.0304	0.34	-0.038
Mof_H 	H 	0.2575	0.0543	0.3604	-0.005
Mof_C 	C 	0.1599	0.024	0.3608	0.107
Mof_C 	C 	0.1008	0.9866	0.3303	-0.074
Mof_H 	H 	0.0612	0.982	0.3433	0.059
Mof_C 	C 	0.0997	0.9554	0.2797	-0.116
Mof_H 	H 	0.0582	0.9284	0.2594	0.159
Mof_C 	C 	0.58838	0.3124	0.67324	0.295
Mof_C 	C 	0.1665	0.1338	0.5737	-0.061
Mof_H 	H 	0.1955	0.196	0.594	0.055
Mof_C 	C 	0.1668	0.1327	0.5225	-0.103
Mof_H 	H 	0.1955	0.1904	0.5088	0.094
Mof_C 	C 	0.1241	0.0447	0.4919	-0.001
Mof_C 	C 	0.0816	0.9684	0.5144	0.028
Mof_H 	H 	0.0499	0.9105	0.4943	-0.007
Mof_C 	C 	0.0853	0.9765	0.5658	0.109
Mof_H 	H 	0.0559	0.9239	0.5808	-0.104
Mof_C 	C 	0.601	0.8091	0.67892	0.31
Mof_C 	C 	0.159	0.0934	0.4407	0.162
Mof_C 	C 	0.1968	0.995	0.2921	-0.044
Mof_C 	C 	0.1939	0.0201	0.3418	-0.115
Mof_C 	C 	0.136	0.9945	0.3569	-0.006
Mof_C 	C 	0.0841	0.9459	0.3216	0.024
Mof_C 	C 	0.0898	0.929	0.2717	0.073
Mof_C 	C 	0.1762	0.156	0.5803	0.112
Mof_C 	C 	0.1801	0.1693	0.5298	-0.041
Mof_C 	C 	0.144	0.0848	0.4948	0.113
Mof_C 	C 	0.1026	0.9937	0.5097	-0.084
Mof_C 	C 	0.0989	0.993	0.5609	-0.123
Mof_H 	H 	0.2315	0.0543	0.3649	0.11
Mof_H 	H 	0.0435	0.9233	0.3313	0.016
Mof_H 	H 	0.0532	0.8966	0.2472	-0.12
Mof_H 	H 	0.2036	0.2115	0.605	-0.048
Mof_H 	H 	0.2076	0.2365	0.5198	0.015
Mof_H 	H 	0.0771	0.9328	0.4863	0.059
Mof_H 	H 	0.0671	0.9333	0.5697	0.122
Mof_H 	H 	0.0967	0.9539	0.416	0.094
Mof_H 	H 	0.2391	0.0062	0.2835	0.051
Mof_N 	N 	0.1263	0.0069	0.4067	-0.205
Mof_Co	Co	0.64107	0.54708	0.67713	1.151
Mof_O 	O 	0.05364	0.91772	0.6696	-0.363
Mof_O 	O 	0.15001	0.81745	0.67646	-0.357
Mof_O 	O 	0.06904	0.19825	0.6732	-0.381
Mof_O 	O 	0.16198	0.31402	0.68419	-0.319
Mof_O 	O 	0.70848	0.6554	0.43202	-0.284
Mof_N 	N 	0.74753	0.54274	0.6831	-0.231
Mof_N 	N 	0.62112	0.5269	0.4403	-0.202
Mof_H 	H 	0.5867	0.4826	0.423	0.081
Mof_N 	N 	0.65114	0.46041	0.25782	-0.192
Mof_N 	N 	0.63121	0.5602	0.59632	-0.187
Mof_C 	C 	0.95629	0.5494	0.67954	-0.02
Mof_C 	C 	0.98774	0.6726	0.67639	-0.018
Mof_H 	H 	0.963	0.7536	0.6755	0.054
Mof_C 	C 	0.05503	0.6778	0.67449	-0.066
Mof_C 	C 	0.09128	0.5602	0.67558	0.009
Mof_H 	H 	0.1372	0.5642	0.6745	0.056
Mof_C 	C 	0.06099	0.4358	0.67822	-0.068
Mof_C 	C 	0.99362	0.4312	0.68056	-0.015
Mof_H 	H 	0.9728	0.3467	0.6829	0.053
Mof_C 	C 	0.78717	0.645	0.70279	0.082
Mof_H 	H 	0.768	0.7178	0.7176	0.011
Mof_C 	C 	0.85438	0.65	0.70266	-0.132
Mof_H 	H 	0.8802	0.7251	0.717	0.086
Mof_C 	C 	0.88441	0.545	0.68149	0.087
Mof_C 	C 	0.84367	0.437	0.66211	-0.131
Mof_H 	H 	0.8619	0.3619	0.6479	0.082
Mof_C 	C 	0.77666	0.4394	0.66363	0.078
Mof_H 	H 	0.7499	0.3646	0.6503	0.013
Mof_C 	C 	0.6672	0.5725	0.4145	0.171
Mof_C 	C 	0.71	0.5019	0.289	0.115
Mof_H 	H 	0.7485	0.5113	0.2748	-0.05
Mof_C 	C 	0.7156	0.5304	0.34	-0.042
Mof_H 	H 	0.7575	0.5543	0.3604	-0.006
Mof_C 	C 	0.6599	0.524	0.3608	0.111
Mof_C 	C 	0.6008	0.4866	0.3303	-0.074
Mof_H 	H 	0.5612	0.482	0.3433	0.059
Mof_C 	C 	0.5997	0.4554	0.2797	-0.117
Mof_H 	H 	0.5582	0.4284	0.2594	0.161
Mof_C 	C 	0.08838	0.8124	0.67324	0.295
Mof_C 	C 	0.6665	0.6338	0.5737	-0.061
Mof_H 	H 	0.6955	0.696	0.594	0.055
Mof_C 	C 	0.6668	0.6327	0.5225	-0.103
Mof_H 	H 	0.6955	0.6904	0.5088	0.093
Mof_C 	C 	0.6241	0.5447	0.4919	-0.005
Mof_C 	C 	0.5816	0.4684	0.5144	0.031
Mof_H 	H 	0.5499	0.4105	0.4943	-0.008
Mof_C 	C 	0.5853	0.4765	0.5658	0.108
Mof_H 	H 	0.5559	0.4239	0.5808	-0.102
Mof_C 	C 	0.101	0.3091	0.67892	0.31
Mof_C 	C 	0.659	0.5934	0.4407	0.173
Mof_C 	C 	0.6968	0.495	0.2921	-0.049
Mof_C 	C 	0.6939	0.5201	0.3418	-0.117
Mof_C 	C 	0.636	0.4945	0.3569	-0.007
Mof_C 	C 	0.5841	0.4459	0.3216	0.025
Mof_C 	C 	0.5898	0.429	0.2717	0.073
Mof_C 	C 	0.6762	0.656	0.5803	0.112
Mof_C 	C 	0.6801	0.6693	0.5298	-0.041
Mof_C 	C 	0.644	0.5848	0.4948	0.115
Mof_C 	C 	0.6026	0.4937	0.5097	-0.085
Mof_C 	C 	0.5989	0.493	0.5609	-0.122
Mof_H 	H 	0.7315	0.5543	0.3649	0.113
Mof_H 	H 	0.5435	0.4233	0.3313	0.016
Mof_H 	H 	0.5532	0.3966	0.2472	-0.121
Mof_H 	H 	0.7036	0.7115	0.605	-0.048
Mof_H 	H 	0.7076	0.7365	0.5198	0.016
Mof_H 	H 	0.5771	0.4328	0.4863	0.059
Mof_H 	H 	0.5671	0.4333	0.5697	0.119
Mof_H 	H 	0.5967	0.4539	0.416	0.101
Mof_H 	H 	0.7391	0.5062	0.2835	0.053
Mof_N 	N 	0.6263	0.5069	0.4067	-0.205
_end
