data_functionalizedCrystal
_audit_creation_method	'EQeq! by Chris Wilmer'
_symmetry_space_group_name_H-M	'P1'
_symmetry_Int_Tables_number	1
_symmetry_cell_setting	triclinic
loop_
_symmetry_equiv_pos_as_xyz
  x,y,z
_cell_length_a	15.3269
_cell_length_b	25.4411
_cell_length_c	31.096
_cell_angle_alpha	73.244
_cell_angle_beta	80.178
_cell_angle_gamma	82.093
loop_
_atom_site_label
_atom_site_type_symbol
_atom_site_fract_x
_atom_site_fract_y
_atom_site_fract_z
_atom_site_charge
Mof_Mn	Mn	0.44743	0.70409	0.9253	0.797
Mof_Mn	Mn	0.95635	0.16788	0.97685	0.878
Mof_Mn	Mn	0.21995	0.59812	0.51412	0.912
Mof_Mn	Mn	0.81238	0.11757	0.47341	0.857
Mof_Mn	Mn	0.78005	0.40188	0.48588	0.913
Mof_Mn	Mn	0.55257	0.29591	0.0747	0.798
Mof_Mn	Mn	0.20596	0.73871	0.52177	1.05
Mof_Mn	Mn	0.2543	0.77067	0.97982	1.028
Mof_Mn	Mn	0.18762	0.88243	0.52659	0.858
Mof_Mn	Mn	0.04365	0.83212	0.02315	0.879
Mof_Mn	Mn	0.7457	0.22933	0.02018	1.028
Mof_Mn	Mn	0.79404	0.26129	0.47823	1.05
Mof_H 	H 	0.0724	0.24	0.4876	0.05
Mof_H 	H 	0.4873	0.8181	0.1946	0.044
Mof_H 	H 	0.4476	0.9526	0.2111	0.04
Mof_H 	H 	0.7788	0.5464	0.7153	0.039
Mof_H 	H 	0.0949	0.4094	0.1223	0.04
Mof_H 	H 	0.9194	0.3524	0.3008	0.136
Mof_H 	H 	0.2899	0.0419	0.752	0.038
Mof_H 	H 	0.8197	0.7059	0.6495	0.16
Mof_H 	H 	0.7184	0.8294	0.4513	0.045
Mof_H 	H 	0.1661	0.9012	0.1119	-0.011
Mof_H 	H 	0.646	0.8608	0.1979	0.057
Mof_H 	H 	0.6112	0.464	0.3858	-0.011
Mof_H 	H 	0.4491	0.9085	0.4437	-0.046
Mof_H 	H 	0.8652	0.0121	0.0371	0.046
Mof_H 	H 	0.7439	0.041	0.2146	0.157
Mof_H 	H 	0.8984	0.769	0.719	0.14
Mof_H 	H 	0.5509	0.0915	0.5563	-0.046
Mof_H 	H 	0.1348	0.9879	0.9629	0.046
Mof_H 	H 	0.6395	0.9155	0.3227	0.031
Mof_H 	H 	0.7179	0.9099	0.3509	0.034
Mof_H 	H 	0.9083	0.3143	0.0659	-0.014
Mof_H 	H 	0.9088	0.0162	0.5465	0.035
Mof_H 	H 	0.5677	0.3491	0.3002	0.125
Mof_H 	H 	0.7546	0.1118	0.149	-0.032
Mof_H 	H 	0.808	0.4451	0.9377	0.142
Mof_H 	H 	0.3896	0.1888	0.7624	0.059
Mof_H 	H 	0.1489	0.7045	0.6336	-0.01
Mof_H 	H 	0.7708	0.8522	0.2401	0.058
Mof_H 	H 	0.9674	0.5694	0.5862	-0.037
Mof_H 	H 	0.7727	0.9699	0.2786	0.038
Mof_H 	H 	0.2942	0.6192	0.8645	-0.022
Mof_H 	H 	0.0912	0.9838	0.4535	0.035
Mof_H 	H 	0.8016	0.6453	0.8029	0.059
Mof_H 	H 	0.4706	0.0521	0.7631	0.036
Mof_H 	H 	0.7058	0.3808	0.1355	-0.022
Mof_H 	H 	0.4724	0.4045	0.238	0.045
Mof_H 	H 	0.2821	0.0901	0.6491	0.034
Mof_H 	H 	0.2816	0.1706	0.5487	0.045
Mof_H 	H 	0.0326	0.4306	0.4138	-0.037
Mof_H 	H 	0.5127	0.1819	0.8054	0.044
Mof_H 	H 	0.4286	0.3721	0.2864	0.043
Mof_H 	H 	0.3544	0.8961	0.935	-0.013
Mof_H 	H 	0.4859	0.5025	0.1095	0.14
Mof_H 	H 	0.0041	0.9536	0.0446	0.025
Mof_H 	H 	0.055	0.403	0.2577	0.047
Mof_H 	H 	0.5762	0.9146	0.394	0.156
Mof_H 	H 	0.3525	0.5164	0.2429	0.044
Mof_H 	H 	0.5139	0.4276	0.956	-0.02
Mof_H 	H 	0.7194	0.494	0.7837	0.038
Mof_H 	H 	0.9765	0.8063	0.3508	0.144
Mof_H 	H 	0.4861	0.5724	0.044	-0.02
Mof_H 	H 	0.9205	0.2126	0.5983	-0.025
Mof_H 	H 	0.268	0.1873	0.7135	0.058
Mof_H 	H 	0.1119	0.1469	0.7176	0.047
Mof_H 	H 	0.3332	0.6791	0.645	-0.009
Mof_H 	H 	0.0148	0.4855	0.1798	0.042
Mof_H 	H 	0.0758	0.0408	0.6336	0.15
Mof_H 	H 	0.96	0.8248	0.6521	-0.012
Mof_H 	H 	0.0143	0.9362	0.4222	-0.025
Mof_H 	H 	0.4971	0.037	0.2111	0.125
Mof_H 	H 	0.2561	0.959	0.7854	0.157
Mof_H 	H 	0.3788	0.8148	0.0656	-0.007
Mof_H 	H 	0.7784	0.5916	0.8415	0.056
Mof_H 	H 	0.354	0.1392	0.8021	0.057
Mof_H 	H 	0.785	0.9959	0.4566	-0.023
Mof_H 	H 	0.4238	0.0854	0.606	0.156
Mof_H 	H 	0.8433	0.552	0.639	0.141
Mof_H 	H 	0.9522	0.9589	0.1609	0.163
Mof_H 	H 	0.3937	0.8723	0.2667	0.049
Mof_H 	H 	0.2273	0.0301	0.7214	0.038
Mof_H 	H 	0.6925	0.41	0.8243	0.139
Mof_H 	H 	0.3075	0.59	0.1757	0.139
Mof_H 	H 	0.7101	0.9581	0.248	0.038
Mof_H 	H 	0.652	0.5974	0.8022	0.051
Mof_H 	H 	0.2379	0.9131	0.1667	0.138
Mof_H 	H 	0.6063	0.1277	0.7333	0.049
Mof_H 	H 	0.0684	0.0817	0.4489	0.046
Mof_H 	H 	0.7498	0.6813	0.4007	0.091
Mof_H 	H 	0.6831	0.6402	0.7561	0.055
Mof_H 	H 	0.1984	0.3547	0.1971	0.059
Mof_H 	H 	0.1599	0.1738	0.6686	0.04
Mof_H 	H 	0.7633	0.7621	0.4147	0.036
Mof_H 	H 	0.1803	0.2941	0.3505	0.16
Mof_H 	H 	0.0806	0.6476	0.6992	0.136
Mof_H 	H 	0.2614	0.9598	0.0131	0.087
Mof_H 	H 	0.5415	0.1744	0.8804	0.123
Mof_H 	H 	0.632	0.0122	0.096	0.142
Mof_H 	H 	0.4914	0.507	0.6656	0.14
Mof_H 	H 	0.0235	0.6015	0.7674	0.046
Mof_H 	H 	0.5294	0.9479	0.2369	0.036
Mof_H 	H 	0.1567	0.448	0.361	0.141
Mof_H 	H 	0.0383	0.5753	0.1753	0.138
Mof_H 	H 	0.1714	0.4006	0.4826	0.092
Mof_H 	H 	0.9765	0.3985	0.2326	0.046
Mof_H 	H 	0.1735	0.1325	0.9713	-0.02
Mof_H 	H 	0.8286	0.5994	0.5174	0.092
Mof_H 	H 	0.5714	0.6279	0.7136	0.043
Mof_H 	H 	0.809	0.4194	0.1621	0.145
Mof_H 	H 	0.2502	0.3187	0.5993	0.091
Mof_H 	H 	0.9287	0.6463	0.8418	0.037
Mof_H 	H 	0.5524	0.0474	0.7889	0.04
Mof_H 	H 	0.3605	0.0845	0.6773	0.031
Mof_H 	H 	0.4863	0.8681	0.8193	-0.003
Mof_H 	H 	0.7621	0.0869	0.8333	0.138
Mof_H 	H 	0.7012	0.5461	0.6883	0.042
Mof_H 	H 	0.9617	0.4247	0.8247	0.138
Mof_H 	H 	0.9701	0.3322	0.8554	-0.021
Mof_H 	H 	0.215	0.0041	0.5434	-0.023
Mof_H 	H 	0.192	0.5549	0.0623	0.142
Mof_H 	H 	0.2988	0.4539	0.3117	0.042
Mof_H 	H 	0.4754	0.8645	0.2931	0.048
Mof_H 	H 	0.4723	0.0841	0.9529	0.034
Mof_H 	H 	0.7341	0.9117	0.4616	0.074
Mof_H 	H 	0.1016	0.231	0.281	0.14
Mof_H 	H 	0.9316	0.9183	0.5511	0.046
Mof_H 	H 	0.1751	0.6493	0.0296	-0.015
Mof_H 	H 	0.3888	0.536	0.6142	-0.011
Mof_H 	H 	0.2367	0.2379	0.5853	0.036
Mof_H 	H 	0.0579	0.1562	0.4737	0.084
Mof_H 	H 	0.9861	0.651	0.9049	0.136
Mof_H 	H 	0.6668	0.3209	0.355	-0.009
Mof_H 	H 	0.9852	0.5145	0.8202	0.042
Mof_H 	H 	0.9667	0.034	0.0968	-0.032
Mof_H 	H 	0.2292	0.1478	0.7599	0.058
Mof_H 	H 	0.945	0.597	0.7423	0.047
Mof_H 	H 	0.04	0.1752	0.3479	-0.012
Mof_H 	H 	0.0139	0.349	0.0951	0.136
Mof_H 	H 	0.8372	0.6844	0.5322	0.033
Mof_H 	H 	0.9013	0.5135	0.7976	0.039
Mof_H 	H 	0.4585	0.8256	0.1196	0.123
Mof_H 	H 	0.5246	0.1355	0.7069	0.048
Mof_H 	H 	0.2806	0.506	0.2163	0.038
Mof_H 	H 	0.4323	0.6509	0.6998	0.125
Mof_H 	H 	0.7041	0.3413	0.8909	-0.017
Mof_H 	H 	0.8339	0.0988	0.8881	-0.011
Mof_H 	H 	0.0987	0.4865	0.2024	0.039
Mof_H 	H 	0.0478	0.0411	0.8391	0.163
Mof_H 	H 	0.5137	0.1319	0.1807	-0.003
Mof_H 	H 	0.2454	0.8882	0.851	-0.032
Mof_H 	H 	0.8249	0.3507	0.9704	-0.015
Mof_H 	H 	0.9051	0.5906	0.8777	0.04
Mof_H 	H 	0.6695	0.8928	0.0634	0.079
Mof_H 	H 	0.9421	0.8438	0.5263	0.084
Mof_H 	H 	0.6212	0.1852	0.9344	-0.007
Mof_H 	H 	0.8265	0.8675	0.0287	-0.02
Mof_H 	H 	0.5277	0.9159	0.0471	0.034
Mof_H 	H 	0.4109	0.2447	0.5987	0.159
Mof_H 	H 	0.2959	0.6587	0.1091	-0.017
Mof_H 	H 	0.0573	0.2773	0.4014	-0.037
Mof_H 	H 	0.4047	0.9368	0.0275	0.038
Mof_H 	H 	0.732	0.8127	0.2865	0.058
Mof_H 	H 	0.5953	0.0632	0.9725	0.038
Mof_H 	H 	0.6456	0.1039	0.065	-0.013
Mof_H 	H 	0.0713	0.3537	0.1582	0.037
Mof_H 	H 	0.0235	0.1937	0.6492	0.144
Mof_H 	H 	0.5141	0.4975	0.8905	0.14
Mof_H 	H 	0.5389	0.2502	0.5492	-0.031
Mof_H 	H 	0.2212	0.4536	0.2847	0.039
Mof_H 	H 	0.4778	0.1296	0.842	0.04
Mof_H 	H 	0.3305	0.1072	0.9366	0.079
Mof_H 	H 	0.8511	0.2955	0.3664	-0.01
Mof_H 	H 	0.6104	0.8112	0.2376	0.059
Mof_H 	H 	0.6475	0.4836	0.7571	0.044
Mof_H 	H 	0.0795	0.7874	0.4017	-0.025
Mof_H 	H 	0.4611	0.7498	0.4508	-0.031
Mof_H 	H 	0.5086	0.493	0.3344	0.14
Mof_H 	H 	0.9427	0.7227	0.5986	-0.037
Mof_H 	H 	0.9857	0.0638	0.5778	-0.025
Mof_H 	H 	0.0299	0.6678	0.1446	-0.021
Mof_H 	H 	0.8881	0.8531	0.2824	0.047
Mof_H 	H 	0.5276	0.5955	0.762	0.045
Mof_H 	H 	0.191	0.5806	0.8379	0.145
Mof_H 	H 	0.1628	0.3156	0.4678	0.033
Mof_H 	H 	0.348	0.4026	0.1978	0.051
Mof_H 	H 	0.5029	0.963	0.7889	0.125
Mof_H 	H 	0.9959	0.0464	0.9554	0.025
Mof_H 	H 	0.2216	0.4084	0.1585	0.056
Mof_H 	H 	0.0917	0.6857	0.9341	-0.014
Mof_H 	H 	0.7386	0.0402	0.9869	0.087
Mof_H 	H 	0.5891	0.7553	0.4013	0.159
Mof_H 	H 	0.5222	0.8704	0.158	0.04
Mof_H 	H 	0.2659	0.0883	0.5384	0.074
Mof_H 	H 	0.3169	0.3598	0.2439	0.055
Mof_H 	H 	0.368	0.9878	0.904	0.142
Mof_H 	H 	0.9276	0.76	0.5124	0.05
Mof_H 	H 	0.8401	0.8262	0.3314	0.04
Mof_H 	H 	0.0333	0.966	0.9032	-0.032
Mof_H 	H 	0.9242	0.9592	0.3664	0.15
Mof_C 	C 	0.3113	0.3984	0.2271	-0.029
Mof_C 	C 	0.9854	0.8327	0.36461	-0.312
Mof_C 	C 	0.4359	0.9853	0.8432	0.284
Mof_C 	C 	0.4261	0.6285	0.6819	-0.257
Mof_C 	C 	0.1804	0.01081	0.52023	0.118
Mof_C 	C 	0.2668	0.8936	0.1465	-0.265
Mof_C 	C 	0.339	0.4932	0.2255	0.008
Mof_C 	C 	0.7867	0.0379	0.1902	-0.349
Mof_C 	C 	0.2781	0.0388	0.977	0.128
Mof_C 	C 	0.5802	0.1888	0.1029	0.371
Mof_C 	C 	0.8881	0.3347	0.0867	0.171
Mof_C 	C 	0.4556	0.0087	0.9942	-0.008
Mof_C 	C 	0.8871	0.7903	0.5033	-0.024
Mof_C 	C 	0.8967	0.8409	0.511	-0.113
Mof_C 	C 	0.6001	0.1594	0.8819	-0.257
Mof_C 	C 	0.9152	0.2707	0.93822	0.398
Mof_C 	C 	0.1794	0.3156	0.4952	0.015
Mof_C 	C 	0.3584	0.79657	0.35087	-0.072
Mof_C 	C 	0.2431	0.113	0.707	0.024
Mof_C 	C 	0.2791	0.6741	0.4447	0.436
Mof_C 	C 	0.934	0.41	0.854	-0.304
Mof_C 	C 	0.1033	0.1591	0.489	-0.113
Mof_C 	C 	0.8741	0.9754	0.0365	-0.014
Mof_C 	C 	0.3891	0.9723	0.0102	-0.004
Mof_C 	C 	0.8527	0.3655	0.9411	0.172
Mof_C 	C 	0.6484	0.1653	0.9141	0.154
Mof_C 	C 	0.049	0.0569	0.9594	0.034
Mof_C 	C 	0.17	0.6033	0.8568	-0.291
Mof_C 	C 	0.1119	0.6653	0.9133	0.171
Mof_C 	C 	0.3548	0.8708	0.1488	0.265
Mof_C 	C 	0.4155	0.7729	0.32031	0.147
Mof_C 	C 	0.723	0.5657	0.7062	0.007
Mof_C 	C 	0.943	0.1416	0.58151	-0.247
Mof_C 	C 	0.7216	0.52013	0.42534	0.04
Mof_C 	C 	0.2356	0.055	0.7385	0.017
Mof_C 	C 	0.2272	0.1188	0.5271	-0.12
Mof_C 	C 	0.0848	0.7293	0.06178	0.398
Mof_C 	C 	0.3869	0.6238	0.0702	-0.21
Mof_C 	C 	0.0952	0.4125	0.1885	0.032
Mof_C 	C 	0.1129	0.2097	0.4967	-0.024
Mof_C 	C 	0.491	0.0625	0.78716	0.019
Mof_C 	C 	0.6109	0.0277	0.9898	-0.004
Mof_C 	C 	0.7395	0.3148	0.0806	0.42
Mof_C 	C 	0.3357	0.70626	0.40091	-0.148
Mof_C 	C 	0.4749	0.576	0.6863	0.274
Mof_C 	C 	0.7209	0.3259	0.5553	0.436
Mof_C 	C 	0.9235	0.6876	0.6073	0.232
Mof_C 	C 	0.5641	0.0147	0.1568	0.284
Mof_C 	C 	0.7639	0.8316	0.4669	-0.016
Mof_C 	C 	0.3928	0.68259	0.3703	0.069
Mof_C 	C 	0.8897	0.15598	0.54385	0.442
Mof_C 	C 	0.8107	0.6054	0.81146	-0.043
Mof_C 	C 	0.066	0.59	0.146	-0.304
Mof_C 	C 	0.7955	0.0809	0.1513	0.233
Mof_C 	C 	0.6973	0.0142	0.9979	-0.131
Mof_C 	C 	0.6643	0.3723	0.891	0.183
Mof_C 	C 	0.5152	0.2164	0.5608	0.235
Mof_C 	C 	0.5444	0.9913	0.0058	-0.008
Mof_C 	C 	0.1513	0.3219	0.363	-0.327
Mof_C 	C 	0.4767	0.8774	0.4353	0.246
Mof_C 	C 	0.2678	0.8567	0.083	-0.203
Mof_C 	C 	0.9378	0.6064	0.8482	0.017
Mof_C 	C 	0.7833	0.1524	0.953	0.43
Mof_C 	C 	0.137	0.4129	0.3696	-0.319
Mof_C 	C 	0.8113	0.6326	0.4973	-0.167
Mof_C 	C 	0.4489	0.5348	0.1093	-0.289
Mof_C 	C 	0.3516	0.8347	0.0859	0.154
Mof_C 	C 	0.1577	0.0094	0.8079	0.353
Mof_C 	C 	0.1568	0.5778	0.0782	-0.278
Mof_C 	C 	0.7219	0.9612	0.023	0.128
Mof_C 	C 	0.7728	0.8812	0.4729	-0.12
Mof_C 	C 	0.9834	0.7015	0.7142	0.294
Mof_C 	C 	0.5511	0.4652	0.8907	-0.289
Mof_C 	C 	0.6452	0.1292	0.8512	0.265
Mof_C 	C 	0.6815	0.2368	0.60884	0.069
Mof_C 	C 	0.9542	0.1786	0.60405	0.199
Mof_C 	C 	0.0146	0.1673	0.63539	-0.312
Mof_C 	C 	0.1334	0.8729	0.9279	0.451
Mof_C 	C 	0.6643	0.29374	0.59909	-0.148
Mof_C 	C 	0.7656	0.6817	0.4282	-0.159
Mof_C 	C 	0.9019	0.2823	0.35023	0.163
Mof_C 	C 	0.078	0.4744	0.17934	0.01
Mof_C 	C 	0.9433	0.316	0.3107	-0.289
Mof_C 	C 	0.8206	0.6844	0.5048	0.015
Mof_C 	C 	0.9401	0.884	0.35517	0.315
Mof_C 	C 	0.8432	0.4222	0.9218	-0.278
Mof_C 	C 	0.277	0.4343	0.2938	0.007
Mof_C 	C 	0.5233	0.1226	0.5647	0.246
Mof_C 	C 	0.1126	0.0003	0.4722	0.022
Mof_C 	C 	0.8865	0.4445	0.8786	0.291
Mof_C 	C 	0.7569	0.887	0.293	0.024
Mof_C 	C 	0.302	0.6331	0.5843	0.471
Mof_C 	C 	0.5845	0.2271	0.67969	0.147
Mof_C 	C 	0.5156	0.8762	0.2228	0.022
Mof_C 	C 	0.9207	0.3872	0.1324	0.313
Mof_C 	C 	0.5606	0.7866	0.4091	-0.328
Mof_C 	C 	0.1893	0.3946	0.18854	-0.043
Mof_C 	C 	0.0599	0.116	0.64483	0.315
Mof_C 	C 	0.8487	0.6781	0.637	-0.327
Mof_C 	C 	0.0166	0.2985	0.2858	0.294
Mof_C 	C 	0.8471	0.8605	0.3078	0.003
Mof_C 	C 	0.951	0.9431	0.0406	0.034
Mof_C 	C 	0.8874	0.9997	0.5278	0.022
Mof_C 	C 	0.8196	0.98919	0.47977	0.118
Mof_C 	C 	0.6582	0.5665	0.7468	0.028
Mof_C 	C 	0.0891	0.0104	0.8415	-0.336
Mof_C 	C 	0.9606	0.61126	0.7654	-0.008
Mof_C 	C 	0.4473	0.1193	0.5951	-0.367
Mof_C 	C 	0.5159	0.142	0.81345	0.013
Mof_C 	C 	0.947	0.7558	0.7014	-0.281
Mof_C 	C 	0.0269	0.3527	0.4109	-0.279
Mof_C 	C 	0.4841	0.858	0.18655	0.013
Mof_C 	C 	0.1259	0.0246	0.9635	-0.014
Mof_C 	C 	0.0394	0.38874	0.2346	-0.008
Mof_C 	C 	0.4301	0.0591	0.9661	-0.005
Mof_C 	C 	0.2344	0.3183	0.5718	-0.159
Mof_C 	C 	0.0472	0.0762	0.6251	-0.31
Mof_C 	C 	0.9392	0.5966	0.5996	0.213
Mof_C 	C 	0.3999	0.8406	0.1181	-0.257
Mof_C 	C 	0.3578	0.8235	0.4845	0.417
Mof_C 	C 	0.6416	0.20343	0.64913	-0.072
Mof_C 	C 	0.83	0.3967	0.1432	-0.291
Mof_C 	C 	0.374	0.6688	0.0263	0.41
Mof_C 	C 	0.6422	0.1765	0.5155	0.417
Mof_C 	C 	0.4724	0.9499	0.8178	-0.267
Mof_C 	C 	0.4195	0.873	0.8799	-0.193
Mof_C 	C 	0.1529	0.1395	0.6922	0.003
Mof_C 	C 	0.0469	0.6439	0.8965	-0.296
Mof_C 	C 	0.1858	0.3729	0.3509	0.317
Mof_C 	C 	0.6556	0.9265	0.0431	-0.131
Mof_C 	C 	0.055	0.6562	0.5589	0.446
Mof_C 	C 	0.0765	0.3124	0.3927	0.232
Mof_C 	C 	0.2335	0.6261	0.873	0.189
Mof_C 	C 	0.5276	0.0501	0.1822	-0.267
Mof_C 	C 	0.8142	0.6271	0.6491	0.317
Mof_C 	C 	0.7262	0.57732	0.41884	0.025
Mof_C 	C 	0.4327	0.7159	0.33	-0.06
Mof_C 	C 	0.6333	0.3548	0.3515	0.158
Mof_C 	C 	0.8981	0.9451	0.5317	-0.001
Mof_C 	C 	0.7766	0.7292	0.4362	0.017
Mof_C 	C 	0.2738	0.42268	0.58116	0.025
Mof_C 	C 	0.4844	0.1238	0.7772	0.022
Mof_C 	C 	0.9916	0.0897	0.59278	0.199
Mof_C 	C 	0.3667	0.6452	0.6485	0.158
Mof_C 	C 	0.6423	0.3872	0.3786	-0.23
Mof_C 	C 	0.4198	0.8112	0.8971	0.371
Mof_C 	C 	0.5673	0.2841	0.67	-0.06
Mof_C 	C 	0.8666	0.1271	0.0721	0.451
Mof_C 	C 	0.0971	0.6688	0.0828	-0.223
Mof_C 	C 	0.3577	0.6128	0.6214	-0.23
Mof_C 	C 	0.7332	0.1064	0.8535	-0.265
Mof_C 	C 	0.5675	0.5918	0.735	0.004
Mof_C 	C 	0.9197	0.0351	0.1199	0.219
Mof_C 	C 	0.1389	0.9198	0.884	-0.265
Mof_C 	C 	0.6091	0.851	0.2271	-0.034
Mof_C 	C 	0.8611	0.0802	0.116	-0.265
Mof_C 	C 	0.9531	0.3561	0.1035	-0.296
Mof_C 	C 	0.7901	0.53003	0.48241	0.068
Mof_C 	C 	0.7754	0.1137	0.8861	0.156
Mof_C 	C 	0.6076	0.0366	0.1132	-0.272
Mof_C 	C 	0.8526	0.8968	0.032	0.115
Mof_C 	C 	0.8068	0.7314	0.4749	-0.028
Mof_C 	C 	0.5587	0.1724	0.5468	-0.275
Mof_C 	C 	0.2246	0.8863	0.1139	0.156
Mof_C 	C 	0.2693	0.1494	0.7319	-0.034
Mof_C 	C 	0.2234	0.2708	0.5638	0.017
Mof_C 	C 	0.2167	0.8476	0.047	0.43
Mof_C 	C 	0.6164	0.0911	0.0943	0.166
Mof_C 	C 	0.6072	0.31741	0.6297	0.069
Mof_C 	C 	0.3444	0.0735	0.9569	-0.131
Mof_C 	C 	0.0622	0.3936	0.1518	0.017
Mof_C 	C 	0.5527	0.8807	0.4049	-0.367
Mof_C 	C 	0.6922	0.8925	0.3327	0.024
Mof_C 	C 	0.3185	0.7632	0.39116	0.069
Mof_C 	C 	0.3357	0.6277	0.109	0.183
Mof_C 	C 	0.8162	0.7858	0.4818	0.009
Mof_C 	C 	0.4609	0.5419	0.6615	-0.269
Mof_C 	C 	0.2218	0.3663	0.5383	0.166
Mof_C 	C 	0.0608	0.4034	0.4004	0.213
Mof_C 	C 	0.1838	0.2142	0.5182	0.009
Mof_C 	C 	0.2045	0.9191	0.8487	0.233
Mof_C 	C 	0.5699	0.9409	0.0339	-0.005
Mof_C 	C 	0.0616	0.7718	0.6349	-0.199
Mof_C 	C 	0.863	0.5871	0.6304	-0.319
Mof_C 	C 	0.8977	0.19025	0.4081	0.366
Mof_C 	C 	0.3078	0.1075	0.6673	0.024
Mof_C 	C 	0.9048	0.5875	0.8115	0.032
Mof_C 	C 	0.2023	0.6576	0.9006	-0.232
Mof_C 	C 	0.057	0.8584	0.41849	-0.247
Mof_C 	C 	0.4848	0.7836	0.4392	0.235
Mof_C 	C 	0.2605	0.6852	0.9194	0.42
Mof_C 	C 	0.9384	0.2282	0.3651	-0.199
Mof_C 	C 	0.9731	0.6473	0.5891	-0.279
Mof_C 	C 	0.5739	0.3715	0.3181	-0.257
Mof_C 	C 	0.0599	0.6449	0.1273	0.189
Mof_C 	C 	0.9528	0.9238	0.3749	-0.31
Mof_C 	C 	0.2361	0.1684	0.5331	-0.016
Mof_C 	C 	0.6887	0.6016	0.7729	-0.029
Mof_C 	C 	0.3909	0.149	0.7729	-0.034
Mof_C 	C 	0.1887	0.3674	0.5027	-0.167
Mof_C 	C 	0.0458	0.8214	0.39595	0.199
Mof_C 	C 	0.1616	0.1137	0.50451	0.122
Mof_C 	C 	0.5805	0.127	0.1201	-0.193
Mof_C 	C 	0.9855	0.7888	0.6619	0.158
Mof_C 	C 	0.9401	0.3551	0.8727	0.189
Mof_C 	C 	0.4482	0.5755	0.0701	0.17
Mof_C 	C 	0.7307	0.8506	0.2681	-0.034
Mof_C 	C 	0.3027	0.9858	0.0021	-0.131
Mof_C 	C 	0.4325	0.4082	0.265	0.004
Mof_C 	C 	0.5391	0.4581	0.3385	-0.269
Mof_C 	C 	0.945	0.3438	0.4411	0.446
Mof_C 	C 	0.6131	0.3762	0.9298	-0.21
Mof_C 	C 	0.0803	0.9649	0.8801	0.219
Mof_C 	C 	0.2099	0.46997	0.51759	0.068
Mof_C 	C 	0.5518	0.4245	0.9299	0.17
Mof_C 	C 	0.1103	0.84402	0.45615	0.442
Mof_C 	C 	0.7322	0.1433	0.917	-0.203
Mof_C 	C 	0.9029	0.3312	0.9172	-0.223
Mof_C 	C 	0.5462	0.145	0.731	0.006
Mof_C 	C 	0.8384	0.8863	0.49549	0.122
Mof_C 	C 	0.922	0.5256	0.82066	0.01
Mof_C 	C 	0.0793	0.6128	0.8676	0.313
Mof_C 	C 	0.7782	0.6337	0.4617	0.166
Mof_C 	C 	0.4394	0.2134	0.5909	-0.328
Mof_C 	C 	0.2133	0.9621	0.8098	-0.349
Mof_C 	C 	0.1932	0.2686	0.5251	-0.028
Mof_C 	C 	0.6036	0.4607	0.8509	0.3
Mof_C 	C 	0.0567	0.684	0.6893	-0.289
Mof_C 	C 	0.463	0.8926	0.8365	0.138
Mof_C 	C 	0.7977	0.3424	0.0994	-0.232
Mof_C 	C 	0.3924	0.9634	0.8868	-0.272
Mof_C 	C 	0.1473	0.6345	0.0589	0.172
Mof_C 	C 	0.0145	0.2112	0.3381	0.158
Mof_C 	C 	0.0084	0.9103	0.40722	0.199
Mof_C 	C 	0.404	0.1614	0.6102	0.346
Mof_C 	C 	0.1474	0.1032	0.968	0.115
Mof_C 	C 	0.8423	0.9906	0.1921	0.353
Mof_C 	C 	0.053	0.2442	0.2986	-0.281
Mof_C 	C 	0.3964	0.5393	0.1491	0.3
Mof_C 	C 	0.2784	0.47987	0.57466	0.04
Mof_C 	C 	0.1019	0.0549	0.4683	-0.001
Mof_C 	C 	0.3416	0.5859	0.1489	-0.298
Mof_C 	C 	0.3418	0.4335	0.2532	0.028
Mof_C 	C 	0.4004	0.5599	0.6298	0.167
Mof_C 	C 	0.509	0.9375	0.21284	0.019
Mof_C 	C 	0.596	0.8386	0.3898	0.346
Mof_C 	C 	0.3836	0.9089	0.9057	0.166
Mof_C 	C 	0.626	0.3312	0.9737	0.41
Mof_C 	C 	0.1135	0.5555	0.1214	0.291
Mof_C 	C 	0.661	0.5068	0.7745	0.008
Mof_C 	C 	0.1023	0.80975	0.5919	0.366
Mof_C 	C 	0.5251	0.424	0.3137	0.274
Mof_C 	C 	0.537	0.1074	0.1635	0.138
Mof_C 	C 	0.7644	0.945	0.2615	0.017
Mof_C 	C 	0.9109	0.9896	0.1585	-0.336
Mof_C 	C 	0.5996	0.4401	0.3702	0.167
Mof_C 	C 	0.4413	0.8276	0.4532	-0.275
Mof_C 	C 	0.6584	0.4141	0.8511	-0.298
Mof_C 	C 	0.698	0.3669	0.4157	0.471
Mof_C 	C 	0.7665	0.3739	0.127	0.189
Mof_C 	C 	0.0981	0.7177	0.64977	0.163
Mof_C 	C 	0.4538	0.855	0.269	0.006
Mof_N 	N 	0.7685	0.58344	0.45411	-0.146
Mof_N 	N 	0.8512	0.93731	0.50236	-0.146
Mof_N 	N 	0.9383	0.89314	0.03802	-0.196
Mof_N 	N 	0.158	0.97257	0.50662	-0.199
Mof_N 	N 	0.2315	0.41656	0.54589	-0.146
Mof_N 	N 	0.842	0.02743	0.49338	-0.199
Mof_N 	N 	0.2389	0.5091	0.53537	-0.187
Mof_N 	N 	0.7611	0.4909	0.46463	-0.187
Mof_N 	N 	0.8096	0.94469	0.0311	-0.149
Mof_N 	N 	0.1904	0.05531	0.9689	-0.149
Mof_N 	N 	0.1488	0.06269	0.49764	-0.146
Mof_N 	N 	0.0617	0.10686	0.96198	-0.196
Mof_O 	O 	0.1612	0.05588	0.77356	-0.259
Mof_O 	O 	0.752	0.31264	0.52615	-0.504
Mof_O 	O 	0.3428	0.67931	0.90161	-0.381
Mof_O 	O 	0.3252	0.70953	0.02772	-0.408
Mof_O 	O 	0.8796	0.9011	0.32505	-0.245
Mof_O 	O 	0.0689	0.86055	0.58083	-0.349
Mof_O 	O 	0.882	0.11979	0.52554	-0.403
Mof_O 	O 	0.7377	0.17269	0.98137	-0.405
Mof_O 	O 	0.221	0.4161	0.22104	-0.159
Mof_O 	O 	0.6867	0.13195	0.50722	-0.393
Mof_O 	O 	0.2623	0.37902	0.32091	-0.249
Mof_O 	O 	0.3951	0.88044	0.18163	-0.235
Mof_O 	O 	0.8316	0.20656	0.43173	-0.429
Mof_O 	O 	0.7297	0.31876	0.42476	-0.409
Mof_O 	O 	0.7711	0.28815	0.05324	-0.4
Mof_O 	O 	0.779	0.5839	0.77896	-0.159
Mof_O 	O 	0.2623	0.82731	0.01863	-0.405
Mof_O 	O 	0.1204	0.0989	0.67495	-0.245
Mof_O 	O 	0.3313	0.16074	0.64098	-0.27
Mof_O 	O 	0.1472	0.79491	0.46714	-0.397
Mof_O 	O 	0.2703	0.68124	0.57524	-0.409
Mof_O 	O 	0.0599	0.32882	0.24554	-0.24
Mof_O 	O 	0.7085	0.40076	0.43573	-0.419
Mof_O 	O 	0.2915	0.59924	0.56427	-0.419
Mof_O 	O 	0.5364	0.55447	0.71528	-0.237
Mof_O 	O 	0.6724	0.22346	0.49835	-0.381
Mof_O 	O 	0.0738	0.8795	0.95874	-0.432
Mof_O 	O 	0.1353	0.86282	0.05047	-0.398
Mof_O 	O 	0.5438	0.21873	0.12786	-0.37
Mof_O 	O 	0.9175	0.29667	0.453	-0.405
Mof_O 	O 	0.6175	0.20896	0.06265	-0.415
Mof_O 	O 	0.0997	0.61462	0.54613	-0.427
Mof_O 	O 	0.9262	0.1205	0.04126	-0.432
Mof_O 	O 	0.3276	0.77654	0.50165	-0.381
Mof_O 	O 	0.3097	0.6182	0.4526	-0.357
Mof_O 	O 	0.9678	0.24229	0.9175	-0.371
Mof_O 	O 	0.358	0.12857	0.74123	-0.158
Mof_O 	O 	0.5458	0.20139	0.72132	-0.206
Mof_O 	O 	0.1245	0.49846	0.13601	-0.241
Mof_O 	O 	0.6748	0.29047	0.97228	-0.408
Mof_O 	O 	0.8528	0.20509	0.53286	-0.397
Mof_O 	O 	0.8755	0.50154	0.86399	-0.241
Mof_O 	O 	0.3825	0.79104	0.93735	-0.415
Mof_O 	O 	0.4562	0.78127	0.87214	-0.37
Mof_O 	O 	0.4636	0.44553	0.28472	-0.237
Mof_O 	O 	0.9311	0.13945	0.41917	-0.349
Mof_O 	O 	0.0298	0.58861	0.84808	-0.255
Mof_O 	O 	0.9401	0.67118	0.75446	-0.24
Mof_O 	O 	0.118	0.88021	0.47446	-0.403
Mof_O 	O 	0.6903	0.3818	0.5474	-0.357
Mof_O 	O 	0.6687	0.83926	0.35902	-0.27
Mof_O 	O 	0.8647	0.13718	0.94953	-0.398
Mof_O 	O 	0.6572	0.32069	0.09839	-0.381
Mof_O 	O 	0.642	0.87143	0.25877	-0.158
Mof_O 	O 	0.5622	0.95879	0.17112	-0.244
Mof_O 	O 	0.4542	0.79861	0.27868	-0.206
Mof_O 	O 	0.405	0.49456	0.18675	-0.242
Mof_O 	O 	0.5739	0.34333	0.00917	-0.399
Mof_O 	O 	0.1255	0.75049	0.0227	-0.44
Mof_O 	O 	0.0322	0.75771	0.0825	-0.371
Mof_O 	O 	0.7377	0.62098	0.67909	-0.249
Mof_O 	O 	0.9003	0.38538	0.45387	-0.427
Mof_O 	O 	0.6049	0.11956	0.81837	-0.235
Mof_O 	O 	0.1684	0.79344	0.56827	-0.429
Mof_O 	O 	0.8745	0.24951	0.9773	-0.44
Mof_O 	O 	0.1924	0.83331	0.92863	-0.402
Mof_O 	O 	0.0825	0.70333	0.547	-0.405
Mof_O 	O 	0.8388	0.94412	0.22644	-0.259
Mof_O 	O 	0.8076	0.16669	0.07137	-0.402
Mof_O 	O 	0.248	0.68736	0.47385	-0.504
Mof_O 	O 	0.9702	0.41139	0.15192	-0.255
Mof_O 	O 	0.3133	0.86805	0.49278	-0.393
Mof_O 	O 	0.595	0.50544	0.81325	-0.242
Mof_O 	O 	0.2289	0.71185	0.94676	-0.4
Mof_O 	O 	0.4378	0.04121	0.82888	-0.244
Mof_O 	O 	0.4261	0.65667	0.99083	-0.399
_end
