data_functionalizedCrystal
_audit_creation_method	'EQeq! by Chris Wilmer'
_symmetry_space_group_name_H-M	'P1'
_symmetry_Int_Tables_number	1
_symmetry_cell_setting	triclinic
loop_
_symmetry_equiv_pos_as_xyz
  x,y,z
_cell_length_a	11.6868
_cell_length_b	21.3912
_cell_length_c	21.3912
_cell_angle_alpha	63.2401
_cell_angle_beta	79.5072
_cell_angle_gamma	100.493
loop_
_atom_site_label
_atom_site_type_symbol
_atom_site_fract_x
_atom_site_fract_y
_atom_site_fract_z
_atom_site_charge
Mof_Nd	Nd	0.47542	0.52965	0.07999	2.234
Mof_Nd	Nd	0.55541	0.07999	0.39036	2.232
Mof_Nd	Nd	0.94577	0.39036	0.52965	2.233
Mof_Nd	Nd	0.52458	0.47035	0.92001	2.234
Mof_Nd	Nd	0.44459	0.92001	0.60964	2.232
Mof_Nd	Nd	0.05423	0.60964	0.47035	2.233
Mof_C 	C 	0.3707	0.125	0.3219	0.351
Mof_C 	C 	0.2999	0.1649	0.2721	-0.131
Mof_C 	C 	0.3628	0.2313	0.2089	0.127
Mof_C 	C 	0.3011	0.2761	0.1658	-0.178
Mof_C 	C 	0.3737	0.3537	0.1033	0.531
Mof_C 	C 	0.1746	0.2514	0.1873	0.083
Mof_C 	C 	0.1052	0.1834	0.2522	0.012
Mof_C 	C 	0.1721	0.143	0.2928	0.073
Mof_C 	C 	0.3052	0.5106	0.9626	0.43
Mof_C 	C 	0.6926	0.3219	0.5531	0.352
Mof_C 	C 	0.572	0.2721	0.563	-0.129
Mof_C 	C 	0.5717	0.2089	0.5598	0.127
Mof_C 	C 	0.4669	0.1658	0.5581	-0.178
Mof_C 	C 	0.477	0.1033	0.543	0.531
Mof_C 	C 	0.3619	0.1873	0.5613	0.083
Mof_C 	C 	0.3574	0.2522	0.5644	0.013
Mof_C 	C 	0.4649	0.2928	0.5642	0.072
Mof_C 	C 	0.2678	0.9626	0.5268	0.429
Mof_C 	C 	0.2457	0.5531	0.125	0.352
Mof_C 	C 	0.135	0.563	0.1649	-0.129
Mof_C 	C 	0.1315	0.5598	0.2313	0.127
Mof_C 	C 	0.025	0.5581	0.2761	-0.178
Mof_C 	C 	0.02	0.543	0.3537	0.531
Mof_C 	C 	0.9232	0.5613	0.2514	0.083
Mof_C 	C 	0.9218	0.5644	0.1834	0.012
Mof_C 	C 	0.0291	0.5642	0.143	0.072
Mof_C 	C 	0.7946	0.5268	0.5106	0.43
Mof_C 	C 	0.6293	0.875	0.6781	0.352
Mof_C 	C 	0.7001	0.8351	0.7279	-0.13
Mof_C 	C 	0.6372	0.7687	0.7911	0.127
Mof_C 	C 	0.6989	0.7239	0.8342	-0.178
Mof_C 	C 	0.6263	0.6463	0.8967	0.531
Mof_C 	C 	0.8254	0.7486	0.8127	0.083
Mof_C 	C 	0.8948	0.8166	0.7478	0.012
Mof_C 	C 	0.8279	0.857	0.7072	0.073
Mof_C 	C 	0.6948	0.4894	0.0374	0.43
Mof_C 	C 	0.3074	0.6781	0.4469	0.352
Mof_C 	C 	0.428	0.7279	0.437	-0.129
Mof_C 	C 	0.4283	0.7911	0.4402	0.127
Mof_C 	C 	0.5331	0.8342	0.4419	-0.178
Mof_C 	C 	0.523	0.8967	0.457	0.531
Mof_C 	C 	0.6381	0.8127	0.4387	0.083
Mof_C 	C 	0.6426	0.7478	0.4356	0.013
Mof_C 	C 	0.5351	0.7072	0.4358	0.072
Mof_C 	C 	0.7322	0.0374	0.4732	0.429
Mof_C 	C 	0.7543	0.4469	0.875	0.352
Mof_C 	C 	0.865	0.437	0.8351	-0.129
Mof_C 	C 	0.8685	0.4402	0.7687	0.127
Mof_C 	C 	0.975	0.4419	0.7239	-0.178
Mof_C 	C 	0.98	0.457	0.6463	0.531
Mof_C 	C 	0.0768	0.4387	0.7486	0.083
Mof_C 	C 	0.0782	0.4356	0.8166	0.012
Mof_C 	C 	0.9709	0.4358	0.857	0.072
Mof_C 	C 	0.2054	0.4732	0.4894	0.43
Mof_I 	I 	0.55441	0.26505	0.16981	-0.188
Mof_I 	I 	0.08419	0.31569	0.11974	-0.118
Mof_I 	I 	0.07607	0.04484	0.3918	-0.091
Mof_I 	I 	0.72422	0.16981	0.56514	-0.188
Mof_I 	I 	0.20393	0.11974	0.56457	-0.122
Mof_I 	I 	0.46787	0.3918	0.56336	-0.1
Mof_I 	I 	0.28936	0.56514	0.26505	-0.187
Mof_I 	I 	0.7685	0.56457	0.31569	-0.123
Mof_I 	I 	0.03123	0.56336	0.04484	-0.099
Mof_I 	I 	0.44559	0.73495	0.83019	-0.188
Mof_I 	I 	0.91581	0.68431	0.88026	-0.118
Mof_I 	I 	0.92393	0.95516	0.6082	-0.091
Mof_I 	I 	0.27578	0.83019	0.43486	-0.188
Mof_I 	I 	0.79607	0.88026	0.43543	-0.122
Mof_I 	I 	0.53213	0.6082	0.43664	-0.1
Mof_I 	I 	0.71064	0.43486	0.73495	-0.187
Mof_I 	I 	0.2315	0.43543	0.68431	-0.123
Mof_I 	I 	0.96877	0.43664	0.95516	-0.099
Mof_N 	N 	0.9792	0.1621	0.2729	-0.156
Mof_N 	N 	0.2521	0.2729	0.565	-0.163
Mof_N 	N 	0.8171	0.565	0.1621	-0.165
Mof_N 	N 	0.0208	0.8379	0.7271	-0.156
Mof_N 	N 	0.7479	0.7271	0.435	-0.163
Mof_N 	N 	0.1829	0.435	0.8379	-0.165
Mof_O 	O 	0.40243	0.14693	0.36144	-0.469
Mof_O 	O 	0.40232	0.07334	0.31608	-0.421
Mof_O 	O 	0.39545	0.39858	0.12493	-0.545
Mof_O 	O 	0.40212	0.36399	0.03943	-0.546
Mof_O 	O 	0.313	0.4883	0.9178	-0.498
Mof_O 	O 	0.38508	0.51554	0.9913	-0.644
Mof_O 	O 	0.76387	0.36144	0.49163	-0.469
Mof_O 	O 	0.7184	0.31608	0.61058	-0.421
Mof_O 	O 	0.52038	0.12493	0.47649	-0.545
Mof_O 	O 	0.44155	0.03943	0.59658	-0.546
Mof_O 	O 	0.2308	0.9178	0.5939	-0.488
Mof_O 	O 	0.37638	0.9913	0.49316	-0.643
Mof_O 	O 	0.2555	0.49163	0.14693	-0.469
Mof_O 	O 	0.32898	0.61058	0.07334	-0.421
Mof_O 	O 	0.99687	0.47649	0.39858	-0.545
Mof_O 	O 	0.03813	0.59658	0.36399	-0.546
Mof_O 	O 	0.8247	0.5939	0.4883	-0.493
Mof_O 	O 	0.86954	0.49316	0.51554	-0.643
Mof_O 	O 	0.59757	0.85307	0.63856	-0.469
Mof_O 	O 	0.59768	0.92666	0.68392	-0.421
Mof_O 	O 	0.60455	0.60142	0.87507	-0.545
Mof_O 	O 	0.59788	0.63601	0.96057	-0.546
Mof_O 	O 	0.687	0.5117	0.0822	-0.498
Mof_O 	O 	0.61492	0.48446	0.0087	-0.644
Mof_O 	O 	0.23613	0.63856	0.50837	-0.469
Mof_O 	O 	0.2816	0.68392	0.38942	-0.421
Mof_O 	O 	0.47962	0.87507	0.52351	-0.545
Mof_O 	O 	0.55845	0.96057	0.40342	-0.546
Mof_O 	O 	0.7692	0.0822	0.4061	-0.488
Mof_O 	O 	0.62362	0.0087	0.50684	-0.643
Mof_O 	O 	0.7445	0.50837	0.85307	-0.469
Mof_O 	O 	0.67102	0.38942	0.92666	-0.421
Mof_O 	O 	0.00313	0.52351	0.60142	-0.545
Mof_O 	O 	0.96187	0.40342	0.63601	-0.546
Mof_O 	O 	0.1753	0.4061	0.5117	-0.493
Mof_O 	O 	0.13046	0.50684	0.48446	-0.643
Mof_H 	H 	0.92866	0.11797	0.26545	0.069
Mof_H 	H 	0.9285	0.18912	0.29698	0.068
Mof_H 	H 	0.17327	0.24225	0.55753	0.063
Mof_H 	H 	0.24632	0.32018	0.57295	0.093
Mof_H 	H 	0.79095	0.53312	0.13517	0.098
Mof_H 	H 	0.75913	0.59736	0.17191	0.063
Mof_H 	H 	0.0715	0.81088	0.70302	0.068
Mof_H 	H 	0.07134	0.88203	0.73455	0.069
Mof_H 	H 	0.75368	0.67982	0.42705	0.093
Mof_H 	H 	0.82673	0.75775	0.44247	0.063
Mof_H 	H 	0.24087	0.40264	0.82809	0.063
Mof_H 	H 	0.20905	0.46688	0.86483	0.098
_end
