data_functionalizedCrystal
_audit_creation_method	'EQeq! by Chris Wilmer'
_symmetry_space_group_name_H-M	'P1'
_symmetry_Int_Tables_number	1
_symmetry_cell_setting	triclinic
loop_
_symmetry_equiv_pos_as_xyz
  x,y,z
_cell_length_a	7.691
_cell_length_b	10.2147
_cell_length_c	15.8154
_cell_angle_alpha	90
_cell_angle_beta	90
_cell_angle_gamma	90
loop_
_atom_site_label
_atom_site_type_symbol
_atom_site_fract_x
_atom_site_fract_y
_atom_site_fract_z
_atom_site_charge
Mof_Cd	Cd	0.96722	0.29083	0.78848	0.45
Mof_Cd	Cd	0.03278	0.79083	0.21152	0.458
Mof_Cd	Cd	0.46722	0.29083	0.71152	0.454
Mof_Cd	Cd	0.53278	0.79083	0.28848	0.456
Mof_H 	H 	0.2033	0.0311	0.0035	0.084
Mof_H 	H 	0.5178	0.0195	0.8013	0.101
Mof_H 	H 	0.6574	0.8368	0.0148	0.143
Mof_H 	H 	0.8441	0.8196	0.9002	0.312
Mof_H 	H 	0.8483	0.946	0.8441	0.325
Mof_H 	H 	0.7521	0.8203	0.8117	0.307
Mof_H 	H 	0.7967	0.5311	0.9965	0.088
Mof_H 	H 	0.4822	0.5195	0.1987	0.14
Mof_H 	H 	0.3426	0.3368	0.9852	0.148
Mof_H 	H 	0.1559	0.3196	0.0998	0.318
Mof_H 	H 	0.1517	0.446	0.1559	0.328
Mof_H 	H 	0.2479	0.3203	0.1883	0.311
Mof_H 	H 	0.7033	0.0311	0.4965	0.086
Mof_H 	H 	0.0178	0.0195	0.6987	0.11
Mof_H 	H 	0.1574	0.8368	0.4852	0.146
Mof_H 	H 	0.3441	0.8196	0.5998	0.318
Mof_H 	H 	0.3483	0.946	0.6559	0.332
Mof_H 	H 	0.2521	0.8203	0.6883	0.314
Mof_H 	H 	0.2967	0.5311	0.5035	0.088
Mof_H 	H 	0.9822	0.5195	0.3013	0.133
Mof_H 	H 	0.8426	0.3368	0.5148	0.146
Mof_H 	H 	0.6559	0.3196	0.4002	0.313
Mof_H 	H 	0.6517	0.446	0.3441	0.322
Mof_H 	H 	0.7479	0.3203	0.3117	0.306
Mof_C 	C 	0.3893	0.8959	0.1147	0.268
Mof_C 	C 	0.4263	0.9307	0.0243	0.078
Mof_C 	C 	0.3071	0.0048	0.9785	-0.135
Mof_C 	C 	0.3433	0.0393	0.8953	0.026
Mof_C 	C 	0.495	0.9963	0.857	-0.22
Mof_C 	C 	0.6151	0.9181	0.9013	0.377
Mof_C 	C 	0.5788	0.8875	0.9844	-0.285
Mof_C 	C 	0.7796	0.8719	0.8607	-0.941
Mof_C 	C 	0.2194	0.1237	0.8479	0.249
Mof_C 	C 	0.6107	0.3959	0.8853	0.267
Mof_C 	C 	0.5737	0.4307	0.9757	0.071
Mof_C 	C 	0.6929	0.5048	0.0215	-0.131
Mof_C 	C 	0.6567	0.5393	0.1047	0.068
Mof_C 	C 	0.505	0.4963	0.143	-0.3
Mof_C 	C 	0.3849	0.4181	0.0987	0.406
Mof_C 	C 	0.4212	0.3875	0.0156	-0.302
Mof_C 	C 	0.2204	0.3719	0.1393	-0.969
Mof_C 	C 	0.7806	0.6237	0.1521	0.236
Mof_C 	C 	0.8893	0.8959	0.3853	0.263
Mof_C 	C 	0.9263	0.9307	0.4757	0.082
Mof_C 	C 	0.8071	0.0048	0.5215	-0.142
Mof_C 	C 	0.8433	0.0393	0.6047	0.034
Mof_C 	C 	0.995	0.9963	0.643	-0.239
Mof_C 	C 	0.1151	0.9181	0.5987	0.392
Mof_C 	C 	0.0788	0.8875	0.5156	-0.291
Mof_C 	C 	0.2796	0.8719	0.6393	-0.96
Mof_C 	C 	0.7194	0.1237	0.6521	0.246
Mof_C 	C 	0.1107	0.3959	0.6147	0.271
Mof_C 	C 	0.0737	0.4307	0.5243	0.071
Mof_C 	C 	0.1929	0.5048	0.4785	-0.129
Mof_C 	C 	0.1567	0.5393	0.3953	0.063
Mof_C 	C 	0.005	0.4963	0.357	-0.284
Mof_C 	C 	0.8849	0.4181	0.4013	0.395
Mof_C 	C 	0.9212	0.3875	0.4844	-0.3
Mof_C 	C 	0.7204	0.3719	0.3607	-0.954
Mof_C 	C 	0.2806	0.6237	0.3479	0.238
Mof_O 	O 	0.2384	0.8956	0.1395	-0.287
Mof_O 	O 	0.5238	0.8715	0.1604	-0.273
Mof_O 	O 	0.0752	0.1514	0.8832	-0.287
Mof_O 	O 	0.2509	0.1656	0.7745	-0.291
Mof_O 	O 	0.7616	0.3956	0.8605	-0.293
Mof_O 	O 	0.4762	0.3715	0.8396	-0.275
Mof_O 	O 	0.9248	0.6514	0.1168	-0.284
Mof_O 	O 	0.7491	0.6656	0.2255	-0.287
Mof_O 	O 	0.7384	0.8956	0.3605	-0.286
Mof_O 	O 	0.0238	0.8715	0.3396	-0.27
Mof_O 	O 	0.5752	0.1514	0.6168	-0.289
Mof_O 	O 	0.7509	0.1656	0.7255	-0.292
Mof_O 	O 	0.2616	0.3956	0.6395	-0.293
Mof_O 	O 	0.9762	0.3715	0.6604	-0.279
Mof_O 	O 	0.4248	0.6514	0.3832	-0.283
Mof_O 	O 	0.2491	0.6656	0.2745	-0.287
_end
