data_functionalizedCrystal
_audit_creation_method	'EQeq! by Chris Wilmer'
_symmetry_space_group_name_H-M	'P1'
_symmetry_Int_Tables_number	1
_symmetry_cell_setting	triclinic
loop_
_symmetry_equiv_pos_as_xyz
  x,y,z
_cell_length_a	11.709
_cell_length_b	11.796
_cell_length_c	12.19
_cell_angle_alpha	76.13
_cell_angle_beta	88.96
_cell_angle_gamma	73.8
loop_
_atom_site_label
_atom_site_type_symbol
_atom_site_fract_x
_atom_site_fract_y
_atom_site_fract_z
_atom_site_charge
Mof_Na	Na	0.5973	0.0919	0.7698	1.932
Mof_Na	Na	0.5835	0.0796	0.0703	1.588
Mof_Na	Na	0.4027	0.9081	0.2302	1.932
Mof_Na	Na	0.4165	0.9204	0.9297	1.588
Mof_Sn	Sn	0.10538	0.41585	0.91053	0.528
Mof_Sn	Sn	0.91301	0.44607	0.61811	0.522
Mof_Sn	Sn	0.89462	0.58415	0.08947	0.528
Mof_Sn	Sn	0.08699	0.55393	0.38189	0.522
Mof_Te	Te	0.93088	0.64306	0.86285	-0.201
Mof_Te	Te	0.02325	0.27097	0.80477	-0.201
Mof_Te	Te	0.96857	0.37054	0.42414	-0.258
Mof_Te	Te	0.06912	0.35694	0.13715	-0.201
Mof_Te	Te	0.97675	0.72903	0.19523	-0.201
Mof_Te	Te	0.03143	0.62946	0.57586	-0.258
Mof_H 	H 	0.3159	0.4636	0.896	0.036
Mof_H 	H 	0.2514	0.5175	0.7764	0.042
Mof_H 	H 	0.4169	0.3413	0.7815	0.021
Mof_H 	H 	0.2988	0.3277	0.738	0.014
Mof_H 	H 	0.6879	0.5649	0.5729	0.039
Mof_H 	H 	0.7347	0.6153	0.6644	0.056
Mof_H 	H 	0.5989	0.5003	0.737	0.075
Mof_H 	H 	0.7196	0.4535	0.8065	0.068
Mof_H 	H 	0.5773	0.7487	0.7642	-0.211
Mof_H 	H 	0.5454	0.8744	0.6747	-0.29
Mof_H 	H 	0.6788	0.805	0.713	-0.205
Mof_H 	H 	0.8381	0.1107	0.8949	-0.186
Mof_H 	H 	0.8845	0.0071	0.0049	-0.175
Mof_H 	H 	0.8896	0.9754	0.8868	-0.168
Mof_H 	H 	0.6841	0.5364	0.104	0.036
Mof_H 	H 	0.7486	0.4825	0.2236	0.042
Mof_H 	H 	0.5831	0.6587	0.2185	0.021
Mof_H 	H 	0.7012	0.6723	0.262	0.014
Mof_H 	H 	0.3121	0.4351	0.4271	0.039
Mof_H 	H 	0.2653	0.3847	0.3356	0.056
Mof_H 	H 	0.4011	0.4997	0.263	0.075
Mof_H 	H 	0.2804	0.5465	0.1935	0.068
Mof_H 	H 	0.4227	0.2513	0.2358	-0.211
Mof_H 	H 	0.4546	0.1256	0.3253	-0.29
Mof_H 	H 	0.3212	0.195	0.287	-0.205
Mof_H 	H 	0.1619	0.8893	0.1051	-0.186
Mof_H 	H 	0.1155	0.9929	0.9951	-0.175
Mof_H 	H 	0.1104	0.0246	0.1132	-0.168
Mof_C 	C 	0.2696	0.4481	0.8401	-0.252
Mof_C 	C 	0.3395	0.3338	0.803	-0.254
Mof_C 	C 	0.3538	0.2189	0.8959	0.383
Mof_C 	C 	0.7352	0.5423	0.6424	-0.251
Mof_C 	C 	0.6823	0.4613	0.7346	-0.286
Mof_C 	C 	0.6976	0.3364	0.7165	0.429
Mof_C 	C 	0.5987	0.8231	0.7372	0.545
Mof_C 	C 	0.8447	0.0274	0.9317	0.478
Mof_C 	C 	0.7304	0.5519	0.1599	-0.252
Mof_C 	C 	0.6605	0.6662	0.197	-0.254
Mof_C 	C 	0.6462	0.7811	0.1041	0.383
Mof_C 	C 	0.2648	0.4577	0.3576	-0.251
Mof_C 	C 	0.3177	0.5387	0.2654	-0.286
Mof_C 	C 	0.3024	0.6636	0.2835	0.429
Mof_C 	C 	0.4013	0.1769	0.2628	0.545
Mof_C 	C 	0.1553	0.9726	0.0683	0.478
Mof_O 	O 	0.4385	0.1242	0.8939	-0.895
Mof_O 	O 	0.277	0.2199	0.9716	-0.381
Mof_O 	O 	0.7759	0.2997	0.6482	-0.422
Mof_O 	O 	0.6372	0.2727	0.7707	-0.661
Mof_O 	O 	0.5906	0.8833	0.8247	-0.764
Mof_O 	O 	0.7315	0.0112	0.944	-0.695
Mof_O 	O 	0.5615	0.8758	0.1061	-0.895
Mof_O 	O 	0.723	0.7801	0.0284	-0.381
Mof_O 	O 	0.2241	0.7003	0.3518	-0.422
Mof_O 	O 	0.3628	0.7273	0.2293	-0.661
Mof_O 	O 	0.4094	0.1167	0.1753	-0.764
Mof_O 	O 	0.2685	0.9888	0.056	-0.695
_end
