data_functionalizedCrystal
_audit_creation_method	'EQeq! by Chris Wilmer'
_symmetry_space_group_name_H-M	'P1'
_symmetry_Int_Tables_number	1
_symmetry_cell_setting	triclinic
loop_
_symmetry_equiv_pos_as_xyz
  x,y,z
_cell_length_a	10.2394
_cell_length_b	37.7863
_cell_length_c	10.0731
_cell_angle_alpha	90
_cell_angle_beta	97.144
_cell_angle_gamma	90
loop_
_atom_site_label
_atom_site_type_symbol
_atom_site_fract_x
_atom_site_fract_y
_atom_site_fract_z
_atom_site_charge
Mof_Pb	Pb	0.75179	0.53078	0.99423	0.782
Mof_Pb	Pb	0.26797	0.21713	0.52425	0.793
Mof_O 	O 	0.0216	0.40539	0.901	-0.16
Mof_O 	O 	0.8064	0.47924	0.8824	-0.332
Mof_O 	O 	0.0247	0.4779	0.8788	-0.322
Mof_O 	O 	0.1764	0.34192	0.2272	-0.17
Mof_O 	O 	0.1599	0.2692	0.45	-0.337
Mof_O 	O 	0.1625	0.26862	0.228	-0.333
Mof_O 	O 	0.4697	0.41372	0.1126	-0.17
Mof_O 	O 	0.6871	0.487	0.1356	-0.332
Mof_O 	O 	0.4679	0.48605	0.1298	-0.32
Mof_O 	O 	0.3279	0.3361	0.8114	-0.17
Mof_O 	O 	0.4075	0.26033	0.6267	-0.326
Mof_O 	O 	0.4085	0.2676	0.8473	-0.31
Mof_C 	C 	0.0046	0.36864	0.8951	0.029
Mof_C 	C 	0.0383	0.35118	0.7815	0.065
Mof_C 	C 	0.0188	0.31469	0.7721	-0.119
Mof_H 	H 	0.0412	0.3023	0.696	0.077
Mof_C 	C 	0.9675	0.29637	0.8718	0.006
Mof_H 	H 	0.9512	0.2717	0.8624	0.032
Mof_C 	C 	0.9397	0.31384	0.986	-0.11
Mof_H 	H 	0.9082	0.3008	0.056	0.064
Mof_C 	C 	0.9574	0.35031	0.9995	0.058
Mof_C 	C 	0.1578	0.37819	0.2398	0.021
Mof_C 	C 	0.0343	0.39202	0.1927	0.067
Mof_C 	C 	0.0131	0.42803	0.2083	-0.13
Mof_H 	H 	0.9297	0.4379	0.1763	0.079
Mof_C 	C 	0.11	0.44954	0.269	0.02
Mof_H 	H 	0.0931	0.474	0.2807	0.03
Mof_C 	C 	0.2334	0.4356	0.3135	-0.135
Mof_H 	H 	0.3011	0.4508	0.3533	0.074
Mof_C 	C 	0.2593	0.3995	0.3005	0.068
Mof_C 	C 	0.4896	0.37722	0.134	0.018
Mof_C 	C 	0.4593	0.36311	0.254	0.07
Mof_C 	C 	0.4931	0.32816	0.2836	-0.133
Mof_H 	H 	0.4746	0.3181	0.3657	0.079
Mof_C 	C 	0.5529	0.30795	0.1957	0.029
Mof_H 	H 	0.5797	0.2844	0.2186	0.032
Mof_C 	C 	0.5739	0.32197	0.0736	-0.137
Mof_H 	H 	0.6116	0.3074	0.0118	0.078
Mof_C 	C 	0.5418	0.35662	0.0382	0.064
Mof_C 	C 	0.3334	0.37231	0.7837	0.018
Mof_C 	C 	0.4504	0.38989	0.8263	0.074
Mof_C 	C 	0.4617	0.42522	0.7916	-0.139
Mof_H 	H 	0.5415	0.4376	0.8183	0.086
Mof_C 	C 	0.3585	0.4424	0.7193	0.033
Mof_H 	H 	0.3677	0.4664	0.6942	0.027
Mof_C 	C 	0.2418	0.42497	0.6829	-0.135
Mof_H 	H 	0.1706	0.4375	0.6347	0.077
Mof_C 	C 	0.2246	0.3894	0.7146	0.071
Mof_C 	C 	0.927	0.36821	0.1268	-0.198
Mof_H 	H 	0.9089	0.3497	0.1916	0.088
Mof_H 	H 	0.8457	0.3824	0.106	0.08
Mof_C 	C 	0.3946	0.38583	0.3515	-0.204
Mof_H 	H 	0.4525	0.4063	0.3771	0.092
Mof_H 	H 	0.3884	0.3718	0.4335	0.085
Mof_C 	C 	0.5644	0.37042	0.9028	-0.199
Mof_H 	H 	0.6413	0.3865	0.9146	0.082
Mof_H 	H 	0.5876	0.3502	0.8478	0.093
Mof_C 	C 	0.0946	0.37136	0.6732	-0.202
Mof_H 	H 	0.1056	0.3548	0.5993	0.083
Mof_H 	H 	0.0299	0.3895	0.6376	0.091
Mof_C 	C 	0.9	0.42387	0.8689	-0.183
Mof_H 	H 	0.8622	0.4177	0.7765	0.088
Mof_H 	H 	0.8372	0.4159	0.93	0.086
Mof_C 	C 	0.9156	0.46374	0.8798	0.36
Mof_C 	C 	0.1585	0.32384	0.3488	-0.179
Mof_H 	H 	0.2285	0.3313	0.4199	0.084
Mof_H 	H 	0.0729	0.331	0.3766	0.085
Mof_C 	C 	0.1618	0.28365	0.3362	0.363
Mof_C 	C 	0.5919	0.43193	0.1391	-0.184
Mof_H 	H 	0.6345	0.4252	0.2293	0.089
Mof_H 	H 	0.6505	0.4244	0.0733	0.087
Mof_C 	C 	0.5767	0.47146	0.1326	0.363
Mof_C 	C 	0.3394	0.31493	0.6958	-0.187
Mof_H 	H 	0.2522	0.3134	0.6413	0.093
Mof_H 	H 	0.4005	0.3267	0.6409	0.09
Mof_C 	C 	0.3886	0.27818	0.7294	0.361
Mof_Pb	Pb	0.73203	0.71713	0.97575	0.78
Mof_Pb	Pb	0.24821	0.03078	0.50576	0.786
Mof_O 	O 	0.9784	0.90539	0.599	-0.163
Mof_O 	O 	0.1936	0.97924	0.6176	-0.333
Mof_O 	O 	0.9753	0.9779	0.6212	-0.326
Mof_O 	O 	0.8236	0.84192	0.2728	-0.168
Mof_O 	O 	0.8401	0.7692	0.05	-0.33
Mof_O 	O 	0.8375	0.76862	0.272	-0.331
Mof_O 	O 	0.5303	0.91372	0.3874	-0.168
Mof_O 	O 	0.3129	0.987	0.3644	-0.333
Mof_O 	O 	0.5321	0.98605	0.3702	-0.321
Mof_O 	O 	0.6721	0.8361	0.6886	-0.172
Mof_O 	O 	0.5925	0.76033	0.8733	-0.327
Mof_O 	O 	0.5915	0.7676	0.6527	-0.315
Mof_C 	C 	0.9954	0.86864	0.6049	0.02
Mof_C 	C 	0.9617	0.85118	0.7185	0.071
Mof_C 	C 	0.9812	0.81469	0.7279	-0.133
Mof_H 	H 	0.9588	0.8023	0.804	0.079
Mof_C 	C 	0.0325	0.79637	0.6282	0.023
Mof_H 	H 	0.0488	0.7717	0.6376	0.025
Mof_C 	C 	0.0603	0.81384	0.514	-0.132
Mof_H 	H 	0.0918	0.8008	0.444	0.074
Mof_C 	C 	0.0426	0.85031	0.5005	0.065
Mof_C 	C 	0.8422	0.87819	0.2602	0.02
Mof_C 	C 	0.9657	0.89202	0.3073	0.071
Mof_C 	C 	0.9869	0.92803	0.2917	-0.124
Mof_H 	H 	0.0703	0.9379	0.3237	0.076
Mof_C 	C 	0.89	0.94954	0.231	0.018
Mof_H 	H 	0.9069	0.974	0.2193	0.032
Mof_C 	C 	0.7666	0.9356	0.1865	-0.134
Mof_H 	H 	0.6989	0.9508	0.1467	0.074
Mof_C 	C 	0.7407	0.8995	0.1995	0.069
Mof_C 	C 	0.5104	0.87722	0.366	0.013
Mof_C 	C 	0.5407	0.86311	0.246	0.075
Mof_C 	C 	0.5069	0.82816	0.2164	-0.137
Mof_H 	H 	0.5254	0.8181	0.1343	0.082
Mof_C 	C 	0.4471	0.80795	0.3043	0.035
Mof_H 	H 	0.4203	0.7844	0.2814	0.031
Mof_C 	C 	0.4261	0.82197	0.4264	-0.144
Mof_H 	H 	0.3884	0.8074	0.4882	0.082
Mof_C 	C 	0.4582	0.85662	0.4618	0.074
Mof_C 	C 	0.6666	0.87231	0.7163	0.015
Mof_C 	C 	0.5496	0.88989	0.6737	0.077
Mof_C 	C 	0.5383	0.92522	0.7084	-0.142
Mof_H 	H 	0.4585	0.9376	0.6817	0.086
Mof_C 	C 	0.6415	0.9424	0.7807	0.034
Mof_H 	H 	0.6323	0.9664	0.8058	0.026
Mof_C 	C 	0.7582	0.92497	0.8171	-0.137
Mof_H 	H 	0.8294	0.9375	0.8653	0.077
Mof_C 	C 	0.7754	0.8894	0.7854	0.071
Mof_C 	C 	0.073	0.86821	0.3732	-0.203
Mof_H 	H 	0.0911	0.8497	0.3084	0.089
Mof_H 	H 	0.1543	0.8824	0.394	0.082
Mof_C 	C 	0.6054	0.88583	0.1485	-0.208
Mof_H 	H 	0.5475	0.9063	0.1229	0.094
Mof_H 	H 	0.6116	0.8718	0.0665	0.088
Mof_C 	C 	0.4356	0.87042	0.5972	-0.211
Mof_H 	H 	0.3587	0.8865	0.5854	0.084
Mof_H 	H 	0.4124	0.8502	0.6522	0.095
Mof_C 	C 	0.9054	0.87136	0.8268	-0.204
Mof_H 	H 	0.8944	0.8548	0.9007	0.081
Mof_H 	H 	0.9701	0.8895	0.8624	0.09
Mof_C 	C 	0.1	0.92387	0.6311	-0.18
Mof_H 	H 	0.1378	0.9177	0.7235	0.088
Mof_H 	H 	0.1628	0.9159	0.57	0.084
Mof_C 	C 	0.0844	0.96374	0.6202	0.363
Mof_C 	C 	0.8415	0.82384	0.1512	-0.18
Mof_H 	H 	0.7715	0.8313	0.0801	0.087
Mof_H 	H 	0.9271	0.831	0.1234	0.088
Mof_C 	C 	0.8382	0.78365	0.1638	0.363
Mof_C 	C 	0.4081	0.93193	0.3609	-0.185
Mof_H 	H 	0.3655	0.9252	0.2707	0.09
Mof_H 	H 	0.3495	0.9244	0.4267	0.088
Mof_C 	C 	0.4233	0.97146	0.3674	0.364
Mof_C 	C 	0.6606	0.81493	0.8042	-0.186
Mof_H 	H 	0.7478	0.8134	0.8587	0.091
Mof_H 	H 	0.5995	0.8267	0.8591	0.088
Mof_C 	C 	0.6114	0.77818	0.7706	0.36
Mof_O 	O 	0.9784	0.59461	0.099	-0.16
Mof_O 	O 	0.1936	0.52076	0.1176	-0.332
Mof_O 	O 	0.9753	0.5221	0.1212	-0.322
Mof_O 	O 	0.8236	0.65808	0.7728	-0.17
Mof_O 	O 	0.8401	0.7308	0.55	-0.337
Mof_O 	O 	0.8375	0.73138	0.772	-0.333
Mof_O 	O 	0.5303	0.58628	0.8874	-0.17
Mof_O 	O 	0.3129	0.513	0.8644	-0.332
Mof_O 	O 	0.5321	0.51395	0.8702	-0.32
Mof_O 	O 	0.6721	0.6639	0.1886	-0.17
Mof_O 	O 	0.5925	0.73967	0.3733	-0.326
Mof_O 	O 	0.5915	0.7324	0.1527	-0.31
Mof_C 	C 	0.9954	0.63136	0.1049	0.029
Mof_C 	C 	0.9617	0.64882	0.2185	0.065
Mof_C 	C 	0.9812	0.68531	0.2279	-0.119
Mof_H 	H 	0.9588	0.6977	0.304	0.077
Mof_C 	C 	0.0325	0.70363	0.1282	0.006
Mof_H 	H 	0.0488	0.7283	0.1376	0.032
Mof_C 	C 	0.0603	0.68616	0.014	-0.11
Mof_H 	H 	0.0918	0.6992	0.944	0.064
Mof_C 	C 	0.0426	0.64969	0.0005	0.058
Mof_C 	C 	0.8422	0.62181	0.7602	0.021
Mof_C 	C 	0.9657	0.60798	0.8073	0.067
Mof_C 	C 	0.9869	0.57197	0.7917	-0.13
Mof_H 	H 	0.0703	0.5621	0.8237	0.079
Mof_C 	C 	0.89	0.55046	0.731	0.02
Mof_H 	H 	0.9069	0.526	0.7193	0.03
Mof_C 	C 	0.7666	0.5644	0.6865	-0.135
Mof_H 	H 	0.6989	0.5492	0.6467	0.074
Mof_C 	C 	0.7407	0.6005	0.6995	0.068
Mof_C 	C 	0.5104	0.62278	0.866	0.018
Mof_C 	C 	0.5407	0.63689	0.746	0.07
Mof_C 	C 	0.5069	0.67184	0.7164	-0.133
Mof_H 	H 	0.5254	0.6819	0.6343	0.079
Mof_C 	C 	0.4471	0.69205	0.8043	0.029
Mof_H 	H 	0.4203	0.7156	0.7814	0.032
Mof_C 	C 	0.4261	0.67803	0.9264	-0.137
Mof_H 	H 	0.3884	0.6926	0.9882	0.078
Mof_C 	C 	0.4582	0.64338	0.9618	0.064
Mof_C 	C 	0.6666	0.62769	0.2163	0.018
Mof_C 	C 	0.5496	0.61011	0.1737	0.074
Mof_C 	C 	0.5383	0.57478	0.2084	-0.139
Mof_H 	H 	0.4585	0.5624	0.1817	0.086
Mof_C 	C 	0.6415	0.5576	0.2807	0.033
Mof_H 	H 	0.6323	0.5336	0.3058	0.027
Mof_C 	C 	0.7582	0.57503	0.3171	-0.135
Mof_H 	H 	0.8294	0.5625	0.3653	0.077
Mof_C 	C 	0.7754	0.6106	0.2854	0.071
Mof_C 	C 	0.073	0.63179	0.8732	-0.198
Mof_H 	H 	0.0911	0.6503	0.8084	0.088
Mof_H 	H 	0.1543	0.6176	0.894	0.08
Mof_C 	C 	0.6054	0.61417	0.6485	-0.204
Mof_H 	H 	0.5475	0.5937	0.6229	0.092
Mof_H 	H 	0.6116	0.6282	0.5665	0.085
Mof_C 	C 	0.4356	0.62958	0.0972	-0.199
Mof_H 	H 	0.3587	0.6135	0.0854	0.082
Mof_H 	H 	0.4124	0.6498	0.1522	0.093
Mof_C 	C 	0.9054	0.62864	0.3268	-0.202
Mof_H 	H 	0.8944	0.6452	0.4007	0.083
Mof_H 	H 	0.9701	0.6105	0.3624	0.091
Mof_C 	C 	0.1	0.57613	0.1311	-0.183
Mof_H 	H 	0.1378	0.5823	0.2235	0.088
Mof_H 	H 	0.1628	0.5841	0.07	0.086
Mof_C 	C 	0.0844	0.53626	0.1202	0.36
Mof_C 	C 	0.8415	0.67616	0.6512	-0.179
Mof_H 	H 	0.7715	0.6687	0.5801	0.084
Mof_H 	H 	0.9271	0.669	0.6234	0.085
Mof_C 	C 	0.8382	0.71635	0.6638	0.363
Mof_C 	C 	0.4081	0.56807	0.8609	-0.184
Mof_H 	H 	0.3655	0.5748	0.7707	0.089
Mof_H 	H 	0.3495	0.5756	0.9267	0.087
Mof_C 	C 	0.4233	0.52854	0.8674	0.363
Mof_C 	C 	0.6606	0.68507	0.3042	-0.187
Mof_H 	H 	0.7478	0.6866	0.3587	0.093
Mof_H 	H 	0.5995	0.6733	0.3591	0.09
Mof_C 	C 	0.6114	0.72182	0.2706	0.361
Mof_Pb	Pb	0.24821	0.46922	0.00577	0.783
Mof_Pb	Pb	0.73203	0.78287	0.47575	0.794
Mof_O 	O 	0.0216	0.09461	0.401	-0.163
Mof_O 	O 	0.8064	0.02076	0.3824	-0.333
Mof_O 	O 	0.0247	0.0221	0.3788	-0.326
Mof_O 	O 	0.1764	0.15808	0.7272	-0.168
Mof_O 	O 	0.1599	0.2308	0.95	-0.33
Mof_O 	O 	0.1625	0.23138	0.728	-0.331
Mof_O 	O 	0.4697	0.08628	0.6126	-0.168
Mof_O 	O 	0.6871	0.013	0.6356	-0.333
Mof_O 	O 	0.4679	0.01395	0.6298	-0.321
Mof_O 	O 	0.3279	0.1639	0.3114	-0.172
Mof_O 	O 	0.4075	0.23967	0.1267	-0.327
Mof_O 	O 	0.4085	0.2324	0.3473	-0.315
Mof_C 	C 	0.0046	0.13136	0.3951	0.02
Mof_C 	C 	0.0383	0.14882	0.2815	0.071
Mof_C 	C 	0.0188	0.18531	0.2721	-0.133
Mof_H 	H 	0.0412	0.1977	0.196	0.079
Mof_C 	C 	0.9675	0.20363	0.3718	0.023
Mof_H 	H 	0.9512	0.2283	0.3624	0.025
Mof_C 	C 	0.9397	0.18616	0.486	-0.132
Mof_H 	H 	0.9082	0.1992	0.556	0.074
Mof_C 	C 	0.9574	0.14969	0.4995	0.065
Mof_C 	C 	0.1578	0.12181	0.7398	0.02
Mof_C 	C 	0.0343	0.10798	0.6927	0.071
Mof_C 	C 	0.0131	0.07197	0.7083	-0.124
Mof_H 	H 	0.9297	0.0621	0.6763	0.076
Mof_C 	C 	0.11	0.05046	0.769	0.018
Mof_H 	H 	0.0931	0.026	0.7807	0.032
Mof_C 	C 	0.2334	0.0644	0.8135	-0.134
Mof_H 	H 	0.3011	0.0492	0.8533	0.074
Mof_C 	C 	0.2593	0.1005	0.8005	0.069
Mof_C 	C 	0.4896	0.12278	0.634	0.013
Mof_C 	C 	0.4593	0.13689	0.754	0.075
Mof_C 	C 	0.4931	0.17184	0.7836	-0.137
Mof_H 	H 	0.4746	0.1819	0.8657	0.082
Mof_C 	C 	0.5529	0.19205	0.6957	0.035
Mof_H 	H 	0.5797	0.2156	0.7186	0.031
Mof_C 	C 	0.5739	0.17803	0.5736	-0.144
Mof_H 	H 	0.6116	0.1926	0.5118	0.082
Mof_C 	C 	0.5418	0.14338	0.5382	0.074
Mof_C 	C 	0.3334	0.12769	0.2837	0.015
Mof_C 	C 	0.4504	0.11011	0.3263	0.077
Mof_C 	C 	0.4617	0.07478	0.2916	-0.142
Mof_H 	H 	0.5415	0.0624	0.3183	0.086
Mof_C 	C 	0.3585	0.0576	0.2193	0.034
Mof_H 	H 	0.3677	0.0336	0.1942	0.026
Mof_C 	C 	0.2418	0.07503	0.1829	-0.137
Mof_H 	H 	0.1706	0.0625	0.1347	0.077
Mof_C 	C 	0.2246	0.1106	0.2146	0.071
Mof_C 	C 	0.927	0.13179	0.6268	-0.203
Mof_H 	H 	0.9089	0.1503	0.6916	0.089
Mof_H 	H 	0.8457	0.1176	0.606	0.082
Mof_C 	C 	0.3946	0.11417	0.8515	-0.208
Mof_H 	H 	0.4525	0.0937	0.8771	0.094
Mof_H 	H 	0.3884	0.1282	0.9335	0.088
Mof_C 	C 	0.5644	0.12958	0.4028	-0.211
Mof_H 	H 	0.6413	0.1135	0.4146	0.084
Mof_H 	H 	0.5876	0.1498	0.3478	0.095
Mof_C 	C 	0.0946	0.12864	0.1732	-0.204
Mof_H 	H 	0.1056	0.1452	0.0993	0.081
Mof_H 	H 	0.0299	0.1105	0.1376	0.09
Mof_C 	C 	0.9	0.07613	0.3689	-0.18
Mof_H 	H 	0.8622	0.0823	0.2765	0.088
Mof_H 	H 	0.8372	0.0841	0.43	0.084
Mof_C 	C 	0.9156	0.03626	0.3798	0.363
Mof_C 	C 	0.1585	0.17616	0.8488	-0.18
Mof_H 	H 	0.2285	0.1687	0.9199	0.087
Mof_H 	H 	0.0729	0.169	0.8766	0.088
Mof_C 	C 	0.1618	0.21635	0.8362	0.363
Mof_C 	C 	0.5919	0.06807	0.6391	-0.185
Mof_H 	H 	0.6345	0.0748	0.7293	0.09
Mof_H 	H 	0.6505	0.0756	0.5733	0.088
Mof_C 	C 	0.5767	0.02854	0.6326	0.364
Mof_C 	C 	0.3394	0.18507	0.1958	-0.186
Mof_H 	H 	0.2522	0.1866	0.1413	0.091
Mof_H 	H 	0.4005	0.1733	0.1409	0.088
Mof_C 	C 	0.3886	0.22182	0.2294	0.36
Mof_Pb	Pb	0.26797	0.28287	0.02425	0.78
Mof_Pb	Pb	0.75179	0.96922	0.49424	0.786
_end
