data_functionalizedCrystal
_audit_creation_method	'EQeq! by Chris Wilmer'
_symmetry_space_group_name_H-M	'P1'
_symmetry_Int_Tables_number	1
_symmetry_cell_setting	triclinic
loop_
_symmetry_equiv_pos_as_xyz
  x,y,z
_cell_length_a	19.676
_cell_length_b	19.676
_cell_length_c	19.3
_cell_angle_alpha	90
_cell_angle_beta	90
_cell_angle_gamma	120
loop_
_atom_site_label
_atom_site_type_symbol
_atom_site_fract_x
_atom_site_fract_y
_atom_site_fract_z
_atom_site_charge
Mof_Cd	Cd	0.11008	0.12701	0.58647	0.469
Mof_N 	N 	0.20281	0.17458	0.67679	-0.132
Mof_N 	N 	0.3116	0.26615	0.75247	-0.115
Mof_O 	O 	0.10011	0.0143	0.636	-0.289
Mof_O 	O 	0.13961	0.93082	0.65998	-0.25
Mof_O 	O 	0.4003	0.26078	0.8808	-0.251
Mof_O 	O 	0.47875	0.2272	0.82871	-0.292
Mof_S 	S 	0.24743	0.26554	0.70089	0.14
Mof_C 	C 	0.1482	0.9974	0.6648	0.316
Mof_C 	C 	0.216	0.0589	0.70618	-0.084
Mof_C 	C 	0.2601	0.0365	0.7445	-0.006
Mof_H 	H 	0.2472	0.9842	0.7436	0.062
Mof_C 	C 	0.3248	0.09	0.7858	-0.018
Mof_H 	H 	0.3539	0.0721	0.8097	0.072
Mof_C 	C 	0.3452	0.1669	0.79102	-0.076
Mof_C 	C 	0.3003	0.1927	0.75348	0.073
Mof_C 	C 	0.23661	0.13901	0.71028	0.076
Mof_C 	C 	0.41227	0.22252	0.83619	0.321
Mof_Cd	Cd	0.77675	0.46034	0.9198	0.47
Mof_N 	N 	0.86948	0.50791	0.01012	-0.132
Mof_N 	N 	0.97827	0.59948	0.0858	-0.115
Mof_O 	O 	0.76678	0.34763	0.96933	-0.289
Mof_O 	O 	0.80628	0.26415	0.99331	-0.25
Mof_O 	O 	0.06697	0.59411	0.21413	-0.251
Mof_O 	O 	0.14542	0.56053	0.16204	-0.291
Mof_S 	S 	0.9141	0.59887	0.03422	0.14
Mof_C 	C 	0.81487	0.33073	0.99813	0.317
Mof_C 	C 	0.88267	0.39223	0.03951	-0.088
Mof_C 	C 	0.92677	0.36983	0.07783	-0.005
Mof_H 	H 	0.91387	0.31753	0.07693	0.061
Mof_C 	C 	0.99147	0.42333	0.11913	-0.023
Mof_H 	H 	0.02057	0.40543	0.14303	0.073
Mof_C 	C 	0.01187	0.50023	0.12435	-0.074
Mof_C 	C 	0.96697	0.52603	0.08681	0.07
Mof_C 	C 	0.90328	0.47234	0.04361	0.076
Mof_C 	C 	0.07894	0.55585	0.16952	0.319
Mof_Cd	Cd	0.44341	0.79368	0.25314	0.468
Mof_N 	N 	0.53614	0.84125	0.34346	-0.133
Mof_N 	N 	0.64493	0.93282	0.41914	-0.116
Mof_O 	O 	0.43344	0.68097	0.30267	-0.29
Mof_O 	O 	0.47294	0.59749	0.32665	-0.251
Mof_O 	O 	0.73363	0.92745	0.54747	-0.253
Mof_O 	O 	0.81208	0.89387	0.49538	-0.293
Mof_S 	S 	0.58076	0.93221	0.36756	0.139
Mof_C 	C 	0.48153	0.66407	0.33147	0.316
Mof_C 	C 	0.54933	0.72557	0.37285	-0.085
Mof_C 	C 	0.59343	0.70317	0.41117	-0.008
Mof_H 	H 	0.58053	0.65087	0.41027	0.062
Mof_C 	C 	0.65813	0.75667	0.45247	-0.018
Mof_H 	H 	0.68723	0.73877	0.47637	0.071
Mof_C 	C 	0.67853	0.83357	0.45769	-0.078
Mof_C 	C 	0.63363	0.85937	0.42015	0.072
Mof_C 	C 	0.56994	0.80568	0.37695	0.075
Mof_C 	C 	0.7456	0.88919	0.50286	0.32
Mof_Cd	Cd	0.87299	0.98307	0.58647	0.468
Mof_N 	N 	0.82542	0.02823	0.67679	-0.133
Mof_N 	N 	0.73385	0.04545	0.75247	-0.116
Mof_O 	O 	0.9857	0.08581	0.636	-0.289
Mof_O 	O 	0.06918	0.20879	0.65998	-0.251
Mof_O 	O 	0.73922	0.13952	0.8808	-0.252
Mof_O 	O 	0.7728	0.25155	0.82871	-0.293
Mof_S 	S 	0.73446	0.98189	0.70089	0.139
Mof_C 	C 	0.0026	0.1508	0.6648	0.315
Mof_C 	C 	0.9411	0.1571	0.70618	-0.085
Mof_C 	C 	0.9635	0.2236	0.7445	-0.007
Mof_H 	H 	0.0158	0.263	0.7436	0.061
Mof_C 	C 	0.91	0.2348	0.7858	-0.019
Mof_H 	H 	0.9279	0.2818	0.8097	0.071
Mof_C 	C 	0.8331	0.1783	0.79102	-0.077
Mof_C 	C 	0.8073	0.1076	0.75348	0.072
Mof_C 	C 	0.86099	0.0976	0.71028	0.075
Mof_C 	C 	0.77748	0.18975	0.83619	0.32
Mof_Cd	Cd	0.53966	0.3164	0.9198	0.469
Mof_N 	N 	0.49209	0.36156	0.01012	-0.133
Mof_N 	N 	0.40052	0.37878	0.0858	-0.116
Mof_O 	O 	0.65237	0.41914	0.96933	-0.29
Mof_O 	O 	0.73585	0.54212	0.99331	-0.251
Mof_O 	O 	0.40589	0.47285	0.21413	-0.253
Mof_O 	O 	0.43947	0.58488	0.16204	-0.293
Mof_S 	S 	0.40113	0.31522	0.03422	0.139
Mof_C 	C 	0.66927	0.48413	0.99813	0.316
Mof_C 	C 	0.60777	0.49043	0.03951	-0.086
Mof_C 	C 	0.63017	0.55693	0.07783	-0.008
Mof_H 	H 	0.68247	0.59633	0.07693	0.062
Mof_C 	C 	0.57667	0.56813	0.11913	-0.018
Mof_H 	H 	0.59457	0.61513	0.14303	0.071
Mof_C 	C 	0.49977	0.51163	0.12435	-0.078
Mof_C 	C 	0.47397	0.44093	0.08681	0.072
Mof_C 	C 	0.52766	0.43093	0.04361	0.075
Mof_C 	C 	0.44415	0.52308	0.16952	0.32
Mof_Cd	Cd	0.20632	0.64974	0.25314	0.468
Mof_N 	N 	0.15875	0.6949	0.34346	-0.133
Mof_N 	N 	0.06718	0.71212	0.41914	-0.116
Mof_O 	O 	0.31903	0.75248	0.30267	-0.29
Mof_O 	O 	0.40251	0.87546	0.32665	-0.251
Mof_O 	O 	0.07255	0.80619	0.54747	-0.253
Mof_O 	O 	0.10613	0.91822	0.49538	-0.293
Mof_S 	S 	0.06779	0.64856	0.36756	0.139
Mof_C 	C 	0.33593	0.81747	0.33147	0.316
Mof_C 	C 	0.27443	0.82377	0.37285	-0.085
Mof_C 	C 	0.29683	0.89027	0.41117	-0.008
Mof_H 	H 	0.34913	0.92967	0.41027	0.062
Mof_C 	C 	0.24333	0.90147	0.45247	-0.018
Mof_H 	H 	0.26123	0.94847	0.47637	0.071
Mof_C 	C 	0.16643	0.84497	0.45769	-0.078
Mof_C 	C 	0.14063	0.77427	0.42015	0.072
Mof_C 	C 	0.19432	0.76427	0.37695	0.075
Mof_C 	C 	0.11081	0.85642	0.50286	0.32
Mof_Cd	Cd	0.01693	0.88992	0.58647	0.468
Mof_N 	N 	0.97177	0.79719	0.67679	-0.133
Mof_N 	N 	0.95455	0.6884	0.75247	-0.116
Mof_O 	O 	0.91419	0.89989	0.636	-0.29
Mof_O 	O 	0.79121	0.86039	0.65998	-0.251
Mof_O 	O 	0.86048	0.5997	0.8808	-0.252
Mof_O 	O 	0.74845	0.52125	0.82871	-0.293
Mof_S 	S 	0.01811	0.75257	0.70089	0.139
Mof_C 	C 	0.8492	0.8518	0.6648	0.316
Mof_C 	C 	0.8429	0.784	0.70618	-0.085
Mof_C 	C 	0.7764	0.7399	0.7445	-0.008
Mof_H 	H 	0.737	0.7528	0.7436	0.062
Mof_C 	C 	0.7652	0.6752	0.7858	-0.018
Mof_H 	H 	0.7182	0.6461	0.8097	0.071
Mof_C 	C 	0.8217	0.6548	0.79102	-0.078
Mof_C 	C 	0.8924	0.6997	0.75348	0.072
Mof_C 	C 	0.9024	0.76339	0.71028	0.075
Mof_C 	C 	0.81025	0.58773	0.83619	0.32
Mof_Cd	Cd	0.6836	0.22325	0.9198	0.469
Mof_N 	N 	0.63844	0.13052	0.01012	-0.133
Mof_N 	N 	0.62122	0.02173	0.0858	-0.116
Mof_O 	O 	0.58086	0.23322	0.96933	-0.29
Mof_O 	O 	0.45788	0.19372	0.99331	-0.251
Mof_O 	O 	0.52715	0.93303	0.21413	-0.252
Mof_O 	O 	0.41512	0.85458	0.16204	-0.292
Mof_S 	S 	0.68478	0.0859	0.03422	0.138
Mof_C 	C 	0.51587	0.18513	0.99813	0.317
Mof_C 	C 	0.50957	0.11733	0.03951	-0.088
Mof_C 	C 	0.44307	0.07323	0.07783	-0.005
Mof_H 	H 	0.40367	0.08613	0.07693	0.061
Mof_C 	C 	0.43187	0.00853	0.11913	-0.023
Mof_H 	H 	0.38487	0.97943	0.14303	0.073
Mof_C 	C 	0.48837	0.98813	0.12435	-0.074
Mof_C 	C 	0.55907	0.03303	0.08681	0.07
Mof_C 	C 	0.56907	0.09672	0.04361	0.076
Mof_C 	C 	0.47692	0.92106	0.16952	0.319
Mof_Cd	Cd	0.35026	0.55659	0.25314	0.468
Mof_N 	N 	0.3051	0.46386	0.34346	-0.133
Mof_N 	N 	0.28788	0.35507	0.41914	-0.116
Mof_O 	O 	0.24752	0.56656	0.30267	-0.29
Mof_O 	O 	0.12454	0.52706	0.32665	-0.251
Mof_O 	O 	0.19381	0.26637	0.54747	-0.253
Mof_O 	O 	0.08178	0.18792	0.49538	-0.293
Mof_S 	S 	0.35144	0.41924	0.36756	0.139
Mof_C 	C 	0.18253	0.51847	0.33147	0.316
Mof_C 	C 	0.17623	0.45067	0.37285	-0.085
Mof_C 	C 	0.10973	0.40657	0.41117	-0.008
Mof_H 	H 	0.07033	0.41947	0.41027	0.062
Mof_C 	C 	0.09853	0.34187	0.45247	-0.018
Mof_H 	H 	0.05153	0.31277	0.47637	0.071
Mof_C 	C 	0.15503	0.32147	0.45769	-0.078
Mof_C 	C 	0.22573	0.36637	0.42015	0.072
Mof_C 	C 	0.23573	0.43006	0.37695	0.075
Mof_C 	C 	0.14358	0.2544	0.50286	0.32
Mof_Cd	Cd	0.88992	0.87299	0.41353	0.468
Mof_N 	N 	0.79719	0.82542	0.32321	-0.133
Mof_N 	N 	0.6884	0.73385	0.24753	-0.116
Mof_O 	O 	0.89989	0.9857	0.364	-0.29
Mof_O 	O 	0.86039	0.06918	0.34002	-0.251
Mof_O 	O 	0.5997	0.73922	0.1192	-0.252
Mof_O 	O 	0.52125	0.7728	0.17129	-0.293
Mof_S 	S 	0.75257	0.73446	0.29911	0.139
Mof_C 	C 	0.8518	0.0026	0.3352	0.315
Mof_C 	C 	0.784	0.9411	0.29382	-0.085
Mof_C 	C 	0.7399	0.9635	0.2555	-0.007
Mof_H 	H 	0.7528	0.0158	0.2564	0.061
Mof_C 	C 	0.6752	0.91	0.2142	-0.019
Mof_H 	H 	0.6461	0.9279	0.1903	0.071
Mof_C 	C 	0.6548	0.8331	0.20898	-0.077
Mof_C 	C 	0.6997	0.8073	0.24652	0.072
Mof_C 	C 	0.76339	0.86099	0.28972	0.075
Mof_C 	C 	0.58773	0.77748	0.16381	0.32
Mof_Cd	Cd	0.55659	0.20632	0.74686	0.468
Mof_N 	N 	0.46386	0.15875	0.65654	-0.133
Mof_N 	N 	0.35507	0.06718	0.58086	-0.116
Mof_O 	O 	0.56656	0.31903	0.69733	-0.29
Mof_O 	O 	0.52706	0.40251	0.67335	-0.251
Mof_O 	O 	0.26637	0.07255	0.45253	-0.253
Mof_O 	O 	0.18792	0.10613	0.50462	-0.293
Mof_S 	S 	0.41924	0.06779	0.63244	0.139
Mof_C 	C 	0.51847	0.33593	0.66853	0.316
Mof_C 	C 	0.45067	0.27443	0.62715	-0.085
Mof_C 	C 	0.40657	0.29683	0.58883	-0.008
Mof_H 	H 	0.41947	0.34913	0.58973	0.062
Mof_C 	C 	0.34187	0.24333	0.54753	-0.018
Mof_H 	H 	0.31277	0.26123	0.52363	0.071
Mof_C 	C 	0.32147	0.16643	0.54231	-0.078
Mof_C 	C 	0.36637	0.14063	0.57985	0.072
Mof_C 	C 	0.43006	0.19432	0.62305	0.075
Mof_C 	C 	0.2544	0.11081	0.49714	0.32
Mof_Cd	Cd	0.22325	0.53966	0.0802	0.469
Mof_N 	N 	0.13052	0.49209	0.98988	-0.133
Mof_N 	N 	0.02173	0.40052	0.9142	-0.116
Mof_O 	O 	0.23322	0.65237	0.03067	-0.29
Mof_O 	O 	0.19372	0.73585	0.00669	-0.251
Mof_O 	O 	0.93303	0.40589	0.78587	-0.252
Mof_O 	O 	0.85458	0.43947	0.83796	-0.292
Mof_S 	S 	0.0859	0.40113	0.96578	0.139
Mof_C 	C 	0.18513	0.66927	0.00187	0.317
Mof_C 	C 	0.11733	0.60777	0.96049	-0.088
Mof_C 	C 	0.07323	0.63017	0.92217	-0.005
Mof_H 	H 	0.08613	0.68247	0.92307	0.061
Mof_C 	C 	0.00853	0.57667	0.88087	-0.023
Mof_H 	H 	0.97943	0.59457	0.85697	0.073
Mof_C 	C 	0.98813	0.49977	0.87565	-0.074
Mof_C 	C 	0.03303	0.47397	0.91319	0.07
Mof_C 	C 	0.09672	0.52766	0.95639	0.076
Mof_C 	C 	0.92106	0.44415	0.83048	0.319
Mof_Cd	Cd	0.12701	0.01693	0.41353	0.468
Mof_N 	N 	0.17458	0.97177	0.32321	-0.133
Mof_N 	N 	0.26615	0.95455	0.24753	-0.116
Mof_O 	O 	0.0143	0.91419	0.364	-0.289
Mof_O 	O 	0.93082	0.79121	0.34002	-0.251
Mof_O 	O 	0.26078	0.86048	0.1192	-0.252
Mof_O 	O 	0.2272	0.74845	0.17129	-0.293
Mof_S 	S 	0.26554	0.01811	0.29911	0.139
Mof_C 	C 	0.9974	0.8492	0.3352	0.315
Mof_C 	C 	0.0589	0.8429	0.29382	-0.085
Mof_C 	C 	0.0365	0.7764	0.2555	-0.007
Mof_H 	H 	0.9842	0.737	0.2564	0.061
Mof_C 	C 	0.09	0.7652	0.2142	-0.019
Mof_H 	H 	0.0721	0.7182	0.1903	0.071
Mof_C 	C 	0.1669	0.8217	0.20898	-0.077
Mof_C 	C 	0.1927	0.8924	0.24652	0.072
Mof_C 	C 	0.13901	0.9024	0.28972	0.075
Mof_C 	C 	0.22252	0.81025	0.16381	0.32
Mof_Cd	Cd	0.79368	0.35026	0.74686	0.468
Mof_N 	N 	0.84125	0.3051	0.65654	-0.133
Mof_N 	N 	0.93282	0.28788	0.58086	-0.116
Mof_O 	O 	0.68097	0.24752	0.69733	-0.29
Mof_O 	O 	0.59749	0.12454	0.67335	-0.251
Mof_O 	O 	0.92745	0.19381	0.45253	-0.253
Mof_O 	O 	0.89387	0.08178	0.50462	-0.293
Mof_S 	S 	0.93221	0.35144	0.63244	0.139
Mof_C 	C 	0.66407	0.18253	0.66853	0.316
Mof_C 	C 	0.72557	0.17623	0.62715	-0.085
Mof_C 	C 	0.70317	0.10973	0.58883	-0.008
Mof_H 	H 	0.65087	0.07033	0.58973	0.062
Mof_C 	C 	0.75667	0.09853	0.54753	-0.018
Mof_H 	H 	0.73877	0.05153	0.52363	0.071
Mof_C 	C 	0.83357	0.15503	0.54231	-0.078
Mof_C 	C 	0.85937	0.22573	0.57985	0.072
Mof_C 	C 	0.80568	0.23573	0.62305	0.075
Mof_C 	C 	0.88919	0.14358	0.49714	0.32
Mof_Cd	Cd	0.46034	0.6836	0.0802	0.469
Mof_N 	N 	0.50791	0.63844	0.98988	-0.133
Mof_N 	N 	0.59948	0.62122	0.9142	-0.116
Mof_O 	O 	0.34763	0.58086	0.03067	-0.29
Mof_O 	O 	0.26415	0.45788	0.00669	-0.251
Mof_O 	O 	0.59411	0.52715	0.78587	-0.253
Mof_O 	O 	0.56053	0.41512	0.83796	-0.293
Mof_S 	S 	0.59887	0.68478	0.96578	0.139
Mof_C 	C 	0.33073	0.51587	0.00187	0.316
Mof_C 	C 	0.39223	0.50957	0.96049	-0.086
Mof_C 	C 	0.36983	0.44307	0.92217	-0.008
Mof_H 	H 	0.31753	0.40367	0.92307	0.062
Mof_C 	C 	0.42333	0.43187	0.88087	-0.018
Mof_H 	H 	0.40543	0.38487	0.85697	0.071
Mof_C 	C 	0.50023	0.48837	0.87565	-0.078
Mof_C 	C 	0.52603	0.55907	0.91319	0.072
Mof_C 	C 	0.47234	0.56907	0.95639	0.075
Mof_C 	C 	0.55585	0.47692	0.83048	0.32
Mof_Cd	Cd	0.98307	0.11008	0.41353	0.468
Mof_N 	N 	0.02823	0.20281	0.32321	-0.133
Mof_N 	N 	0.04545	0.3116	0.24753	-0.116
Mof_O 	O 	0.08581	0.10011	0.364	-0.29
Mof_O 	O 	0.20879	0.13961	0.34002	-0.251
Mof_O 	O 	0.13952	0.4003	0.1192	-0.252
Mof_O 	O 	0.25155	0.47875	0.17129	-0.293
Mof_S 	S 	0.98189	0.24743	0.29911	0.139
Mof_C 	C 	0.1508	0.1482	0.3352	0.316
Mof_C 	C 	0.1571	0.216	0.29382	-0.085
Mof_C 	C 	0.2236	0.2601	0.2555	-0.008
Mof_H 	H 	0.263	0.2472	0.2564	0.062
Mof_C 	C 	0.2348	0.3248	0.2142	-0.018
Mof_H 	H 	0.2818	0.3539	0.1903	0.071
Mof_C 	C 	0.1783	0.3452	0.20898	-0.078
Mof_C 	C 	0.1076	0.3003	0.24652	0.072
Mof_C 	C 	0.0976	0.23661	0.28972	0.075
Mof_C 	C 	0.18975	0.41227	0.16381	0.32
Mof_Cd	Cd	0.64974	0.44341	0.74686	0.468
Mof_N 	N 	0.6949	0.53614	0.65654	-0.133
Mof_N 	N 	0.71212	0.64493	0.58086	-0.116
Mof_O 	O 	0.75248	0.43344	0.69733	-0.29
Mof_O 	O 	0.87546	0.47294	0.67335	-0.251
Mof_O 	O 	0.80619	0.73363	0.45253	-0.253
Mof_O 	O 	0.91822	0.81208	0.50462	-0.293
Mof_S 	S 	0.64856	0.58076	0.63244	0.139
Mof_C 	C 	0.81747	0.48153	0.66853	0.316
Mof_C 	C 	0.82377	0.54933	0.62715	-0.085
Mof_C 	C 	0.89027	0.59343	0.58883	-0.008
Mof_H 	H 	0.92967	0.58053	0.58973	0.062
Mof_C 	C 	0.90147	0.65813	0.54753	-0.018
Mof_H 	H 	0.94847	0.68723	0.52363	0.071
Mof_C 	C 	0.84497	0.67853	0.54231	-0.078
Mof_C 	C 	0.77427	0.63363	0.57985	0.072
Mof_C 	C 	0.76427	0.56994	0.62305	0.075
Mof_C 	C 	0.85642	0.7456	0.49714	0.32
Mof_Cd	Cd	0.3164	0.77675	0.0802	0.469
Mof_N 	N 	0.36156	0.86948	0.98988	-0.133
Mof_N 	N 	0.37878	0.97827	0.9142	-0.116
Mof_O 	O 	0.41914	0.76678	0.03067	-0.29
Mof_O 	O 	0.54212	0.80628	0.00669	-0.251
Mof_O 	O 	0.47285	0.06697	0.78587	-0.252
Mof_O 	O 	0.58488	0.14542	0.83796	-0.292
Mof_S 	S 	0.31522	0.9141	0.96578	0.138
Mof_C 	C 	0.48413	0.81487	0.00187	0.317
Mof_C 	C 	0.49043	0.88267	0.96049	-0.088
Mof_C 	C 	0.55693	0.92677	0.92217	-0.005
Mof_H 	H 	0.59633	0.91387	0.92307	0.061
Mof_C 	C 	0.56813	0.99147	0.88087	-0.023
Mof_H 	H 	0.61513	0.02057	0.85697	0.073
Mof_C 	C 	0.51163	0.01187	0.87565	-0.074
Mof_C 	C 	0.44093	0.96697	0.91319	0.07
Mof_C 	C 	0.43093	0.90328	0.95639	0.076
Mof_C 	C 	0.52308	0.07894	0.83048	0.319
_end
