# CIF file generated by openbabel 3.1.0, see https://openbabel.org
data_I
_chemical_name_common 'image0'
_cell_length_a 22.33
_cell_length_b 13.297
_cell_length_c 8.846
_cell_angle_alpha 90
_cell_angle_beta 90
_cell_angle_gamma 90
_space_group_name_H-M_alt 'P 1'
_space_group_name_Hall 'P 1'
loop_
    _symmetry_equiv_pos_as_xyz
    x,y,z
loop_
    _atom_site_label
    _atom_site_type_symbol
    _atom_site_fract_x
    _atom_site_fract_y
    _atom_site_fract_z
    _atom_site_occupancy
    N1       N        0.07760    0.30230    0.06170    1.000
    N2       N        0.21450    0.37830    0.06140    1.000
    C1       C        0.04830    0.30000    0.95790    1.000
    C2       C        0.24190    0.39310    0.95760    1.000
    N3       N        0.42240    0.80230    0.93830    1.000
    N4       N        0.28550    0.87830    0.93860    1.000
    C3       C        0.45170    0.80000    0.04210    1.000
    C4       C        0.25810    0.89310    0.04240    1.000
    N5       N        0.92240    0.69770    0.56170    1.000
    N6       N        0.78550    0.62170    0.56140    1.000
    C5       C        0.95170    0.70000    0.45790    1.000
    C6       C        0.75810    0.60690    0.45760    1.000
    N7       N        0.57760    0.19770    0.43830    1.000
    N8       N        0.71450    0.12170    0.43860    1.000
    C7       C        0.54830    0.20000    0.54210    1.000
    C8       C        0.74190    0.10690    0.54240    1.000
    N9       N        0.92240    0.69770    0.93830    1.000
    N10      N        0.78550    0.62170    0.93860    1.000
    C9       C        0.95170    0.70000    0.04210    1.000
    C10      C        0.75810    0.60690    0.04240    1.000
    N11      N        0.57760    0.19770    0.06170    1.000
    N12      N        0.71450    0.12170    0.06140    1.000
    C11      C        0.54830    0.20000    0.95790    1.000
    C12      C        0.74190    0.10690    0.95760    1.000
    N13      N        0.07760    0.30230    0.43830    1.000
    N14      N        0.21450    0.37830    0.43860    1.000
    C13      C        0.04830    0.30000    0.54210    1.000
    C14      C        0.24190    0.39310    0.54240    1.000
    N15      N        0.42240    0.80230    0.56170    1.000
    N16      N        0.28550    0.87830    0.56140    1.000
    C15      C        0.45170    0.80000    0.45790    1.000
    C16      C        0.25810    0.89310    0.45760    1.000
    Cd1      Cd       0.14605    0.34057    0.25000    1.000
    N17      N        0.09940    0.49920    0.25000    1.000
    N18      N        0.17890    0.17570    0.25000    1.000
    C17      C        0.06640    0.56020    0.25000    1.000
    C18      C        0.18770    0.09340    0.25000    1.000
    Cd2      Cd       0.35395    0.84057    0.75000    1.000
    N19      N        0.40060    0.99920    0.75000    1.000
    N20      N        0.32110    0.67570    0.75000    1.000
    C19      C        0.43360    0.06020    0.75000    1.000
    C20      C        0.31230    0.59340    0.75000    1.000
    Cd3      Cd       0.85395    0.65943    0.75000    1.000
    N21      N        0.90060    0.50080    0.75000    1.000
    N22      N        0.82110    0.82430    0.75000    1.000
    C21      C        0.93360    0.43980    0.75000    1.000
    C22      C        0.81230    0.90660    0.75000    1.000
    Cd4      Cd       0.64605    0.15943    0.25000    1.000
    N23      N        0.59940    0.00080    0.25000    1.000
    N24      N        0.67890    0.32430    0.25000    1.000
    C23      C        0.56640    0.93980    0.25000    1.000
    C24      C        0.68770    0.40660    0.25000    1.000
    Cd5      Cd       0.29318    0.42918    0.75000    1.000
    Cd6      Cd       0.99563    0.30661    0.75000    1.000
    C25      C        0.92410    0.19250    0.75000    1.000
    C26      C        0.37960    0.34940    0.75000    1.000
    Cd7      Cd       0.20682    0.92918    0.25000    1.000
    Cd8      Cd       0.50437    0.80661    0.25000    1.000
    C27      C        0.57590    0.69250    0.25000    1.000
    C28      C        0.12040    0.84940    0.25000    1.000
    Cd9      Cd       0.70682    0.57082    0.25000    1.000
    Cd10     Cd       0.00437    0.69339    0.25000    1.000
    C29      C        0.07590    0.80750    0.25000    1.000
    C30      C        0.62040    0.65060    0.25000    1.000
    Cd11     Cd       0.79318    0.07082    0.75000    1.000
    Cd12     Cd       0.49563    0.19339    0.75000    1.000
    C31      C        0.42410    0.30750    0.75000    1.000
    C32      C        0.87960    0.15060    0.75000    1.000
