data_functionalizedCrystal
_audit_creation_method	'EQeq! by Chris Wilmer'
_symmetry_space_group_name_H-M	'P1'
_symmetry_Int_Tables_number	1
_symmetry_cell_setting	triclinic
loop_
_symmetry_equiv_pos_as_xyz
  x,y,z
_cell_length_a	9.9462
_cell_length_b	23.357
_cell_length_c	23.6035
_cell_angle_alpha	94.998
_cell_angle_beta	96.626
_cell_angle_gamma	90.668
loop_
_atom_site_label
_atom_site_type_symbol
_atom_site_fract_x
_atom_site_fract_y
_atom_site_fract_z
_atom_site_charge
Mof_Nd	Nd	0.7826	0.98056	0.99808	2.344
Mof_Nd	Nd	0.26286	0.4976	0.52047	2.613
Mof_Nd	Nd	0.2174	0.01944	0.00192	2.344
Mof_Nd	Nd	0.73714	0.5024	0.47953	2.613
Mof_P 	P 	0.0582	0.89801	0.07105	0.473
Mof_P 	P 	0.0068	0.60778	0.51814	0.573
Mof_P 	P 	0.5115	0.96776	0.08996	0.473
Mof_P 	P 	0.4291	0.4171	0.41282	0.517
Mof_P 	P 	0.9418	0.10199	0.92895	0.473
Mof_P 	P 	0.9932	0.39222	0.48186	0.573
Mof_P 	P 	0.4885	0.03224	0.91004	0.472
Mof_P 	P 	0.5709	0.5829	0.58718	0.516
Mof_H 	H 	0.7816	0.7973	0.4664	0.056
Mof_H 	H 	0.8904	0.8468	0.4686	0.083
Mof_H 	H 	0.704	0.737	0.363	0.053
Mof_H 	H 	0.727	0.826	0.225	0.06
Mof_H 	H 	0.791	0.942	0.252	0.065
Mof_H 	H 	0.908	0.95	0.301	0.098
Mof_H 	H 	0.898	0.91	0.162	0.097
Mof_H 	H 	0.273	0.869	0.156	0.107
Mof_H 	H 	0.4236	0.8552	0.2337	0.106
Mof_H 	H 	0.3923	0.8894	0.2906	0.126
Mof_H 	H 	0.3408	0.7493	0.2188	0.083
Mof_H 	H 	0.314	0.661	0.26	0.02
Mof_H 	H 	0.337	0.666	0.36	0.066
Mof_H 	H 	0.4032	0.7214	0.4543	0.042
Mof_H 	H 	0.3765	0.7875	0.459	0.072
Mof_H 	H 	0.221	0.672	0.484	-0.251
Mof_H 	H 	0.817	0.704	0.481	-0.001
Mof_H 	H 	0.82	0.984	0.457	0.023
Mof_H 	H 	0.796	0.934	0.439	0.024
Mof_H 	H 	0.503	0.918	0.428	0.04
Mof_H 	H 	0.576	0.849	0.422	0.028
Mof_H 	H 	0.83	0.244	0.421	0.127
Mof_H 	H 	0.851	0.296	0.394	0.097
Mof_H 	H 	0.7861	0.2898	0.2818	0.091
Mof_H 	H 	0.796	0.239	0.184	0.015
Mof_H 	H 	0.8126	0.138	0.1892	0.091
Mof_H 	H 	0.8494	0.0544	0.3084	0.125
Mof_H 	H 	0.8941	0.054	0.2467	0.108
Mof_H 	H 	0.737	0.0172	0.1646	0.058
Mof_H 	H 	0.363	0.9733	0.1807	0.09
Mof_H 	H 	0.2426	0.983	0.2673	0.1
Mof_H 	H 	0.3749	0.0132	0.3361	0.117
Mof_H 	H 	0.1656	0.0951	0.2304	0.55
Mof_H 	H 	0.1371	0.173	0.2454	-0.513
Mof_H 	H 	0.1789	0.2254	0.3316	0.378
Mof_H 	H 	0.228	0.217	0.438	0.164
Mof_H 	H 	0.365	0.178	0.449	0.354
Mof_H 	H 	0.3034	0.3108	0.4257	0.103
Mof_H 	H 	0.68	0.365	0.407	0.027
Mof_H 	H 	0.958	0.104	0.435	0.052
Mof_H 	H 	0.02	0.121	0.363	0.035
Mof_H 	H 	0.3682	0.0253	0.4586	0.146
Mof_H 	H 	0.2537	0.0194	0.4068	0.149
Mof_H 	H 	0.2568	0.072	0.453	0.134
Mof_H 	H 	0.2184	0.2027	0.5336	0.056
Mof_H 	H 	0.1096	0.1532	0.5314	0.083
Mof_H 	H 	0.296	0.263	0.637	0.053
Mof_H 	H 	0.273	0.174	0.775	0.06
Mof_H 	H 	0.209	0.058	0.748	0.065
Mof_H 	H 	0.092	0.05	0.699	0.098
Mof_H 	H 	0.102	0.09	0.838	0.097
Mof_H 	H 	0.727	0.131	0.844	0.107
Mof_H 	H 	0.5764	0.1448	0.7663	0.106
Mof_H 	H 	0.6077	0.1106	0.7094	0.126
Mof_H 	H 	0.6592	0.2507	0.7812	0.083
Mof_H 	H 	0.686	0.339	0.74	0.02
Mof_H 	H 	0.663	0.334	0.64	0.066
Mof_H 	H 	0.5968	0.2786	0.5457	0.042
Mof_H 	H 	0.6235	0.2125	0.541	0.072
Mof_H 	H 	0.779	0.328	0.516	-0.251
Mof_H 	H 	0.183	0.296	0.519	-0.001
Mof_H 	H 	0.18	0.016	0.543	0.023
Mof_H 	H 	0.204	0.066	0.561	0.024
Mof_H 	H 	0.497	0.082	0.572	0.04
Mof_H 	H 	0.424	0.151	0.578	0.028
Mof_H 	H 	0.17	0.756	0.579	0.127
Mof_H 	H 	0.149	0.704	0.606	0.097
Mof_H 	H 	0.2139	0.7102	0.7182	0.091
Mof_H 	H 	0.204	0.761	0.816	0.015
Mof_H 	H 	0.1874	0.862	0.8108	0.091
Mof_H 	H 	0.1506	0.9456	0.6916	0.125
Mof_H 	H 	0.1059	0.946	0.7533	0.108
Mof_H 	H 	0.263	0.9828	0.8354	0.058
Mof_H 	H 	0.637	0.0267	0.8193	0.09
Mof_H 	H 	0.7574	0.017	0.7327	0.1
Mof_H 	H 	0.6251	0.9868	0.6639	0.117
Mof_H 	H 	0.8344	0.9049	0.7696	0.55
Mof_H 	H 	0.8629	0.827	0.7546	-0.513
Mof_H 	H 	0.8211	0.7746	0.6684	0.378
Mof_H 	H 	0.772	0.783	0.562	0.164
Mof_H 	H 	0.635	0.822	0.551	0.354
Mof_H 	H 	0.6966	0.6892	0.5743	0.103
Mof_H 	H 	0.32	0.635	0.593	0.027
Mof_H 	H 	0.042	0.896	0.565	0.052
Mof_H 	H 	0.98	0.879	0.637	0.035
Mof_H 	H 	0.6318	0.9747	0.5414	0.146
Mof_H 	H 	0.7463	0.9806	0.5932	0.149
Mof_H 	H 	0.7432	0.928	0.547	0.134
Mof_C 	C 	0.9726	0.7666	0.4596	-0.068
Mof_C 	C 	0.8603	0.8096	0.4495	-0.133
Mof_C 	C 	0.8203	0.8157	0.386	0.041
Mof_C 	C 	0.7481	0.771	0.3507	-0.093
Mof_C 	C 	0.7143	0.7746	0.2925	0.031
Mof_C 	C 	0.7569	0.8253	0.2691	-0.092
Mof_C 	C 	0.8265	0.8687	0.3008	0.062
Mof_C 	C 	0.8774	0.9184	0.2738	-0.168
Mof_C 	C 	0.9938	0.9042	0.2387	0.077
Mof_C 	C 	0.976	0.9059	0.18	-0.137
Mof_C 	C 	0.0787	0.8904	0.1462	0.016
Mof_C 	C 	0.2026	0.874	0.175	-0.149
Mof_C 	C 	0.2221	0.8738	0.2329	0.099
Mof_C 	C 	0.3601	0.8585	0.262	-0.247
Mof_C 	C 	0.3573	0.8015	0.2912	0.088
Mof_C 	C 	0.3429	0.7499	0.2584	-0.133
Mof_C 	C 	0.3315	0.6985	0.283	0.033
Mof_C 	C 	0.3328	0.7008	0.342	-0.102
Mof_C 	C 	0.3493	0.7516	0.3766	0.031
Mof_C 	C 	0.3432	0.7507	0.44	-0.054
Mof_C 	C 	0.203	0.7391	0.456	-0.2
Mof_C 	C 	0.1722	0.6874	0.4757	0.482
Mof_C 	C 	0.0442	0.6742	0.4893	-0.273
Mof_C 	C 	0.9419	0.7144	0.4798	0.066
Mof_C 	C 	0.1004	0.7788	0.4489	0.179
Mof_C 	C 	0.8551	0.8653	0.3595	0.063
Mof_C 	C 	0.1191	0.8899	0.2645	0.021
Mof_C 	C 	0.364	0.8007	0.3497	0.051
Mof_C 	C 	0.8484	0.9548	0.4146	0.02
Mof_C 	C 	0.5125	0.8745	0.4002	-0.004
Mof_C 	C 	0.6527	0.2715	0.3982	0.076
Mof_C 	C 	0.7972	0.258	0.3871	-0.238
Mof_C 	C 	0.8039	0.2232	0.3291	0.112
Mof_C 	C 	0.7946	0.2501	0.2801	-0.161
Mof_C 	C 	0.7975	0.2187	0.2266	0.069
Mof_C 	C 	0.8099	0.159	0.2243	-0.157
Mof_C 	C 	0.8181	0.1307	0.2739	0.105
Mof_C 	C 	0.8245	0.0665	0.2703	-0.253
Mof_C 	C 	0.6888	0.0379	0.245	0.074
Mof_C 	C 	0.6667	0.01619	0.18726	-0.101
Mof_C 	C 	0.542	0.99333	0.16362	-0.02
Mof_C 	C 	0.4346	0.99352	0.19748	-0.122
Mof_C 	C 	0.4522	0.0147	0.25502	0.107
Mof_C 	C 	0.3338	0.01534	0.29036	-0.317
Mof_C 	C 	0.2835	0.07408	0.30328	0.588
Mof_C 	C 	0.2061	0.10302	0.2624	-1.191
Mof_C 	C 	0.1654	0.15742	0.27345	1.229
Mof_C 	C 	0.2042	0.18743	0.32523	-0.957
Mof_C 	C 	0.2807	0.1616	0.3679	0.592
Mof_C 	C 	0.3276	0.1966	0.4255	-0.712
Mof_C 	C 	0.4264	0.2429	0.4179	0.221
Mof_C 	C 	0.3909	0.3011	0.419	-0.177
Mof_C 	C 	0.4793	0.3441	0.4105	-0.026
Mof_C 	C 	0.6081	0.3295	0.3994	-0.063
Mof_C 	C 	0.5628	0.23	0.4094	-0.016
Mof_C 	C 	0.8185	0.1631	0.3265	0.018
Mof_C 	C 	0.5805	0.0357	0.2791	0.028
Mof_C 	C 	0.3175	0.1052	0.357	-0.338
Mof_C 	C 	0.9623	0.129	0.4027	-0.019
Mof_C 	C 	0.3114	0.046	0.4322	-0.356
Mof_C 	C 	0.0274	0.2334	0.5404	-0.068
Mof_C 	C 	0.1397	0.1904	0.5505	-0.133
Mof_C 	C 	0.1797	0.1843	0.614	0.041
Mof_C 	C 	0.2519	0.229	0.6493	-0.093
Mof_C 	C 	0.2857	0.2254	0.7075	0.031
Mof_C 	C 	0.2431	0.1747	0.7309	-0.092
Mof_C 	C 	0.1735	0.1313	0.6992	0.062
Mof_C 	C 	0.1226	0.0816	0.7262	-0.168
Mof_C 	C 	0.0062	0.0958	0.7613	0.077
Mof_C 	C 	0.024	0.0941	0.82	-0.137
Mof_C 	C 	0.9213	0.1096	0.8538	0.016
Mof_C 	C 	0.7974	0.126	0.825	-0.149
Mof_C 	C 	0.7779	0.1262	0.7671	0.099
Mof_C 	C 	0.6399	0.1415	0.738	-0.247
Mof_C 	C 	0.6427	0.1985	0.7088	0.088
Mof_C 	C 	0.6571	0.2501	0.7416	-0.133
Mof_C 	C 	0.6685	0.3015	0.717	0.033
Mof_C 	C 	0.6672	0.2992	0.658	-0.102
Mof_C 	C 	0.6507	0.2484	0.6234	0.031
Mof_C 	C 	0.6568	0.2493	0.56	-0.054
Mof_C 	C 	0.797	0.2609	0.544	-0.2
Mof_C 	C 	0.8278	0.3126	0.5243	0.482
Mof_C 	C 	0.9558	0.3258	0.5107	-0.273
Mof_C 	C 	0.0581	0.2856	0.5202	0.066
Mof_C 	C 	0.8996	0.2212	0.5511	0.179
Mof_C 	C 	0.1449	0.1347	0.6405	0.063
Mof_C 	C 	0.8809	0.1101	0.7355	0.021
Mof_C 	C 	0.636	0.1993	0.6503	0.051
Mof_C 	C 	0.1516	0.0452	0.5854	0.02
Mof_C 	C 	0.4875	0.1255	0.5998	-0.004
Mof_C 	C 	0.3473	0.7285	0.6018	0.076
Mof_C 	C 	0.2028	0.742	0.6129	-0.238
Mof_C 	C 	0.1961	0.7768	0.6709	0.112
Mof_C 	C 	0.2054	0.7499	0.7199	-0.161
Mof_C 	C 	0.2025	0.7813	0.7734	0.069
Mof_C 	C 	0.1901	0.841	0.7757	-0.157
Mof_C 	C 	0.1819	0.8693	0.7261	0.105
Mof_C 	C 	0.1755	0.9335	0.7297	-0.253
Mof_C 	C 	0.3112	0.9621	0.755	0.074
Mof_C 	C 	0.3333	0.98381	0.81274	-0.101
Mof_C 	C 	0.458	0.00667	0.83638	-0.02
Mof_C 	C 	0.5654	0.00648	0.80252	-0.122
Mof_C 	C 	0.5478	0.9853	0.74498	0.107
Mof_C 	C 	0.6662	0.98466	0.70964	-0.317
Mof_C 	C 	0.7165	0.92592	0.69672	0.588
Mof_C 	C 	0.7939	0.89698	0.7376	-1.191
Mof_C 	C 	0.8346	0.84258	0.72655	1.229
Mof_C 	C 	0.7958	0.81257	0.67477	-0.957
Mof_C 	C 	0.7193	0.8384	0.6321	0.592
Mof_C 	C 	0.6724	0.8034	0.5745	-0.712
Mof_C 	C 	0.5736	0.7571	0.5821	0.221
Mof_C 	C 	0.6091	0.6989	0.581	-0.177
Mof_C 	C 	0.5207	0.6559	0.5895	-0.026
Mof_C 	C 	0.3919	0.6705	0.6006	-0.063
Mof_C 	C 	0.4372	0.77	0.5906	-0.016
Mof_C 	C 	0.1815	0.8369	0.6735	0.018
Mof_C 	C 	0.4195	0.9643	0.7209	0.028
Mof_C 	C 	0.6825	0.8948	0.643	-0.338
Mof_C 	C 	0.0377	0.871	0.5973	-0.019
Mof_C 	C 	0.6886	0.954	0.5678	-0.356
Mof_N 	N 	0.0423	0.0479	0.1001	0.085
Mof_N 	N 	0.261	0.521	0.444	-0.325
Mof_N 	N 	0.9577	0.9521	0.8999	0.085
Mof_N 	N 	0.739	0.479	0.556	-0.325
Mof_O 	O 	0.9287	0.9078	0.394	-0.172
Mof_O 	O 	0.141	0.8939	0.3234	-0.134
Mof_O 	O 	0.3736	0.8534	0.3831	-0.161
Mof_O 	O 	0.132	0.8321	0.4326	-0.158
Mof_O 	O 	0.9179	0.919	0.0544	-0.512
Mof_O 	O 	0.1734	0.9345	0.0555	-0.447
Mof_O 	O 	0.0731	0.8354	0.0417	-0.231
Mof_O 	O 	0.1365	0.579	0.535	-0.593
Mof_O 	O 	0.9064	0.5714	0.4786	-0.615
Mof_O 	O 	0.9356	0.6285	0.5741	-0.25
Mof_O 	O 	0.8264	0.1366	0.3764	-0.15
Mof_O 	O 	0.6082	0.0538	0.3354	-0.142
Mof_O 	O 	0.3942	0.078	0.3994	-0.039
Mof_O 	O 	0.5959	0.1744	0.4134	-0.129
Mof_O 	O 	0.6435	0.9529	0.069	-0.517
Mof_O 	O 	0.429	0.012	0.059	-0.547
Mof_O 	O 	0.4243	0.9099	0.0863	-0.249
Mof_O 	O 	0.3814	0.4309	0.3514	-0.24
Mof_O 	O 	0.5419	0.4553	0.4392	-0.659
Mof_O 	O 	0.3061	0.4235	0.4468	-0.484
Mof_O 	O 	0.9921	0.0389	0.0473	-0.489
Mof_O 	O 	0.168	0.0519	0.1091	-0.308
Mof_O 	O 	0.9704	0.0522	0.1386	-0.191
Mof_O 	O 	0.334	0.5569	0.4423	-0.195
Mof_O 	O 	0.1211	0.5126	0.4218	-0.219
Mof_O 	O 	0.2301	0.5573	0.3995	-0.018
Mof_O 	O 	0.0713	0.0922	0.606	-0.172
Mof_O 	O 	0.859	0.1061	0.6766	-0.134
Mof_O 	O 	0.6264	0.1466	0.6169	-0.161
Mof_O 	O 	0.868	0.1679	0.5674	-0.158
Mof_O 	O 	0.0821	0.081	0.9456	-0.512
Mof_O 	O 	0.8266	0.0655	0.9445	-0.447
Mof_O 	O 	0.9269	0.1646	0.9583	-0.231
Mof_O 	O 	0.8635	0.421	0.465	-0.593
Mof_O 	O 	0.0936	0.4286	0.5214	-0.615
Mof_O 	O 	0.0644	0.3715	0.4259	-0.25
Mof_O 	O 	0.1736	0.8634	0.6236	-0.15
Mof_O 	O 	0.3918	0.9462	0.6646	-0.142
Mof_O 	O 	0.6058	0.922	0.6006	-0.039
Mof_O 	O 	0.4041	0.8256	0.5866	-0.129
Mof_O 	O 	0.3565	0.0471	0.931	-0.517
Mof_O 	O 	0.571	0.988	0.941	-0.547
Mof_O 	O 	0.5757	0.0901	0.9137	-0.249
Mof_O 	O 	0.6186	0.5691	0.6486	-0.24
Mof_O 	O 	0.4581	0.5447	0.5608	-0.659
Mof_O 	O 	0.6939	0.5765	0.5532	-0.484
Mof_O 	O 	0.0079	0.9611	0.9527	-0.489
Mof_O 	O 	0.832	0.9481	0.8909	-0.308
Mof_O 	O 	0.0296	0.9478	0.8614	-0.191
Mof_O 	O 	0.666	0.4431	0.5577	-0.195
Mof_O 	O 	0.8789	0.4874	0.5782	-0.219
Mof_O 	O 	0.7699	0.4427	0.6005	-0.018
_end
