data_functionalizedCrystal
_audit_creation_method	'EQeq! by Chris Wilmer'
_symmetry_space_group_name_H-M	'P1'
_symmetry_Int_Tables_number	1
_symmetry_cell_setting	triclinic
loop_
_symmetry_equiv_pos_as_xyz
  x,y,z
_cell_length_a	24.4252
_cell_length_b	19.0425
_cell_length_c	26.7153
_cell_angle_alpha	90
_cell_angle_beta	90
_cell_angle_gamma	90
loop_
_atom_site_label
_atom_site_type_symbol
_atom_site_fract_x
_atom_site_fract_y
_atom_site_fract_z
_atom_site_charge
Mof_Mn	Mn	0.86911	0.7395	0.87022	1.077
Mof_Mn	Mn	0.77205	0.81987	0.92449	1.078
Mof_Mn	Mn	0.84852	0.95066	0.9461	1.123
Mof_Mn	Mn	0.83223	0.89114	0.839	1.028
Mof_Mn	Mn	0.94578	0.87106	0.89032	1.012
Mof_Mn	Mn	0.88583	0.7964	0.98259	0.8
Mof_O 	O 	0.85439	0.8477	0.90383	-0.677
Mof_C 	C 	0.9924	0.7104	0.9255	-0.303
Mof_C 	C 	0.9411	0.6701	0.9424	0.378
Mof_H 	H 	0.9388	0.6257	0.9232	-0.154
Mof_H 	H 	0.9451	0.6578	0.9782	-0.162
Mof_O 	O 	0.89122	0.70843	0.9358	-0.792
Mof_C 	C 	0.9889	0.7289	0.8704	0.409
Mof_H 	H 	0.0235	0.7518	0.8602	-0.186
Mof_H 	H 	0.9852	0.6851	0.8508	-0.18
Mof_O 	O 	0.94411	0.77462	0.85838	-0.789
Mof_C 	C 	0.003	0.7757	0.9568	0.421
Mof_H 	H 	0.008	0.7613	0.9921	-0.164
Mof_H 	H 	0.0378	0.7972	0.9454	-0.167
Mof_O 	O 	0.96142	0.82743	0.95466	-0.847
Mof_C 	C 	0.0415	0.6602	0.9323	-0.059
Mof_H 	H 	0.0749	0.683	0.9201	0.003
Mof_H 	H 	0.0351	0.617	0.9133	-0.001
Mof_H 	H 	0.0458	0.6489	0.9679	0.006
Mof_C 	C 	0.914	0.038	0.8531	-0.324
Mof_C 	C 	0.927	0.9814	0.8146	0.376
Mof_H 	H 	0.908	0.9933	0.7829	-0.124
Mof_H 	H 	0.9668	0.9823	0.8078	-0.132
Mof_O 	O 	0.91183	0.91134	0.82875	-0.746
Mof_C 	C 	0.8529	0.0454	0.8616	0.421
Mof_H 	H 	0.8466	0.0855	0.8845	-0.146
Mof_H 	H 	0.8353	0.057	0.8292	-0.141
Mof_O 	O 	0.8269	0.98498	0.88186	-0.801
Mof_C 	C 	0.9432	0.0243	0.9023	0.467
Mof_H 	H 	0.9831	0.0222	0.8959	-0.245
Mof_H 	H 	0.9364	0.0644	0.925	-0.252
Mof_O 	O 	0.92695	0.96067	0.92742	-0.814
Mof_C 	C 	0.9354	0.1082	0.8319	-0.038
Mof_H 	H 	0.9172	0.1181	0.7999	0.01
Mof_H 	H 	0.975	0.1049	0.8266	0.008
Mof_H 	H 	0.9276	0.1461	0.8556	0.005
Mof_C 	C 	0.7491	0.7503	0.8079	-0.275
Mof_C 	C 	0.7539	0.7027	0.853	0.388
Mof_H 	H 	0.7173	0.6977	0.8686	-0.137
Mof_H 	H 	0.7657	0.6556	0.8417	-0.166
Mof_O 	O 	0.79165	0.7276	0.89003	-0.781
Mof_C 	C 	0.7258	0.8215	0.822	0.364
Mof_H 	H 	0.7227	0.8504	0.7913	-0.127
Mof_H 	H 	0.6884	0.8147	0.8355	-0.126
Mof_O 	O 	0.75775	0.85998	0.85842	-0.755
Mof_C 	C 	0.8038	0.7575	0.7803	0.357
Mof_H 	H 	0.8154	0.7105	0.7686	-0.138
Mof_H 	H 	0.7982	0.7873	0.7504	-0.139
Mof_O 	O 	0.84673	0.78712	0.80999	-0.728
Mof_C 	C 	0.7086	0.7158	0.7712	-0.103
Mof_H 	H 	0.6723	0.7132	0.7868	0.031
Mof_H 	H 	0.7213	0.6684	0.763	0.027
Mof_H 	H 	0.7065	0.744	0.7406	0.024
Mof_C 	C 	0.7787	0.883	0.0442	-0.292
Mof_C 	C 	0.7489	0.9247	0.0046	0.416
Mof_H 	H 	0.7103	0.9089	0.0032	-0.169
Mof_H 	H 	0.7489	0.9749	0.0142	-0.195
Mof_O 	O 	0.77273	0.9178	0.95568	-0.832
Mof_C 	C 	0.8379	0.9084	0.0493	0.391
Mof_H 	H 	0.8374	0.9585	0.0592	-0.152
Mof_H 	H 	0.8556	0.8818	0.0768	-0.15
Mof_O 	O 	0.87068	0.9011	0.0051	-0.833
Mof_C 	C 	0.7753	0.8037	0.0332	0.35
Mof_H 	H 	0.7939	0.7782	0.0606	-0.136
Mof_H 	H 	0.7363	0.7896	0.0336	-0.123
Mof_O 	O 	0.7987	0.7818	0.98676	-0.677
Mof_C 	C 	0.7503	0.8946	0.0943	-0.065
Mof_H 	H 	0.7552	0.9435	0.1048	-0.001
Mof_H 	H 	0.7663	0.8633	0.1195	0.012
Mof_H 	H 	0.7112	0.8845	0.0909	0.006
Mof_C 	C 	0.81	0.0914	0.984	0.793
Mof_C 	C 	0.8187	0.1549	0.0157	-1.019
Mof_H 	H 	0.7889	0.1588	0.0402	0.22
Mof_H 	H 	0.8192	0.1969	0.9945	0.273
Mof_H 	H 	0.8538	0.1509	0.0334	0.258
Mof_O 	O 	0.84906	0.04568	0.98449	-0.632
Mof_O 	O 	0.76795	0.0848	0.95948	-1.003
Mof_C 	C 	0.054	0.888	0.8366	0.796
Mof_C 	C 	0.1119	0.9122	0.8362	-1.003
Mof_H 	H 	0.1316	0.8893	0.8088	0.236
Mof_H 	H 	0.1293	0.9	0.8681	0.254
Mof_H 	H 	0.113	0.9632	0.8316	0.266
Mof_O 	O 	0.02773	0.8991	0.87753	-0.623
Mof_O 	O 	0.03307	0.861	0.79908	-1.005
Mof_C 	C 	0.8686	0.5833	0.8506	0.766
Mof_C 	C 	0.8913	0.522	0.8217	-0.967
Mof_H 	H 	0.8863	0.4788	0.8411	0.213
Mof_H 	H 	0.9304	0.5296	0.8155	0.255
Mof_H 	H 	0.872	0.5179	0.7897	0.251
Mof_O 	O 	0.88282	0.6442	0.83392	-0.583
Mof_O 	O 	0.83906	0.5732	0.88761	-1.094
Mof_C 	C 	0.7718	0.9797	0.7693	0.823
Mof_C 	C 	0.769	0.0109	0.7205	-1.123
Mof_H 	H 	0.7438	0.051	0.7212	0.325
Mof_H 	H 	0.7558	0.976	0.6963	0.307
Mof_H 	H 	0.8055	0.027	0.7105	0.321
Mof_O 	O 	0.81175	0.9339	0.77687	-0.604
Mof_O 	O 	0.73964	0.9981	0.80196	-0.813
Mof_C 	C 	0.9406	0.7784	0.0804	0.642
Mof_C 	C 	0.954	0.742	0.1288	-0.854
Mof_H 	H 	0.9443	0.7726	0.157	0.244
Mof_H 	H 	0.9932	0.7314	0.13	0.241
Mof_H 	H 	0.933	0.6982	0.1311	0.228
Mof_O 	O 	0.9094	0.7533	0.0482	-0.573
Mof_O 	O 	0.967	0.8394	0.074	-0.786
Mof_C 	C 	0.6514	0.8371	0.9269	0.743
Mof_C 	C 	0.5972	0.8002	0.9264	-0.963
Mof_H 	H 	0.5677	0.8349	0.9271	0.274
Mof_H 	H 	0.5944	0.7696	0.9558	0.273
Mof_H 	H 	0.5942	0.7718	0.8959	0.273
Mof_O 	O 	0.6929	0.7975	0.93663	-0.575
Mof_O 	O 	0.65403	0.8993	0.91632	-0.792
Mof_Na	Na	0.9391	0.81533	0.77456	2.201
Mof_Na	Na	0.96809	0.92324	0.01192	3.155
Mof_Na	Na	0.725	0.98193	0.88983	2.934
Mof_Na	Na	0.81052	0.64605	0.95665	2.415
Mof_O 	O 	0.94953	0.04282	0.0297	-1.862
Mof_H 	H 	0.9513	0.0608	0.0583	0.618
Mof_H 	H 	0.9185	0.0529	0.0182	0.618
Mof_Mn	Mn	0.63089	0.7605	0.37022	1.078
Mof_Mn	Mn	0.72795	0.68013	0.42449	1.079
Mof_Mn	Mn	0.65148	0.54934	0.4461	1.125
Mof_Mn	Mn	0.66777	0.60886	0.339	1.029
Mof_Mn	Mn	0.55422	0.62894	0.39032	1.013
Mof_Mn	Mn	0.61417	0.7036	0.48259	0.801
Mof_O 	O 	0.64561	0.6523	0.40383	-0.676
Mof_C 	C 	0.5076	0.7896	0.4255	-0.301
Mof_C 	C 	0.5589	0.8299	0.4424	0.379
Mof_H 	H 	0.5612	0.8743	0.4232	-0.153
Mof_H 	H 	0.5549	0.8422	0.4782	-0.161
Mof_O 	O 	0.60878	0.79157	0.4358	-0.79
Mof_C 	C 	0.5111	0.7711	0.3704	0.41
Mof_H 	H 	0.4765	0.7482	0.3602	-0.186
Mof_H 	H 	0.5148	0.8149	0.3508	-0.179
Mof_O 	O 	0.55589	0.72538	0.35838	-0.788
Mof_C 	C 	0.497	0.7243	0.4568	0.42
Mof_H 	H 	0.492	0.7387	0.4921	-0.164
Mof_H 	H 	0.4622	0.7028	0.4454	-0.166
Mof_O 	O 	0.53858	0.67257	0.45466	-0.846
Mof_C 	C 	0.4585	0.8398	0.4323	-0.059
Mof_H 	H 	0.4251	0.817	0.4201	0.003
Mof_H 	H 	0.4649	0.883	0.4133	-0.001
Mof_H 	H 	0.4542	0.8511	0.4679	0.005
Mof_C 	C 	0.586	0.462	0.3531	-0.324
Mof_C 	C 	0.573	0.5186	0.3146	0.376
Mof_H 	H 	0.592	0.5067	0.2829	-0.124
Mof_H 	H 	0.5332	0.5177	0.3078	-0.132
Mof_O 	O 	0.58817	0.58866	0.32875	-0.746
Mof_C 	C 	0.6471	0.4546	0.3616	0.42
Mof_H 	H 	0.6534	0.4145	0.3845	-0.146
Mof_H 	H 	0.6647	0.443	0.3292	-0.141
Mof_O 	O 	0.6731	0.51502	0.38186	-0.801
Mof_C 	C 	0.5568	0.4757	0.4023	0.466
Mof_H 	H 	0.5169	0.4778	0.3959	-0.245
Mof_H 	H 	0.5636	0.4356	0.425	-0.252
Mof_O 	O 	0.57305	0.53933	0.42742	-0.813
Mof_C 	C 	0.5646	0.3918	0.3319	-0.038
Mof_H 	H 	0.5828	0.3819	0.2999	0.01
Mof_H 	H 	0.525	0.3951	0.3266	0.008
Mof_H 	H 	0.5724	0.3539	0.3556	0.005
Mof_C 	C 	0.7509	0.7497	0.3079	-0.275
Mof_C 	C 	0.7461	0.7973	0.353	0.388
Mof_H 	H 	0.7827	0.8023	0.3686	-0.137
Mof_H 	H 	0.7343	0.8444	0.3417	-0.166
Mof_O 	O 	0.70835	0.7724	0.39003	-0.781
Mof_C 	C 	0.7742	0.6785	0.322	0.364
Mof_H 	H 	0.7773	0.6496	0.2913	-0.127
Mof_H 	H 	0.8116	0.6853	0.3355	-0.126
Mof_O 	O 	0.74225	0.64002	0.35842	-0.755
Mof_C 	C 	0.6962	0.7425	0.2803	0.357
Mof_H 	H 	0.6846	0.7895	0.2686	-0.138
Mof_H 	H 	0.7018	0.7127	0.2504	-0.139
Mof_O 	O 	0.65327	0.71288	0.30999	-0.728
Mof_C 	C 	0.7914	0.7842	0.2712	-0.103
Mof_H 	H 	0.8277	0.7868	0.2868	0.031
Mof_H 	H 	0.7787	0.8316	0.263	0.027
Mof_H 	H 	0.7935	0.756	0.2406	0.024
Mof_C 	C 	0.7213	0.617	0.5442	-0.292
Mof_C 	C 	0.7511	0.5753	0.5046	0.415
Mof_H 	H 	0.7897	0.5911	0.5032	-0.169
Mof_H 	H 	0.7511	0.5251	0.5142	-0.195
Mof_O 	O 	0.72727	0.5822	0.45568	-0.832
Mof_C 	C 	0.6621	0.5916	0.5493	0.39
Mof_H 	H 	0.6626	0.5415	0.5592	-0.152
Mof_H 	H 	0.6444	0.6182	0.5768	-0.15
Mof_O 	O 	0.62932	0.5989	0.5051	-0.834
Mof_C 	C 	0.7247	0.6963	0.5332	0.349
Mof_H 	H 	0.7061	0.7218	0.5606	-0.136
Mof_H 	H 	0.7637	0.7104	0.5336	-0.123
Mof_O 	O 	0.7013	0.7182	0.48676	-0.677
Mof_C 	C 	0.7497	0.6054	0.5943	-0.065
Mof_H 	H 	0.7448	0.5565	0.6048	-0.001
Mof_H 	H 	0.7337	0.6367	0.6195	0.012
Mof_H 	H 	0.7888	0.6155	0.5909	0.006
Mof_C 	C 	0.69	0.4086	0.484	0.792
Mof_C 	C 	0.6813	0.3451	0.5157	-1.017
Mof_H 	H 	0.7111	0.3412	0.5402	0.22
Mof_H 	H 	0.6808	0.3031	0.4945	0.273
Mof_H 	H 	0.6462	0.3491	0.5334	0.258
Mof_O 	O 	0.65094	0.45432	0.48449	-0.632
Mof_O 	O 	0.73205	0.4152	0.45948	-1.003
Mof_C 	C 	0.446	0.612	0.3366	0.796
Mof_C 	C 	0.3881	0.5878	0.3362	-1.003
Mof_H 	H 	0.3684	0.6107	0.3088	0.236
Mof_H 	H 	0.3707	0.6	0.3681	0.255
Mof_H 	H 	0.387	0.5368	0.3316	0.266
Mof_O 	O 	0.47227	0.6009	0.37753	-0.623
Mof_O 	O 	0.46693	0.639	0.29908	-1.005
Mof_C 	C 	0.6314	0.9167	0.3506	0.766
Mof_C 	C 	0.6087	0.978	0.3217	-0.966
Mof_H 	H 	0.6137	0.0212	0.3411	0.213
Mof_H 	H 	0.5696	0.9704	0.3155	0.255
Mof_H 	H 	0.628	0.9821	0.2897	0.251
Mof_O 	O 	0.61718	0.8558	0.33392	-0.583
Mof_O 	O 	0.66094	0.9268	0.38761	-1.094
Mof_C 	C 	0.7282	0.5203	0.2693	0.824
Mof_C 	C 	0.731	0.4891	0.2205	-1.126
Mof_H 	H 	0.7562	0.449	0.2212	0.326
Mof_H 	H 	0.7442	0.524	0.1963	0.308
Mof_H 	H 	0.6945	0.473	0.2105	0.322
Mof_O 	O 	0.68825	0.5661	0.27687	-0.604
Mof_O 	O 	0.76036	0.5019	0.30196	-0.813
Mof_C 	C 	0.5594	0.7216	0.5804	0.642
Mof_C 	C 	0.546	0.758	0.6288	-0.854
Mof_H 	H 	0.5557	0.7274	0.657	0.244
Mof_H 	H 	0.5068	0.7686	0.63	0.24
Mof_H 	H 	0.567	0.8018	0.6311	0.227
Mof_O 	O 	0.5906	0.7467	0.5482	-0.573
Mof_O 	O 	0.533	0.6606	0.574	-0.786
Mof_C 	C 	0.8486	0.6629	0.4269	0.743
Mof_C 	C 	0.9028	0.6998	0.4264	-0.963
Mof_H 	H 	0.9323	0.6651	0.4271	0.274
Mof_H 	H 	0.9056	0.7304	0.4558	0.273
Mof_H 	H 	0.9058	0.7282	0.3959	0.274
Mof_O 	O 	0.8071	0.7025	0.43663	-0.575
Mof_O 	O 	0.84597	0.6007	0.41632	-0.792
Mof_Na	Na	0.5609	0.68467	0.27456	2.201
Mof_Na	Na	0.53191	0.57676	0.51192	3.15
Mof_Na	Na	0.775	0.51807	0.38983	2.935
Mof_Na	Na	0.68948	0.85395	0.45665	2.415
Mof_O 	O 	0.55047	0.45718	0.5297	-1.86
Mof_H 	H 	0.5487	0.4392	0.5583	0.618
Mof_H 	H 	0.5815	0.4471	0.5182	0.618
Mof_Mn	Mn	0.13089	0.7395	0.62978	1.078
Mof_Mn	Mn	0.22795	0.81987	0.57551	1.079
Mof_Mn	Mn	0.15148	0.95066	0.5539	1.125
Mof_Mn	Mn	0.16777	0.89114	0.661	1.029
Mof_Mn	Mn	0.05422	0.87106	0.60968	1.013
Mof_Mn	Mn	0.11417	0.7964	0.51741	0.801
Mof_O 	O 	0.14561	0.8477	0.59617	-0.676
Mof_C 	C 	0.0076	0.7104	0.5745	-0.301
Mof_C 	C 	0.0589	0.6701	0.5576	0.379
Mof_H 	H 	0.0612	0.6257	0.5768	-0.153
Mof_H 	H 	0.0549	0.6578	0.5218	-0.161
Mof_O 	O 	0.10878	0.70843	0.5642	-0.79
Mof_C 	C 	0.0111	0.7289	0.6296	0.411
Mof_H 	H 	0.9765	0.7518	0.6398	-0.186
Mof_H 	H 	0.0148	0.6851	0.6492	-0.179
Mof_O 	O 	0.05589	0.77462	0.64162	-0.788
Mof_C 	C 	0.997	0.7757	0.5432	0.42
Mof_H 	H 	0.992	0.7613	0.5079	-0.164
Mof_H 	H 	0.9622	0.7972	0.5546	-0.166
Mof_O 	O 	0.03858	0.82743	0.54534	-0.846
Mof_C 	C 	0.9585	0.6602	0.5677	-0.059
Mof_H 	H 	0.9251	0.683	0.5799	0.003
Mof_H 	H 	0.9649	0.617	0.5867	-0.001
Mof_H 	H 	0.9542	0.6489	0.5321	0.005
Mof_C 	C 	0.086	0.038	0.6469	-0.324
Mof_C 	C 	0.073	0.9814	0.6854	0.376
Mof_H 	H 	0.092	0.9933	0.7171	-0.124
Mof_H 	H 	0.0332	0.9823	0.6922	-0.132
Mof_O 	O 	0.08817	0.91134	0.67125	-0.746
Mof_C 	C 	0.1471	0.0454	0.6384	0.421
Mof_H 	H 	0.1534	0.0855	0.6155	-0.146
Mof_H 	H 	0.1647	0.057	0.6708	-0.141
Mof_O 	O 	0.1731	0.98498	0.61814	-0.801
Mof_C 	C 	0.0568	0.0243	0.5977	0.466
Mof_H 	H 	0.0169	0.0222	0.6041	-0.245
Mof_H 	H 	0.0636	0.0644	0.575	-0.252
Mof_O 	O 	0.07305	0.96067	0.57258	-0.813
Mof_C 	C 	0.0646	0.1082	0.6681	-0.039
Mof_H 	H 	0.0828	0.1181	0.7001	0.01
Mof_H 	H 	0.025	0.1049	0.6734	0.008
Mof_H 	H 	0.0724	0.1461	0.6444	0.005
Mof_C 	C 	0.2509	0.7503	0.6921	-0.275
Mof_C 	C 	0.2461	0.7027	0.647	0.388
Mof_H 	H 	0.2827	0.6977	0.6314	-0.137
Mof_H 	H 	0.2343	0.6556	0.6583	-0.166
Mof_O 	O 	0.20835	0.7276	0.60997	-0.781
Mof_C 	C 	0.2742	0.8215	0.678	0.365
Mof_H 	H 	0.2773	0.8504	0.7087	-0.127
Mof_H 	H 	0.3116	0.8147	0.6645	-0.126
Mof_O 	O 	0.24225	0.85998	0.64158	-0.755
Mof_C 	C 	0.1962	0.7575	0.7197	0.357
Mof_H 	H 	0.1846	0.7105	0.7314	-0.138
Mof_H 	H 	0.2018	0.7873	0.7496	-0.139
Mof_O 	O 	0.15327	0.78712	0.69001	-0.728
Mof_C 	C 	0.2914	0.7158	0.7288	-0.103
Mof_H 	H 	0.3277	0.7132	0.7132	0.031
Mof_H 	H 	0.2787	0.6684	0.737	0.027
Mof_H 	H 	0.2935	0.744	0.7594	0.024
Mof_C 	C 	0.2213	0.883	0.4558	-0.292
Mof_C 	C 	0.2511	0.9247	0.4954	0.415
Mof_H 	H 	0.2897	0.9089	0.4968	-0.169
Mof_H 	H 	0.2511	0.9749	0.4858	-0.195
Mof_O 	O 	0.22727	0.9178	0.54432	-0.832
Mof_C 	C 	0.1621	0.9084	0.4507	0.39
Mof_H 	H 	0.1626	0.9585	0.4408	-0.152
Mof_H 	H 	0.1444	0.8818	0.4232	-0.15
Mof_O 	O 	0.12932	0.9011	0.4949	-0.834
Mof_C 	C 	0.2247	0.8037	0.4668	0.349
Mof_H 	H 	0.2061	0.7782	0.4394	-0.136
Mof_H 	H 	0.2637	0.7896	0.4664	-0.123
Mof_O 	O 	0.2013	0.7818	0.51324	-0.677
Mof_C 	C 	0.2497	0.8946	0.4057	-0.065
Mof_H 	H 	0.2448	0.9435	0.3952	-0.001
Mof_H 	H 	0.2337	0.8633	0.3805	0.012
Mof_H 	H 	0.2888	0.8845	0.4091	0.006
Mof_C 	C 	0.19	0.0914	0.516	0.792
Mof_C 	C 	0.1813	0.1549	0.4843	-1.017
Mof_H 	H 	0.2111	0.1588	0.4598	0.22
Mof_H 	H 	0.1808	0.1969	0.5055	0.273
Mof_H 	H 	0.1462	0.1509	0.4666	0.258
Mof_O 	O 	0.15094	0.04568	0.51551	-0.632
Mof_O 	O 	0.23205	0.0848	0.54052	-1.003
Mof_C 	C 	0.946	0.888	0.6634	0.796
Mof_C 	C 	0.8881	0.9122	0.6638	-1.003
Mof_H 	H 	0.8684	0.8893	0.6912	0.236
Mof_H 	H 	0.8707	0.9	0.6319	0.255
Mof_H 	H 	0.887	0.9632	0.6684	0.266
Mof_O 	O 	0.97227	0.8991	0.62247	-0.623
Mof_O 	O 	0.96693	0.861	0.70092	-1.005
Mof_C 	C 	0.1314	0.5833	0.6494	0.766
Mof_C 	C 	0.1087	0.522	0.6783	-0.967
Mof_H 	H 	0.1137	0.4788	0.6589	0.213
Mof_H 	H 	0.0696	0.5296	0.6845	0.255
Mof_H 	H 	0.128	0.5179	0.7103	0.251
Mof_O 	O 	0.11718	0.6442	0.66608	-0.583
Mof_O 	O 	0.16094	0.5732	0.61239	-1.094
Mof_C 	C 	0.2282	0.9797	0.7307	0.822
Mof_C 	C 	0.231	0.0109	0.7795	-1.123
Mof_H 	H 	0.2562	0.051	0.7788	0.325
Mof_H 	H 	0.2442	0.976	0.8037	0.307
Mof_H 	H 	0.1945	0.027	0.7895	0.321
Mof_O 	O 	0.18825	0.9339	0.72313	-0.603
Mof_O 	O 	0.26036	0.9981	0.69804	-0.813
Mof_C 	C 	0.0594	0.7784	0.4196	0.642
Mof_C 	C 	0.046	0.742	0.3712	-0.854
Mof_H 	H 	0.0557	0.7726	0.343	0.244
Mof_H 	H 	0.0068	0.7314	0.37	0.24
Mof_H 	H 	0.067	0.6982	0.3689	0.227
Mof_O 	O 	0.0906	0.7533	0.4518	-0.573
Mof_O 	O 	0.033	0.8394	0.426	-0.786
Mof_C 	C 	0.3486	0.8371	0.5731	0.743
Mof_C 	C 	0.4028	0.8002	0.5736	-0.963
Mof_H 	H 	0.4323	0.8349	0.5729	0.274
Mof_H 	H 	0.4056	0.7696	0.5442	0.273
Mof_H 	H 	0.4058	0.7718	0.6041	0.273
Mof_O 	O 	0.3071	0.7975	0.56337	-0.575
Mof_O 	O 	0.34597	0.8993	0.58368	-0.792
Mof_Na	Na	0.0609	0.81533	0.72544	2.201
Mof_Na	Na	0.03191	0.92324	0.48808	3.15
Mof_Na	Na	0.275	0.98193	0.61017	2.935
Mof_Na	Na	0.18948	0.64605	0.54335	2.415
Mof_O 	O 	0.05047	0.04282	0.4703	-1.86
Mof_H 	H 	0.0487	0.0608	0.4417	0.618
Mof_H 	H 	0.0815	0.0529	0.4818	0.618
Mof_Mn	Mn	0.36911	0.7605	0.12978	1.078
Mof_Mn	Mn	0.27205	0.68013	0.07551	1.079
Mof_Mn	Mn	0.34852	0.54934	0.0539	1.125
Mof_Mn	Mn	0.33223	0.60886	0.161	1.029
Mof_Mn	Mn	0.44578	0.62894	0.10968	1.013
Mof_Mn	Mn	0.38583	0.7036	0.01741	0.802
Mof_O 	O 	0.35439	0.6523	0.09617	-0.676
Mof_C 	C 	0.4924	0.7896	0.0745	-0.301
Mof_C 	C 	0.4411	0.8299	0.0576	0.379
Mof_H 	H 	0.4388	0.8743	0.0768	-0.153
Mof_H 	H 	0.4451	0.8422	0.0218	-0.161
Mof_O 	O 	0.39122	0.79157	0.0642	-0.791
Mof_C 	C 	0.4889	0.7711	0.1296	0.41
Mof_H 	H 	0.5235	0.7482	0.1398	-0.185
Mof_H 	H 	0.4852	0.8149	0.1492	-0.179
Mof_O 	O 	0.44411	0.72538	0.14162	-0.788
Mof_C 	C 	0.503	0.7243	0.0432	0.42
Mof_H 	H 	0.508	0.7387	0.0079	-0.164
Mof_H 	H 	0.5378	0.7028	0.0546	-0.166
Mof_O 	O 	0.46142	0.67257	0.04534	-0.846
Mof_C 	C 	0.5415	0.8398	0.0677	-0.06
Mof_H 	H 	0.5749	0.817	0.0799	0.003
Mof_H 	H 	0.5351	0.883	0.0867	-0
Mof_H 	H 	0.5458	0.8511	0.0321	0.006
Mof_C 	C 	0.414	0.462	0.1469	-0.325
Mof_C 	C 	0.427	0.5186	0.1854	0.376
Mof_H 	H 	0.408	0.5067	0.2171	-0.124
Mof_H 	H 	0.4668	0.5177	0.1922	-0.132
Mof_O 	O 	0.41183	0.58866	0.17125	-0.746
Mof_C 	C 	0.3529	0.4546	0.1384	0.42
Mof_H 	H 	0.3466	0.4145	0.1155	-0.146
Mof_H 	H 	0.3353	0.443	0.1708	-0.141
Mof_O 	O 	0.3269	0.51502	0.11814	-0.801
Mof_C 	C 	0.4432	0.4757	0.0977	0.467
Mof_H 	H 	0.4831	0.4778	0.1041	-0.245
Mof_H 	H 	0.4364	0.4356	0.075	-0.252
Mof_O 	O 	0.42695	0.53933	0.07258	-0.813
Mof_C 	C 	0.4354	0.3918	0.1681	-0.038
Mof_H 	H 	0.4172	0.3819	0.2001	0.01
Mof_H 	H 	0.475	0.3951	0.1734	0.008
Mof_H 	H 	0.4276	0.3539	0.1444	0.005
Mof_C 	C 	0.2491	0.7497	0.1921	-0.275
Mof_C 	C 	0.2539	0.7973	0.147	0.388
Mof_H 	H 	0.2173	0.8023	0.1314	-0.137
Mof_H 	H 	0.2657	0.8444	0.1583	-0.166
Mof_O 	O 	0.29165	0.7724	0.10997	-0.781
Mof_C 	C 	0.2258	0.6785	0.178	0.365
Mof_H 	H 	0.2227	0.6496	0.2087	-0.127
Mof_H 	H 	0.1884	0.6853	0.1645	-0.126
Mof_O 	O 	0.25775	0.64002	0.14158	-0.755
Mof_C 	C 	0.3038	0.7425	0.2197	0.357
Mof_H 	H 	0.3154	0.7895	0.2314	-0.138
Mof_H 	H 	0.2982	0.7127	0.2496	-0.139
Mof_O 	O 	0.34673	0.71288	0.19001	-0.728
Mof_C 	C 	0.2086	0.7842	0.2288	-0.103
Mof_H 	H 	0.1723	0.7868	0.2132	0.031
Mof_H 	H 	0.2213	0.8316	0.237	0.027
Mof_H 	H 	0.2065	0.756	0.2594	0.024
Mof_C 	C 	0.2787	0.617	0.9558	-0.292
Mof_C 	C 	0.2489	0.5753	0.9954	0.415
Mof_H 	H 	0.2103	0.5911	0.9968	-0.169
Mof_H 	H 	0.2489	0.5251	0.9858	-0.195
Mof_O 	O 	0.27273	0.5822	0.04432	-0.832
Mof_C 	C 	0.3379	0.5916	0.9507	0.39
Mof_H 	H 	0.3374	0.5415	0.9408	-0.152
Mof_H 	H 	0.3556	0.6182	0.9232	-0.15
Mof_O 	O 	0.37068	0.5989	0.9949	-0.834
Mof_C 	C 	0.2753	0.6963	0.9668	0.349
Mof_H 	H 	0.2939	0.7218	0.9394	-0.136
Mof_H 	H 	0.2363	0.7104	0.9664	-0.123
Mof_O 	O 	0.2987	0.7182	0.01324	-0.676
Mof_C 	C 	0.2503	0.6054	0.9057	-0.065
Mof_H 	H 	0.2552	0.5565	0.8952	-0.001
Mof_H 	H 	0.2663	0.6367	0.8805	0.012
Mof_H 	H 	0.2112	0.6155	0.9091	0.006
Mof_C 	C 	0.31	0.4086	0.016	0.792
Mof_C 	C 	0.3187	0.3451	0.9843	-1.015
Mof_H 	H 	0.2889	0.3412	0.9598	0.219
Mof_H 	H 	0.3192	0.3031	0.0055	0.272
Mof_H 	H 	0.3538	0.3491	0.9666	0.257
Mof_O 	O 	0.34906	0.45432	0.01551	-0.632
Mof_O 	O 	0.26795	0.4152	0.04052	-1.002
Mof_C 	C 	0.554	0.612	0.1634	0.796
Mof_C 	C 	0.6119	0.5878	0.1638	-1.003
Mof_H 	H 	0.6316	0.6107	0.1912	0.236
Mof_H 	H 	0.6293	0.6	0.1319	0.255
Mof_H 	H 	0.613	0.5368	0.1684	0.266
Mof_O 	O 	0.52773	0.6009	0.12247	-0.623
Mof_O 	O 	0.53307	0.639	0.20092	-1.005
Mof_C 	C 	0.3686	0.9167	0.1494	0.765
Mof_C 	C 	0.3913	0.978	0.1783	-0.965
Mof_H 	H 	0.3863	0.0212	0.1589	0.213
Mof_H 	H 	0.4304	0.9704	0.1845	0.255
Mof_H 	H 	0.372	0.9821	0.2103	0.251
Mof_O 	O 	0.38282	0.8558	0.16608	-0.583
Mof_O 	O 	0.33906	0.9268	0.11239	-1.094
Mof_C 	C 	0.2718	0.5203	0.2307	0.824
Mof_C 	C 	0.269	0.4891	0.2795	-1.126
Mof_H 	H 	0.2438	0.449	0.2788	0.326
Mof_H 	H 	0.2558	0.524	0.3037	0.308
Mof_H 	H 	0.3055	0.473	0.2895	0.322
Mof_O 	O 	0.31175	0.5661	0.22313	-0.604
Mof_O 	O 	0.23964	0.5019	0.19804	-0.813
Mof_C 	C 	0.4406	0.7216	0.9196	0.642
Mof_C 	C 	0.454	0.758	0.8712	-0.854
Mof_H 	H 	0.4443	0.7274	0.843	0.244
Mof_H 	H 	0.4932	0.7686	0.87	0.24
Mof_H 	H 	0.433	0.8018	0.8689	0.227
Mof_O 	O 	0.4094	0.7467	0.9518	-0.573
Mof_O 	O 	0.467	0.6606	0.926	-0.786
Mof_C 	C 	0.1514	0.6629	0.0731	0.743
Mof_C 	C 	0.0972	0.6998	0.0736	-0.963
Mof_H 	H 	0.0677	0.6651	0.0729	0.274
Mof_H 	H 	0.0944	0.7304	0.0442	0.273
Mof_H 	H 	0.0942	0.7282	0.1041	0.274
Mof_O 	O 	0.1929	0.7025	0.06337	-0.575
Mof_O 	O 	0.15403	0.6007	0.08368	-0.792
Mof_Na	Na	0.4391	0.68467	0.22544	2.201
Mof_Na	Na	0.46809	0.57676	0.98808	3.151
Mof_Na	Na	0.225	0.51807	0.11017	2.936
Mof_Na	Na	0.31052	0.85395	0.04335	2.416
Mof_O 	O 	0.44953	0.45718	0.9703	-1.86
Mof_H 	H 	0.4513	0.4392	0.9417	0.618
Mof_H 	H 	0.4185	0.4471	0.9818	0.618
Mof_Mn	Mn	0.13089	0.2605	0.12978	1.078
Mof_Mn	Mn	0.22795	0.18013	0.07551	1.079
Mof_Mn	Mn	0.15148	0.04934	0.0539	1.124
Mof_Mn	Mn	0.16777	0.10886	0.161	1.029
Mof_Mn	Mn	0.05422	0.12894	0.10968	1.013
Mof_Mn	Mn	0.11417	0.2036	0.01741	0.801
Mof_O 	O 	0.14561	0.1523	0.09617	-0.676
Mof_C 	C 	0.0076	0.2896	0.0745	-0.302
Mof_C 	C 	0.0589	0.3299	0.0576	0.379
Mof_H 	H 	0.0612	0.3743	0.0768	-0.153
Mof_H 	H 	0.0549	0.3422	0.0218	-0.161
Mof_O 	O 	0.10878	0.29157	0.0642	-0.791
Mof_C 	C 	0.0111	0.2711	0.1296	0.41
Mof_H 	H 	0.9765	0.2482	0.1398	-0.185
Mof_H 	H 	0.0148	0.3149	0.1492	-0.179
Mof_O 	O 	0.05589	0.22538	0.14162	-0.788
Mof_C 	C 	0.997	0.2243	0.0432	0.421
Mof_H 	H 	0.992	0.2387	0.0079	-0.164
Mof_H 	H 	0.9622	0.2028	0.0546	-0.167
Mof_O 	O 	0.03858	0.17257	0.04534	-0.847
Mof_C 	C 	0.9585	0.3398	0.0677	-0.059
Mof_H 	H 	0.9251	0.317	0.0799	0.003
Mof_H 	H 	0.9649	0.383	0.0867	-0.001
Mof_H 	H 	0.9542	0.3511	0.0321	0.006
Mof_C 	C 	0.086	0.962	0.1469	-0.324
Mof_C 	C 	0.073	0.0186	0.1854	0.376
Mof_H 	H 	0.092	0.0067	0.2171	-0.124
Mof_H 	H 	0.0332	0.0177	0.1922	-0.132
Mof_O 	O 	0.08817	0.08866	0.17125	-0.746
Mof_C 	C 	0.1471	0.9546	0.1384	0.421
Mof_H 	H 	0.1534	0.9145	0.1155	-0.146
Mof_H 	H 	0.1647	0.943	0.1708	-0.141
Mof_O 	O 	0.1731	0.01502	0.11814	-0.801
Mof_C 	C 	0.0568	0.9757	0.0977	0.467
Mof_H 	H 	0.0169	0.9778	0.1041	-0.245
Mof_H 	H 	0.0636	0.9356	0.075	-0.252
Mof_O 	O 	0.07305	0.03933	0.07258	-0.814
Mof_C 	C 	0.0646	0.8918	0.1681	-0.038
Mof_H 	H 	0.0828	0.8819	0.2001	0.01
Mof_H 	H 	0.025	0.8951	0.1734	0.008
Mof_H 	H 	0.0724	0.8539	0.1444	0.005
Mof_C 	C 	0.2509	0.2497	0.1921	-0.275
Mof_C 	C 	0.2461	0.2973	0.147	0.388
Mof_H 	H 	0.2827	0.3023	0.1314	-0.137
Mof_H 	H 	0.2343	0.3444	0.1583	-0.166
Mof_O 	O 	0.20835	0.2724	0.10997	-0.781
Mof_C 	C 	0.2742	0.1785	0.178	0.364
Mof_H 	H 	0.2773	0.1496	0.2087	-0.127
Mof_H 	H 	0.3116	0.1853	0.1645	-0.126
Mof_O 	O 	0.24225	0.14002	0.14158	-0.755
Mof_C 	C 	0.1962	0.2425	0.2197	0.357
Mof_H 	H 	0.1846	0.2895	0.2314	-0.138
Mof_H 	H 	0.2018	0.2127	0.2496	-0.139
Mof_O 	O 	0.15327	0.21288	0.19001	-0.728
Mof_C 	C 	0.2914	0.2842	0.2288	-0.103
Mof_H 	H 	0.3277	0.2868	0.2132	0.031
Mof_H 	H 	0.2787	0.3316	0.237	0.027
Mof_H 	H 	0.2935	0.256	0.2594	0.024
Mof_C 	C 	0.2213	0.117	0.9558	-0.292
Mof_C 	C 	0.2511	0.0753	0.9954	0.416
Mof_H 	H 	0.2897	0.0911	0.9968	-0.169
Mof_H 	H 	0.2511	0.0251	0.9858	-0.195
Mof_O 	O 	0.22727	0.0822	0.04432	-0.832
Mof_C 	C 	0.1621	0.0916	0.9507	0.391
Mof_H 	H 	0.1626	0.0415	0.9408	-0.152
Mof_H 	H 	0.1444	0.1182	0.9232	-0.15
Mof_O 	O 	0.12932	0.0989	0.9949	-0.833
Mof_C 	C 	0.2247	0.1963	0.9668	0.35
Mof_H 	H 	0.2061	0.2218	0.9394	-0.136
Mof_H 	H 	0.2637	0.2104	0.9664	-0.123
Mof_O 	O 	0.2013	0.2182	0.01324	-0.677
Mof_C 	C 	0.2497	0.1054	0.9057	-0.065
Mof_H 	H 	0.2448	0.0565	0.8952	-0.001
Mof_H 	H 	0.2337	0.1367	0.8805	0.012
Mof_H 	H 	0.2888	0.1155	0.9091	0.006
Mof_C 	C 	0.19	0.9086	0.016	0.793
Mof_C 	C 	0.1813	0.8451	0.9843	-1.019
Mof_H 	H 	0.2111	0.8412	0.9598	0.22
Mof_H 	H 	0.1808	0.8031	0.0055	0.273
Mof_H 	H 	0.1462	0.8491	0.9666	0.258
Mof_O 	O 	0.15094	0.95432	0.01551	-0.632
Mof_O 	O 	0.23205	0.9152	0.04052	-1.003
Mof_C 	C 	0.946	0.112	0.1634	0.796
Mof_C 	C 	0.8881	0.0878	0.1638	-1.003
Mof_H 	H 	0.8684	0.1107	0.1912	0.236
Mof_H 	H 	0.8707	0.1	0.1319	0.254
Mof_H 	H 	0.887	0.0368	0.1684	0.266
Mof_O 	O 	0.97227	0.1009	0.12247	-0.623
Mof_O 	O 	0.96693	0.139	0.20092	-1.005
Mof_C 	C 	0.1314	0.4167	0.1494	0.766
Mof_C 	C 	0.1087	0.478	0.1783	-0.967
Mof_H 	H 	0.1137	0.5212	0.1589	0.213
Mof_H 	H 	0.0696	0.4704	0.1845	0.255
Mof_H 	H 	0.128	0.4821	0.2103	0.251
Mof_O 	O 	0.11718	0.3558	0.16608	-0.583
Mof_O 	O 	0.16094	0.4268	0.11239	-1.094
Mof_C 	C 	0.2282	0.0203	0.2307	0.823
Mof_C 	C 	0.231	0.9891	0.2795	-1.123
Mof_H 	H 	0.2562	0.949	0.2788	0.325
Mof_H 	H 	0.2442	0.024	0.3037	0.307
Mof_H 	H 	0.1945	0.973	0.2895	0.321
Mof_O 	O 	0.18825	0.0661	0.22313	-0.604
Mof_O 	O 	0.26036	0.0019	0.19804	-0.813
Mof_C 	C 	0.0594	0.2216	0.9196	0.642
Mof_C 	C 	0.046	0.258	0.8712	-0.854
Mof_H 	H 	0.0557	0.2274	0.843	0.244
Mof_H 	H 	0.0068	0.2686	0.87	0.241
Mof_H 	H 	0.067	0.3018	0.8689	0.228
Mof_O 	O 	0.0906	0.2467	0.9518	-0.573
Mof_O 	O 	0.033	0.1606	0.926	-0.786
Mof_C 	C 	0.3486	0.1629	0.0731	0.743
Mof_C 	C 	0.4028	0.1998	0.0736	-0.963
Mof_H 	H 	0.4323	0.1651	0.0729	0.274
Mof_H 	H 	0.4056	0.2304	0.0442	0.273
Mof_H 	H 	0.4058	0.2282	0.1041	0.273
Mof_O 	O 	0.3071	0.2025	0.06337	-0.575
Mof_O 	O 	0.34597	0.1007	0.08368	-0.792
Mof_Na	Na	0.0609	0.18467	0.22544	2.201
Mof_Na	Na	0.03191	0.07676	0.98808	3.155
Mof_Na	Na	0.275	0.01807	0.11017	2.934
Mof_Na	Na	0.18948	0.35395	0.04335	2.415
Mof_O 	O 	0.05047	0.95718	0.9703	-1.862
Mof_H 	H 	0.0487	0.9392	0.9417	0.618
Mof_H 	H 	0.0815	0.9471	0.9818	0.618
Mof_Mn	Mn	0.36911	0.2395	0.62978	1.078
Mof_Mn	Mn	0.27205	0.31987	0.57551	1.079
Mof_Mn	Mn	0.34852	0.45066	0.5539	1.125
Mof_Mn	Mn	0.33223	0.39114	0.661	1.029
Mof_Mn	Mn	0.44578	0.37106	0.60968	1.013
Mof_Mn	Mn	0.38583	0.2964	0.51741	0.801
Mof_O 	O 	0.35439	0.3477	0.59617	-0.676
Mof_C 	C 	0.4924	0.2104	0.5745	-0.301
Mof_C 	C 	0.4411	0.1701	0.5576	0.379
Mof_H 	H 	0.4388	0.1257	0.5768	-0.153
Mof_H 	H 	0.4451	0.1578	0.5218	-0.161
Mof_O 	O 	0.39122	0.20843	0.5642	-0.79
Mof_C 	C 	0.4889	0.2289	0.6296	0.41
Mof_H 	H 	0.5235	0.2518	0.6398	-0.186
Mof_H 	H 	0.4852	0.1851	0.6492	-0.179
Mof_O 	O 	0.44411	0.27462	0.64162	-0.788
Mof_C 	C 	0.503	0.2757	0.5432	0.42
Mof_H 	H 	0.508	0.2613	0.5079	-0.164
Mof_H 	H 	0.5378	0.2972	0.5546	-0.166
Mof_O 	O 	0.46142	0.32743	0.54534	-0.846
Mof_C 	C 	0.5415	0.1602	0.5677	-0.059
Mof_H 	H 	0.5749	0.183	0.5799	0.003
Mof_H 	H 	0.5351	0.117	0.5867	-0.001
Mof_H 	H 	0.5458	0.1489	0.5321	0.005
Mof_C 	C 	0.414	0.538	0.6469	-0.324
Mof_C 	C 	0.427	0.4814	0.6854	0.376
Mof_H 	H 	0.408	0.4933	0.7171	-0.124
Mof_H 	H 	0.4668	0.4823	0.6922	-0.132
Mof_O 	O 	0.41183	0.41134	0.67125	-0.746
Mof_C 	C 	0.3529	0.5454	0.6384	0.42
Mof_H 	H 	0.3466	0.5855	0.6155	-0.146
Mof_H 	H 	0.3353	0.557	0.6708	-0.141
Mof_O 	O 	0.3269	0.48498	0.61814	-0.801
Mof_C 	C 	0.4432	0.5243	0.5977	0.466
Mof_H 	H 	0.4831	0.5222	0.6041	-0.245
Mof_H 	H 	0.4364	0.5644	0.575	-0.252
Mof_O 	O 	0.42695	0.46067	0.57258	-0.813
Mof_C 	C 	0.4354	0.6082	0.6681	-0.038
Mof_H 	H 	0.4172	0.6181	0.7001	0.01
Mof_H 	H 	0.475	0.6049	0.6734	0.008
Mof_H 	H 	0.4276	0.6461	0.6444	0.005
Mof_C 	C 	0.2491	0.2503	0.6921	-0.275
Mof_C 	C 	0.2539	0.2027	0.647	0.388
Mof_H 	H 	0.2173	0.1977	0.6314	-0.137
Mof_H 	H 	0.2657	0.1556	0.6583	-0.166
Mof_O 	O 	0.29165	0.2276	0.60997	-0.781
Mof_C 	C 	0.2258	0.3215	0.678	0.364
Mof_H 	H 	0.2227	0.3504	0.7087	-0.127
Mof_H 	H 	0.1884	0.3147	0.6645	-0.126
Mof_O 	O 	0.25775	0.35998	0.64158	-0.755
Mof_C 	C 	0.3038	0.2575	0.7197	0.357
Mof_H 	H 	0.3154	0.2105	0.7314	-0.138
Mof_H 	H 	0.2982	0.2873	0.7496	-0.139
Mof_O 	O 	0.34673	0.28712	0.69001	-0.728
Mof_C 	C 	0.2086	0.2158	0.7288	-0.103
Mof_H 	H 	0.1723	0.2132	0.7132	0.031
Mof_H 	H 	0.2213	0.1684	0.737	0.027
Mof_H 	H 	0.2065	0.244	0.7594	0.024
Mof_C 	C 	0.2787	0.383	0.4558	-0.292
Mof_C 	C 	0.2489	0.4247	0.4954	0.415
Mof_H 	H 	0.2103	0.4089	0.4968	-0.169
Mof_H 	H 	0.2489	0.4749	0.4858	-0.195
Mof_O 	O 	0.27273	0.4178	0.54432	-0.832
Mof_C 	C 	0.3379	0.4084	0.4507	0.39
Mof_H 	H 	0.3374	0.4585	0.4408	-0.152
Mof_H 	H 	0.3556	0.3818	0.4232	-0.15
Mof_O 	O 	0.37068	0.4011	0.4949	-0.834
Mof_C 	C 	0.2753	0.3037	0.4668	0.349
Mof_H 	H 	0.2939	0.2782	0.4394	-0.136
Mof_H 	H 	0.2363	0.2896	0.4664	-0.123
Mof_O 	O 	0.2987	0.2818	0.51324	-0.677
Mof_C 	C 	0.2503	0.3946	0.4057	-0.065
Mof_H 	H 	0.2552	0.4435	0.3952	-0.001
Mof_H 	H 	0.2663	0.3633	0.3805	0.012
Mof_H 	H 	0.2112	0.3845	0.4091	0.006
Mof_C 	C 	0.31	0.5914	0.516	0.792
Mof_C 	C 	0.3187	0.6549	0.4843	-1.017
Mof_H 	H 	0.2889	0.6588	0.4598	0.22
Mof_H 	H 	0.3192	0.6969	0.5055	0.273
Mof_H 	H 	0.3538	0.6509	0.4666	0.258
Mof_O 	O 	0.34906	0.54568	0.51551	-0.632
Mof_O 	O 	0.26795	0.5848	0.54052	-1.003
Mof_C 	C 	0.554	0.388	0.6634	0.796
Mof_C 	C 	0.6119	0.4122	0.6638	-1.003
Mof_H 	H 	0.6316	0.3893	0.6912	0.236
Mof_H 	H 	0.6293	0.4	0.6319	0.255
Mof_H 	H 	0.613	0.4632	0.6684	0.266
Mof_O 	O 	0.52773	0.3991	0.62247	-0.623
Mof_O 	O 	0.53307	0.361	0.70092	-1.005
Mof_C 	C 	0.3686	0.0833	0.6494	0.766
Mof_C 	C 	0.3913	0.022	0.6783	-0.966
Mof_H 	H 	0.3863	0.9788	0.6589	0.213
Mof_H 	H 	0.4304	0.0296	0.6845	0.255
Mof_H 	H 	0.372	0.0179	0.7103	0.251
Mof_O 	O 	0.38282	0.1442	0.66608	-0.583
Mof_O 	O 	0.33906	0.0732	0.61239	-1.094
Mof_C 	C 	0.2718	0.4797	0.7307	0.824
Mof_C 	C 	0.269	0.5109	0.7795	-1.126
Mof_H 	H 	0.2438	0.551	0.7788	0.326
Mof_H 	H 	0.2558	0.476	0.8037	0.308
Mof_H 	H 	0.3055	0.527	0.7895	0.322
Mof_O 	O 	0.31175	0.4339	0.72313	-0.604
Mof_O 	O 	0.23964	0.4981	0.69804	-0.813
Mof_C 	C 	0.4406	0.2784	0.4196	0.642
Mof_C 	C 	0.454	0.242	0.3712	-0.854
Mof_H 	H 	0.4443	0.2726	0.343	0.244
Mof_H 	H 	0.4932	0.2314	0.37	0.24
Mof_H 	H 	0.433	0.1982	0.3689	0.227
Mof_O 	O 	0.4094	0.2533	0.4518	-0.573
Mof_O 	O 	0.467	0.3394	0.426	-0.786
Mof_C 	C 	0.1514	0.3371	0.5731	0.743
Mof_C 	C 	0.0972	0.3002	0.5736	-0.963
Mof_H 	H 	0.0677	0.3349	0.5729	0.274
Mof_H 	H 	0.0944	0.2696	0.5442	0.273
Mof_H 	H 	0.0942	0.2718	0.6041	0.274
Mof_O 	O 	0.1929	0.2975	0.56337	-0.575
Mof_O 	O 	0.15403	0.3993	0.58368	-0.792
Mof_Na	Na	0.4391	0.31533	0.72544	2.201
Mof_Na	Na	0.46809	0.42324	0.48808	3.15
Mof_Na	Na	0.225	0.48193	0.61017	2.935
Mof_Na	Na	0.31052	0.14605	0.54335	2.415
Mof_O 	O 	0.44953	0.54282	0.4703	-1.86
Mof_H 	H 	0.4513	0.5608	0.4417	0.618
Mof_H 	H 	0.4185	0.5529	0.4818	0.618
Mof_Mn	Mn	0.86911	0.2605	0.37022	1.078
Mof_Mn	Mn	0.77205	0.18013	0.42449	1.079
Mof_Mn	Mn	0.84852	0.04934	0.4461	1.125
Mof_Mn	Mn	0.83223	0.10886	0.339	1.029
Mof_Mn	Mn	0.94578	0.12894	0.39032	1.013
Mof_Mn	Mn	0.88583	0.2036	0.48259	0.801
Mof_O 	O 	0.85439	0.1523	0.40383	-0.676
Mof_C 	C 	0.9924	0.2896	0.4255	-0.301
Mof_C 	C 	0.9411	0.3299	0.4424	0.379
Mof_H 	H 	0.9388	0.3743	0.4232	-0.153
Mof_H 	H 	0.9451	0.3422	0.4782	-0.161
Mof_O 	O 	0.89122	0.29157	0.4358	-0.79
Mof_C 	C 	0.9889	0.2711	0.3704	0.411
Mof_H 	H 	0.0235	0.2482	0.3602	-0.186
Mof_H 	H 	0.9852	0.3149	0.3508	-0.179
Mof_O 	O 	0.94411	0.22538	0.35838	-0.788
Mof_C 	C 	0.003	0.2243	0.4568	0.42
Mof_H 	H 	0.008	0.2387	0.4921	-0.164
Mof_H 	H 	0.0378	0.2028	0.4454	-0.166
Mof_O 	O 	0.96142	0.17257	0.45466	-0.846
Mof_C 	C 	0.0415	0.3398	0.4323	-0.059
Mof_H 	H 	0.0749	0.317	0.4201	0.003
Mof_H 	H 	0.0351	0.383	0.4133	-0.001
Mof_H 	H 	0.0458	0.3511	0.4679	0.005
Mof_C 	C 	0.914	0.962	0.3531	-0.324
Mof_C 	C 	0.927	0.0186	0.3146	0.376
Mof_H 	H 	0.908	0.0067	0.2829	-0.124
Mof_H 	H 	0.9668	0.0177	0.3078	-0.132
Mof_O 	O 	0.91183	0.08866	0.32875	-0.746
Mof_C 	C 	0.8529	0.9546	0.3616	0.421
Mof_H 	H 	0.8466	0.9145	0.3845	-0.146
Mof_H 	H 	0.8353	0.943	0.3292	-0.141
Mof_O 	O 	0.8269	0.01502	0.38186	-0.801
Mof_C 	C 	0.9432	0.9757	0.4023	0.466
Mof_H 	H 	0.9831	0.9778	0.3959	-0.245
Mof_H 	H 	0.9364	0.9356	0.425	-0.252
Mof_O 	O 	0.92695	0.03933	0.42742	-0.813
Mof_C 	C 	0.9354	0.8918	0.3319	-0.039
Mof_H 	H 	0.9172	0.8819	0.2999	0.01
Mof_H 	H 	0.975	0.8951	0.3266	0.008
Mof_H 	H 	0.9276	0.8539	0.3556	0.005
Mof_C 	C 	0.7491	0.2497	0.3079	-0.275
Mof_C 	C 	0.7539	0.2973	0.353	0.388
Mof_H 	H 	0.7173	0.3023	0.3686	-0.137
Mof_H 	H 	0.7657	0.3444	0.3417	-0.166
Mof_O 	O 	0.79165	0.2724	0.39003	-0.781
Mof_C 	C 	0.7258	0.1785	0.322	0.365
Mof_H 	H 	0.7227	0.1496	0.2913	-0.127
Mof_H 	H 	0.6884	0.1853	0.3355	-0.126
Mof_O 	O 	0.75775	0.14002	0.35842	-0.755
Mof_C 	C 	0.8038	0.2425	0.2803	0.357
Mof_H 	H 	0.8154	0.2895	0.2686	-0.138
Mof_H 	H 	0.7982	0.2127	0.2504	-0.139
Mof_O 	O 	0.84673	0.21288	0.30999	-0.728
Mof_C 	C 	0.7086	0.2842	0.2712	-0.103
Mof_H 	H 	0.6723	0.2868	0.2868	0.031
Mof_H 	H 	0.7213	0.3316	0.263	0.027
Mof_H 	H 	0.7065	0.256	0.2406	0.024
Mof_C 	C 	0.7787	0.117	0.5442	-0.292
Mof_C 	C 	0.7489	0.0753	0.5046	0.415
Mof_H 	H 	0.7103	0.0911	0.5032	-0.169
Mof_H 	H 	0.7489	0.0251	0.5142	-0.195
Mof_O 	O 	0.77273	0.0822	0.45568	-0.832
Mof_C 	C 	0.8379	0.0916	0.5493	0.39
Mof_H 	H 	0.8374	0.0415	0.5592	-0.152
Mof_H 	H 	0.8556	0.1182	0.5768	-0.15
Mof_O 	O 	0.87068	0.0989	0.5051	-0.834
Mof_C 	C 	0.7753	0.1963	0.5332	0.349
Mof_H 	H 	0.7939	0.2218	0.5606	-0.136
Mof_H 	H 	0.7363	0.2104	0.5336	-0.123
Mof_O 	O 	0.7987	0.2182	0.48676	-0.677
Mof_C 	C 	0.7503	0.1054	0.5943	-0.065
Mof_H 	H 	0.7552	0.0565	0.6048	-0.001
Mof_H 	H 	0.7663	0.1367	0.6195	0.012
Mof_H 	H 	0.7112	0.1155	0.5909	0.006
Mof_C 	C 	0.81	0.9086	0.484	0.792
Mof_C 	C 	0.8187	0.8451	0.5157	-1.017
Mof_H 	H 	0.7889	0.8412	0.5402	0.22
Mof_H 	H 	0.8192	0.8031	0.4945	0.273
Mof_H 	H 	0.8538	0.8491	0.5334	0.258
Mof_O 	O 	0.84906	0.95432	0.48449	-0.632
Mof_O 	O 	0.76795	0.9152	0.45948	-1.003
Mof_C 	C 	0.054	0.112	0.3366	0.796
Mof_C 	C 	0.1119	0.0878	0.3362	-1.003
Mof_H 	H 	0.1316	0.1107	0.3088	0.236
Mof_H 	H 	0.1293	0.1	0.3681	0.255
Mof_H 	H 	0.113	0.0368	0.3316	0.266
Mof_O 	O 	0.02773	0.1009	0.37753	-0.623
Mof_O 	O 	0.03307	0.139	0.29908	-1.005
Mof_C 	C 	0.8686	0.4167	0.3506	0.766
Mof_C 	C 	0.8913	0.478	0.3217	-0.967
Mof_H 	H 	0.8863	0.5212	0.3411	0.213
Mof_H 	H 	0.9304	0.4704	0.3155	0.255
Mof_H 	H 	0.872	0.4821	0.2897	0.251
Mof_O 	O 	0.88282	0.3558	0.33392	-0.583
Mof_O 	O 	0.83906	0.4268	0.38761	-1.094
Mof_C 	C 	0.7718	0.0203	0.2693	0.822
Mof_C 	C 	0.769	0.9891	0.2205	-1.123
Mof_H 	H 	0.7438	0.949	0.2212	0.325
Mof_H 	H 	0.7558	0.024	0.1963	0.307
Mof_H 	H 	0.8055	0.973	0.2105	0.321
Mof_O 	O 	0.81175	0.0661	0.27687	-0.603
Mof_O 	O 	0.73964	0.0019	0.30196	-0.813
Mof_C 	C 	0.9406	0.2216	0.5804	0.642
Mof_C 	C 	0.954	0.258	0.6288	-0.854
Mof_H 	H 	0.9443	0.2274	0.657	0.244
Mof_H 	H 	0.9932	0.2686	0.63	0.24
Mof_H 	H 	0.933	0.3018	0.6311	0.227
Mof_O 	O 	0.9094	0.2467	0.5482	-0.573
Mof_O 	O 	0.967	0.1606	0.574	-0.786
Mof_C 	C 	0.6514	0.1629	0.4269	0.743
Mof_C 	C 	0.5972	0.1998	0.4264	-0.963
Mof_H 	H 	0.5677	0.1651	0.4271	0.274
Mof_H 	H 	0.5944	0.2304	0.4558	0.273
Mof_H 	H 	0.5942	0.2282	0.3959	0.273
Mof_O 	O 	0.6929	0.2025	0.43663	-0.575
Mof_O 	O 	0.65403	0.1007	0.41632	-0.792
Mof_Na	Na	0.9391	0.18467	0.27456	2.201
Mof_Na	Na	0.96809	0.07676	0.51192	3.15
Mof_Na	Na	0.725	0.01807	0.38983	2.935
Mof_Na	Na	0.81052	0.35395	0.45665	2.415
Mof_O 	O 	0.94953	0.95718	0.5297	-1.86
Mof_H 	H 	0.9513	0.9392	0.5583	0.618
Mof_H 	H 	0.9185	0.9471	0.5182	0.618
Mof_Mn	Mn	0.63089	0.2395	0.87022	1.078
Mof_Mn	Mn	0.72795	0.31987	0.92449	1.079
Mof_Mn	Mn	0.65148	0.45066	0.9461	1.125
Mof_Mn	Mn	0.66777	0.39114	0.839	1.029
Mof_Mn	Mn	0.55422	0.37106	0.89032	1.013
Mof_Mn	Mn	0.61417	0.2964	0.98259	0.802
Mof_O 	O 	0.64561	0.3477	0.90383	-0.676
Mof_C 	C 	0.5076	0.2104	0.9255	-0.301
Mof_C 	C 	0.5589	0.1701	0.9424	0.379
Mof_H 	H 	0.5612	0.1257	0.9232	-0.153
Mof_H 	H 	0.5549	0.1578	0.9782	-0.161
Mof_O 	O 	0.60878	0.20843	0.9358	-0.791
Mof_C 	C 	0.5111	0.2289	0.8704	0.41
Mof_H 	H 	0.4765	0.2518	0.8602	-0.185
Mof_H 	H 	0.5148	0.1851	0.8508	-0.179
Mof_O 	O 	0.55589	0.27462	0.85838	-0.788
Mof_C 	C 	0.497	0.2757	0.9568	0.42
Mof_H 	H 	0.492	0.2613	0.9921	-0.164
Mof_H 	H 	0.4622	0.2972	0.9454	-0.166
Mof_O 	O 	0.53858	0.32743	0.95466	-0.846
Mof_C 	C 	0.4585	0.1602	0.9323	-0.06
Mof_H 	H 	0.4251	0.183	0.9201	0.003
Mof_H 	H 	0.4649	0.117	0.9133	-0
Mof_H 	H 	0.4542	0.1489	0.9679	0.006
Mof_C 	C 	0.586	0.538	0.8531	-0.325
Mof_C 	C 	0.573	0.4814	0.8146	0.376
Mof_H 	H 	0.592	0.4933	0.7829	-0.124
Mof_H 	H 	0.5332	0.4823	0.8078	-0.132
Mof_O 	O 	0.58817	0.41134	0.82875	-0.746
Mof_C 	C 	0.6471	0.5454	0.8616	0.42
Mof_H 	H 	0.6534	0.5855	0.8845	-0.146
Mof_H 	H 	0.6647	0.557	0.8292	-0.141
Mof_O 	O 	0.6731	0.48498	0.88186	-0.801
Mof_C 	C 	0.5568	0.5243	0.9023	0.467
Mof_H 	H 	0.5169	0.5222	0.8959	-0.245
Mof_H 	H 	0.5636	0.5644	0.925	-0.252
Mof_O 	O 	0.57305	0.46067	0.92742	-0.813
Mof_C 	C 	0.5646	0.6082	0.8319	-0.038
Mof_H 	H 	0.5828	0.6181	0.7999	0.01
Mof_H 	H 	0.525	0.6049	0.8266	0.008
Mof_H 	H 	0.5724	0.6461	0.8556	0.005
Mof_C 	C 	0.7509	0.2503	0.8079	-0.275
Mof_C 	C 	0.7461	0.2027	0.853	0.388
Mof_H 	H 	0.7827	0.1977	0.8686	-0.137
Mof_H 	H 	0.7343	0.1556	0.8417	-0.166
Mof_O 	O 	0.70835	0.2276	0.89003	-0.781
Mof_C 	C 	0.7742	0.3215	0.822	0.365
Mof_H 	H 	0.7773	0.3504	0.7913	-0.127
Mof_H 	H 	0.8116	0.3147	0.8355	-0.126
Mof_O 	O 	0.74225	0.35998	0.85842	-0.755
Mof_C 	C 	0.6962	0.2575	0.7803	0.357
Mof_H 	H 	0.6846	0.2105	0.7686	-0.138
Mof_H 	H 	0.7018	0.2873	0.7504	-0.139
Mof_O 	O 	0.65327	0.28712	0.80999	-0.728
Mof_C 	C 	0.7914	0.2158	0.7712	-0.103
Mof_H 	H 	0.8277	0.2132	0.7868	0.031
Mof_H 	H 	0.7787	0.1684	0.763	0.027
Mof_H 	H 	0.7935	0.244	0.7406	0.024
Mof_C 	C 	0.7213	0.383	0.0442	-0.292
Mof_C 	C 	0.7511	0.4247	0.0046	0.415
Mof_H 	H 	0.7897	0.4089	0.0032	-0.169
Mof_H 	H 	0.7511	0.4749	0.0142	-0.195
Mof_O 	O 	0.72727	0.4178	0.95568	-0.832
Mof_C 	C 	0.6621	0.4084	0.0493	0.39
Mof_H 	H 	0.6626	0.4585	0.0592	-0.152
Mof_H 	H 	0.6444	0.3818	0.0768	-0.15
Mof_O 	O 	0.62932	0.4011	0.0051	-0.834
Mof_C 	C 	0.7247	0.3037	0.0332	0.349
Mof_H 	H 	0.7061	0.2782	0.0606	-0.136
Mof_H 	H 	0.7637	0.2896	0.0336	-0.123
Mof_O 	O 	0.7013	0.2818	0.98676	-0.676
Mof_C 	C 	0.7497	0.3946	0.0943	-0.065
Mof_H 	H 	0.7448	0.4435	0.1048	-0.001
Mof_H 	H 	0.7337	0.3633	0.1195	0.012
Mof_H 	H 	0.7888	0.3845	0.0909	0.006
Mof_C 	C 	0.69	0.5914	0.984	0.792
Mof_C 	C 	0.6813	0.6549	0.0157	-1.015
Mof_H 	H 	0.7111	0.6588	0.0402	0.219
Mof_H 	H 	0.6808	0.6969	0.9945	0.272
Mof_H 	H 	0.6462	0.6509	0.0334	0.257
Mof_O 	O 	0.65094	0.54568	0.98449	-0.632
Mof_O 	O 	0.73205	0.5848	0.95948	-1.002
Mof_C 	C 	0.446	0.388	0.8366	0.796
Mof_C 	C 	0.3881	0.4122	0.8362	-1.003
Mof_H 	H 	0.3684	0.3893	0.8088	0.236
Mof_H 	H 	0.3707	0.4	0.8681	0.255
Mof_H 	H 	0.387	0.4632	0.8316	0.266
Mof_O 	O 	0.47227	0.3991	0.87753	-0.623
Mof_O 	O 	0.46693	0.361	0.79908	-1.005
Mof_C 	C 	0.6314	0.0833	0.8506	0.765
Mof_C 	C 	0.6087	0.022	0.8217	-0.965
Mof_H 	H 	0.6137	0.9788	0.8411	0.213
Mof_H 	H 	0.5696	0.0296	0.8155	0.255
Mof_H 	H 	0.628	0.0179	0.7897	0.251
Mof_O 	O 	0.61718	0.1442	0.83392	-0.583
Mof_O 	O 	0.66094	0.0732	0.88761	-1.094
Mof_C 	C 	0.7282	0.4797	0.7693	0.824
Mof_C 	C 	0.731	0.5109	0.7205	-1.126
Mof_H 	H 	0.7562	0.551	0.7212	0.326
Mof_H 	H 	0.7442	0.476	0.6963	0.308
Mof_H 	H 	0.6945	0.527	0.7105	0.322
Mof_O 	O 	0.68825	0.4339	0.77687	-0.604
Mof_O 	O 	0.76036	0.4981	0.80196	-0.813
Mof_C 	C 	0.5594	0.2784	0.0804	0.642
Mof_C 	C 	0.546	0.242	0.1288	-0.854
Mof_H 	H 	0.5557	0.2726	0.157	0.244
Mof_H 	H 	0.5068	0.2314	0.13	0.24
Mof_H 	H 	0.567	0.1982	0.1311	0.227
Mof_O 	O 	0.5906	0.2533	0.0482	-0.573
Mof_O 	O 	0.533	0.3394	0.074	-0.786
Mof_C 	C 	0.8486	0.3371	0.9269	0.743
Mof_C 	C 	0.9028	0.3002	0.9264	-0.963
Mof_H 	H 	0.9323	0.3349	0.9271	0.274
Mof_H 	H 	0.9056	0.2696	0.9558	0.273
Mof_H 	H 	0.9058	0.2718	0.8959	0.274
Mof_O 	O 	0.8071	0.2975	0.93663	-0.575
Mof_O 	O 	0.84597	0.3993	0.91632	-0.792
Mof_Na	Na	0.5609	0.31533	0.77456	2.201
Mof_Na	Na	0.53191	0.42324	0.01192	3.151
Mof_Na	Na	0.775	0.48193	0.88983	2.936
Mof_Na	Na	0.68948	0.14605	0.95665	2.416
Mof_O 	O 	0.55047	0.54282	0.0297	-1.86
Mof_H 	H 	0.5487	0.5608	0.0583	0.618
Mof_H 	H 	0.5815	0.5529	0.0182	0.618
_end
