# CIF file generated by openbabel 3.1.0, see https://openbabel.org
data_I
_chemical_name_common 'image0'
_cell_length_a 13.668
_cell_length_b 17.525
_cell_length_c 19.059
_cell_angle_alpha 90
_cell_angle_beta 90
_cell_angle_gamma 90
_space_group_name_H-M_alt 'P 1'
_space_group_name_Hall 'P 1'
loop_
    _symmetry_equiv_pos_as_xyz
    x,y,z
loop_
    _atom_site_label
    _atom_site_type_symbol
    _atom_site_fract_x
    _atom_site_fract_y
    _atom_site_fract_z
    _atom_site_occupancy
    Cu1      Cu       0.43001    0.13977    0.60977    1.000
    O1       O        0.52401    0.11773    0.68530    1.000
    O2       O        0.56210    0.99570    0.66380    1.000
    O3       O        0.56942    0.04848    0.92371    1.000
    O4       O        0.49020    0.01612    0.82526    1.000
    O5       O        0.33732    0.31384    0.04337    1.000
    O6       O        0.31640    0.21848    0.11941    1.000
    O7       O        0.25270    0.02286    0.99433    1.000
    O8       O        0.36970    0.11169    0.99723    1.000
    N1       N        0.81960    0.10564    0.82728    1.000
    N2       N        0.04340    0.18052    0.94702    1.000
    C1       C        0.73560    0.08211    0.85602    1.000
    H1       H        0.73280    0.07760    0.90460    1.000
    C2       C        0.65250    0.06405    0.81799    1.000
    C3       C        0.56180    0.04040    0.85782    1.000
    C4       C        0.65760    0.06804    0.74465    1.000
    C5       C        0.57230    0.05680    0.69495    1.000
    C6       C        0.74660    0.08960    0.71525    1.000
    H2       H        0.75320    0.09120    0.66670    1.000
    C7       C        0.82500    0.10870    0.75688    1.000
    H3       H        0.88320    0.12400    0.73590    1.000
    C8       C        0.11870    0.13250    0.95771    1.000
    H4       H        0.11360    0.08320    0.93990    1.000
    C9       C        0.20360    0.15170    0.99374    1.000
    C10      C        0.28310    0.09120    0.99696    1.000
    C11      C        0.21100    0.22580    0.02048    1.000
    C12      C        0.29660    0.25240    0.06544    1.000
    C13      C        0.13280    0.27520    0.00949    1.000
    H5       H        0.13580    0.32490    0.02640    1.000
    C14      C        0.05111    0.25105    0.97374    1.000
    H6       H        0.99930    0.28490    0.96790    1.000
    Cu2      Cu       0.06999    0.86023    0.10977    1.000
    O9       O        0.97599    0.88227    0.18530    1.000
    O10      O        0.93790    0.00430    0.16380    1.000
    O11      O        0.93058    0.95152    0.42371    1.000
    O12      O        0.00980    0.98388    0.32526    1.000
    O13      O        0.16268    0.68616    0.54337    1.000
    O14      O        0.18360    0.78152    0.61941    1.000
    O15      O        0.24730    0.97714    0.49433    1.000
    O16      O        0.13030    0.88831    0.49723    1.000
    N3       N        0.68040    0.89436    0.32728    1.000
    N4       N        0.45660    0.81948    0.44702    1.000
    C15      C        0.76440    0.91789    0.35602    1.000
    H7       H        0.76720    0.92240    0.40460    1.000
    C16      C        0.84750    0.93595    0.31799    1.000
    C17      C        0.93820    0.95960    0.35782    1.000
    C18      C        0.84240    0.93196    0.24465    1.000
    C19      C        0.92770    0.94320    0.19495    1.000
    C20      C        0.75340    0.91040    0.21525    1.000
    H8       H        0.74680    0.90880    0.16670    1.000
    C21      C        0.67500    0.89130    0.25688    1.000
    H9       H        0.61680    0.87600    0.23590    1.000
    C22      C        0.38130    0.86750    0.45771    1.000
    H10      H        0.38640    0.91680    0.43990    1.000
    C23      C        0.29640    0.84830    0.49374    1.000
    C24      C        0.21690    0.90880    0.49696    1.000
    C25      C        0.28900    0.77420    0.52048    1.000
    C26      C        0.20340    0.74760    0.56544    1.000
    C27      C        0.36720    0.72480    0.50949    1.000
    H11      H        0.36420    0.67510    0.52640    1.000
    C28      C        0.44889    0.74895    0.47374    1.000
    H12      H        0.50070    0.71510    0.46790    1.000
    Cu3      Cu       0.56999    0.63977    0.89023    1.000
    O17      O        0.47599    0.61773    0.81470    1.000
    O18      O        0.43790    0.49570    0.83620    1.000
    O19      O        0.43058    0.54848    0.57629    1.000
    O20      O        0.50980    0.51612    0.67474    1.000
    O21      O        0.66268    0.81384    0.45663    1.000
    O22      O        0.68360    0.71848    0.38059    1.000
    O23      O        0.74730    0.52286    0.50567    1.000
    O24      O        0.63030    0.61169    0.50277    1.000
    N5       N        0.18040    0.60564    0.67272    1.000
    N6       N        0.95660    0.68052    0.55298    1.000
    C29      C        0.26440    0.58211    0.64398    1.000
    H13      H        0.26720    0.57760    0.59540    1.000
    C30      C        0.34750    0.56405    0.68201    1.000
    C31      C        0.43820    0.54040    0.64218    1.000
    C32      C        0.34240    0.56804    0.75535    1.000
    C33      C        0.42770    0.55680    0.80505    1.000
    C34      C        0.25340    0.58960    0.78475    1.000
    H14      H        0.24680    0.59120    0.83330    1.000
    C35      C        0.17500    0.60870    0.74312    1.000
    H15      H        0.11680    0.62400    0.76410    1.000
    C36      C        0.88130    0.63250    0.54229    1.000
    H16      H        0.88640    0.58320    0.56010    1.000
    C37      C        0.79640    0.65170    0.50626    1.000
    C38      C        0.71690    0.59120    0.50304    1.000
    C39      C        0.78900    0.72580    0.47952    1.000
    C40      C        0.70340    0.75240    0.43456    1.000
    C41      C        0.86720    0.77520    0.49051    1.000
    H17      H        0.86420    0.82490    0.47360    1.000
    C42      C        0.94889    0.75105    0.52626    1.000
    H18      H        0.00070    0.78490    0.53210    1.000
    Cu4      Cu       0.93001    0.36023    0.39023    1.000
    O25      O        0.02401    0.38227    0.31470    1.000
    O26      O        0.06210    0.50430    0.33620    1.000
    O27      O        0.06942    0.45152    0.07629    1.000
    O28      O        0.99020    0.48388    0.17474    1.000
    O29      O        0.83732    0.18616    0.95663    1.000
    O30      O        0.81640    0.28152    0.88059    1.000
    O31      O        0.75270    0.47714    0.00567    1.000
    O32      O        0.86970    0.38831    0.00277    1.000
    N7       N        0.31960    0.39436    0.17272    1.000
    N8       N        0.54340    0.31948    0.05298    1.000
    C43      C        0.23560    0.41789    0.14398    1.000
    H19      H        0.23280    0.42240    0.09540    1.000
    C44      C        0.15250    0.43595    0.18201    1.000
    C45      C        0.06180    0.45960    0.14218    1.000
    C46      C        0.15760    0.43196    0.25535    1.000
    C47      C        0.07230    0.44320    0.30505    1.000
    C48      C        0.24660    0.41040    0.28475    1.000
    H20      H        0.25320    0.40880    0.33330    1.000
    C49      C        0.32500    0.39130    0.24312    1.000
    H21      H        0.38320    0.37600    0.26410    1.000
    C50      C        0.61870    0.36750    0.04229    1.000
    H22      H        0.61360    0.41680    0.06010    1.000
    C51      C        0.70360    0.34830    0.00626    1.000
    C52      C        0.78310    0.40880    0.00304    1.000
    C53      C        0.71100    0.27420    0.97952    1.000
    C54      C        0.79660    0.24760    0.93456    1.000
    C55      C        0.63280    0.22480    0.99051    1.000
    H23      H        0.63580    0.17510    0.97360    1.000
    C56      C        0.55111    0.24895    0.02626    1.000
    H24      H        0.49930    0.21510    0.03210    1.000
    Cu5      Cu       0.56999    0.86023    0.39023    1.000
    O33      O        0.47599    0.88227    0.31470    1.000
    O34      O        0.43790    0.00430    0.33620    1.000
    O35      O        0.43058    0.95152    0.07629    1.000
    O36      O        0.50980    0.98388    0.17474    1.000
    O37      O        0.66268    0.68616    0.95663    1.000
    O38      O        0.68360    0.78152    0.88059    1.000
    O39      O        0.74730    0.97714    0.00567    1.000
    O40      O        0.63030    0.88831    0.00277    1.000
    N9       N        0.18040    0.89436    0.17272    1.000
    N10      N        0.95660    0.81948    0.05298    1.000
    C57      C        0.26440    0.91789    0.14398    1.000
    H25      H        0.26720    0.92240    0.09540    1.000
    C58      C        0.34750    0.93595    0.18201    1.000
    C59      C        0.43820    0.95960    0.14218    1.000
    C60      C        0.34240    0.93196    0.25535    1.000
    C61      C        0.42770    0.94320    0.30505    1.000
    C62      C        0.25340    0.91040    0.28475    1.000
    H26      H        0.24680    0.90880    0.33330    1.000
    C63      C        0.17500    0.89130    0.24312    1.000
    H27      H        0.11680    0.87600    0.26410    1.000
    C64      C        0.88130    0.86750    0.04229    1.000
    H28      H        0.88640    0.91680    0.06010    1.000
    C65      C        0.79640    0.84830    0.00626    1.000
    C66      C        0.71690    0.90880    0.00304    1.000
    C67      C        0.78900    0.77420    0.97952    1.000
    C68      C        0.70340    0.74760    0.93456    1.000
    C69      C        0.86720    0.72480    0.99051    1.000
    H29      H        0.86420    0.67510    0.97360    1.000
    C70      C        0.94889    0.74895    0.02626    1.000
    H30      H        0.00070    0.71510    0.03210    1.000
    Cu6      Cu       0.93001    0.13977    0.89023    1.000
    O41      O        0.02401    0.11773    0.81470    1.000
    O42      O        0.06210    0.99570    0.83620    1.000
    O43      O        0.06942    0.04848    0.57629    1.000
    O44      O        0.99020    0.01612    0.67474    1.000
    O45      O        0.83732    0.31384    0.45663    1.000
    O46      O        0.81640    0.21848    0.38059    1.000
    O47      O        0.75270    0.02286    0.50567    1.000
    O48      O        0.86970    0.11169    0.50277    1.000
    N11      N        0.31960    0.10564    0.67272    1.000
    N12      N        0.54340    0.18052    0.55298    1.000
    C71      C        0.23560    0.08211    0.64398    1.000
    H31      H        0.23280    0.07760    0.59540    1.000
    C72      C        0.15250    0.06405    0.68201    1.000
    C73      C        0.06180    0.04040    0.64218    1.000
    C74      C        0.15760    0.06804    0.75535    1.000
    C75      C        0.07230    0.05680    0.80505    1.000
    C76      C        0.24660    0.08960    0.78475    1.000
    H32      H        0.25320    0.09120    0.83330    1.000
    C77      C        0.32500    0.10870    0.74312    1.000
    H33      H        0.38320    0.12400    0.76410    1.000
    C78      C        0.61870    0.13250    0.54229    1.000
    H34      H        0.61360    0.08320    0.56010    1.000
    C79      C        0.70360    0.15170    0.50626    1.000
    C80      C        0.78310    0.09120    0.50304    1.000
    C81      C        0.71100    0.22580    0.47952    1.000
    C82      C        0.79660    0.25240    0.43456    1.000
    C83      C        0.63280    0.27520    0.49051    1.000
    H35      H        0.63580    0.32490    0.47360    1.000
    C84      C        0.55111    0.25105    0.52626    1.000
    H36      H        0.49930    0.28490    0.53210    1.000
    Cu7      Cu       0.43001    0.36023    0.10977    1.000
    O49      O        0.52401    0.38227    0.18530    1.000
    O50      O        0.56210    0.50430    0.16380    1.000
    O51      O        0.56942    0.45152    0.42371    1.000
    O52      O        0.49020    0.48388    0.32526    1.000
    O53      O        0.33732    0.18616    0.54337    1.000
    O54      O        0.31640    0.28152    0.61941    1.000
    O55      O        0.25270    0.47714    0.49433    1.000
    O56      O        0.36970    0.38831    0.49723    1.000
    N13      N        0.81960    0.39436    0.32728    1.000
    N14      N        0.04340    0.31948    0.44702    1.000
    C85      C        0.73560    0.41789    0.35602    1.000
    H37      H        0.73280    0.42240    0.40460    1.000
    C86      C        0.65250    0.43595    0.31799    1.000
    C87      C        0.56180    0.45960    0.35782    1.000
    C88      C        0.65760    0.43196    0.24465    1.000
    C89      C        0.57230    0.44320    0.19495    1.000
    C90      C        0.74660    0.41040    0.21525    1.000
    H38      H        0.75320    0.40880    0.16670    1.000
    C91      C        0.82500    0.39130    0.25688    1.000
    H39      H        0.88320    0.37600    0.23590    1.000
    C92      C        0.11870    0.36750    0.45771    1.000
    H40      H        0.11360    0.41680    0.43990    1.000
    C93      C        0.20360    0.34830    0.49374    1.000
    C94      C        0.28310    0.40880    0.49696    1.000
    C95      C        0.21100    0.27420    0.52048    1.000
    C96      C        0.29660    0.24760    0.56544    1.000
    C97      C        0.13280    0.22480    0.50949    1.000
    H41      H        0.13580    0.17510    0.52640    1.000
    C98      C        0.05111    0.24895    0.47374    1.000
    H42      H        0.99930    0.21510    0.46790    1.000
    Cu8      Cu       0.06999    0.63977    0.60977    1.000
    O57      O        0.97599    0.61773    0.68530    1.000
    O58      O        0.93790    0.49570    0.66380    1.000
    O59      O        0.93058    0.54848    0.92371    1.000
    O60      O        0.00980    0.51612    0.82526    1.000
    O61      O        0.16268    0.81384    0.04337    1.000
    O62      O        0.18360    0.71848    0.11941    1.000
    O63      O        0.24730    0.52286    0.99433    1.000
    O64      O        0.13030    0.61169    0.99723    1.000
    N15      N        0.68040    0.60564    0.82728    1.000
    N16      N        0.45660    0.68052    0.94702    1.000
    C99      C        0.76440    0.58211    0.85602    1.000
    H43      H        0.76720    0.57760    0.90460    1.000
    C100     C        0.84750    0.56405    0.81799    1.000
    C101     C        0.93820    0.54040    0.85782    1.000
    C102     C        0.84240    0.56804    0.74465    1.000
    C103     C        0.92770    0.55680    0.69495    1.000
    C104     C        0.75340    0.58960    0.71525    1.000
    H44      H        0.74680    0.59120    0.66670    1.000
    C105     C        0.67500    0.60870    0.75688    1.000
    H45      H        0.61680    0.62400    0.73590    1.000
    C106     C        0.38130    0.63250    0.95771    1.000
    H46      H        0.38640    0.58320    0.93990    1.000
    C107     C        0.29640    0.65170    0.99374    1.000
    C108     C        0.21690    0.59120    0.99696    1.000
    C109     C        0.28900    0.72580    0.02048    1.000
    C110     C        0.20340    0.75240    0.06544    1.000
    C111     C        0.36720    0.77520    0.00949    1.000
    H47      H        0.36420    0.82490    0.02640    1.000
    C112     C        0.44889    0.75105    0.97374    1.000
    H48      H        0.50070    0.78490    0.96790    1.000
    Cu9      Cu       0.50000    0.00000    0.00000    1.000
    Cu10     Cu       0.00000    0.00000    0.50000    1.000
    Cu11     Cu       0.50000    0.50000    0.50000    1.000
    Cu12     Cu       0.00000    0.50000    0.00000    1.000
