data_functionalizedCrystal
_audit_creation_method	'EQeq! by Chris Wilmer'
_symmetry_space_group_name_H-M	'P1'
_symmetry_Int_Tables_number	1
_symmetry_cell_setting	triclinic
loop_
_symmetry_equiv_pos_as_xyz
  x,y,z
_cell_length_a	18.4
_cell_length_b	11.3877
_cell_length_c	18.923
_cell_angle_alpha	90
_cell_angle_beta	108.246
_cell_angle_gamma	90
loop_
_atom_site_label
_atom_site_type_symbol
_atom_site_fract_x
_atom_site_fract_y
_atom_site_fract_z
_atom_site_charge
Mof_C 	C 	0.8975	0.8301	0.9277	0.563
Mof_C 	C 	0.8304	0.7541	0.8901	-0.237
Mof_C 	C 	0.7929	0.6984	0.9339	0.048
Mof_H 	H 	0.8138	0.7019	0.9854	0.002
Mof_C 	C 	0.7258	0.6379	0.90311	-0.052
Mof_H 	H 	0.701	0.6028	0.9336	0.016
Mof_C 	C 	0.69508	0.6297	0.82596	-0.153
Mof_C 	C 	0.7334	0.6795	0.7816	-0.097
Mof_H 	H 	0.714	0.6707	0.7303	0.032
Mof_C 	C 	0.8009	0.7432	0.8123	0.153
Mof_C 	C 	0.61957	0.57	0.79188	0.51
Mof_C 	C 	0.8837	0.1542	0.9714	0.452
Mof_C 	C 	0.81523	0.2057	0.98625	-0.075
Mof_C 	C 	0.7905	0.1595	0.0423	0.116
Mof_H 	H 	0.82	0.099	0.071	-0.03
Mof_C 	C 	0.7802	0.3076	0.9481	-0.449
Mof_N 	N 	0.7962	0.3567	0.8892	-1.428
Mof_H 	H 	0.832	0.334	0.873	0.418
Mof_H 	H 	0.781	0.424	0.872	0.492
Mof_N 	N 	0.8336	0.791	0.7629	-0.297
Mof_H 	H 	0.81	0.802	0.7156	0.089
Mof_H 	H 	0.868	0.846	0.777	0.146
Mof_O 	O 	0.92365	0.8958	0.8883	-0.623
Mof_O 	O 	0.92364	0.8248	0.99753	-0.634
Mof_O 	O 	0.58862	0.5221	0.83565	-0.651
Mof_O 	O 	0.59127	0.5699	0.72308	-0.632
Mof_O 	O 	0.92064	0.073	0.01121	-0.643
Mof_O 	O 	0.90226	0.1926	0.91736	-0.6
Mof_Nd	Nd	0.00079	0.06512	0.89819	2.494
Mof_C 	C 	0.7691	0.2907	0.9388	0.034
Mof_H 	H 	0.7788	0.3129	0.8953	1.035
Mof_C 	C 	0.3975	0.3301	0.9277	0.567
Mof_C 	C 	0.3304	0.2541	0.8901	-0.24
Mof_C 	C 	0.2929	0.1984	0.9339	0.049
Mof_H 	H 	0.3138	0.2019	0.9854	-0.003
Mof_C 	C 	0.2258	0.1379	0.90311	-0.055
Mof_H 	H 	0.201	0.1028	0.9336	0.014
Mof_C 	C 	0.19508	0.1297	0.82596	-0.153
Mof_C 	C 	0.2334	0.1795	0.7816	-0.098
Mof_H 	H 	0.214	0.1707	0.7303	0.032
Mof_C 	C 	0.3009	0.2432	0.8123	0.153
Mof_C 	C 	0.11957	0.07	0.79188	0.509
Mof_C 	C 	0.3837	0.6542	0.9714	0.454
Mof_C 	C 	0.31523	0.7057	0.98625	-0.078
Mof_C 	C 	0.2905	0.6595	0.0423	0.119
Mof_H 	H 	0.32	0.599	0.071	-0.032
Mof_C 	C 	0.2802	0.8076	0.9481	-0.447
Mof_N 	N 	0.2962	0.8567	0.8892	-1.429
Mof_H 	H 	0.332	0.834	0.873	0.418
Mof_H 	H 	0.281	0.924	0.872	0.493
Mof_N 	N 	0.3336	0.291	0.7629	-0.298
Mof_H 	H 	0.31	0.302	0.7156	0.088
Mof_H 	H 	0.368	0.346	0.777	0.144
Mof_O 	O 	0.42365	0.3958	0.8883	-0.632
Mof_O 	O 	0.42364	0.3248	0.99753	-0.646
Mof_O 	O 	0.08862	0.0221	0.83565	-0.65
Mof_O 	O 	0.09127	0.0699	0.72308	-0.634
Mof_O 	O 	0.42064	0.573	0.01121	-0.648
Mof_O 	O 	0.40226	0.6926	0.91736	-0.604
Mof_Nd	Nd	0.50079	0.56512	0.89819	2.524
Mof_C 	C 	0.2691	0.7907	0.9388	0.035
Mof_H 	H 	0.2788	0.8129	0.8953	1.035
Mof_C 	C 	0.1025	0.8301	0.5723	0.568
Mof_C 	C 	0.1696	0.7541	0.6099	-0.239
Mof_C 	C 	0.2071	0.6984	0.5661	0.05
Mof_H 	H 	0.1862	0.7019	0.5146	-0
Mof_C 	C 	0.2742	0.6379	0.59689	-0.053
Mof_H 	H 	0.299	0.6028	0.5664	0.016
Mof_C 	C 	0.30492	0.6297	0.67404	-0.152
Mof_C 	C 	0.2666	0.6795	0.7184	-0.098
Mof_H 	H 	0.286	0.6707	0.7697	0.032
Mof_C 	C 	0.1991	0.7432	0.6877	0.154
Mof_C 	C 	0.38043	0.57	0.70812	0.51
Mof_C 	C 	0.1163	0.1542	0.5286	0.455
Mof_C 	C 	0.18477	0.2057	0.51375	-0.077
Mof_C 	C 	0.2095	0.1595	0.4577	0.119
Mof_H 	H 	0.18	0.099	0.429	-0.032
Mof_C 	C 	0.2198	0.3076	0.5519	-0.448
Mof_N 	N 	0.2038	0.3567	0.6108	-1.427
Mof_H 	H 	0.168	0.334	0.627	0.417
Mof_H 	H 	0.219	0.424	0.628	0.492
Mof_N 	N 	0.1664	0.791	0.7371	-0.298
Mof_H 	H 	0.19	0.802	0.7844	0.089
Mof_H 	H 	0.132	0.846	0.723	0.145
Mof_O 	O 	0.07635	0.8958	0.6117	-0.632
Mof_O 	O 	0.07636	0.8248	0.50247	-0.644
Mof_O 	O 	0.41138	0.5221	0.66435	-0.651
Mof_O 	O 	0.40873	0.5699	0.77692	-0.632
Mof_O 	O 	0.07936	0.073	0.48879	-0.649
Mof_O 	O 	0.09774	0.1926	0.58264	-0.606
Mof_Nd	Nd	0.99921	0.06512	0.60181	2.534
Mof_C 	C 	0.2309	0.2907	0.5612	0.034
Mof_H 	H 	0.2212	0.3129	0.6047	1.034
Mof_C 	C 	0.6025	0.3301	0.5723	0.567
Mof_C 	C 	0.6696	0.2541	0.6099	-0.239
Mof_C 	C 	0.7071	0.1984	0.5661	0.05
Mof_H 	H 	0.6862	0.2019	0.5146	-0.001
Mof_C 	C 	0.7742	0.1379	0.59689	-0.054
Mof_H 	H 	0.799	0.1028	0.5664	0.016
Mof_C 	C 	0.80492	0.1297	0.67404	-0.152
Mof_C 	C 	0.7666	0.1795	0.7184	-0.098
Mof_H 	H 	0.786	0.1707	0.7697	0.032
Mof_C 	C 	0.6991	0.2432	0.6877	0.153
Mof_C 	C 	0.88043	0.07	0.70812	0.509
Mof_C 	C 	0.6163	0.6542	0.5286	0.454
Mof_C 	C 	0.68477	0.7057	0.51375	-0.076
Mof_C 	C 	0.7095	0.6595	0.4577	0.118
Mof_H 	H 	0.68	0.599	0.429	-0.032
Mof_C 	C 	0.7198	0.8076	0.5519	-0.448
Mof_N 	N 	0.7038	0.8567	0.6108	-1.43
Mof_H 	H 	0.668	0.834	0.627	0.418
Mof_H 	H 	0.719	0.924	0.628	0.493
Mof_N 	N 	0.6664	0.291	0.7371	-0.298
Mof_H 	H 	0.69	0.302	0.7844	0.088
Mof_H 	H 	0.632	0.346	0.723	0.145
Mof_O 	O 	0.57635	0.3958	0.6117	-0.631
Mof_O 	O 	0.57636	0.3248	0.50247	-0.644
Mof_O 	O 	0.91138	0.0221	0.66435	-0.651
Mof_O 	O 	0.90873	0.0699	0.77692	-0.627
Mof_O 	O 	0.57936	0.573	0.48879	-0.647
Mof_O 	O 	0.59774	0.6926	0.58264	-0.604
Mof_Nd	Nd	0.49921	0.56512	0.60181	2.521
Mof_C 	C 	0.7309	0.7907	0.5612	0.034
Mof_H 	H 	0.7212	0.8129	0.6047	1.036
Mof_C 	C 	0.1025	0.1699	0.0723	0.564
Mof_C 	C 	0.1696	0.2459	0.1099	-0.236
Mof_C 	C 	0.2071	0.3016	0.0661	0.048
Mof_H 	H 	0.1862	0.2981	0.0146	0.002
Mof_C 	C 	0.2742	0.3621	0.09689	-0.052
Mof_H 	H 	0.299	0.3972	0.0664	0.016
Mof_C 	C 	0.30492	0.3703	0.17404	-0.153
Mof_C 	C 	0.2666	0.3205	0.2184	-0.097
Mof_H 	H 	0.286	0.3293	0.2697	0.032
Mof_C 	C 	0.1991	0.2568	0.1877	0.153
Mof_C 	C 	0.38043	0.43	0.20812	0.51
Mof_C 	C 	0.1163	0.8458	0.0286	0.452
Mof_C 	C 	0.18477	0.7943	0.01375	-0.075
Mof_C 	C 	0.2095	0.8405	0.9577	0.116
Mof_H 	H 	0.18	0.901	0.929	-0.03
Mof_C 	C 	0.2198	0.6924	0.0519	-0.449
Mof_N 	N 	0.2038	0.6433	0.1108	-1.428
Mof_H 	H 	0.168	0.666	0.127	0.418
Mof_H 	H 	0.219	0.576	0.128	0.492
Mof_N 	N 	0.1664	0.209	0.2371	-0.297
Mof_H 	H 	0.19	0.198	0.2844	0.089
Mof_H 	H 	0.132	0.154	0.223	0.146
Mof_O 	O 	0.07635	0.1042	0.1117	-0.623
Mof_O 	O 	0.07636	0.1752	0.00247	-0.634
Mof_O 	O 	0.41138	0.4779	0.16435	-0.651
Mof_O 	O 	0.40873	0.4301	0.27692	-0.632
Mof_O 	O 	0.07936	0.927	0.98879	-0.643
Mof_O 	O 	0.09774	0.8074	0.08264	-0.6
Mof_Nd	Nd	0.99921	0.93488	0.10181	2.494
Mof_C 	C 	0.2309	0.7093	0.0612	0.034
Mof_H 	H 	0.2212	0.6871	0.1047	1.035
Mof_C 	C 	0.6025	0.6699	0.0723	0.567
Mof_C 	C 	0.6696	0.7459	0.1099	-0.24
Mof_C 	C 	0.7071	0.8016	0.0661	0.049
Mof_H 	H 	0.6862	0.7981	0.0146	-0.003
Mof_C 	C 	0.7742	0.8621	0.09689	-0.055
Mof_H 	H 	0.799	0.8972	0.0664	0.014
Mof_C 	C 	0.80492	0.8703	0.17404	-0.153
Mof_C 	C 	0.7666	0.8205	0.2184	-0.098
Mof_H 	H 	0.786	0.8293	0.2697	0.032
Mof_C 	C 	0.6991	0.7568	0.1877	0.153
Mof_C 	C 	0.88043	0.93	0.20812	0.509
Mof_C 	C 	0.6163	0.3458	0.0286	0.454
Mof_C 	C 	0.68477	0.2943	0.01375	-0.078
Mof_C 	C 	0.7095	0.3405	0.9577	0.119
Mof_H 	H 	0.68	0.401	0.929	-0.032
Mof_C 	C 	0.7198	0.1924	0.0519	-0.447
Mof_N 	N 	0.7038	0.1433	0.1108	-1.429
Mof_H 	H 	0.668	0.166	0.127	0.418
Mof_H 	H 	0.719	0.076	0.128	0.493
Mof_N 	N 	0.6664	0.709	0.2371	-0.298
Mof_H 	H 	0.69	0.698	0.2844	0.088
Mof_H 	H 	0.632	0.654	0.223	0.144
Mof_O 	O 	0.57635	0.6042	0.1117	-0.632
Mof_O 	O 	0.57636	0.6752	0.00247	-0.646
Mof_O 	O 	0.91138	0.9779	0.16435	-0.65
Mof_O 	O 	0.90873	0.9301	0.27692	-0.634
Mof_O 	O 	0.57936	0.427	0.98879	-0.648
Mof_O 	O 	0.59774	0.3074	0.08264	-0.604
Mof_Nd	Nd	0.49921	0.43488	0.10181	2.524
Mof_C 	C 	0.7309	0.2093	0.0612	0.035
Mof_H 	H 	0.7212	0.1871	0.1047	1.035
Mof_C 	C 	0.8975	0.1699	0.4277	0.568
Mof_C 	C 	0.8304	0.2459	0.3901	-0.239
Mof_C 	C 	0.7929	0.3016	0.4339	0.05
Mof_H 	H 	0.8138	0.2981	0.4854	-0
Mof_C 	C 	0.7258	0.3621	0.40311	-0.053
Mof_H 	H 	0.701	0.3972	0.4336	0.016
Mof_C 	C 	0.69508	0.3703	0.32596	-0.152
Mof_C 	C 	0.7334	0.3205	0.2816	-0.098
Mof_H 	H 	0.714	0.3293	0.2303	0.032
Mof_C 	C 	0.8009	0.2568	0.3123	0.154
Mof_C 	C 	0.61957	0.43	0.29188	0.51
Mof_C 	C 	0.8837	0.8458	0.4714	0.455
Mof_C 	C 	0.81523	0.7943	0.48625	-0.077
Mof_C 	C 	0.7905	0.8405	0.5423	0.119
Mof_H 	H 	0.82	0.901	0.571	-0.032
Mof_C 	C 	0.7802	0.6924	0.4481	-0.448
Mof_N 	N 	0.7962	0.6433	0.3892	-1.427
Mof_H 	H 	0.832	0.666	0.373	0.417
Mof_H 	H 	0.781	0.576	0.372	0.492
Mof_N 	N 	0.8336	0.209	0.2629	-0.298
Mof_H 	H 	0.81	0.198	0.2156	0.089
Mof_H 	H 	0.868	0.154	0.277	0.145
Mof_O 	O 	0.92365	0.1042	0.3883	-0.632
Mof_O 	O 	0.92364	0.1752	0.49753	-0.644
Mof_O 	O 	0.58862	0.4779	0.33565	-0.651
Mof_O 	O 	0.59127	0.4301	0.22308	-0.632
Mof_O 	O 	0.92064	0.927	0.51121	-0.649
Mof_O 	O 	0.90226	0.8074	0.41736	-0.606
Mof_Nd	Nd	0.00079	0.93488	0.39819	2.534
Mof_C 	C 	0.7691	0.7093	0.4388	0.034
Mof_H 	H 	0.7788	0.6871	0.3953	1.034
Mof_C 	C 	0.3975	0.6699	0.4277	0.567
Mof_C 	C 	0.3304	0.7459	0.3901	-0.239
Mof_C 	C 	0.2929	0.8016	0.4339	0.05
Mof_H 	H 	0.3138	0.7981	0.4854	-0.001
Mof_C 	C 	0.2258	0.8621	0.40311	-0.054
Mof_H 	H 	0.201	0.8972	0.4336	0.016
Mof_C 	C 	0.19508	0.8703	0.32596	-0.152
Mof_C 	C 	0.2334	0.8205	0.2816	-0.098
Mof_H 	H 	0.214	0.8293	0.2303	0.032
Mof_C 	C 	0.3009	0.7568	0.3123	0.153
Mof_C 	C 	0.11957	0.93	0.29188	0.509
Mof_C 	C 	0.3837	0.3458	0.4714	0.454
Mof_C 	C 	0.31523	0.2943	0.48625	-0.076
Mof_C 	C 	0.2905	0.3405	0.5423	0.118
Mof_H 	H 	0.32	0.401	0.571	-0.032
Mof_C 	C 	0.2802	0.1924	0.4481	-0.448
Mof_N 	N 	0.2962	0.1433	0.3892	-1.43
Mof_H 	H 	0.332	0.166	0.373	0.418
Mof_H 	H 	0.281	0.076	0.372	0.493
Mof_N 	N 	0.3336	0.709	0.2629	-0.298
Mof_H 	H 	0.31	0.698	0.2156	0.088
Mof_H 	H 	0.368	0.654	0.277	0.145
Mof_O 	O 	0.42365	0.6042	0.3883	-0.631
Mof_O 	O 	0.42364	0.6752	0.49753	-0.644
Mof_O 	O 	0.08862	0.9779	0.33565	-0.651
Mof_O 	O 	0.09127	0.9301	0.22308	-0.627
Mof_O 	O 	0.42064	0.427	0.51121	-0.647
Mof_O 	O 	0.40226	0.3074	0.41736	-0.604
Mof_Nd	Nd	0.50079	0.43488	0.39819	2.521
Mof_C 	C 	0.2691	0.2093	0.4388	0.034
Mof_H 	H 	0.2788	0.1871	0.3953	1.036
_end
