data_functionalizedCrystal
_audit_creation_method	'EQeq! by Chris Wilmer'
_symmetry_space_group_name_H-M	'P1'
_symmetry_Int_Tables_number	1
_symmetry_cell_setting	triclinic
loop_
_symmetry_equiv_pos_as_xyz
  x,y,z
_cell_length_a	15.483
_cell_length_b	15.483
_cell_length_c	12.308
_cell_angle_alpha	90
_cell_angle_beta	90
_cell_angle_gamma	90
loop_
_atom_site_label
_atom_site_type_symbol
_atom_site_fract_x
_atom_site_fract_y
_atom_site_fract_z
_atom_site_charge
Mof_O 	O 	0.3829	0.6137	0.3851	-0.757
Mof_O 	O 	0.29072	0.59251	0.2458	-0.776
Mof_O 	O 	0.2344	0.7548	0.3873	-0.653
Mof_H 	H 	0.2221	0.8069	0.3967	0.218
Mof_C 	C 	0.4319	0.5372	0.1188	0.153
Mof_H 	H 	0.3844	0.5614	0.0805	-0.07
Mof_C 	C 	0.4323	0.5396	0.2328	-0.303
Mof_C 	C 	0.3625	0.5849	0.2918	0.629
Mof_O 	O 	0.8829	0.1137	0.8851	-0.671
Mof_O 	O 	0.79072	0.09251	0.7458	-0.757
Mof_O 	O 	0.7344	0.2548	0.8873	-0.648
Mof_H 	H 	0.7221	0.3069	0.8967	0.237
Mof_C 	C 	0.9319	0.0372	0.6188	0.071
Mof_H 	H 	0.8844	0.0614	0.5805	-0.018
Mof_C 	C 	0.9323	0.0396	0.7328	-0.221
Mof_C 	C 	0.8625	0.0849	0.7918	0.589
Mof_O 	O 	0.1171	0.8863	0.8851	-0.665
Mof_O 	O 	0.20928	0.90749	0.7458	-0.753
Mof_O 	O 	0.2656	0.7452	0.8873	-0.649
Mof_H 	H 	0.2779	0.6931	0.8967	0.238
Mof_C 	C 	0.0681	0.9628	0.6188	0.087
Mof_H 	H 	0.1156	0.9386	0.5805	-0.018
Mof_C 	C 	0.0677	0.9604	0.7328	-0.207
Mof_C 	C 	0.1375	0.9151	0.7918	0.589
Mof_O 	O 	0.6171	0.3863	0.3851	-0.757
Mof_O 	O 	0.70928	0.40749	0.2458	-0.775
Mof_O 	O 	0.7656	0.2452	0.3873	-0.653
Mof_H 	H 	0.7779	0.1931	0.3967	0.217
Mof_C 	C 	0.5681	0.4628	0.1188	0.153
Mof_H 	H 	0.6156	0.4386	0.0805	-0.069
Mof_C 	C 	0.5677	0.4604	0.2328	-0.303
Mof_C 	C 	0.6375	0.4151	0.2918	0.63
Mof_O 	O 	0.3863	0.8829	0.6351	-0.744
Mof_O 	O 	0.40749	0.79072	0.4958	-0.765
Mof_O 	O 	0.2452	0.7344	0.6373	-0.66
Mof_H 	H 	0.1931	0.7221	0.6467	0.218
Mof_C 	C 	0.4628	0.9319	0.3688	0.046
Mof_H 	H 	0.4386	0.8844	0.3305	-0.006
Mof_C 	C 	0.4604	0.9323	0.4828	-0.205
Mof_C 	C 	0.4151	0.8625	0.5418	0.602
Mof_O 	O 	0.8863	0.3829	0.1351	-0.675
Mof_O 	O 	0.90749	0.29072	0.9958	-0.565
Mof_O 	O 	0.7452	0.2344	0.1373	-0.65
Mof_H 	H 	0.6931	0.2221	0.1467	0.218
Mof_C 	C 	0.9628	0.4319	0.8688	-0.179
Mof_H 	H 	0.9386	0.3844	0.8305	0.073
Mof_C 	C 	0.9604	0.4323	0.9828	0.194
Mof_C 	C 	0.9151	0.3625	0.0418	0.278
Mof_O 	O 	0.1137	0.6171	0.1351	-0.677
Mof_O 	O 	0.09251	0.70928	0.9958	-0.565
Mof_O 	O 	0.2548	0.7656	0.1373	-0.651
Mof_H 	H 	0.3069	0.7779	0.1467	0.219
Mof_C 	C 	0.0372	0.5681	0.8688	-0.185
Mof_H 	H 	0.0614	0.6156	0.8305	0.074
Mof_C 	C 	0.0396	0.5677	0.9828	0.189
Mof_C 	C 	0.0849	0.6375	0.0418	0.279
Mof_O 	O 	0.6137	0.1171	0.6351	-0.751
Mof_O 	O 	0.59251	0.20928	0.4958	-0.767
Mof_O 	O 	0.7548	0.2656	0.6373	-0.66
Mof_H 	H 	0.8069	0.2779	0.6467	0.219
Mof_C 	C 	0.5372	0.0681	0.3688	0.026
Mof_H 	H 	0.5614	0.1156	0.3305	-0.003
Mof_C 	C 	0.5396	0.0677	0.4828	-0.222
Mof_C 	C 	0.5849	0.1375	0.5418	0.604
Mof_O 	O 	0.1171	0.6137	0.3649	-0.755
Mof_O 	O 	0.20928	0.59251	0.5042	-0.771
Mof_O 	O 	0.2656	0.7548	0.3627	-0.651
Mof_H 	H 	0.2779	0.8069	0.3533	0.218
Mof_C 	C 	0.0681	0.5372	0.6312	0.133
Mof_H 	H 	0.1156	0.5614	0.6695	-0.037
Mof_C 	C 	0.0677	0.5396	0.5172	-0.283
Mof_C 	C 	0.1375	0.5849	0.4582	0.623
Mof_O 	O 	0.6171	0.1137	0.8649	-0.809
Mof_O 	O 	0.70928	0.09251	0.0042	-0.867
Mof_O 	O 	0.7656	0.2548	0.8627	-0.598
Mof_H 	H 	0.7779	0.3069	0.8533	0.203
Mof_C 	C 	0.5681	0.0372	0.1312	0.32
Mof_H 	H 	0.6156	0.0614	0.1695	-0.104
Mof_C 	C 	0.5677	0.0396	0.0172	-0.663
Mof_C 	C 	0.6375	0.0849	0.9582	0.906
Mof_O 	O 	0.3829	0.8863	0.8649	-0.804
Mof_O 	O 	0.29072	0.90749	0.0042	-0.865
Mof_O 	O 	0.2344	0.7452	0.8627	-0.598
Mof_H 	H 	0.2221	0.6931	0.8533	0.202
Mof_C 	C 	0.4319	0.9628	0.1312	0.342
Mof_H 	H 	0.3844	0.9386	0.1695	-0.106
Mof_C 	C 	0.4323	0.9604	0.0172	-0.651
Mof_C 	C 	0.3625	0.9151	0.9582	0.911
Mof_O 	O 	0.8829	0.3863	0.3649	-0.754
Mof_O 	O 	0.79072	0.40749	0.5042	-0.769
Mof_O 	O 	0.7344	0.2452	0.3627	-0.65
Mof_H 	H 	0.7221	0.1931	0.3533	0.216
Mof_C 	C 	0.9319	0.4628	0.6312	0.139
Mof_H 	H 	0.8844	0.4386	0.6695	-0.038
Mof_C 	C 	0.9323	0.4604	0.5172	-0.278
Mof_C 	C 	0.8625	0.4151	0.4582	0.623
Mof_O 	O 	0.1137	0.8829	0.1149	-0.722
Mof_O 	O 	0.09251	0.79072	0.2542	-0.759
Mof_O 	O 	0.2548	0.7344	0.1127	-0.609
Mof_H 	H 	0.3069	0.7221	0.1033	0.188
Mof_C 	C 	0.0372	0.9319	0.3812	0.099
Mof_H 	H 	0.0614	0.8844	0.4195	-0.024
Mof_C 	C 	0.0396	0.9323	0.2672	-0.233
Mof_C 	C 	0.0849	0.8625	0.2082	0.594
Mof_O 	O 	0.6137	0.3829	0.6149	-0.747
Mof_O 	O 	0.59251	0.29072	0.7542	-0.762
Mof_O 	O 	0.7548	0.2344	0.6127	-0.658
Mof_H 	H 	0.8069	0.2221	0.6033	0.217
Mof_C 	C 	0.5372	0.4319	0.8812	0.003
Mof_H 	H 	0.5614	0.3844	0.9195	0.033
Mof_C 	C 	0.5396	0.4323	0.7672	-0.206
Mof_C 	C 	0.5849	0.3625	0.7082	0.601
Mof_O 	O 	0.3863	0.6171	0.6149	-0.748
Mof_O 	O 	0.40749	0.70928	0.7542	-0.76
Mof_O 	O 	0.2452	0.7656	0.6127	-0.659
Mof_H 	H 	0.1931	0.7779	0.6033	0.218
Mof_C 	C 	0.4628	0.5681	0.8812	0.003
Mof_H 	H 	0.4386	0.6156	0.9195	0.034
Mof_C 	C 	0.4604	0.5677	0.7672	-0.205
Mof_C 	C 	0.4151	0.6375	0.7082	0.601
Mof_O 	O 	0.8863	0.1171	0.1149	-0.727
Mof_O 	O 	0.90749	0.20928	0.2542	-0.76
Mof_O 	O 	0.7452	0.2656	0.1127	-0.61
Mof_H 	H 	0.6931	0.2779	0.1033	0.188
Mof_C 	C 	0.9628	0.0681	0.3812	0.084
Mof_H 	H 	0.9386	0.1156	0.4195	-0.021
Mof_C 	C 	0.9604	0.0677	0.2672	-0.245
Mof_C 	C 	0.9151	0.1375	0.2082	0.595
Mof_In	In	0.31142	0.68858	0.5	2.982
Mof_In	In	0.81142	0.18858	-0	2.665
Mof_In	In	0.18858	0.81142	-0	2.665
Mof_In	In	0.68858	0.31142	0.5	2.981
Mof_In	In	0.31142	0.81142	0.75	3.031
Mof_In	In	0.81142	0.31142	0.25	2.938
Mof_In	In	0.18858	0.68858	0.25	2.939
Mof_In	In	0.68858	0.18858	0.75	3.026
Mof_C 	C 	0.5	0.5	0.0602	-0.225
Mof_C 	C 	0.5	0.5	0.2886	0.213
Mof_H 	H 	0.5	0.5	0.3658	-0.021
Mof_C 	C 	1.6697e-33	0	0.5602	-0.078
Mof_C 	C 	-6.20519e-33	0	0.7886	0.114
Mof_H 	H 	2.58055e-33	0	0.8658	0.021
Mof_C 	C 	0.5	0	0.3102	0.003
Mof_C 	C 	0.5	-4.27782e-33	0.5386	0.118
Mof_H 	H 	0.5	-4.27782e-33	0.6158	0.01
Mof_C 	C 	2.41483e-33	0.5	0.8102	0.14
Mof_C 	C 	2.78869e-33	0.5	0.0386	-0.359
Mof_H 	H 	3.45146e-34	0.5	0.1158	0.153
Mof_C 	C 	-2.22185e-33	0.5	0.6898	-0.159
Mof_C 	C 	5.65304e-33	0.5	0.4614	0.193
Mof_H 	H 	-9.9379e-34	0.5	0.3842	-0.022
Mof_C 	C 	0.5	0	0.1898	-0.273
Mof_C 	C 	0.5	0	0.9614	0.647
Mof_H 	H 	0.5	0	0.8842	-0.156
Mof_C 	C 	1.31084e-33	0	0.4398	-0.09
Mof_C 	C 	-1.50883e-33	0	0.2114	0.134
Mof_H 	H 	-6.69468e-34	0	0.1342	-0.018
Mof_C 	C 	0.5	0.5	0.9398	0.101
Mof_C 	C 	0.5	0.5	0.7114	0.136
Mof_H 	H 	0.5	0.5	0.6342	0.006
_end
