data_functionalizedCrystal
_audit_creation_method	'EQeq! by Chris Wilmer'
_symmetry_space_group_name_H-M	'P1'
_symmetry_Int_Tables_number	1
_symmetry_cell_setting	triclinic
loop_
_symmetry_equiv_pos_as_xyz
  x,y,z
_cell_length_a	22.5756
_cell_length_b	29.6302
_cell_length_c	28.208
_cell_angle_alpha	90
_cell_angle_beta	90
_cell_angle_gamma	90
loop_
_atom_site_label
_atom_site_type_symbol
_atom_site_fract_x
_atom_site_fract_y
_atom_site_fract_z
_atom_site_charge
Mof_Zn	Zn	0.35714	0.1264	0.65802	1.236
Mof_Zn	Zn	0.42135	0.12495	0.77307	1.18
Mof_Zn	Zn	0.85414	0.37189	0.86128	1.233
Mof_Zn	Zn	0.76101	0.45867	0.90002	1.177
Mof_Zn	Zn	0.85714	0.8736	0.84198	1.235
Mof_Zn	Zn	0.92135	0.87505	0.72693	1.179
Mof_Zn	Zn	0.35414	0.62811	0.63872	1.233
Mof_Zn	Zn	0.26101	0.54133	0.59998	1.177
Mof_Zn	Zn	0.64286	0.8736	0.34198	1.235
Mof_Zn	Zn	0.57865	0.87505	0.22693	1.179
Mof_Zn	Zn	0.14586	0.62811	0.13872	1.233
Mof_Zn	Zn	0.23899	0.54133	0.09998	1.177
Mof_Zn	Zn	0.14286	0.1264	0.15802	1.235
Mof_Zn	Zn	0.07865	0.12495	0.27307	1.179
Mof_Zn	Zn	0.64586	0.37189	0.36128	1.233
Mof_Zn	Zn	0.73899	0.45867	0.40002	1.177
Mof_Si	Si	0.56181	0.37765	0.66004	0.764
Mof_Si	Si	0.06176	0.12215	0.85771	0.791
Mof_Si	Si	0.06181	0.62235	0.83996	0.764
Mof_Si	Si	0.56176	0.87785	0.64229	0.791
Mof_Si	Si	0.43819	0.62235	0.33996	0.764
Mof_Si	Si	0.93824	0.87785	0.14229	0.791
Mof_Si	Si	0.93819	0.37765	0.16004	0.764
Mof_Si	Si	0.43824	0.12215	0.35771	0.791
Mof_H 	H 	0.475	0.3201	0.6095	-0.009
Mof_H 	H 	0.4252	0.2537	0.6254	0.062
Mof_H 	H 	0.5082	0.2446	0.751	0.061
Mof_H 	H 	0.5577	0.3107	0.7351	-0.003
Mof_H 	H 	0.5657	0.4121	0.7538	-0.007
Mof_H 	H 	0.6348	0.4153	0.8155	0.055
Mof_H 	H 	0.7584	0.3584	0.7302	0.068
Mof_H 	H 	0.6893	0.3552	0.6684	-0.006
Mof_H 	H 	0.628	0.4428	0.61	-0.014
Mof_H 	H 	0.6692	0.4512	0.5344	0.054
Mof_H 	H 	0.6131	0.3257	0.4994	0.069
Mof_H 	H 	0.5719	0.3173	0.575	-0.007
Mof_H 	H 	0.5685	0.476	0.6611	-0.012
Mof_H 	H 	0.5033	0.535	0.654	0.032
Mof_H 	H 	0.3666	0.4483	0.6614	0.05
Mof_H 	H 	0.433	0.3889	0.6682	-0.006
Mof_H 	H 	0.1897	0.1173	0.8705	-0.013
Mof_H 	H 	0.2735	0.1172	0.8233	0.038
Mof_H 	H 	0.1698	0.145	0.7105	0.068
Mof_H 	H 	0.0884	0.1448	0.758	-0.016
Mof_H 	H 	0.0746	0.2204	0.8508	-0.024
Mof_H 	H 	0.0103	0.2824	0.8509	0.053
Mof_H 	H 	0.8711	0.1992	0.8507	0.086
Mof_H 	H 	0.9333	0.1372	0.8504	-0.018
Mof_H 	H 	0.0673	0.0567	0.7787	-0.006
Mof_H 	H 	0.0189	0.9904	0.7587	0.066
Mof_H 	H 	0.9192	0.9999	0.8771	0.064
Mof_H 	H 	0.9667	0.0667	0.8963	-0.018
Mof_H 	H 	0.1034	0.0469	0.9161	-0.016
Mof_H 	H 	0.1403	0.0375	0.9914	0.064
Mof_H 	H 	0.1124	0.1669	0.0209	0.08
Mof_H 	H 	0.0753	0.1787	0.9436	-0.018
Mof_H 	H 	0.975	0.6799	0.8905	-0.009
Mof_H 	H 	0.9252	0.7463	0.8746	0.062
Mof_H 	H 	0.0082	0.7554	0.749	0.061
Mof_H 	H 	0.0577	0.6893	0.7649	-0.003
Mof_H 	H 	0.0657	0.5879	0.7462	-0.007
Mof_H 	H 	0.1348	0.5847	0.6845	0.055
Mof_H 	H 	0.2584	0.6416	0.7698	0.068
Mof_H 	H 	0.1893	0.6448	0.8316	-0.006
Mof_H 	H 	0.128	0.5572	0.89	-0.014
Mof_H 	H 	0.1692	0.5488	0.9656	0.054
Mof_H 	H 	0.1131	0.6743	0.0006	0.069
Mof_H 	H 	0.0719	0.6827	0.925	-0.007
Mof_H 	H 	0.0685	0.524	0.8389	-0.012
Mof_H 	H 	0.0033	0.465	0.846	0.032
Mof_H 	H 	0.8666	0.5517	0.8386	0.05
Mof_H 	H 	0.933	0.6111	0.8318	-0.006
Mof_H 	H 	0.6897	0.8827	0.6295	-0.013
Mof_H 	H 	0.7735	0.8828	0.6767	0.038
Mof_H 	H 	0.6698	0.855	0.7895	0.068
Mof_H 	H 	0.5884	0.8552	0.742	-0.016
Mof_H 	H 	0.5746	0.7796	0.6492	-0.024
Mof_H 	H 	0.5103	0.7176	0.6491	0.052
Mof_H 	H 	0.3711	0.8008	0.6493	0.086
Mof_H 	H 	0.4333	0.8628	0.6496	-0.018
Mof_H 	H 	0.5673	0.9433	0.7213	-0.006
Mof_H 	H 	0.5189	0.0096	0.7413	0.066
Mof_H 	H 	0.4192	0.0001	0.6229	0.063
Mof_H 	H 	0.4667	0.9333	0.6037	-0.018
Mof_H 	H 	0.6034	0.9531	0.5839	-0.016
Mof_H 	H 	0.6403	0.9625	0.5086	0.064
Mof_H 	H 	0.6124	0.8331	0.4791	0.081
Mof_H 	H 	0.5753	0.8213	0.5564	-0.018
Mof_H 	H 	0.525	0.6799	0.3905	-0.009
Mof_H 	H 	0.5748	0.7463	0.3746	0.062
Mof_H 	H 	0.4918	0.7554	0.249	0.061
Mof_H 	H 	0.4423	0.6893	0.2649	-0.003
Mof_H 	H 	0.4343	0.5879	0.2462	-0.007
Mof_H 	H 	0.3652	0.5847	0.1845	0.055
Mof_H 	H 	0.2416	0.6416	0.2698	0.068
Mof_H 	H 	0.3107	0.6448	0.3316	-0.006
Mof_H 	H 	0.372	0.5572	0.39	-0.014
Mof_H 	H 	0.3308	0.5488	0.4656	0.054
Mof_H 	H 	0.3869	0.6743	0.5006	0.069
Mof_H 	H 	0.4281	0.6827	0.425	-0.007
Mof_H 	H 	0.4315	0.524	0.3389	-0.012
Mof_H 	H 	0.4967	0.465	0.346	0.032
Mof_H 	H 	0.6334	0.5517	0.3386	0.05
Mof_H 	H 	0.567	0.6111	0.3318	-0.006
Mof_H 	H 	0.8103	0.8827	0.1295	-0.013
Mof_H 	H 	0.7265	0.8828	0.1767	0.038
Mof_H 	H 	0.8302	0.855	0.2895	0.068
Mof_H 	H 	0.9116	0.8552	0.242	-0.016
Mof_H 	H 	0.9254	0.7796	0.1492	-0.024
Mof_H 	H 	0.9897	0.7176	0.1491	0.053
Mof_H 	H 	0.1289	0.8008	0.1493	0.086
Mof_H 	H 	0.0667	0.8628	0.1496	-0.018
Mof_H 	H 	0.9327	0.9433	0.2213	-0.006
Mof_H 	H 	0.9811	0.0096	0.2413	0.066
Mof_H 	H 	0.0808	0.0001	0.1229	0.064
Mof_H 	H 	0.0333	0.9333	0.1037	-0.018
Mof_H 	H 	0.8966	0.9531	0.0839	-0.016
Mof_H 	H 	0.8597	0.9625	0.0086	0.064
Mof_H 	H 	0.8876	0.8331	0.9791	0.08
Mof_H 	H 	0.9247	0.8213	0.0564	-0.018
Mof_H 	H 	0.025	0.3201	0.1095	-0.009
Mof_H 	H 	0.0748	0.2537	0.1254	0.062
Mof_H 	H 	0.9918	0.2446	0.251	0.061
Mof_H 	H 	0.9423	0.3107	0.2351	-0.003
Mof_H 	H 	0.9343	0.4121	0.2538	-0.007
Mof_H 	H 	0.8652	0.4153	0.3155	0.055
Mof_H 	H 	0.7416	0.3584	0.2302	0.068
Mof_H 	H 	0.8107	0.3552	0.1684	-0.006
Mof_H 	H 	0.872	0.4428	0.11	-0.014
Mof_H 	H 	0.8308	0.4512	0.0344	0.054
Mof_H 	H 	0.8869	0.3257	0.9994	0.069
Mof_H 	H 	0.9281	0.3173	0.075	-0.007
Mof_H 	H 	0.9315	0.476	0.1611	-0.012
Mof_H 	H 	0.9967	0.535	0.154	0.032
Mof_H 	H 	0.1334	0.4483	0.1614	0.05
Mof_H 	H 	0.067	0.3889	0.1682	-0.006
Mof_H 	H 	0.3103	0.1173	0.3705	-0.013
Mof_H 	H 	0.2265	0.1172	0.3233	0.038
Mof_H 	H 	0.3302	0.145	0.2105	0.068
Mof_H 	H 	0.4116	0.1448	0.258	-0.016
Mof_H 	H 	0.4254	0.2204	0.3508	-0.024
Mof_H 	H 	0.4897	0.2824	0.3509	0.052
Mof_H 	H 	0.6289	0.1992	0.3507	0.086
Mof_H 	H 	0.5667	0.1372	0.3504	-0.018
Mof_H 	H 	0.4327	0.0567	0.2787	-0.006
Mof_H 	H 	0.4811	0.9904	0.2587	0.066
Mof_H 	H 	0.5808	0.9999	0.3771	0.063
Mof_H 	H 	0.5333	0.0667	0.3963	-0.018
Mof_H 	H 	0.3966	0.0469	0.4161	-0.016
Mof_H 	H 	0.3597	0.0375	0.4914	0.064
Mof_H 	H 	0.3876	0.1669	0.5209	0.081
Mof_H 	H 	0.4247	0.1787	0.4436	-0.018
Mof_C 	C 	0.52233	0.32325	0.67128	-0.268
Mof_C 	C 	0.4822	0.30473	0.63855	0.07
Mof_C 	C 	0.4532	0.26495	0.6476	-0.066
Mof_C 	C 	0.4644	0.24109	0.68876	-0.071
Mof_C 	C 	0.502	0.25951	0.72153	-0.068
Mof_C 	C 	0.5307	0.29929	0.71219	0.077
Mof_C 	C 	0.4351	0.19689	0.6977	0.427
Mof_C 	C 	0.621	0.38338	0.70529	-0.268
Mof_C 	C 	0.6048	0.4012	0.749	0.069
Mof_C 	C 	0.6459	0.4031	0.78566	-0.074
Mof_C 	C 	0.7031	0.3872	0.77864	-0.05
Mof_C 	C 	0.7193	0.3693	0.735	-0.073
Mof_C 	C 	0.6783	0.3674	0.69828	0.076
Mof_C 	C 	0.746	0.3902	0.819	0.374
Mof_C 	C 	0.59605	0.37927	0.59959	-0.264
Mof_C 	C 	0.625	0.41906	0.58753	0.068
Mof_C 	C 	0.6495	0.42404	0.54263	-0.075
Mof_C 	C 	0.6451	0.38923	0.50979	-0.049
Mof_C 	C 	0.6161	0.34944	0.52184	-0.08
Mof_C 	C 	0.5916	0.34446	0.56674	0.077
Mof_C 	C 	0.6709	0.3948	0.4611	0.372
Mof_C 	C 	0.50726	0.42589	0.66273	-0.257
Mof_C 	C 	0.5272	0.47007	0.66026	0.059
Mof_C 	C 	0.4884	0.50512	0.65661	-0.054
Mof_C 	C 	0.4275	0.49826	0.6566	-0.083
Mof_C 	C 	0.40792	0.45425	0.66089	-0.062
Mof_C 	C 	0.4476	0.41875	0.66446	0.066
Mof_C 	C 	0.3858	0.53601	0.6499	0.397
Mof_C 	C 	0.12918	0.12925	0.81941	-0.283
Mof_C 	C 	0.1855	0.12233	0.83744	0.08
Mof_C 	C 	0.2356	0.12241	0.80972	-0.081
Mof_C 	C 	0.22951	0.13026	0.76164	-0.052
Mof_C 	C 	0.1741	0.13877	0.74336	-0.09
Mof_C 	C 	0.126	0.13843	0.77162	0.095
Mof_C 	C 	0.2846	0.12966	0.73187	0.377
Mof_C 	C 	0.01187	0.17158	0.8526	-0.297
Mof_C 	C 	0.03307	0.21538	0.85156	0.1
Mof_C 	C 	0.9946	0.25266	0.8516	-0.11
Mof_C 	C 	0.93492	0.24631	0.85258	0.004
Mof_C 	C 	0.91278	0.20362	0.85145	-0.119
Mof_C 	C 	0.9499	0.16665	0.85135	0.105
Mof_C 	C 	0.8918	0.2863	0.85594	0.3
Mof_C 	C 	0.02202	0.06922	0.84034	-0.278
Mof_C 	C 	0.03699	0.04539	0.79876	0.078
Mof_C 	C 	0.00844	0.00599	0.78685	-0.082
Mof_C 	C 	0.96463	0.98929	0.81591	-0.05
Mof_C 	C 	0.94914	0.01162	0.85694	-0.09
Mof_C 	C 	0.97784	0.05117	0.86818	0.088
Mof_C 	C 	0.93469	0.94599	0.80249	0.394
Mof_C 	C 	0.0868	0.11459	0.92077	-0.287
Mof_C 	C 	0.1056	0.07219	0.93682	0.096
Mof_C 	C 	0.1273	0.0665	0.98171	-0.114
Mof_C 	C 	0.1304	0.1004	0.01167	0.001
Mof_C 	C 	0.1109	0.1427	0.99889	-0.116
Mof_C 	C 	0.0889	0.1496	0.95273	0.103
Mof_C 	C 	0.1532	0.0958	0.0628	0.308
Mof_C 	C 	0.02233	0.67675	0.82872	-0.268
Mof_C 	C 	0.9822	0.69527	0.86145	0.069
Mof_C 	C 	0.9532	0.73505	0.8524	-0.066
Mof_C 	C 	0.9644	0.75891	0.81124	-0.071
Mof_C 	C 	0.002	0.74049	0.77847	-0.068
Mof_C 	C 	0.0307	0.70071	0.78781	0.077
Mof_C 	C 	0.9351	0.80311	0.8023	0.427
Mof_C 	C 	0.121	0.61662	0.79471	-0.268
Mof_C 	C 	0.1048	0.5988	0.751	0.069
Mof_C 	C 	0.1459	0.5969	0.71434	-0.074
Mof_C 	C 	0.2031	0.6128	0.72136	-0.051
Mof_C 	C 	0.2193	0.6307	0.765	-0.073
Mof_C 	C 	0.1783	0.6326	0.80172	0.076
Mof_C 	C 	0.246	0.6098	0.681	0.374
Mof_C 	C 	0.09605	0.62073	0.90041	-0.263
Mof_C 	C 	0.125	0.58094	0.91247	0.068
Mof_C 	C 	0.1495	0.57596	0.95737	-0.074
Mof_C 	C 	0.1451	0.61077	0.99021	-0.049
Mof_C 	C 	0.1161	0.65056	0.97816	-0.08
Mof_C 	C 	0.0916	0.65554	0.93326	0.077
Mof_C 	C 	0.1709	0.6052	0.0389	0.372
Mof_C 	C 	0.00726	0.57411	0.83727	-0.258
Mof_C 	C 	0.0272	0.52993	0.83974	0.06
Mof_C 	C 	0.9884	0.49488	0.84339	-0.055
Mof_C 	C 	0.9275	0.50174	0.8434	-0.082
Mof_C 	C 	0.90792	0.54575	0.83911	-0.062
Mof_C 	C 	0.9476	0.58125	0.83554	0.066
Mof_C 	C 	0.8858	0.46399	0.8501	0.397
Mof_C 	C 	0.62918	0.87075	0.68059	-0.282
Mof_C 	C 	0.6855	0.87767	0.66256	0.08
Mof_C 	C 	0.7356	0.87759	0.69028	-0.081
Mof_C 	C 	0.72951	0.86974	0.73836	-0.052
Mof_C 	C 	0.6741	0.86123	0.75664	-0.09
Mof_C 	C 	0.626	0.86157	0.72838	0.095
Mof_C 	C 	0.7846	0.87034	0.76813	0.377
Mof_C 	C 	0.51187	0.82842	0.6474	-0.297
Mof_C 	C 	0.53307	0.78462	0.64844	0.1
Mof_C 	C 	0.4946	0.74734	0.6484	-0.109
Mof_C 	C 	0.43492	0.75369	0.64742	0.004
Mof_C 	C 	0.41278	0.79638	0.64855	-0.119
Mof_C 	C 	0.4499	0.83335	0.64865	0.105
Mof_C 	C 	0.3918	0.7137	0.64406	0.3
Mof_C 	C 	0.52202	0.93078	0.65966	-0.278
Mof_C 	C 	0.53699	0.95461	0.70124	0.077
Mof_C 	C 	0.50844	0.99401	0.71315	-0.081
Mof_C 	C 	0.46463	0.01071	0.68409	-0.051
Mof_C 	C 	0.44914	0.98838	0.64306	-0.089
Mof_C 	C 	0.47784	0.94883	0.63182	0.088
Mof_C 	C 	0.43469	0.05401	0.69751	0.394
Mof_C 	C 	0.5868	0.88541	0.57923	-0.287
Mof_C 	C 	0.6056	0.92781	0.56318	0.096
Mof_C 	C 	0.6273	0.9335	0.51829	-0.114
Mof_C 	C 	0.6304	0.8996	0.48833	0.001
Mof_C 	C 	0.6109	0.8573	0.50111	-0.116
Mof_C 	C 	0.5889	0.8504	0.54727	0.103
Mof_C 	C 	0.6532	0.9042	0.4372	0.308
Mof_C 	C 	0.47767	0.67675	0.32872	-0.268
Mof_C 	C 	0.5178	0.69527	0.36145	0.07
Mof_C 	C 	0.5468	0.73505	0.3524	-0.066
Mof_C 	C 	0.5356	0.75891	0.31124	-0.071
Mof_C 	C 	0.498	0.74049	0.27847	-0.068
Mof_C 	C 	0.4693	0.70071	0.28781	0.077
Mof_C 	C 	0.5649	0.80311	0.3023	0.427
Mof_C 	C 	0.379	0.61662	0.29471	-0.268
Mof_C 	C 	0.3952	0.5988	0.251	0.069
Mof_C 	C 	0.3541	0.5969	0.21434	-0.074
Mof_C 	C 	0.2969	0.6128	0.22136	-0.05
Mof_C 	C 	0.2807	0.6307	0.265	-0.073
Mof_C 	C 	0.3217	0.6326	0.30172	0.076
Mof_C 	C 	0.254	0.6098	0.181	0.374
Mof_C 	C 	0.40395	0.62073	0.40041	-0.264
Mof_C 	C 	0.375	0.58094	0.41247	0.068
Mof_C 	C 	0.3505	0.57596	0.45737	-0.075
Mof_C 	C 	0.3549	0.61077	0.49021	-0.049
Mof_C 	C 	0.3839	0.65056	0.47816	-0.08
Mof_C 	C 	0.4084	0.65554	0.43326	0.077
Mof_C 	C 	0.3291	0.6052	0.5389	0.372
Mof_C 	C 	0.49274	0.57411	0.33727	-0.257
Mof_C 	C 	0.4728	0.52993	0.33974	0.059
Mof_C 	C 	0.5116	0.49488	0.34339	-0.054
Mof_C 	C 	0.5725	0.50174	0.3434	-0.083
Mof_C 	C 	0.59208	0.54575	0.33911	-0.062
Mof_C 	C 	0.5524	0.58125	0.33554	0.066
Mof_C 	C 	0.6142	0.46399	0.3501	0.397
Mof_C 	C 	0.87082	0.87075	0.18059	-0.283
Mof_C 	C 	0.8145	0.87767	0.16256	0.08
Mof_C 	C 	0.7644	0.87759	0.19028	-0.081
Mof_C 	C 	0.77049	0.86974	0.23836	-0.052
Mof_C 	C 	0.8259	0.86123	0.25664	-0.09
Mof_C 	C 	0.874	0.86157	0.22838	0.095
Mof_C 	C 	0.7154	0.87034	0.26813	0.377
Mof_C 	C 	0.98813	0.82842	0.1474	-0.297
Mof_C 	C 	0.96693	0.78462	0.14844	0.1
Mof_C 	C 	0.0054	0.74734	0.1484	-0.11
Mof_C 	C 	0.06508	0.75369	0.14742	0.004
Mof_C 	C 	0.08722	0.79638	0.14855	-0.119
Mof_C 	C 	0.0501	0.83335	0.14865	0.105
Mof_C 	C 	0.1082	0.7137	0.14406	0.3
Mof_C 	C 	0.97798	0.93078	0.15966	-0.278
Mof_C 	C 	0.96301	0.95461	0.20124	0.078
Mof_C 	C 	0.99156	0.99401	0.21315	-0.082
Mof_C 	C 	0.03537	0.01071	0.18409	-0.05
Mof_C 	C 	0.05086	0.98838	0.14306	-0.09
Mof_C 	C 	0.02216	0.94883	0.13182	0.088
Mof_C 	C 	0.06531	0.05401	0.19751	0.394
Mof_C 	C 	0.9132	0.88541	0.07923	-0.287
Mof_C 	C 	0.8944	0.92781	0.06318	0.096
Mof_C 	C 	0.8727	0.9335	0.01829	-0.114
Mof_C 	C 	0.8696	0.8996	0.98833	0.001
Mof_C 	C 	0.8891	0.8573	0.00111	-0.116
Mof_C 	C 	0.9111	0.8504	0.04727	0.103
Mof_C 	C 	0.8468	0.9042	0.9372	0.308
Mof_C 	C 	0.97767	0.32325	0.17128	-0.268
Mof_C 	C 	0.0178	0.30473	0.13855	0.069
Mof_C 	C 	0.0468	0.26495	0.1476	-0.066
Mof_C 	C 	0.0356	0.24109	0.18876	-0.071
Mof_C 	C 	0.998	0.25951	0.22153	-0.068
Mof_C 	C 	0.9693	0.29929	0.21219	0.077
Mof_C 	C 	0.0649	0.19689	0.1977	0.427
Mof_C 	C 	0.879	0.38338	0.20529	-0.268
Mof_C 	C 	0.8952	0.4012	0.249	0.069
Mof_C 	C 	0.8541	0.4031	0.28566	-0.074
Mof_C 	C 	0.7969	0.3872	0.27864	-0.051
Mof_C 	C 	0.7807	0.3693	0.235	-0.073
Mof_C 	C 	0.8217	0.3674	0.19828	0.076
Mof_C 	C 	0.754	0.3902	0.319	0.374
Mof_C 	C 	0.90395	0.37927	0.09959	-0.263
Mof_C 	C 	0.875	0.41906	0.08753	0.068
Mof_C 	C 	0.8505	0.42404	0.04263	-0.074
Mof_C 	C 	0.8549	0.38923	0.00979	-0.049
Mof_C 	C 	0.8839	0.34944	0.02184	-0.08
Mof_C 	C 	0.9084	0.34446	0.06674	0.077
Mof_C 	C 	0.8291	0.3948	0.9611	0.372
Mof_C 	C 	0.99274	0.42589	0.16273	-0.258
Mof_C 	C 	0.9728	0.47007	0.16026	0.06
Mof_C 	C 	0.0116	0.50512	0.15661	-0.055
Mof_C 	C 	0.0725	0.49826	0.1566	-0.082
Mof_C 	C 	0.09208	0.45425	0.16089	-0.062
Mof_C 	C 	0.0524	0.41875	0.16446	0.066
Mof_C 	C 	0.1142	0.53601	0.1499	0.397
Mof_C 	C 	0.37082	0.12925	0.31941	-0.282
Mof_C 	C 	0.3145	0.12233	0.33744	0.08
Mof_C 	C 	0.2644	0.12241	0.30972	-0.081
Mof_C 	C 	0.27049	0.13026	0.26164	-0.052
Mof_C 	C 	0.3259	0.13877	0.24336	-0.09
Mof_C 	C 	0.374	0.13843	0.27162	0.095
Mof_C 	C 	0.2154	0.12966	0.23187	0.377
Mof_C 	C 	0.48813	0.17158	0.3526	-0.297
Mof_C 	C 	0.46693	0.21538	0.35156	0.1
Mof_C 	C 	0.5054	0.25266	0.3516	-0.109
Mof_C 	C 	0.56508	0.24631	0.35258	0.004
Mof_C 	C 	0.58722	0.20362	0.35145	-0.119
Mof_C 	C 	0.5501	0.16665	0.35135	0.105
Mof_C 	C 	0.6082	0.2863	0.35594	0.3
Mof_C 	C 	0.47798	0.06922	0.34034	-0.278
Mof_C 	C 	0.46301	0.04539	0.29876	0.077
Mof_C 	C 	0.49156	0.00599	0.28685	-0.081
Mof_C 	C 	0.53537	0.98929	0.31591	-0.051
Mof_C 	C 	0.55086	0.01162	0.35694	-0.089
Mof_C 	C 	0.52216	0.05117	0.36818	0.088
Mof_C 	C 	0.56531	0.94599	0.30249	0.394
Mof_C 	C 	0.4132	0.11459	0.42077	-0.287
Mof_C 	C 	0.3944	0.07219	0.43682	0.096
Mof_C 	C 	0.3727	0.0665	0.48171	-0.114
Mof_C 	C 	0.3696	0.1004	0.51167	0.001
Mof_C 	C 	0.3891	0.1427	0.49889	-0.116
Mof_C 	C 	0.4111	0.1496	0.45273	0.103
Mof_C 	C 	0.3468	0.0958	0.5628	0.308
Mof_O 	O 	0.40396	0.18142	0.66554	-0.499
Mof_O 	O 	0.44382	0.17872	0.73695	-0.533
Mof_O 	O 	0.7297	0.41	0.85648	-0.513
Mof_O 	O 	0.7946	0.3703	0.813	-0.478
Mof_O 	O 	0.6914	0.4336	0.4518	-0.519
Mof_O 	O 	0.6587	0.3652	0.4307	-0.47
Mof_O 	O 	0.40575	0.57559	0.64954	-0.486
Mof_O 	O 	0.33222	0.52757	0.64587	-0.5
Mof_O 	O 	0.3327	0.12598	0.75154	-0.533
Mof_O 	O 	0.27809	0.131	0.68703	-0.467
Mof_O 	O 	0.91499	0.32514	0.84932	-0.434
Mof_O 	O 	0.84003	0.28089	0.86509	-0.297
Mof_O 	O 	0.94319	0.93037	0.76199	-0.518
Mof_O 	O 	0.90143	0.92913	0.83399	-0.493
Mof_O 	O 	0.1684	0.0548	0.0739	-0.321
Mof_O 	O 	0.1498	0.12893	0.08926	-0.445
Mof_O 	O 	0.90396	0.81858	0.83446	-0.499
Mof_O 	O 	0.94382	0.82128	0.76305	-0.533
Mof_O 	O 	0.2297	0.59	0.64352	-0.513
Mof_O 	O 	0.2946	0.6297	0.687	-0.478
Mof_O 	O 	0.1914	0.5664	0.0482	-0.519
Mof_O 	O 	0.1587	0.6348	0.0693	-0.47
Mof_O 	O 	0.90575	0.42441	0.85046	-0.486
Mof_O 	O 	0.83222	0.47243	0.85413	-0.5
Mof_O 	O 	0.8327	0.87402	0.74846	-0.533
Mof_O 	O 	0.77809	0.869	0.81297	-0.467
Mof_O 	O 	0.41499	0.67486	0.65068	-0.434
Mof_O 	O 	0.34003	0.71911	0.63491	-0.297
Mof_O 	O 	0.44319	0.06963	0.73801	-0.518
Mof_O 	O 	0.40143	0.07087	0.66601	-0.493
Mof_O 	O 	0.6684	0.9452	0.4261	-0.321
Mof_O 	O 	0.6498	0.87107	0.41074	-0.445
Mof_O 	O 	0.59604	0.81858	0.33446	-0.499
Mof_O 	O 	0.55618	0.82128	0.26305	-0.533
Mof_O 	O 	0.2703	0.59	0.14352	-0.513
Mof_O 	O 	0.2054	0.6297	0.187	-0.478
Mof_O 	O 	0.3086	0.5664	0.5482	-0.519
Mof_O 	O 	0.3413	0.6348	0.5693	-0.47
Mof_O 	O 	0.59425	0.42441	0.35046	-0.486
Mof_O 	O 	0.66778	0.47243	0.35413	-0.5
Mof_O 	O 	0.6673	0.87402	0.24846	-0.533
Mof_O 	O 	0.72191	0.869	0.31297	-0.467
Mof_O 	O 	0.08501	0.67486	0.15068	-0.434
Mof_O 	O 	0.15997	0.71911	0.13491	-0.297
Mof_O 	O 	0.05681	0.06963	0.23801	-0.518
Mof_O 	O 	0.09857	0.07087	0.16601	-0.493
Mof_O 	O 	0.8316	0.9452	0.9261	-0.321
Mof_O 	O 	0.8502	0.87107	0.91074	-0.445
Mof_O 	O 	0.09604	0.18142	0.16554	-0.499
Mof_O 	O 	0.05618	0.17872	0.23695	-0.533
Mof_O 	O 	0.7703	0.41	0.35648	-0.513
Mof_O 	O 	0.7054	0.3703	0.313	-0.478
Mof_O 	O 	0.8086	0.4336	0.9518	-0.519
Mof_O 	O 	0.8413	0.3652	0.9307	-0.47
Mof_O 	O 	0.09425	0.57559	0.14954	-0.486
Mof_O 	O 	0.16778	0.52757	0.14587	-0.5
Mof_O 	O 	0.1673	0.12598	0.25154	-0.533
Mof_O 	O 	0.22191	0.131	0.18703	-0.467
Mof_O 	O 	0.58501	0.32514	0.34932	-0.434
Mof_O 	O 	0.65997	0.28089	0.36509	-0.297
Mof_O 	O 	0.55681	0.93037	0.26199	-0.518
Mof_O 	O 	0.59857	0.92913	0.33399	-0.493
Mof_O 	O 	0.3316	0.0548	0.5739	-0.321
Mof_O 	O 	0.3502	0.12893	0.58926	-0.445
Mof_Zn	Zn	0.14286	0.3736	0.65802	1.235
Mof_Zn	Zn	0.07865	0.37505	0.77307	1.179
Mof_Zn	Zn	0.64586	0.12811	0.86128	1.233
Mof_Zn	Zn	0.73899	0.04133	0.90002	1.177
Mof_Zn	Zn	0.64286	0.6264	0.84198	1.235
Mof_Zn	Zn	0.57865	0.62495	0.72693	1.179
Mof_Zn	Zn	0.14586	0.87189	0.63872	1.233
Mof_Zn	Zn	0.23899	0.95867	0.59998	1.177
Mof_Zn	Zn	0.85714	0.6264	0.34198	1.235
Mof_Zn	Zn	0.92135	0.62495	0.22693	1.179
Mof_Zn	Zn	0.35414	0.87189	0.13872	1.233
Mof_Zn	Zn	0.26101	0.95867	0.09998	1.177
Mof_Zn	Zn	0.35714	0.3736	0.15802	1.235
Mof_Zn	Zn	0.42135	0.37505	0.27307	1.179
Mof_Zn	Zn	0.85414	0.12811	0.36128	1.233
Mof_Zn	Zn	0.76101	0.04133	0.40002	1.177
Mof_Si	Si	0.93819	0.12235	0.66004	0.764
Mof_Si	Si	0.43824	0.37785	0.85771	0.791
Mof_Si	Si	0.43819	0.87765	0.83996	0.764
Mof_Si	Si	0.93824	0.62215	0.64229	0.791
Mof_Si	Si	0.06181	0.87765	0.33996	0.764
Mof_Si	Si	0.56176	0.62215	0.14229	0.791
Mof_Si	Si	0.56181	0.12235	0.16004	0.764
Mof_Si	Si	0.06176	0.37785	0.35771	0.791
Mof_H 	H 	0.025	0.1799	0.6095	-0.009
Mof_H 	H 	0.0748	0.2463	0.6254	0.062
Mof_H 	H 	0.9918	0.2554	0.751	0.061
Mof_H 	H 	0.9423	0.1893	0.7351	-0.003
Mof_H 	H 	0.9343	0.0879	0.7538	-0.007
Mof_H 	H 	0.8652	0.0847	0.8155	0.055
Mof_H 	H 	0.7416	0.1416	0.7302	0.068
Mof_H 	H 	0.8107	0.1448	0.6684	-0.006
Mof_H 	H 	0.872	0.0572	0.61	-0.014
Mof_H 	H 	0.8308	0.0488	0.5344	0.054
Mof_H 	H 	0.8869	0.1743	0.4994	0.069
Mof_H 	H 	0.9281	0.1827	0.575	-0.007
Mof_H 	H 	0.9315	0.024	0.6611	-0.012
Mof_H 	H 	0.9967	0.965	0.654	0.032
Mof_H 	H 	0.1334	0.0517	0.6614	0.05
Mof_H 	H 	0.067	0.1111	0.6682	-0.006
Mof_H 	H 	0.3103	0.3827	0.8705	-0.013
Mof_H 	H 	0.2265	0.3828	0.8233	0.038
Mof_H 	H 	0.3302	0.355	0.7105	0.068
Mof_H 	H 	0.4116	0.3552	0.758	-0.016
Mof_H 	H 	0.4254	0.2796	0.8508	-0.024
Mof_H 	H 	0.4897	0.2176	0.8509	0.052
Mof_H 	H 	0.6289	0.3008	0.8507	0.086
Mof_H 	H 	0.5667	0.3628	0.8504	-0.018
Mof_H 	H 	0.4327	0.4433	0.7787	-0.006
Mof_H 	H 	0.4811	0.5096	0.7587	0.066
Mof_H 	H 	0.5808	0.5001	0.8771	0.063
Mof_H 	H 	0.5333	0.4333	0.8963	-0.018
Mof_H 	H 	0.3966	0.4531	0.9161	-0.016
Mof_H 	H 	0.3597	0.4625	0.9914	0.064
Mof_H 	H 	0.3876	0.3331	0.0209	0.081
Mof_H 	H 	0.4247	0.3213	0.9436	-0.018
Mof_H 	H 	0.525	0.8201	0.8905	-0.009
Mof_H 	H 	0.5748	0.7537	0.8746	0.062
Mof_H 	H 	0.4918	0.7446	0.749	0.061
Mof_H 	H 	0.4423	0.8107	0.7649	-0.003
Mof_H 	H 	0.4343	0.9121	0.7462	-0.007
Mof_H 	H 	0.3652	0.9153	0.6845	0.055
Mof_H 	H 	0.2416	0.8584	0.7698	0.068
Mof_H 	H 	0.3107	0.8552	0.8316	-0.006
Mof_H 	H 	0.372	0.9428	0.89	-0.014
Mof_H 	H 	0.3308	0.9512	0.9656	0.054
Mof_H 	H 	0.3869	0.8257	0.0006	0.069
Mof_H 	H 	0.4281	0.8173	0.925	-0.007
Mof_H 	H 	0.4315	0.976	0.8389	-0.012
Mof_H 	H 	0.4967	0.035	0.846	0.032
Mof_H 	H 	0.6334	0.9483	0.8386	0.05
Mof_H 	H 	0.567	0.8889	0.8318	-0.006
Mof_H 	H 	0.8103	0.6173	0.6295	-0.013
Mof_H 	H 	0.7265	0.6172	0.6767	0.038
Mof_H 	H 	0.8302	0.645	0.7895	0.068
Mof_H 	H 	0.9116	0.6448	0.742	-0.016
Mof_H 	H 	0.9254	0.7204	0.6492	-0.024
Mof_H 	H 	0.9897	0.7824	0.6491	0.052
Mof_H 	H 	0.1289	0.6992	0.6493	0.086
Mof_H 	H 	0.0667	0.6372	0.6496	-0.018
Mof_H 	H 	0.9327	0.5567	0.7213	-0.006
Mof_H 	H 	0.9811	0.4904	0.7413	0.066
Mof_H 	H 	0.0808	0.4999	0.6229	0.063
Mof_H 	H 	0.0333	0.5667	0.6037	-0.018
Mof_H 	H 	0.8966	0.5469	0.5839	-0.016
Mof_H 	H 	0.8597	0.5375	0.5086	0.064
Mof_H 	H 	0.8876	0.6669	0.4791	0.081
Mof_H 	H 	0.9247	0.6787	0.5564	-0.018
Mof_H 	H 	0.975	0.8201	0.3905	-0.009
Mof_H 	H 	0.9252	0.7537	0.3746	0.062
Mof_H 	H 	0.0082	0.7446	0.249	0.061
Mof_H 	H 	0.0577	0.8107	0.2649	-0.003
Mof_H 	H 	0.0657	0.9121	0.2462	-0.007
Mof_H 	H 	0.1348	0.9153	0.1845	0.055
Mof_H 	H 	0.2584	0.8584	0.2698	0.068
Mof_H 	H 	0.1893	0.8552	0.3316	-0.006
Mof_H 	H 	0.128	0.9428	0.39	-0.014
Mof_H 	H 	0.1692	0.9512	0.4656	0.054
Mof_H 	H 	0.1131	0.8257	0.5006	0.069
Mof_H 	H 	0.0719	0.8173	0.425	-0.007
Mof_H 	H 	0.0685	0.976	0.3389	-0.012
Mof_H 	H 	0.0033	0.035	0.346	0.032
Mof_H 	H 	0.8666	0.9483	0.3386	0.05
Mof_H 	H 	0.933	0.8889	0.3318	-0.006
Mof_H 	H 	0.6897	0.6173	0.1295	-0.013
Mof_H 	H 	0.7735	0.6172	0.1767	0.038
Mof_H 	H 	0.6698	0.645	0.2895	0.068
Mof_H 	H 	0.5884	0.6448	0.242	-0.016
Mof_H 	H 	0.5746	0.7204	0.1492	-0.024
Mof_H 	H 	0.5103	0.7824	0.1491	0.052
Mof_H 	H 	0.3711	0.6992	0.1493	0.086
Mof_H 	H 	0.4333	0.6372	0.1496	-0.018
Mof_H 	H 	0.5673	0.5567	0.2213	-0.006
Mof_H 	H 	0.5189	0.4904	0.2413	0.066
Mof_H 	H 	0.4192	0.4999	0.1229	0.063
Mof_H 	H 	0.4667	0.5667	0.1037	-0.018
Mof_H 	H 	0.6034	0.5469	0.0839	-0.016
Mof_H 	H 	0.6403	0.5375	0.0086	0.064
Mof_H 	H 	0.6124	0.6669	0.9791	0.081
Mof_H 	H 	0.5753	0.6787	0.0564	-0.018
Mof_H 	H 	0.475	0.1799	0.1095	-0.009
Mof_H 	H 	0.4252	0.2463	0.1254	0.062
Mof_H 	H 	0.5082	0.2554	0.251	0.061
Mof_H 	H 	0.5577	0.1893	0.2351	-0.003
Mof_H 	H 	0.5657	0.0879	0.2538	-0.007
Mof_H 	H 	0.6348	0.0847	0.3155	0.055
Mof_H 	H 	0.7584	0.1416	0.2302	0.068
Mof_H 	H 	0.6893	0.1448	0.1684	-0.006
Mof_H 	H 	0.628	0.0572	0.11	-0.014
Mof_H 	H 	0.6692	0.0488	0.0344	0.054
Mof_H 	H 	0.6131	0.1743	0.9994	0.069
Mof_H 	H 	0.5719	0.1827	0.075	-0.007
Mof_H 	H 	0.5685	0.024	0.1611	-0.012
Mof_H 	H 	0.5033	0.965	0.154	0.032
Mof_H 	H 	0.3666	0.0517	0.1614	0.05
Mof_H 	H 	0.433	0.1111	0.1682	-0.006
Mof_H 	H 	0.1897	0.3827	0.3705	-0.013
Mof_H 	H 	0.2735	0.3828	0.3233	0.038
Mof_H 	H 	0.1698	0.355	0.2105	0.068
Mof_H 	H 	0.0884	0.3552	0.258	-0.016
Mof_H 	H 	0.0746	0.2796	0.3508	-0.024
Mof_H 	H 	0.0103	0.2176	0.3509	0.052
Mof_H 	H 	0.8711	0.3008	0.3507	0.086
Mof_H 	H 	0.9333	0.3628	0.3504	-0.018
Mof_H 	H 	0.0673	0.4433	0.2787	-0.006
Mof_H 	H 	0.0189	0.5096	0.2587	0.066
Mof_H 	H 	0.9192	0.5001	0.3771	0.063
Mof_H 	H 	0.9667	0.4333	0.3963	-0.018
Mof_H 	H 	0.1034	0.4531	0.4161	-0.016
Mof_H 	H 	0.1403	0.4625	0.4914	0.064
Mof_H 	H 	0.1124	0.3331	0.5209	0.081
Mof_H 	H 	0.0753	0.3213	0.4436	-0.018
Mof_C 	C 	0.97767	0.17675	0.67128	-0.268
Mof_C 	C 	0.0178	0.19527	0.63855	0.07
Mof_C 	C 	0.0468	0.23505	0.6476	-0.066
Mof_C 	C 	0.0356	0.25891	0.68876	-0.07
Mof_C 	C 	0.998	0.24049	0.72153	-0.069
Mof_C 	C 	0.9693	0.20071	0.71219	0.077
Mof_C 	C 	0.0649	0.30311	0.6977	0.427
Mof_C 	C 	0.879	0.11662	0.70529	-0.268
Mof_C 	C 	0.8952	0.0988	0.749	0.069
Mof_C 	C 	0.8541	0.0969	0.78566	-0.074
Mof_C 	C 	0.7969	0.1128	0.77864	-0.05
Mof_C 	C 	0.7807	0.1307	0.735	-0.073
Mof_C 	C 	0.8217	0.1326	0.69828	0.076
Mof_C 	C 	0.754	0.1098	0.819	0.374
Mof_C 	C 	0.90395	0.12073	0.59959	-0.264
Mof_C 	C 	0.875	0.08094	0.58753	0.068
Mof_C 	C 	0.8505	0.07596	0.54263	-0.075
Mof_C 	C 	0.8549	0.11077	0.50979	-0.049
Mof_C 	C 	0.8839	0.15056	0.52184	-0.08
Mof_C 	C 	0.9084	0.15554	0.56674	0.077
Mof_C 	C 	0.8291	0.1052	0.4611	0.372
Mof_C 	C 	0.99274	0.07411	0.66273	-0.258
Mof_C 	C 	0.9728	0.02993	0.66026	0.059
Mof_C 	C 	0.0116	0.99488	0.65661	-0.054
Mof_C 	C 	0.0725	0.00174	0.6566	-0.083
Mof_C 	C 	0.09208	0.04575	0.66089	-0.062
Mof_C 	C 	0.0524	0.08125	0.66446	0.066
Mof_C 	C 	0.1142	0.96399	0.6499	0.397
Mof_C 	C 	0.37082	0.37075	0.81941	-0.283
Mof_C 	C 	0.3145	0.37767	0.83744	0.08
Mof_C 	C 	0.2644	0.37759	0.80972	-0.081
Mof_C 	C 	0.27049	0.36974	0.76164	-0.052
Mof_C 	C 	0.3259	0.36123	0.74336	-0.09
Mof_C 	C 	0.374	0.36157	0.77162	0.095
Mof_C 	C 	0.2154	0.37034	0.73187	0.377
Mof_C 	C 	0.48813	0.32842	0.8526	-0.297
Mof_C 	C 	0.46693	0.28462	0.85156	0.1
Mof_C 	C 	0.5054	0.24734	0.8516	-0.109
Mof_C 	C 	0.56508	0.25369	0.85258	0.004
Mof_C 	C 	0.58722	0.29638	0.85145	-0.119
Mof_C 	C 	0.5501	0.33335	0.85135	0.105
Mof_C 	C 	0.6082	0.2137	0.85594	0.3
Mof_C 	C 	0.47798	0.43078	0.84034	-0.278
Mof_C 	C 	0.46301	0.45461	0.79876	0.078
Mof_C 	C 	0.49156	0.49401	0.78685	-0.082
Mof_C 	C 	0.53537	0.51071	0.81591	-0.051
Mof_C 	C 	0.55086	0.48838	0.85694	-0.089
Mof_C 	C 	0.52216	0.44883	0.86818	0.088
Mof_C 	C 	0.56531	0.55401	0.80249	0.394
Mof_C 	C 	0.4132	0.38541	0.92077	-0.287
Mof_C 	C 	0.3944	0.42781	0.93682	0.096
Mof_C 	C 	0.3727	0.4335	0.98171	-0.114
Mof_C 	C 	0.3696	0.3996	0.01167	0.001
Mof_C 	C 	0.3891	0.3573	0.99889	-0.116
Mof_C 	C 	0.4111	0.3504	0.95273	0.103
Mof_C 	C 	0.3468	0.4042	0.0628	0.308
Mof_C 	C 	0.47767	0.82325	0.82872	-0.268
Mof_C 	C 	0.5178	0.80473	0.86145	0.07
Mof_C 	C 	0.5468	0.76495	0.8524	-0.066
Mof_C 	C 	0.5356	0.74109	0.81124	-0.071
Mof_C 	C 	0.498	0.75951	0.77847	-0.068
Mof_C 	C 	0.4693	0.79929	0.78781	0.077
Mof_C 	C 	0.5649	0.69689	0.8023	0.427
Mof_C 	C 	0.379	0.88338	0.79471	-0.268
Mof_C 	C 	0.3952	0.9012	0.751	0.069
Mof_C 	C 	0.3541	0.9031	0.71434	-0.074
Mof_C 	C 	0.2969	0.8872	0.72136	-0.05
Mof_C 	C 	0.2807	0.8693	0.765	-0.073
Mof_C 	C 	0.3217	0.8674	0.80172	0.076
Mof_C 	C 	0.254	0.8902	0.681	0.374
Mof_C 	C 	0.40395	0.87927	0.90041	-0.264
Mof_C 	C 	0.375	0.91906	0.91247	0.068
Mof_C 	C 	0.3505	0.92404	0.95737	-0.075
Mof_C 	C 	0.3549	0.88923	0.99021	-0.049
Mof_C 	C 	0.3839	0.84944	0.97816	-0.08
Mof_C 	C 	0.4084	0.84446	0.93326	0.077
Mof_C 	C 	0.3291	0.8948	0.0389	0.372
Mof_C 	C 	0.49274	0.92589	0.83727	-0.258
Mof_C 	C 	0.4728	0.97007	0.83974	0.06
Mof_C 	C 	0.5116	0.00512	0.84339	-0.055
Mof_C 	C 	0.5725	0.99826	0.8434	-0.082
Mof_C 	C 	0.59208	0.95425	0.83911	-0.062
Mof_C 	C 	0.5524	0.91875	0.83554	0.066
Mof_C 	C 	0.6142	0.03601	0.8501	0.396
Mof_C 	C 	0.87082	0.62925	0.68059	-0.283
Mof_C 	C 	0.8145	0.62233	0.66256	0.08
Mof_C 	C 	0.7644	0.62241	0.69028	-0.081
Mof_C 	C 	0.77049	0.63026	0.73836	-0.052
Mof_C 	C 	0.8259	0.63877	0.75664	-0.09
Mof_C 	C 	0.874	0.63843	0.72838	0.095
Mof_C 	C 	0.7154	0.62966	0.76813	0.377
Mof_C 	C 	0.98813	0.67158	0.6474	-0.297
Mof_C 	C 	0.96693	0.71538	0.64844	0.1
Mof_C 	C 	0.0054	0.75266	0.6484	-0.109
Mof_C 	C 	0.06508	0.74631	0.64742	0.004
Mof_C 	C 	0.08722	0.70362	0.64855	-0.119
Mof_C 	C 	0.0501	0.66665	0.64865	0.105
Mof_C 	C 	0.1082	0.7863	0.64406	0.3
Mof_C 	C 	0.97798	0.56922	0.65966	-0.278
Mof_C 	C 	0.96301	0.54539	0.70124	0.078
Mof_C 	C 	0.99156	0.50599	0.71315	-0.082
Mof_C 	C 	0.03537	0.48929	0.68409	-0.051
Mof_C 	C 	0.05086	0.51162	0.64306	-0.089
Mof_C 	C 	0.02216	0.55117	0.63182	0.088
Mof_C 	C 	0.06531	0.44599	0.69751	0.394
Mof_C 	C 	0.9132	0.61459	0.57923	-0.287
Mof_C 	C 	0.8944	0.57219	0.56318	0.096
Mof_C 	C 	0.8727	0.5665	0.51829	-0.114
Mof_C 	C 	0.8696	0.6004	0.48833	0.001
Mof_C 	C 	0.8891	0.6427	0.50111	-0.116
Mof_C 	C 	0.9111	0.6496	0.54727	0.103
Mof_C 	C 	0.8468	0.5958	0.4372	0.308
Mof_C 	C 	0.02233	0.82325	0.32872	-0.268
Mof_C 	C 	0.9822	0.80473	0.36145	0.07
Mof_C 	C 	0.9532	0.76495	0.3524	-0.066
Mof_C 	C 	0.9644	0.74109	0.31124	-0.07
Mof_C 	C 	0.002	0.75951	0.27847	-0.069
Mof_C 	C 	0.0307	0.79929	0.28781	0.077
Mof_C 	C 	0.9351	0.69689	0.3023	0.427
Mof_C 	C 	0.121	0.88338	0.29471	-0.268
Mof_C 	C 	0.1048	0.9012	0.251	0.069
Mof_C 	C 	0.1459	0.9031	0.21434	-0.074
Mof_C 	C 	0.2031	0.8872	0.22136	-0.05
Mof_C 	C 	0.2193	0.8693	0.265	-0.073
Mof_C 	C 	0.1783	0.8674	0.30172	0.076
Mof_C 	C 	0.246	0.8902	0.181	0.374
Mof_C 	C 	0.09605	0.87927	0.40041	-0.264
Mof_C 	C 	0.125	0.91906	0.41247	0.068
Mof_C 	C 	0.1495	0.92404	0.45737	-0.075
Mof_C 	C 	0.1451	0.88923	0.49021	-0.049
Mof_C 	C 	0.1161	0.84944	0.47816	-0.08
Mof_C 	C 	0.0916	0.84446	0.43326	0.077
Mof_C 	C 	0.1709	0.8948	0.5389	0.372
Mof_C 	C 	0.00726	0.92589	0.33727	-0.258
Mof_C 	C 	0.0272	0.97007	0.33974	0.059
Mof_C 	C 	0.9884	0.00512	0.34339	-0.054
Mof_C 	C 	0.9275	0.99826	0.3434	-0.083
Mof_C 	C 	0.90792	0.95425	0.33911	-0.062
Mof_C 	C 	0.9476	0.91875	0.33554	0.066
Mof_C 	C 	0.8858	0.03601	0.3501	0.397
Mof_C 	C 	0.62918	0.62925	0.18059	-0.283
Mof_C 	C 	0.6855	0.62233	0.16256	0.08
Mof_C 	C 	0.7356	0.62241	0.19028	-0.081
Mof_C 	C 	0.72951	0.63026	0.23836	-0.052
Mof_C 	C 	0.6741	0.63877	0.25664	-0.09
Mof_C 	C 	0.626	0.63843	0.22838	0.095
Mof_C 	C 	0.7846	0.62966	0.26813	0.377
Mof_C 	C 	0.51187	0.67158	0.1474	-0.297
Mof_C 	C 	0.53307	0.71538	0.14844	0.1
Mof_C 	C 	0.4946	0.75266	0.1484	-0.109
Mof_C 	C 	0.43492	0.74631	0.14742	0.004
Mof_C 	C 	0.41278	0.70362	0.14855	-0.119
Mof_C 	C 	0.4499	0.66665	0.14865	0.105
Mof_C 	C 	0.3918	0.7863	0.14406	0.3
Mof_C 	C 	0.52202	0.56922	0.15966	-0.278
Mof_C 	C 	0.53699	0.54539	0.20124	0.078
Mof_C 	C 	0.50844	0.50599	0.21315	-0.082
Mof_C 	C 	0.46463	0.48929	0.18409	-0.051
Mof_C 	C 	0.44914	0.51162	0.14306	-0.089
Mof_C 	C 	0.47784	0.55117	0.13182	0.088
Mof_C 	C 	0.43469	0.44599	0.19751	0.394
Mof_C 	C 	0.5868	0.61459	0.07923	-0.287
Mof_C 	C 	0.6056	0.57219	0.06318	0.096
Mof_C 	C 	0.6273	0.5665	0.01829	-0.114
Mof_C 	C 	0.6304	0.6004	0.98833	0.001
Mof_C 	C 	0.6109	0.6427	0.00111	-0.116
Mof_C 	C 	0.5889	0.6496	0.04727	0.103
Mof_C 	C 	0.6532	0.5958	0.9372	0.308
Mof_C 	C 	0.52233	0.17675	0.17128	-0.268
Mof_C 	C 	0.4822	0.19527	0.13855	0.07
Mof_C 	C 	0.4532	0.23505	0.1476	-0.066
Mof_C 	C 	0.4644	0.25891	0.18876	-0.071
Mof_C 	C 	0.502	0.24049	0.22153	-0.068
Mof_C 	C 	0.5307	0.20071	0.21219	0.077
Mof_C 	C 	0.4351	0.30311	0.1977	0.427
Mof_C 	C 	0.621	0.11662	0.20529	-0.268
Mof_C 	C 	0.6048	0.0988	0.249	0.069
Mof_C 	C 	0.6459	0.0969	0.28566	-0.074
Mof_C 	C 	0.7031	0.1128	0.27864	-0.05
Mof_C 	C 	0.7193	0.1307	0.235	-0.073
Mof_C 	C 	0.6783	0.1326	0.19828	0.076
Mof_C 	C 	0.746	0.1098	0.319	0.374
Mof_C 	C 	0.59605	0.12073	0.09959	-0.264
Mof_C 	C 	0.625	0.08094	0.08753	0.068
Mof_C 	C 	0.6495	0.07596	0.04263	-0.075
Mof_C 	C 	0.6451	0.11077	0.00979	-0.049
Mof_C 	C 	0.6161	0.15056	0.02184	-0.08
Mof_C 	C 	0.5916	0.15554	0.06674	0.077
Mof_C 	C 	0.6709	0.1052	0.9611	0.372
Mof_C 	C 	0.50726	0.07411	0.16273	-0.258
Mof_C 	C 	0.5272	0.02993	0.16026	0.06
Mof_C 	C 	0.4884	0.99488	0.15661	-0.055
Mof_C 	C 	0.4275	0.00174	0.1566	-0.082
Mof_C 	C 	0.40792	0.04575	0.16089	-0.062
Mof_C 	C 	0.4476	0.08125	0.16446	0.066
Mof_C 	C 	0.3858	0.96399	0.1499	0.396
Mof_C 	C 	0.12918	0.37075	0.31941	-0.283
Mof_C 	C 	0.1855	0.37767	0.33744	0.08
Mof_C 	C 	0.2356	0.37759	0.30972	-0.081
Mof_C 	C 	0.22951	0.36974	0.26164	-0.052
Mof_C 	C 	0.1741	0.36123	0.24336	-0.09
Mof_C 	C 	0.126	0.36157	0.27162	0.095
Mof_C 	C 	0.2846	0.37034	0.23187	0.377
Mof_C 	C 	0.01187	0.32842	0.3526	-0.297
Mof_C 	C 	0.03307	0.28462	0.35156	0.1
Mof_C 	C 	0.9946	0.24734	0.3516	-0.109
Mof_C 	C 	0.93492	0.25369	0.35258	0.004
Mof_C 	C 	0.91278	0.29638	0.35145	-0.119
Mof_C 	C 	0.9499	0.33335	0.35135	0.105
Mof_C 	C 	0.8918	0.2137	0.35594	0.3
Mof_C 	C 	0.02202	0.43078	0.34034	-0.278
Mof_C 	C 	0.03699	0.45461	0.29876	0.078
Mof_C 	C 	0.00844	0.49401	0.28685	-0.082
Mof_C 	C 	0.96463	0.51071	0.31591	-0.051
Mof_C 	C 	0.94914	0.48838	0.35694	-0.089
Mof_C 	C 	0.97784	0.44883	0.36818	0.088
Mof_C 	C 	0.93469	0.55401	0.30249	0.394
Mof_C 	C 	0.0868	0.38541	0.42077	-0.287
Mof_C 	C 	0.1056	0.42781	0.43682	0.096
Mof_C 	C 	0.1273	0.4335	0.48171	-0.114
Mof_C 	C 	0.1304	0.3996	0.51167	0.001
Mof_C 	C 	0.1109	0.3573	0.49889	-0.116
Mof_C 	C 	0.0889	0.3504	0.45273	0.103
Mof_C 	C 	0.1532	0.4042	0.5628	0.308
Mof_O 	O 	0.09604	0.31858	0.66554	-0.499
Mof_O 	O 	0.05618	0.32128	0.73695	-0.533
Mof_O 	O 	0.7703	0.09	0.85648	-0.513
Mof_O 	O 	0.7054	0.1297	0.813	-0.478
Mof_O 	O 	0.8086	0.0664	0.4518	-0.519
Mof_O 	O 	0.8413	0.1348	0.4307	-0.47
Mof_O 	O 	0.09425	0.92441	0.64954	-0.486
Mof_O 	O 	0.16778	0.97243	0.64587	-0.5
Mof_O 	O 	0.1673	0.37402	0.75154	-0.533
Mof_O 	O 	0.22191	0.369	0.68703	-0.467
Mof_O 	O 	0.58501	0.17486	0.84932	-0.434
Mof_O 	O 	0.65997	0.21911	0.86509	-0.297
Mof_O 	O 	0.55681	0.56963	0.76199	-0.518
Mof_O 	O 	0.59857	0.57087	0.83399	-0.493
Mof_O 	O 	0.3316	0.4452	0.0739	-0.321
Mof_O 	O 	0.3502	0.37107	0.08926	-0.445
Mof_O 	O 	0.59604	0.68142	0.83446	-0.499
Mof_O 	O 	0.55618	0.67872	0.76305	-0.533
Mof_O 	O 	0.2703	0.91	0.64352	-0.513
Mof_O 	O 	0.2054	0.8703	0.687	-0.478
Mof_O 	O 	0.3086	0.9336	0.0482	-0.519
Mof_O 	O 	0.3413	0.8652	0.0693	-0.47
Mof_O 	O 	0.59425	0.07559	0.85046	-0.486
Mof_O 	O 	0.66778	0.02757	0.85413	-0.5
Mof_O 	O 	0.6673	0.62598	0.74846	-0.533
Mof_O 	O 	0.72191	0.631	0.81297	-0.467
Mof_O 	O 	0.08501	0.82514	0.65068	-0.434
Mof_O 	O 	0.15997	0.78089	0.63491	-0.297
Mof_O 	O 	0.05681	0.43037	0.73801	-0.518
Mof_O 	O 	0.09857	0.42913	0.66601	-0.493
Mof_O 	O 	0.8316	0.5548	0.4261	-0.321
Mof_O 	O 	0.8502	0.62893	0.41074	-0.445
Mof_O 	O 	0.90396	0.68142	0.33446	-0.499
Mof_O 	O 	0.94382	0.67872	0.26305	-0.533
Mof_O 	O 	0.2297	0.91	0.14352	-0.513
Mof_O 	O 	0.2946	0.8703	0.187	-0.478
Mof_O 	O 	0.1914	0.9336	0.5482	-0.519
Mof_O 	O 	0.1587	0.8652	0.5693	-0.47
Mof_O 	O 	0.90575	0.07559	0.35046	-0.486
Mof_O 	O 	0.83222	0.02757	0.35413	-0.5
Mof_O 	O 	0.8327	0.62598	0.24846	-0.533
Mof_O 	O 	0.77809	0.631	0.31297	-0.467
Mof_O 	O 	0.41499	0.82514	0.15068	-0.434
Mof_O 	O 	0.34003	0.78089	0.13491	-0.297
Mof_O 	O 	0.44319	0.43037	0.23801	-0.518
Mof_O 	O 	0.40143	0.42913	0.16601	-0.493
Mof_O 	O 	0.6684	0.5548	0.9261	-0.321
Mof_O 	O 	0.6498	0.62893	0.91074	-0.445
Mof_O 	O 	0.40396	0.31858	0.16554	-0.499
Mof_O 	O 	0.44382	0.32128	0.23695	-0.533
Mof_O 	O 	0.7297	0.09	0.35648	-0.513
Mof_O 	O 	0.7946	0.1297	0.313	-0.478
Mof_O 	O 	0.6914	0.0664	0.9518	-0.519
Mof_O 	O 	0.6587	0.1348	0.9307	-0.47
Mof_O 	O 	0.40575	0.92441	0.14954	-0.486
Mof_O 	O 	0.33222	0.97243	0.14587	-0.5
Mof_O 	O 	0.3327	0.37402	0.25154	-0.533
Mof_O 	O 	0.27809	0.369	0.18703	-0.467
Mof_O 	O 	0.91499	0.17486	0.34932	-0.434
Mof_O 	O 	0.84003	0.21911	0.36509	-0.297
Mof_O 	O 	0.94319	0.56963	0.26199	-0.518
Mof_O 	O 	0.90143	0.57087	0.33399	-0.493
Mof_O 	O 	0.1684	0.4452	0.5739	-0.321
Mof_O 	O 	0.1498	0.37107	0.58926	-0.445
_end
