# CIF file generated by openbabel 3.1.0, see https://openbabel.org
data_I
_chemical_name_common 'image0'
_cell_length_a 13.859
_cell_length_b 13.859
_cell_length_c 18.9449
_cell_angle_alpha 90
_cell_angle_beta 90
_cell_angle_gamma 120
_space_group_name_H-M_alt 'P 1'
_space_group_name_Hall 'P 1'
loop_
    _symmetry_equiv_pos_as_xyz
    x,y,z
loop_
    _atom_site_label
    _atom_site_type_symbol
    _atom_site_fract_x
    _atom_site_fract_y
    _atom_site_fract_z
    _atom_site_occupancy
    In1      In       0.29368    0.43901    0.45394    1.000
    O1       O        0.06530    0.14580    0.31469    1.000
    O2       O        0.10740    0.13680    0.43780    1.000
    O3       O        0.18950    0.31640    0.37876    1.000
    O4       O        0.25180    0.18190    0.34775    1.000
    H1       H        0.31620    0.25470    0.34350    1.000
    O5       O        0.14580    0.43670    0.49086    1.000
    O6       O        0.00780    0.43350    0.57640    1.000
    O7       O        0.20070    0.49710    0.61745    1.000
    H2       H        0.27800    0.53640    0.60440    1.000
    O8       O        0.16820    0.61570    0.53405    1.000
    O9       O        0.33530    0.56330    0.37752    1.000
    H3       H        0.39170    0.66770    0.25890    1.000
    P1       P        0.14986    0.19318    0.37160    1.000
    P2       P        0.12734    0.49580    0.55179    1.000
    In2      In       0.56099    0.85467    0.45394    1.000
    O10      O        0.85420    0.91950    0.31469    1.000
    O11      O        0.86320    0.97060    0.43780    1.000
    O12      O        0.68360    0.87310    0.37876    1.000
    O13      O        0.81810    0.06990    0.34775    1.000
    H4       H        0.74530    0.06150    0.34350    1.000
    O14      O        0.56330    0.70910    0.49086    1.000
    O15      O        0.56650    0.57430    0.57640    1.000
    O16      O        0.50290    0.70360    0.61745    1.000
    H5       H        0.46360    0.74160    0.60440    1.000
    O17      O        0.38430    0.55250    0.53405    1.000
    O18      O        0.43670    0.77200    0.37752    1.000
    H6       H        0.33230    0.72400    0.25890    1.000
    P3       P        0.80682    0.95668    0.37160    1.000
    P4       P        0.50420    0.63154    0.55179    1.000
    In3      In       0.14533    0.70632    0.45394    1.000
    O19      O        0.08050    0.93470    0.31469    1.000
    O20      O        0.02940    0.89260    0.43780    1.000
    O21      O        0.12690    0.81050    0.37876    1.000
    O22      O        0.93010    0.74820    0.34775    1.000
    H7       H        0.93850    0.68380    0.34350    1.000
    O23      O        0.29090    0.85420    0.49086    1.000
    O24      O        0.42570    0.99220    0.57640    1.000
    O25      O        0.29640    0.79930    0.61745    1.000
    H8       H        0.25840    0.72200    0.60440    1.000
    O26      O        0.44750    0.83180    0.53405    1.000
    O27      O        0.22800    0.66470    0.37752    1.000
    H9       H        0.27600    0.60830    0.25890    1.000
    P5       P        0.04332    0.85014    0.37160    1.000
    P6       P        0.36846    0.87266    0.55179    1.000
    In4      In       0.43901    0.29368    0.04606    1.000
    O28      O        0.14580    0.06530    0.18531    1.000
    O29      O        0.13680    0.10740    0.06220    1.000
    O30      O        0.31640    0.18950    0.12124    1.000
    O31      O        0.18190    0.25180    0.15225    1.000
    H10      H        0.25470    0.31620    0.15650    1.000
    O32      O        0.43670    0.14580    0.00914    1.000
    O33      O        0.43350    0.00780    0.92360    1.000
    O34      O        0.49710    0.20070    0.88255    1.000
    H11      H        0.53640    0.27800    0.89560    1.000
    O35      O        0.61570    0.16820    0.96595    1.000
    O36      O        0.56330    0.33530    0.12248    1.000
    H12      H        0.66770    0.39170    0.24110    1.000
    P7       P        0.19318    0.14986    0.12840    1.000
    P8       P        0.49580    0.12734    0.94821    1.000
    In5      In       0.85467    0.56099    0.04606    1.000
    O37      O        0.91950    0.85420    0.18531    1.000
    O38      O        0.97060    0.86320    0.06220    1.000
    O39      O        0.87310    0.68360    0.12124    1.000
    O40      O        0.06990    0.81810    0.15225    1.000
    H13      H        0.06150    0.74530    0.15650    1.000
    O41      O        0.70910    0.56330    0.00914    1.000
    O42      O        0.57430    0.56650    0.92360    1.000
    O43      O        0.70360    0.50290    0.88255    1.000
    H14      H        0.74160    0.46360    0.89560    1.000
    O44      O        0.55250    0.38430    0.96595    1.000
    O45      O        0.77200    0.43670    0.12248    1.000
    H15      H        0.72400    0.33230    0.24110    1.000
    P9       P        0.95668    0.80682    0.12840    1.000
    P10      P        0.63154    0.50420    0.94821    1.000
    In6      In       0.70632    0.14533    0.04606    1.000
    O46      O        0.93470    0.08050    0.18531    1.000
    O47      O        0.89260    0.02940    0.06220    1.000
    O48      O        0.81050    0.12690    0.12124    1.000
    O49      O        0.74820    0.93010    0.15225    1.000
    H16      H        0.68380    0.93850    0.15650    1.000
    O50      O        0.85420    0.29090    0.00914    1.000
    O51      O        0.99220    0.42570    0.92360    1.000
    O52      O        0.79930    0.29640    0.88255    1.000
    H17      H        0.72200    0.25840    0.89560    1.000
    O53      O        0.83180    0.44750    0.96595    1.000
    O54      O        0.66470    0.22800    0.12248    1.000
    H18      H        0.60830    0.27600    0.24110    1.000
    P11      P        0.85014    0.04332    0.12840    1.000
    P12      P        0.87266    0.36846    0.94821    1.000
    In7      In       0.70632    0.56099    0.54606    1.000
    O55      O        0.93470    0.85420    0.68531    1.000
    O56      O        0.89260    0.86320    0.56220    1.000
    O57      O        0.81050    0.68360    0.62124    1.000
    O58      O        0.74820    0.81810    0.65225    1.000
    H19      H        0.68380    0.74530    0.65650    1.000
    O59      O        0.85420    0.56330    0.50914    1.000
    O60      O        0.99220    0.56650    0.42360    1.000
    O61      O        0.79930    0.50290    0.38255    1.000
    H20      H        0.72200    0.46360    0.39560    1.000
    O62      O        0.83180    0.38430    0.46595    1.000
    O63      O        0.66470    0.43670    0.62248    1.000
    H21      H        0.60830    0.33230    0.74110    1.000
    P13      P        0.85014    0.80682    0.62840    1.000
    P14      P        0.87266    0.50420    0.44821    1.000
    In8      In       0.43901    0.14533    0.54606    1.000
    O64      O        0.14580    0.08050    0.68531    1.000
    O65      O        0.13680    0.02940    0.56220    1.000
    O66      O        0.31640    0.12690    0.62124    1.000
    O67      O        0.18190    0.93010    0.65225    1.000
    H22      H        0.25470    0.93850    0.65650    1.000
    O68      O        0.43670    0.29090    0.50914    1.000
    O69      O        0.43350    0.42570    0.42360    1.000
    O70      O        0.49710    0.29640    0.38255    1.000
    H23      H        0.53640    0.25840    0.39560    1.000
    O71      O        0.61570    0.44750    0.46595    1.000
    O72      O        0.56330    0.22800    0.62248    1.000
    H24      H        0.66770    0.27600    0.74110    1.000
    P15      P        0.19318    0.04332    0.62840    1.000
    P16      P        0.49580    0.36846    0.44821    1.000
    In9      In       0.85467    0.29368    0.54606    1.000
    O73      O        0.91950    0.06530    0.68531    1.000
    O74      O        0.97060    0.10740    0.56220    1.000
    O75      O        0.87310    0.18950    0.62124    1.000
    O76      O        0.06990    0.25180    0.65225    1.000
    H25      H        0.06150    0.31620    0.65650    1.000
    O77      O        0.70910    0.14580    0.50914    1.000
    O78      O        0.57430    0.00780    0.42360    1.000
    O79      O        0.70360    0.20070    0.38255    1.000
    H26      H        0.74160    0.27800    0.39560    1.000
    O80      O        0.55250    0.16820    0.46595    1.000
    O81      O        0.77200    0.33530    0.62248    1.000
    H27      H        0.72400    0.39170    0.74110    1.000
    P17      P        0.95668    0.14986    0.62840    1.000
    P18      P        0.63154    0.12734    0.44821    1.000
    In10     In       0.56099    0.70632    0.95394    1.000
    O82      O        0.85420    0.93470    0.81469    1.000
    O83      O        0.86320    0.89260    0.93780    1.000
    O84      O        0.68360    0.81050    0.87876    1.000
    O85      O        0.81810    0.74820    0.84775    1.000
    H28      H        0.74530    0.68380    0.84350    1.000
    O86      O        0.56330    0.85420    0.99086    1.000
    O87      O        0.56650    0.99220    0.07640    1.000
    O88      O        0.50290    0.79930    0.11745    1.000
    H29      H        0.46360    0.72200    0.10440    1.000
    O89      O        0.38430    0.83180    0.03405    1.000
    O90      O        0.43670    0.66470    0.87752    1.000
    H30      H        0.33230    0.60830    0.75890    1.000
    P19      P        0.80682    0.85014    0.87160    1.000
    P20      P        0.50420    0.87266    0.05179    1.000
    In11     In       0.14533    0.43901    0.95394    1.000
    O91      O        0.08050    0.14580    0.81469    1.000
    O92      O        0.02940    0.13680    0.93780    1.000
    O93      O        0.12690    0.31640    0.87876    1.000
    O94      O        0.93010    0.18190    0.84775    1.000
    H31      H        0.93850    0.25470    0.84350    1.000
    O95      O        0.29090    0.43670    0.99086    1.000
    O96      O        0.42570    0.43350    0.07640    1.000
    O97      O        0.29640    0.49710    0.11745    1.000
    H32      H        0.25840    0.53640    0.10440    1.000
    O98      O        0.44750    0.61570    0.03405    1.000
    O99      O        0.22800    0.56330    0.87752    1.000
    H33      H        0.27600    0.66770    0.75890    1.000
    P21      P        0.04332    0.19318    0.87160    1.000
    P22      P        0.36846    0.49580    0.05179    1.000
    In12     In       0.29368    0.85467    0.95394    1.000
    O100     O        0.06530    0.91950    0.81469    1.000
    O101     O        0.10740    0.97060    0.93780    1.000
    O102     O        0.18950    0.87310    0.87876    1.000
    O103     O        0.25180    0.06990    0.84775    1.000
    H34      H        0.31620    0.06150    0.84350    1.000
    O104     O        0.14580    0.70910    0.99086    1.000
    O105     O        0.00780    0.57430    0.07640    1.000
    O106     O        0.20070    0.70360    0.11745    1.000
    H35      H        0.27800    0.74160    0.10440    1.000
    O107     O        0.16820    0.55250    0.03405    1.000
    O108     O        0.33530    0.77200    0.87752    1.000
    H36      H        0.39170    0.72400    0.75890    1.000
    P23      P        0.14986    0.95668    0.87160    1.000
    P24      P        0.12734    0.63154    0.05179    1.000
    In13     In       0.00000    0.00000    0.25000    1.000
    In14     In       0.00000    0.00000    0.75000    1.000
    In15     In       0.00000    0.00000    0.50000    1.000
    In16     In       0.00000    0.00000    0.00000    1.000
    O109     O        0.33333    0.66667    0.27390    1.000
    P25      P        0.33333    0.66667    0.35707    1.000
    O110     O        0.66667    0.33333    0.22610    1.000
    P26      P        0.66667    0.33333    0.14293    1.000
    O111     O        0.66667    0.33333    0.72610    1.000
    P27      P        0.66667    0.33333    0.64293    1.000
    O112     O        0.33333    0.66667    0.77390    1.000
    P28      P        0.33333    0.66667    0.85707    1.000
