data_functionalizedCrystal
_audit_creation_method	'EQeq! by Chris Wilmer'
_symmetry_space_group_name_H-M	'P1'
_symmetry_Int_Tables_number	1
_symmetry_cell_setting	triclinic
loop_
_symmetry_equiv_pos_as_xyz
  x,y,z
_cell_length_a	12.565
_cell_length_b	10.5943
_cell_length_c	10.7556
_cell_angle_alpha	90
_cell_angle_beta	90
_cell_angle_gamma	90
loop_
_atom_site_label
_atom_site_type_symbol
_atom_site_fract_x
_atom_site_fract_y
_atom_site_fract_z
_atom_site_charge
Mof_C 	C 	0.8094	0.011	0.6478	0.528
Mof_C 	C 	0.7119	0.9473	0.6943	-0.608
Mof_H 	H 	0.6639	0.9369	0.6244	0.114
Mof_H 	H 	0.7321	0.8634	0.7217	0.091
Mof_C 	C 	0.6486	0.0092	0.8002	0.489
Mof_O 	O 	0.8227	0.1252	0.6501	-0.535
Mof_O 	O 	0.8766	0.9366	0.5996	-0.69
Mof_O 	O 	0.6526	0.1261	0.8171	-0.505
Mof_O 	O 	0.5895	0.5603	0.8619	-0.725
Mof_C 	C 	0.6906	0.989	0.1478	0.668
Mof_C 	C 	0.7881	0.0527	0.1943	-0.831
Mof_H 	H 	0.8361	0.0631	0.1244	0.166
Mof_H 	H 	0.7679	0.1366	0.2217	0.158
Mof_C 	C 	0.8514	0.9908	0.3002	0.626
Mof_O 	O 	0.6773	0.8748	0.1501	-0.618
Mof_O 	O 	0.6234	0.0634	0.0996	-0.775
Mof_O 	O 	0.8474	0.8739	0.3171	-0.556
Mof_O 	O 	0.9105	0.4397	0.3619	-0.673
Mof_C 	C 	0.1906	0.511	0.3522	0.597
Mof_C 	C 	0.2881	0.4473	0.3057	-0.754
Mof_H 	H 	0.3361	0.4369	0.3756	0.154
Mof_H 	H 	0.2679	0.3634	0.2783	0.126
Mof_C 	C 	0.3514	0.5092	0.1998	0.579
Mof_O 	O 	0.1773	0.6252	0.3499	-0.602
Mof_O 	O 	0.1234	0.4366	0.4004	-0.712
Mof_O 	O 	0.3474	0.6261	0.1829	-0.582
Mof_O 	O 	0.4105	0.0603	0.1381	-0.819
Mof_C 	C 	0.3094	0.489	0.8522	0.617
Mof_C 	C 	0.2119	0.5527	0.8057	-0.762
Mof_H 	H 	0.1639	0.5631	0.8756	0.16
Mof_H 	H 	0.2321	0.6366	0.7783	0.125
Mof_C 	C 	0.1486	0.4908	0.6998	0.603
Mof_O 	O 	0.3227	0.3748	0.8499	-0.562
Mof_O 	O 	0.3766	0.5634	0.9004	-0.696
Mof_O 	O 	0.1526	0.3739	0.6829	-0.567
Mof_O 	O 	0.0895	0.9397	0.6381	-0.752
Mof_C 	C 	0.1906	0.989	0.3522	0.71
Mof_C 	C 	0.2881	0.0527	0.3057	-0.905
Mof_H 	H 	0.3361	0.0631	0.3756	0.189
Mof_H 	H 	0.2679	0.1366	0.2783	0.168
Mof_C 	C 	0.3514	0.9908	0.1998	0.676
Mof_O 	O 	0.1773	0.8748	0.3499	-0.629
Mof_O 	O 	0.1234	0.0634	0.4004	-0.764
Mof_O 	O 	0.3474	0.8739	0.1829	-0.605
Mof_O 	O 	0.4105	0.4397	0.1381	-0.775
Mof_C 	C 	0.3094	0.011	0.8522	0.481
Mof_C 	C 	0.2119	0.9473	0.8057	-0.57
Mof_H 	H 	0.1639	0.9369	0.8756	0.116
Mof_H 	H 	0.2321	0.8634	0.7783	0.071
Mof_C 	C 	0.1486	0.0092	0.6998	0.469
Mof_O 	O 	0.3227	0.1252	0.8499	-0.528
Mof_O 	O 	0.3766	0.9366	0.9004	-0.634
Mof_O 	O 	0.1526	0.1261	0.6829	-0.535
Mof_O 	O 	0.0895	0.5603	0.6381	-0.822
Mof_C 	C 	0.8094	0.489	0.6478	0.618
Mof_C 	C 	0.7119	0.5527	0.6943	-0.742
Mof_H 	H 	0.6639	0.5631	0.6244	0.144
Mof_H 	H 	0.7321	0.6366	0.7217	0.128
Mof_C 	C 	0.6486	0.4908	0.8002	0.588
Mof_O 	O 	0.8227	0.3748	0.6501	-0.558
Mof_O 	O 	0.8766	0.5634	0.5996	-0.731
Mof_O 	O 	0.6526	0.3739	0.8171	-0.527
Mof_O 	O 	0.5895	0.9397	0.8619	-0.675
Mof_C 	C 	0.6906	0.511	0.1478	0.601
Mof_C 	C 	0.7881	0.4473	0.1943	-0.739
Mof_H 	H 	0.8361	0.4369	0.1244	0.144
Mof_H 	H 	0.7679	0.3634	0.2217	0.132
Mof_C 	C 	0.8514	0.5092	0.3002	0.566
Mof_O 	O 	0.6773	0.6252	0.1501	-0.602
Mof_O 	O 	0.6234	0.4366	0.0996	-0.746
Mof_O 	O 	0.8474	0.6261	0.3171	-0.543
Mof_O 	O 	0.9105	0.0603	0.3619	-0.7
Mof_Cu	Cu	0.73606	0.25	0.73097	0.922
Mof_Cu	Cu	0.76394	0.75	0.23097	0.915
Mof_Cu	Cu	0.26394	0.75	0.26903	0.911
Mof_Cu	Cu	0.23606	0.25	0.76903	0.915
Mof_Cu	Cu	0.5	0	-0	0.816
Mof_Cu	Cu	-2.80305e-33	-8.81558e-33	0.5	0.823
Mof_Cu	Cu	0.5	0.5	-0	0.827
Mof_Cu	Cu	6.01253e-33	0.5	0.5	0.842
Mof_Na	Na	0.9803	0.75	0.6709	2.333
Mof_Na	Na	0.5197	0.25	0.1709	1.938
Mof_Na	Na	0.0197	0.25	0.3291	1.688
Mof_Na	Na	0.4803	0.75	0.8291	2.122
_end
