data_functionalizedCrystal
_audit_creation_method	'EQeq! by Chris Wilmer'
_symmetry_space_group_name_H-M	'P1'
_symmetry_Int_Tables_number	1
_symmetry_cell_setting	triclinic
loop_
_symmetry_equiv_pos_as_xyz
  x,y,z
_cell_length_a	18.8168
_cell_length_b	11.3511
_cell_length_c	16.9284
_cell_angle_alpha	90
_cell_angle_beta	102.051
_cell_angle_gamma	90
loop_
_atom_site_label
_atom_site_type_symbol
_atom_site_fract_x
_atom_site_fract_y
_atom_site_fract_z
_atom_site_charge
Mof_La	La	0.31	0.20992	0.33598	1.955
Mof_K 	K 	0.65439	0.0995	0.52468	2.438
Mof_O 	O 	0.3929	0.1476	0.4686	-0.618
Mof_O 	O 	0.5044	0.1326	0.5429	-0.526
Mof_O 	O 	0.4426	0.2167	0.3428	-0.507
Mof_O 	O 	0.5555	0.1905	0.4067	-0.672
Mof_O 	O 	0.3384	0.4188	0.2975	-0.48
Mof_O 	O 	0.2278	0.1395	0.4276	-0.562
Mof_O 	O 	0.1707	0.4887	0.1804	-0.707
Mof_O 	O 	0.2101	0.1472	0.5536	-0.51
Mof_O 	O 	0.2022	0.3343	0.2594	-0.508
Mof_O 	O 	0.2975	0.5915	0.2463	-0.485
Mof_C 	C 	0.4604	0.1524	0.479	0.216
Mof_C 	C 	0.4902	0.1888	0.4035	0.317
Mof_C 	C 	0.2904	0.4847	0.2614	0.199
Mof_C 	C 	0.2323	0.1875	0.495	0.242
Mof_C 	C 	0.2145	0.4311	0.2317	0.203
Mof_La	La	0.81	0.70992	0.33598	1.955
Mof_K 	K 	0.15439	0.5995	0.52468	2.439
Mof_O 	O 	0.8929	0.6476	0.4686	-0.618
Mof_O 	O 	0.0044	0.6326	0.5429	-0.527
Mof_O 	O 	0.9426	0.7167	0.3428	-0.507
Mof_O 	O 	0.0555	0.6905	0.4067	-0.673
Mof_O 	O 	0.8384	0.9188	0.2975	-0.48
Mof_O 	O 	0.7278	0.6395	0.4276	-0.561
Mof_O 	O 	0.6707	0.9887	0.1804	-0.708
Mof_O 	O 	0.7101	0.6472	0.5536	-0.509
Mof_O 	O 	0.7022	0.8343	0.2594	-0.508
Mof_O 	O 	0.7975	0.0915	0.2463	-0.484
Mof_C 	C 	0.9604	0.6524	0.479	0.216
Mof_C 	C 	0.9902	0.6888	0.4035	0.316
Mof_C 	C 	0.7904	0.9847	0.2614	0.197
Mof_C 	C 	0.7323	0.6875	0.495	0.242
Mof_C 	C 	0.7145	0.9311	0.2317	0.204
Mof_La	La	0.69	0.20992	0.16402	1.957
Mof_K 	K 	0.34561	0.0995	0.97532	2.442
Mof_O 	O 	0.6071	0.1476	0.0314	-0.617
Mof_O 	O 	0.4956	0.1326	0.9571	-0.528
Mof_O 	O 	0.5574	0.2167	0.1572	-0.506
Mof_O 	O 	0.4445	0.1905	0.0933	-0.671
Mof_O 	O 	0.6616	0.4188	0.2025	-0.48
Mof_O 	O 	0.7722	0.1395	0.0724	-0.562
Mof_O 	O 	0.8293	0.4887	0.3196	-0.706
Mof_O 	O 	0.7899	0.1472	0.9464	-0.513
Mof_O 	O 	0.7978	0.3343	0.2406	-0.508
Mof_O 	O 	0.7025	0.5915	0.2537	-0.485
Mof_C 	C 	0.5396	0.1524	0.021	0.22
Mof_C 	C 	0.5098	0.1888	0.0965	0.317
Mof_C 	C 	0.7096	0.4847	0.2386	0.199
Mof_C 	C 	0.7677	0.1875	0.005	0.25
Mof_C 	C 	0.7855	0.4311	0.2683	0.203
Mof_La	La	0.19	0.70992	0.16402	1.954
Mof_K 	K 	0.84561	0.5995	0.97532	2.445
Mof_O 	O 	0.1071	0.6476	0.0314	-0.618
Mof_O 	O 	0.9956	0.6326	0.9571	-0.527
Mof_O 	O 	0.0574	0.7167	0.1572	-0.507
Mof_O 	O 	0.9445	0.6905	0.0933	-0.67
Mof_O 	O 	0.1616	0.9188	0.2025	-0.481
Mof_O 	O 	0.2722	0.6395	0.0724	-0.56
Mof_O 	O 	0.3293	0.9887	0.3196	-0.707
Mof_O 	O 	0.2899	0.6472	0.9464	-0.507
Mof_O 	O 	0.2978	0.8343	0.2406	-0.508
Mof_O 	O 	0.2025	0.0915	0.2537	-0.484
Mof_C 	C 	0.0396	0.6524	0.021	0.217
Mof_C 	C 	0.0098	0.6888	0.0965	0.313
Mof_C 	C 	0.2096	0.9847	0.2386	0.197
Mof_C 	C 	0.2677	0.6875	0.005	0.237
Mof_C 	C 	0.2855	0.9311	0.2683	0.204
Mof_La	La	0.69	0.79008	0.66402	1.956
Mof_K 	K 	0.34561	0.9005	0.47532	2.439
Mof_O 	O 	0.6071	0.8524	0.5314	-0.618
Mof_O 	O 	0.4956	0.8674	0.4571	-0.526
Mof_O 	O 	0.5574	0.7833	0.6572	-0.507
Mof_O 	O 	0.4445	0.8095	0.5933	-0.672
Mof_O 	O 	0.6616	0.5812	0.7025	-0.48
Mof_O 	O 	0.7722	0.8605	0.5724	-0.562
Mof_O 	O 	0.8293	0.5113	0.8196	-0.707
Mof_O 	O 	0.7899	0.8528	0.4464	-0.51
Mof_O 	O 	0.7978	0.6657	0.7406	-0.508
Mof_O 	O 	0.7025	0.4085	0.7537	-0.485
Mof_C 	C 	0.5396	0.8476	0.521	0.216
Mof_C 	C 	0.5098	0.8112	0.5965	0.317
Mof_C 	C 	0.7096	0.5153	0.7386	0.199
Mof_C 	C 	0.7677	0.8125	0.505	0.242
Mof_C 	C 	0.7855	0.5689	0.7683	0.203
Mof_La	La	0.19	0.29008	0.66402	1.955
Mof_K 	K 	0.84561	0.4005	0.47532	2.439
Mof_O 	O 	0.1071	0.3524	0.5314	-0.618
Mof_O 	O 	0.9956	0.3674	0.4571	-0.527
Mof_O 	O 	0.0574	0.2833	0.6572	-0.507
Mof_O 	O 	0.9445	0.3095	0.5933	-0.673
Mof_O 	O 	0.1616	0.0812	0.7025	-0.48
Mof_O 	O 	0.2722	0.3605	0.5724	-0.561
Mof_O 	O 	0.3293	0.0113	0.8196	-0.708
Mof_O 	O 	0.2899	0.3528	0.4464	-0.509
Mof_O 	O 	0.2978	0.1657	0.7406	-0.508
Mof_O 	O 	0.2025	0.9085	0.7537	-0.484
Mof_C 	C 	0.0396	0.3476	0.521	0.216
Mof_C 	C 	0.0098	0.3112	0.5965	0.316
Mof_C 	C 	0.2096	0.0153	0.7386	0.197
Mof_C 	C 	0.2677	0.3125	0.505	0.242
Mof_C 	C 	0.2855	0.0689	0.7683	0.204
Mof_La	La	0.31	0.79008	0.83598	1.957
Mof_K 	K 	0.65439	0.9005	0.02468	2.442
Mof_O 	O 	0.3929	0.8524	0.9686	-0.617
Mof_O 	O 	0.5044	0.8674	0.0429	-0.528
Mof_O 	O 	0.4426	0.7833	0.8428	-0.506
Mof_O 	O 	0.5555	0.8095	0.9067	-0.671
Mof_O 	O 	0.3384	0.5812	0.7975	-0.48
Mof_O 	O 	0.2278	0.8605	0.9276	-0.562
Mof_O 	O 	0.1707	0.5113	0.6804	-0.706
Mof_O 	O 	0.2101	0.8528	0.0536	-0.513
Mof_O 	O 	0.2022	0.6657	0.7594	-0.508
Mof_O 	O 	0.2975	0.4085	0.7463	-0.485
Mof_C 	C 	0.4604	0.8476	0.979	0.22
Mof_C 	C 	0.4902	0.8112	0.9035	0.317
Mof_C 	C 	0.2904	0.5153	0.7614	0.199
Mof_C 	C 	0.2323	0.8125	0.995	0.25
Mof_C 	C 	0.2145	0.5689	0.7317	0.203
Mof_La	La	0.81	0.29008	0.83598	1.954
Mof_K 	K 	0.15439	0.4005	0.02468	2.445
Mof_O 	O 	0.8929	0.3524	0.9686	-0.618
Mof_O 	O 	0.0044	0.3674	0.0429	-0.527
Mof_O 	O 	0.9426	0.2833	0.8428	-0.507
Mof_O 	O 	0.0555	0.3095	0.9067	-0.67
Mof_O 	O 	0.8384	0.0812	0.7975	-0.481
Mof_O 	O 	0.7278	0.3605	0.9276	-0.56
Mof_O 	O 	0.6707	0.0113	0.6804	-0.707
Mof_O 	O 	0.7101	0.3528	0.0536	-0.507
Mof_O 	O 	0.7022	0.1657	0.7594	-0.508
Mof_O 	O 	0.7975	0.9085	0.7463	-0.484
Mof_C 	C 	0.9604	0.3476	0.979	0.217
Mof_C 	C 	0.9902	0.3112	0.9035	0.313
Mof_C 	C 	0.7904	0.0153	0.7614	0.197
Mof_C 	C 	0.7323	0.3125	0.995	0.237
Mof_C 	C 	0.7145	0.0689	0.7317	0.204
_end
