# CIF file generated by openbabel 3.1.0, see https://openbabel.org
data_I
_chemical_name_common 'image0'
_cell_length_a 16.6165
_cell_length_b 16.6165
_cell_length_c 15.3366
_cell_angle_alpha 90
_cell_angle_beta 90
_cell_angle_gamma 120
_space_group_name_H-M_alt 'P 1'
_space_group_name_Hall 'P 1'
loop_
    _symmetry_equiv_pos_as_xyz
    x,y,z
loop_
    _atom_site_label
    _atom_site_type_symbol
    _atom_site_fract_x
    _atom_site_fract_y
    _atom_site_fract_z
    _atom_site_occupancy
    C1       C        0.44550    0.03510    0.03150    1.000
    O1       O        0.52000    0.17490    0.15646    1.000
    O2       O        0.38570    0.06530    0.05410    1.000
    H1       H        0.41020    0.10640    0.09090    1.000
    C2       C        0.96490    0.41040    0.03150    1.000
    O3       O        0.82510    0.34510    0.15646    1.000
    O4       O        0.93470    0.32040    0.05410    1.000
    H2       H        0.89360    0.30380    0.09090    1.000
    C3       C        0.58960    0.55450    0.03150    1.000
    O5       O        0.65490    0.48000    0.15646    1.000
    O6       O        0.67960    0.61430    0.05410    1.000
    H3       H        0.69620    0.58980    0.09090    1.000
    C4       C        0.55450    0.96490    0.53150    1.000
    O7       O        0.48000    0.82510    0.65646    1.000
    O8       O        0.61430    0.93470    0.55410    1.000
    H4       H        0.58980    0.89360    0.59090    1.000
    C5       C        0.03510    0.58960    0.53150    1.000
    O9       O        0.17490    0.65490    0.65646    1.000
    O10      O        0.06530    0.67960    0.55410    1.000
    H5       H        0.10640    0.69620    0.59090    1.000
    C6       C        0.41040    0.44550    0.53150    1.000
    O11      O        0.34510    0.52000    0.65646    1.000
    O12      O        0.32040    0.38570    0.55410    1.000
    H6       H        0.30380    0.41020    0.59090    1.000
    C7       C        0.03510    0.44550    0.96850    1.000
    O13      O        0.17490    0.52000    0.84354    1.000
    O14      O        0.06530    0.38570    0.94590    1.000
    H7       H        0.10640    0.41020    0.90910    1.000
    C8       C        0.41040    0.96490    0.96850    1.000
    O15      O        0.34510    0.82510    0.84354    1.000
    O16      O        0.32040    0.93470    0.94590    1.000
    H8       H        0.30380    0.89360    0.90910    1.000
    C9       C        0.55450    0.58960    0.96850    1.000
    O17      O        0.48000    0.65490    0.84354    1.000
    O18      O        0.61430    0.67960    0.94590    1.000
    H9       H        0.58980    0.69620    0.90910    1.000
    C10      C        0.96490    0.55450    0.46850    1.000
    O19      O        0.82510    0.48000    0.34354    1.000
    O20      O        0.93470    0.61430    0.44590    1.000
    H10      H        0.89360    0.58980    0.40910    1.000
    C11      C        0.58960    0.03510    0.46850    1.000
    O21      O        0.65490    0.17490    0.34354    1.000
    O22      O        0.67960    0.06530    0.44590    1.000
    H11      H        0.69620    0.10640    0.40910    1.000
    C12      C        0.44550    0.41040    0.46850    1.000
    O23      O        0.52000    0.34510    0.34354    1.000
    O24      O        0.38570    0.32040    0.44590    1.000
    H12      H        0.41020    0.30380    0.40910    1.000
    C13      C        0.55450    0.96490    0.96850    1.000
    O25      O        0.48000    0.82510    0.84354    1.000
    O26      O        0.61430    0.93470    0.94590    1.000
    H13      H        0.58980    0.89360    0.90910    1.000
    C14      C        0.03510    0.58960    0.96850    1.000
    O27      O        0.17490    0.65490    0.84354    1.000
    O28      O        0.06530    0.67960    0.94590    1.000
    H14      H        0.10640    0.69620    0.90910    1.000
    C15      C        0.41040    0.44550    0.96850    1.000
    O29      O        0.34510    0.52000    0.84354    1.000
    O30      O        0.32040    0.38570    0.94590    1.000
    H15      H        0.30380    0.41020    0.90910    1.000
    C16      C        0.44550    0.03510    0.46850    1.000
    O31      O        0.52000    0.17490    0.34354    1.000
    O32      O        0.38570    0.06530    0.44590    1.000
    H16      H        0.41020    0.10640    0.40910    1.000
    C17      C        0.96490    0.41040    0.46850    1.000
    O33      O        0.82510    0.34510    0.34354    1.000
    O34      O        0.93470    0.32040    0.44590    1.000
    H17      H        0.89360    0.30380    0.40910    1.000
    C18      C        0.58960    0.55450    0.46850    1.000
    O35      O        0.65490    0.48000    0.34354    1.000
    O36      O        0.67960    0.61430    0.44590    1.000
    H18      H        0.69620    0.58980    0.40910    1.000
    C19      C        0.96490    0.55450    0.03150    1.000
    O37      O        0.82510    0.48000    0.15646    1.000
    O38      O        0.93470    0.61430    0.05410    1.000
    H19      H        0.89360    0.58980    0.09090    1.000
    C20      C        0.58960    0.03510    0.03150    1.000
    O39      O        0.65490    0.17490    0.15646    1.000
    O40      O        0.67960    0.06530    0.05410    1.000
    H20      H        0.69620    0.10640    0.09090    1.000
    C21      C        0.44550    0.41040    0.03150    1.000
    O41      O        0.52000    0.34510    0.15646    1.000
    O42      O        0.38570    0.32040    0.05410    1.000
    H21      H        0.41020    0.30380    0.09090    1.000
    C22      C        0.03510    0.44550    0.53150    1.000
    O43      O        0.17490    0.52000    0.65646    1.000
    O44      O        0.06530    0.38570    0.55410    1.000
    H22      H        0.10640    0.41020    0.59090    1.000
    C23      C        0.41040    0.96490    0.53150    1.000
    O45      O        0.34510    0.82510    0.65646    1.000
    O46      O        0.32040    0.93470    0.55410    1.000
    H23      H        0.30380    0.89360    0.59090    1.000
    C24      C        0.55450    0.58960    0.53150    1.000
    O47      O        0.48000    0.65490    0.65646    1.000
    O48      O        0.61430    0.67960    0.55410    1.000
    H24      H        0.58980    0.69620    0.59090    1.000
    Mg1      Mg       0.53007    0.26503    0.25000    1.000
    N1       N        0.38130    0.19065    0.25000    1.000
    C25      C        0.19910    0.09955    0.25000    1.000
    C26      C        0.09380    0.04690    0.25000    1.000
    Mg2      Mg       0.73497    0.26503    0.25000    1.000
    N2       N        0.80935    0.19065    0.25000    1.000
    C27      C        0.90045    0.09955    0.25000    1.000
    C28      C        0.95310    0.04690    0.25000    1.000
    Mg3      Mg       0.73497    0.46993    0.25000    1.000
    N3       N        0.80935    0.61870    0.25000    1.000
    C29      C        0.90045    0.80090    0.25000    1.000
    C30      C        0.95310    0.90620    0.25000    1.000
    Mg4      Mg       0.46993    0.73497    0.75000    1.000
    N4       N        0.61870    0.80935    0.75000    1.000
    C31      C        0.80090    0.90045    0.75000    1.000
    C32      C        0.90620    0.95310    0.75000    1.000
    Mg5      Mg       0.26503    0.73497    0.75000    1.000
    N5       N        0.19065    0.80935    0.75000    1.000
    C33      C        0.09955    0.90045    0.75000    1.000
    C34      C        0.04690    0.95310    0.75000    1.000
    Mg6      Mg       0.26503    0.53007    0.75000    1.000
    N6       N        0.19065    0.38130    0.75000    1.000
    C35      C        0.09955    0.19910    0.75000    1.000
    C36      C        0.04690    0.09380    0.75000    1.000
    C37      C        0.57260    0.14520    0.13080    1.000
    C38      C        0.53505    0.07010    0.06270    1.000
    C39      C        0.85480    0.42740    0.13080    1.000
    C40      C        0.92990    0.46495    0.06270    1.000
    C41      C        0.57260    0.42740    0.13080    1.000
    C42      C        0.53505    0.46495    0.06270    1.000
    C43      C        0.42740    0.85480    0.63080    1.000
    C44      C        0.46495    0.92990    0.56270    1.000
    C45      C        0.14520    0.57260    0.63080    1.000
    C46      C        0.07010    0.53505    0.56270    1.000
    C47      C        0.42740    0.57260    0.63080    1.000
    C48      C        0.46495    0.53505    0.56270    1.000
    C49      C        0.14520    0.57260    0.86920    1.000
    C50      C        0.07010    0.53505    0.93730    1.000
    C51      C        0.42740    0.85480    0.86920    1.000
    C52      C        0.46495    0.92990    0.93730    1.000
    C53      C        0.42740    0.57260    0.86920    1.000
    C54      C        0.46495    0.53505    0.93730    1.000
    C55      C        0.85480    0.42740    0.36920    1.000
    C56      C        0.92990    0.46495    0.43730    1.000
    C57      C        0.57260    0.14520    0.36920    1.000
    C58      C        0.53505    0.07010    0.43730    1.000
    C59      C        0.57260    0.42740    0.36920    1.000
    C60      C        0.53505    0.46495    0.43730    1.000
    C61      C        0.33720    0.23970    0.25000    1.000
    H25      H        0.37060    0.30430    0.25000    1.000
    C62      C        0.24270    0.19330    0.25000    1.000
    H26      H        0.20960    0.22470    0.25000    1.000
    C63      C        0.76030    0.09750    0.25000    1.000
    H27      H        0.69570    0.06630    0.25000    1.000
    C64      C        0.80670    0.04940    0.25000    1.000
    H28      H        0.77530    0.98490    0.25000    1.000
    C65      C        0.90250    0.66280    0.25000    1.000
    H29      H        0.93370    0.62940    0.25000    1.000
    C66      C        0.95060    0.75730    0.25000    1.000
    H30      H        0.01510    0.79040    0.25000    1.000
    C67      C        0.66280    0.76030    0.75000    1.000
    H31      H        0.62940    0.69570    0.75000    1.000
    C68      C        0.75730    0.80670    0.75000    1.000
    H32      H        0.79040    0.77530    0.75000    1.000
    C69      C        0.23970    0.90250    0.75000    1.000
    H33      H        0.30430    0.93370    0.75000    1.000
    C70      C        0.19330    0.95060    0.75000    1.000
    H34      H        0.22470    0.01510    0.75000    1.000
    C71      C        0.09750    0.33720    0.75000    1.000
    H35      H        0.06630    0.37060    0.75000    1.000
    C72      C        0.04940    0.24270    0.75000    1.000
    H36      H        0.98490    0.20960    0.75000    1.000
    C73      C        0.23970    0.33720    0.75000    1.000
    H37      H        0.30430    0.37060    0.75000    1.000
    C74      C        0.19330    0.24270    0.75000    1.000
    H38      H        0.22470    0.20960    0.75000    1.000
    C75      C        0.09750    0.76030    0.75000    1.000
    H39      H        0.06630    0.69570    0.75000    1.000
    C76      C        0.04940    0.80670    0.75000    1.000
    H40      H        0.98490    0.77530    0.75000    1.000
    C77      C        0.66280    0.90250    0.75000    1.000
    H41      H        0.62940    0.93370    0.75000    1.000
    C78      C        0.75730    0.95060    0.75000    1.000
    H42      H        0.79040    0.01510    0.75000    1.000
    C79      C        0.76030    0.66280    0.25000    1.000
    H43      H        0.69570    0.62940    0.25000    1.000
    C80      C        0.80670    0.75730    0.25000    1.000
    H44      H        0.77530    0.79040    0.25000    1.000
    C81      C        0.90250    0.23970    0.25000    1.000
    H45      H        0.93370    0.30430    0.25000    1.000
    C82      C        0.95060    0.19330    0.25000    1.000
    H46      H        0.01510    0.22470    0.25000    1.000
    C83      C        0.33720    0.09750    0.25000    1.000
    H47      H        0.37060    0.06630    0.25000    1.000
    C84      C        0.24270    0.04940    0.25000    1.000
    H48      H        0.20960    0.98490    0.25000    1.000
    O49      O        0.66667    0.33333    0.25000    1.000
    O50      O        0.33333    0.66667    0.75000    1.000
    N7       N        0.04720    0.09440    0.25000    1.000
    N8       N        0.90560    0.95280    0.25000    1.000
    N9       N        0.04720    0.95280    0.25000    1.000
    N10      N        0.95280    0.90560    0.75000    1.000
    N11      N        0.09440    0.04720    0.75000    1.000
    N12      N        0.95280    0.04720    0.75000    1.000
