data_functionalizedCrystal
_audit_creation_method	'EQeq! by Chris Wilmer'
_symmetry_space_group_name_H-M	'P1'
_symmetry_Int_Tables_number	1
_symmetry_cell_setting	triclinic
loop_
_symmetry_equiv_pos_as_xyz
  x,y,z
_cell_length_a	10.902
_cell_length_b	16.715
_cell_length_c	19.201
_cell_angle_alpha	90
_cell_angle_beta	90
_cell_angle_gamma	90
loop_
_atom_site_label
_atom_site_type_symbol
_atom_site_fract_x
_atom_site_fract_y
_atom_site_fract_z
_atom_site_charge
Mof_O 	O 	0.8651	0.852	0.3135	-0.446
Mof_O 	O 	0.7201	0.8445	0.3932	-0.421
Mof_C 	C 	0.986	0.1767	0.4911	-0.171
Mof_H 	H 	0.9748	0.174	0.5412	0.076
Mof_H 	H 	0.0733	0.1806	0.4818	0.089
Mof_C 	C 	0.9354	0.1004	0.4576	0.156
Mof_C 	C 	0.9804	0.0758	0.3933	-0.182
Mof_H 	H 	0.0385	0.1065	0.3701	0.106
Mof_C 	C 	0.9377	0.0047	0.364	0.091
Mof_H 	H 	0.9665	0.989	0.3205	-0.001
Mof_C 	C 	0.8536	0.9572	0.3983	-0.147
Mof_C 	C 	0.8082	0.9826	0.4628	0.076
Mof_H 	H 	0.7499	0.952	0.486	0.016
Mof_C 	C 	0.8508	0.0549	0.4928	-0.176
Mof_H 	H 	0.8217	0.0715	0.536	0.091
Mof_C 	C 	0.8122	0.8821	0.3676	0.308
Mof_O 	O 	0.6349	0.148	0.8135	-0.445
Mof_O 	O 	0.7799	0.1555	0.8932	-0.419
Mof_C 	C 	0.514	0.8233	0.9911	-0.17
Mof_H 	H 	0.5252	0.826	0.0412	0.075
Mof_H 	H 	0.4267	0.8194	0.9818	0.089
Mof_C 	C 	0.5646	0.8996	0.9576	0.154
Mof_C 	C 	0.5196	0.9242	0.8933	-0.18
Mof_H 	H 	0.4615	0.8935	0.8701	0.106
Mof_C 	C 	0.5623	0.9953	0.864	0.087
Mof_H 	H 	0.5335	0.011	0.8205	0.001
Mof_C 	C 	0.6464	0.0428	0.8983	-0.145
Mof_C 	C 	0.6918	0.0174	0.9628	0.073
Mof_H 	H 	0.7501	0.048	0.986	0.017
Mof_C 	C 	0.6492	0.9451	0.9928	-0.171
Mof_H 	H 	0.6783	0.9285	0.036	0.088
Mof_C 	C 	0.6878	0.1179	0.8676	0.307
Mof_O 	O 	0.1349	0.352	0.6865	-0.445
Mof_O 	O 	0.2799	0.3445	0.6068	-0.419
Mof_C 	C 	0.014	0.6767	0.5089	-0.171
Mof_H 	H 	0.0252	0.674	0.4588	0.076
Mof_H 	H 	0.9267	0.6806	0.5182	0.089
Mof_C 	C 	0.0646	0.6004	0.5424	0.156
Mof_C 	C 	0.0196	0.5758	0.6067	-0.18
Mof_H 	H 	0.9615	0.6065	0.6299	0.106
Mof_C 	C 	0.0623	0.5047	0.636	0.085
Mof_H 	H 	0.0335	0.489	0.6795	0.002
Mof_C 	C 	0.1464	0.4572	0.6017	-0.144
Mof_C 	C 	0.1918	0.4826	0.5372	0.076
Mof_H 	H 	0.2501	0.452	0.514	0.016
Mof_C 	C 	0.1492	0.5549	0.5072	-0.176
Mof_H 	H 	0.1783	0.5715	0.464	0.091
Mof_C 	C 	0.1878	0.3821	0.6324	0.307
Mof_O 	O 	0.3651	0.648	0.1865	-0.445
Mof_O 	O 	0.2201	0.6555	0.1068	-0.419
Mof_C 	C 	0.486	0.3233	0.0089	-0.171
Mof_H 	H 	0.4748	0.326	0.9588	0.075
Mof_H 	H 	0.5733	0.3194	0.0182	0.089
Mof_C 	C 	0.4354	0.3996	0.0424	0.155
Mof_C 	C 	0.4804	0.4242	0.1067	-0.18
Mof_H 	H 	0.5385	0.3935	0.1299	0.106
Mof_C 	C 	0.4377	0.4953	0.136	0.085
Mof_H 	H 	0.4665	0.511	0.1795	0.002
Mof_C 	C 	0.3536	0.5428	0.1017	-0.144
Mof_C 	C 	0.3082	0.5174	0.0372	0.075
Mof_H 	H 	0.2499	0.548	0.014	0.016
Mof_C 	C 	0.3508	0.4451	0.0072	-0.175
Mof_H 	H 	0.3217	0.4285	0.964	0.09
Mof_C 	C 	0.3122	0.6179	0.1324	0.307
Mof_O 	O 	0.1349	0.148	0.6865	-0.445
Mof_O 	O 	0.2799	0.1555	0.6068	-0.42
Mof_C 	C 	0.014	0.8233	0.5089	-0.171
Mof_H 	H 	0.0252	0.826	0.4588	0.076
Mof_H 	H 	0.9267	0.8194	0.5182	0.089
Mof_C 	C 	0.0646	0.8996	0.5424	0.156
Mof_C 	C 	0.0196	0.9242	0.6067	-0.182
Mof_H 	H 	0.9615	0.8935	0.6299	0.106
Mof_C 	C 	0.0623	0.9953	0.636	0.091
Mof_H 	H 	0.0335	0.011	0.6795	-0.001
Mof_C 	C 	0.1464	0.0428	0.6017	-0.147
Mof_C 	C 	0.1918	0.0174	0.5372	0.076
Mof_H 	H 	0.2501	0.048	0.514	0.016
Mof_C 	C 	0.1492	0.9451	0.5072	-0.176
Mof_H 	H 	0.1783	0.9285	0.464	0.091
Mof_C 	C 	0.1878	0.1179	0.6324	0.308
Mof_O 	O 	0.3651	0.852	0.1865	-0.445
Mof_O 	O 	0.2201	0.8445	0.1068	-0.419
Mof_C 	C 	0.486	0.1767	0.0089	-0.17
Mof_H 	H 	0.4748	0.174	0.9588	0.075
Mof_H 	H 	0.5733	0.1806	0.0182	0.089
Mof_C 	C 	0.4354	0.1004	0.0424	0.154
Mof_C 	C 	0.4804	0.0758	0.1067	-0.18
Mof_H 	H 	0.5385	0.1065	0.1299	0.106
Mof_C 	C 	0.4377	0.0047	0.136	0.087
Mof_H 	H 	0.4665	0.989	0.1795	0.001
Mof_C 	C 	0.3536	0.9572	0.1017	-0.145
Mof_C 	C 	0.3082	0.9826	0.0372	0.073
Mof_H 	H 	0.2499	0.952	0.014	0.017
Mof_C 	C 	0.3508	0.0549	0.0072	-0.171
Mof_H 	H 	0.3217	0.0715	0.964	0.088
Mof_C 	C 	0.3122	0.8821	0.1324	0.307
Mof_O 	O 	0.8651	0.648	0.3135	-0.445
Mof_O 	O 	0.7201	0.6555	0.3932	-0.419
Mof_C 	C 	0.986	0.3233	0.4911	-0.171
Mof_H 	H 	0.9748	0.326	0.5412	0.076
Mof_H 	H 	0.0733	0.3194	0.4818	0.089
Mof_C 	C 	0.9354	0.3996	0.4576	0.156
Mof_C 	C 	0.9804	0.4242	0.3933	-0.18
Mof_H 	H 	0.0385	0.3935	0.3701	0.106
Mof_C 	C 	0.9377	0.4953	0.364	0.085
Mof_H 	H 	0.9665	0.511	0.3205	0.002
Mof_C 	C 	0.8536	0.5428	0.3983	-0.144
Mof_C 	C 	0.8082	0.5174	0.4628	0.076
Mof_H 	H 	0.7499	0.548	0.486	0.016
Mof_C 	C 	0.8508	0.4451	0.4928	-0.176
Mof_H 	H 	0.8217	0.4285	0.536	0.091
Mof_C 	C 	0.8122	0.6179	0.3676	0.307
Mof_O 	O 	0.6349	0.352	0.8135	-0.445
Mof_O 	O 	0.7799	0.3445	0.8932	-0.419
Mof_C 	C 	0.514	0.6767	0.9911	-0.171
Mof_H 	H 	0.5252	0.674	0.0412	0.075
Mof_H 	H 	0.4267	0.6806	0.9818	0.089
Mof_C 	C 	0.5646	0.6004	0.9576	0.155
Mof_C 	C 	0.5196	0.5758	0.8933	-0.18
Mof_H 	H 	0.4615	0.6065	0.8701	0.106
Mof_C 	C 	0.5623	0.5047	0.864	0.085
Mof_H 	H 	0.5335	0.489	0.8205	0.002
Mof_C 	C 	0.6464	0.4572	0.8983	-0.144
Mof_C 	C 	0.6918	0.4826	0.9628	0.075
Mof_H 	H 	0.7501	0.452	0.986	0.016
Mof_C 	C 	0.6492	0.5549	0.9928	-0.175
Mof_H 	H 	0.6783	0.5715	0.036	0.09
Mof_C 	C 	0.6878	0.3821	0.8676	0.307
Mof_N 	N 	0.9225	0.25	0.4633	-0.063
Mof_Tb	Tb	0.79233	0.25	0.79635	1.932
Mof_O 	O 	0.6892	0.25	0.6941	-0.603
Mof_O 	O 	0.49	0.25	0.664	-0.559
Mof_O 	O 	0.8495	0.25	0.3383	-0.447
Mof_H 	H 	0.8544	0.25	0.2957	0.275
Mof_O 	O 	0.6479	0.25	0.3149	-0.278
Mof_C 	C 	0.6065	0.25	0.6514	0.52
Mof_C 	C 	0.635	0.25	0.5715	-0.12
Mof_C 	C 	0.5444	0.25	0.5229	0.009
Mof_H 	H 	0.4621	0.25	0.5358	0.041
Mof_C 	C 	0.5787	0.25	0.4544	-0.027
Mof_H 	H 	0.5183	0.25	0.4203	0.056
Mof_C 	C 	0.702	0.25	0.4342	-0.091
Mof_C 	C 	0.7916	0.25	0.4859	0.086
Mof_C 	C 	0.7579	0.25	0.5536	-0.049
Mof_H 	H 	0.8175	0.25	0.5883	0.03
Mof_C 	C 	0.7303	0.25	0.3573	0.356
Mof_N 	N 	0.5775	0.75	0.9633	-0.064
Mof_Tb	Tb	0.70767	0.75	0.29635	1.932
Mof_O 	O 	0.8108	0.75	0.1941	-0.603
Mof_O 	O 	0.01	0.75	0.164	-0.558
Mof_O 	O 	0.6505	0.75	0.8383	-0.448
Mof_H 	H 	0.6456	0.75	0.7957	0.275
Mof_O 	O 	0.8521	0.75	0.8149	-0.278
Mof_C 	C 	0.8935	0.75	0.1514	0.518
Mof_C 	C 	0.865	0.75	0.0715	-0.116
Mof_C 	C 	0.9556	0.75	0.0229	0.001
Mof_H 	H 	0.0379	0.75	0.0358	0.044
Mof_C 	C 	0.9213	0.75	0.9544	-0.02
Mof_H 	H 	0.9817	0.75	0.9203	0.053
Mof_C 	C 	0.798	0.75	0.9342	-0.095
Mof_C 	C 	0.7084	0.75	0.9859	0.089
Mof_C 	C 	0.7421	0.75	0.0536	-0.054
Mof_H 	H 	0.6825	0.75	0.0883	0.031
Mof_C 	C 	0.7697	0.75	0.8573	0.357
Mof_N 	N 	0.0775	0.75	0.5367	-0.063
Mof_Tb	Tb	0.20767	0.75	0.20365	1.932
Mof_O 	O 	0.3108	0.75	0.3059	-0.603
Mof_O 	O 	0.51	0.75	0.336	-0.559
Mof_O 	O 	0.1505	0.75	0.6617	-0.447
Mof_H 	H 	0.1456	0.75	0.7043	0.275
Mof_O 	O 	0.3521	0.75	0.6851	-0.278
Mof_C 	C 	0.3935	0.75	0.3486	0.52
Mof_C 	C 	0.365	0.75	0.4285	-0.12
Mof_C 	C 	0.4556	0.75	0.4771	0.009
Mof_H 	H 	0.5379	0.75	0.4642	0.041
Mof_C 	C 	0.4213	0.75	0.5456	-0.027
Mof_H 	H 	0.4817	0.75	0.5797	0.056
Mof_C 	C 	0.298	0.75	0.5658	-0.091
Mof_C 	C 	0.2084	0.75	0.5141	0.086
Mof_C 	C 	0.2421	0.75	0.4464	-0.049
Mof_H 	H 	0.1825	0.75	0.4117	0.03
Mof_C 	C 	0.2697	0.75	0.6427	0.356
Mof_N 	N 	0.4225	0.25	0.0367	-0.064
Mof_Tb	Tb	0.29233	0.25	0.70365	1.932
Mof_O 	O 	0.1892	0.25	0.8059	-0.603
Mof_O 	O 	0.99	0.25	0.836	-0.558
Mof_O 	O 	0.3495	0.25	0.1617	-0.448
Mof_H 	H 	0.3544	0.25	0.2043	0.275
Mof_O 	O 	0.1479	0.25	0.1851	-0.278
Mof_C 	C 	0.1065	0.25	0.8486	0.518
Mof_C 	C 	0.135	0.25	0.9285	-0.116
Mof_C 	C 	0.0444	0.25	0.9771	0.001
Mof_H 	H 	0.9621	0.25	0.9642	0.044
Mof_C 	C 	0.0787	0.25	0.0456	-0.02
Mof_H 	H 	0.0183	0.25	0.0797	0.053
Mof_C 	C 	0.202	0.25	0.0658	-0.095
Mof_C 	C 	0.2916	0.25	0.0141	0.089
Mof_C 	C 	0.2579	0.25	0.9464	-0.054
Mof_H 	H 	0.3175	0.25	0.9117	0.031
Mof_C 	C 	0.2303	0.25	0.1427	0.357
_end
