data_functionalizedCrystal
_audit_creation_method	'EQeq! by Chris Wilmer'
_symmetry_space_group_name_H-M	'P1'
_symmetry_Int_Tables_number	1
_symmetry_cell_setting	triclinic
loop_
_symmetry_equiv_pos_as_xyz
  x,y,z
_cell_length_a	10.468
_cell_length_b	11.326
_cell_length_c	12.7259
_cell_angle_alpha	100.845
_cell_angle_beta	109.929
_cell_angle_gamma	99.769
loop_
_atom_site_label
_atom_site_type_symbol
_atom_site_fract_x
_atom_site_fract_y
_atom_site_fract_z
_atom_site_charge
Mof_Nd	Nd	0.89242	0.95109	0.82393	2.183
Mof_O 	O 	0.8501	0.9972	0.9991	-0.649
Mof_O 	O 	0.8779	0.0678	0.1804	-0.528
Mof_O 	O 	0.9268	0.776	0.905	-0.523
Mof_O 	O 	0.0036	0.825	0.0979	-0.556
Mof_O 	O 	0.6595	0.7914	0.7318	-0.488
Mof_O 	O 	0.8152	0.7615	0.6572	-0.488
Mof_N 	N 	0.6657	0.1312	0.2255	-0.299
Mof_H 	H 	0.6247	0.1631	0.2699	0.115
Mof_H 	H 	0.7576	0.1432	0.2531	0.149
Mof_N 	N 	0.9769	0.5784	0.796	-0.288
Mof_H 	H 	0.9846	0.5282	0.7379	0.121
Mof_H 	H 	0.9655	0.6528	0.7914	0.152
Mof_N 	N 	0.782	0.5334	0.53	-0.274
Mof_H 	H 	0.8485	0.5869	0.5915	0.141
Mof_H 	H 	0.8039	0.4818	0.4819	0.111
Mof_C 	C 	0.799	0.0279	0.0742	0.454
Mof_C 	C 	0.6449	0.0144	0.0375	-0.173
Mof_C 	C 	0.5872	0.0636	0.1146	0.131
Mof_C 	C 	0.5569	0.9524	0.9243	-0.052
Mof_H 	H 	0.5964	0.9198	0.8718	0.016
Mof_C 	C 	0.9701	0.7504	0.0004	0.457
Mof_C 	C 	0.9834	0.6196	0.9987	-0.141
Mof_C 	C 	0.983	0.5389	0.8987	0.123
Mof_C 	C 	0.0012	0.4206	0.903	-0.072
Mof_H 	H 	0.0029	0.3666	0.8369	0.038
Mof_C 	C 	0.6957	0.7272	0.6613	0.357
Mof_C 	C 	0.5954	0.6086	0.5792	-0.153
Mof_C 	C 	0.6383	0.5303	0.5076	0.079
Mof_C 	C 	0.4571	0.5793	0.5703	0.079
Mof_N 	N 	0.398	0.656	0.633	-0.274
Mof_H 	H 	0.4498	0.728	0.6819	0.14
Mof_H 	H 	0.309	0.6314	0.6231	0.112
Mof_Nd	Nd	0.10758	0.04891	0.17607	2.183
Mof_O 	O 	0.1499	0.0028	0.0009	-0.649
Mof_O 	O 	0.1221	0.9322	0.8196	-0.528
Mof_O 	O 	0.0732	0.224	0.095	-0.523
Mof_O 	O 	0.9964	0.175	0.9021	-0.556
Mof_O 	O 	0.3405	0.2086	0.2682	-0.488
Mof_O 	O 	0.1848	0.2385	0.3428	-0.488
Mof_N 	N 	0.3343	0.8688	0.7745	-0.299
Mof_H 	H 	0.3753	0.8369	0.7301	0.115
Mof_H 	H 	0.2424	0.8568	0.7469	0.149
Mof_N 	N 	0.0231	0.4216	0.204	-0.288
Mof_H 	H 	0.0154	0.4718	0.2621	0.121
Mof_H 	H 	0.0345	0.3472	0.2086	0.152
Mof_N 	N 	0.218	0.4666	0.47	-0.274
Mof_H 	H 	0.1515	0.4131	0.4085	0.141
Mof_H 	H 	0.1961	0.5182	0.5181	0.111
Mof_C 	C 	0.201	0.9721	0.9258	0.454
Mof_C 	C 	0.3551	0.9856	0.9625	-0.173
Mof_C 	C 	0.4128	0.9364	0.8854	0.131
Mof_C 	C 	0.4431	0.0476	0.0757	-0.052
Mof_H 	H 	0.4036	0.0802	0.1282	0.016
Mof_C 	C 	0.0299	0.2496	0.9996	0.457
Mof_C 	C 	0.0166	0.3804	0.0013	-0.141
Mof_C 	C 	0.017	0.4611	0.1013	0.123
Mof_C 	C 	0.9988	0.5794	0.097	-0.072
Mof_H 	H 	0.9971	0.6334	0.1631	0.038
Mof_C 	C 	0.3043	0.2728	0.3387	0.357
Mof_C 	C 	0.4046	0.3914	0.4208	-0.153
Mof_C 	C 	0.3617	0.4697	0.4924	0.079
Mof_C 	C 	0.5429	0.4207	0.4297	0.079
Mof_N 	N 	0.602	0.344	0.367	-0.274
Mof_H 	H 	0.5502	0.272	0.3181	0.14
Mof_H 	H 	0.691	0.3686	0.3769	0.112
_end
