# CIF file generated by openbabel 3.1.0, see https://openbabel.org
data_I
_chemical_name_common 'ZONBAH_clean'
_cell_length_a 7.8022
_cell_length_b 11.1795
_cell_length_c 13.4306
_cell_angle_alpha 114.595
_cell_angle_beta 102.582
_cell_angle_gamma 90
_space_group_name_H-M_alt 'P 1'
_space_group_name_Hall 'P 1'
loop_
    _symmetry_equiv_pos_as_xyz
    x,y,z
loop_
    _atom_site_label
    _atom_site_type_symbol
    _atom_site_fract_x
    _atom_site_fract_y
    _atom_site_fract_z
    _atom_site_occupancy
    Zr1      Zr       0.67802    0.03151    0.11366    1.000
    Zr2      Zr       0.82232    0.91885    0.88640    1.000
    Zr3      Zr       0.32232    0.96827    0.88647    1.000
    Zr4      Zr       0.17806    0.08188    0.11366    1.000
    C5       C        0.46817    0.04361    0.29562    1.000
    C6       C        0.48581    0.02304    0.40111    1.000
    C7       C        0.61940    0.95149    0.43218    1.000
    C8       C        0.36637    0.07137    0.47055    1.000
    C9       C        0.78517    0.49062    0.90907    1.000
    C10      C        0.78415    0.36565    0.91010    1.000
    C11      C        0.03185    0.74775    0.70395    1.000
    C12      C        0.01393    0.62149    0.59854    1.000
    C13      C        0.87948    0.51932    0.56719    1.000
    C14      C        0.13414    0.59970    0.52952    1.000
    C15      C        0.71351    0.58131    0.09513    1.000
    C16      C        0.71471    0.45551    0.09359    1.000
    C17      C        0.53172    0.95697    0.70414    1.000
    C18      C        0.51382    0.97757    0.59864    1.000
    C19      C        0.38018    0.04910    0.56756    1.000
    C20      C        0.63325    0.92926    0.52919    1.000
    C21      C        0.21525    0.50955    0.09124    1.000
    C22      C        0.21561    0.63516    0.09140    1.000
    C23      C        0.96812    0.25188    0.29590    1.000
    C24      C        0.98583    0.37810    0.40130    1.000
    C25      C        0.12024    0.48028    0.43265    1.000
    C26      C        0.86562    0.39986    0.47032    1.000
    C27      C        0.28510    0.41843    0.90887    1.000
    C28      C        0.28450    0.54390    0.90874    1.000
    C29      C        0.74975    0.21215    0.00073    1.000
    C30      C        0.75058    0.73474    0.99935    1.000
    C31      C        0.75051    0.60146    0.99929    1.000
    C32      C        0.74955    0.34626    0.00145    1.000
    C33      C        0.24989    0.78819    0.00008    1.000
    C34      C        0.25029    0.26549    0.00003    1.000
    C35      C        0.25022    0.39928    0.00005    1.000
    C36      C        0.24997    0.65431    0.00007    1.000
    O37      O        0.71483    0.19991    0.08541    1.000
    O38      O        0.58161    0.99567    0.23596    1.000
    O39      O        0.41790    0.08843    0.05829    1.000
    O40      O        0.69987    0.82960    0.07972    1.000
    O41      O        0.33907    0.10568    0.27044    1.000
    O42      O        0.78475    0.11584    0.91561    1.000
    O43      O        0.91610    0.76092    0.76235    1.000
    O44      O        0.08271    0.03067    0.94185    1.000
    O45      O        0.80126    0.75003    0.91928    1.000
    O46      O        0.16290    0.83376    0.72981    1.000
    O47      O        0.28507    0.80004    0.91525    1.000
    O48      O        0.41659    0.00290    0.76290    1.000
    O49      O        0.58265    0.91168    0.94172    1.000
    O50      O        0.30116    0.17025    0.91990    1.000
    O51      O        0.66238    0.89641    0.72982    1.000
    O52      O        0.21467    0.88482    0.08493    1.000
    O53      O        0.08240    0.23969    0.23669    1.000
    O54      O        0.91784    0.96975    0.05814    1.000
    O55      O        0.19934    0.25034    0.08012    1.000
    O56      O        0.83836    0.16501    0.27049    1.000
    H57      H        0.71369    0.91190    0.38122    1.000
    H58      H        0.26124    0.12654    0.44994    1.000
    H59      H        0.81320    0.50009    0.83702    1.000
    H60      H        0.81154    0.28324    0.83842    1.000
    H61      H        0.78461    0.53120    0.61785    1.000
    H62      H        0.23993    0.67507    0.55032    1.000
    H63      H        0.68540    0.66327    0.16681    1.000
    H64      H        0.68739    0.44375    0.16485    1.000
    H65      H        0.28594    0.08870    0.61855    1.000
    H66      H        0.73840    0.87409    0.54976    1.000
    H67      H        0.18759    0.49903    0.16295    1.000
    H68      H        0.18822    0.71732    0.16324    1.000
    H69      H        0.21515    0.46842    0.38202    1.000
    H70      H        0.75984    0.32447    0.44950    1.000
    H71      H        0.31287    0.33627    0.83717    1.000
    H72      H        0.31184    0.55428    0.83690    1.000
