# CIF file generated by openbabel 3.1.0, see https://openbabel.org
data_I
_chemical_name_common 'image0'
_cell_length_a 12.283
_cell_length_b 13.386
_cell_length_c 13.931
_cell_angle_alpha 102.14
_cell_angle_beta 101.47
_cell_angle_gamma 95.13
_space_group_name_H-M_alt 'P 1'
_space_group_name_Hall 'P 1'
loop_
    _symmetry_equiv_pos_as_xyz
    x,y,z
loop_
    _atom_site_label
    _atom_site_type_symbol
    _atom_site_fract_x
    _atom_site_fract_y
    _atom_site_fract_z
    _atom_site_occupancy
    Mn1      Mn       0.89857    0.88341    0.75075    1.000
    Mn2      Mn       0.08690    0.75711    0.60780    1.000
    O1       O        0.83773    0.99173    0.89462    1.000
    O2       O        0.72285    0.89345    0.75725    1.000
    O3       O        0.05360    0.97462    0.85500    1.000
    O4       O        0.09946    0.89672    0.71669    1.000
    O5       O        0.97522    0.83847    0.99250    1.000
    O6       O        0.91071    0.76594    0.82729    1.000
    O7       O        0.88750    0.32053    0.27620    1.000
    O8       O        0.95982    0.48696    0.34331    1.000
    O9       O        0.93169    0.64715    0.52553    1.000
    O10      O        0.87270    0.78158    0.60899    1.000
    O11      O        0.14930    0.60830    0.50239    1.000
    O12      O        0.25660    0.75452    0.58739    1.000
    C1       C        0.53508    0.96861    0.82108    1.000
    H1       H        0.52150    0.91010    0.76600    1.000
    C2       C        0.64379    0.01031    0.86905    1.000
    C3       C        0.66479    0.09941    0.94967    1.000
    H2       H        0.73990    0.12810    0.98260    1.000
    C4       C        0.57800    0.14429    0.98024    1.000
    H3       H        0.59340    0.20480    0.03320    1.000
    C5       C        0.37292    0.14314    0.96707    1.000
    H4       H        0.38630    0.20410    0.01940    1.000
    C6       C        0.26565    0.09679    0.92491    1.000
    H5       H        0.20510    0.12490    0.94890    1.000
    C7       C        0.24395    0.00681    0.84549    1.000
    C8       C        0.33063    0.96648    0.80867    1.000
    H6       H        0.31510    0.90800    0.75340    1.000
    C9       C        0.44292    0.01172    0.85272    1.000
    C10      C        0.46491    0.10148    0.93373    1.000
    C11      C        0.74006    0.96095    0.83818    1.000
    C12      C        0.12664    0.95562    0.80338    1.000
    C13      C        0.92510    0.64337    0.03498    1.000
    H7       H        0.97380    0.69440    0.08750    1.000
    C14      C        0.89260    0.66287    0.94164    1.000
    C15      C        0.81870    0.58710    0.86390    1.000
    H8       H        0.79700    0.60000    0.79880    1.000
    C16      C        0.77850    0.49640    0.88130    1.000
    H9       H        0.72730    0.44750    0.82870    1.000
    C17      C        0.77170    0.37880    0.99740    1.000
    H10      H        0.72030    0.32850    0.94630    1.000
    C18      C        0.80690    0.35980    0.09050    1.000
    H11      H        0.78120    0.29550    0.10280    1.000
    C19      C        0.88060    0.43430    0.16857    1.000
    C20      C        0.91960    0.52596    0.15063    1.000
    H12      H        0.96940    0.57580    0.20340    1.000
    C21      C        0.88700    0.54787    0.05427    1.000
    C22      C        0.81170    0.47360    0.97640    1.000
    C23      C        0.93030    0.76407    0.91889    1.000
    C24      C        0.91307    0.41144    0.27068    1.000
    C25      C        0.64751    0.69353    0.52804    1.000
    H13      H        0.66240    0.75140    0.58380    1.000
    C26      C        0.73518    0.65422    0.49189    1.000
    C27      C        0.71407    0.57117    0.40585    1.000
    H14      H        0.77490    0.54590    0.38010    1.000
    C28      C        0.60618    0.52693    0.35944    1.000
    H15      H        0.59280    0.47200    0.30110    1.000
    C29      C        0.40279    0.51337    0.35742    1.000
    H16      H        0.38770    0.45650    0.30060    1.000
    C30      C        0.31675    0.54643    0.39878    1.000
    H17      H        0.24270    0.51140    0.37160    1.000
    C31      C        0.33701    0.63264    0.48200    1.000
    C32      C        0.44417    0.68316    0.52265    1.000
    H18      H        0.45700    0.74160    0.57770    1.000
    C33      C        0.53583    0.64868    0.48305    1.000
    C34      C        0.51424    0.56275    0.39807    1.000
    C35      C        0.85243    0.69660    0.54591    1.000
    C36      C        0.24212    0.66725    0.52766    1.000
    Mn3      Mn       0.10143    0.11659    0.24925    1.000
    Mn4      Mn       0.91310    0.24289    0.39220    1.000
    O13      O        0.16227    0.00827    0.10538    1.000
    O14      O        0.27715    0.10655    0.24275    1.000
    O15      O        0.94640    0.02538    0.14500    1.000
    O16      O        0.90054    0.10328    0.28331    1.000
    O17      O        0.02478    0.16153    0.00750    1.000
    O18      O        0.08929    0.23406    0.17271    1.000
    O19      O        0.11250    0.67947    0.72380    1.000
    O20      O        0.04018    0.51304    0.65669    1.000
    O21      O        0.06831    0.35285    0.47447    1.000
    O22      O        0.12730    0.21842    0.39101    1.000
    O23      O        0.85070    0.39170    0.49761    1.000
    O24      O        0.74340    0.24548    0.41261    1.000
    C37      C        0.46492    0.03139    0.17892    1.000
    H19      H        0.47850    0.08990    0.23400    1.000
    C38      C        0.35621    0.98969    0.13095    1.000
    C39      C        0.33521    0.90059    0.05033    1.000
    H20      H        0.26010    0.87190    0.01740    1.000
    C40      C        0.42200    0.85571    0.01976    1.000
    H21      H        0.40660    0.79520    0.96680    1.000
    C41      C        0.62708    0.85686    0.03293    1.000
    H22      H        0.61370    0.79590    0.98060    1.000
    C42      C        0.73435    0.90321    0.07509    1.000
    H23      H        0.79490    0.87510    0.05110    1.000
    C43      C        0.75605    0.99319    0.15451    1.000
    C44      C        0.66937    0.03352    0.19133    1.000
    H24      H        0.68490    0.09200    0.24660    1.000
    C45      C        0.55708    0.98828    0.14728    1.000
    C46      C        0.53509    0.89852    0.06627    1.000
    C47      C        0.25994    0.03905    0.16182    1.000
    C48      C        0.87336    0.04438    0.19662    1.000
    C49      C        0.07490    0.35663    0.96502    1.000
    H25      H        0.02620    0.30560    0.91250    1.000
    C50      C        0.10740    0.33713    0.05836    1.000
    C51      C        0.18130    0.41290    0.13610    1.000
    H26      H        0.20300    0.40000    0.20120    1.000
    C52      C        0.22150    0.50360    0.11870    1.000
    H27      H        0.27270    0.55250    0.17130    1.000
    C53      C        0.22830    0.62120    0.00260    1.000
    H28      H        0.27970    0.67150    0.05370    1.000
    C54      C        0.19310    0.64020    0.90950    1.000
    H29      H        0.21880    0.70450    0.89720    1.000
    C55      C        0.11940    0.56570    0.83143    1.000
    C56      C        0.08040    0.47404    0.84937    1.000
    H30      H        0.03060    0.42420    0.79660    1.000
    C57      C        0.11300    0.45213    0.94573    1.000
    C58      C        0.18830    0.52640    0.02360    1.000
    C59      C        0.06970    0.23593    0.08111    1.000
    C60      C        0.08693    0.58856    0.72932    1.000
    C61      C        0.35249    0.30647    0.47196    1.000
    H31      H        0.33760    0.24860    0.41620    1.000
    C62      C        0.26482    0.34578    0.50811    1.000
    C63      C        0.28593    0.42883    0.59415    1.000
    H32      H        0.22510    0.45410    0.61990    1.000
    C64      C        0.39382    0.47307    0.64056    1.000
    H33      H        0.40720    0.52800    0.69890    1.000
    C65      C        0.59721    0.48663    0.64258    1.000
    H34      H        0.61230    0.54350    0.69940    1.000
    C66      C        0.68325    0.45357    0.60122    1.000
    H35      H        0.75730    0.48860    0.62840    1.000
    C67      C        0.66299    0.36736    0.51800    1.000
    C68      C        0.55583    0.31684    0.47735    1.000
    H36      H        0.54300    0.25840    0.42230    1.000
    C69      C        0.46417    0.35132    0.51695    1.000
    C70      C        0.48576    0.43725    0.60193    1.000
    C71      C        0.14757    0.30340    0.45409    1.000
    C72      C        0.75788    0.33275    0.47234    1.000
    Mn5      Mn       0.00000    0.00000    0.00000    1.000
    Mn6      Mn       0.00000    0.50000    0.50000    1.000
