data_functionalizedCrystal
_audit_creation_method	'EQeq! by Chris Wilmer'
_symmetry_space_group_name_H-M	'P1'
_symmetry_Int_Tables_number	1
_symmetry_cell_setting	triclinic
loop_
_symmetry_equiv_pos_as_xyz
  x,y,z
_cell_length_a	9.819
_cell_length_b	23.3265
_cell_length_c	8.9342
_cell_angle_alpha	90
_cell_angle_beta	90
_cell_angle_gamma	90
loop_
_atom_site_label
_atom_site_type_symbol
_atom_site_fract_x
_atom_site_fract_y
_atom_site_fract_z
_atom_site_charge
Mof_Zn	Zn	0.55949	0.04696	0.71889	1.242
Mof_P 	P 	0.5751	0.18428	0.7635	0.603
Mof_H 	H 	0.4948	0.2026	0.7193	-0.15
Mof_P 	P 	0.28745	0.00285	0.5627	0.598
Mof_H 	H 	0.2915	0.0386	0.5052	-0.167
Mof_O 	O 	0.5345	0.1229	0.7965	-0.444
Mof_O 	O 	0.3872	0.0087	0.691	-0.468
Mof_O 	O 	0.3259	0.9549	0.4573	-0.463
Mof_O 	O 	0.1423	0.9964	0.6179	-0.429
Mof_O 	O 	0.6038	0.2158	0.9069	-0.464
Mof_O 	O 	0.6865	0.1877	0.6466	-0.476
Mof_Zn	Zn	0.94051	0.45304	0.71889	1.243
Mof_P 	P 	0.9249	0.31572	0.7635	0.604
Mof_H 	H 	0.0052	0.2974	0.7193	-0.15
Mof_P 	P 	0.21255	0.49715	0.5627	0.597
Mof_H 	H 	0.2085	0.4614	0.5052	-0.167
Mof_O 	O 	0.9655	0.3771	0.7965	-0.444
Mof_O 	O 	0.1128	0.4913	0.691	-0.469
Mof_O 	O 	0.1741	0.5451	0.4573	-0.462
Mof_O 	O 	0.3577	0.5036	0.6179	-0.428
Mof_O 	O 	0.8962	0.2842	0.9069	-0.464
Mof_O 	O 	0.8135	0.3123	0.6466	-0.476
Mof_Zn	Zn	0.44051	0.54696	0.78111	1.242
Mof_P 	P 	0.4249	0.68428	0.7365	0.604
Mof_H 	H 	0.5052	0.7026	0.7807	-0.151
Mof_P 	P 	0.71255	0.50285	0.9373	0.599
Mof_H 	H 	0.7085	0.5386	0.9948	-0.167
Mof_O 	O 	0.4655	0.6229	0.7035	-0.445
Mof_O 	O 	0.6128	0.5087	0.809	-0.468
Mof_O 	O 	0.6741	0.4549	0.0427	-0.464
Mof_O 	O 	0.8577	0.4964	0.8821	-0.428
Mof_O 	O 	0.3962	0.7158	0.5931	-0.466
Mof_O 	O 	0.3135	0.6877	0.8534	-0.477
Mof_Zn	Zn	0.05949	0.95304	0.78111	1.242
Mof_P 	P 	0.0751	0.81572	0.7365	0.6
Mof_H 	H 	0.9948	0.7974	0.7807	-0.147
Mof_P 	P 	0.78745	0.99715	0.9373	0.599
Mof_H 	H 	0.7915	0.9614	0.9948	-0.167
Mof_O 	O 	0.0345	0.8771	0.7035	-0.445
Mof_O 	O 	0.8872	0.9913	0.809	-0.467
Mof_O 	O 	0.8259	0.0451	0.0427	-0.465
Mof_O 	O 	0.6423	0.0036	0.8821	-0.427
Mof_O 	O 	0.1038	0.7842	0.5931	-0.466
Mof_O 	O 	0.1865	0.8123	0.8534	-0.477
Mof_Zn	Zn	0.44051	0.95304	0.28111	1.243
Mof_P 	P 	0.4249	0.81572	0.2365	0.604
Mof_H 	H 	0.5052	0.7974	0.2807	-0.15
Mof_P 	P 	0.71255	0.99715	0.4373	0.598
Mof_H 	H 	0.7085	0.9614	0.4948	-0.167
Mof_O 	O 	0.4655	0.8771	0.2035	-0.444
Mof_O 	O 	0.6128	0.9913	0.309	-0.468
Mof_O 	O 	0.6741	0.0451	0.5427	-0.463
Mof_O 	O 	0.8577	0.0036	0.3821	-0.429
Mof_O 	O 	0.3962	0.7842	0.0931	-0.464
Mof_O 	O 	0.3135	0.8123	0.3534	-0.476
Mof_Zn	Zn	0.05949	0.54696	0.28111	1.243
Mof_P 	P 	0.0751	0.68428	0.2365	0.604
Mof_H 	H 	0.9948	0.7026	0.2807	-0.15
Mof_P 	P 	0.78745	0.50285	0.4373	0.597
Mof_H 	H 	0.7915	0.5386	0.4948	-0.167
Mof_O 	O 	0.0345	0.6229	0.2035	-0.444
Mof_O 	O 	0.8872	0.5087	0.309	-0.469
Mof_O 	O 	0.8259	0.4549	0.5427	-0.462
Mof_O 	O 	0.6423	0.4964	0.3821	-0.428
Mof_O 	O 	0.1038	0.7158	0.0931	-0.464
Mof_O 	O 	0.1865	0.6877	0.3534	-0.476
Mof_Zn	Zn	0.55949	0.45304	0.21889	1.242
Mof_P 	P 	0.5751	0.31572	0.2635	0.604
Mof_H 	H 	0.4948	0.2974	0.2193	-0.151
Mof_P 	P 	0.28745	0.49715	0.0627	0.599
Mof_H 	H 	0.2915	0.4614	0.0052	-0.167
Mof_O 	O 	0.5345	0.3771	0.2965	-0.445
Mof_O 	O 	0.3872	0.4913	0.191	-0.468
Mof_O 	O 	0.3259	0.5451	0.9573	-0.464
Mof_O 	O 	0.1423	0.5036	0.1179	-0.428
Mof_O 	O 	0.6038	0.2842	0.4069	-0.466
Mof_O 	O 	0.6865	0.3123	0.1466	-0.477
Mof_Zn	Zn	0.94051	0.04696	0.21889	1.242
Mof_P 	P 	0.9249	0.18428	0.2635	0.6
Mof_H 	H 	0.0052	0.2026	0.2193	-0.147
Mof_P 	P 	0.21255	0.00285	0.0627	0.599
Mof_H 	H 	0.2085	0.0386	0.0052	-0.167
Mof_O 	O 	0.9655	0.1229	0.2965	-0.445
Mof_O 	O 	0.1128	0.0087	0.191	-0.467
Mof_O 	O 	0.1741	0.9549	0.9573	-0.465
Mof_O 	O 	0.3577	0.9964	0.1179	-0.427
Mof_O 	O 	0.8962	0.2158	0.4069	-0.466
Mof_O 	O 	0.8135	0.1877	0.1466	-0.477
Mof_Zn	Zn	0.75	0.25	0.01825	1.236
Mof_Zn	Zn	0.25	0.75	0.48175	1.238
Mof_Zn	Zn	0.25	0.75	0.98175	1.236
Mof_Zn	Zn	0.75	0.25	0.51825	1.238
_end
