# CIF file generated by openbabel 3.1.0, see https://openbabel.org
data_I
_chemical_name_common 'image0'
_cell_length_a 10.799
_cell_length_b 10.799
_cell_length_c 20.897
_cell_angle_alpha 90
_cell_angle_beta 90
_cell_angle_gamma 90
_space_group_name_H-M_alt 'P 1'
_space_group_name_Hall 'P 1'
loop_
    _symmetry_equiv_pos_as_xyz
    x,y,z
loop_
    _atom_site_label
    _atom_site_type_symbol
    _atom_site_fract_x
    _atom_site_fract_y
    _atom_site_fract_z
    _atom_site_occupancy
    O1       O        0.53870    0.11940    0.64460    1.000
    N1       N        0.28970    0.05020    0.70780    1.000
    C1       C        0.98490    0.11650    0.66700    1.000
    N2       N        0.97470    0.17440    0.62170    1.000
    N3       N        0.53650    0.11400    0.77870    1.000
    C2       C        0.19400    0.03020    0.72100    1.000
    C3       C        0.60880    0.21850    0.65380    1.000
    C4       C        0.64330    0.26330    0.71160    1.000
    H1       H        0.71900    0.35100    0.70800    1.000
    C5       C        0.65120    0.28050    0.59290    1.000
    H2       H        0.61800    0.23690    0.55670    1.000
    H3       H        0.74000    0.27930    0.59090    1.000
    H4       H        0.62260    0.36460    0.59230    1.000
    C6       C        0.60190    0.21960    0.77150    1.000
    C7       C        0.63360    0.29490    0.83080    1.000
    H5       H        0.60010    0.25480    0.86790    1.000
    H6       H        0.59870    0.37630    0.82690    1.000
    H7       H        0.72190    0.30110    0.83490    1.000
    C8       C        0.49570    0.06050    0.83920    1.000
    H8       H        0.54590    0.09380    0.87370    1.000
    H9       H        0.41040    0.08420    0.84710    1.000
    O2       O        0.46130    0.88060    0.64460    1.000
    N4       N        0.71030    0.94980    0.70780    1.000
    C9       C        0.01510    0.88350    0.66700    1.000
    N5       N        0.02530    0.82560    0.62170    1.000
    N6       N        0.46350    0.88600    0.77870    1.000
    C10      C        0.80600    0.96980    0.72100    1.000
    C11      C        0.39120    0.78150    0.65380    1.000
    C12      C        0.35670    0.73670    0.71160    1.000
    H10      H        0.28100    0.64900    0.70800    1.000
    C13      C        0.34880    0.71950    0.59290    1.000
    H11      H        0.38200    0.76310    0.55670    1.000
    H12      H        0.26000    0.72070    0.59090    1.000
    H13      H        0.37740    0.63540    0.59230    1.000
    C14      C        0.39810    0.78040    0.77150    1.000
    C15      C        0.36640    0.70510    0.83080    1.000
    H14      H        0.39990    0.74520    0.86790    1.000
    H15      H        0.40130    0.62370    0.82690    1.000
    H16      H        0.27810    0.69890    0.83490    1.000
    C16      C        0.50430    0.93950    0.83920    1.000
    H17      H        0.45410    0.90620    0.87370    1.000
    H18      H        0.58960    0.91580    0.84710    1.000
    O3       O        0.88060    0.53870    0.14460    1.000
    N7       N        0.94980    0.28970    0.20780    1.000
    C17      C        0.88350    0.98490    0.16700    1.000
    N8       N        0.82560    0.97470    0.12170    1.000
    N9       N        0.88600    0.53650    0.27870    1.000
    C18      C        0.96980    0.19400    0.22100    1.000
    C19      C        0.78150    0.60880    0.15380    1.000
    C20      C        0.73670    0.64330    0.21160    1.000
    H19      H        0.64900    0.71900    0.20800    1.000
    C21      C        0.71950    0.65120    0.09290    1.000
    H20      H        0.76310    0.61800    0.05670    1.000
    H21      H        0.72070    0.74000    0.09090    1.000
    H22      H        0.63540    0.62260    0.09230    1.000
    C22      C        0.78040    0.60190    0.27150    1.000
    C23      C        0.70510    0.63360    0.33080    1.000
    H23      H        0.74520    0.60010    0.36790    1.000
    H24      H        0.62370    0.59870    0.32690    1.000
    H25      H        0.69890    0.72190    0.33490    1.000
    C24      C        0.93950    0.49570    0.33920    1.000
    H26      H        0.90620    0.54590    0.37370    1.000
    H27      H        0.91580    0.41040    0.34710    1.000
    O4       O        0.11940    0.46130    0.14460    1.000
    N10      N        0.05020    0.71030    0.20780    1.000
    C25      C        0.11650    0.01510    0.16700    1.000
    N11      N        0.17440    0.02530    0.12170    1.000
    N12      N        0.11400    0.46350    0.27870    1.000
    C26      C        0.03020    0.80600    0.22100    1.000
    C27      C        0.21850    0.39120    0.15380    1.000
    C28      C        0.26330    0.35670    0.21160    1.000
    H28      H        0.35100    0.28100    0.20800    1.000
    C29      C        0.28050    0.34880    0.09290    1.000
    H29      H        0.23690    0.38200    0.05670    1.000
    H30      H        0.27930    0.26000    0.09090    1.000
    H31      H        0.36460    0.37740    0.09230    1.000
    C30      C        0.21960    0.39810    0.27150    1.000
    C31      C        0.29490    0.36640    0.33080    1.000
    H32      H        0.25480    0.39990    0.36790    1.000
    H33      H        0.37630    0.40130    0.32690    1.000
    H34      H        0.30110    0.27810    0.33490    1.000
    C32      C        0.06050    0.50430    0.33920    1.000
    H35      H        0.09380    0.45410    0.37370    1.000
    H36      H        0.08420    0.58960    0.34710    1.000
    O5       O        0.46130    0.88060    0.35540    1.000
    N13      N        0.71030    0.94980    0.29220    1.000
    C33      C        0.01510    0.88350    0.33300    1.000
    N14      N        0.02530    0.82560    0.37830    1.000
    N15      N        0.46350    0.88600    0.22130    1.000
    C34      C        0.80600    0.96980    0.27900    1.000
    C35      C        0.39120    0.78150    0.34620    1.000
    C36      C        0.35670    0.73670    0.28840    1.000
    H37      H        0.28100    0.64900    0.29200    1.000
    C37      C        0.34880    0.71950    0.40710    1.000
    H38      H        0.38200    0.76310    0.44330    1.000
    H39      H        0.26000    0.72070    0.40910    1.000
    H40      H        0.37740    0.63540    0.40770    1.000
    C38      C        0.39810    0.78040    0.22850    1.000
    C39      C        0.36640    0.70510    0.16920    1.000
    H41      H        0.39990    0.74520    0.13210    1.000
    H42      H        0.40130    0.62370    0.17310    1.000
    H43      H        0.27810    0.69890    0.16510    1.000
    C40      C        0.50430    0.93950    0.16080    1.000
    H44      H        0.45410    0.90620    0.12630    1.000
    H45      H        0.58960    0.91580    0.15290    1.000
    O6       O        0.53870    0.11940    0.35540    1.000
    N16      N        0.28970    0.05020    0.29220    1.000
    C41      C        0.98490    0.11650    0.33300    1.000
    N17      N        0.97470    0.17440    0.37830    1.000
    N18      N        0.53650    0.11400    0.22130    1.000
    C42      C        0.19400    0.03020    0.27900    1.000
    C43      C        0.60880    0.21850    0.34620    1.000
    C44      C        0.64330    0.26330    0.28840    1.000
    H46      H        0.71900    0.35100    0.29200    1.000
    C45      C        0.65120    0.28050    0.40710    1.000
    H47      H        0.61800    0.23690    0.44330    1.000
    H48      H        0.74000    0.27930    0.40910    1.000
    H49      H        0.62260    0.36460    0.40770    1.000
    C46      C        0.60190    0.21960    0.22850    1.000
    C47      C        0.63360    0.29490    0.16920    1.000
    H50      H        0.60010    0.25480    0.13210    1.000
    H51      H        0.59870    0.37630    0.17310    1.000
    H52      H        0.72190    0.30110    0.16510    1.000
    C48      C        0.49570    0.06050    0.16080    1.000
    H53      H        0.54590    0.09380    0.12630    1.000
    H54      H        0.41040    0.08420    0.15290    1.000
    O7       O        0.11940    0.46130    0.85540    1.000
    N19      N        0.05020    0.71030    0.79220    1.000
    C49      C        0.11650    0.01510    0.83300    1.000
    N20      N        0.17440    0.02530    0.87830    1.000
    N21      N        0.11400    0.46350    0.72130    1.000
    C50      C        0.03020    0.80600    0.77900    1.000
    C51      C        0.21850    0.39120    0.84620    1.000
    C52      C        0.26330    0.35670    0.78840    1.000
    H55      H        0.35100    0.28100    0.79200    1.000
    C53      C        0.28050    0.34880    0.90710    1.000
    H56      H        0.23690    0.38200    0.94330    1.000
    H57      H        0.27930    0.26000    0.90910    1.000
    H58      H        0.36460    0.37740    0.90770    1.000
    C54      C        0.21960    0.39810    0.72850    1.000
    C55      C        0.29490    0.36640    0.66920    1.000
    H59      H        0.25480    0.39990    0.63210    1.000
    H60      H        0.37630    0.40130    0.67310    1.000
    H61      H        0.30110    0.27810    0.66510    1.000
    C56      C        0.06050    0.50430    0.66080    1.000
    H62      H        0.09380    0.45410    0.62630    1.000
    H63      H        0.08420    0.58960    0.65290    1.000
    O8       O        0.88060    0.53870    0.85540    1.000
    N22      N        0.94980    0.28970    0.79220    1.000
    C57      C        0.88350    0.98490    0.83300    1.000
    N23      N        0.82560    0.97470    0.87830    1.000
    N24      N        0.88600    0.53650    0.72130    1.000
    C58      C        0.96980    0.19400    0.77900    1.000
    C59      C        0.78150    0.60880    0.84620    1.000
    C60      C        0.73670    0.64330    0.78840    1.000
    H64      H        0.64900    0.71900    0.79200    1.000
    C61      C        0.71950    0.65120    0.90710    1.000
    H65      H        0.76310    0.61800    0.94330    1.000
    H66      H        0.72070    0.74000    0.90910    1.000
    H67      H        0.63540    0.62260    0.90770    1.000
    C62      C        0.78040    0.60190    0.72850    1.000
    C63      C        0.70510    0.63360    0.66920    1.000
    H68      H        0.74520    0.60010    0.63210    1.000
    H69      H        0.62370    0.59870    0.67310    1.000
    H70      H        0.69890    0.72190    0.66510    1.000
    C64      C        0.93950    0.49570    0.66080    1.000
    H71      H        0.90620    0.54590    0.62630    1.000
    H72      H        0.91580    0.41040    0.65290    1.000
    W1       W        0.00000    0.00000    0.75000    1.000
    W2       W        0.00000    0.00000    0.25000    1.000
    Mn1      Mn       0.50000    0.00000    0.70668    1.000
    Mn2      Mn       0.00000    0.50000    0.20668    1.000
    Mn3      Mn       0.50000    0.00000    0.29332    1.000
    Mn4      Mn       0.00000    0.50000    0.79332    1.000
    O9       O        0.83500    0.52500    0.50000    1.000
    K1       K        0.97030    0.29930    0.50000    1.000
    O10      O        0.16500    0.47500    0.50000    1.000
    K2       K        0.02970    0.70070    0.50000    1.000
    O11      O        0.47500    0.83500    0.00000    1.000
    K3       K        0.70070    0.97030    0.00000    1.000
    O12      O        0.52500    0.16500    0.00000    1.000
    K4       K        0.29930    0.02970    0.00000    1.000
