data_functionalizedCrystal
_audit_creation_method	'EQeq! by Chris Wilmer'
_symmetry_space_group_name_H-M	'P1'
_symmetry_Int_Tables_number	1
_symmetry_cell_setting	triclinic
loop_
_symmetry_equiv_pos_as_xyz
  x,y,z
_cell_length_a	7.491
_cell_length_b	15.386
_cell_length_c	11.226
_cell_angle_alpha	90
_cell_angle_beta	90
_cell_angle_gamma	90
loop_
_atom_site_label
_atom_site_type_symbol
_atom_site_fract_x
_atom_site_fract_y
_atom_site_fract_z
_atom_site_charge
Mof_Mn	Mn	0.47669	0.21766	0.35745	0.832
Mof_C 	C 	0.6471	0.39409	0.2743	0.33
Mof_C 	C 	0.7612	0.65513	0.0114	0.127
Mof_C 	C 	0.5909	0.48003	0.2203	0.016
Mof_C 	C 	0.4274	0.51596	0.2554	-0.255
Mof_H 	H 	0.3547	0.4853	0.3078	0.122
Mof_C 	C 	0.3714	0.5964	0.2135	0.334
Mof_C 	C 	0.4831	0.6411	0.1355	-0.279
Mof_H 	H 	0.4489	0.6956	0.1082	0.112
Mof_C 	C 	0.6444	0.60612	0.0973	0.057
Mof_C 	C 	0.6988	0.52525	0.1407	-0.117
Mof_H 	H 	0.8072	0.5017	0.1165	0.062
Mof_C 	C 	0.1941	0.6342	0.2524	-0.862
Mof_H 	H 	0.1361	0.5945	0.3058	0.279
Mof_H 	H 	0.12	0.6434	0.1838	0.279
Mof_H 	H 	0.2139	0.6885	0.2922	0.274
Mof_O 	O 	0.5252	0.34916	0.3194	-0.401
Mof_O 	O 	0.8103	0.37599	0.2724	-0.4
Mof_O 	O 	0.7144	0.73122	0.9797	-0.298
Mof_O 	O 	0.9037	0.62206	0.9758	-0.269
Mof_Mn	Mn	0.52331	0.78234	0.85745	0.843
Mof_C 	C 	0.3529	0.60591	0.7743	0.338
Mof_C 	C 	0.2388	0.34487	0.5114	0.293
Mof_C 	C 	0.4091	0.51997	0.7203	0.019
Mof_C 	C 	0.5726	0.48404	0.7554	-0.253
Mof_H 	H 	0.6453	0.5147	0.8078	0.133
Mof_C 	C 	0.6286	0.4036	0.7135	0.351
Mof_C 	C 	0.5169	0.3589	0.6355	-0.256
Mof_H 	H 	0.5511	0.3044	0.6082	0.123
Mof_C 	C 	0.3556	0.39388	0.5973	0.023
Mof_C 	C 	0.3012	0.47475	0.6407	-0.089
Mof_H 	H 	0.1928	0.4983	0.6165	0.068
Mof_C 	C 	0.8059	0.3658	0.7524	-0.901
Mof_H 	H 	0.8639	0.4055	0.8058	0.301
Mof_H 	H 	0.88	0.3566	0.6838	0.303
Mof_H 	H 	0.7861	0.3115	0.7922	0.295
Mof_O 	O 	0.4748	0.65084	0.8194	-0.389
Mof_O 	O 	0.1897	0.62401	0.7724	-0.393
Mof_O 	O 	0.2856	0.26878	0.4797	-0.388
Mof_O 	O 	0.0963	0.37794	0.4758	-0.362
Mof_Mn	Mn	0.97669	0.28234	0.35745	0.829
Mof_C 	C 	0.1471	0.10591	0.2743	0.331
Mof_C 	C 	0.2612	0.84487	0.0114	0.133
Mof_C 	C 	0.0909	0.01997	0.2203	0.018
Mof_C 	C 	0.9274	0.98404	0.2554	-0.249
Mof_H 	H 	0.8547	0.0147	0.3078	0.117
Mof_C 	C 	0.8714	0.9036	0.2135	0.33
Mof_C 	C 	0.9831	0.8589	0.1355	-0.275
Mof_H 	H 	0.9489	0.8044	0.1082	0.111
Mof_C 	C 	0.1444	0.89388	0.0973	0.054
Mof_C 	C 	0.1988	0.97475	0.1407	-0.119
Mof_H 	H 	0.3072	0.9983	0.1165	0.063
Mof_C 	C 	0.6941	0.8658	0.2524	-0.856
Mof_H 	H 	0.6361	0.9055	0.3058	0.278
Mof_H 	H 	0.62	0.8566	0.1838	0.277
Mof_H 	H 	0.7139	0.8115	0.2922	0.273
Mof_O 	O 	0.0252	0.15084	0.3194	-0.398
Mof_O 	O 	0.3103	0.12401	0.2724	-0.399
Mof_O 	O 	0.2144	0.76878	0.9797	-0.302
Mof_O 	O 	0.4037	0.87794	0.9758	-0.273
Mof_Mn	Mn	0.02331	0.71766	0.85745	0.838
Mof_C 	C 	0.8529	0.89409	0.7743	0.338
Mof_C 	C 	0.7388	0.15513	0.5114	0.294
Mof_C 	C 	0.9091	0.98003	0.7203	0.022
Mof_C 	C 	0.0726	0.01596	0.7554	-0.25
Mof_H 	H 	0.1453	0.9853	0.8078	0.13
Mof_C 	C 	0.1286	0.0964	0.7135	0.348
Mof_C 	C 	0.0169	0.1411	0.6355	-0.25
Mof_H 	H 	0.0511	0.1956	0.6082	0.122
Mof_C 	C 	0.8556	0.10612	0.5973	0.019
Mof_C 	C 	0.8012	0.02525	0.6407	-0.093
Mof_H 	H 	0.6928	0.0017	0.6165	0.069
Mof_C 	C 	0.3059	0.1342	0.7524	-0.897
Mof_H 	H 	0.3639	0.0945	0.8058	0.3
Mof_H 	H 	0.38	0.1434	0.6838	0.303
Mof_H 	H 	0.2861	0.1885	0.7922	0.295
Mof_O 	O 	0.9748	0.84916	0.8194	-0.387
Mof_O 	O 	0.6897	0.87599	0.7724	-0.392
Mof_O 	O 	0.7856	0.23122	0.4797	-0.39
Mof_O 	O 	0.5963	0.12206	0.4758	-0.364
_end
