data_functionalizedCrystal
_audit_creation_method	'EQeq! by Chris Wilmer'
_symmetry_space_group_name_H-M	'P1'
_symmetry_Int_Tables_number	1
_symmetry_cell_setting	triclinic
loop_
_symmetry_equiv_pos_as_xyz
  x,y,z
_cell_length_a	22.9556
_cell_length_b	22.9556
_cell_length_c	15.883
_cell_angle_alpha	90
_cell_angle_beta	90
_cell_angle_gamma	120
loop_
_atom_site_label
_atom_site_type_symbol
_atom_site_fract_x
_atom_site_fract_y
_atom_site_fract_z
_atom_site_charge
Mof_O 	O 	0.5967	0.6303	0.1623	-0.517
Mof_C 	C 	0.675	0.8328	0.9212	0.226
Mof_C 	C 	0.6878	0.8924	0.8786	-0.192
Mof_C 	C 	0.6527	0.7731	0.8761	-0.125
Mof_H 	H 	0.6427	0.7334	0.9036	0.075
Mof_C 	C 	0.5754	0.6248	0.0877	0.383
Mof_O 	O 	0.5936	0.679	0.045	-0.479
Mof_O 	O 	0.6835	0.8343	0.006	-0.596
Mof_O 	O 	0.26337	0.96363	0.49563	-0.505
Mof_C 	C 	0.34167	0.16613	0.25453	0.215
Mof_C 	C 	0.35447	0.22573	0.21193	-0.182
Mof_C 	C 	0.31937	0.10643	0.20943	-0.141
Mof_H 	H 	0.30937	0.06673	0.23693	0.061
Mof_C 	C 	0.24207	0.95813	0.42103	0.473
Mof_O 	O 	0.26027	0.01233	0.37833	-0.563
Mof_O 	O 	0.35017	0.16763	0.33933	-0.604
Mof_O 	O 	0.93003	0.29697	0.82897	-0.49
Mof_C 	C 	0.00833	0.49947	0.58787	0.063
Mof_C 	C 	0.02113	0.55907	0.54527	-0.096
Mof_C 	C 	0.98603	0.43977	0.54277	0.059
Mof_H 	H 	0.97603	0.40007	0.57027	0.033
Mof_C 	C 	0.90873	0.29147	0.75437	0.381
Mof_O 	O 	0.92693	0.34567	0.71167	-0.448
Mof_O 	O 	0.01683	0.50097	0.67267	-0.594
Mof_O 	O 	0.3697	0.9664	0.1623	-0.491
Mof_C 	C 	0.1672	0.8422	0.9212	0.209
Mof_C 	C 	0.1076	0.7954	0.8786	-0.157
Mof_C 	C 	0.2269	0.8796	0.8761	-0.119
Mof_H 	H 	0.2666	0.9093	0.9036	0.084
Mof_C 	C 	0.3752	0.9506	0.0877	0.416
Mof_O 	O 	0.321	0.9146	0.045	-0.479
Mof_O 	O 	0.1657	0.8492	0.006	-0.597
Mof_O 	O 	0.03637	0.29973	0.49563	-0.529
Mof_C 	C 	0.83387	0.17553	0.25453	0.21
Mof_C 	C 	0.77427	0.12873	0.21193	-0.18
Mof_C 	C 	0.89357	0.21293	0.20943	-0.107
Mof_H 	H 	0.93327	0.24263	0.23693	0.084
Mof_C 	C 	0.04187	0.28393	0.42103	0.289
Mof_O 	O 	0.98767	0.24793	0.37833	-0.402
Mof_O 	O 	0.83237	0.18253	0.33933	-0.6
Mof_O 	O 	0.70303	0.63307	0.82897	-0.513
Mof_C 	C 	0.50053	0.50887	0.58787	0.213
Mof_C 	C 	0.44093	0.46207	0.54527	-0.175
Mof_C 	C 	0.56023	0.54627	0.54277	-0.121
Mof_H 	H 	0.59993	0.57597	0.57027	0.073
Mof_C 	C 	0.70853	0.61727	0.75437	0.382
Mof_O 	O 	0.65433	0.58127	0.71167	-0.478
Mof_O 	O 	0.49903	0.51587	0.67267	-0.6
Mof_O 	O 	0.0336	0.4033	0.1623	-0.529
Mof_C 	C 	0.1578	0.325	0.9212	0.205
Mof_C 	C 	0.2046	0.3122	0.8786	-0.177
Mof_C 	C 	0.1204	0.3473	0.8761	-0.122
Mof_H 	H 	0.0907	0.3573	0.9036	0.06
Mof_C 	C 	0.0494	0.4246	0.0877	0.35
Mof_O 	O 	0.0854	0.4064	0.045	-0.479
Mof_O 	O 	0.1508	0.3165	0.006	-0.608
Mof_O 	O 	0.70027	0.73663	0.49563	-0.512
Mof_C 	C 	0.82447	0.65833	0.25453	0.212
Mof_C 	C 	0.87127	0.64553	0.21193	-0.16
Mof_C 	C 	0.78707	0.68063	0.20943	-0.114
Mof_H 	H 	0.75737	0.69063	0.23693	0.073
Mof_C 	C 	0.71607	0.75793	0.42103	0.387
Mof_O 	O 	0.75207	0.73973	0.37833	-0.47
Mof_O 	O 	0.81747	0.64983	0.33933	-0.595
Mof_O 	O 	0.36693	0.06997	0.82897	-0.541
Mof_C 	C 	0.49113	0.99167	0.58787	0.36
Mof_C 	C 	0.53793	0.97887	0.54527	-0.25
Mof_C 	C 	0.45373	0.01397	0.54277	-0.301
Mof_H 	H 	0.42403	0.02397	0.57027	0.114
Mof_C 	C 	0.38273	0.09127	0.75437	0.385
Mof_O 	O 	0.41873	0.07307	0.71167	-0.5
Mof_O 	O 	0.48413	0.98317	0.67267	-0.586
Mof_O 	O 	0.6303	0.5967	0.3377	-0.516
Mof_C 	C 	0.8328	0.675	0.5788	0.227
Mof_C 	C 	0.8924	0.6878	0.6214	-0.191
Mof_C 	C 	0.7731	0.6527	0.6239	-0.125
Mof_H 	H 	0.7334	0.6427	0.5964	0.075
Mof_C 	C 	0.6248	0.5754	0.4123	0.383
Mof_O 	O 	0.679	0.5936	0.455	-0.478
Mof_O 	O 	0.8343	0.6835	0.494	-0.595
Mof_O 	O 	0.29697	0.93003	0.67103	-0.489
Mof_C 	C 	0.49947	0.00833	0.91213	0.065
Mof_C 	C 	0.55907	0.02113	0.95473	-0.098
Mof_C 	C 	0.43977	0.98603	0.95723	0.059
Mof_H 	H 	0.40007	0.97603	0.92973	0.033
Mof_C 	C 	0.29147	0.90873	0.74563	0.38
Mof_O 	O 	0.34567	0.92693	0.78833	-0.448
Mof_O 	O 	0.50097	0.01683	0.82733	-0.595
Mof_O 	O 	0.96363	0.26337	0.00437	-0.505
Mof_C 	C 	0.16613	0.34167	0.24547	0.215
Mof_C 	C 	0.22573	0.35447	0.28807	-0.182
Mof_C 	C 	0.10643	0.31937	0.29057	-0.141
Mof_H 	H 	0.06673	0.30937	0.26307	0.061
Mof_C 	C 	0.95813	0.24207	0.07897	0.474
Mof_O 	O 	0.01233	0.26027	0.12167	-0.563
Mof_O 	O 	0.16763	0.35017	0.16067	-0.604
Mof_O 	O 	0.9664	0.3697	0.3377	-0.491
Mof_C 	C 	0.8422	0.1672	0.5788	0.207
Mof_C 	C 	0.7954	0.1076	0.6214	-0.156
Mof_C 	C 	0.8796	0.2269	0.6239	-0.118
Mof_H 	H 	0.9093	0.2666	0.5964	0.083
Mof_C 	C 	0.9506	0.3752	0.4123	0.416
Mof_O 	O 	0.9146	0.321	0.455	-0.478
Mof_O 	O 	0.8492	0.1657	0.494	-0.596
Mof_O 	O 	0.63307	0.70303	0.67103	-0.513
Mof_C 	C 	0.50887	0.50053	0.91213	0.213
Mof_C 	C 	0.46207	0.44093	0.95473	-0.175
Mof_C 	C 	0.54627	0.56023	0.95723	-0.122
Mof_H 	H 	0.57597	0.59993	0.92973	0.073
Mof_C 	C 	0.61727	0.70853	0.74563	0.382
Mof_O 	O 	0.58127	0.65433	0.78833	-0.478
Mof_O 	O 	0.51587	0.49903	0.82733	-0.6
Mof_O 	O 	0.29973	0.03637	0.00437	-0.529
Mof_C 	C 	0.17553	0.83387	0.24547	0.21
Mof_C 	C 	0.12873	0.77427	0.28807	-0.18
Mof_C 	C 	0.21293	0.89357	0.29057	-0.108
Mof_H 	H 	0.24263	0.93327	0.26307	0.085
Mof_C 	C 	0.28393	0.04187	0.07897	0.291
Mof_O 	O 	0.24793	0.98767	0.12167	-0.404
Mof_O 	O 	0.18253	0.83237	0.16067	-0.6
Mof_O 	O 	0.4033	0.0336	0.3377	-0.529
Mof_C 	C 	0.325	0.1578	0.5788	0.204
Mof_C 	C 	0.3122	0.2046	0.6214	-0.177
Mof_C 	C 	0.3473	0.1204	0.6239	-0.121
Mof_H 	H 	0.3573	0.0907	0.5964	0.06
Mof_C 	C 	0.4246	0.0494	0.4123	0.349
Mof_O 	O 	0.4064	0.0854	0.455	-0.479
Mof_O 	O 	0.3165	0.1508	0.494	-0.608
Mof_O 	O 	0.06997	0.36693	0.67103	-0.541
Mof_C 	C 	0.99167	0.49113	0.91213	0.357
Mof_C 	C 	0.97887	0.53793	0.95473	-0.25
Mof_C 	C 	0.01397	0.45373	0.95723	-0.296
Mof_H 	H 	0.02397	0.42403	0.92973	0.113
Mof_C 	C 	0.09127	0.38273	0.74563	0.385
Mof_O 	O 	0.07307	0.41873	0.78833	-0.499
Mof_O 	O 	0.98317	0.48413	0.82733	-0.586
Mof_O 	O 	0.73663	0.70027	0.00437	-0.513
Mof_C 	C 	0.65833	0.82447	0.24547	0.213
Mof_C 	C 	0.64553	0.87127	0.28807	-0.161
Mof_C 	C 	0.68063	0.78707	0.29057	-0.115
Mof_H 	H 	0.69063	0.75737	0.26307	0.073
Mof_C 	C 	0.75793	0.71607	0.07897	0.388
Mof_O 	O 	0.73973	0.75207	0.12167	-0.471
Mof_O 	O 	0.64983	0.81747	0.16067	-0.595
Mof_O 	O 	0.4033	0.3697	0.8377	-0.515
Mof_C 	C 	0.325	0.1672	0.0788	0.199
Mof_C 	C 	0.3122	0.1076	0.1214	-0.158
Mof_C 	C 	0.3473	0.2269	0.1239	-0.118
Mof_H 	H 	0.3573	0.2666	0.0964	0.07
Mof_C 	C 	0.4246	0.3752	0.9123	0.384
Mof_O 	O 	0.4064	0.321	0.955	-0.479
Mof_O 	O 	0.3165	0.1657	0.994	-0.605
Mof_O 	O 	0.06997	0.70303	0.17103	-0.539
Mof_C 	C 	0.99167	0.50053	0.41213	0.36
Mof_C 	C 	0.97887	0.44093	0.45473	-0.25
Mof_C 	C 	0.01397	0.56023	0.45723	-0.301
Mof_H 	H 	0.02397	0.59993	0.42973	0.114
Mof_C 	C 	0.09127	0.70853	0.24563	0.384
Mof_O 	O 	0.07307	0.65433	0.28833	-0.499
Mof_O 	O 	0.98317	0.49903	0.32733	-0.586
Mof_O 	O 	0.73663	0.03637	0.50437	-0.526
Mof_C 	C 	0.65833	0.83387	0.74547	0.211
Mof_C 	C 	0.64553	0.77427	0.78807	-0.167
Mof_C 	C 	0.68063	0.89357	0.79057	-0.101
Mof_H 	H 	0.69063	0.93327	0.76307	0.085
Mof_C 	C 	0.75793	0.04187	0.57897	0.293
Mof_O 	O 	0.73973	0.98767	0.62167	-0.394
Mof_O 	O 	0.64983	0.83237	0.66067	-0.595
Mof_O 	O 	0.6303	0.0336	0.8377	-0.53
Mof_C 	C 	0.8328	0.1578	0.0788	0.22
Mof_C 	C 	0.8924	0.2046	0.1214	-0.194
Mof_C 	C 	0.7731	0.1204	0.1239	-0.126
Mof_H 	H 	0.7334	0.0907	0.0964	0.063
Mof_C 	C 	0.6248	0.0494	0.9123	0.35
Mof_O 	O 	0.679	0.0854	0.955	-0.479
Mof_O 	O 	0.8343	0.1508	0.994	-0.605
Mof_O 	O 	0.29697	0.36693	0.17103	-0.518
Mof_C 	C 	0.49947	0.49113	0.41213	0.213
Mof_C 	C 	0.55907	0.53793	0.45473	-0.175
Mof_C 	C 	0.43977	0.45373	0.45723	-0.121
Mof_H 	H 	0.40007	0.42403	0.42973	0.073
Mof_C 	C 	0.29147	0.38273	0.24563	0.384
Mof_O 	O 	0.34567	0.41873	0.28833	-0.48
Mof_O 	O 	0.50097	0.48413	0.32733	-0.6
Mof_O 	O 	0.96363	0.70027	0.50437	-0.501
Mof_C 	C 	0.16613	0.82447	0.74547	0.214
Mof_C 	C 	0.22573	0.87127	0.78807	-0.167
Mof_C 	C 	0.10643	0.78707	0.79057	-0.134
Mof_H 	H 	0.06673	0.75737	0.76307	0.061
Mof_C 	C 	0.95813	0.71607	0.57897	0.477
Mof_O 	O 	0.01233	0.75207	0.62167	-0.555
Mof_O 	O 	0.16763	0.81747	0.66067	-0.599
Mof_O 	O 	0.9664	0.5967	0.8377	-0.492
Mof_C 	C 	0.8422	0.675	0.0788	0.222
Mof_C 	C 	0.7954	0.6878	0.1214	-0.173
Mof_C 	C 	0.8796	0.6527	0.1239	-0.122
Mof_H 	H 	0.9093	0.6427	0.0964	0.086
Mof_C 	C 	0.9506	0.5754	0.9123	0.416
Mof_O 	O 	0.9146	0.5936	0.955	-0.478
Mof_O 	O 	0.8492	0.6835	0.994	-0.593
Mof_O 	O 	0.63307	0.93003	0.17103	-0.487
Mof_C 	C 	0.50887	0.00833	0.41213	0.063
Mof_C 	C 	0.46207	0.02113	0.45473	-0.096
Mof_C 	C 	0.54627	0.98603	0.45723	0.059
Mof_H 	H 	0.57597	0.97603	0.42973	0.033
Mof_C 	C 	0.61727	0.90873	0.24563	0.38
Mof_O 	O 	0.58127	0.92693	0.28833	-0.447
Mof_O 	O 	0.51587	0.01683	0.32733	-0.594
Mof_O 	O 	0.29973	0.26337	0.50437	-0.519
Mof_C 	C 	0.17553	0.34167	0.74547	0.212
Mof_C 	C 	0.12873	0.35447	0.78807	-0.188
Mof_C 	C 	0.21293	0.31937	0.79057	-0.128
Mof_H 	H 	0.24263	0.30937	0.76307	0.072
Mof_C 	C 	0.28393	0.24207	0.57897	0.379
Mof_O 	O 	0.24793	0.26027	0.62167	-0.487
Mof_O 	O 	0.18253	0.35017	0.66067	-0.605
Mof_O 	O 	0.3697	0.4033	0.6623	-0.515
Mof_C 	C 	0.1672	0.325	0.4212	0.198
Mof_C 	C 	0.1076	0.3122	0.3786	-0.158
Mof_C 	C 	0.2269	0.3473	0.3761	-0.118
Mof_H 	H 	0.2666	0.3573	0.4036	0.07
Mof_C 	C 	0.3752	0.4246	0.5877	0.384
Mof_O 	O 	0.321	0.4064	0.545	-0.479
Mof_O 	O 	0.1657	0.3165	0.506	-0.604
Mof_O 	O 	0.03637	0.73663	0.99563	-0.526
Mof_C 	C 	0.83387	0.65833	0.75453	0.211
Mof_C 	C 	0.77427	0.64553	0.71193	-0.167
Mof_C 	C 	0.89357	0.68063	0.70943	-0.101
Mof_H 	H 	0.93327	0.69063	0.73693	0.085
Mof_C 	C 	0.04187	0.75793	0.92103	0.296
Mof_O 	O 	0.98767	0.73973	0.87833	-0.396
Mof_O 	O 	0.83237	0.64983	0.83933	-0.595
Mof_O 	O 	0.70303	0.06997	0.32897	-0.539
Mof_C 	C 	0.50053	0.99167	0.08787	0.357
Mof_C 	C 	0.44093	0.97887	0.04527	-0.25
Mof_C 	C 	0.56023	0.01397	0.04277	-0.296
Mof_H 	H 	0.59993	0.02397	0.07027	0.113
Mof_C 	C 	0.70853	0.09127	0.25437	0.384
Mof_O 	O 	0.65433	0.07307	0.21167	-0.499
Mof_O 	O 	0.49903	0.98317	0.17267	-0.586
Mof_O 	O 	0.0336	0.6303	0.6623	-0.529
Mof_C 	C 	0.1578	0.8328	0.4212	0.218
Mof_C 	C 	0.2046	0.8924	0.3786	-0.193
Mof_C 	C 	0.1204	0.7731	0.3761	-0.125
Mof_H 	H 	0.0907	0.7334	0.4036	0.062
Mof_C 	C 	0.0494	0.6248	0.5877	0.349
Mof_O 	O 	0.0854	0.679	0.545	-0.479
Mof_O 	O 	0.1508	0.8343	0.506	-0.604
Mof_O 	O 	0.70027	0.96363	0.99563	-0.502
Mof_C 	C 	0.82447	0.16613	0.75453	0.215
Mof_C 	C 	0.87127	0.22573	0.71193	-0.168
Mof_C 	C 	0.78707	0.10643	0.70943	-0.134
Mof_H 	H 	0.75737	0.06673	0.73693	0.061
Mof_C 	C 	0.71607	0.95813	0.92103	0.477
Mof_O 	O 	0.75207	0.01233	0.87833	-0.555
Mof_O 	O 	0.81747	0.16763	0.83933	-0.599
Mof_O 	O 	0.36693	0.29697	0.32897	-0.518
Mof_C 	C 	0.49113	0.49947	0.08787	0.213
Mof_C 	C 	0.53793	0.55907	0.04527	-0.175
Mof_C 	C 	0.45373	0.43977	0.04277	-0.121
Mof_H 	H 	0.42403	0.40007	0.07027	0.073
Mof_C 	C 	0.38273	0.29147	0.25437	0.384
Mof_O 	O 	0.41873	0.34567	0.21167	-0.48
Mof_O 	O 	0.48413	0.50097	0.17267	-0.6
Mof_O 	O 	0.5967	0.9664	0.6623	-0.491
Mof_C 	C 	0.675	0.8422	0.4212	0.221
Mof_C 	C 	0.6878	0.7954	0.3786	-0.173
Mof_C 	C 	0.6527	0.8796	0.3761	-0.122
Mof_H 	H 	0.6427	0.9093	0.4036	0.086
Mof_C 	C 	0.5754	0.9506	0.5877	0.416
Mof_O 	O 	0.5936	0.9146	0.545	-0.478
Mof_O 	O 	0.6835	0.8492	0.506	-0.591
Mof_O 	O 	0.26337	0.29973	0.99563	-0.519
Mof_C 	C 	0.34167	0.17553	0.75453	0.212
Mof_C 	C 	0.35447	0.12873	0.71193	-0.188
Mof_C 	C 	0.31937	0.21293	0.70943	-0.128
Mof_H 	H 	0.30937	0.24263	0.73693	0.072
Mof_C 	C 	0.24207	0.28393	0.92103	0.379
Mof_O 	O 	0.26027	0.24793	0.87833	-0.487
Mof_O 	O 	0.35017	0.18253	0.83933	-0.605
Mof_O 	O 	0.93003	0.63307	0.32897	-0.487
Mof_C 	C 	0.00833	0.50887	0.08787	0.065
Mof_C 	C 	0.02113	0.46207	0.04527	-0.098
Mof_C 	C 	0.98603	0.54627	0.04277	0.058
Mof_H 	H 	0.97603	0.57597	0.07027	0.033
Mof_C 	C 	0.90873	0.61727	0.25437	0.379
Mof_O 	O 	0.92693	0.58127	0.21167	-0.447
Mof_O 	O 	0.01683	0.51587	0.17267	-0.595
Mof_Zn	Zn	0.66667	0.76132	0.08333	1.236
Mof_Zn	Zn	0.66667	0.89292	0.08333	1.214
Mof_Zn	Zn	0.23868	0.90534	0.08333	1.237
Mof_Zn	Zn	0.10708	0.77374	0.08333	1.205
Mof_Zn	Zn	0.09466	0.33333	0.08333	1.232
Mof_Zn	Zn	0.22626	0.33333	0.08333	1.207
Mof_Zn	Zn	0.76132	0.66667	0.41667	1.236
Mof_Zn	Zn	0.89292	0.66667	0.41667	1.214
Mof_Zn	Zn	0.42799	0	0.75	1.21
Mof_Zn	Zn	0.55959	0	0.75	1.184
Mof_Zn	Zn	0.90534	0.23868	0.41667	1.237
Mof_Zn	Zn	0.77374	0.10708	0.41667	1.205
Mof_Zn	Zn	0.57201	0.57201	0.75	1.235
Mof_Zn	Zn	0.44041	0.44041	0.75	1.209
Mof_Zn	Zn	0.33333	0.09466	0.41667	1.232
Mof_Zn	Zn	0.33333	0.22626	0.41667	1.207
Mof_Zn	Zn	3.05567e-17	0.42799	0.75	1.21
Mof_Zn	Zn	3.05567e-17	0.55959	0.75	1.185
Mof_Zn	Zn	0.33333	0.23868	0.91667	1.234
Mof_Zn	Zn	0.33333	0.10708	0.91667	1.203
Mof_Zn	Zn	-2.11834e-17	0.57201	0.25	1.21
Mof_Zn	Zn	-2.11834e-17	0.44041	0.25	1.185
Mof_Zn	Zn	0.76132	0.09466	0.91667	1.233
Mof_Zn	Zn	0.89292	0.22626	0.91667	1.212
Mof_Zn	Zn	0.42799	0.42799	0.25	1.235
Mof_Zn	Zn	0.55959	0.55959	0.25	1.209
Mof_Zn	Zn	0.90534	0.66667	0.91667	1.238
Mof_Zn	Zn	0.77374	0.66667	0.91667	1.21
Mof_Zn	Zn	0.57201	0	0.25	1.21
Mof_Zn	Zn	0.44041	0	0.25	1.185
Mof_Zn	Zn	0.23868	0.33333	0.58333	1.234
Mof_Zn	Zn	0.10708	0.33333	0.58333	1.204
Mof_Zn	Zn	0.09466	0.76132	0.58333	1.233
Mof_Zn	Zn	0.22626	0.89292	0.58333	1.213
Mof_Zn	Zn	0.66667	0.90534	0.58333	1.238
Mof_Zn	Zn	0.66667	0.77374	0.58333	1.211
_end
