# CIF file generated by openbabel 3.1.0, see https://openbabel.org
data_I
_chemical_name_common 'KAPGUE_clean'
_cell_length_a 8.307
_cell_length_b 8.769
_cell_length_c 9.204
_cell_angle_alpha 95.63
_cell_angle_beta 115.61
_cell_angle_gamma 110.26
_space_group_name_H-M_alt 'P 1'
_space_group_name_Hall 'P 1'
loop_
    _symmetry_equiv_pos_as_xyz
    x,y,z
loop_
    _atom_site_label
    _atom_site_type_symbol
    _atom_site_fract_x
    _atom_site_fract_y
    _atom_site_fract_z
    _atom_site_occupancy
    La1      La       0.92008    0.99141    0.73032    1.000
    La2      La       0.07992    0.00859    0.26968    1.000
    C1       C        0.32870    0.99520    0.10760    1.000
    C2       C        0.45340    0.99880    0.03340    1.000
    C3       C        0.15080    0.44510    0.88990    1.000
    C4       C        0.33140    0.57590    0.04010    1.000
    C5       C        0.47580    0.67450    0.16530    1.000
    C6       C        0.65090    0.78990    0.32490    1.000
    C7       C        0.67130    0.00480    0.89240    1.000
    C8       C        0.54660    0.00120    0.96660    1.000
    C9       C        0.84920    0.55490    0.11010    1.000
    C10      C        0.66860    0.42410    0.95990    1.000
    C11      C        0.52420    0.32550    0.83470    1.000
    C12      C        0.34910    0.21010    0.67510    1.000
    O1       O        0.15460    0.97400    0.01130    1.000
    O2       O        0.39590    0.01240    0.26260    1.000
    O3       O        0.09390    0.29880    0.90610    1.000
    O4       O        0.07270    0.48850    0.76310    1.000
    O5       O        0.62890    0.79970    0.45030    1.000
    O6       O        0.80910    0.87050    0.32750    1.000
    O7       O        0.84540    0.02600    0.98870    1.000
    O8       O        0.60410    0.98760    0.73740    1.000
    O9       O        0.90610    0.70120    0.09390    1.000
    O10      O        0.92730    0.51150    0.23690    1.000
    O11      O        0.37110    0.20030    0.54970    1.000
    O12      O        0.19090    0.12950    0.67250    1.000
