data_functionalizedCrystal
_audit_creation_method	'EQeq! by Chris Wilmer'
_symmetry_space_group_name_H-M	'P1'
_symmetry_Int_Tables_number	1
_symmetry_cell_setting	triclinic
loop_
_symmetry_equiv_pos_as_xyz
  x,y,z
_cell_length_a	6.6456
_cell_length_b	8.0898
_cell_length_c	20.1549
_cell_angle_alpha	90
_cell_angle_beta	90
_cell_angle_gamma	90
loop_
_atom_site_label
_atom_site_type_symbol
_atom_site_fract_x
_atom_site_fract_y
_atom_site_fract_z
_atom_site_charge
Mof_Er	Er	0.49295	0.44471	0.61954	2.248
Mof_O 	O 	0.5091	0.5861	0.7186	-0.559
Mof_O 	O 	0.4999	0.7213	0.81347	-0.558
Mof_O 	O 	0.3158	0.2326	0.5631	-0.513
Mof_O 	O 	0.1668	0.098	0.48	-0.506
Mof_O 	O 	0.16	0.4577	0.6596	-0.509
Mof_O 	O 	0.8275	0.4344	0.6553	-0.513
Mof_O 	O 	0.5958	0.7221	0.591	-0.407
Mof_O 	O 	0.3242	0.6269	0.5431	-0.425
Mof_C 	C 	0.421	0.666	0.7613	0.729
Mof_H 	H 	0.285	0.6874	0.7546	-0.192
Mof_C 	C 	0.2529	0.2251	0.5058	0.615
Mof_H 	H 	0.2686	0.3181	0.4792	-0.186
Mof_C 	C 	0.9965	0.4688	0.6308	0.642
Mof_H 	H 	0.9986	0.5059	0.5871	-0.188
Mof_C 	C 	0.4464	0.7373	0.5528	0.383
Mof_H 	H 	0.4283	0.8375	0.531	-0.043
Mof_Er	Er	0.00705	0.55529	0.11954	2.212
Mof_O 	O 	0.9909	0.4139	0.2186	-0.551
Mof_O 	O 	0.0001	0.2787	0.31347	-0.545
Mof_O 	O 	0.1842	0.7674	0.0631	-0.517
Mof_O 	O 	0.3332	0.902	0.98	-0.519
Mof_O 	O 	0.34	0.5423	0.1596	-0.515
Mof_O 	O 	0.6725	0.5656	0.1553	-0.509
Mof_O 	O 	0.9042	0.2779	0.091	-0.392
Mof_O 	O 	0.1758	0.3731	0.0431	-0.423
Mof_C 	C 	0.079	0.334	0.2613	0.716
Mof_H 	H 	0.215	0.3126	0.2546	-0.187
Mof_C 	C 	0.2471	0.7749	0.0058	0.614
Mof_H 	H 	0.2314	0.6819	0.9792	-0.189
Mof_C 	C 	0.5035	0.5312	0.1308	0.652
Mof_H 	H 	0.5014	0.4941	0.0871	-0.187
Mof_C 	C 	0.0536	0.2627	0.0528	0.365
Mof_H 	H 	0.0717	0.1625	0.031	-0.041
Mof_Er	Er	0.50705	0.94471	0.88046	2.227
Mof_O 	O 	0.4909	0.0861	0.7814	-0.555
Mof_O 	O 	0.5001	0.2213	0.68653	-0.559
Mof_O 	O 	0.6842	0.7326	0.9369	-0.51
Mof_O 	O 	0.8332	0.598	0.02	-0.504
Mof_O 	O 	0.84	0.9577	0.8404	-0.498
Mof_O 	O 	0.1725	0.9344	0.8447	-0.504
Mof_O 	O 	0.4042	0.2221	0.909	-0.403
Mof_O 	O 	0.6758	0.1269	0.9569	-0.423
Mof_C 	C 	0.579	0.166	0.7387	0.728
Mof_H 	H 	0.715	0.1874	0.7454	-0.191
Mof_C 	C 	0.7471	0.7251	0.9942	0.607
Mof_H 	H 	0.7314	0.8181	0.0208	-0.182
Mof_C 	C 	0.0035	0.9688	0.8692	0.605
Mof_H 	H 	0.0014	0.0059	0.9129	-0.165
Mof_C 	C 	0.5536	0.2373	0.9472	0.383
Mof_H 	H 	0.5717	0.3375	0.969	-0.043
Mof_Er	Er	0.99295	0.05529	0.38046	2.198
Mof_O 	O 	0.0091	0.9139	0.2814	-0.555
Mof_O 	O 	0.9999	0.7787	0.18653	-0.547
Mof_O 	O 	0.8158	0.2674	0.4369	-0.516
Mof_O 	O 	0.6668	0.402	0.52	-0.518
Mof_O 	O 	0.66	0.0423	0.3404	-0.512
Mof_O 	O 	0.3275	0.0656	0.3447	-0.505
Mof_O 	O 	0.0958	0.7779	0.409	-0.392
Mof_O 	O 	0.8242	0.8731	0.4569	-0.419
Mof_C 	C 	0.921	0.834	0.2387	0.727
Mof_H 	H 	0.785	0.8126	0.2454	-0.189
Mof_C 	C 	0.7529	0.2749	0.4942	0.616
Mof_H 	H 	0.7686	0.1819	0.5208	-0.192
Mof_C 	C 	0.4965	0.0312	0.3692	0.639
Mof_H 	H 	0.4986	0.9941	0.4129	-0.178
Mof_C 	C 	0.9464	0.7627	0.4472	0.37
Mof_H 	H 	0.9283	0.6625	0.469	-0.042
_end
