data_functionalizedCrystal
_audit_creation_method	'EQeq! by Chris Wilmer'
_symmetry_space_group_name_H-M	'P1'
_symmetry_Int_Tables_number	1
_symmetry_cell_setting	triclinic
loop_
_symmetry_equiv_pos_as_xyz
  x,y,z
_cell_length_a	6.7862
_cell_length_b	11.095
_cell_length_c	18.351
_cell_angle_alpha	90
_cell_angle_beta	95.688
_cell_angle_gamma	90
loop_
_atom_site_label
_atom_site_type_symbol
_atom_site_fract_x
_atom_site_fract_y
_atom_site_fract_z
_atom_site_charge
Mof_C 	C 	0.81	0.2728	0.7961	-0.078
Mof_C 	C 	0.993	0.313	0.7837	-0.065
Mof_H 	H 	0.1031	0.3081	0.8179	0.045
Mof_C 	C 	0.996	0.3626	0.7137	0.045
Mof_H 	H 	0.1093	0.3953	0.6967	-0.032
Mof_C 	C 	0.815	0.3582	0.6723	-0.182
Mof_C 	C 	0.766	0.3991	0.5958	0.452
Mof_C 	C 	0.753	0.2171	0.8657	0.319
Mof_O 	O 	0.8954	0.1912	0.9129	-0.422
Mof_O 	O 	0.5764	0.2027	0.8746	-0.357
Mof_O 	O 	0.5904	0.3998	0.5694	-0.536
Mof_O 	O 	0.9086	0.4332	0.5616	-0.582
Mof_S 	S 	0.6394	0.2948	0.72134	0.008
Mof_Sr	Sr	0.7428	0.10484	0.02063	1.38
Mof_C 	C 	0.69	0.7728	0.7039	-0.078
Mof_C 	C 	0.507	0.813	0.7163	-0.068
Mof_H 	H 	0.3969	0.8081	0.6821	0.047
Mof_C 	C 	0.504	0.8626	0.7863	0.042
Mof_H 	H 	0.3907	0.8953	0.8033	-0.03
Mof_C 	C 	0.685	0.8582	0.8277	-0.181
Mof_C 	C 	0.734	0.8991	0.9042	0.451
Mof_C 	C 	0.747	0.7171	0.6343	0.319
Mof_O 	O 	0.6046	0.6912	0.5871	-0.426
Mof_O 	O 	0.9236	0.7027	0.6254	-0.358
Mof_O 	O 	0.9096	0.8998	0.9306	-0.532
Mof_O 	O 	0.5914	0.9332	0.9384	-0.58
Mof_S 	S 	0.8606	0.7948	0.77866	0.01
Mof_Sr	Sr	0.7572	0.60484	0.47937	1.389
Mof_C 	C 	0.19	0.7272	0.2039	-0.078
Mof_C 	C 	0.007	0.687	0.2163	-0.065
Mof_H 	H 	0.8969	0.6919	0.1821	0.045
Mof_C 	C 	0.004	0.6374	0.2863	0.045
Mof_H 	H 	0.8907	0.6047	0.3033	-0.032
Mof_C 	C 	0.185	0.6418	0.3277	-0.182
Mof_C 	C 	0.234	0.6009	0.4042	0.452
Mof_C 	C 	0.247	0.7829	0.1343	0.319
Mof_O 	O 	0.1046	0.8088	0.0871	-0.422
Mof_O 	O 	0.4236	0.7973	0.1254	-0.357
Mof_O 	O 	0.4096	0.6002	0.4306	-0.536
Mof_O 	O 	0.0914	0.5668	0.4384	-0.582
Mof_S 	S 	0.3606	0.7052	0.27866	0.008
Mof_Sr	Sr	0.2572	0.89516	0.97937	1.38
Mof_C 	C 	0.31	0.2272	0.2961	-0.078
Mof_C 	C 	0.493	0.187	0.2837	-0.068
Mof_H 	H 	0.6031	0.1919	0.3179	0.047
Mof_C 	C 	0.496	0.1374	0.2137	0.042
Mof_H 	H 	0.6093	0.1047	0.1967	-0.03
Mof_C 	C 	0.315	0.1418	0.1723	-0.181
Mof_C 	C 	0.266	0.1009	0.0958	0.451
Mof_C 	C 	0.253	0.2829	0.3657	0.319
Mof_O 	O 	0.3954	0.3088	0.4129	-0.426
Mof_O 	O 	0.0764	0.2973	0.3746	-0.358
Mof_O 	O 	0.0904	0.1002	0.0694	-0.532
Mof_O 	O 	0.4086	0.0668	0.0616	-0.58
Mof_S 	S 	0.1394	0.2052	0.22134	0.01
Mof_Sr	Sr	0.2428	0.39516	0.52063	1.389
_end
