data_functionalizedCrystal
_audit_creation_method	'EQeq! by Chris Wilmer'
_symmetry_space_group_name_H-M	'P1'
_symmetry_Int_Tables_number	1
_symmetry_cell_setting	triclinic
loop_
_symmetry_equiv_pos_as_xyz
  x,y,z
_cell_length_a	27.63
_cell_length_b	13.8118
_cell_length_c	17.3604
_cell_angle_alpha	90
_cell_angle_beta	99.316
_cell_angle_gamma	90
loop_
_atom_site_label
_atom_site_type_symbol
_atom_site_fract_x
_atom_site_fract_y
_atom_site_fract_z
_atom_site_charge
Mof_W 	W 	0.63971	0.45005	0.62301	0.258
Mof_Cu	Cu	0.68901	0.28035	0.62181	0.831
Mof_Cu	Cu	0.58944	0.38682	0.73645	0.83
Mof_Cu	Cu	0.71143	0.51308	0.73649	0.827
Mof_S 	S 	0.72128	0.43395	0.62383	-0.481
Mof_S 	S 	0.60612	0.30232	0.62859	-0.462
Mof_S 	S 	0.62799	0.5349	0.72956	-0.49
Mof_N 	N 	0.5229	0.3988	0.7517	0.099
Mof_C 	C 	0.5182	0.3865	0.743	-0.302
Mof_N 	N 	0.76026	0.082	0.1685	-0.233
Mof_N 	N 	0.74851	0.1236	0.7214	-0.196
Mof_N 	N 	0.68093	0.2245	0.5061	-0.223
Mof_N 	N 	0.62394	0.3108	0.8346	-0.241
Mof_C 	C 	0.72523	0.1813	0.6849	-0.177
Mof_C 	C 	0.6581	0.245	0.8287	0.072
Mof_H 	H 	0.6646	0.2295	0.778	-0.044
Mof_C 	C 	0.70118	0.2004	0.1127	-0.116
Mof_H 	H 	0.6796	0.2514	0.1211	0.054
Mof_C 	C 	0.68485	0.1974	0.8916	-0.126
Mof_H 	H 	0.7091	0.1514	0.8838	0.06
Mof_C 	C 	0.63212	0.1118	0.2769	0.046
Mof_C 	C 	0.6426	0.0171	0.2567	-0.126
Mof_H 	H 	0.6613	0.9759	0.2941	0.061
Mof_C 	C 	0.67593	0.2176	0.9667	0.051
Mof_C 	C 	0.72936	0.1538	0.1752	0.063
Mof_H 	H 	0.7263	0.1748	0.2263	-0.023
Mof_C 	C 	0.64964	0.1514	0.3555	0.046
Mof_C 	C 	0.7647	0.0551	0.0959	0.064
Mof_H 	H 	0.7874	0.0054	0.0895	-0.018
Mof_C 	C 	0.70521	0.1705	0.0367	0.045
Mof_C 	C 	0.6539	0.0914	0.4218	-0.121
Mof_H 	H 	0.646	0.0245	0.4167	0.074
Mof_C 	C 	0.7377	0.096	0.0292	-0.119
Mof_H 	H 	0.7416	0.0731	0.979	0.067
Mof_C 	C 	0.6777	0.2809	0.4425	0.055
Mof_H 	H 	0.6863	0.3472	0.4493	-0.015
Mof_C 	C 	0.6403	0.2856	0.9728	-0.128
Mof_H 	H 	0.6331	0.3028	0.0227	0.058
Mof_C 	C 	0.6625	0.2471	0.3677	-0.132
Mof_H 	H 	0.6608	0.29	0.3245	0.062
Mof_C 	C 	0.6258	0.9834	0.182	0.069
Mof_H 	H 	0.6337	0.919	0.1694	-0.002
Mof_C 	C 	0.6046	0.1673	0.2187	-0.125
Mof_H 	H 	0.5964	0.2324	0.2289	0.069
Mof_C 	C 	0.5893	0.1269	0.1461	0.07
Mof_H 	H 	0.5706	0.1661	0.1073	0.01
Mof_C 	C 	0.615	0.3293	0.9062	0.066
Mof_H 	H 	0.5899	0.3746	0.9121	-0.023
Mof_N 	N 	0.5992	0.0367	0.1272	-0.13
Mof_C 	C 	0.6695	0.1311	0.494	0.065
Mof_H 	H 	0.6725	0.0896	0.5381	-0.004
Mof_W 	W 	0.13971	0.95005	0.62301	0.258
Mof_Cu	Cu	0.18901	0.78035	0.62181	0.83
Mof_Cu	Cu	0.08944	0.88682	0.73645	0.829
Mof_Cu	Cu	0.21143	0.01308	0.73649	0.826
Mof_S 	S 	0.22128	0.93395	0.62383	-0.482
Mof_S 	S 	0.10612	0.80232	0.62859	-0.463
Mof_S 	S 	0.12799	0.0349	0.72956	-0.491
Mof_N 	N 	0.0229	0.8988	0.7517	0.098
Mof_C 	C 	0.0182	0.8865	0.743	-0.303
Mof_N 	N 	0.26026	0.582	0.1685	-0.235
Mof_N 	N 	0.24851	0.6236	0.7214	-0.197
Mof_N 	N 	0.18093	0.7245	0.5061	-0.224
Mof_N 	N 	0.12394	0.8108	0.8346	-0.242
Mof_C 	C 	0.22523	0.6813	0.6849	-0.178
Mof_C 	C 	0.1581	0.745	0.8287	0.07
Mof_H 	H 	0.1646	0.7295	0.778	-0.044
Mof_C 	C 	0.20118	0.7004	0.1127	-0.117
Mof_H 	H 	0.1796	0.7514	0.1211	0.054
Mof_C 	C 	0.18485	0.6974	0.8916	-0.126
Mof_H 	H 	0.2091	0.6514	0.8838	0.06
Mof_C 	C 	0.13212	0.6118	0.2769	0.048
Mof_C 	C 	0.1426	0.5171	0.2567	-0.13
Mof_H 	H 	0.1613	0.4759	0.2941	0.063
Mof_C 	C 	0.17593	0.7176	0.9667	0.051
Mof_C 	C 	0.22936	0.6538	0.1752	0.063
Mof_H 	H 	0.2263	0.6748	0.2263	-0.024
Mof_C 	C 	0.14964	0.6514	0.3555	0.045
Mof_C 	C 	0.2647	0.5551	0.0959	0.065
Mof_H 	H 	0.2874	0.5054	0.0895	-0.019
Mof_C 	C 	0.20521	0.6705	0.0367	0.046
Mof_C 	C 	0.1539	0.5914	0.4218	-0.121
Mof_H 	H 	0.146	0.5245	0.4167	0.074
Mof_C 	C 	0.2377	0.596	0.0292	-0.123
Mof_H 	H 	0.2416	0.5731	0.979	0.069
Mof_C 	C 	0.1777	0.7809	0.4425	0.055
Mof_H 	H 	0.1863	0.8472	0.4493	-0.015
Mof_C 	C 	0.1403	0.7856	0.9728	-0.124
Mof_H 	H 	0.1331	0.8028	0.0227	0.055
Mof_C 	C 	0.1625	0.7471	0.3677	-0.131
Mof_H 	H 	0.1608	0.79	0.3245	0.062
Mof_C 	C 	0.1258	0.4834	0.182	0.073
Mof_H 	H 	0.1337	0.419	0.1694	-0.004
Mof_C 	C 	0.1046	0.6673	0.2187	-0.127
Mof_H 	H 	0.0964	0.7324	0.2289	0.07
Mof_C 	C 	0.0893	0.6269	0.1461	0.07
Mof_H 	H 	0.0706	0.6661	0.1073	0.009
Mof_C 	C 	0.115	0.8293	0.9062	0.065
Mof_H 	H 	0.0899	0.8746	0.9121	-0.022
Mof_N 	N 	0.0992	0.5367	0.1272	-0.131
Mof_C 	C 	0.1695	0.6311	0.494	0.065
Mof_H 	H 	0.1725	0.5896	0.5381	-0.004
Mof_W 	W 	0.36029	0.45005	0.87699	0.257
Mof_Cu	Cu	0.31099	0.28035	0.87819	0.83
Mof_Cu	Cu	0.41056	0.38682	0.76355	0.829
Mof_Cu	Cu	0.28857	0.51308	0.76351	0.827
Mof_S 	S 	0.27872	0.43395	0.87617	-0.482
Mof_S 	S 	0.39388	0.30232	0.87141	-0.464
Mof_S 	S 	0.37201	0.5349	0.77044	-0.491
Mof_N 	N 	0.4771	0.3988	0.7483	0.098
Mof_C 	C 	0.4818	0.3865	0.757	-0.303
Mof_N 	N 	0.23974	0.082	0.3315	-0.235
Mof_N 	N 	0.25149	0.1236	0.7786	-0.197
Mof_N 	N 	0.31907	0.2245	0.9939	-0.226
Mof_N 	N 	0.37606	0.3108	0.6654	-0.242
Mof_C 	C 	0.27477	0.1813	0.8151	-0.178
Mof_C 	C 	0.3419	0.245	0.6713	0.071
Mof_H 	H 	0.3354	0.2295	0.722	-0.045
Mof_C 	C 	0.29882	0.2004	0.3873	-0.117
Mof_H 	H 	0.3204	0.2514	0.3789	0.054
Mof_C 	C 	0.31515	0.1974	0.6084	-0.126
Mof_H 	H 	0.2909	0.1514	0.6162	0.06
Mof_C 	C 	0.36788	0.1118	0.2231	0.046
Mof_C 	C 	0.3574	0.0171	0.2433	-0.126
Mof_H 	H 	0.3387	0.9759	0.2059	0.061
Mof_C 	C 	0.32407	0.2176	0.5333	0.051
Mof_C 	C 	0.27064	0.1538	0.3248	0.063
Mof_H 	H 	0.2737	0.1748	0.2737	-0.024
Mof_C 	C 	0.35036	0.1514	0.1445	0.048
Mof_C 	C 	0.2353	0.0551	0.4041	0.065
Mof_H 	H 	0.2126	0.0054	0.4105	-0.018
Mof_C 	C 	0.29479	0.1705	0.4633	0.046
Mof_C 	C 	0.3461	0.0914	0.0782	-0.123
Mof_H 	H 	0.354	0.0245	0.0833	0.075
Mof_C 	C 	0.2623	0.096	0.4708	-0.122
Mof_H 	H 	0.2584	0.0731	0.521	0.069
Mof_C 	C 	0.3223	0.2809	0.0575	0.057
Mof_H 	H 	0.3137	0.3472	0.0507	-0.016
Mof_C 	C 	0.3597	0.2856	0.5272	-0.126
Mof_H 	H 	0.3669	0.3028	0.4773	0.057
Mof_C 	C 	0.3375	0.2471	0.1323	-0.133
Mof_H 	H 	0.3392	0.29	0.1755	0.063
Mof_C 	C 	0.3742	0.9834	0.318	0.07
Mof_H 	H 	0.3663	0.919	0.3306	-0.003
Mof_C 	C 	0.3954	0.1673	0.2813	-0.125
Mof_H 	H 	0.4036	0.2324	0.2711	0.069
Mof_C 	C 	0.4107	0.1269	0.3539	0.069
Mof_H 	H 	0.4294	0.1661	0.3927	0.01
Mof_C 	C 	0.385	0.3293	0.5938	0.065
Mof_H 	H 	0.4101	0.3746	0.5879	-0.022
Mof_N 	N 	0.4008	0.0367	0.3728	-0.13
Mof_C 	C 	0.3305	0.1311	0.006	0.069
Mof_H 	H 	0.3275	0.0896	0.9619	-0.006
Mof_W 	W 	0.86029	0.95005	0.87699	0.258
Mof_Cu	Cu	0.81099	0.78035	0.87819	0.83
Mof_Cu	Cu	0.91056	0.88682	0.76355	0.829
Mof_Cu	Cu	0.78857	0.01308	0.76351	0.826
Mof_S 	S 	0.77872	0.93395	0.87617	-0.481
Mof_S 	S 	0.89388	0.80232	0.87141	-0.463
Mof_S 	S 	0.87201	0.0349	0.77044	-0.492
Mof_N 	N 	0.9771	0.8988	0.7483	0.098
Mof_C 	C 	0.9818	0.8865	0.757	-0.303
Mof_N 	N 	0.73974	0.582	0.3315	-0.235
Mof_N 	N 	0.75149	0.6236	0.7786	-0.197
Mof_N 	N 	0.81907	0.7245	0.9939	-0.223
Mof_N 	N 	0.87606	0.8108	0.6654	-0.242
Mof_C 	C 	0.77477	0.6813	0.8151	-0.178
Mof_C 	C 	0.8419	0.745	0.6713	0.071
Mof_H 	H 	0.8354	0.7295	0.722	-0.045
Mof_C 	C 	0.79882	0.7004	0.3873	-0.117
Mof_H 	H 	0.8204	0.7514	0.3789	0.054
Mof_C 	C 	0.81515	0.6974	0.6084	-0.126
Mof_H 	H 	0.7909	0.6514	0.6162	0.06
Mof_C 	C 	0.86788	0.6118	0.2231	0.048
Mof_C 	C 	0.8574	0.5171	0.2433	-0.13
Mof_H 	H 	0.8387	0.4759	0.2059	0.063
Mof_C 	C 	0.82407	0.7176	0.5333	0.051
Mof_C 	C 	0.77064	0.6538	0.3248	0.063
Mof_H 	H 	0.7737	0.6748	0.2737	-0.024
Mof_C 	C 	0.85036	0.6514	0.1445	0.044
Mof_C 	C 	0.7353	0.5551	0.4041	0.065
Mof_H 	H 	0.7126	0.5054	0.4105	-0.019
Mof_C 	C 	0.79479	0.6705	0.4633	0.046
Mof_C 	C 	0.8461	0.5914	0.0782	-0.119
Mof_H 	H 	0.854	0.5245	0.0833	0.073
Mof_C 	C 	0.7623	0.596	0.4708	-0.122
Mof_H 	H 	0.7584	0.5731	0.521	0.069
Mof_C 	C 	0.8223	0.7809	0.0575	0.054
Mof_H 	H 	0.8137	0.8472	0.0507	-0.015
Mof_C 	C 	0.8597	0.7856	0.5272	-0.126
Mof_H 	H 	0.8669	0.8028	0.4773	0.057
Mof_C 	C 	0.8375	0.7471	0.1323	-0.13
Mof_H 	H 	0.8392	0.79	0.1755	0.062
Mof_C 	C 	0.8742	0.4834	0.318	0.073
Mof_H 	H 	0.8663	0.419	0.3306	-0.004
Mof_C 	C 	0.8954	0.6673	0.2813	-0.127
Mof_H 	H 	0.9036	0.7324	0.2711	0.07
Mof_C 	C 	0.9107	0.6269	0.3539	0.07
Mof_H 	H 	0.9294	0.6661	0.3927	0.01
Mof_C 	C 	0.885	0.8293	0.5938	0.066
Mof_H 	H 	0.9101	0.8746	0.5879	-0.022
Mof_N 	N 	0.9008	0.5367	0.3728	-0.131
Mof_C 	C 	0.8305	0.6311	0.006	0.062
Mof_H 	H 	0.8275	0.5896	0.9619	-0.003
Mof_W 	W 	0.36029	0.54995	0.37699	0.257
Mof_Cu	Cu	0.31099	0.71965	0.37819	0.83
Mof_Cu	Cu	0.41056	0.61318	0.26355	0.829
Mof_Cu	Cu	0.28857	0.48692	0.26351	0.826
Mof_S 	S 	0.27872	0.56605	0.37617	-0.482
Mof_S 	S 	0.39388	0.69768	0.37141	-0.463
Mof_S 	S 	0.37201	0.4651	0.27044	-0.491
Mof_N 	N 	0.4771	0.6012	0.2483	0.098
Mof_C 	C 	0.4818	0.6135	0.257	-0.303
Mof_N 	N 	0.23974	0.918	0.8315	-0.234
Mof_N 	N 	0.25149	0.8764	0.2786	-0.197
Mof_N 	N 	0.31907	0.7755	0.4939	-0.224
Mof_N 	N 	0.37606	0.6892	0.1654	-0.242
Mof_C 	C 	0.27477	0.8187	0.3151	-0.178
Mof_C 	C 	0.3419	0.755	0.1713	0.071
Mof_H 	H 	0.3354	0.7705	0.222	-0.045
Mof_C 	C 	0.29882	0.7996	0.8873	-0.116
Mof_H 	H 	0.3204	0.7486	0.8789	0.054
Mof_C 	C 	0.31515	0.8026	0.1084	-0.126
Mof_H 	H 	0.2909	0.8486	0.1162	0.06
Mof_C 	C 	0.36788	0.8882	0.7231	0.046
Mof_C 	C 	0.3574	0.9829	0.7433	-0.126
Mof_H 	H 	0.3387	0.0241	0.7059	0.061
Mof_C 	C 	0.32407	0.7824	0.0333	0.051
Mof_C 	C 	0.27064	0.8462	0.8248	0.063
Mof_H 	H 	0.2737	0.8252	0.7737	-0.023
Mof_C 	C 	0.35036	0.8486	0.6445	0.046
Mof_C 	C 	0.2353	0.9449	0.9041	0.064
Mof_H 	H 	0.2126	0.9946	0.9105	-0.018
Mof_C 	C 	0.29479	0.8295	0.9633	0.045
Mof_C 	C 	0.3461	0.9086	0.5782	-0.121
Mof_H 	H 	0.354	0.9755	0.5833	0.074
Mof_C 	C 	0.2623	0.904	0.9708	-0.119
Mof_H 	H 	0.2584	0.9269	0.021	0.067
Mof_C 	C 	0.3223	0.7191	0.5575	0.055
Mof_H 	H 	0.3137	0.6528	0.5507	-0.015
Mof_C 	C 	0.3597	0.7144	0.0272	-0.128
Mof_H 	H 	0.3669	0.6972	0.9773	0.058
Mof_C 	C 	0.3375	0.7529	0.6323	-0.132
Mof_H 	H 	0.3392	0.71	0.6755	0.062
Mof_C 	C 	0.3742	0.0166	0.818	0.069
Mof_H 	H 	0.3663	0.081	0.8306	-0.002
Mof_C 	C 	0.3954	0.8327	0.7813	-0.125
Mof_H 	H 	0.4036	0.7676	0.7711	0.069
Mof_C 	C 	0.4107	0.8731	0.8539	0.07
Mof_H 	H 	0.4294	0.8339	0.8927	0.01
Mof_C 	C 	0.385	0.6707	0.0938	0.066
Mof_H 	H 	0.4101	0.6254	0.0879	-0.023
Mof_N 	N 	0.4008	0.9633	0.8728	-0.13
Mof_C 	C 	0.3305	0.8689	0.506	0.065
Mof_H 	H 	0.3275	0.9104	0.4619	-0.004
Mof_W 	W 	0.86029	0.04995	0.37699	0.258
Mof_Cu	Cu	0.81099	0.21965	0.37819	0.83
Mof_Cu	Cu	0.91056	0.11318	0.26355	0.829
Mof_Cu	Cu	0.78857	0.98692	0.26351	0.826
Mof_S 	S 	0.77872	0.06605	0.37617	-0.482
Mof_S 	S 	0.89388	0.19768	0.37141	-0.463
Mof_S 	S 	0.87201	0.9651	0.27044	-0.491
Mof_N 	N 	0.9771	0.1012	0.2483	0.098
Mof_C 	C 	0.9818	0.1135	0.257	-0.303
Mof_N 	N 	0.73974	0.418	0.8315	-0.235
Mof_N 	N 	0.75149	0.3764	0.2786	-0.197
Mof_N 	N 	0.81907	0.2755	0.4939	-0.224
Mof_N 	N 	0.87606	0.1892	0.1654	-0.242
Mof_C 	C 	0.77477	0.3187	0.3151	-0.178
Mof_C 	C 	0.8419	0.255	0.1713	0.07
Mof_H 	H 	0.8354	0.2705	0.222	-0.044
Mof_C 	C 	0.79882	0.2996	0.8873	-0.117
Mof_H 	H 	0.8204	0.2486	0.8789	0.054
Mof_C 	C 	0.81515	0.3026	0.1084	-0.126
Mof_H 	H 	0.7909	0.3486	0.1162	0.06
Mof_C 	C 	0.86788	0.3882	0.7231	0.048
Mof_C 	C 	0.8574	0.4829	0.7433	-0.13
Mof_H 	H 	0.8387	0.5241	0.7059	0.063
Mof_C 	C 	0.82407	0.2824	0.0333	0.051
Mof_C 	C 	0.77064	0.3462	0.8248	0.063
Mof_H 	H 	0.7737	0.3252	0.7737	-0.024
Mof_C 	C 	0.85036	0.3486	0.6445	0.045
Mof_C 	C 	0.7353	0.4449	0.9041	0.065
Mof_H 	H 	0.7126	0.4946	0.9105	-0.019
Mof_C 	C 	0.79479	0.3295	0.9633	0.046
Mof_C 	C 	0.8461	0.4086	0.5782	-0.121
Mof_H 	H 	0.854	0.4755	0.5833	0.074
Mof_C 	C 	0.7623	0.404	0.9708	-0.123
Mof_H 	H 	0.7584	0.4269	0.021	0.069
Mof_C 	C 	0.8223	0.2191	0.5575	0.055
Mof_H 	H 	0.8137	0.1528	0.5507	-0.015
Mof_C 	C 	0.8597	0.2144	0.0272	-0.124
Mof_H 	H 	0.8669	0.1972	0.9773	0.055
Mof_C 	C 	0.8375	0.2529	0.6323	-0.131
Mof_H 	H 	0.8392	0.21	0.6755	0.062
Mof_C 	C 	0.8742	0.5166	0.818	0.073
Mof_H 	H 	0.8663	0.581	0.8306	-0.004
Mof_C 	C 	0.8954	0.3327	0.7813	-0.127
Mof_H 	H 	0.9036	0.2676	0.7711	0.07
Mof_C 	C 	0.9107	0.3731	0.8539	0.07
Mof_H 	H 	0.9294	0.3339	0.8927	0.009
Mof_C 	C 	0.885	0.1707	0.0938	0.065
Mof_H 	H 	0.9101	0.1254	0.0879	-0.022
Mof_N 	N 	0.9008	0.4633	0.8728	-0.131
Mof_C 	C 	0.8305	0.3689	0.506	0.065
Mof_H 	H 	0.8275	0.4104	0.4619	-0.004
Mof_W 	W 	0.63971	0.54995	0.12301	0.257
Mof_Cu	Cu	0.68901	0.71965	0.12181	0.83
Mof_Cu	Cu	0.58944	0.61318	0.23645	0.829
Mof_Cu	Cu	0.71143	0.48692	0.23649	0.827
Mof_S 	S 	0.72128	0.56605	0.12383	-0.482
Mof_S 	S 	0.60612	0.69768	0.12859	-0.464
Mof_S 	S 	0.62799	0.4651	0.22956	-0.491
Mof_N 	N 	0.5229	0.6012	0.2517	0.098
Mof_C 	C 	0.5182	0.6135	0.243	-0.303
Mof_N 	N 	0.76026	0.918	0.6685	-0.235
Mof_N 	N 	0.74851	0.8764	0.2214	-0.197
Mof_N 	N 	0.68093	0.7755	0.0061	-0.226
Mof_N 	N 	0.62394	0.6892	0.3346	-0.242
Mof_C 	C 	0.72523	0.8187	0.1849	-0.178
Mof_C 	C 	0.6581	0.755	0.3287	0.071
Mof_H 	H 	0.6646	0.7705	0.278	-0.045
Mof_C 	C 	0.70118	0.7996	0.6127	-0.117
Mof_H 	H 	0.6796	0.7486	0.6211	0.054
Mof_C 	C 	0.68485	0.8026	0.3916	-0.126
Mof_H 	H 	0.7091	0.8486	0.3838	0.06
Mof_C 	C 	0.63212	0.8882	0.7769	0.046
Mof_C 	C 	0.6426	0.9829	0.7567	-0.126
Mof_H 	H 	0.6613	0.0241	0.7941	0.061
Mof_C 	C 	0.67593	0.7824	0.4667	0.051
Mof_C 	C 	0.72936	0.8462	0.6752	0.063
Mof_H 	H 	0.7263	0.8252	0.7263	-0.024
Mof_C 	C 	0.64964	0.8486	0.8555	0.048
Mof_C 	C 	0.7647	0.9449	0.5959	0.065
Mof_H 	H 	0.7874	0.9946	0.5895	-0.018
Mof_C 	C 	0.70521	0.8295	0.5367	0.046
Mof_C 	C 	0.6539	0.9086	0.9218	-0.123
Mof_H 	H 	0.646	0.9755	0.9167	0.075
Mof_C 	C 	0.7377	0.904	0.5292	-0.122
Mof_H 	H 	0.7416	0.9269	0.479	0.069
Mof_C 	C 	0.6777	0.7191	0.9425	0.057
Mof_H 	H 	0.6863	0.6528	0.9493	-0.016
Mof_C 	C 	0.6403	0.7144	0.4728	-0.126
Mof_H 	H 	0.6331	0.6972	0.5227	0.057
Mof_C 	C 	0.6625	0.7529	0.8677	-0.133
Mof_H 	H 	0.6608	0.71	0.8245	0.063
Mof_C 	C 	0.6258	0.0166	0.682	0.07
Mof_H 	H 	0.6337	0.081	0.6694	-0.003
Mof_C 	C 	0.6046	0.8327	0.7187	-0.125
Mof_H 	H 	0.5964	0.7676	0.7289	0.069
Mof_C 	C 	0.5893	0.8731	0.6461	0.069
Mof_H 	H 	0.5706	0.8339	0.6073	0.01
Mof_C 	C 	0.615	0.6707	0.4062	0.065
Mof_H 	H 	0.5899	0.6254	0.4121	-0.022
Mof_N 	N 	0.5992	0.9633	0.6272	-0.13
Mof_C 	C 	0.6695	0.8689	0.994	0.069
Mof_H 	H 	0.6725	0.9104	0.0381	-0.006
Mof_W 	W 	0.13971	0.04995	0.12301	0.258
Mof_Cu	Cu	0.18901	0.21965	0.12181	0.83
Mof_Cu	Cu	0.08944	0.11318	0.23645	0.829
Mof_Cu	Cu	0.21143	0.98692	0.23649	0.826
Mof_S 	S 	0.22128	0.06605	0.12383	-0.481
Mof_S 	S 	0.10612	0.19768	0.12859	-0.463
Mof_S 	S 	0.12799	0.9651	0.22956	-0.492
Mof_N 	N 	0.0229	0.1012	0.2517	0.098
Mof_C 	C 	0.0182	0.1135	0.243	-0.303
Mof_N 	N 	0.26026	0.418	0.6685	-0.235
Mof_N 	N 	0.24851	0.3764	0.2214	-0.197
Mof_N 	N 	0.18093	0.2755	0.0061	-0.223
Mof_N 	N 	0.12394	0.1892	0.3346	-0.242
Mof_C 	C 	0.22523	0.3187	0.1849	-0.178
Mof_C 	C 	0.1581	0.255	0.3287	0.071
Mof_H 	H 	0.1646	0.2705	0.278	-0.045
Mof_C 	C 	0.20118	0.2996	0.6127	-0.117
Mof_H 	H 	0.1796	0.2486	0.6211	0.054
Mof_C 	C 	0.18485	0.3026	0.3916	-0.126
Mof_H 	H 	0.2091	0.3486	0.3838	0.06
Mof_C 	C 	0.13212	0.3882	0.7769	0.048
Mof_C 	C 	0.1426	0.4829	0.7567	-0.13
Mof_H 	H 	0.1613	0.5241	0.7941	0.063
Mof_C 	C 	0.17593	0.2824	0.4667	0.051
Mof_C 	C 	0.22936	0.3462	0.6752	0.063
Mof_H 	H 	0.2263	0.3252	0.7263	-0.024
Mof_C 	C 	0.14964	0.3486	0.8555	0.044
Mof_C 	C 	0.2647	0.4449	0.5959	0.065
Mof_H 	H 	0.2874	0.4946	0.5895	-0.019
Mof_C 	C 	0.20521	0.3295	0.5367	0.046
Mof_C 	C 	0.1539	0.4086	0.9218	-0.119
Mof_H 	H 	0.146	0.4755	0.9167	0.073
Mof_C 	C 	0.2377	0.404	0.5292	-0.122
Mof_H 	H 	0.2416	0.4269	0.479	0.069
Mof_C 	C 	0.1777	0.2191	0.9425	0.054
Mof_H 	H 	0.1863	0.1528	0.9493	-0.015
Mof_C 	C 	0.1403	0.2144	0.4728	-0.126
Mof_H 	H 	0.1331	0.1972	0.5227	0.057
Mof_C 	C 	0.1625	0.2529	0.8677	-0.13
Mof_H 	H 	0.1608	0.21	0.8245	0.062
Mof_C 	C 	0.1258	0.5166	0.682	0.073
Mof_H 	H 	0.1337	0.581	0.6694	-0.004
Mof_C 	C 	0.1046	0.3327	0.7187	-0.127
Mof_H 	H 	0.0964	0.2676	0.7289	0.07
Mof_C 	C 	0.0893	0.3731	0.6461	0.07
Mof_H 	H 	0.0706	0.3339	0.6073	0.01
Mof_C 	C 	0.115	0.1707	0.4062	0.066
Mof_H 	H 	0.0899	0.1254	0.4121	-0.022
Mof_N 	N 	0.0992	0.4633	0.6272	-0.131
Mof_C 	C 	0.1695	0.3689	0.994	0.062
Mof_H 	H 	0.1725	0.4104	0.0381	-0.003
_end
