data_functionalizedCrystal
_audit_creation_method	'EQeq! by Chris Wilmer'
_symmetry_space_group_name_H-M	'P1'
_symmetry_Int_Tables_number	1
_symmetry_cell_setting	triclinic
loop_
_symmetry_equiv_pos_as_xyz
  x,y,z
_cell_length_a	13.1177
_cell_length_b	13.1177
_cell_length_c	16.005
_cell_angle_alpha	90
_cell_angle_beta	90
_cell_angle_gamma	120
loop_
_atom_site_label
_atom_site_type_symbol
_atom_site_fract_x
_atom_site_fract_y
_atom_site_fract_z
_atom_site_charge
Mof_Co	Co	0.0443	0.52597	0.09155	1.116
Mof_O 	O 	0.1657	0.525	0.1678	-0.9
Mof_O 	O 	0.172	0.6588	0.0202	-0.903
Mof_C 	C 	0.1272	0.4362	0.2165	0.55
Mof_C 	C 	0.0994	0.6675	0.9708	0.59
Mof_O 	O 	0.0313	0.3506	0.2116	-0.417
Mof_O 	O 	0.9926	0.6187	0.9872	-0.444
Mof_C 	C 	0.1863	0.3678	0.3403	0.071
Mof_H 	H 	0.1131	0.3006	0.3336	0.012
Mof_C 	C 	0.2509	0.7856	0.8648	0.165
Mof_H 	H 	0.3085	0.79	0.901	-0.067
Mof_C 	C 	0.2877	0.8386	0.7814	-0.011
Mof_C 	C 	0.141	0.7321	0.8913	-0.415
Mof_H 	H 	0.0854	0.7354	0.8571	0.186
Mof_C 	C 	0.3957	0.9139	0.7504	0.018
Mof_N 	N 	0.2114	0.818	0.7172	-0.206
Mof_H 	H 	0.136	0.7752	0.7191	0.148
Mof_N 	N 	0.3868	0.939	0.6697	-0.266
Mof_C 	C 	0.3574	0.4545	0.4471	-0.016
Mof_H 	H 	0.4025	0.5308	0.4268	0.029
Mof_N 	N 	0.383	0.4088	0.5162	-0.271
Mof_C 	C 	0.2967	0.3001	0.5186	0.148
Mof_H 	H 	0.2914	0.2466	0.5589	-0.047
Mof_C 	C 	0.2765	0.8774	0.6499	0.106
Mof_N 	N 	0.2185	0.2729	0.4597	-0.223
Mof_H 	H 	0.1559	0.2058	0.4523	0.125
Mof_C 	C 	0.2546	0.3688	0.4136	0.041
Mof_C 	C 	0.2153	0.4491	0.2838	-0.326
Mof_H 	H 	0.2901	0.5153	0.2844	0.095
Mof_H 	H 	0.486	0.935	0.77	0.014
Mof_Co	Co	0.47403	0.51833	0.09155	1.115
Mof_O 	O 	0.475	0.6407	0.1678	-0.901
Mof_O 	O 	0.3412	0.5132	0.0202	-0.905
Mof_C 	C 	0.5638	0.691	0.2165	0.549
Mof_C 	C 	0.3325	0.4319	0.9708	0.591
Mof_O 	O 	0.6494	0.6807	0.2116	-0.417
Mof_O 	O 	0.3813	0.3739	0.9872	-0.444
Mof_C 	C 	0.6322	0.8185	0.3403	0.071
Mof_H 	H 	0.6994	0.8125	0.3336	0.012
Mof_C 	C 	0.2144	0.4653	0.8648	0.165
Mof_H 	H 	0.21	0.5185	0.901	-0.068
Mof_C 	C 	0.1614	0.4491	0.7814	-0.011
Mof_C 	C 	0.2679	0.4089	0.8913	-0.416
Mof_H 	H 	0.2646	0.35	0.8571	0.187
Mof_C 	C 	0.0861	0.4818	0.7504	0.018
Mof_N 	N 	0.182	0.3934	0.7172	-0.206
Mof_H 	H 	0.2248	0.3608	0.7191	0.148
Mof_N 	N 	0.061	0.4478	0.6697	-0.266
Mof_C 	C 	0.5455	0.9029	0.4471	-0.016
Mof_H 	H 	0.4692	0.8717	0.4268	0.029
Mof_N 	N 	0.5912	0.9742	0.5162	-0.271
Mof_C 	C 	0.6999	0.9966	0.5186	0.148
Mof_H 	H 	0.7534	0.0448	0.5589	-0.048
Mof_C 	C 	0.1226	0.3991	0.6499	0.106
Mof_N 	N 	0.7271	0.9456	0.4597	-0.223
Mof_H 	H 	0.7942	0.9501	0.4523	0.125
Mof_C 	C 	0.6312	0.8858	0.4136	0.041
Mof_C 	C 	0.5509	0.7662	0.2838	-0.326
Mof_H 	H 	0.4847	0.7748	0.2844	0.095
Mof_H 	H 	0.065	0.551	0.77	0.014
Mof_Co	Co	0.48167	0.9557	0.09155	1.115
Mof_O 	O 	0.3593	0.8343	0.1678	-0.901
Mof_O 	O 	0.4868	0.828	0.0202	-0.905
Mof_C 	C 	0.309	0.8728	0.2165	0.549
Mof_C 	C 	0.5681	0.9006	0.9708	0.59
Mof_O 	O 	0.3193	0.9687	0.2116	-0.417
Mof_O 	O 	0.6261	0.0074	0.9872	-0.444
Mof_C 	C 	0.1815	0.8137	0.3403	0.071
Mof_H 	H 	0.1875	0.8869	0.3336	0.012
Mof_C 	C 	0.5347	0.7491	0.8648	0.165
Mof_H 	H 	0.4815	0.6915	0.901	-0.067
Mof_C 	C 	0.5509	0.7123	0.7814	-0.011
Mof_C 	C 	0.5911	0.859	0.8913	-0.415
Mof_H 	H 	0.65	0.9146	0.8571	0.186
Mof_C 	C 	0.5182	0.6043	0.7504	0.018
Mof_N 	N 	0.6066	0.7886	0.7172	-0.206
Mof_H 	H 	0.6392	0.864	0.7191	0.148
Mof_N 	N 	0.5522	0.6132	0.6697	-0.266
Mof_C 	C 	0.0971	0.6426	0.4471	-0.016
Mof_H 	H 	0.1283	0.5975	0.4268	0.029
Mof_N 	N 	0.0258	0.617	0.5162	-0.271
Mof_C 	C 	0.0034	0.7033	0.5186	0.148
Mof_H 	H 	0.9552	0.7086	0.5589	-0.047
Mof_C 	C 	0.6009	0.7235	0.6499	0.106
Mof_N 	N 	0.0544	0.7815	0.4597	-0.223
Mof_H 	H 	0.0499	0.8441	0.4523	0.125
Mof_C 	C 	0.1142	0.7454	0.4136	0.041
Mof_C 	C 	0.2338	0.7847	0.2838	-0.326
Mof_H 	H 	0.2252	0.7099	0.2844	0.095
Mof_H 	H 	0.449	0.514	0.77	0.014
Mof_Co	Co	0.9557	0.47403	0.59155	1.118
Mof_O 	O 	0.8343	0.475	0.6678	-0.902
Mof_O 	O 	0.828	0.3412	0.5202	-0.886
Mof_C 	C 	0.8728	0.5638	0.7165	0.551
Mof_C 	C 	0.9006	0.3325	0.4708	0.567
Mof_O 	O 	0.9687	0.6494	0.7116	-0.417
Mof_O 	O 	0.0074	0.3813	0.4872	-0.447
Mof_C 	C 	0.8137	0.6322	0.8403	0.077
Mof_H 	H 	0.8869	0.6994	0.8336	0.011
Mof_C 	C 	0.7491	0.2144	0.3648	0.16
Mof_H 	H 	0.6915	0.21	0.401	-0.07
Mof_C 	C 	0.7123	0.1614	0.2814	-0.011
Mof_C 	C 	0.859	0.2679	0.3913	-0.409
Mof_H 	H 	0.9146	0.2646	0.3571	0.183
Mof_C 	C 	0.6043	0.0861	0.2504	0.017
Mof_N 	N 	0.7886	0.182	0.2172	-0.206
Mof_H 	H 	0.864	0.2248	0.2191	0.146
Mof_N 	N 	0.6132	0.061	0.1697	-0.266
Mof_C 	C 	0.6426	0.5455	0.9471	0.007
Mof_H 	H 	0.5975	0.4692	0.9268	0.024
Mof_N 	N 	0.617	0.5912	0.0162	-0.279
Mof_C 	C 	0.7033	0.6999	0.0186	0.123
Mof_H 	H 	0.7086	0.7534	0.0589	-0.043
Mof_C 	C 	0.7235	0.1226	0.1499	0.099
Mof_N 	N 	0.7815	0.7271	0.9597	-0.209
Mof_H 	H 	0.8441	0.7942	0.9523	0.126
Mof_C 	C 	0.7454	0.6312	0.9136	0.035
Mof_C 	C 	0.7847	0.5509	0.7838	-0.328
Mof_H 	H 	0.7099	0.4847	0.7844	0.096
Mof_H 	H 	0.514	0.065	0.27	0.013
Mof_Co	Co	0.52597	0.48167	0.59155	1.118
Mof_O 	O 	0.525	0.3593	0.6678	-0.902
Mof_O 	O 	0.6588	0.4868	0.5202	-0.886
Mof_C 	C 	0.4362	0.309	0.7165	0.551
Mof_C 	C 	0.6675	0.5681	0.4708	0.567
Mof_O 	O 	0.3506	0.3193	0.7116	-0.417
Mof_O 	O 	0.6187	0.6261	0.4872	-0.447
Mof_C 	C 	0.3678	0.1815	0.8403	0.077
Mof_H 	H 	0.3006	0.1875	0.8336	0.011
Mof_C 	C 	0.7856	0.5347	0.3648	0.16
Mof_H 	H 	0.79	0.4815	0.401	-0.07
Mof_C 	C 	0.8386	0.5509	0.2814	-0.011
Mof_C 	C 	0.7321	0.5911	0.3913	-0.409
Mof_H 	H 	0.7354	0.65	0.3571	0.183
Mof_C 	C 	0.9139	0.5182	0.2504	0.017
Mof_N 	N 	0.818	0.6066	0.2172	-0.206
Mof_H 	H 	0.7752	0.6392	0.2191	0.147
Mof_N 	N 	0.939	0.5522	0.1697	-0.266
Mof_C 	C 	0.4545	0.0971	0.9471	0.007
Mof_H 	H 	0.5308	0.1283	0.9268	0.024
Mof_N 	N 	0.4088	0.0258	0.0162	-0.279
Mof_C 	C 	0.3001	0.0034	0.0186	0.122
Mof_H 	H 	0.2466	0.9552	0.0589	-0.042
Mof_C 	C 	0.8774	0.6009	0.1499	0.099
Mof_N 	N 	0.2729	0.0544	0.9597	-0.208
Mof_H 	H 	0.2058	0.0499	0.9523	0.126
Mof_C 	C 	0.3688	0.1142	0.9136	0.035
Mof_C 	C 	0.4491	0.2338	0.7838	-0.328
Mof_H 	H 	0.5153	0.2252	0.7844	0.096
Mof_H 	H 	0.935	0.449	0.27	0.013
Mof_Co	Co	0.51833	0.0443	0.59155	1.118
Mof_O 	O 	0.6407	0.1657	0.6678	-0.902
Mof_O 	O 	0.5132	0.172	0.5202	-0.886
Mof_C 	C 	0.691	0.1272	0.7165	0.551
Mof_C 	C 	0.4319	0.0994	0.4708	0.567
Mof_O 	O 	0.6807	0.0313	0.7116	-0.417
Mof_O 	O 	0.3739	0.9926	0.4872	-0.447
Mof_C 	C 	0.8185	0.1863	0.8403	0.077
Mof_H 	H 	0.8125	0.1131	0.8336	0.011
Mof_C 	C 	0.4653	0.2509	0.3648	0.16
Mof_H 	H 	0.5185	0.3085	0.401	-0.07
Mof_C 	C 	0.4491	0.2877	0.2814	-0.011
Mof_C 	C 	0.4089	0.141	0.3913	-0.409
Mof_H 	H 	0.35	0.0854	0.3571	0.183
Mof_C 	C 	0.4818	0.3957	0.2504	0.017
Mof_N 	N 	0.3934	0.2114	0.2172	-0.206
Mof_H 	H 	0.3608	0.136	0.2191	0.146
Mof_N 	N 	0.4478	0.3868	0.1697	-0.266
Mof_C 	C 	0.9029	0.3574	0.9471	0.008
Mof_H 	H 	0.8717	0.4025	0.9268	0.024
Mof_N 	N 	0.9742	0.383	0.0162	-0.279
Mof_C 	C 	0.9966	0.2967	0.0186	0.121
Mof_H 	H 	0.0448	0.2914	0.0589	-0.042
Mof_C 	C 	0.3991	0.2765	0.1499	0.099
Mof_N 	N 	0.9456	0.2185	0.9597	-0.208
Mof_H 	H 	0.9501	0.1559	0.9523	0.126
Mof_C 	C 	0.8858	0.2546	0.9136	0.035
Mof_C 	C 	0.7662	0.2153	0.7838	-0.328
Mof_H 	H 	0.7748	0.2901	0.7844	0.096
Mof_H 	H 	0.551	0.486	0.27	0.014
Mof_Na	Na	0.33333	0.66667	0.0931	3.329
Mof_Na	Na	0.66667	0.33333	0.5931	3.332
_end
