data_functionalizedCrystal
_audit_creation_method	'EQeq! by Chris Wilmer'
_symmetry_space_group_name_H-M	'P1'
_symmetry_Int_Tables_number	1
_symmetry_cell_setting	triclinic
loop_
_symmetry_equiv_pos_as_xyz
  x,y,z
_cell_length_a	17.2544
_cell_length_b	17.2544
_cell_length_c	15.3517
_cell_angle_alpha	90
_cell_angle_beta	90
_cell_angle_gamma	90
loop_
_atom_site_label
_atom_site_type_symbol
_atom_site_fract_x
_atom_site_fract_y
_atom_site_fract_z
_atom_site_charge
Mof_C 	C 	0.3052	0.5687	0.3013	0.388
Mof_C 	C 	0.2556	0.6194	0.2466	-0.198
Mof_C 	C 	0.1945	0.5911	0.1983	0.139
Mof_H 	H 	0.1839	0.5377	0.2001	-0.007
Mof_C 	C 	0.1483	0.6379	0.1473	-0.248
Mof_H 	H 	0.1092	0.6167	0.112	0.116
Mof_C 	C 	0.1613	0.7168	0.1498	0.22
Mof_C 	C 	0.2193	0.747	0.1963	-0.26
Mof_H 	H 	0.2276	0.8009	0.1959	0.11
Mof_C 	C 	0.2677	0.6991	0.2456	0.134
Mof_H 	H 	0.3084	0.7207	0.2781	-0.026
Mof_C 	C 	0.9909	0.7518	0.1943	-0.962
Mof_H 	H 	0.0256	0.741	0.2425	0.324
Mof_H 	H 	0.9665	0.7041	0.1754	0.289
Mof_H 	H 	0.9515	0.7883	0.2129	0.302
Mof_C 	C 	0.0361	0.786	0.1203	0.377
Mof_C 	C 	0.1309	0.8135	0.0336	0.334
Mof_C 	C 	0.2075	0.8158	0.992	-0.826
Mof_H 	H 	0.2088	0.8575	0.9496	0.251
Mof_H 	H 	0.2172	0.7668	0.9629	0.263
Mof_H 	H 	0.247	0.8246	0.0359	0.266
Mof_N 	N 	0.0108	0.8382	0.0679	-0.224
Mof_N 	N 	0.0713	0.8546	0.0113	-0.256
Mof_N 	N 	0.1108	0.7679	0.1029	-0.268
Mof_O 	O 	0.3661	0.5986	0.3284	-0.425
Mof_O 	O 	0.2839	0.5014	0.3178	-0.307
Mof_Cu	Cu	0.43218	0.54997	0.41692	0.899
Mof_C 	C 	0.6948	0.4313	0.3013	0.387
Mof_C 	C 	0.7444	0.3806	0.2466	-0.199
Mof_C 	C 	0.8055	0.4089	0.1983	0.133
Mof_H 	H 	0.8161	0.4623	0.2001	-0.014
Mof_C 	C 	0.8517	0.3621	0.1473	-0.244
Mof_H 	H 	0.8908	0.3833	0.112	0.103
Mof_C 	C 	0.8387	0.2832	0.1498	0.211
Mof_C 	C 	0.7807	0.253	0.1963	-0.255
Mof_H 	H 	0.7724	0.1991	0.1959	0.118
Mof_C 	C 	0.7323	0.3009	0.2456	0.133
Mof_H 	H 	0.6916	0.2793	0.2781	-0.022
Mof_C 	C 	0.0091	0.2482	0.1943	-0.517
Mof_H 	H 	0.9744	0.259	0.2425	0.158
Mof_H 	H 	0.0335	0.2959	0.1754	0.183
Mof_H 	H 	0.0485	0.2117	0.2129	0.194
Mof_C 	C 	0.9639	0.214	0.1203	0.221
Mof_C 	C 	0.8691	0.1865	0.0336	0.351
Mof_C 	C 	0.7925	0.1842	0.992	-0.865
Mof_H 	H 	0.7912	0.1425	0.9496	0.273
Mof_H 	H 	0.7828	0.2332	0.9629	0.274
Mof_H 	H 	0.753	0.1754	0.0359	0.288
Mof_N 	N 	0.9892	0.1618	0.0679	-0.211
Mof_N 	N 	0.9287	0.1454	0.0113	-0.257
Mof_N 	N 	0.8892	0.2321	0.1029	-0.243
Mof_O 	O 	0.6339	0.4014	0.3284	-0.425
Mof_O 	O 	0.7161	0.4986	0.3178	-0.311
Mof_Cu	Cu	0.56782	0.45003	0.41692	0.899
Mof_C 	C 	0.5687	0.6948	0.6987	0.384
Mof_C 	C 	0.6194	0.7444	0.7534	-0.195
Mof_C 	C 	0.5911	0.8055	0.8017	0.126
Mof_H 	H 	0.5377	0.8161	0.7999	-0.014
Mof_C 	C 	0.6379	0.8517	0.8527	-0.238
Mof_H 	H 	0.6167	0.8908	0.888	0.097
Mof_C 	C 	0.7168	0.8387	0.8502	0.2
Mof_C 	C 	0.747	0.7807	0.8037	-0.246
Mof_H 	H 	0.8009	0.7724	0.8041	0.105
Mof_C 	C 	0.6991	0.7323	0.7544	0.124
Mof_H 	H 	0.7207	0.6916	0.7219	-0.023
Mof_C 	C 	0.7518	0.0091	0.8057	-0.528
Mof_H 	H 	0.741	0.9744	0.7575	0.16
Mof_H 	H 	0.7041	0.0335	0.8246	0.183
Mof_H 	H 	0.7883	0.0485	0.7871	0.192
Mof_C 	C 	0.786	0.9639	0.8797	0.22
Mof_C 	C 	0.8135	0.8691	0.9664	0.279
Mof_C 	C 	0.8158	0.7925	0.008	-0.681
Mof_H 	H 	0.8575	0.7912	0.0504	0.214
Mof_H 	H 	0.7668	0.7828	0.0371	0.227
Mof_H 	H 	0.8246	0.753	0.9641	0.212
Mof_N 	N 	0.8382	0.9892	0.9321	-0.217
Mof_N 	N 	0.8546	0.9287	0.9887	-0.257
Mof_N 	N 	0.7679	0.8892	0.8971	-0.232
Mof_O 	O 	0.5986	0.6339	0.6716	-0.425
Mof_O 	O 	0.5014	0.7161	0.6822	-0.312
Mof_Cu	Cu	0.54997	0.56782	0.58308	0.899
Mof_C 	C 	0.4313	0.3052	0.6987	0.387
Mof_C 	C 	0.3806	0.2556	0.7534	-0.201
Mof_C 	C 	0.4089	0.1945	0.8017	0.139
Mof_H 	H 	0.4623	0.1839	0.7999	-0.011
Mof_C 	C 	0.3621	0.1483	0.8527	-0.251
Mof_H 	H 	0.3833	0.1092	0.888	0.112
Mof_C 	C 	0.2832	0.1613	0.8502	0.22
Mof_C 	C 	0.253	0.2193	0.8037	-0.261
Mof_H 	H 	0.1991	0.2276	0.8041	0.122
Mof_C 	C 	0.3009	0.2677	0.7544	0.138
Mof_H 	H 	0.2793	0.3084	0.7219	-0.024
Mof_C 	C 	0.2482	0.9909	0.8057	-0.98
Mof_H 	H 	0.259	0.0256	0.7575	0.334
Mof_H 	H 	0.2959	0.9665	0.8246	0.291
Mof_H 	H 	0.2117	0.9515	0.7871	0.309
Mof_C 	C 	0.214	0.0361	0.8797	0.385
Mof_C 	C 	0.1865	0.1309	0.9664	0.289
Mof_C 	C 	0.1842	0.2075	0.008	-0.692
Mof_H 	H 	0.1425	0.2088	0.0504	0.23
Mof_H 	H 	0.2332	0.2172	0.0371	0.233
Mof_H 	H 	0.1754	0.247	0.9641	0.224
Mof_N 	N 	0.1618	0.0108	0.9321	-0.225
Mof_N 	N 	0.1454	0.0713	0.9887	-0.248
Mof_N 	N 	0.2321	0.1108	0.8971	-0.261
Mof_O 	O 	0.4014	0.3661	0.6716	-0.426
Mof_O 	O 	0.4986	0.2839	0.6822	-0.308
Mof_Cu	Cu	0.45003	0.43218	0.58308	0.899
Mof_C 	C 	0.1948	0.0687	0.1987	0.383
Mof_C 	C 	0.2444	0.1194	0.2534	-0.189
Mof_C 	C 	0.3055	0.0911	0.3017	0.132
Mof_H 	H 	0.3161	0.0377	0.2999	-0.002
Mof_C 	C 	0.3517	0.1379	0.3527	-0.24
Mof_H 	H 	0.3908	0.1167	0.388	0.11
Mof_C 	C 	0.3387	0.2168	0.3502	0.213
Mof_C 	C 	0.2807	0.247	0.3037	-0.25
Mof_H 	H 	0.2724	0.3009	0.3041	0.115
Mof_C 	C 	0.2323	0.1991	0.2544	0.13
Mof_H 	H 	0.1916	0.2207	0.2219	-0.017
Mof_C 	C 	0.5091	0.2518	0.3057	-0.759
Mof_H 	H 	0.4744	0.241	0.2575	0.252
Mof_H 	H 	0.5335	0.2041	0.3246	0.244
Mof_H 	H 	0.5485	0.2883	0.2871	0.256
Mof_C 	C 	0.4639	0.286	0.3797	0.307
Mof_C 	C 	0.3691	0.3135	0.4664	0.318
Mof_C 	C 	0.2925	0.3158	0.508	-0.777
Mof_H 	H 	0.2912	0.3575	0.5504	0.247
Mof_H 	H 	0.2828	0.2668	0.5371	0.256
Mof_H 	H 	0.253	0.3246	0.4641	0.255
Mof_N 	N 	0.4892	0.3382	0.4321	-0.217
Mof_N 	N 	0.4287	0.3546	0.4887	-0.252
Mof_N 	N 	0.3892	0.2679	0.3971	-0.251
Mof_O 	O 	0.1339	0.0986	0.1716	-0.413
Mof_O 	O 	0.2161	0.0014	0.1822	-0.292
Mof_Cu	Cu	0.06782	0.04997	0.08308	0.908
Mof_C 	C 	0.8052	0.9313	0.1987	0.39
Mof_C 	C 	0.7556	0.8806	0.2534	-0.208
Mof_C 	C 	0.6945	0.9089	0.3017	0.137
Mof_H 	H 	0.6839	0.9623	0.2999	-0.021
Mof_C 	C 	0.6483	0.8621	0.3527	-0.252
Mof_H 	H 	0.6092	0.8833	0.388	0.103
Mof_C 	C 	0.6613	0.7832	0.3502	0.214
Mof_C 	C 	0.7193	0.753	0.3037	-0.26
Mof_H 	H 	0.7276	0.6991	0.3041	0.114
Mof_C 	C 	0.7677	0.8009	0.2544	0.136
Mof_H 	H 	0.8084	0.7793	0.2219	-0.029
Mof_C 	C 	0.4909	0.7482	0.3057	-0.742
Mof_H 	H 	0.5256	0.759	0.2575	0.243
Mof_H 	H 	0.4665	0.7959	0.3246	0.231
Mof_H 	H 	0.4515	0.7117	0.2871	0.249
Mof_C 	C 	0.5361	0.714	0.3797	0.3
Mof_C 	C 	0.6309	0.6865	0.4664	0.309
Mof_C 	C 	0.7075	0.6842	0.508	-0.754
Mof_H 	H 	0.7088	0.6425	0.5504	0.237
Mof_H 	H 	0.7172	0.7332	0.5371	0.242
Mof_H 	H 	0.747	0.6754	0.4641	0.241
Mof_N 	N 	0.5108	0.6618	0.4321	-0.216
Mof_N 	N 	0.5713	0.6454	0.4887	-0.251
Mof_N 	N 	0.6108	0.7321	0.3971	-0.25
Mof_O 	O 	0.8661	0.9014	0.1716	-0.44
Mof_O 	O 	0.7839	0.9986	0.1822	-0.327
Mof_Cu	Cu	0.93218	0.95003	0.08308	0.873
Mof_C 	C 	0.9313	0.1948	0.8013	0.387
Mof_C 	C 	0.8806	0.2444	0.7466	-0.202
Mof_C 	C 	0.9089	0.3055	0.6983	0.135
Mof_H 	H 	0.9623	0.3161	0.7001	-0.019
Mof_C 	C 	0.8621	0.3517	0.6473	-0.248
Mof_H 	H 	0.8833	0.3908	0.612	0.103
Mof_C 	C 	0.7832	0.3387	0.6498	0.213
Mof_C 	C 	0.753	0.2807	0.6963	-0.256
Mof_H 	H 	0.6991	0.2724	0.6959	0.115
Mof_C 	C 	0.8009	0.2323	0.7456	0.133
Mof_H 	H 	0.7793	0.1916	0.7781	-0.022
Mof_C 	C 	0.7482	0.5091	0.6943	-0.736
Mof_H 	H 	0.759	0.4744	0.7425	0.239
Mof_H 	H 	0.7959	0.5335	0.6754	0.229
Mof_H 	H 	0.7117	0.5485	0.7129	0.246
Mof_C 	C 	0.714	0.4639	0.6203	0.298
Mof_C 	C 	0.6865	0.3691	0.5336	0.315
Mof_C 	C 	0.6842	0.2925	0.492	-0.771
Mof_H 	H 	0.6425	0.2912	0.4496	0.245
Mof_H 	H 	0.7332	0.2828	0.4629	0.251
Mof_H 	H 	0.6754	0.253	0.5359	0.252
Mof_N 	N 	0.6618	0.4892	0.5679	-0.216
Mof_N 	N 	0.6454	0.4287	0.5113	-0.252
Mof_N 	N 	0.7321	0.3892	0.6029	-0.251
Mof_O 	O 	0.9014	0.1339	0.8284	-0.427
Mof_O 	O 	0.9986	0.2161	0.8178	-0.325
Mof_Cu	Cu	0.95003	0.06782	0.91692	0.885
Mof_C 	C 	0.0687	0.8052	0.8013	0.386
Mof_C 	C 	0.1194	0.7556	0.7466	-0.2
Mof_C 	C 	0.0911	0.6945	0.6983	0.135
Mof_H 	H 	0.0377	0.6839	0.7001	-0.006
Mof_C 	C 	0.1379	0.6483	0.6473	-0.246
Mof_H 	H 	0.1167	0.6092	0.612	0.111
Mof_C 	C 	0.2168	0.6613	0.6498	0.214
Mof_C 	C 	0.247	0.7193	0.6963	-0.257
Mof_H 	H 	0.3009	0.7276	0.6959	0.113
Mof_C 	C 	0.1991	0.7677	0.7456	0.132
Mof_H 	H 	0.2207	0.8084	0.7781	-0.029
Mof_C 	C 	0.2518	0.4909	0.6943	-0.755
Mof_H 	H 	0.241	0.5256	0.7425	0.248
Mof_H 	H 	0.2041	0.4665	0.6754	0.242
Mof_H 	H 	0.2883	0.4515	0.7129	0.253
Mof_C 	C 	0.286	0.5361	0.6203	0.305
Mof_C 	C 	0.3135	0.6309	0.5336	0.312
Mof_C 	C 	0.3158	0.7075	0.492	-0.759
Mof_H 	H 	0.3575	0.7088	0.4496	0.239
Mof_H 	H 	0.2668	0.7172	0.4629	0.246
Mof_H 	H 	0.3246	0.747	0.5359	0.243
Mof_N 	N 	0.3382	0.5108	0.5679	-0.217
Mof_N 	N 	0.3546	0.5713	0.5113	-0.251
Mof_N 	N 	0.2679	0.6108	0.6029	-0.251
Mof_O 	O 	0.0986	0.8661	0.8284	-0.434
Mof_O 	O 	0.0014	0.7839	0.8178	-0.302
Mof_Cu	Cu	0.04997	0.93218	0.91692	0.883
Mof_O 	O 	0.5	0.5	0.5	-0.685
Mof_O 	O 	-0	0	-0	-0.639
Mof_O 	O 	0.5	0.5	0.3307	-0.401
Mof_O 	O 	0.5	0.5	0.6693	-0.403
Mof_O 	O 	5.64775e-34	0	0.1693	-0.364
Mof_O 	O 	-2.75208e-33	0	0.8307	-0.366
_end
