data_functionalizedCrystal
_audit_creation_method	'EQeq! by Chris Wilmer'
_symmetry_space_group_name_H-M	'P1'
_symmetry_Int_Tables_number	1
_symmetry_cell_setting	triclinic
loop_
_symmetry_equiv_pos_as_xyz
  x,y,z
_cell_length_a	16.379
_cell_length_b	16.361
_cell_length_c	28.999
_cell_angle_alpha	90
_cell_angle_beta	90
_cell_angle_gamma	90
loop_
_atom_site_label
_atom_site_type_symbol
_atom_site_fract_x
_atom_site_fract_y
_atom_site_fract_z
_atom_site_charge
Mof_O 	O 	0.41471	0.71506	0.72163	-0.465
Mof_C 	C 	0.44061	0.64204	0.72849	0.352
Mof_C 	C 	0.39975	0.59785	0.76793	-0.107
Mof_C 	C 	0.29652	0.59312	0.82711	-0.101
Mof_C 	C 	0.4283	0.52215	0.7822	0.06
Mof_H 	H 	0.4725	0.4984	0.7671	0.044
Mof_C 	C 	0.32515	0.51764	0.84116	0.056
Mof_H 	H 	0.3001	0.4908	0.8656	0.043
Mof_C 	C 	0.39151	0.4815	0.8188	-0.128
Mof_C 	C 	0.42168	0.39983	0.83397	0.401
Mof_O 	O 	0.48483	0.37227	0.81348	-0.483
Mof_O 	O 	0.38343	0.36317	0.86509	-0.487
Mof_O 	O 	0.17972	0.59221	0.87606	-0.32
Mof_Zn	Zn	0.54027	0.15991	0.92001	1.234
Mof_Zn	Zn	0.54947	0.2775	0.83072	1.226
Mof_Zn	Zn	0.37289	0.24667	0.88234	1.233
Mof_O 	O 	0.35022	0.24145	0.94835	-0.481
Mof_O 	O 	0.21953	0.71053	0.84632	-0.436
Mof_O 	O 	0.48011	0.19942	0.86589	-0.971
Mof_O 	O 	0.42905	0.95061	0.07404	-0.464
Mof_C 	C 	0.23347	0.16516	0.07123	-0.147
Mof_O 	O 	0.461	0.17183	0.9704	-0.483
Mof_C 	C 	0.26333	0.09348	0.09137	0.077
Mof_H 	H 	0.2363	0.0706	0.1164	0.035
Mof_C 	C 	0.34413	0.16251	0.01659	-0.147
Mof_C 	C 	0.27319	0.19836	0.03324	0.09
Mof_H 	H 	0.2522	0.2447	0.0189	0.031
Mof_C 	C 	0.3736	0.0927	0.0374	0.08
Mof_H 	H 	0.4217	0.0694	0.0266	0.039
Mof_C 	C 	0.38813	0.19515	0.97512	0.417
Mof_C 	C 	0.33329	0.05636	0.07406	-0.126
Mof_O 	O 	0.49426	0.60692	0.70655	-0.338
Mof_C 	C 	0.334	0.63245	0.79061	0.051
Mof_H 	H 	0.3146	0.6832	0.7811	0.05
Mof_O 	O 	0.32675	0.94001	0.12317	-0.31
Mof_C 	C 	0.22637	0.63272	0.85205	0.326
Mof_C 	C 	0.36361	0.97582	0.09318	0.37
Mof_C 	C 	0.15954	0.20638	0.09106	0.42
Mof_O 	O 	0.12666	0.2613	0.06701	-0.497
Mof_O 	O 	0.13613	0.18309	0.13019	-0.504
Mof_H 	H 	0.481	0.1653	0.8447	0.348
Mof_O 	O 	0.08529	0.28494	0.22163	-0.465
Mof_C 	C 	0.05939	0.35796	0.22849	0.353
Mof_C 	C 	0.10025	0.40215	0.26793	-0.106
Mof_C 	C 	0.20348	0.40688	0.32711	-0.1
Mof_C 	C 	0.0717	0.47785	0.2822	0.061
Mof_H 	H 	0.0275	0.5016	0.2671	0.045
Mof_C 	C 	0.17485	0.48236	0.34116	0.057
Mof_H 	H 	0.1999	0.5092	0.3656	0.043
Mof_C 	C 	0.10849	0.5185	0.3188	-0.128
Mof_C 	C 	0.07832	0.60017	0.33397	0.401
Mof_O 	O 	0.01517	0.62773	0.31348	-0.482
Mof_O 	O 	0.11657	0.63683	0.36509	-0.486
Mof_O 	O 	0.32028	0.40779	0.37606	-0.32
Mof_Zn	Zn	0.95973	0.84009	0.42001	1.233
Mof_Zn	Zn	0.95052	0.7225	0.33072	1.226
Mof_Zn	Zn	0.12711	0.75333	0.38234	1.233
Mof_O 	O 	0.14978	0.75855	0.44835	-0.481
Mof_O 	O 	0.28047	0.28947	0.34632	-0.437
Mof_O 	O 	0.01989	0.80058	0.36589	-0.97
Mof_O 	O 	0.07095	0.04939	0.57404	-0.465
Mof_C 	C 	0.26653	0.83484	0.57123	-0.143
Mof_O 	O 	0.039	0.82817	0.4704	-0.481
Mof_C 	C 	0.23667	0.90652	0.59137	0.073
Mof_H 	H 	0.2637	0.9294	0.6164	0.038
Mof_C 	C 	0.15587	0.83749	0.51659	-0.143
Mof_C 	C 	0.22681	0.80164	0.53324	0.087
Mof_H 	H 	0.2478	0.7553	0.5189	0.032
Mof_C 	C 	0.1264	0.9073	0.5374	0.076
Mof_H 	H 	0.0783	0.9306	0.5266	0.042
Mof_C 	C 	0.11187	0.80485	0.47512	0.415
Mof_C 	C 	0.16671	0.94364	0.57406	-0.119
Mof_O 	O 	0.00574	0.39308	0.20655	-0.339
Mof_C 	C 	0.166	0.36755	0.29061	0.051
Mof_H 	H 	0.1854	0.3168	0.2811	0.05
Mof_O 	O 	0.17325	0.05999	0.62317	-0.31
Mof_C 	C 	0.27363	0.36728	0.35205	0.326
Mof_C 	C 	0.13639	0.02418	0.59318	0.364
Mof_C 	C 	0.34046	0.79362	0.59106	0.419
Mof_O 	O 	0.37334	0.7387	0.56701	-0.496
Mof_O 	O 	0.36387	0.81691	0.63019	-0.502
Mof_H 	H 	0.019	0.8347	0.3447	0.349
Mof_O 	O 	0.58529	0.21506	0.77837	-0.464
Mof_C 	C 	0.55939	0.14204	0.77151	0.355
Mof_C 	C 	0.60025	0.09785	0.73207	-0.109
Mof_C 	C 	0.70348	0.09312	0.67289	-0.104
Mof_C 	C 	0.5717	0.02215	0.7178	0.067
Mof_H 	H 	0.5275	0.9984	0.7329	0.043
Mof_C 	C 	0.67485	0.01764	0.65884	0.067
Mof_H 	H 	0.6999	0.9908	0.6344	0.038
Mof_C 	C 	0.60849	0.9815	0.6812	-0.135
Mof_C 	C 	0.57832	0.89983	0.66603	0.404
Mof_O 	O 	0.51517	0.87227	0.68652	-0.483
Mof_O 	O 	0.61657	0.86317	0.63491	-0.487
Mof_O 	O 	0.82028	0.09221	0.62394	-0.32
Mof_Zn	Zn	0.45973	0.65991	0.57999	1.234
Mof_Zn	Zn	0.45052	0.7775	0.66928	1.226
Mof_Zn	Zn	0.62711	0.74667	0.61766	1.233
Mof_O 	O 	0.64978	0.74145	0.55165	-0.481
Mof_O 	O 	0.78047	0.21053	0.65368	-0.437
Mof_O 	O 	0.51989	0.69942	0.63411	-0.971
Mof_O 	O 	0.57095	0.45061	0.42596	-0.464
Mof_C 	C 	0.76653	0.66516	0.42877	-0.145
Mof_O 	O 	0.539	0.67183	0.5296	-0.483
Mof_C 	C 	0.73667	0.59348	0.40863	0.076
Mof_H 	H 	0.7637	0.5706	0.3836	0.037
Mof_C 	C 	0.65587	0.66251	0.48341	-0.145
Mof_C 	C 	0.72681	0.69836	0.46676	0.089
Mof_H 	H 	0.7478	0.7447	0.4811	0.031
Mof_C 	C 	0.6264	0.5927	0.4626	0.079
Mof_H 	H 	0.5783	0.5694	0.4734	0.04
Mof_C 	C 	0.61187	0.69515	0.52488	0.416
Mof_C 	C 	0.66671	0.55636	0.42594	-0.124
Mof_O 	O 	0.50574	0.10692	0.79345	-0.339
Mof_C 	C 	0.666	0.13245	0.70939	0.055
Mof_H 	H 	0.6854	0.1832	0.7189	0.049
Mof_O 	O 	0.67325	0.44001	0.37683	-0.31
Mof_C 	C 	0.77363	0.13272	0.64795	0.328
Mof_C 	C 	0.63639	0.47582	0.40682	0.368
Mof_C 	C 	0.84046	0.70638	0.40894	0.42
Mof_O 	O 	0.87334	0.7613	0.43299	-0.497
Mof_O 	O 	0.86387	0.68309	0.36981	-0.503
Mof_H 	H 	0.519	0.6653	0.6553	0.348
Mof_O 	O 	0.91471	0.78494	0.27837	-0.463
Mof_C 	C 	0.94061	0.85796	0.27151	0.348
Mof_C 	C 	0.89975	0.90215	0.23207	-0.092
Mof_C 	C 	0.79652	0.90688	0.17289	-0.087
Mof_C 	C 	0.9283	0.97785	0.2178	0.034
Mof_H 	H 	0.9725	0.0016	0.2329	0.057
Mof_C 	C 	0.82515	0.98236	0.15884	0.033
Mof_H 	H 	0.8001	0.0092	0.1344	0.053
Mof_C 	C 	0.89151	0.0185	0.1812	-0.105
Mof_C 	C 	0.92168	0.10017	0.16603	0.393
Mof_O 	O 	0.98483	0.12773	0.18652	-0.479
Mof_O 	O 	0.88343	0.13683	0.13491	-0.484
Mof_O 	O 	0.67972	0.90779	0.12394	-0.32
Mof_Zn	Zn	0.04027	0.34009	0.07999	1.233
Mof_Zn	Zn	0.04947	0.2225	0.16928	1.225
Mof_Zn	Zn	0.87289	0.25333	0.11766	1.233
Mof_O 	O 	0.85022	0.25855	0.05165	-0.481
Mof_O 	O 	0.71953	0.78947	0.15368	-0.436
Mof_O 	O 	0.98011	0.30058	0.13411	-0.969
Mof_O 	O 	0.92905	0.54939	0.92596	-0.464
Mof_C 	C 	0.73347	0.33484	0.92877	-0.145
Mof_O 	O 	0.961	0.32817	0.0296	-0.482
Mof_C 	C 	0.76333	0.40652	0.90863	0.076
Mof_H 	H 	0.7363	0.4294	0.8836	0.037
Mof_C 	C 	0.84413	0.33749	0.98341	-0.146
Mof_C 	C 	0.77319	0.30164	0.96676	0.09
Mof_H 	H 	0.7522	0.2553	0.9811	0.032
Mof_C 	C 	0.8736	0.4073	0.9626	0.079
Mof_H 	H 	0.9217	0.4306	0.9734	0.04
Mof_C 	C 	0.88813	0.30485	0.02488	0.417
Mof_C 	C 	0.83329	0.44364	0.92594	-0.124
Mof_O 	O 	0.99426	0.89308	0.29345	-0.339
Mof_C 	C 	0.834	0.86755	0.20939	0.039
Mof_H 	H 	0.8146	0.8168	0.2189	0.054
Mof_O 	O 	0.82675	0.55999	0.87683	-0.31
Mof_C 	C 	0.72637	0.86728	0.14795	0.321
Mof_C 	C 	0.86361	0.52418	0.90682	0.368
Mof_C 	C 	0.65954	0.29362	0.90894	0.42
Mof_O 	O 	0.62666	0.2387	0.93299	-0.496
Mof_O 	O 	0.63613	0.31691	0.86981	-0.502
Mof_H 	H 	0.981	0.3347	0.1553	0.348
Mof_O 	O 	0.58529	0.28494	0.27837	-0.464
Mof_C 	C 	0.55939	0.35796	0.27151	0.353
Mof_C 	C 	0.60025	0.40215	0.23207	-0.106
Mof_C 	C 	0.70348	0.40688	0.17289	-0.1
Mof_C 	C 	0.5717	0.47785	0.2178	0.061
Mof_H 	H 	0.5275	0.5016	0.2329	0.045
Mof_C 	C 	0.67485	0.48236	0.15884	0.057
Mof_H 	H 	0.6999	0.5092	0.1344	0.043
Mof_C 	C 	0.60849	0.5185	0.1812	-0.128
Mof_C 	C 	0.57832	0.60017	0.16603	0.401
Mof_O 	O 	0.51517	0.62773	0.18652	-0.483
Mof_O 	O 	0.61657	0.63683	0.13491	-0.487
Mof_O 	O 	0.82028	0.40779	0.12394	-0.32
Mof_Zn	Zn	0.45973	0.84009	0.07999	1.234
Mof_Zn	Zn	0.45052	0.7225	0.16928	1.226
Mof_Zn	Zn	0.62711	0.75333	0.11766	1.233
Mof_O 	O 	0.64978	0.75855	0.05165	-0.481
Mof_O 	O 	0.78047	0.28947	0.15368	-0.436
Mof_O 	O 	0.51989	0.80058	0.13411	-0.971
Mof_O 	O 	0.57095	0.04939	0.92596	-0.464
Mof_C 	C 	0.76653	0.83484	0.92877	-0.147
Mof_O 	O 	0.539	0.82817	0.0296	-0.483
Mof_C 	C 	0.73667	0.90652	0.90863	0.077
Mof_H 	H 	0.7637	0.9294	0.8836	0.035
Mof_C 	C 	0.65587	0.83749	0.98341	-0.147
Mof_C 	C 	0.72681	0.80164	0.96676	0.09
Mof_H 	H 	0.7478	0.7553	0.9811	0.031
Mof_C 	C 	0.6264	0.9073	0.9626	0.08
Mof_H 	H 	0.5783	0.9306	0.9734	0.039
Mof_C 	C 	0.61187	0.80485	0.02488	0.417
Mof_C 	C 	0.66671	0.94364	0.92594	-0.126
Mof_O 	O 	0.50574	0.39308	0.29345	-0.338
Mof_C 	C 	0.666	0.36755	0.20939	0.051
Mof_H 	H 	0.6854	0.3168	0.2189	0.05
Mof_O 	O 	0.67325	0.05999	0.87683	-0.31
Mof_C 	C 	0.77363	0.36728	0.14795	0.326
Mof_C 	C 	0.63639	0.02418	0.90682	0.37
Mof_C 	C 	0.84046	0.79362	0.90894	0.42
Mof_O 	O 	0.87334	0.7387	0.93299	-0.497
Mof_O 	O 	0.86387	0.81691	0.86981	-0.504
Mof_H 	H 	0.519	0.8347	0.1553	0.348
Mof_O 	O 	0.91471	0.71506	0.77837	-0.465
Mof_C 	C 	0.94061	0.64204	0.77151	0.353
Mof_C 	C 	0.89975	0.59785	0.73207	-0.106
Mof_C 	C 	0.79652	0.59312	0.67289	-0.1
Mof_C 	C 	0.9283	0.52215	0.7178	0.061
Mof_H 	H 	0.9725	0.4984	0.7329	0.045
Mof_C 	C 	0.82515	0.51764	0.65884	0.057
Mof_H 	H 	0.8001	0.4908	0.6344	0.043
Mof_C 	C 	0.89151	0.4815	0.6812	-0.128
Mof_C 	C 	0.92168	0.39983	0.66603	0.401
Mof_O 	O 	0.98483	0.37227	0.68652	-0.482
Mof_O 	O 	0.88343	0.36317	0.63491	-0.486
Mof_O 	O 	0.67972	0.59221	0.62394	-0.32
Mof_Zn	Zn	0.04027	0.15991	0.57999	1.233
Mof_Zn	Zn	0.04947	0.2775	0.66928	1.226
Mof_Zn	Zn	0.87289	0.24667	0.61766	1.233
Mof_O 	O 	0.85022	0.24145	0.55165	-0.481
Mof_O 	O 	0.71953	0.71053	0.65368	-0.437
Mof_O 	O 	0.98011	0.19942	0.63411	-0.97
Mof_O 	O 	0.92905	0.95061	0.42596	-0.465
Mof_C 	C 	0.73347	0.16516	0.42877	-0.143
Mof_O 	O 	0.961	0.17183	0.5296	-0.481
Mof_C 	C 	0.76333	0.09348	0.40863	0.073
Mof_H 	H 	0.7363	0.0706	0.3836	0.038
Mof_C 	C 	0.84413	0.16251	0.48341	-0.143
Mof_C 	C 	0.77319	0.19836	0.46676	0.087
Mof_H 	H 	0.7522	0.2447	0.4811	0.032
Mof_C 	C 	0.8736	0.0927	0.4626	0.076
Mof_H 	H 	0.9217	0.0694	0.4734	0.042
Mof_C 	C 	0.88813	0.19515	0.52488	0.415
Mof_C 	C 	0.83329	0.05636	0.42594	-0.119
Mof_O 	O 	0.99426	0.60692	0.79345	-0.339
Mof_C 	C 	0.834	0.63245	0.70939	0.051
Mof_H 	H 	0.8146	0.6832	0.7189	0.05
Mof_O 	O 	0.82675	0.94001	0.37683	-0.31
Mof_C 	C 	0.72637	0.63272	0.64795	0.326
Mof_C 	C 	0.86361	0.97582	0.40682	0.364
Mof_C 	C 	0.65954	0.20638	0.40894	0.419
Mof_O 	O 	0.62666	0.2613	0.43299	-0.496
Mof_O 	O 	0.63613	0.18309	0.36981	-0.502
Mof_H 	H 	0.981	0.1653	0.6553	0.349
Mof_O 	O 	0.41471	0.78494	0.22163	-0.464
Mof_C 	C 	0.44061	0.85796	0.22849	0.355
Mof_C 	C 	0.39975	0.90215	0.26793	-0.109
Mof_C 	C 	0.29652	0.90688	0.32711	-0.104
Mof_C 	C 	0.4283	0.97785	0.2822	0.067
Mof_H 	H 	0.4725	0.0016	0.2671	0.043
Mof_C 	C 	0.32515	0.98236	0.34116	0.067
Mof_H 	H 	0.3001	0.0092	0.3656	0.038
Mof_C 	C 	0.39151	0.0185	0.3188	-0.135
Mof_C 	C 	0.42168	0.10017	0.33397	0.404
Mof_O 	O 	0.48483	0.12773	0.31348	-0.483
Mof_O 	O 	0.38343	0.13683	0.36509	-0.487
Mof_O 	O 	0.17972	0.90779	0.37606	-0.32
Mof_Zn	Zn	0.54027	0.34009	0.42001	1.234
Mof_Zn	Zn	0.54947	0.2225	0.33072	1.226
Mof_Zn	Zn	0.37289	0.25333	0.38234	1.233
Mof_O 	O 	0.35022	0.25855	0.44835	-0.481
Mof_O 	O 	0.21953	0.78947	0.34632	-0.437
Mof_O 	O 	0.48011	0.30058	0.36589	-0.971
Mof_O 	O 	0.42905	0.54939	0.57404	-0.464
Mof_C 	C 	0.23347	0.33484	0.57123	-0.145
Mof_O 	O 	0.461	0.32817	0.4704	-0.483
Mof_C 	C 	0.26333	0.40652	0.59137	0.076
Mof_H 	H 	0.2363	0.4294	0.6164	0.037
Mof_C 	C 	0.34413	0.33749	0.51659	-0.145
Mof_C 	C 	0.27319	0.30164	0.53324	0.089
Mof_H 	H 	0.2522	0.2553	0.5189	0.031
Mof_C 	C 	0.3736	0.4073	0.5374	0.079
Mof_H 	H 	0.4217	0.4306	0.5266	0.04
Mof_C 	C 	0.38813	0.30485	0.47512	0.416
Mof_C 	C 	0.33329	0.44364	0.57406	-0.124
Mof_O 	O 	0.49426	0.89308	0.20655	-0.339
Mof_C 	C 	0.334	0.86755	0.29061	0.055
Mof_H 	H 	0.3146	0.8168	0.2811	0.049
Mof_O 	O 	0.32675	0.55999	0.62317	-0.31
Mof_C 	C 	0.22637	0.86728	0.35205	0.328
Mof_C 	C 	0.36361	0.52418	0.59318	0.368
Mof_C 	C 	0.15954	0.29362	0.59106	0.42
Mof_O 	O 	0.12666	0.2387	0.56701	-0.497
Mof_O 	O 	0.13613	0.31691	0.63019	-0.503
Mof_H 	H 	0.481	0.3347	0.3447	0.348
Mof_O 	O 	0.08529	0.21506	0.72163	-0.463
Mof_C 	C 	0.05939	0.14204	0.72849	0.348
Mof_C 	C 	0.10025	0.09785	0.76793	-0.092
Mof_C 	C 	0.20348	0.09312	0.82711	-0.087
Mof_C 	C 	0.0717	0.02215	0.7822	0.034
Mof_H 	H 	0.0275	0.9984	0.7671	0.057
Mof_C 	C 	0.17485	0.01764	0.84116	0.033
Mof_H 	H 	0.1999	0.9908	0.8656	0.053
Mof_C 	C 	0.10849	0.9815	0.8188	-0.105
Mof_C 	C 	0.07832	0.89983	0.83397	0.393
Mof_O 	O 	0.01517	0.87227	0.81348	-0.479
Mof_O 	O 	0.11657	0.86317	0.86509	-0.484
Mof_O 	O 	0.32028	0.09221	0.87606	-0.32
Mof_Zn	Zn	0.95973	0.65991	0.92001	1.233
Mof_Zn	Zn	0.95052	0.7775	0.83072	1.225
Mof_Zn	Zn	0.12711	0.74667	0.88234	1.233
Mof_O 	O 	0.14978	0.74145	0.94835	-0.481
Mof_O 	O 	0.28047	0.21053	0.84632	-0.436
Mof_O 	O 	0.01989	0.69942	0.86589	-0.969
Mof_O 	O 	0.07095	0.45061	0.07404	-0.464
Mof_C 	C 	0.26653	0.66516	0.07123	-0.146
Mof_O 	O 	0.039	0.67183	0.9704	-0.482
Mof_C 	C 	0.23667	0.59348	0.09137	0.076
Mof_H 	H 	0.2637	0.5706	0.1164	0.037
Mof_C 	C 	0.15587	0.66251	0.01659	-0.146
Mof_C 	C 	0.22681	0.69836	0.03324	0.09
Mof_H 	H 	0.2478	0.7447	0.0189	0.032
Mof_C 	C 	0.1264	0.5927	0.0374	0.079
Mof_H 	H 	0.0783	0.5694	0.0266	0.04
Mof_C 	C 	0.11187	0.69515	0.97512	0.417
Mof_C 	C 	0.16671	0.55636	0.07406	-0.124
Mof_O 	O 	0.00574	0.10692	0.70655	-0.339
Mof_C 	C 	0.166	0.13245	0.79061	0.039
Mof_H 	H 	0.1854	0.1832	0.7811	0.054
Mof_O 	O 	0.17325	0.44001	0.12317	-0.31
Mof_C 	C 	0.27363	0.13272	0.85205	0.321
Mof_C 	C 	0.13639	0.47582	0.09318	0.368
Mof_C 	C 	0.34046	0.70638	0.09106	0.42
Mof_O 	O 	0.37334	0.7613	0.06701	-0.496
Mof_O 	O 	0.36387	0.68309	0.13019	-0.502
Mof_H 	H 	0.019	0.6653	0.8447	0.348
_end
