data_functionalizedCrystal
_audit_creation_method	'EQeq! by Chris Wilmer'
_symmetry_space_group_name_H-M	'P1'
_symmetry_Int_Tables_number	1
_symmetry_cell_setting	triclinic
loop_
_symmetry_equiv_pos_as_xyz
  x,y,z
_cell_length_a	20.276
_cell_length_b	20.276
_cell_length_c	20.276
_cell_angle_alpha	90
_cell_angle_beta	90
_cell_angle_gamma	90
loop_
_atom_site_label
_atom_site_type_symbol
_atom_site_fract_x
_atom_site_fract_y
_atom_site_fract_z
_atom_site_charge
Mof_Cu	Cu	0.84507	0.60641	0.8609	0.931
Mof_Cu	Cu	0.72956	0.50424	0.94778	0.929
Mof_C 	C 	0.6905	0.7062	0.9687	-0.111
Mof_H 	H 	0.667	0.6917	0.0084	0.089
Mof_C 	C 	0.6421	0.7319	0.9167	-0.032
Mof_H 	H 	0.6295	0.695	0.8881	0.065
Mof_C 	C 	0.7317	0.8066	0.9182	-0.039
Mof_H 	H 	0.7741	0.8016	0.8954	0.082
Mof_C 	C 	0.7336	0.7676	0.9834	-0.087
Mof_H 	H 	0.7106	0.794	0.0168	0.075
Mof_C 	C 	0.7283	0.6487	0.9373	0.392
Mof_C 	C 	0.5792	0.7631	0.9441	0.333
Mof_C 	C 	0.7182	0.8792	0.9295	0.339
Mof_C 	C 	0.8023	0.7512	0.0106	0.374
Mof_O 	O 	0.77926	0.6614	0.90547	-0.404
Mof_O 	O 	0.70156	0.59384	0.9455	-0.426
Mof_O 	O 	0.7625	0.9099	0.9597	-0.372
Mof_O 	O 	0.66534	0.90474	0.90972	-0.396
Mof_O 	O 	0.56065	0.81743	0.92112	-0.391
Mof_O 	O 	0.54763	0.7303	0.9859	-0.36
Mof_O 	O 	0.80064	0.711	0.05842	-0.409
Mof_O 	O 	0.85143	0.77806	0.98717	-0.393
Mof_O 	O 	0.68027	0.7778	0.87839	-0.204
Mof_Cu	Cu	0.65493	0.39359	0.3609	0.931
Mof_Cu	Cu	0.77044	0.49576	0.44778	0.93
Mof_C 	C 	0.8095	0.2938	0.4687	-0.11
Mof_H 	H 	0.833	0.3083	0.5084	0.092
Mof_C 	C 	0.8579	0.2681	0.4167	-0.031
Mof_H 	H 	0.8705	0.305	0.3881	0.066
Mof_C 	C 	0.7683	0.1934	0.4182	-0.034
Mof_H 	H 	0.7259	0.1984	0.3954	0.082
Mof_C 	C 	0.7664	0.2324	0.4834	-0.098
Mof_H 	H 	0.7894	0.206	0.5168	0.082
Mof_C 	C 	0.7717	0.3513	0.4373	0.393
Mof_C 	C 	0.9208	0.2369	0.4441	0.334
Mof_C 	C 	0.7818	0.1208	0.4295	0.339
Mof_C 	C 	0.6977	0.2488	0.5106	0.387
Mof_O 	O 	0.72074	0.3386	0.40547	-0.403
Mof_O 	O 	0.79844	0.40616	0.4455	-0.426
Mof_O 	O 	0.7375	0.0901	0.4597	-0.374
Mof_O 	O 	0.83466	0.09526	0.40972	-0.397
Mof_O 	O 	0.93935	0.18257	0.42112	-0.392
Mof_O 	O 	0.95237	0.2697	0.4859	-0.361
Mof_O 	O 	0.69936	0.289	0.55842	-0.41
Mof_O 	O 	0.64857	0.22194	0.48717	-0.4
Mof_O 	O 	0.81973	0.2222	0.37839	-0.203
Mof_Cu	Cu	0.15493	0.10641	0.6391	0.932
Mof_Cu	Cu	0.27044	0.00424	0.55222	0.93
Mof_C 	C 	0.3095	0.2062	0.5313	-0.11
Mof_H 	H 	0.333	0.1917	0.4916	0.092
Mof_C 	C 	0.3579	0.2319	0.5833	-0.031
Mof_H 	H 	0.3705	0.195	0.6119	0.066
Mof_C 	C 	0.2683	0.3066	0.5818	-0.034
Mof_H 	H 	0.2259	0.3016	0.6046	0.081
Mof_C 	C 	0.2664	0.2676	0.5166	-0.098
Mof_H 	H 	0.2894	0.294	0.4832	0.082
Mof_C 	C 	0.2717	0.1487	0.5627	0.393
Mof_C 	C 	0.4208	0.2631	0.5559	0.333
Mof_C 	C 	0.2818	0.3792	0.5705	0.339
Mof_C 	C 	0.1977	0.2512	0.4894	0.387
Mof_O 	O 	0.22074	0.1614	0.59453	-0.403
Mof_O 	O 	0.29844	0.09384	0.5545	-0.426
Mof_O 	O 	0.2375	0.4099	0.5403	-0.374
Mof_O 	O 	0.33466	0.40474	0.59028	-0.396
Mof_O 	O 	0.43935	0.31743	0.57888	-0.391
Mof_O 	O 	0.45237	0.2303	0.5141	-0.36
Mof_O 	O 	0.19936	0.211	0.44158	-0.41
Mof_O 	O 	0.14857	0.27806	0.51283	-0.4
Mof_O 	O 	0.31973	0.2778	0.62161	-0.203
Mof_Cu	Cu	0.34507	0.89359	0.1391	0.931
Mof_Cu	Cu	0.22956	0.99576	0.05222	0.927
Mof_C 	C 	0.1905	0.7938	0.0313	-0.11
Mof_H 	H 	0.167	0.8083	0.9916	0.092
Mof_C 	C 	0.1421	0.7681	0.0833	-0.031
Mof_H 	H 	0.1295	0.805	0.1119	0.066
Mof_C 	C 	0.2317	0.6934	0.0818	-0.034
Mof_H 	H 	0.2741	0.6984	0.1046	0.081
Mof_C 	C 	0.2336	0.7324	0.0166	-0.097
Mof_H 	H 	0.2106	0.706	0.9832	0.082
Mof_C 	C 	0.2283	0.8513	0.0627	0.393
Mof_C 	C 	0.0792	0.7369	0.0559	0.334
Mof_C 	C 	0.2182	0.6208	0.0705	0.339
Mof_C 	C 	0.3023	0.7488	0.9894	0.388
Mof_O 	O 	0.27926	0.8386	0.09453	-0.403
Mof_O 	O 	0.20156	0.90616	0.0545	-0.427
Mof_O 	O 	0.2625	0.5901	0.0403	-0.373
Mof_O 	O 	0.16534	0.59526	0.09028	-0.396
Mof_O 	O 	0.06065	0.68257	0.07888	-0.39
Mof_O 	O 	0.04763	0.7697	0.0141	-0.36
Mof_O 	O 	0.30064	0.789	0.94158	-0.41
Mof_O 	O 	0.35143	0.72194	0.01283	-0.4
Mof_O 	O 	0.18027	0.7222	0.12161	-0.203
Mof_Cu	Cu	0.8609	0.84507	0.60641	0.932
Mof_Cu	Cu	0.94778	0.72956	0.50424	0.93
Mof_C 	C 	0.9687	0.6905	0.7062	-0.11
Mof_H 	H 	0.0084	0.667	0.6917	0.09
Mof_C 	C 	0.9167	0.6421	0.7319	-0.031
Mof_H 	H 	0.8881	0.6295	0.695	0.066
Mof_C 	C 	0.9182	0.7317	0.8066	-0.038
Mof_H 	H 	0.8954	0.7741	0.8016	0.083
Mof_C 	C 	0.9834	0.7336	0.7676	-0.086
Mof_H 	H 	0.0168	0.7106	0.794	0.076
Mof_C 	C 	0.9373	0.7283	0.6487	0.393
Mof_C 	C 	0.9441	0.5792	0.7631	0.334
Mof_C 	C 	0.9295	0.7182	0.8792	0.34
Mof_C 	C 	0.0106	0.8023	0.7512	0.375
Mof_O 	O 	0.90547	0.77926	0.6614	-0.403
Mof_O 	O 	0.9455	0.70156	0.59384	-0.425
Mof_O 	O 	0.9597	0.7625	0.9099	-0.371
Mof_O 	O 	0.90972	0.66534	0.90474	-0.395
Mof_O 	O 	0.92112	0.56065	0.81743	-0.39
Mof_O 	O 	0.9859	0.54763	0.7303	-0.359
Mof_O 	O 	0.05842	0.80064	0.711	-0.408
Mof_O 	O 	0.98717	0.85143	0.77806	-0.392
Mof_O 	O 	0.87839	0.68027	0.7778	-0.203
Mof_Cu	Cu	0.3609	0.65493	0.39359	0.932
Mof_Cu	Cu	0.44778	0.77044	0.49576	0.93
Mof_C 	C 	0.4687	0.8095	0.2938	-0.11
Mof_H 	H 	0.5084	0.833	0.3083	0.092
Mof_C 	C 	0.4167	0.8579	0.2681	-0.031
Mof_H 	H 	0.3881	0.8705	0.305	0.066
Mof_C 	C 	0.4182	0.7683	0.1934	-0.034
Mof_H 	H 	0.3954	0.7259	0.1984	0.082
Mof_C 	C 	0.4834	0.7664	0.2324	-0.098
Mof_H 	H 	0.5168	0.7894	0.206	0.082
Mof_C 	C 	0.4373	0.7717	0.3513	0.393
Mof_C 	C 	0.4441	0.9208	0.2369	0.334
Mof_C 	C 	0.4295	0.7818	0.1208	0.339
Mof_C 	C 	0.5106	0.6977	0.2488	0.387
Mof_O 	O 	0.40547	0.72074	0.3386	-0.403
Mof_O 	O 	0.4455	0.79844	0.40616	-0.426
Mof_O 	O 	0.4597	0.7375	0.0901	-0.374
Mof_O 	O 	0.40972	0.83466	0.09526	-0.397
Mof_O 	O 	0.42112	0.93935	0.18257	-0.392
Mof_O 	O 	0.4859	0.95237	0.2697	-0.361
Mof_O 	O 	0.55842	0.69936	0.289	-0.41
Mof_O 	O 	0.48717	0.64857	0.22194	-0.4
Mof_O 	O 	0.37839	0.81973	0.2222	-0.203
Mof_Cu	Cu	0.6391	0.15493	0.10641	0.932
Mof_Cu	Cu	0.55222	0.27044	0.00424	0.93
Mof_C 	C 	0.5313	0.3095	0.2062	-0.11
Mof_H 	H 	0.4916	0.333	0.1917	0.092
Mof_C 	C 	0.5833	0.3579	0.2319	-0.031
Mof_H 	H 	0.6119	0.3705	0.195	0.066
Mof_C 	C 	0.5818	0.2683	0.3066	-0.034
Mof_H 	H 	0.6046	0.2259	0.3016	0.081
Mof_C 	C 	0.5166	0.2664	0.2676	-0.098
Mof_H 	H 	0.4832	0.2894	0.294	0.082
Mof_C 	C 	0.5627	0.2717	0.1487	0.393
Mof_C 	C 	0.5559	0.4208	0.2631	0.333
Mof_C 	C 	0.5705	0.2818	0.3792	0.339
Mof_C 	C 	0.4894	0.1977	0.2512	0.387
Mof_O 	O 	0.59453	0.22074	0.1614	-0.403
Mof_O 	O 	0.5545	0.29844	0.09384	-0.426
Mof_O 	O 	0.5403	0.2375	0.4099	-0.374
Mof_O 	O 	0.59028	0.33466	0.40474	-0.396
Mof_O 	O 	0.57888	0.43935	0.31743	-0.391
Mof_O 	O 	0.5141	0.45237	0.2303	-0.36
Mof_O 	O 	0.44158	0.19936	0.211	-0.41
Mof_O 	O 	0.51283	0.14857	0.27806	-0.4
Mof_O 	O 	0.62161	0.31973	0.2778	-0.203
Mof_Cu	Cu	0.1391	0.34507	0.89359	0.931
Mof_Cu	Cu	0.05222	0.22956	0.99576	0.927
Mof_C 	C 	0.0313	0.1905	0.7938	-0.11
Mof_H 	H 	0.9916	0.167	0.8083	0.092
Mof_C 	C 	0.0833	0.1421	0.7681	-0.031
Mof_H 	H 	0.1119	0.1295	0.805	0.066
Mof_C 	C 	0.0818	0.2317	0.6934	-0.034
Mof_H 	H 	0.1046	0.2741	0.6984	0.081
Mof_C 	C 	0.0166	0.2336	0.7324	-0.097
Mof_H 	H 	0.9832	0.2106	0.706	0.082
Mof_C 	C 	0.0627	0.2283	0.8513	0.393
Mof_C 	C 	0.0559	0.0792	0.7369	0.334
Mof_C 	C 	0.0705	0.2182	0.6208	0.339
Mof_C 	C 	0.9894	0.3023	0.7488	0.388
Mof_O 	O 	0.09453	0.27926	0.8386	-0.403
Mof_O 	O 	0.0545	0.20156	0.90616	-0.427
Mof_O 	O 	0.0403	0.2625	0.5901	-0.373
Mof_O 	O 	0.09028	0.16534	0.59526	-0.396
Mof_O 	O 	0.07888	0.06065	0.68257	-0.39
Mof_O 	O 	0.0141	0.04763	0.7697	-0.36
Mof_O 	O 	0.94158	0.30064	0.789	-0.41
Mof_O 	O 	0.01283	0.35143	0.72194	-0.4
Mof_O 	O 	0.12161	0.18027	0.7222	-0.203
Mof_Cu	Cu	0.60641	0.8609	0.84507	0.932
Mof_Cu	Cu	0.50424	0.94778	0.72956	0.93
Mof_C 	C 	0.7062	0.9687	0.6905	-0.11
Mof_H 	H 	0.6917	0.0084	0.667	0.09
Mof_C 	C 	0.7319	0.9167	0.6421	-0.031
Mof_H 	H 	0.695	0.8881	0.6295	0.066
Mof_C 	C 	0.8066	0.9182	0.7317	-0.038
Mof_H 	H 	0.8016	0.8954	0.7741	0.083
Mof_C 	C 	0.7676	0.9834	0.7336	-0.086
Mof_H 	H 	0.794	0.0168	0.7106	0.076
Mof_C 	C 	0.6487	0.9373	0.7283	0.393
Mof_C 	C 	0.7631	0.9441	0.5792	0.334
Mof_C 	C 	0.8792	0.9295	0.7182	0.34
Mof_C 	C 	0.7512	0.0106	0.8023	0.375
Mof_O 	O 	0.6614	0.90547	0.77926	-0.403
Mof_O 	O 	0.59384	0.9455	0.70156	-0.425
Mof_O 	O 	0.9099	0.9597	0.7625	-0.371
Mof_O 	O 	0.90474	0.90972	0.66534	-0.395
Mof_O 	O 	0.81743	0.92112	0.56065	-0.39
Mof_O 	O 	0.7303	0.9859	0.54763	-0.359
Mof_O 	O 	0.711	0.05842	0.80064	-0.408
Mof_O 	O 	0.77806	0.98717	0.85143	-0.392
Mof_O 	O 	0.7778	0.87839	0.68027	-0.203
Mof_Cu	Cu	0.39359	0.3609	0.65493	0.932
Mof_Cu	Cu	0.49576	0.44778	0.77044	0.93
Mof_C 	C 	0.2938	0.4687	0.8095	-0.11
Mof_H 	H 	0.3083	0.5084	0.833	0.092
Mof_C 	C 	0.2681	0.4167	0.8579	-0.031
Mof_H 	H 	0.305	0.3881	0.8705	0.066
Mof_C 	C 	0.1934	0.4182	0.7683	-0.034
Mof_H 	H 	0.1984	0.3954	0.7259	0.082
Mof_C 	C 	0.2324	0.4834	0.7664	-0.098
Mof_H 	H 	0.206	0.5168	0.7894	0.082
Mof_C 	C 	0.3513	0.4373	0.7717	0.393
Mof_C 	C 	0.2369	0.4441	0.9208	0.334
Mof_C 	C 	0.1208	0.4295	0.7818	0.339
Mof_C 	C 	0.2488	0.5106	0.6977	0.387
Mof_O 	O 	0.3386	0.40547	0.72074	-0.403
Mof_O 	O 	0.40616	0.4455	0.79844	-0.426
Mof_O 	O 	0.0901	0.4597	0.7375	-0.374
Mof_O 	O 	0.09526	0.40972	0.83466	-0.397
Mof_O 	O 	0.18257	0.42112	0.93935	-0.392
Mof_O 	O 	0.2697	0.4859	0.95237	-0.361
Mof_O 	O 	0.289	0.55842	0.69936	-0.41
Mof_O 	O 	0.22194	0.48717	0.64857	-0.4
Mof_O 	O 	0.2222	0.37839	0.81973	-0.203
Mof_Cu	Cu	0.10641	0.6391	0.15493	0.932
Mof_Cu	Cu	0.00424	0.55222	0.27044	0.93
Mof_C 	C 	0.2062	0.5313	0.3095	-0.11
Mof_H 	H 	0.1917	0.4916	0.333	0.092
Mof_C 	C 	0.2319	0.5833	0.3579	-0.031
Mof_H 	H 	0.195	0.6119	0.3705	0.066
Mof_C 	C 	0.3066	0.5818	0.2683	-0.034
Mof_H 	H 	0.3016	0.6046	0.2259	0.081
Mof_C 	C 	0.2676	0.5166	0.2664	-0.098
Mof_H 	H 	0.294	0.4832	0.2894	0.082
Mof_C 	C 	0.1487	0.5627	0.2717	0.393
Mof_C 	C 	0.2631	0.5559	0.4208	0.333
Mof_C 	C 	0.3792	0.5705	0.2818	0.339
Mof_C 	C 	0.2512	0.4894	0.1977	0.387
Mof_O 	O 	0.1614	0.59453	0.22074	-0.403
Mof_O 	O 	0.09384	0.5545	0.29844	-0.426
Mof_O 	O 	0.4099	0.5403	0.2375	-0.374
Mof_O 	O 	0.40474	0.59028	0.33466	-0.396
Mof_O 	O 	0.31743	0.57888	0.43935	-0.391
Mof_O 	O 	0.2303	0.5141	0.45237	-0.36
Mof_O 	O 	0.211	0.44158	0.19936	-0.41
Mof_O 	O 	0.27806	0.51283	0.14857	-0.4
Mof_O 	O 	0.2778	0.62161	0.31973	-0.203
Mof_Cu	Cu	0.89359	0.1391	0.34507	0.931
Mof_Cu	Cu	0.99576	0.05222	0.22956	0.927
Mof_C 	C 	0.7938	0.0313	0.1905	-0.11
Mof_H 	H 	0.8083	0.9916	0.167	0.092
Mof_C 	C 	0.7681	0.0833	0.1421	-0.031
Mof_H 	H 	0.805	0.1119	0.1295	0.066
Mof_C 	C 	0.6934	0.0818	0.2317	-0.034
Mof_H 	H 	0.6984	0.1046	0.2741	0.081
Mof_C 	C 	0.7324	0.0166	0.2336	-0.097
Mof_H 	H 	0.706	0.9832	0.2106	0.082
Mof_C 	C 	0.8513	0.0627	0.2283	0.393
Mof_C 	C 	0.7369	0.0559	0.0792	0.334
Mof_C 	C 	0.6208	0.0705	0.2182	0.339
Mof_C 	C 	0.7488	0.9894	0.3023	0.388
Mof_O 	O 	0.8386	0.09453	0.27926	-0.403
Mof_O 	O 	0.90616	0.0545	0.20156	-0.427
Mof_O 	O 	0.5901	0.0403	0.2625	-0.373
Mof_O 	O 	0.59526	0.09028	0.16534	-0.396
Mof_O 	O 	0.68257	0.07888	0.06065	-0.39
Mof_O 	O 	0.7697	0.0141	0.04763	-0.36
Mof_O 	O 	0.789	0.94158	0.30064	-0.41
Mof_O 	O 	0.72194	0.01283	0.35143	-0.4
Mof_O 	O 	0.7222	0.12161	0.18027	-0.203
Mof_Cu	Cu	0.15493	0.39359	0.1391	0.932
Mof_Cu	Cu	0.27044	0.49576	0.05222	0.93
Mof_C 	C 	0.3095	0.2938	0.0313	-0.11
Mof_H 	H 	0.333	0.3083	0.9916	0.09
Mof_C 	C 	0.3579	0.2681	0.0833	-0.031
Mof_H 	H 	0.3705	0.305	0.1119	0.066
Mof_C 	C 	0.2683	0.1934	0.0818	-0.038
Mof_H 	H 	0.2259	0.1984	0.1046	0.083
Mof_C 	C 	0.2664	0.2324	0.0166	-0.086
Mof_H 	H 	0.2894	0.206	0.9832	0.076
Mof_C 	C 	0.2717	0.3513	0.0627	0.393
Mof_C 	C 	0.4208	0.2369	0.0559	0.334
Mof_C 	C 	0.2818	0.1208	0.0705	0.34
Mof_C 	C 	0.1977	0.2488	0.9894	0.375
Mof_O 	O 	0.22074	0.3386	0.09453	-0.403
Mof_O 	O 	0.29844	0.40616	0.0545	-0.425
Mof_O 	O 	0.2375	0.0901	0.0403	-0.371
Mof_O 	O 	0.33466	0.09526	0.09028	-0.395
Mof_O 	O 	0.43935	0.18257	0.07888	-0.39
Mof_O 	O 	0.45237	0.2697	0.0141	-0.359
Mof_O 	O 	0.19936	0.289	0.94158	-0.408
Mof_O 	O 	0.14857	0.22194	0.01283	-0.392
Mof_O 	O 	0.31973	0.2222	0.12161	-0.203
Mof_Cu	Cu	0.34507	0.60641	0.6391	0.932
Mof_Cu	Cu	0.22956	0.50424	0.55222	0.93
Mof_C 	C 	0.1905	0.7062	0.5313	-0.11
Mof_H 	H 	0.167	0.6917	0.4916	0.092
Mof_C 	C 	0.1421	0.7319	0.5833	-0.031
Mof_H 	H 	0.1295	0.695	0.6119	0.066
Mof_C 	C 	0.2317	0.8066	0.5818	-0.034
Mof_H 	H 	0.2741	0.8016	0.6046	0.082
Mof_C 	C 	0.2336	0.7676	0.5166	-0.098
Mof_H 	H 	0.2106	0.794	0.4832	0.082
Mof_C 	C 	0.2283	0.6487	0.5627	0.393
Mof_C 	C 	0.0792	0.7631	0.5559	0.334
Mof_C 	C 	0.2182	0.8792	0.5705	0.339
Mof_C 	C 	0.3023	0.7512	0.4894	0.387
Mof_O 	O 	0.27926	0.6614	0.59453	-0.403
Mof_O 	O 	0.20156	0.59384	0.5545	-0.426
Mof_O 	O 	0.2625	0.9099	0.5403	-0.374
Mof_O 	O 	0.16534	0.90474	0.59028	-0.397
Mof_O 	O 	0.06065	0.81743	0.57888	-0.392
Mof_O 	O 	0.04763	0.7303	0.5141	-0.361
Mof_O 	O 	0.30064	0.711	0.44158	-0.41
Mof_O 	O 	0.35143	0.77806	0.51283	-0.4
Mof_O 	O 	0.18027	0.7778	0.62161	-0.203
Mof_Cu	Cu	0.84507	0.89359	0.3609	0.932
Mof_Cu	Cu	0.72956	0.99576	0.44778	0.93
Mof_C 	C 	0.6905	0.7938	0.4687	-0.11
Mof_H 	H 	0.667	0.8083	0.5084	0.092
Mof_C 	C 	0.6421	0.7681	0.4167	-0.031
Mof_H 	H 	0.6295	0.805	0.3881	0.066
Mof_C 	C 	0.7317	0.6934	0.4182	-0.034
Mof_H 	H 	0.7741	0.6984	0.3954	0.081
Mof_C 	C 	0.7336	0.7324	0.4834	-0.098
Mof_H 	H 	0.7106	0.706	0.5168	0.082
Mof_C 	C 	0.7283	0.8513	0.4373	0.393
Mof_C 	C 	0.5792	0.7369	0.4441	0.333
Mof_C 	C 	0.7182	0.6208	0.4295	0.339
Mof_C 	C 	0.8023	0.7488	0.5106	0.387
Mof_O 	O 	0.77926	0.8386	0.40547	-0.403
Mof_O 	O 	0.70156	0.90616	0.4455	-0.426
Mof_O 	O 	0.7625	0.5901	0.4597	-0.374
Mof_O 	O 	0.66534	0.59526	0.40972	-0.396
Mof_O 	O 	0.56065	0.68257	0.42112	-0.391
Mof_O 	O 	0.54763	0.7697	0.4859	-0.36
Mof_O 	O 	0.80064	0.789	0.55842	-0.41
Mof_O 	O 	0.85143	0.72194	0.48717	-0.4
Mof_O 	O 	0.68027	0.7222	0.37839	-0.203
Mof_Cu	Cu	0.65493	0.10641	0.8609	0.931
Mof_Cu	Cu	0.77044	0.00424	0.94778	0.927
Mof_C 	C 	0.8095	0.2062	0.9687	-0.11
Mof_H 	H 	0.833	0.1917	0.0084	0.092
Mof_C 	C 	0.8579	0.2319	0.9167	-0.031
Mof_H 	H 	0.8705	0.195	0.8881	0.066
Mof_C 	C 	0.7683	0.3066	0.9182	-0.034
Mof_H 	H 	0.7259	0.3016	0.8954	0.081
Mof_C 	C 	0.7664	0.2676	0.9834	-0.097
Mof_H 	H 	0.7894	0.294	0.0168	0.082
Mof_C 	C 	0.7717	0.1487	0.9373	0.393
Mof_C 	C 	0.9208	0.2631	0.9441	0.334
Mof_C 	C 	0.7818	0.3792	0.9295	0.339
Mof_C 	C 	0.6977	0.2512	0.0106	0.388
Mof_O 	O 	0.72074	0.1614	0.90547	-0.403
Mof_O 	O 	0.79844	0.09384	0.9455	-0.427
Mof_O 	O 	0.7375	0.4099	0.9597	-0.373
Mof_O 	O 	0.83466	0.40474	0.90972	-0.396
Mof_O 	O 	0.93935	0.31743	0.92112	-0.39
Mof_O 	O 	0.95237	0.2303	0.9859	-0.36
Mof_O 	O 	0.69936	0.211	0.05842	-0.41
Mof_O 	O 	0.64857	0.27806	0.98717	-0.4
Mof_O 	O 	0.81973	0.2778	0.87839	-0.203
Mof_Cu	Cu	0.1391	0.15493	0.39359	0.932
Mof_Cu	Cu	0.05222	0.27044	0.49576	0.93
Mof_C 	C 	0.0313	0.3095	0.2938	-0.11
Mof_H 	H 	0.9916	0.333	0.3083	0.09
Mof_C 	C 	0.0833	0.3579	0.2681	-0.031
Mof_H 	H 	0.1119	0.3705	0.305	0.066
Mof_C 	C 	0.0818	0.2683	0.1934	-0.038
Mof_H 	H 	0.1046	0.2259	0.1984	0.083
Mof_C 	C 	0.0166	0.2664	0.2324	-0.086
Mof_H 	H 	0.9832	0.2894	0.206	0.076
Mof_C 	C 	0.0627	0.2717	0.3513	0.393
Mof_C 	C 	0.0559	0.4208	0.2369	0.334
Mof_C 	C 	0.0705	0.2818	0.1208	0.34
Mof_C 	C 	0.9894	0.1977	0.2488	0.375
Mof_O 	O 	0.09453	0.22074	0.3386	-0.403
Mof_O 	O 	0.0545	0.29844	0.40616	-0.425
Mof_O 	O 	0.0403	0.2375	0.0901	-0.371
Mof_O 	O 	0.09028	0.33466	0.09526	-0.395
Mof_O 	O 	0.07888	0.43935	0.18257	-0.39
Mof_O 	O 	0.0141	0.45237	0.2697	-0.359
Mof_O 	O 	0.94158	0.19936	0.289	-0.408
Mof_O 	O 	0.01283	0.14857	0.22194	-0.392
Mof_O 	O 	0.12161	0.31973	0.2222	-0.203
Mof_Cu	Cu	0.6391	0.34507	0.60641	0.932
Mof_Cu	Cu	0.55222	0.22956	0.50424	0.93
Mof_C 	C 	0.5313	0.1905	0.7062	-0.11
Mof_H 	H 	0.4916	0.167	0.6917	0.092
Mof_C 	C 	0.5833	0.1421	0.7319	-0.031
Mof_H 	H 	0.6119	0.1295	0.695	0.066
Mof_C 	C 	0.5818	0.2317	0.8066	-0.034
Mof_H 	H 	0.6046	0.2741	0.8016	0.082
Mof_C 	C 	0.5166	0.2336	0.7676	-0.098
Mof_H 	H 	0.4832	0.2106	0.794	0.082
Mof_C 	C 	0.5627	0.2283	0.6487	0.393
Mof_C 	C 	0.5559	0.0792	0.7631	0.334
Mof_C 	C 	0.5705	0.2182	0.8792	0.339
Mof_C 	C 	0.4894	0.3023	0.7512	0.387
Mof_O 	O 	0.59453	0.27926	0.6614	-0.403
Mof_O 	O 	0.5545	0.20156	0.59384	-0.426
Mof_O 	O 	0.5403	0.2625	0.9099	-0.374
Mof_O 	O 	0.59028	0.16534	0.90474	-0.397
Mof_O 	O 	0.57888	0.06065	0.81743	-0.392
Mof_O 	O 	0.5141	0.04763	0.7303	-0.361
Mof_O 	O 	0.44158	0.30064	0.711	-0.41
Mof_O 	O 	0.51283	0.35143	0.77806	-0.4
Mof_O 	O 	0.62161	0.18027	0.7778	-0.203
Mof_Cu	Cu	0.3609	0.84507	0.89359	0.932
Mof_Cu	Cu	0.44778	0.72956	0.99576	0.93
Mof_C 	C 	0.4687	0.6905	0.7938	-0.11
Mof_H 	H 	0.5084	0.667	0.8083	0.092
Mof_C 	C 	0.4167	0.6421	0.7681	-0.031
Mof_H 	H 	0.3881	0.6295	0.805	0.066
Mof_C 	C 	0.4182	0.7317	0.6934	-0.034
Mof_H 	H 	0.3954	0.7741	0.6984	0.081
Mof_C 	C 	0.4834	0.7336	0.7324	-0.098
Mof_H 	H 	0.5168	0.7106	0.706	0.082
Mof_C 	C 	0.4373	0.7283	0.8513	0.393
Mof_C 	C 	0.4441	0.5792	0.7369	0.333
Mof_C 	C 	0.4295	0.7182	0.6208	0.339
Mof_C 	C 	0.5106	0.8023	0.7488	0.387
Mof_O 	O 	0.40547	0.77926	0.8386	-0.403
Mof_O 	O 	0.4455	0.70156	0.90616	-0.426
Mof_O 	O 	0.4597	0.7625	0.5901	-0.374
Mof_O 	O 	0.40972	0.66534	0.59526	-0.396
Mof_O 	O 	0.42112	0.56065	0.68257	-0.391
Mof_O 	O 	0.4859	0.54763	0.7697	-0.36
Mof_O 	O 	0.55842	0.80064	0.789	-0.41
Mof_O 	O 	0.48717	0.85143	0.72194	-0.4
Mof_O 	O 	0.37839	0.68027	0.7222	-0.203
Mof_Cu	Cu	0.8609	0.65493	0.10641	0.931
Mof_Cu	Cu	0.94778	0.77044	0.00424	0.927
Mof_C 	C 	0.9687	0.8095	0.2062	-0.11
Mof_H 	H 	0.0084	0.833	0.1917	0.092
Mof_C 	C 	0.9167	0.8579	0.2319	-0.031
Mof_H 	H 	0.8881	0.8705	0.195	0.066
Mof_C 	C 	0.9182	0.7683	0.3066	-0.034
Mof_H 	H 	0.8954	0.7259	0.3016	0.081
Mof_C 	C 	0.9834	0.7664	0.2676	-0.097
Mof_H 	H 	0.0168	0.7894	0.294	0.082
Mof_C 	C 	0.9373	0.7717	0.1487	0.393
Mof_C 	C 	0.9441	0.9208	0.2631	0.334
Mof_C 	C 	0.9295	0.7818	0.3792	0.339
Mof_C 	C 	0.0106	0.6977	0.2512	0.388
Mof_O 	O 	0.90547	0.72074	0.1614	-0.403
Mof_O 	O 	0.9455	0.79844	0.09384	-0.427
Mof_O 	O 	0.9597	0.7375	0.4099	-0.373
Mof_O 	O 	0.90972	0.83466	0.40474	-0.396
Mof_O 	O 	0.92112	0.93935	0.31743	-0.39
Mof_O 	O 	0.9859	0.95237	0.2303	-0.36
Mof_O 	O 	0.05842	0.69936	0.211	-0.41
Mof_O 	O 	0.98717	0.64857	0.27806	-0.4
Mof_O 	O 	0.87839	0.81973	0.2778	-0.203
Mof_Cu	Cu	0.39359	0.1391	0.15493	0.932
Mof_Cu	Cu	0.49576	0.05222	0.27044	0.93
Mof_C 	C 	0.2938	0.0313	0.3095	-0.11
Mof_H 	H 	0.3083	0.9916	0.333	0.09
Mof_C 	C 	0.2681	0.0833	0.3579	-0.031
Mof_H 	H 	0.305	0.1119	0.3705	0.066
Mof_C 	C 	0.1934	0.0818	0.2683	-0.038
Mof_H 	H 	0.1984	0.1046	0.2259	0.083
Mof_C 	C 	0.2324	0.0166	0.2664	-0.086
Mof_H 	H 	0.206	0.9832	0.2894	0.076
Mof_C 	C 	0.3513	0.0627	0.2717	0.393
Mof_C 	C 	0.2369	0.0559	0.4208	0.334
Mof_C 	C 	0.1208	0.0705	0.2818	0.34
Mof_C 	C 	0.2488	0.9894	0.1977	0.375
Mof_O 	O 	0.3386	0.09453	0.22074	-0.403
Mof_O 	O 	0.40616	0.0545	0.29844	-0.425
Mof_O 	O 	0.0901	0.0403	0.2375	-0.371
Mof_O 	O 	0.09526	0.09028	0.33466	-0.395
Mof_O 	O 	0.18257	0.07888	0.43935	-0.39
Mof_O 	O 	0.2697	0.0141	0.45237	-0.359
Mof_O 	O 	0.289	0.94158	0.19936	-0.408
Mof_O 	O 	0.22194	0.01283	0.14857	-0.392
Mof_O 	O 	0.2222	0.12161	0.31973	-0.203
Mof_Cu	Cu	0.60641	0.6391	0.34507	0.932
Mof_Cu	Cu	0.50424	0.55222	0.22956	0.93
Mof_C 	C 	0.7062	0.5313	0.1905	-0.11
Mof_H 	H 	0.6917	0.4916	0.167	0.092
Mof_C 	C 	0.7319	0.5833	0.1421	-0.031
Mof_H 	H 	0.695	0.6119	0.1295	0.066
Mof_C 	C 	0.8066	0.5818	0.2317	-0.034
Mof_H 	H 	0.8016	0.6046	0.2741	0.082
Mof_C 	C 	0.7676	0.5166	0.2336	-0.098
Mof_H 	H 	0.794	0.4832	0.2106	0.082
Mof_C 	C 	0.6487	0.5627	0.2283	0.393
Mof_C 	C 	0.7631	0.5559	0.0792	0.334
Mof_C 	C 	0.8792	0.5705	0.2182	0.339
Mof_C 	C 	0.7512	0.4894	0.3023	0.387
Mof_O 	O 	0.6614	0.59453	0.27926	-0.403
Mof_O 	O 	0.59384	0.5545	0.20156	-0.426
Mof_O 	O 	0.9099	0.5403	0.2625	-0.374
Mof_O 	O 	0.90474	0.59028	0.16534	-0.397
Mof_O 	O 	0.81743	0.57888	0.06065	-0.392
Mof_O 	O 	0.7303	0.5141	0.04763	-0.361
Mof_O 	O 	0.711	0.44158	0.30064	-0.41
Mof_O 	O 	0.77806	0.51283	0.35143	-0.4
Mof_O 	O 	0.7778	0.62161	0.18027	-0.203
Mof_Cu	Cu	0.89359	0.3609	0.84507	0.932
Mof_Cu	Cu	0.99576	0.44778	0.72956	0.93
Mof_C 	C 	0.7938	0.4687	0.6905	-0.11
Mof_H 	H 	0.8083	0.5084	0.667	0.092
Mof_C 	C 	0.7681	0.4167	0.6421	-0.031
Mof_H 	H 	0.805	0.3881	0.6295	0.066
Mof_C 	C 	0.6934	0.4182	0.7317	-0.034
Mof_H 	H 	0.6984	0.3954	0.7741	0.081
Mof_C 	C 	0.7324	0.4834	0.7336	-0.098
Mof_H 	H 	0.706	0.5168	0.7106	0.082
Mof_C 	C 	0.8513	0.4373	0.7283	0.393
Mof_C 	C 	0.7369	0.4441	0.5792	0.333
Mof_C 	C 	0.6208	0.4295	0.7182	0.339
Mof_C 	C 	0.7488	0.5106	0.8023	0.387
Mof_O 	O 	0.8386	0.40547	0.77926	-0.403
Mof_O 	O 	0.90616	0.4455	0.70156	-0.426
Mof_O 	O 	0.5901	0.4597	0.7625	-0.374
Mof_O 	O 	0.59526	0.40972	0.66534	-0.396
Mof_O 	O 	0.68257	0.42112	0.56065	-0.391
Mof_O 	O 	0.7697	0.4859	0.54763	-0.36
Mof_O 	O 	0.789	0.55842	0.80064	-0.41
Mof_O 	O 	0.72194	0.48717	0.85143	-0.4
Mof_O 	O 	0.7222	0.37839	0.68027	-0.203
Mof_Cu	Cu	0.10641	0.8609	0.65493	0.931
Mof_Cu	Cu	0.00424	0.94778	0.77044	0.927
Mof_C 	C 	0.2062	0.9687	0.8095	-0.11
Mof_H 	H 	0.1917	0.0084	0.833	0.092
Mof_C 	C 	0.2319	0.9167	0.8579	-0.031
Mof_H 	H 	0.195	0.8881	0.8705	0.066
Mof_C 	C 	0.3066	0.9182	0.7683	-0.034
Mof_H 	H 	0.3016	0.8954	0.7259	0.081
Mof_C 	C 	0.2676	0.9834	0.7664	-0.097
Mof_H 	H 	0.294	0.0168	0.7894	0.082
Mof_C 	C 	0.1487	0.9373	0.7717	0.393
Mof_C 	C 	0.2631	0.9441	0.9208	0.334
Mof_C 	C 	0.3792	0.9295	0.7818	0.339
Mof_C 	C 	0.2512	0.0106	0.6977	0.388
Mof_O 	O 	0.1614	0.90547	0.72074	-0.403
Mof_O 	O 	0.09384	0.9455	0.79844	-0.427
Mof_O 	O 	0.4099	0.9597	0.7375	-0.373
Mof_O 	O 	0.40474	0.90972	0.83466	-0.396
Mof_O 	O 	0.31743	0.92112	0.93935	-0.39
Mof_O 	O 	0.2303	0.9859	0.95237	-0.36
Mof_O 	O 	0.211	0.05842	0.69936	-0.41
Mof_O 	O 	0.27806	0.98717	0.64857	-0.4
Mof_O 	O 	0.2778	0.87839	0.81973	-0.203
_end
