data_functionalizedCrystal
_audit_creation_method	'EQeq! by Chris Wilmer'
_symmetry_space_group_name_H-M	'P1'
_symmetry_Int_Tables_number	1
_symmetry_cell_setting	triclinic
loop_
_symmetry_equiv_pos_as_xyz
  x,y,z
_cell_length_a	18.659
_cell_length_b	11.251
_cell_length_c	10.015
_cell_angle_alpha	90
_cell_angle_beta	114.12
_cell_angle_gamma	90
loop_
_atom_site_label
_atom_site_type_symbol
_atom_site_fract_x
_atom_site_fract_y
_atom_site_fract_z
_atom_site_charge
Mof_O 	O 	0.10095	0.414	0.19997	-0.477
Mof_O 	O 	0.09261	0.47046	0.40521	-0.476
Mof_O 	O 	0.19015	0.24307	0.19885	-0.461
Mof_C 	C 	0.12253	0.41083	0.33738	0.424
Mof_C 	C 	0.18939	0.32822	0.4203	-0.179
Mof_C 	C 	0.21849	0.24807	0.34712	0.214
Mof_C 	C 	0.22147	0.32906	0.57221	-0.093
Mof_H 	H 	0.2023	0.3823	0.6207	0.077
Mof_H 	H 	0.1588	0.3	0.168	0.25
Mof_O 	O 	0.60095	0.914	0.19997	-0.384
Mof_O 	O 	0.59261	0.97046	0.40521	-0.373
Mof_O 	O 	0.69015	0.74307	0.19885	-0.411
Mof_C 	C 	0.62253	0.91083	0.33738	0.412
Mof_C 	C 	0.68939	0.82822	0.4203	-0.137
Mof_C 	C 	0.71849	0.74807	0.34712	0.232
Mof_C 	C 	0.72147	0.82906	0.57221	-0.087
Mof_H 	H 	0.7023	0.8823	0.6207	0.118
Mof_H 	H 	0.6588	0.8	0.168	0.269
Mof_O 	O 	0.89905	0.414	0.30003	-0.424
Mof_O 	O 	0.90739	0.47046	0.09479	-0.419
Mof_O 	O 	0.80985	0.24307	0.30115	-0.462
Mof_C 	C 	0.87747	0.41083	0.16262	0.463
Mof_C 	C 	0.81061	0.32822	0.0797	-0.32
Mof_C 	C 	0.78151	0.24807	0.15288	0.326
Mof_C 	C 	0.77853	0.32906	0.92779	0.106
Mof_H 	H 	0.7977	0.3823	0.8793	0.038
Mof_H 	H 	0.8412	0.3	0.332	0.281
Mof_O 	O 	0.39905	0.914	0.30003	-0.402
Mof_O 	O 	0.40739	0.97046	0.09479	-0.397
Mof_O 	O 	0.30985	0.74307	0.30115	-0.441
Mof_C 	C 	0.37747	0.91083	0.16262	0.453
Mof_C 	C 	0.31061	0.82822	0.0797	-0.299
Mof_C 	C 	0.28151	0.74807	0.15288	0.328
Mof_C 	C 	0.27853	0.82906	0.92779	0.097
Mof_H 	H 	0.2977	0.8823	0.8793	0.064
Mof_H 	H 	0.3412	0.8	0.332	0.288
Mof_O 	O 	0.89905	0.586	0.80003	-0.36
Mof_O 	O 	0.90739	0.52954	0.59479	-0.392
Mof_O 	O 	0.80985	0.75693	0.80115	-0.363
Mof_C 	C 	0.87747	0.58917	0.66262	0.417
Mof_C 	C 	0.81061	0.67178	0.5797	-0.144
Mof_C 	C 	0.78151	0.75193	0.65288	0.243
Mof_C 	C 	0.77853	0.67094	0.42779	-0.083
Mof_H 	H 	0.7977	0.6177	0.3793	0.085
Mof_H 	H 	0.8412	0.7	0.832	0.277
Mof_O 	O 	0.39905	0.086	0.80003	-0.437
Mof_O 	O 	0.40739	0.02954	0.59479	-0.483
Mof_O 	O 	0.30985	0.25693	0.80115	-0.409
Mof_C 	C 	0.37747	0.08917	0.66262	0.422
Mof_C 	C 	0.31061	0.17178	0.5797	-0.182
Mof_C 	C 	0.28151	0.25193	0.65288	0.223
Mof_C 	C 	0.27853	0.17094	0.42779	-0.094
Mof_H 	H 	0.2977	0.1177	0.3793	0.044
Mof_H 	H 	0.3412	0.2	0.832	0.259
Mof_O 	O 	0.10095	0.586	0.69997	-0.447
Mof_O 	O 	0.09261	0.52954	0.90521	-0.41
Mof_O 	O 	0.19015	0.75693	0.69885	-0.361
Mof_C 	C 	0.12253	0.58917	0.83738	0.374
Mof_C 	C 	0.18939	0.67178	0.9203	-0.002
Mof_C 	C 	0.21849	0.75193	0.84712	0.136
Mof_C 	C 	0.22147	0.67094	0.07221	-0.282
Mof_H 	H 	0.2023	0.6177	0.1207	0.128
Mof_H 	H 	0.1588	0.7	0.668	0.242
Mof_O 	O 	0.60095	0.086	0.69997	-0.459
Mof_O 	O 	0.59261	0.02954	0.90521	-0.419
Mof_O 	O 	0.69015	0.25693	0.69885	-0.378
Mof_C 	C 	0.62253	0.08917	0.83738	0.376
Mof_C 	C 	0.68939	0.17178	0.9203	-0.009
Mof_C 	C 	0.71849	0.25193	0.84712	0.124
Mof_C 	C 	0.72147	0.17094	0.07221	-0.288
Mof_H 	H 	0.7023	0.1177	0.1207	0.106
Mof_H 	H 	0.6588	0.2	0.668	0.235
Mof_Ca	Ca	-0	0.5	-0	0.973
Mof_Ca	Ca	0.5	0	-0	0.943
Mof_Ca	Ca	1.48114e-17	0.5	0.5	1.11
Mof_Ca	Ca	0.5	6.57758e-33	0.5	1.087
_end
