data_functionalizedCrystal
_audit_creation_method	'EQeq! by Chris Wilmer'
_symmetry_space_group_name_H-M	'P1'
_symmetry_Int_Tables_number	1
_symmetry_cell_setting	triclinic
loop_
_symmetry_equiv_pos_as_xyz
  x,y,z
_cell_length_a	10.8894
_cell_length_b	10.8894
_cell_length_c	19.6803
_cell_angle_alpha	75.7156
_cell_angle_beta	75.7156
_cell_angle_gamma	64.6726
loop_
_atom_site_label
_atom_site_type_symbol
_atom_site_fract_x
_atom_site_fract_y
_atom_site_fract_z
_atom_site_charge
Mof_Er	Er	0.59459	0.25507	0.0833	1.686
Mof_Er	Er	0.74493	0.40541	0.4167	1.686
Mof_Er	Er	0.40541	0.74493	0.9167	1.686
Mof_Er	Er	0.25507	0.59459	0.5833	1.686
Mof_H 	H 	0.2015	0.3119	0.2755	0.036
Mof_H 	H 	0.1694	0.4008	0.4668	0.025
Mof_H 	H 	0.5194	0.344	0.3275	0.018
Mof_H 	H 	0.6881	0.7985	0.2245	0.036
Mof_H 	H 	0.5992	0.8306	0.0332	0.025
Mof_H 	H 	0.656	0.4806	0.1725	0.019
Mof_H 	H 	0.7985	0.6881	0.7245	0.036
Mof_H 	H 	0.8306	0.5992	0.5332	0.025
Mof_H 	H 	0.4806	0.656	0.6725	0.018
Mof_H 	H 	0.3119	0.2015	0.7755	0.036
Mof_H 	H 	0.4008	0.1694	0.9668	0.025
Mof_H 	H 	0.344	0.5194	0.8275	0.019
Mof_C 	C 	0.4534	0.2982	0.2173	0.334
Mof_C 	C 	0.017	0.3682	0.3915	0.353
Mof_C 	C 	0.4155	0.4067	0.4564	0.47
Mof_C 	C 	0.3736	0.3212	0.2897	-0.128
Mof_C 	C 	0.2405	0.3271	0.308	0.062
Mof_C 	C 	0.1641	0.3553	0.374	-0.139
Mof_C 	C 	0.2207	0.3807	0.4226	0.083
Mof_C 	C 	0.3539	0.3761	0.4049	-0.19
Mof_C 	C 	0.4302	0.3468	0.3392	0.083
Mof_C 	C 	0.7018	0.5466	0.2827	0.334
Mof_C 	C 	0.6318	0.983	0.1085	0.348
Mof_C 	C 	0.5933	0.5845	0.0436	0.469
Mof_C 	C 	0.6788	0.6264	0.2103	-0.128
Mof_C 	C 	0.6729	0.7595	0.192	0.061
Mof_C 	C 	0.6447	0.8359	0.126	-0.137
Mof_C 	C 	0.6193	0.7793	0.0774	0.082
Mof_C 	C 	0.6239	0.6461	0.0951	-0.19
Mof_C 	C 	0.6532	0.5698	0.1608	0.082
Mof_C 	C 	0.5466	0.7018	0.7827	0.334
Mof_C 	C 	0.983	0.6318	0.6085	0.353
Mof_C 	C 	0.5845	0.5933	0.5436	0.47
Mof_C 	C 	0.6264	0.6788	0.7103	-0.128
Mof_C 	C 	0.7595	0.6729	0.692	0.062
Mof_C 	C 	0.8359	0.6447	0.626	-0.139
Mof_C 	C 	0.7793	0.6193	0.5774	0.083
Mof_C 	C 	0.6461	0.6239	0.5951	-0.19
Mof_C 	C 	0.5698	0.6532	0.6608	0.083
Mof_C 	C 	0.2982	0.4534	0.7173	0.334
Mof_C 	C 	0.3682	0.017	0.8915	0.348
Mof_C 	C 	0.4067	0.4155	0.9564	0.469
Mof_C 	C 	0.3212	0.3736	0.7897	-0.128
Mof_C 	C 	0.3271	0.2405	0.808	0.061
Mof_C 	C 	0.3553	0.1641	0.874	-0.137
Mof_C 	C 	0.3807	0.2207	0.9226	0.082
Mof_C 	C 	0.3761	0.3539	0.9049	-0.19
Mof_C 	C 	0.3468	0.4302	0.8392	0.082
Mof_O 	O 	0.395	0.2934	0.1703	-0.397
Mof_O 	O 	0.577	0.2834	0.2036	-0.4
Mof_O 	O 	0.9715	0.3327	0.3503	-0.432
Mof_O 	O 	0.9419	0.4105	0.4459	-0.438
Mof_O 	O 	0.3506	0.4178	0.5184	-0.487
Mof_O 	O 	0.5285	0.4199	0.4341	-0.539
Mof_O 	O 	0.7066	0.605	0.3297	-0.397
Mof_O 	O 	0.7166	0.423	0.2964	-0.4
Mof_O 	O 	0.6673	0.0285	0.1497	-0.43
Mof_O 	O 	0.5895	0.0581	0.0541	-0.435
Mof_O 	O 	0.5822	0.6494	0.9816	-0.486
Mof_O 	O 	0.5801	0.4715	0.0659	-0.539
Mof_O 	O 	0.605	0.7066	0.8297	-0.397
Mof_O 	O 	0.423	0.7166	0.7964	-0.4
Mof_O 	O 	0.0285	0.6673	0.6497	-0.432
Mof_O 	O 	0.0581	0.5895	0.5541	-0.438
Mof_O 	O 	0.6494	0.5822	0.4816	-0.487
Mof_O 	O 	0.4715	0.5801	0.5659	-0.539
Mof_O 	O 	0.2934	0.395	0.6703	-0.397
Mof_O 	O 	0.2834	0.577	0.7036	-0.4
Mof_O 	O 	0.3327	0.9715	0.8503	-0.43
Mof_O 	O 	0.4105	0.9419	0.9459	-0.435
Mof_O 	O 	0.4178	0.3506	0.0184	-0.486
Mof_O 	O 	0.4199	0.5285	0.9341	-0.539
_end
