data_functionalizedCrystal
_audit_creation_method	'EQeq! by Chris Wilmer'
_symmetry_space_group_name_H-M	'P1'
_symmetry_Int_Tables_number	1
_symmetry_cell_setting	triclinic
loop_
_symmetry_equiv_pos_as_xyz
  x,y,z
_cell_length_a	16.419
_cell_length_b	17.088
_cell_length_c	12.113
_cell_angle_alpha	90
_cell_angle_beta	95.107
_cell_angle_gamma	90
loop_
_atom_site_label
_atom_site_type_symbol
_atom_site_fract_x
_atom_site_fract_y
_atom_site_fract_z
_atom_site_charge
Mof_Co	Co	0.38328	0.1457	0.06142	1.129
Mof_N 	N 	0.2527	0.1475	0.0293	-0.414
Mof_N 	N 	0.1433	0.2319	0.9697	-0.415
Mof_N 	N 	0.511	0.1646	0.104	-0.51
Mof_N 	N 	0.6095	0.1648	0.2597	-0.518
Mof_N 	N 	0.3869	0.0284	0.1065	-0.296
Mof_N 	N 	0.4	0.9037	0.2015	-0.194
Mof_N 	N 	0.3979	0.8743	0.398	-0.294
Mof_C 	C 	0.2199	0.2152	0.9999	0.869
Mof_H 	H 	0.2428	0.2414	0.9987	-0.439
Mof_C 	C 	0.2007	0.0872	0.0275	0.149
Mof_H 	H 	0.2203	0.0377	0.0475	-0.043
Mof_C 	C 	0.1189	0.097	0.9967	-0.268
Mof_H 	H 	0.0828	0.0551	0.9958	0.108
Mof_C 	C 	0.092	0.1711	0.9672	0.147
Mof_H 	H 	0.0369	0.179	0.945	-0.052
Mof_C 	C 	0.5347	0.1648	0.2117	1.386
Mof_H 	H 	0.4916	0.1652	0.2604	-0.725
Mof_C 	C 	0.6694	0.1636	0.1916	0.17
Mof_H 	H 	0.7236	0.1625	0.2212	-0.056
Mof_C 	C 	0.6518	0.1641	0.0778	-0.307
Mof_H 	H 	0.6934	0.1635	0.0305	0.126
Mof_C 	C 	0.5712	0.1655	0.0365	0.168
Mof_H 	H 	0.5582	0.1671	0.9602	-0.038
Mof_C 	C 	0.3928	0.9718	0.1569	0.151
Mof_C 	C 	0.397	0.8918	0.3064	0.158
Mof_Co	Co	0.88328	0.6457	0.06142	1.13
Mof_N 	N 	0.7527	0.6475	0.0293	-0.414
Mof_N 	N 	0.6433	0.7319	0.9697	-0.414
Mof_N 	N 	0.011	0.6646	0.104	-0.51
Mof_N 	N 	0.1095	0.6648	0.2597	-0.518
Mof_N 	N 	0.8869	0.5284	0.1065	-0.295
Mof_N 	N 	0.9	0.4037	0.2015	-0.193
Mof_N 	N 	0.8979	0.3743	0.398	-0.293
Mof_C 	C 	0.7199	0.7152	0.9999	0.872
Mof_H 	H 	0.7428	0.7414	0.9987	-0.439
Mof_C 	C 	0.7007	0.5872	0.0275	0.146
Mof_H 	H 	0.7203	0.5377	0.0475	-0.042
Mof_C 	C 	0.6189	0.597	0.9967	-0.265
Mof_H 	H 	0.5828	0.5551	0.9958	0.107
Mof_C 	C 	0.592	0.6711	0.9672	0.146
Mof_H 	H 	0.5369	0.679	0.945	-0.051
Mof_C 	C 	0.0347	0.6648	0.2117	1.391
Mof_H 	H 	0.9916	0.6652	0.2604	-0.726
Mof_C 	C 	0.1694	0.6636	0.1916	0.172
Mof_H 	H 	0.2236	0.6625	0.2212	-0.057
Mof_C 	C 	0.1518	0.6641	0.0778	-0.31
Mof_H 	H 	0.1934	0.6635	0.0305	0.127
Mof_C 	C 	0.0712	0.6655	0.0365	0.173
Mof_H 	H 	0.0582	0.6671	0.9602	-0.041
Mof_C 	C 	0.8928	0.4718	0.1569	0.15
Mof_C 	C 	0.897	0.3918	0.3064	0.158
Mof_Co	Co	0.61672	0.1457	0.43858	1.13
Mof_N 	N 	0.7473	0.1475	0.4707	-0.413
Mof_N 	N 	0.8567	0.2319	0.5303	-0.413
Mof_N 	N 	0.489	0.1646	0.396	-0.509
Mof_N 	N 	0.3905	0.1648	0.2403	-0.517
Mof_N 	N 	0.6131	0.0284	0.3935	-0.295
Mof_N 	N 	0.6	0.9037	0.2985	-0.193
Mof_N 	N 	0.6021	0.8743	0.102	-0.293
Mof_C 	C 	0.7801	0.2152	0.5001	0.868
Mof_H 	H 	0.7572	0.2414	0.5013	-0.438
Mof_C 	C 	0.7993	0.0872	0.4725	0.146
Mof_H 	H 	0.7797	0.0377	0.4525	-0.042
Mof_C 	C 	0.8811	0.097	0.5033	-0.266
Mof_H 	H 	0.9172	0.0551	0.5042	0.107
Mof_C 	C 	0.908	0.1711	0.5328	0.146
Mof_H 	H 	0.9631	0.179	0.555	-0.051
Mof_C 	C 	0.4653	0.1648	0.2883	1.386
Mof_H 	H 	0.5084	0.1652	0.2396	-0.725
Mof_C 	C 	0.3306	0.1636	0.3084	0.171
Mof_H 	H 	0.2764	0.1625	0.2788	-0.056
Mof_C 	C 	0.3482	0.1641	0.4222	-0.307
Mof_H 	H 	0.3066	0.1635	0.4695	0.126
Mof_C 	C 	0.4288	0.1655	0.4635	0.169
Mof_H 	H 	0.4418	0.1671	0.5398	-0.039
Mof_C 	C 	0.6072	0.9718	0.3431	0.15
Mof_C 	C 	0.603	0.8918	0.1936	0.158
Mof_Co	Co	0.11672	0.6457	0.43858	1.13
Mof_N 	N 	0.2473	0.6475	0.4707	-0.413
Mof_N 	N 	0.3567	0.7319	0.5303	-0.413
Mof_N 	N 	0.989	0.6646	0.396	-0.51
Mof_N 	N 	0.8905	0.6648	0.2403	-0.517
Mof_N 	N 	0.1131	0.5284	0.3935	-0.295
Mof_N 	N 	0.1	0.4037	0.2985	-0.193
Mof_N 	N 	0.1021	0.3743	0.102	-0.293
Mof_C 	C 	0.2801	0.7152	0.5001	0.868
Mof_H 	H 	0.2572	0.7414	0.5013	-0.438
Mof_C 	C 	0.2993	0.5872	0.4725	0.146
Mof_H 	H 	0.2797	0.5377	0.4525	-0.042
Mof_C 	C 	0.3811	0.597	0.5033	-0.266
Mof_H 	H 	0.4172	0.5551	0.5042	0.107
Mof_C 	C 	0.408	0.6711	0.5328	0.147
Mof_H 	H 	0.4631	0.679	0.555	-0.051
Mof_C 	C 	0.9653	0.6648	0.2883	1.388
Mof_H 	H 	0.0084	0.6652	0.2396	-0.727
Mof_C 	C 	0.8306	0.6636	0.3084	0.171
Mof_H 	H 	0.7764	0.6625	0.2788	-0.057
Mof_C 	C 	0.8482	0.6641	0.4222	-0.307
Mof_H 	H 	0.8066	0.6635	0.4695	0.126
Mof_C 	C 	0.9288	0.6655	0.4635	0.169
Mof_H 	H 	0.9418	0.6671	0.5398	-0.039
Mof_C 	C 	0.1072	0.4718	0.3431	0.151
Mof_C 	C 	0.103	0.3918	0.1936	0.158
Mof_Co	Co	0.61672	0.8543	0.93858	1.13
Mof_N 	N 	0.7473	0.8525	0.9707	-0.413
Mof_N 	N 	0.8567	0.7681	0.0303	-0.414
Mof_N 	N 	0.489	0.8354	0.896	-0.509
Mof_N 	N 	0.3905	0.8352	0.7403	-0.517
Mof_N 	N 	0.6131	0.9716	0.8935	-0.295
Mof_N 	N 	0.6	0.0963	0.7985	-0.193
Mof_N 	N 	0.6021	0.1257	0.602	-0.293
Mof_C 	C 	0.7801	0.7848	0.0001	0.869
Mof_H 	H 	0.7572	0.7586	0.0013	-0.439
Mof_C 	C 	0.7993	0.9128	0.9725	0.149
Mof_H 	H 	0.7797	0.9623	0.9525	-0.043
Mof_C 	C 	0.8811	0.903	0.0033	-0.268
Mof_H 	H 	0.9172	0.9449	0.0042	0.108
Mof_C 	C 	0.908	0.8289	0.0328	0.147
Mof_H 	H 	0.9631	0.821	0.055	-0.052
Mof_C 	C 	0.4653	0.8352	0.7883	1.386
Mof_H 	H 	0.5084	0.8348	0.7396	-0.725
Mof_C 	C 	0.3306	0.8364	0.8084	0.17
Mof_H 	H 	0.2764	0.8375	0.7788	-0.056
Mof_C 	C 	0.3482	0.8359	0.9222	-0.307
Mof_H 	H 	0.3066	0.8365	0.9695	0.126
Mof_C 	C 	0.4288	0.8345	0.9635	0.168
Mof_H 	H 	0.4418	0.8329	0.0398	-0.038
Mof_C 	C 	0.6072	0.0282	0.8431	0.151
Mof_C 	C 	0.603	0.1082	0.6936	0.158
Mof_Co	Co	0.11672	0.3543	0.93858	1.13
Mof_N 	N 	0.2473	0.3525	0.9707	-0.414
Mof_N 	N 	0.3567	0.2681	0.0303	-0.414
Mof_N 	N 	0.989	0.3354	0.896	-0.51
Mof_N 	N 	0.8905	0.3352	0.7403	-0.518
Mof_N 	N 	0.1131	0.4716	0.8935	-0.295
Mof_N 	N 	0.1	0.5963	0.7985	-0.193
Mof_N 	N 	0.1021	0.6257	0.602	-0.293
Mof_C 	C 	0.2801	0.2848	0.0001	0.872
Mof_H 	H 	0.2572	0.2586	0.0013	-0.439
Mof_C 	C 	0.2993	0.4128	0.9725	0.146
Mof_H 	H 	0.2797	0.4623	0.9525	-0.042
Mof_C 	C 	0.3811	0.403	0.0033	-0.265
Mof_H 	H 	0.4172	0.4449	0.0042	0.107
Mof_C 	C 	0.408	0.3289	0.0328	0.146
Mof_H 	H 	0.4631	0.321	0.055	-0.051
Mof_C 	C 	0.9653	0.3352	0.7883	1.391
Mof_H 	H 	0.0084	0.3348	0.7396	-0.726
Mof_C 	C 	0.8306	0.3364	0.8084	0.172
Mof_H 	H 	0.7764	0.3375	0.7788	-0.057
Mof_C 	C 	0.8482	0.3359	0.9222	-0.31
Mof_H 	H 	0.8066	0.3365	0.9695	0.127
Mof_C 	C 	0.9288	0.3345	0.9635	0.173
Mof_H 	H 	0.9418	0.3329	0.0398	-0.041
Mof_C 	C 	0.1072	0.5282	0.8431	0.15
Mof_C 	C 	0.103	0.6082	0.6936	0.158
Mof_Co	Co	0.38328	0.8543	0.56142	1.13
Mof_N 	N 	0.2527	0.8525	0.5293	-0.413
Mof_N 	N 	0.1433	0.7681	0.4697	-0.413
Mof_N 	N 	0.511	0.8354	0.604	-0.509
Mof_N 	N 	0.6095	0.8352	0.7597	-0.517
Mof_N 	N 	0.3869	0.9716	0.6065	-0.295
Mof_N 	N 	0.4	0.0963	0.7015	-0.193
Mof_N 	N 	0.3979	0.1257	0.898	-0.293
Mof_C 	C 	0.2199	0.7848	0.4999	0.868
Mof_H 	H 	0.2428	0.7586	0.4987	-0.438
Mof_C 	C 	0.2007	0.9128	0.5275	0.146
Mof_H 	H 	0.2203	0.9623	0.5475	-0.042
Mof_C 	C 	0.1189	0.903	0.4967	-0.266
Mof_H 	H 	0.0828	0.9449	0.4958	0.107
Mof_C 	C 	0.092	0.8289	0.4672	0.146
Mof_H 	H 	0.0369	0.821	0.445	-0.051
Mof_C 	C 	0.5347	0.8352	0.7117	1.386
Mof_H 	H 	0.4916	0.8348	0.7604	-0.725
Mof_C 	C 	0.6694	0.8364	0.6916	0.171
Mof_H 	H 	0.7236	0.8375	0.7212	-0.056
Mof_C 	C 	0.6518	0.8359	0.5778	-0.307
Mof_H 	H 	0.6934	0.8365	0.5305	0.126
Mof_C 	C 	0.5712	0.8345	0.5365	0.169
Mof_H 	H 	0.5582	0.8329	0.4602	-0.039
Mof_C 	C 	0.3928	0.0282	0.6569	0.15
Mof_C 	C 	0.397	0.1082	0.8064	0.158
Mof_Co	Co	0.88328	0.3543	0.56142	1.13
Mof_N 	N 	0.7527	0.3525	0.5293	-0.413
Mof_N 	N 	0.6433	0.2681	0.4697	-0.413
Mof_N 	N 	0.011	0.3354	0.604	-0.51
Mof_N 	N 	0.1095	0.3352	0.7597	-0.517
Mof_N 	N 	0.8869	0.4716	0.6065	-0.295
Mof_N 	N 	0.9	0.5963	0.7015	-0.193
Mof_N 	N 	0.8979	0.6257	0.898	-0.293
Mof_C 	C 	0.7199	0.2848	0.4999	0.868
Mof_H 	H 	0.7428	0.2586	0.4987	-0.438
Mof_C 	C 	0.7007	0.4128	0.5275	0.146
Mof_H 	H 	0.7203	0.4623	0.5475	-0.042
Mof_C 	C 	0.6189	0.403	0.4967	-0.266
Mof_H 	H 	0.5828	0.4449	0.4958	0.107
Mof_C 	C 	0.592	0.3289	0.4672	0.147
Mof_H 	H 	0.5369	0.321	0.445	-0.051
Mof_C 	C 	0.0347	0.3352	0.7117	1.388
Mof_H 	H 	0.9916	0.3348	0.7604	-0.727
Mof_C 	C 	0.1694	0.3364	0.6916	0.171
Mof_H 	H 	0.2236	0.3375	0.7212	-0.057
Mof_C 	C 	0.1518	0.3359	0.5778	-0.307
Mof_H 	H 	0.1934	0.3365	0.5305	0.126
Mof_C 	C 	0.0712	0.3345	0.5365	0.169
Mof_H 	H 	0.0582	0.3329	0.4602	-0.039
Mof_C 	C 	0.8928	0.5282	0.6569	0.151
Mof_C 	C 	0.897	0.6082	0.8064	0.158
_end
