# CIF file generated by openbabel 3.1.0, see https://openbabel.org
data_I
_chemical_name_common 'POSFOU_clean'
_cell_length_a 10.1459
_cell_length_b 10.1459
_cell_length_c 23.8634
_cell_angle_alpha 90
_cell_angle_beta 90
_cell_angle_gamma 90
_space_group_name_H-M_alt 'P 1'
_space_group_name_Hall 'P 1'
loop_
    _symmetry_equiv_pos_as_xyz
    x,y,z
loop_
    _atom_site_label
    _atom_site_type_symbol
    _atom_site_fract_x
    _atom_site_fract_y
    _atom_site_fract_z
    _atom_site_occupancy
    Cd1      Cd       0.50000    0.50000    0.50000    1.000
    Cd2      Cd       0.50000    0.00000    0.25000    1.000
    Cd3      Cd       0.00000    0.50000    0.75000    1.000
    Cd4      Cd       0.00000    0.00000    0.00000    1.000
    H1       H        0.65110    0.20410    0.96400    1.000
    H2       H        0.34400    0.52240    0.17250    1.000
    H3       H        0.38090    0.04790    0.50540    1.000
    H4       H        0.30930    0.59670    0.79200    1.000
    H5       H        0.19070    0.09670    0.29200    1.000
    H6       H        0.23690    0.65810    0.57100    1.000
    H7       H        0.52240    0.65600    0.82750    1.000
    H8       H        0.15110    0.29590    0.46400    1.000
    H9       H        0.22580    0.22400    0.63970    1.000
    H10      H        0.97760    0.15600    0.32750    1.000
    H11      H        0.02240    0.84400    0.32750    1.000
    H12      H        0.65600    0.47760    0.17250    1.000
    H13      H        0.15810    0.73690    0.92900    1.000
    H14      H        0.09670    0.80930    0.70800    1.000
    H15      H        0.80930    0.90330    0.29200    1.000
    H16      H        0.15600    0.02240    0.67250    1.000
    H17      H        0.77420    0.77600    0.63970    1.000
    H18      H        0.84890    0.70410    0.46400    1.000
    H19      H        0.34190    0.23690    0.42900    1.000
    H20      H        0.11910    0.54790    0.00540    1.000
    H21      H        0.59670    0.69070    0.20800    1.000
    H22      H        0.22400    0.77420    0.36030    1.000
    H23      H        0.15660    0.48240    0.62630    1.000
    H24      H        0.26310    0.15810    0.07100    1.000
    H25      H        0.34340    0.98240    0.12630    1.000
    H26      H        0.04790    0.61910    0.49460    1.000
    H27      H        0.90330    0.19070    0.70800    1.000
    H28      H        0.20410    0.34890    0.03600    1.000
    H29      H        0.01760    0.34340    0.87370    1.000
    H30      H        0.77600    0.22580    0.36030    1.000
    H31      H        0.34890    0.79590    0.96400    1.000
    H32      H        0.47760    0.34400    0.82750    1.000
    H33      H        0.72580    0.27600    0.13970    1.000
    H34      H        0.65810    0.76310    0.42900    1.000
    H35      H        0.98240    0.65660    0.87370    1.000
    H36      H        0.29590    0.84890    0.53600    1.000
    H37      H        0.79590    0.65110    0.03600    1.000
    H38      H        0.84340    0.51760    0.62630    1.000
    H39      H        0.95210    0.38090    0.49460    1.000
    H40      H        0.48240    0.84340    0.37370    1.000
    H41      H        0.73690    0.84190    0.07100    1.000
    H42      H        0.27420    0.72400    0.13970    1.000
    H43      H        0.45210    0.11910    0.99460    1.000
    H44      H        0.76310    0.34190    0.57100    1.000
    H45      H        0.72400    0.72580    0.86030    1.000
    H46      H        0.54790    0.88090    0.99460    1.000
    H47      H        0.51760    0.15660    0.37370    1.000
    H48      H        0.27600    0.27420    0.86030    1.000
    H49      H        0.88090    0.45210    0.00540    1.000
    H50      H        0.65660    0.01760    0.12630    1.000
    H51      H        0.69070    0.40330    0.79200    1.000
    H52      H        0.40330    0.30930    0.20800    1.000
    H53      H        0.84400    0.97760    0.67250    1.000
    H54      H        0.84190    0.26310    0.92900    1.000
    H55      H        0.70410    0.15110    0.53600    1.000
    H56      H        0.61910    0.95210    0.50540    1.000
    C1       C        0.77800    0.08530    0.60798    1.000
    C2       C        0.31440    0.15760    0.56974    1.000
    C3       C        0.34240    0.18560    0.93026    1.000
    C4       C        0.78480    0.87330    0.94916    1.000
    C5       C        0.20040    0.02750    0.63850    1.000
    C6       C        0.87830    0.24940    0.68001    1.000
    C7       C        0.04410    0.66560    0.46100    1.000
    C8       C        0.92880    0.34550    0.86421    1.000
    C9       C        0.79960    0.97250    0.63850    1.000
    C10      C        0.24400    0.14820    0.61920    1.000
    C11      C        0.28590    0.67980    0.87009    1.000
    C12      C        0.91470    0.77800    0.39202    1.000
    C13      C        0.85180    0.24400    0.38080    1.000
    C14      C        0.25060    0.62170    0.81999    1.000
    C15      C        0.70040    0.47250    0.13850    1.000
    C16      C        0.24940    0.12170    0.31999    1.000
    C17      C        0.84240    0.31440    0.43026    1.000
    C18      C        0.12670    0.78480    0.05084    1.000
    C19      C        0.67980    0.71410    0.12991    1.000
    C20      C        0.35180    0.25600    0.88080    1.000
    C21      C        0.34550    0.07120    0.13579    1.000
    C22      C        0.66560    0.95590    0.53900    1.000
    C23      C        0.25600    0.64820    0.11920    1.000
    C24      C        0.16560    0.54410    0.03900    1.000
    C25      C        0.57120    0.84550    0.36421    1.000
    C26      C        0.02750    0.79960    0.36150    1.000
    C27      C        0.42880    0.15450    0.36421    1.000
    C28      C        0.22200    0.91470    0.60798    1.000
    C29      C        0.62170    0.74940    0.18001    1.000
    C30      C        0.81440    0.34240    0.06974    1.000
    C31      C        0.64820    0.74400    0.88080    1.000
    C32      C        0.15450    0.57120    0.63579    1.000
    C33      C        0.57600    0.21470    0.94210    1.000
    C34      C        0.52750    0.70040    0.86150    1.000
    C35      C        0.08530    0.22200    0.39202    1.000
    C36      C        0.54410    0.83440    0.96100    1.000
    C37      C        0.21520    0.12670    0.94916    1.000
    C38      C        0.42400    0.78530    0.94210    1.000
    C39      C        0.65450    0.92880    0.13579    1.000
    C40      C        0.32020    0.28590    0.12991    1.000
    C41      C        0.71470    0.07600    0.55790    1.000
    C42      C        0.75060    0.87830    0.31999    1.000
    C43      C        0.47250    0.29960    0.86150    1.000
    C44      C        0.17980    0.78590    0.62991    1.000
    C45      C        0.28480    0.62670    0.44916    1.000
    C46      C        0.82020    0.21410    0.62991    1.000
    C47      C        0.75600    0.85180    0.61920    1.000
    C48      C        0.14820    0.75600    0.38080    1.000
    C49      C        0.21470    0.42400    0.05790    1.000
    C50      C        0.62670    0.71520    0.55084    1.000
    C51      C        0.41470    0.72200    0.89202    1.000
    C52      C        0.74940    0.37830    0.81999    1.000
    C53      C        0.58530    0.27800    0.89202    1.000
    C54      C        0.83440    0.45590    0.03900    1.000
    C55      C        0.28530    0.92400    0.55790    1.000
    C56      C        0.29960    0.52750    0.13850    1.000
    C57      C        0.78590    0.82020    0.37009    1.000
    C58      C        0.12170    0.75060    0.68001    1.000
    C59      C        0.07120    0.65450    0.86421    1.000
    C60      C        0.45590    0.16560    0.96100    1.000
    C61      C        0.21410    0.17980    0.37009    1.000
    C62      C        0.95590    0.33440    0.46100    1.000
    C63      C        0.71520    0.37330    0.44916    1.000
    C64      C        0.27800    0.41470    0.10798    1.000
    C65      C        0.92400    0.71470    0.44210    1.000
    C66      C        0.71410    0.32020    0.87009    1.000
    C67      C        0.15760    0.68560    0.43026    1.000
    C68      C        0.68560    0.84240    0.56974    1.000
    C69      C        0.97250    0.20040    0.36150    1.000
    C70      C        0.33440    0.04410    0.53900    1.000
    C71      C        0.65760    0.81440    0.93026    1.000
    C72      C        0.72200    0.58530    0.10798    1.000
    C73      C        0.37830    0.25060    0.18001    1.000
    C74      C        0.74400    0.35180    0.11920    1.000
    C75      C        0.07600    0.28530    0.44210    1.000
    C76      C        0.84550    0.42880    0.63579    1.000
    C77      C        0.78530    0.57600    0.05790    1.000
    C78      C        0.18560    0.65760    0.06974    1.000
    C79      C        0.37330    0.28480    0.55084    1.000
    C80      C        0.87330    0.21520    0.05084    1.000
    N1       N        0.60630    0.88310    0.18263    1.000
    N2       N        0.29950    0.16800    0.10324    1.000
    N3       N        0.11690    0.60630    0.81737    1.000
    N4       N        0.88310    0.39370    0.81737    1.000
    N5       N        0.10630    0.61690    0.68263    1.000
    N6       N        0.39370    0.11690    0.18263    1.000
    N7       N        0.79950    0.33200    0.60324    1.000
    N8       N        0.61690    0.89370    0.31737    1.000
    N9       N        0.83200    0.29950    0.89676    1.000
    N10      N        0.89370    0.38310    0.68263    1.000
    N11      N        0.38310    0.10630    0.31737    1.000
    N12      N        0.70050    0.83200    0.10324    1.000
    N13      N        0.66800    0.79950    0.39676    1.000
    N14      N        0.16800    0.70050    0.89676    1.000
    N15      N        0.20050    0.66800    0.60324    1.000
    N16      N        0.33200    0.20050    0.39676    1.000
    O1       O        0.10380    0.87440    0.08512    1.000
    O2       O        0.09920    0.79760    0.99980    1.000
    O3       O        0.20240    0.09920    0.00020    1.000
    O4       O        0.12560    0.10380    0.91488    1.000
    O5       O        0.87440    0.89620    0.91488    1.000
    O6       O        0.37440    0.60380    0.41488    1.000
    O7       O        0.79760    0.90080    0.00020    1.000
    O8       O        0.60380    0.62560    0.58512    1.000
    O9       O        0.70240    0.40080    0.50020    1.000
    O10      O        0.29760    0.59920    0.50020    1.000
    O11      O        0.89620    0.12560    0.08512    1.000
    O12      O        0.39620    0.37440    0.58512    1.000
    O13      O        0.59920    0.70240    0.49980    1.000
    O14      O        0.90080    0.20240    0.99980    1.000
    O15      O        0.40080    0.29760    0.49980    1.000
    O16      O        0.62560    0.39620    0.41488    1.000
