# CIF file generated by openbabel 3.1.0, see https://openbabel.org
data_I
_chemical_name_common 'WEMCAU_clean'
_cell_length_a 9.5915
_cell_length_b 11.452
_cell_length_c 12.178
_cell_angle_alpha 90
_cell_angle_beta 98.96
_cell_angle_gamma 90
_space_group_name_H-M_alt 'P 1'
_space_group_name_Hall 'P 1'
loop_
    _symmetry_equiv_pos_as_xyz
    x,y,z
loop_
    _atom_site_label
    _atom_site_type_symbol
    _atom_site_fract_x
    _atom_site_fract_y
    _atom_site_fract_z
    _atom_site_occupancy
    Yb1      Yb       0.78426    0.99016    0.16649    1.000
    Yb2      Yb       0.71574    0.49016    0.33351    1.000
    Yb3      Yb       0.21574    0.00984    0.83351    1.000
    Yb4      Yb       0.28426    0.50984    0.66649    1.000
    C1       C        0.80490    0.71640    0.20870    1.000
    C2       C        0.70000    0.76070    0.28400    1.000
    C3       C        0.93540    0.99930    0.95330    1.000
    C4       C        0.50290    0.06660    0.99870    1.000
    C5       C        0.69510    0.21640    0.29130    1.000
    C6       C        0.80000    0.26070    0.21600    1.000
    C7       C        0.56460    0.49930    0.54670    1.000
    C8       C        0.99710    0.56660    0.50130    1.000
    C9       C        0.19510    0.28360    0.79130    1.000
    C10      C        0.30000    0.23930    0.71600    1.000
    C11      C        0.06460    0.00070    0.04670    1.000
    C12      C        0.49710    0.93340    0.00130    1.000
    C13      C        0.30490    0.78360    0.70870    1.000
    C14      C        0.20000    0.73930    0.78400    1.000
    C15      C        0.43540    0.50070    0.45330    1.000
    C16      C        0.00290    0.43340    0.49870    1.000
    O1       O        0.86280    0.79350    0.15780    1.000
    O2       O        0.82470    0.60830    0.20800    1.000
    O3       O        0.68700    0.86840    0.29100    1.000
    O4       O        0.63700    0.68410    0.33120    1.000
    O5       O        0.81750    0.99020    0.97910    1.000
    O6       O        0.96730    0.00600    0.85530    1.000
    O7       O        0.60220    0.11370    0.06150    1.000
    O8       O        0.41020    0.11780    0.93140    1.000
    O9       O        0.63720    0.29350    0.34220    1.000
    O10      O        0.67530    0.10830    0.29200    1.000
    O11      O        0.81300    0.36840    0.20900    1.000
    O12      O        0.86300    0.18410    0.16880    1.000
    O13      O        0.68250    0.49020    0.52090    1.000
    O14      O        0.53270    0.50600    0.64470    1.000
    O15      O        0.89780    0.61370    0.43850    1.000
    O16      O        0.08980    0.61780    0.56860    1.000
    O17      O        0.13720    0.20650    0.84220    1.000
    O18      O        0.17530    0.39170    0.79200    1.000
    O19      O        0.31300    0.13160    0.70900    1.000
    O20      O        0.36300    0.31590    0.66880    1.000
    O21      O        0.18250    0.00980    0.02090    1.000
    O22      O        0.03270    0.99400    0.14470    1.000
    O23      O        0.39780    0.88630    0.93850    1.000
    O24      O        0.58980    0.88220    0.06860    1.000
    O25      O        0.36280    0.70650    0.65780    1.000
    O26      O        0.32470    0.89170    0.70800    1.000
    O27      O        0.18700    0.63160    0.79100    1.000
    O28      O        0.13700    0.81590    0.83120    1.000
    O29      O        0.31750    0.50980    0.47910    1.000
    O30      O        0.46730    0.49400    0.35530    1.000
    O31      O        0.10220    0.38630    0.56150    1.000
    O32      O        0.91020    0.38220    0.43140    1.000
