data_functionalizedCrystal
_audit_creation_method	'EQeq! by Chris Wilmer'
_symmetry_space_group_name_H-M	'P1'
_symmetry_Int_Tables_number	1
_symmetry_cell_setting	triclinic
loop_
_symmetry_equiv_pos_as_xyz
  x,y,z
_cell_length_a	14.0306
_cell_length_b	14.0306
_cell_length_c	28.178
_cell_angle_alpha	90
_cell_angle_beta	90
_cell_angle_gamma	120
loop_
_atom_site_label
_atom_site_type_symbol
_atom_site_fract_x
_atom_site_fract_y
_atom_site_fract_z
_atom_site_charge
Mof_C 	C 	0.2197	0.0121	0.0648	0.286
Mof_Cd	Cd	0.4299	0.09083	0.02472	0.463
Mof_O 	O 	0.2377	0.0722	0.02993	-0.253
Mof_C 	C 	0.1113	0.9594	0.0899	-0.053
Mof_O 	O 	0.2909	0.9884	0.0797	-0.244
Mof_C 	C 	0.0876	0.8851	0.1261	0
Mof_H 	H 	0.139	0.8652	0.1351	0.059
Mof_O 	O 	0.7203	0.6025	0.2784	-0.247
Mof_C 	C 	0.9874	0.84	0.149	-0.07
Mof_H 	H 	0.9728	0.7909	0.1739	0.066
Mof_O 	O 	0.6004	0.6519	0.3022	-0.243
Mof_C 	C 	0.9048	0.8673	0.1353	0.024
Mof_O 	O 	0.5106	0.0016	0.0609	-0.256
Mof_C 	C 	0.9293	0.9409	0.0985	-0.009
Mof_O 	O 	0.6186	0.1134	0.0067	-0.255
Mof_C 	C 	0.0336	0.9856	0.0761	-0.032
Mof_H 	H 	0.0498	0.0345	0.051	0.059
Mof_C 	C 	0.8004	0.8195	0.1616	-0.005
Mof_C 	C 	0.7767	0.7537	0.1999	-0.033
Mof_H 	H 	0.8273	0.7324	0.2086	0.062
Mof_C 	C 	0.6841	0.7161	0.2269	-0.042
Mof_C 	C 	0.6671	0.6522	0.2725	0.283
Mof_C 	C 	0.6047	0.7475	0.2121	-0.004
Mof_H 	H 	0.5415	0.7263	0.23	0.056
Mof_C 	C 	0.6227	0.8084	0.1718	-0.074
Mof_H 	H 	0.5692	0.824	0.1612	0.069
Mof_C 	C 	0.7202	0.8473	0.1462	0.028
Mof_C 	C 	0.745	0.9211	0.1054	-0.012
Mof_C 	C 	0.6639	0.9485	0.088	-0.025
Mof_H 	H 	0.5954	0.9176	0.1027	0.063
Mof_C 	C 	0.6855	0.0157	0.0521	-0.055
Mof_C 	C 	0.5996	0.0476	0.0383	0.305
Mof_C 	C 	0.784	0.0586	0.0291	0.012
Mof_H 	H 	0.7972	0.104	0.0029	0.058
Mof_C 	C 	0.8627	0.0366	0.0434	-0.085
Mof_H 	H 	0.9304	0.0702	0.028	0.077
Mof_C 	C 	0.8447	0.965	0.0806	0.033
Mof_C 	C 	0.9879	0.2076	0.73147	0.285
Mof_Cd	Cd	0.90917	0.33907	0.69138	0.462
Mof_O 	O 	0.9278	0.1655	0.6966	-0.254
Mof_C 	C 	0.0406	0.1519	0.75657	-0.054
Mof_O 	O 	0.0116	0.3025	0.74637	-0.245
Mof_C 	C 	0.1149	0.2025	0.79277	-0.001
Mof_H 	H 	0.1348	0.2738	0.80177	0.058
Mof_O 	O 	0.3975	0.1178	0.94507	-0.248
Mof_C 	C 	0.16	0.1474	0.81567	-0.07
Mof_H 	H 	0.2091	0.1819	0.84057	0.066
Mof_O 	O 	0.3481	0.9485	0.96887	-0.242
Mof_C 	C 	0.1327	0.0375	0.80197	0.023
Mof_O 	O 	0.9984	0.509	0.72757	-0.256
Mof_C 	C 	0.0591	0.9884	0.76517	-0.008
Mof_O 	O 	0.8866	0.5052	0.67337	-0.255
Mof_C 	C 	0.0144	0.048	0.74277	-0.032
Mof_H 	H 	0.9655	0.0153	0.71767	0.059
Mof_C 	C 	0.1805	0.9809	0.82827	-0.002
Mof_C 	C 	0.2463	0.023	0.86657	-0.037
Mof_H 	H 	0.2676	0.0949	0.87527	0.063
Mof_C 	C 	0.2839	0.968	0.89357	-0.039
Mof_C 	C 	0.3478	0.0149	0.93917	0.281
Mof_C 	C 	0.2525	0.8572	0.87877	-0.006
Mof_H 	H 	0.2737	0.8152	0.89667	0.057
Mof_C 	C 	0.1916	0.8143	0.83847	-0.072
Mof_H 	H 	0.176	0.7452	0.82787	0.068
Mof_C 	C 	0.1527	0.8729	0.81287	0.027
Mof_C 	C 	0.0789	0.8239	0.77207	-0.011
Mof_C 	C 	0.0515	0.7154	0.75467	-0.025
Mof_H 	H 	0.0824	0.6778	0.76937	0.063
Mof_C 	C 	0.9843	0.6698	0.71877	-0.056
Mof_C 	C 	0.9524	0.552	0.70497	0.305
Mof_C 	C 	0.9414	0.7254	0.69577	0.012
Mof_H 	H 	0.896	0.6932	0.66957	0.058
Mof_C 	C 	0.9634	0.8261	0.71007	-0.085
Mof_H 	H 	0.9298	0.8602	0.69467	0.077
Mof_C 	C 	0.035	0.8797	0.74727	0.033
Mof_C 	C 	0.7924	0.7803	0.39813	0.285
Mof_Cd	Cd	0.66093	0.5701	0.35805	0.462
Mof_O 	O 	0.8345	0.7623	0.36326	-0.254
Mof_C 	C 	0.8481	0.8887	0.42323	-0.053
Mof_O 	O 	0.6975	0.7091	0.41303	-0.245
Mof_C 	C 	0.7975	0.9124	0.45943	-0.002
Mof_H 	H 	0.7262	0.861	0.46843	0.058
Mof_O 	O 	0.8822	0.2797	0.61173	-0.248
Mof_C 	C 	0.8526	0.0126	0.48233	-0.068
Mof_H 	H 	0.8181	0.0272	0.50723	0.066
Mof_O 	O 	0.0515	0.3996	0.63553	-0.242
Mof_C 	C 	0.9625	0.0952	0.46863	0.022
Mof_O 	O 	0.491	0.4894	0.39423	-0.256
Mof_C 	C 	0.0116	0.0707	0.43183	-0.007
Mof_O 	O 	0.4948	0.3814	0.34003	-0.254
Mof_C 	C 	0.952	0.9664	0.40943	-0.034
Mof_H 	H 	0.9847	0.9502	0.38433	0.06
Mof_C 	C 	0.0191	0.1996	0.49493	-0.002
Mof_C 	C 	0.977	0.2233	0.53323	-0.037
Mof_H 	H 	0.9051	0.1727	0.54193	0.063
Mof_C 	C 	0.032	0.3159	0.56023	-0.04
Mof_C 	C 	0.9851	0.3329	0.60583	0.281
Mof_C 	C 	0.1428	0.3953	0.54543	-0.006
Mof_H 	H 	0.1848	0.4585	0.56333	0.057
Mof_C 	C 	0.1857	0.3773	0.50513	-0.072
Mof_H 	H 	0.2548	0.4308	0.49453	0.068
Mof_C 	C 	0.1271	0.2798	0.47953	0.027
Mof_C 	C 	0.1761	0.255	0.43873	-0.01
Mof_C 	C 	0.2846	0.3361	0.42133	-0.026
Mof_H 	H 	0.3222	0.4046	0.43603	0.063
Mof_C 	C 	0.3302	0.3145	0.38543	-0.054
Mof_C 	C 	0.448	0.4004	0.37163	0.305
Mof_C 	C 	0.2746	0.216	0.36243	0.01
Mof_H 	H 	0.3068	0.2028	0.33623	0.058
Mof_C 	C 	0.1739	0.1373	0.37673	-0.084
Mof_H 	H 	0.1398	0.0696	0.36133	0.076
Mof_C 	C 	0.1203	0.1553	0.41393	0.032
Mof_C 	C 	0.0121	0.2197	0.9352	0.285
Mof_Cd	Cd	0.09083	0.4299	0.97528	0.462
Mof_O 	O 	0.0722	0.2377	0.97007	-0.254
Mof_C 	C 	0.9594	0.1113	0.9101	-0.054
Mof_O 	O 	0.9884	0.2909	0.9203	-0.245
Mof_C 	C 	0.8851	0.0876	0.8739	-0.001
Mof_H 	H 	0.8652	0.139	0.8649	0.058
Mof_O 	O 	0.6025	0.7203	0.7216	-0.248
Mof_C 	C 	0.84	0.9874	0.851	-0.07
Mof_H 	H 	0.7909	0.9728	0.8261	0.066
Mof_O 	O 	0.6519	0.6004	0.6978	-0.243
Mof_C 	C 	0.8673	0.9048	0.8647	0.024
Mof_O 	O 	0.0016	0.5106	0.9391	-0.256
Mof_C 	C 	0.9409	0.9293	0.9015	-0.009
Mof_O 	O 	0.1134	0.6186	0.9933	-0.255
Mof_C 	C 	0.9856	0.0336	0.9239	-0.032
Mof_H 	H 	0.0345	0.0498	0.949	0.059
Mof_C 	C 	0.8195	0.8004	0.8384	-0.005
Mof_C 	C 	0.7537	0.7767	0.8001	-0.033
Mof_H 	H 	0.7324	0.8273	0.7914	0.062
Mof_C 	C 	0.7161	0.6841	0.7731	-0.042
Mof_C 	C 	0.6522	0.6671	0.7275	0.283
Mof_C 	C 	0.7475	0.6047	0.7879	-0.004
Mof_H 	H 	0.7263	0.5415	0.77	0.056
Mof_C 	C 	0.8084	0.6227	0.8282	-0.074
Mof_H 	H 	0.824	0.5692	0.8388	0.069
Mof_C 	C 	0.8473	0.7202	0.8538	0.028
Mof_C 	C 	0.9211	0.745	0.8946	-0.012
Mof_C 	C 	0.9485	0.6639	0.912	-0.025
Mof_H 	H 	0.9176	0.5954	0.8973	0.063
Mof_C 	C 	0.0157	0.6855	0.9479	-0.055
Mof_C 	C 	0.0476	0.5996	0.9617	0.305
Mof_C 	C 	0.0586	0.784	0.9709	0.012
Mof_H 	H 	0.104	0.7972	0.9971	0.058
Mof_C 	C 	0.0366	0.8627	0.9566	-0.085
Mof_H 	H 	0.0702	0.9304	0.972	0.077
Mof_C 	C 	0.965	0.8447	0.9194	0.033
Mof_C 	C 	0.2076	0.9879	0.26853	0.285
Mof_Cd	Cd	0.33907	0.90917	0.30862	0.462
Mof_O 	O 	0.1655	0.9278	0.3034	-0.254
Mof_C 	C 	0.1519	0.0406	0.24343	-0.054
Mof_O 	O 	0.3025	0.0116	0.25363	-0.245
Mof_C 	C 	0.2025	0.1149	0.20723	-0.001
Mof_H 	H 	0.2738	0.1348	0.19823	0.058
Mof_O 	O 	0.1178	0.3975	0.05493	-0.248
Mof_C 	C 	0.1474	0.16	0.18433	-0.07
Mof_H 	H 	0.1819	0.2091	0.15943	0.066
Mof_O 	O 	0.9485	0.3481	0.03113	-0.242
Mof_C 	C 	0.0375	0.1327	0.19803	0.023
Mof_O 	O 	0.509	0.9984	0.27243	-0.256
Mof_C 	C 	0.9884	0.0591	0.23483	-0.008
Mof_O 	O 	0.5052	0.8866	0.32663	-0.255
Mof_C 	C 	0.048	0.0144	0.25723	-0.032
Mof_H 	H 	0.0153	0.9655	0.28233	0.059
Mof_C 	C 	0.9809	0.1805	0.17173	-0.002
Mof_C 	C 	0.023	0.2463	0.13343	-0.037
Mof_H 	H 	0.0949	0.2676	0.12473	0.063
Mof_C 	C 	0.968	0.2839	0.10643	-0.039
Mof_C 	C 	0.0149	0.3478	0.06083	0.281
Mof_C 	C 	0.8572	0.2525	0.12123	-0.006
Mof_H 	H 	0.8152	0.2737	0.10333	0.057
Mof_C 	C 	0.8143	0.1916	0.16153	-0.072
Mof_H 	H 	0.7452	0.176	0.17213	0.068
Mof_C 	C 	0.8729	0.1527	0.18713	0.027
Mof_C 	C 	0.8239	0.0789	0.22793	-0.011
Mof_C 	C 	0.7154	0.0515	0.24533	-0.025
Mof_H 	H 	0.6778	0.0824	0.23063	0.063
Mof_C 	C 	0.6698	0.9843	0.28123	-0.056
Mof_C 	C 	0.552	0.9524	0.29503	0.305
Mof_C 	C 	0.7254	0.9414	0.30423	0.012
Mof_H 	H 	0.6932	0.896	0.33043	0.058
Mof_C 	C 	0.8261	0.9634	0.28993	-0.085
Mof_H 	H 	0.8602	0.9298	0.30533	0.077
Mof_C 	C 	0.8797	0.035	0.25273	0.033
Mof_C 	C 	0.7803	0.7924	0.60187	0.285
Mof_Cd	Cd	0.5701	0.66093	0.64195	0.462
Mof_O 	O 	0.7623	0.8345	0.63674	-0.254
Mof_C 	C 	0.8887	0.8481	0.57677	-0.053
Mof_O 	O 	0.7091	0.6975	0.58697	-0.245
Mof_C 	C 	0.9124	0.7975	0.54057	-0.002
Mof_H 	H 	0.861	0.7262	0.53157	0.058
Mof_O 	O 	0.2797	0.8822	0.38827	-0.248
Mof_C 	C 	0.0126	0.8526	0.51767	-0.068
Mof_H 	H 	0.0272	0.8181	0.49277	0.066
Mof_O 	O 	0.3996	0.0515	0.36447	-0.242
Mof_C 	C 	0.0952	0.9625	0.53137	0.022
Mof_O 	O 	0.4894	0.491	0.60577	-0.256
Mof_C 	C 	0.0707	0.0116	0.56817	-0.007
Mof_O 	O 	0.3814	0.4948	0.65997	-0.254
Mof_C 	C 	0.9664	0.952	0.59057	-0.034
Mof_H 	H 	0.9502	0.9847	0.61567	0.06
Mof_C 	C 	0.1996	0.0191	0.50507	-0.002
Mof_C 	C 	0.2233	0.977	0.46677	-0.037
Mof_H 	H 	0.1727	0.9051	0.45807	0.063
Mof_C 	C 	0.3159	0.032	0.43977	-0.04
Mof_C 	C 	0.3329	0.9851	0.39417	0.281
Mof_C 	C 	0.3953	0.1428	0.45457	-0.006
Mof_H 	H 	0.4585	0.1848	0.43667	0.057
Mof_C 	C 	0.3773	0.1857	0.49487	-0.072
Mof_H 	H 	0.4308	0.2548	0.50547	0.068
Mof_C 	C 	0.2798	0.1271	0.52047	0.027
Mof_C 	C 	0.255	0.1761	0.56127	-0.01
Mof_C 	C 	0.3361	0.2846	0.57867	-0.026
Mof_H 	H 	0.4046	0.3222	0.56397	0.063
Mof_C 	C 	0.3145	0.3302	0.61457	-0.054
Mof_C 	C 	0.4004	0.448	0.62837	0.305
Mof_C 	C 	0.216	0.2746	0.63757	0.01
Mof_H 	H 	0.2028	0.3068	0.66377	0.058
Mof_C 	C 	0.1373	0.1739	0.62327	-0.084
Mof_H 	H 	0.0696	0.1398	0.63867	0.076
Mof_C 	C 	0.1553	0.1203	0.58607	0.032
_end
