data_functionalizedCrystal
_audit_creation_method	'EQeq! by Chris Wilmer'
_symmetry_space_group_name_H-M	'P1'
_symmetry_Int_Tables_number	1
_symmetry_cell_setting	triclinic
loop_
_symmetry_equiv_pos_as_xyz
  x,y,z
_cell_length_a	29.72
_cell_length_b	37.891
_cell_length_c	37.65
_cell_angle_alpha	90
_cell_angle_beta	90
_cell_angle_gamma	90
loop_
_atom_site_label
_atom_site_type_symbol
_atom_site_fract_x
_atom_site_fract_y
_atom_site_fract_z
_atom_site_charge
Mof_Zn	Zn	0.53681	0.66911	0.78633	1.229
Mof_Zn	Zn	0.60698	0.61645	0.84238	1.249
Mof_Zn	Zn	0.67757	0.56404	0.8982	1.194
Mof_O 	O 	0.3918	0.3936	0.2886	-0.464
Mof_O 	O 	0.5359	0.6171	0.8451	-0.449
Mof_O 	O 	0.1159	0.8298	0.1578	-0.439
Mof_O 	O 	0.3871	0.3742	0.3974	-0.451
Mof_O 	O 	0.8247	0.1124	0.6614	-0.473
Mof_O 	O 	0.5012	0.6657	0.82881	-0.481
Mof_O 	O 	0.3672	0.4182	0.4326	-0.493
Mof_O 	O 	0.6002	0.5625	0.8517	-0.462
Mof_O 	O 	0.66	0.5288	0.8621	-0.496
Mof_O 	O 	0.4496	0.372	0.25768	-0.497
Mof_O 	O 	0.0887	0.8011	0.2046	-0.484
Mof_O 	O 	0.7827	0.1037	0.615	-0.506
Mof_C 	C 	0.5074	0.6412	0.8512	0.403
Mof_C 	C 	0.4778	0.64	0.88256	-0.183
Mof_C 	C 	0.4496	0.668	0.89092	0.12
Mof_H 	H 	0.4487	0.6878	0.8763	0.005
Mof_C 	C 	0.4228	0.6666	0.9211	-0.205
Mof_H 	H 	0.404	0.6854	0.9267	0.119
Mof_C 	C 	0.4242	0.637	0.94301	0.19
Mof_C 	C 	0.4524	0.609	0.9346	-0.201
Mof_H 	H 	0.4534	0.5892	0.9493	0.11
Mof_C 	C 	0.4792	0.6104	0.9044	0.117
Mof_H 	H 	0.4981	0.5916	0.8988	0.005
Mof_N 	N 	0.3981	0.6347	0.97338	-0.112
Mof_C 	C 	0.4021	0.6172	0.0044	0.024
Mof_H 	H 	0.4234	0.6	0.0096	0.028
Mof_C 	C 	0.3698	0.629	0.0265	0.02
Mof_N 	N 	0.3459	0.6539	0.0092	-0.073
Mof_N 	N 	0.3633	0.6573	0.9764	-0.044
Mof_C 	C 	0.3558	0.6177	0.06061	0.089
Mof_C 	C 	0.3718	0.5864	0.0752	-0.144
Mof_H 	H 	0.3914	0.5722	0.0623	0.092
Mof_C 	C 	0.3586	0.5764	0.1092	0.086
Mof_C 	C 	0.3294	0.5977	0.12851	-0.142
Mof_H 	H 	0.3206	0.591	0.1512	0.093
Mof_C 	C 	0.3133	0.6289	0.1139	0.088
Mof_C 	C 	0.3265	0.6389	0.0799	-0.143
Mof_H 	H 	0.3158	0.6598	0.0701	0.094
Mof_C 	C 	0.374	0.5409	0.124	0.024
Mof_N 	N 	0.4028	0.521	0.1047	-0.076
Mof_N 	N 	0.4163	0.4936	0.1251	-0.044
Mof_N 	N 	0.3958	0.4966	0.1571	-0.116
Mof_C 	C 	0.3696	0.5258	0.1564	0.022
Mof_H 	H 	0.3518	0.534	0.1749	0.029
Mof_C 	C 	0.4	0.4712	0.18214	0.206
Mof_C 	C 	0.4376	0.4493	0.18188	-0.22
Mof_H 	H 	0.4594	0.452	0.1644	0.129
Mof_C 	C 	0.4425	0.4235	0.2078	0.14
Mof_H 	H 	0.4677	0.4089	0.2076	-0.001
Mof_C 	C 	0.41	0.4195	0.234	-0.202
Mof_C 	C 	0.3724	0.4414	0.2342	0.138
Mof_H 	H 	0.3506	0.4387	0.2518	0.001
Mof_C 	C 	0.3674	0.4672	0.2083	-0.22
Mof_H 	H 	0.3423	0.4818	0.2085	0.115
Mof_C 	C 	0.4172	0.3943	0.2629	0.438
Mof_C 	C 	0.2826	0.651	0.135	0.021
Mof_C 	C 	0.2604	0.6822	0.1281	0.017
Mof_H 	H 	0.2631	0.6957	0.1076	0.028
Mof_N 	N 	0.2334	0.6897	0.1569	-0.113
Mof_N 	N 	0.2389	0.6632	0.1814	-0.045
Mof_N 	N 	0.2693	0.6393	0.168	-0.075
Mof_C 	C 	0.2054	0.7175	0.1615	0.193
Mof_C 	C 	0.1808	0.7185	0.1929	-0.202
Mof_H 	H 	0.1838	0.7005	0.2095	0.121
Mof_C 	C 	0.1517	0.7465	0.1995	0.117
Mof_H 	H 	0.1353	0.7472	0.2205	0.008
Mof_C 	C 	0.1472	0.7734	0.1747	-0.173
Mof_C 	C 	0.1717	0.7724	0.1433	0.111
Mof_H 	H 	0.1687	0.7904	0.1267	0.015
Mof_C 	C 	0.2008	0.7444	0.1367	-0.2
Mof_H 	H 	0.2173	0.7437	0.1157	0.108
Mof_C 	C 	0.1144	0.8029	0.1785	0.412
Mof_C 	C 	0.6232	0.5353	0.8462	0.407
Mof_C 	C 	0.6106	0.5099	0.8181	-0.178
Mof_C 	C 	0.6415	0.4848	0.8068	0.115
Mof_H 	H 	0.6693	0.4829	0.818	0.003
Mof_C 	C 	0.6309	0.4625	0.7786	-0.203
Mof_H 	H 	0.6516	0.4457	0.7711	0.106
Mof_C 	C 	0.5894	0.4653	0.7618	0.182
Mof_C 	C 	0.5585	0.4905	0.7732	-0.192
Mof_H 	H 	0.5308	0.4924	0.7619	0.113
Mof_C 	C 	0.5691	0.5127	0.8013	0.115
Mof_H 	H 	0.5484	0.5295	0.8089	0.007
Mof_N 	N 	0.5793	0.4408	0.7351	-0.111
Mof_C 	C 	0.5956	0.4106	0.724	0.018
Mof_H 	H 	0.6192	0.3982	0.7342	0.029
Mof_C 	C 	0.5727	0.401	0.6959	0.024
Mof_N 	N 	0.5422	0.4252	0.6896	-0.073
Mof_N 	N 	0.5462	0.4499	0.7139	-0.043
Mof_C 	C 	0.5767	0.3693	0.6746	0.084
Mof_C 	C 	0.6034	0.3413	0.6856	-0.139
Mof_H 	H 	0.6181	0.3423	0.7074	0.094
Mof_C 	C 	0.6083	0.3117	0.6642	0.084
Mof_C 	C 	0.5863	0.3101	0.6316	-0.139
Mof_H 	H 	0.5896	0.2903	0.6172	0.091
Mof_C 	C 	0.5596	0.3381	0.6205	0.081
Mof_C 	C 	0.5547	0.3677	0.642	-0.139
Mof_H 	H 	0.5368	0.3864	0.6346	0.092
Mof_N 	N 	0.6581	0.2802	0.7065	-0.072
Mof_N 	N 	0.6856	0.2514	0.7072	-0.045
Mof_N 	N 	0.6845	0.2361	0.6745	-0.11
Mof_C 	C 	0.6565	0.2554	0.6535	0.012
Mof_H 	H 	0.6497	0.2508	0.6299	0.029
Mof_C 	C 	0.6402	0.2827	0.6733	0.026
Mof_C 	C 	0.7047	0.2035	0.668	0.184
Mof_C 	C 	0.7021	0.1856	0.6359	-0.206
Mof_H 	H 	0.6804	0.192	0.6192	0.105
Mof_C 	C 	0.7317	0.1582	0.6286	0.118
Mof_H 	H 	0.73	0.1462	0.6071	0.006
Mof_C 	C 	0.7641	0.1486	0.6535	-0.187
Mof_C 	C 	0.7667	0.1666	0.6857	0.125
Mof_H 	H 	0.7884	0.1602	0.7023	0.004
Mof_C 	C 	0.7371	0.194	0.6929	-0.203
Mof_H 	H 	0.7388	0.206	0.7144	0.122
Mof_C 	C 	0.7885	0.1159	0.6453	0.44
Mof_C 	C 	0.5371	0.3354	0.5842	0.03
Mof_C 	C 	0.5126	0.3577	0.5675	0.019
Mof_H 	H 	0.5047	0.3801	0.5754	0.026
Mof_N 	N 	0.5008	0.3436	0.538	-0.112
Mof_N 	N 	0.5179	0.3126	0.5365	-0.041
Mof_N 	N 	0.5405	0.3076	0.5651	-0.077
Mof_C 	C 	0.4731	0.3548	0.5094	0.184
Mof_C 	C 	0.4669	0.3337	0.4796	-0.206
Mof_H 	H 	0.4812	0.3119	0.4781	0.12
Mof_C 	C 	0.4395	0.3451	0.452	0.129
Mof_H 	H 	0.4353	0.331	0.4321	0.004
Mof_C 	C 	0.4182	0.3777	0.4542	-0.199
Mof_C 	C 	0.4244	0.3989	0.484	0.127
Mof_H 	H 	0.4102	0.4207	0.4855	-0.004
Mof_C 	C 	0.4519	0.3874	0.5116	-0.213
Mof_H 	H 	0.456	0.4015	0.5315	0.107
Mof_C 	C 	0.3917	0.3912	0.4249	0.43
Mof_Zn	Zn	0.03681	0.16911	0.78633	1.23
Mof_Zn	Zn	0.10698	0.11645	0.84238	1.25
Mof_Zn	Zn	0.17757	0.06404	0.8982	1.195
Mof_O 	O 	0.8918	0.8936	0.2886	-0.463
Mof_O 	O 	0.0359	0.1171	0.8451	-0.448
Mof_O 	O 	0.6159	0.3298	0.1578	-0.439
Mof_O 	O 	0.8871	0.8742	0.3974	-0.45
Mof_O 	O 	0.3247	0.6124	0.6614	-0.472
Mof_O 	O 	0.0012	0.1657	0.82881	-0.48
Mof_O 	O 	0.8672	0.9182	0.4326	-0.492
Mof_O 	O 	0.1002	0.0625	0.8517	-0.46
Mof_O 	O 	0.16	0.0288	0.8621	-0.495
Mof_O 	O 	0.9496	0.872	0.25768	-0.497
Mof_O 	O 	0.5887	0.3011	0.2046	-0.483
Mof_O 	O 	0.2827	0.6037	0.615	-0.505
Mof_C 	C 	0.0074	0.1412	0.8512	0.408
Mof_C 	C 	0.9778	0.14	0.88256	-0.187
Mof_C 	C 	0.9496	0.168	0.89092	0.124
Mof_H 	H 	0.9487	0.1878	0.8763	0.004
Mof_C 	C 	0.9228	0.1666	0.9211	-0.207
Mof_H 	H 	0.904	0.1854	0.9267	0.12
Mof_C 	C 	0.9242	0.137	0.94301	0.191
Mof_C 	C 	0.9524	0.109	0.9346	-0.203
Mof_H 	H 	0.9534	0.0892	0.9493	0.111
Mof_C 	C 	0.9792	0.1104	0.9044	0.12
Mof_H 	H 	0.9981	0.0916	0.8988	0.003
Mof_N 	N 	0.8981	0.1347	0.97338	-0.113
Mof_C 	C 	0.9021	0.1172	0.0044	0.024
Mof_H 	H 	0.9234	0.1	0.0096	0.027
Mof_C 	C 	0.8698	0.129	0.0265	0.02
Mof_N 	N 	0.8459	0.1539	0.0092	-0.073
Mof_N 	N 	0.8633	0.1573	0.9764	-0.044
Mof_C 	C 	0.8558	0.1177	0.06061	0.089
Mof_C 	C 	0.8718	0.0864	0.0752	-0.144
Mof_H 	H 	0.8914	0.0722	0.0623	0.092
Mof_C 	C 	0.8586	0.0764	0.1092	0.086
Mof_C 	C 	0.8294	0.0977	0.12851	-0.142
Mof_H 	H 	0.8206	0.091	0.1512	0.093
Mof_C 	C 	0.8133	0.1289	0.1139	0.087
Mof_C 	C 	0.8265	0.1389	0.0799	-0.143
Mof_H 	H 	0.8158	0.1598	0.0701	0.094
Mof_C 	C 	0.874	0.0409	0.124	0.024
Mof_N 	N 	0.9028	0.021	0.1047	-0.076
Mof_N 	N 	0.9163	0.9936	0.1251	-0.045
Mof_N 	N 	0.8958	0.9966	0.1571	-0.116
Mof_C 	C 	0.8696	0.0258	0.1564	0.022
Mof_H 	H 	0.8518	0.034	0.1749	0.029
Mof_C 	C 	0.9	0.9712	0.18214	0.206
Mof_C 	C 	0.9376	0.9493	0.18188	-0.221
Mof_H 	H 	0.9594	0.952	0.1644	0.129
Mof_C 	C 	0.9425	0.9235	0.2078	0.141
Mof_H 	H 	0.9677	0.9089	0.2076	-0.002
Mof_C 	C 	0.91	0.9195	0.234	-0.203
Mof_C 	C 	0.8724	0.9414	0.2342	0.138
Mof_H 	H 	0.8506	0.9387	0.2518	0.001
Mof_C 	C 	0.8674	0.9672	0.2083	-0.22
Mof_H 	H 	0.8423	0.9818	0.2085	0.115
Mof_C 	C 	0.9172	0.8943	0.2629	0.439
Mof_C 	C 	0.7826	0.151	0.135	0.021
Mof_C 	C 	0.7604	0.1822	0.1281	0.017
Mof_H 	H 	0.7631	0.1957	0.1076	0.028
Mof_N 	N 	0.7334	0.1897	0.1569	-0.113
Mof_N 	N 	0.7389	0.1632	0.1814	-0.045
Mof_N 	N 	0.7693	0.1393	0.168	-0.075
Mof_C 	C 	0.7054	0.2175	0.1615	0.193
Mof_C 	C 	0.6808	0.2185	0.1929	-0.202
Mof_H 	H 	0.6838	0.2005	0.2095	0.121
Mof_C 	C 	0.6517	0.2465	0.1995	0.117
Mof_H 	H 	0.6353	0.2472	0.2205	0.008
Mof_C 	C 	0.6472	0.2734	0.1747	-0.173
Mof_C 	C 	0.6717	0.2724	0.1433	0.111
Mof_H 	H 	0.6687	0.2904	0.1267	0.015
Mof_C 	C 	0.7008	0.2444	0.1367	-0.2
Mof_H 	H 	0.7173	0.2437	0.1157	0.108
Mof_C 	C 	0.6144	0.3029	0.1785	0.412
Mof_C 	C 	0.1232	0.0353	0.8462	0.407
Mof_C 	C 	0.1106	0.0099	0.8181	-0.178
Mof_C 	C 	0.1415	0.9848	0.8068	0.115
Mof_H 	H 	0.1693	0.9829	0.818	0.003
Mof_C 	C 	0.1309	0.9625	0.7786	-0.203
Mof_H 	H 	0.1516	0.9457	0.7711	0.107
Mof_C 	C 	0.0894	0.9653	0.7618	0.182
Mof_C 	C 	0.0585	0.9905	0.7732	-0.192
Mof_H 	H 	0.0308	0.9924	0.7619	0.114
Mof_C 	C 	0.0691	0.0127	0.8013	0.115
Mof_H 	H 	0.0484	0.0295	0.8089	0.008
Mof_N 	N 	0.0793	0.9408	0.7351	-0.111
Mof_C 	C 	0.0956	0.9106	0.724	0.018
Mof_H 	H 	0.1192	0.8982	0.7342	0.029
Mof_C 	C 	0.0727	0.901	0.6959	0.024
Mof_N 	N 	0.0422	0.9252	0.6896	-0.072
Mof_N 	N 	0.0462	0.9499	0.7139	-0.042
Mof_C 	C 	0.0767	0.8693	0.6746	0.084
Mof_C 	C 	0.1034	0.8413	0.6856	-0.139
Mof_H 	H 	0.1181	0.8423	0.7074	0.094
Mof_C 	C 	0.1083	0.8117	0.6642	0.084
Mof_C 	C 	0.0863	0.8101	0.6316	-0.139
Mof_H 	H 	0.0896	0.7903	0.6172	0.091
Mof_C 	C 	0.0596	0.8381	0.6205	0.082
Mof_C 	C 	0.0547	0.8677	0.642	-0.139
Mof_H 	H 	0.0368	0.8864	0.6346	0.093
Mof_N 	N 	0.1581	0.7802	0.7065	-0.071
Mof_N 	N 	0.1856	0.7514	0.7072	-0.045
Mof_N 	N 	0.1845	0.7361	0.6745	-0.11
Mof_C 	C 	0.1565	0.7554	0.6535	0.012
Mof_H 	H 	0.1497	0.7508	0.6299	0.029
Mof_C 	C 	0.1402	0.7827	0.6733	0.027
Mof_C 	C 	0.2047	0.7035	0.668	0.184
Mof_C 	C 	0.2021	0.6856	0.6359	-0.206
Mof_H 	H 	0.1804	0.692	0.6192	0.106
Mof_C 	C 	0.2317	0.6582	0.6286	0.118
Mof_H 	H 	0.23	0.6462	0.6071	0.006
Mof_C 	C 	0.2641	0.6486	0.6535	-0.187
Mof_C 	C 	0.2667	0.6666	0.6857	0.125
Mof_H 	H 	0.2884	0.6602	0.7023	0.004
Mof_C 	C 	0.2371	0.694	0.6929	-0.203
Mof_H 	H 	0.2388	0.706	0.7144	0.122
Mof_C 	C 	0.2885	0.6159	0.6453	0.441
Mof_C 	C 	0.0371	0.8354	0.5842	0.03
Mof_C 	C 	0.0126	0.8577	0.5675	0.018
Mof_H 	H 	0.0047	0.8801	0.5754	0.027
Mof_N 	N 	0.0008	0.8436	0.538	-0.11
Mof_N 	N 	0.0179	0.8126	0.5365	-0.041
Mof_N 	N 	0.0405	0.8076	0.5651	-0.077
Mof_C 	C 	0.9731	0.8548	0.5094	0.18
Mof_C 	C 	0.9669	0.8337	0.4796	-0.204
Mof_H 	H 	0.9812	0.8119	0.4781	0.118
Mof_C 	C 	0.9395	0.8451	0.452	0.126
Mof_H 	H 	0.9353	0.831	0.4321	0.004
Mof_C 	C 	0.9182	0.8777	0.4542	-0.198
Mof_C 	C 	0.9244	0.8989	0.484	0.125
Mof_H 	H 	0.9102	0.9207	0.4855	-0.004
Mof_C 	C 	0.9519	0.8874	0.5116	-0.211
Mof_H 	H 	0.956	0.9015	0.5315	0.106
Mof_C 	C 	0.8917	0.8912	0.4249	0.429
Mof_Zn	Zn	0.46319	0.33089	0.28633	1.23
Mof_Zn	Zn	0.39302	0.38355	0.34238	1.25
Mof_Zn	Zn	0.32243	0.43596	0.3982	1.195
Mof_O 	O 	0.6082	0.6064	0.7886	-0.463
Mof_O 	O 	0.4641	0.3829	0.3451	-0.448
Mof_O 	O 	0.8841	0.1702	0.6578	-0.439
Mof_O 	O 	0.6129	0.6258	0.8974	-0.45
Mof_O 	O 	0.1753	0.8876	0.1614	-0.472
Mof_O 	O 	0.4988	0.3343	0.32881	-0.48
Mof_O 	O 	0.6328	0.5818	0.9326	-0.492
Mof_O 	O 	0.3998	0.4375	0.3517	-0.461
Mof_O 	O 	0.34	0.4712	0.3621	-0.495
Mof_O 	O 	0.5504	0.628	0.75768	-0.496
Mof_O 	O 	0.9113	0.1989	0.7046	-0.483
Mof_O 	O 	0.2173	0.8963	0.115	-0.505
Mof_C 	C 	0.4926	0.3588	0.3512	0.404
Mof_C 	C 	0.5222	0.36	0.38256	-0.182
Mof_C 	C 	0.5504	0.332	0.39092	0.121
Mof_H 	H 	0.5513	0.3122	0.3763	0.006
Mof_C 	C 	0.5772	0.3334	0.4211	-0.204
Mof_H 	H 	0.596	0.3146	0.4267	0.119
Mof_C 	C 	0.5758	0.363	0.44301	0.189
Mof_C 	C 	0.5476	0.391	0.4346	-0.201
Mof_H 	H 	0.5466	0.4108	0.4493	0.11
Mof_C 	C 	0.5208	0.3896	0.4044	0.117
Mof_H 	H 	0.5019	0.4084	0.3988	0.005
Mof_N 	N 	0.6019	0.3653	0.47338	-0.112
Mof_C 	C 	0.5979	0.3828	0.5044	0.024
Mof_H 	H 	0.5766	0.4	0.5096	0.028
Mof_C 	C 	0.6302	0.371	0.5265	0.02
Mof_N 	N 	0.6541	0.3461	0.5092	-0.073
Mof_N 	N 	0.6367	0.3427	0.4764	-0.044
Mof_C 	C 	0.6442	0.3823	0.56061	0.089
Mof_C 	C 	0.6282	0.4136	0.5752	-0.144
Mof_H 	H 	0.6086	0.4278	0.5623	0.092
Mof_C 	C 	0.6414	0.4236	0.6092	0.086
Mof_C 	C 	0.6706	0.4023	0.62851	-0.142
Mof_H 	H 	0.6794	0.409	0.6512	0.093
Mof_C 	C 	0.6867	0.3711	0.6139	0.087
Mof_C 	C 	0.6735	0.3611	0.5799	-0.143
Mof_H 	H 	0.6842	0.3402	0.5701	0.094
Mof_C 	C 	0.626	0.4591	0.624	0.024
Mof_N 	N 	0.5972	0.479	0.6047	-0.076
Mof_N 	N 	0.5837	0.5064	0.6251	-0.044
Mof_N 	N 	0.6042	0.5034	0.6571	-0.116
Mof_C 	C 	0.6304	0.4742	0.6564	0.022
Mof_H 	H 	0.6482	0.466	0.6749	0.029
Mof_C 	C 	0.6	0.5288	0.68214	0.206
Mof_C 	C 	0.5624	0.5507	0.68188	-0.22
Mof_H 	H 	0.5406	0.548	0.6644	0.129
Mof_C 	C 	0.5575	0.5765	0.7078	0.14
Mof_H 	H 	0.5323	0.5911	0.7076	-0.001
Mof_C 	C 	0.59	0.5805	0.734	-0.202
Mof_C 	C 	0.6276	0.5586	0.7342	0.138
Mof_H 	H 	0.6494	0.5613	0.7518	0.001
Mof_C 	C 	0.6326	0.5328	0.7083	-0.22
Mof_H 	H 	0.6577	0.5182	0.7085	0.115
Mof_C 	C 	0.5828	0.6057	0.7629	0.438
Mof_C 	C 	0.7174	0.349	0.635	0.021
Mof_C 	C 	0.7396	0.3178	0.6281	0.017
Mof_H 	H 	0.7369	0.3043	0.6076	0.028
Mof_N 	N 	0.7666	0.3103	0.6569	-0.113
Mof_N 	N 	0.7611	0.3368	0.6814	-0.045
Mof_N 	N 	0.7307	0.3607	0.668	-0.075
Mof_C 	C 	0.7946	0.2825	0.6615	0.193
Mof_C 	C 	0.8192	0.2815	0.6929	-0.202
Mof_H 	H 	0.8162	0.2995	0.7095	0.12
Mof_C 	C 	0.8483	0.2535	0.6995	0.117
Mof_H 	H 	0.8647	0.2528	0.7205	0.007
Mof_C 	C 	0.8528	0.2266	0.6747	-0.173
Mof_C 	C 	0.8283	0.2276	0.6433	0.111
Mof_H 	H 	0.8313	0.2096	0.6267	0.015
Mof_C 	C 	0.7992	0.2556	0.6367	-0.2
Mof_H 	H 	0.7827	0.2563	0.6157	0.108
Mof_C 	C 	0.8856	0.1971	0.6785	0.412
Mof_C 	C 	0.3768	0.4647	0.3462	0.407
Mof_C 	C 	0.3894	0.4901	0.3181	-0.178
Mof_C 	C 	0.3585	0.5152	0.3068	0.115
Mof_H 	H 	0.3307	0.5171	0.318	0.003
Mof_C 	C 	0.3691	0.5375	0.2786	-0.203
Mof_H 	H 	0.3484	0.5543	0.2711	0.106
Mof_C 	C 	0.4106	0.5347	0.2618	0.182
Mof_C 	C 	0.4415	0.5095	0.2732	-0.192
Mof_H 	H 	0.4692	0.5076	0.2619	0.113
Mof_C 	C 	0.4309	0.4873	0.3013	0.115
Mof_H 	H 	0.4516	0.4705	0.3089	0.007
Mof_N 	N 	0.4207	0.5592	0.2351	-0.111
Mof_C 	C 	0.4044	0.5894	0.224	0.018
Mof_H 	H 	0.3808	0.6018	0.2342	0.029
Mof_C 	C 	0.4273	0.599	0.1959	0.024
Mof_N 	N 	0.4578	0.5748	0.1896	-0.073
Mof_N 	N 	0.4538	0.5501	0.2139	-0.043
Mof_C 	C 	0.4233	0.6307	0.1746	0.084
Mof_C 	C 	0.3966	0.6587	0.1856	-0.139
Mof_H 	H 	0.3819	0.6577	0.2074	0.094
Mof_C 	C 	0.3917	0.6883	0.1642	0.084
Mof_C 	C 	0.4137	0.6899	0.1316	-0.139
Mof_H 	H 	0.4104	0.7097	0.1172	0.091
Mof_C 	C 	0.4404	0.6619	0.1205	0.081
Mof_C 	C 	0.4453	0.6323	0.142	-0.139
Mof_H 	H 	0.4632	0.6136	0.1346	0.092
Mof_N 	N 	0.3419	0.7198	0.2065	-0.071
Mof_N 	N 	0.3144	0.7486	0.2072	-0.045
Mof_N 	N 	0.3155	0.7639	0.1745	-0.11
Mof_C 	C 	0.3435	0.7446	0.1535	0.012
Mof_H 	H 	0.3503	0.7492	0.1299	0.029
Mof_C 	C 	0.3598	0.7173	0.1733	0.026
Mof_C 	C 	0.2953	0.7965	0.168	0.184
Mof_C 	C 	0.2979	0.8144	0.1359	-0.206
Mof_H 	H 	0.3196	0.808	0.1192	0.105
Mof_C 	C 	0.2683	0.8418	0.1286	0.118
Mof_H 	H 	0.27	0.8538	0.1071	0.006
Mof_C 	C 	0.2359	0.8514	0.1535	-0.187
Mof_C 	C 	0.2333	0.8334	0.1857	0.125
Mof_H 	H 	0.2116	0.8398	0.2023	0.004
Mof_C 	C 	0.2629	0.806	0.1929	-0.203
Mof_H 	H 	0.2612	0.794	0.2144	0.122
Mof_C 	C 	0.2115	0.8841	0.1453	0.44
Mof_C 	C 	0.4629	0.6646	0.0842	0.03
Mof_C 	C 	0.4874	0.6423	0.0675	0.019
Mof_H 	H 	0.4953	0.6199	0.0754	0.026
Mof_N 	N 	0.4992	0.6564	0.038	-0.112
Mof_N 	N 	0.4821	0.6874	0.0365	-0.041
Mof_N 	N 	0.4595	0.6924	0.0651	-0.077
Mof_C 	C 	0.5269	0.6452	0.0094	0.184
Mof_C 	C 	0.5331	0.6663	0.9796	-0.206
Mof_H 	H 	0.5188	0.6881	0.9781	0.12
Mof_C 	C 	0.5605	0.6549	0.952	0.129
Mof_H 	H 	0.5647	0.669	0.9321	0.004
Mof_C 	C 	0.5818	0.6223	0.9542	-0.199
Mof_C 	C 	0.5756	0.6011	0.984	0.127
Mof_H 	H 	0.5898	0.5793	0.9855	-0.004
Mof_C 	C 	0.5481	0.6126	0.0116	-0.213
Mof_H 	H 	0.544	0.5985	0.0315	0.107
Mof_C 	C 	0.6083	0.6088	0.9249	0.43
Mof_Zn	Zn	0.96319	0.83089	0.28633	1.229
Mof_Zn	Zn	0.89302	0.88355	0.34238	1.25
Mof_Zn	Zn	0.82243	0.93596	0.3982	1.195
Mof_O 	O 	0.1082	0.1064	0.7886	-0.463
Mof_O 	O 	0.9641	0.8829	0.3451	-0.448
Mof_O 	O 	0.3841	0.6702	0.6578	-0.439
Mof_O 	O 	0.1129	0.1258	0.8974	-0.45
Mof_O 	O 	0.6753	0.3876	0.1614	-0.472
Mof_O 	O 	0.9988	0.8343	0.32881	-0.481
Mof_O 	O 	0.1328	0.0818	0.9326	-0.492
Mof_O 	O 	0.8998	0.9375	0.3517	-0.461
Mof_O 	O 	0.84	0.9712	0.3621	-0.495
Mof_O 	O 	0.0504	0.128	0.75768	-0.495
Mof_O 	O 	0.4113	0.6989	0.7046	-0.483
Mof_O 	O 	0.7173	0.3963	0.115	-0.505
Mof_C 	C 	0.9926	0.8588	0.3512	0.399
Mof_C 	C 	0.0222	0.86	0.38256	-0.176
Mof_C 	C 	0.0504	0.832	0.39092	0.118
Mof_H 	H 	0.0513	0.8122	0.3763	0.008
Mof_C 	C 	0.0772	0.8334	0.4211	-0.202
Mof_H 	H 	0.096	0.8146	0.4267	0.119
Mof_C 	C 	0.0758	0.863	0.44301	0.188
Mof_C 	C 	0.0476	0.891	0.4346	-0.198
Mof_H 	H 	0.0466	0.9108	0.4493	0.11
Mof_C 	C 	0.0208	0.8896	0.4044	0.114
Mof_H 	H 	0.0019	0.9084	0.3988	0.008
Mof_N 	N 	0.1019	0.8653	0.47338	-0.112
Mof_C 	C 	0.0979	0.8828	0.5044	0.024
Mof_H 	H 	0.0766	0.9	0.5096	0.028
Mof_C 	C 	0.1302	0.871	0.5265	0.02
Mof_N 	N 	0.1541	0.8461	0.5092	-0.073
Mof_N 	N 	0.1367	0.8427	0.4764	-0.044
Mof_C 	C 	0.1442	0.8823	0.56061	0.089
Mof_C 	C 	0.1282	0.9136	0.5752	-0.144
Mof_H 	H 	0.1086	0.9278	0.5623	0.093
Mof_C 	C 	0.1414	0.9236	0.6092	0.086
Mof_C 	C 	0.1706	0.9023	0.62851	-0.142
Mof_H 	H 	0.1794	0.909	0.6512	0.093
Mof_C 	C 	0.1867	0.8711	0.6139	0.087
Mof_C 	C 	0.1735	0.8611	0.5799	-0.143
Mof_H 	H 	0.1842	0.8402	0.5701	0.094
Mof_C 	C 	0.126	0.9591	0.624	0.024
Mof_N 	N 	0.0972	0.979	0.6047	-0.076
Mof_N 	N 	0.0837	0.0064	0.6251	-0.044
Mof_N 	N 	0.1042	0.0034	0.6571	-0.116
Mof_C 	C 	0.1304	0.9742	0.6564	0.022
Mof_H 	H 	0.1482	0.966	0.6749	0.029
Mof_C 	C 	0.1	0.0288	0.68214	0.206
Mof_C 	C 	0.0624	0.0507	0.68188	-0.22
Mof_H 	H 	0.0406	0.048	0.6644	0.13
Mof_C 	C 	0.0575	0.0765	0.7078	0.14
Mof_H 	H 	0.0323	0.0911	0.7076	-0
Mof_C 	C 	0.09	0.0805	0.734	-0.202
Mof_C 	C 	0.1276	0.0586	0.7342	0.137
Mof_H 	H 	0.1494	0.0613	0.7518	0.001
Mof_C 	C 	0.1326	0.0328	0.7083	-0.22
Mof_H 	H 	0.1577	0.0182	0.7085	0.115
Mof_C 	C 	0.0828	0.1057	0.7629	0.438
Mof_C 	C 	0.2174	0.849	0.635	0.021
Mof_C 	C 	0.2396	0.8178	0.6281	0.017
Mof_H 	H 	0.2369	0.8043	0.6076	0.028
Mof_N 	N 	0.2666	0.8103	0.6569	-0.113
Mof_N 	N 	0.2611	0.8368	0.6814	-0.045
Mof_N 	N 	0.2307	0.8607	0.668	-0.075
Mof_C 	C 	0.2946	0.7825	0.6615	0.193
Mof_C 	C 	0.3192	0.7815	0.6929	-0.202
Mof_H 	H 	0.3162	0.7995	0.7095	0.121
Mof_C 	C 	0.3483	0.7535	0.6995	0.117
Mof_H 	H 	0.3647	0.7528	0.7205	0.008
Mof_C 	C 	0.3528	0.7266	0.6747	-0.173
Mof_C 	C 	0.3283	0.7276	0.6433	0.111
Mof_H 	H 	0.3313	0.7096	0.6267	0.015
Mof_C 	C 	0.2992	0.7556	0.6367	-0.2
Mof_H 	H 	0.2827	0.7563	0.6157	0.108
Mof_C 	C 	0.3856	0.6971	0.6785	0.412
Mof_C 	C 	0.8768	0.9647	0.3462	0.407
Mof_C 	C 	0.8894	0.9901	0.3181	-0.178
Mof_C 	C 	0.8585	0.0152	0.3068	0.115
Mof_H 	H 	0.8307	0.0171	0.318	0.003
Mof_C 	C 	0.8691	0.0375	0.2786	-0.203
Mof_H 	H 	0.8484	0.0543	0.2711	0.106
Mof_C 	C 	0.9106	0.0347	0.2618	0.181
Mof_C 	C 	0.9415	0.0095	0.2732	-0.192
Mof_H 	H 	0.9692	0.0076	0.2619	0.112
Mof_C 	C 	0.9309	0.9873	0.3013	0.114
Mof_H 	H 	0.9516	0.9705	0.3089	0.006
Mof_N 	N 	0.9207	0.0592	0.2351	-0.111
Mof_C 	C 	0.9044	0.0894	0.224	0.018
Mof_H 	H 	0.8808	0.1018	0.2342	0.029
Mof_C 	C 	0.9273	0.099	0.1959	0.024
Mof_N 	N 	0.9578	0.0748	0.1896	-0.073
Mof_N 	N 	0.9538	0.0501	0.2139	-0.044
Mof_C 	C 	0.9233	0.1307	0.1746	0.083
Mof_C 	C 	0.8966	0.1587	0.1856	-0.139
Mof_H 	H 	0.8819	0.1577	0.2074	0.093
Mof_C 	C 	0.8917	0.1883	0.1642	0.084
Mof_C 	C 	0.9137	0.1899	0.1316	-0.139
Mof_H 	H 	0.9104	0.2097	0.1172	0.091
Mof_C 	C 	0.9404	0.1619	0.1205	0.081
Mof_C 	C 	0.9453	0.1323	0.142	-0.138
Mof_H 	H 	0.9632	0.1136	0.1346	0.092
Mof_N 	N 	0.8419	0.2198	0.2065	-0.072
Mof_N 	N 	0.8144	0.2486	0.2072	-0.045
Mof_N 	N 	0.8155	0.2639	0.1745	-0.11
Mof_C 	C 	0.8435	0.2446	0.1535	0.011
Mof_H 	H 	0.8503	0.2492	0.1299	0.029
Mof_C 	C 	0.8598	0.2173	0.1733	0.026
Mof_C 	C 	0.7953	0.2965	0.168	0.183
Mof_C 	C 	0.7979	0.3144	0.1359	-0.206
Mof_H 	H 	0.8196	0.308	0.1192	0.105
Mof_C 	C 	0.7683	0.3418	0.1286	0.118
Mof_H 	H 	0.77	0.3538	0.1071	0.006
Mof_C 	C 	0.7359	0.3514	0.1535	-0.187
Mof_C 	C 	0.7333	0.3334	0.1857	0.125
Mof_H 	H 	0.7116	0.3398	0.2023	0.004
Mof_C 	C 	0.7629	0.306	0.1929	-0.203
Mof_H 	H 	0.7612	0.294	0.2144	0.122
Mof_C 	C 	0.7115	0.3841	0.1453	0.44
Mof_C 	C 	0.9629	0.1646	0.0842	0.029
Mof_C 	C 	0.9874	0.1423	0.0675	0.019
Mof_H 	H 	0.9953	0.1199	0.0754	0.025
Mof_N 	N 	0.9992	0.1564	0.038	-0.114
Mof_N 	N 	0.9821	0.1874	0.0365	-0.042
Mof_N 	N 	0.9595	0.1924	0.0651	-0.077
Mof_C 	C 	0.0269	0.1452	0.0094	0.189
Mof_C 	C 	0.0331	0.1663	0.9796	-0.208
Mof_H 	H 	0.0188	0.1881	0.9781	0.122
Mof_C 	C 	0.0605	0.1549	0.952	0.131
Mof_H 	H 	0.0647	0.169	0.9321	0.003
Mof_C 	C 	0.0818	0.1223	0.9542	-0.2
Mof_C 	C 	0.0756	0.1011	0.984	0.13
Mof_H 	H 	0.0898	0.0793	0.9855	-0.005
Mof_C 	C 	0.0481	0.1126	0.0116	-0.215
Mof_H 	H 	0.044	0.0985	0.0315	0.109
Mof_C 	C 	0.1083	0.1088	0.9249	0.43
Mof_Zn	Zn	0.46319	0.66911	0.71367	1.23
Mof_Zn	Zn	0.39302	0.61645	0.65762	1.25
Mof_Zn	Zn	0.32243	0.56404	0.6018	1.195
Mof_O 	O 	0.6082	0.3936	0.2114	-0.463
Mof_O 	O 	0.4641	0.6171	0.6549	-0.448
Mof_O 	O 	0.8841	0.8298	0.3422	-0.439
Mof_O 	O 	0.6129	0.3742	0.1026	-0.45
Mof_O 	O 	0.1753	0.1124	0.8386	-0.472
Mof_O 	O 	0.4988	0.6657	0.67119	-0.48
Mof_O 	O 	0.6328	0.4182	0.0674	-0.492
Mof_O 	O 	0.3998	0.5625	0.6483	-0.461
Mof_O 	O 	0.34	0.5288	0.6379	-0.495
Mof_O 	O 	0.5504	0.372	0.24232	-0.496
Mof_O 	O 	0.9113	0.8011	0.2954	-0.483
Mof_O 	O 	0.2173	0.1037	0.885	-0.505
Mof_C 	C 	0.4926	0.6412	0.6488	0.404
Mof_C 	C 	0.5222	0.64	0.61744	-0.182
Mof_C 	C 	0.5504	0.668	0.60908	0.121
Mof_H 	H 	0.5513	0.6878	0.6237	0.006
Mof_C 	C 	0.5772	0.6666	0.5789	-0.204
Mof_H 	H 	0.596	0.6854	0.5733	0.119
Mof_C 	C 	0.5758	0.637	0.55699	0.189
Mof_C 	C 	0.5476	0.609	0.5654	-0.201
Mof_H 	H 	0.5466	0.5892	0.5507	0.11
Mof_C 	C 	0.5208	0.6104	0.5956	0.117
Mof_H 	H 	0.5019	0.5916	0.6012	0.005
Mof_N 	N 	0.6019	0.6347	0.52662	-0.112
Mof_C 	C 	0.5979	0.6172	0.4956	0.024
Mof_H 	H 	0.5766	0.6	0.4904	0.028
Mof_C 	C 	0.6302	0.629	0.4735	0.02
Mof_N 	N 	0.6541	0.6539	0.4908	-0.073
Mof_N 	N 	0.6367	0.6573	0.5236	-0.044
Mof_C 	C 	0.6442	0.6177	0.43939	0.089
Mof_C 	C 	0.6282	0.5864	0.4248	-0.144
Mof_H 	H 	0.6086	0.5722	0.4377	0.092
Mof_C 	C 	0.6414	0.5764	0.3908	0.086
Mof_C 	C 	0.6706	0.5977	0.37149	-0.142
Mof_H 	H 	0.6794	0.591	0.3488	0.093
Mof_C 	C 	0.6867	0.6289	0.3861	0.087
Mof_C 	C 	0.6735	0.6389	0.4201	-0.143
Mof_H 	H 	0.6842	0.6598	0.4299	0.094
Mof_C 	C 	0.626	0.5409	0.376	0.024
Mof_N 	N 	0.5972	0.521	0.3953	-0.076
Mof_N 	N 	0.5837	0.4936	0.3749	-0.044
Mof_N 	N 	0.6042	0.4966	0.3429	-0.116
Mof_C 	C 	0.6304	0.5258	0.3436	0.022
Mof_H 	H 	0.6482	0.534	0.3251	0.029
Mof_C 	C 	0.6	0.4712	0.31786	0.206
Mof_C 	C 	0.5624	0.4493	0.31812	-0.22
Mof_H 	H 	0.5406	0.452	0.3356	0.129
Mof_C 	C 	0.5575	0.4235	0.2922	0.14
Mof_H 	H 	0.5323	0.4089	0.2924	-0.001
Mof_C 	C 	0.59	0.4195	0.266	-0.202
Mof_C 	C 	0.6276	0.4414	0.2658	0.138
Mof_H 	H 	0.6494	0.4387	0.2482	0.001
Mof_C 	C 	0.6326	0.4672	0.2917	-0.22
Mof_H 	H 	0.6577	0.4818	0.2915	0.115
Mof_C 	C 	0.5828	0.3943	0.2371	0.438
Mof_C 	C 	0.7174	0.651	0.365	0.021
Mof_C 	C 	0.7396	0.6822	0.3719	0.017
Mof_H 	H 	0.7369	0.6957	0.3924	0.028
Mof_N 	N 	0.7666	0.6897	0.3431	-0.113
Mof_N 	N 	0.7611	0.6632	0.3186	-0.045
Mof_N 	N 	0.7307	0.6393	0.332	-0.075
Mof_C 	C 	0.7946	0.7175	0.3385	0.193
Mof_C 	C 	0.8192	0.7185	0.3071	-0.202
Mof_H 	H 	0.8162	0.7005	0.2905	0.12
Mof_C 	C 	0.8483	0.7465	0.3005	0.117
Mof_H 	H 	0.8647	0.7472	0.2795	0.007
Mof_C 	C 	0.8528	0.7734	0.3253	-0.173
Mof_C 	C 	0.8283	0.7724	0.3567	0.111
Mof_H 	H 	0.8313	0.7904	0.3733	0.015
Mof_C 	C 	0.7992	0.7444	0.3633	-0.2
Mof_H 	H 	0.7827	0.7437	0.3843	0.108
Mof_C 	C 	0.8856	0.8029	0.3215	0.412
Mof_C 	C 	0.3768	0.5353	0.6538	0.407
Mof_C 	C 	0.3894	0.5099	0.6819	-0.178
Mof_C 	C 	0.3585	0.4848	0.6932	0.115
Mof_H 	H 	0.3307	0.4829	0.682	0.003
Mof_C 	C 	0.3691	0.4625	0.7214	-0.203
Mof_H 	H 	0.3484	0.4457	0.7289	0.106
Mof_C 	C 	0.4106	0.4653	0.7382	0.182
Mof_C 	C 	0.4415	0.4905	0.7268	-0.192
Mof_H 	H 	0.4692	0.4924	0.7381	0.113
Mof_C 	C 	0.4309	0.5127	0.6987	0.115
Mof_H 	H 	0.4516	0.5295	0.6911	0.007
Mof_N 	N 	0.4207	0.4408	0.7649	-0.111
Mof_C 	C 	0.4044	0.4106	0.776	0.018
Mof_H 	H 	0.3808	0.3982	0.7658	0.029
Mof_C 	C 	0.4273	0.401	0.8041	0.024
Mof_N 	N 	0.4578	0.4252	0.8104	-0.073
Mof_N 	N 	0.4538	0.4499	0.7861	-0.043
Mof_C 	C 	0.4233	0.3693	0.8254	0.084
Mof_C 	C 	0.3966	0.3413	0.8144	-0.139
Mof_H 	H 	0.3819	0.3423	0.7926	0.094
Mof_C 	C 	0.3917	0.3117	0.8358	0.084
Mof_C 	C 	0.4137	0.3101	0.8684	-0.139
Mof_H 	H 	0.4104	0.2903	0.8828	0.091
Mof_C 	C 	0.4404	0.3381	0.8795	0.081
Mof_C 	C 	0.4453	0.3677	0.858	-0.139
Mof_H 	H 	0.4632	0.3864	0.8654	0.092
Mof_N 	N 	0.3419	0.2802	0.7935	-0.071
Mof_N 	N 	0.3144	0.2514	0.7928	-0.045
Mof_N 	N 	0.3155	0.2361	0.8255	-0.11
Mof_C 	C 	0.3435	0.2554	0.8465	0.012
Mof_H 	H 	0.3503	0.2508	0.8701	0.029
Mof_C 	C 	0.3598	0.2827	0.8267	0.026
Mof_C 	C 	0.2953	0.2035	0.832	0.184
Mof_C 	C 	0.2979	0.1856	0.8641	-0.206
Mof_H 	H 	0.3196	0.192	0.8808	0.105
Mof_C 	C 	0.2683	0.1582	0.8714	0.118
Mof_H 	H 	0.27	0.1462	0.8929	0.006
Mof_C 	C 	0.2359	0.1486	0.8465	-0.187
Mof_C 	C 	0.2333	0.1666	0.8143	0.125
Mof_H 	H 	0.2116	0.1602	0.7977	0.004
Mof_C 	C 	0.2629	0.194	0.8071	-0.203
Mof_H 	H 	0.2612	0.206	0.7856	0.122
Mof_C 	C 	0.2115	0.1159	0.8547	0.44
Mof_C 	C 	0.4629	0.3354	0.9158	0.03
Mof_C 	C 	0.4874	0.3577	0.9325	0.019
Mof_H 	H 	0.4953	0.3801	0.9246	0.026
Mof_N 	N 	0.4992	0.3436	0.962	-0.112
Mof_N 	N 	0.4821	0.3126	0.9635	-0.041
Mof_N 	N 	0.4595	0.3076	0.9349	-0.077
Mof_C 	C 	0.5269	0.3548	0.9906	0.184
Mof_C 	C 	0.5331	0.3337	0.0204	-0.206
Mof_H 	H 	0.5188	0.3119	0.0219	0.12
Mof_C 	C 	0.5605	0.3451	0.048	0.129
Mof_H 	H 	0.5647	0.331	0.0679	0.004
Mof_C 	C 	0.5818	0.3777	0.0458	-0.199
Mof_C 	C 	0.5756	0.3989	0.016	0.127
Mof_H 	H 	0.5898	0.4207	0.0145	-0.004
Mof_C 	C 	0.5481	0.3874	0.9884	-0.213
Mof_H 	H 	0.544	0.4015	0.9685	0.107
Mof_C 	C 	0.6083	0.3912	0.0751	0.43
Mof_Zn	Zn	0.96319	0.16911	0.71367	1.229
Mof_Zn	Zn	0.89302	0.11645	0.65762	1.25
Mof_Zn	Zn	0.82243	0.06404	0.6018	1.195
Mof_O 	O 	0.1082	0.8936	0.2114	-0.463
Mof_O 	O 	0.9641	0.1171	0.6549	-0.448
Mof_O 	O 	0.3841	0.3298	0.3422	-0.439
Mof_O 	O 	0.1129	0.8742	0.1026	-0.45
Mof_O 	O 	0.6753	0.6124	0.8386	-0.472
Mof_O 	O 	0.9988	0.1657	0.67119	-0.481
Mof_O 	O 	0.1328	0.9182	0.0674	-0.492
Mof_O 	O 	0.8998	0.0625	0.6483	-0.461
Mof_O 	O 	0.84	0.0288	0.6379	-0.495
Mof_O 	O 	0.0504	0.872	0.24232	-0.495
Mof_O 	O 	0.4113	0.3011	0.2954	-0.483
Mof_O 	O 	0.7173	0.6037	0.885	-0.505
Mof_C 	C 	0.9926	0.1412	0.6488	0.399
Mof_C 	C 	0.0222	0.14	0.61744	-0.176
Mof_C 	C 	0.0504	0.168	0.60908	0.118
Mof_H 	H 	0.0513	0.1878	0.6237	0.008
Mof_C 	C 	0.0772	0.1666	0.5789	-0.202
Mof_H 	H 	0.096	0.1854	0.5733	0.119
Mof_C 	C 	0.0758	0.137	0.55699	0.188
Mof_C 	C 	0.0476	0.109	0.5654	-0.198
Mof_H 	H 	0.0466	0.0892	0.5507	0.11
Mof_C 	C 	0.0208	0.1104	0.5956	0.114
Mof_H 	H 	0.0019	0.0916	0.6012	0.008
Mof_N 	N 	0.1019	0.1347	0.52662	-0.112
Mof_C 	C 	0.0979	0.1172	0.4956	0.024
Mof_H 	H 	0.0766	0.1	0.4904	0.028
Mof_C 	C 	0.1302	0.129	0.4735	0.02
Mof_N 	N 	0.1541	0.1539	0.4908	-0.073
Mof_N 	N 	0.1367	0.1573	0.5236	-0.044
Mof_C 	C 	0.1442	0.1177	0.43939	0.089
Mof_C 	C 	0.1282	0.0864	0.4248	-0.144
Mof_H 	H 	0.1086	0.0722	0.4377	0.093
Mof_C 	C 	0.1414	0.0764	0.3908	0.086
Mof_C 	C 	0.1706	0.0977	0.37149	-0.142
Mof_H 	H 	0.1794	0.091	0.3488	0.093
Mof_C 	C 	0.1867	0.1289	0.3861	0.087
Mof_C 	C 	0.1735	0.1389	0.4201	-0.143
Mof_H 	H 	0.1842	0.1598	0.4299	0.094
Mof_C 	C 	0.126	0.0409	0.376	0.024
Mof_N 	N 	0.0972	0.021	0.3953	-0.076
Mof_N 	N 	0.0837	0.9936	0.3749	-0.044
Mof_N 	N 	0.1042	0.9966	0.3429	-0.116
Mof_C 	C 	0.1304	0.0258	0.3436	0.022
Mof_H 	H 	0.1482	0.034	0.3251	0.029
Mof_C 	C 	0.1	0.9712	0.31786	0.206
Mof_C 	C 	0.0624	0.9493	0.31812	-0.22
Mof_H 	H 	0.0406	0.952	0.3356	0.13
Mof_C 	C 	0.0575	0.9235	0.2922	0.14
Mof_H 	H 	0.0323	0.9089	0.2924	-0
Mof_C 	C 	0.09	0.9195	0.266	-0.202
Mof_C 	C 	0.1276	0.9414	0.2658	0.137
Mof_H 	H 	0.1494	0.9387	0.2482	0.001
Mof_C 	C 	0.1326	0.9672	0.2917	-0.22
Mof_H 	H 	0.1577	0.9818	0.2915	0.115
Mof_C 	C 	0.0828	0.8943	0.2371	0.438
Mof_C 	C 	0.2174	0.151	0.365	0.021
Mof_C 	C 	0.2396	0.1822	0.3719	0.017
Mof_H 	H 	0.2369	0.1957	0.3924	0.028
Mof_N 	N 	0.2666	0.1897	0.3431	-0.113
Mof_N 	N 	0.2611	0.1632	0.3186	-0.045
Mof_N 	N 	0.2307	0.1393	0.332	-0.075
Mof_C 	C 	0.2946	0.2175	0.3385	0.193
Mof_C 	C 	0.3192	0.2185	0.3071	-0.202
Mof_H 	H 	0.3162	0.2005	0.2905	0.121
Mof_C 	C 	0.3483	0.2465	0.3005	0.117
Mof_H 	H 	0.3647	0.2472	0.2795	0.008
Mof_C 	C 	0.3528	0.2734	0.3253	-0.173
Mof_C 	C 	0.3283	0.2724	0.3567	0.111
Mof_H 	H 	0.3313	0.2904	0.3733	0.015
Mof_C 	C 	0.2992	0.2444	0.3633	-0.2
Mof_H 	H 	0.2827	0.2437	0.3843	0.108
Mof_C 	C 	0.3856	0.3029	0.3215	0.412
Mof_C 	C 	0.8768	0.0353	0.6538	0.407
Mof_C 	C 	0.8894	0.0099	0.6819	-0.178
Mof_C 	C 	0.8585	0.9848	0.6932	0.115
Mof_H 	H 	0.8307	0.9829	0.682	0.003
Mof_C 	C 	0.8691	0.9625	0.7214	-0.203
Mof_H 	H 	0.8484	0.9457	0.7289	0.106
Mof_C 	C 	0.9106	0.9653	0.7382	0.181
Mof_C 	C 	0.9415	0.9905	0.7268	-0.192
Mof_H 	H 	0.9692	0.9924	0.7381	0.112
Mof_C 	C 	0.9309	0.0127	0.6987	0.114
Mof_H 	H 	0.9516	0.0295	0.6911	0.006
Mof_N 	N 	0.9207	0.9408	0.7649	-0.111
Mof_C 	C 	0.9044	0.9106	0.776	0.018
Mof_H 	H 	0.8808	0.8982	0.7658	0.029
Mof_C 	C 	0.9273	0.901	0.8041	0.024
Mof_N 	N 	0.9578	0.9252	0.8104	-0.073
Mof_N 	N 	0.9538	0.9499	0.7861	-0.044
Mof_C 	C 	0.9233	0.8693	0.8254	0.083
Mof_C 	C 	0.8966	0.8413	0.8144	-0.139
Mof_H 	H 	0.8819	0.8423	0.7926	0.093
Mof_C 	C 	0.8917	0.8117	0.8358	0.084
Mof_C 	C 	0.9137	0.8101	0.8684	-0.139
Mof_H 	H 	0.9104	0.7903	0.8828	0.091
Mof_C 	C 	0.9404	0.8381	0.8795	0.081
Mof_C 	C 	0.9453	0.8677	0.858	-0.138
Mof_H 	H 	0.9632	0.8864	0.8654	0.092
Mof_N 	N 	0.8419	0.7802	0.7935	-0.072
Mof_N 	N 	0.8144	0.7514	0.7928	-0.045
Mof_N 	N 	0.8155	0.7361	0.8255	-0.11
Mof_C 	C 	0.8435	0.7554	0.8465	0.011
Mof_H 	H 	0.8503	0.7508	0.8701	0.029
Mof_C 	C 	0.8598	0.7827	0.8267	0.026
Mof_C 	C 	0.7953	0.7035	0.832	0.183
Mof_C 	C 	0.7979	0.6856	0.8641	-0.206
Mof_H 	H 	0.8196	0.692	0.8808	0.105
Mof_C 	C 	0.7683	0.6582	0.8714	0.118
Mof_H 	H 	0.77	0.6462	0.8929	0.006
Mof_C 	C 	0.7359	0.6486	0.8465	-0.187
Mof_C 	C 	0.7333	0.6666	0.8143	0.125
Mof_H 	H 	0.7116	0.6602	0.7977	0.004
Mof_C 	C 	0.7629	0.694	0.8071	-0.203
Mof_H 	H 	0.7612	0.706	0.7856	0.122
Mof_C 	C 	0.7115	0.6159	0.8547	0.44
Mof_C 	C 	0.9629	0.8354	0.9158	0.029
Mof_C 	C 	0.9874	0.8577	0.9325	0.019
Mof_H 	H 	0.9953	0.8801	0.9246	0.025
Mof_N 	N 	0.9992	0.8436	0.962	-0.114
Mof_N 	N 	0.9821	0.8126	0.9635	-0.042
Mof_N 	N 	0.9595	0.8076	0.9349	-0.077
Mof_C 	C 	0.0269	0.8548	0.9906	0.189
Mof_C 	C 	0.0331	0.8337	0.0204	-0.208
Mof_H 	H 	0.0188	0.8119	0.0219	0.122
Mof_C 	C 	0.0605	0.8451	0.048	0.131
Mof_H 	H 	0.0647	0.831	0.0679	0.003
Mof_C 	C 	0.0818	0.8777	0.0458	-0.2
Mof_C 	C 	0.0756	0.8989	0.016	0.13
Mof_H 	H 	0.0898	0.9207	0.0145	-0.005
Mof_C 	C 	0.0481	0.8874	0.9884	-0.215
Mof_H 	H 	0.044	0.9015	0.9685	0.109
Mof_C 	C 	0.1083	0.8912	0.0751	0.43
Mof_Zn	Zn	0.53681	0.33089	0.21367	1.23
Mof_Zn	Zn	0.60698	0.38355	0.15762	1.25
Mof_Zn	Zn	0.67757	0.43596	0.1018	1.195
Mof_O 	O 	0.3918	0.6064	0.7114	-0.463
Mof_O 	O 	0.5359	0.3829	0.1549	-0.448
Mof_O 	O 	0.1159	0.1702	0.8422	-0.438
Mof_O 	O 	0.3871	0.6258	0.6026	-0.45
Mof_O 	O 	0.8247	0.8876	0.3386	-0.472
Mof_O 	O 	0.5012	0.3343	0.17119	-0.48
Mof_O 	O 	0.3672	0.5818	0.5674	-0.492
Mof_O 	O 	0.6002	0.4375	0.1483	-0.461
Mof_O 	O 	0.66	0.4712	0.1379	-0.495
Mof_O 	O 	0.4496	0.628	0.74232	-0.496
Mof_O 	O 	0.0887	0.1989	0.7954	-0.483
Mof_O 	O 	0.7827	0.8963	0.385	-0.505
Mof_C 	C 	0.5074	0.3588	0.1488	0.404
Mof_C 	C 	0.4778	0.36	0.11744	-0.182
Mof_C 	C 	0.4496	0.332	0.10908	0.121
Mof_H 	H 	0.4487	0.3122	0.1237	0.006
Mof_C 	C 	0.4228	0.3334	0.0789	-0.204
Mof_H 	H 	0.404	0.3146	0.0733	0.119
Mof_C 	C 	0.4242	0.363	0.05699	0.19
Mof_C 	C 	0.4524	0.391	0.0654	-0.201
Mof_H 	H 	0.4534	0.4108	0.0507	0.11
Mof_C 	C 	0.4792	0.3896	0.0956	0.117
Mof_H 	H 	0.4981	0.4084	0.1012	0.005
Mof_N 	N 	0.3981	0.3653	0.02662	-0.112
Mof_C 	C 	0.4021	0.3828	0.9956	0.024
Mof_H 	H 	0.4234	0.4	0.9904	0.028
Mof_C 	C 	0.3698	0.371	0.9735	0.02
Mof_N 	N 	0.3459	0.3461	0.9908	-0.073
Mof_N 	N 	0.3633	0.3427	0.0236	-0.044
Mof_C 	C 	0.3558	0.3823	0.93939	0.089
Mof_C 	C 	0.3718	0.4136	0.9248	-0.144
Mof_H 	H 	0.3914	0.4278	0.9377	0.092
Mof_C 	C 	0.3586	0.4236	0.8908	0.086
Mof_C 	C 	0.3294	0.4023	0.87149	-0.142
Mof_H 	H 	0.3206	0.409	0.8488	0.093
Mof_C 	C 	0.3133	0.3711	0.8861	0.088
Mof_C 	C 	0.3265	0.3611	0.9201	-0.143
Mof_H 	H 	0.3158	0.3402	0.9299	0.094
Mof_C 	C 	0.374	0.4591	0.876	0.024
Mof_N 	N 	0.4028	0.479	0.8953	-0.076
Mof_N 	N 	0.4163	0.5064	0.8749	-0.044
Mof_N 	N 	0.3958	0.5034	0.8429	-0.116
Mof_C 	C 	0.3696	0.4742	0.8436	0.022
Mof_H 	H 	0.3518	0.466	0.8251	0.029
Mof_C 	C 	0.4	0.5288	0.81786	0.206
Mof_C 	C 	0.4376	0.5507	0.81812	-0.22
Mof_H 	H 	0.4594	0.548	0.8356	0.129
Mof_C 	C 	0.4425	0.5765	0.7922	0.14
Mof_H 	H 	0.4677	0.5911	0.7924	-0.001
Mof_C 	C 	0.41	0.5805	0.766	-0.202
Mof_C 	C 	0.3724	0.5586	0.7658	0.138
Mof_H 	H 	0.3506	0.5613	0.7482	0.001
Mof_C 	C 	0.3674	0.5328	0.7917	-0.22
Mof_H 	H 	0.3423	0.5182	0.7915	0.115
Mof_C 	C 	0.4172	0.6057	0.7371	0.438
Mof_C 	C 	0.2826	0.349	0.865	0.021
Mof_C 	C 	0.2604	0.3178	0.8719	0.017
Mof_H 	H 	0.2631	0.3043	0.8924	0.028
Mof_N 	N 	0.2334	0.3103	0.8431	-0.113
Mof_N 	N 	0.2389	0.3368	0.8186	-0.045
Mof_N 	N 	0.2693	0.3607	0.832	-0.075
Mof_C 	C 	0.2054	0.2825	0.8385	0.193
Mof_C 	C 	0.1808	0.2815	0.8071	-0.202
Mof_H 	H 	0.1838	0.2995	0.7905	0.121
Mof_C 	C 	0.1517	0.2535	0.8005	0.117
Mof_H 	H 	0.1353	0.2528	0.7795	0.008
Mof_C 	C 	0.1472	0.2266	0.8253	-0.173
Mof_C 	C 	0.1717	0.2276	0.8567	0.111
Mof_H 	H 	0.1687	0.2096	0.8733	0.015
Mof_C 	C 	0.2008	0.2556	0.8633	-0.2
Mof_H 	H 	0.2173	0.2563	0.8843	0.108
Mof_C 	C 	0.1144	0.1971	0.8215	0.412
Mof_C 	C 	0.6232	0.4647	0.1538	0.407
Mof_C 	C 	0.6106	0.4901	0.1819	-0.178
Mof_C 	C 	0.6415	0.5152	0.1932	0.115
Mof_H 	H 	0.6693	0.5171	0.182	0.003
Mof_C 	C 	0.6309	0.5375	0.2214	-0.203
Mof_H 	H 	0.6516	0.5543	0.2289	0.106
Mof_C 	C 	0.5894	0.5347	0.2382	0.182
Mof_C 	C 	0.5585	0.5095	0.2268	-0.192
Mof_H 	H 	0.5308	0.5076	0.2381	0.113
Mof_C 	C 	0.5691	0.4873	0.1987	0.115
Mof_H 	H 	0.5484	0.4705	0.1911	0.007
Mof_N 	N 	0.5793	0.5592	0.2649	-0.111
Mof_C 	C 	0.5956	0.5894	0.276	0.018
Mof_H 	H 	0.6192	0.6018	0.2658	0.029
Mof_C 	C 	0.5727	0.599	0.3041	0.024
Mof_N 	N 	0.5422	0.5748	0.3104	-0.073
Mof_N 	N 	0.5462	0.5501	0.2861	-0.043
Mof_C 	C 	0.5767	0.6307	0.3254	0.084
Mof_C 	C 	0.6034	0.6587	0.3144	-0.139
Mof_H 	H 	0.6181	0.6577	0.2926	0.094
Mof_C 	C 	0.6083	0.6883	0.3358	0.084
Mof_C 	C 	0.5863	0.6899	0.3684	-0.139
Mof_H 	H 	0.5896	0.7097	0.3828	0.091
Mof_C 	C 	0.5596	0.6619	0.3795	0.081
Mof_C 	C 	0.5547	0.6323	0.358	-0.139
Mof_H 	H 	0.5368	0.6136	0.3654	0.092
Mof_N 	N 	0.6581	0.7198	0.2935	-0.072
Mof_N 	N 	0.6856	0.7486	0.2928	-0.045
Mof_N 	N 	0.6845	0.7639	0.3255	-0.11
Mof_C 	C 	0.6565	0.7446	0.3465	0.012
Mof_H 	H 	0.6497	0.7492	0.3701	0.029
Mof_C 	C 	0.6402	0.7173	0.3267	0.026
Mof_C 	C 	0.7047	0.7965	0.332	0.184
Mof_C 	C 	0.7021	0.8144	0.3641	-0.206
Mof_H 	H 	0.6804	0.808	0.3808	0.105
Mof_C 	C 	0.7317	0.8418	0.3714	0.118
Mof_H 	H 	0.73	0.8538	0.3929	0.006
Mof_C 	C 	0.7641	0.8514	0.3465	-0.187
Mof_C 	C 	0.7667	0.8334	0.3143	0.125
Mof_H 	H 	0.7884	0.8398	0.2977	0.004
Mof_C 	C 	0.7371	0.806	0.3071	-0.203
Mof_H 	H 	0.7388	0.794	0.2856	0.122
Mof_C 	C 	0.7885	0.8841	0.3547	0.44
Mof_C 	C 	0.5371	0.6646	0.4158	0.03
Mof_C 	C 	0.5126	0.6423	0.4325	0.019
Mof_H 	H 	0.5047	0.6199	0.4246	0.026
Mof_N 	N 	0.5008	0.6564	0.462	-0.112
Mof_N 	N 	0.5179	0.6874	0.4635	-0.041
Mof_N 	N 	0.5405	0.6924	0.4349	-0.077
Mof_C 	C 	0.4731	0.6452	0.4906	0.184
Mof_C 	C 	0.4669	0.6663	0.5204	-0.206
Mof_H 	H 	0.4812	0.6881	0.5219	0.12
Mof_C 	C 	0.4395	0.6549	0.548	0.129
Mof_H 	H 	0.4353	0.669	0.5679	0.004
Mof_C 	C 	0.4182	0.6223	0.5458	-0.199
Mof_C 	C 	0.4244	0.6011	0.516	0.127
Mof_H 	H 	0.4102	0.5793	0.5145	-0.004
Mof_C 	C 	0.4519	0.6126	0.4884	-0.213
Mof_H 	H 	0.456	0.5985	0.4685	0.107
Mof_C 	C 	0.3917	0.6088	0.5751	0.43
Mof_Zn	Zn	0.03681	0.83089	0.21367	1.23
Mof_Zn	Zn	0.10698	0.88355	0.15762	1.25
Mof_Zn	Zn	0.17757	0.93596	0.1018	1.195
Mof_O 	O 	0.8918	0.1064	0.7114	-0.463
Mof_O 	O 	0.0359	0.8829	0.1549	-0.448
Mof_O 	O 	0.6159	0.6702	0.8422	-0.439
Mof_O 	O 	0.8871	0.1258	0.6026	-0.45
Mof_O 	O 	0.3247	0.3876	0.3386	-0.472
Mof_O 	O 	0.0012	0.8343	0.17119	-0.48
Mof_O 	O 	0.8672	0.0818	0.5674	-0.492
Mof_O 	O 	0.1002	0.9375	0.1483	-0.46
Mof_O 	O 	0.16	0.9712	0.1379	-0.495
Mof_O 	O 	0.9496	0.128	0.74232	-0.497
Mof_O 	O 	0.5887	0.6989	0.7954	-0.483
Mof_O 	O 	0.2827	0.3963	0.385	-0.505
Mof_C 	C 	0.0074	0.8588	0.1488	0.408
Mof_C 	C 	0.9778	0.86	0.11744	-0.187
Mof_C 	C 	0.9496	0.832	0.10908	0.124
Mof_H 	H 	0.9487	0.8122	0.1237	0.004
Mof_C 	C 	0.9228	0.8334	0.0789	-0.207
Mof_H 	H 	0.904	0.8146	0.0733	0.12
Mof_C 	C 	0.9242	0.863	0.05699	0.191
Mof_C 	C 	0.9524	0.891	0.0654	-0.203
Mof_H 	H 	0.9534	0.9108	0.0507	0.111
Mof_C 	C 	0.9792	0.8896	0.0956	0.12
Mof_H 	H 	0.9981	0.9084	0.1012	0.003
Mof_N 	N 	0.8981	0.8653	0.02662	-0.113
Mof_C 	C 	0.9021	0.8828	0.9956	0.024
Mof_H 	H 	0.9234	0.9	0.9904	0.027
Mof_C 	C 	0.8698	0.871	0.9735	0.02
Mof_N 	N 	0.8459	0.8461	0.9908	-0.073
Mof_N 	N 	0.8633	0.8427	0.0236	-0.044
Mof_C 	C 	0.8558	0.8823	0.93939	0.089
Mof_C 	C 	0.8718	0.9136	0.9248	-0.144
Mof_H 	H 	0.8914	0.9278	0.9377	0.092
Mof_C 	C 	0.8586	0.9236	0.8908	0.086
Mof_C 	C 	0.8294	0.9023	0.87149	-0.142
Mof_H 	H 	0.8206	0.909	0.8488	0.093
Mof_C 	C 	0.8133	0.8711	0.8861	0.087
Mof_C 	C 	0.8265	0.8611	0.9201	-0.143
Mof_H 	H 	0.8158	0.8402	0.9299	0.094
Mof_C 	C 	0.874	0.9591	0.876	0.024
Mof_N 	N 	0.9028	0.979	0.8953	-0.076
Mof_N 	N 	0.9163	0.0064	0.8749	-0.045
Mof_N 	N 	0.8958	0.0034	0.8429	-0.116
Mof_C 	C 	0.8696	0.9742	0.8436	0.022
Mof_H 	H 	0.8518	0.966	0.8251	0.029
Mof_C 	C 	0.9	0.0288	0.81786	0.206
Mof_C 	C 	0.9376	0.0507	0.81812	-0.221
Mof_H 	H 	0.9594	0.048	0.8356	0.129
Mof_C 	C 	0.9425	0.0765	0.7922	0.141
Mof_H 	H 	0.9677	0.0911	0.7924	-0.002
Mof_C 	C 	0.91	0.0805	0.766	-0.203
Mof_C 	C 	0.8724	0.0586	0.7658	0.138
Mof_H 	H 	0.8506	0.0613	0.7482	0.001
Mof_C 	C 	0.8674	0.0328	0.7917	-0.22
Mof_H 	H 	0.8423	0.0182	0.7915	0.115
Mof_C 	C 	0.9172	0.1057	0.7371	0.439
Mof_C 	C 	0.7826	0.849	0.865	0.021
Mof_C 	C 	0.7604	0.8178	0.8719	0.017
Mof_H 	H 	0.7631	0.8043	0.8924	0.028
Mof_N 	N 	0.7334	0.8103	0.8431	-0.113
Mof_N 	N 	0.7389	0.8368	0.8186	-0.045
Mof_N 	N 	0.7693	0.8607	0.832	-0.075
Mof_C 	C 	0.7054	0.7825	0.8385	0.193
Mof_C 	C 	0.6808	0.7815	0.8071	-0.202
Mof_H 	H 	0.6838	0.7995	0.7905	0.121
Mof_C 	C 	0.6517	0.7535	0.8005	0.117
Mof_H 	H 	0.6353	0.7528	0.7795	0.008
Mof_C 	C 	0.6472	0.7266	0.8253	-0.173
Mof_C 	C 	0.6717	0.7276	0.8567	0.111
Mof_H 	H 	0.6687	0.7096	0.8733	0.015
Mof_C 	C 	0.7008	0.7556	0.8633	-0.2
Mof_H 	H 	0.7173	0.7563	0.8843	0.108
Mof_C 	C 	0.6144	0.6971	0.8215	0.412
Mof_C 	C 	0.1232	0.9647	0.1538	0.407
Mof_C 	C 	0.1106	0.9901	0.1819	-0.178
Mof_C 	C 	0.1415	0.0152	0.1932	0.115
Mof_H 	H 	0.1693	0.0171	0.182	0.003
Mof_C 	C 	0.1309	0.0375	0.2214	-0.203
Mof_H 	H 	0.1516	0.0543	0.2289	0.107
Mof_C 	C 	0.0894	0.0347	0.2382	0.182
Mof_C 	C 	0.0585	0.0095	0.2268	-0.192
Mof_H 	H 	0.0308	0.0076	0.2381	0.114
Mof_C 	C 	0.0691	0.9873	0.1987	0.115
Mof_H 	H 	0.0484	0.9705	0.1911	0.008
Mof_N 	N 	0.0793	0.0592	0.2649	-0.111
Mof_C 	C 	0.0956	0.0894	0.276	0.018
Mof_H 	H 	0.1192	0.1018	0.2658	0.029
Mof_C 	C 	0.0727	0.099	0.3041	0.024
Mof_N 	N 	0.0422	0.0748	0.3104	-0.072
Mof_N 	N 	0.0462	0.0501	0.2861	-0.042
Mof_C 	C 	0.0767	0.1307	0.3254	0.084
Mof_C 	C 	0.1034	0.1587	0.3144	-0.139
Mof_H 	H 	0.1181	0.1577	0.2926	0.094
Mof_C 	C 	0.1083	0.1883	0.3358	0.084
Mof_C 	C 	0.0863	0.1899	0.3684	-0.139
Mof_H 	H 	0.0896	0.2097	0.3828	0.091
Mof_C 	C 	0.0596	0.1619	0.3795	0.082
Mof_C 	C 	0.0547	0.1323	0.358	-0.139
Mof_H 	H 	0.0368	0.1136	0.3654	0.093
Mof_N 	N 	0.1581	0.2198	0.2935	-0.071
Mof_N 	N 	0.1856	0.2486	0.2928	-0.045
Mof_N 	N 	0.1845	0.2639	0.3255	-0.11
Mof_C 	C 	0.1565	0.2446	0.3465	0.012
Mof_H 	H 	0.1497	0.2492	0.3701	0.029
Mof_C 	C 	0.1402	0.2173	0.3267	0.027
Mof_C 	C 	0.2047	0.2965	0.332	0.184
Mof_C 	C 	0.2021	0.3144	0.3641	-0.206
Mof_H 	H 	0.1804	0.308	0.3808	0.106
Mof_C 	C 	0.2317	0.3418	0.3714	0.118
Mof_H 	H 	0.23	0.3538	0.3929	0.006
Mof_C 	C 	0.2641	0.3514	0.3465	-0.187
Mof_C 	C 	0.2667	0.3334	0.3143	0.125
Mof_H 	H 	0.2884	0.3398	0.2977	0.004
Mof_C 	C 	0.2371	0.306	0.3071	-0.203
Mof_H 	H 	0.2388	0.294	0.2856	0.122
Mof_C 	C 	0.2885	0.3841	0.3547	0.441
Mof_C 	C 	0.0371	0.1646	0.4158	0.03
Mof_C 	C 	0.0126	0.1423	0.4325	0.018
Mof_H 	H 	0.0047	0.1199	0.4246	0.027
Mof_N 	N 	0.0008	0.1564	0.462	-0.11
Mof_N 	N 	0.0179	0.1874	0.4635	-0.041
Mof_N 	N 	0.0405	0.1924	0.4349	-0.077
Mof_C 	C 	0.9731	0.1452	0.4906	0.18
Mof_C 	C 	0.9669	0.1663	0.5204	-0.204
Mof_H 	H 	0.9812	0.1881	0.5219	0.118
Mof_C 	C 	0.9395	0.1549	0.548	0.126
Mof_H 	H 	0.9353	0.169	0.5679	0.004
Mof_C 	C 	0.9182	0.1223	0.5458	-0.198
Mof_C 	C 	0.9244	0.1011	0.516	0.125
Mof_H 	H 	0.9102	0.0793	0.5145	-0.004
Mof_C 	C 	0.9519	0.1126	0.4884	-0.211
Mof_H 	H 	0.956	0.0985	0.4685	0.106
Mof_C 	C 	0.8917	0.1088	0.5751	0.429
Mof_O 	O 	0.5	0.6976	0.75	-0.469
Mof_O 	O 	3.56237e-33	0.1976	0.75	-0.467
Mof_O 	O 	0.5	0.3024	0.25	-0.469
Mof_O 	O 	-1.1941e-33	0.8024	0.25	-0.467
_end
