data_functionalizedCrystal
_audit_creation_method	'EQeq! by Chris Wilmer'
_symmetry_space_group_name_H-M	'P1'
_symmetry_Int_Tables_number	1
_symmetry_cell_setting	triclinic
loop_
_symmetry_equiv_pos_as_xyz
  x,y,z
_cell_length_a	11.9234
_cell_length_b	11.9234
_cell_length_c	12.6748
_cell_angle_alpha	69.6637
_cell_angle_beta	69.6637
_cell_angle_gamma	88.9422
loop_
_atom_site_label
_atom_site_type_symbol
_atom_site_fract_x
_atom_site_fract_y
_atom_site_fract_z
_atom_site_charge
Mof_Ba	Ba	0.91363	0.52175	0.17176	1.921
Mof_Ba	Ba	0.47825	0.08637	0.32824	1.931
Mof_Ba	Ba	0.08637	0.47825	0.82824	1.921
Mof_Ba	Ba	0.52175	0.91363	0.67176	1.931
Mof_Ba	Ba	0.86269	0.13731	0.25	2.469
Mof_Ba	Ba	0.13731	0.86269	0.75	2.469
Mof_U 	U 	0.71343	0.39397	0.02756	-0.025
Mof_U 	U 	0.86168	0.86887	0.601	0.027
Mof_U 	U 	0.60603	0.28657	0.47244	-0.023
Mof_U 	U 	0.13113	0.13832	0.899	0.025
Mof_U 	U 	0.28657	0.60603	0.97244	-0.025
Mof_U 	U 	0.13832	0.13113	0.399	0.027
Mof_U 	U 	0.39397	0.71343	0.52756	-0.023
Mof_U 	U 	0.86887	0.86168	0.101	0.025
Mof_P 	P 	0.38299	0.33495	0.13488	0.418
Mof_P 	P 	0.15897	0.29781	0.09309	0.438
Mof_P 	P 	0.66505	0.61701	0.36512	0.419
Mof_P 	P 	0.70219	0.84103	0.40691	0.439
Mof_P 	P 	0.61701	0.66505	0.86512	0.418
Mof_P 	P 	0.84103	0.70219	0.90691	0.438
Mof_P 	P 	0.33495	0.38299	0.63488	0.419
Mof_P 	P 	0.29781	0.15897	0.59309	0.439
Mof_H 	H 	0.325	0.1942	0.0699	0.127
Mof_H 	H 	0.3567	0.3217	0.9666	0.142
Mof_H 	H 	0.8058	0.675	0.4301	0.129
Mof_H 	H 	0.6783	0.6433	0.5334	0.146
Mof_H 	H 	0.675	0.8058	0.9301	0.127
Mof_H 	H 	0.6433	0.6783	0.0334	0.142
Mof_H 	H 	0.1942	0.325	0.5699	0.129
Mof_H 	H 	0.3217	0.3567	0.4666	0.146
Mof_C 	C 	0.31554	0.27892	0.05259	-0.364
Mof_C 	C 	0.72108	0.68446	0.44741	-0.369
Mof_C 	C 	0.68446	0.72108	0.94741	-0.364
Mof_C 	C 	0.27892	0.31554	0.55259	-0.369
Mof_O 	O 	0.14055	0.42763	0.08118	-0.387
Mof_O 	O 	0.37166	0.46906	0.09934	-0.203
Mof_O 	O 	0.77979	0.97633	0.65532	-0.188
Mof_O 	O 	0.09281	0.21185	0.22399	-0.358
Mof_O 	O 	0.30951	0.26431	0.26953	-0.311
Mof_O 	O 	0.51219	0.30509	0.10708	-0.298
Mof_O 	O 	0.11197	0.26373	0.009	-0.367
Mof_O 	O 	0.57237	0.85945	0.41882	-0.392
Mof_O 	O 	0.53094	0.62834	0.40066	-0.203
Mof_O 	O 	0.02367	0.22021	0.84468	-0.19
Mof_O 	O 	0.78815	0.90719	0.27601	-0.36
Mof_O 	O 	0.73569	0.69049	0.23047	-0.312
Mof_O 	O 	0.69491	0.48781	0.39292	-0.297
Mof_O 	O 	0.73627	0.88803	0.491	-0.373
Mof_O 	O 	0.85945	0.57237	0.91882	-0.387
Mof_O 	O 	0.62834	0.53094	0.90066	-0.203
Mof_O 	O 	0.22021	0.02367	0.34468	-0.188
Mof_O 	O 	0.90719	0.78815	0.77601	-0.358
Mof_O 	O 	0.69049	0.73569	0.73047	-0.311
Mof_O 	O 	0.48781	0.69491	0.89292	-0.298
Mof_O 	O 	0.88803	0.73627	0.991	-0.367
Mof_O 	O 	0.42763	0.14055	0.58118	-0.392
Mof_O 	O 	0.46906	0.37166	0.59934	-0.203
Mof_O 	O 	0.97633	0.77979	0.15532	-0.19
Mof_O 	O 	0.21185	0.09281	0.72399	-0.36
Mof_O 	O 	0.26431	0.30951	0.76953	-0.312
Mof_O 	O 	0.30509	0.51219	0.60708	-0.297
Mof_O 	O 	0.26373	0.11197	0.509	-0.373
Mof_F 	F 	0.89185	0.36465	0.06631	-0.678
Mof_F 	F 	0.79647	0.30933	0.32771	-0.659
Mof_F 	F 	0.95801	0.02885	0.41673	-0.468
Mof_F 	F 	0.63535	0.10815	0.43369	-0.676
Mof_F 	F 	0.69067	0.20353	0.17229	-0.66
Mof_F 	F 	0.97115	0.04199	0.08327	-0.47
Mof_F 	F 	0.10815	0.63535	0.93369	-0.678
Mof_F 	F 	0.20353	0.69067	0.67229	-0.659
Mof_F 	F 	0.04199	0.97115	0.58327	-0.468
Mof_F 	F 	0.36465	0.89185	0.56631	-0.676
Mof_F 	F 	0.30933	0.79647	0.82771	-0.66
Mof_F 	F 	0.02885	0.95801	0.91673	-0.47
_end
