data_functionalizedCrystal
_audit_creation_method	'EQeq! by Chris Wilmer'
_symmetry_space_group_name_H-M	'P1'
_symmetry_Int_Tables_number	1
_symmetry_cell_setting	triclinic
loop_
_symmetry_equiv_pos_as_xyz
  x,y,z
_cell_length_a	16.163
_cell_length_b	9.912
_cell_length_c	27.816
_cell_angle_alpha	90
_cell_angle_beta	98.809
_cell_angle_gamma	90
loop_
_atom_site_label
_atom_site_type_symbol
_atom_site_fract_x
_atom_site_fract_y
_atom_site_fract_z
_atom_site_charge
Mof_Ba	Ba	0.2062	0.6206	0.7703	1.884
Mof_Ba	Ba	0.9613	0.8439	0.8201	1.713
Mof_Na	Na	0.814	0.8104	0.5582	2.137
Mof_Co	Co	0.065	0.0093	0.6915	1.236
Mof_Co	Co	0.0988	0.4552	0.8969	1.224
Mof_O 	O 	0.2798	0.8352	0.7188	-0.363
Mof_O 	O 	0.143	0.8686	0.7151	-0.49
Mof_O 	O 	0.9582	0.7832	0.5843	-0.66
Mof_O 	O 	0.9884	0.8878	0.6562	-0.526
Mof_O 	O 	0.864	0.0519	0.7504	-0.495
Mof_O 	O 	0.9953	0.0067	0.7413	-0.545
Mof_O 	O 	0.1682	0.3517	0.7401	-0.392
Mof_O 	O 	0.1427	0.1332	0.7256	-0.424
Mof_O 	O 	0.8843	0.6335	0.8708	-0.368
Mof_O 	O 	0.0193	0.591	0.8715	-0.484
Mof_O 	O 	0.1983	0.7025	0.9994	-0.597
Mof_O 	O 	0.1729	0.5828	0.9309	-0.48
Mof_O 	O 	0.3028	0.4151	0.8405	-0.506
Mof_O 	O 	0.17	0.455	0.8473	-0.537
Mof_O 	O 	0.003	0.1078	0.8485	-0.403
Mof_O 	O 	0.0241	0.327	0.8634	-0.418
Mof_N 	N 	0.123	0.0112	0.6358	-0.199
Mof_N 	N 	0.9999	0.1654	0.6678	-0.222
Mof_N 	N 	0.0403	0.4557	0.9526	-0.19
Mof_N 	N 	0.1661	0.3031	0.9228	-0.196
Mof_C 	C 	0.1036	0.1465	0.6124	-0.041
Mof_C 	C 	0.0112	0.1764	0.6148	-0.009
Mof_C 	C 	0.2129	0.9841	0.6563	-0.099
Mof_C 	C 	0.2141	0.8893	0.6996	0.318
Mof_C 	C 	0.0889	0.899	0.602	-0.106
Mof_C 	C 	0.005	0.8522	0.6132	0.454
Mof_C 	C 	0.9124	0.1358	0.6775	-0.101
Mof_C 	C 	0.9215	0.0615	0.7266	0.367
Mof_C 	C 	0.0349	0.2865	0.6963	-0.05
Mof_C 	C 	0.1222	0.2598	0.7226	0.356
Mof_C 	C 	0.0602	0.3208	0.9768	0.005
Mof_C 	C 	0.1538	0.295	0.9754	-0.006
Mof_C 	C 	0.9508	0.4792	0.9318	-0.108
Mof_C 	C 	0.9495	0.5747	0.8882	0.272
Mof_C 	C 	0.0732	0.5689	0.9855	-0.078
Mof_C 	C 	0.1541	0.6231	0.9722	0.392
Mof_C 	C 	0.2526	0.3351	0.9136	-0.107
Mof_C 	C 	0.2436	0.405	0.8632	0.364
Mof_C 	C 	0.134	0.1784	0.8954	-0.088
Mof_C 	C 	0.047	0.2011	0.867	0.348
Mof_Cl	Cl	0.1827	0.5229	0.6239	-0.108
Mof_O 	O 	0.1897	0.5925	0.6688	-0.186
Mof_O 	O 	0.1037	0.4613	0.6109	-0.09
Mof_O 	O 	0.1961	0.6178	0.5862	-0.128
Mof_O 	O 	0.2463	0.4169	0.6277	-0.329
Mof_O 	O 	0.1403	0.8195	0.8336	-0.395
Mof_O 	O 	0.0263	0.6387	0.7566	-0.371
Mof_Ba	Ba	0.7062	0.1206	0.7703	1.877
Mof_Ba	Ba	0.4613	0.3439	0.8201	1.777
Mof_Na	Na	0.314	0.3104	0.5582	2.151
Mof_Co	Co	0.565	0.5093	0.6915	1.225
Mof_Co	Co	0.5988	0.9552	0.8969	1.223
Mof_O 	O 	0.7798	0.3352	0.7188	-0.368
Mof_O 	O 	0.643	0.3686	0.7151	-0.496
Mof_O 	O 	0.4582	0.2832	0.5843	-0.623
Mof_O 	O 	0.4884	0.3878	0.6562	-0.489
Mof_O 	O 	0.364	0.5519	0.7504	-0.494
Mof_O 	O 	0.4953	0.5067	0.7413	-0.532
Mof_O 	O 	0.6682	0.8517	0.7401	-0.393
Mof_O 	O 	0.6427	0.6332	0.7256	-0.429
Mof_O 	O 	0.3843	0.1335	0.8708	-0.375
Mof_O 	O 	0.5193	0.091	0.8715	-0.512
Mof_O 	O 	0.6983	0.2025	0.9994	-0.598
Mof_O 	O 	0.6729	0.0828	0.9309	-0.482
Mof_O 	O 	0.8028	0.9151	0.8405	-0.504
Mof_O 	O 	0.67	0.955	0.8473	-0.537
Mof_O 	O 	0.503	0.6078	0.8485	-0.424
Mof_O 	O 	0.5241	0.827	0.8634	-0.429
Mof_N 	N 	0.623	0.5112	0.6358	-0.2
Mof_N 	N 	0.4999	0.6654	0.6678	-0.197
Mof_N 	N 	0.5403	0.9557	0.9526	-0.2
Mof_N 	N 	0.6661	0.8031	0.9228	-0.195
Mof_C 	C 	0.6036	0.6465	0.6124	-0.039
Mof_C 	C 	0.5112	0.6764	0.6148	-0.032
Mof_C 	C 	0.7129	0.4841	0.6563	-0.104
Mof_C 	C 	0.7141	0.3893	0.6996	0.321
Mof_C 	C 	0.5889	0.399	0.602	-0.099
Mof_C 	C 	0.505	0.3522	0.6132	0.391
Mof_C 	C 	0.4124	0.6358	0.6775	-0.093
Mof_C 	C 	0.4215	0.5615	0.7266	0.366
Mof_C 	C 	0.5349	0.7865	0.6963	-0.073
Mof_C 	C 	0.6222	0.7598	0.7226	0.36
Mof_C 	C 	0.5602	0.8208	0.9768	-0.006
Mof_C 	C 	0.6538	0.795	0.9754	-0.008
Mof_C 	C 	0.4508	0.9792	0.9318	-0.09
Mof_C 	C 	0.4495	0.0747	0.8882	0.304
Mof_C 	C 	0.5732	0.0689	0.9855	-0.086
Mof_C 	C 	0.6541	0.1231	0.9722	0.392
Mof_C 	C 	0.7526	0.8351	0.9136	-0.111
Mof_C 	C 	0.7436	0.905	0.8632	0.363
Mof_C 	C 	0.634	0.6784	0.8954	-0.094
Mof_C 	C 	0.547	0.7011	0.867	0.352
Mof_Cl	Cl	0.6827	0.0229	0.6239	-0.109
Mof_O 	O 	0.6897	0.0925	0.6688	-0.187
Mof_O 	O 	0.6037	0.9613	0.6109	-0.093
Mof_O 	O 	0.6961	0.1178	0.5862	-0.131
Mof_O 	O 	0.7463	0.9169	0.6277	-0.327
Mof_O 	O 	0.6403	0.3195	0.8336	-0.405
Mof_O 	O 	0.5263	0.1387	0.7566	-0.386
Mof_Ba	Ba	0.2062	0.3794	0.2703	1.883
Mof_Ba	Ba	0.9613	0.1561	0.3201	1.713
Mof_Na	Na	0.814	0.1896	0.0582	2.008
Mof_Co	Co	0.065	0.9907	0.1915	1.236
Mof_Co	Co	0.0988	0.5448	0.3969	1.225
Mof_O 	O 	0.2798	0.1648	0.2188	-0.364
Mof_O 	O 	0.143	0.1314	0.2151	-0.49
Mof_O 	O 	0.9582	0.2168	0.0843	-0.654
Mof_O 	O 	0.9884	0.1122	0.1562	-0.522
Mof_O 	O 	0.864	0.9481	0.2504	-0.495
Mof_O 	O 	0.9953	0.9933	0.2413	-0.544
Mof_O 	O 	0.1682	0.6483	0.2401	-0.391
Mof_O 	O 	0.1427	0.8668	0.2256	-0.424
Mof_O 	O 	0.8843	0.3665	0.3708	-0.372
Mof_O 	O 	0.0193	0.409	0.3715	-0.486
Mof_O 	O 	0.1983	0.2975	0.4994	-0.65
Mof_O 	O 	0.1729	0.4172	0.4309	-0.49
Mof_O 	O 	0.3028	0.5849	0.3405	-0.508
Mof_O 	O 	0.17	0.545	0.3473	-0.538
Mof_O 	O 	0.003	0.8922	0.3485	-0.406
Mof_O 	O 	0.0241	0.673	0.3634	-0.419
Mof_N 	N 	0.123	0.9888	0.1358	-0.197
Mof_N 	N 	0.9999	0.8346	0.1678	-0.22
Mof_N 	N 	0.0403	0.5443	0.4526	-0.186
Mof_N 	N 	0.1661	0.6969	0.4228	-0.193
Mof_C 	C 	0.1036	0.8535	0.1124	-0.048
Mof_C 	C 	0.0112	0.8236	0.1148	-0.017
Mof_C 	C 	0.2129	0.0159	0.1563	-0.1
Mof_C 	C 	0.2141	0.1107	0.1996	0.319
Mof_C 	C 	0.0889	0.101	0.102	-0.118
Mof_C 	C 	0.005	0.1478	0.1132	0.451
Mof_C 	C 	0.9124	0.8642	0.1775	-0.101
Mof_C 	C 	0.9215	0.9385	0.2266	0.367
Mof_C 	C 	0.0349	0.7135	0.1963	-0.051
Mof_C 	C 	0.1222	0.7402	0.2226	0.356
Mof_C 	C 	0.0602	0.6792	0.4768	-0.017
Mof_C 	C 	0.1538	0.705	0.4754	-0.028
Mof_C 	C 	0.9508	0.5208	0.4318	-0.121
Mof_C 	C 	0.9495	0.4253	0.3882	0.275
Mof_C 	C 	0.0732	0.4311	0.4855	-0.109
Mof_C 	C 	0.1541	0.3769	0.4722	0.403
Mof_C 	C 	0.2526	0.6649	0.4136	-0.12
Mof_C 	C 	0.2436	0.595	0.3632	0.365
Mof_C 	C 	0.134	0.8216	0.3954	-0.095
Mof_C 	C 	0.047	0.7989	0.367	0.348
Mof_Cl	Cl	0.1827	0.4771	0.1239	-0.108
Mof_O 	O 	0.1897	0.4075	0.1688	-0.186
Mof_O 	O 	0.1037	0.5387	0.1109	-0.099
Mof_O 	O 	0.1961	0.3822	0.0862	-0.143
Mof_O 	O 	0.2463	0.5831	0.1277	-0.32
Mof_O 	O 	0.1403	0.1805	0.3336	-0.397
Mof_O 	O 	0.0263	0.3613	0.2566	-0.37
Mof_Ba	Ba	0.7062	0.8794	0.2703	1.875
Mof_Ba	Ba	0.4613	0.6561	0.3201	1.771
Mof_Na	Na	0.314	0.6896	0.0582	2.019
Mof_Co	Co	0.565	0.4907	0.1915	1.225
Mof_Co	Co	0.5988	0.0448	0.3969	1.224
Mof_O 	O 	0.7798	0.6648	0.2188	-0.368
Mof_O 	O 	0.643	0.6314	0.2151	-0.496
Mof_O 	O 	0.4582	0.7168	0.0843	-0.618
Mof_O 	O 	0.4884	0.6122	0.1562	-0.486
Mof_O 	O 	0.364	0.4481	0.2504	-0.494
Mof_O 	O 	0.4953	0.4933	0.2413	-0.532
Mof_O 	O 	0.6682	0.1483	0.2401	-0.392
Mof_O 	O 	0.6427	0.3668	0.2256	-0.429
Mof_O 	O 	0.3843	0.8665	0.3708	-0.378
Mof_O 	O 	0.5193	0.909	0.3715	-0.513
Mof_O 	O 	0.6983	0.7975	0.4994	-0.651
Mof_O 	O 	0.6729	0.9172	0.4309	-0.492
Mof_O 	O 	0.8028	0.0849	0.3405	-0.506
Mof_O 	O 	0.67	0.045	0.3473	-0.537
Mof_O 	O 	0.503	0.3922	0.3485	-0.426
Mof_O 	O 	0.5241	0.173	0.3634	-0.429
Mof_N 	N 	0.623	0.4888	0.1358	-0.198
Mof_N 	N 	0.4999	0.3346	0.1678	-0.196
Mof_N 	N 	0.5403	0.0443	0.4526	-0.195
Mof_N 	N 	0.6661	0.1969	0.4228	-0.192
Mof_C 	C 	0.6036	0.3535	0.1124	-0.047
Mof_C 	C 	0.5112	0.3236	0.1148	-0.04
Mof_C 	C 	0.7129	0.5159	0.1563	-0.105
Mof_C 	C 	0.7141	0.6107	0.1996	0.321
Mof_C 	C 	0.5889	0.601	0.102	-0.112
Mof_C 	C 	0.505	0.6478	0.1132	0.389
Mof_C 	C 	0.4124	0.3642	0.1775	-0.094
Mof_C 	C 	0.4215	0.4385	0.2266	0.367
Mof_C 	C 	0.5349	0.2135	0.1963	-0.073
Mof_C 	C 	0.6222	0.2402	0.2226	0.36
Mof_C 	C 	0.5602	0.1792	0.4768	-0.027
Mof_C 	C 	0.6538	0.205	0.4754	-0.03
Mof_C 	C 	0.4508	0.0208	0.4318	-0.103
Mof_C 	C 	0.4495	0.9253	0.3882	0.305
Mof_C 	C 	0.5732	0.9311	0.4855	-0.117
Mof_C 	C 	0.6541	0.8769	0.4722	0.404
Mof_C 	C 	0.7526	0.1649	0.4136	-0.123
Mof_C 	C 	0.7436	0.095	0.3632	0.364
Mof_C 	C 	0.634	0.3216	0.3954	-0.1
Mof_C 	C 	0.547	0.2989	0.367	0.352
Mof_Cl	Cl	0.6827	0.9771	0.1239	-0.111
Mof_O 	O 	0.6897	0.9075	0.1688	-0.187
Mof_O 	O 	0.6037	0.0387	0.1109	-0.101
Mof_O 	O 	0.6961	0.8822	0.0862	-0.146
Mof_O 	O 	0.7463	0.0831	0.1277	-0.318
Mof_O 	O 	0.6403	0.6805	0.3336	-0.407
Mof_O 	O 	0.5263	0.8613	0.2566	-0.386
_end
