data_functionalizedCrystal
_audit_creation_method	'EQeq! by Chris Wilmer'
_symmetry_space_group_name_H-M	'P1'
_symmetry_Int_Tables_number	1
_symmetry_cell_setting	triclinic
loop_
_symmetry_equiv_pos_as_xyz
  x,y,z
_cell_length_a	8.935
_cell_length_b	8.935
_cell_length_c	10.878
_cell_angle_alpha	90
_cell_angle_beta	90
_cell_angle_gamma	120
loop_
_atom_site_label
_atom_site_type_symbol
_atom_site_fract_x
_atom_site_fract_y
_atom_site_fract_z
_atom_site_charge
Mof_Ti	Ti	0.5	0	0.66667	1.397
Mof_Ti	Ti	0.5	0.5	-0	1.282
Mof_Ti	Ti	2.58827e-17	0.5	0.33333	1.394
Mof_C 	C 	0.308	0.692	0.5	0.23
Mof_C 	C 	0.21045	0.78955	0.5	0.3
Mof_C 	C 	0.384	0.692	0.83333	0.237
Mof_C 	C 	0.5791	0.78955	0.83333	0.299
Mof_C 	C 	0.308	0.616	0.16667	0.223
Mof_C 	C 	0.21045	0.4209	0.16667	0.295
Mof_C 	C 	0.692	0.308	0.5	0.23
Mof_C 	C 	0.78955	0.21045	0.5	0.3
Mof_C 	C 	0.616	0.308	0.83333	0.233
Mof_C 	C 	0.4209	0.21045	0.83333	0.301
Mof_C 	C 	0.692	0.384	0.16667	0.227
Mof_C 	C 	0.78955	0.5791	0.16667	0.292
Mof_O 	O 	0.4489	0.7629	0.557	-0.303
Mof_O 	O 	0.0768	0.7273	0.4372	-0.383
Mof_O 	O 	0.314	0.5511	0.89033	-0.272
Mof_O 	O 	0.6505	0.9232	0.77053	-0.351
Mof_O 	O 	0.2371	0.686	0.22367	-0.318
Mof_O 	O 	0.2727	0.3495	0.10387	-0.388
Mof_O 	O 	0.5511	0.2371	0.557	-0.312
Mof_O 	O 	0.9232	0.2727	0.4372	-0.364
Mof_O 	O 	0.686	0.4489	0.89033	-0.265
Mof_O 	O 	0.3495	0.0768	0.77053	-0.38
Mof_O 	O 	0.7629	0.314	0.22367	-0.314
Mof_O 	O 	0.7273	0.6505	0.10387	-0.381
Mof_O 	O 	0.686	0.2371	0.77633	-0.302
Mof_O 	O 	0.3495	0.2727	0.89613	-0.333
Mof_O 	O 	0.7629	0.4489	0.443	-0.301
Mof_O 	O 	0.7273	0.0768	0.5628	-0.384
Mof_O 	O 	0.5511	0.314	0.10967	-0.326
Mof_O 	O 	0.9232	0.6505	0.22947	-0.364
Mof_O 	O 	0.314	0.7629	0.77633	-0.298
Mof_O 	O 	0.6505	0.7273	0.89613	-0.324
Mof_O 	O 	0.2371	0.5511	0.443	-0.311
Mof_O 	O 	0.2727	0.9232	0.5628	-0.364
Mof_O 	O 	0.4489	0.686	0.10967	-0.32
Mof_O 	O 	0.0768	0.3495	0.22947	-0.391
Mof_H 	H 	0.0282	0.1097	0.9494	0.187
Mof_H 	H 	0.9718	0.8903	0.9494	0.227
Mof_H 	H 	0.1097	0.0282	0.0506	0.118
Mof_H 	H 	0.8903	0.9718	0.0506	0.153
Mof_N 	N 	-0	0	-0	-0.405
Mof_H 	H 	0.0815	0.9718	0.28273	0.143
Mof_H 	H 	0.9185	0.0282	0.28273	0.141
Mof_H 	H 	0.9185	0.8903	0.38393	0.165
Mof_H 	H 	0.0815	0.1097	0.38393	0.131
Mof_N 	N 	4.19558e-33	0	0.33333	-0.32
Mof_H 	H 	0.8903	0.9185	0.61607	0.167
Mof_H 	H 	0.1097	0.0815	0.61607	0.132
Mof_H 	H 	0.9718	0.0815	0.71727	0.148
Mof_H 	H 	0.0282	0.9185	0.71727	0.146
Mof_N 	N 	8.39115e-33	0	0.66667	-0.324
_end
