data_functionalizedCrystal
_audit_creation_method	'EQeq! by Chris Wilmer'
_symmetry_space_group_name_H-M	'P1'
_symmetry_Int_Tables_number	1
_symmetry_cell_setting	triclinic
loop_
_symmetry_equiv_pos_as_xyz
  x,y,z
_cell_length_a	35.196
_cell_length_b	11.6472
_cell_length_c	17.2404
_cell_angle_alpha	90
_cell_angle_beta	99.003
_cell_angle_gamma	90
loop_
_atom_site_label
_atom_site_type_symbol
_atom_site_fract_x
_atom_site_fract_y
_atom_site_fract_z
_atom_site_charge
Mof_Y 	Y 	0.57615	0.06327	0.0781	1.558
Mof_O 	O 	0.54968	0.0509	0.9498	-0.45
Mof_O 	O 	0.6332	0.1502	0.0519	-0.444
Mof_O 	O 	0.51297	0.08	0.0918	-0.45
Mof_O 	O 	0.584	0.1597	0.2011	-0.417
Mof_O 	O 	0.6293	0.029	0.2118	-0.472
Mof_O 	O 	0.6148	0.9187	0.0408	-0.477
Mof_O 	O 	0.5601	0.8978	0.1391	-0.439
Mof_C 	C 	0.5216	0.0959	0.9033	0.434
Mof_C 	C 	0.6676	0.1173	0.0633	0.423
Mof_Y 	Y 	0.66837	0.88167	0.17583	1.576
Mof_C 	C 	0.5318	0.1742	0.8414	-0.138
Mof_O 	O 	0.683	0.0382	0.1084	-0.44
Mof_C 	C 	0.6956	0.1781	0.0201	-0.113
Mof_O 	O 	0.7298	0.854	0.1548	-0.46
Mof_O 	O 	0.6572	0.7788	0.0551	-0.43
Mof_O 	O 	0.6105	0.8006	0.1995	-0.46
Mof_O 	O 	0.6976	0.9054	0.2993	-0.487
Mof_S 	S 	0.57844	0.1971	0.83008	0.071
Mof_C 	C 	0.5065	0.2395	0.7882	-0.006
Mof_S 	S 	0.68058	0.2715	0.94379	0.077
Mof_C 	C 	0.7351	0.1608	0.0309	-0.012
Mof_C 	C 	0.5648	0.2924	0.7541	-0.126
Mof_H 	H 	0.4793	0.24	0.7857	0.045
Mof_C 	C 	0.5266	0.3044	0.7389	0.006
Mof_C 	C 	0.7277	0.289	0.9267	-0.147
Mof_C 	C 	0.7526	0.2226	0.9757	0.013
Mof_H 	H 	0.7487	0.1132	0.0707	0.051
Mof_C 	C 	0.595	0.3461	0.7145	0.428
Mof_H 	H 	0.5141	0.3526	0.6983	0.044
Mof_C 	C 	0.7357	0.3578	0.8596	0.457
Mof_H 	H 	0.7793	0.2182	0.9729	0.041
Mof_O 	O 	0.5837	0.4178	0.6596	-0.458
Mof_O 	O 	0.6294	0.3215	0.7386	-0.448
Mof_O 	O 	0.709	0.4078	0.8178	-0.464
Mof_Y 	Y 	0.5771	0.55108	0.56236	1.603
Mof_Y 	Y 	0.67939	0.41306	0.69098	1.595
Mof_O 	O 	0.6003	0.3916	0.5087	-0.443
Mof_O 	O 	0.6024	0.6566	0.6711	-0.469
Mof_O 	O 	0.5449	0.5323	0.4395	-0.457
Mof_O 	O 	0.6296	0.6255	0.5176	-0.474
Mof_O 	O 	0.5179	0.5478	0.5982	-0.478
Mof_O 	O 	0.6543	0.321	0.5749	-0.479
Mof_O 	O 	0.6511	0.566	0.7468	-0.444
Mof_O 	O 	0.6781	0.559	0.6042	-0.466
Mof_O 	O 	0.7385	0.4101	0.6562	-0.462
Mof_C 	C 	0.6289	0.324	0.5176	0.467
Mof_C 	C 	0.6258	0.6407	0.7333	0.449
Mof_C 	C 	0.5157	0.5723	0.3953	0.449
Mof_C 	C 	0.6642	0.6199	0.5462	0.457
Mof_C 	C 	0.6318	0.2431	0.4518	-0.147
Mof_C 	C 	0.6227	0.7236	0.7993	-0.129
Mof_C 	C 	0.5225	0.6444	0.3273	-0.147
Mof_C 	C 	0.6918	0.6877	0.5076	-0.129
Mof_S 	S 	0.60038	0.2533	0.36401	0.087
Mof_C 	C 	0.6575	0.1613	0.4489	0.028
Mof_S 	S 	0.64822	0.7	0.89081	0.083
Mof_C 	C 	0.5971	0.8122	0.7996	0.006
Mof_S 	S 	0.56784	0.6835	0.31365	0.068
Mof_C 	C 	0.4942	0.6868	0.269	0.004
Mof_S 	S 	0.67497	0.7658	0.42433	0.066
Mof_C 	C 	0.7315	0.6984	0.5264	-0.007
Mof_C 	C 	0.6243	0.1435	0.3245	-0.113
Mof_H 	H 	0.6768	0.1439	0.4924	0.023
Mof_C 	C 	0.6545	0.101	0.3767	-0.027
Mof_C 	C 	0.6242	0.8115	0.9292	-0.12
Mof_H 	H 	0.5801	0.8364	0.7542	0.031
Mof_C 	C 	0.5983	0.8631	0.8728	-0.01
Mof_C 	C 	0.5491	0.7596	0.2305	-0.125
Mof_H 	H 	0.4676	0.6694	0.2652	0.031
Mof_C 	C 	0.5099	0.7595	0.2155	-0.004
Mof_C 	C 	0.721	0.8092	0.4143	-0.155
Mof_H 	H 	0.7461	0.6658	0.5721	0.042
Mof_C 	C 	0.7475	0.761	0.4724	0.012
Mof_C 	C 	0.6125	0.1095	0.2412	0.393
Mof_H 	H 	0.6709	0.0402	0.3661	0.057
Mof_C 	C 	0.6328	0.8368	0.0143	0.415
Mof_H 	H 	0.5829	0.9268	0.8825	0.05
Mof_C 	C 	0.5758	0.8244	0.1865	0.45
Mof_H 	H 	0.495	0.8024	0.1748	0.044
Mof_C 	C 	0.7266	0.8789	0.3465	0.453
Mof_H 	H 	0.7745	0.7696	0.4748	0.028
Mof_Y 	Y 	0.07615	0.56327	0.0781	1.556
Mof_O 	O 	0.04968	0.5509	0.9498	-0.449
Mof_O 	O 	0.1332	0.6502	0.0519	-0.443
Mof_O 	O 	0.01297	0.58	0.0918	-0.449
Mof_O 	O 	0.084	0.6597	0.2011	-0.416
Mof_O 	O 	0.1293	0.529	0.2118	-0.473
Mof_O 	O 	0.1148	0.4187	0.0408	-0.474
Mof_O 	O 	0.0601	0.3978	0.1391	-0.436
Mof_C 	C 	0.0216	0.5959	0.9033	0.433
Mof_C 	C 	0.1676	0.6173	0.0633	0.423
Mof_Y 	Y 	0.16837	0.38167	0.17583	1.579
Mof_C 	C 	0.0318	0.6742	0.8414	-0.138
Mof_O 	O 	0.183	0.5382	0.1084	-0.442
Mof_C 	C 	0.1956	0.6781	0.0201	-0.113
Mof_O 	O 	0.2298	0.354	0.1548	-0.46
Mof_O 	O 	0.1572	0.2788	0.0551	-0.43
Mof_O 	O 	0.1105	0.3006	0.1995	-0.46
Mof_O 	O 	0.1976	0.4054	0.2993	-0.486
Mof_S 	S 	0.07844	0.6971	0.83008	0.071
Mof_C 	C 	0.0065	0.7395	0.7882	-0.007
Mof_S 	S 	0.18058	0.7715	0.94379	0.077
Mof_C 	C 	0.2351	0.6608	0.0309	-0.012
Mof_C 	C 	0.0648	0.7924	0.7541	-0.127
Mof_H 	H 	0.9793	0.74	0.7857	0.045
Mof_C 	C 	0.0266	0.8044	0.7389	0.006
Mof_C 	C 	0.2277	0.789	0.9267	-0.147
Mof_C 	C 	0.2526	0.7226	0.9757	0.013
Mof_H 	H 	0.2487	0.6132	0.0707	0.05
Mof_C 	C 	0.095	0.8461	0.7145	0.429
Mof_H 	H 	0.0141	0.8526	0.6983	0.043
Mof_C 	C 	0.2357	0.8578	0.8596	0.456
Mof_H 	H 	0.2793	0.7182	0.9729	0.041
Mof_O 	O 	0.0837	0.9178	0.6596	-0.459
Mof_O 	O 	0.1294	0.8215	0.7386	-0.448
Mof_O 	O 	0.209	0.9078	0.8178	-0.464
Mof_Y 	Y 	0.0771	0.05108	0.56236	1.606
Mof_Y 	Y 	0.17939	0.91306	0.69098	1.592
Mof_O 	O 	0.1003	0.8916	0.5087	-0.445
Mof_O 	O 	0.1024	0.1566	0.6711	-0.469
Mof_O 	O 	0.0449	0.0323	0.4395	-0.457
Mof_O 	O 	0.1296	0.1255	0.5176	-0.474
Mof_O 	O 	0.0179	0.0478	0.5982	-0.478
Mof_O 	O 	0.1543	0.821	0.5749	-0.479
Mof_O 	O 	0.1511	0.066	0.7468	-0.442
Mof_O 	O 	0.1781	0.059	0.6042	-0.464
Mof_O 	O 	0.2385	0.9101	0.6562	-0.463
Mof_C 	C 	0.1289	0.824	0.5176	0.466
Mof_C 	C 	0.1258	0.1407	0.7333	0.449
Mof_C 	C 	0.0157	0.0723	0.3953	0.449
Mof_C 	C 	0.1642	0.1199	0.5462	0.457
Mof_C 	C 	0.1318	0.7431	0.4518	-0.147
Mof_C 	C 	0.1227	0.2236	0.7993	-0.128
Mof_C 	C 	0.0225	0.1444	0.3273	-0.147
Mof_C 	C 	0.1918	0.1877	0.5076	-0.129
Mof_S 	S 	0.10038	0.7533	0.36401	0.086
Mof_C 	C 	0.1575	0.6613	0.4489	0.028
Mof_S 	S 	0.14822	0.2	0.89081	0.084
Mof_C 	C 	0.0971	0.3122	0.7996	0.006
Mof_S 	S 	0.06784	0.1835	0.31365	0.069
Mof_C 	C 	0.9942	0.1868	0.269	0.004
Mof_S 	S 	0.17497	0.2658	0.42433	0.067
Mof_C 	C 	0.2315	0.1984	0.5264	-0.007
Mof_C 	C 	0.1243	0.6435	0.3245	-0.113
Mof_H 	H 	0.1768	0.6439	0.4924	0.023
Mof_C 	C 	0.1545	0.601	0.3767	-0.027
Mof_C 	C 	0.1242	0.3115	0.9292	-0.12
Mof_H 	H 	0.0801	0.3364	0.7542	0.031
Mof_C 	C 	0.0983	0.3631	0.8728	-0.01
Mof_C 	C 	0.0491	0.2596	0.2305	-0.124
Mof_H 	H 	0.9676	0.1694	0.2652	0.032
Mof_C 	C 	0.0099	0.2595	0.2155	-0.004
Mof_C 	C 	0.221	0.3092	0.4143	-0.155
Mof_H 	H 	0.2461	0.1658	0.5721	0.043
Mof_C 	C 	0.2475	0.261	0.4724	0.013
Mof_C 	C 	0.1125	0.6095	0.2412	0.393
Mof_H 	H 	0.1709	0.5402	0.3661	0.056
Mof_C 	C 	0.1328	0.3368	0.0143	0.415
Mof_H 	H 	0.0829	0.4268	0.8825	0.051
Mof_C 	C 	0.0758	0.3244	0.1865	0.45
Mof_H 	H 	0.995	0.3024	0.1748	0.045
Mof_C 	C 	0.2266	0.3789	0.3465	0.454
Mof_H 	H 	0.2745	0.2696	0.4748	0.028
Mof_Y 	Y 	0.42385	0.06327	0.9219	1.559
Mof_O 	O 	0.45032	0.0509	0.0502	-0.449
Mof_O 	O 	0.3668	0.1502	0.9481	-0.443
Mof_O 	O 	0.48703	0.08	0.9082	-0.449
Mof_O 	O 	0.416	0.1597	0.7989	-0.416
Mof_O 	O 	0.3707	0.029	0.7882	-0.471
Mof_O 	O 	0.3852	0.9187	0.9592	-0.476
Mof_O 	O 	0.4399	0.8978	0.8609	-0.438
Mof_C 	C 	0.4784	0.0959	0.0967	0.434
Mof_C 	C 	0.3324	0.1173	0.9367	0.423
Mof_Y 	Y 	0.33163	0.88167	0.82417	1.576
Mof_C 	C 	0.4682	0.1742	0.1586	-0.138
Mof_O 	O 	0.317	0.0382	0.8916	-0.44
Mof_C 	C 	0.3044	0.1781	0.9799	-0.113
Mof_O 	O 	0.2702	0.854	0.8452	-0.46
Mof_O 	O 	0.3428	0.7788	0.9449	-0.43
Mof_O 	O 	0.3895	0.8006	0.8005	-0.46
Mof_O 	O 	0.3024	0.9054	0.7007	-0.487
Mof_S 	S 	0.42156	0.1971	0.16992	0.071
Mof_C 	C 	0.4935	0.2395	0.2118	-0.006
Mof_S 	S 	0.31942	0.2715	0.05621	0.077
Mof_C 	C 	0.2649	0.1608	0.9691	-0.012
Mof_C 	C 	0.4352	0.2924	0.2459	-0.126
Mof_H 	H 	0.5207	0.24	0.2143	0.045
Mof_C 	C 	0.4734	0.3044	0.2611	0.006
Mof_C 	C 	0.2723	0.289	0.0733	-0.147
Mof_C 	C 	0.2474	0.2226	0.0243	0.013
Mof_H 	H 	0.2513	0.1132	0.9293	0.051
Mof_C 	C 	0.405	0.3461	0.2855	0.428
Mof_H 	H 	0.4859	0.3526	0.3017	0.044
Mof_C 	C 	0.2643	0.3578	0.1404	0.457
Mof_H 	H 	0.2207	0.2182	0.0271	0.041
Mof_O 	O 	0.4163	0.4178	0.3404	-0.458
Mof_O 	O 	0.3706	0.3215	0.2614	-0.448
Mof_O 	O 	0.291	0.4078	0.1822	-0.464
Mof_Y 	Y 	0.4229	0.55108	0.43764	1.603
Mof_Y 	Y 	0.32061	0.41306	0.30902	1.595
Mof_O 	O 	0.3997	0.3916	0.4913	-0.443
Mof_O 	O 	0.3976	0.6566	0.3289	-0.469
Mof_O 	O 	0.4551	0.5323	0.5605	-0.457
Mof_O 	O 	0.3704	0.6255	0.4824	-0.474
Mof_O 	O 	0.4821	0.5478	0.4018	-0.478
Mof_O 	O 	0.3457	0.321	0.4251	-0.479
Mof_O 	O 	0.3489	0.566	0.2532	-0.444
Mof_O 	O 	0.3219	0.559	0.3958	-0.466
Mof_O 	O 	0.2615	0.4101	0.3438	-0.462
Mof_C 	C 	0.3711	0.324	0.4824	0.467
Mof_C 	C 	0.3742	0.6407	0.2667	0.449
Mof_C 	C 	0.4843	0.5723	0.6047	0.449
Mof_C 	C 	0.3358	0.6199	0.4538	0.457
Mof_C 	C 	0.3682	0.2431	0.5482	-0.147
Mof_C 	C 	0.3773	0.7236	0.2007	-0.129
Mof_C 	C 	0.4775	0.6444	0.6727	-0.147
Mof_C 	C 	0.3082	0.6877	0.4924	-0.129
Mof_S 	S 	0.39962	0.2533	0.63599	0.087
Mof_C 	C 	0.3425	0.1613	0.5511	0.028
Mof_S 	S 	0.35178	0.7	0.10919	0.083
Mof_C 	C 	0.4029	0.8122	0.2004	0.006
Mof_S 	S 	0.43216	0.6835	0.68635	0.068
Mof_C 	C 	0.5058	0.6868	0.731	0.004
Mof_S 	S 	0.32503	0.7658	0.57567	0.066
Mof_C 	C 	0.2685	0.6984	0.4736	-0.007
Mof_C 	C 	0.3757	0.1435	0.6755	-0.113
Mof_H 	H 	0.3232	0.1439	0.5076	0.023
Mof_C 	C 	0.3455	0.101	0.6233	-0.027
Mof_C 	C 	0.3758	0.8115	0.0708	-0.12
Mof_H 	H 	0.4199	0.8364	0.2458	0.031
Mof_C 	C 	0.4017	0.8631	0.1272	-0.01
Mof_C 	C 	0.4509	0.7596	0.7695	-0.125
Mof_H 	H 	0.5324	0.6694	0.7348	0.031
Mof_C 	C 	0.4901	0.7595	0.7845	-0.004
Mof_C 	C 	0.279	0.8092	0.5857	-0.155
Mof_H 	H 	0.2539	0.6658	0.4279	0.042
Mof_C 	C 	0.2525	0.761	0.5276	0.012
Mof_C 	C 	0.3875	0.1095	0.7588	0.393
Mof_H 	H 	0.3291	0.0402	0.6339	0.057
Mof_C 	C 	0.3672	0.8368	0.9857	0.415
Mof_H 	H 	0.4171	0.9268	0.1175	0.05
Mof_C 	C 	0.4242	0.8244	0.8135	0.45
Mof_H 	H 	0.505	0.8024	0.8252	0.044
Mof_C 	C 	0.2734	0.8789	0.6535	0.453
Mof_H 	H 	0.2255	0.7696	0.5252	0.028
Mof_Y 	Y 	0.92385	0.56327	0.9219	1.556
Mof_O 	O 	0.95032	0.5509	0.0502	-0.449
Mof_O 	O 	0.8668	0.6502	0.9481	-0.443
Mof_O 	O 	0.98703	0.58	0.9082	-0.449
Mof_O 	O 	0.916	0.6597	0.7989	-0.416
Mof_O 	O 	0.8707	0.529	0.7882	-0.473
Mof_O 	O 	0.8852	0.4187	0.9592	-0.474
Mof_O 	O 	0.9399	0.3978	0.8609	-0.436
Mof_C 	C 	0.9784	0.5959	0.0967	0.433
Mof_C 	C 	0.8324	0.6173	0.9367	0.423
Mof_Y 	Y 	0.83163	0.38167	0.82417	1.579
Mof_C 	C 	0.9682	0.6742	0.1586	-0.138
Mof_O 	O 	0.817	0.5382	0.8916	-0.442
Mof_C 	C 	0.8044	0.6781	0.9799	-0.113
Mof_O 	O 	0.7702	0.354	0.8452	-0.46
Mof_O 	O 	0.8428	0.2788	0.9449	-0.43
Mof_O 	O 	0.8895	0.3006	0.8005	-0.46
Mof_O 	O 	0.8024	0.4054	0.7007	-0.486
Mof_S 	S 	0.92156	0.6971	0.16992	0.071
Mof_C 	C 	0.9935	0.7395	0.2118	-0.007
Mof_S 	S 	0.81942	0.7715	0.05621	0.077
Mof_C 	C 	0.7649	0.6608	0.9691	-0.012
Mof_C 	C 	0.9352	0.7924	0.2459	-0.127
Mof_H 	H 	0.0207	0.74	0.2143	0.045
Mof_C 	C 	0.9734	0.8044	0.2611	0.006
Mof_C 	C 	0.7723	0.789	0.0733	-0.147
Mof_C 	C 	0.7474	0.7226	0.0243	0.013
Mof_H 	H 	0.7513	0.6132	0.9293	0.05
Mof_C 	C 	0.905	0.8461	0.2855	0.429
Mof_H 	H 	0.9859	0.8526	0.3017	0.043
Mof_C 	C 	0.7643	0.8578	0.1404	0.456
Mof_H 	H 	0.7207	0.7182	0.0271	0.041
Mof_O 	O 	0.9163	0.9178	0.3404	-0.459
Mof_O 	O 	0.8706	0.8215	0.2614	-0.448
Mof_O 	O 	0.791	0.9078	0.1822	-0.464
Mof_Y 	Y 	0.9229	0.05108	0.43764	1.606
Mof_Y 	Y 	0.82061	0.91306	0.30902	1.592
Mof_O 	O 	0.8997	0.8916	0.4913	-0.445
Mof_O 	O 	0.8976	0.1566	0.3289	-0.469
Mof_O 	O 	0.9551	0.0323	0.5605	-0.457
Mof_O 	O 	0.8704	0.1255	0.4824	-0.474
Mof_O 	O 	0.9821	0.0478	0.4018	-0.478
Mof_O 	O 	0.8457	0.821	0.4251	-0.479
Mof_O 	O 	0.8489	0.066	0.2532	-0.442
Mof_O 	O 	0.8219	0.059	0.3958	-0.464
Mof_O 	O 	0.7615	0.9101	0.3438	-0.463
Mof_C 	C 	0.8711	0.824	0.4824	0.466
Mof_C 	C 	0.8742	0.1407	0.2667	0.449
Mof_C 	C 	0.9843	0.0723	0.6047	0.449
Mof_C 	C 	0.8358	0.1199	0.4538	0.457
Mof_C 	C 	0.8682	0.7431	0.5482	-0.147
Mof_C 	C 	0.8773	0.2236	0.2007	-0.128
Mof_C 	C 	0.9775	0.1444	0.6727	-0.147
Mof_C 	C 	0.8082	0.1877	0.4924	-0.129
Mof_S 	S 	0.89962	0.7533	0.63599	0.086
Mof_C 	C 	0.8425	0.6613	0.5511	0.028
Mof_S 	S 	0.85178	0.2	0.10919	0.084
Mof_C 	C 	0.9029	0.3122	0.2004	0.006
Mof_S 	S 	0.93216	0.1835	0.68635	0.069
Mof_C 	C 	0.0058	0.1868	0.731	0.004
Mof_S 	S 	0.82503	0.2658	0.57567	0.067
Mof_C 	C 	0.7685	0.1984	0.4736	-0.007
Mof_C 	C 	0.8757	0.6435	0.6755	-0.113
Mof_H 	H 	0.8232	0.6439	0.5076	0.023
Mof_C 	C 	0.8455	0.601	0.6233	-0.027
Mof_C 	C 	0.8758	0.3115	0.0708	-0.12
Mof_H 	H 	0.9199	0.3364	0.2458	0.031
Mof_C 	C 	0.9017	0.3631	0.1272	-0.01
Mof_C 	C 	0.9509	0.2596	0.7695	-0.124
Mof_H 	H 	0.0324	0.1694	0.7348	0.032
Mof_C 	C 	0.9901	0.2595	0.7845	-0.004
Mof_C 	C 	0.779	0.3092	0.5857	-0.155
Mof_H 	H 	0.7539	0.1658	0.4279	0.043
Mof_C 	C 	0.7525	0.261	0.5276	0.013
Mof_C 	C 	0.8875	0.6095	0.7588	0.393
Mof_H 	H 	0.8291	0.5402	0.6339	0.056
Mof_C 	C 	0.8672	0.3368	0.9857	0.415
Mof_H 	H 	0.9171	0.4268	0.1175	0.051
Mof_C 	C 	0.9242	0.3244	0.8135	0.45
Mof_H 	H 	0.005	0.3024	0.8252	0.045
Mof_C 	C 	0.7734	0.3789	0.6535	0.454
Mof_H 	H 	0.7255	0.2696	0.5252	0.028
_end
