# CIF file generated by openbabel 3.1.0, see https://openbabel.org
data_I
_chemical_name_common 'ELIKAM_clean'
_cell_length_a 9.398
_cell_length_b 9.911
_cell_length_c 11.422
_cell_angle_alpha 93.965
_cell_angle_beta 98.131
_cell_angle_gamma 110.782
_space_group_name_H-M_alt 'P 1'
_space_group_name_Hall 'P 1'
loop_
    _symmetry_equiv_pos_as_xyz
    x,y,z
loop_
    _atom_site_label
    _atom_site_type_symbol
    _atom_site_fract_x
    _atom_site_fract_y
    _atom_site_fract_z
    _atom_site_occupancy
    Pr1      Pr       0.28428    0.54560    0.48512    1.000
    Pr2      Pr       0.71572    0.45440    0.51488    1.000
    H1       H        0.94020    0.39780    0.07400    1.000
    H2       H        0.84980    0.27370    0.88250    1.000
    H3       H        0.17010    0.09570    0.93140    1.000
    H4       H        0.26330    0.22190    0.11730    1.000
    H5       H        0.91970    0.86610    0.66370    1.000
    H6       H        0.31940    0.99510    0.53820    1.000
    H7       H        0.19860    0.28640    0.71910    1.000
    H8       H        0.05980    0.60220    0.92600    1.000
    H9       H        0.15020    0.72630    0.11750    1.000
    H10      H        0.82990    0.90430    0.06860    1.000
    H11      H        0.73670    0.77810    0.88270    1.000
    H12      H        0.08030    0.13390    0.33630    1.000
    H13      H        0.68060    0.00490    0.46180    1.000
    H14      H        0.80140    0.71360    0.28090    1.000
    C1       C        0.17660    0.41050    0.23650    1.000
    C2       C        0.11650    0.32650    0.11660    1.000
    C3       C        0.98870    0.33900    0.04460    1.000
    C4       C        0.93410    0.26440    0.92980    1.000
    C5       C        0.00450    0.17780    0.88700    1.000
    C6       C        0.12590    0.15920    0.95920    1.000
    C7       C        0.18020    0.23380    0.07060    1.000
    C8       C        0.04880    0.07860    0.70620    1.000
    C9       C        0.01140    0.93870    0.65490    1.000
    C10      C        0.11150    0.90640    0.58980    1.000
    C11      C        0.07540    0.75540    0.53290    1.000
    C12      C        0.24860    0.01680    0.57760    1.000
    C13      C        0.27840    0.15750    0.62410    1.000
    C14      C        0.17870    0.19080    0.68850    1.000
    C15      C        0.42030    0.27460    0.60240    1.000
    C16      C        0.82340    0.58950    0.76350    1.000
    C17      C        0.88350    0.67350    0.88340    1.000
    C18      C        0.01130    0.66100    0.95540    1.000
    C19      C        0.06590    0.73560    0.07020    1.000
    C20      C        0.99550    0.82220    0.11300    1.000
    C21      C        0.87410    0.84080    0.04080    1.000
    C22      C        0.81980    0.76620    0.92940    1.000
    C23      C        0.95120    0.92140    0.29380    1.000
    C24      C        0.98860    0.06130    0.34510    1.000
    C25      C        0.88850    0.09360    0.41020    1.000
    C26      C        0.92460    0.24460    0.46710    1.000
    C27      C        0.75140    0.98320    0.42240    1.000
    C28      C        0.72160    0.84250    0.37590    1.000
    C29      C        0.82130    0.80920    0.31150    1.000
    C30      C        0.57970    0.72540    0.39760    1.000
    O1       O        0.28490    0.38940    0.30230    1.000
    O2       O        0.12240    0.50030    0.27370    1.000
    O3       O        0.94480    0.66220    0.53160    1.000
    O4       O        0.17870    0.73020    0.48800    1.000
    O5       O        0.41470    0.39410    0.57440    1.000
    O6       O        0.54620    0.25180    0.61130    1.000
    O7       O        0.94440    0.10620    0.77290    1.000
    O8       O        0.71510    0.61060    0.69770    1.000
    O9       O        0.87760    0.49970    0.72630    1.000
    O10      O        0.05520    0.33780    0.46840    1.000
    O11      O        0.82130    0.26980    0.51200    1.000
    O12      O        0.58530    0.60590    0.42560    1.000
    O13      O        0.45380    0.74820    0.38870    1.000
    O14      O        0.05560    0.89380    0.22710    1.000
