# CIF file generated by openbabel 3.1.0, see https://openbabel.org
data_I
_chemical_name_common 'SAYKIO_clean'
_cell_length_a 9.2925
_cell_length_b 18.4066
_cell_length_c 20.426
_cell_angle_alpha 113.807
_cell_angle_beta 90
_cell_angle_gamma 104.621
_space_group_name_H-M_alt 'P 1'
_space_group_name_Hall 'P 1'
loop_
    _symmetry_equiv_pos_as_xyz
    x,y,z
loop_
    _atom_site_label
    _atom_site_type_symbol
    _atom_site_fract_x
    _atom_site_fract_y
    _atom_site_fract_z
    _atom_site_occupancy
    U1       U        0.21818    0.32166    0.09426    1.000
    U2       U        0.89652    0.67834    0.40574    1.000
    U3       U        0.78182    0.67834    0.90574    1.000
    U4       U        0.10348    0.32166    0.59426    1.000
    U5       U        0.00000    0.00000    0.00000    1.000
    U6       U        0.00000    0.00000    0.50000    1.000
    H1       H        0.92220    0.77360    0.10530    1.000
    H2       H        0.79770    0.72680    0.13760    1.000
    H3       H        0.03770    0.92780    0.17570    1.000
    H4       H        0.05430    0.92360    0.25060    1.000
    H5       H        0.82650    0.84860    0.29660    1.000
    H6       H        0.69160    0.78300    0.23900    1.000
    H7       H        0.79530    0.86740    0.10240    1.000
    H8       H        0.72460    0.91940    0.16910    1.000
    H9       H        0.59270    0.79020    0.32550    1.000
    H10      H        0.35900    0.76400    0.38350    1.000
    H11      H        0.27270    0.94780    0.34930    1.000
    H12      H        0.47310    0.96960    0.29190    1.000
    H13      H        0.35530    0.70120    0.07670    1.000
    H14      H        0.14210    0.71380    0.02970    1.000
    H15      H        0.37570    0.92720    0.03110    1.000
    H16      H        0.58690    0.91840    0.08110    1.000
    H17      H        0.21670    0.74040    0.23160    1.000
    H18      H        0.28630    0.62120    0.20370    1.000
    H19      H        0.91860    0.49620    0.06780    1.000
    H20      H        0.85050    0.61760    0.09170    1.000
    H21      H        0.14860    0.22640    0.39470    1.000
    H22      H        0.07090    0.27320    0.36240    1.000
    H23      H        0.10990    0.07220    0.32430    1.000
    H24      H        0.13070    0.07640    0.24940    1.000
    H25      H        0.97790    0.15140    0.20340    1.000
    H26      H        0.90860    0.21700    0.26100    1.000
    H27      H        0.92790    0.13260    0.39760    1.000
    H28      H        0.80520    0.08060    0.33090    1.000
    H29      H        0.80250    0.20980    0.17450    1.000
    H30      H        0.59500    0.23600    0.11650    1.000
    H31      H        0.32490    0.05220    0.15070    1.000
    H32      H        0.50350    0.03040    0.20810    1.000
    H33      H        0.65410    0.29880    0.42330    1.000
    H34      H        0.42830    0.28620    0.47030    1.000
    H35      H        0.44850    0.07280    0.46890    1.000
    H36      H        0.66850    0.08160    0.41890    1.000
    H37      H        0.47630    0.25960    0.26840    1.000
    H38      H        0.66510    0.37880    0.29630    1.000
    H39      H        0.42240    0.50380    0.43220    1.000
    H40      H        0.23290    0.38240    0.40830    1.000
    H41      H        0.07780    0.22640    0.89470    1.000
    H42      H        0.20230    0.27320    0.86240    1.000
    H43      H        0.96230    0.07220    0.82430    1.000
    H44      H        0.94570    0.07640    0.74940    1.000
    H45      H        0.17350    0.15140    0.70340    1.000
    H46      H        0.30840    0.21700    0.76100    1.000
    H47      H        0.20470    0.13260    0.89760    1.000
    H48      H        0.27540    0.08060    0.83090    1.000
    H49      H        0.40730    0.20980    0.67450    1.000
    H50      H        0.64100    0.23600    0.61650    1.000
    H51      H        0.72730    0.05220    0.65070    1.000
    H52      H        0.52690    0.03040    0.70810    1.000
    H53      H        0.64470    0.29880    0.92330    1.000
    H54      H        0.85790    0.28620    0.97030    1.000
    H55      H        0.62430    0.07280    0.96890    1.000
    H56      H        0.41310    0.08160    0.91890    1.000
    H57      H        0.78330    0.25960    0.76840    1.000
    H58      H        0.71370    0.37880    0.79630    1.000
    H59      H        0.08140    0.50380    0.93220    1.000
    H60      H        0.14950    0.38240    0.90830    1.000
    H61      H        0.85140    0.77360    0.60530    1.000
    H62      H        0.92910    0.72680    0.63760    1.000
    H63      H        0.89010    0.92780    0.67570    1.000
    H64      H        0.86930    0.92360    0.75060    1.000
    H65      H        0.02210    0.84860    0.79660    1.000
    H66      H        0.09140    0.78300    0.73900    1.000
    H67      H        0.07210    0.86740    0.60240    1.000
    H68      H        0.19480    0.91940    0.66910    1.000
    H69      H        0.19750    0.79020    0.82550    1.000
    H70      H        0.40500    0.76400    0.88350    1.000
    H71      H        0.67510    0.94780    0.84930    1.000
    H72      H        0.49650    0.96960    0.79190    1.000
    H73      H        0.34590    0.70120    0.57670    1.000
    H74      H        0.57170    0.71380    0.52970    1.000
    H75      H        0.55150    0.92720    0.53110    1.000
    H76      H        0.33150    0.91840    0.58110    1.000
    H77      H        0.52370    0.74040    0.73160    1.000
    H78      H        0.33490    0.62120    0.70370    1.000
    H79      H        0.57760    0.49620    0.56780    1.000
    H80      H        0.76710    0.61760    0.59170    1.000
    C1       C        0.84570    0.85380    0.19280    1.000
    C2       C        0.88590    0.77320    0.14980    1.000
    C3       C        0.98630    0.92760    0.21700    1.000
    C4       C        0.75770    0.83860    0.25620    1.000
    C5       C        0.74590    0.86660    0.14410    1.000
    C6       C        0.54220    0.88240    0.30760    1.000
    C7       C        0.52350    0.82040    0.33100    1.000
    C8       C        0.38230    0.80460    0.36610    1.000
    C9       C        0.28990    0.85500    0.37080    1.000
    C10      C        0.33550    0.91400    0.34350    1.000
    C11      C        0.45400    0.93000    0.31050    1.000
    C12      C        0.15290    0.84740    0.40380    1.000
    C13      C        0.49160    0.81000    0.08800    1.000
    C14      C        0.35910    0.74840    0.06940    1.000
    C15      C        0.23160    0.75500    0.04020    1.000
    C16      C        0.23820    0.82520    0.02630    1.000
    C17      C        0.37000    0.88200    0.04150    1.000
    C18      C        0.49760    0.87720    0.07170    1.000
    C19      C        0.10230    0.83380    0.99950    1.000
    C20      C        0.02600    0.69020    0.16650    1.000
    C21      C        0.15510    0.69060    0.19820    1.000
    C22      C        0.19680    0.61980    0.18220    1.000
    C23      C        0.10350    0.54680    0.13380    1.000
    C24      C        0.97940    0.54640    0.10130    1.000
    C25      C        0.93640    0.61860    0.11570    1.000
    C26      C        0.14560    0.46980    0.12150    1.000
    C27      C        0.99190    0.14620    0.30720    1.000
    C28      C        0.11270    0.22680    0.35020    1.000
    C29      C        0.05870    0.07240    0.28300    1.000
    C30      C        0.91910    0.16140    0.24380    1.000
    C31      C        0.87930    0.13340    0.35590    1.000
    C32      C        0.65980    0.11760    0.19240    1.000
    C33      C        0.70310    0.17960    0.16900    1.000
    C34      C        0.57770    0.19540    0.13390    1.000
    C35      C        0.43490    0.14500    0.12920    1.000
    C36      C        0.42150    0.08600    0.15650    1.000
    C37      C        0.52400    0.07000    0.18950    1.000
    C38      C        0.30550    0.15260    0.09620    1.000
    C39      C        0.68160    0.19000    0.41200    1.000
    C40      C        0.61070    0.25160    0.43060    1.000
    C41      C        0.47660    0.24500    0.45980    1.000
    C42      C        0.41300    0.17480    0.47370    1.000
    C43      C        0.48800    0.11800    0.45850    1.000
    C44      C        0.62040    0.12280    0.42830    1.000
    C45      C        0.26850    0.16620    0.50050    1.000
    C46      C        0.33580    0.30980    0.33350    1.000
    C47      C        0.46450    0.30940    0.30180    1.000
    C48      C        0.57700    0.38020    0.31780    1.000
    C49      C        0.55670    0.45320    0.36620    1.000
    C50      C        0.43300    0.45360    0.39870    1.000
    C51      C        0.31780    0.38140    0.38430    1.000
    C52      C        0.67580    0.53020    0.37850    1.000
    C53      C        0.15430    0.14620    0.80720    1.000
    C54      C        0.11410    0.22680    0.85020    1.000
    C55      C        0.01370    0.07240    0.78300    1.000
    C56      C        0.24230    0.16140    0.74380    1.000
    C57      C        0.25410    0.13340    0.85590    1.000
    C58      C        0.45780    0.11760    0.69240    1.000
    C59      C        0.47650    0.17960    0.66900    1.000
    C60      C        0.61770    0.19540    0.63390    1.000
    C61      C        0.71010    0.14500    0.62920    1.000
    C62      C        0.66450    0.08600    0.65650    1.000
    C63      C        0.54600    0.07000    0.68950    1.000
    C64      C        0.84710    0.15260    0.59620    1.000
    C65      C        0.50840    0.19000    0.91200    1.000
    C66      C        0.64090    0.25160    0.93060    1.000
    C67      C        0.76840    0.24500    0.95980    1.000
    C68      C        0.76180    0.17480    0.97370    1.000
    C69      C        0.63000    0.11800    0.95850    1.000
    C70      C        0.50240    0.12280    0.92830    1.000
    C71      C        0.89770    0.16620    0.00050    1.000
    C72      C        0.97400    0.30980    0.83350    1.000
    C73      C        0.84490    0.30940    0.80180    1.000
    C74      C        0.80320    0.38020    0.81780    1.000
    C75      C        0.89650    0.45320    0.86620    1.000
    C76      C        0.02060    0.45360    0.89870    1.000
    C77      C        0.06360    0.38140    0.88430    1.000
    C78      C        0.85440    0.53020    0.87850    1.000
    C79      C        0.00810    0.85380    0.69280    1.000
    C80      C        0.88730    0.77320    0.64980    1.000
    C81      C        0.94130    0.92760    0.71700    1.000
    C82      C        0.08090    0.83860    0.75620    1.000
    C83      C        0.12070    0.86660    0.64410    1.000
    C84      C        0.34020    0.88240    0.80760    1.000
    C85      C        0.29690    0.82040    0.83100    1.000
    C86      C        0.42230    0.80460    0.86610    1.000
    C87      C        0.56510    0.85500    0.87080    1.000
    C88      C        0.57850    0.91400    0.84350    1.000
    C89      C        0.47600    0.93000    0.81050    1.000
    C90      C        0.69450    0.84740    0.90380    1.000
    C91      C        0.31840    0.81000    0.58800    1.000
    C92      C        0.38930    0.74840    0.56940    1.000
    C93      C        0.52340    0.75500    0.54020    1.000
    C94      C        0.58700    0.82520    0.52630    1.000
    C95      C        0.51200    0.88200    0.54150    1.000
    C96      C        0.37960    0.87720    0.57170    1.000
    C97      C        0.73150    0.83380    0.49950    1.000
    C98      C        0.66420    0.69020    0.66650    1.000
    C99      C        0.53550    0.69060    0.69820    1.000
    C100     C        0.42300    0.61980    0.68220    1.000
    C101     C        0.44330    0.54680    0.63380    1.000
    C102     C        0.56700    0.54640    0.60130    1.000
    C103     C        0.68220    0.61860    0.61570    1.000
    C104     C        0.32420    0.46980    0.62150    1.000
    O1       O        0.99470    0.76520    0.18990    1.000
    O2       O        0.67530    0.89860    0.27510    1.000
    O3       O        0.60681    0.80062    0.12090    1.000
    O4       O        0.26340    0.47060    0.15050    1.000
    O5       O        0.05660    0.40040    0.07980    1.000
    O6       O        0.11260    0.90040    0.99290    1.000
    O7       O        0.98310    0.77940    0.98170    1.000
    O8       O        0.10170    0.78700    0.41830    1.000
    O9       O        0.08660    0.90040    0.41530    1.000
    O10      O        0.22950    0.23480    0.31010    1.000
    O11      O        0.77670    0.10140    0.22490    1.000
    O12      O        0.80619    0.19938    0.37910    1.000
    O13      O        0.79280    0.52940    0.34950    1.000
    O14      O        0.65620    0.59960    0.42020    1.000
    O15      O        0.21220    0.09960    0.50710    1.000
    O16      O        0.20370    0.22060    0.51830    1.000
    O17      O        0.31470    0.21300    0.08170    1.000
    O18      O        0.18620    0.09960    0.08470    1.000
    O19      O        0.00530    0.23480    0.81010    1.000
    O20      O        0.32470    0.10140    0.72490    1.000
    O21      O        0.39319    0.19938    0.87910    1.000
    O22      O        0.73660    0.52940    0.84950    1.000
    O23      O        0.94340    0.59960    0.92020    1.000
    O24      O        0.88740    0.09960    0.00710    1.000
    O25      O        0.01690    0.22060    0.01830    1.000
    O26      O        0.89830    0.21300    0.58170    1.000
    O27      O        0.91340    0.09960    0.58470    1.000
    O28      O        0.77050    0.76520    0.68990    1.000
    O29      O        0.22330    0.89860    0.77510    1.000
    O30      O        0.19381    0.80062    0.62090    1.000
    O31      O        0.20720    0.47060    0.65050    1.000
    O32      O        0.34380    0.40040    0.57980    1.000
    O33      O        0.78780    0.90040    0.49290    1.000
    O34      O        0.79630    0.77940    0.48170    1.000
    O35      O        0.68530    0.78700    0.91830    1.000
    O36      O        0.81380    0.90040    0.91530    1.000
    O37      O        0.94180    0.00000    0.25000    1.000
    O38      O        0.05820    0.00000    0.75000    1.000
