# CIF file generated by openbabel 3.1.0, see https://openbabel.org
data_I
_chemical_name_common 'image0'
_cell_length_a 9.9914
_cell_length_b 11.5536
_cell_length_c 18.1034
_cell_angle_alpha 101.148
_cell_angle_beta 103.937
_cell_angle_gamma 91.631
_space_group_name_H-M_alt 'P 1'
_space_group_name_Hall 'P 1'
loop_
    _symmetry_equiv_pos_as_xyz
    x,y,z
loop_
    _atom_site_label
    _atom_site_type_symbol
    _atom_site_fract_x
    _atom_site_fract_y
    _atom_site_fract_z
    _atom_site_occupancy
    N1       N        0.39140    0.03510    0.23900    1.000
    C1       C        0.31480    0.06190    0.29120    1.000
    H1       H        0.22520    0.08160    0.27210    1.000
    C2       C        0.35490    0.06330    0.36930    1.000
    H2       H        0.29380    0.08250    0.40040    1.000
    C3       C        0.48580    0.03590    0.40100    1.000
    C4       C        0.57010    0.00680    0.35110    1.000
    H3       H        0.65950    0.98630    0.36960    1.000
    C5       C        0.52000    0.00870    0.27400    1.000
    H4       H        0.58030    0.99000    0.24230    1.000
    C6       C        0.53540    0.03370    0.48510    1.000
    H5       H        0.61500    0.07900    0.51570    1.000
    N2       N        0.40360    0.00650    0.23600    1.000
    C7       C        0.31300    0.97000    0.27020    1.000
    H6       H        0.22060    0.95320    0.24330    1.000
    C8       C        0.35650    0.95690    0.34630    1.000
    H7       H        0.29300    0.93160    0.37100    1.000
    C9       C        0.49490    0.98160    0.38600    1.000
    C10      C        0.58580    0.02020    0.34660    1.000
    H8       H        0.67910    0.03760    0.37150    1.000
    C11      C        0.53700    0.03270    0.27050    1.000
    H9       H        0.59670    0.05900    0.24390    1.000
    C12      C        0.54550    0.96980    0.46860    1.000
    H10      H        0.62400    0.93080    0.48470    1.000
    Ni1      Ni       0.32496    0.04946    0.12464    1.000
    Ni2      Ni       0.93992    0.30789    0.28306    1.000
    O1       O        0.08170    0.45041    0.31648    1.000
    O2       O        0.11850    0.30105    0.23222    1.000
    O3       O        0.38880    0.22442    0.18097    1.000
    O4       O        0.27310    0.32470    0.09543    1.000
    N3       N        0.24900    0.87320    0.08122    1.000
    N4       N        0.81610    0.37410    0.35287    1.000
    N5       N        0.81960    0.34970    0.18437    1.000
    C13      C        0.28610    0.46890    0.27322    1.000
    C14      C        0.36910    0.42930    0.22294    1.000
    C15      C        0.48980    0.49980    0.22880    1.000
    H11      H        0.54640    0.47410    0.19600    1.000
    C16      C        0.44430    0.64400    0.33140    1.000
    H12      H        0.46860    0.71480    0.36780    1.000
    C17      C        0.32540    0.57640    0.32650    1.000
    H13      H        0.26960    0.60310    0.35970    1.000
    C18      C        0.15620    0.40270    0.27344    1.000
    C19      C        0.33880    0.31670    0.16156    1.000
    C20      C        0.65440    0.68270    0.28550    1.000
    H14      H        0.67040    0.74660    0.33010    1.000
    H15      H        0.64090    0.71420    0.23920    1.000
    H16      H        0.73290    0.63610    0.28980    1.000
    C21      C        0.30720    0.78580    0.11350    1.000
    H17      H        0.39280    0.80300    0.14930    1.000
    C22      C        0.24730    0.67250    0.09650    1.000
    H18      H        0.29120    0.61570    0.12160    1.000
    C23      C        0.12140    0.64230    0.04210    1.000
    C24      C        0.06340    0.73110    0.00580    1.000
    H19      H        0.98080    0.71480    0.96730    1.000
    C25      C        0.12910    0.84350    0.02717    1.000
    H20      H        0.08780    0.90190    0.00270    1.000
    C26      C        0.05960    0.52000    0.02510    1.000
    H21      H        0.10830    0.46680    0.05170    1.000
    C27      C        0.85970    0.46770    0.41110    1.000
    H22      H        0.94820    0.50290    0.41890    1.000
    C28      C        0.78050    0.51470    0.46030    1.000
    H23      H        0.81540    0.58040    0.49990    1.000
    C29      C        0.64870    0.46410    0.45080    1.000
    C30      C        0.60390    0.36660    0.39110    1.000
    H24      H        0.51640    0.32910    0.38290    1.000
    C31      C        0.68840    0.32460    0.34340    1.000
    H25      H        0.65560    0.25940    0.30320    1.000
    C32      C        0.56330    0.51660    0.50260    1.000
    H26      H        0.60470    0.57970    0.54280    1.000
    C33      C        0.82940    0.45600    0.16650    1.000
    H27      H        0.90330    0.50950    0.19560    1.000
    C34      C        0.73530    0.49020    0.10700    1.000
    H28      H        0.74570    0.56550    0.09700    1.000
    C35      C        0.62500    0.41210    0.06233    1.000
    C36      C        0.61940    0.29980    0.07760    1.000
    H29      H        0.54980    0.24320    0.04710    1.000
    C37      C        0.71660    0.27200    0.13790    1.000
    H30      H        0.71110    0.19570    0.14710    1.000
    C38      C        0.51150    0.44550    0.00390    1.000
    H31      H        0.45120    0.38480    0.96980    1.000
    C39      C        0.52710    0.60610    0.28180    1.000
    N6       N        0.60860    0.96490    0.76100    1.000
    C40      C        0.68520    0.93810    0.70880    1.000
    H32      H        0.77480    0.91840    0.72790    1.000
    C41      C        0.64510    0.93670    0.63070    1.000
    H33      H        0.70620    0.91750    0.59960    1.000
    C42      C        0.51420    0.96410    0.59900    1.000
    C43      C        0.42990    0.99320    0.64890    1.000
    H34      H        0.34050    0.01370    0.63040    1.000
    C44      C        0.48000    0.99130    0.72600    1.000
    H35      H        0.41970    0.01000    0.75770    1.000
    C45      C        0.46460    0.96630    0.51490    1.000
    H36      H        0.38500    0.92100    0.48430    1.000
    N7       N        0.59640    0.99350    0.76400    1.000
    C46      C        0.68700    0.03000    0.72980    1.000
    H37      H        0.77940    0.04680    0.75670    1.000
    C47      C        0.64350    0.04310    0.65370    1.000
    H38      H        0.70700    0.06840    0.62900    1.000
    C48      C        0.50510    0.01840    0.61400    1.000
    C49      C        0.41420    0.97980    0.65340    1.000
    H39      H        0.32090    0.96240    0.62850    1.000
    C50      C        0.46300    0.96730    0.72950    1.000
    H40      H        0.40330    0.94100    0.75610    1.000
    C51      C        0.45450    0.03020    0.53140    1.000
    H41      H        0.37600    0.06920    0.51530    1.000
    Ni3      Ni       0.67504    0.95054    0.87536    1.000
    Ni4      Ni       0.06008    0.69211    0.71694    1.000
    O5       O        0.91830    0.54959    0.68352    1.000
    O6       O        0.88150    0.69895    0.76778    1.000
    O7       O        0.61120    0.77558    0.81903    1.000
    O8       O        0.72690    0.67530    0.90457    1.000
    N8       N        0.75100    0.12680    0.91878    1.000
    N9       N        0.18390    0.62590    0.64713    1.000
    N10      N        0.18040    0.65030    0.81563    1.000
    C52      C        0.71390    0.53110    0.72678    1.000
    C53      C        0.63090    0.57070    0.77706    1.000
    C54      C        0.51020    0.50020    0.77120    1.000
    H42      H        0.45360    0.52590    0.80400    1.000
    C55      C        0.55570    0.35600    0.66860    1.000
    H43      H        0.53140    0.28520    0.63220    1.000
    C56      C        0.67460    0.42360    0.67350    1.000
    H44      H        0.73040    0.39690    0.64030    1.000
    C57      C        0.84380    0.59730    0.72656    1.000
    C58      C        0.66120    0.68330    0.83844    1.000
    C59      C        0.34560    0.31730    0.71450    1.000
    H45      H        0.32960    0.25340    0.66990    1.000
    H46      H        0.35910    0.28580    0.76080    1.000
    H47      H        0.26710    0.36390    0.71020    1.000
    C60      C        0.69280    0.21420    0.88650    1.000
    H48      H        0.60720    0.19700    0.85070    1.000
    C61      C        0.75270    0.32750    0.90350    1.000
    H49      H        0.70880    0.38430    0.87840    1.000
    C62      C        0.87860    0.35770    0.95790    1.000
    C63      C        0.93660    0.26890    0.99420    1.000
    H50      H        0.01920    0.28520    0.03270    1.000
    C64      C        0.87090    0.15650    0.97283    1.000
    H51      H        0.91220    0.09810    0.99730    1.000
    C65      C        0.94040    0.48000    0.97490    1.000
    H52      H        0.89170    0.53320    0.94830    1.000
    C66      C        0.14030    0.53230    0.58890    1.000
    H53      H        0.05180    0.49710    0.58110    1.000
    C67      C        0.21950    0.48530    0.53970    1.000
    H54      H        0.18460    0.41960    0.50010    1.000
    C68      C        0.35130    0.53590    0.54920    1.000
    C69      C        0.39610    0.63340    0.60890    1.000
    H55      H        0.48360    0.67090    0.61710    1.000
    C70      C        0.31160    0.67540    0.65660    1.000
    H56      H        0.34440    0.74060    0.69680    1.000
    C71      C        0.43670    0.48340    0.49740    1.000
    H57      H        0.39530    0.42030    0.45720    1.000
    C72      C        0.17060    0.54400    0.83350    1.000
    H58      H        0.09670    0.49050    0.80440    1.000
    C73      C        0.26470    0.50980    0.89300    1.000
    H59      H        0.25430    0.43450    0.90300    1.000
    C74      C        0.37500    0.58790    0.93767    1.000
    C75      C        0.38060    0.70020    0.92240    1.000
    H60      H        0.45020    0.75680    0.95290    1.000
    C76      C        0.28340    0.72800    0.86210    1.000
    H61      H        0.28890    0.80430    0.85290    1.000
    C77      C        0.48850    0.55450    0.99610    1.000
    H62      H        0.54880    0.61520    0.03020    1.000
    C78      C        0.47290    0.39390    0.71820    1.000
