# CIF file generated by openbabel 3.1.0, see https://openbabel.org
data_I
_chemical_name_common 'image0'
_cell_length_a 12.4882
_cell_length_b 13.1951
_cell_length_c 19.756
_cell_angle_alpha 78.959
_cell_angle_beta 84.553
_cell_angle_gamma 63.869
_space_group_name_H-M_alt 'P 1'
_space_group_name_Hall 'P 1'
loop_
    _symmetry_equiv_pos_as_xyz
    x,y,z
loop_
    _atom_site_label
    _atom_site_type_symbol
    _atom_site_fract_x
    _atom_site_fract_y
    _atom_site_fract_z
    _atom_site_occupancy
    Cu1      Cu       0.58012    0.56020    0.20913    1.000
    Cu2      Cu       0.25565    0.77357    0.24882    1.000
    Cu3      Cu       0.93567    0.99148    0.29175    1.000
    N1       N        0.43920    0.55180    0.17540    1.000
    N2       N        0.32130    0.62750    0.18110    1.000
    N3       N        0.33290    0.49390    0.12560    1.000
    N4       N        0.67390    0.50180    0.12460    1.000
    N5       N        0.77580    0.39940    0.12990    1.000
    N6       N        0.23730    0.50630    0.97580    1.000
    N7       N        0.37340    0.82870    0.19880    1.000
    N8       N        0.48320    0.76060    0.17110    1.000
    N9       N        0.45650    0.94030    0.15070    1.000
    N10      N        0.79510    0.99560    0.25000    1.000
    N11      N        0.80940    0.89690    0.22740    1.000
    N12      N        0.62350    0.02530    0.21530    1.000
    N13      N        0.49880    0.59670    0.30340    1.000
    N14      N        0.38140    0.66780    0.31710    1.000
    N15      N        0.47220    0.59220    0.41480    1.000
    N16      N        0.13220    0.89130    0.18360    1.000
    N17      N        0.02030    0.97190    0.19740    1.000
    N18      N        0.05140    0.99400    0.08590    1.000
    N19      N        0.13450    0.72170    0.30160    1.000
    N20      N        0.01980    0.79670    0.31790    1.000
    N21      N        0.03840    0.62100    0.34890    1.000
    N22      N        0.72880    0.55910    0.23930    1.000
    N23      N        0.76750    0.64020    0.20580    1.000
    N24      N        0.90140    0.51710    0.28220    1.000
    N25      N        0.18980    0.92570    0.31900    1.000
    N26      N        0.07270    0.99360    0.33390    1.000
    N27      N        0.18430    0.04550    0.38320    1.000
    N28      N        0.83670    0.02820    0.37900    1.000
    N29      N        0.73300    0.12850    0.37880    1.000
    N30      N        0.26500    0.99610    0.52910    1.000
    C1       C        0.29930    0.41560    0.09830    1.000
    C2       C        0.19970    0.47240    0.04640    1.000
    C3       C        0.25980    0.59160    0.15060    1.000
    C4       C        0.44370    0.47200    0.14260    1.000
    C5       C        0.82780    0.39850    0.06970    1.000
    C6       C        0.66780    0.55650    0.06090    1.000
    C7       C        0.47480    0.04460    0.13190    1.000
    C8       C        0.49630    0.08230    0.19500    1.000
    C9       C        0.35990    0.93500    0.18510    1.000
    C10      C        0.52910    0.83110    0.14240    1.000
    C11      C        0.70470    0.91670    0.20820    1.000
    C12      C        0.68430    0.06830    0.24230    1.000
    C13      C        0.49570    0.55990    0.48850    1.000
    C14      C        0.36800    0.66330    0.38350    1.000
    C15      C        0.55130    0.55400    0.36310    1.000
    C16      C        0.03220    0.03070    0.01260    1.000
    C17      C        0.97250    0.03170    0.13810    1.000
    C18      C        0.14850    0.90620    0.11680    1.000
    C19      C        0.01020    0.52470    0.37920    1.000
    C20      C        0.00840    0.45800    0.32460    1.000
    C21      C        0.96530    0.73370    0.34600    1.000
    C22      C        0.14260    0.61800    0.32100    1.000
    C23      C        0.87070    0.61200    0.23220    1.000
    C24      C        0.81160    0.48560    0.28320    1.000
    C25      C        0.21980    0.11920    0.41360    1.000
    C26      C        0.31110    0.05180    0.47040    1.000
    C27      C        0.07150    0.06380    0.37200    1.000
    C28      C        0.25500    0.95940    0.34860    1.000
    C29      C        0.67320    0.11020    0.43470    1.000
    C30      C        0.83540    0.95490    0.43390    1.000
    H1       H        0.27520    0.37060    0.13750    1.000
    H2       H        0.37070    0.36120    0.07640    1.000
    H3       H        0.16410    0.41910    0.04480    1.000
    H4       H        0.13690    0.54140    0.06250    1.000
    H5       H        0.40370    0.10660    0.10750    1.000
    H6       H        0.54420    0.03030    0.10000    1.000
    H7       H        0.46970    0.16630    0.18550    1.000
    H8       H        0.44760    0.06510    0.23390    1.000
    H9       H        0.43040    0.61450    0.51400    1.000
    H10      H        0.57130    0.56150    0.49810    1.000
    H11      H        0.10970    0.01250    0.98820    1.000
    H12      H        0.98340    0.11450    0.00270    1.000
    H13      H        0.93130    0.55420    0.40250    1.000
    H14      H        0.07040    0.47260    0.41430    1.000
    H15      H        0.07950    0.44430    0.29430    1.000
    H16      H        0.01340    0.38250    0.34770    1.000
    H17      H        0.25390    0.15950    0.37700    1.000
    H18      H        0.14830    0.17780    0.43290    1.000
    H19      H        0.33650    0.10430    0.48660    1.000
    H20      H        0.38220    0.99280    0.45110    1.000
    H21      H        0.17540    0.62840    0.14640    1.000
    H22      H        0.51460    0.40850    0.13240    1.000
    H23      H        0.90170    0.33910    0.05890    1.000
    H24      H        0.60600    0.62890    0.04350    1.000
    H25      H        0.29190    0.99900    0.19750    1.000
    H26      H        0.60370    0.80850    0.11870    1.000
    H27      H        0.68670    0.86310    0.19150    1.000
    H28      H        0.65100    0.14250    0.25450    1.000
    H29      H        0.29550    0.70420    0.40650    1.000
    H30      H        0.63340    0.50320    0.36950    1.000
    H31      H        0.89440    0.09230    0.13240    1.000
    H32      H        0.21870    0.86160    0.09330    1.000
    H33      H        0.88500    0.76320    0.36210    1.000
    H34      H        0.21230    0.54990    0.31600    1.000
    H35      H        0.91830    0.65220    0.21840    1.000
    H36      H        0.80890    0.41990    0.31150    1.000
    H37      H        0.00160    0.12000    0.38960    1.000
    H38      H        0.33960    0.92800    0.34630    1.000
    H39      H        0.59720    0.16410    0.44780    1.000
    H40      H        0.89570    0.87910    0.44580    1.000
    Cu4      Cu       0.41988    0.43980    0.79087    1.000
    Cu5      Cu       0.74435    0.22643    0.75118    1.000
    Cu6      Cu       0.06433    0.00852    0.70825    1.000
    N31      N        0.56080    0.44820    0.82460    1.000
    N32      N        0.67870    0.37250    0.81890    1.000
    N33      N        0.66710    0.50610    0.87440    1.000
    N34      N        0.32610    0.49820    0.87540    1.000
    N35      N        0.22420    0.60060    0.87010    1.000
    N36      N        0.76270    0.49370    0.02420    1.000
    N37      N        0.62660    0.17130    0.80120    1.000
    N38      N        0.51680    0.23940    0.82890    1.000
    N39      N        0.54350    0.05970    0.84930    1.000
    N40      N        0.20490    0.00440    0.75000    1.000
    N41      N        0.19060    0.10310    0.77260    1.000
    N42      N        0.37650    0.97470    0.78470    1.000
    N43      N        0.50120    0.40330    0.69660    1.000
    N44      N        0.61860    0.33220    0.68290    1.000
    N45      N        0.52780    0.40780    0.58520    1.000
    N46      N        0.86780    0.10870    0.81640    1.000
    N47      N        0.97970    0.02810    0.80260    1.000
    N48      N        0.94860    0.00600    0.91410    1.000
    N49      N        0.86550    0.27830    0.69840    1.000
    N50      N        0.98020    0.20330    0.68210    1.000
    N51      N        0.96160    0.37900    0.65110    1.000
    N52      N        0.27120    0.44090    0.76070    1.000
    N53      N        0.23250    0.35980    0.79420    1.000
    N54      N        0.09860    0.48290    0.71780    1.000
    N55      N        0.81020    0.07430    0.68100    1.000
    N56      N        0.92730    0.00640    0.66610    1.000
    N57      N        0.81570    0.95450    0.61680    1.000
    N58      N        0.16330    0.97180    0.62100    1.000
    N59      N        0.26700    0.87150    0.62120    1.000
    N60      N        0.73500    0.00390    0.47090    1.000
    C31      C        0.70070    0.58440    0.90170    1.000
    C32      C        0.80030    0.52760    0.95360    1.000
    C33      C        0.74020    0.40840    0.84940    1.000
    C34      C        0.55630    0.52800    0.85740    1.000
    C35      C        0.17220    0.60150    0.93030    1.000
    C36      C        0.33220    0.44350    0.93910    1.000
    C37      C        0.52520    0.95540    0.86810    1.000
    C38      C        0.50370    0.91770    0.80500    1.000
    C39      C        0.64010    0.06500    0.81490    1.000
    C40      C        0.47090    0.16890    0.85760    1.000
    C41      C        0.29530    0.08330    0.79180    1.000
    C42      C        0.31570    0.93170    0.75770    1.000
    C43      C        0.50430    0.44010    0.51150    1.000
    C44      C        0.63200    0.33670    0.61650    1.000
    C45      C        0.44870    0.44600    0.63690    1.000
    C46      C        0.96780    0.96930    0.98740    1.000
    C47      C        0.02750    0.96830    0.86190    1.000
    C48      C        0.85150    0.09380    0.88320    1.000
    C49      C        0.98980    0.47530    0.62080    1.000
    C50      C        0.99160    0.54200    0.67540    1.000
    C51      C        0.03470    0.26630    0.65400    1.000
    C52      C        0.85740    0.38200    0.67900    1.000
    C53      C        0.12930    0.38800    0.76780    1.000
    C54      C        0.18840    0.51440    0.71680    1.000
    C55      C        0.78020    0.88080    0.58640    1.000
    C56      C        0.68890    0.94820    0.52960    1.000
    C57      C        0.92850    0.93620    0.62800    1.000
    C58      C        0.74500    0.04060    0.65140    1.000
    C59      C        0.32680    0.88980    0.56530    1.000
    C60      C        0.16460    0.04510    0.56610    1.000
    H41      H        0.72480    0.62940    0.86250    1.000
    H42      H        0.62930    0.63880    0.92360    1.000
    H43      H        0.83590    0.58090    0.95520    1.000
    H44      H        0.86310    0.45860    0.93750    1.000
    H45      H        0.59630    0.89340    0.89250    1.000
    H46      H        0.45580    0.96970    0.90000    1.000
    H47      H        0.53030    0.83370    0.81450    1.000
    H48      H        0.55240    0.93490    0.76610    1.000
    H49      H        0.56960    0.38550    0.48600    1.000
    H50      H        0.42870    0.43850    0.50190    1.000
    H51      H        0.89030    0.98750    0.01180    1.000
    H52      H        0.01660    0.88550    0.99730    1.000
    H53      H        0.06870    0.44580    0.59750    1.000
    H54      H        0.92960    0.52740    0.58570    1.000
    H55      H        0.92050    0.55570    0.70570    1.000
    H56      H        0.98660    0.61750    0.65230    1.000
    H57      H        0.74610    0.84050    0.62300    1.000
    H58      H        0.85170    0.82220    0.56710    1.000
    H59      H        0.66350    0.89570    0.51340    1.000
    H60      H        0.61780    0.00720    0.54890    1.000
    H61      H        0.82460    0.37160    0.85360    1.000
    H62      H        0.48540    0.59150    0.86760    1.000
    H63      H        0.09830    0.66090    0.94110    1.000
    H64      H        0.39400    0.37110    0.95650    1.000
    H65      H        0.70810    0.00100    0.80250    1.000
    H66      H        0.39630    0.19150    0.88130    1.000
    H67      H        0.31330    0.13690    0.80850    1.000
    H68      H        0.34900    0.85750    0.74550    1.000
    H69      H        0.70450    0.29580    0.59350    1.000
    H70      H        0.36660    0.49680    0.63050    1.000
    H71      H        0.10560    0.90770    0.86760    1.000
    H72      H        0.78130    0.13840    0.90670    1.000
    H73      H        0.11500    0.23680    0.63790    1.000
    H74      H        0.78770    0.45010    0.68400    1.000
    H75      H        0.08170    0.34780    0.78160    1.000
    H76      H        0.19110    0.58010    0.68850    1.000
    H77      H        0.99840    0.88000    0.61040    1.000
    H78      H        0.66040    0.07200    0.65370    1.000
    H79      H        0.40280    0.83590    0.55220    1.000
    H80      H        0.10430    0.12090    0.55420    1.000
