# CIF file generated by openbabel 3.1.0, see https://openbabel.org
data_I
_chemical_name_common 'image0'
_cell_length_a 9.6008
_cell_length_b 11.5422
_cell_length_c 14.2886
_cell_angle_alpha 90
_cell_angle_beta 122.46
_cell_angle_gamma 90
_space_group_name_H-M_alt 'P 1'
_space_group_name_Hall 'P 1'
loop_
    _symmetry_equiv_pos_as_xyz
    x,y,z
loop_
    _atom_site_label
    _atom_site_type_symbol
    _atom_site_fract_x
    _atom_site_fract_y
    _atom_site_fract_z
    _atom_site_occupancy
    Y1       Y        0.61770    0.98846    0.33257    1.000
    O1       O        0.70490    0.78990    0.34286    1.000
    O2       O        0.61670    0.60733    0.29500    1.000
    O3       O        0.30540    0.68334    0.17013    1.000
    O4       O        0.39590    0.86535    0.20743    1.000
    O5       O        0.51980    0.88268    0.43190    1.000
    O6       O        0.46130    0.88762    0.56330    1.000
    O7       O        0.88920    0.99123    0.35640    1.000
    O8       O        0.16110    0.01036    0.47848    1.000
    C1       C        0.59600    0.71480    0.29190    1.000
    C2       C        0.41630    0.75870    0.21660    1.000
    C3       C        0.49470    0.93350    0.49840    1.000
    C4       C        0.01510    0.00050    0.45240    1.000
    Y2       Y        0.38230    0.48846    0.16743    1.000
    O9       O        0.29510    0.28990    0.15714    1.000
    O10      O        0.38330    0.10733    0.20500    1.000
    O11      O        0.69460    0.18334    0.32987    1.000
    O12      O        0.60410    0.36535    0.29257    1.000
    O13      O        0.48020    0.38268    0.06810    1.000
    O14      O        0.53870    0.38762    0.93670    1.000
    O15      O        0.11080    0.49123    0.14360    1.000
    O16      O        0.83890    0.51036    0.02152    1.000
    C5       C        0.40400    0.21480    0.20810    1.000
    C6       C        0.58370    0.25870    0.28340    1.000
    C7       C        0.50530    0.43350    0.00160    1.000
    C8       C        0.98490    0.50050    0.04760    1.000
    Y3       Y        0.38230    0.01154    0.66743    1.000
    O17      O        0.29510    0.21010    0.65714    1.000
    O18      O        0.38330    0.39267    0.70500    1.000
    O19      O        0.69460    0.31666    0.82987    1.000
    O20      O        0.60410    0.13465    0.79257    1.000
    O21      O        0.48020    0.11732    0.56810    1.000
    O22      O        0.53870    0.11238    0.43670    1.000
    O23      O        0.11080    0.00877    0.64360    1.000
    O24      O        0.83890    0.98964    0.52152    1.000
    C9       C        0.40400    0.28520    0.70810    1.000
    C10      C        0.58370    0.24130    0.78340    1.000
    C11      C        0.50530    0.06650    0.50160    1.000
    C12      C        0.98490    0.99950    0.54760    1.000
    Y4       Y        0.61770    0.51154    0.83257    1.000
    O25      O        0.70490    0.71010    0.84286    1.000
    O26      O        0.61670    0.89267    0.79500    1.000
    O27      O        0.30540    0.81666    0.67013    1.000
    O28      O        0.39590    0.63465    0.70743    1.000
    O29      O        0.51980    0.61732    0.93190    1.000
    O30      O        0.46130    0.61238    0.06330    1.000
    O31      O        0.88920    0.50877    0.85640    1.000
    O32      O        0.16110    0.48964    0.97848    1.000
    C13      C        0.59600    0.78520    0.79190    1.000
    C14      C        0.41630    0.74130    0.71660    1.000
    C15      C        0.49470    0.56650    0.99840    1.000
    C16      C        0.01510    0.49950    0.95240    1.000
