data_functionalizedCrystal
_audit_creation_method	'EQeq! by Chris Wilmer'
_symmetry_space_group_name_H-M	'P1'
_symmetry_Int_Tables_number	1
_symmetry_cell_setting	triclinic
loop_
_symmetry_equiv_pos_as_xyz
  x,y,z
_cell_length_a	24.8446
_cell_length_b	24.8446
_cell_length_c	47.2409
_cell_angle_alpha	90
_cell_angle_beta	90
_cell_angle_gamma	90
loop_
_atom_site_label
_atom_site_type_symbol
_atom_site_fract_x
_atom_site_fract_y
_atom_site_fract_z
_atom_site_charge
Mof_Ag	Ag	0.7172	0.6555	0.22789	0.515
Mof_Ag	Ag	0.85082	0.60959	0.24873	0.553
Mof_Ag	Ag	0.81454	0.49703	0.28683	0.505
Mof_Ag	Ag	0.67537	0.55643	0.27239	0.542
Mof_Ag	Ag	0.72863	0.7358	0.28925	0.564
Mof_Ag	Ag	0.87506	0.71523	0.31008	0.509
Mof_Ag	Ag	0.80243	0.59222	0.34406	0.572
Mof_Ag	Ag	0.65343	0.63979	0.34365	0.516
Mof_Pd	Pd	0.75874	0.49601	0.20444	0.478
Mof_Pd	Pd	0.83499	0.77235	0.22866	0.467
Mof_Pd	Pd	0.95508	0.57007	0.31237	0.464
Mof_Pd	Pd	0.68848	0.47579	0.34586	0.491
Mof_Pd	Pd	0.57371	0.68346	0.26938	0.45
Mof_Pd	Pd	0.76483	0.74709	0.3729	0.455
Mof_Br	Br	0.76445	0.62435	0.28905	-0.632
Mof_La	La	0.92337	0.37738	0.11276	1.7
Mof_S 	S 	0.69884	0.55792	0.21961	-0.458
Mof_S 	S 	0.82666	0.51457	0.23504	-0.432
Mof_S 	S 	0.81102	0.68665	0.22005	-0.447
Mof_S 	S 	0.81984	0.77179	0.27609	-0.444
Mof_S 	S 	0.91983	0.6366	0.28442	-0.425
Mof_S 	S 	0.87538	0.53139	0.3245	-0.438
Mof_S 	S 	0.71752	0.48007	0.30061	-0.424
Mof_S 	S 	0.7105	0.56002	0.35898	-0.434
Mof_S 	S 	0.60691	0.61563	0.29694	-0.418
Mof_S 	S 	0.6539	0.71516	0.25406	-0.474
Mof_S 	S 	0.69945	0.73043	0.34033	-0.422
Mof_S 	S 	0.82713	0.68834	0.35653	-0.433
Mof_O 	O 	0.60915	0.45147	0.14951	-0.303
Mof_O 	O 	0.59377	0.5356	0.13321	-0.272
Mof_O 	O 	0.88725	0.39273	0.16169	-0.499
Mof_O 	O 	0.9357	0.3741	0.19827	-0.363
Mof_O 	O 	0.87497	0.76248	0.13081	-0.365
Mof_O 	O 	0.7979	0.7228	0.12279	-0.3
Mof_O 	O 	0.8591	0.9563	0.24383	-0.334
Mof_O 	O 	0.9023	0.942	0.28835	-0.344
Mof_O 	O 	0.11343	0.639	0.27443	-0.309
Mof_O 	O 	0.0891	0.7204	0.27661	-0.304
Mof_O 	O 	0.93372	0.47495	0.11867	-0.548
Mof_O 	O 	0.87236	0.53607	0.10655	-0.313
Mof_O 	O 	0.63752	0.30215	0.31473	-0.298
Mof_O 	O 	0.71346	0.29044	0.29289	-0.3
Mof_O 	O 	0.67186	0.45215	0.44223	-0.341
Mof_O 	O 	0.6359	0.53071	0.45142	-0.265
Mof_O 	O 	0.41544	0.5891	0.29581	-0.323
Mof_O 	O 	0.4381	0.5858	0.3401	-0.305
Mof_O 	O 	0.98894	0.32184	0.04124	-0.314
Mof_O 	O 	0.92279	0.31006	0.0727	-0.49
Mof_O 	O 	0.64279	0.88188	0.39687	-0.286
Mof_O 	O 	0.5678	0.83844	0.38992	-0.318
Mof_O 	O 	0.89461	0.765	0.44436	-0.422
Mof_O 	O 	0.96566	0.75589	0.4188	-0.361
Mof_N 	N 	0.70476	0.4815	0.17427	-0.254
Mof_H 	H 	0.7229	0.4755	0.1576	0.104
Mof_H 	H 	0.6868	0.4502	0.1788	0.122
Mof_N 	N 	0.80879	0.43568	0.18961	-0.238
Mof_H 	H 	0.7894	0.4042	0.1889	0.109
Mof_H 	H 	0.8187	0.4441	0.1714	0.103
Mof_N 	N 	0.8411	0.78008	0.18453	-0.242
Mof_H 	H 	0.8256	0.812	0.179	0.096
Mof_H 	H 	0.8769	0.7812	0.1795	0.116
Mof_N 	N 	0.8678	0.8494	0.23499	-0.255
Mof_H 	H 	0.9008	0.8516	0.2263	0.129
Mof_H 	H 	0.8456	0.8749	0.227	0.111
Mof_N 	N 	0.02647	0.60522	0.30435	-0.247
Mof_H 	H 	0.0447	0.6089	0.3212	0.116
Mof_H 	H 	0.0463	0.5825	0.293	0.102
Mof_N 	N 	0.98829	0.50938	0.33561	-0.232
Mof_H 	H 	0.0213	0.501	0.328	0.083
Mof_H 	H 	0.994	0.5217	0.3537	0.078
Mof_N 	N 	0.6723	0.39723	0.33746	-0.253
Mof_H 	H 	0.6805	0.3772	0.3533	0.141
Mof_H 	H 	0.6359	0.3938	0.3343	0.119
Mof_N 	N 	0.663	0.46735	0.38764	-0.245
Mof_H 	H 	0.6291	0.4523	0.3877	0.108
Mof_H 	H 	0.6858	0.4439	0.3968	0.122
Mof_N 	N 	0.49744	0.65968	0.28462	-0.235
Mof_H 	H 	0.4786	0.6898	0.29	0.102
Mof_H 	H 	0.4787	0.6435	0.2701	0.081
Mof_N 	N 	0.53962	0.73893	0.24009	-0.22
Mof_H 	H 	0.5112	0.7229	0.2309	0.073
Mof_H 	H 	0.5266	0.7683	0.2498	0.085
Mof_N 	N 	0.70986	0.79601	0.39037	-0.241
Mof_H 	H 	0.7093	0.7889	0.4095	0.073
Mof_H 	H 	0.7222	0.8307	0.3883	0.09
Mof_N 	N 	0.82013	0.76826	0.40166	-0.239
Mof_H 	H 	0.8217	0.8052	0.4024	0.077
Mof_H 	H 	0.8089	0.7564	0.4191	0.056
Mof_C 	C 	0.6382	0.5422	0.19667	0.452
Mof_C 	C 	0.6639	0.5248	0.16932	-0.227
Mof_H 	H 	0.6812	0.5564	0.1599	0.085
Mof_C 	C 	0.6167	0.4988	0.14822	0.327
Mof_C 	C 	0.6043	0.504	0.20967	-0.827
Mof_H 	H 	0.5892	0.5193	0.2271	0.222
Mof_H 	H 	0.6251	0.4717	0.2143	0.239
Mof_H 	H 	0.575	0.4946	0.1967	0.256
Mof_C 	C 	0.6079	0.5954	0.19044	-0.708
Mof_H 	H 	0.6325	0.6211	0.1815	0.199
Mof_H 	H 	0.5942	0.6105	0.2082	0.192
Mof_H 	H 	0.5777	0.5881	0.1776	0.233
Mof_C 	C 	0.8821	0.4772	0.21646	0.32
Mof_C 	C 	0.85774	0.42604	0.20616	-0.259
Mof_H 	H 	0.8482	0.4034	0.2229	0.089
Mof_C 	C 	0.8955	0.3948	0.18759	0.436
Mof_C 	C 	0.8987	0.5131	0.1906	-0.573
Mof_H 	H 	0.9148	0.5467	0.1975	0.15
Mof_H 	H 	0.8668	0.5214	0.1792	0.171
Mof_H 	H 	0.925	0.4938	0.179	0.185
Mof_C 	C 	0.9263	0.4713	0.23958	-0.593
Mof_H 	H 	0.9403	0.507	0.2445	0.159
Mof_H 	H 	0.9557	0.4489	0.2323	0.192
Mof_H 	H 	0.9108	0.4544	0.2564	0.163
Mof_C 	C 	0.831	0.681	0.18156	0.406
Mof_C 	C 	0.8144	0.7346	0.1692	-0.246
Mof_H 	H 	0.7744	0.7387	0.1701	0.085
Mof_C 	C 	0.8352	0.7438	0.13736	0.401
Mof_C 	C 	0.89265	0.6714	0.18016	-0.655
Mof_H 	H 	0.9114	0.7019	0.1889	0.193
Mof_H 	H 	0.9038	0.668	0.1603	0.201
Mof_H 	H 	0.9017	0.6383	0.1904	0.173
Mof_C 	C 	0.8015	0.6365	0.16932	-0.747
Mof_H 	H 	0.814	0.6026	0.1776	0.21
Mof_H 	H 	0.8074	0.6358	0.1488	0.245
Mof_H 	H 	0.763	0.641	0.1732	0.207
Mof_C 	C 	0.8246	0.845	0.28246	0.396
Mof_C 	C 	0.8739	0.8606	0.26621	-0.194
Mof_H 	H 	0.907	0.8432	0.2741	0.077
Mof_C 	C 	0.8789	0.9259	0.26606	0.221
Mof_C 	C 	0.7685	0.8711	0.27204	-0.582
Mof_H 	H 	0.7649	0.8664	0.2515	0.162
Mof_H 	H 	0.7681	0.9095	0.2766	0.173
Mof_H 	H 	0.7385	0.8531	0.2816	0.143
Mof_C 	C 	0.829	0.8528	0.3116	-0.774
Mof_H 	H 	0.7956	0.8413	0.3208	0.214
Mof_H 	H 	0.8353	0.891	0.3155	0.254
Mof_H 	H 	0.8592	0.8315	0.3189	0.219
Mof_C 	C 	0.9827	0.6588	0.26672	0.354
Mof_C 	C 	0.02378	0.6592	0.2903	-0.251
Mof_H 	H 	0.0138	0.6871	0.3046	0.097
Mof_C 	C 	0.077	0.6722	0.27813	0.366
Mof_C 	C 	0.9941	0.6178	0.24404	-0.624
Mof_H 	H 	0.0027	0.5832	0.2529	0.182
Mof_H 	H 	0.0247	0.6298	0.2326	0.19
Mof_H 	H 	0.9623	0.6138	0.2319	0.16
Mof_C 	C 	0.9676	0.7125	0.25249	-0.63
Mof_H 	H 	0.9582	0.739	0.267	0.182
Mof_H 	H 	0.9368	0.707	0.2399	0.174
Mof_H 	H 	0.9983	0.7257	0.2415	0.203
Mof_C 	C 	0.8998	0.476	0.34849	0.351
Mof_C 	C 	0.95661	0.4607	0.33713	-0.24
Mof_H 	H 	0.9532	0.4447	0.3178	0.085
Mof_C 	C 	0.9203	0.5115	0.10712	0.469
Mof_C 	C 	0.9027	0.4968	0.37928	-0.601
Mof_H 	H 	0.8664	0.5058	0.3859	0.16
Mof_H 	H 	0.9254	0.529	0.38	0.171
Mof_H 	H 	0.9182	0.4688	0.3915	0.182
Mof_C 	C 	0.8555	0.4354	0.34716	-0.657
Mof_H 	H 	0.8227	0.4507	0.3554	0.189
Mof_H 	H 	0.866	0.4032	0.3578	0.218
Mof_H 	H 	0.8488	0.4256	0.3274	0.184
Mof_C 	C 	0.6948	0.4112	0.28722	0.358
Mof_C 	C 	0.7023	0.3736	0.31232	-0.247
Mof_H 	H 	0.7415	0.3714	0.317	0.104
Mof_C 	C 	0.6822	0.3189	0.30561	0.37
Mof_C 	C 	0.63246	0.4185	0.27989	-0.586
Mof_H 	H 	0.6127	0.4277	0.2972	0.171
Mof_H 	H 	0.6183	0.3848	0.2721	0.173
Mof_H 	H 	0.6282	0.4474	0.266	0.148
Mof_C 	C 	0.7245	0.398	0.2616	-0.703
Mof_H 	H 	0.716	0.4243	0.2468	0.196
Mof_H 	H 	0.7145	0.3619	0.2552	0.236
Mof_H 	H 	0.7632	0.399	0.2656	0.2
Mof_C 	C 	0.7085	0.5519	0.39841	0.348
Mof_C 	C 	0.6614	0.5167	0.40296	-0.211
Mof_H 	H 	0.6277	0.5368	0.3981	0.078
Mof_C 	C 	0.6566	0.4921	0.43467	0.356
Mof_C 	C 	0.7625	0.521	0.40787	-0.578
Mof_H 	H 	0.7624	0.4846	0.3999	0.175
Mof_H 	H 	0.7639	0.5188	0.4286	0.177
Mof_H 	H 	0.794	0.5407	0.4009	0.144
Mof_C 	C 	0.7042	0.60559	0.41046	-0.668
Mof_H 	H 	0.7372	0.6258	0.4065	0.177
Mof_H 	H 	0.6989	0.6028	0.431	0.213
Mof_H 	H 	0.6734	0.6243	0.402	0.181
Mof_C 	C 	0.5419	0.5785	0.30341	0.341
Mof_C 	C 	0.5004	0.6201	0.31009	-0.271
Mof_H 	H 	0.5129	0.6408	0.327	0.106
Mof_C 	C 	0.4477	0.5988	0.31619	0.392
Mof_C 	C 	0.5289	0.5434	0.27777	-0.622
Mof_H 	H 	0.5576	0.517	0.275	0.161
Mof_H 	H 	0.5259	0.5662	0.2609	0.176
Mof_H 	H 	0.4947	0.5247	0.281	0.196
Mof_C 	C 	0.5514	0.5428	0.33043	-0.607
Mof_H 	H 	0.5779	0.5147	0.3261	0.168
Mof_H 	H 	0.5174	0.526	0.3361	0.211
Mof_H 	H 	0.5649	0.5653	0.3459	0.173
Mof_C 	C 	0.63273	0.7746	0.23286	0.526
Mof_C 	C 	0.5798	0.7569	0.21911	-0.306
Mof_H 	H 	0.5882	0.7251	0.2069	0.092
Mof_C 	C 	0.9461	0.2985	0.04958	0.401
Mof_C 	C 	0.6253	0.822	0.25126	-0.843
Mof_H 	H 	0.5966	0.8148	0.2649	0.249
Mof_H 	H 	0.6156	0.8532	0.2397	0.261
Mof_H 	H 	0.6589	0.8295	0.2614	0.228
Mof_C 	C 	0.6739	0.7809	0.21169	-0.85
Mof_H 	H 	0.6766	0.7478	0.2005	0.231
Mof_H 	H 	0.7085	0.788	0.2209	0.231
Mof_H 	H 	0.6647	0.8111	0.1993	0.266
Mof_C 	C 	0.65487	0.7873	0.34878	0.286
Mof_C 	C 	0.6525	0.795	0.3802	-0.218
Mof_H 	H 	0.6368	0.7609	0.3879	0.076
Mof_C 	C 	0.6155	0.8382	0.3893	0.345
Mof_C 	C 	0.6775	0.8409	0.33454	-0.526
Mof_H 	H 	0.6789	0.8362	0.314	0.132
Mof_H 	H 	0.7137	0.8482	0.3417	0.147
Mof_H 	H 	0.6537	0.8711	0.3392	0.163
Mof_C 	C 	0.5983	0.7739	0.33577	-0.568
Mof_H 	H 	0.6017	0.77	0.3152	0.157
Mof_H 	H 	0.5731	0.8032	0.3401	0.192
Mof_H 	H 	0.5848	0.7403	0.3439	0.171
Mof_C 	C 	0.8751	0.68845	0.3865	0.357
Mof_C 	C 	0.8803	0.7454	0.39597	-0.262
Mof_H 	H 	0.8944	0.7658	0.3793	0.088
Mof_C 	C 	0.9195	0.7585	0.42118	0.436
Mof_C 	C 	0.8563	0.6545	0.40908	-0.667
Mof_H 	H 	0.8549	0.6171	0.4025	0.176
Mof_H 	H 	0.8202	0.6661	0.4149	0.181
Mof_H 	H 	0.881	0.6573	0.4252	0.201
Mof_C 	C 	0.9356	0.673	0.37461	-0.588
Mof_H 	H 	0.9455	0.6977	0.3593	0.171
Mof_H 	H 	0.9354	0.636	0.3674	0.161
Mof_H 	H 	0.9618	0.676	0.39	0.204
Mof_O 	O 	0.91877	0.42999	0.06318	-0.411
Mof_O 	O 	0.8409	0.4091	0.08476	-0.415
Mof_C 	C 	0.86919	0.4334	0.06382	0.381
Mof_C 	C 	0.8365	0.4537	0.03574	-0.584
Mof_H 	H 	0.7977	0.4535	0.0397	0.189
Mof_H 	H 	0.8442	0.4294	0.0199	0.172
Mof_H 	H 	0.8479	0.4902	0.0308	0.186
Mof_La	La	0.84061	0.77451	0.4897	0.705
Mof_La	La	0.89085	0.04752	0.27127	1.724
Mof_La	La	0.93322	0.03006	0.29173	-0.225
Mof_O 	O 	0.9461	0.128	0.2685	-0.711
Mof_O 	O 	0.854	0.0103	0.32674	-0.282
Mof_Ag	Ag	0.2828	0.3445	0.72789	0.516
Mof_Ag	Ag	0.14918	0.39041	0.74873	0.554
Mof_Ag	Ag	0.18546	0.50297	0.78683	0.506
Mof_Ag	Ag	0.32463	0.44357	0.77239	0.543
Mof_Ag	Ag	0.27137	0.2642	0.78925	0.565
Mof_Ag	Ag	0.12494	0.28477	0.81008	0.51
Mof_Ag	Ag	0.19757	0.40778	0.84406	0.573
Mof_Ag	Ag	0.34657	0.36021	0.84365	0.517
Mof_Pd	Pd	0.24126	0.50399	0.70444	0.479
Mof_Pd	Pd	0.16501	0.22765	0.72866	0.468
Mof_Pd	Pd	0.04492	0.42993	0.81237	0.465
Mof_Pd	Pd	0.31152	0.52421	0.84586	0.492
Mof_Pd	Pd	0.42629	0.31654	0.76938	0.451
Mof_Pd	Pd	0.23517	0.25291	0.8729	0.456
Mof_Br	Br	0.23555	0.37565	0.78905	-0.631
Mof_La	La	0.07663	0.62262	0.61276	1.701
Mof_S 	S 	0.30116	0.44208	0.71961	-0.457
Mof_S 	S 	0.17334	0.48543	0.73504	-0.431
Mof_S 	S 	0.18898	0.31335	0.72005	-0.446
Mof_S 	S 	0.18016	0.22821	0.77609	-0.443
Mof_S 	S 	0.08017	0.3634	0.78442	-0.424
Mof_S 	S 	0.12462	0.46861	0.8245	-0.437
Mof_S 	S 	0.28248	0.51993	0.80061	-0.423
Mof_S 	S 	0.2895	0.43998	0.85898	-0.433
Mof_S 	S 	0.39309	0.38437	0.79694	-0.417
Mof_S 	S 	0.3461	0.28484	0.75406	-0.473
Mof_S 	S 	0.30055	0.26957	0.84033	-0.421
Mof_S 	S 	0.17287	0.31166	0.85653	-0.432
Mof_O 	O 	0.39085	0.54853	0.64951	-0.302
Mof_O 	O 	0.40623	0.4644	0.63321	-0.271
Mof_O 	O 	0.11275	0.60727	0.66169	-0.498
Mof_O 	O 	0.0643	0.6259	0.69827	-0.362
Mof_O 	O 	0.12503	0.23752	0.63081	-0.364
Mof_O 	O 	0.2021	0.2772	0.62279	-0.299
Mof_O 	O 	0.1409	0.0437	0.74383	-0.333
Mof_O 	O 	0.0977	0.058	0.78835	-0.343
Mof_O 	O 	0.88657	0.361	0.77443	-0.308
Mof_O 	O 	0.9109	0.2796	0.77661	-0.303
Mof_O 	O 	0.06628	0.52505	0.61867	-0.548
Mof_O 	O 	0.12764	0.46393	0.60655	-0.313
Mof_O 	O 	0.36248	0.69785	0.81473	-0.298
Mof_O 	O 	0.28654	0.70956	0.79289	-0.3
Mof_O 	O 	0.32814	0.54785	0.94223	-0.341
Mof_O 	O 	0.3641	0.46929	0.95142	-0.265
Mof_O 	O 	0.58456	0.4109	0.79581	-0.323
Mof_O 	O 	0.5619	0.4142	0.8401	-0.305
Mof_O 	O 	0.01106	0.67816	0.54124	-0.314
Mof_O 	O 	0.07721	0.68994	0.5727	-0.49
Mof_O 	O 	0.35721	0.11812	0.89687	-0.286
Mof_O 	O 	0.4322	0.16156	0.88992	-0.318
Mof_O 	O 	0.10539	0.235	0.94436	-0.422
Mof_O 	O 	0.03434	0.24411	0.9188	-0.361
Mof_N 	N 	0.29524	0.5185	0.67427	-0.254
Mof_H 	H 	0.2771	0.5245	0.6576	0.104
Mof_H 	H 	0.3132	0.5498	0.6788	0.122
Mof_N 	N 	0.19121	0.56432	0.68961	-0.238
Mof_H 	H 	0.2106	0.5958	0.6889	0.109
Mof_H 	H 	0.1813	0.5559	0.6714	0.103
Mof_N 	N 	0.1589	0.21992	0.68453	-0.242
Mof_H 	H 	0.1744	0.188	0.679	0.096
Mof_H 	H 	0.1231	0.2188	0.6795	0.116
Mof_N 	N 	0.1322	0.1506	0.73499	-0.255
Mof_H 	H 	0.0992	0.1484	0.7263	0.129
Mof_H 	H 	0.1544	0.1251	0.727	0.111
Mof_N 	N 	0.97353	0.39478	0.80435	-0.247
Mof_H 	H 	0.9553	0.3911	0.8212	0.116
Mof_H 	H 	0.9537	0.4175	0.793	0.102
Mof_N 	N 	0.01171	0.49062	0.83561	-0.232
Mof_H 	H 	0.9787	0.499	0.828	0.083
Mof_H 	H 	0.006	0.4783	0.8537	0.078
Mof_N 	N 	0.3277	0.60277	0.83746	-0.253
Mof_H 	H 	0.3195	0.6228	0.8533	0.141
Mof_H 	H 	0.3641	0.6062	0.8343	0.119
Mof_N 	N 	0.337	0.53265	0.88764	-0.245
Mof_H 	H 	0.3709	0.5477	0.8877	0.108
Mof_H 	H 	0.3142	0.5561	0.8968	0.122
Mof_N 	N 	0.50256	0.34032	0.78462	-0.235
Mof_H 	H 	0.5214	0.3102	0.79	0.102
Mof_H 	H 	0.5213	0.3565	0.7701	0.081
Mof_N 	N 	0.46038	0.26107	0.74009	-0.22
Mof_H 	H 	0.4888	0.2771	0.7309	0.073
Mof_H 	H 	0.4734	0.2317	0.7498	0.085
Mof_N 	N 	0.29014	0.20399	0.89037	-0.241
Mof_H 	H 	0.2907	0.2111	0.9095	0.073
Mof_H 	H 	0.2778	0.1693	0.8883	0.09
Mof_N 	N 	0.17987	0.23174	0.90166	-0.239
Mof_H 	H 	0.1783	0.1948	0.9024	0.077
Mof_H 	H 	0.1911	0.2436	0.9191	0.056
Mof_C 	C 	0.3618	0.4578	0.69667	0.452
Mof_C 	C 	0.3361	0.4752	0.66932	-0.227
Mof_H 	H 	0.3188	0.4436	0.6599	0.085
Mof_C 	C 	0.3833	0.5012	0.64822	0.327
Mof_C 	C 	0.3957	0.496	0.70967	-0.827
Mof_H 	H 	0.4108	0.4807	0.7271	0.222
Mof_H 	H 	0.3749	0.5283	0.7143	0.239
Mof_H 	H 	0.425	0.5054	0.6967	0.256
Mof_C 	C 	0.3921	0.4046	0.69044	-0.708
Mof_H 	H 	0.3675	0.3789	0.6815	0.199
Mof_H 	H 	0.4058	0.3895	0.7082	0.192
Mof_H 	H 	0.4223	0.4119	0.6776	0.233
Mof_C 	C 	0.1179	0.5228	0.71646	0.32
Mof_C 	C 	0.14226	0.57396	0.70616	-0.259
Mof_H 	H 	0.1518	0.5966	0.7229	0.089
Mof_C 	C 	0.1045	0.6052	0.68759	0.436
Mof_C 	C 	0.1013	0.4869	0.6906	-0.573
Mof_H 	H 	0.0852	0.4533	0.6975	0.15
Mof_H 	H 	0.1332	0.4786	0.6792	0.171
Mof_H 	H 	0.075	0.5062	0.679	0.185
Mof_C 	C 	0.0737	0.5287	0.73958	-0.593
Mof_H 	H 	0.0597	0.493	0.7445	0.159
Mof_H 	H 	0.0443	0.5511	0.7323	0.192
Mof_H 	H 	0.0892	0.5456	0.7564	0.163
Mof_C 	C 	0.169	0.319	0.68156	0.406
Mof_C 	C 	0.1856	0.2654	0.6692	-0.246
Mof_H 	H 	0.2256	0.2613	0.6701	0.085
Mof_C 	C 	0.1648	0.2562	0.63736	0.401
Mof_C 	C 	0.10735	0.3286	0.68016	-0.655
Mof_H 	H 	0.0886	0.2981	0.6889	0.193
Mof_H 	H 	0.0962	0.332	0.6603	0.201
Mof_H 	H 	0.0983	0.3617	0.6904	0.173
Mof_C 	C 	0.1985	0.3635	0.66932	-0.747
Mof_H 	H 	0.186	0.3974	0.6776	0.21
Mof_H 	H 	0.1926	0.3642	0.6488	0.245
Mof_H 	H 	0.237	0.359	0.6732	0.207
Mof_C 	C 	0.1754	0.155	0.78246	0.396
Mof_C 	C 	0.1261	0.1394	0.76621	-0.194
Mof_H 	H 	0.093	0.1568	0.7741	0.077
Mof_C 	C 	0.1211	0.0741	0.76606	0.221
Mof_C 	C 	0.2315	0.1289	0.77204	-0.582
Mof_H 	H 	0.2351	0.1336	0.7515	0.162
Mof_H 	H 	0.2319	0.0905	0.7766	0.173
Mof_H 	H 	0.2615	0.1469	0.7816	0.143
Mof_C 	C 	0.171	0.1472	0.8116	-0.774
Mof_H 	H 	0.2044	0.1587	0.8208	0.214
Mof_H 	H 	0.1647	0.109	0.8155	0.254
Mof_H 	H 	0.1408	0.1685	0.8189	0.219
Mof_C 	C 	0.0173	0.3412	0.76672	0.354
Mof_C 	C 	0.97622	0.3408	0.7903	-0.251
Mof_H 	H 	0.9862	0.3129	0.8046	0.097
Mof_C 	C 	0.923	0.3278	0.77813	0.366
Mof_C 	C 	0.0059	0.3822	0.74404	-0.624
Mof_H 	H 	0.9973	0.4168	0.7529	0.182
Mof_H 	H 	0.9753	0.3702	0.7326	0.19
Mof_H 	H 	0.0377	0.3862	0.7319	0.16
Mof_C 	C 	0.0324	0.2875	0.75249	-0.63
Mof_H 	H 	0.0418	0.261	0.767	0.182
Mof_H 	H 	0.0632	0.293	0.7399	0.174
Mof_H 	H 	0.0017	0.2743	0.7415	0.203
Mof_C 	C 	0.1002	0.524	0.84849	0.351
Mof_C 	C 	0.04339	0.5393	0.83713	-0.24
Mof_H 	H 	0.0468	0.5553	0.8178	0.085
Mof_C 	C 	0.0797	0.4885	0.60712	0.469
Mof_C 	C 	0.0973	0.5032	0.87928	-0.601
Mof_H 	H 	0.1336	0.4942	0.8859	0.16
Mof_H 	H 	0.0746	0.471	0.88	0.171
Mof_H 	H 	0.0818	0.5312	0.8915	0.182
Mof_C 	C 	0.1445	0.5646	0.84716	-0.657
Mof_H 	H 	0.1773	0.5493	0.8554	0.189
Mof_H 	H 	0.134	0.5968	0.8578	0.218
Mof_H 	H 	0.1512	0.5744	0.8274	0.184
Mof_C 	C 	0.3052	0.5888	0.78722	0.358
Mof_C 	C 	0.2977	0.6264	0.81232	-0.247
Mof_H 	H 	0.2585	0.6286	0.817	0.104
Mof_C 	C 	0.3178	0.6811	0.80561	0.37
Mof_C 	C 	0.36754	0.5815	0.77989	-0.586
Mof_H 	H 	0.3873	0.5723	0.7972	0.171
Mof_H 	H 	0.3817	0.6152	0.7721	0.173
Mof_H 	H 	0.3718	0.5526	0.766	0.148
Mof_C 	C 	0.2755	0.602	0.7616	-0.703
Mof_H 	H 	0.284	0.5757	0.7468	0.196
Mof_H 	H 	0.2855	0.6381	0.7552	0.236
Mof_H 	H 	0.2368	0.601	0.7656	0.2
Mof_C 	C 	0.2915	0.4481	0.89841	0.348
Mof_C 	C 	0.3386	0.4833	0.90296	-0.211
Mof_H 	H 	0.3723	0.4632	0.8981	0.078
Mof_C 	C 	0.3434	0.5079	0.93467	0.356
Mof_C 	C 	0.2375	0.479	0.90787	-0.578
Mof_H 	H 	0.2376	0.5154	0.8999	0.175
Mof_H 	H 	0.2361	0.4812	0.9286	0.177
Mof_H 	H 	0.206	0.4593	0.9009	0.144
Mof_C 	C 	0.2958	0.39441	0.91046	-0.668
Mof_H 	H 	0.2628	0.3742	0.9065	0.177
Mof_H 	H 	0.3011	0.3972	0.931	0.213
Mof_H 	H 	0.3266	0.3757	0.902	0.181
Mof_C 	C 	0.4581	0.4215	0.80341	0.341
Mof_C 	C 	0.4996	0.3799	0.81009	-0.271
Mof_H 	H 	0.4871	0.3592	0.827	0.106
Mof_C 	C 	0.5523	0.4012	0.81619	0.392
Mof_C 	C 	0.4711	0.4566	0.77777	-0.622
Mof_H 	H 	0.4424	0.483	0.775	0.161
Mof_H 	H 	0.4741	0.4338	0.7609	0.176
Mof_H 	H 	0.5053	0.4753	0.781	0.196
Mof_C 	C 	0.4486	0.4572	0.83043	-0.607
Mof_H 	H 	0.4221	0.4853	0.8261	0.168
Mof_H 	H 	0.4826	0.474	0.8361	0.211
Mof_H 	H 	0.4351	0.4347	0.8459	0.173
Mof_C 	C 	0.36727	0.2254	0.73286	0.526
Mof_C 	C 	0.4202	0.2431	0.71911	-0.306
Mof_H 	H 	0.4118	0.2749	0.7069	0.092
Mof_C 	C 	0.0539	0.7015	0.54958	0.401
Mof_C 	C 	0.3747	0.178	0.75126	-0.843
Mof_H 	H 	0.4034	0.1852	0.7649	0.249
Mof_H 	H 	0.3844	0.1468	0.7397	0.261
Mof_H 	H 	0.3411	0.1705	0.7614	0.228
Mof_C 	C 	0.3261	0.2191	0.71169	-0.85
Mof_H 	H 	0.3234	0.2522	0.7005	0.231
Mof_H 	H 	0.2915	0.212	0.7209	0.231
Mof_H 	H 	0.3353	0.1889	0.6993	0.266
Mof_C 	C 	0.34513	0.2127	0.84878	0.286
Mof_C 	C 	0.3475	0.205	0.8802	-0.218
Mof_H 	H 	0.3632	0.2391	0.8879	0.076
Mof_C 	C 	0.3845	0.1618	0.8893	0.345
Mof_C 	C 	0.3225	0.1591	0.83454	-0.526
Mof_H 	H 	0.3211	0.1638	0.814	0.132
Mof_H 	H 	0.2863	0.1518	0.8417	0.147
Mof_H 	H 	0.3463	0.1289	0.8392	0.163
Mof_C 	C 	0.4017	0.2261	0.83577	-0.568
Mof_H 	H 	0.3983	0.23	0.8152	0.157
Mof_H 	H 	0.4269	0.1968	0.8401	0.192
Mof_H 	H 	0.4152	0.2597	0.8439	0.171
Mof_C 	C 	0.1249	0.31155	0.8865	0.357
Mof_C 	C 	0.1197	0.2546	0.89597	-0.262
Mof_H 	H 	0.1056	0.2342	0.8793	0.088
Mof_C 	C 	0.0805	0.2415	0.92118	0.436
Mof_C 	C 	0.1437	0.3455	0.90908	-0.667
Mof_H 	H 	0.1451	0.3829	0.9025	0.176
Mof_H 	H 	0.1798	0.3339	0.9149	0.181
Mof_H 	H 	0.119	0.3427	0.9252	0.201
Mof_C 	C 	0.0644	0.327	0.87461	-0.588
Mof_H 	H 	0.0545	0.3023	0.8593	0.171
Mof_H 	H 	0.0646	0.364	0.8674	0.161
Mof_H 	H 	0.0382	0.324	0.89	0.204
Mof_O 	O 	0.08123	0.57001	0.56318	-0.411
Mof_O 	O 	0.1591	0.5909	0.58476	-0.415
Mof_C 	C 	0.13081	0.5666	0.56382	0.381
Mof_C 	C 	0.1635	0.5463	0.53574	-0.584
Mof_H 	H 	0.2023	0.5465	0.5397	0.189
Mof_H 	H 	0.1558	0.5706	0.5199	0.172
Mof_H 	H 	0.1521	0.5098	0.5308	0.186
Mof_La	La	0.15939	0.22549	0.9897	0.705
Mof_La	La	0.10915	0.95248	0.77127	1.724
Mof_La	La	0.06678	0.96994	0.79173	-0.225
Mof_O 	O 	0.0539	0.872	0.7685	-0.711
Mof_O 	O 	0.146	0.9897	0.82674	-0.282
Mof_Ag	Ag	0.8445	0.2172	0.47789	0.516
Mof_Ag	Ag	0.89041	0.35082	0.49873	0.554
Mof_Ag	Ag	0.00297	0.31454	0.53683	0.504
Mof_Ag	Ag	0.94357	0.17537	0.52239	0.544
Mof_Ag	Ag	0.7642	0.22863	0.53925	0.565
Mof_Ag	Ag	0.78477	0.37506	0.56008	0.51
Mof_Ag	Ag	0.90778	0.30243	0.59406	0.574
Mof_Ag	Ag	0.86021	0.15343	0.59365	0.517
Mof_Pd	Pd	0.00399	0.25874	0.45444	0.478
Mof_Pd	Pd	0.72765	0.33499	0.47866	0.468
Mof_Pd	Pd	0.92993	0.45508	0.56237	0.466
Mof_Pd	Pd	0.02421	0.18848	0.59586	0.491
Mof_Pd	Pd	0.81654	0.07371	0.51938	0.452
Mof_Pd	Pd	0.75291	0.26483	0.6229	0.456
Mof_Br	Br	0.87565	0.26445	0.53905	-0.631
Mof_La	La	0.12262	0.42337	0.36276	1.701
Mof_S 	S 	0.94208	0.19884	0.46961	-0.455
Mof_S 	S 	0.98543	0.32666	0.48504	-0.429
Mof_S 	S 	0.81335	0.31102	0.47005	-0.446
Mof_S 	S 	0.72821	0.31984	0.52609	-0.443
Mof_S 	S 	0.8634	0.41983	0.53442	-0.424
Mof_S 	S 	0.96861	0.37538	0.5745	-0.437
Mof_S 	S 	0.01993	0.21752	0.55061	-0.424
Mof_S 	S 	0.93998	0.2105	0.60898	-0.432
Mof_S 	S 	0.88437	0.10691	0.54694	-0.416
Mof_S 	S 	0.78484	0.1539	0.50406	-0.473
Mof_S 	S 	0.76957	0.19945	0.59033	-0.421
Mof_S 	S 	0.81166	0.32713	0.60653	-0.432
Mof_O 	O 	0.04853	0.10915	0.39951	-0.302
Mof_O 	O 	0.9644	0.09377	0.38321	-0.27
Mof_O 	O 	0.10727	0.38725	0.41169	-0.498
Mof_O 	O 	0.1259	0.4357	0.44827	-0.362
Mof_O 	O 	0.73752	0.37497	0.38081	-0.364
Mof_O 	O 	0.7772	0.2979	0.37279	-0.299
Mof_O 	O 	0.5437	0.3591	0.49383	-0.332
Mof_O 	O 	0.558	0.4023	0.53835	-0.342
Mof_O 	O 	0.861	0.61343	0.52443	-0.308
Mof_O 	O 	0.7796	0.5891	0.52661	-0.303
Mof_O 	O 	0.02505	0.43372	0.36867	-0.548
Mof_O 	O 	0.96393	0.37236	0.35655	-0.313
Mof_O 	O 	0.19785	0.13752	0.56473	-0.297
Mof_O 	O 	0.20956	0.21346	0.54289	-0.3
Mof_O 	O 	0.04785	0.17186	0.69223	-0.34
Mof_O 	O 	0.96929	0.1359	0.70142	-0.264
Mof_O 	O 	0.9109	0.91544	0.54581	-0.323
Mof_O 	O 	0.9142	0.9381	0.5901	-0.306
Mof_O 	O 	0.17816	0.48894	0.29124	-0.314
Mof_O 	O 	0.18994	0.42279	0.3227	-0.49
Mof_O 	O 	0.61812	0.14279	0.64687	-0.286
Mof_O 	O 	0.66156	0.0678	0.63992	-0.318
Mof_O 	O 	0.735	0.39461	0.69436	-0.422
Mof_O 	O 	0.74411	0.46566	0.6688	-0.36
Mof_N 	N 	0.0185	0.20476	0.42427	-0.255
Mof_H 	H 	0.0245	0.2229	0.4076	0.104
Mof_H 	H 	0.0498	0.1868	0.4288	0.122
Mof_N 	N 	0.06432	0.30879	0.43961	-0.238
Mof_H 	H 	0.0958	0.2894	0.4389	0.109
Mof_H 	H 	0.0559	0.3187	0.4214	0.103
Mof_N 	N 	0.71992	0.3411	0.43453	-0.242
Mof_H 	H 	0.688	0.3256	0.429	0.096
Mof_H 	H 	0.7188	0.3769	0.4295	0.116
Mof_N 	N 	0.6506	0.3678	0.48499	-0.255
Mof_H 	H 	0.6484	0.4008	0.4763	0.129
Mof_H 	H 	0.6251	0.3456	0.477	0.111
Mof_N 	N 	0.89478	0.52647	0.55435	-0.247
Mof_H 	H 	0.8911	0.5447	0.5712	0.116
Mof_H 	H 	0.9175	0.5463	0.543	0.102
Mof_N 	N 	0.99062	0.48829	0.58561	-0.232
Mof_H 	H 	0.999	0.5213	0.578	0.083
Mof_H 	H 	0.9783	0.494	0.6037	0.078
Mof_N 	N 	0.10277	0.1723	0.58746	-0.252
Mof_H 	H 	0.1228	0.1805	0.6033	0.141
Mof_H 	H 	0.1062	0.1359	0.5843	0.119
Mof_N 	N 	0.03265	0.163	0.63764	-0.246
Mof_H 	H 	0.0477	0.1291	0.6377	0.107
Mof_H 	H 	0.0561	0.1858	0.6468	0.122
Mof_N 	N 	0.84032	0.99744	0.53462	-0.235
Mof_H 	H 	0.8102	0.9786	0.54	0.102
Mof_H 	H 	0.8565	0.9787	0.5201	0.081
Mof_N 	N 	0.76107	0.03962	0.49009	-0.22
Mof_H 	H 	0.7771	0.0112	0.4809	0.073
Mof_H 	H 	0.7317	0.0266	0.4998	0.085
Mof_N 	N 	0.70399	0.20986	0.64037	-0.241
Mof_H 	H 	0.7111	0.2093	0.6595	0.073
Mof_H 	H 	0.6693	0.2222	0.6383	0.09
Mof_N 	N 	0.73174	0.32013	0.65166	-0.239
Mof_H 	H 	0.6948	0.3217	0.6524	0.077
Mof_H 	H 	0.7436	0.3089	0.6691	0.056
Mof_C 	C 	0.9578	0.1382	0.44667	0.446
Mof_C 	C 	0.9752	0.1639	0.41932	-0.223
Mof_H 	H 	0.9436	0.1812	0.4099	0.084
Mof_C 	C 	0.0012	0.1167	0.39822	0.324
Mof_C 	C 	0.996	0.1043	0.45967	-0.813
Mof_H 	H 	0.9807	0.0892	0.4771	0.218
Mof_H 	H 	0.0283	0.1251	0.4643	0.234
Mof_H 	H 	0.0054	0.075	0.4467	0.251
Mof_C 	C 	0.9046	0.1079	0.44044	-0.703
Mof_H 	H 	0.8789	0.1325	0.4315	0.198
Mof_H 	H 	0.8895	0.0942	0.4582	0.191
Mof_H 	H 	0.9119	0.0777	0.4276	0.232
Mof_C 	C 	0.0228	0.3821	0.46646	0.319
Mof_C 	C 	0.07396	0.35774	0.45616	-0.259
Mof_H 	H 	0.0966	0.3482	0.4729	0.089
Mof_C 	C 	0.1052	0.3955	0.43759	0.436
Mof_C 	C 	0.9869	0.3987	0.4406	-0.571
Mof_H 	H 	0.9533	0.4148	0.4475	0.15
Mof_H 	H 	0.9786	0.3668	0.4292	0.171
Mof_H 	H 	0.0062	0.425	0.429	0.184
Mof_C 	C 	0.0287	0.4263	0.48958	-0.593
Mof_H 	H 	0.993	0.4403	0.4945	0.16
Mof_H 	H 	0.0511	0.4557	0.4823	0.193
Mof_H 	H 	0.0456	0.4108	0.5064	0.163
Mof_C 	C 	0.819	0.331	0.43156	0.407
Mof_C 	C 	0.7654	0.3144	0.4192	-0.246
Mof_H 	H 	0.7613	0.2744	0.4201	0.085
Mof_C 	C 	0.7562	0.3352	0.38736	0.401
Mof_C 	C 	0.8286	0.39265	0.43016	-0.655
Mof_H 	H 	0.7981	0.4114	0.4389	0.194
Mof_H 	H 	0.832	0.4038	0.4103	0.201
Mof_H 	H 	0.8617	0.4017	0.4404	0.173
Mof_C 	C 	0.8635	0.3015	0.41932	-0.747
Mof_H 	H 	0.8974	0.314	0.4276	0.21
Mof_H 	H 	0.8642	0.3074	0.3988	0.245
Mof_H 	H 	0.859	0.263	0.4232	0.207
Mof_C 	C 	0.655	0.3246	0.53246	0.396
Mof_C 	C 	0.6394	0.3739	0.51621	-0.194
Mof_H 	H 	0.6568	0.407	0.5241	0.077
Mof_C 	C 	0.5741	0.3789	0.51606	0.221
Mof_C 	C 	0.6289	0.2685	0.52204	-0.582
Mof_H 	H 	0.6336	0.2649	0.5015	0.162
Mof_H 	H 	0.5905	0.2681	0.5266	0.173
Mof_H 	H 	0.6469	0.2385	0.5316	0.143
Mof_C 	C 	0.6472	0.329	0.5616	-0.775
Mof_H 	H 	0.6587	0.2956	0.5708	0.214
Mof_H 	H 	0.609	0.3353	0.5655	0.254
Mof_H 	H 	0.6685	0.3592	0.5689	0.22
Mof_C 	C 	0.8412	0.4827	0.51672	0.353
Mof_C 	C 	0.8408	0.52378	0.5403	-0.251
Mof_H 	H 	0.8129	0.5138	0.5546	0.097
Mof_C 	C 	0.8278	0.577	0.52813	0.366
Mof_C 	C 	0.8822	0.4941	0.49404	-0.621
Mof_H 	H 	0.9168	0.5027	0.5029	0.181
Mof_H 	H 	0.8702	0.5247	0.4826	0.189
Mof_H 	H 	0.8862	0.4623	0.4819	0.159
Mof_C 	C 	0.7875	0.4676	0.50249	-0.63
Mof_H 	H 	0.761	0.4582	0.517	0.182
Mof_H 	H 	0.793	0.4368	0.4899	0.174
Mof_H 	H 	0.7743	0.4983	0.4915	0.203
Mof_C 	C 	0.024	0.3998	0.59849	0.351
Mof_C 	C 	0.0393	0.45661	0.58713	-0.241
Mof_H 	H 	0.0553	0.4532	0.5678	0.085
Mof_C 	C 	0.9885	0.4203	0.35712	0.47
Mof_C 	C 	0.0032	0.4027	0.62928	-0.605
Mof_H 	H 	0.9942	0.3664	0.6359	0.162
Mof_H 	H 	0.971	0.4254	0.63	0.172
Mof_H 	H 	0.0312	0.4182	0.6415	0.183
Mof_C 	C 	0.0646	0.3555	0.59716	-0.658
Mof_H 	H 	0.0493	0.3227	0.6054	0.189
Mof_H 	H 	0.0968	0.366	0.6078	0.218
Mof_H 	H 	0.0744	0.3488	0.5774	0.184
Mof_C 	C 	0.0888	0.1948	0.53722	0.358
Mof_C 	C 	0.1264	0.2023	0.56232	-0.247
Mof_H 	H 	0.1286	0.2415	0.567	0.104
Mof_C 	C 	0.1811	0.1822	0.55561	0.37
Mof_C 	C 	0.0815	0.13246	0.52989	-0.585
Mof_H 	H 	0.0723	0.1127	0.5472	0.171
Mof_H 	H 	0.1152	0.1183	0.5221	0.173
Mof_H 	H 	0.0526	0.1282	0.516	0.147
Mof_C 	C 	0.102	0.2245	0.5116	-0.703
Mof_H 	H 	0.0757	0.216	0.4968	0.196
Mof_H 	H 	0.1381	0.2145	0.5052	0.236
Mof_H 	H 	0.101	0.2632	0.5156	0.2
Mof_C 	C 	0.9481	0.2085	0.64841	0.347
Mof_C 	C 	0.9833	0.1614	0.65296	-0.209
Mof_H 	H 	0.9632	0.1277	0.6481	0.078
Mof_C 	C 	0.0079	0.1566	0.68467	0.354
Mof_C 	C 	0.979	0.2625	0.65787	-0.574
Mof_H 	H 	0.0154	0.2624	0.6499	0.173
Mof_H 	H 	0.9812	0.2639	0.6786	0.177
Mof_H 	H 	0.9593	0.294	0.6509	0.143
Mof_C 	C 	0.89441	0.2042	0.66046	-0.666
Mof_H 	H 	0.8742	0.2372	0.6565	0.177
Mof_H 	H 	0.8972	0.1989	0.681	0.213
Mof_H 	H 	0.8757	0.1734	0.652	0.18
Mof_C 	C 	0.9215	0.0419	0.55341	0.34
Mof_C 	C 	0.8799	0.0004	0.56009	-0.269
Mof_H 	H 	0.8592	0.0129	0.577	0.106
Mof_C 	C 	0.9012	0.9477	0.56619	0.391
Mof_C 	C 	0.9566	0.0289	0.52777	-0.619
Mof_H 	H 	0.983	0.0576	0.525	0.161
Mof_H 	H 	0.9338	0.0259	0.5109	0.176
Mof_H 	H 	0.9753	0.9947	0.531	0.195
Mof_C 	C 	0.9572	0.0514	0.58043	-0.607
Mof_H 	H 	0.9853	0.0779	0.5761	0.169
Mof_H 	H 	0.974	0.0174	0.5861	0.211
Mof_H 	H 	0.9347	0.0649	0.5959	0.173
Mof_C 	C 	0.7254	0.13273	0.48286	0.526
Mof_C 	C 	0.7431	0.0798	0.46911	-0.306
Mof_H 	H 	0.7749	0.0882	0.4569	0.092
Mof_C 	C 	0.2015	0.4461	0.29958	0.401
Mof_C 	C 	0.678	0.1253	0.50126	-0.844
Mof_H 	H 	0.6852	0.0966	0.5149	0.249
Mof_H 	H 	0.6468	0.1156	0.4897	0.261
Mof_H 	H 	0.6705	0.1589	0.5114	0.228
Mof_C 	C 	0.7191	0.1739	0.46169	-0.85
Mof_H 	H 	0.7522	0.1766	0.4505	0.231
Mof_H 	H 	0.712	0.2085	0.4709	0.231
Mof_H 	H 	0.6889	0.1647	0.4493	0.266
Mof_C 	C 	0.7127	0.15487	0.59878	0.286
Mof_C 	C 	0.705	0.1525	0.6302	-0.218
Mof_H 	H 	0.7391	0.1368	0.6379	0.076
Mof_C 	C 	0.6618	0.1155	0.6393	0.345
Mof_C 	C 	0.6591	0.1775	0.58454	-0.526
Mof_H 	H 	0.6638	0.1789	0.564	0.132
Mof_H 	H 	0.6518	0.2137	0.5917	0.147
Mof_H 	H 	0.6289	0.1537	0.5892	0.163
Mof_C 	C 	0.7261	0.0983	0.58577	-0.568
Mof_H 	H 	0.73	0.1017	0.5652	0.157
Mof_H 	H 	0.6968	0.0731	0.5901	0.192
Mof_H 	H 	0.7597	0.0848	0.5939	0.171
Mof_C 	C 	0.81155	0.3751	0.6365	0.357
Mof_C 	C 	0.7546	0.3803	0.64597	-0.262
Mof_H 	H 	0.7342	0.3944	0.6293	0.088
Mof_C 	C 	0.7415	0.4195	0.67118	0.436
Mof_C 	C 	0.8455	0.3563	0.65908	-0.668
Mof_H 	H 	0.8829	0.3549	0.6525	0.176
Mof_H 	H 	0.8339	0.3202	0.6649	0.181
Mof_H 	H 	0.8427	0.381	0.6752	0.201
Mof_C 	C 	0.827	0.4356	0.62461	-0.588
Mof_H 	H 	0.8023	0.4455	0.6093	0.171
Mof_H 	H 	0.864	0.4354	0.6174	0.161
Mof_H 	H 	0.824	0.4618	0.64	0.204
Mof_O 	O 	0.07001	0.41877	0.31318	-0.411
Mof_O 	O 	0.0909	0.3409	0.33476	-0.415
Mof_C 	C 	0.0666	0.36919	0.31382	0.38
Mof_C 	C 	0.0463	0.3365	0.28574	-0.584
Mof_H 	H 	0.0465	0.2977	0.2897	0.189
Mof_H 	H 	0.0706	0.3442	0.2699	0.172
Mof_H 	H 	0.0098	0.3479	0.2808	0.186
Mof_La	La	0.72549	0.34061	0.7397	0.705
Mof_La	La	0.45248	0.39085	0.52127	1.727
Mof_La	La	0.46994	0.43322	0.54173	-0.229
Mof_O 	O 	0.372	0.4461	0.5185	-0.711
Mof_O 	O 	0.4897	0.354	0.57674	-0.282
Mof_Ag	Ag	0.1555	0.7828	0.97789	0.516
Mof_Ag	Ag	0.10959	0.64918	0.99873	0.554
Mof_Ag	Ag	0.99703	0.68546	0.03683	0.504
Mof_Ag	Ag	0.05643	0.82463	0.02239	0.544
Mof_Ag	Ag	0.2358	0.77137	0.03925	0.565
Mof_Ag	Ag	0.21523	0.62494	0.06008	0.51
Mof_Ag	Ag	0.09222	0.69757	0.09406	0.574
Mof_Ag	Ag	0.13979	0.84657	0.09365	0.517
Mof_Pd	Pd	0.99601	0.74126	0.95444	0.478
Mof_Pd	Pd	0.27235	0.66501	0.97866	0.468
Mof_Pd	Pd	0.07007	0.54492	0.06237	0.466
Mof_Pd	Pd	0.97579	0.81152	0.09586	0.491
Mof_Pd	Pd	0.18346	0.92629	0.01938	0.452
Mof_Pd	Pd	0.24709	0.73517	0.1229	0.456
Mof_Br	Br	0.12435	0.73555	0.03905	-0.631
Mof_La	La	0.87738	0.57663	0.86276	1.701
Mof_S 	S 	0.05792	0.80116	0.96961	-0.455
Mof_S 	S 	0.01457	0.67334	0.98504	-0.429
Mof_S 	S 	0.18665	0.68898	0.97005	-0.446
Mof_S 	S 	0.27179	0.68016	0.02609	-0.443
Mof_S 	S 	0.1366	0.58017	0.03442	-0.424
Mof_S 	S 	0.03139	0.62462	0.0745	-0.437
Mof_S 	S 	0.98007	0.78248	0.05061	-0.424
Mof_S 	S 	0.06002	0.7895	0.10898	-0.432
Mof_S 	S 	0.11563	0.89309	0.04694	-0.416
Mof_S 	S 	0.21516	0.8461	0.00406	-0.473
Mof_S 	S 	0.23043	0.80055	0.09033	-0.421
Mof_S 	S 	0.18834	0.67287	0.10653	-0.432
Mof_O 	O 	0.95147	0.89085	0.89951	-0.302
Mof_O 	O 	0.0356	0.90623	0.88321	-0.27
Mof_O 	O 	0.89273	0.61275	0.91169	-0.498
Mof_O 	O 	0.8741	0.5643	0.94827	-0.362
Mof_O 	O 	0.26248	0.62503	0.88081	-0.364
Mof_O 	O 	0.2228	0.7021	0.87279	-0.299
Mof_O 	O 	0.4563	0.6409	0.99383	-0.332
Mof_O 	O 	0.442	0.5977	0.03835	-0.342
Mof_O 	O 	0.139	0.38657	0.02443	-0.308
Mof_O 	O 	0.2204	0.4109	0.02661	-0.303
Mof_O 	O 	0.97495	0.56628	0.86867	-0.548
Mof_O 	O 	0.03607	0.62764	0.85655	-0.313
Mof_O 	O 	0.80215	0.86248	0.06473	-0.297
Mof_O 	O 	0.79044	0.78654	0.04289	-0.3
Mof_O 	O 	0.95215	0.82814	0.19223	-0.34
Mof_O 	O 	0.03071	0.8641	0.20142	-0.264
Mof_O 	O 	0.0891	0.08456	0.04581	-0.323
Mof_O 	O 	0.0858	0.0619	0.0901	-0.306
Mof_O 	O 	0.82184	0.51106	0.79124	-0.314
Mof_O 	O 	0.81006	0.57721	0.8227	-0.49
Mof_O 	O 	0.38188	0.85721	0.14687	-0.286
Mof_O 	O 	0.33844	0.9322	0.13992	-0.318
Mof_O 	O 	0.265	0.60539	0.19436	-0.422
Mof_O 	O 	0.25589	0.53434	0.1688	-0.36
Mof_N 	N 	0.9815	0.79524	0.92427	-0.255
Mof_H 	H 	0.9755	0.7771	0.9076	0.104
Mof_H 	H 	0.9502	0.8132	0.9288	0.122
Mof_N 	N 	0.93568	0.69121	0.93961	-0.238
Mof_H 	H 	0.9042	0.7106	0.9389	0.109
Mof_H 	H 	0.9441	0.6813	0.9214	0.103
Mof_N 	N 	0.28008	0.6589	0.93453	-0.242
Mof_H 	H 	0.312	0.6744	0.929	0.096
Mof_H 	H 	0.2812	0.6231	0.9295	0.116
Mof_N 	N 	0.3494	0.6322	0.98499	-0.255
Mof_H 	H 	0.3516	0.5992	0.9763	0.129
Mof_H 	H 	0.3749	0.6544	0.977	0.111
Mof_N 	N 	0.10522	0.47353	0.05435	-0.247
Mof_H 	H 	0.1089	0.4553	0.0712	0.116
Mof_H 	H 	0.0825	0.4537	0.043	0.102
Mof_N 	N 	0.00938	0.51171	0.08561	-0.232
Mof_H 	H 	0.001	0.4787	0.078	0.083
Mof_H 	H 	0.0217	0.506	0.1037	0.078
Mof_N 	N 	0.89723	0.8277	0.08746	-0.252
Mof_H 	H 	0.8772	0.8195	0.1033	0.141
Mof_H 	H 	0.8938	0.8641	0.0843	0.119
Mof_N 	N 	0.96735	0.837	0.13764	-0.246
Mof_H 	H 	0.9523	0.8709	0.1377	0.107
Mof_H 	H 	0.9439	0.8142	0.1468	0.122
Mof_N 	N 	0.15968	0.00256	0.03462	-0.235
Mof_H 	H 	0.1898	0.0214	0.04	0.102
Mof_H 	H 	0.1435	0.0213	0.0201	0.081
Mof_N 	N 	0.23893	0.96038	0.99009	-0.22
Mof_H 	H 	0.2229	0.9888	0.9809	0.073
Mof_H 	H 	0.2683	0.9734	0.9998	0.085
Mof_N 	N 	0.29601	0.79014	0.14037	-0.241
Mof_H 	H 	0.2889	0.7907	0.1595	0.073
Mof_H 	H 	0.3307	0.7778	0.1383	0.09
Mof_N 	N 	0.26826	0.67987	0.15166	-0.239
Mof_H 	H 	0.3052	0.6783	0.1524	0.077
Mof_H 	H 	0.2564	0.6911	0.1691	0.056
Mof_C 	C 	0.0422	0.8618	0.94667	0.446
Mof_C 	C 	0.0248	0.8361	0.91932	-0.223
Mof_H 	H 	0.0564	0.8188	0.9099	0.084
Mof_C 	C 	0.9988	0.8833	0.89822	0.324
Mof_C 	C 	0.004	0.8957	0.95967	-0.813
Mof_H 	H 	0.0193	0.9108	0.9771	0.218
Mof_H 	H 	0.9717	0.8749	0.9643	0.234
Mof_H 	H 	0.9946	0.925	0.9467	0.251
Mof_C 	C 	0.0954	0.8921	0.94044	-0.703
Mof_H 	H 	0.1211	0.8675	0.9315	0.198
Mof_H 	H 	0.1105	0.9058	0.9582	0.191
Mof_H 	H 	0.0881	0.9223	0.9276	0.232
Mof_C 	C 	0.9772	0.6179	0.96646	0.319
Mof_C 	C 	0.92604	0.64226	0.95616	-0.259
Mof_H 	H 	0.9034	0.6518	0.9729	0.089
Mof_C 	C 	0.8948	0.6045	0.93759	0.436
Mof_C 	C 	0.0131	0.6013	0.9406	-0.571
Mof_H 	H 	0.0467	0.5852	0.9475	0.15
Mof_H 	H 	0.0214	0.6332	0.9292	0.171
Mof_H 	H 	0.9938	0.575	0.929	0.184
Mof_C 	C 	0.9713	0.5737	0.98958	-0.593
Mof_H 	H 	0.007	0.5597	0.9945	0.16
Mof_H 	H 	0.9489	0.5443	0.9823	0.193
Mof_H 	H 	0.9544	0.5892	0.0064	0.163
Mof_C 	C 	0.181	0.669	0.93156	0.407
Mof_C 	C 	0.2346	0.6856	0.9192	-0.246
Mof_H 	H 	0.2387	0.7256	0.9201	0.085
Mof_C 	C 	0.2438	0.6648	0.88736	0.401
Mof_C 	C 	0.1714	0.60735	0.93016	-0.655
Mof_H 	H 	0.2019	0.5886	0.9389	0.194
Mof_H 	H 	0.168	0.5962	0.9103	0.201
Mof_H 	H 	0.1383	0.5983	0.9404	0.173
Mof_C 	C 	0.1365	0.6985	0.91932	-0.747
Mof_H 	H 	0.1026	0.686	0.9276	0.21
Mof_H 	H 	0.1358	0.6926	0.8988	0.245
Mof_H 	H 	0.141	0.737	0.9232	0.207
Mof_C 	C 	0.345	0.6754	0.03246	0.396
Mof_C 	C 	0.3606	0.6261	0.01621	-0.194
Mof_H 	H 	0.3432	0.593	0.0241	0.077
Mof_C 	C 	0.4259	0.6211	0.01606	0.221
Mof_C 	C 	0.3711	0.7315	0.02204	-0.582
Mof_H 	H 	0.3664	0.7351	0.0015	0.162
Mof_H 	H 	0.4095	0.7319	0.0266	0.173
Mof_H 	H 	0.3531	0.7615	0.0316	0.143
Mof_C 	C 	0.3528	0.671	0.0616	-0.775
Mof_H 	H 	0.3413	0.7044	0.0708	0.214
Mof_H 	H 	0.391	0.6647	0.0655	0.254
Mof_H 	H 	0.3315	0.6408	0.0689	0.22
Mof_C 	C 	0.1588	0.5173	0.01672	0.353
Mof_C 	C 	0.1592	0.47622	0.0403	-0.251
Mof_H 	H 	0.1871	0.4862	0.0546	0.097
Mof_C 	C 	0.1722	0.423	0.02813	0.366
Mof_C 	C 	0.1178	0.5059	0.99404	-0.621
Mof_H 	H 	0.0832	0.4973	0.0029	0.181
Mof_H 	H 	0.1298	0.4753	0.9826	0.189
Mof_H 	H 	0.1138	0.5377	0.9819	0.159
Mof_C 	C 	0.2125	0.5324	0.00249	-0.63
Mof_H 	H 	0.239	0.5418	0.017	0.182
Mof_H 	H 	0.207	0.5632	0.9899	0.174
Mof_H 	H 	0.2257	0.5017	0.9915	0.203
Mof_C 	C 	0.976	0.6002	0.09849	0.351
Mof_C 	C 	0.9607	0.54339	0.08713	-0.241
Mof_H 	H 	0.9447	0.5468	0.0678	0.085
Mof_C 	C 	0.0115	0.5797	0.85712	0.47
Mof_C 	C 	0.9968	0.5973	0.12928	-0.605
Mof_H 	H 	0.0058	0.6336	0.1359	0.162
Mof_H 	H 	0.029	0.5746	0.13	0.172
Mof_H 	H 	0.9688	0.5818	0.1415	0.183
Mof_C 	C 	0.9354	0.6445	0.09716	-0.658
Mof_H 	H 	0.9507	0.6773	0.1054	0.189
Mof_H 	H 	0.9032	0.634	0.1078	0.218
Mof_H 	H 	0.9256	0.6512	0.0774	0.184
Mof_C 	C 	0.9112	0.8052	0.03722	0.358
Mof_C 	C 	0.8736	0.7977	0.06232	-0.247
Mof_H 	H 	0.8714	0.7585	0.067	0.104
Mof_C 	C 	0.8189	0.8178	0.05561	0.37
Mof_C 	C 	0.9185	0.86754	0.02989	-0.585
Mof_H 	H 	0.9277	0.8873	0.0472	0.171
Mof_H 	H 	0.8848	0.8817	0.0221	0.173
Mof_H 	H 	0.9474	0.8718	0.016	0.147
Mof_C 	C 	0.898	0.7755	0.0116	-0.703
Mof_H 	H 	0.9243	0.784	0.9968	0.196
Mof_H 	H 	0.8619	0.7855	0.0052	0.236
Mof_H 	H 	0.899	0.7368	0.0156	0.2
Mof_C 	C 	0.0519	0.7915	0.14841	0.347
Mof_C 	C 	0.0167	0.8386	0.15296	-0.209
Mof_H 	H 	0.0368	0.8723	0.1481	0.078
Mof_C 	C 	0.9921	0.8434	0.18467	0.354
Mof_C 	C 	0.021	0.7375	0.15787	-0.574
Mof_H 	H 	0.9846	0.7376	0.1499	0.173
Mof_H 	H 	0.0188	0.7361	0.1786	0.177
Mof_H 	H 	0.0407	0.706	0.1509	0.143
Mof_C 	C 	0.10559	0.7958	0.16046	-0.666
Mof_H 	H 	0.1258	0.7628	0.1565	0.177
Mof_H 	H 	0.1028	0.8011	0.181	0.213
Mof_H 	H 	0.1243	0.8266	0.152	0.18
Mof_C 	C 	0.0785	0.9581	0.05341	0.34
Mof_C 	C 	0.1201	0.9996	0.06009	-0.269
Mof_H 	H 	0.1408	0.9871	0.077	0.106
Mof_C 	C 	0.0988	0.0523	0.06619	0.391
Mof_C 	C 	0.0434	0.9711	0.02777	-0.619
Mof_H 	H 	0.017	0.9424	0.025	0.161
Mof_H 	H 	0.0662	0.9741	0.0109	0.176
Mof_H 	H 	0.0247	0.0053	0.031	0.195
Mof_C 	C 	0.0428	0.9486	0.08043	-0.606
Mof_H 	H 	0.0147	0.9221	0.0761	0.169
Mof_H 	H 	0.026	0.9826	0.0861	0.211
Mof_H 	H 	0.0653	0.9351	0.0959	0.173
Mof_C 	C 	0.2746	0.86727	0.98286	0.526
Mof_C 	C 	0.2569	0.9202	0.96911	-0.306
Mof_H 	H 	0.2251	0.9118	0.9569	0.092
Mof_C 	C 	0.7985	0.5539	0.79958	0.401
Mof_C 	C 	0.322	0.8747	0.00126	-0.843
Mof_H 	H 	0.3148	0.9034	0.0149	0.249
Mof_H 	H 	0.3532	0.8844	0.9897	0.261
Mof_H 	H 	0.3295	0.8411	0.0114	0.228
Mof_C 	C 	0.2809	0.8261	0.96169	-0.85
Mof_H 	H 	0.2478	0.8234	0.9505	0.231
Mof_H 	H 	0.288	0.7915	0.9709	0.231
Mof_H 	H 	0.3111	0.8353	0.9493	0.266
Mof_C 	C 	0.2873	0.84513	0.09878	0.286
Mof_C 	C 	0.295	0.8475	0.1302	-0.218
Mof_H 	H 	0.2609	0.8632	0.1379	0.076
Mof_C 	C 	0.3382	0.8845	0.1393	0.345
Mof_C 	C 	0.3409	0.8225	0.08454	-0.526
Mof_H 	H 	0.3362	0.8211	0.064	0.132
Mof_H 	H 	0.3482	0.7863	0.0917	0.147
Mof_H 	H 	0.3711	0.8463	0.0892	0.163
Mof_C 	C 	0.2739	0.9017	0.08577	-0.568
Mof_H 	H 	0.27	0.8983	0.0652	0.157
Mof_H 	H 	0.3032	0.9269	0.0901	0.192
Mof_H 	H 	0.2403	0.9152	0.0939	0.171
Mof_C 	C 	0.18845	0.6249	0.1365	0.357
Mof_C 	C 	0.2454	0.6197	0.14597	-0.262
Mof_H 	H 	0.2658	0.6056	0.1293	0.088
Mof_C 	C 	0.2585	0.5805	0.17118	0.436
Mof_C 	C 	0.1545	0.6437	0.15908	-0.668
Mof_H 	H 	0.1171	0.6451	0.1525	0.176
Mof_H 	H 	0.1661	0.6798	0.1649	0.181
Mof_H 	H 	0.1573	0.619	0.1752	0.201
Mof_C 	C 	0.173	0.5644	0.12461	-0.588
Mof_H 	H 	0.1977	0.5545	0.1093	0.171
Mof_H 	H 	0.136	0.5646	0.1174	0.161
Mof_H 	H 	0.176	0.5382	0.14	0.204
Mof_O 	O 	0.92999	0.58123	0.81318	-0.411
Mof_O 	O 	0.9091	0.6591	0.83476	-0.415
Mof_C 	C 	0.9334	0.63081	0.81382	0.38
Mof_C 	C 	0.9537	0.6635	0.78574	-0.584
Mof_H 	H 	0.9535	0.7023	0.7897	0.189
Mof_H 	H 	0.9294	0.6558	0.7699	0.172
Mof_H 	H 	0.9902	0.6521	0.7808	0.186
Mof_La	La	0.27451	0.65939	0.2397	0.705
Mof_La	La	0.54752	0.60915	0.02127	1.727
Mof_La	La	0.53006	0.56678	0.04173	-0.229
Mof_O 	O 	0.628	0.5539	0.0185	-0.712
Mof_O 	O 	0.5103	0.646	0.07674	-0.282
Mof_Ag	Ag	0.7828	0.1555	0.02211	0.516
Mof_Ag	Ag	0.64918	0.10959	0.00127	0.554
Mof_Ag	Ag	0.68546	0.99703	0.96317	0.504
Mof_Ag	Ag	0.82463	0.05643	0.97761	0.544
Mof_Ag	Ag	0.77137	0.2358	0.96075	0.565
Mof_Ag	Ag	0.62494	0.21523	0.93992	0.51
Mof_Ag	Ag	0.69757	0.09222	0.90594	0.574
Mof_Ag	Ag	0.84657	0.13979	0.90635	0.517
Mof_Pd	Pd	0.74126	0.99601	0.04556	0.478
Mof_Pd	Pd	0.66501	0.27235	0.02134	0.468
Mof_Pd	Pd	0.54492	0.07007	0.93763	0.466
Mof_Pd	Pd	0.81152	0.97579	0.90414	0.491
Mof_Pd	Pd	0.92629	0.18346	0.98062	0.452
Mof_Pd	Pd	0.73517	0.24709	0.8771	0.456
Mof_Br	Br	0.73555	0.12435	0.96095	-0.631
Mof_La	La	0.57663	0.87738	0.13724	1.701
Mof_S 	S 	0.80116	0.05792	0.03039	-0.455
Mof_S 	S 	0.67334	0.01457	0.01496	-0.429
Mof_S 	S 	0.68898	0.18665	0.02995	-0.446
Mof_S 	S 	0.68016	0.27179	0.97391	-0.443
Mof_S 	S 	0.58017	0.1366	0.96558	-0.424
Mof_S 	S 	0.62462	0.03139	0.9255	-0.437
Mof_S 	S 	0.78248	0.98007	0.94939	-0.424
Mof_S 	S 	0.7895	0.06002	0.89102	-0.432
Mof_S 	S 	0.89309	0.11563	0.95306	-0.416
Mof_S 	S 	0.8461	0.21516	0.99594	-0.473
Mof_S 	S 	0.80055	0.23043	0.90967	-0.421
Mof_S 	S 	0.67287	0.18834	0.89347	-0.432
Mof_O 	O 	0.89085	0.95147	0.10049	-0.302
Mof_O 	O 	0.90623	0.0356	0.11679	-0.27
Mof_O 	O 	0.61275	0.89273	0.08831	-0.498
Mof_O 	O 	0.5643	0.8741	0.05173	-0.362
Mof_O 	O 	0.62503	0.26248	0.11919	-0.364
Mof_O 	O 	0.7021	0.2228	0.12721	-0.299
Mof_O 	O 	0.6409	0.4563	0.00617	-0.332
Mof_O 	O 	0.5977	0.442	0.96165	-0.342
Mof_O 	O 	0.38657	0.139	0.97557	-0.308
Mof_O 	O 	0.4109	0.2204	0.97339	-0.303
Mof_O 	O 	0.56628	0.97495	0.13133	-0.548
Mof_O 	O 	0.62764	0.03607	0.14345	-0.313
Mof_O 	O 	0.86248	0.80215	0.93527	-0.297
Mof_O 	O 	0.78654	0.79044	0.95711	-0.3
Mof_O 	O 	0.82814	0.95215	0.80777	-0.34
Mof_O 	O 	0.8641	0.03071	0.79858	-0.264
Mof_O 	O 	0.08456	0.0891	0.95419	-0.323
Mof_O 	O 	0.0619	0.0858	0.9099	-0.306
Mof_O 	O 	0.51106	0.82184	0.20876	-0.314
Mof_O 	O 	0.57721	0.81006	0.1773	-0.49
Mof_O 	O 	0.85721	0.38188	0.85313	-0.286
Mof_O 	O 	0.9322	0.33844	0.86008	-0.318
Mof_O 	O 	0.60539	0.265	0.80564	-0.422
Mof_O 	O 	0.53434	0.25589	0.8312	-0.36
Mof_N 	N 	0.79524	0.9815	0.07573	-0.255
Mof_H 	H 	0.7771	0.9755	0.0924	0.104
Mof_H 	H 	0.8132	0.9502	0.0712	0.122
Mof_N 	N 	0.69121	0.93568	0.06039	-0.238
Mof_H 	H 	0.7106	0.9042	0.0611	0.109
Mof_H 	H 	0.6813	0.9441	0.0786	0.103
Mof_N 	N 	0.6589	0.28008	0.06547	-0.242
Mof_H 	H 	0.6744	0.312	0.071	0.096
Mof_H 	H 	0.6231	0.2812	0.0705	0.116
Mof_N 	N 	0.6322	0.3494	0.01501	-0.255
Mof_H 	H 	0.5992	0.3516	0.0237	0.129
Mof_H 	H 	0.6544	0.3749	0.023	0.111
Mof_N 	N 	0.47353	0.10522	0.94565	-0.247
Mof_H 	H 	0.4553	0.1089	0.9288	0.116
Mof_H 	H 	0.4537	0.0825	0.957	0.102
Mof_N 	N 	0.51171	0.00938	0.91439	-0.232
Mof_H 	H 	0.4787	0.001	0.922	0.083
Mof_H 	H 	0.506	0.0217	0.8963	0.078
Mof_N 	N 	0.8277	0.89723	0.91254	-0.252
Mof_H 	H 	0.8195	0.8772	0.8967	0.141
Mof_H 	H 	0.8641	0.8938	0.9157	0.119
Mof_N 	N 	0.837	0.96735	0.86236	-0.246
Mof_H 	H 	0.8709	0.9523	0.8623	0.107
Mof_H 	H 	0.8142	0.9439	0.8532	0.122
Mof_N 	N 	0.00256	0.15968	0.96538	-0.235
Mof_H 	H 	0.0214	0.1898	0.96	0.102
Mof_H 	H 	0.0213	0.1435	0.9799	0.081
Mof_N 	N 	0.96038	0.23893	0.00991	-0.22
Mof_H 	H 	0.9888	0.2229	0.0191	0.073
Mof_H 	H 	0.9734	0.2683	0.0002	0.085
Mof_N 	N 	0.79014	0.29601	0.85963	-0.241
Mof_H 	H 	0.7907	0.2889	0.8405	0.073
Mof_H 	H 	0.7778	0.3307	0.8617	0.09
Mof_N 	N 	0.67987	0.26826	0.84834	-0.239
Mof_H 	H 	0.6783	0.3052	0.8476	0.077
Mof_H 	H 	0.6911	0.2564	0.8309	0.056
Mof_C 	C 	0.8618	0.0422	0.05333	0.446
Mof_C 	C 	0.8361	0.0248	0.08068	-0.223
Mof_H 	H 	0.8188	0.0564	0.0901	0.084
Mof_C 	C 	0.8833	0.9988	0.10178	0.324
Mof_C 	C 	0.8957	0.004	0.04033	-0.813
Mof_H 	H 	0.9108	0.0193	0.0229	0.218
Mof_H 	H 	0.8749	0.9717	0.0357	0.234
Mof_H 	H 	0.925	0.9946	0.0533	0.251
Mof_C 	C 	0.8921	0.0954	0.05956	-0.703
Mof_H 	H 	0.8675	0.1211	0.0685	0.198
Mof_H 	H 	0.9058	0.1105	0.0418	0.191
Mof_H 	H 	0.9223	0.0881	0.0724	0.232
Mof_C 	C 	0.6179	0.9772	0.03354	0.319
Mof_C 	C 	0.64226	0.92604	0.04384	-0.259
Mof_H 	H 	0.6518	0.9034	0.0271	0.089
Mof_C 	C 	0.6045	0.8948	0.06241	0.436
Mof_C 	C 	0.6013	0.0131	0.0594	-0.571
Mof_H 	H 	0.5852	0.0467	0.0525	0.15
Mof_H 	H 	0.6332	0.0214	0.0708	0.171
Mof_H 	H 	0.575	0.9938	0.071	0.184
Mof_C 	C 	0.5737	0.9713	0.01042	-0.593
Mof_H 	H 	0.5597	0.007	0.0055	0.16
Mof_H 	H 	0.5443	0.9489	0.0177	0.193
Mof_H 	H 	0.5892	0.9544	0.9936	0.163
Mof_C 	C 	0.669	0.181	0.06844	0.407
Mof_C 	C 	0.6856	0.2346	0.0808	-0.246
Mof_H 	H 	0.7256	0.2387	0.0799	0.085
Mof_C 	C 	0.6648	0.2438	0.11264	0.401
Mof_C 	C 	0.60735	0.1714	0.06984	-0.655
Mof_H 	H 	0.5886	0.2019	0.0611	0.194
Mof_H 	H 	0.5962	0.168	0.0897	0.201
Mof_H 	H 	0.5983	0.1383	0.0596	0.173
Mof_C 	C 	0.6985	0.1365	0.08068	-0.747
Mof_H 	H 	0.686	0.1026	0.0724	0.21
Mof_H 	H 	0.6926	0.1358	0.1012	0.245
Mof_H 	H 	0.737	0.141	0.0768	0.207
Mof_C 	C 	0.6754	0.345	0.96754	0.396
Mof_C 	C 	0.6261	0.3606	0.98379	-0.194
Mof_H 	H 	0.593	0.3432	0.9759	0.077
Mof_C 	C 	0.6211	0.4259	0.98394	0.221
Mof_C 	C 	0.7315	0.3711	0.97796	-0.582
Mof_H 	H 	0.7351	0.3664	0.9985	0.162
Mof_H 	H 	0.7319	0.4095	0.9734	0.173
Mof_H 	H 	0.7615	0.3531	0.9684	0.143
Mof_C 	C 	0.671	0.3528	0.9384	-0.775
Mof_H 	H 	0.7044	0.3413	0.9292	0.214
Mof_H 	H 	0.6647	0.391	0.9345	0.254
Mof_H 	H 	0.6408	0.3315	0.9311	0.22
Mof_C 	C 	0.5173	0.1588	0.98328	0.353
Mof_C 	C 	0.47622	0.1592	0.9597	-0.251
Mof_H 	H 	0.4862	0.1871	0.9454	0.097
Mof_C 	C 	0.423	0.1722	0.97187	0.366
Mof_C 	C 	0.5059	0.1178	0.00596	-0.621
Mof_H 	H 	0.4973	0.0832	0.9971	0.181
Mof_H 	H 	0.4753	0.1298	0.0174	0.189
Mof_H 	H 	0.5377	0.1138	0.0181	0.159
Mof_C 	C 	0.5324	0.2125	0.99751	-0.63
Mof_H 	H 	0.5418	0.239	0.983	0.182
Mof_H 	H 	0.5632	0.207	0.0101	0.174
Mof_H 	H 	0.5017	0.2257	0.0085	0.203
Mof_C 	C 	0.6002	0.976	0.90151	0.351
Mof_C 	C 	0.54339	0.9607	0.91287	-0.241
Mof_H 	H 	0.5468	0.9447	0.9322	0.085
Mof_C 	C 	0.5797	0.0115	0.14288	0.47
Mof_C 	C 	0.5973	0.9968	0.87072	-0.605
Mof_H 	H 	0.6336	0.0058	0.8641	0.162
Mof_H 	H 	0.5746	0.029	0.87	0.172
Mof_H 	H 	0.5818	0.9688	0.8585	0.183
Mof_C 	C 	0.6445	0.9354	0.90284	-0.658
Mof_H 	H 	0.6773	0.9507	0.8946	0.189
Mof_H 	H 	0.634	0.9032	0.8922	0.218
Mof_H 	H 	0.6512	0.9256	0.9226	0.184
Mof_C 	C 	0.8052	0.9112	0.96278	0.358
Mof_C 	C 	0.7977	0.8736	0.93768	-0.247
Mof_H 	H 	0.7585	0.8714	0.933	0.104
Mof_C 	C 	0.8178	0.8189	0.94439	0.37
Mof_C 	C 	0.86754	0.9185	0.97011	-0.585
Mof_H 	H 	0.8873	0.9277	0.9528	0.171
Mof_H 	H 	0.8817	0.8848	0.9779	0.173
Mof_H 	H 	0.8718	0.9474	0.984	0.147
Mof_C 	C 	0.7755	0.898	0.9884	-0.703
Mof_H 	H 	0.784	0.9243	0.0032	0.196
Mof_H 	H 	0.7855	0.8619	0.9948	0.236
Mof_H 	H 	0.7368	0.899	0.9844	0.2
Mof_C 	C 	0.7915	0.0519	0.85159	0.347
Mof_C 	C 	0.8386	0.0167	0.84704	-0.209
Mof_H 	H 	0.8723	0.0368	0.8519	0.078
Mof_C 	C 	0.8434	0.9921	0.81533	0.354
Mof_C 	C 	0.7375	0.021	0.84213	-0.574
Mof_H 	H 	0.7376	0.9846	0.8501	0.173
Mof_H 	H 	0.7361	0.0188	0.8214	0.177
Mof_H 	H 	0.706	0.0407	0.8491	0.143
Mof_C 	C 	0.7958	0.10559	0.83954	-0.666
Mof_H 	H 	0.7628	0.1258	0.8435	0.177
Mof_H 	H 	0.8011	0.1028	0.819	0.213
Mof_H 	H 	0.8266	0.1243	0.848	0.18
Mof_C 	C 	0.9581	0.0785	0.94659	0.34
Mof_C 	C 	0.9996	0.1201	0.93991	-0.269
Mof_H 	H 	0.9871	0.1408	0.923	0.106
Mof_C 	C 	0.0523	0.0988	0.93381	0.391
Mof_C 	C 	0.9711	0.0434	0.97223	-0.619
Mof_H 	H 	0.9424	0.017	0.975	0.161
Mof_H 	H 	0.9741	0.0662	0.9891	0.176
Mof_H 	H 	0.0053	0.0247	0.969	0.195
Mof_C 	C 	0.9486	0.0428	0.91957	-0.606
Mof_H 	H 	0.9221	0.0147	0.9239	0.169
Mof_H 	H 	0.9826	0.026	0.9139	0.211
Mof_H 	H 	0.9351	0.0653	0.9041	0.173
Mof_C 	C 	0.86727	0.2746	0.01714	0.526
Mof_C 	C 	0.9202	0.2569	0.03089	-0.306
Mof_H 	H 	0.9118	0.2251	0.0431	0.092
Mof_C 	C 	0.5539	0.7985	0.20042	0.401
Mof_C 	C 	0.8747	0.322	0.99874	-0.843
Mof_H 	H 	0.9034	0.3148	0.9851	0.249
Mof_H 	H 	0.8844	0.3532	0.0103	0.261
Mof_H 	H 	0.8411	0.3295	0.9886	0.228
Mof_C 	C 	0.8261	0.2809	0.03831	-0.85
Mof_H 	H 	0.8234	0.2478	0.0495	0.231
Mof_H 	H 	0.7915	0.288	0.0291	0.231
Mof_H 	H 	0.8353	0.3111	0.0507	0.266
Mof_C 	C 	0.84513	0.2873	0.90122	0.286
Mof_C 	C 	0.8475	0.295	0.8698	-0.218
Mof_H 	H 	0.8632	0.2609	0.8621	0.076
Mof_C 	C 	0.8845	0.3382	0.8607	0.345
Mof_C 	C 	0.8225	0.3409	0.91546	-0.526
Mof_H 	H 	0.8211	0.3362	0.936	0.132
Mof_H 	H 	0.7863	0.3482	0.9083	0.147
Mof_H 	H 	0.8463	0.3711	0.9108	0.163
Mof_C 	C 	0.9017	0.2739	0.91423	-0.568
Mof_H 	H 	0.8983	0.27	0.9348	0.157
Mof_H 	H 	0.9269	0.3032	0.9099	0.192
Mof_H 	H 	0.9152	0.2403	0.9061	0.171
Mof_C 	C 	0.6249	0.18845	0.8635	0.357
Mof_C 	C 	0.6197	0.2454	0.85403	-0.262
Mof_H 	H 	0.6056	0.2658	0.8707	0.088
Mof_C 	C 	0.5805	0.2585	0.82882	0.436
Mof_C 	C 	0.6437	0.1545	0.84092	-0.668
Mof_H 	H 	0.6451	0.1171	0.8475	0.176
Mof_H 	H 	0.6798	0.1661	0.8351	0.181
Mof_H 	H 	0.619	0.1573	0.8248	0.201
Mof_C 	C 	0.5644	0.173	0.87539	-0.588
Mof_H 	H 	0.5545	0.1977	0.8907	0.171
Mof_H 	H 	0.5646	0.136	0.8826	0.161
Mof_H 	H 	0.5382	0.176	0.86	0.204
Mof_O 	O 	0.58123	0.92999	0.18682	-0.411
Mof_O 	O 	0.6591	0.9091	0.16524	-0.415
Mof_C 	C 	0.63081	0.9334	0.18618	0.38
Mof_C 	C 	0.6635	0.9537	0.21426	-0.584
Mof_H 	H 	0.7023	0.9535	0.2103	0.189
Mof_H 	H 	0.6558	0.9294	0.2301	0.172
Mof_H 	H 	0.6521	0.9902	0.2192	0.186
Mof_La	La	0.65939	0.27451	0.7603	0.705
Mof_La	La	0.60915	0.54752	0.97873	1.727
Mof_La	La	0.56678	0.53006	0.95827	-0.229
Mof_O 	O 	0.5539	0.628	0.9815	-0.712
Mof_O 	O 	0.646	0.5103	0.92326	-0.282
Mof_Ag	Ag	0.2172	0.8445	0.52211	0.516
Mof_Ag	Ag	0.35082	0.89041	0.50127	0.554
Mof_Ag	Ag	0.31454	0.00297	0.46317	0.504
Mof_Ag	Ag	0.17537	0.94357	0.47761	0.544
Mof_Ag	Ag	0.22863	0.7642	0.46075	0.565
Mof_Ag	Ag	0.37506	0.78477	0.43992	0.51
Mof_Ag	Ag	0.30243	0.90778	0.40594	0.574
Mof_Ag	Ag	0.15343	0.86021	0.40635	0.517
Mof_Pd	Pd	0.25874	0.00399	0.54556	0.478
Mof_Pd	Pd	0.33499	0.72765	0.52134	0.468
Mof_Pd	Pd	0.45508	0.92993	0.43763	0.466
Mof_Pd	Pd	0.18848	0.02421	0.40414	0.491
Mof_Pd	Pd	0.07371	0.81654	0.48062	0.452
Mof_Pd	Pd	0.26483	0.75291	0.3771	0.456
Mof_Br	Br	0.26445	0.87565	0.46095	-0.631
Mof_La	La	0.42337	0.12262	0.63724	1.701
Mof_S 	S 	0.19884	0.94208	0.53039	-0.455
Mof_S 	S 	0.32666	0.98543	0.51496	-0.429
Mof_S 	S 	0.31102	0.81335	0.52995	-0.446
Mof_S 	S 	0.31984	0.72821	0.47391	-0.443
Mof_S 	S 	0.41983	0.8634	0.46558	-0.424
Mof_S 	S 	0.37538	0.96861	0.4255	-0.437
Mof_S 	S 	0.21752	0.01993	0.44939	-0.424
Mof_S 	S 	0.2105	0.93998	0.39102	-0.432
Mof_S 	S 	0.10691	0.88437	0.45306	-0.416
Mof_S 	S 	0.1539	0.78484	0.49594	-0.473
Mof_S 	S 	0.19945	0.76957	0.40967	-0.421
Mof_S 	S 	0.32713	0.81166	0.39347	-0.432
Mof_O 	O 	0.10915	0.04853	0.60049	-0.302
Mof_O 	O 	0.09377	0.9644	0.61679	-0.27
Mof_O 	O 	0.38725	0.10727	0.58831	-0.498
Mof_O 	O 	0.4357	0.1259	0.55173	-0.362
Mof_O 	O 	0.37497	0.73752	0.61919	-0.364
Mof_O 	O 	0.2979	0.7772	0.62721	-0.299
Mof_O 	O 	0.3591	0.5437	0.50617	-0.332
Mof_O 	O 	0.4023	0.558	0.46165	-0.342
Mof_O 	O 	0.61343	0.861	0.47557	-0.308
Mof_O 	O 	0.5891	0.7796	0.47339	-0.303
Mof_O 	O 	0.43372	0.02505	0.63133	-0.548
Mof_O 	O 	0.37236	0.96393	0.64345	-0.313
Mof_O 	O 	0.13752	0.19785	0.43527	-0.297
Mof_O 	O 	0.21346	0.20956	0.45711	-0.3
Mof_O 	O 	0.17186	0.04785	0.30777	-0.34
Mof_O 	O 	0.1359	0.96929	0.29858	-0.264
Mof_O 	O 	0.91544	0.9109	0.45419	-0.323
Mof_O 	O 	0.9381	0.9142	0.4099	-0.306
Mof_O 	O 	0.48894	0.17816	0.70876	-0.314
Mof_O 	O 	0.42279	0.18994	0.6773	-0.49
Mof_O 	O 	0.14279	0.61812	0.35313	-0.286
Mof_O 	O 	0.0678	0.66156	0.36008	-0.318
Mof_O 	O 	0.39461	0.735	0.30564	-0.422
Mof_O 	O 	0.46566	0.74411	0.3312	-0.36
Mof_N 	N 	0.20476	0.0185	0.57573	-0.255
Mof_H 	H 	0.2229	0.0245	0.5924	0.104
Mof_H 	H 	0.1868	0.0498	0.5712	0.122
Mof_N 	N 	0.30879	0.06432	0.56039	-0.238
Mof_H 	H 	0.2894	0.0958	0.5611	0.109
Mof_H 	H 	0.3187	0.0559	0.5786	0.103
Mof_N 	N 	0.3411	0.71992	0.56547	-0.242
Mof_H 	H 	0.3256	0.688	0.571	0.096
Mof_H 	H 	0.3769	0.7188	0.5705	0.116
Mof_N 	N 	0.3678	0.6506	0.51501	-0.255
Mof_H 	H 	0.4008	0.6484	0.5237	0.129
Mof_H 	H 	0.3456	0.6251	0.523	0.111
Mof_N 	N 	0.52647	0.89478	0.44565	-0.247
Mof_H 	H 	0.5447	0.8911	0.4288	0.116
Mof_H 	H 	0.5463	0.9175	0.457	0.102
Mof_N 	N 	0.48829	0.99062	0.41439	-0.232
Mof_H 	H 	0.5213	0.999	0.422	0.083
Mof_H 	H 	0.494	0.9783	0.3963	0.078
Mof_N 	N 	0.1723	0.10277	0.41254	-0.252
Mof_H 	H 	0.1805	0.1228	0.3967	0.141
Mof_H 	H 	0.1359	0.1062	0.4157	0.119
Mof_N 	N 	0.163	0.03265	0.36236	-0.246
Mof_H 	H 	0.1291	0.0477	0.3623	0.107
Mof_H 	H 	0.1858	0.0561	0.3532	0.122
Mof_N 	N 	0.99744	0.84032	0.46538	-0.235
Mof_H 	H 	0.9786	0.8102	0.46	0.102
Mof_H 	H 	0.9787	0.8565	0.4799	0.081
Mof_N 	N 	0.03962	0.76107	0.50991	-0.22
Mof_H 	H 	0.0112	0.7771	0.5191	0.073
Mof_H 	H 	0.0266	0.7317	0.5002	0.085
Mof_N 	N 	0.20986	0.70399	0.35963	-0.241
Mof_H 	H 	0.2093	0.7111	0.3405	0.073
Mof_H 	H 	0.2222	0.6693	0.3617	0.09
Mof_N 	N 	0.32013	0.73174	0.34834	-0.239
Mof_H 	H 	0.3217	0.6948	0.3476	0.077
Mof_H 	H 	0.3089	0.7436	0.3309	0.056
Mof_C 	C 	0.1382	0.9578	0.55333	0.446
Mof_C 	C 	0.1639	0.9752	0.58068	-0.223
Mof_H 	H 	0.1812	0.9436	0.5901	0.084
Mof_C 	C 	0.1167	0.0012	0.60178	0.324
Mof_C 	C 	0.1043	0.996	0.54033	-0.813
Mof_H 	H 	0.0892	0.9807	0.5229	0.218
Mof_H 	H 	0.1251	0.0283	0.5357	0.234
Mof_H 	H 	0.075	0.0054	0.5533	0.251
Mof_C 	C 	0.1079	0.9046	0.55956	-0.703
Mof_H 	H 	0.1325	0.8789	0.5685	0.198
Mof_H 	H 	0.0942	0.8895	0.5418	0.191
Mof_H 	H 	0.0777	0.9119	0.5724	0.232
Mof_C 	C 	0.3821	0.0228	0.53354	0.319
Mof_C 	C 	0.35774	0.07396	0.54384	-0.259
Mof_H 	H 	0.3482	0.0966	0.5271	0.089
Mof_C 	C 	0.3955	0.1052	0.56241	0.436
Mof_C 	C 	0.3987	0.9869	0.5594	-0.571
Mof_H 	H 	0.4148	0.9533	0.5525	0.15
Mof_H 	H 	0.3668	0.9786	0.5708	0.171
Mof_H 	H 	0.425	0.0062	0.571	0.184
Mof_C 	C 	0.4263	0.0287	0.51042	-0.593
Mof_H 	H 	0.4403	0.993	0.5055	0.16
Mof_H 	H 	0.4557	0.0511	0.5177	0.193
Mof_H 	H 	0.4108	0.0456	0.4936	0.163
Mof_C 	C 	0.331	0.819	0.56844	0.407
Mof_C 	C 	0.3144	0.7654	0.5808	-0.246
Mof_H 	H 	0.2744	0.7613	0.5799	0.085
Mof_C 	C 	0.3352	0.7562	0.61264	0.401
Mof_C 	C 	0.39265	0.8286	0.56984	-0.655
Mof_H 	H 	0.4114	0.7981	0.5611	0.194
Mof_H 	H 	0.4038	0.832	0.5897	0.201
Mof_H 	H 	0.4017	0.8617	0.5596	0.173
Mof_C 	C 	0.3015	0.8635	0.58068	-0.747
Mof_H 	H 	0.314	0.8974	0.5724	0.21
Mof_H 	H 	0.3074	0.8642	0.6012	0.245
Mof_H 	H 	0.263	0.859	0.5768	0.207
Mof_C 	C 	0.3246	0.655	0.46754	0.396
Mof_C 	C 	0.3739	0.6394	0.48379	-0.194
Mof_H 	H 	0.407	0.6568	0.4759	0.077
Mof_C 	C 	0.3789	0.5741	0.48394	0.221
Mof_C 	C 	0.2685	0.6289	0.47796	-0.582
Mof_H 	H 	0.2649	0.6336	0.4985	0.162
Mof_H 	H 	0.2681	0.5905	0.4734	0.173
Mof_H 	H 	0.2385	0.6469	0.4684	0.143
Mof_C 	C 	0.329	0.6472	0.4384	-0.775
Mof_H 	H 	0.2956	0.6587	0.4292	0.214
Mof_H 	H 	0.3353	0.609	0.4345	0.254
Mof_H 	H 	0.3592	0.6685	0.4311	0.22
Mof_C 	C 	0.4827	0.8412	0.48328	0.353
Mof_C 	C 	0.52378	0.8408	0.4597	-0.251
Mof_H 	H 	0.5138	0.8129	0.4454	0.097
Mof_C 	C 	0.577	0.8278	0.47187	0.366
Mof_C 	C 	0.4941	0.8822	0.50596	-0.621
Mof_H 	H 	0.5027	0.9168	0.4971	0.181
Mof_H 	H 	0.5247	0.8702	0.5174	0.189
Mof_H 	H 	0.4623	0.8862	0.5181	0.159
Mof_C 	C 	0.4676	0.7875	0.49751	-0.63
Mof_H 	H 	0.4582	0.761	0.483	0.182
Mof_H 	H 	0.4368	0.793	0.5101	0.174
Mof_H 	H 	0.4983	0.7743	0.5085	0.203
Mof_C 	C 	0.3998	0.024	0.40151	0.351
Mof_C 	C 	0.45661	0.0393	0.41287	-0.241
Mof_H 	H 	0.4532	0.0553	0.4322	0.085
Mof_C 	C 	0.4203	0.9885	0.64288	0.47
Mof_C 	C 	0.4027	0.0032	0.37072	-0.605
Mof_H 	H 	0.3664	0.9942	0.3641	0.162
Mof_H 	H 	0.4254	0.971	0.37	0.172
Mof_H 	H 	0.4182	0.0312	0.3585	0.183
Mof_C 	C 	0.3555	0.0646	0.40284	-0.658
Mof_H 	H 	0.3227	0.0493	0.3946	0.189
Mof_H 	H 	0.366	0.0968	0.3922	0.218
Mof_H 	H 	0.3488	0.0744	0.4226	0.184
Mof_C 	C 	0.1948	0.0888	0.46278	0.358
Mof_C 	C 	0.2023	0.1264	0.43768	-0.247
Mof_H 	H 	0.2415	0.1286	0.433	0.104
Mof_C 	C 	0.1822	0.1811	0.44439	0.37
Mof_C 	C 	0.13246	0.0815	0.47011	-0.585
Mof_H 	H 	0.1127	0.0723	0.4528	0.171
Mof_H 	H 	0.1183	0.1152	0.4779	0.173
Mof_H 	H 	0.1282	0.0526	0.484	0.147
Mof_C 	C 	0.2245	0.102	0.4884	-0.703
Mof_H 	H 	0.216	0.0757	0.5032	0.196
Mof_H 	H 	0.2145	0.1381	0.4948	0.236
Mof_H 	H 	0.2632	0.101	0.4844	0.2
Mof_C 	C 	0.2085	0.9481	0.35159	0.347
Mof_C 	C 	0.1614	0.9833	0.34704	-0.209
Mof_H 	H 	0.1277	0.9632	0.3519	0.078
Mof_C 	C 	0.1566	0.0079	0.31533	0.354
Mof_C 	C 	0.2625	0.979	0.34213	-0.574
Mof_H 	H 	0.2624	0.0154	0.3501	0.173
Mof_H 	H 	0.2639	0.9812	0.3214	0.177
Mof_H 	H 	0.294	0.9593	0.3491	0.143
Mof_C 	C 	0.2042	0.89441	0.33954	-0.666
Mof_H 	H 	0.2372	0.8742	0.3435	0.177
Mof_H 	H 	0.1989	0.8972	0.319	0.213
Mof_H 	H 	0.1734	0.8757	0.348	0.18
Mof_C 	C 	0.0419	0.9215	0.44659	0.34
Mof_C 	C 	0.0004	0.8799	0.43991	-0.269
Mof_H 	H 	0.0129	0.8592	0.423	0.106
Mof_C 	C 	0.9477	0.9012	0.43381	0.391
Mof_C 	C 	0.0289	0.9566	0.47223	-0.619
Mof_H 	H 	0.0576	0.983	0.475	0.161
Mof_H 	H 	0.0259	0.9338	0.4891	0.176
Mof_H 	H 	0.9947	0.9753	0.469	0.195
Mof_C 	C 	0.0514	0.9572	0.41957	-0.607
Mof_H 	H 	0.0779	0.9853	0.4239	0.169
Mof_H 	H 	0.0174	0.974	0.4139	0.211
Mof_H 	H 	0.0649	0.9347	0.4041	0.173
Mof_C 	C 	0.13273	0.7254	0.51714	0.526
Mof_C 	C 	0.0798	0.7431	0.53089	-0.306
Mof_H 	H 	0.0882	0.7749	0.5431	0.092
Mof_C 	C 	0.4461	0.2015	0.70042	0.401
Mof_C 	C 	0.1253	0.678	0.49874	-0.844
Mof_H 	H 	0.0966	0.6852	0.4851	0.249
Mof_H 	H 	0.1156	0.6468	0.5103	0.261
Mof_H 	H 	0.1589	0.6705	0.4886	0.228
Mof_C 	C 	0.1739	0.7191	0.53831	-0.85
Mof_H 	H 	0.1766	0.7522	0.5495	0.231
Mof_H 	H 	0.2085	0.712	0.5291	0.231
Mof_H 	H 	0.1647	0.6889	0.5507	0.266
Mof_C 	C 	0.15487	0.7127	0.40122	0.286
Mof_C 	C 	0.1525	0.705	0.3698	-0.218
Mof_H 	H 	0.1368	0.7391	0.3621	0.076
Mof_C 	C 	0.1155	0.6618	0.3607	0.345
Mof_C 	C 	0.1775	0.6591	0.41546	-0.526
Mof_H 	H 	0.1789	0.6638	0.436	0.132
Mof_H 	H 	0.2137	0.6518	0.4083	0.147
Mof_H 	H 	0.1537	0.6289	0.4108	0.163
Mof_C 	C 	0.0983	0.7261	0.41423	-0.568
Mof_H 	H 	0.1017	0.73	0.4348	0.157
Mof_H 	H 	0.0731	0.6968	0.4099	0.192
Mof_H 	H 	0.0848	0.7597	0.4061	0.171
Mof_C 	C 	0.3751	0.81155	0.3635	0.357
Mof_C 	C 	0.3803	0.7546	0.35403	-0.262
Mof_H 	H 	0.3944	0.7342	0.3707	0.088
Mof_C 	C 	0.4195	0.7415	0.32882	0.436
Mof_C 	C 	0.3563	0.8455	0.34092	-0.668
Mof_H 	H 	0.3549	0.8829	0.3475	0.176
Mof_H 	H 	0.3202	0.8339	0.3351	0.181
Mof_H 	H 	0.381	0.8427	0.3248	0.201
Mof_C 	C 	0.4356	0.827	0.37539	-0.588
Mof_H 	H 	0.4455	0.8023	0.3907	0.171
Mof_H 	H 	0.4354	0.864	0.3826	0.161
Mof_H 	H 	0.4618	0.824	0.36	0.204
Mof_O 	O 	0.41877	0.07001	0.68682	-0.411
Mof_O 	O 	0.3409	0.0909	0.66524	-0.415
Mof_C 	C 	0.36919	0.0666	0.68618	0.38
Mof_C 	C 	0.3365	0.0463	0.71426	-0.584
Mof_H 	H 	0.2977	0.0465	0.7103	0.189
Mof_H 	H 	0.3442	0.0706	0.7301	0.172
Mof_H 	H 	0.3479	0.0098	0.7192	0.186
Mof_La	La	0.34061	0.72549	0.2603	0.705
Mof_La	La	0.39085	0.45248	0.47873	1.727
Mof_La	La	0.43322	0.46994	0.45827	-0.229
Mof_O 	O 	0.4461	0.372	0.4815	-0.711
Mof_O 	O 	0.354	0.4897	0.42326	-0.282
Mof_Ag	Ag	0.6555	0.7172	0.77211	0.516
Mof_Ag	Ag	0.60959	0.85082	0.75127	0.554
Mof_Ag	Ag	0.49703	0.81454	0.71317	0.506
Mof_Ag	Ag	0.55643	0.67537	0.72761	0.543
Mof_Ag	Ag	0.7358	0.72863	0.71075	0.565
Mof_Ag	Ag	0.71523	0.87506	0.68992	0.51
Mof_Ag	Ag	0.59222	0.80243	0.65594	0.573
Mof_Ag	Ag	0.63979	0.65343	0.65635	0.517
Mof_Pd	Pd	0.49601	0.75874	0.79556	0.479
Mof_Pd	Pd	0.77235	0.83499	0.77134	0.468
Mof_Pd	Pd	0.57007	0.95508	0.68763	0.465
Mof_Pd	Pd	0.47579	0.68848	0.65414	0.492
Mof_Pd	Pd	0.68346	0.57371	0.73062	0.451
Mof_Pd	Pd	0.74709	0.76483	0.6271	0.456
Mof_Br	Br	0.62435	0.76445	0.71095	-0.631
Mof_La	La	0.37738	0.92337	0.88724	1.701
Mof_S 	S 	0.55792	0.69884	0.78039	-0.457
Mof_S 	S 	0.51457	0.82666	0.76496	-0.431
Mof_S 	S 	0.68665	0.81102	0.77995	-0.446
Mof_S 	S 	0.77179	0.81984	0.72391	-0.443
Mof_S 	S 	0.6366	0.91983	0.71558	-0.424
Mof_S 	S 	0.53139	0.87538	0.6755	-0.437
Mof_S 	S 	0.48007	0.71752	0.69939	-0.423
Mof_S 	S 	0.56002	0.7105	0.64102	-0.433
Mof_S 	S 	0.61563	0.60691	0.70306	-0.417
Mof_S 	S 	0.71516	0.6539	0.74594	-0.473
Mof_S 	S 	0.73043	0.69945	0.65967	-0.421
Mof_S 	S 	0.68834	0.82713	0.64347	-0.432
Mof_O 	O 	0.45147	0.60915	0.85049	-0.302
Mof_O 	O 	0.5356	0.59377	0.86679	-0.271
Mof_O 	O 	0.39273	0.88725	0.83831	-0.498
Mof_O 	O 	0.3741	0.9357	0.80173	-0.362
Mof_O 	O 	0.76248	0.87497	0.86919	-0.364
Mof_O 	O 	0.7228	0.7979	0.87721	-0.299
Mof_O 	O 	0.9563	0.8591	0.75617	-0.333
Mof_O 	O 	0.942	0.9023	0.71165	-0.343
Mof_O 	O 	0.639	0.11343	0.72557	-0.308
Mof_O 	O 	0.7204	0.0891	0.72339	-0.303
Mof_O 	O 	0.47495	0.93372	0.88133	-0.548
Mof_O 	O 	0.53607	0.87236	0.89345	-0.313
Mof_O 	O 	0.30215	0.63752	0.68527	-0.298
Mof_O 	O 	0.29044	0.71346	0.70711	-0.3
Mof_O 	O 	0.45215	0.67186	0.55777	-0.341
Mof_O 	O 	0.53071	0.6359	0.54858	-0.265
Mof_O 	O 	0.5891	0.41544	0.70419	-0.323
Mof_O 	O 	0.5858	0.4381	0.6599	-0.305
Mof_O 	O 	0.32184	0.98894	0.95876	-0.314
Mof_O 	O 	0.31006	0.92279	0.9273	-0.49
Mof_O 	O 	0.88188	0.64279	0.60313	-0.286
Mof_O 	O 	0.83844	0.5678	0.61008	-0.318
Mof_O 	O 	0.765	0.89461	0.55564	-0.422
Mof_O 	O 	0.75589	0.96566	0.5812	-0.361
Mof_N 	N 	0.4815	0.70476	0.82573	-0.254
Mof_H 	H 	0.4755	0.7229	0.8424	0.104
Mof_H 	H 	0.4502	0.6868	0.8212	0.122
Mof_N 	N 	0.43568	0.80879	0.81039	-0.238
Mof_H 	H 	0.4042	0.7894	0.8111	0.109
Mof_H 	H 	0.4441	0.8187	0.8286	0.103
Mof_N 	N 	0.78008	0.8411	0.81547	-0.242
Mof_H 	H 	0.812	0.8256	0.821	0.096
Mof_H 	H 	0.7812	0.8769	0.8205	0.116
Mof_N 	N 	0.8494	0.8678	0.76501	-0.255
Mof_H 	H 	0.8516	0.9008	0.7737	0.129
Mof_H 	H 	0.8749	0.8456	0.773	0.111
Mof_N 	N 	0.60522	0.02647	0.69565	-0.247
Mof_H 	H 	0.6089	0.0447	0.6788	0.116
Mof_H 	H 	0.5825	0.0463	0.707	0.102
Mof_N 	N 	0.50938	0.98829	0.66439	-0.232
Mof_H 	H 	0.501	0.0213	0.672	0.083
Mof_H 	H 	0.5217	0.994	0.6463	0.078
Mof_N 	N 	0.39723	0.6723	0.66254	-0.253
Mof_H 	H 	0.3772	0.6805	0.6467	0.141
Mof_H 	H 	0.3938	0.6359	0.6657	0.119
Mof_N 	N 	0.46735	0.663	0.61236	-0.245
Mof_H 	H 	0.4523	0.6291	0.6123	0.108
Mof_H 	H 	0.4439	0.6858	0.6032	0.122
Mof_N 	N 	0.65968	0.49744	0.71538	-0.235
Mof_H 	H 	0.6898	0.4786	0.71	0.102
Mof_H 	H 	0.6435	0.4787	0.7299	0.081
Mof_N 	N 	0.73893	0.53962	0.75991	-0.22
Mof_H 	H 	0.7229	0.5112	0.7691	0.073
Mof_H 	H 	0.7683	0.5266	0.7502	0.085
Mof_N 	N 	0.79601	0.70986	0.60963	-0.241
Mof_H 	H 	0.7889	0.7093	0.5905	0.073
Mof_H 	H 	0.8307	0.7222	0.6117	0.09
Mof_N 	N 	0.76826	0.82013	0.59834	-0.239
Mof_H 	H 	0.8052	0.8217	0.5976	0.077
Mof_H 	H 	0.7564	0.8089	0.5809	0.056
Mof_C 	C 	0.5422	0.6382	0.80333	0.452
Mof_C 	C 	0.5248	0.6639	0.83068	-0.227
Mof_H 	H 	0.5564	0.6812	0.8401	0.085
Mof_C 	C 	0.4988	0.6167	0.85178	0.327
Mof_C 	C 	0.504	0.6043	0.79033	-0.827
Mof_H 	H 	0.5193	0.5892	0.7729	0.222
Mof_H 	H 	0.4717	0.6251	0.7857	0.239
Mof_H 	H 	0.4946	0.575	0.8033	0.256
Mof_C 	C 	0.5954	0.6079	0.80956	-0.708
Mof_H 	H 	0.6211	0.6325	0.8185	0.199
Mof_H 	H 	0.6105	0.5942	0.7918	0.192
Mof_H 	H 	0.5881	0.5777	0.8224	0.233
Mof_C 	C 	0.4772	0.8821	0.78354	0.32
Mof_C 	C 	0.42604	0.85774	0.79384	-0.259
Mof_H 	H 	0.4034	0.8482	0.7771	0.089
Mof_C 	C 	0.3948	0.8955	0.81241	0.436
Mof_C 	C 	0.5131	0.8987	0.8094	-0.573
Mof_H 	H 	0.5467	0.9148	0.8025	0.15
Mof_H 	H 	0.5214	0.8668	0.8208	0.171
Mof_H 	H 	0.4938	0.925	0.821	0.185
Mof_C 	C 	0.4713	0.9263	0.76042	-0.593
Mof_H 	H 	0.507	0.9403	0.7555	0.159
Mof_H 	H 	0.4489	0.9557	0.7677	0.192
Mof_H 	H 	0.4544	0.9108	0.7436	0.163
Mof_C 	C 	0.681	0.831	0.81844	0.406
Mof_C 	C 	0.7346	0.8144	0.8308	-0.246
Mof_H 	H 	0.7387	0.7744	0.8299	0.085
Mof_C 	C 	0.7438	0.8352	0.86264	0.401
Mof_C 	C 	0.6714	0.89265	0.81984	-0.655
Mof_H 	H 	0.7019	0.9114	0.8111	0.193
Mof_H 	H 	0.668	0.9038	0.8397	0.201
Mof_H 	H 	0.6383	0.9017	0.8096	0.173
Mof_C 	C 	0.6365	0.8015	0.83068	-0.747
Mof_H 	H 	0.6026	0.814	0.8224	0.21
Mof_H 	H 	0.6358	0.8074	0.8512	0.245
Mof_H 	H 	0.641	0.763	0.8268	0.207
Mof_C 	C 	0.845	0.8246	0.71754	0.396
Mof_C 	C 	0.8606	0.8739	0.73379	-0.194
Mof_H 	H 	0.8432	0.907	0.7259	0.077
Mof_C 	C 	0.9259	0.8789	0.73394	0.221
Mof_C 	C 	0.8711	0.7685	0.72796	-0.582
Mof_H 	H 	0.8664	0.7649	0.7485	0.162
Mof_H 	H 	0.9095	0.7681	0.7234	0.173
Mof_H 	H 	0.8531	0.7385	0.7184	0.143
Mof_C 	C 	0.8528	0.829	0.6884	-0.774
Mof_H 	H 	0.8413	0.7956	0.6792	0.214
Mof_H 	H 	0.891	0.8353	0.6845	0.254
Mof_H 	H 	0.8315	0.8592	0.6811	0.219
Mof_C 	C 	0.6588	0.9827	0.73328	0.354
Mof_C 	C 	0.6592	0.02378	0.7097	-0.251
Mof_H 	H 	0.6871	0.0138	0.6954	0.097
Mof_C 	C 	0.6722	0.077	0.72187	0.366
Mof_C 	C 	0.6178	0.9941	0.75596	-0.624
Mof_H 	H 	0.5832	0.0027	0.7471	0.182
Mof_H 	H 	0.6298	0.0247	0.7674	0.19
Mof_H 	H 	0.6138	0.9623	0.7681	0.16
Mof_C 	C 	0.7125	0.9676	0.74751	-0.63
Mof_H 	H 	0.739	0.9582	0.733	0.182
Mof_H 	H 	0.707	0.9368	0.7601	0.174
Mof_H 	H 	0.7257	0.9983	0.7585	0.203
Mof_C 	C 	0.476	0.8998	0.65151	0.351
Mof_C 	C 	0.4607	0.95661	0.66287	-0.24
Mof_H 	H 	0.4447	0.9532	0.6822	0.085
Mof_C 	C 	0.5115	0.9203	0.89288	0.469
Mof_C 	C 	0.4968	0.9027	0.62072	-0.601
Mof_H 	H 	0.5058	0.8664	0.6141	0.16
Mof_H 	H 	0.529	0.9254	0.62	0.171
Mof_H 	H 	0.4688	0.9182	0.6085	0.182
Mof_C 	C 	0.4354	0.8555	0.65284	-0.657
Mof_H 	H 	0.4507	0.8227	0.6446	0.189
Mof_H 	H 	0.4032	0.866	0.6422	0.218
Mof_H 	H 	0.4256	0.8488	0.6726	0.184
Mof_C 	C 	0.4112	0.6948	0.71278	0.358
Mof_C 	C 	0.3736	0.7023	0.68768	-0.247
Mof_H 	H 	0.3714	0.7415	0.683	0.104
Mof_C 	C 	0.3189	0.6822	0.69439	0.37
Mof_C 	C 	0.4185	0.63246	0.72011	-0.586
Mof_H 	H 	0.4277	0.6127	0.7028	0.171
Mof_H 	H 	0.3848	0.6183	0.7279	0.173
Mof_H 	H 	0.4474	0.6282	0.734	0.148
Mof_C 	C 	0.398	0.7245	0.7384	-0.703
Mof_H 	H 	0.4243	0.716	0.7532	0.196
Mof_H 	H 	0.3619	0.7145	0.7448	0.236
Mof_H 	H 	0.399	0.7632	0.7344	0.2
Mof_C 	C 	0.5519	0.7085	0.60159	0.348
Mof_C 	C 	0.5167	0.6614	0.59704	-0.211
Mof_H 	H 	0.5368	0.6277	0.6019	0.078
Mof_C 	C 	0.4921	0.6566	0.56533	0.356
Mof_C 	C 	0.521	0.7625	0.59213	-0.578
Mof_H 	H 	0.4846	0.7624	0.6001	0.175
Mof_H 	H 	0.5188	0.7639	0.5714	0.177
Mof_H 	H 	0.5407	0.794	0.5991	0.144
Mof_C 	C 	0.60559	0.7042	0.58954	-0.668
Mof_H 	H 	0.6258	0.7372	0.5935	0.177
Mof_H 	H 	0.6028	0.6989	0.569	0.213
Mof_H 	H 	0.6243	0.6734	0.598	0.181
Mof_C 	C 	0.5785	0.5419	0.69659	0.341
Mof_C 	C 	0.6201	0.5004	0.68991	-0.271
Mof_H 	H 	0.6408	0.5129	0.673	0.106
Mof_C 	C 	0.5988	0.4477	0.68381	0.392
Mof_C 	C 	0.5434	0.5289	0.72223	-0.622
Mof_H 	H 	0.517	0.5576	0.725	0.161
Mof_H 	H 	0.5662	0.5259	0.7391	0.176
Mof_H 	H 	0.5247	0.4947	0.719	0.196
Mof_C 	C 	0.5428	0.5514	0.66957	-0.607
Mof_H 	H 	0.5147	0.5779	0.6739	0.168
Mof_H 	H 	0.526	0.5174	0.6639	0.211
Mof_H 	H 	0.5653	0.5649	0.6541	0.173
Mof_C 	C 	0.7746	0.63273	0.76714	0.526
Mof_C 	C 	0.7569	0.5798	0.78089	-0.306
Mof_H 	H 	0.7251	0.5882	0.7931	0.092
Mof_C 	C 	0.2985	0.9461	0.95042	0.401
Mof_C 	C 	0.822	0.6253	0.74874	-0.843
Mof_H 	H 	0.8148	0.5966	0.7351	0.249
Mof_H 	H 	0.8532	0.6156	0.7603	0.261
Mof_H 	H 	0.8295	0.6589	0.7386	0.228
Mof_C 	C 	0.7809	0.6739	0.78831	-0.85
Mof_H 	H 	0.7478	0.6766	0.7995	0.231
Mof_H 	H 	0.788	0.7085	0.7791	0.231
Mof_H 	H 	0.8111	0.6647	0.8007	0.266
Mof_C 	C 	0.7873	0.65487	0.65122	0.286
Mof_C 	C 	0.795	0.6525	0.6198	-0.218
Mof_H 	H 	0.7609	0.6368	0.6121	0.076
Mof_C 	C 	0.8382	0.6155	0.6107	0.345
Mof_C 	C 	0.8409	0.6775	0.66546	-0.526
Mof_H 	H 	0.8362	0.6789	0.686	0.132
Mof_H 	H 	0.8482	0.7137	0.6583	0.147
Mof_H 	H 	0.8711	0.6537	0.6608	0.163
Mof_C 	C 	0.7739	0.5983	0.66423	-0.568
Mof_H 	H 	0.77	0.6017	0.6848	0.157
Mof_H 	H 	0.8032	0.5731	0.6599	0.192
Mof_H 	H 	0.7403	0.5848	0.6561	0.171
Mof_C 	C 	0.68845	0.8751	0.6135	0.357
Mof_C 	C 	0.7454	0.8803	0.60403	-0.262
Mof_H 	H 	0.7658	0.8944	0.6207	0.088
Mof_C 	C 	0.7585	0.9195	0.57882	0.436
Mof_C 	C 	0.6545	0.8563	0.59092	-0.667
Mof_H 	H 	0.6171	0.8549	0.5975	0.176
Mof_H 	H 	0.6661	0.8202	0.5851	0.181
Mof_H 	H 	0.6573	0.881	0.5748	0.201
Mof_C 	C 	0.673	0.9356	0.62539	-0.588
Mof_H 	H 	0.6977	0.9455	0.6407	0.171
Mof_H 	H 	0.636	0.9354	0.6326	0.161
Mof_H 	H 	0.676	0.9618	0.61	0.204
Mof_O 	O 	0.42999	0.91877	0.93682	-0.411
Mof_O 	O 	0.4091	0.8409	0.91524	-0.415
Mof_C 	C 	0.4334	0.86919	0.93618	0.381
Mof_C 	C 	0.4537	0.8365	0.96426	-0.584
Mof_H 	H 	0.4535	0.7977	0.9603	0.189
Mof_H 	H 	0.4294	0.8442	0.9801	0.172
Mof_H 	H 	0.4902	0.8479	0.9692	0.186
Mof_La	La	0.77451	0.84061	0.5103	0.705
Mof_La	La	0.04752	0.89085	0.72873	1.724
Mof_La	La	0.03006	0.93322	0.70827	-0.225
Mof_O 	O 	0.128	0.9461	0.7315	-0.711
Mof_O 	O 	0.0103	0.854	0.67326	-0.282
Mof_Ag	Ag	0.3445	0.2828	0.27211	0.516
Mof_Ag	Ag	0.39041	0.14918	0.25127	0.554
Mof_Ag	Ag	0.50297	0.18546	0.21317	0.506
Mof_Ag	Ag	0.44357	0.32463	0.22761	0.543
Mof_Ag	Ag	0.2642	0.27137	0.21075	0.565
Mof_Ag	Ag	0.28477	0.12494	0.18992	0.51
Mof_Ag	Ag	0.40778	0.19757	0.15594	0.573
Mof_Ag	Ag	0.36021	0.34657	0.15635	0.517
Mof_Pd	Pd	0.50399	0.24126	0.29556	0.479
Mof_Pd	Pd	0.22765	0.16501	0.27134	0.468
Mof_Pd	Pd	0.42993	0.04492	0.18763	0.465
Mof_Pd	Pd	0.52421	0.31152	0.15414	0.492
Mof_Pd	Pd	0.31654	0.42629	0.23062	0.451
Mof_Pd	Pd	0.25291	0.23517	0.1271	0.456
Mof_Br	Br	0.37565	0.23555	0.21095	-0.631
Mof_La	La	0.62262	0.07663	0.38724	1.701
Mof_S 	S 	0.44208	0.30116	0.28039	-0.457
Mof_S 	S 	0.48543	0.17334	0.26496	-0.431
Mof_S 	S 	0.31335	0.18898	0.27995	-0.446
Mof_S 	S 	0.22821	0.18016	0.22391	-0.443
Mof_S 	S 	0.3634	0.08017	0.21558	-0.424
Mof_S 	S 	0.46861	0.12462	0.1755	-0.437
Mof_S 	S 	0.51993	0.28248	0.19939	-0.423
Mof_S 	S 	0.43998	0.2895	0.14102	-0.433
Mof_S 	S 	0.38437	0.39309	0.20306	-0.417
Mof_S 	S 	0.28484	0.3461	0.24594	-0.473
Mof_S 	S 	0.26957	0.30055	0.15967	-0.421
Mof_S 	S 	0.31166	0.17287	0.14347	-0.432
Mof_O 	O 	0.54853	0.39085	0.35049	-0.302
Mof_O 	O 	0.4644	0.40623	0.36679	-0.271
Mof_O 	O 	0.60727	0.11275	0.33831	-0.498
Mof_O 	O 	0.6259	0.0643	0.30173	-0.362
Mof_O 	O 	0.23752	0.12503	0.36919	-0.364
Mof_O 	O 	0.2772	0.2021	0.37721	-0.299
Mof_O 	O 	0.0437	0.1409	0.25617	-0.333
Mof_O 	O 	0.058	0.0977	0.21165	-0.343
Mof_O 	O 	0.361	0.88657	0.22557	-0.308
Mof_O 	O 	0.2796	0.9109	0.22339	-0.303
Mof_O 	O 	0.52505	0.06628	0.38133	-0.548
Mof_O 	O 	0.46393	0.12764	0.39345	-0.313
Mof_O 	O 	0.69785	0.36248	0.18527	-0.298
Mof_O 	O 	0.70956	0.28654	0.20711	-0.3
Mof_O 	O 	0.54785	0.32814	0.05777	-0.341
Mof_O 	O 	0.46929	0.3641	0.04858	-0.265
Mof_O 	O 	0.4109	0.58456	0.20419	-0.323
Mof_O 	O 	0.4142	0.5619	0.1599	-0.305
Mof_O 	O 	0.67816	0.01106	0.45876	-0.314
Mof_O 	O 	0.68994	0.07721	0.4273	-0.49
Mof_O 	O 	0.11812	0.35721	0.10313	-0.286
Mof_O 	O 	0.16156	0.4322	0.11008	-0.318
Mof_O 	O 	0.235	0.10539	0.05564	-0.422
Mof_O 	O 	0.24411	0.03434	0.0812	-0.361
Mof_N 	N 	0.5185	0.29524	0.32573	-0.254
Mof_H 	H 	0.5245	0.2771	0.3424	0.104
Mof_H 	H 	0.5498	0.3132	0.3212	0.122
Mof_N 	N 	0.56432	0.19121	0.31039	-0.238
Mof_H 	H 	0.5958	0.2106	0.3111	0.109
Mof_H 	H 	0.5559	0.1813	0.3286	0.103
Mof_N 	N 	0.21992	0.1589	0.31547	-0.242
Mof_H 	H 	0.188	0.1744	0.321	0.096
Mof_H 	H 	0.2188	0.1231	0.3205	0.116
Mof_N 	N 	0.1506	0.1322	0.26501	-0.255
Mof_H 	H 	0.1484	0.0992	0.2737	0.129
Mof_H 	H 	0.1251	0.1544	0.273	0.111
Mof_N 	N 	0.39478	0.97353	0.19565	-0.247
Mof_H 	H 	0.3911	0.9553	0.1788	0.116
Mof_H 	H 	0.4175	0.9537	0.207	0.102
Mof_N 	N 	0.49062	0.01171	0.16439	-0.232
Mof_H 	H 	0.499	0.9787	0.172	0.083
Mof_H 	H 	0.4783	0.006	0.1463	0.078
Mof_N 	N 	0.60277	0.3277	0.16254	-0.253
Mof_H 	H 	0.6228	0.3195	0.1467	0.141
Mof_H 	H 	0.6062	0.3641	0.1657	0.119
Mof_N 	N 	0.53265	0.337	0.11236	-0.245
Mof_H 	H 	0.5477	0.3709	0.1123	0.108
Mof_H 	H 	0.5561	0.3142	0.1032	0.122
Mof_N 	N 	0.34032	0.50256	0.21538	-0.235
Mof_H 	H 	0.3102	0.5214	0.21	0.102
Mof_H 	H 	0.3565	0.5213	0.2299	0.081
Mof_N 	N 	0.26107	0.46038	0.25991	-0.22
Mof_H 	H 	0.2771	0.4888	0.2691	0.073
Mof_H 	H 	0.2317	0.4734	0.2502	0.085
Mof_N 	N 	0.20399	0.29014	0.10963	-0.241
Mof_H 	H 	0.2111	0.2907	0.0905	0.073
Mof_H 	H 	0.1693	0.2778	0.1117	0.09
Mof_N 	N 	0.23174	0.17987	0.09834	-0.239
Mof_H 	H 	0.1948	0.1783	0.0976	0.077
Mof_H 	H 	0.2436	0.1911	0.0809	0.056
Mof_C 	C 	0.4578	0.3618	0.30333	0.452
Mof_C 	C 	0.4752	0.3361	0.33068	-0.227
Mof_H 	H 	0.4436	0.3188	0.3401	0.085
Mof_C 	C 	0.5012	0.3833	0.35178	0.327
Mof_C 	C 	0.496	0.3957	0.29033	-0.827
Mof_H 	H 	0.4807	0.4108	0.2729	0.222
Mof_H 	H 	0.5283	0.3749	0.2857	0.239
Mof_H 	H 	0.5054	0.425	0.3033	0.256
Mof_C 	C 	0.4046	0.3921	0.30956	-0.708
Mof_H 	H 	0.3789	0.3675	0.3185	0.199
Mof_H 	H 	0.3895	0.4058	0.2918	0.192
Mof_H 	H 	0.4119	0.4223	0.3224	0.233
Mof_C 	C 	0.5228	0.1179	0.28354	0.32
Mof_C 	C 	0.57396	0.14226	0.29384	-0.259
Mof_H 	H 	0.5966	0.1518	0.2771	0.089
Mof_C 	C 	0.6052	0.1045	0.31241	0.436
Mof_C 	C 	0.4869	0.1013	0.3094	-0.573
Mof_H 	H 	0.4533	0.0852	0.3025	0.15
Mof_H 	H 	0.4786	0.1332	0.3208	0.171
Mof_H 	H 	0.5062	0.075	0.321	0.185
Mof_C 	C 	0.5287	0.0737	0.26042	-0.593
Mof_H 	H 	0.493	0.0597	0.2555	0.159
Mof_H 	H 	0.5511	0.0443	0.2677	0.192
Mof_H 	H 	0.5456	0.0892	0.2436	0.163
Mof_C 	C 	0.319	0.169	0.31844	0.406
Mof_C 	C 	0.2654	0.1856	0.3308	-0.246
Mof_H 	H 	0.2613	0.2256	0.3299	0.085
Mof_C 	C 	0.2562	0.1648	0.36264	0.401
Mof_C 	C 	0.3286	0.10735	0.31984	-0.655
Mof_H 	H 	0.2981	0.0886	0.3111	0.193
Mof_H 	H 	0.332	0.0962	0.3397	0.201
Mof_H 	H 	0.3617	0.0983	0.3096	0.173
Mof_C 	C 	0.3635	0.1985	0.33068	-0.747
Mof_H 	H 	0.3974	0.186	0.3224	0.21
Mof_H 	H 	0.3642	0.1926	0.3512	0.245
Mof_H 	H 	0.359	0.237	0.3268	0.207
Mof_C 	C 	0.155	0.1754	0.21754	0.396
Mof_C 	C 	0.1394	0.1261	0.23379	-0.194
Mof_H 	H 	0.1568	0.093	0.2259	0.077
Mof_C 	C 	0.0741	0.1211	0.23394	0.221
Mof_C 	C 	0.1289	0.2315	0.22796	-0.582
Mof_H 	H 	0.1336	0.2351	0.2485	0.162
Mof_H 	H 	0.0905	0.2319	0.2234	0.173
Mof_H 	H 	0.1469	0.2615	0.2184	0.143
Mof_C 	C 	0.1472	0.171	0.1884	-0.774
Mof_H 	H 	0.1587	0.2044	0.1792	0.214
Mof_H 	H 	0.109	0.1647	0.1845	0.254
Mof_H 	H 	0.1685	0.1408	0.1811	0.219
Mof_C 	C 	0.3412	0.0173	0.23328	0.354
Mof_C 	C 	0.3408	0.97622	0.2097	-0.251
Mof_H 	H 	0.3129	0.9862	0.1954	0.097
Mof_C 	C 	0.3278	0.923	0.22187	0.366
Mof_C 	C 	0.3822	0.0059	0.25596	-0.624
Mof_H 	H 	0.4168	0.9973	0.2471	0.182
Mof_H 	H 	0.3702	0.9753	0.2674	0.19
Mof_H 	H 	0.3862	0.0377	0.2681	0.16
Mof_C 	C 	0.2875	0.0324	0.24751	-0.63
Mof_H 	H 	0.261	0.0418	0.233	0.182
Mof_H 	H 	0.293	0.0632	0.2601	0.174
Mof_H 	H 	0.2743	0.0017	0.2585	0.203
Mof_C 	C 	0.524	0.1002	0.15151	0.351
Mof_C 	C 	0.5393	0.04339	0.16287	-0.24
Mof_H 	H 	0.5553	0.0468	0.1822	0.085
Mof_C 	C 	0.4885	0.0797	0.39288	0.469
Mof_C 	C 	0.5032	0.0973	0.12072	-0.601
Mof_H 	H 	0.4942	0.1336	0.1141	0.16
Mof_H 	H 	0.471	0.0746	0.12	0.171
Mof_H 	H 	0.5312	0.0818	0.1085	0.182
Mof_C 	C 	0.5646	0.1445	0.15284	-0.657
Mof_H 	H 	0.5493	0.1773	0.1446	0.189
Mof_H 	H 	0.5968	0.134	0.1422	0.218
Mof_H 	H 	0.5744	0.1512	0.1726	0.184
Mof_C 	C 	0.5888	0.3052	0.21278	0.358
Mof_C 	C 	0.6264	0.2977	0.18768	-0.247
Mof_H 	H 	0.6286	0.2585	0.183	0.104
Mof_C 	C 	0.6811	0.3178	0.19439	0.37
Mof_C 	C 	0.5815	0.36754	0.22011	-0.586
Mof_H 	H 	0.5723	0.3873	0.2028	0.171
Mof_H 	H 	0.6152	0.3817	0.2279	0.173
Mof_H 	H 	0.5526	0.3718	0.234	0.148
Mof_C 	C 	0.602	0.2755	0.2384	-0.703
Mof_H 	H 	0.5757	0.284	0.2532	0.196
Mof_H 	H 	0.6381	0.2855	0.2448	0.236
Mof_H 	H 	0.601	0.2368	0.2344	0.2
Mof_C 	C 	0.4481	0.2915	0.10159	0.348
Mof_C 	C 	0.4833	0.3386	0.09704	-0.211
Mof_H 	H 	0.4632	0.3723	0.1019	0.078
Mof_C 	C 	0.5079	0.3434	0.06533	0.356
Mof_C 	C 	0.479	0.2375	0.09213	-0.578
Mof_H 	H 	0.5154	0.2376	0.1001	0.175
Mof_H 	H 	0.4812	0.2361	0.0714	0.177
Mof_H 	H 	0.4593	0.206	0.0991	0.144
Mof_C 	C 	0.39441	0.2958	0.08954	-0.668
Mof_H 	H 	0.3742	0.2628	0.0935	0.177
Mof_H 	H 	0.3972	0.3011	0.069	0.213
Mof_H 	H 	0.3757	0.3266	0.098	0.181
Mof_C 	C 	0.4215	0.4581	0.19659	0.341
Mof_C 	C 	0.3799	0.4996	0.18991	-0.271
Mof_H 	H 	0.3592	0.4871	0.173	0.106
Mof_C 	C 	0.4012	0.5523	0.18381	0.392
Mof_C 	C 	0.4566	0.4711	0.22223	-0.622
Mof_H 	H 	0.483	0.4424	0.225	0.161
Mof_H 	H 	0.4338	0.4741	0.2391	0.176
Mof_H 	H 	0.4753	0.5053	0.219	0.196
Mof_C 	C 	0.4572	0.4486	0.16957	-0.607
Mof_H 	H 	0.4853	0.4221	0.1739	0.168
Mof_H 	H 	0.474	0.4826	0.1639	0.211
Mof_H 	H 	0.4347	0.4351	0.1541	0.173
Mof_C 	C 	0.2254	0.36727	0.26714	0.526
Mof_C 	C 	0.2431	0.4202	0.28089	-0.306
Mof_H 	H 	0.2749	0.4118	0.2931	0.092
Mof_C 	C 	0.7015	0.0539	0.45042	0.401
Mof_C 	C 	0.178	0.3747	0.24874	-0.843
Mof_H 	H 	0.1852	0.4034	0.2351	0.249
Mof_H 	H 	0.1468	0.3844	0.2603	0.261
Mof_H 	H 	0.1705	0.3411	0.2386	0.228
Mof_C 	C 	0.2191	0.3261	0.28831	-0.85
Mof_H 	H 	0.2522	0.3234	0.2995	0.231
Mof_H 	H 	0.212	0.2915	0.2791	0.231
Mof_H 	H 	0.1889	0.3353	0.3007	0.266
Mof_C 	C 	0.2127	0.34513	0.15122	0.286
Mof_C 	C 	0.205	0.3475	0.1198	-0.218
Mof_H 	H 	0.2391	0.3632	0.1121	0.076
Mof_C 	C 	0.1618	0.3845	0.1107	0.345
Mof_C 	C 	0.1591	0.3225	0.16546	-0.526
Mof_H 	H 	0.1638	0.3211	0.186	0.132
Mof_H 	H 	0.1518	0.2863	0.1583	0.147
Mof_H 	H 	0.1289	0.3463	0.1608	0.163
Mof_C 	C 	0.2261	0.4017	0.16423	-0.568
Mof_H 	H 	0.23	0.3983	0.1848	0.157
Mof_H 	H 	0.1968	0.4269	0.1599	0.192
Mof_H 	H 	0.2597	0.4152	0.1561	0.171
Mof_C 	C 	0.31155	0.1249	0.1135	0.357
Mof_C 	C 	0.2546	0.1197	0.10403	-0.262
Mof_H 	H 	0.2342	0.1056	0.1207	0.088
Mof_C 	C 	0.2415	0.0805	0.07882	0.436
Mof_C 	C 	0.3455	0.1437	0.09092	-0.667
Mof_H 	H 	0.3829	0.1451	0.0975	0.176
Mof_H 	H 	0.3339	0.1798	0.0851	0.181
Mof_H 	H 	0.3427	0.119	0.0748	0.201
Mof_C 	C 	0.327	0.0644	0.12539	-0.588
Mof_H 	H 	0.3023	0.0545	0.1407	0.171
Mof_H 	H 	0.364	0.0646	0.1326	0.161
Mof_H 	H 	0.324	0.0382	0.11	0.204
Mof_O 	O 	0.57001	0.08123	0.43682	-0.411
Mof_O 	O 	0.5909	0.1591	0.41524	-0.415
Mof_C 	C 	0.5666	0.13081	0.43618	0.381
Mof_C 	C 	0.5463	0.1635	0.46426	-0.584
Mof_H 	H 	0.5465	0.2023	0.4603	0.189
Mof_H 	H 	0.5706	0.1558	0.4801	0.172
Mof_H 	H 	0.5098	0.1521	0.4692	0.186
Mof_La	La	0.22549	0.15939	0.0103	0.705
Mof_La	La	0.95248	0.10915	0.22873	1.724
Mof_La	La	0.96994	0.06678	0.20827	-0.225
Mof_O 	O 	0.872	0.0539	0.2315	-0.711
Mof_O 	O 	0.9897	0.146	0.17326	-0.282
_end
