# CIF file generated by openbabel 3.1.0, see https://openbabel.org
data_I
_chemical_name_common 'image0'
_cell_length_a 11.066
_cell_length_b 13.8214
_cell_length_c 16.8387
_cell_angle_alpha 90
_cell_angle_beta 103.31
_cell_angle_gamma 90
_space_group_name_H-M_alt 'P 1'
_space_group_name_Hall 'P 1'
loop_
    _symmetry_equiv_pos_as_xyz
    x,y,z
loop_
    _atom_site_label
    _atom_site_type_symbol
    _atom_site_fract_x
    _atom_site_fract_y
    _atom_site_fract_z
    _atom_site_occupancy
    Co1      Co       0.05672    0.08925    0.17407    1.000
    Co2      Co       0.14177    0.99727    0.99494    1.000
    C1       C        0.67360    0.05800    0.20162    1.000
    C2       C        0.55130    0.05020    0.15661    1.000
    H1       H        0.53480    0.03840    0.09950    1.000
    C3       C        0.45390    0.05960    0.19516    1.000
    C4       C        0.47820    0.07440    0.27912    1.000
    H2       H        0.41110    0.08120    0.30520    1.000
    C5       C        0.60020    0.07910    0.32538    1.000
    C6       C        0.69670    0.07180    0.28600    1.000
    H3       H        0.78000    0.07630    0.31680    1.000
    C7       C        0.62390    0.09070    0.41671    1.000
    C8       C        0.65360    0.99720    0.46507    1.000
    C9       C        0.60350    0.90830    0.43588    1.000
    H4       H        0.54870    0.90460    0.38350    1.000
    C10      C        0.63250    0.82410    0.48260    1.000
    C11      C        0.71000    0.83050    0.56021    1.000
    H5       H        0.72970    0.77380    0.59260    1.000
    C12      C        0.75880    0.91910    0.59054    1.000
    C13      C        0.73130    0.00170    0.54308    1.000
    H6       H        0.76560    0.06210    0.56390    1.000
    C14      C        0.77930    0.04680    0.15981    1.000
    C15      C        0.32120    0.05270    0.14716    1.000
    C16      C        0.58390    0.72530    0.45330    1.000
    C17      C        0.83870    0.92490    0.67564    1.000
    O1       O        0.88325    0.07870    0.19762    1.000
    O2       O        0.75510    0.00517    0.09159    1.000
    O3       O        0.30055    0.99428    0.08752    1.000
    O4       O        0.24351    0.10505    0.17039    1.000
    O5       O        0.49145    0.71939    0.39259    1.000
    O6       O        0.63840    0.65560    0.49286    1.000
    O7       O        0.88452    0.84598    0.70965    1.000
    O8       O        0.85620    0.00384    0.71296    1.000
    O9       O        0.03072    0.99278    0.08246    1.000
    H7       H        0.55700    0.12300    0.43500    1.000
    H8       H        0.69200    0.13500    0.43650    1.000
    H9       H        0.03800    0.94100    0.09800    1.000
    Co3      Co       0.44328    0.58925    0.32593    1.000
    Co4      Co       0.35823    0.49727    0.50506    1.000
    C18      C        0.82640    0.55800    0.29838    1.000
    C19      C        0.94870    0.55020    0.34339    1.000
    H10      H        0.96520    0.53840    0.40050    1.000
    C20      C        0.04610    0.55960    0.30484    1.000
    C21      C        0.02180    0.57440    0.22088    1.000
    H11      H        0.08890    0.58120    0.19480    1.000
    C22      C        0.89980    0.57910    0.17462    1.000
    C23      C        0.80330    0.57180    0.21400    1.000
    H12      H        0.72000    0.57630    0.18320    1.000
    C24      C        0.87610    0.59070    0.08329    1.000
    C25      C        0.84640    0.49720    0.03493    1.000
    C26      C        0.89650    0.40830    0.06412    1.000
    H13      H        0.95130    0.40460    0.11650    1.000
    C27      C        0.86750    0.32410    0.01740    1.000
    C28      C        0.79000    0.33050    0.93979    1.000
    H14      H        0.77030    0.27380    0.90740    1.000
    C29      C        0.74120    0.41910    0.90946    1.000
    C30      C        0.76870    0.50170    0.95692    1.000
    H15      H        0.73440    0.56210    0.93610    1.000
    C31      C        0.72070    0.54680    0.34019    1.000
    C32      C        0.17880    0.55270    0.35284    1.000
    C33      C        0.91610    0.22530    0.04670    1.000
    C34      C        0.66130    0.42490    0.82436    1.000
    O10      O        0.61675    0.57870    0.30238    1.000
    O11      O        0.74490    0.50517    0.40841    1.000
    O12      O        0.19945    0.49428    0.41248    1.000
    O13      O        0.25649    0.60505    0.32961    1.000
    O14      O        0.00855    0.21939    0.10741    1.000
    O15      O        0.86160    0.15560    0.00714    1.000
    O16      O        0.61548    0.34598    0.79035    1.000
    O17      O        0.64380    0.50384    0.78704    1.000
    O18      O        0.46928    0.49278    0.41754    1.000
    H16      H        0.94300    0.62300    0.06500    1.000
    H17      H        0.80800    0.63500    0.06350    1.000
    H18      H        0.46200    0.44100    0.40200    1.000
    Co5      Co       0.94328    0.91075    0.82593    1.000
    Co6      Co       0.85823    0.00273    0.00506    1.000
    C35      C        0.32640    0.94200    0.79838    1.000
    C36      C        0.44870    0.94980    0.84339    1.000
    H19      H        0.46520    0.96160    0.90050    1.000
    C37      C        0.54610    0.94040    0.80484    1.000
    C38      C        0.52180    0.92560    0.72088    1.000
    H20      H        0.58890    0.91880    0.69480    1.000
    C39      C        0.39980    0.92090    0.67462    1.000
    C40      C        0.30330    0.92820    0.71400    1.000
    H21      H        0.22000    0.92370    0.68320    1.000
    C41      C        0.37610    0.90930    0.58329    1.000
    C42      C        0.34640    0.00280    0.53493    1.000
    C43      C        0.39650    0.09170    0.56412    1.000
    H22      H        0.45130    0.09540    0.61650    1.000
    C44      C        0.36750    0.17590    0.51740    1.000
    C45      C        0.29000    0.16950    0.43979    1.000
    H23      H        0.27030    0.22620    0.40740    1.000
    C46      C        0.24120    0.08090    0.40946    1.000
    C47      C        0.26870    0.99830    0.45692    1.000
    H24      H        0.23440    0.93790    0.43610    1.000
    C48      C        0.22070    0.95320    0.84019    1.000
    C49      C        0.67880    0.94730    0.85284    1.000
    C50      C        0.41610    0.27470    0.54670    1.000
    C51      C        0.16130    0.07510    0.32436    1.000
    O19      O        0.11675    0.92130    0.80238    1.000
    O20      O        0.24490    0.99483    0.90841    1.000
    O21      O        0.69945    0.00572    0.91248    1.000
    O22      O        0.75649    0.89495    0.82961    1.000
    O23      O        0.50855    0.28061    0.60741    1.000
    O24      O        0.36160    0.34440    0.50714    1.000
    O25      O        0.11548    0.15402    0.29035    1.000
    O26      O        0.14380    0.99616    0.28704    1.000
    O27      O        0.96928    0.00722    0.91754    1.000
    H25      H        0.44300    0.87700    0.56500    1.000
    H26      H        0.30800    0.86500    0.56350    1.000
    H27      H        0.96200    0.05900    0.90200    1.000
    Co7      Co       0.55672    0.41075    0.67407    1.000
    Co8      Co       0.64177    0.50273    0.49494    1.000
    C52      C        0.17360    0.44200    0.70162    1.000
    C53      C        0.05130    0.44980    0.65661    1.000
    H28      H        0.03480    0.46160    0.59950    1.000
    C54      C        0.95390    0.44040    0.69516    1.000
    C55      C        0.97820    0.42560    0.77912    1.000
    H29      H        0.91110    0.41880    0.80520    1.000
    C56      C        0.10020    0.42090    0.82538    1.000
    C57      C        0.19670    0.42820    0.78600    1.000
    H30      H        0.28000    0.42370    0.81680    1.000
    C58      C        0.12390    0.40930    0.91671    1.000
    C59      C        0.15360    0.50280    0.96507    1.000
    C60      C        0.10350    0.59170    0.93588    1.000
    H31      H        0.04870    0.59540    0.88350    1.000
    C61      C        0.13250    0.67590    0.98260    1.000
    C62      C        0.21000    0.66950    0.06021    1.000
    H32      H        0.22970    0.72620    0.09260    1.000
    C63      C        0.25880    0.58090    0.09054    1.000
    C64      C        0.23130    0.49830    0.04308    1.000
    H33      H        0.26560    0.43790    0.06390    1.000
    C65      C        0.27930    0.45320    0.65981    1.000
    C66      C        0.82120    0.44730    0.64716    1.000
    C67      C        0.08390    0.77470    0.95330    1.000
    C68      C        0.33870    0.57510    0.17564    1.000
    O28      O        0.38325    0.42130    0.69762    1.000
    O29      O        0.25510    0.49483    0.59159    1.000
    O30      O        0.80055    0.50572    0.58752    1.000
    O31      O        0.74351    0.39495    0.67039    1.000
    O32      O        0.99145    0.78061    0.89259    1.000
    O33      O        0.13840    0.84440    0.99286    1.000
    O34      O        0.38452    0.65402    0.20965    1.000
    O35      O        0.35620    0.49616    0.21296    1.000
    O36      O        0.53072    0.50722    0.58246    1.000
    H34      H        0.05700    0.37700    0.93500    1.000
    H35      H        0.19200    0.36500    0.93650    1.000
    H36      H        0.53800    0.55900    0.59800    1.000
