data_functionalizedCrystal
_audit_creation_method	'EQeq! by Chris Wilmer'
_symmetry_space_group_name_H-M	'P1'
_symmetry_Int_Tables_number	1
_symmetry_cell_setting	triclinic
loop_
_symmetry_equiv_pos_as_xyz
  x,y,z
_cell_length_a	7.235
_cell_length_b	23.711
_cell_length_c	30.53
_cell_angle_alpha	90
_cell_angle_beta	90
_cell_angle_gamma	90
loop_
_atom_site_label
_atom_site_type_symbol
_atom_site_fract_x
_atom_site_fract_y
_atom_site_fract_z
_atom_site_charge
Mof_Ag	Ag	0.19517	0.77006	0.2906	0.562
Mof_Ag	Ag	0.5236	0.44216	0.48393	0.581
Mof_O 	O 	0.3409	0.69581	0.31393	-0.396
Mof_O 	O 	0.4508	0.66791	0.24989	-0.411
Mof_O 	O 	0.4746	0.58778	0.44631	-0.385
Mof_O 	O 	0.6517	0.51231	0.44193	-0.419
Mof_N 	N 	0.11	0.81285	0.35761	-0.157
Mof_N 	N 	0.0227	0.8741	0.4313	-0.167
Mof_C 	C 	0.0033	0.85824	0.35575	0.01
Mof_H 	H 	0.9562	0.87	0.3286	0.031
Mof_C 	C 	0.9607	0.8882	0.3925	0.012
Mof_H 	H 	0.884	0.92	0.3899	0.025
Mof_C 	C 	0.1281	0.8284	0.43294	0.014
Mof_H 	H 	0.1744	0.8166	0.4602	0.012
Mof_C 	C 	0.1714	0.7981	0.39676	0.007
Mof_H 	H 	0.2464	0.7659	0.3995	0.028
Mof_C 	C 	0.4312	0.6637	0.29035	0.37
Mof_C 	C 	0.5245	0.61473	0.31207	-0.168
Mof_C 	C 	0.6317	0.5778	0.28845	0.077
Mof_H 	H 	0.6431	0.5822	0.258	0.01
Mof_C 	C 	0.7227	0.5342	0.30917	-0.153
Mof_H 	H 	0.7964	0.5092	0.2929	0.082
Mof_C 	C 	0.7057	0.5275	0.35312	0.08
Mof_H 	H 	0.7691	0.4979	0.3671	0.009
Mof_C 	C 	0.5967	0.56331	0.37764	-0.161
Mof_C 	C 	0.5071	0.60719	0.35659	0.088
Mof_H 	H 	0.4335	0.6322	0.3729	0.019
Mof_C 	C 	0.5729	0.554	0.4255	0.375
Mof_Ag	Ag	0.69517	0.27006	0.7906	0.563
Mof_Ag	Ag	0.0236	0.94216	0.98393	0.582
Mof_O 	O 	0.8409	0.19581	0.81393	-0.395
Mof_O 	O 	0.9508	0.16791	0.74989	-0.409
Mof_O 	O 	0.9746	0.08778	0.94631	-0.384
Mof_O 	O 	0.1517	0.01231	0.94193	-0.419
Mof_N 	N 	0.61	0.31285	0.85761	-0.156
Mof_N 	N 	0.5227	0.3741	0.9313	-0.167
Mof_C 	C 	0.5033	0.35824	0.85575	0.008
Mof_H 	H 	0.4562	0.37	0.8286	0.034
Mof_C 	C 	0.4607	0.3882	0.8925	0.015
Mof_H 	H 	0.384	0.42	0.8899	0.025
Mof_C 	C 	0.6281	0.3284	0.93294	0.016
Mof_H 	H 	0.6744	0.3166	0.9602	0.013
Mof_C 	C 	0.6714	0.2981	0.89676	0.008
Mof_H 	H 	0.7464	0.2659	0.8995	0.029
Mof_C 	C 	0.9312	0.1637	0.79035	0.372
Mof_C 	C 	0.0245	0.11473	0.81207	-0.168
Mof_C 	C 	0.1317	0.0778	0.78845	0.078
Mof_H 	H 	0.1431	0.0822	0.758	0.011
Mof_C 	C 	0.2227	0.0342	0.80917	-0.152
Mof_H 	H 	0.2964	0.0092	0.7929	0.082
Mof_C 	C 	0.2057	0.0275	0.85312	0.08
Mof_H 	H 	0.2691	0.9979	0.8671	0.01
Mof_C 	C 	0.0967	0.06331	0.87764	-0.16
Mof_C 	C 	0.0071	0.10719	0.85659	0.088
Mof_H 	H 	0.9335	0.1322	0.8729	0.021
Mof_C 	C 	0.0729	0.054	0.9255	0.375
Mof_Ag	Ag	0.30483	0.22994	0.7906	0.563
Mof_Ag	Ag	0.9764	0.55784	0.98393	0.582
Mof_O 	O 	0.1591	0.30419	0.81393	-0.395
Mof_O 	O 	0.0492	0.33209	0.74989	-0.409
Mof_O 	O 	0.0254	0.41222	0.94631	-0.384
Mof_O 	O 	0.8483	0.48769	0.94193	-0.418
Mof_N 	N 	0.39	0.18715	0.85761	-0.156
Mof_N 	N 	0.4773	0.1259	0.9313	-0.167
Mof_C 	C 	0.4967	0.14176	0.85575	0.008
Mof_H 	H 	0.5438	0.13	0.8286	0.034
Mof_C 	C 	0.5393	0.1118	0.8925	0.015
Mof_H 	H 	0.616	0.08	0.8899	0.025
Mof_C 	C 	0.3719	0.1716	0.93294	0.016
Mof_H 	H 	0.3256	0.1834	0.9602	0.013
Mof_C 	C 	0.3286	0.2019	0.89676	0.008
Mof_H 	H 	0.2536	0.2341	0.8995	0.029
Mof_C 	C 	0.0688	0.3363	0.79035	0.372
Mof_C 	C 	0.9755	0.38527	0.81207	-0.168
Mof_C 	C 	0.8683	0.4222	0.78845	0.078
Mof_H 	H 	0.8569	0.4178	0.758	0.011
Mof_C 	C 	0.7773	0.4658	0.80917	-0.152
Mof_H 	H 	0.7036	0.4908	0.7929	0.083
Mof_C 	C 	0.7943	0.4725	0.85312	0.08
Mof_H 	H 	0.7309	0.5021	0.8671	0.01
Mof_C 	C 	0.9033	0.43669	0.87764	-0.16
Mof_C 	C 	0.9929	0.39281	0.85659	0.088
Mof_H 	H 	0.0665	0.3678	0.8729	0.021
Mof_C 	C 	0.9271	0.446	0.9255	0.375
Mof_Ag	Ag	0.80483	0.72994	0.2906	0.563
Mof_Ag	Ag	0.4764	0.05784	0.48393	0.582
Mof_O 	O 	0.6591	0.80419	0.31393	-0.395
Mof_O 	O 	0.5492	0.83209	0.24989	-0.41
Mof_O 	O 	0.5254	0.91222	0.44631	-0.384
Mof_O 	O 	0.3483	0.98769	0.44193	-0.419
Mof_N 	N 	0.89	0.68715	0.35761	-0.156
Mof_N 	N 	0.9773	0.6259	0.4313	-0.166
Mof_C 	C 	0.9967	0.64176	0.35575	0.011
Mof_H 	H 	0.0438	0.63	0.3286	0.032
Mof_C 	C 	0.0393	0.6118	0.3925	0.013
Mof_H 	H 	0.116	0.58	0.3899	0.026
Mof_C 	C 	0.8719	0.6716	0.43294	0.015
Mof_H 	H 	0.8256	0.6834	0.4602	0.013
Mof_C 	C 	0.8286	0.7019	0.39676	0.008
Mof_H 	H 	0.7536	0.7341	0.3995	0.029
Mof_C 	C 	0.5688	0.8363	0.29035	0.371
Mof_C 	C 	0.4755	0.88527	0.31207	-0.167
Mof_C 	C 	0.3683	0.9222	0.28845	0.078
Mof_H 	H 	0.3569	0.9178	0.258	0.011
Mof_C 	C 	0.2773	0.9658	0.30917	-0.152
Mof_H 	H 	0.2036	0.9908	0.2929	0.083
Mof_C 	C 	0.2943	0.9725	0.35312	0.081
Mof_H 	H 	0.2309	0.0021	0.3671	0.01
Mof_C 	C 	0.4033	0.93669	0.37764	-0.16
Mof_C 	C 	0.4929	0.89281	0.35659	0.089
Mof_H 	H 	0.5665	0.8678	0.3729	0.02
Mof_C 	C 	0.4271	0.946	0.4255	0.376
Mof_Ag	Ag	0.80483	0.27006	0.2094	0.563
Mof_Ag	Ag	0.4764	0.94216	0.01607	0.583
Mof_O 	O 	0.6591	0.19581	0.18607	-0.395
Mof_O 	O 	0.5492	0.16791	0.25011	-0.41
Mof_O 	O 	0.5254	0.08778	0.05369	-0.384
Mof_O 	O 	0.3483	0.01231	0.05807	-0.419
Mof_N 	N 	0.89	0.31285	0.14239	-0.156
Mof_N 	N 	0.9773	0.3741	0.0687	-0.166
Mof_C 	C 	0.9967	0.35824	0.14425	0.011
Mof_H 	H 	0.0438	0.37	0.1714	0.032
Mof_C 	C 	0.0393	0.3882	0.1075	0.013
Mof_H 	H 	0.116	0.42	0.1101	0.026
Mof_C 	C 	0.8719	0.3284	0.06706	0.015
Mof_H 	H 	0.8256	0.3166	0.0398	0.013
Mof_C 	C 	0.8286	0.2981	0.10324	0.008
Mof_H 	H 	0.7536	0.2659	0.1005	0.029
Mof_C 	C 	0.5688	0.1637	0.20965	0.371
Mof_C 	C 	0.4755	0.11473	0.18793	-0.167
Mof_C 	C 	0.3683	0.0778	0.21155	0.078
Mof_H 	H 	0.3569	0.0822	0.242	0.011
Mof_C 	C 	0.2773	0.0342	0.19083	-0.152
Mof_H 	H 	0.2036	0.0092	0.2071	0.083
Mof_C 	C 	0.2943	0.0275	0.14688	0.081
Mof_H 	H 	0.2309	0.9979	0.1329	0.01
Mof_C 	C 	0.4033	0.06331	0.12236	-0.16
Mof_C 	C 	0.4929	0.10719	0.14341	0.089
Mof_H 	H 	0.5665	0.1322	0.1271	0.02
Mof_C 	C 	0.4271	0.054	0.0745	0.376
Mof_Ag	Ag	0.30483	0.77006	0.7094	0.563
Mof_Ag	Ag	0.9764	0.44216	0.51607	0.582
Mof_O 	O 	0.1591	0.69581	0.68607	-0.395
Mof_O 	O 	0.0492	0.66791	0.75011	-0.409
Mof_O 	O 	0.0254	0.58778	0.55369	-0.384
Mof_O 	O 	0.8483	0.51231	0.55807	-0.418
Mof_N 	N 	0.39	0.81285	0.64239	-0.156
Mof_N 	N 	0.4773	0.8741	0.5687	-0.167
Mof_C 	C 	0.4967	0.85824	0.64425	0.008
Mof_H 	H 	0.5438	0.87	0.6714	0.034
Mof_C 	C 	0.5393	0.8882	0.6075	0.015
Mof_H 	H 	0.616	0.92	0.6101	0.025
Mof_C 	C 	0.3719	0.8284	0.56706	0.016
Mof_H 	H 	0.3256	0.8166	0.5398	0.012
Mof_C 	C 	0.3286	0.7981	0.60324	0.008
Mof_H 	H 	0.2536	0.7659	0.6005	0.029
Mof_C 	C 	0.0688	0.6637	0.70965	0.372
Mof_C 	C 	0.9755	0.61473	0.68793	-0.168
Mof_C 	C 	0.8683	0.5778	0.71155	0.078
Mof_H 	H 	0.8569	0.5822	0.742	0.011
Mof_C 	C 	0.7773	0.5342	0.69083	-0.152
Mof_H 	H 	0.7036	0.5092	0.7071	0.083
Mof_C 	C 	0.7943	0.5275	0.64688	0.08
Mof_H 	H 	0.7309	0.4979	0.6329	0.01
Mof_C 	C 	0.9033	0.56331	0.62236	-0.16
Mof_C 	C 	0.9929	0.60719	0.64341	0.088
Mof_H 	H 	0.0665	0.6322	0.6271	0.021
Mof_C 	C 	0.9271	0.554	0.5745	0.375
Mof_Ag	Ag	0.69517	0.72994	0.7094	0.563
Mof_Ag	Ag	0.0236	0.05784	0.51607	0.582
Mof_O 	O 	0.8409	0.80419	0.68607	-0.395
Mof_O 	O 	0.9508	0.83209	0.75011	-0.409
Mof_O 	O 	0.9746	0.91222	0.55369	-0.384
Mof_O 	O 	0.1517	0.98769	0.55807	-0.418
Mof_N 	N 	0.61	0.68715	0.64239	-0.156
Mof_N 	N 	0.5227	0.6259	0.5687	-0.167
Mof_C 	C 	0.5033	0.64176	0.64425	0.008
Mof_H 	H 	0.4562	0.63	0.6714	0.034
Mof_C 	C 	0.4607	0.6118	0.6075	0.015
Mof_H 	H 	0.384	0.58	0.6101	0.025
Mof_C 	C 	0.6281	0.6716	0.56706	0.016
Mof_H 	H 	0.6744	0.6834	0.5398	0.012
Mof_C 	C 	0.6714	0.7019	0.60324	0.008
Mof_H 	H 	0.7464	0.7341	0.6005	0.029
Mof_C 	C 	0.9312	0.8363	0.70965	0.372
Mof_C 	C 	0.0245	0.88527	0.68793	-0.168
Mof_C 	C 	0.1317	0.9222	0.71155	0.078
Mof_H 	H 	0.1431	0.9178	0.742	0.011
Mof_C 	C 	0.2227	0.9658	0.69083	-0.152
Mof_H 	H 	0.2964	0.9908	0.7071	0.082
Mof_C 	C 	0.2057	0.9725	0.64688	0.08
Mof_H 	H 	0.2691	0.0021	0.6329	0.01
Mof_C 	C 	0.0967	0.93669	0.62236	-0.16
Mof_C 	C 	0.0071	0.89281	0.64341	0.088
Mof_H 	H 	0.9335	0.8678	0.6271	0.021
Mof_C 	C 	0.0729	0.946	0.5745	0.375
Mof_Ag	Ag	0.19517	0.22994	0.2094	0.563
Mof_Ag	Ag	0.5236	0.55784	0.01607	0.583
Mof_O 	O 	0.3409	0.30419	0.18607	-0.395
Mof_O 	O 	0.4508	0.33209	0.25011	-0.41
Mof_O 	O 	0.4746	0.41222	0.05369	-0.384
Mof_O 	O 	0.6517	0.48769	0.05807	-0.419
Mof_N 	N 	0.11	0.18715	0.14239	-0.156
Mof_N 	N 	0.0227	0.1259	0.0687	-0.166
Mof_C 	C 	0.0033	0.14176	0.14425	0.011
Mof_H 	H 	0.9562	0.13	0.1714	0.032
Mof_C 	C 	0.9607	0.1118	0.1075	0.013
Mof_H 	H 	0.884	0.08	0.1101	0.026
Mof_C 	C 	0.1281	0.1716	0.06706	0.015
Mof_H 	H 	0.1744	0.1834	0.0398	0.013
Mof_C 	C 	0.1714	0.2019	0.10324	0.008
Mof_H 	H 	0.2464	0.2341	0.1005	0.029
Mof_C 	C 	0.4312	0.3363	0.20965	0.371
Mof_C 	C 	0.5245	0.38527	0.18793	-0.167
Mof_C 	C 	0.6317	0.4222	0.21155	0.078
Mof_H 	H 	0.6431	0.4178	0.242	0.011
Mof_C 	C 	0.7227	0.4658	0.19083	-0.152
Mof_H 	H 	0.7964	0.4908	0.2071	0.083
Mof_C 	C 	0.7057	0.4725	0.14688	0.081
Mof_H 	H 	0.7691	0.5021	0.1329	0.01
Mof_C 	C 	0.5967	0.43669	0.12236	-0.16
Mof_C 	C 	0.5071	0.39281	0.14341	0.089
Mof_H 	H 	0.4335	0.3678	0.1271	0.02
Mof_C 	C 	0.5729	0.446	0.0745	0.376
Mof_Ag	Ag	0.80483	0.22994	0.7094	0.563
Mof_Ag	Ag	0.4764	0.55784	0.51607	0.582
Mof_O 	O 	0.6591	0.30419	0.68607	-0.395
Mof_O 	O 	0.5492	0.33209	0.75011	-0.41
Mof_O 	O 	0.5254	0.41222	0.55369	-0.384
Mof_O 	O 	0.3483	0.48769	0.55807	-0.418
Mof_N 	N 	0.89	0.18715	0.64239	-0.156
Mof_N 	N 	0.9773	0.1259	0.5687	-0.166
Mof_C 	C 	0.9967	0.14176	0.64425	0.011
Mof_H 	H 	0.0438	0.13	0.6714	0.032
Mof_C 	C 	0.0393	0.1118	0.6075	0.013
Mof_H 	H 	0.116	0.08	0.6101	0.026
Mof_C 	C 	0.8719	0.1716	0.56706	0.015
Mof_H 	H 	0.8256	0.1834	0.5398	0.013
Mof_C 	C 	0.8286	0.2019	0.60324	0.008
Mof_H 	H 	0.7536	0.2341	0.6005	0.029
Mof_C 	C 	0.5688	0.3363	0.70965	0.371
Mof_C 	C 	0.4755	0.38527	0.68793	-0.167
Mof_C 	C 	0.3683	0.4222	0.71155	0.078
Mof_H 	H 	0.3569	0.4178	0.742	0.011
Mof_C 	C 	0.2773	0.4658	0.69083	-0.152
Mof_H 	H 	0.2036	0.4908	0.7071	0.083
Mof_C 	C 	0.2943	0.4725	0.64688	0.081
Mof_H 	H 	0.2309	0.5021	0.6329	0.01
Mof_C 	C 	0.4033	0.43669	0.62236	-0.16
Mof_C 	C 	0.4929	0.39281	0.64341	0.089
Mof_H 	H 	0.5665	0.3678	0.6271	0.02
Mof_C 	C 	0.4271	0.446	0.5745	0.376
Mof_Ag	Ag	0.30483	0.72994	0.2094	0.563
Mof_Ag	Ag	0.9764	0.05784	0.01607	0.582
Mof_O 	O 	0.1591	0.80419	0.18607	-0.395
Mof_O 	O 	0.0492	0.83209	0.25011	-0.409
Mof_O 	O 	0.0254	0.91222	0.05369	-0.384
Mof_O 	O 	0.8483	0.98769	0.05807	-0.419
Mof_N 	N 	0.39	0.68715	0.14239	-0.156
Mof_N 	N 	0.4773	0.6259	0.0687	-0.167
Mof_C 	C 	0.4967	0.64176	0.14425	0.008
Mof_H 	H 	0.5438	0.63	0.1714	0.034
Mof_C 	C 	0.5393	0.6118	0.1075	0.015
Mof_H 	H 	0.616	0.58	0.1101	0.025
Mof_C 	C 	0.3719	0.6716	0.06706	0.016
Mof_H 	H 	0.3256	0.6834	0.0398	0.013
Mof_C 	C 	0.3286	0.7019	0.10324	0.008
Mof_H 	H 	0.2536	0.7341	0.1005	0.029
Mof_C 	C 	0.0688	0.8363	0.20965	0.372
Mof_C 	C 	0.9755	0.88527	0.18793	-0.168
Mof_C 	C 	0.8683	0.9222	0.21155	0.078
Mof_H 	H 	0.8569	0.9178	0.242	0.011
Mof_C 	C 	0.7773	0.9658	0.19083	-0.152
Mof_H 	H 	0.7036	0.9908	0.2071	0.082
Mof_C 	C 	0.7943	0.9725	0.14688	0.08
Mof_H 	H 	0.7309	0.0021	0.1329	0.01
Mof_C 	C 	0.9033	0.93669	0.12236	-0.16
Mof_C 	C 	0.9929	0.89281	0.14341	0.088
Mof_H 	H 	0.0665	0.8678	0.1271	0.021
Mof_C 	C 	0.9271	0.946	0.0745	0.375
Mof_Ag	Ag	0.69517	0.77006	0.2094	0.563
Mof_Ag	Ag	0.0236	0.44216	0.01607	0.582
Mof_O 	O 	0.8409	0.69581	0.18607	-0.395
Mof_O 	O 	0.9508	0.66791	0.25011	-0.409
Mof_O 	O 	0.9746	0.58778	0.05369	-0.384
Mof_O 	O 	0.1517	0.51231	0.05807	-0.418
Mof_N 	N 	0.61	0.81285	0.14239	-0.156
Mof_N 	N 	0.5227	0.8741	0.0687	-0.167
Mof_C 	C 	0.5033	0.85824	0.14425	0.008
Mof_H 	H 	0.4562	0.87	0.1714	0.034
Mof_C 	C 	0.4607	0.8882	0.1075	0.015
Mof_H 	H 	0.384	0.92	0.1101	0.025
Mof_C 	C 	0.6281	0.8284	0.06706	0.016
Mof_H 	H 	0.6744	0.8166	0.0398	0.013
Mof_C 	C 	0.6714	0.7981	0.10324	0.008
Mof_H 	H 	0.7464	0.7659	0.1005	0.029
Mof_C 	C 	0.9312	0.6637	0.20965	0.372
Mof_C 	C 	0.0245	0.61473	0.18793	-0.168
Mof_C 	C 	0.1317	0.5778	0.21155	0.078
Mof_H 	H 	0.1431	0.5822	0.242	0.011
Mof_C 	C 	0.2227	0.5342	0.19083	-0.152
Mof_H 	H 	0.2964	0.5092	0.2071	0.083
Mof_C 	C 	0.2057	0.5275	0.14688	0.08
Mof_H 	H 	0.2691	0.4979	0.1329	0.01
Mof_C 	C 	0.0967	0.56331	0.12236	-0.16
Mof_C 	C 	0.0071	0.60719	0.14341	0.088
Mof_H 	H 	0.9335	0.6322	0.1271	0.021
Mof_C 	C 	0.0729	0.554	0.0745	0.375
Mof_Ag	Ag	0.19517	0.27006	0.7094	0.563
Mof_Ag	Ag	0.5236	0.94216	0.51607	0.582
Mof_O 	O 	0.3409	0.19581	0.68607	-0.395
Mof_O 	O 	0.4508	0.16791	0.75011	-0.41
Mof_O 	O 	0.4746	0.08778	0.55369	-0.384
Mof_O 	O 	0.6517	0.01231	0.55807	-0.419
Mof_N 	N 	0.11	0.31285	0.64239	-0.156
Mof_N 	N 	0.0227	0.3741	0.5687	-0.166
Mof_C 	C 	0.0033	0.35824	0.64425	0.011
Mof_H 	H 	0.9562	0.37	0.6714	0.032
Mof_C 	C 	0.9607	0.3882	0.6075	0.013
Mof_H 	H 	0.884	0.42	0.6101	0.026
Mof_C 	C 	0.1281	0.3284	0.56706	0.015
Mof_H 	H 	0.1744	0.3166	0.5398	0.013
Mof_C 	C 	0.1714	0.2981	0.60324	0.008
Mof_H 	H 	0.2464	0.2659	0.6005	0.029
Mof_C 	C 	0.4312	0.1637	0.70965	0.371
Mof_C 	C 	0.5245	0.11473	0.68793	-0.167
Mof_C 	C 	0.6317	0.0778	0.71155	0.078
Mof_H 	H 	0.6431	0.0822	0.742	0.011
Mof_C 	C 	0.7227	0.0342	0.69083	-0.152
Mof_H 	H 	0.7964	0.0092	0.7071	0.083
Mof_C 	C 	0.7057	0.0275	0.64688	0.081
Mof_H 	H 	0.7691	0.9979	0.6329	0.01
Mof_C 	C 	0.5967	0.06331	0.62236	-0.16
Mof_C 	C 	0.5071	0.10719	0.64341	0.089
Mof_H 	H 	0.4335	0.1322	0.6271	0.02
Mof_C 	C 	0.5729	0.054	0.5745	0.376
Mof_Ag	Ag	0.19517	0.72994	0.7906	0.563
Mof_Ag	Ag	0.5236	0.05784	0.98393	0.583
Mof_O 	O 	0.3409	0.80419	0.81393	-0.395
Mof_O 	O 	0.4508	0.83209	0.74989	-0.41
Mof_O 	O 	0.4746	0.91222	0.94631	-0.384
Mof_O 	O 	0.6517	0.98769	0.94193	-0.419
Mof_N 	N 	0.11	0.68715	0.85761	-0.156
Mof_N 	N 	0.0227	0.6259	0.9313	-0.166
Mof_C 	C 	0.0033	0.64176	0.85575	0.011
Mof_H 	H 	0.9562	0.63	0.8286	0.032
Mof_C 	C 	0.9607	0.6118	0.8925	0.013
Mof_H 	H 	0.884	0.58	0.8899	0.026
Mof_C 	C 	0.1281	0.6716	0.93294	0.015
Mof_H 	H 	0.1744	0.6834	0.9602	0.013
Mof_C 	C 	0.1714	0.7019	0.89676	0.008
Mof_H 	H 	0.2464	0.7341	0.8995	0.029
Mof_C 	C 	0.4312	0.8363	0.79035	0.371
Mof_C 	C 	0.5245	0.88527	0.81207	-0.167
Mof_C 	C 	0.6317	0.9222	0.78845	0.078
Mof_H 	H 	0.6431	0.9178	0.758	0.011
Mof_C 	C 	0.7227	0.9658	0.80917	-0.152
Mof_H 	H 	0.7964	0.9908	0.7929	0.083
Mof_C 	C 	0.7057	0.9725	0.85312	0.081
Mof_H 	H 	0.7691	0.0021	0.8671	0.01
Mof_C 	C 	0.5967	0.93669	0.87764	-0.16
Mof_C 	C 	0.5071	0.89281	0.85659	0.089
Mof_H 	H 	0.4335	0.8678	0.8729	0.02
Mof_C 	C 	0.5729	0.946	0.9255	0.376
Mof_Ag	Ag	0.69517	0.22994	0.2906	0.563
Mof_Ag	Ag	0.0236	0.55784	0.48393	0.582
Mof_O 	O 	0.8409	0.30419	0.31393	-0.395
Mof_O 	O 	0.9508	0.33209	0.24989	-0.409
Mof_O 	O 	0.9746	0.41222	0.44631	-0.384
Mof_O 	O 	0.1517	0.48769	0.44193	-0.418
Mof_N 	N 	0.61	0.18715	0.35761	-0.156
Mof_N 	N 	0.5227	0.1259	0.4313	-0.167
Mof_C 	C 	0.5033	0.14176	0.35575	0.008
Mof_H 	H 	0.4562	0.13	0.3286	0.034
Mof_C 	C 	0.4607	0.1118	0.3925	0.015
Mof_H 	H 	0.384	0.08	0.3899	0.025
Mof_C 	C 	0.6281	0.1716	0.43294	0.016
Mof_H 	H 	0.6744	0.1834	0.4602	0.012
Mof_C 	C 	0.6714	0.2019	0.39676	0.008
Mof_H 	H 	0.7464	0.2341	0.3995	0.029
Mof_C 	C 	0.9312	0.3363	0.29035	0.372
Mof_C 	C 	0.0245	0.38527	0.31207	-0.168
Mof_C 	C 	0.1317	0.4222	0.28845	0.078
Mof_H 	H 	0.1431	0.4178	0.258	0.011
Mof_C 	C 	0.2227	0.4658	0.30917	-0.152
Mof_H 	H 	0.2964	0.4908	0.2929	0.083
Mof_C 	C 	0.2057	0.4725	0.35312	0.08
Mof_H 	H 	0.2691	0.5021	0.3671	0.01
Mof_C 	C 	0.0967	0.43669	0.37764	-0.16
Mof_C 	C 	0.0071	0.39281	0.35659	0.088
Mof_H 	H 	0.9335	0.3678	0.3729	0.021
Mof_C 	C 	0.0729	0.446	0.4255	0.375
Mof_Ag	Ag	0.30483	0.27006	0.2906	0.563
Mof_Ag	Ag	0.9764	0.94216	0.48393	0.582
Mof_O 	O 	0.1591	0.19581	0.31393	-0.395
Mof_O 	O 	0.0492	0.16791	0.24989	-0.409
Mof_O 	O 	0.0254	0.08778	0.44631	-0.384
Mof_O 	O 	0.8483	0.01231	0.44193	-0.418
Mof_N 	N 	0.39	0.31285	0.35761	-0.156
Mof_N 	N 	0.4773	0.3741	0.4313	-0.167
Mof_C 	C 	0.4967	0.35824	0.35575	0.008
Mof_H 	H 	0.5438	0.37	0.3286	0.034
Mof_C 	C 	0.5393	0.3882	0.3925	0.015
Mof_H 	H 	0.616	0.42	0.3899	0.025
Mof_C 	C 	0.3719	0.3284	0.43294	0.016
Mof_H 	H 	0.3256	0.3166	0.4602	0.012
Mof_C 	C 	0.3286	0.2981	0.39676	0.008
Mof_H 	H 	0.2536	0.2659	0.3995	0.029
Mof_C 	C 	0.0688	0.1637	0.29035	0.372
Mof_C 	C 	0.9755	0.11473	0.31207	-0.168
Mof_C 	C 	0.8683	0.0778	0.28845	0.078
Mof_H 	H 	0.8569	0.0822	0.258	0.011
Mof_C 	C 	0.7773	0.0342	0.30917	-0.152
Mof_H 	H 	0.7036	0.0092	0.2929	0.082
Mof_C 	C 	0.7943	0.0275	0.35312	0.08
Mof_H 	H 	0.7309	0.9979	0.3671	0.01
Mof_C 	C 	0.9033	0.06331	0.37764	-0.16
Mof_C 	C 	0.9929	0.10719	0.35659	0.088
Mof_H 	H 	0.0665	0.1322	0.3729	0.021
Mof_C 	C 	0.9271	0.054	0.4255	0.375
Mof_Ag	Ag	0.80483	0.77006	0.7906	0.563
Mof_Ag	Ag	0.4764	0.44216	0.98393	0.583
Mof_O 	O 	0.6591	0.69581	0.81393	-0.395
Mof_O 	O 	0.5492	0.66791	0.74989	-0.41
Mof_O 	O 	0.5254	0.58778	0.94631	-0.384
Mof_O 	O 	0.3483	0.51231	0.94193	-0.419
Mof_N 	N 	0.89	0.81285	0.85761	-0.156
Mof_N 	N 	0.9773	0.8741	0.9313	-0.166
Mof_C 	C 	0.9967	0.85824	0.85575	0.011
Mof_H 	H 	0.0438	0.87	0.8286	0.032
Mof_C 	C 	0.0393	0.8882	0.8925	0.013
Mof_H 	H 	0.116	0.92	0.8899	0.026
Mof_C 	C 	0.8719	0.8284	0.93294	0.015
Mof_H 	H 	0.8256	0.8166	0.9602	0.013
Mof_C 	C 	0.8286	0.7981	0.89676	0.008
Mof_H 	H 	0.7536	0.7659	0.8995	0.029
Mof_C 	C 	0.5688	0.6637	0.79035	0.371
Mof_C 	C 	0.4755	0.61473	0.81207	-0.167
Mof_C 	C 	0.3683	0.5778	0.78845	0.078
Mof_H 	H 	0.3569	0.5822	0.758	0.011
Mof_C 	C 	0.2773	0.5342	0.80917	-0.152
Mof_H 	H 	0.2036	0.5092	0.7929	0.083
Mof_C 	C 	0.2943	0.5275	0.85312	0.081
Mof_H 	H 	0.2309	0.4979	0.8671	0.01
Mof_C 	C 	0.4033	0.56331	0.87764	-0.16
Mof_C 	C 	0.4929	0.60719	0.85659	0.089
Mof_H 	H 	0.5665	0.6322	0.8729	0.02
Mof_C 	C 	0.4271	0.554	0.9255	0.376
_end
