data_functionalizedCrystal
_audit_creation_method	'EQeq! by Chris Wilmer'
_symmetry_space_group_name_H-M	'P1'
_symmetry_Int_Tables_number	1
_symmetry_cell_setting	triclinic
loop_
_symmetry_equiv_pos_as_xyz
  x,y,z
_cell_length_a	5.5512
_cell_length_b	9.7858
_cell_length_c	12.9382
_cell_angle_alpha	86.877
_cell_angle_beta	87.809
_cell_angle_gamma	76.451
loop_
_atom_site_label
_atom_site_type_symbol
_atom_site_fract_x
_atom_site_fract_y
_atom_site_fract_z
_atom_site_charge
Mof_Zn	Zn	0.0832	0.62355	0.8128	1.225
Mof_Zn	Zn	0.5325	0.02099	0.49277	0.777
Mof_Zn	Zn	0.80123	0.0797	0.91915	1.234
Mof_P 	P 	0.00321	0.83588	0.60647	0.43
Mof_P 	P 	0.76924	0.77383	0.01355	0.468
Mof_O 	O 	0.9824	0.7065	0.67494	-0.402
Mof_O 	O 	0.8196	0.8589	0.51998	-0.437
Mof_O 	O 	0.2691	0.8251	0.5669	-0.359
Mof_O 	O 	0.0628	0.9759	0.7769	-0.429
Mof_H 	H 	0.189	0	0.751	0.236
Mof_O 	O 	0.486	0.0561	0.65061	-0.483
Mof_O 	O 	0.5925	0.0223	0.81296	-0.444
Mof_O 	O 	0.4923	0.8134	0.99678	-0.413
Mof_O 	O 	0.8823	0.9017	0.01397	-0.558
Mof_O 	O 	0.9044	0.6656	0.94117	-0.447
Mof_O 	O 	0.6906	0.5821	0.15981	-0.627
Mof_H 	H 	0.555	0.618	0.16	0.397
Mof_O 	O 	0.221	0.7238	0.16656	-0.426
Mof_O 	O 	0.1439	0.5179	0.21249	-0.387
Mof_C 	C 	0.9197	0.9934	0.6852	-0.088
Mof_H 	H 	0.955	0.081	0.644	0.039
Mof_C 	C 	0.6485	0.0256	0.7185	0.348
Mof_C 	C 	0.8103	0.6957	0.146	-0.094
Mof_H 	H 	0.744	0.771	0.191	0.076
Mof_C 	C 	0.0766	0.6413	0.17643	0.368
Mof_Zn	Zn	0.9168	0.37645	0.1872	1.223
Mof_Zn	Zn	0.4675	0.97901	0.50723	0.809
Mof_Zn	Zn	0.19877	0.9203	0.08085	1.243
Mof_P 	P 	0.99679	0.16412	0.39353	0.435
Mof_P 	P 	0.23076	0.22617	0.98645	0.473
Mof_O 	O 	0.0176	0.2935	0.32506	-0.405
Mof_O 	O 	0.1804	0.1411	0.48002	-0.451
Mof_O 	O 	0.7309	0.1749	0.4331	-0.368
Mof_O 	O 	0.9372	0.0241	0.2231	-0.452
Mof_H 	H 	0.811	0	0.249	0.248
Mof_O 	O 	0.514	0.9439	0.34939	-0.481
Mof_O 	O 	0.4075	0.9777	0.18704	-0.437
Mof_O 	O 	0.5077	0.1866	0.00322	-0.427
Mof_O 	O 	0.1177	0.0983	0.98603	-0.578
Mof_O 	O 	0.0956	0.3344	0.05883	-0.452
Mof_O 	O 	0.3094	0.4179	0.84019	-0.626
Mof_H 	H 	0.445	0.382	0.84	0.397
Mof_O 	O 	0.779	0.2762	0.83344	-0.428
Mof_O 	O 	0.8561	0.4821	0.78751	-0.386
Mof_C 	C 	0.0803	0.0066	0.3148	-0.191
Mof_H 	H 	0.045	0.919	0.356	0.091
Mof_C 	C 	0.3515	0.9744	0.2815	0.412
Mof_C 	C 	0.1897	0.3043	0.854	-0.094
Mof_H 	H 	0.256	0.229	0.809	0.074
Mof_C 	C 	0.9234	0.3587	0.82357	0.367
_end
