data_functionalizedCrystal
_audit_creation_method	'EQeq! by Chris Wilmer'
_symmetry_space_group_name_H-M	'P1'
_symmetry_Int_Tables_number	1
_symmetry_cell_setting	triclinic
loop_
_symmetry_equiv_pos_as_xyz
  x,y,z
_cell_length_a	9.6455
_cell_length_b	9.6406
_cell_length_c	10.5987
_cell_angle_alpha	74.159
_cell_angle_beta	74.714
_cell_angle_gamma	88.955
loop_
_atom_site_label
_atom_site_type_symbol
_atom_site_fract_x
_atom_site_fract_y
_atom_site_fract_z
_atom_site_charge
Mof_P 	P 	0.5029	0.9689	0.7943	1.901
Mof_P 	P 	0.2759	0.4761	0.9028	1.367
Mof_P 	P 	0.034	0.7987	0.6496	1.79
Mof_P 	P 	0.1871	0.7681	0.1399	1.622
Mof_Al	Al	0.2316	0.7866	0.8389	6.196
Mof_Al	Al	0.4843	0.2243	0.9229	7.158
Mof_Al	Al	0.1785	0.9512	0.3422	7.138
Mof_Al	Al	0.9772	0.5004	0.8675	5.321
Mof_O 	O 	0.1696	0.4466	0.8304	-1.414
Mof_O 	O 	0.4039	0.3839	0.8772	-2.036
Mof_O 	O 	0.1995	0.8432	0.9898	-1.839
Mof_O 	O 	0.4483	0.0924	0.8512	-2.299
Mof_O 	O 	0.3895	0.9128	0.7452	-1.641
Mof_O 	O 	0.3377	0.6332	0.8377	-1.705
Mof_O 	O 	0.9924	0.6409	0.7072	-1.487
Mof_O 	O 	0.1052	0.8325	0.4984	-2.177
Mof_O 	O 	0.0469	0.6403	0.9471	-2.339
Mof_O 	O 	0.2117	0.45	0.0552	-1.428
Mof_O 	O 	0.1351	0.8516	0.7173	-1.919
Mof_O 	O 	0.336	0.7156	0.1539	-2.124
Mof_O 	O 	0.1471	0.8809	0.2158	-2.123
Mof_O 	O 	0.6368	0.0201	0.6789	-2.102
Mof_O 	O 	0.5455	0.8497	0.9025	-2.279
Mof_O 	O 	0.0807	0.6418	0.1967	-1.471
Mof_O 	O 	0.8956	0.883	0.6685	-2.111
Mof_P 	P 	0.4971	0.0311	0.2057	1.902
Mof_P 	P 	0.7241	0.5239	0.0972	1.368
Mof_P 	P 	0.966	0.2013	0.3504	1.79
Mof_P 	P 	0.8129	0.2319	0.8601	1.622
Mof_Al	Al	0.7684	0.2134	0.1611	6.196
Mof_Al	Al	0.5157	0.7757	0.0771	7.158
Mof_Al	Al	0.8215	0.0488	0.6578	7.138
Mof_Al	Al	0.0228	0.4996	0.1325	5.321
Mof_O 	O 	0.8304	0.5534	0.1696	-1.414
Mof_O 	O 	0.5961	0.6161	0.1228	-2.036
Mof_O 	O 	0.8005	0.1568	0.0102	-1.839
Mof_O 	O 	0.5517	0.9076	0.1488	-2.299
Mof_O 	O 	0.6105	0.0872	0.2548	-1.641
Mof_O 	O 	0.6623	0.3668	0.1623	-1.705
Mof_O 	O 	0.0076	0.3591	0.2928	-1.487
Mof_O 	O 	0.8948	0.1675	0.5016	-2.177
Mof_O 	O 	0.9531	0.3597	0.0529	-2.339
Mof_O 	O 	0.7883	0.55	0.9448	-1.428
Mof_O 	O 	0.8649	0.1484	0.2827	-1.919
Mof_O 	O 	0.664	0.2844	0.8461	-2.124
Mof_O 	O 	0.8529	0.1191	0.7842	-2.123
Mof_O 	O 	0.3632	0.9799	0.3211	-2.102
Mof_O 	O 	0.4545	0.1503	0.0975	-2.279
Mof_O 	O 	0.9193	0.3582	0.8033	-1.471
Mof_O 	O 	0.1044	0.117	0.3315	-2.111
_end
