# CIF file generated by openbabel 3.1.0, see https://openbabel.org
data_I
_chemical_name_common 'image0'
_cell_length_a 16.1682
_cell_length_b 15.102
_cell_length_c 7.9846
_cell_angle_alpha 90
_cell_angle_beta 92.845
_cell_angle_gamma 90
_space_group_name_H-M_alt 'P 1'
_space_group_name_Hall 'P 1'
loop_
    _symmetry_equiv_pos_as_xyz
    x,y,z
loop_
    _atom_site_label
    _atom_site_type_symbol
    _atom_site_fract_x
    _atom_site_fract_y
    _atom_site_fract_z
    _atom_site_occupancy
    Dy1      Dy       0.45454    0.61618    0.04948    1.000
    Ag1      Ag       0.97316    0.73989    0.60071    1.000
    O1       O        0.35829    0.81592    0.71900    1.000
    O2       O        0.38143    0.68117    0.82810    1.000
    O3       O        0.57620    0.63300    0.90800    1.000
    O4       O        0.63060    0.49745    0.86320    1.000
    O5       O        0.53470    0.61490    0.31470    1.000
    O6       O        0.54781    0.49700    0.16070    1.000
    N1       N        0.09430    0.75270    0.99810    1.000
    N2       N        0.85760    0.69670    0.69910    1.000
    C1       C        0.25160    0.74940    0.86950    1.000
    C2       C        0.21160    0.67100    0.91120    1.000
    H1       H        0.23720    0.61650    0.89670    1.000
    C3       C        0.13360    0.67530    0.97410    1.000
    H2       H        0.10720    0.62290    0.00080    1.000
    C4       C        0.13330    0.82840    0.95890    1.000
    H3       H        0.10680    0.88210    0.97600    1.000
    C5       C        0.21090    0.82940    0.89450    1.000
    H4       H        0.23580    0.88280    0.86800    1.000
    C6       C        0.33670    0.74950    0.80080    1.000
    C7       C        0.63320    0.58090    0.86370    1.000
    C8       C        0.71130    0.62310    0.80580    1.000
    C9       C        0.71560    0.71230    0.76130    1.000
    H5       H        0.66930    0.74860    0.76680    1.000
    C10      C        0.78940    0.74580    0.70880    1.000
    H6       H        0.79170    0.80530    0.67910    1.000
    C11      C        0.85330    0.61080    0.74570    1.000
    H7       H        0.90090    0.57630    0.74270    1.000
    C12      C        0.78180    0.57190    0.79750    1.000
    H8       H        0.78100    0.51230    0.82640    1.000
    C13      C        0.56970    0.54110    0.28980    1.000
    C14      C        0.62710    0.50150    0.42100    1.000
    H9       H        0.67190    0.54180    0.44670    1.000
    H10      H        0.64870    0.44680    0.38040    1.000
    H11      H        0.59760    0.49050    0.52030    1.000
    C15      C        0.64440    0.51270    0.39300    1.000
    H12      H        0.65030    0.54880    0.49150    1.000
    H13      H        0.69260    0.51910    0.32820    1.000
    H14      H        0.63850    0.45180    0.42460    1.000
    Dy2      Dy       0.54546    0.11618    0.45052    1.000
    Ag2      Ag       0.02684    0.23989    0.89929    1.000
    O7       O        0.64171    0.31592    0.78100    1.000
    O8       O        0.61857    0.18117    0.67190    1.000
    O9       O        0.42380    0.13300    0.59200    1.000
    O10      O        0.36940    0.99745    0.63680    1.000
    O11      O        0.46530    0.11490    0.18530    1.000
    O12      O        0.45219    0.99700    0.33930    1.000
    N3       N        0.90570    0.25270    0.50190    1.000
    N4       N        0.14240    0.19670    0.80090    1.000
    C16      C        0.74840    0.24940    0.63050    1.000
    C17      C        0.78840    0.17100    0.58880    1.000
    H15      H        0.76280    0.11650    0.60330    1.000
    C18      C        0.86640    0.17530    0.52590    1.000
    H16      H        0.89280    0.12290    0.49920    1.000
    C19      C        0.86670    0.32840    0.54110    1.000
    H17      H        0.89320    0.38210    0.52400    1.000
    C20      C        0.78910    0.32940    0.60550    1.000
    H18      H        0.76420    0.38280    0.63200    1.000
    C21      C        0.66330    0.24950    0.69920    1.000
    C22      C        0.36680    0.08090    0.63630    1.000
    C23      C        0.28870    0.12310    0.69420    1.000
    C24      C        0.28440    0.21230    0.73870    1.000
    H19      H        0.33070    0.24860    0.73320    1.000
    C25      C        0.21060    0.24580    0.79120    1.000
    H20      H        0.20830    0.30530    0.82090    1.000
    C26      C        0.14670    0.11080    0.75430    1.000
    H21      H        0.09910    0.07630    0.75730    1.000
    C27      C        0.21820    0.07190    0.70250    1.000
    H22      H        0.21900    0.01230    0.67360    1.000
    C28      C        0.43030    0.04110    0.21020    1.000
    C29      C        0.37290    0.00150    0.07900    1.000
    H23      H        0.32810    0.04180    0.05330    1.000
    H24      H        0.35130    0.94680    0.11960    1.000
    H25      H        0.40240    0.99050    0.97970    1.000
    C30      C        0.35560    0.01270    0.10700    1.000
    H26      H        0.34970    0.04880    0.00850    1.000
    H27      H        0.30740    0.01910    0.17180    1.000
    H28      H        0.36150    0.95180    0.07540    1.000
    Dy3      Dy       0.54546    0.38382    0.95052    1.000
    Ag3      Ag       0.02684    0.26011    0.39929    1.000
    O13      O        0.64171    0.18408    0.28100    1.000
    O14      O        0.61857    0.31883    0.17190    1.000
    O15      O        0.42380    0.36700    0.09200    1.000
    O16      O        0.36940    0.50255    0.13680    1.000
    O17      O        0.46530    0.38510    0.68530    1.000
    O18      O        0.45219    0.50300    0.83930    1.000
    N5       N        0.90570    0.24730    0.00190    1.000
    N6       N        0.14240    0.30330    0.30090    1.000
    C31      C        0.74840    0.25060    0.13050    1.000
    C32      C        0.78840    0.32900    0.08880    1.000
    H29      H        0.76280    0.38350    0.10330    1.000
    C33      C        0.86640    0.32470    0.02590    1.000
    H30      H        0.89280    0.37710    0.99920    1.000
    C34      C        0.86670    0.17160    0.04110    1.000
    H31      H        0.89320    0.11790    0.02400    1.000
    C35      C        0.78910    0.17060    0.10550    1.000
    H32      H        0.76420    0.11720    0.13200    1.000
    C36      C        0.66330    0.25050    0.19920    1.000
    C37      C        0.36680    0.41910    0.13630    1.000
    C38      C        0.28870    0.37690    0.19420    1.000
    C39      C        0.28440    0.28770    0.23870    1.000
    H33      H        0.33070    0.25140    0.23320    1.000
    C40      C        0.21060    0.25420    0.29120    1.000
    H34      H        0.20830    0.19470    0.32090    1.000
    C41      C        0.14670    0.38920    0.25430    1.000
    H35      H        0.09910    0.42370    0.25730    1.000
    C42      C        0.21820    0.42810    0.20250    1.000
    H36      H        0.21900    0.48770    0.17360    1.000
    C43      C        0.43030    0.45890    0.71020    1.000
    C44      C        0.37290    0.49850    0.57900    1.000
    H37      H        0.32810    0.45820    0.55330    1.000
    H38      H        0.35130    0.55320    0.61960    1.000
    H39      H        0.40240    0.50950    0.47970    1.000
    C45      C        0.35560    0.48730    0.60700    1.000
    H40      H        0.34970    0.45120    0.50850    1.000
    H41      H        0.30740    0.48090    0.67180    1.000
    H42      H        0.36150    0.54820    0.57540    1.000
    Dy4      Dy       0.45454    0.88382    0.54948    1.000
    Ag4      Ag       0.97316    0.76011    0.10071    1.000
    O19      O        0.35829    0.68408    0.21900    1.000
    O20      O        0.38143    0.81883    0.32810    1.000
    O21      O        0.57620    0.86700    0.40800    1.000
    O22      O        0.63060    0.00255    0.36320    1.000
    O23      O        0.53470    0.88510    0.81470    1.000
    O24      O        0.54781    0.00300    0.66070    1.000
    N7       N        0.09430    0.74730    0.49810    1.000
    N8       N        0.85760    0.80330    0.19910    1.000
    C46      C        0.25160    0.75060    0.36950    1.000
    C47      C        0.21160    0.82900    0.41120    1.000
    H43      H        0.23720    0.88350    0.39670    1.000
    C48      C        0.13360    0.82470    0.47410    1.000
    H44      H        0.10720    0.87710    0.50080    1.000
    C49      C        0.13330    0.67160    0.45890    1.000
    H45      H        0.10680    0.61790    0.47600    1.000
    C50      C        0.21090    0.67060    0.39450    1.000
    H46      H        0.23580    0.61720    0.36800    1.000
    C51      C        0.33670    0.75050    0.30080    1.000
    C52      C        0.63320    0.91910    0.36370    1.000
    C53      C        0.71130    0.87690    0.30580    1.000
    C54      C        0.71560    0.78770    0.26130    1.000
    H47      H        0.66930    0.75140    0.26680    1.000
    C55      C        0.78940    0.75420    0.20880    1.000
    H48      H        0.79170    0.69470    0.17910    1.000
    C56      C        0.85330    0.88920    0.24570    1.000
    H49      H        0.90090    0.92370    0.24270    1.000
    C57      C        0.78180    0.92810    0.29750    1.000
    H50      H        0.78100    0.98770    0.32640    1.000
    C58      C        0.56970    0.95890    0.78980    1.000
    C59      C        0.62710    0.99850    0.92100    1.000
    H51      H        0.67190    0.95820    0.94670    1.000
    H52      H        0.64870    0.05320    0.88040    1.000
    H53      H        0.59760    0.00950    0.02030    1.000
    C60      C        0.64440    0.98730    0.89300    1.000
    H54      H        0.65030    0.95120    0.99150    1.000
    H55      H        0.69260    0.98090    0.82820    1.000
    H56      H        0.63850    0.04820    0.92460    1.000
