data_functionalizedCrystal
_audit_creation_method	'EQeq! by Chris Wilmer'
_symmetry_space_group_name_H-M	'P1'
_symmetry_Int_Tables_number	1
_symmetry_cell_setting	triclinic
loop_
_symmetry_equiv_pos_as_xyz
  x,y,z
_cell_length_a	35.2879
_cell_length_b	35.2879
_cell_length_c	20.3241
_cell_angle_alpha	90
_cell_angle_beta	90
_cell_angle_gamma	120
loop_
_atom_site_label
_atom_site_type_symbol
_atom_site_fract_x
_atom_site_fract_y
_atom_site_fract_z
_atom_site_charge
Mof_O 	O 	0.36319	0.22058	0.59197	-0.41
Mof_O 	O 	0.38864	0.23326	0.69552	-0.411
Mof_C 	C 	0.38808	0.24461	0.63731	0.372
Mof_C 	C 	0.4204	0.29099	0.61927	-0.129
Mof_C 	C 	0.44828	0.31978	0.66715	0.064
Mof_H 	H 	0.4475	0.3098	0.7108	0.024
Mof_C 	C 	0.47709	0.36302	0.65086	-0.141
Mof_H 	H 	0.4964	0.3824	0.6834	0.09
Mof_C 	C 	0.47809	0.37829	0.58812	0.107
Mof_C 	C 	0.45088	0.34874	0.53949	-0.142
Mof_H 	H 	0.4524	0.3583	0.4954	0.081
Mof_C 	C 	0.42189	0.30567	0.55643	0.066
Mof_H 	H 	0.4028	0.286	0.524	0.024
Mof_C 	C 	0.50548	0.42568	0.57134	-0.069
Mof_C 	C 	0.48733	0.4455	0.53511	-0.04
Mof_H 	H 	0.4576	0.4285	0.5218	0.044
Mof_H 	H 	0.6112	0.4343	0.5568	-0.017
Mof_H 	H 	0.6315	0.4138	0.6627	0.169
Mof_O 	O 	0.02986	0.55391	0.9253	-0.411
Mof_O 	O 	0.05531	0.56659	0.02885	-0.412
Mof_C 	C 	0.05475	0.57794	0.97064	0.371
Mof_C 	C 	0.08707	0.62432	0.9526	-0.128
Mof_C 	C 	0.11495	0.65311	0.00048	0.06
Mof_H 	H 	0.11417	0.64313	0.04413	0.024
Mof_C 	C 	0.14376	0.69635	0.98419	-0.139
Mof_H 	H 	0.16307	0.71573	0.01673	0.088
Mof_C 	C 	0.14476	0.71162	0.92145	0.104
Mof_C 	C 	0.11755	0.68207	0.87282	-0.142
Mof_H 	H 	0.11907	0.69163	0.82873	0.08
Mof_C 	C 	0.08856	0.639	0.88976	0.064
Mof_H 	H 	0.06947	0.61933	0.85733	0.025
Mof_C 	C 	0.17215	0.75901	0.90467	-0.068
Mof_C 	C 	0.154	0.77883	0.86844	-0.041
Mof_H 	H 	0.12427	0.76183	0.85513	0.044
Mof_H 	H 	0.27787	0.76763	0.89013	-0.017
Mof_H 	H 	0.29817	0.74713	0.99603	0.17
Mof_O 	O 	0.69652	0.88725	0.25864	-0.411
Mof_O 	O 	0.72197	0.89993	0.36219	-0.412
Mof_C 	C 	0.72141	0.91128	0.30398	0.371
Mof_C 	C 	0.75373	0.95766	0.28594	-0.129
Mof_C 	C 	0.78161	0.98645	0.33382	0.062
Mof_H 	H 	0.78083	0.97647	0.37747	0.023
Mof_C 	C 	0.81042	0.02969	0.31753	-0.141
Mof_H 	H 	0.82973	0.04907	0.35007	0.089
Mof_C 	C 	0.81142	0.04496	0.25479	0.105
Mof_C 	C 	0.78421	0.01541	0.20616	-0.142
Mof_H 	H 	0.78573	0.02497	0.16207	0.08
Mof_C 	C 	0.75522	0.97234	0.2231	0.065
Mof_H 	H 	0.73613	0.95267	0.19067	0.024
Mof_C 	C 	0.83881	0.09235	0.23801	-0.069
Mof_C 	C 	0.82066	0.11217	0.20178	-0.04
Mof_H 	H 	0.79093	0.09517	0.18847	0.044
Mof_H 	H 	0.94453	0.10097	0.22347	-0.017
Mof_H 	H 	0.96483	0.08047	0.32937	0.169
Mof_O 	O 	0.77942	0.14261	0.59197	-0.411
Mof_O 	O 	0.76674	0.15538	0.69552	-0.412
Mof_C 	C 	0.75539	0.14347	0.63731	0.371
Mof_C 	C 	0.70901	0.12941	0.61927	-0.13
Mof_C 	C 	0.68022	0.1285	0.66715	0.063
Mof_H 	H 	0.6902	0.1377	0.7108	0.023
Mof_C 	C 	0.63698	0.11407	0.65086	-0.142
Mof_H 	H 	0.6176	0.114	0.6834	0.089
Mof_C 	C 	0.62171	0.0998	0.58812	0.106
Mof_C 	C 	0.65126	0.10214	0.53949	-0.143
Mof_H 	H 	0.6417	0.0941	0.4954	0.08
Mof_C 	C 	0.69433	0.11622	0.55643	0.065
Mof_H 	H 	0.714	0.1168	0.524	0.024
Mof_C 	C 	0.57432	0.0798	0.57134	-0.069
Mof_C 	C 	0.5545	0.04183	0.53511	-0.04
Mof_H 	H 	0.5715	0.0291	0.5218	0.044
Mof_H 	H 	0.5657	0.1769	0.5568	-0.017
Mof_H 	H 	0.5862	0.2177	0.6627	0.169
Mof_O 	O 	0.44609	0.47594	0.9253	-0.411
Mof_O 	O 	0.43341	0.48871	0.02885	-0.412
Mof_C 	C 	0.42206	0.4768	0.97064	0.371
Mof_C 	C 	0.37568	0.46274	0.9526	-0.129
Mof_C 	C 	0.34689	0.46183	0.00048	0.062
Mof_H 	H 	0.35687	0.47103	0.04413	0.023
Mof_C 	C 	0.30365	0.4474	0.98419	-0.141
Mof_H 	H 	0.28427	0.44733	0.01673	0.089
Mof_C 	C 	0.28838	0.43313	0.92145	0.105
Mof_C 	C 	0.31793	0.43547	0.87282	-0.143
Mof_H 	H 	0.30837	0.42743	0.82873	0.08
Mof_C 	C 	0.361	0.44955	0.88976	0.065
Mof_H 	H 	0.38067	0.45013	0.85733	0.024
Mof_C 	C 	0.24099	0.41313	0.90467	-0.069
Mof_C 	C 	0.22117	0.37516	0.86844	-0.04
Mof_H 	H 	0.23817	0.36243	0.85513	0.044
Mof_H 	H 	0.23237	0.51023	0.89013	-0.017
Mof_H 	H 	0.25287	0.55103	0.99603	0.169
Mof_O 	O 	0.11275	0.80928	0.25864	-0.411
Mof_O 	O 	0.10007	0.82205	0.36219	-0.412
Mof_C 	C 	0.08872	0.81014	0.30398	0.371
Mof_C 	C 	0.04234	0.79608	0.28594	-0.129
Mof_C 	C 	0.01355	0.79517	0.33382	0.062
Mof_H 	H 	0.02353	0.80437	0.37747	0.023
Mof_C 	C 	0.97031	0.78074	0.31753	-0.141
Mof_H 	H 	0.95093	0.78067	0.35007	0.089
Mof_C 	C 	0.95504	0.76647	0.25479	0.105
Mof_C 	C 	0.98459	0.76881	0.20616	-0.142
Mof_H 	H 	0.97503	0.76077	0.16207	0.08
Mof_C 	C 	0.02766	0.78289	0.2231	0.065
Mof_H 	H 	0.04733	0.78347	0.19067	0.024
Mof_C 	C 	0.90765	0.74647	0.23801	-0.069
Mof_C 	C 	0.88783	0.7085	0.20178	-0.04
Mof_H 	H 	0.90483	0.69577	0.18847	0.044
Mof_H 	H 	0.89903	0.84357	0.22347	-0.017
Mof_H 	H 	0.91953	0.88437	0.32937	0.169
Mof_O 	O 	0.85739	0.63681	0.59197	-0.411
Mof_O 	O 	0.84462	0.61136	0.69552	-0.412
Mof_C 	C 	0.85653	0.61192	0.63731	0.371
Mof_C 	C 	0.87059	0.5796	0.61927	-0.13
Mof_C 	C 	0.8715	0.55172	0.66715	0.063
Mof_H 	H 	0.8623	0.5525	0.7108	0.023
Mof_C 	C 	0.88593	0.52291	0.65086	-0.142
Mof_H 	H 	0.886	0.5036	0.6834	0.089
Mof_C 	C 	0.9002	0.52191	0.58812	0.106
Mof_C 	C 	0.89786	0.54912	0.53949	-0.143
Mof_H 	H 	0.9059	0.5476	0.4954	0.08
Mof_C 	C 	0.88378	0.57811	0.55643	0.065
Mof_H 	H 	0.8832	0.5972	0.524	0.024
Mof_C 	C 	0.9202	0.49452	0.57134	-0.069
Mof_C 	C 	0.95817	0.51267	0.53511	-0.04
Mof_H 	H 	0.9709	0.5424	0.5218	0.044
Mof_H 	H 	0.8231	0.3888	0.5568	-0.017
Mof_H 	H 	0.7823	0.3685	0.6627	0.169
Mof_O 	O 	0.52406	0.97014	0.9253	-0.411
Mof_O 	O 	0.51129	0.94469	0.02885	-0.412
Mof_C 	C 	0.5232	0.94525	0.97064	0.371
Mof_C 	C 	0.53726	0.91293	0.9526	-0.129
Mof_C 	C 	0.53817	0.88505	0.00048	0.061
Mof_H 	H 	0.52897	0.88583	0.04413	0.023
Mof_C 	C 	0.5526	0.85624	0.98419	-0.14
Mof_H 	H 	0.55267	0.83693	0.01673	0.089
Mof_C 	C 	0.56687	0.85524	0.92145	0.105
Mof_C 	C 	0.56453	0.88245	0.87282	-0.142
Mof_H 	H 	0.57257	0.88093	0.82873	0.08
Mof_C 	C 	0.55045	0.91144	0.88976	0.065
Mof_H 	H 	0.54987	0.93053	0.85733	0.024
Mof_C 	C 	0.58687	0.82785	0.90467	-0.069
Mof_C 	C 	0.62484	0.846	0.86844	-0.041
Mof_H 	H 	0.63757	0.87573	0.85513	0.044
Mof_H 	H 	0.48977	0.72213	0.89013	-0.017
Mof_H 	H 	0.44897	0.70183	0.99603	0.169
Mof_O 	O 	0.19072	0.30348	0.25864	-0.411
Mof_O 	O 	0.17795	0.27803	0.36219	-0.412
Mof_C 	C 	0.18986	0.27859	0.30398	0.371
Mof_C 	C 	0.20392	0.24627	0.28594	-0.13
Mof_C 	C 	0.20483	0.21839	0.33382	0.063
Mof_H 	H 	0.19563	0.21917	0.37747	0.023
Mof_C 	C 	0.21926	0.18958	0.31753	-0.142
Mof_H 	H 	0.21933	0.17027	0.35007	0.089
Mof_C 	C 	0.23353	0.18858	0.25479	0.106
Mof_C 	C 	0.23119	0.21579	0.20616	-0.143
Mof_H 	H 	0.23923	0.21427	0.16207	0.08
Mof_C 	C 	0.21711	0.24478	0.2231	0.065
Mof_H 	H 	0.21653	0.26387	0.19067	0.024
Mof_C 	C 	0.25353	0.16119	0.23801	-0.069
Mof_C 	C 	0.2915	0.17934	0.20178	-0.04
Mof_H 	H 	0.30423	0.20907	0.18847	0.044
Mof_H 	H 	0.15643	0.05547	0.22347	-0.017
Mof_H 	H 	0.11563	0.03517	0.32937	0.169
Mof_O 	O 	0.22058	0.36319	0.40803	-0.411
Mof_O 	O 	0.23326	0.38864	0.30448	-0.412
Mof_C 	C 	0.24461	0.38808	0.36269	0.371
Mof_C 	C 	0.29099	0.4204	0.38073	-0.13
Mof_C 	C 	0.31978	0.44828	0.33285	0.063
Mof_H 	H 	0.3098	0.4475	0.2892	0.023
Mof_C 	C 	0.36302	0.47709	0.34914	-0.142
Mof_H 	H 	0.3824	0.4964	0.3166	0.089
Mof_C 	C 	0.37829	0.47809	0.41188	0.106
Mof_C 	C 	0.34874	0.45088	0.46051	-0.143
Mof_H 	H 	0.3583	0.4524	0.5046	0.08
Mof_C 	C 	0.30567	0.42189	0.44357	0.065
Mof_H 	H 	0.286	0.4028	0.476	0.024
Mof_C 	C 	0.42568	0.50548	0.42866	-0.069
Mof_C 	C 	0.4455	0.48733	0.46489	-0.04
Mof_H 	H 	0.4285	0.4576	0.4782	0.044
Mof_H 	H 	0.4343	0.6112	0.4432	-0.017
Mof_H 	H 	0.4138	0.6315	0.3373	0.169
Mof_O 	O 	0.88725	0.69652	0.74136	-0.411
Mof_O 	O 	0.89993	0.72197	0.63781	-0.412
Mof_C 	C 	0.91128	0.72141	0.69602	0.371
Mof_C 	C 	0.95766	0.75373	0.71406	-0.129
Mof_C 	C 	0.98645	0.78161	0.66618	0.062
Mof_H 	H 	0.97647	0.78083	0.62253	0.023
Mof_C 	C 	0.02969	0.81042	0.68247	-0.141
Mof_H 	H 	0.04907	0.82973	0.64993	0.089
Mof_C 	C 	0.04496	0.81142	0.74521	0.105
Mof_C 	C 	0.01541	0.78421	0.79384	-0.142
Mof_H 	H 	0.02497	0.78573	0.83793	0.08
Mof_C 	C 	0.97234	0.75522	0.7769	0.065
Mof_H 	H 	0.95267	0.73613	0.80933	0.024
Mof_C 	C 	0.09235	0.83881	0.76199	-0.069
Mof_C 	C 	0.11217	0.82066	0.79822	-0.04
Mof_H 	H 	0.09517	0.79093	0.81153	0.044
Mof_H 	H 	0.10097	0.94453	0.77653	-0.017
Mof_H 	H 	0.08047	0.96483	0.67063	0.169
Mof_O 	O 	0.55391	0.02986	0.0747	-0.411
Mof_O 	O 	0.56659	0.05531	0.97115	-0.412
Mof_C 	C 	0.57794	0.05475	0.02936	0.371
Mof_C 	C 	0.62432	0.08707	0.0474	-0.128
Mof_C 	C 	0.65311	0.11495	0.99952	0.06
Mof_H 	H 	0.64313	0.11417	0.95587	0.024
Mof_C 	C 	0.69635	0.14376	0.01581	-0.139
Mof_H 	H 	0.71573	0.16307	0.98327	0.088
Mof_C 	C 	0.71162	0.14476	0.07855	0.104
Mof_C 	C 	0.68207	0.11755	0.12718	-0.142
Mof_H 	H 	0.69163	0.11907	0.17127	0.08
Mof_C 	C 	0.639	0.08856	0.11024	0.064
Mof_H 	H 	0.61933	0.06947	0.14267	0.025
Mof_C 	C 	0.75901	0.17215	0.09533	-0.068
Mof_C 	C 	0.77883	0.154	0.13156	-0.041
Mof_H 	H 	0.76183	0.12427	0.14487	0.044
Mof_H 	H 	0.76763	0.27787	0.10987	-0.017
Mof_H 	H 	0.74713	0.29817	0.00397	0.17
Mof_O 	O 	0.14261	0.77942	0.40803	-0.411
Mof_O 	O 	0.15538	0.76674	0.30448	-0.412
Mof_C 	C 	0.14347	0.75539	0.36269	0.371
Mof_C 	C 	0.12941	0.70901	0.38073	-0.13
Mof_C 	C 	0.1285	0.68022	0.33285	0.063
Mof_H 	H 	0.1377	0.6902	0.2892	0.023
Mof_C 	C 	0.11407	0.63698	0.34914	-0.142
Mof_H 	H 	0.114	0.6176	0.3166	0.089
Mof_C 	C 	0.0998	0.62171	0.41188	0.106
Mof_C 	C 	0.10214	0.65126	0.46051	-0.143
Mof_H 	H 	0.0941	0.6417	0.5046	0.08
Mof_C 	C 	0.11622	0.69433	0.44357	0.065
Mof_H 	H 	0.1168	0.714	0.476	0.024
Mof_C 	C 	0.0798	0.57432	0.42866	-0.069
Mof_C 	C 	0.04183	0.5545	0.46489	-0.04
Mof_H 	H 	0.0291	0.5715	0.4782	0.044
Mof_H 	H 	0.1769	0.5657	0.4432	-0.017
Mof_H 	H 	0.2177	0.5862	0.3373	0.169
Mof_O 	O 	0.80928	0.11275	0.74136	-0.411
Mof_O 	O 	0.82205	0.10007	0.63781	-0.412
Mof_C 	C 	0.81014	0.08872	0.69602	0.371
Mof_C 	C 	0.79608	0.04234	0.71406	-0.129
Mof_C 	C 	0.79517	0.01355	0.66618	0.062
Mof_H 	H 	0.80437	0.02353	0.62253	0.023
Mof_C 	C 	0.78074	0.97031	0.68247	-0.141
Mof_H 	H 	0.78067	0.95093	0.64993	0.089
Mof_C 	C 	0.76647	0.95504	0.74521	0.105
Mof_C 	C 	0.76881	0.98459	0.79384	-0.142
Mof_H 	H 	0.76077	0.97503	0.83793	0.08
Mof_C 	C 	0.78289	0.02766	0.7769	0.065
Mof_H 	H 	0.78347	0.04733	0.80933	0.024
Mof_C 	C 	0.74647	0.90765	0.76199	-0.069
Mof_C 	C 	0.7085	0.88783	0.79822	-0.04
Mof_H 	H 	0.69577	0.90483	0.81153	0.044
Mof_H 	H 	0.84357	0.89903	0.77653	-0.017
Mof_H 	H 	0.88437	0.91953	0.67063	0.169
Mof_O 	O 	0.47594	0.44609	0.0747	-0.411
Mof_O 	O 	0.48871	0.43341	0.97115	-0.412
Mof_C 	C 	0.4768	0.42206	0.02936	0.371
Mof_C 	C 	0.46274	0.37568	0.0474	-0.129
Mof_C 	C 	0.46183	0.34689	0.99952	0.062
Mof_H 	H 	0.47103	0.35687	0.95587	0.023
Mof_C 	C 	0.4474	0.30365	0.01581	-0.141
Mof_H 	H 	0.44733	0.28427	0.98327	0.089
Mof_C 	C 	0.43313	0.28838	0.07855	0.105
Mof_C 	C 	0.43547	0.31793	0.12718	-0.143
Mof_H 	H 	0.42743	0.30837	0.17127	0.08
Mof_C 	C 	0.44955	0.361	0.11024	0.065
Mof_H 	H 	0.45013	0.38067	0.14267	0.024
Mof_C 	C 	0.41313	0.24099	0.09533	-0.069
Mof_C 	C 	0.37516	0.22117	0.13156	-0.04
Mof_H 	H 	0.36243	0.23817	0.14487	0.044
Mof_H 	H 	0.51023	0.23237	0.10987	-0.017
Mof_H 	H 	0.55103	0.25287	0.00397	0.169
Mof_O 	O 	0.63681	0.85739	0.40803	-0.411
Mof_O 	O 	0.61136	0.84462	0.30448	-0.412
Mof_C 	C 	0.61192	0.85653	0.36269	0.371
Mof_C 	C 	0.5796	0.87059	0.38073	-0.13
Mof_C 	C 	0.55172	0.8715	0.33285	0.063
Mof_H 	H 	0.5525	0.8623	0.2892	0.023
Mof_C 	C 	0.52291	0.88593	0.34914	-0.142
Mof_H 	H 	0.5036	0.886	0.3166	0.089
Mof_C 	C 	0.52191	0.9002	0.41188	0.106
Mof_C 	C 	0.54912	0.89786	0.46051	-0.143
Mof_H 	H 	0.5476	0.9059	0.5046	0.08
Mof_C 	C 	0.57811	0.88378	0.44357	0.065
Mof_H 	H 	0.5972	0.8832	0.476	0.024
Mof_C 	C 	0.49452	0.9202	0.42866	-0.069
Mof_C 	C 	0.51267	0.95817	0.46489	-0.04
Mof_H 	H 	0.5424	0.9709	0.4782	0.044
Mof_H 	H 	0.3888	0.8231	0.4432	-0.017
Mof_H 	H 	0.3685	0.7823	0.3373	0.169
Mof_O 	O 	0.30348	0.19072	0.74136	-0.411
Mof_O 	O 	0.27803	0.17795	0.63781	-0.412
Mof_C 	C 	0.27859	0.18986	0.69602	0.371
Mof_C 	C 	0.24627	0.20392	0.71406	-0.13
Mof_C 	C 	0.21839	0.20483	0.66618	0.063
Mof_H 	H 	0.21917	0.19563	0.62253	0.023
Mof_C 	C 	0.18958	0.21926	0.68247	-0.142
Mof_H 	H 	0.17027	0.21933	0.64993	0.089
Mof_C 	C 	0.18858	0.23353	0.74521	0.106
Mof_C 	C 	0.21579	0.23119	0.79384	-0.143
Mof_H 	H 	0.21427	0.23923	0.83793	0.08
Mof_C 	C 	0.24478	0.21711	0.7769	0.065
Mof_H 	H 	0.26387	0.21653	0.80933	0.024
Mof_C 	C 	0.16119	0.25353	0.76199	-0.069
Mof_C 	C 	0.17934	0.2915	0.79822	-0.04
Mof_H 	H 	0.20907	0.30423	0.81153	0.044
Mof_H 	H 	0.05547	0.15643	0.77653	-0.017
Mof_H 	H 	0.03517	0.11563	0.67063	0.169
Mof_O 	O 	0.97014	0.52406	0.0747	-0.411
Mof_O 	O 	0.94469	0.51129	0.97115	-0.412
Mof_C 	C 	0.94525	0.5232	0.02936	0.371
Mof_C 	C 	0.91293	0.53726	0.0474	-0.129
Mof_C 	C 	0.88505	0.53817	0.99952	0.061
Mof_H 	H 	0.88583	0.52897	0.95587	0.023
Mof_C 	C 	0.85624	0.5526	0.01581	-0.14
Mof_H 	H 	0.83693	0.55267	0.98327	0.089
Mof_C 	C 	0.85524	0.56687	0.07855	0.105
Mof_C 	C 	0.88245	0.56453	0.12718	-0.142
Mof_H 	H 	0.88093	0.57257	0.17127	0.08
Mof_C 	C 	0.91144	0.55045	0.11024	0.065
Mof_H 	H 	0.93053	0.54987	0.14267	0.024
Mof_C 	C 	0.82785	0.58687	0.09533	-0.069
Mof_C 	C 	0.846	0.62484	0.13156	-0.041
Mof_H 	H 	0.87573	0.63757	0.14487	0.044
Mof_H 	H 	0.72213	0.48977	0.10987	-0.017
Mof_H 	H 	0.70183	0.44897	0.00397	0.169
Mof_O 	O 	0.63681	0.77942	0.40803	-0.411
Mof_O 	O 	0.61136	0.76674	0.30448	-0.412
Mof_C 	C 	0.61192	0.75539	0.36269	0.371
Mof_C 	C 	0.5796	0.70901	0.38073	-0.13
Mof_C 	C 	0.55172	0.68022	0.33285	0.063
Mof_H 	H 	0.5525	0.6902	0.2892	0.023
Mof_C 	C 	0.52291	0.63698	0.34914	-0.142
Mof_H 	H 	0.5036	0.6176	0.3166	0.089
Mof_C 	C 	0.52191	0.62171	0.41188	0.106
Mof_C 	C 	0.54912	0.65126	0.46051	-0.143
Mof_H 	H 	0.5476	0.6417	0.5046	0.08
Mof_C 	C 	0.57811	0.69433	0.44357	0.065
Mof_H 	H 	0.5972	0.714	0.476	0.024
Mof_C 	C 	0.49452	0.57432	0.42866	-0.069
Mof_C 	C 	0.51267	0.5545	0.46489	-0.04
Mof_H 	H 	0.5424	0.5715	0.4782	0.044
Mof_H 	H 	0.3888	0.5657	0.4432	-0.017
Mof_H 	H 	0.3685	0.5862	0.3373	0.169
Mof_O 	O 	0.30348	0.11275	0.74136	-0.411
Mof_O 	O 	0.27803	0.10007	0.63781	-0.412
Mof_C 	C 	0.27859	0.08872	0.69602	0.371
Mof_C 	C 	0.24627	0.04234	0.71406	-0.129
Mof_C 	C 	0.21839	0.01355	0.66618	0.062
Mof_H 	H 	0.21917	0.02353	0.62253	0.023
Mof_C 	C 	0.18958	0.97031	0.68247	-0.141
Mof_H 	H 	0.17027	0.95093	0.64993	0.089
Mof_C 	C 	0.18858	0.95504	0.74521	0.105
Mof_C 	C 	0.21579	0.98459	0.79384	-0.142
Mof_H 	H 	0.21427	0.97503	0.83793	0.08
Mof_C 	C 	0.24478	0.02766	0.7769	0.065
Mof_H 	H 	0.26387	0.04733	0.80933	0.024
Mof_C 	C 	0.16119	0.90765	0.76199	-0.069
Mof_C 	C 	0.17934	0.88783	0.79822	-0.04
Mof_H 	H 	0.20907	0.90483	0.81153	0.044
Mof_H 	H 	0.05547	0.89903	0.77653	-0.017
Mof_H 	H 	0.03517	0.91953	0.67063	0.169
Mof_O 	O 	0.97014	0.44609	0.0747	-0.411
Mof_O 	O 	0.94469	0.43341	0.97115	-0.412
Mof_C 	C 	0.94525	0.42206	0.02936	0.371
Mof_C 	C 	0.91293	0.37568	0.0474	-0.128
Mof_C 	C 	0.88505	0.34689	0.99952	0.06
Mof_H 	H 	0.88583	0.35687	0.95587	0.024
Mof_C 	C 	0.85624	0.30365	0.01581	-0.139
Mof_H 	H 	0.83693	0.28427	0.98327	0.088
Mof_C 	C 	0.85524	0.28838	0.07855	0.104
Mof_C 	C 	0.88245	0.31793	0.12718	-0.142
Mof_H 	H 	0.88093	0.30837	0.17127	0.08
Mof_C 	C 	0.91144	0.361	0.11024	0.064
Mof_H 	H 	0.93053	0.38067	0.14267	0.025
Mof_C 	C 	0.82785	0.24099	0.09533	-0.068
Mof_C 	C 	0.846	0.22117	0.13156	-0.041
Mof_H 	H 	0.87573	0.23817	0.14487	0.044
Mof_H 	H 	0.72213	0.23237	0.10987	-0.017
Mof_H 	H 	0.70183	0.25287	0.00397	0.17
Mof_O 	O 	0.22058	0.85739	0.40803	-0.411
Mof_O 	O 	0.23326	0.84462	0.30448	-0.412
Mof_C 	C 	0.24461	0.85653	0.36269	0.371
Mof_C 	C 	0.29099	0.87059	0.38073	-0.13
Mof_C 	C 	0.31978	0.8715	0.33285	0.063
Mof_H 	H 	0.3098	0.8623	0.2892	0.023
Mof_C 	C 	0.36302	0.88593	0.34914	-0.142
Mof_H 	H 	0.3824	0.886	0.3166	0.089
Mof_C 	C 	0.37829	0.9002	0.41188	0.106
Mof_C 	C 	0.34874	0.89786	0.46051	-0.143
Mof_H 	H 	0.3583	0.9059	0.5046	0.08
Mof_C 	C 	0.30567	0.88378	0.44357	0.065
Mof_H 	H 	0.286	0.8832	0.476	0.024
Mof_C 	C 	0.42568	0.9202	0.42866	-0.069
Mof_C 	C 	0.4455	0.95817	0.46489	-0.04
Mof_H 	H 	0.4285	0.9709	0.4782	0.044
Mof_H 	H 	0.4343	0.8231	0.4432	-0.017
Mof_H 	H 	0.4138	0.7823	0.3373	0.169
Mof_O 	O 	0.88725	0.19072	0.74136	-0.411
Mof_O 	O 	0.89993	0.17795	0.63781	-0.412
Mof_C 	C 	0.91128	0.18986	0.69602	0.371
Mof_C 	C 	0.95766	0.20392	0.71406	-0.129
Mof_C 	C 	0.98645	0.20483	0.66618	0.062
Mof_H 	H 	0.97647	0.19563	0.62253	0.023
Mof_C 	C 	0.02969	0.21926	0.68247	-0.141
Mof_H 	H 	0.04907	0.21933	0.64993	0.089
Mof_C 	C 	0.04496	0.23353	0.74521	0.105
Mof_C 	C 	0.01541	0.23119	0.79384	-0.142
Mof_H 	H 	0.02497	0.23923	0.83793	0.08
Mof_C 	C 	0.97234	0.21711	0.7769	0.065
Mof_H 	H 	0.95267	0.21653	0.80933	0.024
Mof_C 	C 	0.09235	0.25353	0.76199	-0.069
Mof_C 	C 	0.11217	0.2915	0.79822	-0.04
Mof_H 	H 	0.09517	0.30423	0.81153	0.044
Mof_H 	H 	0.10097	0.15643	0.77653	-0.017
Mof_H 	H 	0.08047	0.11563	0.67063	0.169
Mof_O 	O 	0.55391	0.52406	0.0747	-0.411
Mof_O 	O 	0.56659	0.51129	0.97115	-0.412
Mof_C 	C 	0.57794	0.5232	0.02936	0.371
Mof_C 	C 	0.62432	0.53726	0.0474	-0.129
Mof_C 	C 	0.65311	0.53817	0.99952	0.062
Mof_H 	H 	0.64313	0.52897	0.95587	0.023
Mof_C 	C 	0.69635	0.5526	0.01581	-0.141
Mof_H 	H 	0.71573	0.55267	0.98327	0.089
Mof_C 	C 	0.71162	0.56687	0.07855	0.105
Mof_C 	C 	0.68207	0.56453	0.12718	-0.143
Mof_H 	H 	0.69163	0.57257	0.17127	0.08
Mof_C 	C 	0.639	0.55045	0.11024	0.065
Mof_H 	H 	0.61933	0.54987	0.14267	0.024
Mof_C 	C 	0.75901	0.58687	0.09533	-0.069
Mof_C 	C 	0.77883	0.62484	0.13156	-0.04
Mof_H 	H 	0.76183	0.63757	0.14487	0.044
Mof_H 	H 	0.76763	0.48977	0.10987	-0.017
Mof_H 	H 	0.74713	0.44897	0.00397	0.169
Mof_O 	O 	0.14261	0.36319	0.40803	-0.411
Mof_O 	O 	0.15538	0.38864	0.30448	-0.412
Mof_C 	C 	0.14347	0.38808	0.36269	0.371
Mof_C 	C 	0.12941	0.4204	0.38073	-0.13
Mof_C 	C 	0.1285	0.44828	0.33285	0.063
Mof_H 	H 	0.1377	0.4475	0.2892	0.023
Mof_C 	C 	0.11407	0.47709	0.34914	-0.142
Mof_H 	H 	0.114	0.4964	0.3166	0.089
Mof_C 	C 	0.0998	0.47809	0.41188	0.106
Mof_C 	C 	0.10214	0.45088	0.46051	-0.143
Mof_H 	H 	0.0941	0.4524	0.5046	0.08
Mof_C 	C 	0.11622	0.42189	0.44357	0.065
Mof_H 	H 	0.1168	0.4028	0.476	0.024
Mof_C 	C 	0.0798	0.50548	0.42866	-0.069
Mof_C 	C 	0.04183	0.48733	0.46489	-0.04
Mof_H 	H 	0.0291	0.4576	0.4782	0.044
Mof_H 	H 	0.1769	0.6112	0.4432	-0.017
Mof_H 	H 	0.2177	0.6315	0.3373	0.169
Mof_O 	O 	0.80928	0.69652	0.74136	-0.411
Mof_O 	O 	0.82205	0.72197	0.63781	-0.412
Mof_C 	C 	0.81014	0.72141	0.69602	0.371
Mof_C 	C 	0.79608	0.75373	0.71406	-0.13
Mof_C 	C 	0.79517	0.78161	0.66618	0.063
Mof_H 	H 	0.80437	0.78083	0.62253	0.023
Mof_C 	C 	0.78074	0.81042	0.68247	-0.142
Mof_H 	H 	0.78067	0.82973	0.64993	0.089
Mof_C 	C 	0.76647	0.81142	0.74521	0.106
Mof_C 	C 	0.76881	0.78421	0.79384	-0.143
Mof_H 	H 	0.76077	0.78573	0.83793	0.08
Mof_C 	C 	0.78289	0.75522	0.7769	0.065
Mof_H 	H 	0.78347	0.73613	0.80933	0.024
Mof_C 	C 	0.74647	0.83881	0.76199	-0.069
Mof_C 	C 	0.7085	0.82066	0.79822	-0.04
Mof_H 	H 	0.69577	0.79093	0.81153	0.044
Mof_H 	H 	0.84357	0.94453	0.77653	-0.017
Mof_H 	H 	0.88437	0.96483	0.67063	0.169
Mof_O 	O 	0.47594	0.02986	0.0747	-0.411
Mof_O 	O 	0.48871	0.05531	0.97115	-0.412
Mof_C 	C 	0.4768	0.05475	0.02936	0.371
Mof_C 	C 	0.46274	0.08707	0.0474	-0.129
Mof_C 	C 	0.46183	0.11495	0.99952	0.061
Mof_H 	H 	0.47103	0.11417	0.95587	0.023
Mof_C 	C 	0.4474	0.14376	0.01581	-0.14
Mof_H 	H 	0.44733	0.16307	0.98327	0.089
Mof_C 	C 	0.43313	0.14476	0.07855	0.105
Mof_C 	C 	0.43547	0.11755	0.12718	-0.142
Mof_H 	H 	0.42743	0.11907	0.17127	0.08
Mof_C 	C 	0.44955	0.08856	0.11024	0.065
Mof_H 	H 	0.45013	0.06947	0.14267	0.024
Mof_C 	C 	0.41313	0.17215	0.09533	-0.069
Mof_C 	C 	0.37516	0.154	0.13156	-0.041
Mof_H 	H 	0.36243	0.12427	0.14487	0.044
Mof_H 	H 	0.51023	0.27787	0.10987	-0.017
Mof_H 	H 	0.55103	0.29817	0.00397	0.169
Mof_O 	O 	0.77942	0.63681	0.59197	-0.411
Mof_O 	O 	0.76674	0.61136	0.69552	-0.412
Mof_C 	C 	0.75539	0.61192	0.63731	0.371
Mof_C 	C 	0.70901	0.5796	0.61927	-0.13
Mof_C 	C 	0.68022	0.55172	0.66715	0.063
Mof_H 	H 	0.6902	0.5525	0.7108	0.023
Mof_C 	C 	0.63698	0.52291	0.65086	-0.142
Mof_H 	H 	0.6176	0.5036	0.6834	0.089
Mof_C 	C 	0.62171	0.52191	0.58812	0.106
Mof_C 	C 	0.65126	0.54912	0.53949	-0.143
Mof_H 	H 	0.6417	0.5476	0.4954	0.08
Mof_C 	C 	0.69433	0.57811	0.55643	0.065
Mof_H 	H 	0.714	0.5972	0.524	0.024
Mof_C 	C 	0.57432	0.49452	0.57134	-0.069
Mof_C 	C 	0.5545	0.51267	0.53511	-0.04
Mof_H 	H 	0.5715	0.5424	0.5218	0.044
Mof_H 	H 	0.5657	0.3888	0.5568	-0.017
Mof_H 	H 	0.5862	0.3685	0.6627	0.169
Mof_O 	O 	0.44609	0.97014	0.9253	-0.411
Mof_O 	O 	0.43341	0.94469	0.02885	-0.412
Mof_C 	C 	0.42206	0.94525	0.97064	0.371
Mof_C 	C 	0.37568	0.91293	0.9526	-0.128
Mof_C 	C 	0.34689	0.88505	0.00048	0.06
Mof_H 	H 	0.35687	0.88583	0.04413	0.024
Mof_C 	C 	0.30365	0.85624	0.98419	-0.139
Mof_H 	H 	0.28427	0.83693	0.01673	0.088
Mof_C 	C 	0.28838	0.85524	0.92145	0.104
Mof_C 	C 	0.31793	0.88245	0.87282	-0.142
Mof_H 	H 	0.30837	0.88093	0.82873	0.08
Mof_C 	C 	0.361	0.91144	0.88976	0.064
Mof_H 	H 	0.38067	0.93053	0.85733	0.025
Mof_C 	C 	0.24099	0.82785	0.90467	-0.068
Mof_C 	C 	0.22117	0.846	0.86844	-0.041
Mof_H 	H 	0.23817	0.87573	0.85513	0.044
Mof_H 	H 	0.23237	0.72213	0.89013	-0.017
Mof_H 	H 	0.25287	0.70183	0.99603	0.17
Mof_O 	O 	0.11275	0.30348	0.25864	-0.411
Mof_O 	O 	0.10007	0.27803	0.36219	-0.412
Mof_C 	C 	0.08872	0.27859	0.30398	0.371
Mof_C 	C 	0.04234	0.24627	0.28594	-0.129
Mof_C 	C 	0.01355	0.21839	0.33382	0.062
Mof_H 	H 	0.02353	0.21917	0.37747	0.023
Mof_C 	C 	0.97031	0.18958	0.31753	-0.141
Mof_H 	H 	0.95093	0.17027	0.35007	0.089
Mof_C 	C 	0.95504	0.18858	0.25479	0.105
Mof_C 	C 	0.98459	0.21579	0.20616	-0.142
Mof_H 	H 	0.97503	0.21427	0.16207	0.08
Mof_C 	C 	0.02766	0.24478	0.2231	0.065
Mof_H 	H 	0.04733	0.26387	0.19067	0.024
Mof_C 	C 	0.90765	0.16119	0.23801	-0.069
Mof_C 	C 	0.88783	0.17934	0.20178	-0.04
Mof_H 	H 	0.90483	0.20907	0.18847	0.044
Mof_H 	H 	0.89903	0.05547	0.22347	-0.017
Mof_H 	H 	0.91953	0.03517	0.32937	0.169
Mof_O 	O 	0.85739	0.22058	0.59197	-0.411
Mof_O 	O 	0.84462	0.23326	0.69552	-0.412
Mof_C 	C 	0.85653	0.24461	0.63731	0.371
Mof_C 	C 	0.87059	0.29099	0.61927	-0.13
Mof_C 	C 	0.8715	0.31978	0.66715	0.063
Mof_H 	H 	0.8623	0.3098	0.7108	0.023
Mof_C 	C 	0.88593	0.36302	0.65086	-0.142
Mof_H 	H 	0.886	0.3824	0.6834	0.089
Mof_C 	C 	0.9002	0.37829	0.58812	0.106
Mof_C 	C 	0.89786	0.34874	0.53949	-0.143
Mof_H 	H 	0.9059	0.3583	0.4954	0.08
Mof_C 	C 	0.88378	0.30567	0.55643	0.065
Mof_H 	H 	0.8832	0.286	0.524	0.024
Mof_C 	C 	0.9202	0.42568	0.57134	-0.069
Mof_C 	C 	0.95817	0.4455	0.53511	-0.04
Mof_H 	H 	0.9709	0.4285	0.5218	0.044
Mof_H 	H 	0.8231	0.4343	0.5568	-0.017
Mof_H 	H 	0.7823	0.4138	0.6627	0.169
Mof_O 	O 	0.52406	0.55391	0.9253	-0.411
Mof_O 	O 	0.51129	0.56659	0.02885	-0.412
Mof_C 	C 	0.5232	0.57794	0.97064	0.371
Mof_C 	C 	0.53726	0.62432	0.9526	-0.129
Mof_C 	C 	0.53817	0.65311	0.00048	0.062
Mof_H 	H 	0.52897	0.64313	0.04413	0.023
Mof_C 	C 	0.5526	0.69635	0.98419	-0.141
Mof_H 	H 	0.55267	0.71573	0.01673	0.089
Mof_C 	C 	0.56687	0.71162	0.92145	0.105
Mof_C 	C 	0.56453	0.68207	0.87282	-0.143
Mof_H 	H 	0.57257	0.69163	0.82873	0.08
Mof_C 	C 	0.55045	0.639	0.88976	0.065
Mof_H 	H 	0.54987	0.61933	0.85733	0.024
Mof_C 	C 	0.58687	0.75901	0.90467	-0.069
Mof_C 	C 	0.62484	0.77883	0.86844	-0.04
Mof_H 	H 	0.63757	0.76183	0.85513	0.044
Mof_H 	H 	0.48977	0.76763	0.89013	-0.017
Mof_H 	H 	0.44897	0.74713	0.99603	0.169
Mof_O 	O 	0.19072	0.88725	0.25864	-0.411
Mof_O 	O 	0.17795	0.89993	0.36219	-0.412
Mof_C 	C 	0.18986	0.91128	0.30398	0.371
Mof_C 	C 	0.20392	0.95766	0.28594	-0.129
Mof_C 	C 	0.20483	0.98645	0.33382	0.062
Mof_H 	H 	0.19563	0.97647	0.37747	0.023
Mof_C 	C 	0.21926	0.02969	0.31753	-0.141
Mof_H 	H 	0.21933	0.04907	0.35007	0.089
Mof_C 	C 	0.23353	0.04496	0.25479	0.105
Mof_C 	C 	0.23119	0.01541	0.20616	-0.142
Mof_H 	H 	0.23923	0.02497	0.16207	0.08
Mof_C 	C 	0.21711	0.97234	0.2231	0.065
Mof_H 	H 	0.21653	0.95267	0.19067	0.024
Mof_C 	C 	0.25353	0.09235	0.23801	-0.069
Mof_C 	C 	0.2915	0.11217	0.20178	-0.04
Mof_H 	H 	0.30423	0.09517	0.18847	0.044
Mof_H 	H 	0.15643	0.10097	0.22347	-0.017
Mof_H 	H 	0.11563	0.08047	0.32937	0.169
Mof_O 	O 	0.36319	0.14261	0.59197	-0.411
Mof_O 	O 	0.38864	0.15538	0.69552	-0.412
Mof_C 	C 	0.38808	0.14347	0.63731	0.371
Mof_C 	C 	0.4204	0.12941	0.61927	-0.13
Mof_C 	C 	0.44828	0.1285	0.66715	0.063
Mof_H 	H 	0.4475	0.1377	0.7108	0.023
Mof_C 	C 	0.47709	0.11407	0.65086	-0.142
Mof_H 	H 	0.4964	0.114	0.6834	0.089
Mof_C 	C 	0.47809	0.0998	0.58812	0.106
Mof_C 	C 	0.45088	0.10214	0.53949	-0.143
Mof_H 	H 	0.4524	0.0941	0.4954	0.08
Mof_C 	C 	0.42189	0.11622	0.55643	0.065
Mof_H 	H 	0.4028	0.1168	0.524	0.024
Mof_C 	C 	0.50548	0.0798	0.57134	-0.069
Mof_C 	C 	0.48733	0.04183	0.53511	-0.04
Mof_H 	H 	0.4576	0.0291	0.5218	0.044
Mof_H 	H 	0.6112	0.1769	0.5568	-0.017
Mof_H 	H 	0.6315	0.2177	0.6627	0.169
Mof_O 	O 	0.02986	0.47594	0.9253	-0.411
Mof_O 	O 	0.05531	0.48871	0.02885	-0.412
Mof_C 	C 	0.05475	0.4768	0.97064	0.371
Mof_C 	C 	0.08707	0.46274	0.9526	-0.129
Mof_C 	C 	0.11495	0.46183	0.00048	0.061
Mof_H 	H 	0.11417	0.47103	0.04413	0.023
Mof_C 	C 	0.14376	0.4474	0.98419	-0.14
Mof_H 	H 	0.16307	0.44733	0.01673	0.089
Mof_C 	C 	0.14476	0.43313	0.92145	0.105
Mof_C 	C 	0.11755	0.43547	0.87282	-0.142
Mof_H 	H 	0.11907	0.42743	0.82873	0.08
Mof_C 	C 	0.08856	0.44955	0.88976	0.065
Mof_H 	H 	0.06947	0.45013	0.85733	0.024
Mof_C 	C 	0.17215	0.41313	0.90467	-0.069
Mof_C 	C 	0.154	0.37516	0.86844	-0.041
Mof_H 	H 	0.12427	0.36243	0.85513	0.044
Mof_H 	H 	0.27787	0.51023	0.89013	-0.017
Mof_H 	H 	0.29817	0.55103	0.99603	0.169
Mof_O 	O 	0.69652	0.80928	0.25864	-0.411
Mof_O 	O 	0.72197	0.82205	0.36219	-0.412
Mof_C 	C 	0.72141	0.81014	0.30398	0.371
Mof_C 	C 	0.75373	0.79608	0.28594	-0.13
Mof_C 	C 	0.78161	0.79517	0.33382	0.063
Mof_H 	H 	0.78083	0.80437	0.37747	0.023
Mof_C 	C 	0.81042	0.78074	0.31753	-0.142
Mof_H 	H 	0.82973	0.78067	0.35007	0.089
Mof_C 	C 	0.81142	0.76647	0.25479	0.106
Mof_C 	C 	0.78421	0.76881	0.20616	-0.143
Mof_H 	H 	0.78573	0.76077	0.16207	0.08
Mof_C 	C 	0.75522	0.78289	0.2231	0.065
Mof_H 	H 	0.73613	0.78347	0.19067	0.024
Mof_C 	C 	0.83881	0.74647	0.23801	-0.069
Mof_C 	C 	0.82066	0.7085	0.20178	-0.04
Mof_H 	H 	0.79093	0.69577	0.18847	0.044
Mof_H 	H 	0.94453	0.84357	0.22347	-0.017
Mof_H 	H 	0.96483	0.88437	0.32937	0.169
Mof_Cu	Cu	0.31866	0.15933	0.60574	0.904
Mof_Cu	Cu	0.98533	0.49266	0.93907	0.904
Mof_Cu	Cu	0.65199	0.826	0.27241	0.904
Mof_Cu	Cu	0.84067	0.15933	0.60574	0.904
Mof_Cu	Cu	0.50734	0.49266	0.93907	0.904
Mof_Cu	Cu	0.174	0.826	0.27241	0.904
Mof_Cu	Cu	0.84067	0.68134	0.60574	0.904
Mof_Cu	Cu	0.50734	0.01467	0.93907	0.904
Mof_Cu	Cu	0.174	0.34801	0.27241	0.904
Mof_Cu	Cu	0.15933	0.31866	0.39426	0.904
Mof_Cu	Cu	0.826	0.65199	0.72759	0.904
Mof_Cu	Cu	0.49266	0.98533	0.06093	0.904
Mof_Cu	Cu	0.15933	0.84067	0.39426	0.904
Mof_Cu	Cu	0.826	0.174	0.72759	0.904
Mof_Cu	Cu	0.49266	0.50734	0.06093	0.904
Mof_Cu	Cu	0.68134	0.84067	0.39426	0.904
Mof_Cu	Cu	0.34801	0.174	0.72759	0.904
Mof_Cu	Cu	0.01467	0.50734	0.06093	0.904
Mof_O 	O 	0.56912	0.43088	0.62465	-0.251
Mof_C 	C 	0.51064	0.48936	0.5171	0.005
Mof_C 	C 	0.54989	0.45011	0.5893	0.141
Mof_C 	C 	0.58818	0.41182	0.5852	0.182
Mof_C 	C 	0.6093	0.3907	0.6349	-0.481
Mof_H 	H 	0.6228	0.3772	0.609	0.158
Mof_O 	O 	0.23579	0.76421	0.95798	-0.25
Mof_C 	C 	0.17731	0.82269	0.85043	0.005
Mof_C 	C 	0.21656	0.78344	0.92263	0.141
Mof_C 	C 	0.25485	0.74515	0.91853	0.182
Mof_C 	C 	0.27597	0.72403	0.96823	-0.481
Mof_H 	H 	0.28947	0.71053	0.94233	0.158
Mof_O 	O 	0.90245	0.09755	0.29132	-0.25
Mof_C 	C 	0.84397	0.15603	0.18377	0.005
Mof_C 	C 	0.88322	0.11678	0.25597	0.141
Mof_C 	C 	0.92151	0.07849	0.25187	0.182
Mof_C 	C 	0.94263	0.05737	0.30157	-0.481
Mof_H 	H 	0.95613	0.04387	0.27567	0.158
Mof_O 	O 	0.56912	0.13824	0.62465	-0.251
Mof_C 	C 	0.51064	0.02128	0.5171	0.005
Mof_C 	C 	0.54989	0.09978	0.5893	0.141
Mof_C 	C 	0.58818	0.17636	0.5852	0.182
Mof_C 	C 	0.6093	0.2186	0.6349	-0.481
Mof_H 	H 	0.6228	0.2456	0.609	0.158
Mof_O 	O 	0.23579	0.47157	0.95798	-0.25
Mof_C 	C 	0.17731	0.35461	0.85043	0.005
Mof_C 	C 	0.21656	0.43311	0.92263	0.141
Mof_C 	C 	0.25485	0.50969	0.91853	0.182
Mof_C 	C 	0.27597	0.55193	0.96823	-0.481
Mof_H 	H 	0.28947	0.57893	0.94233	0.158
Mof_O 	O 	0.90245	0.80491	0.29132	-0.251
Mof_C 	C 	0.84397	0.68795	0.18377	0.005
Mof_C 	C 	0.88322	0.76645	0.25597	0.141
Mof_C 	C 	0.92151	0.84303	0.25187	0.182
Mof_C 	C 	0.94263	0.88527	0.30157	-0.481
Mof_H 	H 	0.95613	0.91227	0.27567	0.158
Mof_O 	O 	0.86176	0.43088	0.62465	-0.251
Mof_C 	C 	0.97872	0.48936	0.5171	0.005
Mof_C 	C 	0.90022	0.45011	0.5893	0.141
Mof_C 	C 	0.82364	0.41182	0.5852	0.182
Mof_C 	C 	0.7814	0.3907	0.6349	-0.481
Mof_H 	H 	0.7544	0.3772	0.609	0.158
Mof_O 	O 	0.52843	0.76421	0.95798	-0.25
Mof_C 	C 	0.64539	0.82269	0.85043	0.005
Mof_C 	C 	0.56689	0.78344	0.92263	0.141
Mof_C 	C 	0.49031	0.74515	0.91853	0.182
Mof_C 	C 	0.44807	0.72403	0.96823	-0.481
Mof_H 	H 	0.42107	0.71053	0.94233	0.158
Mof_O 	O 	0.19509	0.09755	0.29132	-0.251
Mof_C 	C 	0.31205	0.15603	0.18377	0.005
Mof_C 	C 	0.23355	0.11678	0.25597	0.141
Mof_C 	C 	0.15697	0.07849	0.25187	0.182
Mof_C 	C 	0.11473	0.05737	0.30157	-0.481
Mof_H 	H 	0.08773	0.04387	0.27567	0.158
Mof_O 	O 	0.43088	0.56912	0.37535	-0.251
Mof_C 	C 	0.48936	0.51064	0.4829	0.005
Mof_C 	C 	0.45011	0.54989	0.4107	0.141
Mof_C 	C 	0.41182	0.58818	0.4148	0.182
Mof_C 	C 	0.3907	0.6093	0.3651	-0.481
Mof_H 	H 	0.3772	0.6228	0.391	0.158
Mof_O 	O 	0.09755	0.90245	0.70868	-0.25
Mof_C 	C 	0.15603	0.84397	0.81623	0.005
Mof_C 	C 	0.11678	0.88322	0.74403	0.141
Mof_C 	C 	0.07849	0.92151	0.74813	0.182
Mof_C 	C 	0.05737	0.94263	0.69843	-0.481
Mof_H 	H 	0.04387	0.95613	0.72433	0.158
Mof_O 	O 	0.76421	0.23579	0.04202	-0.25
Mof_C 	C 	0.82269	0.17731	0.14957	0.005
Mof_C 	C 	0.78344	0.21656	0.07737	0.141
Mof_C 	C 	0.74515	0.25485	0.08147	0.182
Mof_C 	C 	0.72403	0.27597	0.03177	-0.481
Mof_H 	H 	0.71053	0.28947	0.05767	0.158
Mof_O 	O 	0.13824	0.56912	0.37535	-0.251
Mof_C 	C 	0.02128	0.51064	0.4829	0.005
Mof_C 	C 	0.09978	0.54989	0.4107	0.141
Mof_C 	C 	0.17636	0.58818	0.4148	0.182
Mof_C 	C 	0.2186	0.6093	0.3651	-0.481
Mof_H 	H 	0.2456	0.6228	0.391	0.158
Mof_O 	O 	0.80491	0.90245	0.70868	-0.251
Mof_C 	C 	0.68795	0.84397	0.81623	0.005
Mof_C 	C 	0.76645	0.88322	0.74403	0.141
Mof_C 	C 	0.84303	0.92151	0.74813	0.182
Mof_C 	C 	0.88527	0.94263	0.69843	-0.481
Mof_H 	H 	0.91227	0.95613	0.72433	0.158
Mof_O 	O 	0.47157	0.23579	0.04202	-0.25
Mof_C 	C 	0.35461	0.17731	0.14957	0.005
Mof_C 	C 	0.43311	0.21656	0.07737	0.141
Mof_C 	C 	0.50969	0.25485	0.08147	0.182
Mof_C 	C 	0.55193	0.27597	0.03177	-0.481
Mof_H 	H 	0.57893	0.28947	0.05767	0.158
Mof_O 	O 	0.43088	0.86176	0.37535	-0.251
Mof_C 	C 	0.48936	0.97872	0.4829	0.005
Mof_C 	C 	0.45011	0.90022	0.4107	0.141
Mof_C 	C 	0.41182	0.82364	0.4148	0.182
Mof_C 	C 	0.3907	0.7814	0.3651	-0.481
Mof_H 	H 	0.3772	0.7544	0.391	0.158
Mof_O 	O 	0.09755	0.19509	0.70868	-0.251
Mof_C 	C 	0.15603	0.31205	0.81623	0.005
Mof_C 	C 	0.11678	0.23355	0.74403	0.141
Mof_C 	C 	0.07849	0.15697	0.74813	0.182
Mof_C 	C 	0.05737	0.11473	0.69843	-0.481
Mof_H 	H 	0.04387	0.08773	0.72433	0.158
Mof_O 	O 	0.76421	0.52843	0.04202	-0.25
Mof_C 	C 	0.82269	0.64539	0.14957	0.005
Mof_C 	C 	0.78344	0.56689	0.07737	0.141
Mof_C 	C 	0.74515	0.49031	0.08147	0.182
Mof_C 	C 	0.72403	0.44807	0.03177	-0.481
Mof_H 	H 	0.71053	0.42107	0.05767	0.158
_end
