data_functionalizedCrystal
_audit_creation_method	'EQeq! by Chris Wilmer'
_symmetry_space_group_name_H-M	'P1'
_symmetry_Int_Tables_number	1
_symmetry_cell_setting	triclinic
loop_
_symmetry_equiv_pos_as_xyz
  x,y,z
_cell_length_a	13.678
_cell_length_b	10.318
_cell_length_c	17.357
_cell_angle_alpha	90
_cell_angle_beta	90
_cell_angle_gamma	90
loop_
_atom_site_label
_atom_site_type_symbol
_atom_site_fract_x
_atom_site_fract_y
_atom_site_fract_z
_atom_site_charge
Mof_P 	P 	0.93297	0.63141	0.4219	2.029
Mof_P 	P 	0.9642	0.12616	0.33245	1.778
Mof_P 	P 	0.25318	0.37177	0.29446	2.049
Mof_Al	Al	0.06149	0.37418	0.39302	8.152
Mof_Al	Al	0.98219	0.3276	0.19928	7.585
Mof_Al	Al	0.73927	0.1292	0.30503	8.07
Mof_O 	O 	0.0126	0.4031	0.2917	-3.006
Mof_O 	O 	0.8537	0.1355	0.3475	-2.426
Mof_O 	O 	0.0128	0.2141	0.39224	-2.143
Mof_O 	O 	0.3532	0.3226	0.3175	-2.212
Mof_O 	O 	0.1881	0.3703	0.3651	-2.177
Mof_O 	O 	0.8428	0.5854	0.3768	-2.453
Mof_O 	O 	0.0126	0.5296	0.4162	-2.26
Mof_O 	O 	0.9023	0.6523	0.5049	-1.961
Mof_O 	O 	0.9675	0.759	0.388	-2.053
Mof_O 	O 	0.9984	0.9891	0.3471	-1.762
Mof_O 	O 	0.2094	0.2825	0.2318	-2.598
Mof_O 	O 	0.2603	0.5101	0.2649	-2.524
Mof_O 	O 	0.989	0.167	0.2497	-2.054
Mof_P 	P 	0.56703	0.36859	0.9219	2.034
Mof_P 	P 	0.5358	0.87384	0.83245	1.829
Mof_P 	P 	0.24682	0.62823	0.79446	2.047
Mof_Al	Al	0.43851	0.62582	0.89302	8.168
Mof_Al	Al	0.51781	0.6724	0.69928	7.646
Mof_Al	Al	0.76073	0.8708	0.80503	8.094
Mof_O 	O 	0.4874	0.5969	0.7917	-3.026
Mof_O 	O 	0.6463	0.8645	0.8475	-2.43
Mof_O 	O 	0.4872	0.7859	0.89224	-2.167
Mof_O 	O 	0.1468	0.6774	0.8175	-2.203
Mof_O 	O 	0.3119	0.6297	0.8651	-2.182
Mof_O 	O 	0.6572	0.4146	0.8768	-2.453
Mof_O 	O 	0.4874	0.4704	0.9162	-2.263
Mof_O 	O 	0.5977	0.3477	0.0049	-1.966
Mof_O 	O 	0.5325	0.241	0.888	-2.098
Mof_O 	O 	0.5016	0.0109	0.8471	-1.828
Mof_O 	O 	0.2906	0.7175	0.7318	-2.596
Mof_O 	O 	0.2397	0.4899	0.7649	-2.528
Mof_O 	O 	0.511	0.833	0.7497	-2.06
Mof_P 	P 	0.06703	0.13141	0.0781	2.069
Mof_P 	P 	0.0358	0.62616	0.16755	1.805
Mof_P 	P 	0.74682	0.87177	0.20554	2.056
Mof_Al	Al	0.93851	0.87418	0.10698	8.214
Mof_Al	Al	0.01781	0.8276	0.30072	7.471
Mof_Al	Al	0.26073	0.6292	0.19497	8.071
Mof_O 	O 	0.9874	0.9031	0.2083	-2.989
Mof_O 	O 	0.1463	0.6355	0.1525	-2.427
Mof_O 	O 	0.9872	0.7141	0.10776	-2.168
Mof_O 	O 	0.6468	0.8226	0.1825	-2.214
Mof_O 	O 	0.8119	0.8703	0.1349	-2.19
Mof_O 	O 	0.1572	0.0854	0.1232	-2.452
Mof_O 	O 	0.9874	0.0296	0.0838	-2.298
Mof_O 	O 	0.0977	0.1523	0.9951	-1.983
Mof_O 	O 	0.0325	0.259	0.112	-2.08
Mof_O 	O 	0.0016	0.4891	0.1529	-1.803
Mof_O 	O 	0.7906	0.7825	0.2682	-2.595
Mof_O 	O 	0.7397	0.0101	0.2351	-2.531
Mof_O 	O 	0.011	0.667	0.2503	-2.034
Mof_P 	P 	0.43297	0.86859	0.5781	2.035
Mof_P 	P 	0.4642	0.37384	0.66755	1.821
Mof_P 	P 	0.75318	0.12823	0.70554	2.025
Mof_Al	Al	0.56149	0.12582	0.60698	8.15
Mof_Al	Al	0.48219	0.1724	0.80072	7.645
Mof_Al	Al	0.23927	0.3708	0.69497	8.086
Mof_O 	O 	0.5126	0.0969	0.7083	-3.026
Mof_O 	O 	0.3537	0.3645	0.6525	-2.429
Mof_O 	O 	0.5128	0.2859	0.60776	-2.163
Mof_O 	O 	0.8532	0.1774	0.6825	-2.184
Mof_O 	O 	0.6881	0.1297	0.6349	-2.179
Mof_O 	O 	0.3428	0.9146	0.6232	-2.454
Mof_O 	O 	0.5126	0.9704	0.5838	-2.257
Mof_O 	O 	0.4023	0.8477	0.4951	-1.965
Mof_O 	O 	0.4675	0.741	0.612	-2.094
Mof_O 	O 	0.4984	0.5109	0.6529	-1.817
Mof_O 	O 	0.7094	0.2175	0.7682	-2.597
Mof_O 	O 	0.7603	0.9899	0.7351	-2.512
Mof_O 	O 	0.489	0.333	0.7503	-2.06
Mof_P 	P 	0.06703	0.36859	0.5781	2.03
Mof_P 	P 	0.0358	0.87384	0.66755	1.779
Mof_P 	P 	0.74682	0.62823	0.70554	2.049
Mof_Al	Al	0.93851	0.62582	0.60698	8.152
Mof_Al	Al	0.01781	0.6724	0.80072	7.585
Mof_Al	Al	0.26073	0.8708	0.69497	8.07
Mof_O 	O 	0.9874	0.5969	0.7083	-3.006
Mof_O 	O 	0.1463	0.8645	0.6525	-2.426
Mof_O 	O 	0.9872	0.7859	0.60776	-2.143
Mof_O 	O 	0.6468	0.6774	0.6825	-2.212
Mof_O 	O 	0.8119	0.6297	0.6349	-2.177
Mof_O 	O 	0.1572	0.4146	0.6232	-2.453
Mof_O 	O 	0.9874	0.4704	0.5838	-2.26
Mof_O 	O 	0.0977	0.3477	0.4951	-1.961
Mof_O 	O 	0.0325	0.241	0.612	-2.053
Mof_O 	O 	0.0016	0.0109	0.6529	-1.762
Mof_O 	O 	0.7906	0.7175	0.7682	-2.598
Mof_O 	O 	0.7397	0.4899	0.7351	-2.524
Mof_O 	O 	0.011	0.833	0.7503	-2.054
Mof_P 	P 	0.43297	0.63141	0.0781	2.034
Mof_P 	P 	0.4642	0.12616	0.16755	1.829
Mof_P 	P 	0.75318	0.37177	0.20554	2.047
Mof_Al	Al	0.56149	0.37418	0.10698	8.168
Mof_Al	Al	0.48219	0.3276	0.30072	7.646
Mof_Al	Al	0.23927	0.1292	0.19497	8.094
Mof_O 	O 	0.5126	0.4031	0.2083	-3.026
Mof_O 	O 	0.3537	0.1355	0.1525	-2.43
Mof_O 	O 	0.5128	0.2141	0.10776	-2.167
Mof_O 	O 	0.8532	0.3226	0.1825	-2.203
Mof_O 	O 	0.6881	0.3703	0.1349	-2.182
Mof_O 	O 	0.3428	0.5854	0.1232	-2.453
Mof_O 	O 	0.5126	0.5296	0.0838	-2.263
Mof_O 	O 	0.4023	0.6523	0.9951	-1.966
Mof_O 	O 	0.4675	0.759	0.112	-2.098
Mof_O 	O 	0.4984	0.9891	0.1529	-1.828
Mof_O 	O 	0.7094	0.2825	0.2682	-2.596
Mof_O 	O 	0.7603	0.5101	0.2351	-2.528
Mof_O 	O 	0.489	0.167	0.2503	-2.06
Mof_P 	P 	0.93297	0.86859	0.9219	2.069
Mof_P 	P 	0.9642	0.37384	0.83245	1.805
Mof_P 	P 	0.25318	0.12823	0.79446	2.056
Mof_Al	Al	0.06149	0.12582	0.89302	8.214
Mof_Al	Al	0.98219	0.1724	0.69928	7.471
Mof_Al	Al	0.73927	0.3708	0.80503	8.071
Mof_O 	O 	0.0126	0.0969	0.7917	-2.989
Mof_O 	O 	0.8537	0.3645	0.8475	-2.427
Mof_O 	O 	0.0128	0.2859	0.89224	-2.168
Mof_O 	O 	0.3532	0.1774	0.8175	-2.214
Mof_O 	O 	0.1881	0.1297	0.8651	-2.19
Mof_O 	O 	0.8428	0.9146	0.8768	-2.452
Mof_O 	O 	0.0126	0.9704	0.9162	-2.298
Mof_O 	O 	0.9023	0.8477	0.0049	-1.983
Mof_O 	O 	0.9675	0.741	0.888	-2.08
Mof_O 	O 	0.9984	0.5109	0.8471	-1.803
Mof_O 	O 	0.2094	0.2175	0.7318	-2.595
Mof_O 	O 	0.2603	0.9899	0.7649	-2.531
Mof_O 	O 	0.989	0.333	0.7497	-2.034
Mof_P 	P 	0.56703	0.13141	0.4219	2.035
Mof_P 	P 	0.5358	0.62616	0.33245	1.821
Mof_P 	P 	0.24682	0.87177	0.29446	2.025
Mof_Al	Al	0.43851	0.87418	0.39302	8.15
Mof_Al	Al	0.51781	0.8276	0.19928	7.645
Mof_Al	Al	0.76073	0.6292	0.30503	8.086
Mof_O 	O 	0.4874	0.9031	0.2917	-3.026
Mof_O 	O 	0.6463	0.6355	0.3475	-2.429
Mof_O 	O 	0.4872	0.7141	0.39224	-2.163
Mof_O 	O 	0.1468	0.8226	0.3175	-2.184
Mof_O 	O 	0.3119	0.8703	0.3651	-2.179
Mof_O 	O 	0.6572	0.0854	0.3768	-2.454
Mof_O 	O 	0.4874	0.0296	0.4162	-2.257
Mof_O 	O 	0.5977	0.1523	0.5049	-1.965
Mof_O 	O 	0.5325	0.259	0.388	-2.094
Mof_O 	O 	0.5016	0.4891	0.3471	-1.817
Mof_O 	O 	0.2906	0.7825	0.2318	-2.597
Mof_O 	O 	0.2397	0.0101	0.2649	-2.512
Mof_O 	O 	0.511	0.667	0.2497	-2.06
_end
