# CIF file generated by openbabel 3.1.0, see https://openbabel.org
data_I
_chemical_name_common 'image0'
_cell_length_a 20.9335
_cell_length_b 20.9335
_cell_length_c 20.9335
_cell_angle_alpha 115.808
_cell_angle_beta 115.808
_cell_angle_gamma 115.808
_space_group_name_H-M_alt 'P 1'
_space_group_name_Hall 'P 1'
loop_
    _symmetry_equiv_pos_as_xyz
    x,y,z
loop_
    _atom_site_label
    _atom_site_type_symbol
    _atom_site_fract_x
    _atom_site_fract_y
    _atom_site_fract_z
    _atom_site_occupancy
    Cu1      Cu       0.59538    0.92375    0.75224    1.000
    Cu2      Cu       0.54775    0.01271    0.65121    1.000
    O1       O        0.49360    0.88140    0.53730    1.000
    O2       O        0.52720    0.82790    0.60610    1.000
    O3       O        0.72440    0.05850    0.82020    1.000
    O4       O        0.70170    0.10470    0.74040    1.000
    O5       O        0.51070    0.96590    0.74030    1.000
    O6       O        0.40330    0.91380    0.58910    1.000
    N1       N        0.47570    0.78100    0.68810    1.000
    N2       N        0.68170    0.00730    0.90620    1.000
    N3       N        0.14480    0.73710    0.58590    1.000
    C1       C        0.41760    0.77350    0.70180    1.000
    H1       H        0.44280    0.83850    0.75220    1.000
    C2       C        0.32090    0.67310    0.64460    1.000
    H2       H        0.27970    0.66970    0.65360    1.000
    C3       C        0.28670    0.57790    0.57350    1.000
    C4       C        0.35020    0.58710    0.56400    1.000
    H3       H        0.33060    0.52480    0.51930    1.000
    C5       C        0.44330    0.68900    0.62070    1.000
    H4       H        0.48520    0.69420    0.61210    1.000
    C6       C        0.48790    0.81660    0.53160    1.000
    C7       C        0.70460    0.08930    0.97380    1.000
    H5       H        0.67550    0.10630    0.94680    1.000
    C8       C        0.91700    0.23010    0.84880    1.000
    H6       H        0.87180    0.21710    0.79250    1.000
    C9       C        0.87610    0.18470    0.87140    1.000
    C10      C        0.94570    0.20830    0.95660    1.000
    H7       H        0.92010    0.17870    0.97400    1.000
    C11      C        0.72360    0.98400    0.94600    1.000
    H8       H        0.70570    0.92440    0.89800    1.000
    C12      C        0.75700    0.10920    0.80470    1.000
    C13      C        0.25050    0.83230    0.69240    1.000
    H9       H        0.26280    0.85890    0.75090    1.000
    C14      C        0.34140    0.89170    0.71780    1.000
    H10      H        0.41420    0.95680    0.79230    1.000
    C15      C        0.32330    0.85380    0.63200    1.000
    C16      C        0.21600    0.75780    0.52390    1.000
    H11      H        0.20160    0.73070    0.46410    1.000
    C17      C        0.12980    0.70180    0.50450    1.000
    H12      H        0.05680    0.63560    0.43030    1.000
    C18      C        0.41980    0.91570    0.65610    1.000
    Cu3      Cu       0.75224    0.59538    0.92375    1.000
    Cu4      Cu       0.65121    0.54775    0.01271    1.000
    O7       O        0.53730    0.49360    0.88140    1.000
    O8       O        0.60610    0.52720    0.82790    1.000
    O9       O        0.82020    0.72440    0.05850    1.000
    O10      O        0.74040    0.70170    0.10470    1.000
    O11      O        0.74030    0.51070    0.96590    1.000
    O12      O        0.58910    0.40330    0.91380    1.000
    N4       N        0.68810    0.47570    0.78100    1.000
    N5       N        0.90620    0.68170    0.00730    1.000
    N6       N        0.58590    0.14480    0.73710    1.000
    C19      C        0.70180    0.41760    0.77350    1.000
    H13      H        0.75220    0.44280    0.83850    1.000
    C20      C        0.64460    0.32090    0.67310    1.000
    H14      H        0.65360    0.27970    0.66970    1.000
    C21      C        0.57350    0.28670    0.57790    1.000
    C22      C        0.56400    0.35020    0.58710    1.000
    H15      H        0.51930    0.33060    0.52480    1.000
    C23      C        0.62070    0.44330    0.68900    1.000
    H16      H        0.61210    0.48520    0.69420    1.000
    C24      C        0.53160    0.48790    0.81660    1.000
    C25      C        0.97380    0.70460    0.08930    1.000
    H17      H        0.94680    0.67550    0.10630    1.000
    C26      C        0.84880    0.91700    0.23010    1.000
    H18      H        0.79250    0.87180    0.21710    1.000
    C27      C        0.87140    0.87610    0.18470    1.000
    C28      C        0.95660    0.94570    0.20830    1.000
    H19      H        0.97400    0.92010    0.17870    1.000
    C29      C        0.94600    0.72360    0.98400    1.000
    H20      H        0.89800    0.70570    0.92440    1.000
    C30      C        0.80470    0.75700    0.10920    1.000
    C31      C        0.69240    0.25050    0.83230    1.000
    H21      H        0.75090    0.26280    0.85890    1.000
    C32      C        0.71780    0.34140    0.89170    1.000
    H22      H        0.79230    0.41420    0.95680    1.000
    C33      C        0.63200    0.32330    0.85380    1.000
    C34      C        0.52390    0.21600    0.75780    1.000
    H23      H        0.46410    0.20160    0.73070    1.000
    C35      C        0.50450    0.12980    0.70180    1.000
    H24      H        0.43030    0.05680    0.63560    1.000
    C36      C        0.65610    0.41980    0.91570    1.000
    Cu5      Cu       0.92375    0.75224    0.59538    1.000
    Cu6      Cu       0.01271    0.65121    0.54775    1.000
    O13      O        0.88140    0.53730    0.49360    1.000
    O14      O        0.82790    0.60610    0.52720    1.000
    O15      O        0.05850    0.82020    0.72440    1.000
    O16      O        0.10470    0.74040    0.70170    1.000
    O17      O        0.96590    0.74030    0.51070    1.000
    O18      O        0.91380    0.58910    0.40330    1.000
    N7       N        0.78100    0.68810    0.47570    1.000
    N8       N        0.00730    0.90620    0.68170    1.000
    N9       N        0.73710    0.58590    0.14480    1.000
    C37      C        0.77350    0.70180    0.41760    1.000
    H25      H        0.83850    0.75220    0.44280    1.000
    C38      C        0.67310    0.64460    0.32090    1.000
    H26      H        0.66970    0.65360    0.27970    1.000
    C39      C        0.57790    0.57350    0.28670    1.000
    C40      C        0.58710    0.56400    0.35020    1.000
    H27      H        0.52480    0.51930    0.33060    1.000
    C41      C        0.68900    0.62070    0.44330    1.000
    H28      H        0.69420    0.61210    0.48520    1.000
    C42      C        0.81660    0.53160    0.48790    1.000
    C43      C        0.08930    0.97380    0.70460    1.000
    H29      H        0.10630    0.94680    0.67550    1.000
    C44      C        0.23010    0.84880    0.91700    1.000
    H30      H        0.21710    0.79250    0.87180    1.000
    C45      C        0.18470    0.87140    0.87610    1.000
    C46      C        0.20830    0.95660    0.94570    1.000
    H31      H        0.17870    0.97400    0.92010    1.000
    C47      C        0.98400    0.94600    0.72360    1.000
    H32      H        0.92440    0.89800    0.70570    1.000
    C48      C        0.10920    0.80470    0.75700    1.000
    C49      C        0.83230    0.69240    0.25050    1.000
    H33      H        0.85890    0.75090    0.26280    1.000
    C50      C        0.89170    0.71780    0.34140    1.000
    H34      H        0.95680    0.79230    0.41420    1.000
    C51      C        0.85380    0.63200    0.32330    1.000
    C52      C        0.75780    0.52390    0.21600    1.000
    H35      H        0.73070    0.46410    0.20160    1.000
    C53      C        0.70180    0.50450    0.12980    1.000
    H36      H        0.63560    0.43030    0.05680    1.000
    C54      C        0.91570    0.65610    0.41980    1.000
    Cu7      Cu       0.40462    0.07625    0.24776    1.000
    Cu8      Cu       0.45225    0.98729    0.34879    1.000
    O19      O        0.50640    0.11860    0.46270    1.000
    O20      O        0.47280    0.17210    0.39390    1.000
    O21      O        0.27560    0.94150    0.17980    1.000
    O22      O        0.29830    0.89530    0.25960    1.000
    O23      O        0.48930    0.03410    0.25970    1.000
    O24      O        0.59670    0.08620    0.41090    1.000
    N10      N        0.52430    0.21900    0.31190    1.000
    N11      N        0.31830    0.99270    0.09380    1.000
    N12      N        0.85520    0.26290    0.41410    1.000
    C55      C        0.58240    0.22650    0.29820    1.000
    H37      H        0.55720    0.16150    0.24780    1.000
    C56      C        0.67910    0.32690    0.35540    1.000
    H38      H        0.72030    0.33030    0.34640    1.000
    C57      C        0.71330    0.42210    0.42650    1.000
    C58      C        0.64980    0.41290    0.43600    1.000
    H39      H        0.66940    0.47520    0.48070    1.000
    C59      C        0.55670    0.31100    0.37930    1.000
    H40      H        0.51480    0.30580    0.38790    1.000
    C60      C        0.51210    0.18340    0.46840    1.000
    C61      C        0.29540    0.91070    0.02620    1.000
    H41      H        0.32450    0.89370    0.05320    1.000
    C62      C        0.08300    0.76990    0.15120    1.000
    H42      H        0.12820    0.78290    0.20750    1.000
    C63      C        0.12390    0.81530    0.12860    1.000
    C64      C        0.05430    0.79170    0.04340    1.000
    H43      H        0.07990    0.82130    0.02600    1.000
    C65      C        0.27640    0.01600    0.05400    1.000
    H44      H        0.29430    0.07560    0.10200    1.000
    C66      C        0.24300    0.89080    0.19530    1.000
    C67      C        0.74950    0.16770    0.30760    1.000
    H45      H        0.73720    0.14110    0.24910    1.000
    C68      C        0.65860    0.10830    0.28220    1.000
    H46      H        0.58580    0.04320    0.20770    1.000
    C69      C        0.67670    0.14620    0.36800    1.000
    C70      C        0.78400    0.24220    0.47610    1.000
    H47      H        0.79840    0.26930    0.53590    1.000
    C71      C        0.87020    0.29820    0.49550    1.000
    H48      H        0.94320    0.36440    0.56970    1.000
    C72      C        0.58020    0.08430    0.34390    1.000
    Cu9      Cu       0.24776    0.40462    0.07625    1.000
    Cu10     Cu       0.34879    0.45225    0.98729    1.000
    O25      O        0.46270    0.50640    0.11860    1.000
    O26      O        0.39390    0.47280    0.17210    1.000
    O27      O        0.17980    0.27560    0.94150    1.000
    O28      O        0.25960    0.29830    0.89530    1.000
    O29      O        0.25970    0.48930    0.03410    1.000
    O30      O        0.41090    0.59670    0.08620    1.000
    N13      N        0.31190    0.52430    0.21900    1.000
    N14      N        0.09380    0.31830    0.99270    1.000
    N15      N        0.41410    0.85520    0.26290    1.000
    C73      C        0.29820    0.58240    0.22650    1.000
    H49      H        0.24780    0.55720    0.16150    1.000
    C74      C        0.35540    0.67910    0.32690    1.000
    H50      H        0.34640    0.72030    0.33030    1.000
    C75      C        0.42650    0.71330    0.42210    1.000
    C76      C        0.43600    0.64980    0.41290    1.000
    H51      H        0.48070    0.66940    0.47520    1.000
    C77      C        0.37930    0.55670    0.31100    1.000
    H52      H        0.38790    0.51480    0.30580    1.000
    C78      C        0.46840    0.51210    0.18340    1.000
    C79      C        0.02620    0.29540    0.91070    1.000
    H53      H        0.05320    0.32450    0.89370    1.000
    C80      C        0.15120    0.08300    0.76990    1.000
    H54      H        0.20750    0.12820    0.78290    1.000
    C81      C        0.12860    0.12390    0.81530    1.000
    C82      C        0.04340    0.05430    0.79170    1.000
    H55      H        0.02600    0.07990    0.82130    1.000
    C83      C        0.05400    0.27640    0.01600    1.000
    H56      H        0.10200    0.29430    0.07560    1.000
    C84      C        0.19530    0.24300    0.89080    1.000
    C85      C        0.30760    0.74950    0.16770    1.000
    H57      H        0.24910    0.73720    0.14110    1.000
    C86      C        0.28220    0.65860    0.10830    1.000
    H58      H        0.20770    0.58580    0.04320    1.000
    C87      C        0.36800    0.67670    0.14620    1.000
    C88      C        0.47610    0.78400    0.24220    1.000
    H59      H        0.53590    0.79840    0.26930    1.000
    C89      C        0.49550    0.87020    0.29820    1.000
    H60      H        0.56970    0.94320    0.36440    1.000
    C90      C        0.34390    0.58020    0.08430    1.000
    Cu11     Cu       0.07625    0.24776    0.40462    1.000
    Cu12     Cu       0.98729    0.34879    0.45225    1.000
    O31      O        0.11860    0.46270    0.50640    1.000
    O32      O        0.17210    0.39390    0.47280    1.000
    O33      O        0.94150    0.17980    0.27560    1.000
    O34      O        0.89530    0.25960    0.29830    1.000
    O35      O        0.03410    0.25970    0.48930    1.000
    O36      O        0.08620    0.41090    0.59670    1.000
    N16      N        0.21900    0.31190    0.52430    1.000
    N17      N        0.99270    0.09380    0.31830    1.000
    N18      N        0.26290    0.41410    0.85520    1.000
    C91      C        0.22650    0.29820    0.58240    1.000
    H61      H        0.16150    0.24780    0.55720    1.000
    C92      C        0.32690    0.35540    0.67910    1.000
    H62      H        0.33030    0.34640    0.72030    1.000
    C93      C        0.42210    0.42650    0.71330    1.000
    C94      C        0.41290    0.43600    0.64980    1.000
    H63      H        0.47520    0.48070    0.66940    1.000
    C95      C        0.31100    0.37930    0.55670    1.000
    H64      H        0.30580    0.38790    0.51480    1.000
    C96      C        0.18340    0.46840    0.51210    1.000
    C97      C        0.91070    0.02620    0.29540    1.000
    H65      H        0.89370    0.05320    0.32450    1.000
    C98      C        0.76990    0.15120    0.08300    1.000
    H66      H        0.78290    0.20750    0.12820    1.000
    C99      C        0.81530    0.12860    0.12390    1.000
    C100     C        0.79170    0.04340    0.05430    1.000
    H67      H        0.82130    0.02600    0.07990    1.000
    C101     C        0.01600    0.05400    0.27640    1.000
    H68      H        0.07560    0.10200    0.29430    1.000
    C102     C        0.89080    0.19530    0.24300    1.000
    C103     C        0.16770    0.30760    0.74950    1.000
    H69      H        0.14110    0.24910    0.73720    1.000
    C104     C        0.10830    0.28220    0.65860    1.000
    H70      H        0.04320    0.20770    0.58580    1.000
    C105     C        0.14620    0.36800    0.67670    1.000
    C106     C        0.24220    0.47610    0.78400    1.000
    H71      H        0.26930    0.53590    0.79840    1.000
    C107     C        0.29820    0.49550    0.87020    1.000
    H72      H        0.36440    0.56970    0.94320    1.000
    C108     C        0.08430    0.34390    0.58020    1.000
