# CIF file generated by openbabel 3.1.0, see https://openbabel.org
data_I
_chemical_name_common 'image0'
_cell_length_a 11.5408
_cell_length_b 16.159
_cell_length_c 12.0019
_cell_angle_alpha 90
_cell_angle_beta 112.733
_cell_angle_gamma 90
_space_group_name_H-M_alt 'P 1'
_space_group_name_Hall 'P 1'
loop_
    _symmetry_equiv_pos_as_xyz
    x,y,z
loop_
    _atom_site_label
    _atom_site_type_symbol
    _atom_site_fract_x
    _atom_site_fract_y
    _atom_site_fract_z
    _atom_site_occupancy
    Dy1      Dy       0.19449    0.02781    0.07878    1.000
    S1       S        0.05294    0.21891    0.71243    1.000
    S2       S        0.48925    0.28359    0.25072    1.000
    O1       O        0.12931    0.07623    0.87958    1.000
    O2       O        0.93691    0.02949    0.84311    1.000
    O3       O        0.05675    0.36373    0.56788    1.000
    O4       O        0.85725    0.40206    0.52329    1.000
    O5       O        0.27470    0.10433    0.27988    1.000
    O6       O        0.33740    0.13971    0.13568    1.000
    O7       O        0.64768    0.43479    0.29265    1.000
    O8       O        0.62348    0.47735    0.45693    1.000
    C1       C        0.95670    0.15240    0.74820    1.000
    C2       C        0.83380    0.17670    0.69870    1.000
    H1       H        0.76850    0.14830    0.70890    1.000
    C3       C        0.81780    0.24951    0.63080    1.000
    H2       H        0.74030    0.27490    0.59140    1.000
    C4       C        0.92760    0.27939    0.62820    1.000
    C5       C        0.01160    0.08146    0.82880    1.000
    C6       C        0.94910    0.35410    0.56860    1.000
    C7       C        0.39290    0.22804    0.30340    1.000
    C8       C        0.38290    0.26540    0.40080    1.000
    H3       H        0.33480    0.24430    0.44120    1.000
    C9       C        0.45210    0.33871    0.43410    1.000
    H4       H        0.45440    0.37190    0.49820    1.000
    C10      C        0.51620    0.35627    0.36210    1.000
    C11      C        0.33120    0.15247    0.23730    1.000
    C12      C        0.60010    0.42727    0.37090    1.000
    Dy2      Dy       0.80551    0.52781    0.42122    1.000
    S3       S        0.94706    0.71891    0.78757    1.000
    S4       S        0.51075    0.78359    0.24928    1.000
    O9       O        0.87069    0.57623    0.62042    1.000
    O10      O        0.06309    0.52949    0.65689    1.000
    O11      O        0.94325    0.86373    0.93212    1.000
    O12      O        0.14275    0.90206    0.97671    1.000
    O13      O        0.72530    0.60433    0.22012    1.000
    O14      O        0.66260    0.63971    0.36432    1.000
    O15      O        0.35232    0.93479    0.20735    1.000
    O16      O        0.37652    0.97735    0.04307    1.000
    C13      C        0.04330    0.65240    0.75180    1.000
    C14      C        0.16620    0.67670    0.80130    1.000
    H5       H        0.23150    0.64830    0.79110    1.000
    C15      C        0.18220    0.74951    0.86920    1.000
    H6       H        0.25970    0.77490    0.90860    1.000
    C16      C        0.07240    0.77939    0.87180    1.000
    C17      C        0.98840    0.58146    0.67120    1.000
    C18      C        0.05090    0.85410    0.93140    1.000
    C19      C        0.60710    0.72804    0.19660    1.000
    C20      C        0.61710    0.76540    0.09920    1.000
    H7       H        0.66520    0.74430    0.05880    1.000
    C21      C        0.54790    0.83871    0.06590    1.000
    H8       H        0.54560    0.87190    0.00180    1.000
    C22      C        0.48380    0.85627    0.13790    1.000
    C23      C        0.66880    0.65247    0.26270    1.000
    C24      C        0.39990    0.92727    0.12910    1.000
    Dy3      Dy       0.80551    0.97219    0.92122    1.000
    S5       S        0.94706    0.78109    0.28757    1.000
    S6       S        0.51075    0.71641    0.74928    1.000
    O17      O        0.87069    0.92377    0.12042    1.000
    O18      O        0.06309    0.97051    0.15689    1.000
    O19      O        0.94325    0.63627    0.43212    1.000
    O20      O        0.14275    0.59794    0.47671    1.000
    O21      O        0.72530    0.89567    0.72012    1.000
    O22      O        0.66260    0.86029    0.86432    1.000
    O23      O        0.35232    0.56521    0.70735    1.000
    O24      O        0.37652    0.52265    0.54307    1.000
    C25      C        0.04330    0.84760    0.25180    1.000
    C26      C        0.16620    0.82330    0.30130    1.000
    H9       H        0.23150    0.85170    0.29110    1.000
    C27      C        0.18220    0.75049    0.36920    1.000
    H10      H        0.25970    0.72510    0.40860    1.000
    C28      C        0.07240    0.72061    0.37180    1.000
    C29      C        0.98840    0.91854    0.17120    1.000
    C30      C        0.05090    0.64590    0.43140    1.000
    C31      C        0.60710    0.77196    0.69660    1.000
    C32      C        0.61710    0.73460    0.59920    1.000
    H11      H        0.66520    0.75570    0.55880    1.000
    C33      C        0.54790    0.66129    0.56590    1.000
    H12      H        0.54560    0.62810    0.50180    1.000
    C34      C        0.48380    0.64373    0.63790    1.000
    C35      C        0.66880    0.84753    0.76270    1.000
    C36      C        0.39990    0.57273    0.62910    1.000
    Dy4      Dy       0.19449    0.47219    0.57878    1.000
    S7       S        0.05294    0.28109    0.21243    1.000
    S8       S        0.48925    0.21641    0.75072    1.000
    O25      O        0.12931    0.42377    0.37958    1.000
    O26      O        0.93691    0.47051    0.34311    1.000
    O27      O        0.05675    0.13627    0.06788    1.000
    O28      O        0.85725    0.09794    0.02329    1.000
    O29      O        0.27470    0.39567    0.77988    1.000
    O30      O        0.33740    0.36029    0.63568    1.000
    O31      O        0.64768    0.06521    0.79265    1.000
    O32      O        0.62348    0.02265    0.95693    1.000
    C37      C        0.95670    0.34760    0.24820    1.000
    C38      C        0.83380    0.32330    0.19870    1.000
    H13      H        0.76850    0.35170    0.20890    1.000
    C39      C        0.81780    0.25049    0.13080    1.000
    H14      H        0.74030    0.22510    0.09140    1.000
    C40      C        0.92760    0.22061    0.12820    1.000
    C41      C        0.01160    0.41854    0.32880    1.000
    C42      C        0.94910    0.14590    0.06860    1.000
    C43      C        0.39290    0.27196    0.80340    1.000
    C44      C        0.38290    0.23460    0.90080    1.000
    H15      H        0.33480    0.25570    0.94120    1.000
    C45      C        0.45210    0.16129    0.93410    1.000
    H16      H        0.45440    0.12810    0.99820    1.000
    C46      C        0.51620    0.14373    0.86210    1.000
    C47      C        0.33120    0.34753    0.73730    1.000
    C48      C        0.60010    0.07273    0.87090    1.000
