# CIF file generated by openbabel 3.1.0, see https://openbabel.org
data_I
_chemical_name_common 'image0'
_cell_length_a 49.59
_cell_length_b 49.59
_cell_length_c 9.9168
_cell_angle_alpha 90
_cell_angle_beta 90
_cell_angle_gamma 120
_space_group_name_H-M_alt 'P 1'
_space_group_name_Hall 'P 1'
loop_
    _symmetry_equiv_pos_as_xyz
    x,y,z
loop_
    _atom_site_label
    _atom_site_type_symbol
    _atom_site_fract_x
    _atom_site_fract_y
    _atom_site_fract_z
    _atom_site_occupancy
    In1      In       0.20666    0.79351    0.49976    1.000
    In2      In       0.16499    0.58257    0.50060    1.000
    Ni1      Ni       0.06598    0.82059    0.17760    1.000
    Ni2      Ni       0.06543    0.82072    0.82260    1.000
    O1       O        0.18720    0.81550    0.63890    1.000
    O2       O        0.21090    0.79070    0.75160    1.000
    O3       O        0.20980    0.78990    0.25410    1.000
    O4       O        0.15510    0.57620    0.72500    1.000
    O5       O        0.18610    0.81430    0.36080    1.000
    O6       O        0.12270    0.58760    0.49810    1.000
    O7       O        0.41170    0.87770    0.49450    1.000
    O8       O        0.19700    0.74390    0.49670    1.000
    O9       O        0.24550    0.84480    0.50100    1.000
    O10      O        0.15580    0.75530    0.49760    1.000
    O11      O        0.25690    0.80510    0.49860    1.000
    O12      O        0.37780    0.96630    0.49580    1.000
    O13      O        0.36830    0.83290    0.49830    1.000
    O14      O        0.33210    0.94880    0.50770    1.000
    O15      O        0.21160    0.60450    0.66100    1.000
    O16      O        0.05940    0.83560    0.01100    1.000
    O17      O        0.10490    0.82430    0.90800    1.000
    O18      O        0.10500    0.82450    0.08700    1.000
    C1       C        0.18800    0.59300    0.72000    1.000
    C2       C        0.13520    0.64760    0.50100    1.000
    C3       C        0.34120    0.90830    0.49600    1.000
    C4       C        0.14460    0.69980    0.49900    1.000
    C5       C        0.19750    0.80040    0.25500    1.000
    C6       C        0.19690    0.80180    0.74200    1.000
    C7       C        0.30060    0.85630    0.49900    1.000
    C8       C        0.09070    0.65710    0.50100    1.000
    C9       C        0.35990    0.89440    0.50400    1.000
    C10      C        0.35420    0.86450    0.50200    1.000
    C11      C        0.10240    0.63780    0.49900    1.000
    C12      C        0.35410    0.94590    0.49760    1.000
    C13      C        0.32410    0.84420    0.50350    1.000
    C14      C        0.15610    0.67800    0.49820    1.000
    C15      C        0.12790    0.61260    0.49500    1.000
    C16      C        0.16900    0.73450    0.49900    1.000
    C17      C        0.38660    0.87130    0.49800    1.000
    C18      C        0.26420    0.83210    0.49760    1.000
    C19      C        0.31330    0.88970    0.49400    1.000
    C20      C        0.11150    0.68610    0.50200    1.000
    C21      C        0.19390    0.80680    0.99600    1.000
    C22      C        0.18850    0.81670    0.86700    1.000
    C23      C        0.18670    0.81400    0.12800    1.000
    C24      C        0.15500    0.80740    0.10900    1.000
    C25      C        0.19020    0.84460    0.11400    1.000
    C26      C        0.15790    0.81380    0.87300    1.000
    C27      C        0.19040    0.84680    0.87800    1.000
    C28      C        0.12640    0.83380    0.99100    1.000
    C29      C        0.14620    0.82000    0.99600    1.000
    C30      C        0.18500    0.85970    0.00000    1.000
    In3      In       0.20649    0.41315    0.49976    1.000
    In4      In       0.41743    0.58242    0.50060    1.000
    Ni3      Ni       0.17941    0.24539    0.17760    1.000
    Ni4      Ni       0.17928    0.24471    0.82260    1.000
    O19      O        0.18450    0.37170    0.63890    1.000
    O20      O        0.20930    0.42020    0.75160    1.000
    O21      O        0.21010    0.41990    0.25410    1.000
    O22      O        0.42380    0.57890    0.72500    1.000
    O23      O        0.18570    0.37180    0.36080    1.000
    O24      O        0.41240    0.53510    0.49810    1.000
    O25      O        0.12230    0.53400    0.49450    1.000
    O26      O        0.25610    0.45310    0.49670    1.000
    O27      O        0.15520    0.40070    0.50100    1.000
    O28      O        0.24470    0.40050    0.49760    1.000
    O29      O        0.19490    0.45180    0.49860    1.000
    O30      O        0.03370    0.41150    0.49580    1.000
    O31      O        0.16710    0.53540    0.49830    1.000
    O32      O        0.05120    0.38330    0.50770    1.000
    O33      O        0.39550    0.60710    0.66100    1.000
    O34      O        0.16440    0.22380    0.01100    1.000
    O35      O        0.17570    0.28060    0.90800    1.000
    O36      O        0.17550    0.28050    0.08700    1.000
    C31      C        0.40700    0.59500    0.72000    1.000
    C32      C        0.35240    0.48760    0.50100    1.000
    C33      C        0.09170    0.43290    0.49600    1.000
    C34      C        0.30020    0.44480    0.49900    1.000
    C35      C        0.19960    0.39710    0.25500    1.000
    C36      C        0.19820    0.39510    0.74200    1.000
    C37      C        0.14370    0.44430    0.49900    1.000
    C38      C        0.34290    0.43360    0.50100    1.000
    C39      C        0.10560    0.46550    0.50400    1.000
    C40      C        0.13550    0.48970    0.50200    1.000
    C41      C        0.36220    0.46460    0.49900    1.000
    C42      C        0.05410    0.40820    0.49760    1.000
    C43      C        0.15580    0.47990    0.50350    1.000
    C44      C        0.32200    0.47810    0.49820    1.000
    C45      C        0.38740    0.51530    0.49500    1.000
    C46      C        0.26550    0.43450    0.49900    1.000
    C47      C        0.12870    0.51530    0.49800    1.000
    C48      C        0.16790    0.43210    0.49760    1.000
    C49      C        0.11030    0.42360    0.49400    1.000
    C50      C        0.31390    0.42540    0.50200    1.000
    C51      C        0.19320    0.38710    0.99600    1.000
    C52      C        0.18330    0.37180    0.86700    1.000
    C53      C        0.18600    0.37270    0.12800    1.000
    C54      C        0.19260    0.34760    0.10900    1.000
    C55      C        0.15540    0.34560    0.11400    1.000
    C56      C        0.18620    0.34410    0.87300    1.000
    C57      C        0.15320    0.34360    0.87800    1.000
    C58      C        0.16620    0.29260    0.99100    1.000
    C59      C        0.18000    0.32620    0.99600    1.000
    C60      C        0.14030    0.32530    0.00000    1.000
    In5      In       0.58685    0.79334    0.49976    1.000
    In6      In       0.41758    0.83501    0.50060    1.000
    Ni5      Ni       0.75461    0.93402    0.17760    1.000
    Ni6      Ni       0.75529    0.93457    0.82260    1.000
    O37      O        0.62830    0.81280    0.63890    1.000
    O38      O        0.57980    0.78910    0.75160    1.000
    O39      O        0.58010    0.79020    0.25410    1.000
    O40      O        0.42110    0.84490    0.72500    1.000
    O41      O        0.62820    0.81390    0.36080    1.000
    O42      O        0.46490    0.87730    0.49810    1.000
    O43      O        0.46600    0.58830    0.49450    1.000
    O44      O        0.54690    0.80300    0.49670    1.000
    O45      O        0.59930    0.75450    0.50100    1.000
    O46      O        0.59950    0.84420    0.49760    1.000
    O47      O        0.54820    0.74310    0.49860    1.000
    O48      O        0.58850    0.62220    0.49580    1.000
    O49      O        0.46460    0.63170    0.49830    1.000
    O50      O        0.61670    0.66790    0.50770    1.000
    O51      O        0.39290    0.78840    0.66100    1.000
    O52      O        0.77620    0.94060    0.01100    1.000
    O53      O        0.71940    0.89510    0.90800    1.000
    O54      O        0.71950    0.89500    0.08700    1.000
    C61      C        0.40500    0.81200    0.72000    1.000
    C62      C        0.51240    0.86480    0.50100    1.000
    C63      C        0.56710    0.65880    0.49600    1.000
    C64      C        0.55520    0.85540    0.49900    1.000
    C65      C        0.60290    0.80250    0.25500    1.000
    C66      C        0.60490    0.80310    0.74200    1.000
    C67      C        0.55570    0.69940    0.49900    1.000
    C68      C        0.56640    0.90930    0.50100    1.000
    C69      C        0.53450    0.64010    0.50400    1.000
    C70      C        0.51030    0.64580    0.50200    1.000
    C71      C        0.53540    0.89760    0.49900    1.000
    C72      C        0.59180    0.64590    0.49760    1.000
    C73      C        0.52010    0.67590    0.50350    1.000
    C74      C        0.52190    0.84390    0.49820    1.000
    C75      C        0.48470    0.87210    0.49500    1.000
    C76      C        0.56550    0.83100    0.49900    1.000
    C77      C        0.48470    0.61340    0.49800    1.000
    C78      C        0.56790    0.73580    0.49760    1.000
    C79      C        0.57640    0.68670    0.49400    1.000
    C80      C        0.57460    0.88850    0.50200    1.000
    C81      C        0.61290    0.80610    0.99600    1.000
    C82      C        0.62820    0.81150    0.86700    1.000
    C83      C        0.62730    0.81330    0.12800    1.000
    C84      C        0.65240    0.84500    0.10900    1.000
    C85      C        0.65440    0.80980    0.11400    1.000
    C86      C        0.65590    0.84210    0.87300    1.000
    C87      C        0.65640    0.80960    0.87800    1.000
    C88      C        0.70740    0.87360    0.99100    1.000
    C89      C        0.67380    0.85380    0.99600    1.000
    C90      C        0.67470    0.81500    0.00000    1.000
    In7      In       0.99995    0.35912    0.49990    1.000
    O55      O        0.00070    0.36630    0.73720    1.000
    O56      O        0.99990    0.32440    0.64560    1.000
    O57      O        0.00040    0.36500    0.26060    1.000
    O58      O        0.96620    0.37920    0.50230    1.000
    O59      O        0.94800    0.32960    0.50200    1.000
    O60      O        0.99910    0.32300    0.35550    1.000
    O61      O        0.96240    0.22720    0.90100    1.000
    O62      O        0.96280    0.22830    0.09700    1.000
    O63      O        0.03620    0.26410    0.09700    1.000
    O64      O        0.03680    0.26390    0.90400    1.000
    C91      C        0.99980    0.33980    0.74500    1.000
    C92      C        0.94730    0.35260    0.50270    1.000
    C93      C        0.99850    0.33880    0.25900    1.000
    C94      C        0.99950    0.34240    0.00000    1.000
    C95      C        0.02390    0.34140    0.90300    1.000
    C96      C        0.99410    0.32400    0.89100    1.000
    C97      C        0.01680    0.30610    0.86300    1.000
    C98      C        0.98650    0.29070    0.87800    1.000
    C99      C        0.02160    0.34310    0.09000    1.000
    C100     C        0.99280    0.32580    0.10700    1.000
    C101     C        0.98390    0.29130    0.12600    1.000
    C102     C        0.01890    0.31020    0.12400    1.000
    C103     C        0.03800    0.27980    0.00200    1.000
    C104     C        0.95990    0.23710    0.98600    1.000
    C105     C        0.03020    0.30540    0.99800    1.000
    C106     C        0.96620    0.27180    0.00400    1.000
    In8      In       0.64088    0.64083    0.49990    1.000
    O65      O        0.63370    0.63440    0.73720    1.000
    O66      O        0.67560    0.67550    0.64560    1.000
    O67      O        0.63500    0.63540    0.26060    1.000
    O68      O        0.62080    0.58700    0.50230    1.000
    O69      O        0.67040    0.61840    0.50200    1.000
    O70      O        0.67700    0.67610    0.35550    1.000
    O71      O        0.77280    0.73520    0.90100    1.000
    O72      O        0.77170    0.73450    0.09700    1.000
    O73      O        0.73590    0.77210    0.09700    1.000
    O74      O        0.73610    0.77290    0.90400    1.000
    C107     C        0.66020    0.66000    0.74500    1.000
    C108     C        0.64740    0.59470    0.50270    1.000
    C109     C        0.66120    0.65970    0.25900    1.000
    C110     C        0.65760    0.65710    0.00000    1.000
    C111     C        0.65860    0.68250    0.90300    1.000
    C112     C        0.67600    0.67010    0.89100    1.000
    C113     C        0.69390    0.71070    0.86300    1.000
    C114     C        0.70930    0.69580    0.87800    1.000
    C115     C        0.65690    0.67850    0.09000    1.000
    C116     C        0.67420    0.66700    0.10700    1.000
    C117     C        0.70870    0.69260    0.12600    1.000
    C118     C        0.68980    0.70870    0.12400    1.000
    C119     C        0.72020    0.75820    0.00200    1.000
    C120     C        0.76290    0.72280    0.98600    1.000
    C121     C        0.69460    0.72480    0.99800    1.000
    C122     C        0.72820    0.69440    0.00400    1.000
    In9      In       0.35917    0.00005    0.49990    1.000
    O75      O        0.36560    0.99930    0.73720    1.000
    O76      O        0.32450    0.00010    0.64560    1.000
    O77      O        0.36460    0.99960    0.26060    1.000
    O78      O        0.41300    0.03380    0.50230    1.000
    O79      O        0.38160    0.05200    0.50200    1.000
    O80      O        0.32390    0.00090    0.35550    1.000
    O81      O        0.26480    0.03760    0.90100    1.000
    O82      O        0.26550    0.03720    0.09700    1.000
    O83      O        0.22790    0.96380    0.09700    1.000
    O84      O        0.22710    0.96320    0.90400    1.000
    C123     C        0.34000    0.00020    0.74500    1.000
    C124     C        0.40530    0.05270    0.50270    1.000
    C125     C        0.34030    0.00150    0.25900    1.000
    C126     C        0.34290    0.00050    0.00000    1.000
    C127     C        0.31750    0.97610    0.90300    1.000
    C128     C        0.32990    0.00590    0.89100    1.000
    C129     C        0.28930    0.98320    0.86300    1.000
    C130     C        0.30420    0.01350    0.87800    1.000
    C131     C        0.32150    0.97840    0.09000    1.000
    C132     C        0.33300    0.00720    0.10700    1.000
    C133     C        0.30740    0.01610    0.12600    1.000
    C134     C        0.29130    0.98110    0.12400    1.000
    C135     C        0.24180    0.96200    0.00200    1.000
    C136     C        0.27720    0.04010    0.98600    1.000
    C137     C        0.27520    0.96980    0.99800    1.000
    C138     C        0.30560    0.03380    0.00400    1.000
    In10     In       0.00005    0.64088    0.50010    1.000
    O85      O        0.99930    0.63370    0.26280    1.000
    O86      O        0.00010    0.67560    0.35440    1.000
    O87      O        0.99960    0.63500    0.73940    1.000
    O88      O        0.03380    0.62080    0.49770    1.000
    O89      O        0.05200    0.67040    0.49800    1.000
    O90      O        0.00090    0.67700    0.64450    1.000
    O91      O        0.03760    0.77280    0.09900    1.000
    O92      O        0.03720    0.77170    0.90300    1.000
    O93      O        0.96380    0.73590    0.90300    1.000
    O94      O        0.96320    0.73610    0.09600    1.000
    C139     C        0.00020    0.66020    0.25500    1.000
    C140     C        0.05270    0.64740    0.49730    1.000
    C141     C        0.00150    0.66120    0.74100    1.000
    C142     C        0.00050    0.65760    0.00000    1.000
    C143     C        0.97610    0.65860    0.09700    1.000
    C144     C        0.00590    0.67600    0.10900    1.000
    C145     C        0.98320    0.69390    0.13700    1.000
    C146     C        0.01350    0.70930    0.12200    1.000
    C147     C        0.97840    0.65690    0.91000    1.000
    C148     C        0.00720    0.67420    0.89300    1.000
    C149     C        0.01610    0.70870    0.87400    1.000
    C150     C        0.98110    0.68980    0.87600    1.000
    C151     C        0.96200    0.72020    0.99800    1.000
    C152     C        0.04010    0.76290    0.01400    1.000
    C153     C        0.96980    0.69460    0.00200    1.000
    C154     C        0.03380    0.72820    0.99600    1.000
    In11     In       0.35912    0.35917    0.50010    1.000
    O95      O        0.36630    0.36560    0.26280    1.000
    O96      O        0.32440    0.32450    0.35440    1.000
    O97      O        0.36500    0.36460    0.73940    1.000
    O98      O        0.37920    0.41300    0.49770    1.000
    O99      O        0.32960    0.38160    0.49800    1.000
    O100     O        0.32300    0.32390    0.64450    1.000
    O101     O        0.22720    0.26480    0.09900    1.000
    O102     O        0.22830    0.26550    0.90300    1.000
    O103     O        0.26410    0.22790    0.90300    1.000
    O104     O        0.26390    0.22710    0.09600    1.000
    C155     C        0.33980    0.34000    0.25500    1.000
    C156     C        0.35260    0.40530    0.49730    1.000
    C157     C        0.33880    0.34030    0.74100    1.000
    C158     C        0.34240    0.34290    0.00000    1.000
    C159     C        0.34140    0.31750    0.09700    1.000
    C160     C        0.32400    0.32990    0.10900    1.000
    C161     C        0.30610    0.28930    0.13700    1.000
    C162     C        0.29070    0.30420    0.12200    1.000
    C163     C        0.34310    0.32150    0.91000    1.000
    C164     C        0.32580    0.33300    0.89300    1.000
    C165     C        0.29130    0.30740    0.87400    1.000
    C166     C        0.31020    0.29130    0.87600    1.000
    C167     C        0.27980    0.24180    0.99800    1.000
    C168     C        0.23710    0.27720    0.01400    1.000
    C169     C        0.30540    0.27520    0.00200    1.000
    C170     C        0.27180    0.30560    0.99600    1.000
    In12     In       0.64083    0.99995    0.50010    1.000
    O105     O        0.63440    0.00070    0.26280    1.000
    O106     O        0.67550    0.99990    0.35440    1.000
    O107     O        0.63540    0.00040    0.73940    1.000
    O108     O        0.58700    0.96620    0.49770    1.000
    O109     O        0.61840    0.94800    0.49800    1.000
    O110     O        0.67610    0.99910    0.64450    1.000
    O111     O        0.73520    0.96240    0.09900    1.000
    O112     O        0.73450    0.96280    0.90300    1.000
    O113     O        0.77210    0.03620    0.90300    1.000
    O114     O        0.77290    0.03680    0.09600    1.000
    C171     C        0.66000    0.99980    0.25500    1.000
    C172     C        0.59470    0.94730    0.49730    1.000
    C173     C        0.65970    0.99850    0.74100    1.000
    C174     C        0.65710    0.99950    0.00000    1.000
    C175     C        0.68250    0.02390    0.09700    1.000
    C176     C        0.67010    0.99410    0.10900    1.000
    C177     C        0.71070    0.01680    0.13700    1.000
    C178     C        0.69580    0.98650    0.12200    1.000
    C179     C        0.67850    0.02160    0.91000    1.000
    C180     C        0.66700    0.99280    0.89300    1.000
    C181     C        0.69260    0.98390    0.87400    1.000
    C182     C        0.70870    0.01890    0.87600    1.000
    C183     C        0.75820    0.03800    0.99800    1.000
    C184     C        0.72280    0.95990    0.01400    1.000
    C185     C        0.72480    0.03020    0.00200    1.000
    C186     C        0.69440    0.96620    0.99600    1.000
    In13     In       0.79334    0.20649    0.50024    1.000
    In14     In       0.83501    0.41743    0.49940    1.000
    Ni7      Ni       0.93402    0.17941    0.82240    1.000
    Ni8      Ni       0.93457    0.17928    0.17740    1.000
    O115     O        0.81280    0.18450    0.36110    1.000
    O116     O        0.78910    0.20930    0.24840    1.000
    O117     O        0.79020    0.21010    0.74590    1.000
    O118     O        0.84490    0.42380    0.27500    1.000
    O119     O        0.81390    0.18570    0.63920    1.000
    O120     O        0.87730    0.41240    0.50190    1.000
    O121     O        0.58830    0.12230    0.50550    1.000
    O122     O        0.80300    0.25610    0.50330    1.000
    O123     O        0.75450    0.15520    0.49900    1.000
    O124     O        0.84420    0.24470    0.50240    1.000
    O125     O        0.74310    0.19490    0.50140    1.000
    O126     O        0.62220    0.03370    0.50420    1.000
    O127     O        0.63170    0.16710    0.50170    1.000
    O128     O        0.66790    0.05120    0.49230    1.000
    O129     O        0.78840    0.39550    0.33900    1.000
    O130     O        0.94060    0.16440    0.98900    1.000
    O131     O        0.89510    0.17570    0.09200    1.000
    O132     O        0.89500    0.17550    0.91300    1.000
    C187     C        0.81200    0.40700    0.28000    1.000
    C188     C        0.86480    0.35240    0.49900    1.000
    C189     C        0.65880    0.09170    0.50400    1.000
    C190     C        0.85540    0.30020    0.50100    1.000
    C191     C        0.80250    0.19960    0.74500    1.000
    C192     C        0.80310    0.19820    0.25800    1.000
    C193     C        0.69940    0.14370    0.50100    1.000
    C194     C        0.90930    0.34290    0.49900    1.000
    C195     C        0.64010    0.10560    0.49600    1.000
    C196     C        0.64580    0.13550    0.49800    1.000
    C197     C        0.89760    0.36220    0.50100    1.000
    C198     C        0.64590    0.05410    0.50240    1.000
    C199     C        0.67590    0.15580    0.49650    1.000
    C200     C        0.84390    0.32200    0.50180    1.000
    C201     C        0.87210    0.38740    0.50500    1.000
    C202     C        0.83100    0.26550    0.50100    1.000
    C203     C        0.61340    0.12870    0.50200    1.000
    C204     C        0.73580    0.16790    0.50240    1.000
    C205     C        0.68670    0.11030    0.50600    1.000
    C206     C        0.88850    0.31390    0.49800    1.000
    C207     C        0.80610    0.19320    0.00400    1.000
    C208     C        0.81150    0.18330    0.13300    1.000
    C209     C        0.81330    0.18600    0.87200    1.000
    C210     C        0.84500    0.19260    0.89100    1.000
    C211     C        0.80980    0.15540    0.88600    1.000
    C212     C        0.84210    0.18620    0.12700    1.000
    C213     C        0.80960    0.15320    0.12200    1.000
    C214     C        0.87360    0.16620    0.00900    1.000
    C215     C        0.85380    0.18000    0.00400    1.000
    C216     C        0.81500    0.14030    0.00000    1.000
    In15     In       0.79351    0.58685    0.50024    1.000
    In16     In       0.58257    0.41758    0.49940    1.000
    Ni9      Ni       0.82059    0.75461    0.82240    1.000
    Ni10     Ni       0.82072    0.75529    0.17740    1.000
    O133     O        0.81550    0.62830    0.36110    1.000
    O134     O        0.79070    0.57980    0.24840    1.000
    O135     O        0.78990    0.58010    0.74590    1.000
    O136     O        0.57620    0.42110    0.27500    1.000
    O137     O        0.81430    0.62820    0.63920    1.000
    O138     O        0.58760    0.46490    0.50190    1.000
    O139     O        0.87770    0.46600    0.50550    1.000
    O140     O        0.74390    0.54690    0.50330    1.000
    O141     O        0.84480    0.59930    0.49900    1.000
    O142     O        0.75530    0.59950    0.50240    1.000
    O143     O        0.80510    0.54820    0.50140    1.000
    O144     O        0.96630    0.58850    0.50420    1.000
    O145     O        0.83290    0.46460    0.50170    1.000
    O146     O        0.94880    0.61670    0.49230    1.000
    O147     O        0.60450    0.39290    0.33900    1.000
    O148     O        0.83560    0.77620    0.98900    1.000
    O149     O        0.82430    0.71940    0.09200    1.000
    O150     O        0.82450    0.71950    0.91300    1.000
    C217     C        0.59300    0.40500    0.28000    1.000
    C218     C        0.64760    0.51240    0.49900    1.000
    C219     C        0.90830    0.56710    0.50400    1.000
    C220     C        0.69980    0.55520    0.50100    1.000
    C221     C        0.80040    0.60290    0.74500    1.000
    C222     C        0.80180    0.60490    0.25800    1.000
    C223     C        0.85630    0.55570    0.50100    1.000
    C224     C        0.65710    0.56640    0.49900    1.000
    C225     C        0.89440    0.53450    0.49600    1.000
    C226     C        0.86450    0.51030    0.49800    1.000
    C227     C        0.63780    0.53540    0.50100    1.000
    C228     C        0.94590    0.59180    0.50240    1.000
    C229     C        0.84420    0.52010    0.49650    1.000
    C230     C        0.67800    0.52190    0.50180    1.000
    C231     C        0.61260    0.48470    0.50500    1.000
    C232     C        0.73450    0.56550    0.50100    1.000
    C233     C        0.87130    0.48470    0.50200    1.000
    C234     C        0.83210    0.56790    0.50240    1.000
    C235     C        0.88970    0.57640    0.50600    1.000
    C236     C        0.68610    0.57460    0.49800    1.000
    C237     C        0.80680    0.61290    0.00400    1.000
    C238     C        0.81670    0.62820    0.13300    1.000
    C239     C        0.81400    0.62730    0.87200    1.000
    C240     C        0.80740    0.65240    0.89100    1.000
    C241     C        0.84460    0.65440    0.88600    1.000
    C242     C        0.81380    0.65590    0.12700    1.000
    C243     C        0.84680    0.65640    0.12200    1.000
    C244     C        0.83380    0.70740    0.00900    1.000
    C245     C        0.82000    0.67380    0.00400    1.000
    C246     C        0.85970    0.67470    0.00000    1.000
    In17     In       0.41315    0.20666    0.50024    1.000
    In18     In       0.58242    0.16499    0.49940    1.000
    Ni11     Ni       0.24539    0.06598    0.82240    1.000
    Ni12     Ni       0.24471    0.06543    0.17740    1.000
    O151     O        0.37170    0.18720    0.36110    1.000
    O152     O        0.42020    0.21090    0.24840    1.000
    O153     O        0.41990    0.20980    0.74590    1.000
    O154     O        0.57890    0.15510    0.27500    1.000
    O155     O        0.37180    0.18610    0.63920    1.000
    O156     O        0.53510    0.12270    0.50190    1.000
    O157     O        0.53400    0.41170    0.50550    1.000
    O158     O        0.45310    0.19700    0.50330    1.000
    O159     O        0.40070    0.24550    0.49900    1.000
    O160     O        0.40050    0.15580    0.50240    1.000
    O161     O        0.45180    0.25690    0.50140    1.000
    O162     O        0.41150    0.37780    0.50420    1.000
    O163     O        0.53540    0.36830    0.50170    1.000
    O164     O        0.38330    0.33210    0.49230    1.000
    O165     O        0.60710    0.21160    0.33900    1.000
    O166     O        0.22380    0.05940    0.98900    1.000
    O167     O        0.28060    0.10490    0.09200    1.000
    O168     O        0.28050    0.10500    0.91300    1.000
    C247     C        0.59500    0.18800    0.28000    1.000
    C248     C        0.48760    0.13520    0.49900    1.000
    C249     C        0.43290    0.34120    0.50400    1.000
    C250     C        0.44480    0.14460    0.50100    1.000
    C251     C        0.39710    0.19750    0.74500    1.000
    C252     C        0.39510    0.19690    0.25800    1.000
    C253     C        0.44430    0.30060    0.50100    1.000
    C254     C        0.43360    0.09070    0.49900    1.000
    C255     C        0.46550    0.35990    0.49600    1.000
    C256     C        0.48970    0.35420    0.49800    1.000
    C257     C        0.46460    0.10240    0.50100    1.000
    C258     C        0.40820    0.35410    0.50240    1.000
    C259     C        0.47990    0.32410    0.49650    1.000
    C260     C        0.47810    0.15610    0.50180    1.000
    C261     C        0.51530    0.12790    0.50500    1.000
    C262     C        0.43450    0.16900    0.50100    1.000
    C263     C        0.51530    0.38660    0.50200    1.000
    C264     C        0.43210    0.26420    0.50240    1.000
    C265     C        0.42360    0.31330    0.50600    1.000
    C266     C        0.42540    0.11150    0.49800    1.000
    C267     C        0.38710    0.19390    0.00400    1.000
    C268     C        0.37180    0.18850    0.13300    1.000
    C269     C        0.37270    0.18670    0.87200    1.000
    C270     C        0.34760    0.15500    0.89100    1.000
    C271     C        0.34560    0.19020    0.88600    1.000
    C272     C        0.34410    0.15790    0.12700    1.000
    C273     C        0.34360    0.19040    0.12200    1.000
    C274     C        0.29260    0.12640    0.00900    1.000
    C275     C        0.32620    0.14620    0.00400    1.000
    C276     C        0.32530    0.18500    0.00000    1.000
