data_functionalizedCrystal
_audit_creation_method	'EQeq! by Chris Wilmer'
_symmetry_space_group_name_H-M	'P1'
_symmetry_Int_Tables_number	1
_symmetry_cell_setting	triclinic
loop_
_symmetry_equiv_pos_as_xyz
  x,y,z
_cell_length_a	16.2796
_cell_length_b	16.7554
_cell_length_c	33.2117
_cell_angle_alpha	90
_cell_angle_beta	90
_cell_angle_gamma	90
loop_
_atom_site_label
_atom_site_type_symbol
_atom_site_fract_x
_atom_site_fract_y
_atom_site_fract_z
_atom_site_charge
Mof_Al	Al	0.35705	0.61657	0.09137	4.611
Mof_O 	O 	0.39311	0.64412	0.04026	-2.245
Mof_O 	O 	0.28927	0.709	0.09323	-1.279
Mof_O 	O 	0.31729	0.59462	0.14495	-1.296
Mof_O 	O 	0.44171	0.68295	0.11441	-1.241
Mof_O 	O 	0.42205	0.52722	0.09238	-2.903
Mof_H 	H 	0.4381	0.6217	0.0346	0.542
Mof_C 	C 	0.2979	0.77573	0.07544	0.866
Mof_O 	O 	0.31177	0.7834	0.03838	-1.105
Mof_C 	C 	0.2932	0.8479	0.10028	-0.375
Mof_C 	C 	0.2913	0.84248	0.14222	0.268
Mof_C 	C 	0.294	0.92364	0.08284	0.119
Mof_C 	C 	0.2939	0.9103	0.16552	-0.329
Mof_H 	H 	0.2884	0.7927	0.1545	-0.06
Mof_C 	C 	0.2948	0.9913	0.10642	-0.045
Mof_H 	H 	0.294	0.9285	0.0549	-0.02
Mof_H 	H 	0.2946	0.9055	0.1934	0.172
Mof_C 	C 	0.2955	0.9855	0.1483	0.276
Mof_H 	H 	0.2948	0.0414	0.0943	-0.081
Mof_N 	N 	0.2977	0.0543	0.17181	-0.286
Mof_C 	C 	0.26	0.05604	0.21052	0.225
Mof_C 	C 	0.3446	0.1217	0.15903	0.245
Mof_C 	C 	0.3004	0.0925	0.24298	-0.359
Mof_C 	C 	0.182	0.0233	0.21596	-0.366
Mof_C 	C 	0.3111	0.1978	0.16389	-0.381
Mof_C 	C 	0.4233	0.1142	0.14307	-0.378
Mof_C 	C 	0.2636	0.0937	0.2804	0.286
Mof_H 	H 	0.3517	0.1158	0.2393	0.132
Mof_C 	C 	0.1459	0.0241	0.25424	0.28
Mof_H 	H 	0.1541	0.0011	0.1943	0.081
Mof_H 	H 	0.2581	0.2038	0.174	0.123
Mof_C 	C 	0.3568	0.2641	0.15371	0.312
Mof_C 	C 	0.4685	0.1803	0.13258	0.305
Mof_H 	H 	0.4456	0.0637	0.1394	0.106
Mof_C 	C 	0.1861	0.0601	0.28602	-0.465
Mof_H 	H 	0.2907	0.1171	0.302	-0.098
Mof_H 	H 	0.095	0.0003	0.2582	-0.122
Mof_C 	C 	0.4356	0.25669	0.1372	-0.506
Mof_H 	H 	0.3349	0.3147	0.1579	-0.113
Mof_H 	H 	0.5212	0.1741	0.1223	-0.104
Mof_C 	C 	0.1444	0.06148	0.32642	0.956
Mof_C 	C 	0.48572	0.3289	0.12742	1.042
Mof_O 	O 	0.07363	0.02969	0.3279	-1.312
Mof_O 	O 	0.45224	0.3954	0.13323	-1.573
Mof_H 	H 	0.0849	0.9935	0.4262	0.806
Mof_Al	Al	0.64295	0.38343	0.09137	4.679
Mof_O 	O 	0.60689	0.35588	0.04026	-2.262
Mof_O 	O 	0.71073	0.291	0.09323	-1.293
Mof_O 	O 	0.68271	0.40538	0.14495	-1.293
Mof_O 	O 	0.55829	0.31705	0.11441	-1.256
Mof_O 	O 	0.57795	0.47278	0.09238	-2.918
Mof_H 	H 	0.5619	0.3783	0.0346	0.542
Mof_C 	C 	0.7021	0.22427	0.07544	0.939
Mof_O 	O 	0.68823	0.2166	0.03838	-1.131
Mof_C 	C 	0.7068	0.1521	0.10028	-0.55
Mof_C 	C 	0.7087	0.15752	0.14222	0.393
Mof_C 	C 	0.706	0.07636	0.08284	0.476
Mof_C 	C 	0.7061	0.0897	0.16552	-0.434
Mof_H 	H 	0.7116	0.2073	0.1545	-0.105
Mof_C 	C 	0.7052	0.0087	0.10642	-0.692
Mof_H 	H 	0.706	0.0715	0.0549	-0.183
Mof_H 	H 	0.7054	0.0945	0.1934	0.14
Mof_C 	C 	0.7045	0.0145	0.1483	0.281
Mof_H 	H 	0.7052	0.9586	0.0943	0.327
Mof_N 	N 	0.7023	0.9457	0.17181	-0.206
Mof_C 	C 	0.74	0.94396	0.21052	0.273
Mof_C 	C 	0.6554	0.8783	0.15903	0.309
Mof_C 	C 	0.6996	0.9075	0.24298	-0.324
Mof_C 	C 	0.818	0.9767	0.21596	-0.303
Mof_C 	C 	0.6889	0.8022	0.16389	-0.408
Mof_C 	C 	0.5767	0.8858	0.14307	-0.41
Mof_C 	C 	0.7364	0.9063	0.2804	0.28
Mof_H 	H 	0.6483	0.8842	0.2393	0.149
Mof_C 	C 	0.8541	0.9759	0.25424	0.278
Mof_H 	H 	0.8459	0.9989	0.1943	0.186
Mof_H 	H 	0.7419	0.7962	0.174	0.168
Mof_C 	C 	0.6432	0.7359	0.15371	0.353
Mof_C 	C 	0.5315	0.8197	0.13258	0.355
Mof_H 	H 	0.5544	0.9363	0.1394	0.198
Mof_C 	C 	0.8139	0.9399	0.28602	-0.374
Mof_H 	H 	0.7093	0.8829	0.302	-0.066
Mof_H 	H 	0.905	0.9997	0.2582	0.013
Mof_C 	C 	0.5644	0.74331	0.1372	-0.518
Mof_H 	H 	0.6651	0.6853	0.1579	-0.107
Mof_H 	H 	0.4788	0.8259	0.1223	-0.102
Mof_C 	C 	0.8556	0.93852	0.32642	0.931
Mof_C 	C 	0.51428	0.6711	0.12742	1.05
Mof_O 	O 	0.92637	0.97031	0.3279	-1.096
Mof_O 	O 	0.54776	0.6046	0.13323	-1.566
Mof_H 	H 	0.9151	0.0065	0.4262	0.504
Mof_Al	Al	0.14295	0.11657	0.40863	4.562
Mof_O 	O 	0.10689	0.14412	0.45974	-2.266
Mof_O 	O 	0.21073	0.209	0.40677	-1.277
Mof_O 	O 	0.18271	0.09462	0.35505	-1.254
Mof_O 	O 	0.05829	0.18295	0.38559	-1.334
Mof_O 	O 	0.07795	0.02722	0.40762	-2.701
Mof_H 	H 	0.0619	0.1217	0.4654	0.523
Mof_C 	C 	0.2021	0.27573	0.42456	0.9
Mof_O 	O 	0.18823	0.2834	0.46162	-1.128
Mof_C 	C 	0.2068	0.3479	0.39972	-0.455
Mof_C 	C 	0.2087	0.34248	0.35778	0.319
Mof_C 	C 	0.206	0.42364	0.41716	0.285
Mof_C 	C 	0.2061	0.4103	0.33448	-0.378
Mof_H 	H 	0.2116	0.2927	0.3455	-0.086
Mof_C 	C 	0.2052	0.4913	0.39358	-0.36
Mof_H 	H 	0.206	0.4285	0.4451	-0.095
Mof_H 	H 	0.2054	0.4055	0.3066	0.14
Mof_C 	C 	0.2045	0.4855	0.3517	0.263
Mof_H 	H 	0.2052	0.5414	0.4057	0.123
Mof_N 	N 	0.2023	0.5543	0.32819	-0.218
Mof_C 	C 	0.24	0.55604	0.28948	0.259
Mof_C 	C 	0.1554	0.6217	0.34097	0.084
Mof_C 	C 	0.1996	0.5925	0.25702	-0.367
Mof_C 	C 	0.318	0.5233	0.28404	-0.362
Mof_C 	C 	0.1889	0.6978	0.33611	-0.17
Mof_C 	C 	0.0767	0.6142	0.35693	-0.044
Mof_C 	C 	0.2364	0.5937	0.2196	0.318
Mof_H 	H 	0.1483	0.6158	0.2607	0.134
Mof_C 	C 	0.3541	0.5241	0.24576	0.326
Mof_H 	H 	0.3459	0.5011	0.3057	0.145
Mof_H 	H 	0.2419	0.7038	0.326	0.079
Mof_C 	C 	0.1432	0.7641	0.34629	0.061
Mof_C 	C 	0.0315	0.6803	0.36742	-0.244
Mof_H 	H 	0.0544	0.5637	0.3606	-0.012
Mof_C 	C 	0.3139	0.5601	0.21398	-0.483
Mof_H 	H 	0.2093	0.6171	0.198	-0.109
Mof_H 	H 	0.405	0.5003	0.2418	-0.07
Mof_C 	C 	0.0644	0.75669	0.3628	-0.174
Mof_H 	H 	0.1651	0.8147	0.3421	0.002
Mof_H 	H 	0.9788	0.6741	0.3777	0.191
Mof_C 	C 	0.3556	0.56148	0.17358	1.08
Mof_C 	C 	0.01428	0.8289	0.37258	0.638
Mof_O 	O 	0.42637	0.52969	0.1721	-1.542
Mof_O 	O 	0.04776	0.8954	0.36677	-1.168
Mof_H 	H 	0.4151	0.4935	0.0738	0.753
Mof_Al	Al	0.85705	0.88343	0.40863	4.508
Mof_O 	O 	0.89311	0.85588	0.45974	-2.29
Mof_O 	O 	0.78927	0.791	0.40677	-1.257
Mof_O 	O 	0.81729	0.90538	0.35505	-1.194
Mof_O 	O 	0.94171	0.81705	0.38559	-1.022
Mof_O 	O 	0.92205	0.97278	0.40762	-2.239
Mof_H 	H 	0.9381	0.8783	0.4654	0.621
Mof_C 	C 	0.7979	0.72427	0.42456	0.914
Mof_O 	O 	0.81177	0.7166	0.46162	-1.148
Mof_C 	C 	0.7932	0.6521	0.39972	-0.462
Mof_C 	C 	0.7913	0.65752	0.35778	0.337
Mof_C 	C 	0.794	0.57636	0.41716	0.312
Mof_C 	C 	0.7939	0.5897	0.33448	-0.381
Mof_H 	H 	0.7884	0.7073	0.3455	-0.076
Mof_C 	C 	0.7948	0.5087	0.39358	-0.373
Mof_H 	H 	0.794	0.5715	0.4451	-0.086
Mof_H 	H 	0.7946	0.5945	0.3066	0.169
Mof_C 	C 	0.7955	0.5145	0.3517	0.294
Mof_H 	H 	0.7948	0.4586	0.4057	0.138
Mof_N 	N 	0.7977	0.4457	0.32819	-0.274
Mof_C 	C 	0.76	0.44396	0.28948	0.282
Mof_C 	C 	0.8446	0.3783	0.34097	0.436
Mof_C 	C 	0.8004	0.4075	0.25702	-0.38
Mof_C 	C 	0.682	0.4767	0.28404	-0.377
Mof_C 	C 	0.8111	0.3022	0.33611	-0.555
Mof_C 	C 	0.9233	0.3858	0.35693	-0.689
Mof_C 	C 	0.7636	0.4063	0.2196	0.336
Mof_H 	H 	0.8517	0.3842	0.2607	0.168
Mof_C 	C 	0.6459	0.4759	0.24576	0.337
Mof_H 	H 	0.6541	0.4989	0.3057	0.15
Mof_H 	H 	0.7581	0.2962	0.326	0.196
Mof_C 	C 	0.8568	0.2359	0.34629	0.518
Mof_C 	C 	0.9685	0.3197	0.36742	0.836
Mof_H 	H 	0.9456	0.4363	0.3606	0.3
Mof_C 	C 	0.6861	0.4399	0.21398	-0.486
Mof_H 	H 	0.7907	0.3829	0.198	-0.093
Mof_H 	H 	0.595	0.4997	0.2418	-0.072
Mof_C 	C 	0.9356	0.24331	0.3628	-0.734
Mof_H 	H 	0.8349	0.1853	0.3421	-0.186
Mof_H 	H 	0.0212	0.3259	0.3777	-0.367
Mof_C 	C 	0.6444	0.43852	0.17358	1.087
Mof_C 	C 	0.98572	0.1711	0.37258	1.209
Mof_O 	O 	0.57363	0.47031	0.1721	-1.542
Mof_O 	O 	0.95224	0.1046	0.36677	-1.297
Mof_H 	H 	0.5849	0.5065	0.0738	0.768
Mof_Al	Al	0.64295	0.38343	0.90863	4.731
Mof_O 	O 	0.60689	0.35588	0.95974	-2.245
Mof_O 	O 	0.71073	0.291	0.90677	-1.289
Mof_O 	O 	0.68271	0.40538	0.85505	-1.298
Mof_O 	O 	0.55829	0.31705	0.88559	-1.263
Mof_O 	O 	0.57795	0.47278	0.90762	-2.937
Mof_H 	H 	0.5619	0.3783	0.9654	0.566
Mof_C 	C 	0.7021	0.22427	0.92456	0.933
Mof_O 	O 	0.68823	0.2166	0.96162	-1.083
Mof_C 	C 	0.7068	0.1521	0.89972	-0.533
Mof_C 	C 	0.7087	0.15752	0.85778	0.385
Mof_C 	C 	0.706	0.07636	0.91716	0.469
Mof_C 	C 	0.7061	0.0897	0.83448	-0.426
Mof_H 	H 	0.7116	0.2073	0.8455	-0.101
Mof_C 	C 	0.7052	0.0087	0.89358	-0.68
Mof_H 	H 	0.706	0.0715	0.9451	-0.157
Mof_H 	H 	0.7054	0.0945	0.8066	0.138
Mof_C 	C 	0.7045	0.0145	0.8517	0.279
Mof_H 	H 	0.7052	0.9586	0.9057	0.337
Mof_N 	N 	0.7023	0.9457	0.82819	-0.205
Mof_C 	C 	0.74	0.94396	0.78948	0.274
Mof_C 	C 	0.6554	0.8783	0.84097	0.312
Mof_C 	C 	0.6996	0.9075	0.75702	-0.325
Mof_C 	C 	0.818	0.9767	0.78404	-0.304
Mof_C 	C 	0.6889	0.8022	0.83611	-0.406
Mof_C 	C 	0.5767	0.8858	0.85693	-0.408
Mof_C 	C 	0.7364	0.9063	0.7196	0.281
Mof_H 	H 	0.6483	0.8842	0.7607	0.149
Mof_C 	C 	0.8541	0.9759	0.74576	0.28
Mof_H 	H 	0.8459	0.9989	0.8057	0.19
Mof_H 	H 	0.7419	0.7962	0.826	0.172
Mof_C 	C 	0.6432	0.7359	0.84629	0.357
Mof_C 	C 	0.5315	0.8197	0.86742	0.36
Mof_H 	H 	0.5544	0.9363	0.8606	0.201
Mof_C 	C 	0.8139	0.9399	0.71398	-0.375
Mof_H 	H 	0.7093	0.8829	0.698	-0.066
Mof_H 	H 	0.905	0.9997	0.7418	0.014
Mof_C 	C 	0.5644	0.74331	0.8628	-0.516
Mof_H 	H 	0.6651	0.6853	0.8421	-0.104
Mof_H 	H 	0.4788	0.8259	0.8777	-0.099
Mof_C 	C 	0.8556	0.93852	0.67358	0.931
Mof_C 	C 	0.51428	0.6711	0.87258	1.059
Mof_O 	O 	0.92637	0.97031	0.6721	-1.096
Mof_O 	O 	0.54776	0.6046	0.86677	-1.569
Mof_H 	H 	0.9151	0.0065	0.5738	0.504
Mof_Al	Al	0.35705	0.61657	0.90863	4.662
Mof_O 	O 	0.39311	0.64412	0.95974	-2.229
Mof_O 	O 	0.28927	0.709	0.90677	-1.275
Mof_O 	O 	0.31729	0.59462	0.85505	-1.302
Mof_O 	O 	0.44171	0.68295	0.88559	-1.248
Mof_O 	O 	0.42205	0.52722	0.90762	-2.922
Mof_H 	H 	0.4381	0.6217	0.9654	0.566
Mof_C 	C 	0.2979	0.77573	0.92456	0.86
Mof_O 	O 	0.31177	0.7834	0.96162	-1.057
Mof_C 	C 	0.2932	0.8479	0.89972	-0.357
Mof_C 	C 	0.2913	0.84248	0.85778	0.26
Mof_C 	C 	0.294	0.92364	0.91716	0.112
Mof_C 	C 	0.2939	0.9103	0.83448	-0.322
Mof_H 	H 	0.2884	0.7927	0.8455	-0.057
Mof_C 	C 	0.2948	0.9913	0.89358	-0.033
Mof_H 	H 	0.294	0.9285	0.9451	0.006
Mof_H 	H 	0.2946	0.9055	0.8066	0.169
Mof_C 	C 	0.2955	0.9855	0.8517	0.274
Mof_H 	H 	0.2948	0.0414	0.9057	-0.071
Mof_N 	N 	0.2977	0.0543	0.82819	-0.285
Mof_C 	C 	0.26	0.05604	0.78948	0.226
Mof_C 	C 	0.3446	0.1217	0.84097	0.248
Mof_C 	C 	0.3004	0.0925	0.75702	-0.36
Mof_C 	C 	0.182	0.0233	0.78404	-0.367
Mof_C 	C 	0.3111	0.1978	0.83611	-0.379
Mof_C 	C 	0.4233	0.1142	0.85693	-0.376
Mof_C 	C 	0.2636	0.0937	0.7196	0.287
Mof_H 	H 	0.3517	0.1158	0.7607	0.132
Mof_C 	C 	0.1459	0.0241	0.74576	0.282
Mof_H 	H 	0.1541	0.0011	0.8057	0.085
Mof_H 	H 	0.2581	0.2038	0.826	0.126
Mof_C 	C 	0.3568	0.2641	0.84629	0.316
Mof_C 	C 	0.4685	0.1803	0.86742	0.31
Mof_H 	H 	0.4456	0.0637	0.8606	0.108
Mof_C 	C 	0.1861	0.0601	0.71398	-0.465
Mof_H 	H 	0.2907	0.1171	0.698	-0.098
Mof_H 	H 	0.095	0.0003	0.7418	-0.121
Mof_C 	C 	0.4356	0.25669	0.8628	-0.504
Mof_H 	H 	0.3349	0.3147	0.8421	-0.11
Mof_H 	H 	0.5212	0.1741	0.8777	-0.101
Mof_C 	C 	0.1444	0.06148	0.67358	0.956
Mof_C 	C 	0.48572	0.3289	0.87258	1.05
Mof_O 	O 	0.07363	0.02969	0.6721	-1.312
Mof_O 	O 	0.45224	0.3954	0.86677	-1.577
Mof_H 	H 	0.0849	0.9935	0.5738	0.806
Mof_Al	Al	0.85705	0.88343	0.59137	4.508
Mof_O 	O 	0.89311	0.85588	0.54026	-2.29
Mof_O 	O 	0.78927	0.791	0.59323	-1.257
Mof_O 	O 	0.81729	0.90538	0.64495	-1.194
Mof_O 	O 	0.94171	0.81705	0.61441	-1.022
Mof_O 	O 	0.92205	0.97278	0.59238	-2.238
Mof_H 	H 	0.9381	0.8783	0.5346	0.621
Mof_C 	C 	0.7979	0.72427	0.57544	0.914
Mof_O 	O 	0.81177	0.7166	0.53838	-1.148
Mof_C 	C 	0.7932	0.6521	0.60028	-0.462
Mof_C 	C 	0.7913	0.65752	0.64222	0.338
Mof_C 	C 	0.794	0.57636	0.58284	0.312
Mof_C 	C 	0.7939	0.5897	0.66552	-0.381
Mof_H 	H 	0.7884	0.7073	0.6545	-0.076
Mof_C 	C 	0.7948	0.5087	0.60642	-0.374
Mof_H 	H 	0.794	0.5715	0.5549	-0.086
Mof_H 	H 	0.7946	0.5945	0.6934	0.17
Mof_C 	C 	0.7955	0.5145	0.6483	0.294
Mof_H 	H 	0.7948	0.4586	0.5943	0.138
Mof_N 	N 	0.7977	0.4457	0.67181	-0.275
Mof_C 	C 	0.76	0.44396	0.71052	0.282
Mof_C 	C 	0.8446	0.3783	0.65903	0.436
Mof_C 	C 	0.8004	0.4075	0.74298	-0.379
Mof_C 	C 	0.682	0.4767	0.71596	-0.377
Mof_C 	C 	0.8111	0.3022	0.66389	-0.555
Mof_C 	C 	0.9233	0.3858	0.64307	-0.689
Mof_C 	C 	0.7636	0.4063	0.7804	0.337
Mof_H 	H 	0.8517	0.3842	0.7393	0.169
Mof_C 	C 	0.6459	0.4759	0.75424	0.338
Mof_H 	H 	0.6541	0.4989	0.6943	0.15
Mof_H 	H 	0.7581	0.2962	0.674	0.196
Mof_C 	C 	0.8568	0.2359	0.65371	0.518
Mof_C 	C 	0.9685	0.3197	0.63258	0.836
Mof_H 	H 	0.9456	0.4363	0.6394	0.3
Mof_C 	C 	0.6861	0.4399	0.78602	-0.487
Mof_H 	H 	0.7907	0.3829	0.802	-0.09
Mof_H 	H 	0.595	0.4997	0.7582	-0.072
Mof_C 	C 	0.9356	0.24331	0.6372	-0.734
Mof_H 	H 	0.8349	0.1853	0.6579	-0.186
Mof_H 	H 	0.0212	0.3259	0.6223	-0.367
Mof_C 	C 	0.6444	0.43852	0.82642	1.093
Mof_C 	C 	0.98572	0.1711	0.62742	1.208
Mof_O 	O 	0.57363	0.47031	0.8279	-1.549
Mof_O 	O 	0.95224	0.1046	0.63323	-1.297
Mof_H 	H 	0.5849	0.5065	0.9262	0.788
Mof_Al	Al	0.14295	0.11657	0.59137	4.562
Mof_O 	O 	0.10689	0.14412	0.54026	-2.266
Mof_O 	O 	0.21073	0.209	0.59323	-1.277
Mof_O 	O 	0.18271	0.09462	0.64495	-1.254
Mof_O 	O 	0.05829	0.18295	0.61441	-1.334
Mof_O 	O 	0.07795	0.02722	0.59238	-2.7
Mof_H 	H 	0.0619	0.1217	0.5346	0.523
Mof_C 	C 	0.2021	0.27573	0.57544	0.9
Mof_O 	O 	0.18823	0.2834	0.53838	-1.128
Mof_C 	C 	0.2068	0.3479	0.60028	-0.455
Mof_C 	C 	0.2087	0.34248	0.64222	0.319
Mof_C 	C 	0.206	0.42364	0.58284	0.285
Mof_C 	C 	0.2061	0.4103	0.66552	-0.378
Mof_H 	H 	0.2116	0.2927	0.6545	-0.086
Mof_C 	C 	0.2052	0.4913	0.60642	-0.36
Mof_H 	H 	0.206	0.4285	0.5549	-0.095
Mof_H 	H 	0.2054	0.4055	0.6934	0.141
Mof_C 	C 	0.2045	0.4855	0.6483	0.264
Mof_H 	H 	0.2052	0.5414	0.5943	0.123
Mof_N 	N 	0.2023	0.5543	0.67181	-0.218
Mof_C 	C 	0.24	0.55604	0.71052	0.259
Mof_C 	C 	0.1554	0.6217	0.65903	0.084
Mof_C 	C 	0.1996	0.5925	0.74298	-0.367
Mof_C 	C 	0.318	0.5233	0.71596	-0.363
Mof_C 	C 	0.1889	0.6978	0.66389	-0.17
Mof_C 	C 	0.0767	0.6142	0.64307	-0.044
Mof_C 	C 	0.2364	0.5937	0.7804	0.318
Mof_H 	H 	0.1483	0.6158	0.7393	0.135
Mof_C 	C 	0.3541	0.5241	0.75424	0.327
Mof_H 	H 	0.3459	0.5011	0.6943	0.145
Mof_H 	H 	0.2419	0.7038	0.674	0.079
Mof_C 	C 	0.1432	0.7641	0.65371	0.061
Mof_C 	C 	0.0315	0.6803	0.63258	-0.244
Mof_H 	H 	0.0544	0.5637	0.6394	-0.011
Mof_C 	C 	0.3139	0.5601	0.78602	-0.484
Mof_H 	H 	0.2093	0.6171	0.802	-0.106
Mof_H 	H 	0.405	0.5003	0.7582	-0.07
Mof_C 	C 	0.0644	0.75669	0.6372	-0.174
Mof_H 	H 	0.1651	0.8147	0.6579	0.002
Mof_H 	H 	0.9788	0.6741	0.6223	0.191
Mof_C 	C 	0.3556	0.56148	0.82642	1.085
Mof_C 	C 	0.01428	0.8289	0.62742	0.638
Mof_O 	O 	0.42637	0.52969	0.8279	-1.548
Mof_O 	O 	0.04776	0.8954	0.63323	-1.168
Mof_H 	H 	0.4151	0.4935	0.9262	0.774
Mof_Al	Al	0.35382	0.70892	-0	3.368
Mof_Al	Al	0.64618	0.29108	-0	3.397
Mof_Al	Al	0.14618	0.20892	0.5	3.484
Mof_Al	Al	0.85382	0.79108	0.5	3.722
Mof_Al	Al	-2.74462e-33	0	0.36977	4.908
Mof_Al	Al	0.5	0.5	0.13023	6.698
Mof_Al	Al	4.82068e-33	1.1146e-32	0.63023	4.906
Mof_Al	Al	0.5	0.5	0.86977	6.729
_end
