data_functionalizedCrystal
_audit_creation_method	'EQeq! by Chris Wilmer'
_symmetry_space_group_name_H-M	'P1'
_symmetry_Int_Tables_number	1
_symmetry_cell_setting	triclinic
loop_
_symmetry_equiv_pos_as_xyz
  x,y,z
_cell_length_a	20.2686
_cell_length_b	18.9736
_cell_length_c	27.9855
_cell_angle_alpha	90
_cell_angle_beta	107.632
_cell_angle_gamma	90
loop_
_atom_site_label
_atom_site_type_symbol
_atom_site_fract_x
_atom_site_fract_y
_atom_site_fract_z
_atom_site_charge
Mof_La	La	0.49073	0.01748	0.41637	2.191
Mof_La	La	0.4582	0.43146	0.4403	2.002
Mof_O 	O 	0.4029	0.9242	0.3688	-0.425
Mof_O 	O 	0.4871	0.8854	0.4336	-0.444
Mof_O 	O 	0.557	0.112	0.3843	-0.108
Mof_O 	O 	0.0768	0.7031	0.1169	-0.355
Mof_O 	O 	0.1014	0.5908	0.1339	-0.52
Mof_O 	O 	0.4189	0.555	0.4241	-0.49
Mof_O 	O 	0.4851	0.6298	0.4802	-0.552
Mof_O 	O 	0.4368	0.4991	0.5262	-0.576
Mof_O 	O 	0.4664	0.5327	0.8516	-0.419
Mof_O 	O 	0.3656	0.573	0.8552	-0.429
Mof_O 	O 	0.0806	0.4981	0.5299	-0.588
Mof_O 	O 	0.115	0.5038	0.4605	-0.505
Mof_O 	O 	0.3533	0.4452	0.4685	-0.475
Mof_C 	C 	0.4323	0.8745	0.3966	0.325
Mof_C 	C 	0.4053	0.8007	0.3851	-0.103
Mof_C 	C 	0.4336	0.7453	0.4174	0.057
Mof_H 	H 	0.469	0.7544	0.4479	0.014
Mof_C 	C 	0.4105	0.677	0.4054	-0.145
Mof_C 	C 	0.4427	0.6146	0.4401	0.479
Mof_C 	C 	0.3587	0.6638	0.3598	0.025
Mof_H 	H 	0.3438	0.6168	0.3511	0.032
Mof_C 	C 	0.3286	0.719	0.327	-0.05
Mof_C 	C 	0.3528	0.7883	0.3406	0.005
Mof_H 	H 	0.333	0.8267	0.3192	0.028
Mof_C 	C 	0.2744	0.7047	0.2788	0.068
Mof_C 	C 	0.2688	0.6386	0.2572	-0.132
Mof_H 	H 	0.3013	0.603	0.2725	0.074
Mof_C 	C 	0.2167	0.6238	0.2135	0.019
Mof_H 	H 	0.2138	0.5782	0.1991	0.026
Mof_C 	C 	0.1754	0.7415	0.2111	-0.007
Mof_H 	H 	0.1442	0.7777	0.195	0.024
Mof_C 	C 	0.2273	0.7559	0.2549	-0.099
Mof_H 	H 	0.2308	0.8018	0.269	0.056
Mof_C 	C 	0.1688	0.6746	0.1906	-0.156
Mof_C 	C 	0.1113	0.6558	0.1429	0.415
Mof_C 	C 	0.373	0.4787	0.5084	0.43
Mof_C 	C 	0.3234	0.493	0.5368	-0.171
Mof_C 	C 	0.2522	0.4905	0.5117	0.082
Mof_H 	H 	0.2368	0.4819	0.4766	0.029
Mof_C 	C 	0.2042	0.5002	0.5368	-0.156
Mof_C 	C 	0.1284	0.4994	0.5068	0.419
Mof_C 	C 	0.2274	0.5099	0.5893	0.032
Mof_H 	H 	0.1945	0.5146	0.6071	0.021
Mof_C 	C 	0.2976	0.5128	0.6152	-0.061
Mof_C 	C 	0.3449	0.5056	0.5879	0.037
Mof_H 	H 	0.3931	0.5096	0.605	0.003
Mof_C 	C 	0.3234	0.521	0.6711	0.047
Mof_C 	C 	0.3749	0.5373	0.7756	-0.088
Mof_C 	C 	0.4043	0.5496	0.8311	0.313
Mof_C 	C 	0.2808	0.55	0.6966	-0.02
Mof_H 	H 	0.235	0.5648	0.6794	0.032
Mof_C 	C 	0.3079	0.557	0.7482	-0.012
Mof_H 	H 	0.2788	0.5756	0.766	0.006
Mof_C 	C 	0.4113	0.4993	0.7493	-0.026
Mof_H 	H 	0.455	0.4797	0.767	0.042
Mof_C 	C 	0.3856	0.4894	0.6978	-0.024
Mof_H 	H 	0.4102	0.4612	0.681	0.037
Mof_O 	O 	0.5354	0.967	0.3506	-0.451
Mof_N 	N 	0.5834	0.962	0.2866	-0.111
Mof_C 	C 	0.5663	0.9368	0.3227	0.351
Mof_C 	C 	0.6173	0.9232	0.2534	-0.449
Mof_H 	H 	0.6194	0.8728	0.2614	0.206
Mof_H 	H 	0.6643	0.9414	0.259	0.159
Mof_H 	H 	0.5902	0.9302	0.2183	0.17
Mof_C 	C 	0.5885	0.0406	0.2812	-0.169
Mof_H 	H 	0.5705	0.0643	0.3057	0.124
Mof_H 	H 	0.5613	0.0547	0.2472	0.075
Mof_H 	H 	0.637	0.0538	0.287	0.12
Mof_C 	C 	0.575	0.8546	0.3311	-0.442
Mof_H 	H 	0.5598	0.8413	0.3601	0.307
Mof_H 	H 	0.6231	0.8414	0.3372	0.147
Mof_H 	H 	0.5458	0.8301	0.3012	0.363
Mof_O 	O 	0.543	0.116	0.3731	-0.193
Mof_C 	C 	0.237	0.642	0.273	-0.005
Mof_H 	H 	0.2455	0.6087	0.2994	0.034
Mof_C 	C 	0.188	0.631	0.227	0.028
Mof_H 	H 	0.1666	0.5857	0.2221	0.013
Mof_C 	C 	0.199	0.731	0.194	0.047
Mof_H 	H 	0.1882	0.7627	0.1665	0.003
Mof_C 	C 	0.251	0.751	0.241	-0.026
Mof_H 	H 	0.2681	0.7977	0.2455	0.018
Mof_C 	C 	0.285	0.546	0.702	-0.048
Mof_H 	H 	0.2386	0.5594	0.6845	0.014
Mof_C 	C 	0.303	0.554	0.751	0.017
Mof_H 	H 	0.2717	0.569	0.7689	0.016
Mof_C 	C 	0.418	0.549	0.7506	0.026
Mof_H 	H 	0.4646	0.5629	0.7663	0.017
Mof_C 	C 	0.39	0.541	0.6966	-0.086
Mof_H 	H 	0.4201	0.5498	0.6773	0.055
Mof_O 	O 	0.5318	0.8219	0.3252	-0.477
Mof_C 	C 	0.5599	0.783	0.2993	0.208
Mof_N 	N 	0.5244	0.7315	0.2764	-0.2
Mof_C 	C 	0.478	0.69	0.2998	0.259
Mof_H 	H 	0.4673	0.7178	0.3255	-0.031
Mof_H 	H 	0.4356	0.6805	0.2734	-0.209
Mof_H 	H 	0.4998	0.6459	0.3137	-0.019
Mof_C 	C 	0.5577	0.683	0.2477	0.346
Mof_H 	H 	0.5893	0.7136	0.2367	0.008
Mof_H 	H 	0.5808	0.6393	0.2603	-0.055
Mof_H 	H 	0.5167	0.6738	0.22	-0.135
Mof_C 	C 	0.6138	0.819	0.2767	-0.804
Mof_H 	H 	0.6254	0.863	0.295	0.222
Mof_H 	H 	0.6558	0.7913	0.2807	0.255
Mof_H 	H 	0.5924	0.8292	0.2417	0.236
Mof_O 	O 	0.634	0.029	0.3316	-0.175
Mof_La	La	0.99073	0.51748	0.41637	2.195
Mof_La	La	0.9582	0.93146	0.4403	2.005
Mof_O 	O 	0.9029	0.4242	0.3688	-0.425
Mof_O 	O 	0.9871	0.3854	0.4336	-0.444
Mof_O 	O 	0.057	0.612	0.3843	-0.108
Mof_O 	O 	0.5768	0.2031	0.1169	-0.355
Mof_O 	O 	0.6014	0.0908	0.1339	-0.52
Mof_O 	O 	0.9189	0.055	0.4241	-0.49
Mof_O 	O 	0.9851	0.1298	0.4802	-0.552
Mof_O 	O 	0.9368	0.9991	0.5262	-0.576
Mof_O 	O 	0.9664	0.0327	0.8516	-0.419
Mof_O 	O 	0.8656	0.073	0.8552	-0.429
Mof_O 	O 	0.5806	0.9981	0.5299	-0.587
Mof_O 	O 	0.615	0.0038	0.4605	-0.505
Mof_O 	O 	0.8533	0.9452	0.4685	-0.475
Mof_C 	C 	0.9323	0.3745	0.3966	0.325
Mof_C 	C 	0.9053	0.3007	0.3851	-0.103
Mof_C 	C 	0.9336	0.2453	0.4174	0.057
Mof_H 	H 	0.969	0.2544	0.4479	0.014
Mof_C 	C 	0.9105	0.177	0.4054	-0.145
Mof_C 	C 	0.9427	0.1146	0.4401	0.479
Mof_C 	C 	0.8587	0.1638	0.3598	0.025
Mof_H 	H 	0.8438	0.1168	0.3511	0.032
Mof_C 	C 	0.8286	0.219	0.327	-0.05
Mof_C 	C 	0.8528	0.2883	0.3406	0.005
Mof_H 	H 	0.833	0.3267	0.3192	0.028
Mof_C 	C 	0.7744	0.2047	0.2788	0.068
Mof_C 	C 	0.7688	0.1386	0.2572	-0.132
Mof_H 	H 	0.8013	0.103	0.2725	0.074
Mof_C 	C 	0.7167	0.1238	0.2135	0.019
Mof_H 	H 	0.7138	0.0782	0.1991	0.026
Mof_C 	C 	0.6754	0.2415	0.2111	-0.007
Mof_H 	H 	0.6442	0.2777	0.195	0.024
Mof_C 	C 	0.7273	0.2559	0.2549	-0.099
Mof_H 	H 	0.7308	0.3018	0.269	0.056
Mof_C 	C 	0.6688	0.1746	0.1906	-0.156
Mof_C 	C 	0.6113	0.1558	0.1429	0.415
Mof_C 	C 	0.873	0.9787	0.5084	0.43
Mof_C 	C 	0.8234	0.993	0.5368	-0.171
Mof_C 	C 	0.7522	0.9905	0.5117	0.082
Mof_H 	H 	0.7368	0.9819	0.4766	0.029
Mof_C 	C 	0.7042	0.0002	0.5368	-0.156
Mof_C 	C 	0.6284	0.9994	0.5068	0.419
Mof_C 	C 	0.7274	0.0099	0.5893	0.032
Mof_H 	H 	0.6945	0.0146	0.6071	0.021
Mof_C 	C 	0.7976	0.0128	0.6152	-0.061
Mof_C 	C 	0.8449	0.0056	0.5879	0.037
Mof_H 	H 	0.8931	0.0096	0.605	0.003
Mof_C 	C 	0.8234	0.021	0.6711	0.047
Mof_C 	C 	0.8749	0.0373	0.7756	-0.088
Mof_C 	C 	0.9043	0.0496	0.8311	0.313
Mof_C 	C 	0.7808	0.05	0.6966	-0.02
Mof_H 	H 	0.735	0.0648	0.6794	0.032
Mof_C 	C 	0.8079	0.057	0.7482	-0.012
Mof_H 	H 	0.7788	0.0756	0.766	0.006
Mof_C 	C 	0.9113	0.9993	0.7493	-0.027
Mof_H 	H 	0.955	0.9797	0.767	0.042
Mof_C 	C 	0.8856	0.9894	0.6978	-0.024
Mof_H 	H 	0.9102	0.9612	0.681	0.037
Mof_O 	O 	0.0354	0.467	0.3506	-0.452
Mof_N 	N 	0.0834	0.462	0.2866	-0.111
Mof_C 	C 	0.0663	0.4368	0.3227	0.351
Mof_C 	C 	0.1173	0.4232	0.2534	-0.449
Mof_H 	H 	0.1194	0.3728	0.2614	0.206
Mof_H 	H 	0.1643	0.4414	0.259	0.159
Mof_H 	H 	0.0902	0.4302	0.2183	0.169
Mof_C 	C 	0.0885	0.5406	0.2812	-0.169
Mof_H 	H 	0.0705	0.5643	0.3057	0.124
Mof_H 	H 	0.0613	0.5547	0.2472	0.075
Mof_H 	H 	0.137	0.5538	0.287	0.12
Mof_C 	C 	0.075	0.3546	0.3311	-0.442
Mof_H 	H 	0.0598	0.3413	0.3601	0.307
Mof_H 	H 	0.1231	0.3414	0.3372	0.147
Mof_H 	H 	0.0458	0.3301	0.3012	0.363
Mof_O 	O 	0.043	0.616	0.3731	-0.193
Mof_C 	C 	0.737	0.142	0.273	-0.005
Mof_H 	H 	0.7455	0.1087	0.2994	0.034
Mof_C 	C 	0.688	0.131	0.227	0.028
Mof_H 	H 	0.6666	0.0857	0.2221	0.013
Mof_C 	C 	0.699	0.231	0.194	0.047
Mof_H 	H 	0.6882	0.2627	0.1665	0.003
Mof_C 	C 	0.751	0.251	0.241	-0.026
Mof_H 	H 	0.7681	0.2977	0.2455	0.018
Mof_C 	C 	0.785	0.046	0.702	-0.048
Mof_H 	H 	0.7386	0.0594	0.6845	0.014
Mof_C 	C 	0.803	0.054	0.751	0.017
Mof_H 	H 	0.7717	0.069	0.7689	0.016
Mof_C 	C 	0.918	0.049	0.7506	0.026
Mof_H 	H 	0.9646	0.0629	0.7663	0.017
Mof_C 	C 	0.89	0.041	0.6966	-0.085
Mof_H 	H 	0.9201	0.0498	0.6773	0.055
Mof_O 	O 	0.0318	0.3219	0.3252	-0.477
Mof_C 	C 	0.0599	0.283	0.2993	0.208
Mof_N 	N 	0.0244	0.2315	0.2764	-0.2
Mof_C 	C 	0.978	0.19	0.2998	0.258
Mof_H 	H 	0.9673	0.2178	0.3255	-0.03
Mof_H 	H 	0.9356	0.1805	0.2734	-0.209
Mof_H 	H 	0.9998	0.1459	0.3137	-0.018
Mof_C 	C 	0.0577	0.183	0.2477	0.346
Mof_H 	H 	0.0893	0.2136	0.2367	0.008
Mof_H 	H 	0.0808	0.1393	0.2603	-0.055
Mof_H 	H 	0.0167	0.1738	0.22	-0.135
Mof_C 	C 	0.1138	0.319	0.2767	-0.803
Mof_H 	H 	0.1254	0.363	0.295	0.222
Mof_H 	H 	0.1558	0.2913	0.2807	0.255
Mof_H 	H 	0.0924	0.3292	0.2417	0.236
Mof_O 	O 	0.134	0.529	0.3316	-0.175
Mof_La	La	0.50927	0.01748	0.08363	2.191
Mof_La	La	0.5418	0.43146	0.0597	2.003
Mof_O 	O 	0.5971	0.9242	0.1312	-0.425
Mof_O 	O 	0.5129	0.8854	0.0664	-0.444
Mof_O 	O 	0.443	0.112	0.1157	-0.108
Mof_O 	O 	0.9232	0.7031	0.3831	-0.355
Mof_O 	O 	0.8986	0.5908	0.3661	-0.52
Mof_O 	O 	0.5811	0.555	0.0759	-0.49
Mof_O 	O 	0.5149	0.6298	0.0198	-0.552
Mof_O 	O 	0.5632	0.4991	0.9738	-0.576
Mof_O 	O 	0.5336	0.5327	0.6484	-0.419
Mof_O 	O 	0.6344	0.573	0.6448	-0.429
Mof_O 	O 	0.9194	0.4981	0.9701	-0.586
Mof_O 	O 	0.885	0.5038	0.0395	-0.502
Mof_O 	O 	0.6467	0.4452	0.0315	-0.474
Mof_C 	C 	0.5677	0.8745	0.1034	0.325
Mof_C 	C 	0.5947	0.8007	0.1149	-0.103
Mof_C 	C 	0.5664	0.7453	0.0826	0.057
Mof_H 	H 	0.531	0.7544	0.0521	0.014
Mof_C 	C 	0.5895	0.677	0.0946	-0.145
Mof_C 	C 	0.5573	0.6146	0.0599	0.479
Mof_C 	C 	0.6413	0.6638	0.1402	0.025
Mof_H 	H 	0.6562	0.6168	0.1489	0.032
Mof_C 	C 	0.6714	0.719	0.173	-0.05
Mof_C 	C 	0.6472	0.7883	0.1594	0.005
Mof_H 	H 	0.667	0.8267	0.1808	0.028
Mof_C 	C 	0.7256	0.7047	0.2212	0.068
Mof_C 	C 	0.7312	0.6386	0.2428	-0.132
Mof_H 	H 	0.6987	0.603	0.2275	0.074
Mof_C 	C 	0.7833	0.6238	0.2865	0.019
Mof_H 	H 	0.7862	0.5782	0.3009	0.026
Mof_C 	C 	0.8246	0.7415	0.2889	-0.006
Mof_H 	H 	0.8558	0.7777	0.305	0.024
Mof_C 	C 	0.7727	0.7559	0.2451	-0.098
Mof_H 	H 	0.7692	0.8018	0.231	0.056
Mof_C 	C 	0.8312	0.6746	0.3094	-0.156
Mof_C 	C 	0.8887	0.6558	0.3571	0.415
Mof_C 	C 	0.627	0.4787	0.9916	0.428
Mof_C 	C 	0.6766	0.493	0.9632	-0.168
Mof_C 	C 	0.7478	0.4905	0.9883	0.077
Mof_H 	H 	0.7632	0.4819	0.0234	0.031
Mof_C 	C 	0.7958	0.5002	0.9632	-0.153
Mof_C 	C 	0.8716	0.4994	0.9932	0.416
Mof_C 	C 	0.7726	0.5099	0.9107	0.031
Mof_H 	H 	0.8055	0.5146	0.8929	0.021
Mof_C 	C 	0.7024	0.5128	0.8848	-0.06
Mof_C 	C 	0.6551	0.5056	0.9121	0.036
Mof_H 	H 	0.6069	0.5096	0.895	0.003
Mof_C 	C 	0.6766	0.521	0.8289	0.047
Mof_C 	C 	0.6251	0.5373	0.7244	-0.088
Mof_C 	C 	0.5957	0.5496	0.6689	0.313
Mof_C 	C 	0.7192	0.55	0.8034	-0.02
Mof_H 	H 	0.765	0.5648	0.8206	0.032
Mof_C 	C 	0.6921	0.557	0.7518	-0.012
Mof_H 	H 	0.7212	0.5756	0.734	0.006
Mof_C 	C 	0.5887	0.4993	0.7507	-0.026
Mof_H 	H 	0.545	0.4797	0.733	0.042
Mof_C 	C 	0.6144	0.4894	0.8022	-0.024
Mof_H 	H 	0.5898	0.4612	0.819	0.037
Mof_O 	O 	0.4646	0.967	0.1494	-0.451
Mof_N 	N 	0.4166	0.962	0.2134	-0.111
Mof_C 	C 	0.4337	0.9368	0.1773	0.351
Mof_C 	C 	0.3827	0.9232	0.2466	-0.449
Mof_H 	H 	0.3806	0.8728	0.2386	0.206
Mof_H 	H 	0.3357	0.9414	0.241	0.159
Mof_H 	H 	0.4098	0.9302	0.2817	0.17
Mof_C 	C 	0.4115	0.0406	0.2188	-0.169
Mof_H 	H 	0.4295	0.0643	0.1943	0.124
Mof_H 	H 	0.4387	0.0547	0.2528	0.075
Mof_H 	H 	0.363	0.0538	0.213	0.12
Mof_C 	C 	0.425	0.8546	0.1689	-0.441
Mof_H 	H 	0.4402	0.8413	0.1399	0.307
Mof_H 	H 	0.3769	0.8414	0.1628	0.147
Mof_H 	H 	0.4542	0.8301	0.1988	0.363
Mof_O 	O 	0.457	0.116	0.1269	-0.193
Mof_C 	C 	0.763	0.642	0.227	-0.006
Mof_H 	H 	0.7545	0.6087	0.2006	0.034
Mof_C 	C 	0.812	0.631	0.273	0.028
Mof_H 	H 	0.8334	0.5857	0.2779	0.013
Mof_C 	C 	0.801	0.731	0.306	0.046
Mof_H 	H 	0.8118	0.7627	0.3335	0.003
Mof_C 	C 	0.749	0.751	0.259	-0.027
Mof_H 	H 	0.7319	0.7977	0.2545	0.018
Mof_C 	C 	0.715	0.546	0.798	-0.048
Mof_H 	H 	0.7614	0.5594	0.8155	0.014
Mof_C 	C 	0.697	0.554	0.749	0.017
Mof_H 	H 	0.7283	0.569	0.7311	0.016
Mof_C 	C 	0.582	0.549	0.7494	0.026
Mof_H 	H 	0.5354	0.5629	0.7337	0.017
Mof_C 	C 	0.61	0.541	0.8034	-0.085
Mof_H 	H 	0.5799	0.5498	0.8227	0.055
Mof_O 	O 	0.4682	0.8219	0.1748	-0.477
Mof_C 	C 	0.4401	0.783	0.2007	0.208
Mof_N 	N 	0.4756	0.7315	0.2236	-0.2
Mof_C 	C 	0.522	0.69	0.2002	0.259
Mof_H 	H 	0.5327	0.7178	0.1745	-0.031
Mof_H 	H 	0.5644	0.6805	0.2266	-0.209
Mof_H 	H 	0.5002	0.6459	0.1863	-0.019
Mof_C 	C 	0.4423	0.683	0.2523	0.346
Mof_H 	H 	0.4107	0.7136	0.2633	0.008
Mof_H 	H 	0.4192	0.6393	0.2397	-0.055
Mof_H 	H 	0.4833	0.6738	0.28	-0.135
Mof_C 	C 	0.3862	0.819	0.2233	-0.804
Mof_H 	H 	0.3746	0.863	0.205	0.222
Mof_H 	H 	0.3442	0.7913	0.2193	0.255
Mof_H 	H 	0.4076	0.8292	0.2583	0.236
Mof_O 	O 	0.366	0.029	0.1684	-0.175
Mof_La	La	0.00927	0.51748	0.08363	2.189
Mof_La	La	0.0418	0.93146	0.0597	2.002
Mof_O 	O 	0.0971	0.4242	0.1312	-0.425
Mof_O 	O 	0.0129	0.3854	0.0664	-0.444
Mof_O 	O 	0.943	0.612	0.1157	-0.107
Mof_O 	O 	0.4232	0.2031	0.3831	-0.355
Mof_O 	O 	0.3986	0.0908	0.3661	-0.52
Mof_O 	O 	0.0811	0.055	0.0759	-0.49
Mof_O 	O 	0.0149	0.1298	0.0198	-0.552
Mof_O 	O 	0.0632	0.9991	0.9738	-0.575
Mof_O 	O 	0.0336	0.0327	0.6484	-0.419
Mof_O 	O 	0.1344	0.073	0.6448	-0.429
Mof_O 	O 	0.4194	0.9981	0.9701	-0.587
Mof_O 	O 	0.385	0.0038	0.0395	-0.505
Mof_O 	O 	0.1467	0.9452	0.0315	-0.476
Mof_C 	C 	0.0677	0.3745	0.1034	0.325
Mof_C 	C 	0.0947	0.3007	0.1149	-0.103
Mof_C 	C 	0.0664	0.2453	0.0826	0.057
Mof_H 	H 	0.031	0.2544	0.0521	0.014
Mof_C 	C 	0.0895	0.177	0.0946	-0.145
Mof_C 	C 	0.0573	0.1146	0.0599	0.478
Mof_C 	C 	0.1413	0.1638	0.1402	0.025
Mof_H 	H 	0.1562	0.1168	0.1489	0.032
Mof_C 	C 	0.1714	0.219	0.173	-0.05
Mof_C 	C 	0.1472	0.2883	0.1594	0.005
Mof_H 	H 	0.167	0.3267	0.1808	0.028
Mof_C 	C 	0.2256	0.2047	0.2212	0.068
Mof_C 	C 	0.2312	0.1386	0.2428	-0.132
Mof_H 	H 	0.1987	0.103	0.2275	0.074
Mof_C 	C 	0.2833	0.1238	0.2865	0.019
Mof_H 	H 	0.2862	0.0782	0.3009	0.026
Mof_C 	C 	0.3246	0.2415	0.2889	-0.007
Mof_H 	H 	0.3558	0.2777	0.305	0.024
Mof_C 	C 	0.2727	0.2559	0.2451	-0.099
Mof_H 	H 	0.2692	0.3018	0.231	0.056
Mof_C 	C 	0.3312	0.1746	0.3094	-0.156
Mof_C 	C 	0.3887	0.1558	0.3571	0.415
Mof_C 	C 	0.127	0.9787	0.9916	0.432
Mof_C 	C 	0.1766	0.993	0.9632	-0.172
Mof_C 	C 	0.2478	0.9905	0.9883	0.083
Mof_H 	H 	0.2632	0.9819	0.0234	0.028
Mof_C 	C 	0.2958	0.0002	0.9632	-0.156
Mof_C 	C 	0.3716	0.9994	0.9932	0.42
Mof_C 	C 	0.2726	0.0099	0.9107	0.033
Mof_H 	H 	0.3055	0.0146	0.8929	0.021
Mof_C 	C 	0.2024	0.0128	0.8848	-0.061
Mof_C 	C 	0.1551	0.0056	0.9121	0.038
Mof_H 	H 	0.1069	0.0096	0.895	0.003
Mof_C 	C 	0.1766	0.021	0.8289	0.048
Mof_C 	C 	0.1251	0.0373	0.7244	-0.088
Mof_C 	C 	0.0957	0.0496	0.6689	0.312
Mof_C 	C 	0.2192	0.05	0.8034	-0.02
Mof_H 	H 	0.265	0.0648	0.8206	0.032
Mof_C 	C 	0.1921	0.057	0.7518	-0.012
Mof_H 	H 	0.2212	0.0756	0.734	0.006
Mof_C 	C 	0.0887	0.9993	0.7507	-0.027
Mof_H 	H 	0.045	0.9797	0.733	0.043
Mof_C 	C 	0.1144	0.9894	0.8022	-0.024
Mof_H 	H 	0.0898	0.9612	0.819	0.038
Mof_O 	O 	0.9646	0.467	0.1494	-0.45
Mof_N 	N 	0.9166	0.462	0.2134	-0.111
Mof_C 	C 	0.9337	0.4368	0.1773	0.351
Mof_C 	C 	0.8827	0.4232	0.2466	-0.449
Mof_H 	H 	0.8806	0.3728	0.2386	0.206
Mof_H 	H 	0.8357	0.4414	0.241	0.159
Mof_H 	H 	0.9098	0.4302	0.2817	0.17
Mof_C 	C 	0.9115	0.5406	0.2188	-0.169
Mof_H 	H 	0.9295	0.5643	0.1943	0.124
Mof_H 	H 	0.9387	0.5547	0.2528	0.076
Mof_H 	H 	0.863	0.5538	0.213	0.12
Mof_C 	C 	0.925	0.3546	0.1689	-0.443
Mof_H 	H 	0.9402	0.3413	0.1399	0.308
Mof_H 	H 	0.8769	0.3414	0.1628	0.148
Mof_H 	H 	0.9542	0.3301	0.1988	0.363
Mof_O 	O 	0.957	0.616	0.1269	-0.193
Mof_C 	C 	0.263	0.142	0.227	-0.005
Mof_H 	H 	0.2545	0.1087	0.2006	0.034
Mof_C 	C 	0.312	0.131	0.273	0.028
Mof_H 	H 	0.3334	0.0857	0.2779	0.013
Mof_C 	C 	0.301	0.231	0.306	0.047
Mof_H 	H 	0.3118	0.2627	0.3335	0.003
Mof_C 	C 	0.249	0.251	0.259	-0.026
Mof_H 	H 	0.2319	0.2977	0.2545	0.018
Mof_C 	C 	0.215	0.046	0.798	-0.048
Mof_H 	H 	0.2614	0.0594	0.8155	0.014
Mof_C 	C 	0.197	0.054	0.749	0.017
Mof_H 	H 	0.2283	0.069	0.7311	0.016
Mof_C 	C 	0.082	0.049	0.7494	0.027
Mof_H 	H 	0.0354	0.0629	0.7337	0.018
Mof_C 	C 	0.11	0.041	0.8034	-0.085
Mof_H 	H 	0.0799	0.0498	0.8227	0.055
Mof_O 	O 	0.9682	0.3219	0.1748	-0.476
Mof_C 	C 	0.9401	0.283	0.2007	0.208
Mof_N 	N 	0.9756	0.2315	0.2236	-0.199
Mof_C 	C 	0.022	0.19	0.2002	0.259
Mof_H 	H 	0.0327	0.2178	0.1745	-0.031
Mof_H 	H 	0.0644	0.1805	0.2266	-0.209
Mof_H 	H 	0.0002	0.1459	0.1863	-0.019
Mof_C 	C 	0.9423	0.183	0.2523	0.347
Mof_H 	H 	0.9107	0.2136	0.2633	0.008
Mof_H 	H 	0.9192	0.1393	0.2397	-0.055
Mof_H 	H 	0.9833	0.1738	0.28	-0.134
Mof_C 	C 	0.8862	0.319	0.2233	-0.804
Mof_H 	H 	0.8746	0.363	0.205	0.222
Mof_H 	H 	0.8442	0.2913	0.2193	0.255
Mof_H 	H 	0.9076	0.3292	0.2583	0.236
Mof_O 	O 	0.866	0.529	0.1684	-0.175
Mof_La	La	0.50927	0.98252	0.58363	2.192
Mof_La	La	0.5418	0.56854	0.5597	2.003
Mof_O 	O 	0.5971	0.0758	0.6312	-0.425
Mof_O 	O 	0.5129	0.1146	0.5664	-0.444
Mof_O 	O 	0.443	0.888	0.6157	-0.108
Mof_O 	O 	0.9232	0.2969	0.8831	-0.355
Mof_O 	O 	0.8986	0.4092	0.8661	-0.52
Mof_O 	O 	0.5811	0.445	0.5759	-0.49
Mof_O 	O 	0.5149	0.3702	0.5198	-0.552
Mof_O 	O 	0.5632	0.5009	0.4738	-0.576
Mof_O 	O 	0.5336	0.4673	0.1484	-0.419
Mof_O 	O 	0.6344	0.427	0.1448	-0.429
Mof_O 	O 	0.9194	0.5019	0.4701	-0.588
Mof_O 	O 	0.885	0.4962	0.5395	-0.505
Mof_O 	O 	0.6467	0.5548	0.5315	-0.475
Mof_C 	C 	0.5677	0.1255	0.6034	0.325
Mof_C 	C 	0.5947	0.1993	0.6149	-0.103
Mof_C 	C 	0.5664	0.2547	0.5826	0.057
Mof_H 	H 	0.531	0.2456	0.5521	0.014
Mof_C 	C 	0.5895	0.323	0.5946	-0.145
Mof_C 	C 	0.5573	0.3854	0.5599	0.479
Mof_C 	C 	0.6413	0.3362	0.6402	0.025
Mof_H 	H 	0.6562	0.3832	0.6489	0.032
Mof_C 	C 	0.6714	0.281	0.673	-0.05
Mof_C 	C 	0.6472	0.2117	0.6594	0.005
Mof_H 	H 	0.667	0.1733	0.6808	0.028
Mof_C 	C 	0.7256	0.2953	0.7212	0.068
Mof_C 	C 	0.7312	0.3614	0.7428	-0.132
Mof_H 	H 	0.6987	0.397	0.7275	0.074
Mof_C 	C 	0.7833	0.3762	0.7865	0.019
Mof_H 	H 	0.7862	0.4218	0.8009	0.026
Mof_C 	C 	0.8246	0.2585	0.7889	-0.007
Mof_H 	H 	0.8558	0.2223	0.805	0.024
Mof_C 	C 	0.7727	0.2441	0.7451	-0.099
Mof_H 	H 	0.7692	0.1982	0.731	0.056
Mof_C 	C 	0.8312	0.3254	0.8094	-0.156
Mof_C 	C 	0.8887	0.3442	0.8571	0.415
Mof_C 	C 	0.627	0.5213	0.4916	0.43
Mof_C 	C 	0.6766	0.507	0.4632	-0.171
Mof_C 	C 	0.7478	0.5095	0.4883	0.082
Mof_H 	H 	0.7632	0.5181	0.5234	0.029
Mof_C 	C 	0.7958	0.4998	0.4632	-0.156
Mof_C 	C 	0.8716	0.5006	0.4932	0.419
Mof_C 	C 	0.7726	0.4901	0.4107	0.032
Mof_H 	H 	0.8055	0.4854	0.3929	0.021
Mof_C 	C 	0.7024	0.4872	0.3848	-0.061
Mof_C 	C 	0.6551	0.4944	0.4121	0.037
Mof_H 	H 	0.6069	0.4904	0.395	0.003
Mof_C 	C 	0.6766	0.479	0.3289	0.047
Mof_C 	C 	0.6251	0.4627	0.2244	-0.088
Mof_C 	C 	0.5957	0.4504	0.1689	0.313
Mof_C 	C 	0.7192	0.45	0.3034	-0.02
Mof_H 	H 	0.765	0.4352	0.3206	0.032
Mof_C 	C 	0.6921	0.443	0.2518	-0.012
Mof_H 	H 	0.7212	0.4244	0.234	0.006
Mof_C 	C 	0.5887	0.5007	0.2507	-0.026
Mof_H 	H 	0.545	0.5203	0.233	0.042
Mof_C 	C 	0.6144	0.5106	0.3022	-0.024
Mof_H 	H 	0.5898	0.5388	0.319	0.037
Mof_O 	O 	0.4646	0.033	0.6494	-0.451
Mof_N 	N 	0.4166	0.038	0.7134	-0.111
Mof_C 	C 	0.4337	0.0632	0.6773	0.351
Mof_C 	C 	0.3827	0.0768	0.7466	-0.449
Mof_H 	H 	0.3806	0.1272	0.7386	0.206
Mof_H 	H 	0.3357	0.0586	0.741	0.159
Mof_H 	H 	0.4098	0.0698	0.7817	0.17
Mof_C 	C 	0.4115	0.9594	0.7188	-0.169
Mof_H 	H 	0.4295	0.9357	0.6943	0.124
Mof_H 	H 	0.4387	0.9453	0.7528	0.075
Mof_H 	H 	0.363	0.9462	0.713	0.12
Mof_C 	C 	0.425	0.1454	0.6689	-0.442
Mof_H 	H 	0.4402	0.1587	0.6399	0.307
Mof_H 	H 	0.3769	0.1586	0.6628	0.147
Mof_H 	H 	0.4542	0.1699	0.6988	0.363
Mof_O 	O 	0.457	0.884	0.6269	-0.193
Mof_C 	C 	0.763	0.358	0.727	-0.005
Mof_H 	H 	0.7545	0.3913	0.7006	0.034
Mof_C 	C 	0.812	0.369	0.773	0.028
Mof_H 	H 	0.8334	0.4143	0.7779	0.013
Mof_C 	C 	0.801	0.269	0.806	0.047
Mof_H 	H 	0.8118	0.2373	0.8335	0.003
Mof_C 	C 	0.749	0.249	0.759	-0.026
Mof_H 	H 	0.7319	0.2023	0.7545	0.018
Mof_C 	C 	0.715	0.454	0.298	-0.048
Mof_H 	H 	0.7614	0.4406	0.3155	0.014
Mof_C 	C 	0.697	0.446	0.249	0.017
Mof_H 	H 	0.7283	0.431	0.2311	0.016
Mof_C 	C 	0.582	0.451	0.2494	0.026
Mof_H 	H 	0.5354	0.4371	0.2337	0.017
Mof_C 	C 	0.61	0.459	0.3034	-0.086
Mof_H 	H 	0.5799	0.4502	0.3227	0.055
Mof_O 	O 	0.4682	0.1781	0.6748	-0.477
Mof_C 	C 	0.4401	0.217	0.7007	0.208
Mof_N 	N 	0.4756	0.2685	0.7236	-0.2
Mof_C 	C 	0.522	0.31	0.7002	0.259
Mof_H 	H 	0.5327	0.2822	0.6745	-0.031
Mof_H 	H 	0.5644	0.3195	0.7266	-0.209
Mof_H 	H 	0.5002	0.3541	0.6863	-0.019
Mof_C 	C 	0.4423	0.317	0.7523	0.346
Mof_H 	H 	0.4107	0.2864	0.7633	0.008
Mof_H 	H 	0.4192	0.3607	0.7397	-0.055
Mof_H 	H 	0.4833	0.3262	0.78	-0.135
Mof_C 	C 	0.3862	0.181	0.7233	-0.804
Mof_H 	H 	0.3746	0.137	0.705	0.222
Mof_H 	H 	0.3442	0.2087	0.7193	0.255
Mof_H 	H 	0.4076	0.1708	0.7583	0.236
Mof_O 	O 	0.366	0.971	0.6684	-0.175
Mof_La	La	0.00927	0.48252	0.58363	2.195
Mof_La	La	0.0418	0.06854	0.5597	2.005
Mof_O 	O 	0.0971	0.5758	0.6312	-0.425
Mof_O 	O 	0.0129	0.6146	0.5664	-0.444
Mof_O 	O 	0.943	0.388	0.6157	-0.108
Mof_O 	O 	0.4232	0.7969	0.8831	-0.355
Mof_O 	O 	0.3986	0.9092	0.8661	-0.52
Mof_O 	O 	0.0811	0.945	0.5759	-0.49
Mof_O 	O 	0.0149	0.8702	0.5198	-0.552
Mof_O 	O 	0.0632	0.0009	0.4738	-0.576
Mof_O 	O 	0.0336	0.9673	0.1484	-0.419
Mof_O 	O 	0.1344	0.927	0.1448	-0.429
Mof_O 	O 	0.4194	0.0019	0.4701	-0.587
Mof_O 	O 	0.385	0.9962	0.5395	-0.505
Mof_O 	O 	0.1467	0.0548	0.5315	-0.475
Mof_C 	C 	0.0677	0.6255	0.6034	0.325
Mof_C 	C 	0.0947	0.6993	0.6149	-0.103
Mof_C 	C 	0.0664	0.7547	0.5826	0.057
Mof_H 	H 	0.031	0.7456	0.5521	0.014
Mof_C 	C 	0.0895	0.823	0.5946	-0.145
Mof_C 	C 	0.0573	0.8854	0.5599	0.479
Mof_C 	C 	0.1413	0.8362	0.6402	0.025
Mof_H 	H 	0.1562	0.8832	0.6489	0.032
Mof_C 	C 	0.1714	0.781	0.673	-0.05
Mof_C 	C 	0.1472	0.7117	0.6594	0.005
Mof_H 	H 	0.167	0.6733	0.6808	0.028
Mof_C 	C 	0.2256	0.7953	0.7212	0.068
Mof_C 	C 	0.2312	0.8614	0.7428	-0.132
Mof_H 	H 	0.1987	0.897	0.7275	0.074
Mof_C 	C 	0.2833	0.8762	0.7865	0.019
Mof_H 	H 	0.2862	0.9218	0.8009	0.026
Mof_C 	C 	0.3246	0.7585	0.7889	-0.007
Mof_H 	H 	0.3558	0.7223	0.805	0.024
Mof_C 	C 	0.2727	0.7441	0.7451	-0.099
Mof_H 	H 	0.2692	0.6982	0.731	0.056
Mof_C 	C 	0.3312	0.8254	0.8094	-0.156
Mof_C 	C 	0.3887	0.8442	0.8571	0.415
Mof_C 	C 	0.127	0.0213	0.4916	0.43
Mof_C 	C 	0.1766	0.007	0.4632	-0.171
Mof_C 	C 	0.2478	0.0095	0.4883	0.082
Mof_H 	H 	0.2632	0.0181	0.5234	0.029
Mof_C 	C 	0.2958	0.9998	0.4632	-0.156
Mof_C 	C 	0.3716	0.0006	0.4932	0.419
Mof_C 	C 	0.2726	0.9901	0.4107	0.032
Mof_H 	H 	0.3055	0.9854	0.3929	0.021
Mof_C 	C 	0.2024	0.9872	0.3848	-0.061
Mof_C 	C 	0.1551	0.9944	0.4121	0.037
Mof_H 	H 	0.1069	0.9904	0.395	0.003
Mof_C 	C 	0.1766	0.979	0.3289	0.047
Mof_C 	C 	0.1251	0.9627	0.2244	-0.088
Mof_C 	C 	0.0957	0.9504	0.1689	0.313
Mof_C 	C 	0.2192	0.95	0.3034	-0.02
Mof_H 	H 	0.265	0.9352	0.3206	0.032
Mof_C 	C 	0.1921	0.943	0.2518	-0.012
Mof_H 	H 	0.2212	0.9244	0.234	0.006
Mof_C 	C 	0.0887	0.0007	0.2507	-0.027
Mof_H 	H 	0.045	0.0203	0.233	0.042
Mof_C 	C 	0.1144	0.0106	0.3022	-0.024
Mof_H 	H 	0.0898	0.0388	0.319	0.037
Mof_O 	O 	0.9646	0.533	0.6494	-0.452
Mof_N 	N 	0.9166	0.538	0.7134	-0.111
Mof_C 	C 	0.9337	0.5632	0.6773	0.351
Mof_C 	C 	0.8827	0.5768	0.7466	-0.449
Mof_H 	H 	0.8806	0.6272	0.7386	0.206
Mof_H 	H 	0.8357	0.5586	0.741	0.159
Mof_H 	H 	0.9098	0.5698	0.7817	0.169
Mof_C 	C 	0.9115	0.4594	0.7188	-0.169
Mof_H 	H 	0.9295	0.4357	0.6943	0.124
Mof_H 	H 	0.9387	0.4453	0.7528	0.075
Mof_H 	H 	0.863	0.4462	0.713	0.12
Mof_C 	C 	0.925	0.6454	0.6689	-0.442
Mof_H 	H 	0.9402	0.6587	0.6399	0.307
Mof_H 	H 	0.8769	0.6586	0.6628	0.147
Mof_H 	H 	0.9542	0.6699	0.6988	0.363
Mof_O 	O 	0.957	0.384	0.6269	-0.193
Mof_C 	C 	0.263	0.858	0.727	-0.005
Mof_H 	H 	0.2545	0.8913	0.7006	0.034
Mof_C 	C 	0.312	0.869	0.773	0.028
Mof_H 	H 	0.3334	0.9143	0.7779	0.013
Mof_C 	C 	0.301	0.769	0.806	0.047
Mof_H 	H 	0.3118	0.7373	0.8335	0.003
Mof_C 	C 	0.249	0.749	0.759	-0.026
Mof_H 	H 	0.2319	0.7023	0.7545	0.018
Mof_C 	C 	0.215	0.954	0.298	-0.048
Mof_H 	H 	0.2614	0.9406	0.3155	0.014
Mof_C 	C 	0.197	0.946	0.249	0.017
Mof_H 	H 	0.2283	0.931	0.2311	0.016
Mof_C 	C 	0.082	0.951	0.2494	0.026
Mof_H 	H 	0.0354	0.9371	0.2337	0.017
Mof_C 	C 	0.11	0.959	0.3034	-0.085
Mof_H 	H 	0.0799	0.9502	0.3227	0.055
Mof_O 	O 	0.9682	0.6781	0.6748	-0.477
Mof_C 	C 	0.9401	0.717	0.7007	0.208
Mof_N 	N 	0.9756	0.7685	0.7236	-0.2
Mof_C 	C 	0.022	0.81	0.7002	0.258
Mof_H 	H 	0.0327	0.7822	0.6745	-0.03
Mof_H 	H 	0.0644	0.8195	0.7266	-0.209
Mof_H 	H 	0.0002	0.8541	0.6863	-0.018
Mof_C 	C 	0.9423	0.817	0.7523	0.346
Mof_H 	H 	0.9107	0.7864	0.7633	0.008
Mof_H 	H 	0.9192	0.8607	0.7397	-0.055
Mof_H 	H 	0.9833	0.8262	0.78	-0.135
Mof_C 	C 	0.8862	0.681	0.7233	-0.803
Mof_H 	H 	0.8746	0.637	0.705	0.222
Mof_H 	H 	0.8442	0.7087	0.7193	0.255
Mof_H 	H 	0.9076	0.6708	0.7583	0.236
Mof_O 	O 	0.866	0.471	0.6684	-0.175
Mof_La	La	0.49073	0.98252	0.91637	2.191
Mof_La	La	0.4582	0.56854	0.9403	2.003
Mof_O 	O 	0.4029	0.0758	0.8688	-0.425
Mof_O 	O 	0.4871	0.1146	0.9336	-0.444
Mof_O 	O 	0.557	0.888	0.8843	-0.108
Mof_O 	O 	0.0768	0.2969	0.6169	-0.355
Mof_O 	O 	0.1014	0.4092	0.6339	-0.52
Mof_O 	O 	0.4189	0.445	0.9241	-0.49
Mof_O 	O 	0.4851	0.3702	0.9802	-0.552
Mof_O 	O 	0.4368	0.5009	0.0262	-0.576
Mof_O 	O 	0.4664	0.4673	0.3516	-0.419
Mof_O 	O 	0.3656	0.427	0.3552	-0.429
Mof_O 	O 	0.0806	0.5019	0.0299	-0.586
Mof_O 	O 	0.115	0.4962	0.9605	-0.502
Mof_O 	O 	0.3533	0.5548	0.9685	-0.474
Mof_C 	C 	0.4323	0.1255	0.8966	0.325
Mof_C 	C 	0.4053	0.1993	0.8851	-0.103
Mof_C 	C 	0.4336	0.2547	0.9174	0.057
Mof_H 	H 	0.469	0.2456	0.9479	0.014
Mof_C 	C 	0.4105	0.323	0.9054	-0.145
Mof_C 	C 	0.4427	0.3854	0.9401	0.479
Mof_C 	C 	0.3587	0.3362	0.8598	0.025
Mof_H 	H 	0.3438	0.3832	0.8511	0.032
Mof_C 	C 	0.3286	0.281	0.827	-0.05
Mof_C 	C 	0.3528	0.2117	0.8406	0.005
Mof_H 	H 	0.333	0.1733	0.8192	0.028
Mof_C 	C 	0.2744	0.2953	0.7788	0.068
Mof_C 	C 	0.2688	0.3614	0.7572	-0.132
Mof_H 	H 	0.3013	0.397	0.7725	0.074
Mof_C 	C 	0.2167	0.3762	0.7135	0.019
Mof_H 	H 	0.2138	0.4218	0.6991	0.026
Mof_C 	C 	0.1754	0.2585	0.7111	-0.006
Mof_H 	H 	0.1442	0.2223	0.695	0.024
Mof_C 	C 	0.2273	0.2441	0.7549	-0.098
Mof_H 	H 	0.2308	0.1982	0.769	0.056
Mof_C 	C 	0.1688	0.3254	0.6906	-0.156
Mof_C 	C 	0.1113	0.3442	0.6429	0.415
Mof_C 	C 	0.373	0.5213	0.0084	0.428
Mof_C 	C 	0.3234	0.507	0.0368	-0.168
Mof_C 	C 	0.2522	0.5095	0.0117	0.077
Mof_H 	H 	0.2368	0.5181	0.9766	0.031
Mof_C 	C 	0.2042	0.4998	0.0368	-0.153
Mof_C 	C 	0.1284	0.5006	0.0068	0.416
Mof_C 	C 	0.2274	0.4901	0.0893	0.031
Mof_H 	H 	0.1945	0.4854	0.1071	0.021
Mof_C 	C 	0.2976	0.4872	0.1152	-0.06
Mof_C 	C 	0.3449	0.4944	0.0879	0.036
Mof_H 	H 	0.3931	0.4904	0.105	0.003
Mof_C 	C 	0.3234	0.479	0.1711	0.047
Mof_C 	C 	0.3749	0.4627	0.2756	-0.088
Mof_C 	C 	0.4043	0.4504	0.3311	0.313
Mof_C 	C 	0.2808	0.45	0.1966	-0.02
Mof_H 	H 	0.235	0.4352	0.1794	0.032
Mof_C 	C 	0.3079	0.443	0.2482	-0.012
Mof_H 	H 	0.2788	0.4244	0.266	0.006
Mof_C 	C 	0.4113	0.5007	0.2493	-0.026
Mof_H 	H 	0.455	0.5203	0.267	0.042
Mof_C 	C 	0.3856	0.5106	0.1978	-0.024
Mof_H 	H 	0.4102	0.5388	0.181	0.037
Mof_O 	O 	0.5354	0.033	0.8506	-0.451
Mof_N 	N 	0.5834	0.038	0.7866	-0.111
Mof_C 	C 	0.5663	0.0632	0.8227	0.351
Mof_C 	C 	0.6173	0.0768	0.7534	-0.449
Mof_H 	H 	0.6194	0.1272	0.7614	0.206
Mof_H 	H 	0.6643	0.0586	0.759	0.159
Mof_H 	H 	0.5902	0.0698	0.7183	0.17
Mof_C 	C 	0.5885	0.9594	0.7812	-0.169
Mof_H 	H 	0.5705	0.9357	0.8057	0.124
Mof_H 	H 	0.5613	0.9453	0.7472	0.075
Mof_H 	H 	0.637	0.9462	0.787	0.12
Mof_C 	C 	0.575	0.1454	0.8311	-0.441
Mof_H 	H 	0.5598	0.1587	0.8601	0.307
Mof_H 	H 	0.6231	0.1586	0.8372	0.147
Mof_H 	H 	0.5458	0.1699	0.8012	0.363
Mof_O 	O 	0.543	0.884	0.8731	-0.193
Mof_C 	C 	0.237	0.358	0.773	-0.006
Mof_H 	H 	0.2455	0.3913	0.7994	0.034
Mof_C 	C 	0.188	0.369	0.727	0.028
Mof_H 	H 	0.1666	0.4143	0.7221	0.013
Mof_C 	C 	0.199	0.269	0.694	0.046
Mof_H 	H 	0.1882	0.2373	0.6665	0.003
Mof_C 	C 	0.251	0.249	0.741	-0.027
Mof_H 	H 	0.2681	0.2023	0.7455	0.018
Mof_C 	C 	0.285	0.454	0.202	-0.048
Mof_H 	H 	0.2386	0.4406	0.1845	0.014
Mof_C 	C 	0.303	0.446	0.251	0.017
Mof_H 	H 	0.2717	0.431	0.2689	0.016
Mof_C 	C 	0.418	0.451	0.2506	0.026
Mof_H 	H 	0.4646	0.4371	0.2663	0.017
Mof_C 	C 	0.39	0.459	0.1966	-0.085
Mof_H 	H 	0.4201	0.4502	0.1773	0.055
Mof_O 	O 	0.5318	0.1781	0.8252	-0.477
Mof_C 	C 	0.5599	0.217	0.7993	0.208
Mof_N 	N 	0.5244	0.2685	0.7764	-0.2
Mof_C 	C 	0.478	0.31	0.7998	0.259
Mof_H 	H 	0.4673	0.2822	0.8255	-0.031
Mof_H 	H 	0.4356	0.3195	0.7734	-0.209
Mof_H 	H 	0.4998	0.3541	0.8137	-0.019
Mof_C 	C 	0.5577	0.317	0.7477	0.346
Mof_H 	H 	0.5893	0.2864	0.7367	0.008
Mof_H 	H 	0.5808	0.3607	0.7603	-0.055
Mof_H 	H 	0.5167	0.3262	0.72	-0.135
Mof_C 	C 	0.6138	0.181	0.7767	-0.804
Mof_H 	H 	0.6254	0.137	0.795	0.222
Mof_H 	H 	0.6558	0.2087	0.7807	0.255
Mof_H 	H 	0.5924	0.1708	0.7417	0.236
Mof_O 	O 	0.634	0.971	0.8316	-0.175
Mof_La	La	0.99073	0.48252	0.91637	2.189
Mof_La	La	0.9582	0.06854	0.9403	2.002
Mof_O 	O 	0.9029	0.5758	0.8688	-0.425
Mof_O 	O 	0.9871	0.6146	0.9336	-0.444
Mof_O 	O 	0.057	0.388	0.8843	-0.107
Mof_O 	O 	0.5768	0.7969	0.6169	-0.355
Mof_O 	O 	0.6014	0.9092	0.6339	-0.52
Mof_O 	O 	0.9189	0.945	0.9241	-0.49
Mof_O 	O 	0.9851	0.8702	0.9802	-0.552
Mof_O 	O 	0.9368	0.0009	0.0262	-0.575
Mof_O 	O 	0.9664	0.9673	0.3516	-0.419
Mof_O 	O 	0.8656	0.927	0.3552	-0.429
Mof_O 	O 	0.5806	0.0019	0.0299	-0.587
Mof_O 	O 	0.615	0.9962	0.9605	-0.505
Mof_O 	O 	0.8533	0.0548	0.9685	-0.476
Mof_C 	C 	0.9323	0.6255	0.8966	0.325
Mof_C 	C 	0.9053	0.6993	0.8851	-0.103
Mof_C 	C 	0.9336	0.7547	0.9174	0.057
Mof_H 	H 	0.969	0.7456	0.9479	0.014
Mof_C 	C 	0.9105	0.823	0.9054	-0.145
Mof_C 	C 	0.9427	0.8854	0.9401	0.478
Mof_C 	C 	0.8587	0.8362	0.8598	0.025
Mof_H 	H 	0.8438	0.8832	0.8511	0.032
Mof_C 	C 	0.8286	0.781	0.827	-0.05
Mof_C 	C 	0.8528	0.7117	0.8406	0.005
Mof_H 	H 	0.833	0.6733	0.8192	0.028
Mof_C 	C 	0.7744	0.7953	0.7788	0.068
Mof_C 	C 	0.7688	0.8614	0.7572	-0.132
Mof_H 	H 	0.8013	0.897	0.7725	0.074
Mof_C 	C 	0.7167	0.8762	0.7135	0.019
Mof_H 	H 	0.7138	0.9218	0.6991	0.026
Mof_C 	C 	0.6754	0.7585	0.7111	-0.007
Mof_H 	H 	0.6442	0.7223	0.695	0.024
Mof_C 	C 	0.7273	0.7441	0.7549	-0.099
Mof_H 	H 	0.7308	0.6982	0.769	0.056
Mof_C 	C 	0.6688	0.8254	0.6906	-0.156
Mof_C 	C 	0.6113	0.8442	0.6429	0.415
Mof_C 	C 	0.873	0.0213	0.0084	0.432
Mof_C 	C 	0.8234	0.007	0.0368	-0.172
Mof_C 	C 	0.7522	0.0095	0.0117	0.083
Mof_H 	H 	0.7368	0.0181	0.9766	0.028
Mof_C 	C 	0.7042	0.9998	0.0368	-0.156
Mof_C 	C 	0.6284	0.0006	0.0068	0.42
Mof_C 	C 	0.7274	0.9901	0.0893	0.033
Mof_H 	H 	0.6945	0.9854	0.1071	0.021
Mof_C 	C 	0.7976	0.9872	0.1152	-0.061
Mof_C 	C 	0.8449	0.9944	0.0879	0.038
Mof_H 	H 	0.8931	0.9904	0.105	0.003
Mof_C 	C 	0.8234	0.979	0.1711	0.048
Mof_C 	C 	0.8749	0.9627	0.2756	-0.088
Mof_C 	C 	0.9043	0.9504	0.3311	0.312
Mof_C 	C 	0.7808	0.95	0.1966	-0.02
Mof_H 	H 	0.735	0.9352	0.1794	0.032
Mof_C 	C 	0.8079	0.943	0.2482	-0.012
Mof_H 	H 	0.7788	0.9244	0.266	0.006
Mof_C 	C 	0.9113	0.0007	0.2493	-0.027
Mof_H 	H 	0.955	0.0203	0.267	0.043
Mof_C 	C 	0.8856	0.0106	0.1978	-0.024
Mof_H 	H 	0.9102	0.0388	0.181	0.038
Mof_O 	O 	0.0354	0.533	0.8506	-0.45
Mof_N 	N 	0.0834	0.538	0.7866	-0.111
Mof_C 	C 	0.0663	0.5632	0.8227	0.351
Mof_C 	C 	0.1173	0.5768	0.7534	-0.449
Mof_H 	H 	0.1194	0.6272	0.7614	0.206
Mof_H 	H 	0.1643	0.5586	0.759	0.159
Mof_H 	H 	0.0902	0.5698	0.7183	0.17
Mof_C 	C 	0.0885	0.4594	0.7812	-0.169
Mof_H 	H 	0.0705	0.4357	0.8057	0.124
Mof_H 	H 	0.0613	0.4453	0.7472	0.076
Mof_H 	H 	0.137	0.4462	0.787	0.12
Mof_C 	C 	0.075	0.6454	0.8311	-0.443
Mof_H 	H 	0.0598	0.6587	0.8601	0.308
Mof_H 	H 	0.1231	0.6586	0.8372	0.148
Mof_H 	H 	0.0458	0.6699	0.8012	0.363
Mof_O 	O 	0.043	0.384	0.8731	-0.193
Mof_C 	C 	0.737	0.858	0.773	-0.005
Mof_H 	H 	0.7455	0.8913	0.7994	0.034
Mof_C 	C 	0.688	0.869	0.727	0.028
Mof_H 	H 	0.6666	0.9143	0.7221	0.013
Mof_C 	C 	0.699	0.769	0.694	0.047
Mof_H 	H 	0.6882	0.7373	0.6665	0.003
Mof_C 	C 	0.751	0.749	0.741	-0.026
Mof_H 	H 	0.7681	0.7023	0.7455	0.018
Mof_C 	C 	0.785	0.954	0.202	-0.048
Mof_H 	H 	0.7386	0.9406	0.1845	0.014
Mof_C 	C 	0.803	0.946	0.251	0.017
Mof_H 	H 	0.7717	0.931	0.2689	0.016
Mof_C 	C 	0.918	0.951	0.2506	0.027
Mof_H 	H 	0.9646	0.9371	0.2663	0.018
Mof_C 	C 	0.89	0.959	0.1966	-0.085
Mof_H 	H 	0.9201	0.9502	0.1773	0.055
Mof_O 	O 	0.0318	0.6781	0.8252	-0.476
Mof_C 	C 	0.0599	0.717	0.7993	0.208
Mof_N 	N 	0.0244	0.7685	0.7764	-0.199
Mof_C 	C 	0.978	0.81	0.7998	0.259
Mof_H 	H 	0.9673	0.7822	0.8255	-0.031
Mof_H 	H 	0.9356	0.8195	0.7734	-0.209
Mof_H 	H 	0.9998	0.8541	0.8137	-0.019
Mof_C 	C 	0.0577	0.817	0.7477	0.347
Mof_H 	H 	0.0893	0.7864	0.7367	0.008
Mof_H 	H 	0.0808	0.8607	0.7603	-0.055
Mof_H 	H 	0.0167	0.8262	0.72	-0.134
Mof_C 	C 	0.1138	0.681	0.7767	-0.804
Mof_H 	H 	0.1254	0.637	0.795	0.222
Mof_H 	H 	0.1558	0.7087	0.7807	0.255
Mof_H 	H 	0.0924	0.6708	0.7417	0.236
Mof_O 	O 	0.134	0.471	0.8316	-0.175
_end
