data_functionalizedCrystal
_audit_creation_method	'EQeq! by Chris Wilmer'
_symmetry_space_group_name_H-M	'P1'
_symmetry_Int_Tables_number	1
_symmetry_cell_setting	triclinic
loop_
_symmetry_equiv_pos_as_xyz
  x,y,z
_cell_length_a	16.2825
_cell_length_b	33.8405
_cell_length_c	16.9649
_cell_angle_alpha	90
_cell_angle_beta	90
_cell_angle_gamma	90
loop_
_atom_site_label
_atom_site_type_symbol
_atom_site_fract_x
_atom_site_fract_y
_atom_site_fract_z
_atom_site_charge
Mof_Eu	Eu	0.48219	0.55375	0.44508	2.178
Mof_Zn	Zn	0.73881	0.49087	0.71146	1.19
Mof_Zn	Zn	0.5634	0.66551	0.17231	1.164
Mof_Zn	Zn	0.26818	0.65984	0.93129	1.202
Mof_O 	O 	0.5654	0.51485	0.5325	-0.68
Mof_O 	O 	0.6395	0.48009	0.614	-0.602
Mof_O 	O 	0.5977	0.58822	0.4535	-0.598
Mof_O 	O 	0.6772	0.63929	0.4834	-0.473
Mof_O 	O 	0.463	0.58707	0.3312	-0.582
Mof_O 	O 	0.485	0.64148	0.2621	-0.503
Mof_O 	O 	0.5597	0.5171	0.358	-0.526
Mof_O 	O 	0.6714	0.49487	0.2985	-0.474
Mof_O 	O 	0.6197	0.70824	0.9526	-0.608
Mof_O 	O 	0.6322	0.68805	0.0772	-0.506
Mof_O 	O 	0.4851	0.70894	0.8452	-0.579
Mof_O 	O 	0.3664	0.67651	0.8483	-0.437
Mof_O 	O 	0.6305	0.70762	0.7558	-0.628
Mof_O 	O 	0.686	0.66363	0.6738	-0.42
Mof_N 	N 	0.7477	0.53903	0.6439	-0.305
Mof_N 	N 	0.7635	0.59862	0.5899	-0.274
Mof_N 	N 	0.622	0.6144	0.1954	-0.302
Mof_N 	N 	0.693	0.55866	0.2092	-0.298
Mof_N 	N 	0.4718	0.67273	0.0941	-0.303
Mof_N 	N 	0.3703	0.6672	0.0065	-0.286
Mof_N 	N 	0.7274	0.71701	0.5664	-0.308
Mof_N 	N 	0.6493	0.48249	0.7952	-0.271
Mof_N 	N 	0.3469	0.424	0.0754	-0.145
Mof_C 	C 	0.6279	0.51216	0.5767	0.386
Mof_C 	C 	0.6872	0.54368	0.587	-0.084
Mof_C 	C 	0.6983	0.58085	0.554	-0.078
Mof_C 	C 	0.6534	0.60439	0.4932	0.412
Mof_C 	C 	0.791	0.57274	0.6433	0.329
Mof_C 	C 	0.8634	0.5808	0.696	-0.91
Mof_H 	H 	0.9127	0.5816	0.665	0.29
Mof_H 	H 	0.8678	0.5602	0.7347	0.288
Mof_H 	H 	0.856	0.6057	0.722	0.292
Mof_C 	C 	0.5047	0.6073	0.2838	0.407
Mof_C 	C 	0.5821	0.59148	0.25	-0.082
Mof_C 	C 	0.6262	0.55684	0.2597	-0.072
Mof_C 	C 	0.6179	0.52102	0.3088	0.388
Mof_C 	C 	0.6887	0.5937	0.1732	0.29
Mof_C 	C 	0.7513	0.6091	0.1169	-0.773
Mof_H 	H 	0.7988	0.6178	0.1456	0.22
Mof_H 	H 	0.7286	0.6308	0.088	0.235
Mof_H 	H 	0.7669	0.5885	0.081	0.206
Mof_C 	C 	0.5892	0.6951	0.0165	0.406
Mof_C 	C 	0.501	0.6855	0.0214	-0.117
Mof_C 	C 	0.4377	0.682	0.968	-0.084
Mof_C 	C 	0.4297	0.68982	0.8815	0.399
Mof_C 	C 	0.392	0.66288	0.0816	0.285
Mof_C 	C 	0.3345	0.6516	0.1464	-0.84
Mof_H 	H 	0.3227	0.6744	0.1782	0.226
Mof_H 	H 	0.3594	0.6316	0.1785	0.27
Mof_H 	H 	0.2844	0.6416	0.1242	0.256
Mof_C 	C 	0.6683	0.69888	0.6928	0.418
Mof_C 	C 	0.6927	0.72939	0.636	-0.087
Mof_C 	C 	0.5748	0.4996	0.796	0.089
Mof_H 	H 	0.5633	0.519	0.7588	-0.031
Mof_C 	C 	0.5139	0.4895	0.8502	-0.133
Mof_H 	H 	0.463	0.5019	0.8481	0.058
Mof_C 	C 	0.5294	0.461	0.9073	0.052
Mof_C 	C 	0.6083	0.4449	0.9077	-0.143
Mof_H 	H 	0.6225	0.4264	0.9458	0.065
Mof_C 	C 	0.665	0.4561	0.8522	0.072
Mof_H 	H 	0.7171	0.4449	0.8543	-0.026
Mof_C 	C 	0.335	0.4552	0.0289	0.055
Mof_H 	H 	0.2854	0.4686	0.033	-0.011
Mof_C 	C 	0.3925	0.469	0.9741	-0.125
Mof_H 	H 	0.3816	0.4914	0.944	0.052
Mof_C 	C 	0.4666	0.4487	0.9654	0.038
Mof_C 	C 	0.4785	0.4165	0.0149	-0.136
Mof_H 	H 	0.528	0.4028	0.0128	0.059
Mof_C 	C 	0.4188	0.4045	0.0668	0.055
Mof_H 	H 	0.4282	0.382	0.0972	0.004
Mof_H 	H 	0.7823	0.7765	0.4246	0.23
Mof_H 	H 	0.7479	0.7338	0.4109	0.221
Mof_H 	H 	0.8361	0.7397	0.446	0.23
Mof_Eu	Eu	0.01781	0.44625	0.94508	2.167
Mof_Zn	Zn	0.76119	0.50913	0.21146	1.19
Mof_Zn	Zn	0.9366	0.33449	0.67231	1.165
Mof_Zn	Zn	0.23182	0.34016	0.43129	1.203
Mof_O 	O 	0.9346	0.48515	0.0325	-0.68
Mof_O 	O 	0.8605	0.51991	0.114	-0.601
Mof_O 	O 	0.9023	0.41178	0.9535	-0.595
Mof_O 	O 	0.8228	0.36071	0.9834	-0.472
Mof_O 	O 	0.037	0.41293	0.8312	-0.585
Mof_O 	O 	0.015	0.35852	0.7621	-0.507
Mof_O 	O 	0.9403	0.4829	0.858	-0.522
Mof_O 	O 	0.8286	0.50513	0.7985	-0.473
Mof_O 	O 	0.8803	0.29176	0.4526	-0.61
Mof_O 	O 	0.8678	0.31195	0.5772	-0.506
Mof_O 	O 	0.0149	0.29106	0.3452	-0.576
Mof_O 	O 	0.1336	0.32349	0.3483	-0.436
Mof_O 	O 	0.8695	0.29238	0.2558	-0.628
Mof_O 	O 	0.814	0.33637	0.1738	-0.421
Mof_N 	N 	0.7523	0.46097	0.1439	-0.305
Mof_N 	N 	0.7365	0.40138	0.0899	-0.274
Mof_N 	N 	0.878	0.3856	0.6954	-0.301
Mof_N 	N 	0.807	0.44134	0.7092	-0.299
Mof_N 	N 	0.0282	0.32727	0.5941	-0.303
Mof_N 	N 	0.1297	0.3328	0.5065	-0.287
Mof_N 	N 	0.7726	0.28299	0.0664	-0.308
Mof_N 	N 	0.8507	0.51751	0.2952	-0.272
Mof_N 	N 	0.1531	0.576	0.5754	-0.145
Mof_C 	C 	0.8721	0.48784	0.0767	0.385
Mof_C 	C 	0.8128	0.45632	0.087	-0.084
Mof_C 	C 	0.8017	0.41915	0.054	-0.082
Mof_C 	C 	0.8466	0.39561	0.9932	0.415
Mof_C 	C 	0.709	0.42726	0.1433	0.328
Mof_C 	C 	0.6366	0.4192	0.196	-0.907
Mof_H 	H 	0.5873	0.4184	0.165	0.288
Mof_H 	H 	0.6322	0.4398	0.2347	0.286
Mof_H 	H 	0.644	0.3943	0.222	0.291
Mof_C 	C 	0.9953	0.3927	0.7838	0.415
Mof_C 	C 	0.9179	0.40852	0.75	-0.084
Mof_C 	C 	0.8738	0.44316	0.7597	-0.071
Mof_C 	C 	0.8821	0.47898	0.8088	0.386
Mof_C 	C 	0.8113	0.4063	0.6732	0.29
Mof_C 	C 	0.7487	0.3909	0.6169	-0.774
Mof_H 	H 	0.7012	0.3822	0.6456	0.22
Mof_H 	H 	0.7714	0.3692	0.588	0.236
Mof_H 	H 	0.7331	0.4115	0.581	0.207
Mof_C 	C 	0.9108	0.3049	0.5165	0.408
Mof_C 	C 	0.999	0.3145	0.5214	-0.119
Mof_C 	C 	0.0623	0.318	0.468	-0.082
Mof_C 	C 	0.0703	0.31018	0.3815	0.398
Mof_C 	C 	0.108	0.33712	0.5816	0.284
Mof_C 	C 	0.1655	0.3484	0.6464	-0.839
Mof_H 	H 	0.1773	0.3256	0.6782	0.226
Mof_H 	H 	0.1406	0.3684	0.6785	0.27
Mof_H 	H 	0.2156	0.3584	0.6242	0.256
Mof_C 	C 	0.8317	0.30112	0.1928	0.417
Mof_C 	C 	0.8073	0.27061	0.136	-0.088
Mof_C 	C 	0.9252	0.5004	0.296	0.091
Mof_H 	H 	0.9367	0.481	0.2588	-0.033
Mof_C 	C 	0.9861	0.5105	0.3502	-0.138
Mof_H 	H 	0.037	0.4981	0.3481	0.061
Mof_C 	C 	0.9706	0.539	0.4073	0.054
Mof_C 	C 	0.8917	0.5551	0.4077	-0.145
Mof_H 	H 	0.8775	0.5736	0.4458	0.065
Mof_C 	C 	0.835	0.5439	0.3522	0.073
Mof_H 	H 	0.7829	0.5551	0.3543	-0.026
Mof_C 	C 	0.165	0.5448	0.5289	0.052
Mof_H 	H 	0.2146	0.5314	0.533	-0.012
Mof_C 	C 	0.1075	0.531	0.4741	-0.122
Mof_H 	H 	0.1184	0.5086	0.444	0.052
Mof_C 	C 	0.0334	0.5513	0.4654	0.038
Mof_C 	C 	0.0215	0.5835	0.5149	-0.138
Mof_H 	H 	0.972	0.5972	0.5128	0.061
Mof_C 	C 	0.0812	0.5955	0.5668	0.056
Mof_H 	H 	0.0718	0.618	0.5972	0.003
Mof_H 	H 	0.7177	0.2235	0.9246	0.228
Mof_H 	H 	0.7521	0.2662	0.9109	0.219
Mof_H 	H 	0.6639	0.2603	0.946	0.228
Mof_Eu	Eu	0.51781	0.05375	0.55492	2.178
Mof_Zn	Zn	0.26119	0.99087	0.28854	1.19
Mof_Zn	Zn	0.4366	0.16551	0.82769	1.164
Mof_Zn	Zn	0.73182	0.15984	0.06871	1.202
Mof_O 	O 	0.4346	0.01485	0.4675	-0.68
Mof_O 	O 	0.3605	0.98009	0.386	-0.602
Mof_O 	O 	0.4023	0.08822	0.5465	-0.598
Mof_O 	O 	0.3228	0.13929	0.5166	-0.473
Mof_O 	O 	0.537	0.08707	0.6688	-0.582
Mof_O 	O 	0.515	0.14148	0.7379	-0.503
Mof_O 	O 	0.4403	0.0171	0.642	-0.526
Mof_O 	O 	0.3286	0.99487	0.7015	-0.474
Mof_O 	O 	0.3803	0.20824	0.0474	-0.608
Mof_O 	O 	0.3678	0.18805	0.9228	-0.506
Mof_O 	O 	0.5149	0.20894	0.1548	-0.579
Mof_O 	O 	0.6336	0.17651	0.1517	-0.437
Mof_O 	O 	0.3695	0.20762	0.2442	-0.628
Mof_O 	O 	0.314	0.16363	0.3262	-0.42
Mof_N 	N 	0.2523	0.03903	0.3561	-0.305
Mof_N 	N 	0.2365	0.09862	0.4101	-0.274
Mof_N 	N 	0.378	0.1144	0.8046	-0.302
Mof_N 	N 	0.307	0.05866	0.7908	-0.298
Mof_N 	N 	0.5282	0.17273	0.9059	-0.303
Mof_N 	N 	0.6297	0.1672	0.9935	-0.286
Mof_N 	N 	0.2726	0.21701	0.4336	-0.308
Mof_N 	N 	0.3507	0.98249	0.2048	-0.271
Mof_N 	N 	0.6531	0.924	0.9246	-0.145
Mof_C 	C 	0.3721	0.01216	0.4233	0.386
Mof_C 	C 	0.3128	0.04368	0.413	-0.085
Mof_C 	C 	0.3017	0.08085	0.446	-0.078
Mof_C 	C 	0.3466	0.10439	0.5068	0.412
Mof_C 	C 	0.209	0.07274	0.3567	0.329
Mof_C 	C 	0.1366	0.0808	0.304	-0.91
Mof_H 	H 	0.0873	0.0816	0.335	0.29
Mof_H 	H 	0.1322	0.0602	0.2653	0.288
Mof_H 	H 	0.144	0.1057	0.278	0.292
Mof_C 	C 	0.4953	0.1073	0.7162	0.407
Mof_C 	C 	0.4179	0.09148	0.75	-0.082
Mof_C 	C 	0.3738	0.05684	0.7403	-0.072
Mof_C 	C 	0.3821	0.02102	0.6912	0.387
Mof_C 	C 	0.3113	0.0937	0.8268	0.29
Mof_C 	C 	0.2487	0.1091	0.8831	-0.772
Mof_H 	H 	0.2012	0.1178	0.8544	0.22
Mof_H 	H 	0.2714	0.1308	0.912	0.235
Mof_H 	H 	0.2331	0.0885	0.919	0.206
Mof_C 	C 	0.4108	0.1951	0.9835	0.406
Mof_C 	C 	0.499	0.1855	0.9786	-0.117
Mof_C 	C 	0.5623	0.182	0.032	-0.084
Mof_C 	C 	0.5703	0.18982	0.1185	0.399
Mof_C 	C 	0.608	0.16288	0.9184	0.285
Mof_C 	C 	0.6655	0.1516	0.8536	-0.84
Mof_H 	H 	0.6773	0.1744	0.8218	0.226
Mof_H 	H 	0.6406	0.1316	0.8215	0.27
Mof_H 	H 	0.7156	0.1416	0.8758	0.256
Mof_C 	C 	0.3317	0.19888	0.3072	0.418
Mof_C 	C 	0.3073	0.22939	0.364	-0.087
Mof_C 	C 	0.4252	0.9996	0.204	0.088
Mof_H 	H 	0.4367	0.019	0.2412	-0.031
Mof_C 	C 	0.4861	0.9895	0.1498	-0.134
Mof_H 	H 	0.537	0.0019	0.1519	0.059
Mof_C 	C 	0.4706	0.961	0.0927	0.053
Mof_C 	C 	0.3917	0.9449	0.0923	-0.144
Mof_H 	H 	0.3775	0.9264	0.0542	0.065
Mof_C 	C 	0.335	0.9561	0.1478	0.072
Mof_H 	H 	0.2829	0.9449	0.1457	-0.026
Mof_C 	C 	0.665	0.9552	0.9711	0.056
Mof_H 	H 	0.7146	0.9686	0.967	-0.011
Mof_C 	C 	0.6075	0.969	0.0259	-0.126
Mof_H 	H 	0.6184	0.9914	0.056	0.052
Mof_C 	C 	0.5334	0.9487	0.0346	0.037
Mof_C 	C 	0.5215	0.9165	0.9851	-0.134
Mof_H 	H 	0.472	0.9028	0.9872	0.059
Mof_C 	C 	0.5812	0.9045	0.9332	0.055
Mof_H 	H 	0.5718	0.882	0.9028	0.004
Mof_H 	H 	0.2177	0.2765	0.5754	0.23
Mof_H 	H 	0.2521	0.2338	0.5891	0.221
Mof_H 	H 	0.1639	0.2397	0.554	0.23
Mof_Eu	Eu	0.98219	0.94625	0.05492	2.165
Mof_Zn	Zn	0.23881	0.00913	0.78854	1.19
Mof_Zn	Zn	0.0634	0.83449	0.32769	1.165
Mof_Zn	Zn	0.76818	0.84016	0.56871	1.203
Mof_O 	O 	0.0654	0.98515	0.9675	-0.679
Mof_O 	O 	0.1395	0.01991	0.886	-0.602
Mof_O 	O 	0.0977	0.91178	0.0465	-0.594
Mof_O 	O 	0.1772	0.86071	0.0166	-0.472
Mof_O 	O 	0.963	0.91293	0.1688	-0.585
Mof_O 	O 	0.985	0.85852	0.2379	-0.507
Mof_O 	O 	0.0597	0.9829	0.142	-0.522
Mof_O 	O 	0.1714	0.00513	0.2015	-0.472
Mof_O 	O 	0.1197	0.79176	0.5474	-0.61
Mof_O 	O 	0.1322	0.81195	0.4228	-0.506
Mof_O 	O 	0.9851	0.79106	0.6548	-0.576
Mof_O 	O 	0.8664	0.82349	0.6517	-0.436
Mof_O 	O 	0.1305	0.79238	0.7442	-0.628
Mof_O 	O 	0.186	0.83637	0.8262	-0.421
Mof_N 	N 	0.2477	0.96097	0.8561	-0.305
Mof_N 	N 	0.2635	0.90138	0.9101	-0.274
Mof_N 	N 	0.122	0.8856	0.3046	-0.301
Mof_N 	N 	0.193	0.94134	0.2908	-0.299
Mof_N 	N 	0.9718	0.82727	0.4059	-0.303
Mof_N 	N 	0.8703	0.8328	0.4935	-0.287
Mof_N 	N 	0.2274	0.78299	0.9336	-0.308
Mof_N 	N 	0.1493	0.01751	0.7048	-0.272
Mof_N 	N 	0.8469	0.076	0.4246	-0.145
Mof_C 	C 	0.1279	0.98784	0.9233	0.386
Mof_C 	C 	0.1872	0.95632	0.913	-0.084
Mof_C 	C 	0.1983	0.91915	0.946	-0.081
Mof_C 	C 	0.1534	0.89561	0.0068	0.414
Mof_C 	C 	0.291	0.92726	0.8567	0.328
Mof_C 	C 	0.3634	0.9192	0.804	-0.908
Mof_H 	H 	0.4127	0.9184	0.835	0.288
Mof_H 	H 	0.3678	0.9398	0.7653	0.286
Mof_H 	H 	0.356	0.8943	0.778	0.291
Mof_C 	C 	0.0047	0.8927	0.2162	0.415
Mof_C 	C 	0.0821	0.90852	0.25	-0.084
Mof_C 	C 	0.1262	0.94316	0.2403	-0.07
Mof_C 	C 	0.1179	0.97898	0.1912	0.385
Mof_C 	C 	0.1887	0.9063	0.3268	0.29
Mof_C 	C 	0.2513	0.8909	0.3831	-0.774
Mof_H 	H 	0.2988	0.8822	0.3544	0.22
Mof_H 	H 	0.2286	0.8692	0.412	0.236
Mof_H 	H 	0.2669	0.9115	0.419	0.207
Mof_C 	C 	0.0892	0.8049	0.4835	0.408
Mof_C 	C 	0.001	0.8145	0.4786	-0.119
Mof_C 	C 	0.9377	0.818	0.532	-0.082
Mof_C 	C 	0.9297	0.81018	0.6185	0.398
Mof_C 	C 	0.892	0.83712	0.4184	0.284
Mof_C 	C 	0.8345	0.8484	0.3536	-0.839
Mof_H 	H 	0.8227	0.8256	0.3218	0.226
Mof_H 	H 	0.8594	0.8684	0.3215	0.27
Mof_H 	H 	0.7844	0.8584	0.3758	0.256
Mof_C 	C 	0.1683	0.80112	0.8072	0.417
Mof_C 	C 	0.1927	0.77061	0.864	-0.088
Mof_C 	C 	0.0748	0.0004	0.704	0.09
Mof_H 	H 	0.0633	0.981	0.7412	-0.032
Mof_C 	C 	0.0139	0.0105	0.6498	-0.138
Mof_H 	H 	0.963	0.9981	0.6519	0.061
Mof_C 	C 	0.0294	0.039	0.5927	0.054
Mof_C 	C 	0.1083	0.0551	0.5923	-0.144
Mof_H 	H 	0.1225	0.0736	0.5542	0.065
Mof_C 	C 	0.165	0.0439	0.6478	0.072
Mof_H 	H 	0.2171	0.0551	0.6457	-0.026
Mof_C 	C 	0.835	0.0448	0.4711	0.052
Mof_H 	H 	0.7854	0.0314	0.467	-0.012
Mof_C 	C 	0.8925	0.031	0.5259	-0.122
Mof_H 	H 	0.8816	0.0086	0.556	0.052
Mof_C 	C 	0.9666	0.0513	0.5346	0.038
Mof_C 	C 	0.9785	0.0835	0.4851	-0.138
Mof_H 	H 	0.028	0.0972	0.4872	0.061
Mof_C 	C 	0.9188	0.0955	0.4332	0.056
Mof_H 	H 	0.9282	0.118	0.4028	0.003
Mof_H 	H 	0.2823	0.7235	0.0754	0.228
Mof_H 	H 	0.2479	0.7662	0.0891	0.219
Mof_H 	H 	0.3361	0.7603	0.054	0.228
Mof_Eu	Eu	0.51781	0.44625	0.55492	2.178
Mof_Zn	Zn	0.26119	0.50913	0.28854	1.19
Mof_Zn	Zn	0.4366	0.33449	0.82769	1.164
Mof_Zn	Zn	0.73182	0.34016	0.06871	1.202
Mof_O 	O 	0.4346	0.48515	0.4675	-0.68
Mof_O 	O 	0.3605	0.51991	0.386	-0.602
Mof_O 	O 	0.4023	0.41178	0.5465	-0.598
Mof_O 	O 	0.3228	0.36071	0.5166	-0.473
Mof_O 	O 	0.537	0.41293	0.6688	-0.582
Mof_O 	O 	0.515	0.35852	0.7379	-0.503
Mof_O 	O 	0.4403	0.4829	0.642	-0.526
Mof_O 	O 	0.3286	0.50513	0.7015	-0.474
Mof_O 	O 	0.3803	0.29176	0.0474	-0.608
Mof_O 	O 	0.3678	0.31195	0.9228	-0.506
Mof_O 	O 	0.5149	0.29106	0.1548	-0.579
Mof_O 	O 	0.6336	0.32349	0.1517	-0.437
Mof_O 	O 	0.3695	0.29238	0.2442	-0.628
Mof_O 	O 	0.314	0.33637	0.3262	-0.42
Mof_N 	N 	0.2523	0.46097	0.3561	-0.305
Mof_N 	N 	0.2365	0.40138	0.4101	-0.274
Mof_N 	N 	0.378	0.3856	0.8046	-0.302
Mof_N 	N 	0.307	0.44134	0.7908	-0.298
Mof_N 	N 	0.5282	0.32727	0.9059	-0.303
Mof_N 	N 	0.6297	0.3328	0.9935	-0.286
Mof_N 	N 	0.2726	0.28299	0.4336	-0.308
Mof_N 	N 	0.3507	0.51751	0.2048	-0.271
Mof_N 	N 	0.6531	0.576	0.9246	-0.145
Mof_C 	C 	0.3721	0.48784	0.4233	0.386
Mof_C 	C 	0.3128	0.45632	0.413	-0.084
Mof_C 	C 	0.3017	0.41915	0.446	-0.078
Mof_C 	C 	0.3466	0.39561	0.5068	0.412
Mof_C 	C 	0.209	0.42726	0.3567	0.329
Mof_C 	C 	0.1366	0.4192	0.304	-0.91
Mof_H 	H 	0.0873	0.4184	0.335	0.29
Mof_H 	H 	0.1322	0.4398	0.2653	0.288
Mof_H 	H 	0.144	0.3943	0.278	0.292
Mof_C 	C 	0.4953	0.3927	0.7162	0.407
Mof_C 	C 	0.4179	0.40852	0.75	-0.082
Mof_C 	C 	0.3738	0.44316	0.7403	-0.072
Mof_C 	C 	0.3821	0.47898	0.6912	0.388
Mof_C 	C 	0.3113	0.4063	0.8268	0.29
Mof_C 	C 	0.2487	0.3909	0.8831	-0.773
Mof_H 	H 	0.2012	0.3822	0.8544	0.22
Mof_H 	H 	0.2714	0.3692	0.912	0.235
Mof_H 	H 	0.2331	0.4115	0.919	0.206
Mof_C 	C 	0.4108	0.3049	0.9835	0.406
Mof_C 	C 	0.499	0.3145	0.9786	-0.117
Mof_C 	C 	0.5623	0.318	0.032	-0.084
Mof_C 	C 	0.5703	0.31018	0.1185	0.399
Mof_C 	C 	0.608	0.33712	0.9184	0.285
Mof_C 	C 	0.6655	0.3484	0.8536	-0.84
Mof_H 	H 	0.6773	0.3256	0.8218	0.226
Mof_H 	H 	0.6406	0.3684	0.8215	0.27
Mof_H 	H 	0.7156	0.3584	0.8758	0.256
Mof_C 	C 	0.3317	0.30112	0.3072	0.418
Mof_C 	C 	0.3073	0.27061	0.364	-0.087
Mof_C 	C 	0.4252	0.5004	0.204	0.089
Mof_H 	H 	0.4367	0.481	0.2412	-0.031
Mof_C 	C 	0.4861	0.5105	0.1498	-0.133
Mof_H 	H 	0.537	0.4981	0.1519	0.058
Mof_C 	C 	0.4706	0.539	0.0927	0.052
Mof_C 	C 	0.3917	0.5551	0.0923	-0.143
Mof_H 	H 	0.3775	0.5736	0.0542	0.065
Mof_C 	C 	0.335	0.5439	0.1478	0.072
Mof_H 	H 	0.2829	0.5551	0.1457	-0.026
Mof_C 	C 	0.665	0.5448	0.9711	0.055
Mof_H 	H 	0.7146	0.5314	0.967	-0.011
Mof_C 	C 	0.6075	0.531	0.0259	-0.125
Mof_H 	H 	0.6184	0.5086	0.056	0.052
Mof_C 	C 	0.5334	0.5513	0.0346	0.038
Mof_C 	C 	0.5215	0.5835	0.9851	-0.136
Mof_H 	H 	0.472	0.5972	0.9872	0.059
Mof_C 	C 	0.5812	0.5955	0.9332	0.055
Mof_H 	H 	0.5718	0.618	0.9028	0.004
Mof_H 	H 	0.2177	0.2235	0.5754	0.23
Mof_H 	H 	0.2521	0.2662	0.5891	0.221
Mof_H 	H 	0.1639	0.2603	0.554	0.23
Mof_Eu	Eu	0.98219	0.55375	0.05492	2.167
Mof_Zn	Zn	0.23881	0.49087	0.78854	1.19
Mof_Zn	Zn	0.0634	0.66551	0.32769	1.165
Mof_Zn	Zn	0.76818	0.65984	0.56871	1.203
Mof_O 	O 	0.0654	0.51485	0.9675	-0.68
Mof_O 	O 	0.1395	0.48009	0.886	-0.601
Mof_O 	O 	0.0977	0.58822	0.0465	-0.595
Mof_O 	O 	0.1772	0.63929	0.0166	-0.472
Mof_O 	O 	0.963	0.58707	0.1688	-0.585
Mof_O 	O 	0.985	0.64148	0.2379	-0.507
Mof_O 	O 	0.0597	0.5171	0.142	-0.522
Mof_O 	O 	0.1714	0.49487	0.2015	-0.473
Mof_O 	O 	0.1197	0.70824	0.5474	-0.61
Mof_O 	O 	0.1322	0.68805	0.4228	-0.506
Mof_O 	O 	0.9851	0.70894	0.6548	-0.576
Mof_O 	O 	0.8664	0.67651	0.6517	-0.436
Mof_O 	O 	0.1305	0.70762	0.7442	-0.628
Mof_O 	O 	0.186	0.66363	0.8262	-0.421
Mof_N 	N 	0.2477	0.53903	0.8561	-0.305
Mof_N 	N 	0.2635	0.59862	0.9101	-0.274
Mof_N 	N 	0.122	0.6144	0.3046	-0.301
Mof_N 	N 	0.193	0.55866	0.2908	-0.299
Mof_N 	N 	0.9718	0.67273	0.4059	-0.303
Mof_N 	N 	0.8703	0.6672	0.4935	-0.287
Mof_N 	N 	0.2274	0.71701	0.9336	-0.308
Mof_N 	N 	0.1493	0.48249	0.7048	-0.272
Mof_N 	N 	0.8469	0.424	0.4246	-0.145
Mof_C 	C 	0.1279	0.51216	0.9233	0.385
Mof_C 	C 	0.1872	0.54368	0.913	-0.084
Mof_C 	C 	0.1983	0.58085	0.946	-0.082
Mof_C 	C 	0.1534	0.60439	0.0068	0.415
Mof_C 	C 	0.291	0.57274	0.8567	0.328
Mof_C 	C 	0.3634	0.5808	0.804	-0.907
Mof_H 	H 	0.4127	0.5816	0.835	0.288
Mof_H 	H 	0.3678	0.5602	0.7653	0.286
Mof_H 	H 	0.356	0.6057	0.778	0.291
Mof_C 	C 	0.0047	0.6073	0.2162	0.415
Mof_C 	C 	0.0821	0.59148	0.25	-0.084
Mof_C 	C 	0.1262	0.55684	0.2403	-0.071
Mof_C 	C 	0.1179	0.52102	0.1912	0.386
Mof_C 	C 	0.1887	0.5937	0.3268	0.29
Mof_C 	C 	0.2513	0.6091	0.3831	-0.774
Mof_H 	H 	0.2988	0.6178	0.3544	0.22
Mof_H 	H 	0.2286	0.6308	0.412	0.236
Mof_H 	H 	0.2669	0.5885	0.419	0.207
Mof_C 	C 	0.0892	0.6951	0.4835	0.408
Mof_C 	C 	0.001	0.6855	0.4786	-0.119
Mof_C 	C 	0.9377	0.682	0.532	-0.082
Mof_C 	C 	0.9297	0.68982	0.6185	0.398
Mof_C 	C 	0.892	0.66288	0.4184	0.284
Mof_C 	C 	0.8345	0.6516	0.3536	-0.839
Mof_H 	H 	0.8227	0.6744	0.3218	0.226
Mof_H 	H 	0.8594	0.6316	0.3215	0.27
Mof_H 	H 	0.7844	0.6416	0.3758	0.256
Mof_C 	C 	0.1683	0.69888	0.8072	0.417
Mof_C 	C 	0.1927	0.72939	0.864	-0.088
Mof_C 	C 	0.0748	0.4996	0.704	0.091
Mof_H 	H 	0.0633	0.519	0.7412	-0.033
Mof_C 	C 	0.0139	0.4895	0.6498	-0.138
Mof_H 	H 	0.963	0.5019	0.6519	0.061
Mof_C 	C 	0.0294	0.461	0.5927	0.054
Mof_C 	C 	0.1083	0.4449	0.5923	-0.145
Mof_H 	H 	0.1225	0.4264	0.5542	0.065
Mof_C 	C 	0.165	0.4561	0.6478	0.073
Mof_H 	H 	0.2171	0.4449	0.6457	-0.026
Mof_C 	C 	0.835	0.4552	0.4711	0.052
Mof_H 	H 	0.7854	0.4686	0.467	-0.012
Mof_C 	C 	0.8925	0.469	0.5259	-0.122
Mof_H 	H 	0.8816	0.4914	0.556	0.052
Mof_C 	C 	0.9666	0.4487	0.5346	0.038
Mof_C 	C 	0.9785	0.4165	0.4851	-0.138
Mof_H 	H 	0.028	0.4028	0.4872	0.061
Mof_C 	C 	0.9188	0.4045	0.4332	0.056
Mof_H 	H 	0.9282	0.382	0.4028	0.003
Mof_H 	H 	0.2823	0.7765	0.0754	0.228
Mof_H 	H 	0.2479	0.7338	0.0891	0.219
Mof_H 	H 	0.3361	0.7397	0.054	0.228
Mof_Eu	Eu	0.48219	0.94625	0.44508	2.178
Mof_Zn	Zn	0.73881	0.00913	0.71146	1.19
Mof_Zn	Zn	0.5634	0.83449	0.17231	1.164
Mof_Zn	Zn	0.26818	0.84016	0.93129	1.202
Mof_O 	O 	0.5654	0.98515	0.5325	-0.68
Mof_O 	O 	0.6395	0.01991	0.614	-0.602
Mof_O 	O 	0.5977	0.91178	0.4535	-0.598
Mof_O 	O 	0.6772	0.86071	0.4834	-0.473
Mof_O 	O 	0.463	0.91293	0.3312	-0.582
Mof_O 	O 	0.485	0.85852	0.2621	-0.503
Mof_O 	O 	0.5597	0.9829	0.358	-0.526
Mof_O 	O 	0.6714	0.00513	0.2985	-0.474
Mof_O 	O 	0.6197	0.79176	0.9526	-0.608
Mof_O 	O 	0.6322	0.81195	0.0772	-0.506
Mof_O 	O 	0.4851	0.79106	0.8452	-0.579
Mof_O 	O 	0.3664	0.82349	0.8483	-0.437
Mof_O 	O 	0.6305	0.79238	0.7558	-0.628
Mof_O 	O 	0.686	0.83637	0.6738	-0.42
Mof_N 	N 	0.7477	0.96097	0.6439	-0.305
Mof_N 	N 	0.7635	0.90138	0.5899	-0.274
Mof_N 	N 	0.622	0.8856	0.1954	-0.302
Mof_N 	N 	0.693	0.94134	0.2092	-0.298
Mof_N 	N 	0.4718	0.82727	0.0941	-0.303
Mof_N 	N 	0.3703	0.8328	0.0065	-0.286
Mof_N 	N 	0.7274	0.78299	0.5664	-0.308
Mof_N 	N 	0.6493	0.01751	0.7952	-0.271
Mof_N 	N 	0.3469	0.076	0.0754	-0.145
Mof_C 	C 	0.6279	0.98784	0.5767	0.386
Mof_C 	C 	0.6872	0.95632	0.587	-0.085
Mof_C 	C 	0.6983	0.91915	0.554	-0.078
Mof_C 	C 	0.6534	0.89561	0.4932	0.412
Mof_C 	C 	0.791	0.92726	0.6433	0.329
Mof_C 	C 	0.8634	0.9192	0.696	-0.91
Mof_H 	H 	0.9127	0.9184	0.665	0.29
Mof_H 	H 	0.8678	0.9398	0.7347	0.288
Mof_H 	H 	0.856	0.8943	0.722	0.292
Mof_C 	C 	0.5047	0.8927	0.2838	0.407
Mof_C 	C 	0.5821	0.90852	0.25	-0.082
Mof_C 	C 	0.6262	0.94316	0.2597	-0.072
Mof_C 	C 	0.6179	0.97898	0.3088	0.387
Mof_C 	C 	0.6887	0.9063	0.1732	0.29
Mof_C 	C 	0.7513	0.8909	0.1169	-0.772
Mof_H 	H 	0.7988	0.8822	0.1456	0.22
Mof_H 	H 	0.7286	0.8692	0.088	0.235
Mof_H 	H 	0.7669	0.9115	0.081	0.206
Mof_C 	C 	0.5892	0.8049	0.0165	0.406
Mof_C 	C 	0.501	0.8145	0.0214	-0.117
Mof_C 	C 	0.4377	0.818	0.968	-0.084
Mof_C 	C 	0.4297	0.81018	0.8815	0.399
Mof_C 	C 	0.392	0.83712	0.0816	0.285
Mof_C 	C 	0.3345	0.8484	0.1464	-0.84
Mof_H 	H 	0.3227	0.8256	0.1782	0.226
Mof_H 	H 	0.3594	0.8684	0.1785	0.27
Mof_H 	H 	0.2844	0.8584	0.1242	0.256
Mof_C 	C 	0.6683	0.80112	0.6928	0.418
Mof_C 	C 	0.6927	0.77061	0.636	-0.087
Mof_C 	C 	0.5748	0.0004	0.796	0.088
Mof_H 	H 	0.5633	0.981	0.7588	-0.031
Mof_C 	C 	0.5139	0.0105	0.8502	-0.134
Mof_H 	H 	0.463	0.9981	0.8481	0.059
Mof_C 	C 	0.5294	0.039	0.9073	0.053
Mof_C 	C 	0.6083	0.0551	0.9077	-0.144
Mof_H 	H 	0.6225	0.0736	0.9458	0.065
Mof_C 	C 	0.665	0.0439	0.8522	0.072
Mof_H 	H 	0.7171	0.0551	0.8543	-0.026
Mof_C 	C 	0.335	0.0448	0.0289	0.056
Mof_H 	H 	0.2854	0.0314	0.033	-0.011
Mof_C 	C 	0.3925	0.031	0.9741	-0.126
Mof_H 	H 	0.3816	0.0086	0.944	0.052
Mof_C 	C 	0.4666	0.0513	0.9654	0.037
Mof_C 	C 	0.4785	0.0835	0.0149	-0.134
Mof_H 	H 	0.528	0.0972	0.0128	0.059
Mof_C 	C 	0.4188	0.0955	0.0668	0.055
Mof_H 	H 	0.4282	0.118	0.0972	0.004
Mof_H 	H 	0.7823	0.7235	0.4246	0.23
Mof_H 	H 	0.7479	0.7662	0.4109	0.221
Mof_H 	H 	0.8361	0.7603	0.446	0.23
Mof_Eu	Eu	0.01781	0.05375	0.94508	2.165
Mof_Zn	Zn	0.76119	0.99087	0.21146	1.19
Mof_Zn	Zn	0.9366	0.16551	0.67231	1.165
Mof_Zn	Zn	0.23182	0.15984	0.43129	1.203
Mof_O 	O 	0.9346	0.01485	0.0325	-0.679
Mof_O 	O 	0.8605	0.98009	0.114	-0.602
Mof_O 	O 	0.9023	0.08822	0.9535	-0.594
Mof_O 	O 	0.8228	0.13929	0.9834	-0.472
Mof_O 	O 	0.037	0.08707	0.8312	-0.585
Mof_O 	O 	0.015	0.14148	0.7621	-0.507
Mof_O 	O 	0.9403	0.0171	0.858	-0.522
Mof_O 	O 	0.8286	0.99487	0.7985	-0.472
Mof_O 	O 	0.8803	0.20824	0.4526	-0.61
Mof_O 	O 	0.8678	0.18805	0.5772	-0.506
Mof_O 	O 	0.0149	0.20894	0.3452	-0.576
Mof_O 	O 	0.1336	0.17651	0.3483	-0.436
Mof_O 	O 	0.8695	0.20762	0.2558	-0.628
Mof_O 	O 	0.814	0.16363	0.1738	-0.421
Mof_N 	N 	0.7523	0.03903	0.1439	-0.305
Mof_N 	N 	0.7365	0.09862	0.0899	-0.274
Mof_N 	N 	0.878	0.1144	0.6954	-0.301
Mof_N 	N 	0.807	0.05866	0.7092	-0.299
Mof_N 	N 	0.0282	0.17273	0.5941	-0.303
Mof_N 	N 	0.1297	0.1672	0.5065	-0.287
Mof_N 	N 	0.7726	0.21701	0.0664	-0.308
Mof_N 	N 	0.8507	0.98249	0.2952	-0.272
Mof_N 	N 	0.1531	0.924	0.5754	-0.145
Mof_C 	C 	0.8721	0.01216	0.0767	0.386
Mof_C 	C 	0.8128	0.04368	0.087	-0.084
Mof_C 	C 	0.8017	0.08085	0.054	-0.081
Mof_C 	C 	0.8466	0.10439	0.9932	0.414
Mof_C 	C 	0.709	0.07274	0.1433	0.328
Mof_C 	C 	0.6366	0.0808	0.196	-0.908
Mof_H 	H 	0.5873	0.0816	0.165	0.288
Mof_H 	H 	0.6322	0.0602	0.2347	0.286
Mof_H 	H 	0.644	0.1057	0.222	0.291
Mof_C 	C 	0.9953	0.1073	0.7838	0.415
Mof_C 	C 	0.9179	0.09148	0.75	-0.084
Mof_C 	C 	0.8738	0.05684	0.7597	-0.07
Mof_C 	C 	0.8821	0.02102	0.8088	0.385
Mof_C 	C 	0.8113	0.0937	0.6732	0.29
Mof_C 	C 	0.7487	0.1091	0.6169	-0.774
Mof_H 	H 	0.7012	0.1178	0.6456	0.22
Mof_H 	H 	0.7714	0.1308	0.588	0.236
Mof_H 	H 	0.7331	0.0885	0.581	0.207
Mof_C 	C 	0.9108	0.1951	0.5165	0.408
Mof_C 	C 	0.999	0.1855	0.5214	-0.119
Mof_C 	C 	0.0623	0.182	0.468	-0.082
Mof_C 	C 	0.0703	0.18982	0.3815	0.398
Mof_C 	C 	0.108	0.16288	0.5816	0.284
Mof_C 	C 	0.1655	0.1516	0.6464	-0.839
Mof_H 	H 	0.1773	0.1744	0.6782	0.226
Mof_H 	H 	0.1406	0.1316	0.6785	0.27
Mof_H 	H 	0.2156	0.1416	0.6242	0.256
Mof_C 	C 	0.8317	0.19888	0.1928	0.417
Mof_C 	C 	0.8073	0.22939	0.136	-0.088
Mof_C 	C 	0.9252	0.9996	0.296	0.09
Mof_H 	H 	0.9367	0.019	0.2588	-0.032
Mof_C 	C 	0.9861	0.9895	0.3502	-0.138
Mof_H 	H 	0.037	0.0019	0.3481	0.061
Mof_C 	C 	0.9706	0.961	0.4073	0.054
Mof_C 	C 	0.8917	0.9449	0.4077	-0.144
Mof_H 	H 	0.8775	0.9264	0.4458	0.065
Mof_C 	C 	0.835	0.9561	0.3522	0.072
Mof_H 	H 	0.7829	0.9449	0.3543	-0.026
Mof_C 	C 	0.165	0.9552	0.5289	0.052
Mof_H 	H 	0.2146	0.9686	0.533	-0.012
Mof_C 	C 	0.1075	0.969	0.4741	-0.122
Mof_H 	H 	0.1184	0.9914	0.444	0.052
Mof_C 	C 	0.0334	0.9487	0.4654	0.038
Mof_C 	C 	0.0215	0.9165	0.5149	-0.138
Mof_H 	H 	0.972	0.9028	0.5128	0.061
Mof_C 	C 	0.0812	0.9045	0.5668	0.056
Mof_H 	H 	0.0718	0.882	0.5972	0.003
Mof_H 	H 	0.7177	0.2765	0.9246	0.228
Mof_H 	H 	0.7521	0.2338	0.9109	0.219
Mof_H 	H 	0.6639	0.2397	0.946	0.228
Mof_Eu	Eu	0.59508	0.75	0.84997	2.652
Mof_C 	C 	0.7462	0.75	0.5257	0.442
Mof_C 	C 	0.7812	0.75	0.4446	-1.433
Mof_Eu	Eu	0.90492	0.25	0.34997	2.646
Mof_C 	C 	0.7538	0.25	0.0257	0.437
Mof_C 	C 	0.7188	0.25	0.9446	-1.421
Mof_Eu	Eu	0.40492	0.25	0.15003	2.652
Mof_C 	C 	0.2538	0.25	0.4743	0.442
Mof_C 	C 	0.2188	0.25	0.5554	-1.433
Mof_Eu	Eu	0.09508	0.75	0.65003	2.646
Mof_C 	C 	0.2462	0.75	0.9743	0.437
Mof_C 	C 	0.2812	0.75	0.0554	-1.421
_end
