data_functionalizedCrystal
_audit_creation_method	'EQeq! by Chris Wilmer'
_symmetry_space_group_name_H-M	'P1'
_symmetry_Int_Tables_number	1
_symmetry_cell_setting	triclinic
loop_
_symmetry_equiv_pos_as_xyz
  x,y,z
_cell_length_a	15.9131
_cell_length_b	13.5396
_cell_length_c	6.6475
_cell_angle_alpha	90
_cell_angle_beta	97.662
_cell_angle_gamma	90
loop_
_atom_site_label
_atom_site_type_symbol
_atom_site_fract_x
_atom_site_fract_y
_atom_site_fract_z
_atom_site_charge
Mof_Eu	Eu	0.25087	0.0603	0.46874	1.892
Mof_C 	C 	0.3582	0.8868	0.52	0.349
Mof_C 	C 	0.4134	0.7962	0.5551	-0.155
Mof_C 	C 	0.3767	0.7028	0.552	0.102
Mof_H 	H 	0.3179	0.6986	0.525	0.002
Mof_C 	C 	0.5049	0.6265	0.62	0.131
Mof_H 	H 	0.5364	0.5688	0.6431	0.004
Mof_C 	C 	0.5482	0.7157	0.6235	-0.227
Mof_C 	C 	0.501	0.8027	0.5924	0.13
Mof_H 	H 	0.5278	0.8638	0.5968	-0.006
Mof_C 	C 	0.6438	0.7171	0.6605	0.523
Mof_C 	C 	0.1009	0.0496	0.17	0.343
Mof_C 	C 	0.0214	0.0476	0.0122	-0.207
Mof_H 	H 	0.9816	0.0962	0.0504	0.082
Mof_H 	H 	0.0371	0.0674	0.8821	0.073
Mof_N 	N 	0.4204	0.6189	0.5853	-0.158
Mof_O 	O 	0.3891	0.9699	0.5617	-0.427
Mof_O 	O 	0.2817	0.8758	0.4481	-0.437
Mof_O 	O 	0.6807	0.6373	0.7114	-0.524
Mof_O 	O 	0.6798	0.7964	0.6325	-0.556
Mof_O 	O 	0.1128	0.988	0.3095	-0.465
Mof_O 	O 	0.1516	0.1184	0.1565	-0.471
Mof_Eu	Eu	0.74913	0.5603	0.03126	1.895
Mof_C 	C 	0.6418	0.3868	0.98	0.353
Mof_C 	C 	0.5866	0.2962	0.9449	-0.155
Mof_C 	C 	0.6233	0.2028	0.948	0.102
Mof_H 	H 	0.6821	0.1986	0.975	0.003
Mof_C 	C 	0.4951	0.1265	0.88	0.132
Mof_H 	H 	0.4636	0.0688	0.8569	0.004
Mof_C 	C 	0.4518	0.2157	0.8765	-0.228
Mof_C 	C 	0.499	0.3027	0.9076	0.131
Mof_H 	H 	0.4722	0.3638	0.9032	-0.006
Mof_C 	C 	0.3562	0.2171	0.8395	0.523
Mof_C 	C 	0.8991	0.5496	0.33	0.35
Mof_C 	C 	0.9786	0.5476	0.4878	-0.211
Mof_H 	H 	0.0184	0.5962	0.4496	0.082
Mof_H 	H 	0.9629	0.5674	0.6179	0.079
Mof_N 	N 	0.5796	0.1189	0.9147	-0.157
Mof_O 	O 	0.6109	0.4699	0.9383	-0.428
Mof_O 	O 	0.7183	0.3758	0.0519	-0.44
Mof_O 	O 	0.3193	0.1373	0.7886	-0.525
Mof_O 	O 	0.3202	0.2964	0.8675	-0.557
Mof_O 	O 	0.8872	0.488	0.1905	-0.473
Mof_O 	O 	0.8484	0.6184	0.3435	-0.473
Mof_Eu	Eu	0.74913	0.9397	0.53126	1.893
Mof_C 	C 	0.6418	0.1132	0.48	0.35
Mof_C 	C 	0.5866	0.2038	0.4449	-0.155
Mof_C 	C 	0.6233	0.2972	0.448	0.102
Mof_H 	H 	0.6821	0.3014	0.475	0.002
Mof_C 	C 	0.4951	0.3735	0.38	0.131
Mof_H 	H 	0.4636	0.4312	0.3569	0.004
Mof_C 	C 	0.4518	0.2843	0.3765	-0.227
Mof_C 	C 	0.499	0.1973	0.4076	0.13
Mof_H 	H 	0.4722	0.1362	0.4032	-0.006
Mof_C 	C 	0.3562	0.2829	0.3395	0.523
Mof_C 	C 	0.8991	0.9504	0.83	0.343
Mof_C 	C 	0.9786	0.9524	0.9878	-0.207
Mof_H 	H 	0.0184	0.9038	0.9496	0.082
Mof_H 	H 	0.9629	0.9326	0.1179	0.073
Mof_N 	N 	0.5796	0.3811	0.4147	-0.158
Mof_O 	O 	0.6109	0.0301	0.4383	-0.427
Mof_O 	O 	0.7183	0.1242	0.5519	-0.437
Mof_O 	O 	0.3193	0.3627	0.2886	-0.524
Mof_O 	O 	0.3202	0.2036	0.3675	-0.556
Mof_O 	O 	0.8872	0.012	0.6905	-0.465
Mof_O 	O 	0.8484	0.8816	0.8435	-0.471
Mof_Eu	Eu	0.25087	0.4397	0.96874	1.895
Mof_C 	C 	0.3582	0.6132	0.02	0.353
Mof_C 	C 	0.4134	0.7038	0.0551	-0.155
Mof_C 	C 	0.3767	0.7972	0.052	0.102
Mof_H 	H 	0.3179	0.8014	0.025	0.003
Mof_C 	C 	0.5049	0.8735	0.12	0.132
Mof_H 	H 	0.5364	0.9312	0.1431	0.004
Mof_C 	C 	0.5482	0.7843	0.1235	-0.228
Mof_C 	C 	0.501	0.6973	0.0924	0.131
Mof_H 	H 	0.5278	0.6362	0.0968	-0.006
Mof_C 	C 	0.6438	0.7829	0.1605	0.523
Mof_C 	C 	0.1009	0.4504	0.67	0.35
Mof_C 	C 	0.0214	0.4524	0.5122	-0.211
Mof_H 	H 	0.9816	0.4038	0.5504	0.082
Mof_H 	H 	0.0371	0.4326	0.3821	0.079
Mof_N 	N 	0.4204	0.8811	0.0853	-0.157
Mof_O 	O 	0.3891	0.5301	0.0617	-0.428
Mof_O 	O 	0.2817	0.6242	0.9481	-0.44
Mof_O 	O 	0.6807	0.8627	0.2114	-0.525
Mof_O 	O 	0.6798	0.7036	0.1325	-0.557
Mof_O 	O 	0.1128	0.512	0.8095	-0.473
Mof_O 	O 	0.1516	0.3816	0.6565	-0.473
_end
