data_functionalizedCrystal
_audit_creation_method	'EQeq! by Chris Wilmer'
_symmetry_space_group_name_H-M	'P1'
_symmetry_Int_Tables_number	1
_symmetry_cell_setting	triclinic
loop_
_symmetry_equiv_pos_as_xyz
  x,y,z
_cell_length_a	14.138
_cell_length_b	11.686
_cell_length_c	16.583
_cell_angle_alpha	90
_cell_angle_beta	90
_cell_angle_gamma	90
loop_
_atom_site_label
_atom_site_type_symbol
_atom_site_fract_x
_atom_site_fract_y
_atom_site_fract_z
_atom_site_charge
Mof_Mn	Mn	0.61063	0.4686	0.56065	0.944
Mof_O 	O 	0.7986	0.5235	0.9552	-0.335
Mof_O 	O 	0.7867	0.3793	0.0399	-0.286
Mof_O 	O 	0.6048	0.3093	0.6414	-0.294
Mof_O 	O 	0.4889	0.0585	0.8638	-0.315
Mof_C 	C 	0.6396	0.2857	0.9432	0.028
Mof_H 	H 	0.6325	0.2721	0.9981	0.051
Mof_O 	O 	0.5022	0.1202	0.9918	-0.35
Mof_C 	C 	0.7625	0.431	0.975	0.308
Mof_C 	C 	0.7008	0.3996	0.8352	0.012
Mof_H 	H 	0.736	0.4619	0.8173	0.069
Mof_C 	C 	0.6497	0.368	0.6928	0.303
Mof_C 	C 	0.7009	0.3674	0.9178	-0.065
Mof_C 	C 	0.5239	0.128	0.9144	0.293
Mof_O 	O 	0.6962	0.4519	0.6717	-0.309
Mof_C 	C 	0.5934	0.243	0.8059	0.013
Mof_H 	H 	0.5626	0.1967	0.7686	0.069
Mof_C 	C 	0.5875	0.2223	0.8885	-0.067
Mof_C 	C 	0.6472	0.336	0.7822	-0.053
Mof_Mn	Mn	0.88937	0.5314	0.06065	0.943
Mof_O 	O 	0.7014	0.4765	0.4552	-0.335
Mof_O 	O 	0.7133	0.6207	0.5399	-0.284
Mof_O 	O 	0.8952	0.6907	0.1414	-0.294
Mof_O 	O 	0.0111	0.9415	0.3638	-0.314
Mof_C 	C 	0.8604	0.7143	0.4432	0.026
Mof_H 	H 	0.8675	0.7279	0.4981	0.05
Mof_O 	O 	0.9978	0.8798	0.4918	-0.354
Mof_C 	C 	0.7375	0.569	0.475	0.304
Mof_C 	C 	0.7992	0.6004	0.3352	0.012
Mof_H 	H 	0.764	0.5381	0.3173	0.069
Mof_C 	C 	0.8503	0.632	0.1928	0.302
Mof_C 	C 	0.7991	0.6326	0.4178	-0.065
Mof_C 	C 	0.9761	0.872	0.4144	0.29
Mof_O 	O 	0.8038	0.5481	0.1717	-0.309
Mof_C 	C 	0.9066	0.757	0.3059	0.013
Mof_H 	H 	0.9374	0.8033	0.2686	0.069
Mof_C 	C 	0.9125	0.7777	0.3885	-0.067
Mof_C 	C 	0.8528	0.664	0.2822	-0.053
Mof_Mn	Mn	0.38937	0.9686	0.93935	0.931
Mof_O 	O 	0.2014	0.0235	0.5448	-0.335
Mof_O 	O 	0.2133	0.8793	0.4601	-0.283
Mof_O 	O 	0.3952	0.8093	0.8586	-0.296
Mof_O 	O 	0.5111	0.5585	0.6362	-0.32
Mof_C 	C 	0.3604	0.7857	0.5568	0.028
Mof_H 	H 	0.3675	0.7721	0.5019	0.049
Mof_O 	O 	0.4978	0.6202	0.5082	-0.355
Mof_C 	C 	0.2375	0.931	0.525	0.306
Mof_C 	C 	0.2992	0.8996	0.6648	0.013
Mof_H 	H 	0.264	0.9619	0.6827	0.069
Mof_C 	C 	0.3503	0.868	0.8072	0.303
Mof_C 	C 	0.2991	0.8674	0.5822	-0.066
Mof_C 	C 	0.4761	0.628	0.5856	0.294
Mof_O 	O 	0.3038	0.9519	0.8283	-0.31
Mof_C 	C 	0.4066	0.743	0.6941	0.014
Mof_H 	H 	0.4374	0.6967	0.7314	0.068
Mof_C 	C 	0.4125	0.7223	0.6115	-0.069
Mof_C 	C 	0.3528	0.836	0.7178	-0.054
Mof_Mn	Mn	0.11063	0.0314	0.43935	0.94
Mof_O 	O 	0.2986	0.9765	0.0448	-0.322
Mof_O 	O 	0.2867	0.1207	0.9601	-0.275
Mof_O 	O 	0.1048	0.1907	0.3586	-0.295
Mof_O 	O 	0.9889	0.4415	0.1362	-0.321
Mof_C 	C 	0.1396	0.2143	0.0568	0.023
Mof_H 	H 	0.1325	0.2279	0.0019	0.05
Mof_O 	O 	0.0022	0.3798	0.0082	-0.355
Mof_C 	C 	0.2625	0.069	0.025	0.287
Mof_C 	C 	0.2008	0.1004	0.1648	0.008
Mof_H 	H 	0.236	0.0381	0.1827	0.069
Mof_C 	C 	0.1497	0.132	0.3072	0.302
Mof_C 	C 	0.2009	0.1326	0.0822	-0.06
Mof_C 	C 	0.0239	0.372	0.0856	0.294
Mof_O 	O 	0.1962	0.0481	0.3283	-0.31
Mof_C 	C 	0.0934	0.257	0.1941	0.012
Mof_H 	H 	0.0626	0.3033	0.2314	0.069
Mof_C 	C 	0.0875	0.2777	0.1115	-0.067
Mof_C 	C 	0.1472	0.164	0.2178	-0.052
Mof_Mn	Mn	0.38937	0.5314	0.43935	0.943
Mof_O 	O 	0.2014	0.4765	0.0448	-0.336
Mof_O 	O 	0.2133	0.6207	0.9601	-0.287
Mof_O 	O 	0.3952	0.6907	0.3586	-0.295
Mof_O 	O 	0.5111	0.9415	0.1362	-0.316
Mof_C 	C 	0.3604	0.7143	0.0568	0.027
Mof_H 	H 	0.3675	0.7279	0.0019	0.051
Mof_O 	O 	0.4978	0.8798	0.0082	-0.35
Mof_C 	C 	0.2375	0.569	0.025	0.308
Mof_C 	C 	0.2992	0.6004	0.1648	0.012
Mof_H 	H 	0.264	0.5381	0.1827	0.069
Mof_C 	C 	0.3503	0.632	0.3072	0.303
Mof_C 	C 	0.2991	0.6326	0.0822	-0.065
Mof_C 	C 	0.4761	0.872	0.0856	0.293
Mof_O 	O 	0.3038	0.5481	0.3283	-0.309
Mof_C 	C 	0.4066	0.757	0.1941	0.013
Mof_H 	H 	0.4374	0.8033	0.2314	0.069
Mof_C 	C 	0.4125	0.7777	0.1115	-0.067
Mof_C 	C 	0.3528	0.664	0.2178	-0.053
Mof_Mn	Mn	0.11063	0.4686	0.93935	0.943
Mof_O 	O 	0.2986	0.5235	0.5448	-0.335
Mof_O 	O 	0.2867	0.3793	0.4601	-0.284
Mof_O 	O 	0.1048	0.3093	0.8586	-0.294
Mof_O 	O 	0.9889	0.0585	0.6362	-0.314
Mof_C 	C 	0.1396	0.2857	0.5568	0.026
Mof_H 	H 	0.1325	0.2721	0.5019	0.05
Mof_O 	O 	0.0022	0.1202	0.5082	-0.354
Mof_C 	C 	0.2625	0.431	0.525	0.304
Mof_C 	C 	0.2008	0.3996	0.6648	0.012
Mof_H 	H 	0.236	0.4619	0.6827	0.069
Mof_C 	C 	0.1497	0.368	0.8072	0.302
Mof_C 	C 	0.2009	0.3674	0.5822	-0.065
Mof_C 	C 	0.0239	0.128	0.5856	0.29
Mof_O 	O 	0.1962	0.4519	0.8283	-0.309
Mof_C 	C 	0.0934	0.243	0.6941	0.013
Mof_H 	H 	0.0626	0.1967	0.7314	0.069
Mof_C 	C 	0.0875	0.2223	0.6115	-0.067
Mof_C 	C 	0.1472	0.336	0.7178	-0.053
Mof_Mn	Mn	0.61063	0.0314	0.06065	0.931
Mof_O 	O 	0.7986	0.9765	0.4552	-0.335
Mof_O 	O 	0.7867	0.1207	0.5399	-0.283
Mof_O 	O 	0.6048	0.1907	0.1414	-0.296
Mof_O 	O 	0.4889	0.4415	0.3638	-0.32
Mof_C 	C 	0.6396	0.2143	0.4432	0.028
Mof_H 	H 	0.6325	0.2279	0.4981	0.049
Mof_O 	O 	0.5022	0.3798	0.4918	-0.355
Mof_C 	C 	0.7625	0.069	0.475	0.306
Mof_C 	C 	0.7008	0.1004	0.3352	0.013
Mof_H 	H 	0.736	0.0381	0.3173	0.069
Mof_C 	C 	0.6497	0.132	0.1928	0.303
Mof_C 	C 	0.7009	0.1326	0.4178	-0.066
Mof_C 	C 	0.5239	0.372	0.4144	0.294
Mof_O 	O 	0.6962	0.0481	0.1717	-0.31
Mof_C 	C 	0.5934	0.257	0.3059	0.014
Mof_H 	H 	0.5626	0.3033	0.2686	0.068
Mof_C 	C 	0.5875	0.2777	0.3885	-0.069
Mof_C 	C 	0.6472	0.164	0.2822	-0.054
Mof_Mn	Mn	0.88937	0.9686	0.56065	0.94
Mof_O 	O 	0.7014	0.0235	0.9552	-0.322
Mof_O 	O 	0.7133	0.8793	0.0399	-0.275
Mof_O 	O 	0.8952	0.8093	0.6414	-0.295
Mof_O 	O 	0.0111	0.5585	0.8638	-0.321
Mof_C 	C 	0.8604	0.7857	0.9432	0.023
Mof_H 	H 	0.8675	0.7721	0.9981	0.05
Mof_O 	O 	0.9978	0.6202	0.9918	-0.355
Mof_C 	C 	0.7375	0.931	0.975	0.287
Mof_C 	C 	0.7992	0.8996	0.8352	0.008
Mof_H 	H 	0.764	0.9619	0.8173	0.069
Mof_C 	C 	0.8503	0.868	0.6928	0.302
Mof_C 	C 	0.7991	0.8674	0.9178	-0.06
Mof_C 	C 	0.9761	0.628	0.9144	0.294
Mof_O 	O 	0.8038	0.9519	0.6717	-0.31
Mof_C 	C 	0.9066	0.743	0.8059	0.012
Mof_H 	H 	0.9374	0.6967	0.7686	0.069
Mof_C 	C 	0.9125	0.7223	0.8885	-0.067
Mof_C 	C 	0.8528	0.836	0.7822	-0.052
_end
