# CIF file generated by openbabel 3.1.0, see https://openbabel.org
data_I
_chemical_name_common 'image0'
_cell_length_a 27.638
_cell_length_b 27.638
_cell_length_c 17.949
_cell_angle_alpha 90
_cell_angle_beta 90
_cell_angle_gamma 120
_space_group_name_H-M_alt 'P 1'
_space_group_name_Hall 'P 1'
loop_
    _symmetry_equiv_pos_as_xyz
    x,y,z
loop_
    _atom_site_label
    _atom_site_type_symbol
    _atom_site_fract_x
    _atom_site_fract_y
    _atom_site_fract_z
    _atom_site_occupancy
    C1       C        0.40209    0.03425    0.91600    1.000
    C2       C        0.45995    0.05029    0.94000    1.000
    C3       C        0.48985    0.03021    0.90150    1.000
    H1       H        0.47360    0.00590    0.86010    1.000
    C4       C        0.54380    0.04614    0.92440    1.000
    C5       C        0.57665    0.02488    0.88360    1.000
    C6       C        0.56730    0.08120    0.98540    1.000
    H2       H        0.60400    0.09150    0.00120    1.000
    C7       C        0.53720    0.10120    0.02310    1.000
    C8       C        0.48320    0.08560    0.00060    1.000
    H3       H        0.46240    0.09910    0.02660    1.000
    C9       C        0.53620    0.15100    0.13070    1.000
    C10      C        0.57750    0.18350    0.20070    1.000
    C11      C        0.58540    0.14270    0.23820    1.000
    C12      C        0.27539    0.06464    0.05930    1.000
    C13      C        0.26345    0.09287    0.12230    1.000
    C14      C        0.26874    0.14524    0.11020    1.000
    H4       H        0.27600    0.16100    0.06160    1.000
    C15      C        0.26331    0.17394    0.16990    1.000
    C16      C        0.27318    0.23155    0.15950    1.000
    C17      C        0.25158    0.15052    0.24120    1.000
    H5       H        0.24970    0.17110    0.28240    1.000
    C18      C        0.24268    0.09691    0.25140    1.000
    C19      C        0.25013    0.06868    0.19260    1.000
    H6       H        0.24610    0.03290    0.20040    1.000
    C20      C        0.21640    0.09380    0.38050    1.000
    H7       H        0.19150    0.10810    0.36500    1.000
    H8       H        0.25130    0.12530    0.40070    1.000
    C21      C        0.18770    0.04810    0.43970    1.000
    C22      C        0.12890    0.01400    0.42080    1.000
    O1       O        0.37864    0.05721    0.94906    1.000
    O2       O        0.37979    0.99833    0.86456    1.000
    O3       O        0.55425    0.99485    0.82705    1.000
    O4       O        0.62475    0.03921    0.90820    1.000
    O5       O        0.56030    0.13550    0.08270    1.000
    O6       O        0.27075    0.01763    0.07099    1.000
    O7       O        0.28940    0.08993    0.99823    1.000
    O8       O        0.26906    0.24640    0.09367    1.000
    O9       O        0.28481    0.26257    0.21566    1.000
    O10      O        0.22847    0.06878    0.31811    1.000
    Zn1      Zn       0.30921    0.05349    0.91982    1.000
    Zn2      Zn       0.34412    0.99975    0.76962    1.000
    C23      C        0.60450    0.14130    0.12250    1.000
    C24      C        0.61420    0.17730    0.19210    1.000
    C25      C        0.16100    0.06050    0.49740    1.000
    C26      C        0.06876    0.36758    0.24933    1.000
    C27      C        0.12662    0.38362    0.27333    1.000
    C28      C        0.15652    0.36354    0.23483    1.000
    H9       H        0.14027    0.33923    0.19343    1.000
    C29      C        0.21047    0.37947    0.25773    1.000
    C30      C        0.24332    0.35821    0.21693    1.000
    C31      C        0.23397    0.41453    0.31873    1.000
    H10      H        0.27067    0.42483    0.33453    1.000
    C32      C        0.20387    0.43453    0.35643    1.000
    C33      C        0.14987    0.41893    0.33393    1.000
    H11      H        0.12907    0.43243    0.35993    1.000
    C34      C        0.20287    0.48433    0.46403    1.000
    C35      C        0.24417    0.51683    0.53403    1.000
    C36      C        0.25207    0.47603    0.57153    1.000
    C37      C        0.94206    0.39797    0.39263    1.000
    C38      C        0.93012    0.42620    0.45563    1.000
    C39      C        0.93541    0.47857    0.44353    1.000
    H12      H        0.94267    0.49433    0.39493    1.000
    C40      C        0.92998    0.50727    0.50323    1.000
    C41      C        0.93985    0.56488    0.49283    1.000
    C42      C        0.91825    0.48385    0.57453    1.000
    H13      H        0.91637    0.50443    0.61573    1.000
    C43      C        0.90935    0.43024    0.58473    1.000
    C44      C        0.91680    0.40201    0.52593    1.000
    H14      H        0.91277    0.36623    0.53373    1.000
    C45      C        0.88307    0.42713    0.71383    1.000
    H15      H        0.85817    0.44143    0.69833    1.000
    H16      H        0.91797    0.45863    0.73403    1.000
    C46      C        0.85437    0.38143    0.77303    1.000
    C47      C        0.79557    0.34733    0.75413    1.000
    O11      O        0.04531    0.39054    0.28239    1.000
    O12      O        0.04646    0.33166    0.19789    1.000
    O13      O        0.22092    0.32818    0.16038    1.000
    O14      O        0.29142    0.37254    0.24153    1.000
    O15      O        0.22697    0.46883    0.41603    1.000
    O16      O        0.93742    0.35096    0.40432    1.000
    O17      O        0.95607    0.42326    0.33156    1.000
    O18      O        0.93573    0.57973    0.42700    1.000
    O19      O        0.95148    0.59590    0.54899    1.000
    O20      O        0.89514    0.40211    0.65144    1.000
    Zn3      Zn       0.97588    0.38682    0.25315    1.000
    Zn4      Zn       0.01079    0.33308    0.10295    1.000
    C48      C        0.27117    0.47463    0.45583    1.000
    C49      C        0.28087    0.51063    0.52543    1.000
    C50      C        0.82767    0.39383    0.83073    1.000
    C51      C        0.73542    0.70092    0.58267    1.000
    C52      C        0.79328    0.71696    0.60667    1.000
    C53      C        0.82318    0.69688    0.56817    1.000
    H17      H        0.80693    0.67257    0.52677    1.000
    C54      C        0.87713    0.71281    0.59107    1.000
    C55      C        0.90998    0.69155    0.55027    1.000
    C56      C        0.90063    0.74787    0.65207    1.000
    H18      H        0.93733    0.75817    0.66787    1.000
    C57      C        0.87053    0.76787    0.68977    1.000
    C58      C        0.81653    0.75227    0.66727    1.000
    H19      H        0.79573    0.76577    0.69327    1.000
    C59      C        0.86953    0.81767    0.79737    1.000
    C60      C        0.91083    0.85017    0.86737    1.000
    C61      C        0.91873    0.80937    0.90487    1.000
    C62      C        0.60872    0.73131    0.72597    1.000
    C63      C        0.59678    0.75954    0.78897    1.000
    C64      C        0.60207    0.81191    0.77687    1.000
    H20      H        0.60933    0.82767    0.72827    1.000
    C65      C        0.59664    0.84061    0.83657    1.000
    C66      C        0.60651    0.89822    0.82617    1.000
    C67      C        0.58491    0.81719    0.90787    1.000
    H21      H        0.58303    0.83777    0.94907    1.000
    C68      C        0.57601    0.76358    0.91807    1.000
    C69      C        0.58346    0.73535    0.85927    1.000
    H22      H        0.57943    0.69957    0.86707    1.000
    C70      C        0.54973    0.76047    0.04717    1.000
    H23      H        0.52483    0.77477    0.03167    1.000
    H24      H        0.58463    0.79197    0.06737    1.000
    C71      C        0.52103    0.71477    0.10637    1.000
    C72      C        0.46223    0.68067    0.08747    1.000
    O21      O        0.71197    0.72388    0.61573    1.000
    O22      O        0.71312    0.66500    0.53123    1.000
    O23      O        0.88758    0.66152    0.49372    1.000
    O24      O        0.95808    0.70588    0.57487    1.000
    O25      O        0.89363    0.80217    0.74937    1.000
    O26      O        0.60408    0.68430    0.73766    1.000
    O27      O        0.62273    0.75660    0.66490    1.000
    O28      O        0.60239    0.91307    0.76034    1.000
    O29      O        0.61814    0.92924    0.88233    1.000
    O30      O        0.56180    0.73545    0.98478    1.000
    Zn5      Zn       0.64254    0.72016    0.58649    1.000
    Zn6      Zn       0.67745    0.66642    0.43629    1.000
    C73      C        0.93783    0.80797    0.78917    1.000
    C74      C        0.94753    0.84397    0.85877    1.000
    C75      C        0.49433    0.72717    0.16407    1.000
    C76      C        0.96575    0.36784    0.91600    1.000
    C77      C        0.94971    0.40966    0.94000    1.000
    C78      C        0.96979    0.45964    0.90150    1.000
    H25      H        0.99410    0.46770    0.86010    1.000
    C79      C        0.95386    0.49766    0.92440    1.000
    C80      C        0.97512    0.55177    0.88360    1.000
    C81      C        0.91880    0.48610    0.98540    1.000
    H26      H        0.90850    0.51250    0.00120    1.000
    C82      C        0.89880    0.43600    0.02310    1.000
    C83      C        0.91440    0.39760    0.00060    1.000
    H27      H        0.90090    0.36330    0.02660    1.000
    C84      C        0.84900    0.38520    0.13070    1.000
    C85      C        0.81650    0.39400    0.20070    1.000
    C86      C        0.85730    0.44270    0.23820    1.000
    C87      C        0.93536    0.21075    0.05930    1.000
    C88      C        0.90713    0.17058    0.12230    1.000
    C89      C        0.85476    0.12350    0.11020    1.000
    H28      H        0.83900    0.11500    0.06160    1.000
    C90      C        0.82606    0.08937    0.16990    1.000
    C91      C        0.76845    0.04163    0.15950    1.000
    C92      C        0.84948    0.10106    0.24120    1.000
    H29      H        0.82890    0.07860    0.28240    1.000
    C93      C        0.90309    0.14577    0.25140    1.000
    C94      C        0.93132    0.18145    0.19260    1.000
    H30      H        0.96710    0.21320    0.20040    1.000
    C95      C        0.90620    0.12260    0.38050    1.000
    H31      H        0.89190    0.08340    0.36500    1.000
    H32      H        0.87470    0.12600    0.40070    1.000
    C96      C        0.95190    0.13960    0.43970    1.000
    C97      C        0.98600    0.11490    0.42080    1.000
    O31      O        0.94279    0.32143    0.94906    1.000
    O32      O        0.00167    0.38146    0.86456    1.000
    O33      O        0.00515    0.55940    0.82705    1.000
    O34      O        0.96079    0.58554    0.90820    1.000
    O35      O        0.86450    0.42480    0.08270    1.000
    O36      O        0.98237    0.25312    0.07099    1.000
    O37      O        0.91007    0.19947    0.99823    1.000
    O38      O        0.75360    0.02266    0.09367    1.000
    O39      O        0.73743    0.02224    0.21566    1.000
    O40      O        0.93122    0.15969    0.31811    1.000
    Zn7      Zn       0.94651    0.25572    0.91982    1.000
    Zn8      Zn       0.00025    0.34437    0.76962    1.000
    C98      C        0.85870    0.46320    0.12250    1.000
    C99      C        0.82270    0.43690    0.19210    1.000
    C100     C        0.93950    0.10050    0.49740    1.000
    C101     C        0.63242    0.70117    0.24933    1.000
    C102     C        0.61638    0.74299    0.27333    1.000
    C103     C        0.63646    0.79297    0.23483    1.000
    H33      H        0.66077    0.80103    0.19343    1.000
    C104     C        0.62053    0.83099    0.25773    1.000
    C105     C        0.64179    0.88510    0.21693    1.000
    C106     C        0.58547    0.81943    0.31873    1.000
    H34      H        0.57517    0.84583    0.33453    1.000
    C107     C        0.56547    0.76933    0.35643    1.000
    C108     C        0.58107    0.73093    0.33393    1.000
    H35      H        0.56757    0.69663    0.35993    1.000
    C109     C        0.51567    0.71853    0.46403    1.000
    C110     C        0.48317    0.72733    0.53403    1.000
    C111     C        0.52397    0.77603    0.57153    1.000
    C112     C        0.60203    0.54408    0.39263    1.000
    C113     C        0.57380    0.50391    0.45563    1.000
    C114     C        0.52143    0.45683    0.44353    1.000
    H36      H        0.50567    0.44833    0.39493    1.000
    C115     C        0.49273    0.42270    0.50323    1.000
    C116     C        0.43512    0.37496    0.49283    1.000
    C117     C        0.51615    0.43439    0.57453    1.000
    H37      H        0.49557    0.41193    0.61573    1.000
    C118     C        0.56976    0.47910    0.58473    1.000
    C119     C        0.59799    0.51478    0.52593    1.000
    H38      H        0.63377    0.54653    0.53373    1.000
    C120     C        0.57287    0.45593    0.71383    1.000
    H39      H        0.55857    0.41673    0.69833    1.000
    H40      H        0.54137    0.45933    0.73403    1.000
    C121     C        0.61857    0.47293    0.77303    1.000
    C122     C        0.65267    0.44823    0.75413    1.000
    O41      O        0.60946    0.65476    0.28239    1.000
    O42      O        0.66834    0.71479    0.19789    1.000
    O43      O        0.67182    0.89273    0.16038    1.000
    O44      O        0.62746    0.91887    0.24153    1.000
    O45      O        0.53117    0.75813    0.41603    1.000
    O46      O        0.64904    0.58645    0.40432    1.000
    O47      O        0.57674    0.53280    0.33156    1.000
    O48      O        0.42027    0.35599    0.42700    1.000
    O49      O        0.40410    0.35557    0.54899    1.000
    O50      O        0.59789    0.49302    0.65144    1.000
    Zn9      Zn       0.61318    0.58905    0.25315    1.000
    Zn10     Zn       0.66692    0.67770    0.10295    1.000
    C123     C        0.52537    0.79653    0.45583    1.000
    C124     C        0.48937    0.77023    0.52543    1.000
    C125     C        0.60617    0.43383    0.83073    1.000
    C126     C        0.29908    0.03451    0.58267    1.000
    C127     C        0.28304    0.07633    0.60667    1.000
    C128     C        0.30312    0.12631    0.56817    1.000
    H41      H        0.32743    0.13437    0.52677    1.000
    C129     C        0.28719    0.16433    0.59107    1.000
    C130     C        0.30845    0.21844    0.55027    1.000
    C131     C        0.25213    0.15277    0.65207    1.000
    H42      H        0.24183    0.17917    0.66787    1.000
    C132     C        0.23213    0.10267    0.68977    1.000
    C133     C        0.24773    0.06427    0.66727    1.000
    H43      H        0.23423    0.02997    0.69327    1.000
    C134     C        0.18233    0.05187    0.79737    1.000
    C135     C        0.14983    0.06067    0.86737    1.000
    C136     C        0.19063    0.10937    0.90487    1.000
    C137     C        0.26869    0.87742    0.72597    1.000
    C138     C        0.24046    0.83725    0.78897    1.000
    C139     C        0.18809    0.79017    0.77687    1.000
    H44      H        0.17233    0.78167    0.72827    1.000
    C140     C        0.15939    0.75604    0.83657    1.000
    C141     C        0.10178    0.70830    0.82617    1.000
    C142     C        0.18281    0.76773    0.90787    1.000
    H45      H        0.16223    0.74527    0.94907    1.000
    C143     C        0.23642    0.81244    0.91807    1.000
    C144     C        0.26465    0.84812    0.85927    1.000
    H46      H        0.30043    0.87987    0.86707    1.000
    C145     C        0.23953    0.78927    0.04717    1.000
    H47      H        0.22523    0.75007    0.03167    1.000
    H48      H        0.20803    0.79267    0.06737    1.000
    C146     C        0.28523    0.80627    0.10637    1.000
    C147     C        0.31933    0.78157    0.08747    1.000
    O51      O        0.27612    0.98810    0.61573    1.000
    O52      O        0.33500    0.04813    0.53123    1.000
    O53      O        0.33848    0.22607    0.49372    1.000
    O54      O        0.29412    0.25221    0.57487    1.000
    O55      O        0.19783    0.09147    0.74937    1.000
    O56      O        0.31570    0.91979    0.73766    1.000
    O57      O        0.24340    0.86614    0.66490    1.000
    O58      O        0.08693    0.68933    0.76034    1.000
    O59      O        0.07076    0.68891    0.88233    1.000
    O60      O        0.26455    0.82636    0.98478    1.000
    Zn11     Zn       0.27984    0.92239    0.58649    1.000
    Zn12     Zn       0.33358    0.01104    0.43629    1.000
    C148     C        0.19203    0.12987    0.78917    1.000
    C149     C        0.15603    0.10357    0.85877    1.000
    C150     C        0.27283    0.76717    0.16407    1.000
    C151     C        0.63216    0.59791    0.91600    1.000
    C152     C        0.59034    0.54005    0.94000    1.000
    C153     C        0.54036    0.51015    0.90150    1.000
    H49      H        0.53230    0.52640    0.86010    1.000
    C154     C        0.50234    0.45620    0.92440    1.000
    C155     C        0.44823    0.42335    0.88360    1.000
    C156     C        0.51390    0.43270    0.98540    1.000
    H50      H        0.48750    0.39600    0.00120    1.000
    C157     C        0.56400    0.46280    0.02310    1.000
    C158     C        0.60240    0.51680    0.00060    1.000
    H51      H        0.63670    0.53760    0.02660    1.000
    C159     C        0.61480    0.46380    0.13070    1.000
    C160     C        0.60600    0.42250    0.20070    1.000
    C161     C        0.55730    0.41460    0.23820    1.000
    C162     C        0.78925    0.72461    0.05930    1.000
    C163     C        0.82942    0.73655    0.12230    1.000
    C164     C        0.87650    0.73126    0.11020    1.000
    H52      H        0.88500    0.72400    0.06160    1.000
    C165     C        0.91063    0.73669    0.16990    1.000
    C166     C        0.95837    0.72682    0.15950    1.000
    C167     C        0.89894    0.74842    0.24120    1.000
    H53      H        0.92140    0.75030    0.28240    1.000
    C168     C        0.85423    0.75732    0.25140    1.000
    C169     C        0.81855    0.74987    0.19260    1.000
    H54      H        0.78680    0.75390    0.20040    1.000
    C170     C        0.87740    0.78360    0.38050    1.000
    H55      H        0.91660    0.80850    0.36500    1.000
    H56      H        0.87400    0.74870    0.40070    1.000
    C171     C        0.86040    0.81230    0.43970    1.000
    C172     C        0.88510    0.87110    0.42080    1.000
    O61      O        0.67857    0.62136    0.94906    1.000
    O62      O        0.61854    0.62021    0.86456    1.000
    O63      O        0.44060    0.44575    0.82705    1.000
    O64      O        0.41446    0.37525    0.90820    1.000
    O65      O        0.57520    0.43970    0.08270    1.000
    O66      O        0.74688    0.72925    0.07099    1.000
    O67      O        0.80053    0.71060    0.99823    1.000
    O68      O        0.97734    0.73094    0.09367    1.000
    O69      O        0.97776    0.71519    0.21566    1.000
    O70      O        0.84031    0.77153    0.31811    1.000
    Zn13     Zn       0.74428    0.69079    0.91982    1.000
    Zn14     Zn       0.65563    0.65588    0.76962    1.000
    C173     C        0.53680    0.39550    0.12250    1.000
    C174     C        0.56310    0.38580    0.19210    1.000
    C175     C        0.89950    0.83900    0.49740    1.000
    C176     C        0.29883    0.93124    0.24933    1.000
    C177     C        0.25701    0.87338    0.27333    1.000
    C178     C        0.20703    0.84348    0.23483    1.000
    H57      H        0.19897    0.85973    0.19343    1.000
    C179     C        0.16901    0.78953    0.25773    1.000
    C180     C        0.11490    0.75668    0.21693    1.000
    C181     C        0.18057    0.76603    0.31873    1.000
    H58      H        0.15417    0.72933    0.33453    1.000
    C182     C        0.23067    0.79613    0.35643    1.000
    C183     C        0.26907    0.85013    0.33393    1.000
    H59      H        0.30337    0.87093    0.35993    1.000
    C184     C        0.28147    0.79713    0.46403    1.000
    C185     C        0.27267    0.75583    0.53403    1.000
    C186     C        0.22397    0.74793    0.57153    1.000
    C187     C        0.45592    0.05794    0.39263    1.000
    C188     C        0.49609    0.06988    0.45563    1.000
    C189     C        0.54317    0.06459    0.44353    1.000
    H60      H        0.55167    0.05733    0.39493    1.000
    C190     C        0.57730    0.07002    0.50323    1.000
    C191     C        0.62504    0.06015    0.49283    1.000
    C192     C        0.56561    0.08175    0.57453    1.000
    H61      H        0.58807    0.08363    0.61573    1.000
    C193     C        0.52090    0.09065    0.58473    1.000
    C194     C        0.48522    0.08320    0.52593    1.000
    H62      H        0.45347    0.08723    0.53373    1.000
    C195     C        0.54407    0.11693    0.71383    1.000
    H63      H        0.58327    0.14183    0.69833    1.000
    H64      H        0.54067    0.08203    0.73403    1.000
    C196     C        0.52707    0.14563    0.77303    1.000
    C197     C        0.55177    0.20443    0.75413    1.000
    O71      O        0.34524    0.95469    0.28239    1.000
    O72      O        0.28521    0.95354    0.19789    1.000
    O73      O        0.10727    0.77908    0.16038    1.000
    O74      O        0.08113    0.70858    0.24153    1.000
    O75      O        0.24187    0.77303    0.41603    1.000
    O76      O        0.41355    0.06258    0.40432    1.000
    O77      O        0.46720    0.04393    0.33156    1.000
    O78      O        0.64401    0.06427    0.42700    1.000
    O79      O        0.64443    0.04852    0.54899    1.000
    O80      O        0.50698    0.10486    0.65144    1.000
    Zn15     Zn       0.41095    0.02412    0.25315    1.000
    Zn16     Zn       0.32230    0.98921    0.10295    1.000
    C198     C        0.20347    0.72883    0.45583    1.000
    C199     C        0.22977    0.71913    0.52543    1.000
    C200     C        0.56617    0.17233    0.83073    1.000
    C201     C        0.96549    0.26458    0.58267    1.000
    C202     C        0.92367    0.20672    0.60667    1.000
    C203     C        0.87369    0.17682    0.56817    1.000
    H65      H        0.86563    0.19307    0.52677    1.000
    C204     C        0.83567    0.12287    0.59107    1.000
    C205     C        0.78156    0.09002    0.55027    1.000
    C206     C        0.84723    0.09937    0.65207    1.000
    H66      H        0.82083    0.06267    0.66787    1.000
    C207     C        0.89733    0.12947    0.68977    1.000
    C208     C        0.93573    0.18347    0.66727    1.000
    H67      H        0.97003    0.20427    0.69327    1.000
    C209     C        0.94813    0.13047    0.79737    1.000
    C210     C        0.93933    0.08917    0.86737    1.000
    C211     C        0.89063    0.08127    0.90487    1.000
    C212     C        0.12258    0.39128    0.72597    1.000
    C213     C        0.16275    0.40322    0.78897    1.000
    C214     C        0.20983    0.39793    0.77687    1.000
    H68      H        0.21833    0.39067    0.72827    1.000
    C215     C        0.24396    0.40336    0.83657    1.000
    C216     C        0.29170    0.39349    0.82617    1.000
    C217     C        0.23227    0.41509    0.90787    1.000
    H69      H        0.25473    0.41697    0.94907    1.000
    C218     C        0.18756    0.42399    0.91807    1.000
    C219     C        0.15188    0.41654    0.85927    1.000
    H70      H        0.12013    0.42057    0.86707    1.000
    C220     C        0.21073    0.45027    0.04717    1.000
    H71      H        0.24993    0.47517    0.03167    1.000
    H72      H        0.20733    0.41537    0.06737    1.000
    C221     C        0.19373    0.47897    0.10637    1.000
    C222     C        0.21843    0.53777    0.08747    1.000
    O81      O        0.01190    0.28803    0.61573    1.000
    O82      O        0.95187    0.28688    0.53123    1.000
    O83      O        0.77393    0.11242    0.49372    1.000
    O84      O        0.74779    0.04192    0.57487    1.000
    O85      O        0.90853    0.10637    0.74937    1.000
    O86      O        0.08021    0.39592    0.73766    1.000
    O87      O        0.13386    0.37727    0.66490    1.000
    O88      O        0.31067    0.39761    0.76034    1.000
    O89      O        0.31109    0.38186    0.88233    1.000
    O90      O        0.17364    0.43820    0.98478    1.000
    Zn17     Zn       0.07761    0.35746    0.58649    1.000
    Zn18     Zn       0.98896    0.32255    0.43629    1.000
    C223     C        0.87013    0.06217    0.78917    1.000
    C224     C        0.89643    0.05247    0.85877    1.000
    C225     C        0.23283    0.50567    0.16407    1.000
    C226     C        0.59791    0.96575    0.08400    1.000
    C227     C        0.54005    0.94971    0.06000    1.000
    C228     C        0.51015    0.96979    0.09850    1.000
    H73      H        0.52640    0.99410    0.13990    1.000
    C229     C        0.45620    0.95386    0.07560    1.000
    C230     C        0.42335    0.97512    0.11640    1.000
    C231     C        0.43270    0.91880    0.01460    1.000
    H74      H        0.39600    0.90850    0.99880    1.000
    C232     C        0.46280    0.89880    0.97690    1.000
    C233     C        0.51680    0.91440    0.99940    1.000
    H75      H        0.53760    0.90090    0.97340    1.000
    C234     C        0.46380    0.84900    0.86930    1.000
    C235     C        0.42250    0.81650    0.79930    1.000
    C236     C        0.41460    0.85730    0.76180    1.000
    C237     C        0.72461    0.93536    0.94070    1.000
    C238     C        0.73655    0.90713    0.87770    1.000
    C239     C        0.73126    0.85476    0.88980    1.000
    H76      H        0.72400    0.83900    0.93840    1.000
    C240     C        0.73669    0.82606    0.83010    1.000
    C241     C        0.72682    0.76845    0.84050    1.000
    C242     C        0.74842    0.84948    0.75880    1.000
    H77      H        0.75030    0.82890    0.71760    1.000
    C243     C        0.75732    0.90309    0.74860    1.000
    C244     C        0.74987    0.93132    0.80740    1.000
    H78      H        0.75390    0.96710    0.79960    1.000
    C245     C        0.78360    0.90620    0.61950    1.000
    H79      H        0.80850    0.89190    0.63500    1.000
    H80      H        0.74870    0.87470    0.59930    1.000
    C246     C        0.81230    0.95190    0.56030    1.000
    C247     C        0.87110    0.98600    0.57920    1.000
    O91      O        0.62136    0.94279    0.05094    1.000
    O92      O        0.62021    0.00167    0.13544    1.000
    O93      O        0.44575    0.00515    0.17295    1.000
    O94      O        0.37525    0.96079    0.09180    1.000
    O95      O        0.43970    0.86450    0.91730    1.000
    O96      O        0.72925    0.98237    0.92901    1.000
    O97      O        0.71060    0.91007    0.00177    1.000
    O98      O        0.73094    0.75360    0.90633    1.000
    O99      O        0.71519    0.73743    0.78434    1.000
    O100     O        0.77153    0.93122    0.68189    1.000
    Zn19     Zn       0.69079    0.94651    0.08018    1.000
    Zn20     Zn       0.65588    0.00025    0.23038    1.000
    C248     C        0.39550    0.85870    0.87750    1.000
    C249     C        0.38580    0.82270    0.80790    1.000
    C250     C        0.83900    0.93950    0.50260    1.000
    C251     C        0.26458    0.29908    0.41733    1.000
    C252     C        0.20672    0.28304    0.39333    1.000
    C253     C        0.17682    0.30312    0.43183    1.000
    H81      H        0.19307    0.32743    0.47323    1.000
    C254     C        0.12287    0.28719    0.40893    1.000
    C255     C        0.09002    0.30845    0.44973    1.000
    C256     C        0.09937    0.25213    0.34793    1.000
    H82      H        0.06267    0.24183    0.33213    1.000
    C257     C        0.12947    0.23213    0.31023    1.000
    C258     C        0.18347    0.24773    0.33273    1.000
    H83      H        0.20427    0.23423    0.30673    1.000
    C259     C        0.13047    0.18233    0.20263    1.000
    C260     C        0.08917    0.14983    0.13263    1.000
    C261     C        0.08127    0.19063    0.09513    1.000
    C262     C        0.39128    0.26869    0.27403    1.000
    C263     C        0.40322    0.24046    0.21103    1.000
    C264     C        0.39793    0.18809    0.22313    1.000
    H84      H        0.39067    0.17233    0.27173    1.000
    C265     C        0.40336    0.15939    0.16343    1.000
    C266     C        0.39349    0.10178    0.17383    1.000
    C267     C        0.41509    0.18281    0.09213    1.000
    H85      H        0.41697    0.16223    0.05093    1.000
    C268     C        0.42399    0.23642    0.08193    1.000
    C269     C        0.41654    0.26465    0.14073    1.000
    H86      H        0.42057    0.30043    0.13293    1.000
    C270     C        0.45027    0.23953    0.95283    1.000
    H87      H        0.47517    0.22523    0.96833    1.000
    H88      H        0.41537    0.20803    0.93263    1.000
    C271     C        0.47897    0.28523    0.89363    1.000
    C272     C        0.53777    0.31933    0.91253    1.000
    O101     O        0.28803    0.27612    0.38427    1.000
    O102     O        0.28688    0.33500    0.46877    1.000
    O103     O        0.11242    0.33848    0.50628    1.000
    O104     O        0.04192    0.29412    0.42513    1.000
    O105     O        0.10637    0.19783    0.25063    1.000
    O106     O        0.39592    0.31570    0.26234    1.000
    O107     O        0.37727    0.24340    0.33510    1.000
    O108     O        0.39761    0.08693    0.23966    1.000
    O109     O        0.38186    0.07076    0.11767    1.000
    O110     O        0.43820    0.26455    0.01522    1.000
    Zn21     Zn       0.35746    0.27984    0.41351    1.000
    Zn22     Zn       0.32255    0.33358    0.56371    1.000
    C273     C        0.06217    0.19203    0.21083    1.000
    C274     C        0.05247    0.15603    0.14123    1.000
    C275     C        0.50567    0.27283    0.83593    1.000
    C276     C        0.93124    0.63242    0.75067    1.000
    C277     C        0.87338    0.61638    0.72667    1.000
    C278     C        0.84348    0.63646    0.76517    1.000
    H89      H        0.85973    0.66077    0.80657    1.000
    C279     C        0.78953    0.62053    0.74227    1.000
    C280     C        0.75668    0.64179    0.78307    1.000
    C281     C        0.76603    0.58547    0.68127    1.000
    H90      H        0.72933    0.57517    0.66547    1.000
    C282     C        0.79613    0.56547    0.64357    1.000
    C283     C        0.85013    0.58107    0.66607    1.000
    H91      H        0.87093    0.56757    0.64007    1.000
    C284     C        0.79713    0.51567    0.53597    1.000
    C285     C        0.75583    0.48317    0.46597    1.000
    C286     C        0.74793    0.52397    0.42847    1.000
    C287     C        0.05794    0.60203    0.60737    1.000
    C288     C        0.06988    0.57380    0.54437    1.000
    C289     C        0.06459    0.52143    0.55647    1.000
    H92      H        0.05733    0.50567    0.60507    1.000
    C290     C        0.07002    0.49273    0.49677    1.000
    C291     C        0.06015    0.43512    0.50717    1.000
    C292     C        0.08175    0.51615    0.42547    1.000
    H93      H        0.08363    0.49557    0.38427    1.000
    C293     C        0.09065    0.56976    0.41527    1.000
    C294     C        0.08320    0.59799    0.47407    1.000
    H94      H        0.08723    0.63377    0.46627    1.000
    C295     C        0.11693    0.57287    0.28617    1.000
    H95      H        0.14183    0.55857    0.30167    1.000
    H96      H        0.08203    0.54137    0.26597    1.000
    C296     C        0.14563    0.61857    0.22697    1.000
    C297     C        0.20443    0.65267    0.24587    1.000
    O111     O        0.95469    0.60946    0.71761    1.000
    O112     O        0.95354    0.66834    0.80211    1.000
    O113     O        0.77908    0.67182    0.83962    1.000
    O114     O        0.70858    0.62746    0.75847    1.000
    O115     O        0.77303    0.53117    0.58397    1.000
    O116     O        0.06258    0.64904    0.59568    1.000
    O117     O        0.04393    0.57674    0.66844    1.000
    O118     O        0.06427    0.42027    0.57300    1.000
    O119     O        0.04852    0.40410    0.45101    1.000
    O120     O        0.10486    0.59789    0.34856    1.000
    Zn23     Zn       0.02412    0.61318    0.74685    1.000
    Zn24     Zn       0.98921    0.66692    0.89705    1.000
    C298     C        0.72883    0.52537    0.54417    1.000
    C299     C        0.71913    0.48937    0.47457    1.000
    C300     C        0.17233    0.60617    0.16927    1.000
    C301     C        0.03425    0.63216    0.08400    1.000
    C302     C        0.05029    0.59034    0.06000    1.000
    C303     C        0.03021    0.54036    0.09850    1.000
    H97      H        0.00590    0.53230    0.13990    1.000
    C304     C        0.04614    0.50234    0.07560    1.000
    C305     C        0.02488    0.44823    0.11640    1.000
    C306     C        0.08120    0.51390    0.01460    1.000
    H98      H        0.09150    0.48750    0.99880    1.000
    C307     C        0.10120    0.56400    0.97690    1.000
    C308     C        0.08560    0.60240    0.99940    1.000
    H99      H        0.09910    0.63670    0.97340    1.000
    C309     C        0.15100    0.61480    0.86930    1.000
    C310     C        0.18350    0.60600    0.79930    1.000
    C311     C        0.14270    0.55730    0.76180    1.000
    C312     C        0.06464    0.78925    0.94070    1.000
    C313     C        0.09287    0.82942    0.87770    1.000
    C314     C        0.14524    0.87650    0.88980    1.000
    H100     H        0.16100    0.88500    0.93840    1.000
    C315     C        0.17394    0.91063    0.83010    1.000
    C316     C        0.23155    0.95837    0.84050    1.000
    C317     C        0.15052    0.89894    0.75880    1.000
    H101     H        0.17110    0.92140    0.71760    1.000
    C318     C        0.09691    0.85423    0.74860    1.000
    C319     C        0.06868    0.81855    0.80740    1.000
    H102     H        0.03290    0.78680    0.79960    1.000
    C320     C        0.09380    0.87740    0.61950    1.000
    H103     H        0.10810    0.91660    0.63500    1.000
    H104     H        0.12530    0.87400    0.59930    1.000
    C321     C        0.04810    0.86040    0.56030    1.000
    C322     C        0.01400    0.88510    0.57920    1.000
    O121     O        0.05721    0.67857    0.05094    1.000
    O122     O        0.99833    0.61854    0.13544    1.000
    O123     O        0.99485    0.44060    0.17295    1.000
    O124     O        0.03921    0.41446    0.09180    1.000
    O125     O        0.13550    0.57520    0.91730    1.000
    O126     O        0.01763    0.74688    0.92901    1.000
    O127     O        0.08993    0.80053    0.00177    1.000
    O128     O        0.24640    0.97734    0.90633    1.000
    O129     O        0.26257    0.97776    0.78434    1.000
    O130     O        0.06878    0.84031    0.68189    1.000
    Zn25     Zn       0.05349    0.74428    0.08018    1.000
    Zn26     Zn       0.99975    0.65563    0.23038    1.000
    C323     C        0.14130    0.53680    0.87750    1.000
    C324     C        0.17730    0.56310    0.80790    1.000
    C325     C        0.06050    0.89950    0.50260    1.000
    C326     C        0.70092    0.96549    0.41733    1.000
    C327     C        0.71696    0.92367    0.39333    1.000
    C328     C        0.69688    0.87369    0.43183    1.000
    H105     H        0.67257    0.86563    0.47323    1.000
    C329     C        0.71281    0.83567    0.40893    1.000
    C330     C        0.69155    0.78156    0.44973    1.000
    C331     C        0.74787    0.84723    0.34793    1.000
    H106     H        0.75817    0.82083    0.33213    1.000
    C332     C        0.76787    0.89733    0.31023    1.000
    C333     C        0.75227    0.93573    0.33273    1.000
    H107     H        0.76577    0.97003    0.30673    1.000
    C334     C        0.81767    0.94813    0.20263    1.000
    C335     C        0.85017    0.93933    0.13263    1.000
    C336     C        0.80937    0.89063    0.09513    1.000
    C337     C        0.73131    0.12258    0.27403    1.000
    C338     C        0.75954    0.16275    0.21103    1.000
    C339     C        0.81191    0.20983    0.22313    1.000
    H108     H        0.82767    0.21833    0.27173    1.000
    C340     C        0.84061    0.24396    0.16343    1.000
    C341     C        0.89822    0.29170    0.17383    1.000
    C342     C        0.81719    0.23227    0.09213    1.000
    H109     H        0.83777    0.25473    0.05093    1.000
    C343     C        0.76358    0.18756    0.08193    1.000
    C344     C        0.73535    0.15188    0.14073    1.000
    H110     H        0.69957    0.12013    0.13293    1.000
    C345     C        0.76047    0.21073    0.95283    1.000
    H111     H        0.77477    0.24993    0.96833    1.000
    H112     H        0.79197    0.20733    0.93263    1.000
    C346     C        0.71477    0.19373    0.89363    1.000
    C347     C        0.68067    0.21843    0.91253    1.000
    O131     O        0.72388    0.01190    0.38427    1.000
    O132     O        0.66500    0.95187    0.46877    1.000
    O133     O        0.66152    0.77393    0.50628    1.000
    O134     O        0.70588    0.74779    0.42513    1.000
    O135     O        0.80217    0.90853    0.25063    1.000
    O136     O        0.68430    0.08021    0.26234    1.000
    O137     O        0.75660    0.13386    0.33510    1.000
    O138     O        0.91307    0.31067    0.23966    1.000
    O139     O        0.92924    0.31109    0.11767    1.000
    O140     O        0.73545    0.17364    0.01522    1.000
    Zn27     Zn       0.72016    0.07761    0.41351    1.000
    Zn28     Zn       0.66642    0.98896    0.56371    1.000
    C348     C        0.80797    0.87013    0.21083    1.000
    C349     C        0.84397    0.89643    0.14123    1.000
    C350     C        0.72717    0.23283    0.83593    1.000
    C351     C        0.36758    0.29883    0.75067    1.000
    C352     C        0.38362    0.25701    0.72667    1.000
    C353     C        0.36354    0.20703    0.76517    1.000
    H113     H        0.33923    0.19897    0.80657    1.000
    C354     C        0.37947    0.16901    0.74227    1.000
    C355     C        0.35821    0.11490    0.78307    1.000
    C356     C        0.41453    0.18057    0.68127    1.000
    H114     H        0.42483    0.15417    0.66547    1.000
    C357     C        0.43453    0.23067    0.64357    1.000
    C358     C        0.41893    0.26907    0.66607    1.000
    H115     H        0.43243    0.30337    0.64007    1.000
    C359     C        0.48433    0.28147    0.53597    1.000
    C360     C        0.51683    0.27267    0.46597    1.000
    C361     C        0.47603    0.22397    0.42847    1.000
    C362     C        0.39797    0.45592    0.60737    1.000
    C363     C        0.42620    0.49609    0.54437    1.000
    C364     C        0.47857    0.54317    0.55647    1.000
    H116     H        0.49433    0.55167    0.60507    1.000
    C365     C        0.50727    0.57730    0.49677    1.000
    C366     C        0.56488    0.62504    0.50717    1.000
    C367     C        0.48385    0.56561    0.42547    1.000
    H117     H        0.50443    0.58807    0.38427    1.000
    C368     C        0.43024    0.52090    0.41527    1.000
    C369     C        0.40201    0.48522    0.47407    1.000
    H118     H        0.36623    0.45347    0.46627    1.000
    C370     C        0.42713    0.54407    0.28617    1.000
    H119     H        0.44143    0.58327    0.30167    1.000
    H120     H        0.45863    0.54067    0.26597    1.000
    C371     C        0.38143    0.52707    0.22697    1.000
    C372     C        0.34733    0.55177    0.24587    1.000
    O141     O        0.39054    0.34524    0.71761    1.000
    O142     O        0.33166    0.28521    0.80211    1.000
    O143     O        0.32818    0.10727    0.83962    1.000
    O144     O        0.37254    0.08113    0.75847    1.000
    O145     O        0.46883    0.24187    0.58397    1.000
    O146     O        0.35096    0.41355    0.59568    1.000
    O147     O        0.42326    0.46720    0.66844    1.000
    O148     O        0.57973    0.64401    0.57300    1.000
    O149     O        0.59590    0.64443    0.45101    1.000
    O150     O        0.40211    0.50698    0.34856    1.000
    Zn29     Zn       0.38682    0.41095    0.74685    1.000
    Zn30     Zn       0.33308    0.32230    0.89705    1.000
    C373     C        0.47463    0.20347    0.54417    1.000
    C374     C        0.51063    0.22977    0.47457    1.000
    C375     C        0.39383    0.56617    0.16927    1.000
    C376     C        0.36784    0.40209    0.08400    1.000
    C377     C        0.40966    0.45995    0.06000    1.000
    C378     C        0.45964    0.48985    0.09850    1.000
    H121     H        0.46770    0.47360    0.13990    1.000
    C379     C        0.49766    0.54380    0.07560    1.000
    C380     C        0.55177    0.57665    0.11640    1.000
    C381     C        0.48610    0.56730    0.01460    1.000
    H122     H        0.51250    0.60400    0.99880    1.000
    C382     C        0.43600    0.53720    0.97690    1.000
    C383     C        0.39760    0.48320    0.99940    1.000
    H123     H        0.36330    0.46240    0.97340    1.000
    C384     C        0.38520    0.53620    0.86930    1.000
    C385     C        0.39400    0.57750    0.79930    1.000
    C386     C        0.44270    0.58540    0.76180    1.000
    C387     C        0.21075    0.27539    0.94070    1.000
    C388     C        0.17058    0.26345    0.87770    1.000
    C389     C        0.12350    0.26874    0.88980    1.000
    H124     H        0.11500    0.27600    0.93840    1.000
    C390     C        0.08937    0.26331    0.83010    1.000
    C391     C        0.04163    0.27318    0.84050    1.000
    C392     C        0.10106    0.25158    0.75880    1.000
    H125     H        0.07860    0.24970    0.71760    1.000
    C393     C        0.14577    0.24268    0.74860    1.000
    C394     C        0.18145    0.25013    0.80740    1.000
    H126     H        0.21320    0.24610    0.79960    1.000
    C395     C        0.12260    0.21640    0.61950    1.000
    H127     H        0.08340    0.19150    0.63500    1.000
    H128     H        0.12600    0.25130    0.59930    1.000
    C396     C        0.13960    0.18770    0.56030    1.000
    C397     C        0.11490    0.12890    0.57920    1.000
    O151     O        0.32143    0.37864    0.05094    1.000
    O152     O        0.38146    0.37979    0.13544    1.000
    O153     O        0.55940    0.55425    0.17295    1.000
    O154     O        0.58554    0.62475    0.09180    1.000
    O155     O        0.42480    0.56030    0.91730    1.000
    O156     O        0.25312    0.27075    0.92901    1.000
    O157     O        0.19947    0.28940    0.00177    1.000
    O158     O        0.02266    0.26906    0.90633    1.000
    O159     O        0.02224    0.28481    0.78434    1.000
    O160     O        0.15969    0.22847    0.68189    1.000
    Zn31     Zn       0.25572    0.30921    0.08018    1.000
    Zn32     Zn       0.34437    0.34412    0.23038    1.000
    C398     C        0.46320    0.60450    0.87750    1.000
    C399     C        0.43690    0.61420    0.80790    1.000
    C400     C        0.10050    0.16100    0.50260    1.000
    C401     C        0.03451    0.73542    0.41733    1.000
    C402     C        0.07633    0.79328    0.39333    1.000
    C403     C        0.12631    0.82318    0.43183    1.000
    H129     H        0.13437    0.80693    0.47323    1.000
    C404     C        0.16433    0.87713    0.40893    1.000
    C405     C        0.21844    0.90998    0.44973    1.000
    C406     C        0.15277    0.90063    0.34793    1.000
    H130     H        0.17917    0.93733    0.33213    1.000
    C407     C        0.10267    0.87053    0.31023    1.000
    C408     C        0.06427    0.81653    0.33273    1.000
    H131     H        0.02997    0.79573    0.30673    1.000
    C409     C        0.05187    0.86953    0.20263    1.000
    C410     C        0.06067    0.91083    0.13263    1.000
    C411     C        0.10937    0.91873    0.09513    1.000
    C412     C        0.87742    0.60872    0.27403    1.000
    C413     C        0.83725    0.59678    0.21103    1.000
    C414     C        0.79017    0.60207    0.22313    1.000
    H132     H        0.78167    0.60933    0.27173    1.000
    C415     C        0.75604    0.59664    0.16343    1.000
    C416     C        0.70830    0.60651    0.17383    1.000
    C417     C        0.76773    0.58491    0.09213    1.000
    H133     H        0.74527    0.58303    0.05093    1.000
    C418     C        0.81244    0.57601    0.08193    1.000
    C419     C        0.84812    0.58346    0.14073    1.000
    H134     H        0.87987    0.57943    0.13293    1.000
    C420     C        0.78927    0.54973    0.95283    1.000
    H135     H        0.75007    0.52483    0.96833    1.000
    H136     H        0.79267    0.58463    0.93263    1.000
    C421     C        0.80627    0.52103    0.89363    1.000
    C422     C        0.78157    0.46223    0.91253    1.000
    O161     O        0.98810    0.71197    0.38427    1.000
    O162     O        0.04813    0.71312    0.46877    1.000
    O163     O        0.22607    0.88758    0.50628    1.000
    O164     O        0.25221    0.95808    0.42513    1.000
    O165     O        0.09147    0.89363    0.25063    1.000
    O166     O        0.91979    0.60408    0.26234    1.000
    O167     O        0.86614    0.62273    0.33510    1.000
    O168     O        0.68933    0.60239    0.23966    1.000
    O169     O        0.68891    0.61814    0.11767    1.000
    O170     O        0.82636    0.56180    0.01522    1.000
    Zn33     Zn       0.92239    0.64254    0.41351    1.000
    Zn34     Zn       0.01104    0.67745    0.56371    1.000
    C423     C        0.12987    0.93783    0.21083    1.000
    C424     C        0.10357    0.94753    0.14123    1.000
    C425     C        0.76717    0.49433    0.83593    1.000
    C426     C        0.70117    0.06876    0.75067    1.000
    C427     C        0.74299    0.12662    0.72667    1.000
    C428     C        0.79297    0.15652    0.76517    1.000
    H137     H        0.80103    0.14027    0.80657    1.000
    C429     C        0.83099    0.21047    0.74227    1.000
    C430     C        0.88510    0.24332    0.78307    1.000
    C431     C        0.81943    0.23397    0.68127    1.000
    H138     H        0.84583    0.27067    0.66547    1.000
    C432     C        0.76933    0.20387    0.64357    1.000
    C433     C        0.73093    0.14987    0.66607    1.000
    H139     H        0.69663    0.12907    0.64007    1.000
    C434     C        0.71853    0.20287    0.53597    1.000
    C435     C        0.72733    0.24417    0.46597    1.000
    C436     C        0.77603    0.25207    0.42847    1.000
    C437     C        0.54408    0.94206    0.60737    1.000
    C438     C        0.50391    0.93012    0.54437    1.000
    C439     C        0.45683    0.93541    0.55647    1.000
    H140     H        0.44833    0.94267    0.60507    1.000
    C440     C        0.42270    0.92998    0.49677    1.000
    C441     C        0.37496    0.93985    0.50717    1.000
    C442     C        0.43439    0.91825    0.42547    1.000
    H141     H        0.41193    0.91637    0.38427    1.000
    C443     C        0.47910    0.90935    0.41527    1.000
    C444     C        0.51478    0.91680    0.47407    1.000
    H142     H        0.54653    0.91277    0.46627    1.000
    C445     C        0.45593    0.88307    0.28617    1.000
    H143     H        0.41673    0.85817    0.30167    1.000
    H144     H        0.45933    0.91797    0.26597    1.000
    C446     C        0.47293    0.85437    0.22697    1.000
    C447     C        0.44823    0.79557    0.24587    1.000
    O171     O        0.65476    0.04531    0.71761    1.000
    O172     O        0.71479    0.04646    0.80211    1.000
    O173     O        0.89273    0.22092    0.83962    1.000
    O174     O        0.91887    0.29142    0.75847    1.000
    O175     O        0.75813    0.22697    0.58397    1.000
    O176     O        0.58645    0.93742    0.59568    1.000
    O177     O        0.53280    0.95607    0.66844    1.000
    O178     O        0.35599    0.93573    0.57300    1.000
    O179     O        0.35557    0.95148    0.45101    1.000
    O180     O        0.49302    0.89514    0.34856    1.000
    Zn35     Zn       0.58905    0.97588    0.74685    1.000
    Zn36     Zn       0.67770    0.01079    0.89705    1.000
    C448     C        0.79653    0.27117    0.54417    1.000
    C449     C        0.77023    0.28087    0.47457    1.000
    C450     C        0.43383    0.82767    0.16927    1.000
