data_functionalizedCrystal
_audit_creation_method	'EQeq! by Chris Wilmer'
_symmetry_space_group_name_H-M	'P1'
_symmetry_Int_Tables_number	1
_symmetry_cell_setting	triclinic
loop_
_symmetry_equiv_pos_as_xyz
  x,y,z
_cell_length_a	32.9676
_cell_length_b	32.9676
_cell_length_c	26.6956
_cell_angle_alpha	90
_cell_angle_beta	90
_cell_angle_gamma	90
loop_
_atom_site_label
_atom_site_type_symbol
_atom_site_fract_x
_atom_site_fract_y
_atom_site_fract_z
_atom_site_charge
Mof_Cd	Cd	0.35814	0.37058	0.06276	0.521
Mof_O 	O 	0.32035	0.37225	0.7081	-0.224
Mof_O 	O 	0.45824	0.47416	0.27291	-0.219
Mof_O 	O 	0.17762	0.19422	0.54541	-0.228
Mof_O 	O 	0.33309	0.37127	0.14498	-0.232
Mof_O 	O 	0.43907	0.46175	0.67499	-0.239
Mof_O 	O 	0.43874	0.46219	0.34995	-0.241
Mof_O 	O 	0.45709	0.47395	0.59804	-0.241
Mof_O 	O 	0.28846	0.3434	0.64638	-0.242
Mof_O 	O 	0.3881	0.40744	0.13107	-0.229
Mof_O 	O 	0.21012	0.26122	0.29409	-0.237
Mof_O 	O 	0.16701	0.211	0.31057	-0.209
Mof_O 	O 	0.15307	0.15884	0.48347	-0.234
Mof_O 	O 	0.42713	0.36371	0.0344	-0.224
Mof_O 	O 	0.40061	0.31608	0.08173	-0.239
Mof_C 	C 	0.43433	0.45774	0.30442	0.265
Mof_C 	C 	0.31499	0.36828	0.6618	0.293
Mof_N 	N 	0.31667	0.3657	0.33032	-0.237
Mof_H 	H 	0.2992	0.3514	0.3142	0.152
Mof_O 	O 	0.62085	0.22783	0.2626	-0.232
Mof_N 	N 	0.2899	0.3343	0.3967	-0.178
Mof_C 	C 	0.36243	0.39288	0.15959	0.263
Mof_N 	N 	0.3559	0.4047	0.48914	-0.228
Mof_H 	H 	0.3692	0.4228	0.4728	0.15
Mof_C 	C 	0.17476	0.18779	0.4994	0.262
Mof_C 	C 	0.34386	0.3889	0.3	0.175
Mof_N 	N 	0.3369	0.3876	0.41032	-0.173
Mof_C 	C 	0.1945	0.21525	0.4633	0.022
Mof_C 	C 	0.43438	0.45761	0.62919	0.289
Mof_C 	C 	0.39172	0.4294	0.55859	-0.097
Mof_H 	H 	0.409	0.4423	0.5361	0.093
Mof_C 	C 	0.19396	0.237	0.3244	0.25
Mof_O 	O 	0.66929	0.19768	0.30334	-0.227
Mof_C 	C 	0.3736	0.4138	0.318	-0.146
Mof_H 	H 	0.3762	0.4182	0.3523	0.117
Mof_N 	N 	0.3084	0.353	0.47998	-0.171
Mof_C 	C 	0.42964	0.3304	0.0559	0.263
Mof_C 	C 	0.40025	0.43283	0.2841	0.026
Mof_C 	C 	0.20244	0.24006	0.3788	0.022
Mof_C 	C 	0.3595	0.4066	0.54109	0.108
Mof_C 	C 	0.3961	0.42648	0.23326	-0.075
Mof_H 	H 	0.414	0.4387	0.211	0.102
Mof_C 	C 	0.39864	0.43326	0.61146	-0.019
Mof_C 	C 	0.3338	0.3863	0.5746	0.017
Mof_C 	C 	0.6346	0.1961	0.283	0.264
Mof_C 	C 	0.36491	0.40156	0.21533	0.033
Mof_C 	C 	0.34067	0.39046	0.62649	-0.056
Mof_C 	C 	0.2208	0.245	0.48	-0.144
Mof_H 	H 	0.2266	0.2468	0.514	0.108
Mof_C 	C 	0.3144	0.363	0.3834	0.211
Mof_C 	C 	0.1851	0.21249	0.4137	-0.07
Mof_H 	H 	0.1673	0.1925	0.4026	0.096
Mof_C 	C 	0.33917	0.38314	0.2489	-0.15
Mof_H 	H 	0.3184	0.3666	0.2372	0.111
Mof_C 	C 	0.3337	0.3776	0.4599	0.209
Mof_C 	C 	0.2302	0.269	0.39564	-0.142
Mof_H 	H 	0.243	0.2861	0.3728	0.114
Mof_C 	C 	0.2388	0.2725	0.4467	0.175
Mof_C 	C 	0.61	0.1581	0.2822	-0.003
Mof_C 	C 	0.4679	0.3063	0.0537	0.027
Mof_C 	C 	0.4989	0.3183	0.0209	-0.076
Mof_H 	H 	0.496	0.3415	0.0016	0.102
Mof_O 	O 	0.2206	0.17357	0.235	-0.229
Mof_O 	O 	0.24879	0.22485	0.1941	-0.241
Mof_C 	C 	0.2884	0.3295	0.4466	0.211
Mof_N 	N 	0.2641	0.3011	0.46785	-0.248
Mof_H 	H 	0.2645	0.3008	0.5001	0.156
Mof_C 	C 	0.37348	0.41471	0.64345	-0.015
Mof_H 	H 	0.3776	0.4178	0.6777	0.079
Mof_O 	O 	0.5677	0.3444	0.9693	-0.228
Mof_N 	N 	0.52006	0.2188	0.115	-0.25
Mof_H 	H 	0.5452	0.2118	0.1158	0.153
Mof_N 	N 	0.39346	0.1843	0.1711	-0.246
Mof_H 	H 	0.3858	0.2022	0.1497	0.152
Mof_N 	N 	0.5069	0.1267	0.2439	-0.241
Mof_H 	H 	0.4904	0.1099	0.2577	0.15
Mof_C 	C 	0.5399	0.263	0.0483	-0.147
Mof_H 	H 	0.5645	0.2492	0.0467	0.104
Mof_C 	C 	0.5466	0.1254	0.2609	0.159
Mof_C 	C 	0.4348	0.1777	0.1742	0.209
Mof_N 	N 	0.45588	0.2017	0.1414	-0.176
Mof_C 	C 	0.495	0.1983	0.1458	0.215
Mof_C 	C 	0.5706	0.1596	0.2596	-0.125
Mof_H 	H 	0.5615	0.1832	0.2442	0.109
Mof_C 	C 	0.47371	0.2731	0.0828	-0.136
Mof_H 	H 	0.4528	0.2652	0.104	0.112
Mof_C 	C 	0.5103	0.2497	0.0826	0.172
Mof_N 	N 	0.51452	0.1714	0.177	-0.174
Mof_C 	C 	0.3665	0.1337	0.2292	-0.181
Mof_H 	H 	0.3915	0.1208	0.2327	0.126
Mof_C 	C 	0.2907	0.1705	0.22	0.04
Mof_N 	N 	0.4496	0.1519	0.2062	-0.177
Mof_C 	C 	0.3242	0.1842	0.1925	-0.158
Mof_H 	H 	0.3214	0.2057	0.1703	0.111
Mof_C 	C 	0.24995	0.1917	0.2137	0.265
Mof_C 	C 	0.296	0.1375	0.2492	-0.098
Mof_H 	H 	0.2736	0.1263	0.2653	0.103
Mof_C 	C 	0.6234	0.1229	0.303	-0.028
Mof_H 	H 	0.649	0.1222	0.3177	0.078
Mof_C 	C 	0.3623	0.1653	0.1988	0.192
Mof_C 	C 	0.534	0.2954	0.0173	0.039
Mof_C 	C 	0.6004	0.0887	0.3028	-0.043
Mof_O 	O 	0.6491	0.0472	0.3384	-0.304
Mof_C 	C 	0.6151	0.0492	0.3232	0.384
Mof_O 	O 	0.5961	0.0201	0.3252	-0.307
Mof_O 	O 	0.3732	0.0662	0.2958	-0.242
Mof_C 	C 	0.5605	0.0895	0.2814	-0.112
Mof_H 	H 	0.5443	0.0663	0.2813	0.092
Mof_O 	O 	0.3098	0.0743	0.321	-0.248
Mof_C 	C 	0.4904	0.1519	0.207	0.208
Mof_C 	C 	0.333	0.1202	0.2557	0.052
Mof_C 	C 	0.3394	0.0856	0.295	0.24
Mof_O 	O 	0.5904	0.2789	0.9642	-0.203
Mof_C 	C 	0.5668	0.3069	0.9807	0.244
Mof_Cd	Cd	0.65089	0.98006	0.35313	0.43
Mof_Cd	Cd	0.26714	0.32037	0.72294	0.52
Mof_Cd	Cd	0.64185	0.62942	0.06276	0.522
Mof_O 	O 	0.67965	0.62775	0.7081	-0.223
Mof_O 	O 	0.54176	0.52584	0.27291	-0.218
Mof_O 	O 	0.82238	0.80578	0.54541	-0.227
Mof_O 	O 	0.66691	0.62873	0.14498	-0.231
Mof_O 	O 	0.56093	0.53825	0.67499	-0.238
Mof_O 	O 	0.56126	0.53781	0.34995	-0.24
Mof_O 	O 	0.54291	0.52605	0.59804	-0.24
Mof_O 	O 	0.71154	0.6566	0.64638	-0.242
Mof_O 	O 	0.6119	0.59256	0.13107	-0.229
Mof_O 	O 	0.78988	0.73878	0.29409	-0.237
Mof_O 	O 	0.83299	0.789	0.31057	-0.209
Mof_O 	O 	0.84693	0.84116	0.48347	-0.234
Mof_O 	O 	0.57287	0.63629	0.0344	-0.224
Mof_O 	O 	0.59939	0.68392	0.08173	-0.239
Mof_C 	C 	0.56567	0.54226	0.30442	0.265
Mof_C 	C 	0.68501	0.63172	0.6618	0.293
Mof_N 	N 	0.68333	0.6343	0.33032	-0.237
Mof_H 	H 	0.7008	0.6486	0.3142	0.152
Mof_O 	O 	0.37915	0.77217	0.2626	-0.232
Mof_N 	N 	0.7101	0.6657	0.3967	-0.178
Mof_C 	C 	0.63757	0.60712	0.15959	0.263
Mof_N 	N 	0.6441	0.5953	0.48914	-0.228
Mof_H 	H 	0.6308	0.5772	0.4728	0.15
Mof_C 	C 	0.82524	0.81221	0.4994	0.262
Mof_C 	C 	0.65614	0.6111	0.3	0.175
Mof_N 	N 	0.6631	0.6124	0.41032	-0.173
Mof_C 	C 	0.8055	0.78475	0.4633	0.022
Mof_C 	C 	0.56562	0.54239	0.62919	0.289
Mof_C 	C 	0.60828	0.5706	0.55859	-0.097
Mof_H 	H 	0.591	0.5577	0.5361	0.093
Mof_C 	C 	0.80604	0.763	0.3244	0.249
Mof_O 	O 	0.33071	0.80232	0.30334	-0.227
Mof_C 	C 	0.6264	0.5862	0.318	-0.146
Mof_H 	H 	0.6238	0.5818	0.3523	0.117
Mof_N 	N 	0.6916	0.647	0.47998	-0.171
Mof_C 	C 	0.57036	0.6696	0.0559	0.263
Mof_C 	C 	0.59975	0.56717	0.2841	0.026
Mof_C 	C 	0.79756	0.75994	0.3788	0.022
Mof_C 	C 	0.6405	0.5934	0.54109	0.108
Mof_C 	C 	0.6039	0.57352	0.23326	-0.075
Mof_H 	H 	0.586	0.5613	0.211	0.102
Mof_C 	C 	0.60136	0.56674	0.61146	-0.019
Mof_C 	C 	0.6662	0.6137	0.5746	0.017
Mof_C 	C 	0.3654	0.8039	0.283	0.264
Mof_C 	C 	0.63509	0.59844	0.21533	0.033
Mof_C 	C 	0.65933	0.60954	0.62649	-0.056
Mof_C 	C 	0.7792	0.755	0.48	-0.144
Mof_H 	H 	0.7734	0.7532	0.514	0.108
Mof_C 	C 	0.6856	0.637	0.3834	0.211
Mof_C 	C 	0.8149	0.78751	0.4137	-0.071
Mof_H 	H 	0.8327	0.8075	0.4026	0.096
Mof_C 	C 	0.66083	0.61686	0.2489	-0.15
Mof_H 	H 	0.6816	0.6334	0.2372	0.111
Mof_C 	C 	0.6663	0.6224	0.4599	0.209
Mof_C 	C 	0.7698	0.731	0.39564	-0.142
Mof_H 	H 	0.757	0.7139	0.3728	0.115
Mof_C 	C 	0.7612	0.7275	0.4467	0.175
Mof_C 	C 	0.39	0.8419	0.2822	-0.002
Mof_C 	C 	0.5321	0.6937	0.0537	0.027
Mof_C 	C 	0.5011	0.6817	0.0209	-0.076
Mof_H 	H 	0.504	0.6585	0.0016	0.102
Mof_O 	O 	0.7794	0.82643	0.235	-0.229
Mof_O 	O 	0.75121	0.77515	0.1941	-0.241
Mof_C 	C 	0.7116	0.6705	0.4466	0.211
Mof_N 	N 	0.7359	0.6989	0.46785	-0.248
Mof_H 	H 	0.7355	0.6992	0.5001	0.156
Mof_C 	C 	0.62652	0.58529	0.64345	-0.015
Mof_H 	H 	0.6224	0.5822	0.6777	0.079
Mof_O 	O 	0.4323	0.6556	0.9693	-0.228
Mof_N 	N 	0.47994	0.7812	0.115	-0.25
Mof_H 	H 	0.4548	0.7882	0.1158	0.153
Mof_N 	N 	0.60654	0.8157	0.1711	-0.246
Mof_H 	H 	0.6142	0.7978	0.1497	0.152
Mof_N 	N 	0.4931	0.8733	0.2439	-0.241
Mof_H 	H 	0.5096	0.8901	0.2577	0.15
Mof_C 	C 	0.4601	0.737	0.0483	-0.147
Mof_H 	H 	0.4355	0.7508	0.0467	0.104
Mof_C 	C 	0.4534	0.8746	0.2609	0.16
Mof_C 	C 	0.5652	0.8223	0.1742	0.209
Mof_N 	N 	0.54412	0.7983	0.1414	-0.176
Mof_C 	C 	0.505	0.8017	0.1458	0.215
Mof_C 	C 	0.4294	0.8404	0.2596	-0.125
Mof_H 	H 	0.4385	0.8168	0.2442	0.109
Mof_C 	C 	0.52629	0.7269	0.0828	-0.136
Mof_H 	H 	0.5472	0.7348	0.104	0.112
Mof_C 	C 	0.4897	0.7503	0.0826	0.172
Mof_N 	N 	0.48548	0.8286	0.177	-0.174
Mof_C 	C 	0.6335	0.8663	0.2292	-0.181
Mof_H 	H 	0.6085	0.8792	0.2327	0.126
Mof_C 	C 	0.7093	0.8295	0.22	0.041
Mof_N 	N 	0.5504	0.8481	0.2062	-0.177
Mof_C 	C 	0.6758	0.8158	0.1925	-0.159
Mof_H 	H 	0.6786	0.7943	0.1703	0.111
Mof_C 	C 	0.75005	0.8083	0.2137	0.265
Mof_C 	C 	0.704	0.8625	0.2492	-0.098
Mof_H 	H 	0.7264	0.8737	0.2653	0.103
Mof_C 	C 	0.3766	0.8771	0.303	-0.029
Mof_H 	H 	0.351	0.8778	0.3177	0.078
Mof_C 	C 	0.6377	0.8347	0.1988	0.193
Mof_C 	C 	0.466	0.7046	0.0173	0.039
Mof_C 	C 	0.3996	0.9113	0.3028	-0.041
Mof_O 	O 	0.3509	0.9528	0.3384	-0.3
Mof_C 	C 	0.3849	0.9508	0.3232	0.382
Mof_O 	O 	0.4039	0.9799	0.3252	-0.302
Mof_O 	O 	0.6268	0.9338	0.2958	-0.24
Mof_C 	C 	0.4395	0.9105	0.2814	-0.113
Mof_H 	H 	0.4557	0.9337	0.2813	0.093
Mof_O 	O 	0.6902	0.9257	0.321	-0.247
Mof_C 	C 	0.5096	0.8481	0.207	0.208
Mof_C 	C 	0.667	0.8798	0.2557	0.053
Mof_C 	C 	0.6606	0.9144	0.295	0.24
Mof_O 	O 	0.4096	0.7211	0.9642	-0.203
Mof_C 	C 	0.4332	0.6931	0.9807	0.244
Mof_Cd	Cd	0.34911	0.01994	0.35313	0.423
Mof_Cd	Cd	0.73286	0.67963	0.72294	0.52
Mof_Cd	Cd	0.37058	0.64186	0.93724	0.522
Mof_O 	O 	0.37225	0.67965	0.2919	-0.223
Mof_O 	O 	0.47416	0.54176	0.72709	-0.218
Mof_O 	O 	0.19422	0.82238	0.45459	-0.227
Mof_O 	O 	0.37127	0.66691	0.85502	-0.231
Mof_O 	O 	0.46175	0.56093	0.32501	-0.238
Mof_O 	O 	0.46219	0.56126	0.65005	-0.24
Mof_O 	O 	0.47395	0.54291	0.40196	-0.24
Mof_O 	O 	0.3434	0.71154	0.35362	-0.242
Mof_O 	O 	0.40744	0.6119	0.86893	-0.229
Mof_O 	O 	0.26122	0.78988	0.70591	-0.237
Mof_O 	O 	0.211	0.83299	0.68943	-0.209
Mof_O 	O 	0.15884	0.84693	0.51653	-0.234
Mof_O 	O 	0.36371	0.57287	0.9656	-0.224
Mof_O 	O 	0.31608	0.59939	0.91827	-0.239
Mof_C 	C 	0.45774	0.56567	0.69558	0.265
Mof_C 	C 	0.36828	0.68501	0.3382	0.293
Mof_N 	N 	0.3657	0.68333	0.66968	-0.237
Mof_H 	H 	0.3514	0.7008	0.6858	0.152
Mof_O 	O 	0.22783	0.37915	0.7374	-0.232
Mof_N 	N 	0.3343	0.7101	0.6033	-0.178
Mof_C 	C 	0.39288	0.63757	0.84041	0.263
Mof_N 	N 	0.4047	0.6441	0.51086	-0.228
Mof_H 	H 	0.4228	0.6308	0.5272	0.15
Mof_C 	C 	0.18779	0.82524	0.5006	0.262
Mof_C 	C 	0.3889	0.65614	0.7	0.175
Mof_N 	N 	0.3876	0.6631	0.58968	-0.173
Mof_C 	C 	0.21525	0.8055	0.5367	0.022
Mof_C 	C 	0.45761	0.56562	0.37081	0.289
Mof_C 	C 	0.4294	0.60828	0.44141	-0.097
Mof_H 	H 	0.4423	0.591	0.4639	0.093
Mof_C 	C 	0.237	0.80604	0.6756	0.249
Mof_O 	O 	0.19768	0.33071	0.69666	-0.227
Mof_C 	C 	0.4138	0.6264	0.682	-0.146
Mof_H 	H 	0.4182	0.6238	0.6477	0.117
Mof_N 	N 	0.353	0.6916	0.52002	-0.171
Mof_C 	C 	0.3304	0.57036	0.9441	0.263
Mof_C 	C 	0.43283	0.59975	0.7159	0.026
Mof_C 	C 	0.24006	0.79756	0.6212	0.022
Mof_C 	C 	0.4066	0.6405	0.45891	0.108
Mof_C 	C 	0.42648	0.6039	0.76674	-0.075
Mof_H 	H 	0.4387	0.586	0.789	0.102
Mof_C 	C 	0.43326	0.60136	0.38854	-0.019
Mof_C 	C 	0.3863	0.6662	0.4254	0.017
Mof_C 	C 	0.1961	0.3654	0.717	0.264
Mof_C 	C 	0.40156	0.63509	0.78467	0.033
Mof_C 	C 	0.39046	0.65933	0.37351	-0.056
Mof_C 	C 	0.245	0.7792	0.52	-0.144
Mof_H 	H 	0.2468	0.7734	0.486	0.108
Mof_C 	C 	0.363	0.6856	0.6166	0.211
Mof_C 	C 	0.21249	0.8149	0.5863	-0.07
Mof_H 	H 	0.1925	0.8327	0.5974	0.096
Mof_C 	C 	0.38314	0.66083	0.7511	-0.15
Mof_H 	H 	0.3666	0.6816	0.7628	0.111
Mof_C 	C 	0.3776	0.6663	0.5401	0.209
Mof_C 	C 	0.269	0.7698	0.60436	-0.142
Mof_H 	H 	0.2861	0.757	0.6272	0.114
Mof_C 	C 	0.2725	0.7612	0.5533	0.175
Mof_C 	C 	0.1581	0.39	0.7178	-0.003
Mof_C 	C 	0.3063	0.5321	0.9463	0.027
Mof_C 	C 	0.3183	0.5011	0.9791	-0.076
Mof_H 	H 	0.3415	0.504	0.9984	0.102
Mof_O 	O 	0.17357	0.7794	0.765	-0.229
Mof_O 	O 	0.22485	0.75121	0.8059	-0.241
Mof_C 	C 	0.3295	0.7116	0.5534	0.211
Mof_N 	N 	0.3011	0.7359	0.53215	-0.248
Mof_H 	H 	0.3008	0.7355	0.4999	0.156
Mof_C 	C 	0.41471	0.62652	0.35655	-0.015
Mof_H 	H 	0.4178	0.6224	0.3223	0.079
Mof_O 	O 	0.3444	0.4323	0.0307	-0.228
Mof_N 	N 	0.2188	0.47994	0.885	-0.25
Mof_H 	H 	0.2118	0.4548	0.8842	0.153
Mof_N 	N 	0.1843	0.60654	0.8289	-0.246
Mof_H 	H 	0.2022	0.6142	0.8503	0.152
Mof_N 	N 	0.1267	0.4931	0.7561	-0.241
Mof_H 	H 	0.1099	0.5096	0.7423	0.15
Mof_C 	C 	0.263	0.4601	0.9517	-0.147
Mof_H 	H 	0.2492	0.4355	0.9533	0.104
Mof_C 	C 	0.1254	0.4534	0.7391	0.159
Mof_C 	C 	0.1777	0.5652	0.8258	0.209
Mof_N 	N 	0.2017	0.54412	0.8586	-0.176
Mof_C 	C 	0.1983	0.505	0.8542	0.215
Mof_C 	C 	0.1596	0.4294	0.7404	-0.125
Mof_H 	H 	0.1832	0.4385	0.7558	0.109
Mof_C 	C 	0.2731	0.52629	0.9172	-0.136
Mof_H 	H 	0.2652	0.5472	0.896	0.112
Mof_C 	C 	0.2497	0.4897	0.9174	0.172
Mof_N 	N 	0.1714	0.48548	0.823	-0.174
Mof_C 	C 	0.1337	0.6335	0.7708	-0.181
Mof_H 	H 	0.1208	0.6085	0.7673	0.126
Mof_C 	C 	0.1705	0.7093	0.78	0.04
Mof_N 	N 	0.1519	0.5504	0.7938	-0.177
Mof_C 	C 	0.1842	0.6758	0.8075	-0.158
Mof_H 	H 	0.2057	0.6786	0.8297	0.111
Mof_C 	C 	0.1917	0.75005	0.7863	0.265
Mof_C 	C 	0.1375	0.704	0.7508	-0.098
Mof_H 	H 	0.1263	0.7264	0.7347	0.103
Mof_C 	C 	0.1229	0.3766	0.697	-0.028
Mof_H 	H 	0.1222	0.351	0.6823	0.078
Mof_C 	C 	0.1653	0.6377	0.8012	0.192
Mof_C 	C 	0.2954	0.466	0.9827	0.039
Mof_C 	C 	0.0887	0.3996	0.6972	-0.043
Mof_O 	O 	0.0472	0.3509	0.6616	-0.304
Mof_C 	C 	0.0492	0.3849	0.6768	0.384
Mof_O 	O 	0.0201	0.4039	0.6748	-0.307
Mof_O 	O 	0.0662	0.6268	0.7042	-0.242
Mof_C 	C 	0.0895	0.4395	0.7186	-0.112
Mof_H 	H 	0.0663	0.4557	0.7187	0.092
Mof_O 	O 	0.0743	0.6902	0.679	-0.248
Mof_C 	C 	0.1519	0.5096	0.793	0.208
Mof_C 	C 	0.1202	0.667	0.7443	0.052
Mof_C 	C 	0.0856	0.6606	0.705	0.24
Mof_O 	O 	0.2789	0.4096	0.0358	-0.203
Mof_C 	C 	0.3069	0.4332	0.0193	0.244
Mof_Cd	Cd	0.98006	0.34911	0.64687	0.43
Mof_Cd	Cd	0.32037	0.73286	0.27706	0.52
Mof_Cd	Cd	0.62942	0.35814	0.93724	0.522
Mof_O 	O 	0.62775	0.32035	0.2919	-0.223
Mof_O 	O 	0.52584	0.45824	0.72709	-0.218
Mof_O 	O 	0.80578	0.17762	0.45459	-0.227
Mof_O 	O 	0.62873	0.33309	0.85502	-0.231
Mof_O 	O 	0.53825	0.43907	0.32501	-0.238
Mof_O 	O 	0.53781	0.43874	0.65005	-0.24
Mof_O 	O 	0.52605	0.45709	0.40196	-0.24
Mof_O 	O 	0.6566	0.28846	0.35362	-0.242
Mof_O 	O 	0.59256	0.3881	0.86893	-0.229
Mof_O 	O 	0.73878	0.21012	0.70591	-0.237
Mof_O 	O 	0.789	0.16701	0.68943	-0.209
Mof_O 	O 	0.84116	0.15307	0.51653	-0.234
Mof_O 	O 	0.63629	0.42713	0.9656	-0.224
Mof_O 	O 	0.68392	0.40061	0.91827	-0.239
Mof_C 	C 	0.54226	0.43433	0.69558	0.265
Mof_C 	C 	0.63172	0.31499	0.3382	0.293
Mof_N 	N 	0.6343	0.31667	0.66968	-0.237
Mof_H 	H 	0.6486	0.2992	0.6858	0.152
Mof_O 	O 	0.77217	0.62085	0.7374	-0.232
Mof_N 	N 	0.6657	0.2899	0.6033	-0.178
Mof_C 	C 	0.60712	0.36243	0.84041	0.263
Mof_N 	N 	0.5953	0.3559	0.51086	-0.228
Mof_H 	H 	0.5772	0.3692	0.5272	0.15
Mof_C 	C 	0.81221	0.17476	0.5006	0.262
Mof_C 	C 	0.6111	0.34386	0.7	0.175
Mof_N 	N 	0.6124	0.3369	0.58968	-0.173
Mof_C 	C 	0.78475	0.1945	0.5367	0.022
Mof_C 	C 	0.54239	0.43438	0.37081	0.289
Mof_C 	C 	0.5706	0.39172	0.44141	-0.097
Mof_H 	H 	0.5577	0.409	0.4639	0.093
Mof_C 	C 	0.763	0.19396	0.6756	0.25
Mof_O 	O 	0.80232	0.66929	0.69666	-0.227
Mof_C 	C 	0.5862	0.3736	0.682	-0.146
Mof_H 	H 	0.5818	0.3762	0.6477	0.117
Mof_N 	N 	0.647	0.3084	0.52002	-0.171
Mof_C 	C 	0.6696	0.42964	0.9441	0.263
Mof_C 	C 	0.56717	0.40025	0.7159	0.026
Mof_C 	C 	0.75994	0.20244	0.6212	0.022
Mof_C 	C 	0.5934	0.3595	0.45891	0.108
Mof_C 	C 	0.57352	0.3961	0.76674	-0.075
Mof_H 	H 	0.5613	0.414	0.789	0.102
Mof_C 	C 	0.56674	0.39864	0.38854	-0.019
Mof_C 	C 	0.6137	0.3338	0.4254	0.017
Mof_C 	C 	0.8039	0.6346	0.717	0.264
Mof_C 	C 	0.59844	0.36491	0.78467	0.033
Mof_C 	C 	0.60954	0.34067	0.37351	-0.056
Mof_C 	C 	0.755	0.2208	0.52	-0.144
Mof_H 	H 	0.7532	0.2266	0.486	0.108
Mof_C 	C 	0.637	0.3144	0.6166	0.211
Mof_C 	C 	0.78751	0.1851	0.5863	-0.07
Mof_H 	H 	0.8075	0.1673	0.5974	0.096
Mof_C 	C 	0.61686	0.33917	0.7511	-0.15
Mof_H 	H 	0.6334	0.3184	0.7628	0.111
Mof_C 	C 	0.6224	0.3337	0.5401	0.209
Mof_C 	C 	0.731	0.2302	0.60436	-0.142
Mof_H 	H 	0.7139	0.243	0.6272	0.114
Mof_C 	C 	0.7275	0.2388	0.5533	0.175
Mof_C 	C 	0.8419	0.61	0.7178	-0.002
Mof_C 	C 	0.6937	0.4679	0.9463	0.027
Mof_C 	C 	0.6817	0.4989	0.9791	-0.076
Mof_H 	H 	0.6585	0.496	0.9984	0.102
Mof_O 	O 	0.82643	0.2206	0.765	-0.229
Mof_O 	O 	0.77515	0.24879	0.8059	-0.241
Mof_C 	C 	0.6705	0.2884	0.5534	0.211
Mof_N 	N 	0.6989	0.2641	0.53215	-0.248
Mof_H 	H 	0.6992	0.2645	0.4999	0.156
Mof_C 	C 	0.58529	0.37348	0.35655	-0.015
Mof_H 	H 	0.5822	0.3776	0.3223	0.079
Mof_O 	O 	0.6556	0.5677	0.0307	-0.228
Mof_N 	N 	0.7812	0.52006	0.885	-0.25
Mof_H 	H 	0.7882	0.5452	0.8842	0.153
Mof_N 	N 	0.8157	0.39346	0.8289	-0.246
Mof_H 	H 	0.7978	0.3858	0.8503	0.153
Mof_N 	N 	0.8733	0.5069	0.7561	-0.241
Mof_H 	H 	0.8901	0.4904	0.7423	0.15
Mof_C 	C 	0.737	0.5399	0.9517	-0.147
Mof_H 	H 	0.7508	0.5645	0.9533	0.104
Mof_C 	C 	0.8746	0.5466	0.7391	0.16
Mof_C 	C 	0.8223	0.4348	0.8258	0.209
Mof_N 	N 	0.7983	0.45588	0.8586	-0.176
Mof_C 	C 	0.8017	0.495	0.8542	0.215
Mof_C 	C 	0.8404	0.5706	0.7404	-0.125
Mof_H 	H 	0.8168	0.5615	0.7558	0.109
Mof_C 	C 	0.7269	0.47371	0.9172	-0.136
Mof_H 	H 	0.7348	0.4528	0.896	0.112
Mof_C 	C 	0.7503	0.5103	0.9174	0.172
Mof_N 	N 	0.8286	0.51452	0.823	-0.174
Mof_C 	C 	0.8663	0.3665	0.7708	-0.181
Mof_H 	H 	0.8792	0.3915	0.7673	0.126
Mof_C 	C 	0.8295	0.2907	0.78	0.041
Mof_N 	N 	0.8481	0.4496	0.7938	-0.177
Mof_C 	C 	0.8158	0.3242	0.8075	-0.158
Mof_H 	H 	0.7943	0.3214	0.8297	0.111
Mof_C 	C 	0.8083	0.24995	0.7863	0.265
Mof_C 	C 	0.8625	0.296	0.7508	-0.098
Mof_H 	H 	0.8737	0.2736	0.7347	0.103
Mof_C 	C 	0.8771	0.6234	0.697	-0.029
Mof_H 	H 	0.8778	0.649	0.6823	0.078
Mof_C 	C 	0.8347	0.3623	0.8012	0.193
Mof_C 	C 	0.7046	0.534	0.9827	0.039
Mof_C 	C 	0.9113	0.6004	0.6972	-0.041
Mof_O 	O 	0.9528	0.6491	0.6616	-0.3
Mof_C 	C 	0.9508	0.6151	0.6768	0.382
Mof_O 	O 	0.9799	0.5961	0.6748	-0.302
Mof_O 	O 	0.9338	0.3732	0.7042	-0.24
Mof_C 	C 	0.9105	0.5605	0.7186	-0.113
Mof_H 	H 	0.9337	0.5443	0.7187	0.093
Mof_O 	O 	0.9257	0.3098	0.679	-0.247
Mof_C 	C 	0.8481	0.4904	0.793	0.208
Mof_C 	C 	0.8798	0.333	0.7443	0.053
Mof_C 	C 	0.9144	0.3394	0.705	0.24
Mof_O 	O 	0.7211	0.5904	0.0358	-0.203
Mof_C 	C 	0.6931	0.5668	0.0193	0.244
Mof_Cd	Cd	0.01994	0.65089	0.64687	0.423
Mof_Cd	Cd	0.67963	0.26714	0.27706	0.52
Mof_Cd	Cd	0.14186	0.87058	0.43724	0.522
Mof_O 	O 	0.17965	0.87225	0.7919	-0.223
Mof_O 	O 	0.04176	0.97416	0.22709	-0.217
Mof_O 	O 	0.32238	0.69422	0.95459	-0.227
Mof_O 	O 	0.16691	0.87127	0.35502	-0.231
Mof_O 	O 	0.06093	0.96175	0.82501	-0.237
Mof_O 	O 	0.06126	0.96219	0.15005	-0.239
Mof_O 	O 	0.04291	0.97395	0.90196	-0.239
Mof_O 	O 	0.21154	0.8434	0.85362	-0.242
Mof_O 	O 	0.1119	0.90744	0.36893	-0.229
Mof_O 	O 	0.28988	0.76122	0.20591	-0.237
Mof_O 	O 	0.33299	0.711	0.18943	-0.209
Mof_O 	O 	0.34693	0.65884	0.01653	-0.234
Mof_O 	O 	0.07287	0.86371	0.4656	-0.224
Mof_O 	O 	0.09939	0.81608	0.41827	-0.239
Mof_C 	C 	0.06567	0.95774	0.19558	0.264
Mof_C 	C 	0.18501	0.86828	0.8382	0.293
Mof_N 	N 	0.18333	0.8657	0.16968	-0.237
Mof_H 	H 	0.2008	0.8514	0.1858	0.152
Mof_O 	O 	0.87915	0.72783	0.2374	-0.232
Mof_N 	N 	0.2101	0.8343	0.1033	-0.178
Mof_C 	C 	0.13757	0.89288	0.34041	0.263
Mof_N 	N 	0.1441	0.9047	0.01086	-0.228
Mof_H 	H 	0.1308	0.9228	0.0272	0.15
Mof_C 	C 	0.32524	0.68779	0.0006	0.262
Mof_C 	C 	0.15614	0.8889	0.2	0.175
Mof_N 	N 	0.1631	0.8876	0.08968	-0.173
Mof_C 	C 	0.3055	0.71525	0.0367	0.022
Mof_C 	C 	0.06562	0.95761	0.87081	0.288
Mof_C 	C 	0.10828	0.9294	0.94141	-0.097
Mof_H 	H 	0.091	0.9423	0.9639	0.093
Mof_C 	C 	0.30604	0.737	0.1756	0.249
Mof_O 	O 	0.83071	0.69768	0.19666	-0.227
Mof_C 	C 	0.1264	0.9138	0.182	-0.146
Mof_H 	H 	0.1238	0.9182	0.1477	0.117
Mof_N 	N 	0.1916	0.853	0.02002	-0.171
Mof_C 	C 	0.07036	0.8304	0.4441	0.26
Mof_C 	C 	0.09975	0.93283	0.2159	0.027
Mof_C 	C 	0.29756	0.74006	0.1212	0.022
Mof_C 	C 	0.1405	0.9066	0.95891	0.108
Mof_C 	C 	0.1039	0.92648	0.26674	-0.075
Mof_H 	H 	0.086	0.9387	0.289	0.102
Mof_C 	C 	0.10136	0.93326	0.88854	-0.018
Mof_C 	C 	0.1662	0.8863	0.9254	0.017
Mof_C 	C 	0.8654	0.6961	0.217	0.264
Mof_C 	C 	0.13509	0.90156	0.28467	0.034
Mof_C 	C 	0.15933	0.89046	0.87351	-0.056
Mof_C 	C 	0.2792	0.745	0.02	-0.144
Mof_H 	H 	0.2734	0.7468	0.986	0.108
Mof_C 	C 	0.1856	0.863	0.1166	0.211
Mof_C 	C 	0.3149	0.71249	0.0863	-0.07
Mof_H 	H 	0.3327	0.6925	0.0974	0.096
Mof_C 	C 	0.16083	0.88314	0.2511	-0.15
Mof_H 	H 	0.1816	0.8666	0.2628	0.111
Mof_C 	C 	0.1663	0.8776	0.0401	0.209
Mof_C 	C 	0.2698	0.769	0.10436	-0.142
Mof_H 	H 	0.257	0.7861	0.1272	0.114
Mof_C 	C 	0.2612	0.7725	0.0533	0.175
Mof_C 	C 	0.89	0.6581	0.2178	-0.002
Mof_C 	C 	0.0321	0.8063	0.4463	0.033
Mof_C 	C 	0.0011	0.8183	0.4791	-0.086
Mof_H 	H 	0.004	0.8415	0.4984	0.105
Mof_O 	O 	0.2794	0.67357	0.265	-0.229
Mof_O 	O 	0.25121	0.72485	0.3059	-0.241
Mof_C 	C 	0.2116	0.8295	0.0534	0.211
Mof_N 	N 	0.2359	0.8011	0.03215	-0.248
Mof_H 	H 	0.2355	0.8008	0.9999	0.156
Mof_C 	C 	0.12652	0.91471	0.85655	-0.015
Mof_H 	H 	0.1224	0.9178	0.8223	0.079
Mof_O 	O 	0.9323	0.8444	0.5307	-0.226
Mof_N 	N 	0.97994	0.7188	0.385	-0.249
Mof_H 	H 	0.9548	0.7118	0.3842	0.154
Mof_N 	N 	0.10654	0.6843	0.3289	-0.246
Mof_H 	H 	0.1142	0.7022	0.3503	0.152
Mof_N 	N 	0.9931	0.6267	0.2561	-0.235
Mof_H 	H 	0.0096	0.6099	0.2423	0.146
Mof_C 	C 	0.9601	0.763	0.4517	-0.153
Mof_H 	H 	0.9355	0.7492	0.4533	0.106
Mof_C 	C 	0.9534	0.6254	0.2391	0.159
Mof_C 	C 	0.0652	0.6777	0.3258	0.208
Mof_N 	N 	0.04412	0.7017	0.3586	-0.175
Mof_C 	C 	0.005	0.6983	0.3542	0.21
Mof_C 	C 	0.9294	0.6596	0.2404	-0.124
Mof_H 	H 	0.9385	0.6832	0.2558	0.109
Mof_C 	C 	0.02629	0.7731	0.4172	-0.145
Mof_H 	H 	0.0472	0.7652	0.396	0.115
Mof_C 	C 	0.9897	0.7497	0.4174	0.18
Mof_N 	N 	0.98548	0.6714	0.323	-0.169
Mof_C 	C 	0.1335	0.6337	0.2708	-0.181
Mof_H 	H 	0.1085	0.6208	0.2673	0.126
Mof_C 	C 	0.2093	0.6705	0.28	0.04
Mof_N 	N 	0.0504	0.6519	0.2938	-0.176
Mof_C 	C 	0.1758	0.6842	0.3075	-0.158
Mof_H 	H 	0.1786	0.7057	0.3297	0.111
Mof_C 	C 	0.25005	0.6917	0.2863	0.265
Mof_C 	C 	0.204	0.6375	0.2508	-0.098
Mof_H 	H 	0.2264	0.6263	0.2347	0.103
Mof_C 	C 	0.8766	0.6229	0.197	-0.028
Mof_H 	H 	0.851	0.6222	0.1823	0.078
Mof_C 	C 	0.1377	0.6653	0.3012	0.192
Mof_C 	C 	0.966	0.7954	0.4827	0.048
Mof_C 	C 	0.8996	0.5887	0.1972	-0.042
Mof_O 	O 	0.8509	0.5472	0.1616	-0.302
Mof_C 	C 	0.8849	0.5492	0.1768	0.383
Mof_O 	O 	0.9039	0.5201	0.1748	-0.304
Mof_O 	O 	0.1268	0.5662	0.2042	-0.242
Mof_C 	C 	0.9395	0.5895	0.2186	-0.112
Mof_H 	H 	0.9557	0.5663	0.2187	0.093
Mof_O 	O 	0.1902	0.5743	0.179	-0.248
Mof_C 	C 	0.0096	0.6519	0.293	0.202
Mof_C 	C 	0.167	0.6202	0.2443	0.053
Mof_C 	C 	0.1606	0.5856	0.205	0.24
Mof_O 	O 	0.9096	0.7789	0.5358	-0.202
Mof_C 	C 	0.9332	0.8069	0.5193	0.242
Mof_Cd	Cd	0.84911	0.48006	0.14687	0.427
Mof_Cd	Cd	0.23286	0.82037	0.77706	0.52
Mof_Cd	Cd	0.85814	0.12942	0.43724	0.522
Mof_O 	O 	0.82035	0.12775	0.7919	-0.223
Mof_O 	O 	0.95824	0.02584	0.22709	-0.218
Mof_O 	O 	0.67762	0.30578	0.95459	-0.227
Mof_O 	O 	0.83309	0.12873	0.35502	-0.231
Mof_O 	O 	0.93907	0.03825	0.82501	-0.238
Mof_O 	O 	0.93874	0.03781	0.15005	-0.239
Mof_O 	O 	0.95709	0.02605	0.90196	-0.239
Mof_O 	O 	0.78846	0.1566	0.85362	-0.242
Mof_O 	O 	0.8881	0.09256	0.36893	-0.229
Mof_O 	O 	0.71012	0.23878	0.20591	-0.237
Mof_O 	O 	0.66701	0.289	0.18943	-0.209
Mof_O 	O 	0.65307	0.34116	0.01653	-0.234
Mof_O 	O 	0.92713	0.13629	0.4656	-0.224
Mof_O 	O 	0.90061	0.18392	0.41827	-0.24
Mof_C 	C 	0.93433	0.04226	0.19558	0.264
Mof_C 	C 	0.81499	0.13172	0.8382	0.293
Mof_N 	N 	0.81667	0.1343	0.16968	-0.237
Mof_H 	H 	0.7992	0.1486	0.1858	0.152
Mof_O 	O 	0.12085	0.27217	0.2374	-0.233
Mof_N 	N 	0.7899	0.1657	0.1033	-0.178
Mof_C 	C 	0.86243	0.10712	0.34041	0.263
Mof_N 	N 	0.8559	0.0953	0.01086	-0.228
Mof_H 	H 	0.8692	0.0772	0.0272	0.15
Mof_C 	C 	0.67476	0.31221	0.0006	0.262
Mof_C 	C 	0.84386	0.1111	0.2	0.175
Mof_N 	N 	0.8369	0.1124	0.08968	-0.173
Mof_C 	C 	0.6945	0.28475	0.0367	0.022
Mof_C 	C 	0.93438	0.04239	0.87081	0.288
Mof_C 	C 	0.89172	0.0706	0.94141	-0.097
Mof_H 	H 	0.909	0.0577	0.9639	0.093
Mof_C 	C 	0.69396	0.263	0.1756	0.25
Mof_O 	O 	0.16929	0.30232	0.19666	-0.227
Mof_C 	C 	0.8736	0.0862	0.182	-0.146
Mof_H 	H 	0.8762	0.0818	0.1477	0.117
Mof_N 	N 	0.8084	0.147	0.02002	-0.171
Mof_C 	C 	0.92964	0.1696	0.4441	0.265
Mof_C 	C 	0.90025	0.06717	0.2159	0.026
Mof_C 	C 	0.70244	0.25994	0.1212	0.022
Mof_C 	C 	0.8595	0.0934	0.95891	0.108
Mof_C 	C 	0.8961	0.07352	0.26674	-0.075
Mof_H 	H 	0.914	0.0613	0.289	0.102
Mof_C 	C 	0.89864	0.06674	0.88854	-0.019
Mof_C 	C 	0.8338	0.1137	0.9254	0.017
Mof_C 	C 	0.1346	0.3039	0.217	0.264
Mof_C 	C 	0.86491	0.09844	0.28467	0.033
Mof_C 	C 	0.84067	0.10954	0.87351	-0.056
Mof_C 	C 	0.7208	0.255	0.02	-0.144
Mof_H 	H 	0.7266	0.2532	0.986	0.108
Mof_C 	C 	0.8144	0.137	0.1166	0.211
Mof_C 	C 	0.6851	0.28751	0.0863	-0.07
Mof_H 	H 	0.6673	0.3075	0.0974	0.096
Mof_C 	C 	0.83917	0.11686	0.2511	-0.15
Mof_H 	H 	0.8184	0.1334	0.2628	0.111
Mof_C 	C 	0.8337	0.1224	0.0401	0.209
Mof_C 	C 	0.7302	0.231	0.10436	-0.142
Mof_H 	H 	0.743	0.2139	0.1272	0.114
Mof_C 	C 	0.7388	0.2275	0.0533	0.175
Mof_C 	C 	0.11	0.3419	0.2178	-0.002
Mof_C 	C 	0.9679	0.1937	0.4463	0.021
Mof_C 	C 	0.9989	0.1817	0.4791	-0.065
Mof_H 	H 	0.996	0.1585	0.4984	0.1
Mof_O 	O 	0.7206	0.32643	0.265	-0.229
Mof_O 	O 	0.74879	0.27515	0.3059	-0.241
Mof_C 	C 	0.7884	0.1705	0.0534	0.211
Mof_N 	N 	0.7641	0.1989	0.03215	-0.248
Mof_H 	H 	0.7645	0.1992	0.9999	0.156
Mof_C 	C 	0.87348	0.08529	0.85655	-0.015
Mof_H 	H 	0.8776	0.0822	0.8223	0.079
Mof_O 	O 	0.0677	0.1556	0.5307	-0.23
Mof_N 	N 	0.02006	0.2812	0.385	-0.251
Mof_H 	H 	0.0452	0.2882	0.3842	0.153
Mof_N 	N 	0.89346	0.3157	0.3289	-0.247
Mof_H 	H 	0.8858	0.2978	0.3503	0.153
Mof_N 	N 	0.0069	0.3733	0.2561	-0.246
Mof_H 	H 	0.9904	0.3901	0.2423	0.154
Mof_C 	C 	0.0399	0.237	0.4517	-0.141
Mof_H 	H 	0.0645	0.2508	0.4533	0.102
Mof_C 	C 	0.0466	0.3746	0.2391	0.159
Mof_C 	C 	0.9348	0.3223	0.3258	0.209
Mof_N 	N 	0.95588	0.2983	0.3586	-0.176
Mof_C 	C 	0.995	0.3017	0.3542	0.221
Mof_C 	C 	0.0706	0.3404	0.2404	-0.126
Mof_H 	H 	0.0615	0.3168	0.2558	0.109
Mof_C 	C 	0.97371	0.2269	0.4172	-0.126
Mof_H 	H 	0.9528	0.2348	0.396	0.109
Mof_C 	C 	0.0103	0.2503	0.4174	0.164
Mof_N 	N 	0.01452	0.3286	0.323	-0.178
Mof_C 	C 	0.8665	0.3663	0.2708	-0.181
Mof_H 	H 	0.8915	0.3792	0.2673	0.126
Mof_C 	C 	0.7907	0.3295	0.28	0.041
Mof_N 	N 	0.9496	0.3481	0.2938	-0.178
Mof_C 	C 	0.8242	0.3158	0.3075	-0.158
Mof_H 	H 	0.8214	0.2943	0.3297	0.111
Mof_C 	C 	0.74995	0.3083	0.2863	0.265
Mof_C 	C 	0.796	0.3625	0.2508	-0.098
Mof_H 	H 	0.7736	0.3737	0.2347	0.103
Mof_C 	C 	0.1234	0.3771	0.197	-0.028
Mof_H 	H 	0.149	0.3778	0.1823	0.078
Mof_C 	C 	0.8623	0.3347	0.3012	0.193
Mof_C 	C 	0.034	0.2046	0.4827	0.03
Mof_C 	C 	0.1004	0.4113	0.1972	-0.042
Mof_O 	O 	0.1491	0.4528	0.1616	-0.302
Mof_C 	C 	0.1151	0.4508	0.1768	0.383
Mof_O 	O 	0.0961	0.4799	0.1748	-0.305
Mof_O 	O 	0.8732	0.4338	0.2042	-0.241
Mof_C 	C 	0.0605	0.4105	0.2186	-0.113
Mof_H 	H 	0.0443	0.4337	0.2187	0.092
Mof_O 	O 	0.8098	0.4257	0.179	-0.247
Mof_C 	C 	0.9904	0.3481	0.293	0.215
Mof_C 	C 	0.833	0.3798	0.2443	0.053
Mof_C 	C 	0.8394	0.4144	0.205	0.24
Mof_O 	O 	0.0904	0.2211	0.5358	-0.204
Mof_C 	C 	0.0668	0.1931	0.5193	0.247
Mof_Cd	Cd	0.15089	0.51994	0.14687	0.426
Mof_Cd	Cd	0.76714	0.17963	0.77706	0.52
Mof_Cd	Cd	0.12942	0.14186	0.56276	0.522
Mof_O 	O 	0.12775	0.17965	0.2081	-0.224
Mof_O 	O 	0.02584	0.04176	0.77291	-0.22
Mof_O 	O 	0.30578	0.32238	0.04541	-0.227
Mof_O 	O 	0.12873	0.16691	0.64498	-0.231
Mof_O 	O 	0.03825	0.06093	0.17499	-0.24
Mof_O 	O 	0.03781	0.06126	0.84995	-0.241
Mof_O 	O 	0.02605	0.04291	0.09804	-0.242
Mof_O 	O 	0.1566	0.21154	0.14638	-0.243
Mof_O 	O 	0.09256	0.1119	0.63107	-0.23
Mof_O 	O 	0.23878	0.28988	0.79409	-0.237
Mof_O 	O 	0.289	0.33299	0.81057	-0.209
Mof_O 	O 	0.34116	0.34693	0.98347	-0.234
Mof_O 	O 	0.13629	0.07287	0.5344	-0.224
Mof_O 	O 	0.18392	0.09939	0.58173	-0.239
Mof_C 	C 	0.04226	0.06567	0.80442	0.265
Mof_C 	C 	0.13172	0.18501	0.1618	0.293
Mof_N 	N 	0.1343	0.18333	0.83032	-0.237
Mof_H 	H 	0.1486	0.2008	0.8142	0.152
Mof_O 	O 	0.27217	0.87915	0.7626	-0.232
Mof_N 	N 	0.1657	0.2101	0.8967	-0.178
Mof_C 	C 	0.10712	0.13757	0.65959	0.263
Mof_N 	N 	0.0953	0.1441	0.98914	-0.228
Mof_H 	H 	0.0772	0.1308	0.9728	0.149
Mof_C 	C 	0.31221	0.32524	0.9994	0.262
Mof_C 	C 	0.1111	0.15614	0.8	0.174
Mof_N 	N 	0.1124	0.1631	0.91032	-0.173
Mof_C 	C 	0.28475	0.3055	0.9633	0.022
Mof_C 	C 	0.04239	0.06562	0.12919	0.289
Mof_C 	C 	0.0706	0.10828	0.05859	-0.097
Mof_H 	H 	0.0577	0.091	0.0361	0.092
Mof_C 	C 	0.263	0.30604	0.8244	0.25
Mof_O 	O 	0.30232	0.83071	0.80334	-0.227
Mof_C 	C 	0.0862	0.1264	0.818	-0.146
Mof_H 	H 	0.0818	0.1238	0.8523	0.116
Mof_N 	N 	0.147	0.1916	0.97998	-0.171
Mof_C 	C 	0.1696	0.07036	0.5559	0.26
Mof_C 	C 	0.06717	0.09975	0.7841	0.025
Mof_C 	C 	0.25994	0.29756	0.8788	0.022
Mof_C 	C 	0.0934	0.1405	0.04109	0.107
Mof_C 	C 	0.07352	0.1039	0.73326	-0.074
Mof_H 	H 	0.0613	0.086	0.711	0.101
Mof_C 	C 	0.06674	0.10136	0.11146	-0.02
Mof_C 	C 	0.1137	0.1662	0.0746	0.017
Mof_C 	C 	0.3039	0.8654	0.783	0.264
Mof_C 	C 	0.09844	0.13509	0.71533	0.032
Mof_C 	C 	0.10954	0.15933	0.12649	-0.057
Mof_C 	C 	0.255	0.2792	0.98	-0.144
Mof_H 	H 	0.2532	0.2734	0.014	0.108
Mof_C 	C 	0.137	0.1856	0.8834	0.211
Mof_C 	C 	0.28751	0.3149	0.9137	-0.07
Mof_H 	H 	0.3075	0.3327	0.9026	0.096
Mof_C 	C 	0.11686	0.16083	0.7489	-0.149
Mof_H 	H 	0.1334	0.1816	0.7372	0.111
Mof_C 	C 	0.1224	0.1663	0.9599	0.209
Mof_C 	C 	0.231	0.2698	0.89564	-0.142
Mof_H 	H 	0.2139	0.257	0.8728	0.114
Mof_C 	C 	0.2275	0.2612	0.9467	0.175
Mof_C 	C 	0.3419	0.89	0.7822	-0.002
Mof_C 	C 	0.1937	0.0321	0.5537	0.033
Mof_C 	C 	0.1817	0.0011	0.5209	-0.086
Mof_H 	H 	0.1585	0.004	0.5016	0.104
Mof_O 	O 	0.32643	0.2794	0.735	-0.229
Mof_O 	O 	0.27515	0.25121	0.6941	-0.241
Mof_C 	C 	0.1705	0.2116	0.9466	0.211
Mof_N 	N 	0.1989	0.2359	0.96785	-0.248
Mof_H 	H 	0.1992	0.2355	0.0001	0.156
Mof_C 	C 	0.08529	0.12652	0.14345	-0.015
Mof_H 	H 	0.0822	0.1224	0.1777	0.078
Mof_O 	O 	0.1556	0.9323	0.4693	-0.227
Mof_N 	N 	0.2812	0.97994	0.615	-0.249
Mof_H 	H 	0.2882	0.9548	0.6158	0.154
Mof_N 	N 	0.3157	0.10654	0.6711	-0.246
Mof_H 	H 	0.2978	0.1142	0.6497	0.152
Mof_N 	N 	0.3733	0.9931	0.7439	-0.235
Mof_H 	H 	0.3901	0.0096	0.7577	0.146
Mof_C 	C 	0.237	0.9601	0.5483	-0.153
Mof_H 	H 	0.2508	0.9355	0.5467	0.106
Mof_C 	C 	0.3746	0.9534	0.7609	0.159
Mof_C 	C 	0.3223	0.0652	0.6742	0.208
Mof_N 	N 	0.2983	0.04412	0.6414	-0.175
Mof_C 	C 	0.3017	0.005	0.6458	0.21
Mof_C 	C 	0.3404	0.9294	0.7596	-0.124
Mof_H 	H 	0.3168	0.9385	0.7442	0.109
Mof_C 	C 	0.2269	0.02629	0.5828	-0.145
Mof_H 	H 	0.2348	0.0472	0.604	0.115
Mof_C 	C 	0.2503	0.9897	0.5826	0.18
Mof_N 	N 	0.3286	0.98548	0.677	-0.169
Mof_C 	C 	0.3663	0.1335	0.7292	-0.181
Mof_H 	H 	0.3792	0.1085	0.7327	0.126
Mof_C 	C 	0.3295	0.2093	0.72	0.04
Mof_N 	N 	0.3481	0.0504	0.7062	-0.176
Mof_C 	C 	0.3158	0.1758	0.6925	-0.158
Mof_H 	H 	0.2943	0.1786	0.6703	0.111
Mof_C 	C 	0.3083	0.25005	0.7137	0.265
Mof_C 	C 	0.3625	0.204	0.7492	-0.098
Mof_H 	H 	0.3737	0.2264	0.7653	0.103
Mof_C 	C 	0.3771	0.8766	0.803	-0.028
Mof_H 	H 	0.3778	0.851	0.8177	0.078
Mof_C 	C 	0.3347	0.1377	0.6988	0.192
Mof_C 	C 	0.2046	0.966	0.5173	0.048
Mof_C 	C 	0.4113	0.8996	0.8028	-0.042
Mof_O 	O 	0.4528	0.8509	0.8384	-0.302
Mof_C 	C 	0.4508	0.8849	0.8232	0.383
Mof_O 	O 	0.4799	0.9039	0.8252	-0.304
Mof_O 	O 	0.4338	0.1268	0.7958	-0.242
Mof_C 	C 	0.4105	0.9395	0.7814	-0.112
Mof_H 	H 	0.4337	0.9557	0.7813	0.093
Mof_O 	O 	0.4257	0.1902	0.821	-0.248
Mof_C 	C 	0.3481	0.0096	0.707	0.202
Mof_C 	C 	0.3798	0.167	0.7557	0.053
Mof_C 	C 	0.4144	0.1606	0.795	0.24
Mof_O 	O 	0.2211	0.9096	0.4642	-0.202
Mof_C 	C 	0.1931	0.9332	0.4807	0.242
Mof_Cd	Cd	0.51994	0.84911	0.85313	0.427
Mof_Cd	Cd	0.17963	0.23286	0.22294	0.52
Mof_Cd	Cd	0.87058	0.85814	0.56276	0.522
Mof_O 	O 	0.87225	0.82035	0.2081	-0.223
Mof_O 	O 	0.97416	0.95824	0.77291	-0.215
Mof_O 	O 	0.69422	0.67762	0.04541	-0.227
Mof_O 	O 	0.87127	0.83309	0.64498	-0.231
Mof_O 	O 	0.96175	0.93907	0.17499	-0.235
Mof_O 	O 	0.96219	0.93874	0.84995	-0.237
Mof_O 	O 	0.97395	0.95709	0.09804	-0.237
Mof_O 	O 	0.8434	0.78846	0.14638	-0.242
Mof_O 	O 	0.90744	0.8881	0.63107	-0.228
Mof_O 	O 	0.76122	0.71012	0.79409	-0.237
Mof_O 	O 	0.711	0.66701	0.81057	-0.209
Mof_O 	O 	0.65884	0.65307	0.98347	-0.234
Mof_O 	O 	0.86371	0.92713	0.5344	-0.224
Mof_O 	O 	0.81608	0.90061	0.58173	-0.24
Mof_C 	C 	0.95774	0.93433	0.80442	0.264
Mof_C 	C 	0.86828	0.81499	0.1618	0.293
Mof_N 	N 	0.8657	0.81667	0.83032	-0.237
Mof_H 	H 	0.8514	0.7992	0.8142	0.152
Mof_O 	O 	0.72783	0.12085	0.7626	-0.233
Mof_N 	N 	0.8343	0.7899	0.8967	-0.178
Mof_C 	C 	0.89288	0.86243	0.65959	0.262
Mof_N 	N 	0.9047	0.8559	0.98914	-0.228
Mof_H 	H 	0.9228	0.8692	0.9728	0.151
Mof_C 	C 	0.68779	0.67476	0.9994	0.262
Mof_C 	C 	0.8889	0.84386	0.8	0.176
Mof_N 	N 	0.8876	0.8369	0.91032	-0.173
Mof_C 	C 	0.71525	0.6945	0.9633	0.022
Mof_C 	C 	0.95761	0.93438	0.12919	0.288
Mof_C 	C 	0.9294	0.89172	0.05859	-0.097
Mof_H 	H 	0.9423	0.909	0.0361	0.094
Mof_C 	C 	0.737	0.69396	0.8244	0.249
Mof_O 	O 	0.69768	0.16929	0.80334	-0.227
Mof_C 	C 	0.9138	0.8736	0.818	-0.147
Mof_H 	H 	0.9182	0.8762	0.8523	0.117
Mof_N 	N 	0.853	0.8084	0.97998	-0.171
Mof_C 	C 	0.8304	0.92964	0.5559	0.265
Mof_C 	C 	0.93283	0.90025	0.7841	0.028
Mof_C 	C 	0.74006	0.70244	0.8788	0.022
Mof_C 	C 	0.9066	0.8595	0.04109	0.109
Mof_C 	C 	0.92648	0.8961	0.73326	-0.075
Mof_H 	H 	0.9387	0.914	0.711	0.103
Mof_C 	C 	0.93326	0.89864	0.11146	-0.017
Mof_C 	C 	0.8863	0.8338	0.0746	0.017
Mof_C 	C 	0.6961	0.1346	0.783	0.264
Mof_C 	C 	0.90156	0.86491	0.71533	0.034
Mof_C 	C 	0.89046	0.84067	0.12649	-0.056
Mof_C 	C 	0.745	0.7208	0.98	-0.144
Mof_H 	H 	0.7468	0.7266	0.014	0.108
Mof_C 	C 	0.863	0.8144	0.8834	0.211
Mof_C 	C 	0.71249	0.6851	0.9137	-0.07
Mof_H 	H 	0.6925	0.6673	0.9026	0.096
Mof_C 	C 	0.88314	0.83917	0.7489	-0.15
Mof_H 	H 	0.8666	0.8184	0.7372	0.111
Mof_C 	C 	0.8776	0.8337	0.9599	0.209
Mof_C 	C 	0.769	0.7302	0.89564	-0.142
Mof_H 	H 	0.7861	0.743	0.8728	0.115
Mof_C 	C 	0.7725	0.7388	0.9467	0.175
Mof_C 	C 	0.6581	0.11	0.7822	-0.002
Mof_C 	C 	0.8063	0.9679	0.5537	0.021
Mof_C 	C 	0.8183	0.9989	0.5209	-0.066
Mof_H 	H 	0.8415	0.996	0.5016	0.1
Mof_O 	O 	0.67357	0.7206	0.735	-0.229
Mof_O 	O 	0.72485	0.74879	0.6941	-0.241
Mof_C 	C 	0.8295	0.7884	0.9466	0.211
Mof_N 	N 	0.8011	0.7641	0.96785	-0.248
Mof_H 	H 	0.8008	0.7645	0.0001	0.156
Mof_C 	C 	0.91471	0.87348	0.14345	-0.015
Mof_H 	H 	0.9178	0.8776	0.1777	0.08
Mof_O 	O 	0.8444	0.0677	0.4693	-0.229
Mof_N 	N 	0.7188	0.02006	0.615	-0.251
Mof_H 	H 	0.7118	0.0452	0.6158	0.153
Mof_N 	N 	0.6843	0.89346	0.6711	-0.247
Mof_H 	H 	0.7022	0.8858	0.6497	0.153
Mof_N 	N 	0.6267	0.0069	0.7439	-0.246
Mof_H 	H 	0.6099	0.9904	0.7577	0.154
Mof_C 	C 	0.763	0.0399	0.5483	-0.141
Mof_H 	H 	0.7492	0.0645	0.5467	0.102
Mof_C 	C 	0.6254	0.0466	0.7609	0.159
Mof_C 	C 	0.6777	0.9348	0.6742	0.209
Mof_N 	N 	0.7017	0.95588	0.6414	-0.176
Mof_C 	C 	0.6983	0.995	0.6458	0.221
Mof_C 	C 	0.6596	0.0706	0.7596	-0.126
Mof_H 	H 	0.6832	0.0615	0.7442	0.109
Mof_C 	C 	0.7731	0.97371	0.5828	-0.127
Mof_H 	H 	0.7652	0.9528	0.604	0.109
Mof_C 	C 	0.7497	0.0103	0.5826	0.165
Mof_N 	N 	0.6714	0.01452	0.677	-0.178
Mof_C 	C 	0.6337	0.8665	0.7292	-0.181
Mof_H 	H 	0.6208	0.8915	0.7327	0.126
Mof_C 	C 	0.6705	0.7907	0.72	0.041
Mof_N 	N 	0.6519	0.9496	0.7062	-0.178
Mof_C 	C 	0.6842	0.8242	0.6925	-0.158
Mof_H 	H 	0.7057	0.8214	0.6703	0.111
Mof_C 	C 	0.6917	0.74995	0.7137	0.265
Mof_C 	C 	0.6375	0.796	0.7492	-0.098
Mof_H 	H 	0.6263	0.7736	0.7653	0.103
Mof_C 	C 	0.6229	0.1234	0.803	-0.028
Mof_H 	H 	0.6222	0.149	0.8177	0.078
Mof_C 	C 	0.6653	0.8623	0.6988	0.193
Mof_C 	C 	0.7954	0.034	0.5173	0.03
Mof_C 	C 	0.5887	0.1004	0.8028	-0.042
Mof_O 	O 	0.5472	0.1491	0.8384	-0.302
Mof_C 	C 	0.5492	0.1151	0.8232	0.383
Mof_O 	O 	0.5201	0.0961	0.8252	-0.305
Mof_O 	O 	0.5662	0.8732	0.7958	-0.241
Mof_C 	C 	0.5895	0.0605	0.7814	-0.113
Mof_H 	H 	0.5663	0.0443	0.7813	0.092
Mof_O 	O 	0.5743	0.8098	0.821	-0.247
Mof_C 	C 	0.6519	0.9904	0.707	0.214
Mof_C 	C 	0.6202	0.833	0.7557	0.053
Mof_C 	C 	0.5856	0.8394	0.795	0.24
Mof_O 	O 	0.7789	0.0904	0.4642	-0.204
Mof_C 	C 	0.8069	0.0668	0.4807	0.247
Mof_Cd	Cd	0.48006	0.15089	0.85313	0.426
Mof_Cd	Cd	0.82037	0.76714	0.22294	0.52
Mof_Cd	Cd	0.5	0.5	0.66127	0.525
Mof_Cd	Cd	0.5	0.5	0.33873	0.525
Mof_Cd	Cd	9.50673e-33	0	0.83873	0.518
Mof_Cd	Cd	2.2297e-33	1.74007e-33	0.16127	0.518
_end
