data_functionalizedCrystal
_audit_creation_method	'EQeq! by Chris Wilmer'
_symmetry_space_group_name_H-M	'P1'
_symmetry_Int_Tables_number	1
_symmetry_cell_setting	triclinic
loop_
_symmetry_equiv_pos_as_xyz
  x,y,z
_cell_length_a	13.2012
_cell_length_b	16.764
_cell_length_c	23.0355
_cell_angle_alpha	105.558
_cell_angle_beta	90
_cell_angle_gamma	90
loop_
_atom_site_label
_atom_site_type_symbol
_atom_site_fract_x
_atom_site_fract_y
_atom_site_fract_z
_atom_site_charge
Mof_Cu	Cu	0.28924	0.16159	0.75156	0.848
Mof_Cu	Cu	0.78924	0.33841	0.74844	0.85
Mof_Cu	Cu	0.71076	0.83841	0.24844	0.851
Mof_Cu	Cu	0.21076	0.66159	0.25156	0.848
Mof_Cu	Cu	-0	0	-0	0.829
Mof_Cu	Cu	0.5	0.5	0.5	0.848
Mof_H 	H 	0.347	0.969	0.6901	-0.021
Mof_H 	H 	0.0874	0.0743	0.7023	-0.008
Mof_H 	H 	0.9758	0.9401	0.6646	0.127
Mof_H 	H 	0.0341	0.8562	0.6544	0.107
Mof_H 	H 	0.2369	0.7798	0.3832	-0.012
Mof_H 	H 	0.0859	0.8282	0.2518	-0.022
Mof_H 	H 	0.135	0.9849	0.4428	0.115
Mof_H 	H 	0.2148	0.926	0.4601	0.099
Mof_H 	H 	0.7142	0.8729	0.3905	-0.011
Mof_H 	H 	0.8442	0.6877	0.2786	-0.014
Mof_H 	H 	0.8003	0.7485	0.48	0.109
Mof_H 	H 	0.7547	0.8369	0.4871	0.097
Mof_H 	H 	0.8806	0.8396	0.5769	0.132
Mof_H 	H 	0.1483	0.9407	0.5573	0.146
Mof_H 	H 	0.9699	0.8543	0.4156	0.151
Mof_H 	H 	0.2215	0.0387	0.8286	-0.019
Mof_H 	H 	0.4783	0.1555	0.8378	-0.003
Mof_H 	H 	0.5237	0.0051	0.916	0.116
Mof_H 	H 	0.5765	0.0833	0.905	0.114
Mof_H 	H 	0.358	0.1338	0.9889	0.169
Mof_H 	H 	0.4925	0.2094	0.1508	0.135
Mof_H 	H 	0.6553	0.1003	0.0048	0.146
Mof_H 	H 	0.2829	0.2472	0.089	0.104
Mof_H 	H 	0.3169	0.2244	0.1479	0.106
Mof_H 	H 	0.1327	0.1618	0.0376	-0.026
Mof_H 	H 	0.1634	0.969	0.0947	0.004
Mof_H 	H 	0.6795	0.1329	0.1497	0.103
Mof_H 	H 	0.6822	0.2256	0.1479	0.101
Mof_H 	H 	0.9428	0.199	0.016	-0.014
Mof_H 	H 	0.81	0.0354	0.0835	-0.011
Mof_H 	H 	0.847	0.531	0.8099	-0.017
Mof_H 	H 	0.5874	0.4257	0.7977	-0.01
Mof_H 	H 	0.4758	0.5599	0.8354	0.102
Mof_H 	H 	0.5341	0.6438	0.8456	0.101
Mof_H 	H 	0.7369	0.7202	0.1168	-0.011
Mof_H 	H 	0.5859	0.6718	0.2482	-0.02
Mof_H 	H 	0.635	0.5151	0.0572	0.106
Mof_H 	H 	0.7148	0.574	0.0399	0.092
Mof_H 	H 	0.2142	0.6271	0.1095	-0.018
Mof_H 	H 	0.3442	0.8123	0.2214	-0.015
Mof_H 	H 	0.3003	0.7515	0.02	0.102
Mof_H 	H 	0.2547	0.6631	0.0129	0.086
Mof_H 	H 	0.3806	0.6604	0.9231	0.128
Mof_H 	H 	0.6483	0.5593	0.9427	0.139
Mof_H 	H 	0.4699	0.6457	0.0844	0.149
Mof_H 	H 	0.7215	0.4613	0.6714	-0.013
Mof_H 	H 	0.9783	0.3445	0.6622	0.002
Mof_H 	H 	0.0237	0.4949	0.584	0.109
Mof_H 	H 	0.0765	0.4167	0.595	0.105
Mof_H 	H 	0.858	0.3662	0.5111	0.13
Mof_H 	H 	0.9925	0.2906	0.3492	0.115
Mof_H 	H 	0.1553	0.3997	0.4952	0.128
Mof_H 	H 	0.7829	0.2528	0.411	0.095
Mof_H 	H 	0.8169	0.2756	0.3521	0.098
Mof_H 	H 	0.6327	0.3382	0.4624	-0.022
Mof_H 	H 	0.6634	0.531	0.4053	-0.019
Mof_H 	H 	0.1795	0.3671	0.3503	0.094
Mof_H 	H 	0.1822	0.2744	0.3521	0.087
Mof_H 	H 	0.4428	0.301	0.484	-0.017
Mof_H 	H 	0.31	0.4646	0.4165	-0.007
Mof_H 	H 	0.653	0.031	0.3099	-0.018
Mof_H 	H 	0.9126	0.9257	0.2977	-0.01
Mof_H 	H 	0.0242	0.0599	0.3354	0.084
Mof_H 	H 	0.9659	0.1438	0.3456	0.103
Mof_H 	H 	0.7631	0.2202	0.6168	-0.012
Mof_H 	H 	0.9141	0.1718	0.7482	-0.018
Mof_H 	H 	0.865	0.0151	0.5572	0.113
Mof_H 	H 	0.7852	0.074	0.5399	0.1
Mof_H 	H 	0.2858	0.1271	0.6095	-0.018
Mof_H 	H 	0.1558	0.3123	0.7214	-0.019
Mof_H 	H 	0.1997	0.2515	0.52	0.116
Mof_H 	H 	0.2453	0.1631	0.5129	0.099
Mof_H 	H 	0.1194	0.1604	0.4231	0.149
Mof_H 	H 	0.8517	0.0593	0.4427	0.153
Mof_H 	H 	0.0301	0.1457	0.5844	0.168
Mof_H 	H 	0.7785	0.9613	0.1714	-0.007
Mof_H 	H 	0.5217	0.8445	0.1622	-0.004
Mof_H 	H 	0.4763	0.9949	0.084	0.114
Mof_H 	H 	0.4235	0.9167	0.095	0.103
Mof_H 	H 	0.642	0.8662	0.0111	0.117
Mof_H 	H 	0.5075	0.7906	0.8492	0.12
Mof_H 	H 	0.3447	0.8997	0.9952	0.132
Mof_H 	H 	0.7171	0.7528	0.911	0.098
Mof_H 	H 	0.6831	0.7756	0.8521	0.1
Mof_H 	H 	0.8673	0.8382	0.9624	-0.015
Mof_H 	H 	0.8366	0.031	0.9053	-0.042
Mof_H 	H 	0.3205	0.8671	0.8503	0.103
Mof_H 	H 	0.3178	0.7744	0.8521	0.095
Mof_H 	H 	0.0572	0.801	0.984	-0.015
Mof_H 	H 	0.19	0.9646	0.9165	0.002
Mof_H 	H 	0.153	0.469	0.1901	-0.023
Mof_H 	H 	0.4126	0.5743	0.2023	-0.008
Mof_H 	H 	0.5242	0.4401	0.1646	0.112
Mof_H 	H 	0.4659	0.3562	0.1544	0.109
Mof_H 	H 	0.2631	0.2798	0.8832	-0.012
Mof_H 	H 	0.4141	0.3282	0.7518	-0.021
Mof_H 	H 	0.365	0.4849	0.9428	0.121
Mof_H 	H 	0.2852	0.426	0.9601	0.106
Mof_H 	H 	0.7858	0.3729	0.8905	-0.011
Mof_H 	H 	0.6558	0.1877	0.7786	-0.018
Mof_H 	H 	0.6997	0.2485	0.98	0.122
Mof_H 	H 	0.7453	0.3369	0.9871	0.108
Mof_H 	H 	0.6194	0.3396	0.0769	0.151
Mof_H 	H 	0.3517	0.4407	0.0573	0.159
Mof_H 	H 	0.5301	0.3543	0.9156	0.169
Mof_H 	H 	0.2785	0.5387	0.3286	-0.013
Mof_H 	H 	0.0217	0.6555	0.3378	-0.009
Mof_H 	H 	0.9763	0.5051	0.416	0.122
Mof_H 	H 	0.9235	0.5833	0.405	0.113
Mof_H 	H 	0.142	0.6338	0.4889	0.159
Mof_H 	H 	0.0075	0.7094	0.6508	0.141
Mof_H 	H 	0.8447	0.6003	0.5048	0.151
Mof_H 	H 	0.2171	0.7472	0.589	0.107
Mof_H 	H 	0.1831	0.7244	0.6479	0.108
Mof_H 	H 	0.3673	0.6618	0.5376	-0.02
Mof_H 	H 	0.3366	0.469	0.5947	-0.019
Mof_H 	H 	0.8205	0.6329	0.6497	0.112
Mof_H 	H 	0.8178	0.7256	0.6479	0.108
Mof_H 	H 	0.5572	0.699	0.516	-0.015
Mof_H 	H 	0.69	0.5354	0.5835	-0.005
Mof_C 	C 	0.2776	0.9764	0.6866	0.131
Mof_C 	C 	0.1389	0.0351	0.6945	0.051
Mof_C 	C 	0.0334	0.9088	0.6443	-0.26
Mof_C 	C 	0.1964	0.8055	0.3605	0.074
Mof_C 	C 	0.1131	0.8332	0.2898	0.09
Mof_C 	C 	0.1484	0.9279	0.4425	-0.232
Mof_C 	C 	0.7517	0.8253	0.3737	0.075
Mof_C 	C 	0.8227	0.7251	0.3141	0.093
Mof_C 	C 	0.8088	0.7996	0.4684	-0.22
Mof_C 	C 	0.9093	0.8381	0.4923	0.232
Mof_C 	C 	0.9288	0.8544	0.5523	-0.289
Mof_C 	C 	0.0185	0.8924	0.5787	0.236
Mof_C 	C 	0.0884	0.9152	0.541	-0.299
Mof_C 	C 	0.0716	0.901	0.4802	0.231
Mof_C 	C 	0.9822	0.8633	0.4566	-0.269
Mof_C 	C 	0.2865	0.0576	0.8406	0.075
Mof_C 	C 	0.4265	0.1215	0.8447	0.078
Mof_C 	C 	0.5154	0.0639	0.9201	-0.251
Mof_C 	C 	0.5052	0.1076	0.9858	0.279
Mof_C 	C 	0.416	0.1373	0.0124	-0.341
Mof_C 	C 	0.4103	0.1735	0.0758	0.256
Mof_C 	C 	0.496	0.1834	0.1098	-0.328
Mof_C 	C 	0.5889	0.1547	0.0836	0.25
Mof_C 	C 	0.5931	0.1183	0.0225	-0.326
Mof_C 	C 	0.3085	0.2029	0.1047	-0.233
Mof_C 	C 	0.1568	0.1242	0.0576	0.09
Mof_C 	C 	0.1752	0.0208	0.0885	0.061
Mof_C 	C 	0.6827	0.1688	0.123	-0.23
Mof_C 	C 	0.8976	0.1742	0.0368	0.089
Mof_C 	C 	0.8268	0.0842	0.0738	0.068
Mof_C 	C 	0.7776	0.5236	0.8134	0.107
Mof_C 	C 	0.6389	0.4649	0.8055	0.079
Mof_C 	C 	0.5334	0.5912	0.8557	-0.228
Mof_C 	C 	0.6964	0.6945	0.1395	0.075
Mof_C 	C 	0.6131	0.6668	0.2102	0.091
Mof_C 	C 	0.6484	0.5721	0.0575	-0.223
Mof_C 	C 	0.2517	0.6747	0.1263	0.075
Mof_C 	C 	0.3227	0.7749	0.1859	0.091
Mof_C 	C 	0.3088	0.7004	0.0316	-0.21
Mof_C 	C 	0.4093	0.6619	0.0077	0.215
Mof_C 	C 	0.4288	0.6456	0.9477	-0.283
Mof_C 	C 	0.5185	0.6076	0.9213	0.23
Mof_C 	C 	0.5884	0.5848	0.959	-0.281
Mof_C 	C 	0.5716	0.599	0.0198	0.225
Mof_C 	C 	0.4822	0.6367	0.0434	-0.279
Mof_C 	C 	0.7865	0.4424	0.6594	0.079
Mof_C 	C 	0.9265	0.3785	0.6553	0.082
Mof_C 	C 	0.0154	0.4361	0.5799	-0.222
Mof_C 	C 	0.0052	0.3924	0.5142	0.192
Mof_C 	C 	0.916	0.3627	0.4876	-0.235
Mof_C 	C 	0.9103	0.3265	0.4242	0.198
Mof_C 	C 	0.996	0.3166	0.3902	-0.25
Mof_C 	C 	0.0889	0.3453	0.4164	0.185
Mof_C 	C 	0.0931	0.3817	0.4775	-0.254
Mof_C 	C 	0.8085	0.2971	0.3953	-0.197
Mof_C 	C 	0.6568	0.3758	0.4424	0.096
Mof_C 	C 	0.6752	0.4792	0.4115	0.102
Mof_C 	C 	0.1827	0.3312	0.377	-0.194
Mof_C 	C 	0.3976	0.3258	0.4632	0.089
Mof_C 	C 	0.3268	0.4158	0.4262	0.071
Mof_C 	C 	0.7224	0.0236	0.3134	0.084
Mof_C 	C 	0.8611	0.9649	0.3055	0.1
Mof_C 	C 	0.9666	0.0912	0.3557	-0.225
Mof_C 	C 	0.8036	0.1945	0.6395	0.073
Mof_C 	C 	0.8869	0.1668	0.7102	0.091
Mof_C 	C 	0.8516	0.0721	0.5575	-0.259
Mof_C 	C 	0.2483	0.1747	0.6263	0.072
Mof_C 	C 	0.1773	0.2749	0.6859	0.09
Mof_C 	C 	0.1912	0.2004	0.5316	-0.248
Mof_C 	C 	0.0907	0.1619	0.5077	0.276
Mof_C 	C 	0.0712	0.1456	0.4477	-0.364
Mof_C 	C 	0.9815	0.1076	0.4213	0.283
Mof_C 	C 	0.9116	0.0848	0.459	-0.344
Mof_C 	C 	0.9284	0.099	0.5198	0.295
Mof_C 	C 	0.0178	0.1367	0.5434	-0.353
Mof_C 	C 	0.7135	0.9424	0.1594	0.081
Mof_C 	C 	0.5735	0.8785	0.1553	0.084
Mof_C 	C 	0.4846	0.9361	0.0799	-0.204
Mof_C 	C 	0.4948	0.8924	0.0142	0.184
Mof_C 	C 	0.584	0.8627	0.9876	-0.217
Mof_C 	C 	0.5897	0.8265	0.9242	0.201
Mof_C 	C 	0.504	0.8166	0.8902	-0.274
Mof_C 	C 	0.4111	0.8453	0.9164	0.209
Mof_C 	C 	0.4069	0.8817	0.9775	-0.244
Mof_C 	C 	0.6915	0.7971	0.8953	-0.198
Mof_C 	C 	0.8432	0.8758	0.9424	0.099
Mof_C 	C 	0.8248	0.9792	0.9115	0.143
Mof_C 	C 	0.3173	0.8312	0.877	-0.206
Mof_C 	C 	0.1024	0.8258	0.9632	0.09
Mof_C 	C 	0.1732	0.9158	0.9262	0.073
Mof_C 	C 	0.2224	0.4764	0.1866	0.105
Mof_C 	C 	0.3611	0.5351	0.1945	0.076
Mof_C 	C 	0.4666	0.4088	0.1443	-0.26
Mof_C 	C 	0.3036	0.3055	0.8605	0.072
Mof_C 	C 	0.3869	0.3332	0.7898	0.09
Mof_C 	C 	0.3516	0.4279	0.9425	-0.264
Mof_C 	C 	0.7483	0.3253	0.8737	0.073
Mof_C 	C 	0.6773	0.2251	0.8141	0.091
Mof_C 	C 	0.6912	0.2996	0.9684	-0.253
Mof_C 	C 	0.5907	0.3381	0.9923	0.287
Mof_C 	C 	0.5712	0.3544	0.0523	-0.36
Mof_C 	C 	0.4815	0.3924	0.0787	0.283
Mof_C 	C 	0.4116	0.4152	0.041	-0.357
Mof_C 	C 	0.4284	0.401	0.9802	0.295
Mof_C 	C 	0.5178	0.3633	0.9566	-0.335
Mof_C 	C 	0.2135	0.5576	0.3406	0.077
Mof_C 	C 	0.0735	0.6215	0.3447	0.079
Mof_C 	C 	0.9846	0.5639	0.4201	-0.236
Mof_C 	C 	0.9948	0.6076	0.4858	0.277
Mof_C 	C 	0.084	0.6373	0.5124	-0.331
Mof_C 	C 	0.0897	0.6735	0.5758	0.262
Mof_C 	C 	0.004	0.6834	0.6098	-0.352
Mof_C 	C 	0.9111	0.6547	0.5836	0.274
Mof_C 	C 	0.9069	0.6183	0.5225	-0.32
Mof_C 	C 	0.1915	0.7029	0.6047	-0.235
Mof_C 	C 	0.3432	0.6242	0.5576	0.093
Mof_C 	C 	0.3248	0.5208	0.5885	0.102
Mof_C 	C 	0.8173	0.6688	0.623	-0.243
Mof_C 	C 	0.6024	0.6742	0.5368	0.089
Mof_C 	C 	0.6732	0.5842	0.5738	0.068
Mof_N 	N 	0.2339	0.05	0.7078	-0.257
Mof_N 	N 	0.219	0.9163	0.6611	-0.114
Mof_N 	N 	0.1269	0.9544	0.6678	-0.055
Mof_N 	N 	0.1756	0.7758	0.3023	-0.244
Mof_N 	N 	0.15	0.8779	0.3812	-0.068
Mof_N 	N 	0.0945	0.8964	0.336	-0.106
Mof_N 	N 	0.7638	0.7921	0.3148	-0.243
Mof_N 	N 	0.7994	0.7823	0.4046	-0.07
Mof_N 	N 	0.8459	0.7179	0.3668	-0.104
Mof_N 	N 	0.3381	0.1127	0.818	-0.241
Mof_N 	N 	0.3406	0.0336	0.8821	-0.108
Mof_N 	N 	0.4315	0.0748	0.8829	-0.066
Mof_N 	N 	0.9062	0.0946	0.0404	-0.237
Mof_N 	N 	0.8182	0.2119	0.066	-0.107
Mof_N 	N 	0.7766	0.1539	0.0903	-0.067
Mof_N 	N 	0.1158	0.0539	0.0548	-0.248
Mof_N 	N 	0.2511	0.0672	0.112	-0.103
Mof_N 	N 	0.2373	0.1358	0.0922	-0.072
Mof_N 	N 	0.7339	0.45	0.7922	-0.248
Mof_N 	N 	0.719	0.5837	0.8389	-0.11
Mof_N 	N 	0.6269	0.5456	0.8322	-0.071
Mof_N 	N 	0.6756	0.7242	0.1977	-0.243
Mof_N 	N 	0.65	0.6221	0.1188	-0.069
Mof_N 	N 	0.5945	0.6036	0.164	-0.107
Mof_N 	N 	0.2638	0.7079	0.1852	-0.244
Mof_N 	N 	0.2994	0.7177	0.0954	-0.072
Mof_N 	N 	0.3459	0.7821	0.1332	-0.105
Mof_N 	N 	0.8381	0.3873	0.682	-0.239
Mof_N 	N 	0.8406	0.4664	0.6179	-0.101
Mof_N 	N 	0.9315	0.4252	0.6171	-0.063
Mof_N 	N 	0.4062	0.4054	0.4596	-0.238
Mof_N 	N 	0.3182	0.2881	0.434	-0.107
Mof_N 	N 	0.2766	0.3461	0.4097	-0.072
Mof_N 	N 	0.6158	0.4461	0.4452	-0.249
Mof_N 	N 	0.7511	0.4328	0.388	-0.103
Mof_N 	N 	0.7373	0.3642	0.4078	-0.076
Mof_N 	N 	0.7661	0.95	0.2922	-0.241
Mof_N 	N 	0.781	0.0837	0.3389	-0.109
Mof_N 	N 	0.8731	0.0456	0.3322	-0.081
Mof_N 	N 	0.8244	0.2242	0.6977	-0.243
Mof_N 	N 	0.85	0.1221	0.6188	-0.064
Mof_N 	N 	0.9055	0.1036	0.664	-0.107
Mof_N 	N 	0.2362	0.2079	0.6852	-0.244
Mof_N 	N 	0.2006	0.2177	0.5954	-0.067
Mof_N 	N 	0.1541	0.2821	0.6332	-0.108
Mof_N 	N 	0.6619	0.8873	0.182	-0.239
Mof_N 	N 	0.6594	0.9664	0.1179	-0.098
Mof_N 	N 	0.5685	0.9252	0.1171	-0.07
Mof_N 	N 	0.0938	0.9054	0.9596	-0.232
Mof_N 	N 	0.1818	0.7881	0.934	-0.105
Mof_N 	N 	0.2234	0.8461	0.9097	-0.069
Mof_N 	N 	0.8842	0.9461	0.9452	-0.244
Mof_N 	N 	0.7489	0.9328	0.888	-0.106
Mof_N 	N 	0.7627	0.8642	0.9078	-0.074
Mof_N 	N 	0.2661	0.55	0.2078	-0.249
Mof_N 	N 	0.281	0.4163	0.1611	-0.113
Mof_N 	N 	0.3731	0.4544	0.1678	-0.067
Mof_N 	N 	0.3244	0.2758	0.8023	-0.244
Mof_N 	N 	0.35	0.3779	0.8812	-0.064
Mof_N 	N 	0.4055	0.3964	0.836	-0.107
Mof_N 	N 	0.7362	0.2921	0.8148	-0.243
Mof_N 	N 	0.7006	0.2823	0.9046	-0.065
Mof_N 	N 	0.6541	0.2179	0.8668	-0.107
Mof_N 	N 	0.1619	0.6127	0.318	-0.241
Mof_N 	N 	0.1594	0.5336	0.3821	-0.104
Mof_N 	N 	0.0685	0.5748	0.3829	-0.073
Mof_N 	N 	0.5938	0.5946	0.5404	-0.237
Mof_N 	N 	0.6818	0.7119	0.566	-0.105
Mof_N 	N 	0.7234	0.6539	0.5903	-0.064
Mof_N 	N 	0.3842	0.5539	0.5548	-0.248
Mof_N 	N 	0.2489	0.5672	0.612	-0.105
Mof_N 	N 	0.2627	0.6358	0.5922	-0.07
_end
