data_functionalizedCrystal
_audit_creation_method	'EQeq! by Chris Wilmer'
_symmetry_space_group_name_H-M	'P1'
_symmetry_Int_Tables_number	1
_symmetry_cell_setting	triclinic
loop_
_symmetry_equiv_pos_as_xyz
  x,y,z
_cell_length_a	16.9025
_cell_length_b	18.7929
_cell_length_c	18.7929
_cell_angle_alpha	68.5815
_cell_angle_beta	72.5542
_cell_angle_gamma	107.446
loop_
_atom_site_label
_atom_site_type_symbol
_atom_site_fract_x
_atom_site_fract_y
_atom_site_fract_z
_atom_site_charge
Mof_Ni	Ni	0.86893	0.61893	0.76214	1.117
Mof_Ni	Ni	0.63107	0.76214	0.61893	1.117
Mof_Ni	Ni	0.25	0.61893	0.61893	1.116
Mof_Ni	Ni	0.13107	0.38107	0.23786	1.116
Mof_Ni	Ni	0.36893	0.23786	0.38107	1.116
Mof_Ni	Ni	0.75	0.38107	0.38107	1.116
Mof_H 	H 	0.9655	0.0889	0.8507	0.067
Mof_H 	H 	0.7721	0.8275	0.9544	0.066
Mof_H 	H 	0.0687	0.937	0.7324	0.028
Mof_H 	H 	0.0428	0.0086	0.8076	0.072
Mof_H 	H 	0.7973	0.7578	0.876	0.034
Mof_H 	H 	0.911	0.7277	0.5339	0.044
Mof_H 	H 	0.9205	0.6409	0.5686	0.034
Mof_H 	H 	0.8997	0.5516	0.0361	0.086
Mof_H 	H 	0.8511	0.6063	0.9354	-0.003
Mof_H 	H 	0.9972	0.5474	0.7847	0.015
Mof_H 	H 	0.0541	0.4969	0.8788	0.081
Mof_H 	H 	0.8016	0.5931	0.6678	0.184
Mof_H 	H 	0.8162	0.8507	0.0604	0.067
Mof_H 	H 	0.7265	0.9544	0.2181	0.065
Mof_H 	H 	0.8011	0.7324	0.3306	0.031
Mof_H 	H 	0.8504	0.8076	0.1838	0.068
Mof_H 	H 	0.6733	0.876	0.3662	0.036
Mof_H 	H 	0.4449	0.5339	0.7384	0.044
Mof_H 	H 	0.4891	0.5686	0.7905	0.034
Mof_H 	H 	0.9358	0.0361	0.4123	0.086
Mof_H 	H 	0.7865	0.9354	0.4583	-0.003
Mof_H 	H 	0.7819	0.7847	0.6679	0.015
Mof_H 	H 	0.9329	0.8788	0.6243	0.082
Mof_H 	H 	0.4694	0.6678	0.7391	0.184
Mof_H 	H 	0.8766	0.0604	0.0889	0.067
Mof_H 	H 	0.9446	0.2181	0.8275	0.065
Mof_H 	H 	0.1317	0.3306	0.937	0.033
Mof_H 	H 	0.0342	0.1838	0.0086	0.065
Mof_H 	H 	0.0395	0.3662	0.7578	0.036
Mof_H 	H 	0.1833	0.7384	0.7277	0.044
Mof_H 	H 	0.2796	0.7905	0.6409	0.034
Mof_H 	H 	0.3481	0.4123	0.5516	0.084
Mof_H 	H 	0.2448	0.4583	0.6063	-0.002
Mof_H 	H 	0.4498	0.6679	0.5474	0.015
Mof_H 	H 	0.5572	0.6243	0.4969	0.082
Mof_H 	H 	0.2085	0.7391	0.5931	0.184
Mof_H 	H 	0.6838	0.0604	0.8507	0.068
Mof_H 	H 	0.7735	0.2181	0.9544	0.064
Mof_H 	H 	0.6989	0.3306	0.7324	0.031
Mof_H 	H 	0.6496	0.1838	0.8076	0.068
Mof_H 	H 	0.8267	0.3662	0.876	0.036
Mof_H 	H 	0.0551	0.7384	0.5339	0.044
Mof_H 	H 	0.0109	0.7905	0.5686	0.034
Mof_H 	H 	0.5642	0.4123	0.0361	0.085
Mof_H 	H 	0.7135	0.4583	0.9354	-0.003
Mof_H 	H 	0.7181	0.6679	0.7847	0.015
Mof_H 	H 	0.5671	0.6243	0.8788	0.083
Mof_H 	H 	0.0306	0.7391	0.6678	0.184
Mof_H 	H 	0.6234	0.0889	0.0604	0.068
Mof_H 	H 	0.5554	0.8275	0.2181	0.064
Mof_H 	H 	0.3683	0.937	0.3306	0.031
Mof_H 	H 	0.4658	0.0086	0.1838	0.068
Mof_H 	H 	0.4605	0.7578	0.3662	0.036
Mof_H 	H 	0.3167	0.7277	0.7384	0.044
Mof_H 	H 	0.2204	0.6409	0.7905	0.034
Mof_H 	H 	0.1519	0.5516	0.4123	0.084
Mof_H 	H 	0.2552	0.6063	0.4583	-0.002
Mof_H 	H 	0.0502	0.5474	0.6679	0.015
Mof_H 	H 	0.9428	0.4969	0.6243	0.082
Mof_H 	H 	0.2915	0.5931	0.7391	0.184
Mof_H 	H 	0.5345	0.8507	0.0889	0.068
Mof_H 	H 	0.7279	0.9544	0.8275	0.064
Mof_H 	H 	0.4313	0.7324	0.937	0.032
Mof_H 	H 	0.4572	0.8076	0.0086	0.067
Mof_H 	H 	0.7027	0.876	0.7578	0.036
Mof_H 	H 	0.589	0.5339	0.7277	0.044
Mof_H 	H 	0.5795	0.5686	0.6409	0.034
Mof_H 	H 	0.6003	0.0361	0.5516	0.085
Mof_H 	H 	0.6489	0.9354	0.6063	-0.003
Mof_H 	H 	0.5028	0.7847	0.5474	0.015
Mof_H 	H 	0.4459	0.8788	0.4969	0.082
Mof_H 	H 	0.6984	0.6678	0.5931	0.184
Mof_H 	H 	0.0345	0.9111	0.1493	0.067
Mof_H 	H 	0.2279	0.1725	0.0456	0.066
Mof_H 	H 	0.9313	0.063	0.2676	0.028
Mof_H 	H 	0.9572	0.9914	0.1924	0.072
Mof_H 	H 	0.2027	0.2422	0.124	0.034
Mof_H 	H 	0.089	0.2723	0.4661	0.044
Mof_H 	H 	0.0795	0.3591	0.4314	0.034
Mof_H 	H 	0.1003	0.4484	0.9639	0.086
Mof_H 	H 	0.1489	0.3937	0.0646	-0.003
Mof_H 	H 	0.0028	0.4526	0.2153	0.015
Mof_H 	H 	0.9459	0.5031	0.1212	0.081
Mof_H 	H 	0.1984	0.4069	0.3322	0.184
Mof_H 	H 	0.1838	0.1493	0.9396	0.067
Mof_H 	H 	0.2735	0.0456	0.7819	0.065
Mof_H 	H 	0.1989	0.2676	0.6694	0.031
Mof_H 	H 	0.1496	0.1924	0.8162	0.068
Mof_H 	H 	0.3267	0.124	0.6338	0.036
Mof_H 	H 	0.5551	0.4661	0.2616	0.044
Mof_H 	H 	0.5109	0.4314	0.2095	0.034
Mof_H 	H 	0.0642	0.9639	0.5877	0.086
Mof_H 	H 	0.2135	0.0646	0.5417	-0.003
Mof_H 	H 	0.2181	0.2153	0.3321	0.015
Mof_H 	H 	0.0671	0.1212	0.3757	0.082
Mof_H 	H 	0.5306	0.3322	0.2609	0.184
Mof_H 	H 	0.1234	0.9396	0.9111	0.067
Mof_H 	H 	0.0554	0.7819	0.1725	0.065
Mof_H 	H 	0.8683	0.6694	0.063	0.033
Mof_H 	H 	0.9658	0.8162	0.9914	0.065
Mof_H 	H 	0.9605	0.6338	0.2422	0.036
Mof_H 	H 	0.8167	0.2616	0.2723	0.044
Mof_H 	H 	0.7204	0.2095	0.3591	0.034
Mof_H 	H 	0.6519	0.5877	0.4484	0.084
Mof_H 	H 	0.7552	0.5417	0.3937	-0.002
Mof_H 	H 	0.5502	0.3321	0.4526	0.015
Mof_H 	H 	0.4428	0.3757	0.5031	0.082
Mof_H 	H 	0.7915	0.2609	0.4069	0.184
Mof_H 	H 	0.3162	0.9396	0.1493	0.068
Mof_H 	H 	0.2265	0.7819	0.0456	0.064
Mof_H 	H 	0.3011	0.6694	0.2676	0.031
Mof_H 	H 	0.3504	0.8162	0.1924	0.068
Mof_H 	H 	0.1733	0.6338	0.124	0.036
Mof_H 	H 	0.9449	0.2616	0.4661	0.044
Mof_H 	H 	0.9891	0.2095	0.4314	0.034
Mof_H 	H 	0.4358	0.5877	0.9639	0.085
Mof_H 	H 	0.2865	0.5417	0.0646	-0.003
Mof_H 	H 	0.2819	0.3321	0.2153	0.015
Mof_H 	H 	0.4329	0.3757	0.1212	0.083
Mof_H 	H 	0.9694	0.2609	0.3322	0.184
Mof_H 	H 	0.3766	0.9111	0.9396	0.068
Mof_H 	H 	0.4446	0.1725	0.7819	0.064
Mof_H 	H 	0.6317	0.063	0.6694	0.031
Mof_H 	H 	0.5342	0.9914	0.8162	0.068
Mof_H 	H 	0.5395	0.2422	0.6338	0.036
Mof_H 	H 	0.6833	0.2723	0.2616	0.044
Mof_H 	H 	0.7796	0.3591	0.2095	0.034
Mof_H 	H 	0.8481	0.4484	0.5877	0.084
Mof_H 	H 	0.7448	0.3937	0.5417	-0.002
Mof_H 	H 	0.9498	0.4526	0.3321	0.015
Mof_H 	H 	0.0572	0.5031	0.3757	0.082
Mof_H 	H 	0.7085	0.4069	0.2609	0.184
Mof_H 	H 	0.4655	0.1493	0.9111	0.068
Mof_H 	H 	0.2721	0.0456	0.1725	0.064
Mof_H 	H 	0.5687	0.2676	0.063	0.032
Mof_H 	H 	0.5428	0.1924	0.9914	0.067
Mof_H 	H 	0.2973	0.124	0.2422	0.036
Mof_H 	H 	0.411	0.4661	0.2723	0.044
Mof_H 	H 	0.4205	0.4314	0.3591	0.034
Mof_H 	H 	0.3997	0.9639	0.4484	0.085
Mof_H 	H 	0.3511	0.0646	0.3937	-0.003
Mof_H 	H 	0.4972	0.2153	0.4526	0.015
Mof_H 	H 	0.5541	0.1212	0.5031	0.082
Mof_H 	H 	0.3016	0.3322	0.4069	0.184
Mof_C 	C 	0.95382	0.78878	0.75332	0.335
Mof_C 	C 	0.93723	0.83893	0.79804	-0.11
Mof_C 	C 	0.93363	0.05285	0.91146	-0.104
Mof_C 	C 	0.83276	0.84965	0.90977	-0.101
Mof_C 	C 	0.00835	0.91399	0.77794	0.039
Mof_C 	C 	0.89211	0.96332	0.94709	0.04
Mof_C 	C 	0.98383	0.51797	0.96848	0.059
Mof_C 	C 	0.90587	0.92409	0.89148	0.037
Mof_C 	C 	0.99294	0.95635	0.82333	-0.11
Mof_C 	C 	0.84789	0.80783	0.86336	0.03
Mof_C 	C 	0.91713	0.68713	0.58084	0.014
Mof_C 	C 	0.92238	0.55098	0.98364	-0.137
Mof_C 	C 	0.89298	0.58323	0.92319	0.091
Mof_C 	C 	0.97771	0.54989	0.83636	0.083
Mof_C 	C 	0.01111	0.51848	0.89315	-0.126
Mof_C 	C 	0.70714	0.75332	0.4579	0.335
Mof_C 	C 	0.73527	0.79804	0.36303	-0.104
Mof_C 	C 	0.84509	0.91146	0.03569	-0.103
Mof_C 	C 	0.74253	0.90977	0.24058	-0.097
Mof_C 	C 	0.78629	0.77794	0.30807	0.028
Mof_C 	C 	0.8392	0.94709	0.08959	0.042
Mof_C 	C 	0.95231	0.96848	0.51355	0.062
Mof_C 	C 	0.79735	0.89148	0.18443	0.033
Mof_C 	C 	0.81627	0.82333	0.22032	-0.1
Mof_C 	C 	0.71125	0.86336	0.32881	0.025
Mof_C 	C 	0.49797	0.58084	0.73203	0.015
Mof_C 	C 	0.90602	0.98364	0.46538	-0.137
Mof_C 	C 	0.81617	0.92319	0.49358	0.091
Mof_C 	C 	0.81407	0.83636	0.61375	0.087
Mof_C 	C 	0.90426	0.89315	0.58837	-0.131
Mof_C 	C 	0.16504	0.4579	0.78878	0.335
Mof_C 	C 	0.0983	0.36303	0.83893	-0.103
Mof_C 	C 	0.88078	0.03569	0.05285	-0.102
Mof_C 	C 	0.98311	0.24058	0.84965	-0.096
Mof_C 	C 	0.09436	0.30807	0.91399	0.025
Mof_C 	C 	0.92879	0.08959	0.96332	0.042
Mof_C 	C 	0.46586	0.51355	0.51797	0.061
Mof_C 	C 	0.98178	0.18443	0.92409	0.03
Mof_C 	C 	0.03659	0.22032	0.95635	-0.094
Mof_C 	C 	0.04006	0.32881	0.80783	0.025
Mof_C 	C 	0.23	0.73203	0.68713	0.015
Mof_C 	C 	0.3714	0.46538	0.55098	-0.135
Mof_C 	C 	0.30975	0.49358	0.58323	0.09
Mof_C 	C 	0.42782	0.61375	0.54989	0.087
Mof_C 	C 	0.49263	0.58837	0.51848	-0.131
Mof_C 	C 	0.79286	0.4579	0.75332	0.335
Mof_C 	C 	0.76473	0.36303	0.79804	-0.104
Mof_C 	C 	0.65491	0.03569	0.91146	-0.108
Mof_C 	C 	0.75747	0.24058	0.90977	-0.096
Mof_C 	C 	0.71371	0.30807	0.77794	0.028
Mof_C 	C 	0.6608	0.08959	0.94709	0.045
Mof_C 	C 	0.54769	0.51355	0.96848	0.062
Mof_C 	C 	0.70265	0.18443	0.89148	0.031
Mof_C 	C 	0.68373	0.22032	0.82333	-0.099
Mof_C 	C 	0.78875	0.32881	0.86336	0.025
Mof_C 	C 	0.00203	0.73203	0.58084	0.016
Mof_C 	C 	0.59398	0.46538	0.98364	-0.135
Mof_C 	C 	0.68383	0.49358	0.92319	0.091
Mof_C 	C 	0.68593	0.61375	0.83636	0.087
Mof_C 	C 	0.59574	0.58837	0.89315	-0.131
Mof_C 	C 	0.33496	0.78878	0.4579	0.335
Mof_C 	C 	0.4017	0.83893	0.36303	-0.104
Mof_C 	C 	0.61922	0.05285	0.03569	-0.107
Mof_C 	C 	0.51689	0.84965	0.24058	-0.096
Mof_C 	C 	0.40564	0.91399	0.30807	0.028
Mof_C 	C 	0.57121	0.96332	0.08959	0.045
Mof_C 	C 	0.03414	0.51797	0.51355	0.061
Mof_C 	C 	0.51822	0.92409	0.18443	0.031
Mof_C 	C 	0.46341	0.95635	0.22032	-0.099
Mof_C 	C 	0.45994	0.80783	0.32881	0.025
Mof_C 	C 	0.27	0.68713	0.73203	0.015
Mof_C 	C 	0.1286	0.55098	0.46538	-0.135
Mof_C 	C 	0.19025	0.58323	0.49358	0.09
Mof_C 	C 	0.07218	0.54989	0.61375	0.086
Mof_C 	C 	0.00737	0.51848	0.58837	-0.13
Mof_C 	C 	0.54618	0.75332	0.78878	0.335
Mof_C 	C 	0.56277	0.79804	0.83893	-0.104
Mof_C 	C 	0.56637	0.91146	0.05285	-0.108
Mof_C 	C 	0.66724	0.90977	0.84965	-0.096
Mof_C 	C 	0.49165	0.77794	0.91399	0.027
Mof_C 	C 	0.60789	0.94709	0.96332	0.046
Mof_C 	C 	0.51617	0.96848	0.51797	0.061
Mof_C 	C 	0.59413	0.89148	0.92409	0.03
Mof_C 	C 	0.50706	0.82333	0.95635	-0.098
Mof_C 	C 	0.65211	0.86336	0.80783	0.024
Mof_C 	C 	0.58287	0.58084	0.68713	0.015
Mof_C 	C 	0.57762	0.98364	0.55098	-0.135
Mof_C 	C 	0.60702	0.92319	0.58323	0.091
Mof_C 	C 	0.52229	0.83636	0.54989	0.087
Mof_C 	C 	0.48889	0.89315	0.51848	-0.131
Mof_C 	C 	0.04618	0.21122	0.24668	0.335
Mof_C 	C 	0.06277	0.16107	0.20196	-0.11
Mof_C 	C 	0.06637	0.94715	0.08854	-0.104
Mof_C 	C 	0.16724	0.15035	0.09023	-0.101
Mof_C 	C 	0.99165	0.08601	0.22206	0.039
Mof_C 	C 	0.10789	0.03668	0.05291	0.04
Mof_C 	C 	0.01617	0.48203	0.03152	0.059
Mof_C 	C 	0.09413	0.07591	0.10852	0.037
Mof_C 	C 	0.00706	0.04365	0.17667	-0.11
Mof_C 	C 	0.15211	0.19217	0.13664	0.03
Mof_C 	C 	0.08287	0.31287	0.41916	0.014
Mof_C 	C 	0.07762	0.44902	0.01636	-0.137
Mof_C 	C 	0.10702	0.41677	0.07681	0.091
Mof_C 	C 	0.02229	0.45011	0.16364	0.083
Mof_C 	C 	0.98889	0.48152	0.10685	-0.126
Mof_C 	C 	0.29286	0.24668	0.5421	0.335
Mof_C 	C 	0.26473	0.20196	0.63697	-0.104
Mof_C 	C 	0.15491	0.08854	0.96431	-0.103
Mof_C 	C 	0.25747	0.09023	0.75942	-0.097
Mof_C 	C 	0.21371	0.22206	0.69193	0.028
Mof_C 	C 	0.1608	0.05291	0.91041	0.042
Mof_C 	C 	0.04769	0.03152	0.48645	0.062
Mof_C 	C 	0.20265	0.10852	0.81557	0.033
Mof_C 	C 	0.18373	0.17667	0.77968	-0.1
Mof_C 	C 	0.28875	0.13664	0.67119	0.025
Mof_C 	C 	0.50203	0.41916	0.26797	0.015
Mof_C 	C 	0.09398	0.01636	0.53462	-0.137
Mof_C 	C 	0.18383	0.07681	0.50642	0.091
Mof_C 	C 	0.18593	0.16364	0.38625	0.087
Mof_C 	C 	0.09574	0.10685	0.41163	-0.131
Mof_C 	C 	0.83496	0.5421	0.21122	0.335
Mof_C 	C 	0.9017	0.63697	0.16107	-0.103
Mof_C 	C 	0.11922	0.96431	0.94715	-0.102
Mof_C 	C 	0.01689	0.75942	0.15035	-0.096
Mof_C 	C 	0.90564	0.69193	0.08601	0.025
Mof_C 	C 	0.07121	0.91041	0.03668	0.042
Mof_C 	C 	0.53414	0.48645	0.48203	0.061
Mof_C 	C 	0.01822	0.81557	0.07591	0.03
Mof_C 	C 	0.96341	0.77968	0.04365	-0.094
Mof_C 	C 	0.95994	0.67119	0.19217	0.025
Mof_C 	C 	0.77	0.26797	0.31287	0.015
Mof_C 	C 	0.6286	0.53462	0.44902	-0.135
Mof_C 	C 	0.69025	0.50642	0.41677	0.09
Mof_C 	C 	0.57218	0.38625	0.45011	0.087
Mof_C 	C 	0.50737	0.41163	0.48152	-0.131
Mof_C 	C 	0.20714	0.5421	0.24668	0.335
Mof_C 	C 	0.23527	0.63697	0.20196	-0.104
Mof_C 	C 	0.34509	0.96431	0.08854	-0.108
Mof_C 	C 	0.24253	0.75942	0.09023	-0.096
Mof_C 	C 	0.28629	0.69193	0.22206	0.028
Mof_C 	C 	0.3392	0.91041	0.05291	0.045
Mof_C 	C 	0.45231	0.48645	0.03152	0.062
Mof_C 	C 	0.29735	0.81557	0.10852	0.031
Mof_C 	C 	0.31627	0.77968	0.17667	-0.099
Mof_C 	C 	0.21125	0.67119	0.13664	0.025
Mof_C 	C 	0.99797	0.26797	0.41916	0.016
Mof_C 	C 	0.40602	0.53462	0.01636	-0.135
Mof_C 	C 	0.31617	0.50642	0.07681	0.091
Mof_C 	C 	0.31407	0.38625	0.16364	0.087
Mof_C 	C 	0.40426	0.41163	0.10685	-0.131
Mof_C 	C 	0.66504	0.21122	0.5421	0.335
Mof_C 	C 	0.5983	0.16107	0.63697	-0.104
Mof_C 	C 	0.38078	0.94715	0.96431	-0.107
Mof_C 	C 	0.48311	0.15035	0.75942	-0.096
Mof_C 	C 	0.59436	0.08601	0.69193	0.028
Mof_C 	C 	0.42879	0.03668	0.91041	0.045
Mof_C 	C 	0.96586	0.48203	0.48645	0.061
Mof_C 	C 	0.48178	0.07591	0.81557	0.031
Mof_C 	C 	0.53659	0.04365	0.77968	-0.099
Mof_C 	C 	0.54006	0.19217	0.67119	0.025
Mof_C 	C 	0.73	0.31287	0.26797	0.015
Mof_C 	C 	0.8714	0.44902	0.53462	-0.135
Mof_C 	C 	0.80975	0.41677	0.50642	0.09
Mof_C 	C 	0.92782	0.45011	0.38625	0.086
Mof_C 	C 	0.99263	0.48152	0.41163	-0.13
Mof_C 	C 	0.45382	0.24668	0.21122	0.335
Mof_C 	C 	0.43723	0.20196	0.16107	-0.104
Mof_C 	C 	0.43363	0.08854	0.94715	-0.108
Mof_C 	C 	0.33276	0.09023	0.15035	-0.096
Mof_C 	C 	0.50835	0.22206	0.08601	0.027
Mof_C 	C 	0.39211	0.05291	0.03668	0.046
Mof_C 	C 	0.48383	0.03152	0.48203	0.061
Mof_C 	C 	0.40587	0.10852	0.07591	0.03
Mof_C 	C 	0.49294	0.17667	0.04365	-0.098
Mof_C 	C 	0.34789	0.13664	0.19217	0.024
Mof_C 	C 	0.41713	0.41916	0.31287	0.015
Mof_C 	C 	0.42238	0.01636	0.44902	-0.135
Mof_C 	C 	0.39298	0.07681	0.41677	0.091
Mof_C 	C 	0.47771	0.16364	0.45011	0.087
Mof_C 	C 	0.51111	0.10685	0.48152	-0.131
Mof_N 	N 	0.9202	0.58334	0.85004	-0.23
Mof_N 	N 	0.77024	0.85004	0.56662	-0.23
Mof_N 	N 	0.33686	0.56662	0.58334	-0.23
Mof_N 	N 	0.72976	0.56662	0.85004	-0.23
Mof_N 	N 	0.16314	0.58334	0.56662	-0.23
Mof_N 	N 	0.5798	0.85004	0.58334	-0.23
Mof_N 	N 	0.0798	0.41666	0.14996	-0.23
Mof_N 	N 	0.22976	0.14996	0.43338	-0.23
Mof_N 	N 	0.66314	0.43338	0.41666	-0.23
Mof_N 	N 	0.27024	0.43338	0.14996	-0.23
Mof_N 	N 	0.83686	0.41666	0.43338	-0.23
Mof_N 	N 	0.4202	0.14996	0.41666	-0.23
Mof_O 	O 	0.88182	0.7271	0.76898	-0.404
Mof_O 	O 	0.83664	0.65053	0.65956	-0.381
Mof_O 	O 	0.0354	0.80998	0.70444	-0.297
Mof_O 	O 	0.6508	0.76898	0.50392	-0.403
Mof_O 	O 	0.4962	0.65956	0.68991	-0.381
Mof_O 	O 	0.73984	0.70444	0.48558	-0.298
Mof_O 	O 	0.15472	0.50392	0.7271	-0.403
Mof_O 	O 	0.18611	0.68991	0.65053	-0.381
Mof_O 	O 	0.22542	0.48558	0.80998	-0.297
Mof_O 	O 	0.8492	0.50392	0.76898	-0.403
Mof_O 	O 	0.0038	0.68991	0.65956	-0.38
Mof_O 	O 	0.76016	0.48558	0.70444	-0.298
Mof_O 	O 	0.34528	0.7271	0.50392	-0.403
Mof_O 	O 	0.31389	0.65053	0.68991	-0.381
Mof_O 	O 	0.27458	0.80998	0.48558	-0.298
Mof_O 	O 	0.61818	0.76898	0.7271	-0.403
Mof_O 	O 	0.66336	0.65956	0.65053	-0.381
Mof_O 	O 	0.4646	0.70444	0.80998	-0.297
Mof_O 	O 	0.11818	0.2729	0.23102	-0.404
Mof_O 	O 	0.16336	0.34947	0.34044	-0.381
Mof_O 	O 	0.9646	0.19002	0.29556	-0.297
Mof_O 	O 	0.3492	0.23102	0.49608	-0.403
Mof_O 	O 	0.5038	0.34044	0.31009	-0.381
Mof_O 	O 	0.26016	0.29556	0.51442	-0.298
Mof_O 	O 	0.84528	0.49608	0.2729	-0.403
Mof_O 	O 	0.81389	0.31009	0.34947	-0.381
Mof_O 	O 	0.77458	0.51442	0.19002	-0.297
Mof_O 	O 	0.1508	0.49608	0.23102	-0.403
Mof_O 	O 	0.9962	0.31009	0.34044	-0.38
Mof_O 	O 	0.23984	0.51442	0.29556	-0.298
Mof_O 	O 	0.65472	0.2729	0.49608	-0.403
Mof_O 	O 	0.68611	0.34947	0.31009	-0.381
Mof_O 	O 	0.72542	0.19002	0.51442	-0.298
Mof_O 	O 	0.38182	0.23102	0.2729	-0.403
Mof_O 	O 	0.33664	0.34044	0.34947	-0.381
Mof_O 	O 	0.5354	0.29556	0.19002	-0.297
_end
