# CIF file generated by openbabel 3.1.0, see https://openbabel.org
data_I
_chemical_name_common 'WEMFAX_clean'
_cell_length_a 9.659
_cell_length_b 11.718
_cell_length_c 12.281
_cell_angle_alpha 90
_cell_angle_beta 99.2
_cell_angle_gamma 90
_space_group_name_H-M_alt 'P 1'
_space_group_name_Hall 'P 1'
loop_
    _symmetry_equiv_pos_as_xyz
    x,y,z
loop_
    _atom_site_label
    _atom_site_type_symbol
    _atom_site_fract_x
    _atom_site_fract_y
    _atom_site_fract_z
    _atom_site_occupancy
    Gd1      Gd       0.78595    0.48520    0.66865    1.000
    Gd2      Gd       0.71405    0.98520    0.83135    1.000
    Gd3      Gd       0.21405    0.51480    0.33135    1.000
    Gd4      Gd       0.28595    0.01480    0.16865    1.000
    C1       C        0.80140    0.21080    0.70620    1.000
    C2       C        0.70060    0.25460    0.78320    1.000
    C3       C        0.06290    0.49950    0.54750    1.000
    C4       C        0.49470    0.43400    0.50010    1.000
    C5       C        0.69860    0.71080    0.79380    1.000
    C6       C        0.79940    0.75460    0.71680    1.000
    C7       C        0.43710    0.99950    0.95250    1.000
    C8       C        0.00530    0.93400    0.99990    1.000
    C9       C        0.19860    0.78920    0.29380    1.000
    C10      C        0.29940    0.74540    0.21680    1.000
    C11      C        0.93710    0.50050    0.45250    1.000
    C12      C        0.50530    0.56600    0.49990    1.000
    C13      C        0.30140    0.28920    0.20620    1.000
    C14      C        0.20060    0.24540    0.28320    1.000
    C15      C        0.56290    0.00050    0.04750    1.000
    C16      C        0.99470    0.06600    0.00010    1.000
    O1       O        0.86030    0.28570    0.65610    1.000
    O2       O        0.81730    0.10530    0.70100    1.000
    O3       O        0.69160    0.36050    0.79400    1.000
    O4       O        0.63450    0.18090    0.82770    1.000
    O5       O        0.03340    0.48750    0.64290    1.000
    O6       O        0.18140    0.51180    0.52250    1.000
    O7       O        0.58450    0.38200    0.56630    1.000
    O8       O        0.39800    0.39000    0.43420    1.000
    O9       O        0.63970    0.78570    0.84390    1.000
    O10      O        0.68270    0.60530    0.79900    1.000
    O11      O        0.80840    0.86050    0.70600    1.000
    O12      O        0.86550    0.68090    0.67230    1.000
    O13      O        0.46660    0.98750    0.85710    1.000
    O14      O        0.31860    0.01180    0.97750    1.000
    O15      O        0.91550    0.88200    0.93370    1.000
    O16      O        0.10200    0.89000    0.06580    1.000
    O17      O        0.13970    0.71430    0.34390    1.000
    O18      O        0.18270    0.89470    0.29900    1.000
    O19      O        0.30840    0.63950    0.20600    1.000
    O20      O        0.36550    0.81910    0.17230    1.000
    O21      O        0.96660    0.51250    0.35710    1.000
    O22      O        0.81860    0.48820    0.47750    1.000
    O23      O        0.41550    0.61800    0.43370    1.000
    O24      O        0.60200    0.61000    0.56580    1.000
    O25      O        0.36030    0.21430    0.15610    1.000
    O26      O        0.31730    0.39470    0.20100    1.000
    O27      O        0.19160    0.13950    0.29400    1.000
    O28      O        0.13450    0.31910    0.32770    1.000
    O29      O        0.53340    0.01250    0.14290    1.000
    O30      O        0.68140    0.98820    0.02250    1.000
    O31      O        0.08450    0.11800    0.06630    1.000
    O32      O        0.89800    0.11000    0.93420    1.000
