data_functionalizedCrystal
_audit_creation_method	'EQeq! by Chris Wilmer'
_symmetry_space_group_name_H-M	'P1'
_symmetry_Int_Tables_number	1
_symmetry_cell_setting	triclinic
loop_
_symmetry_equiv_pos_as_xyz
  x,y,z
_cell_length_a	28.764
_cell_length_b	28.764
_cell_length_c	12.563
_cell_angle_alpha	90
_cell_angle_beta	90
_cell_angle_gamma	120
loop_
_atom_site_label
_atom_site_type_symbol
_atom_site_fract_x
_atom_site_fract_y
_atom_site_fract_z
_atom_site_charge
Mof_C 	C 	0.4215	0.0221	0.8802	0.358
Mof_C 	C 	0.4727	0.0217	0.8658	-0.145
Mof_C 	C 	0.5183	0.06	0.9181	0.062
Mof_H 	H 	0.5174	0.0869	0.9591	0.042
Mof_C 	C 	0.5652	0.0577	0.9087	-0.107
Mof_H 	H 	0.5966	0.0842	0.9419	0.085
Mof_C 	C 	0.5668	0.0171	0.8509	0.041
Mof_C 	C 	0.5217	0.9793	0.7979	-0.1
Mof_H 	H 	0.523	0.9533	0.7549	0.072
Mof_C 	C 	0.4735	0.9805	0.8092	0.095
Mof_H 	H 	0.4418	0.9532	0.7784	-0.002
Mof_C 	C 	0.6183	0.0158	0.8406	0.029
Mof_C 	C 	0.6186	0.9683	0.8414	-0.073
Mof_H 	H 	0.5858	0.9358	0.8475	0.069
Mof_C 	C 	0.7027	0.9086	0.7699	-0.106
Mof_H 	H 	0.7277	0.9373	0.7277	0.075
Mof_C 	C 	0.7022	0.8607	0.768	0.051
Mof_H 	H 	0.7256	0.8559	0.7232	0.027
Mof_O 	O 	0.42093	0.05521	0.9463	-0.36
Mof_O 	O 	0.37871	0.98678	0.833	-0.527
Mof_O 	O 	0.683	0.75396	0.7502	-0.51
Mof_C 	C 	0.08817	0.35543	0.21353	0.368
Mof_C 	C 	0.13937	0.35503	0.19913	-0.146
Mof_C 	C 	0.18497	0.39333	0.25143	0.05
Mof_H 	H 	0.18407	0.42023	0.29243	0.02
Mof_C 	C 	0.23187	0.39103	0.24203	-0.125
Mof_H 	H 	0.26327	0.41753	0.27523	0.066
Mof_C 	C 	0.23347	0.35043	0.18423	0.047
Mof_C 	C 	0.18837	0.31263	0.13123	-0.139
Mof_H 	H 	0.18967	0.28663	0.08823	0.051
Mof_C 	C 	0.14017	0.31383	0.14253	0.054
Mof_H 	H 	0.10847	0.28653	0.11173	-0.02
Mof_C 	C 	0.28497	0.34913	0.17393	0.018
Mof_C 	C 	0.28527	0.30163	0.17473	-0.095
Mof_H 	H 	0.25247	0.26913	0.18083	0.05
Mof_C 	C 	0.36937	0.24193	0.10323	-0.136
Mof_H 	H 	0.39437	0.27063	0.06103	0.048
Mof_C 	C 	0.36887	0.19403	0.10133	0.05
Mof_H 	H 	0.39227	0.18923	0.05653	-0.007
Mof_O 	O 	0.0876	0.38854	0.27963	-0.439
Mof_O 	O 	0.04538	0.32011	0.16633	-0.567
Mof_O 	O 	0.34967	0.08729	0.08353	-0.522
Mof_C 	C 	0.75483	0.68877	0.54687	0.377
Mof_C 	C 	0.80603	0.68837	0.53247	-0.139
Mof_C 	C 	0.85163	0.72667	0.58477	0.053
Mof_H 	H 	0.85073	0.75357	0.62577	0.029
Mof_C 	C 	0.89853	0.72437	0.57537	-0.116
Mof_H 	H 	0.92993	0.75087	0.60857	0.074
Mof_C 	C 	0.90013	0.68377	0.51757	0.05
Mof_C 	C 	0.85503	0.64597	0.46457	-0.127
Mof_H 	H 	0.85633	0.61997	0.42157	0.071
Mof_C 	C 	0.80683	0.64717	0.47587	0.065
Mof_H 	H 	0.77513	0.61987	0.44507	-0.007
Mof_C 	C 	0.95163	0.68247	0.50727	0.052
Mof_C 	C 	0.95193	0.63497	0.50807	-0.078
Mof_H 	H 	0.91913	0.60247	0.51417	0.056
Mof_C 	C 	0.03603	0.57527	0.43657	-0.126
Mof_H 	H 	0.06103	0.60397	0.39437	0.071
Mof_C 	C 	0.03553	0.52737	0.43467	0.062
Mof_H 	H 	0.05893	0.52257	0.38987	0.013
Mof_O 	O 	0.75426	0.72188	0.61297	-0.43
Mof_O 	O 	0.71204	0.65345	0.49967	-0.58
Mof_O 	O 	0.01633	0.42063	0.41687	-0.533
Mof_C 	C 	0.9779	0.3994	0.8802	0.396
Mof_C 	C 	0.9783	0.451	0.8658	-0.104
Mof_C 	C 	0.94	0.4583	0.9181	0.06
Mof_H 	H 	0.9131	0.4305	0.9591	0.045
Mof_C 	C 	0.9423	0.5075	0.9087	-0.107
Mof_H 	H 	0.9158	0.5124	0.9419	0.088
Mof_C 	C 	0.9829	0.5497	0.8509	0.081
Mof_C 	C 	0.0207	0.5424	0.7979	-0.141
Mof_H 	H 	0.0467	0.5697	0.7549	0.079
Mof_C 	C 	0.0195	0.493	0.8092	0.051
Mof_H 	H 	0.0468	0.4886	0.7784	0.007
Mof_C 	C 	0.9842	0.6025	0.8406	0.065
Mof_C 	C 	0.0317	0.6503	0.8414	-0.114
Mof_H 	H 	0.0642	0.65	0.8475	0.077
Mof_C 	C 	0.0914	0.7941	0.7699	-0.115
Mof_H 	H 	0.0627	0.7904	0.7277	0.069
Mof_C 	C 	0.1393	0.8415	0.768	0.054
Mof_H 	H 	0.1441	0.8697	0.7232	0.024
Mof_O 	O 	0.94479	0.36572	0.9463	-0.361
Mof_O 	O 	0.01322	0.39193	0.833	-0.556
Mof_O 	O 	0.24604	0.92904	0.7502	-0.51
Mof_C 	C 	0.64457	0.73273	0.21353	0.368
Mof_C 	C 	0.64497	0.78433	0.19913	-0.147
Mof_C 	C 	0.60667	0.79163	0.25143	0.052
Mof_H 	H 	0.57977	0.76383	0.29243	0.019
Mof_C 	C 	0.60897	0.84083	0.24203	-0.128
Mof_H 	H 	0.58247	0.84573	0.27523	0.068
Mof_C 	C 	0.64957	0.88303	0.18423	0.053
Mof_C 	C 	0.68737	0.87573	0.13123	-0.142
Mof_H 	H 	0.71337	0.90303	0.08823	0.057
Mof_C 	C 	0.68617	0.82633	0.14253	0.057
Mof_H 	H 	0.71347	0.82193	0.11173	-0.017
Mof_C 	C 	0.65087	0.93583	0.17393	0.011
Mof_C 	C 	0.69837	0.98363	0.17473	-0.062
Mof_H 	H 	0.73087	0.98333	0.18083	0.048
Mof_C 	C 	0.75807	0.12743	0.10323	-0.14
Mof_H 	H 	0.72937	0.12373	0.06103	0.049
Mof_C 	C 	0.80597	0.17483	0.10133	0.052
Mof_H 	H 	0.81077	0.20303	0.05653	-0.008
Mof_O 	O 	0.61146	0.69905	0.27963	-0.432
Mof_O 	O 	0.67989	0.72526	0.16633	-0.562
Mof_O 	O 	0.91271	0.26237	0.08353	-0.519
Mof_C 	C 	0.31123	0.06607	0.54687	0.376
Mof_C 	C 	0.31163	0.11767	0.53247	-0.143
Mof_C 	C 	0.27333	0.12497	0.58477	0.055
Mof_H 	H 	0.24643	0.09717	0.62577	0.022
Mof_C 	C 	0.27563	0.17417	0.57537	-0.123
Mof_H 	H 	0.24913	0.17907	0.60857	0.069
Mof_C 	C 	0.31623	0.21637	0.51757	0.056
Mof_C 	C 	0.35403	0.20907	0.46457	-0.132
Mof_H 	H 	0.38003	0.23637	0.42157	0.072
Mof_C 	C 	0.35283	0.15967	0.47587	0.068
Mof_H 	H 	0.38013	0.15527	0.44507	-0.007
Mof_C 	C 	0.31753	0.26917	0.50727	0.03
Mof_C 	C 	0.36503	0.31697	0.50807	-0.093
Mof_H 	H 	0.39753	0.31667	0.51417	0.058
Mof_C 	C 	0.42473	0.46077	0.43657	-0.125
Mof_H 	H 	0.39603	0.45707	0.39437	0.072
Mof_C 	C 	0.47263	0.50817	0.43467	0.059
Mof_H 	H 	0.47743	0.53637	0.38987	0.015
Mof_O 	O 	0.27812	0.03239	0.61297	-0.447
Mof_O 	O 	0.34655	0.0586	0.49967	-0.583
Mof_O 	O 	0.57937	0.59571	0.41687	-0.524
Mof_C 	C 	0.6006	0.5785	0.8802	0.379
Mof_C 	C 	0.549	0.5273	0.8658	-0.124
Mof_C 	C 	0.5417	0.4817	0.9181	0.062
Mof_H 	H 	0.5695	0.4826	0.9591	0.044
Mof_C 	C 	0.4925	0.4348	0.9087	-0.107
Mof_H 	H 	0.4876	0.4034	0.9419	0.088
Mof_C 	C 	0.4503	0.4332	0.8509	0.063
Mof_C 	C 	0.4576	0.4783	0.7979	-0.121
Mof_H 	H 	0.4303	0.477	0.7549	0.076
Mof_C 	C 	0.507	0.5265	0.8092	0.072
Mof_H 	H 	0.5114	0.5582	0.7784	0.002
Mof_C 	C 	0.3975	0.3817	0.8406	0.047
Mof_C 	C 	0.3497	0.3814	0.8414	-0.094
Mof_H 	H 	0.35	0.4142	0.8475	0.073
Mof_C 	C 	0.2059	0.2973	0.7699	-0.112
Mof_H 	H 	0.2096	0.2723	0.7277	0.07
Mof_C 	C 	0.1585	0.2978	0.768	0.052
Mof_H 	H 	0.1303	0.2744	0.7232	0.022
Mof_O 	O 	0.63428	0.57907	0.9463	-0.367
Mof_O 	O 	0.60807	0.62129	0.833	-0.546
Mof_O 	O 	0.07096	0.317	0.7502	-0.508
Mof_C 	C 	0.26727	0.91183	0.21353	0.362
Mof_C 	C 	0.21567	0.86063	0.19913	-0.139
Mof_C 	C 	0.20837	0.81503	0.25143	0.044
Mof_H 	H 	0.23617	0.81593	0.29243	0.022
Mof_C 	C 	0.15917	0.76813	0.24203	-0.119
Mof_H 	H 	0.15427	0.73673	0.27523	0.064
Mof_C 	C 	0.11697	0.76653	0.18423	0.04
Mof_C 	C 	0.12427	0.81163	0.13123	-0.132
Mof_H 	H 	0.09697	0.81033	0.08823	0.049
Mof_C 	C 	0.17367	0.85983	0.14253	0.048
Mof_H 	H 	0.17807	0.89153	0.11173	-0.012
Mof_C 	C 	0.06417	0.71503	0.17393	0.027
Mof_C 	C 	0.01637	0.71473	0.17473	-0.125
Mof_H 	H 	0.01667	0.74753	0.18083	0.056
Mof_C 	C 	0.87257	0.63063	0.10323	-0.132
Mof_H 	H 	0.87627	0.60563	0.06103	0.047
Mof_C 	C 	0.82517	0.63113	0.10133	0.048
Mof_H 	H 	0.79697	0.60773	0.05653	-0.007
Mof_O 	O 	0.30095	0.9124	0.27963	-0.42
Mof_O 	O 	0.27474	0.95462	0.16633	-0.539
Mof_O 	O 	0.73763	0.65033	0.08353	-0.528
Mof_C 	C 	0.93393	0.24517	0.54687	0.378
Mof_C 	C 	0.88233	0.19397	0.53247	-0.139
Mof_C 	C 	0.87503	0.14837	0.58477	0.051
Mof_H 	H 	0.90283	0.14927	0.62577	0.028
Mof_C 	C 	0.82583	0.10147	0.57537	-0.116
Mof_H 	H 	0.82093	0.07007	0.60857	0.067
Mof_C 	C 	0.78363	0.09987	0.51757	0.049
Mof_C 	C 	0.79093	0.14497	0.46457	-0.127
Mof_H 	H 	0.76363	0.14367	0.42157	0.07
Mof_C 	C 	0.84033	0.19317	0.47587	0.065
Mof_H 	H 	0.84473	0.22487	0.44507	-0.007
Mof_C 	C 	0.73083	0.04837	0.50727	0.041
Mof_C 	C 	0.68303	0.04807	0.50807	-0.097
Mof_H 	H 	0.68333	0.08087	0.51417	0.06
Mof_C 	C 	0.53923	0.96397	0.43657	-0.103
Mof_H 	H 	0.54293	0.93897	0.39437	0.068
Mof_C 	C 	0.49183	0.96447	0.43467	0.084
Mof_H 	H 	0.46363	0.94107	0.38987	0.011
Mof_O 	O 	0.96761	0.24574	0.61297	-0.419
Mof_O 	O 	0.9414	0.28796	0.49967	-0.577
Mof_O 	O 	0.40429	0.98367	0.41687	-0.492
Mof_C 	C 	0.0221	0.4215	0.1198	0.358
Mof_C 	C 	0.0217	0.4727	0.1342	-0.178
Mof_C 	C 	0.06	0.5183	0.0819	0.051
Mof_H 	H 	0.0869	0.5174	0.0409	-0.001
Mof_C 	C 	0.0577	0.5652	0.0913	-0.133
Mof_H 	H 	0.0842	0.5966	0.0581	0.048
Mof_C 	C 	0.0171	0.5668	0.1491	0.029
Mof_C 	C 	0.9793	0.5217	0.2021	-0.12
Mof_H 	H 	0.9533	0.523	0.2451	0.069
Mof_C 	C 	0.9805	0.4735	0.1908	0.085
Mof_H 	H 	0.9532	0.4418	0.2216	-0.018
Mof_C 	C 	0.0158	0.6183	0.1594	0.001
Mof_C 	C 	0.9683	0.6186	0.1586	-0.076
Mof_H 	H 	0.9358	0.5858	0.1525	0.043
Mof_C 	C 	0.9086	0.7027	0.2301	-0.127
Mof_H 	H 	0.9373	0.7277	0.2723	0.075
Mof_C 	C 	0.8607	0.7022	0.232	0.055
Mof_H 	H 	0.8559	0.7256	0.2768	0.015
Mof_O 	O 	0.05521	0.42093	0.0537	-0.444
Mof_O 	O 	0.98678	0.37871	0.167	-0.559
Mof_O 	O 	0.75396	0.683	0.2498	-0.522
Mof_C 	C 	0.68877	0.75483	0.45313	0.379
Mof_C 	C 	0.68837	0.80603	0.46753	-0.14
Mof_C 	C 	0.72667	0.85163	0.41523	0.056
Mof_H 	H 	0.75357	0.85073	0.37423	0.023
Mof_C 	C 	0.72437	0.89853	0.42463	-0.115
Mof_H 	H 	0.75087	0.92993	0.39143	0.071
Mof_C 	C 	0.68377	0.90013	0.48243	0.051
Mof_C 	C 	0.64597	0.85503	0.53543	-0.127
Mof_H 	H 	0.61997	0.85633	0.57843	0.073
Mof_C 	C 	0.64717	0.80683	0.52413	0.066
Mof_H 	H 	0.61987	0.77513	0.55493	-0.004
Mof_C 	C 	0.68247	0.95163	0.49273	0.055
Mof_C 	C 	0.63497	0.95193	0.49193	-0.075
Mof_H 	H 	0.60247	0.91913	0.48583	0.057
Mof_C 	C 	0.57527	0.03603	0.56343	-0.126
Mof_H 	H 	0.60397	0.06103	0.60563	0.071
Mof_C 	C 	0.52737	0.03553	0.56533	0.061
Mof_H 	H 	0.52257	0.05893	0.61013	0.013
Mof_O 	O 	0.72188	0.75426	0.38703	-0.433
Mof_O 	O 	0.65345	0.71204	0.50033	-0.579
Mof_O 	O 	0.42063	0.01633	0.58313	-0.534
Mof_C 	C 	0.35543	0.08817	0.78647	0.369
Mof_C 	C 	0.35503	0.13937	0.80087	-0.119
Mof_C 	C 	0.39333	0.18497	0.74857	0.051
Mof_H 	H 	0.42023	0.18407	0.70757	0.028
Mof_C 	C 	0.39103	0.23187	0.75797	-0.108
Mof_H 	H 	0.41753	0.26327	0.72477	0.067
Mof_C 	C 	0.35043	0.23347	0.81577	0.057
Mof_C 	C 	0.31263	0.18837	0.86877	-0.113
Mof_H 	H 	0.28663	0.18967	0.91177	0.091
Mof_C 	C 	0.31383	0.14017	0.85747	0.068
Mof_H 	H 	0.28653	0.10847	0.88827	0.018
Mof_C 	C 	0.34913	0.28497	0.82607	0.048
Mof_C 	C 	0.30163	0.28527	0.82527	-0.095
Mof_H 	H 	0.26913	0.25247	0.81917	0.068
Mof_C 	C 	0.24193	0.36937	0.89677	-0.106
Mof_H 	H 	0.27063	0.39437	0.93897	0.092
Mof_C 	C 	0.19403	0.36887	0.89867	0.056
Mof_H 	H 	0.18923	0.39227	0.94347	0.045
Mof_O 	O 	0.38854	0.0876	0.72037	-0.436
Mof_O 	O 	0.32011	0.04538	0.83367	-0.531
Mof_O 	O 	0.08729	0.34967	0.91647	-0.443
Mof_C 	C 	0.3994	0.9779	0.1198	0.397
Mof_C 	C 	0.451	0.9783	0.1342	-0.136
Mof_C 	C 	0.4583	0.94	0.0819	0.047
Mof_H 	H 	0.4305	0.9131	0.0409	0.002
Mof_C 	C 	0.5075	0.9423	0.0913	-0.135
Mof_H 	H 	0.5124	0.9158	0.0581	0.05
Mof_C 	C 	0.5497	0.9829	0.1491	0.07
Mof_C 	C 	0.5424	0.0207	0.2021	-0.165
Mof_H 	H 	0.5697	0.0467	0.2451	0.075
Mof_C 	C 	0.493	0.0195	0.1908	0.039
Mof_H 	H 	0.4886	0.0468	0.2216	-0.009
Mof_C 	C 	0.6025	0.9842	0.1594	0.039
Mof_C 	C 	0.6503	0.0317	0.1586	-0.119
Mof_H 	H 	0.65	0.0642	0.1525	0.052
Mof_C 	C 	0.7941	0.0914	0.2301	-0.136
Mof_H 	H 	0.7904	0.0627	0.2723	0.068
Mof_C 	C 	0.8415	0.1393	0.232	0.058
Mof_H 	H 	0.8697	0.1441	0.2768	0.012
Mof_O 	O 	0.36572	0.94479	0.0537	-0.442
Mof_O 	O 	0.39193	0.01322	0.167	-0.589
Mof_O 	O 	0.92904	0.24604	0.2498	-0.522
Mof_C 	C 	0.06607	0.31123	0.45313	0.379
Mof_C 	C 	0.11767	0.31163	0.46753	-0.144
Mof_C 	C 	0.12497	0.27333	0.41523	0.058
Mof_H 	H 	0.09717	0.24643	0.37423	0.015
Mof_C 	C 	0.17417	0.27563	0.42463	-0.123
Mof_H 	H 	0.17907	0.24913	0.39143	0.065
Mof_C 	C 	0.21637	0.31623	0.48243	0.057
Mof_C 	C 	0.20907	0.35403	0.53543	-0.133
Mof_H 	H 	0.23637	0.38003	0.57843	0.075
Mof_C 	C 	0.15967	0.35283	0.52413	0.069
Mof_H 	H 	0.15527	0.38013	0.55493	-0.005
Mof_C 	C 	0.26917	0.31753	0.49273	0.031
Mof_C 	C 	0.31697	0.36503	0.49193	-0.093
Mof_H 	H 	0.31667	0.39753	0.48583	0.06
Mof_C 	C 	0.46077	0.42473	0.56343	-0.126
Mof_H 	H 	0.45707	0.39603	0.60563	0.071
Mof_C 	C 	0.50817	0.47263	0.56533	0.058
Mof_H 	H 	0.53637	0.47743	0.61013	0.016
Mof_O 	O 	0.03239	0.27812	0.38703	-0.449
Mof_O 	O 	0.0586	0.34655	0.50033	-0.583
Mof_O 	O 	0.59571	0.57937	0.58313	-0.526
Mof_C 	C 	0.73273	0.64457	0.78647	0.369
Mof_C 	C 	0.78433	0.64497	0.80087	-0.121
Mof_C 	C 	0.79163	0.60667	0.74857	0.053
Mof_H 	H 	0.76383	0.57977	0.70757	0.027
Mof_C 	C 	0.84083	0.60897	0.75797	-0.111
Mof_H 	H 	0.84573	0.58247	0.72477	0.069
Mof_C 	C 	0.88303	0.64957	0.81577	0.062
Mof_C 	C 	0.87573	0.68737	0.86877	-0.116
Mof_H 	H 	0.90303	0.71337	0.91177	0.096
Mof_C 	C 	0.82633	0.68617	0.85747	0.07
Mof_H 	H 	0.82193	0.71347	0.88827	0.02
Mof_C 	C 	0.93583	0.65087	0.82607	0.042
Mof_C 	C 	0.98363	0.69837	0.82527	-0.067
Mof_H 	H 	0.98333	0.73087	0.81917	0.067
Mof_C 	C 	0.12743	0.75807	0.89677	-0.109
Mof_H 	H 	0.12373	0.72937	0.93897	0.093
Mof_C 	C 	0.17483	0.80597	0.89867	0.058
Mof_H 	H 	0.20303	0.81077	0.94347	0.043
Mof_O 	O 	0.69905	0.61146	0.72037	-0.428
Mof_O 	O 	0.72526	0.67989	0.83367	-0.526
Mof_O 	O 	0.26237	0.91271	0.91647	-0.438
Mof_C 	C 	0.5785	0.6006	0.1198	0.376
Mof_C 	C 	0.5273	0.549	0.1342	-0.159
Mof_C 	C 	0.4817	0.5417	0.0819	0.05
Mof_H 	H 	0.4826	0.5695	0.0409	0
Mof_C 	C 	0.4348	0.4925	0.0913	-0.134
Mof_H 	H 	0.4034	0.4876	0.0581	0.049
Mof_C 	C 	0.4332	0.4503	0.1491	0.048
Mof_C 	C 	0.4783	0.4576	0.2021	-0.142
Mof_H 	H 	0.477	0.4303	0.2451	0.071
Mof_C 	C 	0.5265	0.507	0.1908	0.064
Mof_H 	H 	0.5582	0.5114	0.2216	-0.015
Mof_C 	C 	0.3817	0.3975	0.1594	0.018
Mof_C 	C 	0.3814	0.3497	0.1586	-0.096
Mof_H 	H 	0.4142	0.35	0.1525	0.047
Mof_C 	C 	0.2973	0.2059	0.2301	-0.132
Mof_H 	H 	0.2723	0.2096	0.2723	0.069
Mof_C 	C 	0.2978	0.1585	0.232	0.055
Mof_H 	H 	0.2744	0.1303	0.2768	0.01
Mof_O 	O 	0.57907	0.63428	0.0537	-0.45
Mof_O 	O 	0.62129	0.60807	0.167	-0.578
Mof_O 	O 	0.317	0.07096	0.2498	-0.52
Mof_C 	C 	0.24517	0.93393	0.45313	0.38
Mof_C 	C 	0.19397	0.88233	0.46753	-0.14
Mof_C 	C 	0.14837	0.87503	0.41523	0.055
Mof_H 	H 	0.14927	0.90283	0.37423	0.022
Mof_C 	C 	0.10147	0.82583	0.42463	-0.116
Mof_H 	H 	0.07007	0.82093	0.39143	0.064
Mof_C 	C 	0.09987	0.78363	0.48243	0.051
Mof_C 	C 	0.14497	0.79093	0.53543	-0.129
Mof_H 	H 	0.14367	0.76363	0.57843	0.073
Mof_C 	C 	0.19317	0.84033	0.52413	0.066
Mof_H 	H 	0.22487	0.84473	0.55493	-0.005
Mof_C 	C 	0.04837	0.73083	0.49273	0.04
Mof_C 	C 	0.04807	0.68303	0.49193	-0.097
Mof_H 	H 	0.08087	0.68333	0.48583	0.061
Mof_C 	C 	0.96397	0.53923	0.56343	-0.107
Mof_H 	H 	0.93897	0.54293	0.60563	0.068
Mof_C 	C 	0.96447	0.49183	0.56533	0.08
Mof_H 	H 	0.94107	0.46363	0.61013	0.012
Mof_O 	O 	0.24574	0.96761	0.38703	-0.419
Mof_O 	O 	0.28796	0.9414	0.50033	-0.576
Mof_O 	O 	0.98367	0.40429	0.58313	-0.498
Mof_C 	C 	0.91183	0.26727	0.78647	0.364
Mof_C 	C 	0.86063	0.21567	0.80087	-0.113
Mof_C 	C 	0.81503	0.20837	0.74857	0.046
Mof_H 	H 	0.81593	0.23617	0.70757	0.029
Mof_C 	C 	0.76813	0.15917	0.75797	-0.103
Mof_H 	H 	0.73673	0.15427	0.72477	0.065
Mof_C 	C 	0.76653	0.11697	0.81577	0.05
Mof_C 	C 	0.81163	0.12427	0.86877	-0.107
Mof_H 	H 	0.81033	0.09697	0.91177	0.089
Mof_C 	C 	0.85983	0.17367	0.85747	0.062
Mof_H 	H 	0.89153	0.17807	0.88827	0.024
Mof_C 	C 	0.71503	0.06417	0.82607	0.057
Mof_C 	C 	0.71473	0.01637	0.82527	-0.126
Mof_H 	H 	0.74753	0.01667	0.81917	0.074
Mof_C 	C 	0.63063	0.87257	0.89677	-0.101
Mof_H 	H 	0.60563	0.87627	0.93897	0.091
Mof_C 	C 	0.63113	0.82517	0.89867	0.054
Mof_H 	H 	0.60773	0.79697	0.94347	0.045
Mof_O 	O 	0.9124	0.30095	0.72037	-0.419
Mof_O 	O 	0.95462	0.27474	0.83367	-0.507
Mof_O 	O 	0.65033	0.73763	0.91647	-0.449
Mof_C 	C 	0.66667	0.06348	0.83333	-0.101
Mof_H 	H 	0.66667	0.09618	0.83333	0.07
Mof_C 	C 	0.66667	0.96688	0.83333	0.066
Mof_C 	C 	0.66667	0.91578	0.83333	0.048
Mof_C 	C 	0.66667	0.81978	0.83333	-0.128
Mof_C 	C 	0.66667	0.76628	0.83333	0.404
Mof_C 	C 	0.93652	0.60318	0.83333	-0.099
Mof_H 	H 	0.90382	0.57048	0.83333	0.07
Mof_C 	C 	0.03312	0.69978	0.83333	0.027
Mof_C 	C 	0.08422	0.75088	0.83333	0.057
Mof_C 	C 	0.18022	0.84688	0.83333	-0.131
Mof_C 	C 	0.23372	0.90038	0.83333	0.404
Mof_C 	C 	0.39682	0.33333	0.83333	-0.099
Mof_H 	H 	0.42952	0.33333	0.83333	0.07
Mof_C 	C 	0.30022	0.33333	0.83333	0.045
Mof_C 	C 	0.24912	0.33333	0.83333	0.053
Mof_C 	C 	0.15312	0.33333	0.83333	-0.13
Mof_C 	C 	0.09962	0.33333	0.83333	0.401
Mof_C 	C 	0.06348	0.66667	0.16667	-0.104
Mof_H 	H 	0.09618	0.66667	0.16667	0.051
Mof_C 	C 	0.96688	0.66667	0.16667	0.035
Mof_C 	C 	0.91578	0.66667	0.16667	0.041
Mof_C 	C 	0.81978	0.66667	0.16667	-0.164
Mof_C 	C 	0.76628	0.66667	0.16667	0.41
Mof_C 	C 	0.73015	0	0.5	-0.135
Mof_H 	H 	0.76285	0	0.5	0.065
Mof_C 	C 	0.63355	0	0.5	0.011
Mof_C 	C 	0.58245	0	0.5	0.031
Mof_C 	C 	0.48645	0	0.5	-0.178
Mof_C 	C 	0.43295	0	0.5	0.394
Mof_C 	C 	0.60318	0.93652	0.16667	-0.102
Mof_H 	H 	0.57048	0.90382	0.16667	0.051
Mof_C 	C 	0.69978	0.03312	0.16667	-0.007
Mof_C 	C 	0.75088	0.08422	0.16667	0.05
Mof_C 	C 	0.84688	0.18022	0.16667	-0.167
Mof_C 	C 	0.90038	0.23372	0.16667	0.41
Mof_C 	C 	0.26985	0.26985	0.5	-0.099
Mof_H 	H 	0.23715	0.23715	0.5	0.058
Mof_C 	C 	0.36645	0.36645	0.5	0.028
Mof_C 	C 	0.41755	0.41755	0.5	0.052
Mof_C 	C 	0.51355	0.51355	0.5	-0.156
Mof_C 	C 	0.56705	0.56705	0.5	0.417
Mof_C 	C 	0.33333	0.39682	0.16667	-0.102
Mof_H 	H 	0.33333	0.42952	0.16667	0.05
Mof_C 	C 	0.33333	0.30022	0.16667	0.015
Mof_C 	C 	0.33333	0.24912	0.16667	0.044
Mof_C 	C 	0.33333	0.15312	0.16667	-0.166
Mof_C 	C 	0.33333	0.09962	0.16667	0.406
Mof_C 	C 	-2.67439e-17	0.73015	0.5	-0.131
Mof_H 	H 	2.37743e-17	0.76285	0.5	0.064
Mof_C 	C 	-7.72621e-17	0.63355	0.5	0.013
Mof_C 	C 	-2.67439e-17	0.58245	0.5	0.034
Mof_C 	C 	-2.67439e-17	0.48645	0.5	-0.176
Mof_C 	C 	-5.2003e-17	0.43295	0.5	0.397
Mof_La	La	0.32222	0	-0	1.77
Mof_La	La	0.98888	0.33333	0.33333	2.152
Mof_La	La	0.65555	0.66667	0.66667	2.112
Mof_La	La	-2.52591e-17	0.32222	-0	1.78
Mof_La	La	0.66667	0.65555	0.33333	2.096
Mof_La	La	0.33333	0.98888	0.66667	2.173
Mof_La	La	0.67778	0.67778	-0	1.84
Mof_La	La	0.34445	0.01112	0.33333	2.032
Mof_La	La	0.01112	0.34445	0.66667	2.056
_end
