# CIF file generated by openbabel 3.1.0, see https://openbabel.org
data_I
_chemical_name_common 'image0'
_cell_length_a 8.5326
_cell_length_b 13.2128
_cell_length_c 9.5883
_cell_angle_alpha 90
_cell_angle_beta 94.585
_cell_angle_gamma 90
_space_group_name_H-M_alt 'P 1'
_space_group_name_Hall 'P 1'
loop_
    _symmetry_equiv_pos_as_xyz
    x,y,z
loop_
    _atom_site_label
    _atom_site_type_symbol
    _atom_site_fract_x
    _atom_site_fract_y
    _atom_site_fract_z
    _atom_site_occupancy
    Gd1      Gd       0.53941    0.26882    0.49206    1.000
    C1       C        0.53930    0.38940    0.74370    1.000
    C2       C        0.52440    0.45090    0.87580    1.000
    C3       C        0.61640    0.42570    0.99580    1.000
    C4       C        0.40830    0.52700    0.87550    1.000
    C5       C        0.75370    0.35100    0.98960    1.000
    C6       C        0.30170    0.55140    0.74450    1.000
    O1       O        0.55020    0.43240    0.62650    1.000
    O2       O        0.53630    0.29360    0.75180    1.000
    O3       O        0.78320    0.28830    0.08270    1.000
    O4       O        0.84100    0.35980    0.88800    1.000
    O5       O        0.35050    0.61460    0.65730    1.000
    O6       O        0.16760    0.51010    0.73120    1.000
    Gd2      Gd       0.96059    0.76882    0.00794    1.000
    C7       C        0.96070    0.88940    0.75630    1.000
    C8       C        0.97560    0.95090    0.62420    1.000
    C9       C        0.88360    0.92570    0.50420    1.000
    C10      C        0.09170    0.02700    0.62450    1.000
    C11      C        0.74630    0.85100    0.51040    1.000
    C12      C        0.19830    0.05140    0.75550    1.000
    O7       O        0.94980    0.93240    0.87350    1.000
    O8       O        0.96370    0.79360    0.74820    1.000
    O9       O        0.71680    0.78830    0.41730    1.000
    O10      O        0.65900    0.85980    0.61200    1.000
    O11      O        0.14950    0.11460    0.84270    1.000
    O12      O        0.33240    0.01010    0.76880    1.000
    Gd3      Gd       0.46059    0.73118    0.50794    1.000
    C13      C        0.46070    0.61060    0.25630    1.000
    C14      C        0.47560    0.54910    0.12420    1.000
    C15      C        0.38360    0.57430    0.00420    1.000
    C16      C        0.59170    0.47300    0.12450    1.000
    C17      C        0.24630    0.64900    0.01040    1.000
    C18      C        0.69830    0.44860    0.25550    1.000
    O13      O        0.44980    0.56760    0.37350    1.000
    O14      O        0.46370    0.70640    0.24820    1.000
    O15      O        0.21680    0.71170    0.91730    1.000
    O16      O        0.15900    0.64020    0.11200    1.000
    O17      O        0.64950    0.38540    0.34270    1.000
    O18      O        0.83240    0.48990    0.26880    1.000
    Gd4      Gd       0.03941    0.23118    0.99206    1.000
    C19      C        0.03930    0.11060    0.24370    1.000
    C20      C        0.02440    0.04910    0.37580    1.000
    C21      C        0.11640    0.07430    0.49580    1.000
    C22      C        0.90830    0.97300    0.37550    1.000
    C23      C        0.25370    0.14900    0.48960    1.000
    C24      C        0.80170    0.94860    0.24450    1.000
    O19      O        0.05020    0.06760    0.12650    1.000
    O20      O        0.03630    0.20640    0.25180    1.000
    O21      O        0.28320    0.21170    0.58270    1.000
    O22      O        0.34100    0.14020    0.38800    1.000
    O23      O        0.85050    0.88540    0.15730    1.000
    O24      O        0.66760    0.98990    0.23120    1.000
