# CIF file generated by openbabel 3.1.0, see https://openbabel.org
data_I
_chemical_name_common 'image0'
_cell_length_a 12.508
_cell_length_b 12.754
_cell_length_c 15.265
_cell_angle_alpha 90
_cell_angle_beta 104.782
_cell_angle_gamma 90
_space_group_name_H-M_alt 'P 1'
_space_group_name_Hall 'P 1'
loop_
    _symmetry_equiv_pos_as_xyz
    x,y,z
loop_
    _atom_site_label
    _atom_site_type_symbol
    _atom_site_fract_x
    _atom_site_fract_y
    _atom_site_fract_z
    _atom_site_occupancy
    Cd1      Cd       0.22658    0.22560    0.08202    1.000
    C1       C        0.49160    0.24840    0.17009    1.000
    H1       H        0.47920    0.31430    0.19170    1.000
    C2       C        0.46650    0.09550    0.11250    1.000
    H2       H        0.43220    0.03450    0.08580    1.000
    C3       C        0.57720    0.11180    0.13760    1.000
    H3       H        0.63190    0.06520    0.13130    1.000
    C4       C        0.69610    0.26540    0.21321    1.000
    H4       H        0.68480    0.31110    0.26090    1.000
    H5       H        0.75180    0.21430    0.24120    1.000
    C5       C        0.76890    0.25830    0.07336    1.000
    H6       H        0.70660    0.25910    0.02030    1.000
    H7       H        0.77590    0.18730    0.09710    1.000
    C6       C        0.96740    0.23550    0.07653    1.000
    H8       H        0.97990    0.18210    0.11940    1.000
    C7       C        0.88500    0.35750    0.98300    1.000
    H9       H        0.83230    0.40320    0.94950    1.000
    C8       C        0.99200    0.35000    0.98110    1.000
    H10      H        0.02570    0.39100    0.94530    1.000
    C9       C        0.85560    0.47200    0.42490    1.000
    H11      H        0.86720    0.46530    0.48730    1.000
    C10      C        0.87080    0.39550    0.36910    1.000
    H12      H        0.89480    0.32760    0.38550    1.000
    C11      C        0.81590    0.53650    0.29240    1.000
    H13      H        0.79520    0.58300    0.24410    1.000
    C12      C        0.85140    0.38230    0.20021    1.000
    H14      H        0.87590    0.43220    0.16150    1.000
    H15      H        0.90710    0.32780    0.21600    1.000
    C13      C        0.74200    0.33230    0.14597    1.000
    C14      C        0.65240    0.41390    0.10440    1.000
    H16      H        0.64520    0.46150    0.15210    1.000
    H17      H        0.58240    0.37740    0.08360    1.000
    C15      C        0.72420    0.56760    0.03210    1.000
    H18      H        0.76020    0.60090    0.08580    1.000
    C16      C        0.66000    0.53240    0.89190    1.000
    H19      H        0.64390    0.53710    0.82900    1.000
    C17      C        0.62790    0.45370    0.93820    1.000
    H20      H        0.58550    0.39570    0.91410    1.000
    N1       N        0.41240    0.18270    0.13261    1.000
    N2       N        0.59255    0.20980    0.17368    1.000
    N3       N        0.04379    0.27340    0.03925    1.000
    N4       N        0.86946    0.28390    0.04481    1.000
    N5       N        0.82070    0.56130    0.37665    1.000
    N6       N        0.84436    0.43630    0.28370    1.000
    N7       N        0.72040    0.60510    0.95138    1.000
    N8       N        0.67057    0.47650    0.02889    1.000
    Cd2      Cd       0.77342    0.72560    0.41798    1.000
    C18      C        0.50840    0.74840    0.32991    1.000
    H21      H        0.52080    0.81430    0.30830    1.000
    C19      C        0.53350    0.59550    0.38750    1.000
    H22      H        0.56780    0.53450    0.41420    1.000
    C20      C        0.42280    0.61180    0.36240    1.000
    H23      H        0.36810    0.56520    0.36870    1.000
    C21      C        0.30390    0.76540    0.28679    1.000
    H24      H        0.31520    0.81110    0.23910    1.000
    H25      H        0.24820    0.71430    0.25880    1.000
    C22      C        0.23110    0.75830    0.42664    1.000
    H26      H        0.29340    0.75910    0.47970    1.000
    H27      H        0.22410    0.68730    0.40290    1.000
    C23      C        0.03260    0.73550    0.42347    1.000
    H28      H        0.02010    0.68210    0.38060    1.000
    C24      C        0.11500    0.85750    0.51700    1.000
    H29      H        0.16770    0.90320    0.55050    1.000
    C25      C        0.00800    0.85000    0.51890    1.000
    H30      H        0.97430    0.89100    0.55470    1.000
    C26      C        0.14440    0.97200    0.07510    1.000
    H31      H        0.13280    0.96530    0.01270    1.000
    C27      C        0.12920    0.89550    0.13090    1.000
    H32      H        0.10520    0.82760    0.11450    1.000
    C28      C        0.18410    0.03650    0.20760    1.000
    H33      H        0.20480    0.08300    0.25590    1.000
    C29      C        0.14860    0.88230    0.29979    1.000
    H34      H        0.12410    0.93220    0.33850    1.000
    H35      H        0.09290    0.82780    0.28400    1.000
    C30      C        0.25800    0.83230    0.35403    1.000
    C31      C        0.34760    0.91390    0.39560    1.000
    H36      H        0.35480    0.96150    0.34790    1.000
    H37      H        0.41760    0.87740    0.41640    1.000
    C32      C        0.27580    0.06760    0.46790    1.000
    H38      H        0.23980    0.10090    0.41420    1.000
    C33      C        0.34000    0.03240    0.60810    1.000
    H39      H        0.35610    0.03710    0.67100    1.000
    C34      C        0.37210    0.95370    0.56180    1.000
    H40      H        0.41450    0.89570    0.58590    1.000
    N9       N        0.58760    0.68270    0.36739    1.000
    N10      N        0.40745    0.70980    0.32632    1.000
    N11      N        0.95621    0.77340    0.46075    1.000
    N12      N        0.13054    0.78390    0.45519    1.000
    N13      N        0.17930    0.06130    0.12335    1.000
    N14      N        0.15564    0.93630    0.21630    1.000
    N15      N        0.27960    0.10510    0.54862    1.000
    N16      N        0.32943    0.97650    0.47111    1.000
    Cd3      Cd       0.77342    0.77441    0.91798    1.000
    C35      C        0.50840    0.75160    0.82991    1.000
    H41      H        0.52080    0.68570    0.80830    1.000
    C36      C        0.53350    0.90450    0.88750    1.000
    H42      H        0.56780    0.96550    0.91420    1.000
    C37      C        0.42280    0.88820    0.86240    1.000
    H43      H        0.36810    0.93480    0.86870    1.000
    C38      C        0.30390    0.73460    0.78679    1.000
    H44      H        0.31520    0.68890    0.73910    1.000
    H45      H        0.24820    0.78570    0.75880    1.000
    C39      C        0.23110    0.74170    0.92664    1.000
    H46      H        0.29340    0.74090    0.97970    1.000
    H47      H        0.22410    0.81270    0.90290    1.000
    C40      C        0.03260    0.76450    0.92347    1.000
    H48      H        0.02010    0.81790    0.88060    1.000
    C41      C        0.11500    0.64250    0.01700    1.000
    H49      H        0.16770    0.59680    0.05050    1.000
    C42      C        0.00800    0.65000    0.01890    1.000
    H50      H        0.97430    0.60900    0.05470    1.000
    C43      C        0.14440    0.52800    0.57510    1.000
    H51      H        0.13280    0.53470    0.51270    1.000
    C44      C        0.12920    0.60450    0.63090    1.000
    H52      H        0.10520    0.67240    0.61450    1.000
    C45      C        0.18410    0.46350    0.70760    1.000
    H53      H        0.20480    0.41700    0.75590    1.000
    C46      C        0.14860    0.61770    0.79979    1.000
    H54      H        0.12410    0.56780    0.83850    1.000
    H55      H        0.09290    0.67220    0.78400    1.000
    C47      C        0.25800    0.66770    0.85403    1.000
    C48      C        0.34760    0.58610    0.89560    1.000
    H56      H        0.35480    0.53850    0.84790    1.000
    H57      H        0.41760    0.62260    0.91640    1.000
    C49      C        0.27580    0.43240    0.96790    1.000
    H58      H        0.23980    0.39910    0.91420    1.000
    C50      C        0.34000    0.46760    0.10810    1.000
    H59      H        0.35610    0.46290    0.17100    1.000
    C51      C        0.37210    0.54630    0.06180    1.000
    H60      H        0.41450    0.60430    0.08590    1.000
    N17      N        0.58760    0.81730    0.86739    1.000
    N18      N        0.40745    0.79020    0.82632    1.000
    N19      N        0.95621    0.72660    0.96075    1.000
    N20      N        0.13054    0.71610    0.95519    1.000
    N21      N        0.17930    0.43870    0.62335    1.000
    N22      N        0.15564    0.56370    0.71630    1.000
    N23      N        0.27960    0.39490    0.04862    1.000
    N24      N        0.32943    0.52350    0.97111    1.000
    Cd4      Cd       0.22658    0.27441    0.58202    1.000
    C52      C        0.49160    0.25160    0.67009    1.000
    H61      H        0.47920    0.18570    0.69170    1.000
    C53      C        0.46650    0.40450    0.61250    1.000
    H62      H        0.43220    0.46550    0.58580    1.000
    C54      C        0.57720    0.38820    0.63760    1.000
    H63      H        0.63190    0.43480    0.63130    1.000
    C55      C        0.69610    0.23460    0.71321    1.000
    H64      H        0.68480    0.18890    0.76090    1.000
    H65      H        0.75180    0.28570    0.74120    1.000
    C56      C        0.76890    0.24170    0.57336    1.000
    H66      H        0.70660    0.24090    0.52030    1.000
    H67      H        0.77590    0.31270    0.59710    1.000
    C57      C        0.96740    0.26450    0.57653    1.000
    H68      H        0.97990    0.31790    0.61940    1.000
    C58      C        0.88500    0.14250    0.48300    1.000
    H69      H        0.83230    0.09680    0.44950    1.000
    C59      C        0.99200    0.15000    0.48110    1.000
    H70      H        0.02570    0.10900    0.44530    1.000
    C60      C        0.85560    0.02800    0.92490    1.000
    H71      H        0.86720    0.03470    0.98730    1.000
    C61      C        0.87080    0.10450    0.86910    1.000
    H72      H        0.89480    0.17240    0.88550    1.000
    C62      C        0.81590    0.96350    0.79240    1.000
    H73      H        0.79520    0.91700    0.74410    1.000
    C63      C        0.85140    0.11770    0.70021    1.000
    H74      H        0.87590    0.06780    0.66150    1.000
    H75      H        0.90710    0.17220    0.71600    1.000
    C64      C        0.74200    0.16770    0.64597    1.000
    C65      C        0.65240    0.08610    0.60440    1.000
    H76      H        0.64520    0.03850    0.65210    1.000
    H77      H        0.58240    0.12260    0.58360    1.000
    C66      C        0.72420    0.93240    0.53210    1.000
    H78      H        0.76020    0.89910    0.58580    1.000
    C67      C        0.66000    0.96760    0.39190    1.000
    H79      H        0.64390    0.96290    0.32900    1.000
    C68      C        0.62790    0.04630    0.43820    1.000
    H80      H        0.58550    0.10430    0.41410    1.000
    N25      N        0.41240    0.31730    0.63261    1.000
    N26      N        0.59255    0.29020    0.67368    1.000
    N27      N        0.04379    0.22660    0.53925    1.000
    N28      N        0.86946    0.21610    0.54481    1.000
    N29      N        0.82070    0.93870    0.87665    1.000
    N30      N        0.84436    0.06370    0.78370    1.000
    N31      N        0.72040    0.89490    0.45138    1.000
    N32      N        0.67057    0.02350    0.52889    1.000
