data_functionalizedCrystal
_audit_creation_method	'EQeq! by Chris Wilmer'
_symmetry_space_group_name_H-M	'P1'
_symmetry_Int_Tables_number	1
_symmetry_cell_setting	triclinic
loop_
_symmetry_equiv_pos_as_xyz
  x,y,z
_cell_length_a	24.6661
_cell_length_b	24.6661
_cell_length_c	24.6661
_cell_angle_alpha	109.471
_cell_angle_beta	109.471
_cell_angle_gamma	109.471
loop_
_atom_site_label
_atom_site_type_symbol
_atom_site_fract_x
_atom_site_fract_y
_atom_site_fract_z
_atom_site_charge
Mof_Ni	Ni	0.40682	0.0801	0.08957	1.138
Mof_Ni	Ni	0.99053	0.31725	0.91043	1.131
Mof_Ni	Ni	0.00947	0.9199	0.32672	1.139
Mof_Ni	Ni	0.59318	0.68275	0.67328	1.137
Mof_Ni	Ni	0.32672	0.00947	0.9199	1.138
Mof_Ni	Ni	0.67328	0.59318	0.68275	1.137
Mof_Ni	Ni	0.08957	0.40682	0.0801	1.137
Mof_Ni	Ni	0.91043	0.99053	0.31725	1.13
Mof_Ni	Ni	0.31725	0.91043	0.99053	1.13
Mof_Ni	Ni	0.0801	0.08957	0.40682	1.137
Mof_Ni	Ni	0.68275	0.67328	0.59318	1.137
Mof_Ni	Ni	0.9199	0.32672	0.00947	1.138
Mof_H 	H 	0.8544	0.0811	0.3407	0.013
Mof_H 	H 	0.7547	0.0806	0.2991	0.07
Mof_H 	H 	0.6621	0.8831	0.1802	0.075
Mof_H 	H 	0.761	0.8867	0.2237	0.01
Mof_H 	H 	0.6595	0.0663	0.2798	0.059
Mof_H 	H 	0.5635	0.0712	0.2273	0.031
Mof_H 	H 	0.4895	0.8948	0.0669	0.038
Mof_H 	H 	0.5864	0.8914	0.1196	0.061
Mof_H 	H 	0.3131	0.0801	0.209	0.055
Mof_H 	H 	0.2871	0.131	0.2939	0.061
Mof_H 	H 	0.2248	0.8799	0.1021	0.043
Mof_H 	H 	0.7404	0.5137	0.6593	0.015
Mof_H 	H 	0.7815	0.4556	0.7009	0.072
Mof_H 	H 	0.7029	0.4819	0.8198	0.075
Mof_H 	H 	0.663	0.5373	0.7763	0.008
Mof_H 	H 	0.7865	0.3797	0.7202	0.061
Mof_H 	H 	0.8439	0.3362	0.7727	0.031
Mof_H 	H 	0.8279	0.4226	0.9331	0.034
Mof_H 	H 	0.7718	0.4668	0.8804	0.059
Mof_H 	H 	0.8711	0.1041	0.791	0.068
Mof_H 	H 	0.8371	0.9932	0.7061	0.071
Mof_H 	H 	0.7778	0.1227	0.8979	0.05
Mof_H 	H 	0.2596	0.9189	0.7733	0.016
Mof_H 	H 	0.2185	0.9194	0.6741	0.076
Mof_H 	H 	0.2971	0.1169	0.779	0.077
Mof_H 	H 	0.337	0.1133	0.8743	0.006
Mof_H 	H 	0.2135	0.9337	0.5932	0.063
Mof_H 	H 	0.1561	0.9288	0.4923	0.034
Mof_H 	H 	0.1721	0.1052	0.5947	0.038
Mof_H 	H 	0.2282	0.1086	0.695	0.061
Mof_H 	H 	0.1289	0.9199	0.233	0.062
Mof_H 	H 	0.1629	0.869	0.1561	0.063
Mof_H 	H 	0.2222	0.1201	0.3449	0.044
Mof_H 	H 	0.1456	0.4863	0.2267	0.015
Mof_H 	H 	0.2453	0.5444	0.3259	0.073
Mof_H 	H 	0.3379	0.5181	0.221	0.076
Mof_H 	H 	0.239	0.4627	0.1257	0.01
Mof_H 	H 	0.3405	0.6203	0.4068	0.061
Mof_H 	H 	0.4365	0.6638	0.5077	0.032
Mof_H 	H 	0.5105	0.5774	0.4053	0.037
Mof_H 	H 	0.4136	0.5332	0.305	0.061
Mof_H 	H 	0.6869	0.8959	0.767	0.046
Mof_H 	H 	0.7129	0.0068	0.8439	0.05
Mof_H 	H 	0.7752	0.8773	0.6551	0.032
Mof_H 	H 	0.7733	0.2596	0.9189	0.016
Mof_H 	H 	0.6741	0.2185	0.9194	0.076
Mof_H 	H 	0.779	0.2971	0.1169	0.077
Mof_H 	H 	0.8743	0.337	0.1133	0.006
Mof_H 	H 	0.5932	0.2135	0.9337	0.063
Mof_H 	H 	0.4923	0.1561	0.9288	0.034
Mof_H 	H 	0.5947	0.1721	0.1052	0.038
Mof_H 	H 	0.695	0.2282	0.1086	0.061
Mof_H 	H 	0.233	0.1289	0.9199	0.062
Mof_H 	H 	0.1561	0.1629	0.869	0.063
Mof_H 	H 	0.3449	0.2222	0.1201	0.044
Mof_H 	H 	0.2267	0.1456	0.4863	0.015
Mof_H 	H 	0.3259	0.2453	0.5444	0.073
Mof_H 	H 	0.221	0.3379	0.5181	0.076
Mof_H 	H 	0.1257	0.239	0.4627	0.01
Mof_H 	H 	0.4068	0.3405	0.6203	0.061
Mof_H 	H 	0.5077	0.4365	0.6638	0.032
Mof_H 	H 	0.4053	0.5105	0.5774	0.037
Mof_H 	H 	0.305	0.4136	0.5332	0.061
Mof_H 	H 	0.767	0.6869	0.8959	0.046
Mof_H 	H 	0.8439	0.7129	0.0068	0.05
Mof_H 	H 	0.6551	0.7752	0.8773	0.032
Mof_H 	H 	0.3407	0.8544	0.0811	0.013
Mof_H 	H 	0.2991	0.7547	0.0806	0.07
Mof_H 	H 	0.1802	0.6621	0.8831	0.075
Mof_H 	H 	0.2237	0.761	0.8867	0.01
Mof_H 	H 	0.2798	0.6595	0.0663	0.059
Mof_H 	H 	0.2273	0.5635	0.0712	0.031
Mof_H 	H 	0.0669	0.4895	0.8948	0.038
Mof_H 	H 	0.1196	0.5864	0.8914	0.061
Mof_H 	H 	0.209	0.3131	0.0801	0.055
Mof_H 	H 	0.2939	0.2871	0.131	0.061
Mof_H 	H 	0.1021	0.2248	0.8799	0.043
Mof_H 	H 	0.6593	0.7404	0.5137	0.015
Mof_H 	H 	0.7009	0.7815	0.4556	0.072
Mof_H 	H 	0.8198	0.7029	0.4819	0.075
Mof_H 	H 	0.7763	0.663	0.5373	0.008
Mof_H 	H 	0.7202	0.7865	0.3797	0.061
Mof_H 	H 	0.7727	0.8439	0.3362	0.031
Mof_H 	H 	0.9331	0.8279	0.4226	0.034
Mof_H 	H 	0.8804	0.7718	0.4668	0.059
Mof_H 	H 	0.791	0.8711	0.1041	0.068
Mof_H 	H 	0.7061	0.8371	0.9932	0.071
Mof_H 	H 	0.8979	0.7778	0.1227	0.05
Mof_H 	H 	0.5137	0.6593	0.7404	0.015
Mof_H 	H 	0.4556	0.7009	0.7815	0.072
Mof_H 	H 	0.4819	0.8198	0.7029	0.075
Mof_H 	H 	0.5373	0.7763	0.663	0.008
Mof_H 	H 	0.3797	0.7202	0.7865	0.061
Mof_H 	H 	0.3362	0.7727	0.8439	0.031
Mof_H 	H 	0.4226	0.9331	0.8279	0.034
Mof_H 	H 	0.4668	0.8804	0.7718	0.059
Mof_H 	H 	0.1041	0.791	0.8711	0.068
Mof_H 	H 	0.9932	0.7061	0.8371	0.071
Mof_H 	H 	0.1227	0.8979	0.7778	0.05
Mof_H 	H 	0.0811	0.3407	0.8544	0.013
Mof_H 	H 	0.0806	0.2991	0.7547	0.07
Mof_H 	H 	0.8831	0.1802	0.6621	0.075
Mof_H 	H 	0.8867	0.2237	0.761	0.01
Mof_H 	H 	0.0663	0.2798	0.6595	0.059
Mof_H 	H 	0.0712	0.2273	0.5635	0.031
Mof_H 	H 	0.8948	0.0669	0.4895	0.038
Mof_H 	H 	0.8914	0.1196	0.5864	0.061
Mof_H 	H 	0.0801	0.209	0.3131	0.055
Mof_H 	H 	0.131	0.2939	0.2871	0.061
Mof_H 	H 	0.8799	0.1021	0.2248	0.043
Mof_H 	H 	0.4863	0.2267	0.1456	0.015
Mof_H 	H 	0.5444	0.3259	0.2453	0.073
Mof_H 	H 	0.5181	0.221	0.3379	0.076
Mof_H 	H 	0.4627	0.1257	0.239	0.01
Mof_H 	H 	0.6203	0.4068	0.3405	0.061
Mof_H 	H 	0.6638	0.5077	0.4365	0.032
Mof_H 	H 	0.5774	0.4053	0.5105	0.037
Mof_H 	H 	0.5332	0.305	0.4136	0.061
Mof_H 	H 	0.8959	0.767	0.6869	0.046
Mof_H 	H 	0.0068	0.8439	0.7129	0.05
Mof_H 	H 	0.8773	0.6551	0.7752	0.032
Mof_H 	H 	0.9189	0.7733	0.2596	0.016
Mof_H 	H 	0.9194	0.6741	0.2185	0.076
Mof_H 	H 	0.1169	0.779	0.2971	0.077
Mof_H 	H 	0.1133	0.8743	0.337	0.006
Mof_H 	H 	0.9337	0.5932	0.2135	0.063
Mof_H 	H 	0.9288	0.4923	0.1561	0.034
Mof_H 	H 	0.1052	0.5947	0.1721	0.038
Mof_H 	H 	0.1086	0.695	0.2282	0.061
Mof_H 	H 	0.9199	0.233	0.1289	0.062
Mof_H 	H 	0.869	0.1561	0.1629	0.063
Mof_H 	H 	0.1201	0.3449	0.2222	0.044
Mof_C 	C 	0.81476	0.0404	0.30712	0.079
Mof_C 	C 	0.75563	0.04037	0.28294	-0.113
Mof_C 	C 	0.69696	0.98036	0.23424	0.057
Mof_C 	C 	0.7012	0.92461	0.21329	-0.136
Mof_C 	C 	0.76028	0.92718	0.23878	0.087
Mof_C 	C 	0.63242	0.97985	0.20523	0.019
Mof_C 	C 	0.62517	0.03142	0.23619	-0.083
Mof_C 	C 	0.56765	0.03449	0.20494	0.047
Mof_C 	C 	0.51749	0.98388	0.14201	-0.125
Mof_C 	C 	0.52418	0.93016	0.11014	0.033
Mof_C 	C 	0.58178	0.92791	0.14149	-0.091
Mof_C 	C 	0.45719	0.98701	0.10496	0.395
Mof_C 	C 	0.30779	0.98921	0.1091	0.384
Mof_C 	C 	0.27286	0.98184	0.14856	-0.094
Mof_C 	C 	0.28174	0.03737	0.19749	-0.017
Mof_C 	C 	0.24508	0.0319	0.23084	0.032
Mof_C 	C 	0.25431	0.08816	0.28063	-0.081
Mof_C 	C 	0.2292	0.91832	0.13392	0.018
Mof_C 	C 	0.73328	0.50764	0.69288	0.072
Mof_C 	C 	0.75743	0.47269	0.71706	-0.125
Mof_C 	C 	0.74612	0.46272	0.76576	0.067
Mof_C 	C 	0.71132	0.48791	0.78671	-0.14
Mof_C 	C 	0.6884	0.5215	0.76122	0.09
Mof_C 	C 	0.77462	0.42719	0.79477	0.03
Mof_C 	C 	0.79523	0.38898	0.76381	-0.097
Mof_C 	C 	0.82955	0.36271	0.79506	0.038
Mof_C 	C 	0.84187	0.37548	0.85799	-0.12
Mof_C 	C 	0.82002	0.41404	0.88986	0.034
Mof_C 	C 	0.78642	0.44029	0.85851	-0.094
Mof_C 	C 	0.88205	0.35223	0.89504	0.409
Mof_C 	C 	0.88011	0.19869	0.8909	0.389
Mof_C 	C 	0.83328	0.1243	0.85144	-0.064
Mof_C 	C 	0.83988	0.08425	0.80251	-0.061
Mof_C 	C 	0.80106	0.01424	0.76916	0.077
Mof_C 	C 	0.80753	0.97368	0.71937	-0.127
Mof_C 	C 	0.7844	0.09528	0.86608	-0.012
Mof_C 	C 	0.26672	0.9596	0.77436	0.066
Mof_C 	C 	0.24257	0.95963	0.71526	-0.138
Mof_C 	C 	0.25388	0.01964	0.7166	0.08
Mof_C 	C 	0.28868	0.07539	0.77659	-0.144
Mof_C 	C 	0.3116	0.07282	0.8331	0.095
Mof_C 	C 	0.22538	0.02015	0.65257	0.04
Mof_C 	C 	0.20477	0.96858	0.59375	-0.106
Mof_C 	C 	0.17045	0.96551	0.53316	0.027
Mof_C 	C 	0.15813	0.01612	0.53361	-0.107
Mof_C 	C 	0.17998	0.06984	0.59402	0.033
Mof_C 	C 	0.21358	0.07209	0.65387	-0.093
Mof_C 	C 	0.11795	0.01299	0.47018	0.421
Mof_C 	C 	0.11989	0.01079	0.31858	0.408
Mof_C 	C 	0.16672	0.01816	0.29102	-0.071
Mof_C 	C 	0.16012	0.96263	0.24437	-0.046
Mof_C 	C 	0.19894	0.9681	0.21318	0.021
Mof_C 	C 	0.19247	0.91184	0.16615	-0.085
Mof_C 	C 	0.2156	0.08168	0.31088	0.013
Mof_C 	C 	0.18524	0.49236	0.22564	0.072
Mof_C 	C 	0.24437	0.52731	0.28474	-0.125
Mof_C 	C 	0.30304	0.53728	0.2834	0.068
Mof_C 	C 	0.2988	0.51209	0.22341	-0.139
Mof_C 	C 	0.23972	0.4785	0.1669	0.09
Mof_C 	C 	0.36758	0.57281	0.34743	0.03
Mof_C 	C 	0.37483	0.61102	0.40625	-0.096
Mof_C 	C 	0.43235	0.63729	0.46684	0.037
Mof_C 	C 	0.48251	0.62452	0.46639	-0.118
Mof_C 	C 	0.47582	0.58596	0.40598	0.034
Mof_C 	C 	0.41822	0.55971	0.34613	-0.093
Mof_C 	C 	0.54281	0.64777	0.52982	0.408
Mof_C 	C 	0.69221	0.80131	0.68142	0.403
Mof_C 	C 	0.72714	0.8757	0.70898	-0.105
Mof_C 	C 	0.71826	0.91575	0.75563	-0.002
Mof_C 	C 	0.75492	0.98576	0.78682	-0.027
Mof_C 	C 	0.74569	0.02632	0.83385	-0.041
Mof_C 	C 	0.7708	0.90472	0.68912	0.041
Mof_C 	C 	0.77436	0.26672	0.9596	0.066
Mof_C 	C 	0.71526	0.24257	0.95963	-0.138
Mof_C 	C 	0.7166	0.25388	0.01964	0.08
Mof_C 	C 	0.77659	0.28868	0.07539	-0.144
Mof_C 	C 	0.8331	0.3116	0.07282	0.095
Mof_C 	C 	0.65257	0.22538	0.02015	0.04
Mof_C 	C 	0.59375	0.20477	0.96858	-0.106
Mof_C 	C 	0.53316	0.17045	0.96551	0.027
Mof_C 	C 	0.53361	0.15813	0.01612	-0.107
Mof_C 	C 	0.59402	0.17998	0.06984	0.033
Mof_C 	C 	0.65387	0.21358	0.07209	-0.093
Mof_C 	C 	0.47018	0.11795	0.01299	0.421
Mof_C 	C 	0.31858	0.11989	0.01079	0.408
Mof_C 	C 	0.29102	0.16672	0.01816	-0.071
Mof_C 	C 	0.24437	0.16012	0.96263	-0.046
Mof_C 	C 	0.21318	0.19894	0.9681	0.021
Mof_C 	C 	0.16615	0.19247	0.91184	-0.085
Mof_C 	C 	0.31088	0.2156	0.08168	0.013
Mof_C 	C 	0.22564	0.18524	0.49236	0.072
Mof_C 	C 	0.28474	0.24437	0.52731	-0.125
Mof_C 	C 	0.2834	0.30304	0.53728	0.068
Mof_C 	C 	0.22341	0.2988	0.51209	-0.139
Mof_C 	C 	0.1669	0.23972	0.4785	0.09
Mof_C 	C 	0.34743	0.36758	0.57281	0.03
Mof_C 	C 	0.40625	0.37483	0.61102	-0.096
Mof_C 	C 	0.46684	0.43235	0.63729	0.037
Mof_C 	C 	0.46639	0.48251	0.62452	-0.118
Mof_C 	C 	0.40598	0.47582	0.58596	0.034
Mof_C 	C 	0.34613	0.41822	0.55971	-0.093
Mof_C 	C 	0.52982	0.54281	0.64777	0.408
Mof_C 	C 	0.68142	0.69221	0.80131	0.403
Mof_C 	C 	0.70898	0.72714	0.8757	-0.105
Mof_C 	C 	0.75563	0.71826	0.91575	-0.002
Mof_C 	C 	0.78682	0.75492	0.98576	-0.027
Mof_C 	C 	0.83385	0.74569	0.02632	-0.041
Mof_C 	C 	0.68912	0.7708	0.90472	0.041
Mof_C 	C 	0.30712	0.81476	0.0404	0.079
Mof_C 	C 	0.28294	0.75563	0.04037	-0.113
Mof_C 	C 	0.23424	0.69696	0.98036	0.057
Mof_C 	C 	0.21329	0.7012	0.92461	-0.136
Mof_C 	C 	0.23878	0.76028	0.92718	0.087
Mof_C 	C 	0.20523	0.63242	0.97985	0.019
Mof_C 	C 	0.23619	0.62517	0.03142	-0.083
Mof_C 	C 	0.20494	0.56765	0.03449	0.047
Mof_C 	C 	0.14201	0.51749	0.98388	-0.125
Mof_C 	C 	0.11014	0.52418	0.93016	0.033
Mof_C 	C 	0.14149	0.58178	0.92791	-0.091
Mof_C 	C 	0.10496	0.45719	0.98701	0.395
Mof_C 	C 	0.1091	0.30779	0.98921	0.384
Mof_C 	C 	0.14856	0.27286	0.98184	-0.094
Mof_C 	C 	0.19749	0.28174	0.03737	-0.017
Mof_C 	C 	0.23084	0.24508	0.0319	0.032
Mof_C 	C 	0.28063	0.25431	0.08816	-0.081
Mof_C 	C 	0.13392	0.2292	0.91832	0.018
Mof_C 	C 	0.69288	0.73328	0.50764	0.072
Mof_C 	C 	0.71706	0.75743	0.47269	-0.125
Mof_C 	C 	0.76576	0.74612	0.46272	0.067
Mof_C 	C 	0.78671	0.71132	0.48791	-0.14
Mof_C 	C 	0.76122	0.6884	0.5215	0.09
Mof_C 	C 	0.79477	0.77462	0.42719	0.03
Mof_C 	C 	0.76381	0.79523	0.38898	-0.097
Mof_C 	C 	0.79506	0.82955	0.36271	0.038
Mof_C 	C 	0.85799	0.84187	0.37548	-0.12
Mof_C 	C 	0.88986	0.82002	0.41404	0.034
Mof_C 	C 	0.85851	0.78642	0.44029	-0.094
Mof_C 	C 	0.89504	0.88205	0.35223	0.409
Mof_C 	C 	0.8909	0.88011	0.19869	0.389
Mof_C 	C 	0.85144	0.83328	0.1243	-0.064
Mof_C 	C 	0.80251	0.83988	0.08425	-0.061
Mof_C 	C 	0.76916	0.80106	0.01424	0.077
Mof_C 	C 	0.71937	0.80753	0.97368	-0.127
Mof_C 	C 	0.86608	0.7844	0.09528	-0.012
Mof_C 	C 	0.50764	0.69288	0.73328	0.072
Mof_C 	C 	0.47269	0.71706	0.75743	-0.125
Mof_C 	C 	0.46272	0.76576	0.74612	0.067
Mof_C 	C 	0.48791	0.78671	0.71132	-0.14
Mof_C 	C 	0.5215	0.76122	0.6884	0.09
Mof_C 	C 	0.42719	0.79477	0.77462	0.03
Mof_C 	C 	0.38898	0.76381	0.79523	-0.097
Mof_C 	C 	0.36271	0.79506	0.82955	0.038
Mof_C 	C 	0.37548	0.85799	0.84187	-0.12
Mof_C 	C 	0.41404	0.88986	0.82002	0.034
Mof_C 	C 	0.44029	0.85851	0.78642	-0.094
Mof_C 	C 	0.35223	0.89504	0.88205	0.409
Mof_C 	C 	0.19869	0.8909	0.88011	0.389
Mof_C 	C 	0.1243	0.85144	0.83328	-0.064
Mof_C 	C 	0.08425	0.80251	0.83988	-0.061
Mof_C 	C 	0.01424	0.76916	0.80106	0.077
Mof_C 	C 	0.97368	0.71937	0.80753	-0.127
Mof_C 	C 	0.09528	0.86608	0.7844	-0.012
Mof_C 	C 	0.0404	0.30712	0.81476	0.079
Mof_C 	C 	0.04037	0.28294	0.75563	-0.113
Mof_C 	C 	0.98036	0.23424	0.69696	0.057
Mof_C 	C 	0.92461	0.21329	0.7012	-0.136
Mof_C 	C 	0.92718	0.23878	0.76028	0.087
Mof_C 	C 	0.97985	0.20523	0.63242	0.019
Mof_C 	C 	0.03142	0.23619	0.62517	-0.083
Mof_C 	C 	0.03449	0.20494	0.56765	0.047
Mof_C 	C 	0.98388	0.14201	0.51749	-0.125
Mof_C 	C 	0.93016	0.11014	0.52418	0.033
Mof_C 	C 	0.92791	0.14149	0.58178	-0.091
Mof_C 	C 	0.98701	0.10496	0.45719	0.395
Mof_C 	C 	0.98921	0.1091	0.30779	0.384
Mof_C 	C 	0.98184	0.14856	0.27286	-0.094
Mof_C 	C 	0.03737	0.19749	0.28174	-0.017
Mof_C 	C 	0.0319	0.23084	0.24508	0.032
Mof_C 	C 	0.08816	0.28063	0.25431	-0.081
Mof_C 	C 	0.91832	0.13392	0.2292	0.018
Mof_C 	C 	0.49236	0.22564	0.18524	0.072
Mof_C 	C 	0.52731	0.28474	0.24437	-0.125
Mof_C 	C 	0.53728	0.2834	0.30304	0.068
Mof_C 	C 	0.51209	0.22341	0.2988	-0.139
Mof_C 	C 	0.4785	0.1669	0.23972	0.09
Mof_C 	C 	0.57281	0.34743	0.36758	0.03
Mof_C 	C 	0.61102	0.40625	0.37483	-0.096
Mof_C 	C 	0.63729	0.46684	0.43235	0.037
Mof_C 	C 	0.62452	0.46639	0.48251	-0.118
Mof_C 	C 	0.58596	0.40598	0.47582	0.034
Mof_C 	C 	0.55971	0.34613	0.41822	-0.093
Mof_C 	C 	0.64777	0.52982	0.54281	0.408
Mof_C 	C 	0.80131	0.68142	0.69221	0.403
Mof_C 	C 	0.8757	0.70898	0.72714	-0.105
Mof_C 	C 	0.91575	0.75563	0.71826	-0.002
Mof_C 	C 	0.98576	0.78682	0.75492	-0.027
Mof_C 	C 	0.02632	0.83385	0.74569	-0.041
Mof_C 	C 	0.90472	0.68912	0.7708	0.041
Mof_C 	C 	0.9596	0.77436	0.26672	0.066
Mof_C 	C 	0.95963	0.71526	0.24257	-0.138
Mof_C 	C 	0.01964	0.7166	0.25388	0.08
Mof_C 	C 	0.07539	0.77659	0.28868	-0.144
Mof_C 	C 	0.07282	0.8331	0.3116	0.095
Mof_C 	C 	0.02015	0.65257	0.22538	0.04
Mof_C 	C 	0.96858	0.59375	0.20477	-0.106
Mof_C 	C 	0.96551	0.53316	0.17045	0.027
Mof_C 	C 	0.01612	0.53361	0.15813	-0.107
Mof_C 	C 	0.06984	0.59402	0.17998	0.033
Mof_C 	C 	0.07209	0.65387	0.21358	-0.093
Mof_C 	C 	0.01299	0.47018	0.11795	0.421
Mof_C 	C 	0.01079	0.31858	0.11989	0.408
Mof_C 	C 	0.01816	0.29102	0.16672	-0.071
Mof_C 	C 	0.96263	0.24437	0.16012	-0.046
Mof_C 	C 	0.9681	0.21318	0.19894	0.021
Mof_C 	C 	0.91184	0.16615	0.19247	-0.085
Mof_C 	C 	0.08168	0.31088	0.2156	0.013
Mof_N 	N 	0.81783	0.9836	0.28413	-0.214
Mof_N 	N 	0.69947	0.5337	0.71587	-0.208
Mof_N 	N 	0.30053	0.0164	0.83423	-0.203
Mof_N 	N 	0.18217	0.4663	0.16577	-0.208
Mof_N 	N 	0.83423	0.30053	0.0164	-0.203
Mof_N 	N 	0.16577	0.18217	0.4663	-0.208
Mof_N 	N 	0.28413	0.81783	0.9836	-0.214
Mof_N 	N 	0.71587	0.69947	0.5337	-0.208
Mof_N 	N 	0.5337	0.71587	0.69947	-0.208
Mof_N 	N 	0.9836	0.28413	0.81783	-0.214
Mof_N 	N 	0.4663	0.16577	0.18217	-0.208
Mof_N 	N 	0.0164	0.83423	0.30053	-0.203
Mof_O 	O 	0.45959	0.04021	0.12896	-0.412
Mof_O 	O 	0.41108	0.93478	0.05246	-0.415
Mof_O 	O 	0.34192	0.04619	0.12137	-0.399
Mof_O 	O 	0.29684	0.93679	0.06705	-0.411
Mof_O 	O 	0.91125	0.33063	0.87104	-0.427
Mof_O 	O 	0.88232	0.35862	0.94754	-0.427
Mof_O 	O 	0.92482	0.22055	0.87863	-0.413
Mof_O 	O 	0.86974	0.22979	0.93295	-0.42
Mof_O 	O 	0.08875	0.95979	0.41938	-0.433
Mof_O 	O 	0.11768	0.06522	0.4763	-0.421
Mof_O 	O 	0.07518	0.95381	0.29573	-0.419
Mof_O 	O 	0.13026	0.06321	0.36005	-0.417
Mof_O 	O 	0.54041	0.66937	0.58062	-0.423
Mof_O 	O 	0.58892	0.64138	0.5237	-0.42
Mof_O 	O 	0.65808	0.77945	0.70427	-0.413
Mof_O 	O 	0.70316	0.77021	0.63995	-0.419
Mof_O 	O 	0.41938	0.08875	0.95979	-0.433
Mof_O 	O 	0.4763	0.11768	0.06522	-0.421
Mof_O 	O 	0.29573	0.07518	0.95381	-0.419
Mof_O 	O 	0.36005	0.13026	0.06321	-0.417
Mof_O 	O 	0.58062	0.54041	0.66937	-0.423
Mof_O 	O 	0.5237	0.58892	0.64138	-0.42
Mof_O 	O 	0.70427	0.65808	0.77945	-0.413
Mof_O 	O 	0.63995	0.70316	0.77021	-0.419
Mof_O 	O 	0.12896	0.45959	0.04021	-0.412
Mof_O 	O 	0.05246	0.41108	0.93478	-0.415
Mof_O 	O 	0.12137	0.34192	0.04619	-0.399
Mof_O 	O 	0.06705	0.29684	0.93679	-0.411
Mof_O 	O 	0.87104	0.91125	0.33063	-0.427
Mof_O 	O 	0.94754	0.88232	0.35862	-0.427
Mof_O 	O 	0.87863	0.92482	0.22055	-0.413
Mof_O 	O 	0.93295	0.86974	0.22979	-0.42
Mof_O 	O 	0.33063	0.87104	0.91125	-0.427
Mof_O 	O 	0.35862	0.94754	0.88232	-0.427
Mof_O 	O 	0.22055	0.87863	0.92482	-0.413
Mof_O 	O 	0.22979	0.93295	0.86974	-0.42
Mof_O 	O 	0.04021	0.12896	0.45959	-0.412
Mof_O 	O 	0.93478	0.05246	0.41108	-0.415
Mof_O 	O 	0.04619	0.12137	0.34192	-0.399
Mof_O 	O 	0.93679	0.06705	0.29684	-0.411
Mof_O 	O 	0.66937	0.58062	0.54041	-0.423
Mof_O 	O 	0.64138	0.5237	0.58892	-0.42
Mof_O 	O 	0.77945	0.70427	0.65808	-0.413
Mof_O 	O 	0.77021	0.63995	0.70316	-0.419
Mof_O 	O 	0.95979	0.41938	0.08875	-0.433
Mof_O 	O 	0.06522	0.4763	0.11768	-0.421
Mof_O 	O 	0.95381	0.29573	0.07518	-0.419
Mof_O 	O 	0.06321	0.36005	0.13026	-0.417
Mof_O 	O 	0.34878	0	-0	-0.553
Mof_O 	O 	-0	0.34878	-0	-0.553
Mof_O 	O 	-3.93629e-17	-3.93629e-17	0.34878	-0.553
Mof_O 	O 	0.65122	0.65122	0.65122	-0.567
_end
