# CIF file generated by openbabel 3.1.0, see https://openbabel.org
data_I
_chemical_name_common 'image0'
_cell_length_a 19.109
_cell_length_b 19.109
_cell_length_c 24.317
_cell_angle_alpha 90
_cell_angle_beta 90
_cell_angle_gamma 90
_space_group_name_H-M_alt 'P 1'
_space_group_name_Hall 'P 1'
loop_
    _symmetry_equiv_pos_as_xyz
    x,y,z
loop_
    _atom_site_label
    _atom_site_type_symbol
    _atom_site_fract_x
    _atom_site_fract_y
    _atom_site_fract_z
    _atom_site_occupancy
    Cd1      Cd       0.15917    0.67808    0.00524    1.000
    O1       O        0.34313    0.65895    0.79908    1.000
    O2       O        0.33598    0.54468    0.80337    1.000
    O3       O        0.01854    0.65507    0.78347    1.000
    O4       O        0.02754    0.54008    0.78485    1.000
    N1       N        0.16981    0.62590    0.91784    1.000
    C1       C        0.31120    0.60450    0.81223    1.000
    C2       C        0.04960    0.59960    0.79694    1.000
    C3       C        0.11550    0.60640    0.83025    1.000
    C4       C        0.11140    0.61680    0.88690    1.000
    C5       C        0.04160    0.61990    0.91630    1.000
    H1       H        0.04530    0.59670    0.95110    1.000
    H2       H        0.00660    0.59720    0.89430    1.000
    H3       H        0.02870    0.66790    0.92200    1.000
    C6       C        0.23280    0.62130    0.89378    1.000
    C7       C        0.29570    0.62870    0.93070    1.000
    H4       H        0.30230    0.67710    0.93990    1.000
    H5       H        0.33650    0.61160    0.91200    1.000
    H6       H        0.28850    0.60210    0.96370    1.000
    C8       C        0.24040    0.60980    0.83720    1.000
    C9       C        0.18060    0.60360    0.80472    1.000
    C10      C        0.18500    0.59700    0.74360    1.000
    C11      C        0.18530    0.65540    0.71060    1.000
    H7       H        0.18430    0.69950    0.72670    1.000
    C12      C        0.18690    0.65020    0.65460    1.000
    H8       H        0.18710    0.69070    0.63340    1.000
    C13      C        0.18810    0.58820    0.62970    1.000
    H9       H        0.18810    0.58560    0.59150    1.000
    C14      C        0.18940    0.52910    0.65990    1.000
    H10      H        0.19200    0.48580    0.64250    1.000
    C15      C        0.18680    0.53260    0.71820    1.000
    H11      H        0.18620    0.49180    0.73900    1.000
    Cd2      Cd       0.65917    0.17808    0.50524    1.000
    O5       O        0.84313    0.15895    0.29908    1.000
    O6       O        0.83598    0.04468    0.30337    1.000
    O7       O        0.51854    0.15507    0.28347    1.000
    O8       O        0.52754    0.04008    0.28485    1.000
    N2       N        0.66981    0.12590    0.41784    1.000
    C16      C        0.81120    0.10450    0.31223    1.000
    C17      C        0.54960    0.09960    0.29694    1.000
    C18      C        0.61550    0.10640    0.33025    1.000
    C19      C        0.61140    0.11680    0.38690    1.000
    C20      C        0.54160    0.11990    0.41630    1.000
    H12      H        0.54530    0.09670    0.45110    1.000
    H13      H        0.50660    0.09720    0.39430    1.000
    H14      H        0.52870    0.16790    0.42200    1.000
    C21      C        0.73280    0.12130    0.39378    1.000
    C22      C        0.79570    0.12870    0.43070    1.000
    H15      H        0.80230    0.17710    0.43990    1.000
    H16      H        0.83650    0.11160    0.41200    1.000
    H17      H        0.78850    0.10210    0.46370    1.000
    C23      C        0.74040    0.10980    0.33720    1.000
    C24      C        0.68060    0.10360    0.30472    1.000
    C25      C        0.68500    0.09700    0.24360    1.000
    C26      C        0.68530    0.15540    0.21060    1.000
    H18      H        0.68430    0.19950    0.22670    1.000
    C27      C        0.68690    0.15020    0.15460    1.000
    H19      H        0.68710    0.19070    0.13340    1.000
    C28      C        0.68810    0.08820    0.12970    1.000
    H20      H        0.68810    0.08560    0.09150    1.000
    C29      C        0.68940    0.02910    0.15990    1.000
    H21      H        0.69200    0.98580    0.14250    1.000
    C30      C        0.68680    0.03260    0.21820    1.000
    H22      H        0.68620    0.99180    0.23900    1.000
    Cd3      Cd       0.34083    0.32192    0.50524    1.000
    O9       O        0.15687    0.34105    0.29908    1.000
    O10      O        0.16402    0.45532    0.30337    1.000
    O11      O        0.48146    0.34493    0.28347    1.000
    O12      O        0.47246    0.45992    0.28485    1.000
    N3       N        0.33019    0.37410    0.41784    1.000
    C31      C        0.18880    0.39550    0.31223    1.000
    C32      C        0.45040    0.40040    0.29694    1.000
    C33      C        0.38450    0.39360    0.33025    1.000
    C34      C        0.38860    0.38320    0.38690    1.000
    C35      C        0.45840    0.38010    0.41630    1.000
    H23      H        0.45470    0.40330    0.45110    1.000
    H24      H        0.49340    0.40280    0.39430    1.000
    H25      H        0.47130    0.33210    0.42200    1.000
    C36      C        0.26720    0.37870    0.39378    1.000
    C37      C        0.20430    0.37130    0.43070    1.000
    H26      H        0.19770    0.32290    0.43990    1.000
    H27      H        0.16350    0.38840    0.41200    1.000
    H28      H        0.21150    0.39790    0.46370    1.000
    C38      C        0.25960    0.39020    0.33720    1.000
    C39      C        0.31940    0.39640    0.30472    1.000
    C40      C        0.31500    0.40300    0.24360    1.000
    C41      C        0.31470    0.34460    0.21060    1.000
    H29      H        0.31570    0.30050    0.22670    1.000
    C42      C        0.31310    0.34980    0.15460    1.000
    H30      H        0.31290    0.30930    0.13340    1.000
    C43      C        0.31190    0.41180    0.12970    1.000
    H31      H        0.31190    0.41440    0.09150    1.000
    C44      C        0.31060    0.47090    0.15990    1.000
    H32      H        0.30800    0.51420    0.14250    1.000
    C45      C        0.31320    0.46740    0.21820    1.000
    H33      H        0.31380    0.50820    0.23900    1.000
    Cd4      Cd       0.84083    0.82192    0.00524    1.000
    O13      O        0.65687    0.84105    0.79908    1.000
    O14      O        0.66402    0.95532    0.80337    1.000
    O15      O        0.98146    0.84493    0.78347    1.000
    O16      O        0.97246    0.95992    0.78485    1.000
    N4       N        0.83019    0.87410    0.91784    1.000
    C46      C        0.68880    0.89550    0.81223    1.000
    C47      C        0.95040    0.90040    0.79694    1.000
    C48      C        0.88450    0.89360    0.83025    1.000
    C49      C        0.88860    0.88320    0.88690    1.000
    C50      C        0.95840    0.88010    0.91630    1.000
    H34      H        0.95470    0.90330    0.95110    1.000
    H35      H        0.99340    0.90280    0.89430    1.000
    H36      H        0.97130    0.83210    0.92200    1.000
    C51      C        0.76720    0.87870    0.89378    1.000
    C52      C        0.70430    0.87130    0.93070    1.000
    H37      H        0.69770    0.82290    0.93990    1.000
    H38      H        0.66350    0.88840    0.91200    1.000
    H39      H        0.71150    0.89790    0.96370    1.000
    C53      C        0.75960    0.89020    0.83720    1.000
    C54      C        0.81940    0.89640    0.80472    1.000
    C55      C        0.81500    0.90300    0.74360    1.000
    C56      C        0.81470    0.84460    0.71060    1.000
    H40      H        0.81570    0.80050    0.72670    1.000
    C57      C        0.81310    0.84980    0.65460    1.000
    H41      H        0.81290    0.80930    0.63340    1.000
    C58      C        0.81190    0.91180    0.62970    1.000
    H42      H        0.81190    0.91440    0.59150    1.000
    C59      C        0.81060    0.97090    0.65990    1.000
    H43      H        0.80800    0.01420    0.64250    1.000
    C60      C        0.81320    0.96740    0.71820    1.000
    H44      H        0.81380    0.00820    0.73900    1.000
    Cd5      Cd       0.07192    0.40917    0.25524    1.000
    O17      O        0.09105    0.59313    0.04908    1.000
    O18      O        0.20532    0.58598    0.05337    1.000
    O19      O        0.09493    0.26854    0.03347    1.000
    O20      O        0.20992    0.27754    0.03485    1.000
    N5       N        0.12410    0.41981    0.16784    1.000
    C61      C        0.14550    0.56120    0.06223    1.000
    C62      C        0.15040    0.29960    0.04694    1.000
    C63      C        0.14360    0.36550    0.08025    1.000
    C64      C        0.13320    0.36140    0.13690    1.000
    C65      C        0.13010    0.29160    0.16630    1.000
    H45      H        0.15330    0.29530    0.20110    1.000
    H46      H        0.15280    0.25660    0.14430    1.000
    H47      H        0.08210    0.27870    0.17200    1.000
    C66      C        0.12870    0.48280    0.14378    1.000
    C67      C        0.12130    0.54570    0.18070    1.000
    H48      H        0.07290    0.55230    0.18990    1.000
    H49      H        0.13840    0.58650    0.16200    1.000
    H50      H        0.14790    0.53850    0.21370    1.000
    C68      C        0.14020    0.49040    0.08720    1.000
    C69      C        0.14640    0.43060    0.05472    1.000
    C70      C        0.15300    0.43500    0.99360    1.000
    C71      C        0.09460    0.43530    0.96060    1.000
    H51      H        0.05050    0.43430    0.97670    1.000
    C72      C        0.09980    0.43690    0.90460    1.000
    H52      H        0.05930    0.43710    0.88340    1.000
    C73      C        0.16180    0.43810    0.87970    1.000
    H53      H        0.16440    0.43810    0.84150    1.000
    C74      C        0.22090    0.43940    0.90990    1.000
    H54      H        0.26420    0.44200    0.89250    1.000
    C75      C        0.21740    0.43680    0.96820    1.000
    H55      H        0.25820    0.43620    0.98900    1.000
    Cd6      Cd       0.57192    0.90917    0.75524    1.000
    O21      O        0.59105    0.09313    0.54908    1.000
    O22      O        0.70532    0.08598    0.55337    1.000
    O23      O        0.59493    0.76854    0.53347    1.000
    O24      O        0.70992    0.77754    0.53485    1.000
    N6       N        0.62410    0.91981    0.66784    1.000
    C76      C        0.64550    0.06120    0.56223    1.000
    C77      C        0.65040    0.79960    0.54694    1.000
    C78      C        0.64360    0.86550    0.58025    1.000
    C79      C        0.63320    0.86140    0.63690    1.000
    C80      C        0.63010    0.79160    0.66630    1.000
    H56      H        0.65330    0.79530    0.70110    1.000
    H57      H        0.65280    0.75660    0.64430    1.000
    H58      H        0.58210    0.77870    0.67200    1.000
    C81      C        0.62870    0.98280    0.64378    1.000
    C82      C        0.62130    0.04570    0.68070    1.000
    H59      H        0.57290    0.05230    0.68990    1.000
    H60      H        0.63840    0.08650    0.66200    1.000
    H61      H        0.64790    0.03850    0.71370    1.000
    C83      C        0.64020    0.99040    0.58720    1.000
    C84      C        0.64640    0.93060    0.55472    1.000
    C85      C        0.65300    0.93500    0.49360    1.000
    C86      C        0.59460    0.93530    0.46060    1.000
    H62      H        0.55050    0.93430    0.47670    1.000
    C87      C        0.59980    0.93690    0.40460    1.000
    H63      H        0.55930    0.93710    0.38340    1.000
    C88      C        0.66180    0.93810    0.37970    1.000
    H64      H        0.66440    0.93810    0.34150    1.000
    C89      C        0.72090    0.93940    0.40990    1.000
    H65      H        0.76420    0.94200    0.39250    1.000
    C90      C        0.71740    0.93680    0.46820    1.000
    H66      H        0.75820    0.93620    0.48900    1.000
    Cd7      Cd       0.42808    0.59083    0.75524    1.000
    O25      O        0.40895    0.40687    0.54908    1.000
    O26      O        0.29468    0.41402    0.55337    1.000
    O27      O        0.40507    0.73146    0.53347    1.000
    O28      O        0.29008    0.72246    0.53485    1.000
    N7       N        0.37590    0.58019    0.66784    1.000
    C91      C        0.35450    0.43880    0.56223    1.000
    C92      C        0.34960    0.70040    0.54694    1.000
    C93      C        0.35640    0.63450    0.58025    1.000
    C94      C        0.36680    0.63860    0.63690    1.000
    C95      C        0.36990    0.70840    0.66630    1.000
    H67      H        0.34670    0.70470    0.70110    1.000
    H68      H        0.34720    0.74340    0.64430    1.000
    H69      H        0.41790    0.72130    0.67200    1.000
    C96      C        0.37130    0.51720    0.64378    1.000
    C97      C        0.37870    0.45430    0.68070    1.000
    H70      H        0.42710    0.44770    0.68990    1.000
    H71      H        0.36160    0.41350    0.66200    1.000
    H72      H        0.35210    0.46150    0.71370    1.000
    C98      C        0.35980    0.50960    0.58720    1.000
    C99      C        0.35360    0.56940    0.55472    1.000
    C100     C        0.34700    0.56500    0.49360    1.000
    C101     C        0.40540    0.56470    0.46060    1.000
    H73      H        0.44950    0.56570    0.47670    1.000
    C102     C        0.40020    0.56310    0.40460    1.000
    H74      H        0.44070    0.56290    0.38340    1.000
    C103     C        0.33820    0.56190    0.37970    1.000
    H75      H        0.33560    0.56190    0.34150    1.000
    C104     C        0.27910    0.56060    0.40990    1.000
    H76      H        0.23580    0.55800    0.39250    1.000
    C105     C        0.28260    0.56320    0.46820    1.000
    H77      H        0.24180    0.56380    0.48900    1.000
    Cd8      Cd       0.92808    0.09083    0.25524    1.000
    O29      O        0.90895    0.90687    0.04908    1.000
    O30      O        0.79468    0.91402    0.05337    1.000
    O31      O        0.90507    0.23146    0.03347    1.000
    O32      O        0.79008    0.22246    0.03485    1.000
    N8       N        0.87590    0.08019    0.16784    1.000
    C106     C        0.85450    0.93880    0.06223    1.000
    C107     C        0.84960    0.20040    0.04694    1.000
    C108     C        0.85640    0.13450    0.08025    1.000
    C109     C        0.86680    0.13860    0.13690    1.000
    C110     C        0.86990    0.20840    0.16630    1.000
    H78      H        0.84670    0.20470    0.20110    1.000
    H79      H        0.84720    0.24340    0.14430    1.000
    H80      H        0.91790    0.22130    0.17200    1.000
    C111     C        0.87130    0.01720    0.14378    1.000
    C112     C        0.87870    0.95430    0.18070    1.000
    H81      H        0.92710    0.94770    0.18990    1.000
    H82      H        0.86160    0.91350    0.16200    1.000
    H83      H        0.85210    0.96150    0.21370    1.000
    C113     C        0.85980    0.00960    0.08720    1.000
    C114     C        0.85360    0.06940    0.05472    1.000
    C115     C        0.84700    0.06500    0.99360    1.000
    C116     C        0.90540    0.06470    0.96060    1.000
    H84      H        0.94950    0.06570    0.97670    1.000
    C117     C        0.90020    0.06310    0.90460    1.000
    H85      H        0.94070    0.06290    0.88340    1.000
    C118     C        0.83820    0.06190    0.87970    1.000
    H86      H        0.83560    0.06190    0.84150    1.000
    C119     C        0.77910    0.06060    0.90990    1.000
    H87      H        0.73580    0.05800    0.89250    1.000
    C120     C        0.78260    0.06320    0.96820    1.000
    H88      H        0.74180    0.06380    0.98900    1.000
    Cd9      Cd       0.84083    0.32192    0.99476    1.000
    O33      O        0.65687    0.34105    0.20092    1.000
    O34      O        0.66402    0.45532    0.19663    1.000
    O35      O        0.98146    0.34493    0.21653    1.000
    O36      O        0.97246    0.45992    0.21515    1.000
    N9       N        0.83019    0.37410    0.08216    1.000
    C121     C        0.68880    0.39550    0.18777    1.000
    C122     C        0.95040    0.40040    0.20306    1.000
    C123     C        0.88450    0.39360    0.16975    1.000
    C124     C        0.88860    0.38320    0.11310    1.000
    C125     C        0.95840    0.38010    0.08370    1.000
    H89      H        0.95470    0.40330    0.04890    1.000
    H90      H        0.99340    0.40280    0.10570    1.000
    H91      H        0.97130    0.33210    0.07800    1.000
    C126     C        0.76720    0.37870    0.10622    1.000
    C127     C        0.70430    0.37130    0.06930    1.000
    H92      H        0.69770    0.32290    0.06010    1.000
    H93      H        0.66350    0.38840    0.08800    1.000
    H94      H        0.71150    0.39790    0.03630    1.000
    C128     C        0.75960    0.39020    0.16280    1.000
    C129     C        0.81940    0.39640    0.19528    1.000
    C130     C        0.81500    0.40300    0.25640    1.000
    C131     C        0.81470    0.34460    0.28940    1.000
    H95      H        0.81570    0.30050    0.27330    1.000
    C132     C        0.81310    0.34980    0.34540    1.000
    H96      H        0.81290    0.30930    0.36660    1.000
    C133     C        0.81190    0.41180    0.37030    1.000
    H97      H        0.81190    0.41440    0.40850    1.000
    C134     C        0.81060    0.47090    0.34010    1.000
    H98      H        0.80800    0.51420    0.35750    1.000
    C135     C        0.81320    0.46740    0.28180    1.000
    H99      H        0.81380    0.50820    0.26100    1.000
    Cd10     Cd       0.34083    0.82192    0.49476    1.000
    O37      O        0.15687    0.84105    0.70092    1.000
    O38      O        0.16402    0.95532    0.69663    1.000
    O39      O        0.48146    0.84493    0.71653    1.000
    O40      O        0.47246    0.95992    0.71515    1.000
    N10      N        0.33019    0.87410    0.58216    1.000
    C136     C        0.18880    0.89550    0.68777    1.000
    C137     C        0.45040    0.90040    0.70306    1.000
    C138     C        0.38450    0.89360    0.66975    1.000
    C139     C        0.38860    0.88320    0.61310    1.000
    C140     C        0.45840    0.88010    0.58370    1.000
    H100     H        0.45470    0.90330    0.54890    1.000
    H101     H        0.49340    0.90280    0.60570    1.000
    H102     H        0.47130    0.83210    0.57800    1.000
    C141     C        0.26720    0.87870    0.60622    1.000
    C142     C        0.20430    0.87130    0.56930    1.000
    H103     H        0.19770    0.82290    0.56010    1.000
    H104     H        0.16350    0.88840    0.58800    1.000
    H105     H        0.21150    0.89790    0.53630    1.000
    C143     C        0.25960    0.89020    0.66280    1.000
    C144     C        0.31940    0.89640    0.69528    1.000
    C145     C        0.31500    0.90300    0.75640    1.000
    C146     C        0.31470    0.84460    0.78940    1.000
    H106     H        0.31570    0.80050    0.77330    1.000
    C147     C        0.31310    0.84980    0.84540    1.000
    H107     H        0.31290    0.80930    0.86660    1.000
    C148     C        0.31190    0.91180    0.87030    1.000
    H108     H        0.31190    0.91440    0.90850    1.000
    C149     C        0.31060    0.97090    0.84010    1.000
    H109     H        0.30800    0.01420    0.85750    1.000
    C150     C        0.31320    0.96740    0.78180    1.000
    H110     H        0.31380    0.00820    0.76100    1.000
    Cd11     Cd       0.65917    0.67808    0.49476    1.000
    O41      O        0.84313    0.65895    0.70092    1.000
    O42      O        0.83598    0.54468    0.69663    1.000
    O43      O        0.51854    0.65507    0.71653    1.000
    O44      O        0.52754    0.54008    0.71515    1.000
    N11      N        0.66981    0.62590    0.58216    1.000
    C151     C        0.81120    0.60450    0.68777    1.000
    C152     C        0.54960    0.59960    0.70306    1.000
    C153     C        0.61550    0.60640    0.66975    1.000
    C154     C        0.61140    0.61680    0.61310    1.000
    C155     C        0.54160    0.61990    0.58370    1.000
    H111     H        0.54530    0.59670    0.54890    1.000
    H112     H        0.50660    0.59720    0.60570    1.000
    H113     H        0.52870    0.66790    0.57800    1.000
    C156     C        0.73280    0.62130    0.60622    1.000
    C157     C        0.79570    0.62870    0.56930    1.000
    H114     H        0.80230    0.67710    0.56010    1.000
    H115     H        0.83650    0.61160    0.58800    1.000
    H116     H        0.78850    0.60210    0.53630    1.000
    C158     C        0.74040    0.60980    0.66280    1.000
    C159     C        0.68060    0.60360    0.69528    1.000
    C160     C        0.68500    0.59700    0.75640    1.000
    C161     C        0.68530    0.65540    0.78940    1.000
    H117     H        0.68430    0.69950    0.77330    1.000
    C162     C        0.68690    0.65020    0.84540    1.000
    H118     H        0.68710    0.69070    0.86660    1.000
    C163     C        0.68810    0.58820    0.87030    1.000
    H119     H        0.68810    0.58560    0.90850    1.000
    C164     C        0.68940    0.52910    0.84010    1.000
    H120     H        0.69200    0.48580    0.85750    1.000
    C165     C        0.68680    0.53260    0.78180    1.000
    H121     H        0.68620    0.49180    0.76100    1.000
    Cd12     Cd       0.15917    0.17808    0.99476    1.000
    O45      O        0.34313    0.15895    0.20092    1.000
    O46      O        0.33598    0.04468    0.19663    1.000
    O47      O        0.01854    0.15507    0.21653    1.000
    O48      O        0.02754    0.04008    0.21515    1.000
    N12      N        0.16981    0.12590    0.08216    1.000
    C166     C        0.31120    0.10450    0.18777    1.000
    C167     C        0.04960    0.09960    0.20306    1.000
    C168     C        0.11550    0.10640    0.16975    1.000
    C169     C        0.11140    0.11680    0.11310    1.000
    C170     C        0.04160    0.11990    0.08370    1.000
    H122     H        0.04530    0.09670    0.04890    1.000
    H123     H        0.00660    0.09720    0.10570    1.000
    H124     H        0.02870    0.16790    0.07800    1.000
    C171     C        0.23280    0.12130    0.10622    1.000
    C172     C        0.29570    0.12870    0.06930    1.000
    H125     H        0.30230    0.17710    0.06010    1.000
    H126     H        0.33650    0.11160    0.08800    1.000
    H127     H        0.28850    0.10210    0.03630    1.000
    C173     C        0.24040    0.10980    0.16280    1.000
    C174     C        0.18060    0.10360    0.19528    1.000
    C175     C        0.18500    0.09700    0.25640    1.000
    C176     C        0.18530    0.15540    0.28940    1.000
    H128     H        0.18430    0.19950    0.27330    1.000
    C177     C        0.18690    0.15020    0.34540    1.000
    H129     H        0.18710    0.19070    0.36660    1.000
    C178     C        0.18810    0.08820    0.37030    1.000
    H130     H        0.18810    0.08560    0.40850    1.000
    C179     C        0.18940    0.02910    0.34010    1.000
    H131     H        0.19200    0.98580    0.35750    1.000
    C180     C        0.18680    0.03260    0.28180    1.000
    H132     H        0.18620    0.99180    0.26100    1.000
    Cd13     Cd       0.92808    0.59083    0.74476    1.000
    O49      O        0.90895    0.40687    0.95092    1.000
    O50      O        0.79468    0.41402    0.94663    1.000
    O51      O        0.90507    0.73146    0.96653    1.000
    O52      O        0.79008    0.72246    0.96515    1.000
    N13      N        0.87590    0.58019    0.83216    1.000
    C181     C        0.85450    0.43880    0.93777    1.000
    C182     C        0.84960    0.70040    0.95306    1.000
    C183     C        0.85640    0.63450    0.91975    1.000
    C184     C        0.86680    0.63860    0.86310    1.000
    C185     C        0.86990    0.70840    0.83370    1.000
    H133     H        0.84670    0.70470    0.79890    1.000
    H134     H        0.84720    0.74340    0.85570    1.000
    H135     H        0.91790    0.72130    0.82800    1.000
    C186     C        0.87130    0.51720    0.85622    1.000
    C187     C        0.87870    0.45430    0.81930    1.000
    H136     H        0.92710    0.44770    0.81010    1.000
    H137     H        0.86160    0.41350    0.83800    1.000
    H138     H        0.85210    0.46150    0.78630    1.000
    C188     C        0.85980    0.50960    0.91280    1.000
    C189     C        0.85360    0.56940    0.94528    1.000
    C190     C        0.84700    0.56500    0.00640    1.000
    C191     C        0.90540    0.56470    0.03940    1.000
    H139     H        0.94950    0.56570    0.02330    1.000
    C192     C        0.90020    0.56310    0.09540    1.000
    H140     H        0.94070    0.56290    0.11660    1.000
    C193     C        0.83820    0.56190    0.12030    1.000
    H141     H        0.83560    0.56190    0.15850    1.000
    C194     C        0.77910    0.56060    0.09010    1.000
    H142     H        0.73580    0.55800    0.10750    1.000
    C195     C        0.78260    0.56320    0.03180    1.000
    H143     H        0.74180    0.56380    0.01100    1.000
    Cd14     Cd       0.42808    0.09083    0.24476    1.000
    O53      O        0.40895    0.90687    0.45092    1.000
    O54      O        0.29468    0.91402    0.44663    1.000
    O55      O        0.40507    0.23146    0.46653    1.000
    O56      O        0.29008    0.22246    0.46515    1.000
    N14      N        0.37590    0.08019    0.33216    1.000
    C196     C        0.35450    0.93880    0.43777    1.000
    C197     C        0.34960    0.20040    0.45306    1.000
    C198     C        0.35640    0.13450    0.41975    1.000
    C199     C        0.36680    0.13860    0.36310    1.000
    C200     C        0.36990    0.20840    0.33370    1.000
    H144     H        0.34670    0.20470    0.29890    1.000
    H145     H        0.34720    0.24340    0.35570    1.000
    H146     H        0.41790    0.22130    0.32800    1.000
    C201     C        0.37130    0.01720    0.35622    1.000
    C202     C        0.37870    0.95430    0.31930    1.000
    H147     H        0.42710    0.94770    0.31010    1.000
    H148     H        0.36160    0.91350    0.33800    1.000
    H149     H        0.35210    0.96150    0.28630    1.000
    C203     C        0.35980    0.00960    0.41280    1.000
    C204     C        0.35360    0.06940    0.44528    1.000
    C205     C        0.34700    0.06500    0.50640    1.000
    C206     C        0.40540    0.06470    0.53940    1.000
    H150     H        0.44950    0.06570    0.52330    1.000
    C207     C        0.40020    0.06310    0.59540    1.000
    H151     H        0.44070    0.06290    0.61660    1.000
    C208     C        0.33820    0.06190    0.62030    1.000
    H152     H        0.33560    0.06190    0.65850    1.000
    C209     C        0.27910    0.06060    0.59010    1.000
    H153     H        0.23580    0.05800    0.60750    1.000
    C210     C        0.28260    0.06320    0.53180    1.000
    H154     H        0.24180    0.06380    0.51100    1.000
    Cd15     Cd       0.57192    0.40917    0.24476    1.000
    O57      O        0.59105    0.59313    0.45092    1.000
    O58      O        0.70532    0.58598    0.44663    1.000
    O59      O        0.59493    0.26854    0.46653    1.000
    O60      O        0.70992    0.27754    0.46515    1.000
    N15      N        0.62410    0.41981    0.33216    1.000
    C211     C        0.64550    0.56120    0.43777    1.000
    C212     C        0.65040    0.29960    0.45306    1.000
    C213     C        0.64360    0.36550    0.41975    1.000
    C214     C        0.63320    0.36140    0.36310    1.000
    C215     C        0.63010    0.29160    0.33370    1.000
    H155     H        0.65330    0.29530    0.29890    1.000
    H156     H        0.65280    0.25660    0.35570    1.000
    H157     H        0.58210    0.27870    0.32800    1.000
    C216     C        0.62870    0.48280    0.35622    1.000
    C217     C        0.62130    0.54570    0.31930    1.000
    H158     H        0.57290    0.55230    0.31010    1.000
    H159     H        0.63840    0.58650    0.33800    1.000
    H160     H        0.64790    0.53850    0.28630    1.000
    C218     C        0.64020    0.49040    0.41280    1.000
    C219     C        0.64640    0.43060    0.44528    1.000
    C220     C        0.65300    0.43500    0.50640    1.000
    C221     C        0.59460    0.43530    0.53940    1.000
    H161     H        0.55050    0.43430    0.52330    1.000
    C222     C        0.59980    0.43690    0.59540    1.000
    H162     H        0.55930    0.43710    0.61660    1.000
    C223     C        0.66180    0.43810    0.62030    1.000
    H163     H        0.66440    0.43810    0.65850    1.000
    C224     C        0.72090    0.43940    0.59010    1.000
    H164     H        0.76420    0.44200    0.60750    1.000
    C225     C        0.71740    0.43680    0.53180    1.000
    H165     H        0.75820    0.43620    0.51100    1.000
    Cd16     Cd       0.07192    0.90917    0.74476    1.000
    O61      O        0.09105    0.09313    0.95092    1.000
    O62      O        0.20532    0.08598    0.94663    1.000
    O63      O        0.09493    0.76854    0.96653    1.000
    O64      O        0.20992    0.77754    0.96515    1.000
    N16      N        0.12410    0.91981    0.83216    1.000
    C226     C        0.14550    0.06120    0.93777    1.000
    C227     C        0.15040    0.79960    0.95306    1.000
    C228     C        0.14360    0.86550    0.91975    1.000
    C229     C        0.13320    0.86140    0.86310    1.000
    C230     C        0.13010    0.79160    0.83370    1.000
    H166     H        0.15330    0.79530    0.79890    1.000
    H167     H        0.15280    0.75660    0.85570    1.000
    H168     H        0.08210    0.77870    0.82800    1.000
    C231     C        0.12870    0.98280    0.85622    1.000
    C232     C        0.12130    0.04570    0.81930    1.000
    H169     H        0.07290    0.05230    0.81010    1.000
    H170     H        0.13840    0.08650    0.83800    1.000
    H171     H        0.14790    0.03850    0.78630    1.000
    C233     C        0.14020    0.99040    0.91280    1.000
    C234     C        0.14640    0.93060    0.94528    1.000
    C235     C        0.15300    0.93500    0.00640    1.000
    C236     C        0.09460    0.93530    0.03940    1.000
    H172     H        0.05050    0.93430    0.02330    1.000
    C237     C        0.09980    0.93690    0.09540    1.000
    H173     H        0.05930    0.93710    0.11660    1.000
    C238     C        0.16180    0.93810    0.12030    1.000
    H174     H        0.16440    0.93810    0.15850    1.000
    C239     C        0.22090    0.93940    0.09010    1.000
    H175     H        0.26420    0.94200    0.10750    1.000
    C240     C        0.21740    0.93680    0.03180    1.000
    H176     H        0.25820    0.93620    0.01100    1.000
