# CIF file generated by openbabel 3.1.0, see https://openbabel.org
data_I
_chemical_name_common 'image0'
_cell_length_a 20.6721
_cell_length_b 14.7515
_cell_length_c 13.1281
_cell_angle_alpha 90.002
_cell_angle_beta 67.1358
_cell_angle_gamma 90.0004
_space_group_name_H-M_alt 'P 1'
_space_group_name_Hall 'P 1'
loop_
    _symmetry_equiv_pos_as_xyz
    x,y,z
loop_
    _atom_site_label
    _atom_site_type_symbol
    _atom_site_fract_x
    _atom_site_fract_y
    _atom_site_fract_z
    _atom_site_occupancy
    H1       H        0.16578    0.39801    0.19427    1.000
    H2       H        0.29473    0.42257    0.14225    1.000
    C1       C        0.17797    0.36153    0.02883    1.000
    C2       C        0.20307    0.38818    0.10949    1.000
    C3       C        0.10220    0.33873    0.06193    1.000
    C4       C        0.27466    0.40084    0.08082    1.000
    O1       O        0.08127    0.31732    0.98569    1.000
    O2       O        0.06378    0.33806    0.16508    1.000
    H3       H        0.66592    0.14926    0.19418    1.000
    H4       H        0.79502    0.17258    0.14215    1.000
    C5       C        0.67800    0.11294    0.02875    1.000
    C6       C        0.70318    0.13919    0.10944    1.000
    C7       C        0.60216    0.09081    0.06186    1.000
    C8       C        0.77483    0.15112    0.08079    1.000
    O3       O        0.58117    0.06965    0.98563    1.000
    O4       O        0.56374    0.09038    0.16501    1.000
    H5       H        0.83426    0.39830    0.05574    1.000
    H6       H        0.70532    0.42282    0.10773    1.000
    C9       C        0.82204    0.36159    0.22113    1.000
    C10      C        0.79696    0.38835    0.14049    1.000
    C11      C        0.89780    0.33877    0.18805    1.000
    C12      C        0.72536    0.40100    0.16914    1.000
    O5       O        0.91873    0.31736    0.26430    1.000
    O6       O        0.93623    0.33808    0.08491    1.000
    H7       H        0.33411    0.14936    0.05579    1.000
    H8       H        0.20501    0.17267    0.10778    1.000
    C13      C        0.32200    0.11295    0.22120    1.000
    C14      C        0.29684    0.13925    0.14051    1.000
    C15      C        0.39784    0.09085    0.18812    1.000
    C16      C        0.22519    0.15118    0.16914    1.000
    O7       O        0.41882    0.06967    0.26436    1.000
    O8       O        0.43627    0.09041    0.08498    1.000
    H9       H        0.83410    0.10070    0.30580    1.000
    H10      H        0.70500    0.07735    0.35782    1.000
    C17      C        0.82200    0.13701    0.47124    1.000
    C18      C        0.79682    0.11078    0.39054    1.000
    C19      C        0.89784    0.15912    0.43814    1.000
    C20      C        0.72518    0.09882    0.41918    1.000
    O9       O        0.91885    0.18021    0.51437    1.000
    O10      O        0.93625    0.15957    0.33499    1.000
    H11      H        0.33412    0.35065    0.30586    1.000
    H12      H        0.20518    0.32610    0.35785    1.000
    C21      C        0.32192    0.38715    0.47129    1.000
    C22      C        0.29682    0.36053    0.39061    1.000
    C23      C        0.39772    0.40970    0.43815    1.000
    C24      C        0.22523    0.34788    0.41927    1.000
    O11      O        0.41876    0.43088    0.51434    1.000
    O12      O        0.43610    0.41034    0.33498    1.000
    H13      H        0.16589    0.10066    0.44407    1.000
    H14      H        0.29500    0.07735    0.39209    1.000
    C25      C        0.17800    0.13704    0.27866    1.000
    C26      C        0.20317    0.11077    0.35935    1.000
    C27      C        0.10216    0.15913    0.31180    1.000
    C28      C        0.27481    0.09884    0.33073    1.000
    O13      O        0.08115    0.18026    0.23558    1.000
    O14      O        0.06375    0.15957    0.41495    1.000
    H15      H        0.66584    0.35039    0.44403    1.000
    H16      H        0.79478    0.32590    0.39207    1.000
    C29      C        0.67806    0.38709    0.27865    1.000
    C30      C        0.70315    0.36038    0.35931    1.000
    C31      C        0.60225    0.40966    0.31180    1.000
    C32      C        0.77474    0.34775    0.33067    1.000
    O15      O        0.58123    0.43091    0.23563    1.000
    O16      O        0.56386    0.41023    0.41497    1.000
    F1       F        0.99999    0.30364    0.37502    1.000
    F2       F        0.49999    0.05619    0.37502    1.000
    F3       F        0.99999    0.19375    0.12501    1.000
    F4       F        0.49998    0.44427    0.12501    1.000
    Al1      Al       0.50001    0.00118    0.25003    1.000
    Al2      Al       0.99996    0.24878    0.24997    1.000
    Al3      Al       0.49997    0.00118    0.99998    1.000
    Al4      Al       0.00002    0.24876    0.00004    1.000
    H17      H        0.16589    0.90001    0.19421    1.000
    H18      H        0.29491    0.92397    0.14220    1.000
    C33      C        0.17802    0.86365    0.02877    1.000
    C34      C        0.20317    0.89006    0.10945    1.000
    C35      C        0.10221    0.84124    0.06188    1.000
    C36      C        0.27479    0.90238    0.08080    1.000
    O17      O        0.08121    0.82005    0.98566    1.000
    O18      O        0.06380    0.84067    0.16504    1.000
    H19      H        0.66579    0.64899    0.19428    1.000
    H20      H        0.79466    0.67400    0.14225    1.000
    C37      C        0.67800    0.61244    0.02883    1.000
    C38      C        0.70308    0.63922    0.10949    1.000
    C39      C        0.60224    0.58947    0.06195    1.000
    C40      C        0.77466    0.65215    0.08081    1.000
    O19      O        0.58127    0.56810    0.98575    1.000
    O20      O        0.56385    0.58868    0.16511    1.000
    H21      H        0.83411    0.90006    0.05576    1.000
    H22      H        0.70510    0.92401    0.10773    1.000
    C41      C        0.82196    0.86362    0.22119    1.000
    C42      C        0.79682    0.89006    0.14050    1.000
    C43      C        0.89778    0.84122    0.18810    1.000
    C44      C        0.72521    0.90239    0.16914    1.000
    O21      O        0.91877    0.82001    0.26432    1.000
    O22      O        0.93620    0.84068    0.08495    1.000
    H23      H        0.33424    0.64895    0.05566    1.000
    H24      H        0.20537    0.67394    0.10764    1.000
    C45      C        0.32202    0.61247    0.22112    1.000
    C46      C        0.29694    0.63921    0.14045    1.000
    C47      C        0.39777    0.58951    0.18803    1.000
    C48      C        0.22537    0.65211    0.16910    1.000
    O23      O        0.41874    0.56815    0.26424    1.000
    O24      O        0.43617    0.58870    0.08487    1.000
    H25      H        0.83423    0.60190    0.30574    1.000
    H26      H        0.70536    0.57687    0.35774    1.000
    C49      C        0.82200    0.63842    0.47119    1.000
    C50      C        0.79693    0.61166    0.39052    1.000
    C51      C        0.89776    0.66140    0.43807    1.000
    C52      C        0.72536    0.59873    0.41919    1.000
    O25      O        0.91873    0.68277    0.51428    1.000
    O26      O        0.93615    0.66217    0.33490    1.000
    H27      H        0.33418    0.85214    0.30576    1.000
    H28      H        0.20516    0.82813    0.35777    1.000
    C53      C        0.32204    0.88855    0.47120    1.000
    C54      C        0.29690    0.86207    0.39053    1.000
    C55      C        0.39782    0.91120    0.43808    1.000
    C56      C        0.22528    0.84972    0.41918    1.000
    O27      O        0.41878    0.93251    0.51432    1.000
    O28      O        0.43623    0.91188    0.33493    1.000
    H29      H        0.16581    0.60209    0.44415    1.000
    H30      H        0.29469    0.57709    0.39216    1.000
    C57      C        0.17804    0.63856    0.27869    1.000
    C58      C        0.20312    0.61182    0.35936    1.000
    C59      C        0.10227    0.66147    0.31182    1.000
    C60      C        0.27469    0.59892    0.33070    1.000
    O29      O        0.08130    0.68285    0.23562    1.000
    O30      O        0.06388    0.66220    0.41499    1.000
    H31      H        0.66580    0.85210    0.44413    1.000
    H32      H        0.79482    0.82812    0.39214    1.000
    C61      C        0.67795    0.88854    0.27870    1.000
    C62      C        0.70309    0.86205    0.35937    1.000
    C63      C        0.60217    0.91120    0.31185    1.000
    C64      C        0.77471    0.84970    0.33073    1.000
    O31      O        0.58121    0.93257    0.23563    1.000
    O32      O        0.56376    0.91183    0.41500    1.000
    F5       F        0.99999    0.80637    0.37501    1.000
    F6       F        0.49999    0.55437    0.37502    1.000
    F7       F        0.00000    0.69656    0.12499    1.000
    F8       F        0.49997    0.94630    0.12501    1.000
    Al5      Al       0.49997    0.49945    0.24997    1.000
    Al6      Al       0.00001    0.75144    0.24999    1.000
    Al7      Al       0.50002    0.49944    0.00004    1.000
    Al8      Al       0.99999    0.75146    0.99999    1.000
    H33      H        0.16574    0.39814    0.69427    1.000
    H34      H        0.29468    0.42270    0.64227    1.000
    C65      C        0.17794    0.36158    0.52884    1.000
    C66      C        0.20303    0.38828    0.60950    1.000
    C67      C        0.10218    0.33875    0.56195    1.000
    C68      C        0.27463    0.40094    0.58084    1.000
    O33      O        0.08125    0.31733    0.48571    1.000
    O34      O        0.06377    0.33804    0.66510    1.000
    H35      H        0.66589    0.14927    0.69415    1.000
    H36      H        0.79500    0.17260    0.64214    1.000
    C69      C        0.67800    0.11291    0.52872    1.000
    C70      C        0.70317    0.13917    0.60942    1.000
    C71      C        0.60217    0.09075    0.56184    1.000
    C72      C        0.77481    0.15113    0.58077    1.000
    O35      O        0.58116    0.06960    0.48562    1.000
    O36      O        0.56376    0.09030    0.66499    1.000
    H37      H        0.83421    0.39782    0.55580    1.000
    H38      H        0.70526    0.42240    0.60781    1.000
    C73      C        0.82202    0.36150    0.72128    1.000
    C74      C        0.79692    0.38807    0.64059    1.000
    C75      C        0.89778    0.33868    0.68816    1.000
    C76      C        0.72533    0.40074    0.66925    1.000
    O37      O        0.91874    0.31730    0.76438    1.000
    O38      O        0.93619    0.33799    0.58500    1.000
    H39      H        0.33408    0.14919    0.55594    1.000
    H40      H        0.20498    0.17253    0.60796    1.000
    C77      C        0.32200    0.11290    0.72137    1.000
    C78      C        0.29681    0.13915    0.64068    1.000
    C79      C        0.39783    0.09076    0.68822    1.000
    C80      C        0.22517    0.15109    0.66933    1.000
    O39      O        0.41884    0.06960    0.76443    1.000
    O40      O        0.43622    0.09028    0.58507    1.000
    H41      H        0.83410    0.10071    0.80583    1.000
    H42      H        0.70499    0.07740    0.85784    1.000
    C81      C        0.82201    0.13702    0.97126    1.000
    C82      C        0.79683    0.11079    0.89056    1.000
    C83      C        0.89784    0.15911    0.93816    1.000
    C84      C        0.72518    0.09886    0.91921    1.000
    O41      O        0.91883    0.18027    0.01441    1.000
    O42      O        0.93628    0.15951    0.83502    1.000
    H43      H        0.33413    0.35060    0.80583    1.000
    H44      H        0.20520    0.32606    0.85784    1.000
    C85      C        0.32195    0.38708    0.97126    1.000
    C86      C        0.29684    0.36047    0.89059    1.000
    C87      C        0.39775    0.40967    0.93814    1.000
    C88      C        0.22525    0.34783    0.91926    1.000
    O43      O        0.41876    0.43092    0.01432    1.000
    O44      O        0.43614    0.41026    0.83497    1.000
    H45      H        0.16590    0.10076    0.94431    1.000
    H46      H        0.29500    0.07743    0.89230    1.000
    C89      C        0.17799    0.13702    0.77887    1.000
    C90      C        0.20317    0.11081    0.85957    1.000
    C91      C        0.10215    0.15910    0.81193    1.000
    C92      C        0.27482    0.09888    0.83093    1.000
    O45      O        0.08117    0.18024    0.73568    1.000
    O46      O        0.06371    0.15952    0.91507    1.000
    H47      H        0.66586    0.35074    0.94431    1.000
    H48      H        0.79480    0.32619    0.89233    1.000
    C93      C        0.67805    0.38706    0.77883    1.000
    C94      C        0.70315    0.36055    0.85954    1.000
    C95      C        0.60225    0.40965    0.81193    1.000
    C96      C        0.77475    0.34789    0.83088    1.000
    O47      O        0.58124    0.43084    0.73572    1.000
    O48      O        0.56386    0.41029    0.91509    1.000
    F9       F        0.00001    0.30363    0.87501    1.000
    F10      F        0.50001    0.05619    0.87499    1.000
    F11      F        0.00001    0.19373    0.62501    1.000
    F12      F        0.50001    0.44420    0.62499    1.000
    Al9      Al       0.50004    0.00110    0.75004    1.000
    Al10     Al       0.99998    0.24873    0.75000    1.000
    Al11     Al       0.49997    0.00111    0.49998    1.000
    Al12     Al       0.00002    0.24875    0.50004    1.000
    H49      H        0.16589    0.90001    0.69417    1.000
    H50      H        0.29490    0.92398    0.64218    1.000
    C97      C        0.17803    0.86360    0.52874    1.000
    C98      C        0.20317    0.89004    0.60942    1.000
    C99      C        0.10221    0.84120    0.56186    1.000
    C100     C        0.27479    0.90237    0.58077    1.000
    O49      O        0.08121    0.81999    0.48565    1.000
    O50      O        0.06382    0.84063    0.66502    1.000
    H51      H        0.66581    0.64880    0.69423    1.000
    H52      H        0.79468    0.67381    0.64224    1.000
    C101     C        0.67803    0.61229    0.52878    1.000
    C102     C        0.70311    0.63905    0.60944    1.000
    C103     C        0.60227    0.58936    0.56189    1.000
    C104     C        0.77468    0.65198    0.58078    1.000
    O51      O        0.58129    0.56800    0.48570    1.000
    O52      O        0.56388    0.58857    0.66505    1.000
    H53      H        0.83408    0.89990    0.55592    1.000
    H54      H        0.70506    0.92390    0.60794    1.000
    C105     C        0.82195    0.86355    0.72135    1.000
    C106     C        0.79679    0.88995    0.64067    1.000
    C107     C        0.89777    0.84114    0.68820    1.000
    C108     C        0.72518    0.90230    0.66934    1.000
    O53      O        0.91879    0.81997    0.76439    1.000
    O54      O        0.93615    0.84056    0.58503    1.000
    H55      H        0.33424    0.64901    0.55580    1.000
    H56      H        0.20537    0.67404    0.60782    1.000
    C109     C        0.32201    0.61238    0.72122    1.000
    C110     C        0.29694    0.63922    0.64058    1.000
    C111     C        0.39778    0.58942    0.68809    1.000
    C112     C        0.22537    0.65215    0.66925    1.000
    O55      O        0.41876    0.56804    0.76428    1.000
    O56      O        0.43616    0.58862    0.58493    1.000
    H57      H        0.83420    0.60200    0.80579    1.000
    H58      H        0.70532    0.57698    0.85781    1.000
    C113     C        0.82198    0.63855    0.97123    1.000
    C114     C        0.79690    0.61177    0.89058    1.000
    C115     C        0.89775    0.66148    0.93811    1.000
    C116     C        0.72533    0.59884    0.91926    1.000
    O57      O        0.91871    0.68287    0.01432    1.000
    O58      O        0.93616    0.66218    0.83495    1.000
    H59      H        0.33416    0.85222    0.80577    1.000
    H60      H        0.20514    0.82823    0.85780    1.000
    C117     C        0.32203    0.88858    0.97122    1.000
    C118     C        0.29689    0.86213    0.89054    1.000
    C119     C        0.39781    0.91122    0.93811    1.000
    C120     C        0.22526    0.84979    0.91921    1.000
    O59      O        0.41876    0.93260    0.01434    1.000
    O60      O        0.43624    0.91184    0.83496    1.000
    H61      H        0.16581    0.60189    0.94424    1.000
    H62      H        0.29468    0.57686    0.89223    1.000
    C121     C        0.17804    0.63852    0.77882    1.000
    C122     C        0.20311    0.61170    0.85946    1.000
    C123     C        0.10228    0.66147    0.81193    1.000
    C124     C        0.27468    0.59877    0.83079    1.000
    O61      O        0.08131    0.68285    0.73571    1.000
    O62      O        0.06387    0.66221    0.91509    1.000
    H63      H        0.66581    0.85215    0.94436    1.000
    H64      H        0.79483    0.82813    0.89233    1.000
    C125     C        0.67794    0.88851    0.77891    1.000
    C126     C        0.70309    0.86206    0.85959    1.000
    C127     C        0.60216    0.91117    0.81201    1.000
    C128     C        0.77471    0.84969    0.83092    1.000
    O63      O        0.58122    0.93250    0.73575    1.000
    O64      O        0.56374    0.91184    0.91515    1.000
    F13      F        0.00001    0.80639    0.87499    1.000
    F14      F        0.50002    0.55438    0.87498    1.000
    F15      F        0.00002    0.69652    0.62499    1.000
    F16      F        0.50002    0.94622    0.62500    1.000
    Al13     Al       0.50000    0.49937    0.74996    1.000
    Al14     Al       0.00003    0.75141    0.75001    1.000
    Al15     Al       0.50003    0.49937    0.50002    1.000
    Al16     Al       0.99998    0.75140    0.49998    1.000
