data_functionalizedCrystal
_audit_creation_method	'EQeq! by Chris Wilmer'
_symmetry_space_group_name_H-M	'P1'
_symmetry_Int_Tables_number	1
_symmetry_cell_setting	triclinic
loop_
_symmetry_equiv_pos_as_xyz
  x,y,z
_cell_length_a	10.8044
_cell_length_b	14.053
_cell_length_c	21.678
_cell_angle_alpha	89.878
_cell_angle_beta	83.363
_cell_angle_gamma	88.981
loop_
_atom_site_label
_atom_site_type_symbol
_atom_site_fract_x
_atom_site_fract_y
_atom_site_fract_z
_atom_site_charge
Mof_Cu	Cu	0.71846	0.29889	0.67165	0.915
Mof_Cu	Cu	0.72322	0.10993	0.67164	0.914
Mof_Cu	Cu	0.73297	0.29646	0.17047	0.917
Mof_Cu	Cu	0.73731	0.10729	0.17126	0.915
Mof_H 	H 	0.7723	0.3439	0.8638	0.051
Mof_H 	H 	0.7864	0.343	0.9699	0.052
Mof_H 	H 	0.6807	0.0718	0.9793	0.058
Mof_H 	H 	0.6687	0.0715	0.8741	0.051
Mof_H 	H 	0.3269	0.0595	0.6865	0.059
Mof_H 	H 	0.1132	0.0601	0.6855	0.056
Mof_H 	H 	0.1145	0.3438	0.6559	0.056
Mof_H 	H 	0.328	0.3439	0.6586	0.053
Mof_H 	H 	0.7978	0.0764	0.4715	0.06
Mof_H 	H 	0.7887	0.0731	0.3662	0.049
Mof_H 	H 	0.6849	0.3476	0.3697	0.05
Mof_H 	H 	0.6845	0.3477	0.477	0.055
Mof_H 	H 	0.3411	0.0563	0.1889	0.059
Mof_H 	H 	0.1296	0.0548	0.1829	0.057
Mof_H 	H 	0.129	0.3376	0.1514	0.052
Mof_H 	H 	0.3412	0.3395	0.1557	0.056
Mof_H 	H 	0.9058	0.9371	0.6628	0.015
Mof_H 	H 	0.9118	0.7736	0.6628	0.08
Mof_H 	H 	0.5379	0.779	0.6693	0.083
Mof_H 	H 	0.5442	0.942	0.6715	0.021
Mof_H 	H 	0.893	0.4594	0.1194	0.007
Mof_H 	H 	0.9025	0.6224	0.1161	0.08
Mof_H 	H 	0.5695	0.6325	0.2214	0.093
Mof_H 	H 	0.5743	0.4686	0.2224	0.011
Mof_H 	H 	0.5575	0.9397	0.1748	0.019
Mof_H 	H 	0.5514	0.7766	0.174	0.082
Mof_H 	H 	0.9257	0.7707	0.1589	0.077
Mof_H 	H 	0.9196	0.9345	0.161	0.019
Mof_H 	H 	0.5748	0.4686	0.6247	0.009
Mof_H 	H 	0.5742	0.6314	0.619	0.079
Mof_H 	H 	0.869	0.6282	0.7176	0.082
Mof_H 	H 	0.8569	0.4652	0.7209	0.01
Mof_C 	C 	0.7128	0.2065	0.78883	0.341
Mof_C 	C 	0.4869	0.2016	0.67432	0.342
Mof_C 	C 	0.7342	0.2104	0.55425	0.34
Mof_C 	C 	0.9543	0.2019	0.66857	0.341
Mof_C 	C 	0.7293	0.2058	0.28786	0.344
Mof_C 	C 	0.5005	0.2004	0.17544	0.342
Mof_C 	C 	0.7407	0.2071	0.05361	0.343
Mof_C 	C 	0.9694	0.196	0.16573	0.34
Mof_C 	C 	0.7197	0.2072	0.85755	-0.07
Mof_C 	C 	0.7542	0.2882	0.88696	-0.021
Mof_C 	C 	0.762	0.2876	0.95062	-0.017
Mof_C 	C 	0.7351	0.2086	0.98548	-0.065
Mof_C 	C 	0.6998	0.1272	0.95601	-0.02
Mof_C 	C 	0.6926	0.1272	0.89322	-0.016
Mof_C 	C 	0.349	0.2012	0.67234	-0.064
Mof_C 	C 	0.284	0.1169	0.68043	-0.018
Mof_C 	C 	0.157	0.1172	0.67952	-0.019
Mof_C 	C 	0.0926	0.2021	0.66981	-0.063
Mof_C 	C 	0.1575	0.2865	0.66209	-0.019
Mof_C 	C 	0.2845	0.2865	0.66354	-0.018
Mof_C 	C 	0.7361	0.2113	0.48521	-0.06
Mof_C 	C 	0.771	0.131	0.45138	-0.024
Mof_C 	C 	0.7671	0.1296	0.38827	-0.011
Mof_C 	C 	0.7326	0.2087	0.35674	-0.074
Mof_C 	C 	0.7046	0.2913	0.39024	-0.017
Mof_C 	C 	0.7054	0.2914	0.45447	-0.022
Mof_C 	C 	0.3634	0.1985	0.17292	-0.064
Mof_C 	C 	0.2984	0.1131	0.18111	-0.019
Mof_C 	C 	0.1726	0.1123	0.1778	-0.018
Mof_C 	C 	0.1079	0.1963	0.16695	-0.064
Mof_C 	C 	0.1721	0.2808	0.15884	-0.02
Mof_C 	C 	0.2984	0.2819	0.16157	-0.019
Mof_C 	C 	0.8303	0.9044	0.66466	0.078
Mof_C 	C 	0.8348	0.8062	0.66435	-0.123
Mof_C 	C 	0.7247	0.7558	0.66636	0.057
Mof_C 	C 	0.6149	0.8093	0.66847	-0.123
Mof_C 	C 	0.6197	0.9072	0.6694	0.08
Mof_C 	C 	0.8273	0.4952	0.14079	0.09
Mof_C 	C 	0.8335	0.5929	0.13818	-0.136
Mof_C 	C 	0.7369	0.6476	0.16844	0.065
Mof_C 	C 	0.6376	0.5989	0.20038	-0.136
Mof_C 	C 	0.6412	0.5008	0.20057	0.086
Mof_C 	C 	0.6331	0.9049	0.17162	0.079
Mof_C 	C 	0.6287	0.8068	0.1713	-0.121
Mof_C 	C 	0.7371	0.7532	0.16701	0.054
Mof_C 	C 	0.8486	0.8036	0.1625	-0.119
Mof_C 	C 	0.8441	0.9017	0.16346	0.076
Mof_C 	C 	0.6351	0.5019	0.6435	0.083
Mof_C 	C 	0.634	0.5993	0.6399	-0.128
Mof_C 	C 	0.7233	0.6508	0.66775	0.06
Mof_C 	C 	0.8073	0.5976	0.6981	-0.131
Mof_C 	C 	0.8	0.4998	0.6995	0.085
Mof_N 	N 	0.7246	0.95524	0.66749	-0.19
Mof_N 	N 	0.7351	0.44931	0.17132	-0.195
Mof_N 	N 	0.7383	0.95232	0.16771	-0.189
Mof_N 	N 	0.717	0.45228	0.67214	-0.194
Mof_O 	O 	0.7203	0.28564	0.76179	-0.399
Mof_O 	O 	0.70021	0.12729	0.7638	-0.395
Mof_O 	O 	0.53635	0.28073	0.68051	-0.401
Mof_O 	O 	0.54342	0.12198	0.67016	-0.396
Mof_O 	O 	0.71886	0.28962	0.58157	-0.391
Mof_O 	O 	0.7469	0.13116	0.58017	-0.389
Mof_O 	O 	0.90066	0.2811	0.66225	-0.394
Mof_O 	O 	0.90141	0.12246	0.67383	-0.399
Mof_O 	O 	0.71561	0.28464	0.26114	-0.396
Mof_O 	O 	0.7397	0.12626	0.26207	-0.398
Mof_O 	O 	0.5524	0.27963	0.17153	-0.396
Mof_O 	O 	0.55595	0.12097	0.18122	-0.396
Mof_O 	O 	0.7497	0.2866	0.07971	-0.39
Mof_O 	O 	0.735	0.1278	0.08057	-0.391
Mof_O 	O 	0.91385	0.2758	0.16937	-0.398
Mof_O 	O 	0.91793	0.11654	0.1621	-0.395
Mof_Cu	Cu	0.28154	0.70111	0.32835	0.916
Mof_Cu	Cu	0.27678	0.89007	0.32836	0.915
Mof_Cu	Cu	0.26703	0.70354	0.82953	0.918
Mof_Cu	Cu	0.26269	0.89271	0.82874	0.916
Mof_H 	H 	0.2277	0.6561	0.1362	0.052
Mof_H 	H 	0.2136	0.657	0.0301	0.053
Mof_H 	H 	0.3193	0.9282	0.0207	0.058
Mof_H 	H 	0.3313	0.9285	0.1259	0.051
Mof_H 	H 	0.6731	0.9405	0.3135	0.059
Mof_H 	H 	0.8868	0.9399	0.3145	0.056
Mof_H 	H 	0.8855	0.6562	0.3441	0.056
Mof_H 	H 	0.672	0.6561	0.3414	0.053
Mof_H 	H 	0.2022	0.9236	0.5285	0.06
Mof_H 	H 	0.2113	0.9269	0.6338	0.049
Mof_H 	H 	0.3151	0.6524	0.6303	0.05
Mof_H 	H 	0.3155	0.6523	0.523	0.055
Mof_H 	H 	0.6589	0.9437	0.8111	0.059
Mof_H 	H 	0.8704	0.9452	0.8171	0.057
Mof_H 	H 	0.871	0.6624	0.8486	0.052
Mof_H 	H 	0.6588	0.6605	0.8443	0.056
Mof_H 	H 	0.0942	0.0629	0.3372	0.015
Mof_H 	H 	0.0882	0.2264	0.3372	0.08
Mof_H 	H 	0.4621	0.221	0.3307	0.083
Mof_H 	H 	0.4558	0.058	0.3285	0.021
Mof_H 	H 	0.107	0.5406	0.8806	0.007
Mof_H 	H 	0.0975	0.3776	0.8839	0.08
Mof_H 	H 	0.4305	0.3675	0.7786	0.093
Mof_H 	H 	0.4257	0.5314	0.7776	0.011
Mof_H 	H 	0.4425	0.0603	0.8252	0.019
Mof_H 	H 	0.4486	0.2234	0.826	0.082
Mof_H 	H 	0.0743	0.2293	0.8411	0.077
Mof_H 	H 	0.0804	0.0655	0.839	0.019
Mof_H 	H 	0.4252	0.5314	0.3753	0.009
Mof_H 	H 	0.4258	0.3686	0.381	0.079
Mof_H 	H 	0.131	0.3718	0.2824	0.082
Mof_H 	H 	0.1431	0.5348	0.2791	0.01
Mof_C 	C 	0.2872	0.7935	0.21117	0.341
Mof_C 	C 	0.5131	0.7984	0.32568	0.342
Mof_C 	C 	0.2658	0.7896	0.44575	0.34
Mof_C 	C 	0.0457	0.7981	0.33143	0.341
Mof_C 	C 	0.2707	0.7942	0.71214	0.344
Mof_C 	C 	0.4995	0.7996	0.82456	0.342
Mof_C 	C 	0.2593	0.7929	0.94639	0.343
Mof_C 	C 	0.0306	0.804	0.83427	0.34
Mof_C 	C 	0.2803	0.7928	0.14245	-0.07
Mof_C 	C 	0.2458	0.7118	0.11304	-0.021
Mof_C 	C 	0.238	0.7124	0.04938	-0.017
Mof_C 	C 	0.2649	0.7914	0.01452	-0.065
Mof_C 	C 	0.3002	0.8728	0.04399	-0.02
Mof_C 	C 	0.3074	0.8728	0.10678	-0.016
Mof_C 	C 	0.651	0.7988	0.32766	-0.064
Mof_C 	C 	0.716	0.8831	0.31957	-0.018
Mof_C 	C 	0.843	0.8828	0.32048	-0.019
Mof_C 	C 	0.9074	0.7979	0.33019	-0.063
Mof_C 	C 	0.8425	0.7135	0.33791	-0.019
Mof_C 	C 	0.7155	0.7135	0.33646	-0.018
Mof_C 	C 	0.2639	0.7887	0.51479	-0.06
Mof_C 	C 	0.229	0.869	0.54862	-0.024
Mof_C 	C 	0.2329	0.8704	0.61173	-0.011
Mof_C 	C 	0.2674	0.7913	0.64326	-0.074
Mof_C 	C 	0.2954	0.7087	0.60976	-0.017
Mof_C 	C 	0.2946	0.7086	0.54553	-0.022
Mof_C 	C 	0.6366	0.8015	0.82708	-0.064
Mof_C 	C 	0.7016	0.8869	0.81889	-0.019
Mof_C 	C 	0.8274	0.8877	0.8222	-0.018
Mof_C 	C 	0.8921	0.8037	0.83305	-0.064
Mof_C 	C 	0.8279	0.7192	0.84116	-0.02
Mof_C 	C 	0.7016	0.7181	0.83843	-0.019
Mof_C 	C 	0.1697	0.0956	0.33534	0.078
Mof_C 	C 	0.1652	0.1938	0.33565	-0.123
Mof_C 	C 	0.2753	0.2442	0.33364	0.057
Mof_C 	C 	0.3851	0.1907	0.33153	-0.123
Mof_C 	C 	0.3803	0.0928	0.3306	0.08
Mof_C 	C 	0.1727	0.5048	0.85921	0.09
Mof_C 	C 	0.1665	0.4071	0.86182	-0.136
Mof_C 	C 	0.2631	0.3524	0.83156	0.065
Mof_C 	C 	0.3624	0.4011	0.79962	-0.136
Mof_C 	C 	0.3588	0.4992	0.79943	0.086
Mof_C 	C 	0.3669	0.0951	0.82838	0.079
Mof_C 	C 	0.3713	0.1932	0.8287	-0.121
Mof_C 	C 	0.2629	0.2468	0.83299	0.054
Mof_C 	C 	0.1514	0.1964	0.8375	-0.119
Mof_C 	C 	0.1559	0.0983	0.83654	0.076
Mof_C 	C 	0.3649	0.4981	0.3565	0.083
Mof_C 	C 	0.366	0.4007	0.3601	-0.128
Mof_C 	C 	0.2767	0.3492	0.33225	0.06
Mof_C 	C 	0.1927	0.4024	0.3019	-0.131
Mof_C 	C 	0.2	0.5002	0.3005	0.085
Mof_N 	N 	0.2754	0.04476	0.33251	-0.19
Mof_N 	N 	0.2649	0.55069	0.82868	-0.195
Mof_N 	N 	0.2617	0.04768	0.83229	-0.189
Mof_N 	N 	0.283	0.54772	0.32786	-0.194
Mof_O 	O 	0.2797	0.71436	0.23821	-0.399
Mof_O 	O 	0.29979	0.87271	0.2362	-0.395
Mof_O 	O 	0.46365	0.71927	0.31949	-0.401
Mof_O 	O 	0.45658	0.87802	0.32984	-0.396
Mof_O 	O 	0.28114	0.71038	0.41843	-0.391
Mof_O 	O 	0.2531	0.86884	0.41983	-0.389
Mof_O 	O 	0.09934	0.7189	0.33775	-0.394
Mof_O 	O 	0.09859	0.87754	0.32617	-0.399
Mof_O 	O 	0.28439	0.71536	0.73886	-0.396
Mof_O 	O 	0.2603	0.87374	0.73793	-0.398
Mof_O 	O 	0.4476	0.72037	0.82847	-0.396
Mof_O 	O 	0.44405	0.87903	0.81878	-0.396
Mof_O 	O 	0.2503	0.7134	0.92029	-0.39
Mof_O 	O 	0.265	0.8722	0.91943	-0.391
Mof_O 	O 	0.08615	0.7242	0.83063	-0.398
Mof_O 	O 	0.08207	0.88346	0.8379	-0.395
_end
