data_functionalizedCrystal
_audit_creation_method	'EQeq! by Chris Wilmer'
_symmetry_space_group_name_H-M	'P1'
_symmetry_Int_Tables_number	1
_symmetry_cell_setting	triclinic
loop_
_symmetry_equiv_pos_as_xyz
  x,y,z
_cell_length_a	23.342
_cell_length_b	20.685
_cell_length_c	12.5402
_cell_angle_alpha	90
_cell_angle_beta	97.97
_cell_angle_gamma	90
loop_
_atom_site_label
_atom_site_type_symbol
_atom_site_fract_x
_atom_site_fract_y
_atom_site_fract_z
_atom_site_charge
Mof_Ag	Ag	0.2632	0.9235	0.565	0.453
Mof_N 	N 	0.333	0.95	0.483	-0.173
Mof_N 	N 	0.1838	0.887	0.462	-0.181
Mof_N 	N 	0.5006	0.5338	0.095	-0.178
Mof_N 	N 	0.082	0.844	0.345	-0.17
Mof_C 	C 	0.476	0.73	0.32	0.001
Mof_H 	H 	0.4585	0.708	0.3715	-0.001
Mof_C 	C 	0.153	0.921	0.387	0.029
Mof_H 	H 	0.166	0.9627	0.3775	-0.015
Mof_C 	C 	0.476	0.798	0.321	-0.004
Mof_H 	H 	0.459	0.8206	0.3719	0.009
Mof_C 	C 	0.548	0.509	0.068	0.002
Mof_H 	H 	0.5828	0.5154	0.1131	-0.006
Mof_C 	C 	0.453	0.526	0.027	-0.001
Mof_H 	H 	0.4189	0.5444	0.0427	-0.005
Mof_C 	C 	0.392	0.937	0.516	-0.057
Mof_H 	H 	0.4041	0.925	0.5864	0.029
Mof_C 	C 	0.108	0.903	0.326	-0.037
Mof_H 	H 	0.0916	0.9288	0.27	0.01
Mof_C 	C 	0.116	0.807	0.415	-0.005
Mof_H 	H 	0.1027	0.7659	0.4281	0.004
Mof_C 	C 	0.37	0.979	0.315	0.006
Mof_H 	H 	0.3613	0.9944	0.245	-0.009
Mof_N 	N 	0.425	0.961	0.353	-0.183
Mof_C 	C 	0.43	0.942	0.447	0.056
Mof_H 	H 	0.4674	0.9295	0.4756	-0.014
Mof_C 	C 	0.168	0.825	0.468	-0.009
Mof_H 	H 	0.1919	0.7953	0.5081	-0.002
Mof_C 	C 	0.33	0.976	0.377	-0.022
Mof_H 	H 	0.2938	0.9936	0.3483	-0.001
Mof_C 	C 	0.978	0.66	0.33	0.027
Mof_H 	H 	0.9661	0.6816	0.3882	0.005
Mof_C 	C 	0.973	0.598	0.328	-0.014
Mof_H 	H 	0.9529	0.5778	0.3769	0.029
Mof_Ag	Ag	0.7632	0.4235	0.565	0.458
Mof_N 	N 	0.833	0.45	0.483	-0.173
Mof_N 	N 	0.6838	0.387	0.462	-0.18
Mof_N 	N 	0.0006	0.0338	0.095	-0.2
Mof_N 	N 	0.582	0.344	0.345	-0.172
Mof_C 	C 	0.976	0.23	0.32	0.027
Mof_H 	H 	0.9585	0.208	0.3715	-0.001
Mof_C 	C 	0.653	0.421	0.387	0.028
Mof_H 	H 	0.666	0.4627	0.3775	-0.015
Mof_C 	C 	0.976	0.298	0.321	0.025
Mof_H 	H 	0.959	0.3206	0.3719	0.008
Mof_C 	C 	0.048	0.009	0.068	0.02
Mof_H 	H 	0.0828	0.0154	0.1131	-0.013
Mof_C 	C 	0.953	0.026	0.027	0.044
Mof_H 	H 	0.9189	0.0444	0.0427	-0.013
Mof_C 	C 	0.892	0.437	0.516	-0.052
Mof_H 	H 	0.9041	0.425	0.5864	0.033
Mof_C 	C 	0.608	0.403	0.326	-0.035
Mof_H 	H 	0.5916	0.4288	0.27	0.011
Mof_C 	C 	0.616	0.307	0.415	-0.004
Mof_H 	H 	0.6027	0.2659	0.4281	0.005
Mof_C 	C 	0.87	0.479	0.315	0.006
Mof_H 	H 	0.8613	0.4944	0.245	-0.005
Mof_N 	N 	0.925	0.461	0.353	-0.172
Mof_C 	C 	0.93	0.442	0.447	0.054
Mof_H 	H 	0.9674	0.4295	0.4756	-0
Mof_C 	C 	0.668	0.325	0.468	-0.009
Mof_H 	H 	0.6919	0.2953	0.5081	-0.002
Mof_C 	C 	0.83	0.476	0.377	-0.019
Mof_H 	H 	0.7938	0.4936	0.3483	-0.001
Mof_C 	C 	0.478	0.16	0.33	0.003
Mof_H 	H 	0.4661	0.1816	0.3882	0.001
Mof_C 	C 	0.473	0.098	0.328	-0.034
Mof_H 	H 	0.4529	0.0778	0.3769	0.028
Mof_Ag	Ag	0.7368	0.9235	0.935	0.456
Mof_N 	N 	0.667	0.95	0.017	-0.171
Mof_N 	N 	0.8162	0.887	0.038	-0.18
Mof_N 	N 	0.4994	0.5338	0.405	-0.178
Mof_N 	N 	0.918	0.844	0.155	-0.16
Mof_C 	C 	0.524	0.73	0.18	0.001
Mof_H 	H 	0.5415	0.708	0.1285	-0.001
Mof_C 	C 	0.847	0.921	0.113	0.03
Mof_H 	H 	0.834	0.9627	0.1225	-0.013
Mof_C 	C 	0.524	0.798	0.179	-0.004
Mof_H 	H 	0.541	0.8206	0.1281	0.009
Mof_C 	C 	0.452	0.509	0.432	0.002
Mof_H 	H 	0.4172	0.5154	0.3869	-0.006
Mof_C 	C 	0.547	0.526	0.473	-0.002
Mof_H 	H 	0.5811	0.5444	0.4573	-0.004
Mof_C 	C 	0.608	0.937	0.984	-0.061
Mof_H 	H 	0.5959	0.925	0.9136	0.03
Mof_C 	C 	0.892	0.903	0.174	-0.034
Mof_H 	H 	0.9084	0.9288	0.23	0.018
Mof_C 	C 	0.884	0.807	0.085	-0.005
Mof_H 	H 	0.8973	0.7659	0.0719	0.012
Mof_C 	C 	0.63	0.979	0.185	0.007
Mof_H 	H 	0.6387	0.9944	0.255	-0.009
Mof_N 	N 	0.575	0.961	0.147	-0.184
Mof_C 	C 	0.57	0.942	0.053	0.059
Mof_H 	H 	0.5326	0.9295	0.0244	-0.015
Mof_C 	C 	0.832	0.825	0.032	-0.004
Mof_H 	H 	0.8081	0.7953	0.9919	-0.003
Mof_C 	C 	0.67	0.976	0.123	-0.022
Mof_H 	H 	0.7062	0.9936	0.1517	-0.001
Mof_C 	C 	0.022	0.66	0.17	-0.002
Mof_H 	H 	0.0339	0.6816	0.1118	-0.002
Mof_C 	C 	0.027	0.598	0.172	-0.042
Mof_H 	H 	0.0471	0.5778	0.1231	0.027
Mof_Ag	Ag	0.2368	0.4235	0.935	0.453
Mof_N 	N 	0.167	0.45	0.017	-0.172
Mof_N 	N 	0.3162	0.387	0.038	-0.18
Mof_N 	N 	0.9994	0.0338	0.405	-0.144
Mof_N 	N 	0.418	0.344	0.155	-0.172
Mof_C 	C 	0.024	0.23	0.18	-0.005
Mof_H 	H 	0.0415	0.208	0.1285	-0
Mof_C 	C 	0.347	0.421	0.113	0.028
Mof_H 	H 	0.334	0.4627	0.1225	-0.015
Mof_C 	C 	0.024	0.298	0.179	-0.007
Mof_H 	H 	0.041	0.3206	0.1281	0.008
Mof_C 	C 	0.952	0.009	0.432	-0.014
Mof_H 	H 	0.9172	0.0154	0.3869	0.004
Mof_C 	C 	0.047	0.026	0.473	-0.046
Mof_H 	H 	0.0811	0.0444	0.4573	0.009
Mof_C 	C 	0.108	0.437	0.984	-0.061
Mof_H 	H 	0.0959	0.425	0.9136	0.028
Mof_C 	C 	0.392	0.403	0.174	-0.035
Mof_H 	H 	0.4084	0.4288	0.23	0.011
Mof_C 	C 	0.384	0.307	0.085	-0.004
Mof_H 	H 	0.3973	0.2659	0.0719	0.005
Mof_C 	C 	0.13	0.479	0.185	0.006
Mof_H 	H 	0.1387	0.4944	0.255	-0.009
Mof_N 	N 	0.075	0.461	0.147	-0.183
Mof_C 	C 	0.07	0.442	0.053	0.058
Mof_H 	H 	0.0326	0.4295	0.0244	-0.022
Mof_C 	C 	0.332	0.325	0.032	-0.009
Mof_H 	H 	0.3081	0.2953	0.9919	-0.002
Mof_C 	C 	0.17	0.476	0.123	-0.022
Mof_H 	H 	0.2062	0.4936	0.1517	-0.001
Mof_C 	C 	0.522	0.16	0.17	0.003
Mof_H 	H 	0.5339	0.1816	0.1118	0.001
Mof_C 	C 	0.527	0.098	0.172	-0.034
Mof_H 	H 	0.5471	0.0778	0.1231	0.028
Mof_Ag	Ag	0.7368	0.0765	0.435	0.457
Mof_N 	N 	0.667	0.05	0.517	-0.173
Mof_N 	N 	0.8162	0.113	0.538	-0.18
Mof_N 	N 	0.4994	0.4662	0.905	-0.178
Mof_N 	N 	0.918	0.156	0.655	-0.16
Mof_C 	C 	0.524	0.27	0.68	0.001
Mof_H 	H 	0.5415	0.292	0.6285	-0.001
Mof_C 	C 	0.847	0.079	0.613	0.03
Mof_H 	H 	0.834	0.0373	0.6225	-0.014
Mof_C 	C 	0.524	0.202	0.679	-0.004
Mof_H 	H 	0.541	0.1794	0.6281	0.009
Mof_C 	C 	0.452	0.491	0.932	0.001
Mof_H 	H 	0.4172	0.4846	0.8869	-0.006
Mof_C 	C 	0.547	0.474	0.973	-0.003
Mof_H 	H 	0.5811	0.4556	0.9573	-0.004
Mof_C 	C 	0.608	0.063	0.484	-0.057
Mof_H 	H 	0.5959	0.075	0.4136	0.029
Mof_C 	C 	0.892	0.097	0.674	-0.034
Mof_H 	H 	0.9084	0.0712	0.73	0.018
Mof_C 	C 	0.884	0.193	0.585	-0.004
Mof_H 	H 	0.8973	0.2341	0.5719	0.011
Mof_C 	C 	0.63	0.021	0.685	0.007
Mof_H 	H 	0.6387	0.0056	0.755	-0.009
Mof_N 	N 	0.575	0.039	0.647	-0.183
Mof_C 	C 	0.57	0.058	0.553	0.056
Mof_H 	H 	0.5326	0.0705	0.5244	-0.014
Mof_C 	C 	0.832	0.175	0.532	-0.006
Mof_H 	H 	0.8081	0.2047	0.4919	-0.002
Mof_C 	C 	0.67	0.024	0.623	-0.022
Mof_H 	H 	0.7062	0.0064	0.6517	-0.001
Mof_C 	C 	0.022	0.34	0.67	-0.002
Mof_H 	H 	0.0339	0.3184	0.6118	-0.002
Mof_C 	C 	0.027	0.402	0.672	-0.042
Mof_H 	H 	0.0471	0.4222	0.6231	0.027
Mof_Ag	Ag	0.2368	0.5765	0.435	0.454
Mof_N 	N 	0.167	0.55	0.517	-0.172
Mof_N 	N 	0.3162	0.613	0.538	-0.18
Mof_N 	N 	0.9994	0.9662	0.905	-0.144
Mof_N 	N 	0.418	0.656	0.655	-0.172
Mof_C 	C 	0.024	0.77	0.68	-0.005
Mof_H 	H 	0.0415	0.792	0.6285	-0
Mof_C 	C 	0.347	0.579	0.613	0.028
Mof_H 	H 	0.334	0.5373	0.6225	-0.015
Mof_C 	C 	0.024	0.702	0.679	-0.007
Mof_H 	H 	0.041	0.6794	0.6281	0.008
Mof_C 	C 	0.952	0.991	0.932	-0.014
Mof_H 	H 	0.9172	0.9846	0.8869	0.004
Mof_C 	C 	0.047	0.974	0.973	-0.048
Mof_H 	H 	0.0811	0.9556	0.9573	0.009
Mof_C 	C 	0.108	0.563	0.484	-0.059
Mof_H 	H 	0.0959	0.575	0.4136	0.028
Mof_C 	C 	0.392	0.597	0.674	-0.035
Mof_H 	H 	0.4084	0.5712	0.73	0.011
Mof_C 	C 	0.384	0.693	0.585	-0.004
Mof_H 	H 	0.3973	0.7341	0.5719	0.005
Mof_C 	C 	0.13	0.521	0.685	0.006
Mof_H 	H 	0.1387	0.5056	0.755	-0.009
Mof_N 	N 	0.075	0.539	0.647	-0.182
Mof_C 	C 	0.07	0.558	0.553	0.057
Mof_H 	H 	0.0326	0.5705	0.5244	-0.021
Mof_C 	C 	0.332	0.675	0.532	-0.009
Mof_H 	H 	0.3081	0.7047	0.4919	-0.002
Mof_C 	C 	0.17	0.524	0.623	-0.022
Mof_H 	H 	0.2062	0.5064	0.6517	-0.002
Mof_C 	C 	0.522	0.84	0.67	0.003
Mof_H 	H 	0.5339	0.8184	0.6118	0.001
Mof_C 	C 	0.527	0.902	0.672	-0.034
Mof_H 	H 	0.5471	0.9222	0.6231	0.028
Mof_Ag	Ag	0.2632	0.0765	0.065	0.453
Mof_N 	N 	0.333	0.05	0.983	-0.172
Mof_N 	N 	0.1838	0.113	0.962	-0.18
Mof_N 	N 	0.5006	0.4662	0.595	-0.178
Mof_N 	N 	0.082	0.156	0.845	-0.17
Mof_C 	C 	0.476	0.27	0.82	0.001
Mof_H 	H 	0.4585	0.292	0.8715	-0.001
Mof_C 	C 	0.153	0.079	0.887	0.029
Mof_H 	H 	0.166	0.0373	0.8775	-0.015
Mof_C 	C 	0.476	0.202	0.821	-0.004
Mof_H 	H 	0.459	0.1794	0.8719	0.009
Mof_C 	C 	0.548	0.491	0.568	0.002
Mof_H 	H 	0.5828	0.4846	0.6131	-0.006
Mof_C 	C 	0.453	0.474	0.527	-0.002
Mof_H 	H 	0.4189	0.4556	0.5427	-0.005
Mof_C 	C 	0.392	0.063	0.016	-0.059
Mof_H 	H 	0.4041	0.075	0.0864	0.03
Mof_C 	C 	0.108	0.097	0.826	-0.037
Mof_H 	H 	0.0916	0.0712	0.77	0.01
Mof_C 	C 	0.116	0.193	0.915	-0.005
Mof_H 	H 	0.1027	0.2341	0.9281	0.004
Mof_C 	C 	0.37	0.021	0.815	0.007
Mof_H 	H 	0.3613	0.0056	0.745	-0.009
Mof_N 	N 	0.425	0.039	0.853	-0.184
Mof_C 	C 	0.43	0.058	0.947	0.058
Mof_H 	H 	0.4674	0.0705	0.9756	-0.015
Mof_C 	C 	0.168	0.175	0.968	-0.008
Mof_H 	H 	0.1919	0.2047	0.0081	-0.003
Mof_C 	C 	0.33	0.024	0.877	-0.022
Mof_H 	H 	0.2938	0.0064	0.8483	-0.001
Mof_C 	C 	0.978	0.34	0.83	0.027
Mof_H 	H 	0.9661	0.3184	0.8882	0.005
Mof_C 	C 	0.973	0.402	0.828	-0.014
Mof_H 	H 	0.9529	0.4222	0.8769	0.029
Mof_Ag	Ag	0.7632	0.5765	0.065	0.458
Mof_N 	N 	0.833	0.55	0.983	-0.173
Mof_N 	N 	0.6838	0.613	0.962	-0.18
Mof_N 	N 	0.0006	0.9662	0.595	-0.2
Mof_N 	N 	0.582	0.656	0.845	-0.172
Mof_C 	C 	0.976	0.77	0.82	0.028
Mof_H 	H 	0.9585	0.792	0.8715	-0.001
Mof_C 	C 	0.653	0.579	0.887	0.028
Mof_H 	H 	0.666	0.5373	0.8775	-0.015
Mof_C 	C 	0.976	0.702	0.821	0.025
Mof_H 	H 	0.959	0.6794	0.8719	0.007
Mof_C 	C 	0.048	0.991	0.568	0.019
Mof_H 	H 	0.0828	0.9846	0.6131	-0.012
Mof_C 	C 	0.953	0.974	0.527	0.045
Mof_H 	H 	0.9189	0.9556	0.5427	-0.013
Mof_C 	C 	0.892	0.563	0.016	-0.051
Mof_H 	H 	0.9041	0.575	0.0864	0.033
Mof_C 	C 	0.608	0.597	0.826	-0.035
Mof_H 	H 	0.5916	0.5712	0.77	0.011
Mof_C 	C 	0.616	0.693	0.915	-0.003
Mof_H 	H 	0.6027	0.7341	0.9281	0.005
Mof_C 	C 	0.87	0.521	0.815	0.006
Mof_H 	H 	0.8613	0.5056	0.745	-0.005
Mof_N 	N 	0.925	0.539	0.853	-0.172
Mof_C 	C 	0.93	0.558	0.947	0.053
Mof_H 	H 	0.9674	0.5705	0.9756	-0
Mof_C 	C 	0.668	0.675	0.968	-0.01
Mof_H 	H 	0.6919	0.7047	0.0081	-0.001
Mof_C 	C 	0.83	0.524	0.877	-0.019
Mof_H 	H 	0.7938	0.5064	0.8483	-0.002
Mof_C 	C 	0.478	0.84	0.83	0.003
Mof_H 	H 	0.4661	0.8184	0.8882	0.001
Mof_C 	C 	0.473	0.902	0.828	-0.034
Mof_H 	H 	0.4529	0.9222	0.8769	0.028
Mof_Ag	Ag	0.5	0.59	0.25	0.522
Mof_Ag	Ag	0.5	0.9459	0.25	0.571
Mof_N 	N 	0.5	0.829	0.25	-0.166
Mof_N 	N 	0.5	0.697	0.25	-0.183
Mof_Ag	Ag	2.36994e-18	0.09	0.25	0.483
Mof_Ag	Ag	2.36994e-18	0.4459	0.25	0.534
Mof_N 	N 	2.36994e-18	0.329	0.25	-0.183
Mof_N 	N 	5.73403e-34	0.197	0.25	-0.197
Mof_Ag	Ag	0.5	0.41	0.75	0.522
Mof_Ag	Ag	0.5	0.0541	0.75	0.571
Mof_N 	N 	0.5	0.171	0.75	-0.166
Mof_N 	N 	0.5	0.303	0.75	-0.183
Mof_Ag	Ag	9.47976e-18	0.91	0.75	0.483
Mof_Ag	Ag	9.47976e-18	0.5541	0.75	0.533
Mof_N 	N 	9.47976e-18	0.671	0.75	-0.183
Mof_N 	N 	9.47976e-18	0.803	0.75	-0.197
Mof_Ag	Ag	2.36994e-18	0.8075	0.25	0.494
Mof_N 	N 	2.36994e-18	0.698	0.25	-0.187
Mof_N 	N 	2.36994e-18	0.557	0.25	-0.167
Mof_Ag	Ag	0.5	0.3075	0.25	0.532
Mof_N 	N 	0.5	0.198	0.25	-0.174
Mof_N 	N 	0.5	0.057	0.25	-0.155
Mof_Ag	Ag	9.47976e-18	0.1925	0.75	0.494
Mof_N 	N 	9.47976e-18	0.302	0.75	-0.187
Mof_N 	N 	9.47976e-18	0.443	0.75	-0.168
Mof_Ag	Ag	0.5	0.6925	0.75	0.532
Mof_N 	N 	0.5	0.802	0.75	-0.174
Mof_N 	N 	0.5	0.943	0.75	-0.155
_end
