data_functionalizedCrystal
_audit_creation_method	'EQeq! by Chris Wilmer'
_symmetry_space_group_name_H-M	'P1'
_symmetry_Int_Tables_number	1
_symmetry_cell_setting	triclinic
loop_
_symmetry_equiv_pos_as_xyz
  x,y,z
_cell_length_a	8.4034
_cell_length_b	10.5334
_cell_length_c	14.3515
_cell_angle_alpha	100.83
_cell_angle_beta	103.41
_cell_angle_gamma	101.56
loop_
_atom_site_label
_atom_site_type_symbol
_atom_site_fract_x
_atom_site_fract_y
_atom_site_fract_z
_atom_site_charge
Mof_Yb	Yb	0.15434	0.15948	0.17018	1.74
Mof_O 	O 	0.1524	0.9525	0.09604	-0.514
Mof_O 	O 	0.9695	0.7904	0.97183	-0.505
Mof_O 	O 	0.0752	0.326	0.25876	-0.437
Mof_O 	O 	0.2198	0.4956	0.3875	-0.242
Mof_O 	O 	0.1672	0.0759	0.31692	-0.391
Mof_O 	O 	0.4069	0.1451	0.28506	-0.364
Mof_O 	O 	0.3543	0.3608	0.18849	-0.372
Mof_O 	O 	0.3765	0.1917	0.08062	-0.343
Mof_C 	C 	0.0859	0.734	0.1208	-0.141
Mof_C 	C 	0.2116	0.7689	0.2105	0.031
Mof_H 	H 	0.2862	0.8535	0.2316	0.029
Mof_C 	C 	0.2254	0.6783	0.2678	-0.054
Mof_H 	H 	0.3062	0.7042	0.329	0.073
Mof_C 	C 	0.1209	0.5486	0.2363	-0.048
Mof_C 	C 	0.9968	0.5134	0.146	-0.043
Mof_H 	H 	0.9262	0.4273	0.1231	0.055
Mof_C 	C 	0.9783	0.6066	0.0899	0.021
Mof_H 	H 	0.8925	0.583	0.0308	0.035
Mof_C 	C 	0.0672	0.8337	0.0583	0.47
Mof_C 	C 	0.1432	0.4504	0.2997	0.366
Mof_C 	C 	0.4161	0.0447	0.4212	-0.051
Mof_C 	C 	0.3267	0.9792	0.4767	-0.024
Mof_H 	H 	0.2098	0.9653	0.4614	0.062
Mof_C 	C 	0.3247	0.0915	0.3371	0.308
Mof_C 	C 	0.4581	0.4119	0.0563	-0.044
Mof_C 	C 	0.5315	0.3746	0.9821	-0.03
Mof_H 	H 	0.5527	0.2906	0.9699	0.055
Mof_C 	C 	0.4266	0.537	0.0742	-0.03
Mof_H 	H 	0.3773	0.562	0.1242	0.06
Mof_C 	C 	0.397	0.3156	0.1124	0.287
Mof_C 	C 	0.5901	0.065	0.4461	-0.023
Mof_H 	H 	0.6517	0.109	0.4103	0.065
Mof_Yb	Yb	0.84566	0.84052	0.82982	1.739
Mof_O 	O 	0.8476	0.0475	0.90396	-0.515
Mof_O 	O 	0.0305	0.2096	0.02817	-0.505
Mof_O 	O 	0.9248	0.674	0.74124	-0.437
Mof_O 	O 	0.7802	0.5044	0.6125	-0.242
Mof_O 	O 	0.8328	0.9241	0.68308	-0.391
Mof_O 	O 	0.5931	0.8549	0.71494	-0.364
Mof_O 	O 	0.6457	0.6392	0.81151	-0.372
Mof_O 	O 	0.6235	0.8083	0.91938	-0.343
Mof_C 	C 	0.9141	0.266	0.8792	-0.141
Mof_C 	C 	0.7884	0.2311	0.7895	0.031
Mof_H 	H 	0.7138	0.1465	0.7684	0.029
Mof_C 	C 	0.7746	0.3217	0.7322	-0.054
Mof_H 	H 	0.6938	0.2958	0.671	0.073
Mof_C 	C 	0.8791	0.4514	0.7637	-0.048
Mof_C 	C 	0.0032	0.4866	0.854	-0.043
Mof_H 	H 	0.0738	0.5727	0.8769	0.055
Mof_C 	C 	0.0217	0.3934	0.9101	0.021
Mof_H 	H 	0.1075	0.417	0.9692	0.035
Mof_C 	C 	0.9328	0.1663	0.9417	0.47
Mof_C 	C 	0.8568	0.5496	0.7003	0.366
Mof_C 	C 	0.5839	0.9553	0.5788	-0.051
Mof_C 	C 	0.6733	0.0208	0.5233	-0.024
Mof_H 	H 	0.7902	0.0347	0.5386	0.062
Mof_C 	C 	0.6753	0.9085	0.6629	0.308
Mof_C 	C 	0.5419	0.5881	0.9437	-0.044
Mof_C 	C 	0.4685	0.6254	0.0179	-0.03
Mof_H 	H 	0.4473	0.7094	0.0301	0.055
Mof_C 	C 	0.5734	0.463	0.9258	-0.03
Mof_H 	H 	0.6227	0.438	0.8758	0.06
Mof_C 	C 	0.603	0.6844	0.8876	0.287
Mof_C 	C 	0.4099	0.935	0.5539	-0.023
Mof_H 	H 	0.3483	0.891	0.5897	0.065
_end
