data_functionalizedCrystal
_audit_creation_method	'EQeq! by Chris Wilmer'
_symmetry_space_group_name_H-M	'P1'
_symmetry_Int_Tables_number	1
_symmetry_cell_setting	triclinic
loop_
_symmetry_equiv_pos_as_xyz
  x,y,z
_cell_length_a	8.007
_cell_length_b	15.88
_cell_length_c	29.445
_cell_angle_alpha	90
_cell_angle_beta	90
_cell_angle_gamma	90
loop_
_atom_site_label
_atom_site_type_symbol
_atom_site_fract_x
_atom_site_fract_y
_atom_site_fract_z
_atom_site_charge
Mof_Eu	Eu	0.44995	0.70682	0.58896	2.28
Mof_Eu	Eu	0.05005	0.20682	0.41104	2.241
Mof_Eu	Eu	0.55005	0.29318	0.08896	2.281
Mof_Eu	Eu	0.94995	0.79318	0.91104	2.238
Mof_Eu	Eu	0.55005	0.29318	0.41104	2.28
Mof_Eu	Eu	0.94995	0.79318	0.58896	2.241
Mof_Eu	Eu	0.44995	0.70682	0.91104	2.281
Mof_Eu	Eu	0.05005	0.20682	0.08896	2.238
Mof_H 	H 	0.2768	0.5148	0.4926	0.008
Mof_H 	H 	0.0049	0.4469	0.3841	-0.012
Mof_H 	H 	0.8614	0.5741	0.388	0.077
Mof_H 	H 	0.9111	0.6659	0.4476	0.001
Mof_H 	H 	0.7835	0.9326	0.6818	-0.049
Mof_H 	H 	0.2232	0.0148	0.5074	0.006
Mof_H 	H 	0.4951	0.9469	0.6159	-0.012
Mof_H 	H 	0.6386	0.0741	0.612	0.081
Mof_H 	H 	0.5889	0.1659	0.5524	-0.001
Mof_H 	H 	0.7165	0.4326	0.3182	-0.046
Mof_H 	H 	0.7232	0.4852	0.9926	0.007
Mof_H 	H 	0.9951	0.5531	0.8841	-0.012
Mof_H 	H 	0.1386	0.4259	0.888	0.077
Mof_H 	H 	0.0889	0.3341	0.9476	0.001
Mof_H 	H 	0.2165	0.0674	0.1818	-0.049
Mof_H 	H 	0.7768	0.9852	0.0074	0.006
Mof_H 	H 	0.5049	0.0531	0.1159	-0.012
Mof_H 	H 	0.3614	0.9259	0.112	0.081
Mof_H 	H 	0.4111	0.8341	0.0524	-0.001
Mof_H 	H 	0.2835	0.5674	0.8182	-0.045
Mof_H 	H 	0.7232	0.4852	0.5074	0.008
Mof_H 	H 	0.9951	0.5531	0.6159	-0.012
Mof_H 	H 	0.1386	0.4259	0.612	0.077
Mof_H 	H 	0.0889	0.3341	0.5524	0.001
Mof_H 	H 	0.2165	0.0674	0.3182	-0.049
Mof_H 	H 	0.7768	0.9852	0.4926	0.006
Mof_H 	H 	0.5049	0.0531	0.3841	-0.012
Mof_H 	H 	0.3614	0.9259	0.388	0.081
Mof_H 	H 	0.4111	0.8341	0.4476	-0.001
Mof_H 	H 	0.2835	0.5674	0.6818	-0.046
Mof_H 	H 	0.2768	0.5148	0.0074	0.007
Mof_H 	H 	0.0049	0.4469	0.1159	-0.012
Mof_H 	H 	0.8614	0.5741	0.112	0.077
Mof_H 	H 	0.9111	0.6659	0.0524	0.001
Mof_H 	H 	0.7835	0.9326	0.8182	-0.049
Mof_H 	H 	0.2232	0.0148	0.9926	0.006
Mof_H 	H 	0.4951	0.9469	0.8841	-0.012
Mof_H 	H 	0.6386	0.0741	0.888	0.081
Mof_H 	H 	0.5889	0.1659	0.9476	-0.001
Mof_H 	H 	0.7165	0.4326	0.1818	-0.045
Mof_H 	H 	0.8552	0.9957	0.75	0.088
Mof_H 	H 	0.5494	0.7481	0.75	0.01
Mof_H 	H 	0.6448	0.4957	0.25	0.092
Mof_H 	H 	0.9506	0.2481	0.25	0.016
Mof_H 	H 	0.1448	0.0043	0.25	0.088
Mof_H 	H 	0.4506	0.2519	0.25	0.01
Mof_H 	H 	0.3552	0.5043	0.75	0.092
Mof_H 	H 	0.0494	0.7519	0.75	0.016
Mof_C 	C 	0.1311	0.6573	0.51587	0.54
Mof_C 	C 	0.0981	0.5992	0.47651	-0.214
Mof_C 	C 	0.1898	0.5255	0.47244	0.123
Mof_C 	C 	0.1533	0.4677	0.4387	-0.182
Mof_C 	C 	0.0291	0.4853	0.40697	0.084
Mof_C 	C 	0.9414	0.5609	0.40977	-0.165
Mof_C 	C 	0.9733	0.6166	0.44502	0.111
Mof_C 	C 	0.2549	0.3885	0.43655	0.381
Mof_C 	C 	0.6108	0.7919	0.66564	0.431
Mof_C 	C 	0.6623	0.833	0.70904	-0.206
Mof_C 	C 	0.7525	0.9078	0.70908	0.14
Mof_C 	C 	0.3689	0.1573	0.48413	0.541
Mof_C 	C 	0.4019	0.0992	0.52349	-0.215
Mof_C 	C 	0.3102	0.0255	0.52756	0.123
Mof_C 	C 	0.3467	0.9677	0.5613	-0.182
Mof_C 	C 	0.4709	0.9853	0.59303	0.097
Mof_C 	C 	0.5586	0.0609	0.59023	-0.181
Mof_C 	C 	0.5267	0.1166	0.55498	0.118
Mof_C 	C 	0.2451	0.8885	0.56345	0.384
Mof_C 	C 	0.8892	0.2919	0.33436	0.431
Mof_C 	C 	0.8377	0.333	0.29096	-0.2
Mof_C 	C 	0.7475	0.4078	0.29092	0.14
Mof_C 	C 	0.8689	0.3427	0.01587	0.541
Mof_C 	C 	0.9019	0.4008	0.97651	-0.217
Mof_C 	C 	0.8102	0.4745	0.97244	0.124
Mof_C 	C 	0.8467	0.5323	0.9387	-0.182
Mof_C 	C 	0.9709	0.5147	0.90697	0.083
Mof_C 	C 	0.0586	0.4391	0.90977	-0.165
Mof_C 	C 	0.0267	0.3834	0.94502	0.114
Mof_C 	C 	0.7451	0.6115	0.93655	0.381
Mof_C 	C 	0.3892	0.2081	0.16564	0.431
Mof_C 	C 	0.3377	0.167	0.20904	-0.206
Mof_C 	C 	0.2475	0.0922	0.20908	0.139
Mof_C 	C 	0.6311	0.8427	0.98413	0.54
Mof_C 	C 	0.5981	0.9008	0.02349	-0.215
Mof_C 	C 	0.6898	0.9745	0.02756	0.123
Mof_C 	C 	0.6533	0.0323	0.0613	-0.182
Mof_C 	C 	0.5291	0.0147	0.09303	0.097
Mof_C 	C 	0.4414	0.9391	0.09023	-0.181
Mof_C 	C 	0.4733	0.8834	0.05498	0.117
Mof_C 	C 	0.7549	0.1115	0.06345	0.384
Mof_C 	C 	0.1108	0.7081	0.83436	0.431
Mof_C 	C 	0.1623	0.667	0.79096	-0.2
Mof_C 	C 	0.2525	0.5922	0.79092	0.14
Mof_C 	C 	0.8689	0.3427	0.48413	0.54
Mof_C 	C 	0.9019	0.4008	0.52349	-0.214
Mof_C 	C 	0.8102	0.4745	0.52756	0.123
Mof_C 	C 	0.8467	0.5323	0.5613	-0.182
Mof_C 	C 	0.9709	0.5147	0.59303	0.084
Mof_C 	C 	0.0586	0.4391	0.59023	-0.165
Mof_C 	C 	0.0267	0.3834	0.55498	0.111
Mof_C 	C 	0.7451	0.6115	0.56345	0.381
Mof_C 	C 	0.3892	0.2081	0.33436	0.431
Mof_C 	C 	0.3377	0.167	0.29096	-0.206
Mof_C 	C 	0.2475	0.0922	0.29092	0.14
Mof_C 	C 	0.6311	0.8427	0.51587	0.541
Mof_C 	C 	0.5981	0.9008	0.47651	-0.215
Mof_C 	C 	0.6898	0.9745	0.47244	0.123
Mof_C 	C 	0.6533	0.0323	0.4387	-0.182
Mof_C 	C 	0.5291	0.0147	0.40697	0.097
Mof_C 	C 	0.4414	0.9391	0.40977	-0.181
Mof_C 	C 	0.4733	0.8834	0.44502	0.118
Mof_C 	C 	0.7549	0.1115	0.43655	0.384
Mof_C 	C 	0.1108	0.7081	0.66564	0.431
Mof_C 	C 	0.1623	0.667	0.70904	-0.2
Mof_C 	C 	0.2525	0.5922	0.70908	0.14
Mof_C 	C 	0.1311	0.6573	0.98413	0.541
Mof_C 	C 	0.0981	0.5992	0.02349	-0.217
Mof_C 	C 	0.1898	0.5255	0.02756	0.124
Mof_C 	C 	0.1533	0.4677	0.0613	-0.182
Mof_C 	C 	0.0291	0.4853	0.09303	0.083
Mof_C 	C 	0.9414	0.5609	0.09023	-0.165
Mof_C 	C 	0.9733	0.6166	0.05498	0.114
Mof_C 	C 	0.2549	0.3885	0.06345	0.381
Mof_C 	C 	0.6108	0.7919	0.83436	0.431
Mof_C 	C 	0.6623	0.833	0.79096	-0.206
Mof_C 	C 	0.7525	0.9078	0.79092	0.139
Mof_C 	C 	0.3689	0.1573	0.01587	0.54
Mof_C 	C 	0.4019	0.0992	0.97651	-0.215
Mof_C 	C 	0.3102	0.0255	0.97244	0.123
Mof_C 	C 	0.3467	0.9677	0.9387	-0.182
Mof_C 	C 	0.4709	0.9853	0.90697	0.097
Mof_C 	C 	0.5586	0.0609	0.90977	-0.181
Mof_C 	C 	0.5267	0.1166	0.94502	0.117
Mof_C 	C 	0.2451	0.8885	0.93655	0.384
Mof_C 	C 	0.8892	0.2919	0.16564	0.431
Mof_C 	C 	0.8377	0.333	0.20904	-0.2
Mof_C 	C 	0.7475	0.4078	0.20908	0.14
Mof_C 	C 	0.7963	0.9453	0.75	-0.217
Mof_C 	C 	0.6141	0.7968	0.75	0.13
Mof_C 	C 	0.7037	0.4453	0.25	-0.213
Mof_C 	C 	0.8859	0.2968	0.25	0.128
Mof_C 	C 	0.2037	0.0547	0.25	-0.217
Mof_C 	C 	0.3859	0.2032	0.25	0.13
Mof_C 	C 	0.2963	0.5547	0.75	-0.213
Mof_C 	C 	0.1141	0.7032	0.75	0.128
Mof_O 	O 	0.27	0.64955	0.53544	-0.586
Mof_O 	O 	0.0184	0.70849	0.52665	-0.56
Mof_O 	O 	0.224	0.33302	0.40625	-0.616
Mof_O 	O 	0.6724	0.8167	0.62796	-0.59
Mof_O 	O 	0.3762	0.38105	0.46286	-0.466
Mof_O 	O 	0.503	0.73447	0.66708	-0.537
Mof_O 	O 	0.23	0.14955	0.46456	-0.585
Mof_O 	O 	0.4816	0.20849	0.47335	-0.569
Mof_O 	O 	0.276	0.83302	0.59375	-0.612
Mof_O 	O 	0.8276	0.3167	0.37204	-0.586
Mof_O 	O 	0.1238	0.88105	0.53714	-0.459
Mof_O 	O 	0.997	0.23447	0.33292	-0.522
Mof_O 	O 	0.73	0.35045	0.03544	-0.586
Mof_O 	O 	0.9816	0.29151	0.02665	-0.56
Mof_O 	O 	0.776	0.66698	0.90625	-0.616
Mof_O 	O 	0.3276	0.1833	0.12796	-0.59
Mof_O 	O 	0.6238	0.61895	0.96286	-0.466
Mof_O 	O 	0.497	0.26553	0.16708	-0.537
Mof_O 	O 	0.77	0.85045	0.96456	-0.585
Mof_O 	O 	0.5184	0.79151	0.97335	-0.569
Mof_O 	O 	0.724	0.16698	0.09375	-0.612
Mof_O 	O 	0.1724	0.6833	0.87204	-0.586
Mof_O 	O 	0.8762	0.11895	0.03714	-0.459
Mof_O 	O 	0.003	0.76553	0.83292	-0.522
Mof_O 	O 	0.73	0.35045	0.46456	-0.586
Mof_O 	O 	0.9816	0.29151	0.47335	-0.56
Mof_O 	O 	0.776	0.66698	0.59375	-0.616
Mof_O 	O 	0.3276	0.1833	0.37204	-0.59
Mof_O 	O 	0.6238	0.61895	0.53714	-0.466
Mof_O 	O 	0.497	0.26553	0.33292	-0.537
Mof_O 	O 	0.77	0.85045	0.53544	-0.585
Mof_O 	O 	0.5184	0.79151	0.52665	-0.569
Mof_O 	O 	0.724	0.16698	0.40625	-0.612
Mof_O 	O 	0.1724	0.6833	0.62796	-0.586
Mof_O 	O 	0.8762	0.11895	0.46286	-0.459
Mof_O 	O 	0.003	0.76553	0.66708	-0.522
Mof_O 	O 	0.27	0.64955	0.96456	-0.586
Mof_O 	O 	0.0184	0.70849	0.97335	-0.56
Mof_O 	O 	0.224	0.33302	0.09375	-0.616
Mof_O 	O 	0.6724	0.8167	0.87204	-0.59
Mof_O 	O 	0.3762	0.38105	0.03714	-0.466
Mof_O 	O 	0.503	0.73447	0.83292	-0.537
Mof_O 	O 	0.23	0.14955	0.03544	-0.585
Mof_O 	O 	0.4816	0.20849	0.02665	-0.569
Mof_O 	O 	0.276	0.83302	0.90625	-0.612
Mof_O 	O 	0.8276	0.3167	0.12796	-0.586
Mof_O 	O 	0.1238	0.88105	0.96286	-0.459
Mof_O 	O 	0.997	0.23447	0.16708	-0.522
_end
