data_functionalizedCrystal
_audit_creation_method	'EQeq! by Chris Wilmer'
_symmetry_space_group_name_H-M	'P1'
_symmetry_Int_Tables_number	1
_symmetry_cell_setting	triclinic
loop_
_symmetry_equiv_pos_as_xyz
  x,y,z
_cell_length_a	23.984
_cell_length_b	13.122
_cell_length_c	11.917
_cell_angle_alpha	90
_cell_angle_beta	90
_cell_angle_gamma	90
loop_
_atom_site_label
_atom_site_type_symbol
_atom_site_fract_x
_atom_site_fract_y
_atom_site_fract_z
_atom_site_charge
Mof_O 	O 	0.48075	0.6817	0.8833	-0.257
Mof_O 	O 	0.50303	0.5848	0.7395	-0.258
Mof_N 	N 	0.32669	0.2001	0.9883	-0.1
Mof_N 	N 	0.31981	0.1226	0.0611	-0.074
Mof_N 	N 	0.35518	0.1286	0.144	-0.05
Mof_N 	N 	0.3874	0.2108	0.126	-0.111
Mof_C 	C 	0.36892	0.2537	0.0323	0.108
Mof_C 	C 	0.39293	0.3454	0.9801	0.017
Mof_C 	C 	0.39911	0.4353	0.0393	-0.072
Mof_H 	H 	0.3862	0.4399	0.1127	0.07
Mof_C 	C 	0.42472	0.5191	0.9889	0.006
Mof_H 	H 	0.4281	0.5799	0.0286	0.05
Mof_C 	C 	0.44506	0.5128	0.881	-0.064
Mof_C 	C 	0.4374	0.4239	0.8214	0.002
Mof_H 	H 	0.4493	0.4199	0.7472	0.052
Mof_C 	C 	0.4121	0.3402	0.8714	-0.067
Mof_H 	H 	0.4081	0.28	0.831	0.061
Mof_C 	C 	0.47821	0.5989	0.8306	0.291
Mof_C 	C 	0.24483	0.0864	0.3103	0.078
Mof_H 	H 	0.2419	0.1474	0.2709	0.011
Mof_C 	C 	0.24362	0.09	0.4263	-0.129
Mof_H 	H 	0.2386	0.1518	0.4631	0.082
Mof_C 	C 	0.2657	0.0852	0.6738	-0.13
Mof_H 	H 	0.2766	0.1444	0.637	0.082
Mof_C 	C 	0.2652	0.0822	0.7894	0.077
Mof_H 	H 	0.2759	0.1404	0.8283	0.014
Mof_O 	O 	0.01925	0.3183	0.8833	-0.259
Mof_O 	O 	0.99697	0.4152	0.7395	-0.258
Mof_N 	N 	0.17331	0.7999	0.9883	-0.1
Mof_N 	N 	0.18019	0.8774	0.0611	-0.072
Mof_N 	N 	0.14482	0.8714	0.144	-0.048
Mof_N 	N 	0.1126	0.7892	0.126	-0.11
Mof_C 	C 	0.13108	0.7463	0.0323	0.108
Mof_C 	C 	0.10707	0.6546	0.9801	0.018
Mof_C 	C 	0.10089	0.5647	0.0393	-0.074
Mof_H 	H 	0.1138	0.5601	0.1127	0.07
Mof_C 	C 	0.07528	0.4809	0.9889	0.008
Mof_H 	H 	0.0719	0.4201	0.0286	0.049
Mof_C 	C 	0.05494	0.4872	0.881	-0.066
Mof_C 	C 	0.0626	0.5761	0.8214	0.003
Mof_H 	H 	0.0507	0.5801	0.7472	0.052
Mof_C 	C 	0.0879	0.6598	0.8714	-0.068
Mof_H 	H 	0.0919	0.72	0.831	0.061
Mof_C 	C 	0.02179	0.4011	0.8306	0.291
Mof_C 	C 	0.25517	0.9136	0.3103	0.085
Mof_H 	H 	0.2581	0.8526	0.2709	0.01
Mof_C 	C 	0.25638	0.91	0.4263	-0.123
Mof_H 	H 	0.2614	0.8482	0.4631	0.081
Mof_C 	C 	0.2343	0.9148	0.6738	-0.124
Mof_H 	H 	0.2234	0.8556	0.637	0.081
Mof_C 	C 	0.2348	0.9178	0.7894	0.084
Mof_H 	H 	0.2241	0.8596	0.8283	0.013
Mof_O 	O 	0.01925	0.1817	0.6167	-0.26
Mof_O 	O 	0.99697	0.0848	0.7605	-0.26
Mof_N 	N 	0.17331	0.7001	0.5117	-0.1
Mof_N 	N 	0.18019	0.6226	0.4389	-0.074
Mof_N 	N 	0.14482	0.6286	0.356	-0.049
Mof_N 	N 	0.1126	0.7108	0.374	-0.111
Mof_C 	C 	0.13108	0.7537	0.4677	0.11
Mof_C 	C 	0.10707	0.8454	0.5199	0.014
Mof_C 	C 	0.10089	0.9353	0.4607	-0.06
Mof_H 	H 	0.1138	0.9399	0.3873	0.067
Mof_C 	C 	0.07528	0.0191	0.5111	-0.005
Mof_H 	H 	0.0719	0.0799	0.4714	0.052
Mof_C 	C 	0.05494	0.0128	0.619	-0.07
Mof_C 	C 	0.0626	0.9239	0.6786	0.011
Mof_H 	H 	0.0507	0.9199	0.7528	0.051
Mof_C 	C 	0.0879	0.8402	0.6286	-0.068
Mof_H 	H 	0.0919	0.78	0.669	0.061
Mof_C 	C 	0.02179	0.0989	0.6694	0.292
Mof_C 	C 	0.25517	0.5864	0.1897	0.081
Mof_H 	H 	0.2581	0.6474	0.2291	0.011
Mof_C 	C 	0.25638	0.59	0.0737	-0.131
Mof_H 	H 	0.2614	0.6518	0.0369	0.083
Mof_C 	C 	0.2343	0.5852	0.8262	-0.132
Mof_H 	H 	0.2234	0.6444	0.863	0.084
Mof_C 	C 	0.2348	0.5822	0.7106	0.08
Mof_H 	H 	0.2241	0.6404	0.6717	0.013
Mof_O 	O 	0.48075	0.8183	0.6167	-0.258
Mof_O 	O 	0.50303	0.9152	0.7605	-0.255
Mof_N 	N 	0.32669	0.2999	0.5117	-0.1
Mof_N 	N 	0.31981	0.3774	0.4389	-0.074
Mof_N 	N 	0.35518	0.3714	0.356	-0.049
Mof_N 	N 	0.3874	0.2892	0.374	-0.11
Mof_C 	C 	0.36892	0.2463	0.4677	0.108
Mof_C 	C 	0.39293	0.1546	0.5199	0.018
Mof_C 	C 	0.39911	0.0647	0.4607	-0.082
Mof_H 	H 	0.3862	0.0601	0.3873	0.071
Mof_C 	C 	0.42472	0.9809	0.5111	0.015
Mof_H 	H 	0.4281	0.9201	0.4714	0.048
Mof_C 	C 	0.44506	0.9872	0.619	-0.057
Mof_C 	C 	0.4374	0.0761	0.6786	-0.008
Mof_H 	H 	0.4493	0.0801	0.7528	0.054
Mof_C 	C 	0.4121	0.1598	0.6286	-0.064
Mof_H 	H 	0.4081	0.22	0.669	0.06
Mof_C 	C 	0.47821	0.9011	0.6694	0.29
Mof_C 	C 	0.24483	0.4136	0.1897	0.081
Mof_H 	H 	0.2419	0.3526	0.2291	0.01
Mof_C 	C 	0.24362	0.41	0.0737	-0.131
Mof_H 	H 	0.2386	0.3482	0.0369	0.082
Mof_C 	C 	0.2657	0.4148	0.8262	-0.132
Mof_H 	H 	0.2766	0.3556	0.863	0.083
Mof_C 	C 	0.2652	0.4178	0.7106	0.08
Mof_H 	H 	0.2759	0.3596	0.6717	0.013
Mof_O 	O 	0.51925	0.3183	0.1167	-0.259
Mof_O 	O 	0.49697	0.4152	0.2605	-0.258
Mof_N 	N 	0.67331	0.7999	0.0117	-0.1
Mof_N 	N 	0.68019	0.8774	0.9389	-0.072
Mof_N 	N 	0.64482	0.8714	0.856	-0.048
Mof_N 	N 	0.6126	0.7892	0.874	-0.11
Mof_C 	C 	0.63108	0.7463	0.9677	0.109
Mof_C 	C 	0.60707	0.6546	0.0199	0.017
Mof_C 	C 	0.60089	0.5647	0.9607	-0.072
Mof_H 	H 	0.6138	0.5601	0.8873	0.07
Mof_C 	C 	0.57528	0.4809	0.0111	0.007
Mof_H 	H 	0.5719	0.4201	0.9714	0.05
Mof_C 	C 	0.55494	0.4872	0.119	-0.065
Mof_C 	C 	0.5626	0.5761	0.1786	0.002
Mof_H 	H 	0.5507	0.5801	0.2528	0.052
Mof_C 	C 	0.5879	0.6598	0.1286	-0.067
Mof_H 	H 	0.5919	0.72	0.169	0.061
Mof_C 	C 	0.52179	0.4011	0.1694	0.291
Mof_C 	C 	0.75517	0.9136	0.6897	0.085
Mof_H 	H 	0.7581	0.8526	0.7291	0.01
Mof_C 	C 	0.75638	0.91	0.5737	-0.123
Mof_H 	H 	0.7614	0.8482	0.5369	0.081
Mof_C 	C 	0.7343	0.9148	0.3262	-0.124
Mof_H 	H 	0.7234	0.8556	0.363	0.081
Mof_C 	C 	0.7348	0.9178	0.2106	0.084
Mof_H 	H 	0.7241	0.8596	0.1717	0.013
Mof_O 	O 	0.98075	0.6817	0.1167	-0.258
Mof_O 	O 	0.00303	0.5848	0.2605	-0.258
Mof_N 	N 	0.82669	0.2001	0.0117	-0.1
Mof_N 	N 	0.81981	0.1226	0.9389	-0.075
Mof_N 	N 	0.85518	0.1286	0.856	-0.05
Mof_N 	N 	0.8874	0.2108	0.874	-0.111
Mof_C 	C 	0.86892	0.2537	0.9677	0.108
Mof_C 	C 	0.89293	0.3454	0.0199	0.018
Mof_C 	C 	0.89911	0.4353	0.9607	-0.073
Mof_H 	H 	0.8862	0.4399	0.8873	0.07
Mof_C 	C 	0.92472	0.5191	0.0111	0.008
Mof_H 	H 	0.9281	0.5799	0.9714	0.05
Mof_C 	C 	0.94506	0.5128	0.119	-0.065
Mof_C 	C 	0.9374	0.4239	0.1786	0.003
Mof_H 	H 	0.9493	0.4199	0.2528	0.052
Mof_C 	C 	0.9121	0.3402	0.1286	-0.068
Mof_H 	H 	0.9081	0.28	0.169	0.061
Mof_C 	C 	0.97821	0.5989	0.1694	0.292
Mof_C 	C 	0.74483	0.0864	0.6897	0.078
Mof_H 	H 	0.7419	0.1474	0.7291	0.011
Mof_C 	C 	0.74362	0.09	0.5737	-0.129
Mof_H 	H 	0.7386	0.1518	0.5369	0.082
Mof_C 	C 	0.7657	0.0852	0.3262	-0.13
Mof_H 	H 	0.7766	0.1444	0.363	0.082
Mof_C 	C 	0.7652	0.0822	0.2106	0.077
Mof_H 	H 	0.7759	0.1404	0.1717	0.014
Mof_O 	O 	0.98075	0.8183	0.3833	-0.258
Mof_O 	O 	0.00303	0.9152	0.2395	-0.255
Mof_N 	N 	0.82669	0.2999	0.4883	-0.1
Mof_N 	N 	0.81981	0.3774	0.5611	-0.074
Mof_N 	N 	0.85518	0.3714	0.644	-0.049
Mof_N 	N 	0.8874	0.2892	0.626	-0.11
Mof_C 	C 	0.86892	0.2463	0.5323	0.108
Mof_C 	C 	0.89293	0.1546	0.4801	0.018
Mof_C 	C 	0.89911	0.0647	0.5393	-0.081
Mof_H 	H 	0.8862	0.0601	0.6127	0.071
Mof_C 	C 	0.92472	0.9809	0.4889	0.015
Mof_H 	H 	0.9281	0.9201	0.5286	0.048
Mof_C 	C 	0.94506	0.9872	0.381	-0.058
Mof_C 	C 	0.9374	0.0761	0.3214	-0.008
Mof_H 	H 	0.9493	0.0801	0.2472	0.054
Mof_C 	C 	0.9121	0.1598	0.3714	-0.064
Mof_H 	H 	0.9081	0.22	0.331	0.06
Mof_C 	C 	0.97821	0.9011	0.3306	0.29
Mof_C 	C 	0.74483	0.4136	0.8103	0.081
Mof_H 	H 	0.7419	0.3526	0.7709	0.01
Mof_C 	C 	0.74362	0.41	0.9263	-0.131
Mof_H 	H 	0.7386	0.3482	0.9631	0.082
Mof_C 	C 	0.7657	0.4148	0.1738	-0.132
Mof_H 	H 	0.7766	0.3556	0.137	0.083
Mof_C 	C 	0.7652	0.4178	0.2894	0.08
Mof_H 	H 	0.7759	0.3596	0.3283	0.013
Mof_O 	O 	0.51925	0.1817	0.3833	-0.259
Mof_O 	O 	0.49697	0.0848	0.2395	-0.26
Mof_N 	N 	0.67331	0.7001	0.4883	-0.1
Mof_N 	N 	0.68019	0.6226	0.5611	-0.074
Mof_N 	N 	0.64482	0.6286	0.644	-0.049
Mof_N 	N 	0.6126	0.7108	0.626	-0.111
Mof_C 	C 	0.63108	0.7537	0.5323	0.11
Mof_C 	C 	0.60707	0.8454	0.4801	0.014
Mof_C 	C 	0.60089	0.9353	0.5393	-0.06
Mof_H 	H 	0.6138	0.9399	0.6127	0.067
Mof_C 	C 	0.57528	0.0191	0.4889	-0.004
Mof_H 	H 	0.5719	0.0799	0.5286	0.052
Mof_C 	C 	0.55494	0.0128	0.381	-0.07
Mof_C 	C 	0.5626	0.9239	0.3214	0.011
Mof_H 	H 	0.5507	0.9199	0.2472	0.051
Mof_C 	C 	0.5879	0.8402	0.3714	-0.068
Mof_H 	H 	0.5919	0.78	0.331	0.061
Mof_C 	C 	0.52179	0.0989	0.3306	0.292
Mof_C 	C 	0.75517	0.5864	0.8103	0.081
Mof_H 	H 	0.7581	0.6474	0.7709	0.011
Mof_C 	C 	0.75638	0.59	0.9263	-0.131
Mof_H 	H 	0.7614	0.6518	0.9631	0.083
Mof_C 	C 	0.7343	0.5852	0.1738	-0.132
Mof_H 	H 	0.7234	0.6444	0.137	0.083
Mof_C 	C 	0.7348	0.5822	0.2894	0.08
Mof_H 	H 	0.7241	0.6404	0.3283	0.013
Mof_Cd	Cd	0.25	0	0.05118	0.346
Mof_N 	N 	0.25	1.68268e-33	0.2516	-0.155
Mof_N 	N 	0.25	-6.73072e-33	0.8487	-0.155
Mof_C 	C 	0.25	3.36536e-33	0.4874	0.05
Mof_C 	C 	0.25	-6.73072e-33	0.6122	0.055
Mof_Cd	Cd	0.25	0.5	0.44882	0.352
Mof_N 	N 	0.25	0.5	0.2484	-0.152
Mof_N 	N 	0.25	0.5	0.6513	-0.151
Mof_C 	C 	0.25	0.5	0.0126	0.057
Mof_C 	C 	0.25	0.5	0.8878	0.063
Mof_Cd	Cd	0.75	-6.73072e-33	0.94882	0.347
Mof_N 	N 	0.75	0	0.7484	-0.155
Mof_N 	N 	0.75	0	0.1513	-0.155
Mof_C 	C 	0.75	0	0.5126	0.051
Mof_C 	C 	0.75	3.36536e-33	0.3878	0.055
Mof_Cd	Cd	0.75	0.5	0.55118	0.352
Mof_N 	N 	0.75	0.5	0.7516	-0.152
Mof_N 	N 	0.75	0.5	0.3487	-0.151
Mof_C 	C 	0.75	0.5	0.9874	0.057
Mof_C 	C 	0.75	0.5	0.1122	0.063
Mof_Cd	Cd	0.45754	0.25	0.25	0.451
Mof_Cd	Cd	0.04246	0.75	0.25	0.452
Mof_Cd	Cd	0.54246	0.75	0.75	0.452
Mof_Cd	Cd	0.95754	0.25	0.75	0.451
_end
