data_functionalizedCrystal
_audit_creation_method	'EQeq! by Chris Wilmer'
_symmetry_space_group_name_H-M	'P1'
_symmetry_Int_Tables_number	1
_symmetry_cell_setting	triclinic
loop_
_symmetry_equiv_pos_as_xyz
  x,y,z
_cell_length_a	14.4784
_cell_length_b	13.8157
_cell_length_c	19.3044
_cell_angle_alpha	90
_cell_angle_beta	104.539
_cell_angle_gamma	90
loop_
_atom_site_label
_atom_site_type_symbol
_atom_site_fract_x
_atom_site_fract_y
_atom_site_fract_z
_atom_site_charge
Mof_Ca	Ca	0.09796	0.45358	0.19342	1.407
Mof_S 	S 	0.05363	0.24547	0.07124	0.933
Mof_O 	O 	0.0342	0.4563	0.84873	-0.594
Mof_O 	O 	0.1469	0.4435	0.79113	-0.518
Mof_O 	O 	0.057	0.3378	0.1004	-0.333
Mof_O 	O 	0.0445	0.1693	0.1258	-0.117
Mof_O 	O 	0.9875	0.23	0.0059	-0.289
Mof_C 	C 	0.1722	0.2195	0.0614	-0.672
Mof_C 	C 	0.204	0.2613	0.0046	-0.652
Mof_C 	C 	0.1446	0.3242	0.9557	0.235
Mof_H 	H 	0.0865	0.3418	0.9643	-0.08
Mof_C 	C 	0.2667	0.3409	0.8879	-2.197
Mof_C 	C 	0.1661	0.3593	0.8989	-1.028
Mof_C 	C 	0.1116	0.4248	0.8418	0.905
Mof_N 	N 	0.031	0.1937	0.254	-0.04
Mof_C 	C 	0.9777	0.2702	0.245	0.172
Mof_H 	H 	0.9228	0.2574	0.2068	0.087
Mof_C 	C 	0.1314	0.2028	0.2911	-0.669
Mof_H 	H 	0.1529	0.2683	0.2896	0.181
Mof_H 	H 	0.1402	0.183	0.34	0.232
Mof_H 	H 	0.1675	0.161	0.2679	0.269
Mof_C 	C 	0.0336	0.098	0.2616	0.056
Mof_H 	H 	0.9686	0.0806	0.2398	-0.046
Mof_H 	H 	0.0754	0.0617	0.2398	0.045
Mof_H 	H 	0.0481	0.0836	0.3119	0.046
Mof_O 	O 	0.0882	0.3127	0.1301	-0.225
Mof_O 	O 	0.0544	0.151	0.0834	-0.155
Mof_O 	O 	0.9558	0.2861	0.0274	-0.168
Mof_C 	C 	0.1278	0.2778	0.0102	0.341
Mof_C 	C 	0.0973	0.3378	0.9478	-0.064
Mof_H 	H 	0.0362	0.364	0.9364	0.111
Mof_C 	C 	0.2228	0.2418	0.0253	0.198
Mof_C 	C 	0.245	0.3143	0.9121	2.995
Mof_Ca	Ca	0.59796	0.95358	0.19342	1.377
Mof_S 	S 	0.55363	0.74547	0.07124	0.894
Mof_O 	O 	0.5342	0.9563	0.84873	-0.607
Mof_O 	O 	0.6469	0.9435	0.79113	-0.519
Mof_O 	O 	0.557	0.8378	0.1004	-0.341
Mof_O 	O 	0.5445	0.6693	0.1258	-0.122
Mof_O 	O 	0.4875	0.73	0.0059	-0.268
Mof_C 	C 	0.6722	0.7195	0.0614	-0.661
Mof_C 	C 	0.704	0.7613	0.0046	-0.657
Mof_C 	C 	0.6446	0.8242	0.9557	0.24
Mof_H 	H 	0.5865	0.8418	0.9643	-0.084
Mof_C 	C 	0.7667	0.8409	0.8879	-2.175
Mof_C 	C 	0.6661	0.8593	0.8989	-1.026
Mof_C 	C 	0.6116	0.9248	0.8418	0.903
Mof_N 	N 	0.531	0.6937	0.254	-0.085
Mof_C 	C 	0.4777	0.7702	0.245	0.13
Mof_H 	H 	0.4228	0.7574	0.2068	0.11
Mof_C 	C 	0.6314	0.7028	0.2911	-0.6
Mof_H 	H 	0.6529	0.7683	0.2896	0.163
Mof_H 	H 	0.6402	0.683	0.34	0.21
Mof_H 	H 	0.6675	0.661	0.2679	0.247
Mof_C 	C 	0.5336	0.598	0.2616	0.053
Mof_H 	H 	0.4686	0.5806	0.2398	-0.032
Mof_H 	H 	0.5754	0.5617	0.2398	0.044
Mof_H 	H 	0.5481	0.5836	0.3119	0.041
Mof_O 	O 	0.5882	0.8127	0.1301	-0.213
Mof_O 	O 	0.5544	0.651	0.0834	-0.154
Mof_O 	O 	0.4558	0.7861	0.0274	-0.157
Mof_C 	C 	0.6278	0.7778	0.0102	0.335
Mof_C 	C 	0.5973	0.8378	0.9478	-0.058
Mof_H 	H 	0.5362	0.864	0.9364	0.104
Mof_C 	C 	0.7228	0.7418	0.0253	0.195
Mof_C 	C 	0.745	0.8143	0.9121	2.964
Mof_Ca	Ca	0.90204	0.45358	0.30658	1.348
Mof_S 	S 	0.94637	0.24547	0.42876	0.849
Mof_O 	O 	0.9658	0.4563	0.65127	-0.628
Mof_O 	O 	0.8531	0.4435	0.70887	-0.523
Mof_O 	O 	0.943	0.3378	0.3996	-0.348
Mof_O 	O 	0.9555	0.1693	0.3742	-0.127
Mof_O 	O 	0.0125	0.23	0.4941	-0.241
Mof_C 	C 	0.8278	0.2195	0.4386	-0.653
Mof_C 	C 	0.796	0.2613	0.4954	-0.653
Mof_C 	C 	0.8554	0.3242	0.5443	0.234
Mof_H 	H 	0.9135	0.3418	0.5357	-0.079
Mof_C 	C 	0.7333	0.3409	0.6121	-2.199
Mof_C 	C 	0.8339	0.3593	0.6011	-1.037
Mof_C 	C 	0.8884	0.4248	0.6582	0.909
Mof_N 	N 	0.969	0.1937	0.246	-0.122
Mof_C 	C 	0.0223	0.2702	0.255	0.064
Mof_H 	H 	0.0772	0.2574	0.2932	0.14
Mof_C 	C 	0.8686	0.2028	0.2089	-0.548
Mof_H 	H 	0.8471	0.2683	0.2104	0.15
Mof_H 	H 	0.8598	0.183	0.16	0.195
Mof_H 	H 	0.8325	0.161	0.2321	0.231
Mof_C 	C 	0.9664	0.098	0.2384	0.053
Mof_H 	H 	0.0314	0.0806	0.2602	-0.02
Mof_H 	H 	0.9246	0.0617	0.2602	0.044
Mof_H 	H 	0.9519	0.0836	0.1881	0.038
Mof_O 	O 	0.9118	0.3127	0.3699	-0.2
Mof_O 	O 	0.9456	0.151	0.4166	-0.151
Mof_O 	O 	0.0442	0.2861	0.4726	-0.143
Mof_C 	C 	0.8722	0.2778	0.4898	0.334
Mof_C 	C 	0.9027	0.3378	0.5522	-0.063
Mof_H 	H 	0.9638	0.364	0.5636	0.094
Mof_C 	C 	0.7772	0.2418	0.4747	0.194
Mof_C 	C 	0.755	0.3143	0.5879	2.998
Mof_Ca	Ca	0.40204	0.95358	0.30658	1.383
Mof_S 	S 	0.44637	0.74547	0.42876	0.894
Mof_O 	O 	0.4658	0.9563	0.65127	-0.609
Mof_O 	O 	0.3531	0.9435	0.70887	-0.519
Mof_O 	O 	0.443	0.8378	0.3996	-0.341
Mof_O 	O 	0.4555	0.6693	0.3742	-0.122
Mof_O 	O 	0.5125	0.73	0.4941	-0.267
Mof_C 	C 	0.3278	0.7195	0.4386	-0.664
Mof_C 	C 	0.296	0.7613	0.4954	-0.656
Mof_C 	C 	0.3554	0.8242	0.5443	0.238
Mof_H 	H 	0.4135	0.8418	0.5357	-0.08
Mof_C 	C 	0.2333	0.8409	0.6121	-2.206
Mof_C 	C 	0.3339	0.8593	0.6011	-1.039
Mof_C 	C 	0.3884	0.9248	0.6582	0.91
Mof_N 	N 	0.469	0.6937	0.246	-0.084
Mof_C 	C 	0.5223	0.7702	0.255	0.129
Mof_H 	H 	0.5772	0.7574	0.2932	0.11
Mof_C 	C 	0.3686	0.7028	0.2089	-0.603
Mof_H 	H 	0.3471	0.7683	0.2104	0.165
Mof_H 	H 	0.3598	0.683	0.16	0.212
Mof_H 	H 	0.3325	0.661	0.2321	0.249
Mof_C 	C 	0.4664	0.598	0.2384	0.053
Mof_H 	H 	0.5314	0.5806	0.2602	-0.032
Mof_H 	H 	0.4246	0.5617	0.2602	0.044
Mof_H 	H 	0.4519	0.5836	0.1881	0.041
Mof_O 	O 	0.4118	0.8127	0.3699	-0.212
Mof_O 	O 	0.4456	0.651	0.4166	-0.153
Mof_O 	O 	0.5442	0.7861	0.4726	-0.156
Mof_C 	C 	0.3722	0.7778	0.4898	0.34
Mof_C 	C 	0.4027	0.8378	0.5522	-0.064
Mof_H 	H 	0.4638	0.864	0.5636	0.104
Mof_C 	C 	0.2772	0.7418	0.4747	0.195
Mof_C 	C 	0.255	0.8143	0.5879	3.014
Mof_Ca	Ca	0.90204	0.54642	0.80658	1.344
Mof_S 	S 	0.94637	0.75453	0.92876	0.844
Mof_O 	O 	0.9658	0.5437	0.15127	-0.626
Mof_O 	O 	0.8531	0.5565	0.20887	-0.522
Mof_O 	O 	0.943	0.6622	0.8996	-0.349
Mof_O 	O 	0.9555	0.8307	0.8742	-0.128
Mof_O 	O 	0.0125	0.77	0.9941	-0.238
Mof_C 	C 	0.8278	0.7805	0.9386	-0.651
Mof_C 	C 	0.796	0.7387	0.9954	-0.649
Mof_C 	C 	0.8554	0.6758	0.0443	0.231
Mof_H 	H 	0.9135	0.6582	0.0357	-0.078
Mof_C 	C 	0.7333	0.6591	0.1121	-2.195
Mof_C 	C 	0.8339	0.6407	0.1011	-1.033
Mof_C 	C 	0.8884	0.5752	0.1582	0.908
Mof_N 	N 	0.969	0.8063	0.746	-0.127
Mof_C 	C 	0.0223	0.7298	0.755	0.057
Mof_H 	H 	0.0772	0.7426	0.7932	0.144
Mof_C 	C 	0.8686	0.7972	0.7089	-0.539
Mof_H 	H 	0.8471	0.7317	0.7104	0.148
Mof_H 	H 	0.8598	0.817	0.66	0.191
Mof_H 	H 	0.8325	0.839	0.7321	0.228
Mof_C 	C 	0.9664	0.902	0.7384	0.053
Mof_H 	H 	0.0314	0.9194	0.7602	-0.018
Mof_H 	H 	0.9246	0.9383	0.7602	0.044
Mof_H 	H 	0.9519	0.9164	0.6881	0.037
Mof_O 	O 	0.9118	0.6873	0.8699	-0.199
Mof_O 	O 	0.9456	0.849	0.9166	-0.151
Mof_O 	O 	0.0442	0.7139	0.9726	-0.141
Mof_C 	C 	0.8722	0.7222	0.9898	0.332
Mof_C 	C 	0.9027	0.6622	0.0522	-0.064
Mof_H 	H 	0.9638	0.636	0.0636	0.094
Mof_C 	C 	0.7772	0.7582	0.9747	0.194
Mof_C 	C 	0.755	0.6857	0.0879	2.992
Mof_Ca	Ca	0.40204	0.04642	0.80658	1.381
Mof_S 	S 	0.44637	0.25453	0.92876	0.894
Mof_O 	O 	0.4658	0.0437	0.15127	-0.608
Mof_O 	O 	0.3531	0.0565	0.20887	-0.519
Mof_O 	O 	0.443	0.1622	0.8996	-0.342
Mof_O 	O 	0.4555	0.3307	0.8742	-0.122
Mof_O 	O 	0.5125	0.27	0.9941	-0.268
Mof_C 	C 	0.3278	0.2805	0.9386	-0.659
Mof_C 	C 	0.296	0.2387	0.9954	-0.655
Mof_C 	C 	0.3554	0.1758	0.0443	0.241
Mof_H 	H 	0.4135	0.1582	0.0357	-0.083
Mof_C 	C 	0.2333	0.1591	0.1121	-2.194
Mof_C 	C 	0.3339	0.1407	0.1011	-1.037
Mof_C 	C 	0.3884	0.0752	0.1582	0.909
Mof_N 	N 	0.469	0.3063	0.746	-0.084
Mof_C 	C 	0.5223	0.2298	0.755	0.129
Mof_H 	H 	0.5772	0.2426	0.7932	0.109
Mof_C 	C 	0.3686	0.2972	0.7089	-0.606
Mof_H 	H 	0.3471	0.2317	0.7104	0.166
Mof_H 	H 	0.3598	0.317	0.66	0.213
Mof_H 	H 	0.3325	0.339	0.7321	0.25
Mof_C 	C 	0.4664	0.402	0.7384	0.053
Mof_H 	H 	0.5314	0.4194	0.7602	-0.032
Mof_H 	H 	0.4246	0.4383	0.7602	0.044
Mof_H 	H 	0.4519	0.4164	0.6881	0.041
Mof_O 	O 	0.4118	0.1873	0.8699	-0.212
Mof_O 	O 	0.4456	0.349	0.9166	-0.154
Mof_O 	O 	0.5442	0.2139	0.9726	-0.158
Mof_C 	C 	0.3722	0.2222	0.9898	0.334
Mof_C 	C 	0.4027	0.1622	0.0522	-0.06
Mof_H 	H 	0.4638	0.136	0.0636	0.104
Mof_C 	C 	0.2772	0.2582	0.9747	0.192
Mof_C 	C 	0.255	0.1857	0.0879	2.998
Mof_Ca	Ca	0.09796	0.54642	0.69342	1.411
Mof_S 	S 	0.05363	0.75453	0.57124	0.939
Mof_O 	O 	0.0342	0.5437	0.34873	-0.595
Mof_O 	O 	0.1469	0.5565	0.29113	-0.519
Mof_O 	O 	0.057	0.6622	0.6004	-0.332
Mof_O 	O 	0.0445	0.8307	0.6258	-0.116
Mof_O 	O 	0.9875	0.77	0.5059	-0.293
Mof_C 	C 	0.1722	0.7805	0.5614	-0.675
Mof_C 	C 	0.204	0.7387	0.5046	-0.656
Mof_C 	C 	0.1446	0.6758	0.4557	0.238
Mof_H 	H 	0.0865	0.6582	0.4643	-0.081
Mof_C 	C 	0.2667	0.6591	0.3879	-2.201
Mof_C 	C 	0.1661	0.6407	0.3989	-1.032
Mof_C 	C 	0.1116	0.5752	0.3418	0.906
Mof_N 	N 	0.031	0.8063	0.754	-0.034
Mof_C 	C 	0.9777	0.7298	0.745	0.177
Mof_H 	H 	0.9228	0.7426	0.7068	0.085
Mof_C 	C 	0.1314	0.7972	0.7911	-0.679
Mof_H 	H 	0.1529	0.7317	0.7896	0.183
Mof_H 	H 	0.1402	0.817	0.84	0.236
Mof_H 	H 	0.1675	0.839	0.7679	0.273
Mof_C 	C 	0.0336	0.902	0.7616	0.056
Mof_H 	H 	0.9686	0.9194	0.7398	-0.048
Mof_H 	H 	0.0754	0.9383	0.7398	0.045
Mof_H 	H 	0.0481	0.9164	0.8119	0.047
Mof_O 	O 	0.0882	0.6873	0.6301	-0.227
Mof_O 	O 	0.0544	0.849	0.5834	-0.155
Mof_O 	O 	0.9558	0.7139	0.5274	-0.169
Mof_C 	C 	0.1278	0.7222	0.5102	0.344
Mof_C 	C 	0.0973	0.6622	0.4478	-0.063
Mof_H 	H 	0.0362	0.636	0.4364	0.112
Mof_C 	C 	0.2228	0.7582	0.5253	0.198
Mof_C 	C 	0.245	0.6857	0.4121	3.002
Mof_Ca	Ca	0.59796	0.04642	0.69342	1.38
Mof_S 	S 	0.55363	0.25453	0.57124	0.893
Mof_O 	O 	0.5342	0.0437	0.34873	-0.609
Mof_O 	O 	0.6469	0.0565	0.29113	-0.519
Mof_O 	O 	0.557	0.1622	0.6004	-0.34
Mof_O 	O 	0.5445	0.3307	0.6258	-0.122
Mof_O 	O 	0.4875	0.27	0.5059	-0.266
Mof_C 	C 	0.6722	0.2805	0.5614	-0.666
Mof_C 	C 	0.704	0.2387	0.5046	-0.658
Mof_C 	C 	0.6446	0.1758	0.4557	0.236
Mof_H 	H 	0.5865	0.1582	0.4643	-0.082
Mof_C 	C 	0.7667	0.1591	0.3879	-2.187
Mof_C 	C 	0.6661	0.1407	0.3989	-1.028
Mof_C 	C 	0.6116	0.0752	0.3418	0.905
Mof_N 	N 	0.531	0.3063	0.754	-0.085
Mof_C 	C 	0.4777	0.2298	0.745	0.13
Mof_H 	H 	0.4228	0.2426	0.7068	0.11
Mof_C 	C 	0.6314	0.2972	0.7911	-0.597
Mof_H 	H 	0.6529	0.2317	0.7896	0.162
Mof_H 	H 	0.6402	0.317	0.84	0.209
Mof_H 	H 	0.6675	0.339	0.7679	0.246
Mof_C 	C 	0.5336	0.402	0.7616	0.053
Mof_H 	H 	0.4686	0.4194	0.7398	-0.032
Mof_H 	H 	0.5754	0.4383	0.7398	0.044
Mof_H 	H 	0.5481	0.4164	0.8119	0.041
Mof_O 	O 	0.5882	0.1873	0.6301	-0.214
Mof_O 	O 	0.5544	0.349	0.5834	-0.153
Mof_O 	O 	0.4558	0.2139	0.5274	-0.155
Mof_C 	C 	0.6278	0.2222	0.5102	0.341
Mof_C 	C 	0.5973	0.1622	0.4478	-0.062
Mof_H 	H 	0.5362	0.136	0.4364	0.103
Mof_C 	C 	0.7228	0.2582	0.5253	0.198
Mof_C 	C 	0.745	0.1857	0.4121	2.979
Mof_O 	O 	1.56354e-33	0.3548	0.25	-0.504
Mof_O 	O 	0.5	0.8548	0.25	-0.528
Mof_O 	O 	-3.04155e-17	0.6452	0.75	-0.501
Mof_O 	O 	0.5	0.1452	0.75	-0.528
_end
