data_functionalizedCrystal
_audit_creation_method	'EQeq! by Chris Wilmer'
_symmetry_space_group_name_H-M	'P1'
_symmetry_Int_Tables_number	1
_symmetry_cell_setting	triclinic
loop_
_symmetry_equiv_pos_as_xyz
  x,y,z
_cell_length_a	34.057
_cell_length_b	11.41
_cell_length_c	23.001
_cell_angle_alpha	90
_cell_angle_beta	114.913
_cell_angle_gamma	90
loop_
_atom_site_label
_atom_site_type_symbol
_atom_site_fract_x
_atom_site_fract_y
_atom_site_fract_z
_atom_site_charge
Mof_Cu	Cu	0.15763	0.93071	0.56763	0.79
Mof_Cu	Cu	0.16335	0.03991	0.47887	0.8
Mof_Cu	Cu	0.1587	0.08536	0.77058	0.794
Mof_Cu	Cu	0.30584	0.00269	0.67186	0.826
Mof_Cu	Cu	0.01041	0.9853	0.42249	0.814
Mof_Cu	Cu	0.87627	0.11449	0.24714	0.772
Mof_K 	K 	0.12458	0.4809	0.54476	3.836
Mof_S 	S 	0.17302	0.7332	0.58217	-0.524
Mof_S 	S 	0.13726	0.2399	0.46942	-0.468
Mof_S 	S 	0.98461	0.8551	0.48269	-0.279
Mof_O 	O 	0.1404	0.6211	0.4552	-0.565
Mof_O 	O 	0.0765	0.4478	0.4071	-0.482
Mof_O 	O 	0.2044	0.3716	0.5747	-0.591
Mof_O 	O 	0.1985	0.5169	0.6665	-0.517
Mof_O 	O 	0.9253	0.6281	0.3956	-0.509
Mof_O 	O 	0.9297	0.3912	0.4181	-0.643
Mof_C 	C 	0.2045	0.6909	0.5388	-0.206
Mof_H 	H 	0.2289	0.7435	0.5494	0.061
Mof_H 	H 	0.2155	0.6119	0.5506	0.017
Mof_C 	C 	0.176	0.6965	0.4683	0.247
Mof_H 	H 	0.1659	0.7762	0.4561	-0.1
Mof_H 	H 	0.192	0.6723	0.4441	-0.084
Mof_C 	C 	0.1068	0.631	0.393	0.04
Mof_C 	C 	0.0673	0.5659	0.3877	-0.104
Mof_C 	C 	0.089	0.514	0.3656	0.056
Mof_C 	C 	0.0837	0.3711	0.3642	0.055
Mof_C 	C 	0.061	0.3372	0.38	-0.002
Mof_C 	C 	0.0953	0.2484	0.3883	-0.075
Mof_C 	C 	0.1799	0.3281	0.4644	-0.21
Mof_H 	H 	0.1883	0.2962	0.4322	0.059
Mof_H 	H 	0.1698	0.4077	0.4523	-0.014
Mof_C 	C 	0.2177	0.3273	0.5285	0.235
Mof_H 	H 	0.2285	0.248	0.5397	-0.071
Mof_H 	H 	0.2408	0.3754	0.5273	-0.074
Mof_C 	C 	0.2356	0.3599	0.6387	0.149
Mof_H 	H 	0.2613	0.4044	0.6448	-0.053
Mof_H 	H 	0.2438	0.2782	0.6479	-0.052
Mof_C 	C 	0.2171	0.4041	0.683	-0.025
Mof_H 	H 	0.1952	0.3495	0.6828	-0.062
Mof_H 	H 	0.2399	0.4064	0.7263	0.001
Mof_C 	C 	0.2306	0.6052	0.6856	0.208
Mof_H 	H 	0.2506	0.5903	0.6665	-0.086
Mof_H 	H 	0.2468	0.6032	0.7319	-0.078
Mof_C 	C 	0.2107	0.7234	0.6656	-0.122
Mof_H 	H 	0.2336	0.7804	0.674	0.023
Mof_H 	H 	0.1956	0.7443	0.6918	0.013
Mof_C 	C 	0.9281	0.8219	0.4353	-0.122
Mof_H 	H 	0.9169	0.7826	0.4625	-0.071
Mof_H 	H 	0.9125	0.8951	0.4213	-0.003
Mof_C 	C 	0.9189	0.7473	0.3776	0.16
Mof_H 	H 	0.8893	0.7594	0.3465	-0.102
Mof_H 	H 	0.938	0.7693	0.3578	-0.057
Mof_C 	C 	0.9166	0.5487	0.3445	-0.057
Mof_H 	H 	0.9257	0.5827	0.3135	0.026
Mof_H 	H 	0.8858	0.5337	0.3232	-0.075
Mof_C 	C 	0.9402	0.4363	0.3692	0.177
Mof_H 	H 	0.9323	0.38	0.3345	-0.062
Mof_H 	H 	0.9712	0.4497	0.3861	-0.057
Mof_C 	C 	0.9467	0.2787	0.4414	0.262
Mof_H 	H 	0.9453	0.2299	0.4061	-0.09
Mof_H 	H 	0.9295	0.2419	0.4608	-0.152
Mof_C 	C 	0.0074	0.7118	0.5101	-0.153
Mof_H 	H 	0.0062	0.6659	0.4739	0.013
Mof_H 	H 	0.9904	0.6718	0.5289	0.005
Mof_N 	N 	0.2507	0.0105	0.5958	-0.195
Mof_C 	C 	0.217	0.0136	0.555	-0.304
Mof_N 	N 	0.0714	0.9644	0.4552	-0.206
Mof_C 	C 	0.1076	0.9662	0.4844	-0.344
Mof_N 	N 	0.9333	0.0652	0.3074	-0.229
Mof_C 	C 	0.9643	0.0341	0.3492	-0.254
Mof_N 	N 	0.1574	0.0094	0.3925	-0.188
Mof_C 	C 	0.1543	0.9915	0.3418	-0.332
Mof_N 	N 	0.1759	0.3443	0.8003	-0.218
Mof_C 	C 	0.1676	0.2489	0.7853	-0.208
Mof_N 	N 	0.1603	0.9913	0.6477	-0.215
Mof_C 	C 	0.161	0.022	0.6957	-0.299
Mof_N 	N 	0.3478	0.2365	0.7213	-0.222
Mof_C 	C 	0.331	0.147	0.703	-0.229
Mof_Cu	Cu	0.65763	0.43071	0.56763	0.789
Mof_Cu	Cu	0.66335	0.53991	0.47887	0.799
Mof_Cu	Cu	0.6587	0.58536	0.77058	0.793
Mof_Cu	Cu	0.80584	0.50269	0.67186	0.824
Mof_Cu	Cu	0.51041	0.4853	0.42249	0.813
Mof_Cu	Cu	0.37627	0.61449	0.24714	0.773
Mof_K 	K 	0.62458	0.9809	0.54476	3.834
Mof_S 	S 	0.67302	0.2332	0.58217	-0.525
Mof_S 	S 	0.63726	0.7399	0.46942	-0.468
Mof_S 	S 	0.48461	0.3551	0.48269	-0.279
Mof_O 	O 	0.6404	0.1211	0.4552	-0.565
Mof_O 	O 	0.5765	0.9478	0.4071	-0.481
Mof_O 	O 	0.7044	0.8716	0.5747	-0.592
Mof_O 	O 	0.6985	0.0169	0.6665	-0.513
Mof_O 	O 	0.4253	0.1281	0.3956	-0.509
Mof_O 	O 	0.4297	0.8912	0.4181	-0.643
Mof_C 	C 	0.7045	0.1909	0.5388	-0.207
Mof_H 	H 	0.7289	0.2435	0.5494	0.061
Mof_H 	H 	0.7155	0.1119	0.5506	0.018
Mof_C 	C 	0.676	0.1965	0.4683	0.247
Mof_H 	H 	0.6659	0.2762	0.4561	-0.1
Mof_H 	H 	0.692	0.1723	0.4441	-0.084
Mof_C 	C 	0.6068	0.131	0.393	0.04
Mof_C 	C 	0.5673	0.0659	0.3877	-0.104
Mof_C 	C 	0.589	0.014	0.3656	0.055
Mof_C 	C 	0.5837	0.8711	0.3642	0.056
Mof_C 	C 	0.561	0.8372	0.38	-0.002
Mof_C 	C 	0.5953	0.7484	0.3883	-0.074
Mof_C 	C 	0.6799	0.8281	0.4644	-0.211
Mof_H 	H 	0.6883	0.7962	0.4322	0.059
Mof_H 	H 	0.6698	0.9077	0.4523	-0.013
Mof_C 	C 	0.7177	0.8273	0.5285	0.236
Mof_H 	H 	0.7285	0.748	0.5397	-0.071
Mof_H 	H 	0.7408	0.8754	0.5273	-0.074
Mof_C 	C 	0.7356	0.8599	0.6387	0.152
Mof_H 	H 	0.7613	0.9044	0.6448	-0.054
Mof_H 	H 	0.7438	0.7782	0.6479	-0.053
Mof_C 	C 	0.7171	0.9041	0.683	-0.03
Mof_H 	H 	0.6952	0.8495	0.6828	-0.061
Mof_H 	H 	0.7399	0.9064	0.7263	0.002
Mof_C 	C 	0.7306	0.1052	0.6856	0.207
Mof_H 	H 	0.7506	0.0903	0.6665	-0.085
Mof_H 	H 	0.7468	0.1032	0.7319	-0.077
Mof_C 	C 	0.7107	0.2234	0.6656	-0.121
Mof_H 	H 	0.7336	0.2804	0.674	0.023
Mof_H 	H 	0.6956	0.2443	0.6918	0.014
Mof_C 	C 	0.4281	0.3219	0.4353	-0.122
Mof_H 	H 	0.4169	0.2826	0.4625	-0.071
Mof_H 	H 	0.4125	0.3951	0.4213	-0.003
Mof_C 	C 	0.4189	0.2473	0.3776	0.16
Mof_H 	H 	0.3893	0.2594	0.3465	-0.102
Mof_H 	H 	0.438	0.2693	0.3578	-0.057
Mof_C 	C 	0.4166	0.0487	0.3445	-0.059
Mof_H 	H 	0.4257	0.0827	0.3135	0.026
Mof_H 	H 	0.3858	0.0337	0.3232	-0.075
Mof_C 	C 	0.4402	0.9363	0.3692	0.179
Mof_H 	H 	0.4323	0.88	0.3345	-0.062
Mof_H 	H 	0.4712	0.9497	0.3861	-0.057
Mof_C 	C 	0.4467	0.7787	0.4414	0.261
Mof_H 	H 	0.4453	0.7299	0.4061	-0.09
Mof_H 	H 	0.4295	0.7419	0.4608	-0.152
Mof_C 	C 	0.5074	0.2118	0.5101	-0.152
Mof_H 	H 	0.5062	0.1659	0.4739	0.013
Mof_H 	H 	0.4904	0.1718	0.5289	0.005
Mof_N 	N 	0.7507	0.5105	0.5958	-0.195
Mof_C 	C 	0.717	0.5136	0.555	-0.304
Mof_N 	N 	0.5714	0.4644	0.4552	-0.207
Mof_C 	C 	0.6076	0.4662	0.4844	-0.344
Mof_N 	N 	0.4333	0.5652	0.3074	-0.228
Mof_C 	C 	0.4643	0.5341	0.3492	-0.252
Mof_N 	N 	0.6574	0.5094	0.3925	-0.186
Mof_C 	C 	0.6543	0.4915	0.3418	-0.336
Mof_N 	N 	0.6759	0.8443	0.8003	-0.219
Mof_C 	C 	0.6676	0.7489	0.7853	-0.208
Mof_N 	N 	0.6603	0.4913	0.6477	-0.213
Mof_C 	C 	0.661	0.522	0.6957	-0.303
Mof_N 	N 	0.8478	0.7365	0.7213	-0.222
Mof_C 	C 	0.831	0.647	0.703	-0.23
Mof_Cu	Cu	0.84237	0.93071	0.93237	0.786
Mof_Cu	Cu	0.83665	0.03991	0.02113	0.796
Mof_Cu	Cu	0.8413	0.08536	0.72942	0.793
Mof_Cu	Cu	0.69416	0.00269	0.82814	0.826
Mof_Cu	Cu	0.98959	0.9853	0.07751	0.815
Mof_Cu	Cu	0.12373	0.11449	0.25286	0.772
Mof_K 	K 	0.87542	0.4809	0.95524	3.838
Mof_S 	S 	0.82698	0.7332	0.91783	-0.526
Mof_S 	S 	0.86274	0.2399	0.03058	-0.47
Mof_S 	S 	0.01539	0.8551	0.01731	-0.272
Mof_O 	O 	0.8596	0.6211	0.0448	-0.565
Mof_O 	O 	0.9235	0.4478	0.0929	-0.482
Mof_O 	O 	0.7956	0.3716	0.9253	-0.591
Mof_O 	O 	0.8015	0.5169	0.8335	-0.517
Mof_O 	O 	0.0747	0.6281	0.1044	-0.51
Mof_O 	O 	0.0703	0.3912	0.0819	-0.645
Mof_C 	C 	0.7955	0.6909	0.9612	-0.21
Mof_H 	H 	0.7711	0.7435	0.9506	0.061
Mof_H 	H 	0.7845	0.6119	0.9494	0.018
Mof_C 	C 	0.824	0.6965	0.0317	0.251
Mof_H 	H 	0.8341	0.7762	0.0439	-0.1
Mof_H 	H 	0.808	0.6723	0.0559	-0.085
Mof_C 	C 	0.8932	0.631	0.107	0.041
Mof_C 	C 	0.9327	0.5659	0.1123	-0.103
Mof_C 	C 	0.911	0.514	0.1344	0.056
Mof_C 	C 	0.9163	0.3711	0.1358	0.056
Mof_C 	C 	0.939	0.3372	0.12	-0.003
Mof_C 	C 	0.9047	0.2484	0.1117	-0.075
Mof_C 	C 	0.8201	0.3281	0.0356	-0.213
Mof_H 	H 	0.8117	0.2962	0.0678	0.06
Mof_H 	H 	0.8302	0.4077	0.0477	-0.013
Mof_C 	C 	0.7823	0.3273	0.9715	0.239
Mof_H 	H 	0.7715	0.248	0.9603	-0.07
Mof_H 	H 	0.7592	0.3754	0.9727	-0.074
Mof_C 	C 	0.7644	0.3599	0.8613	0.15
Mof_H 	H 	0.7387	0.4044	0.8552	-0.053
Mof_H 	H 	0.7562	0.2782	0.8521	-0.052
Mof_C 	C 	0.7829	0.4041	0.817	-0.025
Mof_H 	H 	0.8048	0.3495	0.8172	-0.061
Mof_H 	H 	0.7601	0.4064	0.7737	0.001
Mof_C 	C 	0.7694	0.6052	0.8144	0.208
Mof_H 	H 	0.7494	0.5903	0.8335	-0.086
Mof_H 	H 	0.7532	0.6032	0.7681	-0.078
Mof_C 	C 	0.7893	0.7234	0.8344	-0.121
Mof_H 	H 	0.7664	0.7804	0.826	0.023
Mof_H 	H 	0.8044	0.7443	0.8082	0.013
Mof_C 	C 	0.0719	0.8219	0.0647	-0.125
Mof_H 	H 	0.0831	0.7826	0.0375	-0.069
Mof_H 	H 	0.0875	0.8951	0.0787	-0.001
Mof_C 	C 	0.0811	0.7473	0.1224	0.162
Mof_H 	H 	0.1107	0.7594	0.1535	-0.103
Mof_H 	H 	0.062	0.7693	0.1422	-0.057
Mof_C 	C 	0.0834	0.5487	0.1555	-0.057
Mof_H 	H 	0.0743	0.5827	0.1865	0.026
Mof_H 	H 	0.1142	0.5337	0.1768	-0.075
Mof_C 	C 	0.0598	0.4363	0.1308	0.178
Mof_H 	H 	0.0677	0.38	0.1655	-0.062
Mof_H 	H 	0.0288	0.4497	0.1139	-0.058
Mof_C 	C 	0.0533	0.2787	0.0586	0.27
Mof_H 	H 	0.0547	0.2299	0.0939	-0.093
Mof_H 	H 	0.0705	0.2419	0.0392	-0.156
Mof_C 	C 	0.9926	0.7118	0.9899	-0.167
Mof_H 	H 	0.9938	0.6659	0.0261	0.019
Mof_H 	H 	0.0096	0.6718	0.9711	0.009
Mof_N 	N 	0.7493	0.0105	0.9042	-0.195
Mof_C 	C 	0.783	0.0136	0.945	-0.299
Mof_N 	N 	0.9286	0.9644	0.0448	-0.206
Mof_C 	C 	0.8924	0.9662	0.0156	-0.338
Mof_N 	N 	0.0667	0.0652	0.1926	-0.228
Mof_C 	C 	0.0357	0.0341	0.1508	-0.257
Mof_N 	N 	0.8426	0.0094	0.1075	-0.191
Mof_C 	C 	0.8457	0.9915	0.1582	-0.327
Mof_N 	N 	0.8241	0.3443	0.6997	-0.218
Mof_C 	C 	0.8324	0.2489	0.7147	-0.208
Mof_N 	N 	0.8397	0.9913	0.8523	-0.218
Mof_C 	C 	0.839	0.022	0.8043	-0.297
Mof_N 	N 	0.6522	0.2365	0.7787	-0.222
Mof_C 	C 	0.669	0.147	0.797	-0.228
Mof_Cu	Cu	0.34237	0.43071	0.93237	0.789
Mof_Cu	Cu	0.33665	0.53991	0.02113	0.799
Mof_Cu	Cu	0.3413	0.58536	0.72942	0.793
Mof_Cu	Cu	0.19416	0.50269	0.82814	0.824
Mof_Cu	Cu	0.48959	0.4853	0.07751	0.813
Mof_Cu	Cu	0.62373	0.61449	0.25286	0.773
Mof_K 	K 	0.37542	0.9809	0.95524	3.807
Mof_S 	S 	0.32698	0.2332	0.91783	-0.521
Mof_S 	S 	0.36274	0.7399	0.03058	-0.464
Mof_S 	S 	0.51539	0.3551	0.01731	-0.284
Mof_O 	O 	0.3596	0.1211	0.0448	-0.564
Mof_O 	O 	0.4235	0.9478	0.0929	-0.475
Mof_O 	O 	0.2956	0.8716	0.9253	-0.59
Mof_O 	O 	0.3015	0.0169	0.8335	-0.508
Mof_O 	O 	0.5747	0.1281	0.1044	-0.507
Mof_O 	O 	0.5703	0.8912	0.0819	-0.637
Mof_C 	C 	0.2955	0.1909	0.9612	-0.201
Mof_H 	H 	0.2711	0.2435	0.9506	0.06
Mof_H 	H 	0.2845	0.1119	0.9494	0.018
Mof_C 	C 	0.324	0.1965	0.0317	0.24
Mof_H 	H 	0.3341	0.2762	0.0439	-0.099
Mof_H 	H 	0.308	0.1723	0.0559	-0.084
Mof_C 	C 	0.3932	0.131	0.107	0.041
Mof_C 	C 	0.4327	0.0659	0.1123	-0.105
Mof_C 	C 	0.411	0.014	0.1344	0.051
Mof_C 	C 	0.4163	0.8711	0.1358	0.057
Mof_C 	C 	0.439	0.8372	0.12	-0.002
Mof_C 	C 	0.4047	0.7484	0.1117	-0.075
Mof_C 	C 	0.3201	0.8281	0.0356	-0.205
Mof_H 	H 	0.3117	0.7962	0.0678	0.058
Mof_H 	H 	0.3302	0.9077	0.0477	-0.012
Mof_C 	C 	0.2823	0.8273	0.9715	0.23
Mof_H 	H 	0.2715	0.748	0.9603	-0.069
Mof_H 	H 	0.2592	0.8754	0.9727	-0.074
Mof_C 	C 	0.2644	0.8599	0.8613	0.153
Mof_H 	H 	0.2387	0.9044	0.8552	-0.055
Mof_H 	H 	0.2562	0.7782	0.8521	-0.053
Mof_C 	C 	0.2829	0.9041	0.817	-0.034
Mof_H 	H 	0.3048	0.8495	0.8172	-0.059
Mof_H 	H 	0.2601	0.9064	0.7737	0.003
Mof_C 	C 	0.2694	0.1052	0.8144	0.205
Mof_H 	H 	0.2494	0.0903	0.8335	-0.083
Mof_H 	H 	0.2532	0.1032	0.7681	-0.077
Mof_C 	C 	0.2893	0.2234	0.8344	-0.121
Mof_H 	H 	0.2664	0.2804	0.826	0.023
Mof_H 	H 	0.3044	0.2443	0.8082	0.014
Mof_C 	C 	0.5719	0.3219	0.0647	-0.119
Mof_H 	H 	0.5831	0.2826	0.0375	-0.071
Mof_H 	H 	0.5875	0.3951	0.0787	-0.003
Mof_C 	C 	0.5811	0.2473	0.1224	0.157
Mof_H 	H 	0.6107	0.2594	0.1535	-0.101
Mof_H 	H 	0.562	0.2693	0.1422	-0.056
Mof_C 	C 	0.5834	0.0487	0.1555	-0.063
Mof_H 	H 	0.5743	0.0827	0.1865	0.027
Mof_H 	H 	0.6142	0.0337	0.1768	-0.073
Mof_C 	C 	0.5598	0.9363	0.1308	0.181
Mof_H 	H 	0.5677	0.88	0.1655	-0.062
Mof_H 	H 	0.5288	0.9497	0.1139	-0.056
Mof_C 	C 	0.5533	0.7787	0.0586	0.252
Mof_H 	H 	0.5547	0.7299	0.0939	-0.087
Mof_H 	H 	0.5705	0.7419	0.0392	-0.148
Mof_C 	C 	0.4926	0.2118	0.9899	-0.137
Mof_H 	H 	0.4938	0.1659	0.0261	0.007
Mof_H 	H 	0.5096	0.1718	0.9711	0.003
Mof_N 	N 	0.2493	0.5105	0.9042	-0.195
Mof_C 	C 	0.283	0.5136	0.945	-0.304
Mof_N 	N 	0.4286	0.4644	0.0448	-0.206
Mof_C 	C 	0.3924	0.4662	0.0156	-0.344
Mof_N 	N 	0.5667	0.5652	0.1926	-0.228
Mof_C 	C 	0.5357	0.5341	0.1508	-0.252
Mof_N 	N 	0.3426	0.5094	0.1075	-0.186
Mof_C 	C 	0.3457	0.4915	0.1582	-0.336
Mof_N 	N 	0.3241	0.8443	0.6997	-0.218
Mof_C 	C 	0.3324	0.7489	0.7147	-0.208
Mof_N 	N 	0.3397	0.4913	0.8523	-0.213
Mof_C 	C 	0.339	0.522	0.8043	-0.303
Mof_N 	N 	0.1522	0.7365	0.7787	-0.222
Mof_C 	C 	0.169	0.647	0.797	-0.23
Mof_Cu	Cu	0.84237	0.06929	0.43237	0.789
Mof_Cu	Cu	0.83665	0.96009	0.52113	0.799
Mof_Cu	Cu	0.8413	0.91464	0.22942	0.793
Mof_Cu	Cu	0.69416	0.99731	0.32814	0.825
Mof_Cu	Cu	0.98959	0.0147	0.57751	0.813
Mof_Cu	Cu	0.12373	0.88551	0.75286	0.771
Mof_K 	K 	0.87542	0.5191	0.45524	3.835
Mof_S 	S 	0.82698	0.2668	0.41783	-0.525
Mof_S 	S 	0.86274	0.7601	0.53058	-0.468
Mof_S 	S 	0.01539	0.1449	0.51731	-0.279
Mof_O 	O 	0.8596	0.3789	0.5448	-0.565
Mof_O 	O 	0.9235	0.5522	0.5929	-0.482
Mof_O 	O 	0.7956	0.6284	0.4253	-0.591
Mof_O 	O 	0.8015	0.4831	0.3335	-0.517
Mof_O 	O 	0.0747	0.3719	0.6044	-0.509
Mof_O 	O 	0.0703	0.6088	0.5819	-0.643
Mof_C 	C 	0.7955	0.3091	0.4612	-0.206
Mof_H 	H 	0.7711	0.2565	0.4506	0.061
Mof_H 	H 	0.7845	0.3881	0.4494	0.017
Mof_C 	C 	0.824	0.3035	0.5317	0.247
Mof_H 	H 	0.8341	0.2238	0.5439	-0.1
Mof_H 	H 	0.808	0.3277	0.5559	-0.084
Mof_C 	C 	0.8932	0.369	0.607	0.04
Mof_C 	C 	0.9327	0.4341	0.6123	-0.104
Mof_C 	C 	0.911	0.486	0.6344	0.056
Mof_C 	C 	0.9163	0.6289	0.6358	0.055
Mof_C 	C 	0.939	0.6628	0.62	-0.002
Mof_C 	C 	0.9047	0.7516	0.6117	-0.075
Mof_C 	C 	0.8201	0.6719	0.5356	-0.21
Mof_H 	H 	0.8117	0.7038	0.5678	0.059
Mof_H 	H 	0.8302	0.5923	0.5477	-0.014
Mof_C 	C 	0.7823	0.6727	0.4715	0.235
Mof_H 	H 	0.7715	0.752	0.4603	-0.071
Mof_H 	H 	0.7592	0.6246	0.4727	-0.074
Mof_C 	C 	0.7644	0.6401	0.3613	0.149
Mof_H 	H 	0.7387	0.5956	0.3552	-0.053
Mof_H 	H 	0.7562	0.7218	0.3521	-0.052
Mof_C 	C 	0.7829	0.5959	0.317	-0.025
Mof_H 	H 	0.8048	0.6505	0.3172	-0.062
Mof_H 	H 	0.7601	0.5936	0.2737	0.001
Mof_C 	C 	0.7694	0.3948	0.3144	0.208
Mof_H 	H 	0.7494	0.4097	0.3335	-0.086
Mof_H 	H 	0.7532	0.3968	0.2681	-0.078
Mof_C 	C 	0.7893	0.2766	0.3344	-0.122
Mof_H 	H 	0.7664	0.2196	0.326	0.023
Mof_H 	H 	0.8044	0.2557	0.3082	0.013
Mof_C 	C 	0.0719	0.1781	0.5647	-0.122
Mof_H 	H 	0.0831	0.2174	0.5375	-0.071
Mof_H 	H 	0.0875	0.1049	0.5787	-0.003
Mof_C 	C 	0.0811	0.2527	0.6224	0.16
Mof_H 	H 	0.1107	0.2406	0.6535	-0.102
Mof_H 	H 	0.062	0.2307	0.6422	-0.057
Mof_C 	C 	0.0834	0.4513	0.6555	-0.057
Mof_H 	H 	0.0743	0.4173	0.6865	0.026
Mof_H 	H 	0.1142	0.4663	0.6768	-0.075
Mof_C 	C 	0.0598	0.5637	0.6308	0.177
Mof_H 	H 	0.0677	0.62	0.6655	-0.062
Mof_H 	H 	0.0288	0.5503	0.6139	-0.057
Mof_C 	C 	0.0533	0.7213	0.5586	0.262
Mof_H 	H 	0.0547	0.7701	0.5939	-0.09
Mof_H 	H 	0.0705	0.7581	0.5392	-0.152
Mof_C 	C 	0.9926	0.2882	0.4899	-0.153
Mof_H 	H 	0.9938	0.3341	0.5261	0.013
Mof_H 	H 	0.0096	0.3282	0.4711	0.005
Mof_N 	N 	0.7493	0.9895	0.4042	-0.195
Mof_C 	C 	0.783	0.9864	0.445	-0.304
Mof_N 	N 	0.9286	0.0356	0.5448	-0.206
Mof_C 	C 	0.8924	0.0338	0.5156	-0.344
Mof_N 	N 	0.0667	0.9348	0.6926	-0.229
Mof_C 	C 	0.0357	0.9659	0.6508	-0.254
Mof_N 	N 	0.8426	0.9906	0.6075	-0.188
Mof_C 	C 	0.8457	0.0085	0.6582	-0.332
Mof_N 	N 	0.8241	0.6557	0.1997	-0.218
Mof_C 	C 	0.8324	0.7511	0.2147	-0.208
Mof_N 	N 	0.8397	0.0087	0.3523	-0.215
Mof_C 	C 	0.839	0.978	0.3043	-0.299
Mof_N 	N 	0.6522	0.7635	0.2787	-0.222
Mof_C 	C 	0.669	0.853	0.297	-0.229
Mof_Cu	Cu	0.34237	0.56929	0.43237	0.789
Mof_Cu	Cu	0.33665	0.46009	0.52113	0.799
Mof_Cu	Cu	0.3413	0.41464	0.22942	0.793
Mof_Cu	Cu	0.19416	0.49731	0.32814	0.824
Mof_Cu	Cu	0.48959	0.5147	0.57751	0.813
Mof_Cu	Cu	0.62373	0.38551	0.75286	0.773
Mof_K 	K 	0.37542	0.0191	0.45524	3.834
Mof_S 	S 	0.32698	0.7668	0.41783	-0.525
Mof_S 	S 	0.36274	0.2601	0.53058	-0.468
Mof_S 	S 	0.51539	0.6449	0.51731	-0.279
Mof_O 	O 	0.3596	0.8789	0.5448	-0.565
Mof_O 	O 	0.4235	0.0522	0.5929	-0.481
Mof_O 	O 	0.2956	0.1284	0.4253	-0.592
Mof_O 	O 	0.3015	0.9831	0.3335	-0.513
Mof_O 	O 	0.5747	0.8719	0.6044	-0.509
Mof_O 	O 	0.5703	0.1088	0.5819	-0.643
Mof_C 	C 	0.2955	0.8091	0.4612	-0.207
Mof_H 	H 	0.2711	0.7565	0.4506	0.061
Mof_H 	H 	0.2845	0.8881	0.4494	0.018
Mof_C 	C 	0.324	0.8035	0.5317	0.247
Mof_H 	H 	0.3341	0.7238	0.5439	-0.1
Mof_H 	H 	0.308	0.8277	0.5559	-0.084
Mof_C 	C 	0.3932	0.869	0.607	0.04
Mof_C 	C 	0.4327	0.9341	0.6123	-0.104
Mof_C 	C 	0.411	0.986	0.6344	0.055
Mof_C 	C 	0.4163	0.1289	0.6358	0.056
Mof_C 	C 	0.439	0.1628	0.62	-0.002
Mof_C 	C 	0.4047	0.2516	0.6117	-0.074
Mof_C 	C 	0.3201	0.1719	0.5356	-0.211
Mof_H 	H 	0.3117	0.2038	0.5678	0.059
Mof_H 	H 	0.3302	0.0923	0.5477	-0.013
Mof_C 	C 	0.2823	0.1727	0.4715	0.236
Mof_H 	H 	0.2715	0.252	0.4603	-0.071
Mof_H 	H 	0.2592	0.1246	0.4727	-0.074
Mof_C 	C 	0.2644	0.1401	0.3613	0.152
Mof_H 	H 	0.2387	0.0956	0.3552	-0.054
Mof_H 	H 	0.2562	0.2218	0.3521	-0.053
Mof_C 	C 	0.2829	0.0959	0.317	-0.03
Mof_H 	H 	0.3048	0.1505	0.3172	-0.061
Mof_H 	H 	0.2601	0.0936	0.2737	0.002
Mof_C 	C 	0.2694	0.8948	0.3144	0.207
Mof_H 	H 	0.2494	0.9097	0.3335	-0.085
Mof_H 	H 	0.2532	0.8968	0.2681	-0.077
Mof_C 	C 	0.2893	0.7766	0.3344	-0.121
Mof_H 	H 	0.2664	0.7196	0.326	0.023
Mof_H 	H 	0.3044	0.7557	0.3082	0.014
Mof_C 	C 	0.5719	0.6781	0.5647	-0.122
Mof_H 	H 	0.5831	0.7174	0.5375	-0.071
Mof_H 	H 	0.5875	0.6049	0.5787	-0.003
Mof_C 	C 	0.5811	0.7527	0.6224	0.16
Mof_H 	H 	0.6107	0.7406	0.6535	-0.102
Mof_H 	H 	0.562	0.7307	0.6422	-0.057
Mof_C 	C 	0.5834	0.9513	0.6555	-0.059
Mof_H 	H 	0.5743	0.9173	0.6865	0.026
Mof_H 	H 	0.6142	0.9663	0.6768	-0.075
Mof_C 	C 	0.5598	0.0637	0.6308	0.179
Mof_H 	H 	0.5677	0.12	0.6655	-0.062
Mof_H 	H 	0.5288	0.0503	0.6139	-0.057
Mof_C 	C 	0.5533	0.2213	0.5586	0.261
Mof_H 	H 	0.5547	0.2701	0.5939	-0.09
Mof_H 	H 	0.5705	0.2581	0.5392	-0.152
Mof_C 	C 	0.4926	0.7882	0.4899	-0.152
Mof_H 	H 	0.4938	0.8341	0.5261	0.013
Mof_H 	H 	0.5096	0.8282	0.4711	0.005
Mof_N 	N 	0.2493	0.4895	0.4042	-0.195
Mof_C 	C 	0.283	0.4864	0.445	-0.304
Mof_N 	N 	0.4286	0.5356	0.5448	-0.207
Mof_C 	C 	0.3924	0.5338	0.5156	-0.344
Mof_N 	N 	0.5667	0.4348	0.6926	-0.228
Mof_C 	C 	0.5357	0.4659	0.6508	-0.252
Mof_N 	N 	0.3426	0.4906	0.6075	-0.186
Mof_C 	C 	0.3457	0.5085	0.6582	-0.336
Mof_N 	N 	0.3241	0.1557	0.1997	-0.219
Mof_C 	C 	0.3324	0.2511	0.2147	-0.208
Mof_N 	N 	0.3397	0.5087	0.3523	-0.213
Mof_C 	C 	0.339	0.478	0.3043	-0.303
Mof_N 	N 	0.1522	0.2635	0.2787	-0.222
Mof_C 	C 	0.169	0.353	0.297	-0.23
Mof_Cu	Cu	0.15763	0.06929	0.06763	0.786
Mof_Cu	Cu	0.16335	0.96009	0.97887	0.796
Mof_Cu	Cu	0.1587	0.91464	0.27058	0.793
Mof_Cu	Cu	0.30584	0.99731	0.17186	0.826
Mof_Cu	Cu	0.01041	0.0147	0.92249	0.815
Mof_Cu	Cu	0.87627	0.88551	0.74714	0.772
Mof_K 	K 	0.12458	0.5191	0.04476	3.838
Mof_S 	S 	0.17302	0.2668	0.08217	-0.526
Mof_S 	S 	0.13726	0.7601	0.96942	-0.47
Mof_S 	S 	0.98461	0.1449	0.98269	-0.272
Mof_O 	O 	0.1404	0.3789	0.9552	-0.565
Mof_O 	O 	0.0765	0.5522	0.9071	-0.482
Mof_O 	O 	0.2044	0.6284	0.0747	-0.591
Mof_O 	O 	0.1985	0.4831	0.1665	-0.517
Mof_O 	O 	0.9253	0.3719	0.8956	-0.51
Mof_O 	O 	0.9297	0.6088	0.9181	-0.645
Mof_C 	C 	0.2045	0.3091	0.0388	-0.21
Mof_H 	H 	0.2289	0.2565	0.0494	0.061
Mof_H 	H 	0.2155	0.3881	0.0506	0.018
Mof_C 	C 	0.176	0.3035	0.9683	0.251
Mof_H 	H 	0.1659	0.2238	0.9561	-0.1
Mof_H 	H 	0.192	0.3277	0.9441	-0.085
Mof_C 	C 	0.1068	0.369	0.893	0.041
Mof_C 	C 	0.0673	0.4341	0.8877	-0.103
Mof_C 	C 	0.089	0.486	0.8656	0.056
Mof_C 	C 	0.0837	0.6289	0.8642	0.056
Mof_C 	C 	0.061	0.6628	0.88	-0.003
Mof_C 	C 	0.0953	0.7516	0.8883	-0.075
Mof_C 	C 	0.1799	0.6719	0.9644	-0.213
Mof_H 	H 	0.1883	0.7038	0.9322	0.06
Mof_H 	H 	0.1698	0.5923	0.9523	-0.013
Mof_C 	C 	0.2177	0.6727	0.0285	0.239
Mof_H 	H 	0.2285	0.752	0.0397	-0.07
Mof_H 	H 	0.2408	0.6246	0.0273	-0.074
Mof_C 	C 	0.2356	0.6401	0.1387	0.15
Mof_H 	H 	0.2613	0.5956	0.1448	-0.053
Mof_H 	H 	0.2438	0.7218	0.1479	-0.052
Mof_C 	C 	0.2171	0.5959	0.183	-0.025
Mof_H 	H 	0.1952	0.6505	0.1828	-0.061
Mof_H 	H 	0.2399	0.5936	0.2263	0.001
Mof_C 	C 	0.2306	0.3948	0.1856	0.208
Mof_H 	H 	0.2506	0.4097	0.1665	-0.086
Mof_H 	H 	0.2468	0.3968	0.2319	-0.078
Mof_C 	C 	0.2107	0.2766	0.1656	-0.121
Mof_H 	H 	0.2336	0.2196	0.174	0.023
Mof_H 	H 	0.1956	0.2557	0.1918	0.013
Mof_C 	C 	0.9281	0.1781	0.9353	-0.125
Mof_H 	H 	0.9169	0.2174	0.9625	-0.069
Mof_H 	H 	0.9125	0.1049	0.9213	-0.001
Mof_C 	C 	0.9189	0.2527	0.8776	0.162
Mof_H 	H 	0.8893	0.2406	0.8465	-0.103
Mof_H 	H 	0.938	0.2307	0.8578	-0.057
Mof_C 	C 	0.9166	0.4513	0.8445	-0.057
Mof_H 	H 	0.9257	0.4173	0.8135	0.026
Mof_H 	H 	0.8858	0.4663	0.8232	-0.075
Mof_C 	C 	0.9402	0.5637	0.8692	0.178
Mof_H 	H 	0.9323	0.62	0.8345	-0.062
Mof_H 	H 	0.9712	0.5503	0.8861	-0.058
Mof_C 	C 	0.9467	0.7213	0.9414	0.27
Mof_H 	H 	0.9453	0.7701	0.9061	-0.093
Mof_H 	H 	0.9295	0.7581	0.9608	-0.156
Mof_C 	C 	0.0074	0.2882	0.0101	-0.167
Mof_H 	H 	0.0062	0.3341	0.9739	0.019
Mof_H 	H 	0.9904	0.3282	0.0289	0.009
Mof_N 	N 	0.2507	0.9895	0.0958	-0.195
Mof_C 	C 	0.217	0.9864	0.055	-0.299
Mof_N 	N 	0.0714	0.0356	0.9552	-0.206
Mof_C 	C 	0.1076	0.0338	0.9844	-0.338
Mof_N 	N 	0.9333	0.9348	0.8074	-0.228
Mof_C 	C 	0.9643	0.9659	0.8492	-0.257
Mof_N 	N 	0.1574	0.9906	0.8925	-0.191
Mof_C 	C 	0.1543	0.0085	0.8418	-0.327
Mof_N 	N 	0.1759	0.6557	0.3003	-0.218
Mof_C 	C 	0.1676	0.7511	0.2853	-0.208
Mof_N 	N 	0.1603	0.0087	0.1477	-0.218
Mof_C 	C 	0.161	0.978	0.1957	-0.297
Mof_N 	N 	0.3478	0.7635	0.2213	-0.222
Mof_C 	C 	0.331	0.853	0.203	-0.228
Mof_Cu	Cu	0.65763	0.56929	0.06763	0.789
Mof_Cu	Cu	0.66335	0.46009	0.97887	0.799
Mof_Cu	Cu	0.6587	0.41464	0.27058	0.793
Mof_Cu	Cu	0.80584	0.49731	0.17186	0.824
Mof_Cu	Cu	0.51041	0.5147	0.92249	0.813
Mof_Cu	Cu	0.37627	0.38551	0.74714	0.773
Mof_K 	K 	0.62458	0.0191	0.04476	3.807
Mof_S 	S 	0.67302	0.7668	0.08217	-0.521
Mof_S 	S 	0.63726	0.2601	0.96942	-0.464
Mof_S 	S 	0.48461	0.6449	0.98269	-0.284
Mof_O 	O 	0.6404	0.8789	0.9552	-0.564
Mof_O 	O 	0.5765	0.0522	0.9071	-0.475
Mof_O 	O 	0.7044	0.1284	0.0747	-0.59
Mof_O 	O 	0.6985	0.9831	0.1665	-0.508
Mof_O 	O 	0.4253	0.8719	0.8956	-0.507
Mof_O 	O 	0.4297	0.1088	0.9181	-0.637
Mof_C 	C 	0.7045	0.8091	0.0388	-0.201
Mof_H 	H 	0.7289	0.7565	0.0494	0.06
Mof_H 	H 	0.7155	0.8881	0.0506	0.018
Mof_C 	C 	0.676	0.8035	0.9683	0.24
Mof_H 	H 	0.6659	0.7238	0.9561	-0.099
Mof_H 	H 	0.692	0.8277	0.9441	-0.084
Mof_C 	C 	0.6068	0.869	0.893	0.041
Mof_C 	C 	0.5673	0.9341	0.8877	-0.105
Mof_C 	C 	0.589	0.986	0.8656	0.051
Mof_C 	C 	0.5837	0.1289	0.8642	0.057
Mof_C 	C 	0.561	0.1628	0.88	-0.002
Mof_C 	C 	0.5953	0.2516	0.8883	-0.075
Mof_C 	C 	0.6799	0.1719	0.9644	-0.205
Mof_H 	H 	0.6883	0.2038	0.9322	0.058
Mof_H 	H 	0.6698	0.0923	0.9523	-0.012
Mof_C 	C 	0.7177	0.1727	0.0285	0.23
Mof_H 	H 	0.7285	0.252	0.0397	-0.069
Mof_H 	H 	0.7408	0.1246	0.0273	-0.074
Mof_C 	C 	0.7356	0.1401	0.1387	0.153
Mof_H 	H 	0.7613	0.0956	0.1448	-0.055
Mof_H 	H 	0.7438	0.2218	0.1479	-0.053
Mof_C 	C 	0.7171	0.0959	0.183	-0.034
Mof_H 	H 	0.6952	0.1505	0.1828	-0.059
Mof_H 	H 	0.7399	0.0936	0.2263	0.003
Mof_C 	C 	0.7306	0.8948	0.1856	0.205
Mof_H 	H 	0.7506	0.9097	0.1665	-0.083
Mof_H 	H 	0.7468	0.8968	0.2319	-0.077
Mof_C 	C 	0.7107	0.7766	0.1656	-0.121
Mof_H 	H 	0.7336	0.7196	0.174	0.023
Mof_H 	H 	0.6956	0.7557	0.1918	0.014
Mof_C 	C 	0.4281	0.6781	0.9353	-0.119
Mof_H 	H 	0.4169	0.7174	0.9625	-0.071
Mof_H 	H 	0.4125	0.6049	0.9213	-0.003
Mof_C 	C 	0.4189	0.7527	0.8776	0.157
Mof_H 	H 	0.3893	0.7406	0.8465	-0.101
Mof_H 	H 	0.438	0.7307	0.8578	-0.056
Mof_C 	C 	0.4166	0.9513	0.8445	-0.063
Mof_H 	H 	0.4257	0.9173	0.8135	0.027
Mof_H 	H 	0.3858	0.9663	0.8232	-0.073
Mof_C 	C 	0.4402	0.0637	0.8692	0.181
Mof_H 	H 	0.4323	0.12	0.8345	-0.062
Mof_H 	H 	0.4712	0.0503	0.8861	-0.056
Mof_C 	C 	0.4467	0.2213	0.9414	0.252
Mof_H 	H 	0.4453	0.2701	0.9061	-0.087
Mof_H 	H 	0.4295	0.2581	0.9608	-0.148
Mof_C 	C 	0.5074	0.7882	0.0101	-0.137
Mof_H 	H 	0.5062	0.8341	0.9739	0.007
Mof_H 	H 	0.4904	0.8282	0.0289	0.003
Mof_N 	N 	0.7507	0.4895	0.0958	-0.195
Mof_C 	C 	0.717	0.4864	0.055	-0.304
Mof_N 	N 	0.5714	0.5356	0.9552	-0.206
Mof_C 	C 	0.6076	0.5338	0.9844	-0.344
Mof_N 	N 	0.4333	0.4348	0.8074	-0.228
Mof_C 	C 	0.4643	0.4659	0.8492	-0.252
Mof_N 	N 	0.6574	0.4906	0.8925	-0.186
Mof_C 	C 	0.6543	0.5085	0.8418	-0.336
Mof_N 	N 	0.6759	0.1557	0.3003	-0.218
Mof_C 	C 	0.6676	0.2511	0.2853	-0.208
Mof_N 	N 	0.6603	0.5087	0.1477	-0.213
Mof_C 	C 	0.661	0.478	0.1957	-0.303
Mof_N 	N 	0.8478	0.2635	0.2213	-0.222
Mof_C 	C 	0.831	0.353	0.203	-0.23
_end
