data_functionalizedCrystal
_audit_creation_method	'EQeq! by Chris Wilmer'
_symmetry_space_group_name_H-M	'P1'
_symmetry_Int_Tables_number	1
_symmetry_cell_setting	triclinic
loop_
_symmetry_equiv_pos_as_xyz
  x,y,z
_cell_length_a	31.2768
_cell_length_b	31.2768
_cell_length_c	31.2768
_cell_angle_alpha	116.484
_cell_angle_beta	116.484
_cell_angle_gamma	116.484
loop_
_atom_site_label
_atom_site_type_symbol
_atom_site_fract_x
_atom_site_fract_y
_atom_site_fract_z
_atom_site_charge
Mof_Zn	Zn	0.49284	0.1665	0.49133	1.232
Mof_Zn	Zn	0.26281	0.91234	0.20272	1.246
Mof_H 	H 	0.173	0.7497	0.094	0.007
Mof_H 	H 	0.174	0.6764	0.0967	0.069
Mof_H 	H 	0.3682	0.9471	0.3287	0.008
Mof_H 	H 	0.3723	0.8799	0.339	0.08
Mof_H 	H 	0.5986	0.3263	0.4619	0.061
Mof_H 	H 	0.6885	0.2869	0.5839	0.072
Mof_H 	H 	0.4532	0.1805	0.3376	0.063
Mof_H 	H 	0.4129	0.9154	0.4813	0.038
Mof_H 	H 	0.3621	0.1675	0.5371	0.099
Mof_H 	H 	0.4619	0.21	0.5691	-0.018
Mof_H 	H 	0.2206	0.0245	0.3128	0.088
Mof_H 	H 	0.3231	0.0615	0.3467	0.004
Mof_C 	C 	0.65174	0.33966	0.6294	0.389
Mof_C 	C 	0.21387	0.7762	0.14453	0.079
Mof_C 	C 	0.27622	0.77218	0.2203	0.053
Mof_C 	C 	0.42304	0.08687	0.34589	0.433
Mof_C 	C 	0.42133	0.0835	0.29607	-0.215
Mof_C 	C 	0.65063	0.32654	0.57703	-0.141
Mof_C 	C 	0.28267	0.09881	0.42332	0.062
Mof_C 	C 	0.21433	0.73195	0.14542	-0.116
Mof_C 	C 	0.32693	0.89092	0.28095	0.089
Mof_C 	C 	0.33081	0.85138	0.28721	-0.127
Mof_C 	C 	0.4952	0.0879	0.5013	0.579
Mof_C 	C 	0.6376	0.2908	0.4677	-0.244
Mof_C 	C 	0.6186	0.319	0.487	-0.011
Mof_C 	C 	0.6274	0.3381	0.5419	0.145
Mof_C 	C 	0.6717	0.2971	0.5611	-0.088
Mof_C 	C 	0.6253	0.2737	0.4035	0.919
Mof_C 	C 	0.6656	0.2841	0.5085	0.197
Mof_C 	C 	0.4252	0.1295	0.2951	-0.05
Mof_C 	C 	0.4126	0.0335	0.2477	0.343
Mof_C 	C 	0.5056	0.0484	0.5037	-0.237
Mof_C 	C 	0.4594	0.0058	0.4977	0.146
Mof_C 	C 	0.4496	0.9497	0.4901	0.029
Mof_C 	C 	0.3539	0.1481	0.4969	-0.167
Mof_C 	C 	0.4113	0.1697	0.5145	0.134
Mof_C 	C 	0.2713	0.0643	0.3672	-0.131
Mof_C 	C 	0.3323	0.0859	0.3875	0.079
Mof_N 	N 	0.26813	0.85361	0.21116	-0.246
Mof_N 	N 	0.40518	0.14098	0.46384	-0.266
Mof_O 	O 	0.6816	0.2435	0.4902	-0.252
Mof_O 	O 	0.4176	0.0066	0.5054	-0.237
Mof_O 	O 	0.36976	0.02322	0.31612	-0.478
Mof_O 	O 	0.71468	0.40857	0.70335	-0.424
Mof_O 	O 	0.5925	0.28211	0.60099	-0.508
Mof_O 	O 	0.47967	0.15628	0.41845	-0.467
Mof_O 	O 	0.47368	0.10662	0.5119	-0.48
Mof_O 	O 	0.59568	0.27535	0.37417	-0.754
Mof_O 	O 	0.6452	0.2557	0.3938	-0.692
Mof_O 	O 	0.40907	0.98993	0.2528	-0.878
Mof_O 	O 	0.52247	0.117	0.49293	-0.474
Mof_O 	O 	0.5938	0.3551	0.5501	-0.233
Mof_C 	C 	0.45829	0.69471	0.47427	0.091
Mof_H 	H 	0.44292	0.67198	0.42298	0.038
Mof_C 	C 	0.51283	0.71729	0.51984	0.089
Mof_H 	H 	0.47261	0.74603	0.50501	-0.015
Mof_O 	O 	0.51149	0.67918	0.48711	-0.257
Mof_H 	H 	0.51127	0.71246	0.55329	0.042
Mof_H 	H 	0.57026	0.7828	0.56468	-0
Mof_C 	C 	0.558	0.71445	0.49817	0.114
Mof_H 	H 	0.52969	0.67728	0.43837	0.022
Mof_H 	H 	0.60833	0.73002	0.53828	0.026
Mof_H 	H 	0.58372	0.77226	0.52921	-0
Mof_C 	C 	0.36169	0.81274	0.53511	0.088
Mof_H 	H 	0.34778	0.79713	0.48647	0.029
Mof_H 	H 	0.42554	0.85125	0.58746	0.016
Mof_C 	C 	0.3562	0.8476	0.55739	0.09
Mof_H 	H 	0.36703	0.86048	0.60376	0.036
Mof_O 	O 	0.29328	0.81034	0.50447	-0.254
Mof_H 	H 	0.4028	0.90683	0.58621	0.006
Mof_C 	C 	0.29572	0.85114	0.5167	0.11
Mof_H 	H 	0.31236	0.88489	0.56948	0.017
Mof_H 	H 	0.23436	0.81428	0.46106	0.025
Mof_H 	H 	0.34293	0.89614	0.53213	0.011
Mof_C 	C 	0.55223	0.43605	0.01716	0.04
Mof_H 	H 	0.52262	0.39165	0.95691	0.034
Mof_C 	C 	0.58523	0.43659	0.05399	0.14
Mof_H 	H 	0.59694	0.49887	0.05142	0.032
Mof_H 	H 	0.54558	0.37215	0.01369	0.026
Mof_H 	H 	0.59943	0.46635	0.10526	0.032
Mof_O 	O 	0.64367	0.4718	0.07985	-0.307
Mof_C 	C 	0.68113	0.53377	0.11697	0.152
Mof_H 	H 	0.70991	0.57063	0.17697	0.007
Mof_H 	H 	0.64169	0.53121	0.08383	-0.027
Mof_H 	H 	0.73026	0.56312	0.12821	0.012
Mof_Zn	Zn	0.49133	0.49284	0.1665	1.233
Mof_Zn	Zn	0.20272	0.26281	0.91234	1.241
Mof_H 	H 	0.094	0.173	0.7497	0.009
Mof_H 	H 	0.0967	0.174	0.6764	0.071
Mof_H 	H 	0.3287	0.3682	0.9471	0.001
Mof_H 	H 	0.339	0.3723	0.8799	0.078
Mof_H 	H 	0.4619	0.5986	0.3263	0.064
Mof_H 	H 	0.5839	0.6885	0.2869	0.073
Mof_H 	H 	0.3376	0.4532	0.1805	0.185
Mof_H 	H 	0.4813	0.4129	0.9154	0.038
Mof_H 	H 	0.5371	0.3621	0.1675	0.097
Mof_H 	H 	0.5691	0.4619	0.21	-0.017
Mof_H 	H 	0.3128	0.2206	0.0245	0.085
Mof_H 	H 	0.3467	0.3231	0.0615	0.006
Mof_C 	C 	0.6294	0.65174	0.33966	0.39
Mof_C 	C 	0.14453	0.21387	0.7762	0.077
Mof_C 	C 	0.2203	0.27622	0.77218	0.052
Mof_C 	C 	0.34589	0.42304	0.08687	0.347
Mof_C 	C 	0.29607	0.42133	0.0835	-0.011
Mof_C 	C 	0.57703	0.65063	0.32654	-0.144
Mof_C 	C 	0.42332	0.28267	0.09881	0.054
Mof_C 	C 	0.14542	0.21433	0.73195	-0.116
Mof_C 	C 	0.28095	0.32693	0.89092	0.083
Mof_C 	C 	0.28721	0.33081	0.85138	-0.129
Mof_C 	C 	0.5013	0.4952	0.0879	0.581
Mof_C 	C 	0.4677	0.6376	0.2908	-0.223
Mof_C 	C 	0.487	0.6186	0.319	-0.024
Mof_C 	C 	0.5419	0.6274	0.3381	0.151
Mof_C 	C 	0.5611	0.6717	0.2971	-0.089
Mof_C 	C 	0.4035	0.6253	0.2737	0.897
Mof_C 	C 	0.5085	0.6656	0.2841	0.2
Mof_C 	C 	0.2951	0.4252	0.1295	-0.39
Mof_C 	C 	0.2477	0.4126	0.0335	0.033
Mof_C 	C 	0.5037	0.5056	0.0484	-0.241
Mof_C 	C 	0.4977	0.4594	0.0058	0.145
Mof_C 	C 	0.4901	0.4496	0.9497	0.029
Mof_C 	C 	0.4969	0.3539	0.1481	-0.162
Mof_C 	C 	0.5145	0.4113	0.1697	0.13
Mof_C 	C 	0.3672	0.2713	0.0643	-0.126
Mof_C 	C 	0.3875	0.3323	0.0859	0.076
Mof_N 	N 	0.21116	0.26813	0.85361	-0.251
Mof_N 	N 	0.46384	0.40518	0.14098	-0.264
Mof_O 	O 	0.4902	0.6816	0.2435	-0.272
Mof_O 	O 	0.5054	0.4176	0.0066	-0.237
Mof_O 	O 	0.31612	0.36976	0.02322	-0.476
Mof_O 	O 	0.70335	0.71468	0.40857	-0.426
Mof_O 	O 	0.60099	0.5925	0.28211	-0.508
Mof_O 	O 	0.41845	0.47967	0.15628	-0.444
Mof_O 	O 	0.5119	0.47368	0.10662	-0.481
Mof_O 	O 	0.37417	0.59568	0.27535	-0.733
Mof_O 	O 	0.3938	0.6452	0.2557	-0.618
Mof_O 	O 	0.2528	0.40907	0.98993	-0.225
Mof_O 	O 	0.49293	0.52247	0.117	-0.481
Mof_O 	O 	0.5501	0.5938	0.3551	-0.236
Mof_C 	C 	0.47427	0.45829	0.69471	0.09
Mof_H 	H 	0.42298	0.44292	0.67198	0.038
Mof_C 	C 	0.51984	0.51283	0.71729	0.09
Mof_H 	H 	0.50501	0.47261	0.74603	-0.014
Mof_O 	O 	0.48711	0.51149	0.67918	-0.259
Mof_H 	H 	0.55329	0.51127	0.71246	0.042
Mof_H 	H 	0.56468	0.57026	0.7828	0.001
Mof_C 	C 	0.49817	0.558	0.71445	0.115
Mof_H 	H 	0.43837	0.52969	0.67728	0.022
Mof_H 	H 	0.53828	0.60833	0.73002	0.024
Mof_H 	H 	0.52921	0.58372	0.77226	-0
Mof_C 	C 	0.53511	0.36169	0.81274	0.086
Mof_H 	H 	0.48647	0.34778	0.79713	0.029
Mof_H 	H 	0.58746	0.42554	0.85125	0.018
Mof_C 	C 	0.55739	0.3562	0.8476	0.092
Mof_H 	H 	0.60376	0.36703	0.86048	0.036
Mof_O 	O 	0.50447	0.29328	0.81034	-0.255
Mof_H 	H 	0.58621	0.4028	0.90683	0.006
Mof_C 	C 	0.5167	0.29572	0.85114	0.111
Mof_H 	H 	0.56948	0.31236	0.88489	0.017
Mof_H 	H 	0.46106	0.23436	0.81428	0.025
Mof_H 	H 	0.53213	0.34293	0.89614	0.01
Mof_C 	C 	0.01716	0.55223	0.43605	0.085
Mof_H 	H 	0.95691	0.52262	0.39165	0.022
Mof_C 	C 	0.05399	0.58523	0.43659	0.101
Mof_H 	H 	0.05142	0.59694	0.49887	0.018
Mof_H 	H 	0.01369	0.54558	0.37215	0.035
Mof_H 	H 	0.10526	0.59943	0.46635	0.04
Mof_O 	O 	0.07985	0.64367	0.4718	-0.288
Mof_C 	C 	0.11697	0.68113	0.53377	0.136
Mof_H 	H 	0.17697	0.70991	0.57063	0.009
Mof_H 	H 	0.08383	0.64169	0.53121	-0.017
Mof_H 	H 	0.12821	0.73026	0.56312	0.015
Mof_Zn	Zn	0.1665	0.49133	0.49284	1.233
Mof_Zn	Zn	0.91234	0.20272	0.26281	1.24
Mof_H 	H 	0.7497	0.094	0.173	0.008
Mof_H 	H 	0.6764	0.0967	0.174	0.07
Mof_H 	H 	0.9471	0.3287	0.3682	-0.003
Mof_H 	H 	0.8799	0.339	0.3723	0.079
Mof_H 	H 	0.3263	0.4619	0.5986	0.064
Mof_H 	H 	0.2869	0.5839	0.6885	0.07
Mof_H 	H 	0.1805	0.3376	0.4532	0.129
Mof_H 	H 	0.9154	0.4813	0.4129	0.044
Mof_H 	H 	0.1675	0.5371	0.3621	0.1
Mof_H 	H 	0.21	0.5691	0.4619	-0.019
Mof_H 	H 	0.0245	0.3128	0.2206	0.087
Mof_H 	H 	0.0615	0.3467	0.3231	0.005
Mof_C 	C 	0.33966	0.6294	0.65174	0.39
Mof_C 	C 	0.7762	0.14453	0.21387	0.08
Mof_C 	C 	0.77218	0.2203	0.27622	0.055
Mof_C 	C 	0.08687	0.34589	0.42304	0.362
Mof_C 	C 	0.0835	0.29607	0.42133	-0.069
Mof_C 	C 	0.32654	0.57703	0.65063	-0.146
Mof_C 	C 	0.09881	0.42332	0.28267	0.066
Mof_C 	C 	0.73195	0.14542	0.21433	-0.118
Mof_C 	C 	0.89092	0.28095	0.32693	0.086
Mof_C 	C 	0.85138	0.28721	0.33081	-0.131
Mof_C 	C 	0.0879	0.5013	0.4952	0.589
Mof_C 	C 	0.2908	0.4677	0.6376	-0.222
Mof_C 	C 	0.319	0.487	0.6186	-0.024
Mof_C 	C 	0.3381	0.5419	0.6274	0.151
Mof_C 	C 	0.2971	0.5611	0.6717	-0.084
Mof_C 	C 	0.2737	0.4035	0.6253	0.896
Mof_C 	C 	0.2841	0.5085	0.6656	0.191
Mof_C 	C 	0.1295	0.2951	0.4252	-0.251
Mof_C 	C 	0.0335	0.2477	0.4126	0.07
Mof_C 	C 	0.0484	0.5037	0.5056	-0.255
Mof_C 	C 	0.0058	0.4977	0.4594	0.163
Mof_C 	C 	0.9497	0.4901	0.4496	0.011
Mof_C 	C 	0.1481	0.4969	0.3539	-0.169
Mof_C 	C 	0.1697	0.5145	0.4113	0.135
Mof_C 	C 	0.0643	0.3672	0.2713	-0.132
Mof_C 	C 	0.0859	0.3875	0.3323	0.079
Mof_N 	N 	0.85361	0.21116	0.26813	-0.252
Mof_N 	N 	0.14098	0.46384	0.40518	-0.266
Mof_O 	O 	0.2435	0.4902	0.6816	-0.232
Mof_O 	O 	0.0066	0.5054	0.4176	-0.253
Mof_O 	O 	0.02322	0.31612	0.36976	-0.481
Mof_O 	O 	0.40857	0.70335	0.71468	-0.423
Mof_O 	O 	0.28211	0.60099	0.5925	-0.508
Mof_O 	O 	0.15628	0.41845	0.47967	-0.451
Mof_O 	O 	0.10662	0.5119	0.47368	-0.483
Mof_O 	O 	0.27535	0.37417	0.59568	-0.733
Mof_O 	O 	0.2557	0.3938	0.6452	-0.62
Mof_O 	O 	0.98993	0.2528	0.40907	-0.23
Mof_O 	O 	0.117	0.49293	0.52247	-0.485
Mof_O 	O 	0.3551	0.5501	0.5938	-0.235
Mof_C 	C 	0.69471	0.47427	0.45829	0.107
Mof_H 	H 	0.67198	0.42298	0.44292	0.034
Mof_C 	C 	0.71729	0.51984	0.51283	0.07
Mof_H 	H 	0.74603	0.50501	0.47261	-0.014
Mof_O 	O 	0.67918	0.48711	0.51149	-0.249
Mof_H 	H 	0.71246	0.55329	0.51127	0.061
Mof_H 	H 	0.7828	0.56468	0.57026	0.007
Mof_C 	C 	0.71445	0.49817	0.558	0.11
Mof_H 	H 	0.67728	0.43837	0.52969	0.023
Mof_H 	H 	0.73002	0.53828	0.60833	0.027
Mof_H 	H 	0.77226	0.52921	0.58372	0.001
Mof_C 	C 	0.81274	0.53511	0.36169	0.089
Mof_H 	H 	0.79713	0.48647	0.34778	0.028
Mof_H 	H 	0.85125	0.58746	0.42554	0.022
Mof_C 	C 	0.8476	0.55739	0.3562	0.088
Mof_H 	H 	0.86048	0.60376	0.36703	0.046
Mof_O 	O 	0.81034	0.50447	0.29328	-0.253
Mof_H 	H 	0.90683	0.58621	0.4028	0.008
Mof_C 	C 	0.85114	0.5167	0.29572	0.11
Mof_H 	H 	0.88489	0.56948	0.31236	0.017
Mof_H 	H 	0.81428	0.46106	0.23436	0.025
Mof_H 	H 	0.89614	0.53213	0.34293	0.01
Mof_C 	C 	0.43605	0.01716	0.55223	0.042
Mof_H 	H 	0.39165	0.95691	0.52262	0.033
Mof_C 	C 	0.43659	0.05399	0.58523	0.139
Mof_H 	H 	0.49887	0.05142	0.59694	0.032
Mof_H 	H 	0.37215	0.01369	0.54558	0.026
Mof_H 	H 	0.46635	0.10526	0.59943	0.032
Mof_O 	O 	0.4718	0.07985	0.64367	-0.306
Mof_C 	C 	0.53377	0.11697	0.68113	0.152
Mof_H 	H 	0.57063	0.17697	0.70991	0.006
Mof_H 	H 	0.53121	0.08383	0.64169	-0.027
Mof_H 	H 	0.56312	0.12821	0.73026	0.011
Mof_Zn	Zn	0.3335	0.00716	0.00867	1.229
Mof_Zn	Zn	0.58766	0.23719	0.29728	1.226
Mof_H 	H 	0.7503	0.327	0.406	0.011
Mof_H 	H 	0.8236	0.326	0.4033	0.07
Mof_H 	H 	0.5529	0.1318	0.1713	-0.006
Mof_H 	H 	0.6201	0.1277	0.161	0.074
Mof_H 	H 	0.1737	0.9014	0.0381	0.069
Mof_H 	H 	0.2131	0.8115	0.9161	0.075
Mof_O 	O 	0.3195	0.0468	0.1624	-0.12
Mof_H 	H 	0.5846	0.0871	0.0187	0.033
Mof_H 	H 	0.3325	0.1379	0.9629	0.127
Mof_H 	H 	0.29	0.0381	0.9309	-0.038
Mof_H 	H 	0.4755	0.2794	0.1872	0.1
Mof_H 	H 	0.4385	0.1769	0.1533	-0.004
Mof_C 	C 	0.16034	0.84826	0.8706	0.38
Mof_C 	C 	0.7238	0.28613	0.35547	0.064
Mof_C 	C 	0.72782	0.22378	0.2797	0.043
Mof_C 	C 	0.41313	0.07696	0.15411	0.371
Mof_C 	C 	0.4165	0.07867	0.20393	-0.204
Mof_C 	C 	0.17346	0.84937	0.92297	-0.119
Mof_C 	C 	0.40119	0.21733	0.07668	0.111
Mof_C 	C 	0.76805	0.28567	0.35458	-0.113
Mof_C 	C 	0.60908	0.17307	0.21905	0.057
Mof_C 	C 	0.64862	0.16919	0.21279	-0.123
Mof_C 	C 	0.4121	0.0048	0.9987	0.579
Mof_C 	C 	0.2092	0.8624	0.0323	-0.229
Mof_C 	C 	0.181	0.8814	0.013	0.003
Mof_C 	C 	0.1619	0.8726	0.9581	0.099
Mof_C 	C 	0.2029	0.8283	0.9389	-0.1
Mof_C 	C 	0.2263	0.8747	0.0965	0.885
Mof_C 	C 	0.2159	0.8344	0.9915	0.205
Mof_C 	C 	0.3705	0.0748	0.2049	0.28
Mof_C 	C 	0.4665	0.0874	0.2523	-0.231
Mof_C 	C 	0.4516	0.9944	0.9963	-0.226
Mof_C 	C 	0.4942	0.0406	0.0023	0.134
Mof_C 	C 	0.5503	0.0504	0.0099	0.038
Mof_C 	C 	0.3519	0.1461	0.0031	-0.238
Mof_C 	C 	0.3303	0.0887	0.9855	0.191
Mof_C 	C 	0.4357	0.2287	0.1328	-0.167
Mof_C 	C 	0.4141	0.1677	0.1125	0.104
Mof_N 	N 	0.64639	0.23187	0.28884	-0.264
Mof_N 	N 	0.35902	0.09482	0.03616	-0.283
Mof_O 	O 	0.2565	0.8184	0.0098	-0.215
Mof_O 	O 	0.4934	0.0824	0.9946	-0.247
Mof_O 	O 	0.47678	0.13024	0.18388	-0.525
Mof_O 	O 	0.09143	0.78532	0.79665	-0.422
Mof_O 	O 	0.21789	0.9075	0.89901	-0.507
Mof_O 	O 	0.34372	0.02033	0.08155	-0.461
Mof_O 	O 	0.39338	0.02632	0.9881	-0.477
Mof_O 	O 	0.22465	0.90432	0.12583	-0.715
Mof_O 	O 	0.2443	0.8548	0.1062	-0.587
Mof_H 	H 	0.51007	0.09093	0.2472	1.627
Mof_O 	O 	0.383	0.97753	0.00707	-0.483
Mof_O 	O 	0.1449	0.9062	0.9499	0.014
Mof_C 	C 	0.80529	0.04171	0.02573	0.231
Mof_H 	H 	0.82802	0.05708	0.07702	0.004
Mof_C 	C 	0.78271	0.98717	0.98016	-0.001
Mof_H 	H 	0.75397	0.02739	0.99499	-0.027
Mof_O 	O 	0.82082	0.98851	0.01289	-0.227
Mof_H 	H 	0.78754	0.98873	0.94671	0.063
Mof_H 	H 	0.7172	0.92974	0.93532	0.035
Mof_C 	C 	0.78555	0.942	0.00183	0.106
Mof_H 	H 	0.82272	0.97031	0.06163	0.023
Mof_H 	H 	0.76998	0.89167	0.96172	0.025
Mof_H 	H 	0.72774	0.91628	0.97079	0
Mof_C 	C 	0.68726	0.13831	0.96489	0.046
Mof_H 	H 	0.70287	0.15222	0.01353	0.039
Mof_H 	H 	0.64875	0.07446	0.91254	0.031
Mof_C 	C 	0.6524	0.1438	0.94261	0.123
Mof_H 	H 	0.63952	0.13297	0.89624	0.029
Mof_O 	O 	0.68966	0.20672	0.99553	-0.268
Mof_H 	H 	0.59317	0.0972	0.91379	-0
Mof_C 	C 	0.64886	0.20428	0.9833	0.122
Mof_H 	H 	0.61511	0.18764	0.93052	0.014
Mof_H 	H 	0.68572	0.26564	0.03894	0.021
Mof_H 	H 	0.60386	0.15707	0.96787	0.009
Mof_C 	C 	0.06395	0.94777	0.48284	0.114
Mof_H 	H 	0.10835	0.97738	0.54309	0.013
Mof_C 	C 	0.06341	0.91477	0.44601	0.071
Mof_H 	H 	0.00113	0.90306	0.44858	-0
Mof_H 	H 	0.12785	0.95442	0.48631	0.042
Mof_H 	H 	0.03365	0.90057	0.39474	0.047
Mof_O 	O 	0.0282	0.85633	0.42015	-0.27
Mof_C 	C 	0.96623	0.81887	0.38303	0.109
Mof_H 	H 	0.92937	0.79009	0.32303	0.014
Mof_H 	H 	0.93688	0.76974	0.37179	0.017
Mof_Zn	Zn	0.00716	0.00867	0.3335	1.232
Mof_Zn	Zn	0.23719	0.29728	0.58766	1.239
Mof_H 	H 	0.327	0.406	0.7503	0.009
Mof_H 	H 	0.326	0.4033	0.8236	0.071
Mof_H 	H 	0.1318	0.1713	0.5529	0
Mof_H 	H 	0.1277	0.161	0.6201	0.078
Mof_H 	H 	0.9014	0.0381	0.1737	0.076
Mof_H 	H 	0.8115	0.9161	0.2131	0.068
Mof_O 	O 	0.0468	0.1624	0.3195	-0.779
Mof_H 	H 	0.0871	0.0187	0.5846	0.016
Mof_H 	H 	0.1379	0.9629	0.3325	0.12
Mof_H 	H 	0.0381	0.9309	0.29	-0.031
Mof_H 	H 	0.2794	0.1872	0.4755	0.098
Mof_H 	H 	0.1769	0.1533	0.4385	0.001
Mof_C 	C 	0.84826	0.8706	0.16034	0.393
Mof_C 	C 	0.28613	0.35547	0.7238	0.076
Mof_C 	C 	0.22378	0.2797	0.72782	0.051
Mof_C 	C 	0.07696	0.15411	0.41313	0.476
Mof_C 	C 	0.07867	0.20393	0.4165	-0.382
Mof_C 	C 	0.84937	0.92297	0.17346	-0.151
Mof_C 	C 	0.21733	0.07668	0.40119	0.099
Mof_C 	C 	0.28567	0.35458	0.76805	-0.115
Mof_C 	C 	0.17307	0.21905	0.60908	0.081
Mof_C 	C 	0.16919	0.21279	0.64862	-0.127
Mof_C 	C 	0.0048	0.9987	0.4121	0.594
Mof_C 	C 	0.8624	0.0323	0.2092	-0.211
Mof_C 	C 	0.8814	0.013	0.181	-0.013
Mof_C 	C 	0.8726	0.9581	0.1619	0.169
Mof_C 	C 	0.8283	0.9389	0.2029	-0.077
Mof_C 	C 	0.8747	0.0965	0.2263	0.891
Mof_C 	C 	0.8344	0.9915	0.2159	0.193
Mof_C 	C 	0.0748	0.2049	0.3705	0.734
Mof_C 	C 	0.0874	0.2523	0.4665	0.068
Mof_C 	C 	0.9944	0.9963	0.4516	-0.246
Mof_C 	C 	0.0406	0.0023	0.4942	0.151
Mof_C 	C 	0.0504	0.0099	0.5503	0.021
Mof_C 	C 	0.1461	0.0031	0.3519	-0.218
Mof_C 	C 	0.0887	0.9855	0.3303	0.175
Mof_C 	C 	0.2287	0.1328	0.4357	-0.156
Mof_C 	C 	0.1677	0.1125	0.4141	0.094
Mof_N 	N 	0.23187	0.28884	0.64639	-0.253
Mof_N 	N 	0.09482	0.03616	0.35902	-0.278
Mof_O 	O 	0.8184	0.0098	0.2565	-0.213
Mof_O 	O 	0.0824	0.9946	0.4934	-0.257
Mof_O 	O 	0.13024	0.18388	0.47678	-0.514
Mof_O 	O 	0.78532	0.79665	0.09143	-0.428
Mof_O 	O 	0.9075	0.89901	0.21789	-0.508
Mof_O 	O 	0.02033	0.08155	0.34372	-0.465
Mof_O 	O 	0.02632	0.9881	0.39338	-0.481
Mof_O 	O 	0.90432	0.12583	0.22465	-0.725
Mof_O 	O 	0.8548	0.1062	0.2443	-0.6
Mof_H 	H 	0.09093	0.2472	0.51007	0.013
Mof_O 	O 	0.97753	0.00707	0.383	-0.486
Mof_O 	O 	0.9062	0.9499	0.1449	-0.254
Mof_C 	C 	0.04171	0.02573	0.80529	0.08
Mof_H 	H 	0.05708	0.07702	0.82802	0.04
Mof_C 	C 	0.98717	0.98016	0.78271	0.097
Mof_H 	H 	0.02739	0.99499	0.75397	-0.007
Mof_O 	O 	0.98851	0.01289	0.82082	-0.261
Mof_H 	H 	0.98873	0.94671	0.78754	0.041
Mof_H 	H 	0.92974	0.93532	0.7172	-0.001
Mof_C 	C 	0.942	0.00183	0.78555	0.112
Mof_H 	H 	0.97031	0.06163	0.82272	0.023
Mof_H 	H 	0.89167	0.96172	0.76998	0.027
Mof_H 	H 	0.91628	0.97079	0.72774	0.001
Mof_C 	C 	0.13831	0.96489	0.68726	0.076
Mof_H 	H 	0.15222	0.01353	0.70287	0.028
Mof_H 	H 	0.07446	0.91254	0.64875	0.026
Mof_C 	C 	0.1438	0.94261	0.6524	0.103
Mof_H 	H 	0.13297	0.89624	0.63952	0.036
Mof_O 	O 	0.20672	0.99553	0.68966	-0.26
Mof_H 	H 	0.0972	0.91379	0.59317	-0.004
Mof_C 	C 	0.20428	0.9833	0.64886	0.119
Mof_H 	H 	0.18764	0.93052	0.61511	0.016
Mof_H 	H 	0.26564	0.03894	0.68572	0.021
Mof_H 	H 	0.15707	0.96787	0.60386	0.007
Mof_C 	C 	0.94777	0.48284	0.06395	0.102
Mof_H 	H 	0.97738	0.54309	0.10835	0.019
Mof_C 	C 	0.91477	0.44601	0.06341	0.084
Mof_H 	H 	0.90306	0.44858	0.00113	0.005
Mof_H 	H 	0.95442	0.48631	0.12785	0.038
Mof_H 	H 	0.90057	0.39474	0.03365	0.043
Mof_O 	O 	0.85633	0.42015	0.0282	-0.278
Mof_C 	C 	0.81887	0.38303	0.96623	0.117
Mof_H 	H 	0.79009	0.32303	0.92937	0.013
Mof_H 	H 	0.76974	0.37179	0.93688	0.018
Mof_Zn	Zn	0.00867	0.3335	0.00716	1.231
Mof_Zn	Zn	0.29728	0.58766	0.23719	1.241
Mof_H 	H 	0.406	0.7503	0.327	0.009
Mof_H 	H 	0.4033	0.8236	0.326	0.071
Mof_H 	H 	0.1713	0.5529	0.1318	0
Mof_H 	H 	0.161	0.6201	0.1277	0.077
Mof_H 	H 	0.0381	0.1737	0.9014	0.257
Mof_H 	H 	0.9161	0.2131	0.8115	0.029
Mof_O 	O 	0.1624	0.3195	0.0468	-1.414
Mof_H 	H 	0.0187	0.5846	0.0871	0.036
Mof_H 	H 	0.9629	0.3325	0.1379	0.113
Mof_H 	H 	0.9309	0.29	0.0381	-0.032
Mof_H 	H 	0.1872	0.4755	0.2794	0.096
Mof_H 	H 	0.1533	0.4385	0.1769	0.001
Mof_C 	C 	0.8706	0.16034	0.84826	0.454
Mof_C 	C 	0.35547	0.7238	0.28613	0.075
Mof_C 	C 	0.2797	0.72782	0.22378	0.051
Mof_C 	C 	0.15411	0.41313	0.07696	0.592
Mof_C 	C 	0.20393	0.4165	0.07867	-0.613
Mof_C 	C 	0.92297	0.17346	0.84937	-0.324
Mof_C 	C 	0.07668	0.40119	0.21733	0.092
Mof_C 	C 	0.35458	0.76805	0.28567	-0.115
Mof_C 	C 	0.21905	0.60908	0.17307	0.081
Mof_C 	C 	0.21279	0.64862	0.16919	-0.127
Mof_C 	C 	0.9987	0.4121	0.0048	0.574
Mof_C 	C 	0.0323	0.2092	0.8624	-0.08
Mof_C 	C 	0.013	0.181	0.8814	-0.417
Mof_C 	C 	0.9581	0.1619	0.8726	0.465
Mof_C 	C 	0.9389	0.2029	0.8283	0.038
Mof_C 	C 	0.0965	0.2263	0.8747	0.813
Mof_C 	C 	0.9915	0.2159	0.8344	0.086
Mof_C 	C 	0.2049	0.3705	0.0748	1.184
Mof_C 	C 	0.2523	0.4665	0.0874	0.149
Mof_C 	C 	0.9963	0.4516	0.9944	-0.236
Mof_C 	C 	0.0023	0.4942	0.0406	0.146
Mof_C 	C 	0.0099	0.5503	0.0504	0.032
Mof_C 	C 	0.0031	0.3519	0.1461	-0.204
Mof_C 	C 	0.9855	0.3303	0.0887	0.162
Mof_C 	C 	0.1328	0.4357	0.2287	-0.152
Mof_C 	C 	0.1125	0.4141	0.1677	0.09
Mof_N 	N 	0.28884	0.64639	0.23187	-0.252
Mof_N 	N 	0.03616	0.35902	0.09482	-0.277
Mof_O 	O 	0.0098	0.2565	0.8184	-0.19
Mof_O 	O 	0.9946	0.4934	0.0824	-0.253
Mof_O 	O 	0.18388	0.47678	0.13024	-0.545
Mof_O 	O 	0.79665	0.09143	0.78532	-0.45
Mof_O 	O 	0.89901	0.21789	0.9075	-0.53
Mof_O 	O 	0.08155	0.34372	0.02033	-0.484
Mof_O 	O 	0.9881	0.39338	0.02632	-0.477
Mof_O 	O 	0.12583	0.22465	0.90432	-0.701
Mof_O 	O 	0.1062	0.2443	0.8548	-0.575
Mof_H 	H 	0.2472	0.51007	0.09093	-0.001
Mof_O 	O 	0.00707	0.383	0.97753	-0.469
Mof_O 	O 	0.9499	0.1449	0.9062	-0.391
Mof_C 	C 	0.02573	0.80529	0.04171	0.105
Mof_H 	H 	0.07702	0.82802	0.05708	0.034
Mof_C 	C 	0.98016	0.78271	0.98717	0.073
Mof_H 	H 	0.99499	0.75397	0.02739	-0.004
Mof_O 	O 	0.01289	0.82082	0.98851	-0.25
Mof_H 	H 	0.94671	0.78754	0.98873	0.041
Mof_H 	H 	0.93532	0.7172	0.92974	0.011
Mof_C 	C 	0.00183	0.78555	0.942	0.128
Mof_H 	H 	0.06163	0.82272	0.97031	0.024
Mof_H 	H 	0.96172	0.76998	0.89167	0.019
Mof_H 	H 	0.97079	0.72774	0.91628	-0.007
Mof_C 	C 	0.96489	0.68726	0.13831	0.087
Mof_H 	H 	0.01353	0.70287	0.15222	0.028
Mof_H 	H 	0.91254	0.64875	0.07446	0.022
Mof_C 	C 	0.94261	0.6524	0.1438	0.091
Mof_H 	H 	0.89624	0.63952	0.13297	0.037
Mof_O 	O 	0.99553	0.68966	0.20672	-0.254
Mof_H 	H 	0.91379	0.59317	0.0972	0.006
Mof_C 	C 	0.9833	0.64886	0.20428	0.112
Mof_H 	H 	0.93052	0.61511	0.18764	0.016
Mof_H 	H 	0.03894	0.68572	0.26564	0.024
Mof_H 	H 	0.96787	0.60386	0.15707	0.01
Mof_C 	C 	0.48284	0.06395	0.94777	0.095
Mof_H 	H 	0.54309	0.10835	0.97738	0.022
Mof_C 	C 	0.44601	0.06341	0.91477	0.089
Mof_H 	H 	0.44858	0.00113	0.90306	0.007
Mof_H 	H 	0.48631	0.12785	0.95442	0.038
Mof_H 	H 	0.39474	0.03365	0.90057	0.043
Mof_O 	O 	0.42015	0.0282	0.85633	-0.28
Mof_C 	C 	0.38303	0.96623	0.81887	0.12
Mof_H 	H 	0.32303	0.92937	0.79009	0.013
Mof_H 	H 	0.37179	0.93688	0.76974	0.018
Mof_Zn	Zn	0.50716	0.8335	0.50867	1.233
Mof_Zn	Zn	0.73719	0.08766	0.79728	1.235
Mof_H 	H 	0.827	0.2503	0.906	0.008
Mof_H 	H 	0.826	0.3236	0.9033	0.07
Mof_H 	H 	0.6318	0.0529	0.6713	-0.001
Mof_H 	H 	0.6277	0.1201	0.661	0.078
Mof_H 	H 	0.4014	0.6737	0.5381	0.066
Mof_H 	H 	0.3115	0.7131	0.4161	0.068
Mof_H 	H 	0.5468	0.8195	0.6624	0.225
Mof_H 	H 	0.5871	0.0846	0.5187	0.048
Mof_H 	H 	0.6379	0.8325	0.4629	0.104
Mof_H 	H 	0.5381	0.79	0.4309	-0.02
Mof_H 	H 	0.7794	0.9755	0.6872	0.092
Mof_H 	H 	0.6769	0.9385	0.6533	0.001
Mof_C 	C 	0.34826	0.66034	0.3706	0.391
Mof_C 	C 	0.78613	0.2238	0.85547	0.076
Mof_C 	C 	0.72378	0.22782	0.7797	0.051
Mof_C 	C 	0.57696	0.91313	0.65411	0.308
Mof_C 	C 	0.57867	0.9165	0.70393	0.054
Mof_C 	C 	0.34937	0.67346	0.42297	-0.149
Mof_C 	C 	0.71733	0.90119	0.57668	0.08
Mof_C 	C 	0.78567	0.26805	0.85458	-0.116
Mof_C 	C 	0.67307	0.10908	0.71905	0.081
Mof_C 	C 	0.66919	0.14862	0.71279	-0.127
Mof_C 	C 	0.5048	0.9121	0.4987	0.591
Mof_C 	C 	0.3624	0.7092	0.5323	-0.216
Mof_C 	C 	0.3814	0.681	0.513	-0.029
Mof_C 	C 	0.3726	0.6619	0.4581	0.154
Mof_C 	C 	0.3283	0.7029	0.4389	-0.08
Mof_C 	C 	0.3747	0.7263	0.5965	0.89
Mof_C 	C 	0.3344	0.7159	0.4915	0.187
Mof_C 	C 	0.5748	0.8705	0.7049	-0.498
Mof_C 	C 	0.5874	0.9665	0.7523	-0.1
Mof_C 	C 	0.4944	0.9516	0.4963	-0.258
Mof_C 	C 	0.5406	0.9942	0.5023	0.169
Mof_C 	C 	0.5504	0.0503	0.5099	0.004
Mof_C 	C 	0.6461	0.8519	0.5031	-0.179
Mof_C 	C 	0.5887	0.8303	0.4855	0.142
Mof_C 	C 	0.7287	0.9357	0.6328	-0.142
Mof_C 	C 	0.6677	0.9141	0.6125	0.086
Mof_N 	N 	0.73187	0.14639	0.78884	-0.254
Mof_N 	N 	0.59482	0.85902	0.53616	-0.268
Mof_O 	O 	0.3184	0.7565	0.5098	-0.217
Mof_O 	O 	0.5824	0.9934	0.4946	-0.26
Mof_O 	O 	0.63024	0.97678	0.68388	-0.472
Mof_O 	O 	0.28532	0.59143	0.29665	-0.425
Mof_O 	O 	0.4075	0.71789	0.39901	-0.509
Mof_O 	O 	0.52033	0.84372	0.58155	-0.435
Mof_O 	O 	0.52632	0.89338	0.4881	-0.483
Mof_O 	O 	0.40432	0.72465	0.62583	-0.727
Mof_O 	O 	0.3548	0.7443	0.6062	-0.616
Mof_H 	H 	0.59093	0.01007	0.7472	0.03
Mof_O 	O 	0.47753	0.883	0.50707	-0.482
Mof_O 	O 	0.4062	0.6449	0.4499	-0.239
Mof_C 	C 	0.54171	0.30529	0.52573	0.082
Mof_H 	H 	0.55708	0.32802	0.57702	0.04
Mof_C 	C 	0.48717	0.28271	0.48016	0.097
Mof_H 	H 	0.52739	0.25397	0.49499	-0.01
Mof_O 	O 	0.48851	0.32082	0.51289	-0.262
Mof_H 	H 	0.48873	0.28754	0.44671	0.04
Mof_H 	H 	0.42974	0.2172	0.43532	-0.001
Mof_C 	C 	0.442	0.28555	0.50183	0.117
Mof_H 	H 	0.47031	0.32272	0.56163	0.021
Mof_H 	H 	0.39167	0.26998	0.46172	0.023
Mof_H 	H 	0.41628	0.22774	0.47079	-0
Mof_C 	C 	0.63831	0.18726	0.46489	0.171
Mof_H 	H 	0.65222	0.20287	0.51353	0.015
Mof_H 	H 	0.57446	0.14875	0.41254	-0.012
Mof_C 	C 	0.6438	0.1524	0.44261	-0.007
Mof_H 	H 	0.63297	0.13952	0.39624	0.019
Mof_O 	O 	0.70672	0.18966	0.49553	-0.214
Mof_H 	H 	0.5972	0.09317	0.41379	0.015
Mof_C 	C 	0.70428	0.14886	0.4833	0.089
Mof_H 	H 	0.68764	0.11511	0.43052	0.011
Mof_H 	H 	0.76564	0.18572	0.53894	0.027
Mof_H 	H 	0.65707	0.10386	0.46787	0.014
Mof_C 	C 	0.44777	0.56395	0.98284	0.133
Mof_H 	H 	0.47738	0.60835	0.04309	0.002
Mof_C 	C 	0.41477	0.56341	0.94601	0.057
Mof_H 	H 	0.40306	0.50113	0.94858	-0.001
Mof_H 	H 	0.45442	0.62785	0.98631	0.045
Mof_H 	H 	0.40057	0.53365	0.89474	0.05
Mof_O 	O 	0.35633	0.5282	0.92015	-0.267
Mof_C 	C 	0.31887	0.46623	0.88303	0.116
Mof_H 	H 	0.29009	0.42937	0.82303	0.013
Mof_H 	H 	0.35831	0.46879	0.91617	-0.008
Mof_H 	H 	0.26974	0.43688	0.87179	0.021
Mof_Zn	Zn	0.50867	0.50716	0.8335	1.233
Mof_Zn	Zn	0.79728	0.73719	0.08766	1.236
Mof_H 	H 	0.906	0.827	0.2503	0.009
Mof_H 	H 	0.9033	0.826	0.3236	0.07
Mof_H 	H 	0.6713	0.6318	0.0529	-0.001
Mof_H 	H 	0.661	0.6277	0.1201	0.078
Mof_H 	H 	0.5381	0.4014	0.6737	0.066
Mof_H 	H 	0.4161	0.3115	0.7131	0.068
Mof_H 	H 	0.6624	0.5468	0.8195	0.154
Mof_H 	H 	0.5187	0.5871	0.0846	0.042
Mof_H 	H 	0.4629	0.6379	0.8325	0.103
Mof_H 	H 	0.4309	0.5381	0.79	-0.02
Mof_H 	H 	0.6872	0.7794	0.9755	0.092
Mof_H 	H 	0.6533	0.6769	0.9385	0.004
Mof_C 	C 	0.3706	0.34826	0.66034	0.391
Mof_C 	C 	0.85547	0.78613	0.2238	0.076
Mof_C 	C 	0.7797	0.72378	0.22782	0.051
Mof_C 	C 	0.65411	0.57696	0.91313	0.333
Mof_C 	C 	0.70393	0.57867	0.9165	-0.015
Mof_C 	C 	0.42297	0.34937	0.67346	-0.149
Mof_C 	C 	0.57668	0.71733	0.90119	0.077
Mof_C 	C 	0.85458	0.78567	0.26805	-0.116
Mof_C 	C 	0.71905	0.67307	0.10908	0.081
Mof_C 	C 	0.71279	0.66919	0.14862	-0.127
Mof_C 	C 	0.4987	0.5048	0.9121	0.591
Mof_C 	C 	0.5323	0.3624	0.7092	-0.216
Mof_C 	C 	0.513	0.3814	0.681	-0.028
Mof_C 	C 	0.4581	0.3726	0.6619	0.154
Mof_C 	C 	0.4389	0.3283	0.7029	-0.08
Mof_C 	C 	0.5965	0.3747	0.7263	0.892
Mof_C 	C 	0.4915	0.3344	0.7159	0.187
Mof_C 	C 	0.7049	0.5748	0.8705	-0.306
Mof_C 	C 	0.7523	0.5874	0.9665	-0.065
Mof_C 	C 	0.4963	0.4944	0.9516	-0.259
Mof_C 	C 	0.5023	0.5406	0.9942	0.171
Mof_C 	C 	0.5099	0.5504	0.0503	0.004
Mof_C 	C 	0.5031	0.6461	0.8519	-0.177
Mof_C 	C 	0.4855	0.5887	0.8303	0.14
Mof_C 	C 	0.6328	0.7287	0.9357	-0.14
Mof_C 	C 	0.6125	0.6677	0.9141	0.084
Mof_N 	N 	0.78884	0.73187	0.14639	-0.254
Mof_N 	N 	0.53616	0.59482	0.85902	-0.267
Mof_O 	O 	0.5098	0.3184	0.7565	-0.215
Mof_O 	O 	0.4946	0.5824	0.9934	-0.269
Mof_O 	O 	0.68388	0.63024	0.97678	-0.479
Mof_O 	O 	0.29665	0.28532	0.59143	-0.426
Mof_O 	O 	0.39901	0.4075	0.71789	-0.509
Mof_O 	O 	0.58155	0.52033	0.84372	-0.442
Mof_O 	O 	0.4881	0.52632	0.89338	-0.483
Mof_O 	O 	0.62583	0.40432	0.72465	-0.729
Mof_O 	O 	0.6062	0.3548	0.7443	-0.616
Mof_H 	H 	0.7472	0.59093	0.01007	0.026
Mof_O 	O 	0.50707	0.47753	0.883	-0.482
Mof_O 	O 	0.4499	0.4062	0.6449	-0.238
Mof_C 	C 	0.52573	0.54171	0.30529	0.087
Mof_H 	H 	0.57702	0.55708	0.32802	0.037
Mof_C 	C 	0.48016	0.48717	0.28271	0.093
Mof_H 	H 	0.49499	0.52739	0.25397	-0.013
Mof_O 	O 	0.51289	0.48851	0.32082	-0.261
Mof_H 	H 	0.44671	0.48873	0.28754	0.041
Mof_H 	H 	0.43532	0.42974	0.2172	0.001
Mof_C 	C 	0.50183	0.442	0.28555	0.117
Mof_H 	H 	0.56163	0.47031	0.32272	0.018
Mof_H 	H 	0.46172	0.39167	0.26998	0.023
Mof_H 	H 	0.47079	0.41628	0.22774	-0.001
Mof_C 	C 	0.46489	0.63831	0.18726	0.252
Mof_H 	H 	0.51353	0.65222	0.20287	-0.009
Mof_H 	H 	0.41254	0.57446	0.14875	-0.015
Mof_C 	C 	0.44261	0.6438	0.1524	-0.105
Mof_H 	H 	0.39624	0.63297	0.13952	0.083
Mof_O 	O 	0.49553	0.70672	0.18966	-0.181
Mof_H 	H 	0.41379	0.5972	0.09317	0.136
Mof_C 	C 	0.4833	0.70428	0.14886	0.076
Mof_H 	H 	0.43052	0.68764	0.11511	0.027
Mof_H 	H 	0.53894	0.76564	0.18572	0.028
Mof_H 	H 	0.46787	0.65707	0.10386	0.009
Mof_C 	C 	0.98284	0.44777	0.56395	0.053
Mof_H 	H 	0.04309	0.47738	0.60835	0.03
Mof_C 	C 	0.94601	0.41477	0.56341	0.129
Mof_H 	H 	0.94858	0.40306	0.50113	0.028
Mof_H 	H 	0.98631	0.45442	0.62785	0.028
Mof_H 	H 	0.89474	0.40057	0.53365	0.034
Mof_O 	O 	0.92015	0.35633	0.5282	-0.302
Mof_C 	C 	0.88303	0.31887	0.46623	0.148
Mof_H 	H 	0.82303	0.29009	0.42937	0.003
Mof_H 	H 	0.91617	0.35831	0.46879	-0.025
Mof_H 	H 	0.87179	0.26974	0.43688	0.014
Mof_Zn	Zn	0.8335	0.50867	0.50716	1.233
Mof_Zn	Zn	0.08766	0.79728	0.73719	1.239
Mof_H 	H 	0.2503	0.906	0.827	0.009
Mof_H 	H 	0.3236	0.9033	0.826	0.07
Mof_H 	H 	0.0529	0.6713	0.6318	0.001
Mof_H 	H 	0.1201	0.661	0.6277	0.078
Mof_H 	H 	0.6737	0.5381	0.4014	0.053
Mof_H 	H 	0.7131	0.4161	0.3115	0.069
Mof_O 	O 	0.8195	0.6624	0.5468	-0.055
Mof_H 	H 	0.0846	0.5187	0.5871	0.039
Mof_H 	H 	0.8325	0.4629	0.6379	0.099
Mof_H 	H 	0.79	0.4309	0.5381	-0.017
Mof_H 	H 	0.9755	0.6872	0.7794	0.086
Mof_H 	H 	0.9385	0.6533	0.6769	0.006
Mof_C 	C 	0.66034	0.3706	0.34826	0.391
Mof_C 	C 	0.2238	0.85547	0.78613	0.076
Mof_C 	C 	0.22782	0.7797	0.72378	0.051
Mof_C 	C 	0.91313	0.65411	0.57696	0.406
Mof_C 	C 	0.9165	0.70393	0.57867	-0.202
Mof_C 	C 	0.67346	0.42297	0.34937	-0.146
Mof_C 	C 	0.90119	0.57668	0.71733	0.059
Mof_C 	C 	0.26805	0.85458	0.78567	-0.115
Mof_C 	C 	0.10908	0.71905	0.67307	0.081
Mof_C 	C 	0.14862	0.71279	0.66919	-0.127
Mof_C 	C 	0.9121	0.4987	0.5048	0.583
Mof_C 	C 	0.7092	0.5323	0.3624	-0.218
Mof_C 	C 	0.681	0.513	0.3814	-0.012
Mof_C 	C 	0.6619	0.4581	0.3726	0.151
Mof_C 	C 	0.7029	0.4389	0.3283	-0.082
Mof_C 	C 	0.7263	0.5965	0.3747	0.89
Mof_C 	C 	0.7159	0.4915	0.3344	0.19
Mof_C 	C 	0.8705	0.7049	0.5748	0.22
Mof_C 	C 	0.9665	0.7523	0.5874	0.002
Mof_C 	C 	0.9516	0.4963	0.4944	-0.244
Mof_C 	C 	0.9942	0.5023	0.5406	0.151
Mof_C 	C 	0.0503	0.5099	0.5504	0.023
Mof_C 	C 	0.8519	0.5031	0.6461	-0.164
Mof_C 	C 	0.8303	0.4855	0.5887	0.132
Mof_C 	C 	0.9357	0.6328	0.7287	-0.128
Mof_C 	C 	0.9141	0.6125	0.6677	0.077
Mof_N 	N 	0.14639	0.78884	0.73187	-0.253
Mof_N 	N 	0.85902	0.53616	0.59482	-0.265
Mof_O 	O 	0.7565	0.5098	0.3184	-0.214
Mof_O 	O 	0.9934	0.4946	0.5824	-0.242
Mof_O 	O 	0.97678	0.68388	0.63024	-0.498
Mof_O 	O 	0.59143	0.29665	0.28532	-0.427
Mof_O 	O 	0.71789	0.39901	0.4075	-0.508
Mof_O 	O 	0.84372	0.58155	0.52033	-0.458
Mof_O 	O 	0.89338	0.4881	0.52632	-0.481
Mof_O 	O 	0.72465	0.62583	0.40432	-0.731
Mof_O 	O 	0.7443	0.6062	0.3548	-0.595
Mof_H 	H 	0.01007	0.7472	0.59093	0.025
Mof_O 	O 	0.883	0.50707	0.47753	-0.48
Mof_O 	O 	0.6449	0.4499	0.4062	-0.243
Mof_C 	C 	0.30529	0.52573	0.54171	0.083
Mof_H 	H 	0.32802	0.57702	0.55708	0.04
Mof_C 	C 	0.28271	0.48016	0.48717	0.097
Mof_H 	H 	0.25397	0.49499	0.52739	-0.012
Mof_O 	O 	0.32082	0.51289	0.48851	-0.262
Mof_H 	H 	0.28754	0.44671	0.48873	0.038
Mof_H 	H 	0.2172	0.43532	0.42974	-0.003
Mof_C 	C 	0.28555	0.50183	0.442	0.117
Mof_H 	H 	0.32272	0.56163	0.47031	0.022
Mof_H 	H 	0.26998	0.46172	0.39167	0.021
Mof_H 	H 	0.22774	0.47079	0.41628	-0.001
Mof_C 	C 	0.18726	0.46489	0.63831	0.126
Mof_H 	H 	0.20287	0.51353	0.65222	0.019
Mof_H 	H 	0.14875	0.41254	0.57446	-0.011
Mof_C 	C 	0.1524	0.44261	0.6438	0.069
Mof_H 	H 	0.13952	0.39624	0.63297	0.052
Mof_O 	O 	0.18966	0.49553	0.70672	-0.247
Mof_H 	H 	0.09317	0.41379	0.5972	0.032
Mof_C 	C 	0.14886	0.4833	0.70428	0.108
Mof_H 	H 	0.11511	0.43052	0.68764	0.021
Mof_H 	H 	0.18572	0.53894	0.76564	0.026
Mof_H 	H 	0.10386	0.46787	0.65707	0.011
Mof_C 	C 	0.56395	0.98284	0.44777	0.107
Mof_H 	H 	0.60835	0.04309	0.47738	0.017
Mof_C 	C 	0.56341	0.94601	0.41477	0.083
Mof_H 	H 	0.50113	0.94858	0.40306	0.011
Mof_H 	H 	0.62785	0.98631	0.45442	0.039
Mof_H 	H 	0.53365	0.89474	0.40057	0.044
Mof_O 	O 	0.5282	0.92015	0.35633	-0.281
Mof_C 	C 	0.46623	0.88303	0.31887	0.13
Mof_H 	H 	0.42937	0.82303	0.29009	0.01
Mof_H 	H 	0.46879	0.91617	0.35831	-0.009
Mof_H 	H 	0.43688	0.87179	0.26974	0.019
Mof_Zn	Zn	0.6665	0.99284	0.99133	1.236
Mof_Zn	Zn	0.41234	0.76281	0.70272	1.241
Mof_H 	H 	0.2497	0.673	0.594	0.009
Mof_H 	H 	0.1764	0.674	0.5967	0.071
Mof_H 	H 	0.4471	0.8682	0.8287	0.002
Mof_H 	H 	0.3799	0.8723	0.839	0.079
Mof_H 	H 	0.8263	0.0986	0.9619	0.531
Mof_H 	H 	0.7869	0.1885	0.0839	0.005
Mof_O 	O 	0.6805	0.9532	0.8376	-1.77
Mof_H 	H 	0.4154	0.9129	0.9813	0.048
Mof_H 	H 	0.6675	0.8621	0.0371	0.103
Mof_H 	H 	0.71	0.9619	0.0691	-0.019
Mof_H 	H 	0.5245	0.7206	0.8128	0.094
Mof_H 	H 	0.5615	0.8231	0.8467	0.007
Mof_C 	C 	0.83966	0.15174	0.1294	0.476
Mof_C 	C 	0.2762	0.71387	0.64453	0.076
Mof_C 	C 	0.27218	0.77622	0.7203	0.051
Mof_C 	C 	0.58687	0.92304	0.84589	0.584
Mof_C 	C 	0.5835	0.92133	0.79607	-0.677
Mof_C 	C 	0.82654	0.15063	0.07703	-0.378
Mof_C 	C 	0.59881	0.78267	0.92332	0.077
Mof_C 	C 	0.23195	0.71433	0.64542	-0.115
Mof_C 	C 	0.39092	0.82693	0.78095	0.082
Mof_C 	C 	0.35138	0.83081	0.78721	-0.127
Mof_C 	C 	0.5879	0.9952	0.0013	0.605
Mof_C 	C 	0.7908	0.1376	0.9677	0.12
Mof_C 	C 	0.819	0.1186	0.987	-0.771
Mof_C 	C 	0.8381	0.1274	0.0419	0.576
Mof_C 	C 	0.7971	0.1717	0.0611	0.111
Mof_C 	C 	0.7737	0.1253	0.9035	0.804
Mof_C 	C 	0.7841	0.1656	0.0085	0.02
Mof_C 	C 	0.6295	0.9252	0.7951	1.432
Mof_C 	C 	0.5335	0.9126	0.7477	0.196
Mof_C 	C 	0.5484	0.0056	0.0037	-0.28
Mof_C 	C 	0.5058	0.9594	0.9977	0.183
Mof_C 	C 	0.4497	0.9496	0.9901	-0.004
Mof_C 	C 	0.6481	0.8539	0.9969	-0.178
Mof_C 	C 	0.6697	0.9113	0.0145	0.141
Mof_C 	C 	0.5643	0.7713	0.8672	-0.14
Mof_C 	C 	0.5859	0.8323	0.8875	0.085
Mof_N 	N 	0.35361	0.76813	0.71116	-0.252
Mof_N 	N 	0.64098	0.90518	0.96384	-0.267
Mof_O 	O 	0.7435	0.1816	0.9902	-0.177
Mof_O 	O 	0.5066	0.9176	0.0054	-0.27
Mof_O 	O 	0.52322	0.86976	0.81612	-0.541
Mof_O 	O 	0.90857	0.21468	0.20335	-0.45
Mof_O 	O 	0.78211	0.0925	0.10099	-0.532
Mof_O 	O 	0.65628	0.97967	0.91845	-0.491
Mof_O 	O 	0.60662	0.97368	0.0119	-0.486
Mof_O 	O 	0.77535	0.09568	0.87417	-0.693
Mof_O 	O 	0.7557	0.1452	0.8938	-0.585
Mof_H 	H 	0.48993	0.90907	0.7528	-0.004
Mof_O 	O 	0.617	0.02247	0.99293	-0.483
Mof_O 	O 	0.8551	0.0938	0.0501	-0.386
Mof_C 	C 	0.19471	0.95829	0.97427	-0.586
Mof_H 	H 	0.17198	0.94292	0.92298	0.18
Mof_C 	C 	0.21729	0.01283	0.01984	0.995
Mof_H 	H 	0.24603	0.97261	0.00501	0.146
Mof_O 	O 	0.17918	0.01149	0.98711	-0.594
Mof_H 	H 	0.21246	0.01127	0.05329	-0.29
Mof_H 	H 	0.2828	0.07026	0.06468	-0.178
Mof_C 	C 	0.21445	0.058	0.99817	0.331
Mof_H 	H 	0.17728	0.02969	0.93837	-0.017
Mof_H 	H 	0.23002	0.10833	0.03828	-0.016
Mof_H 	H 	0.27226	0.08372	0.02921	-0.049
Mof_C 	C 	0.31274	0.86169	0.03511	0.081
Mof_H 	H 	0.29713	0.84778	0.98647	0.032
Mof_H 	H 	0.35125	0.92554	0.08746	0.022
Mof_C 	C 	0.3476	0.8562	0.05739	0.084
Mof_H 	H 	0.36048	0.86703	0.10376	0.036
Mof_O 	O 	0.31034	0.79328	0.00447	-0.251
Mof_H 	H 	0.40683	0.9028	0.08621	-0.011
Mof_C 	C 	0.35114	0.79572	0.0167	0.104
Mof_H 	H 	0.38489	0.81236	0.06948	0.011
Mof_H 	H 	0.31428	0.73436	0.96106	0.028
Mof_H 	H 	0.39614	0.84293	0.03213	0.008
Mof_C 	C 	0.93605	0.05223	0.51716	0.115
Mof_H 	H 	0.89165	0.02262	0.45691	0.015
Mof_C 	C 	0.93659	0.08523	0.55399	0.073
Mof_H 	H 	0.99887	0.09694	0.55142	0
Mof_H 	H 	0.87215	0.04558	0.51369	0.04
Mof_H 	H 	0.96635	0.09943	0.60526	0.046
Mof_O 	O 	0.9718	0.14367	0.57985	-0.275
Mof_C 	C 	0.03377	0.18113	0.61697	0.118
Mof_H 	H 	0.07063	0.20991	0.67697	0.013
Mof_H 	H 	0.06312	0.23026	0.62821	0.019
Mof_Zn	Zn	0.99284	0.99133	0.6665	1.233
Mof_Zn	Zn	0.76281	0.70272	0.41234	1.244
Mof_H 	H 	0.673	0.594	0.2497	0.011
Mof_H 	H 	0.674	0.5967	0.1764	0.071
Mof_H 	H 	0.8682	0.8287	0.4471	0.017
Mof_H 	H 	0.8723	0.839	0.3799	0.078
Mof_H 	H 	0.0986	0.9619	0.8263	0.072
Mof_H 	H 	0.1885	0.0839	0.7869	0.067
Mof_H 	H 	0.9532	0.8376	0.6805	0.065
Mof_H 	H 	0.9129	0.9813	0.4154	0.045
Mof_H 	H 	0.8621	0.0371	0.6675	0.1
Mof_H 	H 	0.9619	0.0691	0.71	-0.019
Mof_H 	H 	0.7206	0.8128	0.5245	0.092
Mof_H 	H 	0.8231	0.8467	0.5615	0.004
Mof_C 	C 	0.15174	0.1294	0.83966	0.391
Mof_C 	C 	0.71387	0.64453	0.2762	0.077
Mof_C 	C 	0.77622	0.7203	0.27218	0.051
Mof_C 	C 	0.92304	0.84589	0.58687	0.417
Mof_C 	C 	0.92133	0.79607	0.5835	-0.171
Mof_C 	C 	0.15063	0.07703	0.82654	-0.148
Mof_C 	C 	0.78267	0.92332	0.59881	0.073
Mof_C 	C 	0.71433	0.64542	0.23195	-0.114
Mof_C 	C 	0.82693	0.78095	0.39092	0.084
Mof_C 	C 	0.83081	0.78721	0.35138	-0.127
Mof_C 	C 	0.9952	0.0013	0.5879	0.58
Mof_C 	C 	0.1376	0.9677	0.7908	-0.211
Mof_C 	C 	0.1186	0.987	0.819	-0.026
Mof_C 	C 	0.1274	0.0419	0.8381	0.154
Mof_C 	C 	0.1717	0.0611	0.7971	-0.077
Mof_C 	C 	0.1253	0.9035	0.7737	0.892
Mof_C 	C 	0.1656	0.0085	0.7841	0.182
Mof_C 	C 	0.9252	0.7951	0.6295	-0.04
Mof_C 	C 	0.9126	0.7477	0.5335	0.172
Mof_C 	C 	0.0056	0.0037	0.5484	-0.262
Mof_C 	C 	0.9594	0.9977	0.5058	0.17
Mof_C 	C 	0.9496	0.9901	0.4497	0.011
Mof_C 	C 	0.8539	0.9969	0.6481	-0.167
Mof_C 	C 	0.9113	0.0145	0.6697	0.133
Mof_C 	C 	0.7713	0.8672	0.5643	-0.137
Mof_C 	C 	0.8323	0.8875	0.5859	0.084
Mof_N 	N 	0.76813	0.71116	0.35361	-0.239
Mof_N 	N 	0.90518	0.96384	0.64098	-0.266
Mof_O 	O 	0.1816	0.9902	0.7435	-0.209
Mof_O 	O 	0.9176	0.0054	0.5066	-0.265
Mof_O 	O 	0.86976	0.81612	0.52322	-0.485
Mof_O 	O 	0.21468	0.20335	0.90857	-0.424
Mof_O 	O 	0.0925	0.10099	0.78211	-0.509
Mof_O 	O 	0.97967	0.91845	0.65628	-0.462
Mof_O 	O 	0.97368	0.0119	0.60662	-0.48
Mof_O 	O 	0.09568	0.87417	0.77535	-0.729
Mof_O 	O 	0.1452	0.8938	0.7557	-0.614
Mof_O 	O 	0.90907	0.7528	0.48993	-0.363
Mof_O 	O 	0.02247	0.99293	0.617	-0.471
Mof_O 	O 	0.0938	0.0501	0.8551	-0.231
Mof_C 	C 	0.95829	0.97427	0.19471	0.145
Mof_H 	H 	0.94292	0.92298	0.17198	0.026
Mof_C 	C 	0.01283	0.01984	0.21729	0.04
Mof_H 	H 	0.97261	0.00501	0.24603	-0.016
Mof_O 	O 	0.01149	0.98711	0.17918	-0.269
Mof_H 	H 	0.01127	0.05329	0.21246	0.085
Mof_H 	H 	0.07026	0.06468	0.2828	0.017
Mof_C 	C 	0.058	0.99817	0.21445	0.136
Mof_H 	H 	0.02969	0.93837	0.17728	0.009
Mof_H 	H 	0.10833	0.03828	0.23002	0.01
Mof_H 	H 	0.08372	0.02921	0.27226	-0.008
Mof_C 	C 	0.86169	0.03511	0.31274	0.077
Mof_H 	H 	0.84778	0.98647	0.29713	0.033
Mof_H 	H 	0.92554	0.08746	0.35125	0.028
Mof_C 	C 	0.8562	0.05739	0.3476	0.097
Mof_H 	H 	0.86703	0.10376	0.36048	0.046
Mof_O 	O 	0.79328	0.00447	0.31034	-0.256
Mof_H 	H 	0.9028	0.08621	0.40683	0.007
Mof_C 	C 	0.79572	0.0167	0.35114	0.107
Mof_H 	H 	0.81236	0.06948	0.38489	0.018
Mof_H 	H 	0.73436	0.96106	0.31428	0.026
Mof_H 	H 	0.84293	0.03213	0.39614	0.011
Mof_C 	C 	0.05223	0.51716	0.93605	0.124
Mof_H 	H 	0.02262	0.45691	0.89165	0.016
Mof_C 	C 	0.08523	0.55399	0.93659	0.059
Mof_H 	H 	0.09694	0.55142	0.99887	0.005
Mof_H 	H 	0.04558	0.51369	0.87215	0.045
Mof_H 	H 	0.09943	0.60526	0.96635	0.052
Mof_O 	O 	0.14367	0.57985	0.9718	-0.257
Mof_C 	C 	0.18113	0.61697	0.03377	0.097
Mof_H 	H 	0.20991	0.67697	0.07063	0.016
Mof_H 	H 	0.23026	0.62821	0.06312	0.02
Mof_Zn	Zn	0.99133	0.6665	0.99284	1.232
Mof_Zn	Zn	0.70272	0.41234	0.76281	1.24
Mof_H 	H 	0.594	0.2497	0.673	0.009
Mof_H 	H 	0.5967	0.1764	0.674	0.071
Mof_H 	H 	0.8287	0.4471	0.8682	0
Mof_H 	H 	0.839	0.3799	0.8723	0.078
Mof_H 	H 	0.9619	0.8263	0.0986	0.041
Mof_H 	H 	0.0839	0.7869	0.1885	0.069
Mof_O 	O 	0.8376	0.6805	0.9532	-0.894
Mof_H 	H 	0.9813	0.4154	0.9129	0.044
Mof_H 	H 	0.0371	0.6675	0.8621	0.123
Mof_H 	H 	0.0691	0.71	0.9619	-0.031
Mof_H 	H 	0.8128	0.5245	0.7206	0.1
Mof_H 	H 	0.8467	0.5615	0.8231	0.002
Mof_C 	C 	0.1294	0.83966	0.15174	0.389
Mof_C 	C 	0.64453	0.2762	0.71387	0.076
Mof_C 	C 	0.7203	0.27218	0.77622	0.051
Mof_C 	C 	0.84589	0.58687	0.92304	0.495
Mof_C 	C 	0.79607	0.5835	0.92133	-0.423
Mof_C 	C 	0.07703	0.82654	0.15063	-0.142
Mof_C 	C 	0.92332	0.59881	0.78267	0.104
Mof_C 	C 	0.64542	0.23195	0.71433	-0.115
Mof_C 	C 	0.78095	0.39092	0.82693	0.081
Mof_C 	C 	0.78721	0.35138	0.83081	-0.128
Mof_C 	C 	0.0013	0.5879	0.9952	0.612
Mof_C 	C 	0.9677	0.7908	0.1376	-0.213
Mof_C 	C 	0.987	0.819	0.1186	-0.019
Mof_C 	C 	0.0419	0.8381	0.1274	0.147
Mof_C 	C 	0.0611	0.7971	0.1717	-0.081
Mof_C 	C 	0.9035	0.7737	0.1253	0.897
Mof_C 	C 	0.0085	0.7841	0.1656	0.187
Mof_C 	C 	0.7951	0.6295	0.9252	0.818
Mof_C 	C 	0.7477	0.5335	0.9126	0.112
Mof_C 	C 	0.0037	0.5484	0.0056	-0.274
Mof_C 	C 	0.9977	0.5058	0.9594	0.168
Mof_C 	C 	0.9901	0.4497	0.9496	0.004
Mof_C 	C 	0.9969	0.6481	0.8539	-0.226
Mof_C 	C 	0.0145	0.6697	0.9113	0.181
Mof_C 	C 	0.8672	0.5643	0.7713	-0.159
Mof_C 	C 	0.8875	0.5859	0.8323	0.096
Mof_N 	N 	0.71116	0.35361	0.76813	-0.253
Mof_N 	N 	0.96384	0.64098	0.90518	-0.28
Mof_O 	O 	0.9902	0.7435	0.1816	-0.215
Mof_O 	O 	0.0054	0.5066	0.9176	-0.262
Mof_O 	O 	0.81612	0.52322	0.86976	-0.518
Mof_O 	O 	0.20335	0.90857	0.21468	-0.423
Mof_O 	O 	0.10099	0.78211	0.0925	-0.509
Mof_O 	O 	0.91845	0.65628	0.97967	-0.468
Mof_O 	O 	0.0119	0.60662	0.97368	-0.486
Mof_O 	O 	0.87417	0.77535	0.09568	-0.737
Mof_O 	O 	0.8938	0.7557	0.1452	-0.619
Mof_H 	H 	0.7528	0.48993	0.90907	0.006
Mof_O 	O 	0.99293	0.617	0.02247	-0.489
Mof_O 	O 	0.0501	0.8551	0.0938	-0.25
Mof_C 	C 	0.97427	0.19471	0.95829	0.344
Mof_H 	H 	0.92298	0.17198	0.94292	-0.049
Mof_C 	C 	0.01984	0.21729	0.01283	-0.078
Mof_H 	H 	0.00501	0.24603	0.97261	0.02
Mof_O 	O 	0.98711	0.17918	0.01149	-0.224
Mof_H 	H 	0.05329	0.21246	0.01127	0.072
Mof_H 	H 	0.06468	0.2828	0.07026	0.034
Mof_C 	C 	0.99817	0.21445	0.058	0.112
Mof_H 	H 	0.93837	0.17728	0.02969	-0.02
Mof_H 	H 	0.03828	0.23002	0.10833	0.017
Mof_H 	H 	0.02921	0.27226	0.08372	-0.006
Mof_C 	C 	0.03511	0.31274	0.86169	0.064
Mof_H 	H 	0.98647	0.29713	0.84778	0.032
Mof_H 	H 	0.08746	0.35125	0.92554	0.026
Mof_C 	C 	0.05739	0.3476	0.8562	0.109
Mof_H 	H 	0.10376	0.36048	0.86703	0.033
Mof_O 	O 	0.00447	0.31034	0.79328	-0.262
Mof_H 	H 	0.08621	0.40683	0.9028	0.004
Mof_C 	C 	0.0167	0.35114	0.79572	0.119
Mof_H 	H 	0.06948	0.38489	0.81236	0.016
Mof_H 	H 	0.96106	0.31428	0.73436	0.021
Mof_H 	H 	0.03213	0.39614	0.84293	0.01
Mof_C 	C 	0.51716	0.93605	0.05223	0.126
Mof_H 	H 	0.45691	0.89165	0.02262	0.011
Mof_C 	C 	0.55399	0.93659	0.08523	0.063
Mof_H 	H 	0.55142	0.99887	0.09694	-0.003
Mof_H 	H 	0.51369	0.87215	0.04558	0.042
Mof_H 	H 	0.60526	0.96635	0.09943	0.051
Mof_O 	O 	0.57985	0.9718	0.14367	-0.268
Mof_C 	C 	0.61697	0.03377	0.18113	0.103
Mof_H 	H 	0.67697	0.07063	0.20991	0.015
Mof_H 	H 	0.62821	0.06312	0.23026	-0.001
Mof_C 	C 	0.91105	0.7914	0.49531	0.384
Mof_H 	H 	0.9304	0.8325	0.54874	-0.054
Mof_H 	H 	0.84878	0.75183	0.43785	-0.121
Mof_C 	C 	0.95602	0.82949	0.50487	-0.144
Mof_H 	H 	0.92625	0.79222	0.44437	0.075
Mof_O 	O 	0.9764	0.88445	0.5339	-0.192
Mof_C 	C 	0.79202	0.67323	0.55266	-0.795
Mof_C 	C 	0.79513	0.67466	0.59108	0.923
Mof_H 	H 	0.72645	0.62283	0.49042	0.226
Mof_H 	H 	0.82625	0.73333	0.58251	0.524
Mof_H 	H 	0.844	0.68786	0.62914	-0.145
Mof_H 	H 	0.73461	0.61385	0.55032	-0.142
Mof_O 	O 	0.80988	0.72368	0.63222	-0.701
Mof_C 	C 	0.86192	0.7804	0.66285	0.61
Mof_H 	H 	0.85278	0.76693	0.61706	-0.452
Mof_H 	H 	0.91947	0.80811	0.71167	-0.08
Mof_H 	H 	0.86695	0.82439	0.69128	-0.066
Mof_C 	C 	0.84536	0.72563	0.98241	0.754
Mof_H 	H 	0.78716	0.69823	0.93588	-0.116
Mof_H 	H 	0.88222	0.76157	0.95894	0.138
Mof_H 	H 	0.75313	0.99471	0.83956	0.501
Mof_C 	C 	0.12052	0.30505	0.0433	1.511
Mof_H 	H 	0.1271	0.29586	0.07602	-0.274
Mof_H 	H 	0.13544	0.35681	0.07277	-0.304
Mof_C 	C 	0.07389	0.17567	0.30597	0.572
Mof_C 	C 	0.02489	0.12339	0.23803	-0.163
Mof_H 	H 	0.12097	0.18429	0.3349	-0.077
Mof_H 	H 	0.10365	0.23298	0.3311	-0.105
Mof_O 	O 	0.05365	0.13304	0.22435	-0.175
Mof_C 	C 	0.08769	0.18992	0.24953	0.041
Mof_H 	H 	0.12369	0.23898	0.31275	0.024
Mof_H 	H 	0.04382	0.1802	0.20947	0.035
Mof_H 	H 	0.13052	0.20902	0.25221	0.036
Mof_C 	C 	0.31477	0.08077	0.16496	-0.704
Mof_H 	H 	0.32866	0.11654	0.21521	0.2
Mof_C 	C 	0.25115	0.03685	0.10501	1.106
Mof_H 	H 	0.35964	0.12381	0.17729	0.191
Mof_H 	H 	0.24312	0.01377	0.05814	-0.277
Mof_O 	O 	0.24097	0.06886	0.11263	-0.611
Mof_C 	C 	0.28492	0.12006	0.13239	0.352
Mof_H 	H 	0.26552	0.09629	0.07896	-0.079
Mof_H 	H 	0.34703	0.15413	0.18134	-0.064
Mof_H 	H 	0.28733	0.16233	0.15718	-0.009
Mof_C 	C 	0.27529	0.456	0.99965	0.001
Mof_H 	H 	0.22208	0.43309	0.95117	0.05
Mof_C 	C 	0.31328	0.47031	0.99633	0.238
Mof_H 	H 	0.27206	0.42121	0.93064	-0.009
Mof_H 	H 	0.3577	0.50101	0.96464	0.004
Mof_H 	H 	0.95767	0.28475	0.38726	-0.002
Mof_H 	H 	0.98893	0.33174	0.47865	0.022
Mof_C 	C 	0.44218	0.98374	0.25553	1.892
Mof_H 	H 	0.40101	0.92652	0.19202	-0.404
Mof_H 	H 	0.46246	0.98029	0.29302	-0.351
Mof_H 	H 	0.01073	0.90847	0.10978	0.039
Mof_H 	H 	0.86059	0.74433	0.03261	-0.053
Mof_C 	C 	0.8963	0.78067	0.00873	-0.4
Mof_H 	H 	0.95499	0.8095	0.05702	0.141
Mof_O 	O 	0.90265	0.82597	0.03656	-0.097
Mof_C 	C 	0.95172	0.87921	0.06149	0.032
Mof_H 	H 	0.93695	0.85946	0.0112	0.041
Mof_H 	H 	0.95789	0.92439	0.08907	0.08
Mof_H 	H 	0.31363	0.51279	0.06143	0.04
Mof_H 	H 	0.3533	0.47326	0.02929	-0.01
Mof_O 	O 	0.35245	0.53075	0.02574	-0.409
Mof_C 	C 	0.39405	0.54776	0.02835	0.154
Mof_H 	H 	0.43246	0.55051	0.06335	-0.003
Mof_C 	C 	0.73534	0.01988	0.8898	2.39
Mof_H 	H 	0.75935	0.0462	0.94581	-0.377
Mof_H 	H 	0.71982	0.04281	0.87713	-0.5
Mof_C 	C 	0.78318	0.0391	0.90008	-1.915
Mof_H 	H 	0.81691	0.03998	0.93683	0.426
Mof_O 	O 	0.82732	0.10184	0.93413	0.191
Mof_C 	C 	0.86898	0.11728	0.93706	0.015
Mof_H 	H 	0.83277	0.07003	0.87347	0.057
Mof_H 	H 	0.90562	0.11879	0.97205	0.057
Mof_H 	H 	0.91134	0.17886	0.96868	0.029
Mof_C 	C 	0.49709	0.03806	0.28435	-2.138
Mof_O 	O 	0.48544	0.01969	0.23595	1.759
Mof_H 	H 	0.55173	0.06122	0.33084	0.467
Mof_H 	H 	0.50902	0.08759	0.31507	0.514
Mof_C 	C 	0.51327	0.06981	0.25008	-3.437
Mof_H 	H 	0.5532	0.12609	0.31327	0.561
Mof_H 	H 	0.5512	0.08238	0.24682	0.64
Mof_H 	H 	0.01037	0.84992	0.5459	0.074
Mof_C 	C 	0.02568	0.92536	0.55019	0.092
Mof_H 	H 	0.00237	0.89322	0.49334	0.008
Mof_H 	H 	0.07746	0.94337	0.59239	0.009
Mof_H 	H 	0.04783	0.98153	0.58158	0.058
Mof_C 	C 	0.01064	0.30586	0.43316	0.09
Mof_C 	C 	0.03633	0.34507	0.49155	0.1
Mof_H 	H 	0.05921	0.34226	0.44541	-0.01
Mof_O 	O 	0.05415	0.33146	0.51818	-0.281
Mof_H 	H 	0.09159	0.41123	0.53619	0.011
Mof_C 	C 	0.09994	0.34397	0.53027	0.14
Mof_H 	H 	0.0705	0.29666	0.4708	0.019
Mof_H 	H 	0.12641	0.34192	0.5675	0.023
Mof_H 	H 	0.98246	0.12009	0.21001	0.104
Mof_H 	H 	0.20574	0.98402	0.08431	-0.142
Mof_C 	C 	0.05601	0.24766	0.97753	-0.986
Mof_O 	O 	0.03098	0.19314	0.95638	0.267
Mof_H 	H 	0.05511	0.24432	0.93927	0.362
Mof_C 	C 	0.0587	0.18425	0.94856	-0.335
Mof_H 	H 	0.08275	0.17766	0.98137	0.14
Mof_H 	H 	0.11029	0.23842	0.97453	0.258
_end
