# CIF file generated by openbabel 3.1.0, see https://openbabel.org
data_I
_chemical_name_common 'ANENIR_clean'
_cell_length_a 9.7792
_cell_length_b 11.3331
_cell_length_c 15.924
_cell_angle_alpha 71.042
_cell_angle_beta 85.29
_cell_angle_gamma 70.907
_space_group_name_H-M_alt 'P 1'
_space_group_name_Hall 'P 1'
loop_
    _symmetry_equiv_pos_as_xyz
    x,y,z
loop_
    _atom_site_label
    _atom_site_type_symbol
    _atom_site_fract_x
    _atom_site_fract_y
    _atom_site_fract_z
    _atom_site_occupancy
    La1      La       0.46104    0.09449    0.91594    1.000
    La2      La       0.90113    0.99316    0.93722    1.000
    H1       H        0.70900    0.72800    0.45200    1.000
    H2       H        0.54450    0.81610    0.57600    1.000
    H3       H        0.52050    0.88980    0.69890    1.000
    H4       H        0.93310    0.86100    0.69700    1.000
    H5       H        0.96160    0.78440    0.57580    1.000
    H6       H        0.66280    0.96710    0.39840    1.000
    H7       H        0.76790    0.98130    0.31860    1.000
    H8       H        0.67240    0.88970    0.33130    1.000
    H9       H        0.97400    0.58000    0.53500    1.000
    H10      H        0.66300    0.51770    0.50840    1.000
    H11      H        0.55200    0.38360    0.62110    1.000
    H12      H        0.84030    0.34670    0.80120    1.000
    H13      H        0.94640    0.48010    0.69090    1.000
    H14      H        0.99530    0.35750    0.47820    1.000
    H15      H        0.07590    0.43270    0.40100    1.000
    H16      H        0.08920    0.43460    0.49800    1.000
    H17      H        0.39400    0.55400    0.36600    1.000
    H18      H        0.64960    0.60960    0.33880    1.000
    H19      H        0.78400    0.71020    0.23740    1.000
    H20      H        0.53400    0.73160    0.04440    1.000
    H21      H        0.41560    0.60730    0.14660    1.000
    H22      H        0.20890    0.71740    0.26950    1.000
    H23      H        0.13460    0.66560    0.21170    1.000
    H24      H        0.10600    0.63470    0.31370    1.000
    H25      H        0.44600    0.33000    0.38900    1.000
    H26      H        0.76490    0.32630    0.26210    1.000
    H27      H        0.82540    0.24590    0.14360    1.000
    H28      H        0.42880    0.20700    0.15580    1.000
    H29      H        0.38420    0.27130    0.27810    1.000
    H30      H        0.73360    0.16730    0.43400    1.000
    H31      H        0.77490    0.22790    0.50000    1.000
    H32      H        0.62480    0.20390    0.50650    1.000
    H33      H        0.04900    0.14700    0.39700    1.000
    H34      H        0.97240    0.03760    0.57280    1.000
    H35      H        0.96650    0.06860    0.71020    1.000
    H36      H        0.34380    0.14510    0.66160    1.000
    H37      H        0.34970    0.11400    0.52420    1.000
    H38      H        0.02530    0.32140    0.32530    1.000
    H39      H        0.15730    0.31520    0.26200    1.000
    H40      H        0.06600    0.22080    0.27190    1.000
    H41      H        0.08700    0.94200    0.45600    1.000
    H42      H        0.40520    0.95620    0.31110    1.000
    H43      H        0.41720    0.95770    0.16490    1.000
    H44      H        0.99430    0.98620    0.17010    1.000
    H45      H        0.99030    0.00770    0.30950    1.000
    H46      H        0.24620    0.73170    0.48440    1.000
    H47      H        0.39570    0.72080    0.43820    1.000
    H48      H        0.38710    0.69240    0.54130    1.000
    C1       C        0.77340    0.74050    0.48750    1.000
    C2       C        0.75980    0.78830    0.56400    1.000
    C3       C        0.62430    0.82270    0.59990    1.000
    C4       C        0.61080    0.86800    0.67370    1.000
    C5       C        0.72120    0.88090    0.70880    1.000
    C6       C        0.85510    0.85100    0.67350    1.000
    C7       C        0.87080    0.80490    0.60060    1.000
    C8       C        0.70300    0.93730    0.78650    1.000
    C9       C        0.72600    0.92180    0.36150    1.000
    C10      C        0.87820    0.59700    0.51260    1.000
    C11      C        0.81360    0.50790    0.58690    1.000
    C12      C        0.69920    0.48350    0.56660    1.000
    C13      C        0.63050    0.40360    0.63500    1.000
    C14      C        0.68470    0.35700    0.72280    1.000
    C15      C        0.80300    0.38170    0.74320    1.000
    C16      C        0.86830    0.45960    0.67690    1.000
    C17      C        0.61290    0.27080    0.79240    1.000
    C18      C        0.02600    0.43420    0.45530    1.000
    C19      C        0.43440    0.51430    0.32060    1.000
    C20      C        0.51730    0.59460    0.25250    1.000
    C21      C        0.62910    0.63090    0.27870    1.000
    C22      C        0.70540    0.69500    0.21870    1.000
    C23      C        0.66960    0.73870    0.13010    1.000
    C24      C        0.55930    0.70450    0.10430    1.000
    C25      C        0.48680    0.63140    0.16570    1.000
    C26      C        0.74180    0.82040    0.06270    1.000
    C27      C        0.17690    0.64610    0.26900    1.000
    C28      C        0.51660    0.36910    0.35670    1.000
    C29      C        0.56940    0.30420    0.28240    1.000
    C30      C        0.69950    0.29760    0.24140    1.000
    C31      C        0.73660    0.24960    0.17040    1.000
    C32      C        0.63570    0.20620    0.13940    1.000
    C33      C        0.50120    0.22470    0.17920    1.000
    C34      C        0.47250    0.26730    0.25060    1.000
    C35      C        0.67200    0.15260    0.06500    1.000
    C36      C        0.69700    0.22860    0.46660    1.000
    C37      C        0.12980    0.08230    0.43480    1.000
    C38      C        0.16160    0.07270    0.53490    1.000
    C39      C        0.04680    0.05910    0.59060    1.000
    C40      C        0.04330    0.07770    0.67290    1.000
    C41      C        0.15460    0.10990    0.69950    1.000
    C42      C        0.26930    0.12350    0.64380    1.000
    C43      C        0.27290    0.10490    0.56150    1.000
    C44      C        0.15030    0.12180    0.79080    1.000
    C45      C        0.10400    0.26400    0.30250    1.000
    C46      C        0.18020    0.94400    0.43340    1.000
    C47      C        0.19980    0.95490    0.33190    1.000
    C48      C        0.32420    0.95760    0.28360    1.000
    C49      C        0.33080    0.96230    0.19490    1.000
    C50      C        0.20570    0.97400    0.15130    1.000
    C51      C        0.07770    0.98220    0.19660    1.000
    C52      C        0.07910    0.98400    0.28300    1.000
    C53      C        0.21190    0.96350    0.05840    1.000
    C54      C        0.33800    0.74530    0.48520    1.000
    O1       O        0.57490    0.97360    0.81260    1.000
    O2       O        0.81000    0.94370    0.81510    1.000
    O3       O        0.83770    0.81480    0.41470    1.000
    O4       O        0.48750    0.28740    0.78170    1.000
    O5       O        0.68940    0.18640    0.85710    1.000
    O6       O        0.89250    0.55860    0.43700    1.000
    O7       O        0.87470    0.81100    0.07490    1.000
    O8       O        0.67810    0.89950    0.98910    1.000
    O9       O        0.29960    0.52580    0.28710    1.000
    O10      O        0.79530    0.12500    0.03760    1.000
    O11      O        0.56390    0.13450    0.03300    1.000
    O12      O        0.63600    0.35420    0.40780    1.000
    O13      O        0.03870    0.11640    0.83450    1.000
    O14      O        0.25700    0.14290    0.81670    1.000
    O15      O        0.20090    0.16460    0.37700    1.000
    O16      O        0.32290    0.97220    0.01430    1.000
    O17      O        0.11110    0.94600    0.03130    1.000
    O18      O        0.31580    0.87620    0.47360    1.000
