# CIF file generated by openbabel 3.1.0, see https://openbabel.org
data_I
_chemical_name_common 'image0'
_cell_length_a 24.614
_cell_length_b 24.614
_cell_length_c 47.332
_cell_angle_alpha 90
_cell_angle_beta 90
_cell_angle_gamma 90
_space_group_name_H-M_alt 'P 1'
_space_group_name_Hall 'P 1'
loop_
    _symmetry_equiv_pos_as_xyz
    x,y,z
loop_
    _atom_site_label
    _atom_site_type_symbol
    _atom_site_fract_x
    _atom_site_fract_y
    _atom_site_fract_z
    _atom_site_occupancy
    Ag1      Ag       0.71794    0.65908    0.22818    1.000
    Ag2      Ag       0.64601    0.11056    0.00087    1.000
    Ag3      Ag       0.68697    0.99880    0.96209    1.000
    Ag4      Ag       0.67157    0.55607    0.27230    1.000
    Ag5      Ag       0.72797    0.74295    0.28991    1.000
    Ag6      Ag       0.87462    0.71386    0.31155    1.000
    Ag7      Ag       0.40753    0.19996    0.15255    1.000
    Ag8      Ag       0.65111    0.64164    0.34256    1.000
    Pd1      Pd       0.75814    0.49800    0.20505    1.000
    Pd2      Pd       0.83731    0.77653    0.23060    1.000
    Pd3      Pd       0.43166    0.04526    0.18614    1.000
    Pd4      Pd       0.81565    0.97602    0.90364    1.000
    Pd5      Pd       0.57241    0.68649    0.26797    1.000
    Pd6      Pd       0.76195    0.74832    0.37398    1.000
    I1       I        0.73655    0.12644    0.95947    1.000
    La1      La       0.57930    0.88002    0.13572    1.000
    S1       S        0.69781    0.56069    0.21995    1.000
    S2       S        0.67359    0.01481    0.01389    1.000
    S3       S        0.81357    0.68939    0.22138    1.000
    S4       S        0.82221    0.77552    0.27806    1.000
    S5       S        0.57741    0.13690    0.96416    1.000
    S6       S        0.46849    0.12653    0.17334    1.000
    S7       S        0.78543    0.98055    0.94859    1.000
    S8       S        0.43903    0.29390    0.13974    1.000
    S9       S        0.60264    0.61811    0.29622    1.000
    S10      S        0.65404    0.71944    0.25419    1.000
    S11      S        0.69739    0.73346    0.34074    1.000
    S12      S        0.82647    0.69084    0.35797    1.000
    O1       O        0.60938    0.45656    0.14878    1.000
    O2       O        0.59175    0.53800    0.13414    1.000
    O3       O        0.61493    0.89146    0.08712    1.000
    O4       O        0.56360    0.87080    0.04893    1.000
    O5       O        0.87646    0.76655    0.13268    1.000
    O6       O        0.79845    0.72670    0.12396    1.000
    O7       O        0.84650    0.96010    0.24293    1.000
    O8       O        0.89400    0.95370    0.28214    1.000
    O9       O        0.38360    0.13159    0.97427    1.000
    O10      O        0.40110    0.21931    0.96794    1.000
    O11      O        0.57284    0.97901    0.12917    1.000
    O12      O        0.63243    0.04323    0.14206    1.000
    O13      O        0.86443    0.80034    0.93468    1.000
    O14      O        0.78610    0.78610    0.95652    1.000
    O15      O        0.54790    0.33620    0.05694    1.000
    O16      O        0.46820    0.37140    0.04783    1.000
    O17      O        0.41040    0.59430    0.29129    1.000
    O18      O        0.43080    0.59160    0.33895    1.000
    O19      O        0.51455    0.82545    0.20648    1.000
    O20      O        0.58195    0.81335    0.17592    1.000
    O21      O        0.64384    0.88817    0.39585    1.000
    O22      O        0.56603    0.84180    0.39026    1.000
    O23      O        0.88674    0.76670    0.44499    1.000
    O24      O        0.96191    0.75420    0.42123    1.000
    N1       N        0.70461    0.48373    0.17426    1.000
    H1       H        0.72340    0.47900    0.15760    1.000
    H2       H        0.68710    0.45160    0.17820    1.000
    N2       N        0.69318    0.93594    0.05949    1.000
    H3       H        0.71330    0.90450    0.05980    1.000
    H4       H        0.68330    0.94360    0.07780    1.000
    N3       N        0.84340    0.78510    0.18818    1.000
    H5       H        0.83010    0.81870    0.18320    1.000
    H6       H        0.87960    0.78410    0.18320    1.000
    N4       N        0.86990    0.85282    0.23704    1.000
    H7       H        0.90350    0.85410    0.22860    1.000
    H8       H        0.84810    0.87790    0.22810    1.000
    N5       N        0.46965    0.10003    0.94543    1.000
    H9       H        0.44910    0.10020    0.92920    1.000
    H10      H        0.45270    0.07740    0.95820    1.000
    N6       N        0.49275    0.01200    0.16276    1.000
    H11      H        0.50330    0.97990    0.17100    1.000
    H12      H        0.47980    0.00410    0.14500    1.000
    N7       N        0.83056    0.89553    0.91150    1.000
    H13      H        0.81950    0.87530    0.89620    1.000
    H14      H        0.86740    0.89050    0.91370    1.000
    N8       N        0.53140    0.34340    0.11309    1.000
    H15      H        0.54830    0.37670    0.11380    1.000
    H16      H        0.55440    0.32020    0.10370    1.000
    N9       N        0.49760    0.66333    0.28290    1.000
    H17      H        0.47860    0.69430    0.28740    1.000
    H18      H        0.47930    0.64660    0.26840    1.000
    N10      N        0.54258    0.74080    0.23718    1.000
    H19      H        0.51560    0.72380    0.22700    1.000
    H20      H        0.52740    0.77030    0.24610    1.000
    N11      N        0.70726    0.79876    0.39164    1.000
    H21      H        0.70600    0.79110    0.41070    1.000
    H22      H        0.72040    0.83360    0.38980    1.000
    N12      N        0.81932    0.76760    0.40349    1.000
    H23      H        0.82020    0.80480    0.40540    1.000
    H24      H        0.80850    0.75340    0.42060    1.000
    C1       C        0.63980    0.54400    0.19598    1.000
    C2       C        0.66440    0.52510    0.16989    1.000
    H25      H        0.68320    0.55690    0.16110    1.000
    C3       C        0.61750    0.50610    0.14827    1.000
    C4       C        0.60300    0.50230    0.20976    1.000
    H26      H        0.58760    0.51740    0.22710    1.000
    H27      H        0.62400    0.46960    0.21430    1.000
    H28      H        0.57350    0.49280    0.19670    1.000
    C5       C        0.60770    0.60350    0.19155    1.000
    H29      H        0.59150    0.61490    0.20950    1.000
    H30      H        0.57920    0.59940    0.17730    1.000
    H31      H        0.63380    0.63110    0.18530    1.000
    C6       C        0.61825    0.97627    0.03229    1.000
    C7       C        0.64290    0.92589    0.04265    1.000
    H32      H        0.65340    0.90380    0.02580    1.000
    C8       C        0.60380    0.89000    0.06121    1.000
    C9       C        0.59700    0.01550    0.05630    1.000
    H33      H        0.58080    0.04790    0.04770    1.000
    H34      H        0.62740    0.02630    0.06840    1.000
    H35      H        0.56950    0.99670    0.06770    1.000
    C10      C        0.57580    0.96850    0.00892    1.000
    H36      H        0.56030    0.00380    0.00380    1.000
    H37      H        0.54690    0.94450    0.01570    1.000
    H38      H        0.59310    0.95220    0.99230    1.000
    C11      C        0.83290    0.68350    0.18280    1.000
    C12      C        0.81320    0.74180    0.17137    1.000
    H39      H        0.77290    0.74630    0.17270    1.000
    C13      C        0.83455    0.74560    0.13919    1.000
    C14      C        0.89710    0.67630    0.18210    1.000
    H40      H        0.91440    0.70840    0.19040    1.000
    H41      H        0.90920    0.67210    0.16250    1.000
    H42      H        0.90720    0.64400    0.19300    1.000
    C15      C        0.80070    0.63550    0.16973    1.000
    H43      H        0.81520    0.60110    0.17700    1.000
    H44      H        0.80440    0.63640    0.14910    1.000
    H45      H        0.76230    0.63870    0.17490    1.000
    C16      C        0.82560    0.84930    0.28392    1.000
    C17      C        0.87560    0.86837    0.26540    1.000
    H46      H        0.91170    0.85890    0.27370    1.000
    C18      C        0.86440    0.93250    0.26360    1.000
    C19      C        0.77400    0.87610    0.27568    1.000
    H47      H        0.76950    0.87390    0.25510    1.000
    H48      H        0.77490    0.91430    0.28150    1.000
    H49      H        0.74350    0.85780    0.28500    1.000
    C20      C        0.83120    0.85550    0.31198    1.000
    H50      H        0.86560    0.83930    0.31810    1.000
    H51      H        0.80100    0.83740    0.32170    1.000
    H52      H        0.83100    0.89430    0.31670    1.000
    C21      C        0.51310    0.15880    0.98144    1.000
    C22      C        0.47058    0.15660    0.95741    1.000
    H53      H        0.48040    0.18320    0.94230    1.000
    C23      C        0.41250    0.17103    0.97002    1.000
    C24      C        0.50060    0.11680    0.00533    1.000
    H54      H        0.52850    0.11950    0.02010    1.000
    H55      H        0.50070    0.08010    0.99740    1.000
    H56      H        0.46490    0.12470    0.01350    1.000
    C25      C        0.52550    0.21570    0.99421    1.000
    H57      H        0.55300    0.21210    0.00910    1.000
    H58      H        0.49220    0.23100    0.00230    1.000
    H59      H        0.53910    0.23980    0.97930    1.000
    C26      C        0.52330    0.10470    0.14882    1.000
    C27      C        0.54110    0.04830    0.16007    1.000
    H60      H        0.55660    0.05360    0.17940    1.000
    C28      C        0.58600    0.01750    0.14131    1.000
    C29      C        0.50200    0.10040    0.11905    1.000
    H61      H        0.49130    0.13650    0.11230    1.000
    H62      H        0.47030    0.07620    0.11870    1.000
    H63      H        0.53040    0.08560    0.10670    1.000
    C30      C        0.57020    0.15050    0.15085    1.000
    H64      H        0.55650    0.18490    0.14330    1.000
    H65      H        0.60190    0.13890    0.13980    1.000
    H66      H        0.58080    0.15540    0.17060    1.000
    C31      C        0.80760    0.91173    0.96181    1.000
    C32      C        0.80190    0.87560    0.93745    1.000
    H67      H        0.76230    0.87520    0.93270    1.000
    C33      C        0.81830    0.81520    0.94259    1.000
    C34      C        0.86650    0.91770    0.96801    1.000
    H68      H        0.88600    0.92650    0.95060    1.000
    H69      H        0.88060    0.88360    0.97580    1.000
    H70      H        0.87180    0.94690    0.98180    1.000
    C35      C        0.77720    0.89810    0.98722    1.000
    H71      H        0.73840    0.89560    0.98270    1.000
    H72      H        0.78280    0.92640    0.00150    1.000
    H73      H        0.78980    0.86310    0.99460    1.000
    C36      C        0.45190    0.30130    0.10144    1.000
    C37      C        0.48260    0.34960    0.09585    1.000
    H74      H        0.46180    0.38270    0.10160    1.000
    C38      C        0.50380    0.35500    0.06404    1.000
    C39      C        0.47680    0.24880    0.09090    1.000
    H75      H        0.45200    0.21850    0.09480    1.000
    H76      H        0.51150    0.24250    0.10060    1.000
    H77      H        0.48310    0.25140    0.07050    1.000
    C40      C        0.39570    0.30240    0.08769    1.000
    H78      H        0.37720    0.26780    0.09110    1.000
    H79      H        0.39960    0.30810    0.06730    1.000
    H80      H        0.37430    0.33210    0.09580    1.000
    C41      C        0.53630    0.58300    0.30176    1.000
    C42      C        0.49600    0.62679    0.30763    1.000
    H81      H        0.50630    0.64710    0.32510    1.000
    C43      C        0.43840    0.60210    0.31082    1.000
    C44      C        0.52465    0.54630    0.27655    1.000
    H82      H        0.55370    0.51930    0.27470    1.000
    H83      H        0.52290    0.56830    0.25930    1.000
    H84      H        0.48980    0.52780    0.27940    1.000
    C45      C        0.54590    0.54910    0.32904    1.000
    H85      H        0.55310    0.57370    0.34490    1.000
    H86      H        0.57710    0.52500    0.32630    1.000
    H87      H        0.51350    0.52740    0.33310    1.000
    C46      C        0.63340    0.77870    0.23183    1.000
    C47      C        0.58290    0.75920    0.21837    1.000
    H88      H        0.59310    0.72760    0.20610    1.000
    C48      C        0.55750    0.80310    0.19870    1.000
    C49      C        0.62460    0.82610    0.25066    1.000
    H89      H        0.59510    0.81810    0.26390    1.000
    H90      H        0.61500    0.85800    0.23930    1.000
    H91      H        0.65800    0.83360    0.26120    1.000
    C50      C        0.67650    0.78660    0.21037    1.000
    H92      H        0.67910    0.75400    0.19850    1.000
    H93      H        0.71130    0.79290    0.21980    1.000
    H94      H        0.66750    0.81800    0.19850    1.000
    C51      C        0.64860    0.79150    0.34927    1.000
    C52      C        0.65060    0.79850    0.38091    1.000
    H95      H        0.63200    0.76630    0.38940    1.000
    C53      C        0.61960    0.84770    0.38976    1.000
    C54      C        0.66970    0.84330    0.33564    1.000
    H96      H        0.66870    0.83950    0.31500    1.000
    H97      H        0.70720    0.84980    0.34170    1.000
    H98      H        0.64690    0.87400    0.34140    1.000
    C55      C        0.59490    0.77700    0.33633    1.000
    H99      H        0.59880    0.77460    0.31580    1.000
    H100     H        0.56800    0.80490    0.34100    1.000
    H101     H        0.58270    0.74180    0.34370    1.000
    C56      C        0.87350    0.68971    0.38809    1.000
    C57      C        0.87850    0.74720    0.39716    1.000
    H102     H        0.89490    0.76940    0.38160    1.000
    C58      C        0.91450    0.75250    0.42516    1.000
    C59      C        0.85320    0.65220    0.40863    1.000
    H103     H        0.81790    0.66490    0.41560    1.000
    H104     H        0.87880    0.64980    0.42440    1.000
    H105     H        0.84900    0.61630    0.39990    1.000
    C60      C        0.93010    0.67470    0.37579    1.000
    H106     H        0.92990    0.63670    0.36960    1.000
    H107     H        0.95790    0.67970    0.39040    1.000
    H108     H        0.93820    0.69830    0.35960    1.000
    O25      O        0.66350    0.91330    0.16502    1.000
    C61      C        0.62560    0.93920    0.18710    1.000
    C62      C        0.67110    0.96250    0.21050    1.000
    H109     H        0.70780    0.95790    0.20280    1.000
    H110     H        0.66770    0.94220    0.22820    1.000
    H111     H        0.66430    0.00120    0.21400    1.000
    O26      O        0.58370    0.93450    0.18560    1.000
    La2      La       0.92901    0.03236    0.29265    1.000
    La3      La       0.27925    0.15052    0.99193    1.000
    O27      O        0.32010    0.21950    0.02837    1.000
    O28      O        0.88160    0.95730    0.25247    1.000
    O29      O        0.91500    0.94350    0.29543    1.000
    H112     H        0.90530    0.84380    0.27210    1.000
    C63      C        0.90040    0.92740    0.27156    1.000
    La4      La       0.86137    0.06581    0.23385    1.000
    La5      La       0.95550    0.04240    0.23922    1.000
    La6      La       0.88300    0.05440    0.26727    1.000
    La7      La       0.82840    0.77130    0.49071    1.000
    La8      La       0.85670    0.81880    0.48419    1.000
    Ag9      Ag       0.28206    0.34092    0.72818    1.000
    Ag10     Ag       0.35399    0.88944    0.50087    1.000
    Ag11     Ag       0.31303    0.00120    0.46209    1.000
    Ag12     Ag       0.32843    0.44393    0.77230    1.000
    Ag13     Ag       0.27203    0.25705    0.78991    1.000
    Ag14     Ag       0.12538    0.28614    0.81155    1.000
    Ag15     Ag       0.59247    0.80004    0.65255    1.000
    Ag16     Ag       0.34889    0.35836    0.84256    1.000
    Pd7      Pd       0.24186    0.50200    0.70505    1.000
    Pd8      Pd       0.16269    0.22347    0.73060    1.000
    Pd9      Pd       0.56834    0.95474    0.68614    1.000
    Pd10     Pd       0.18435    0.02398    0.40364    1.000
    Pd11     Pd       0.42759    0.31351    0.76797    1.000
    Pd12     Pd       0.23805    0.25168    0.87398    1.000
    I2       I        0.26345    0.87356    0.45947    1.000
    La9      La       0.42071    0.11998    0.63572    1.000
    S13      S        0.30219    0.43931    0.71995    1.000
    S14      S        0.32641    0.98519    0.51389    1.000
    S15      S        0.18643    0.31061    0.72138    1.000
    S16      S        0.17779    0.22448    0.77806    1.000
    S17      S        0.42259    0.86310    0.46416    1.000
    S18      S        0.53151    0.87347    0.67334    1.000
    S19      S        0.21457    0.01945    0.44859    1.000
    S20      S        0.56097    0.70610    0.63974    1.000
    S21      S        0.39736    0.38189    0.79622    1.000
    S22      S        0.34596    0.28056    0.75419    1.000
    S23      S        0.30261    0.26654    0.84074    1.000
    S24      S        0.17353    0.30916    0.85797    1.000
    O30      O        0.39062    0.54344    0.64878    1.000
    O31      O        0.40825    0.46200    0.63414    1.000
    O32      O        0.38507    0.10854    0.58712    1.000
    O33      O        0.43640    0.12920    0.54893    1.000
    O34      O        0.12354    0.23345    0.63268    1.000
    O35      O        0.20155    0.27330    0.62396    1.000
    O36      O        0.15350    0.03990    0.74293    1.000
    O37      O        0.10600    0.04630    0.78214    1.000
    O38      O        0.61640    0.86841    0.47427    1.000
    O39      O        0.59890    0.78069    0.46794    1.000
    O40      O        0.42716    0.02099    0.62917    1.000
    O41      O        0.36757    0.95677    0.64206    1.000
    O42      O        0.13557    0.19966    0.43468    1.000
    O43      O        0.21390    0.21390    0.45652    1.000
    O44      O        0.45210    0.66380    0.55694    1.000
    O45      O        0.53180    0.62860    0.54783    1.000
    O46      O        0.58960    0.40570    0.79129    1.000
    O47      O        0.56920    0.40840    0.83895    1.000
    O48      O        0.48545    0.17455    0.70648    1.000
    O49      O        0.41805    0.18665    0.67592    1.000
    O50      O        0.35616    0.11183    0.89585    1.000
    O51      O        0.43397    0.15820    0.89026    1.000
    O52      O        0.11326    0.23330    0.94499    1.000
    O53      O        0.03809    0.24580    0.92123    1.000
    N13      N        0.29539    0.51627    0.67426    1.000
    H113     H        0.27660    0.52100    0.65760    1.000
    H114     H        0.31290    0.54840    0.67820    1.000
    N14      N        0.30682    0.06406    0.55949    1.000
    H115     H        0.28670    0.09550    0.55980    1.000
    H116     H        0.31670    0.05640    0.57780    1.000
    N15      N        0.15660    0.21490    0.68818    1.000
    H117     H        0.16990    0.18130    0.68320    1.000
    H118     H        0.12040    0.21590    0.68320    1.000
    N16      N        0.13010    0.14718    0.73704    1.000
    H119     H        0.09650    0.14590    0.72860    1.000
    H120     H        0.15190    0.12210    0.72810    1.000
    N17      N        0.53035    0.89997    0.44543    1.000
    H121     H        0.55090    0.89980    0.42920    1.000
    H122     H        0.54730    0.92260    0.45820    1.000
    N18      N        0.50725    0.98800    0.66276    1.000
    H123     H        0.49670    0.02010    0.67100    1.000
    H124     H        0.52020    0.99590    0.64500    1.000
    N19      N        0.16944    0.10447    0.41150    1.000
    H125     H        0.18050    0.12470    0.39620    1.000
    H126     H        0.13260    0.10950    0.41370    1.000
    N20      N        0.46860    0.65660    0.61309    1.000
    H127     H        0.45170    0.62330    0.61380    1.000
    H128     H        0.44560    0.67980    0.60370    1.000
    N21      N        0.50240    0.33667    0.78290    1.000
    H129     H        0.52140    0.30570    0.78740    1.000
    H130     H        0.52070    0.35340    0.76840    1.000
    N22      N        0.45742    0.25920    0.73718    1.000
    H131     H        0.48440    0.27620    0.72700    1.000
    H132     H        0.47260    0.22970    0.74610    1.000
    N23      N        0.29274    0.20124    0.89164    1.000
    H133     H        0.29400    0.20890    0.91070    1.000
    H134     H        0.27960    0.16640    0.88980    1.000
    N24      N        0.18068    0.23240    0.90349    1.000
    H135     H        0.17980    0.19520    0.90540    1.000
    H136     H        0.19150    0.24660    0.92060    1.000
    C64      C        0.36020    0.45600    0.69598    1.000
    C65      C        0.33560    0.47490    0.66989    1.000
    H137     H        0.31680    0.44310    0.66110    1.000
    C66      C        0.38250    0.49390    0.64827    1.000
    C67      C        0.39700    0.49770    0.70976    1.000
    H138     H        0.41240    0.48260    0.72710    1.000
    H139     H        0.37600    0.53040    0.71430    1.000
    H140     H        0.42650    0.50720    0.69670    1.000
    C68      C        0.39230    0.39650    0.69155    1.000
    H141     H        0.40850    0.38510    0.70950    1.000
    H142     H        0.42080    0.40060    0.67730    1.000
    H143     H        0.36620    0.36890    0.68530    1.000
    C69      C        0.38175    0.02373    0.53229    1.000
    C70      C        0.35710    0.07411    0.54265    1.000
    H144     H        0.34660    0.09620    0.52580    1.000
    C71      C        0.39620    0.11000    0.56121    1.000
    C72      C        0.40300    0.98450    0.55630    1.000
    H145     H        0.41920    0.95210    0.54770    1.000
    H146     H        0.37260    0.97370    0.56840    1.000
    H147     H        0.43050    0.00330    0.56770    1.000
    C73      C        0.42420    0.03150    0.50892    1.000
    H148     H        0.43970    0.99620    0.50380    1.000
    H149     H        0.45310    0.05550    0.51570    1.000
    H150     H        0.40690    0.04780    0.49230    1.000
    C74      C        0.16710    0.31650    0.68280    1.000
    C75      C        0.18680    0.25820    0.67137    1.000
    H151     H        0.22710    0.25370    0.67270    1.000
    C76      C        0.16545    0.25440    0.63919    1.000
    C77      C        0.10290    0.32370    0.68210    1.000
    H152     H        0.08560    0.29160    0.69040    1.000
    H153     H        0.09080    0.32790    0.66250    1.000
    H154     H        0.09280    0.35600    0.69300    1.000
    C78      C        0.19930    0.36450    0.66973    1.000
    H155     H        0.18480    0.39890    0.67700    1.000
    H156     H        0.19560    0.36360    0.64910    1.000
    H157     H        0.23770    0.36130    0.67490    1.000
    C79      C        0.17440    0.15070    0.78392    1.000
    C80      C        0.12440    0.13163    0.76540    1.000
    H158     H        0.08830    0.14110    0.77370    1.000
    C81      C        0.13560    0.06750    0.76360    1.000
    C82      C        0.22600    0.12390    0.77568    1.000
    H159     H        0.23050    0.12610    0.75510    1.000
    H160     H        0.22510    0.08570    0.78150    1.000
    H161     H        0.25650    0.14220    0.78500    1.000
    C83      C        0.16880    0.14450    0.81198    1.000
    H162     H        0.13440    0.16070    0.81810    1.000
    H163     H        0.19900    0.16260    0.82170    1.000
    H164     H        0.16900    0.10570    0.81670    1.000
    C84      C        0.48690    0.84120    0.48144    1.000
    C85      C        0.52942    0.84340    0.45741    1.000
    H165     H        0.51960    0.81680    0.44230    1.000
    C86      C        0.58750    0.82897    0.47002    1.000
    C87      C        0.49940    0.88320    0.50533    1.000
    H166     H        0.47150    0.88050    0.52010    1.000
    H167     H        0.49930    0.91990    0.49740    1.000
    H168     H        0.53510    0.87530    0.51350    1.000
    C88      C        0.47450    0.78430    0.49421    1.000
    H169     H        0.44700    0.78790    0.50910    1.000
    H170     H        0.50780    0.76900    0.50230    1.000
    H171     H        0.46090    0.76020    0.47930    1.000
    C89      C        0.47670    0.89530    0.64882    1.000
    C90      C        0.45890    0.95170    0.66007    1.000
    H172     H        0.44340    0.94640    0.67940    1.000
    C91      C        0.41400    0.98250    0.64131    1.000
    C92      C        0.49800    0.89960    0.61905    1.000
    H173     H        0.50870    0.86350    0.61230    1.000
    H174     H        0.52970    0.92380    0.61870    1.000
    H175     H        0.46960    0.91440    0.60670    1.000
    C93      C        0.42980    0.84950    0.65085    1.000
    H176     H        0.44350    0.81510    0.64330    1.000
    H177     H        0.39810    0.86110    0.63980    1.000
    H178     H        0.41920    0.84460    0.67060    1.000
    C94      C        0.19240    0.08827    0.46181    1.000
    C95      C        0.19810    0.12440    0.43745    1.000
    H179     H        0.23770    0.12480    0.43270    1.000
    C96      C        0.18170    0.18480    0.44259    1.000
    C97      C        0.13350    0.08230    0.46801    1.000
    H180     H        0.11400    0.07350    0.45060    1.000
    H181     H        0.11940    0.11640    0.47580    1.000
    H182     H        0.12820    0.05310    0.48180    1.000
    C98      C        0.22280    0.10190    0.48722    1.000
    H183     H        0.26160    0.10440    0.48270    1.000
    H184     H        0.21720    0.07360    0.50150    1.000
    H185     H        0.21020    0.13690    0.49460    1.000
    C99      C        0.54810    0.69870    0.60144    1.000
    C100     C        0.51740    0.65040    0.59585    1.000
    H186     H        0.53820    0.61730    0.60160    1.000
    C101     C        0.49620    0.64500    0.56404    1.000
    C102     C        0.52320    0.75120    0.59090    1.000
    H187     H        0.54800    0.78150    0.59480    1.000
    H188     H        0.48850    0.75750    0.60060    1.000
    H189     H        0.51690    0.74860    0.57050    1.000
    C103     C        0.60430    0.69760    0.58769    1.000
    H190     H        0.62280    0.73220    0.59110    1.000
    H191     H        0.60040    0.69190    0.56730    1.000
    H192     H        0.62570    0.66790    0.59580    1.000
    C104     C        0.46370    0.41700    0.80176    1.000
    C105     C        0.50400    0.37321    0.80763    1.000
    H193     H        0.49370    0.35290    0.82510    1.000
    C106     C        0.56160    0.39790    0.81082    1.000
    C107     C        0.47535    0.45370    0.77655    1.000
    H194     H        0.44630    0.48070    0.77470    1.000
    H195     H        0.47710    0.43170    0.75930    1.000
    H196     H        0.51020    0.47220    0.77940    1.000
    C108     C        0.45410    0.45090    0.82904    1.000
    H197     H        0.44690    0.42630    0.84490    1.000
    H198     H        0.42290    0.47500    0.82630    1.000
    H199     H        0.48650    0.47260    0.83310    1.000
    C109     C        0.36660    0.22130    0.73183    1.000
    C110     C        0.41710    0.24080    0.71837    1.000
    H200     H        0.40690    0.27240    0.70610    1.000
    C111     C        0.44250    0.19690    0.69870    1.000
    C112     C        0.37540    0.17390    0.75066    1.000
    H201     H        0.40490    0.18190    0.76390    1.000
    H202     H        0.38500    0.14200    0.73930    1.000
    H203     H        0.34200    0.16640    0.76120    1.000
    C113     C        0.32350    0.21340    0.71037    1.000
    H204     H        0.32090    0.24600    0.69850    1.000
    H205     H        0.28870    0.20710    0.71980    1.000
    H206     H        0.33250    0.18200    0.69850    1.000
    C114     C        0.35140    0.20850    0.84927    1.000
    C115     C        0.34940    0.20150    0.88091    1.000
    H207     H        0.36800    0.23370    0.88940    1.000
    C116     C        0.38040    0.15230    0.88976    1.000
    C117     C        0.33030    0.15670    0.83564    1.000
    H208     H        0.33130    0.16050    0.81500    1.000
    H209     H        0.29280    0.15020    0.84170    1.000
    H210     H        0.35310    0.12600    0.84140    1.000
    C118     C        0.40510    0.22300    0.83633    1.000
    H211     H        0.40120    0.22540    0.81580    1.000
    H212     H        0.43200    0.19510    0.84100    1.000
    H213     H        0.41730    0.25820    0.84370    1.000
    C119     C        0.12650    0.31029    0.88809    1.000
    C120     C        0.12150    0.25280    0.89716    1.000
    H214     H        0.10510    0.23060    0.88160    1.000
    C121     C        0.08550    0.24750    0.92516    1.000
    C122     C        0.14680    0.34780    0.90863    1.000
    H215     H        0.18210    0.33510    0.91560    1.000
    H216     H        0.12120    0.35020    0.92440    1.000
    H217     H        0.15100    0.38370    0.89990    1.000
    C123     C        0.06990    0.32530    0.87579    1.000
    H218     H        0.07010    0.36330    0.86960    1.000
    H219     H        0.04210    0.32030    0.89040    1.000
    H220     H        0.06180    0.30170    0.85960    1.000
    O54      O        0.33650    0.08670    0.66502    1.000
    C124     C        0.37440    0.06080    0.68710    1.000
    C125     C        0.32890    0.03750    0.71050    1.000
    H221     H        0.29220    0.04210    0.70280    1.000
    H222     H        0.33230    0.05780    0.72820    1.000
    H223     H        0.33570    0.99880    0.71400    1.000
    O55      O        0.41630    0.06550    0.68560    1.000
    La10     La       0.07099    0.96764    0.79265    1.000
    La11     La       0.72075    0.84948    0.49193    1.000
    O56      O        0.67990    0.78050    0.52837    1.000
    O57      O        0.11840    0.04270    0.75247    1.000
    O58      O        0.08500    0.05650    0.79543    1.000
    H224     H        0.09470    0.15620    0.77210    1.000
    C126     C        0.09960    0.07260    0.77156    1.000
    La12     La       0.13863    0.93419    0.73385    1.000
    La13     La       0.04450    0.95760    0.73922    1.000
    La14     La       0.11700    0.94560    0.76727    1.000
    La15     La       0.17160    0.22870    0.99071    1.000
    La16     La       0.14330    0.18120    0.98419    1.000
    Ag17     Ag       0.84092    0.21794    0.47818    1.000
    Ag18     Ag       0.38944    0.14601    0.25087    1.000
    Ag19     Ag       0.50120    0.18697    0.21209    1.000
    Ag20     Ag       0.94393    0.17157    0.52230    1.000
    Ag21     Ag       0.75705    0.22797    0.53991    1.000
    Ag22     Ag       0.78614    0.37462    0.56155    1.000
    Ag23     Ag       0.30004    0.90753    0.40255    1.000
    Ag24     Ag       0.85836    0.15111    0.59256    1.000
    Pd13     Pd       0.00200    0.25814    0.45505    1.000
    Pd14     Pd       0.72347    0.33731    0.48060    1.000
    Pd15     Pd       0.45474    0.93166    0.43614    1.000
    Pd16     Pd       0.52398    0.31565    0.15364    1.000
    Pd17     Pd       0.81351    0.07241    0.51797    1.000
    Pd18     Pd       0.75168    0.26195    0.62398    1.000
    I3       I        0.37356    0.23655    0.20947    1.000
    La17     La       0.61998    0.07930    0.38572    1.000
    S25      S        0.93931    0.19781    0.46995    1.000
    S26      S        0.48519    0.17359    0.26389    1.000
    S27      S        0.81061    0.31357    0.47138    1.000
    S28      S        0.72448    0.32221    0.52806    1.000
    S29      S        0.36310    0.07741    0.21416    1.000
    S30      S        0.37347    0.96849    0.42334    1.000
    S31      S        0.51945    0.28543    0.19859    1.000
    S32      S        0.20610    0.93903    0.38974    1.000
    S33      S        0.88189    0.10264    0.54622    1.000
    S34      S        0.78056    0.15404    0.50419    1.000
    S35      S        0.76654    0.19739    0.59074    1.000
    S36      S        0.80916    0.32647    0.60797    1.000
    O59      O        0.04344    0.10938    0.39878    1.000
    O60      O        0.96200    0.09175    0.38414    1.000
    O61      O        0.60854    0.11493    0.33712    1.000
    O62      O        0.62920    0.06360    0.29893    1.000
    O63      O        0.73345    0.37646    0.38268    1.000
    O64      O        0.77330    0.29845    0.37396    1.000
    O65      O        0.53990    0.34650    0.49293    1.000
    O66      O        0.54630    0.39400    0.53214    1.000
    O67      O        0.36841    0.88360    0.22427    1.000
    O68      O        0.28069    0.90110    0.21794    1.000
    O69      O        0.52099    0.07284    0.37917    1.000
    O70      O        0.45677    0.13243    0.39206    1.000
    O71      O        0.69966    0.36443    0.18468    1.000
    O72      O        0.71390    0.28610    0.20652    1.000
    O73      O        0.16380    0.04790    0.30694    1.000
    O74      O        0.12860    0.96820    0.29783    1.000
    O75      O        0.90570    0.91040    0.54129    1.000
    O76      O        0.90840    0.93080    0.58895    1.000
    O77      O        0.67455    0.01455    0.45648    1.000
    O78      O        0.68665    0.08195    0.42592    1.000
    O79      O        0.61183    0.14384    0.64585    1.000
    O80      O        0.65820    0.06603    0.64026    1.000
    O81      O        0.73330    0.38674    0.69499    1.000
    O82      O        0.74580    0.46191    0.67123    1.000
    N25      N        0.01627    0.20461    0.42426    1.000
    H225     H        0.02100    0.22340    0.40760    1.000
    H226     H        0.04840    0.18710    0.42820    1.000
    N26      N        0.56406    0.19318    0.30949    1.000
    H227     H        0.59550    0.21330    0.30980    1.000
    H228     H        0.55640    0.18330    0.32780    1.000
    N27      N        0.71490    0.34340    0.43818    1.000
    H229     H        0.68130    0.33010    0.43320    1.000
    H230     H        0.71590    0.37960    0.43320    1.000
    N28      N        0.64718    0.36990    0.48704    1.000
    H231     H        0.64590    0.40350    0.47860    1.000
    H232     H        0.62210    0.34810    0.47810    1.000
    N29      N        0.39997    0.96965    0.19543    1.000
    H233     H        0.39980    0.94910    0.17920    1.000
    H234     H        0.42260    0.95270    0.20820    1.000
    N30      N        0.48800    0.99275    0.41276    1.000
    H235     H        0.52010    0.00330    0.42100    1.000
    H236     H        0.49590    0.97980    0.39500    1.000
    N31      N        0.60447    0.33056    0.16150    1.000
    H237     H        0.62470    0.31950    0.14620    1.000
    H238     H        0.60950    0.36740    0.16370    1.000
    N32      N        0.15660    0.03140    0.36309    1.000
    H239     H        0.12330    0.04830    0.36380    1.000
    H240     H        0.17980    0.05440    0.35370    1.000
    N33      N        0.83667    0.99760    0.53290    1.000
    H241     H        0.80570    0.97860    0.53740    1.000
    H242     H        0.85340    0.97930    0.51840    1.000
    N34      N        0.75920    0.04258    0.48718    1.000
    H243     H        0.77620    0.01560    0.47700    1.000
    H244     H        0.72970    0.02740    0.49610    1.000
    N35      N        0.70124    0.20726    0.64164    1.000
    H245     H        0.70890    0.20600    0.66070    1.000
    H246     H        0.66640    0.22040    0.63980    1.000
    N36      N        0.73240    0.31932    0.65349    1.000
    H247     H        0.69520    0.32020    0.65540    1.000
    H248     H        0.74660    0.30850    0.67060    1.000
    C127     C        0.95600    0.13980    0.44598    1.000
    C128     C        0.97490    0.16440    0.41989    1.000
    H249     H        0.94310    0.18320    0.41110    1.000
    C129     C        0.99390    0.11750    0.39827    1.000
    C130     C        0.99770    0.10300    0.45976    1.000
    H250     H        0.98260    0.08760    0.47710    1.000
    H251     H        0.03040    0.12400    0.46430    1.000
    H252     H        0.00720    0.07350    0.44670    1.000
    C131     C        0.89650    0.10770    0.44155    1.000
    H253     H        0.88510    0.09150    0.45950    1.000
    H254     H        0.90060    0.07920    0.42730    1.000
    H255     H        0.86890    0.13380    0.43530    1.000
    C132     C        0.52373    0.11825    0.28229    1.000
    C133     C        0.57411    0.14290    0.29265    1.000
    H256     H        0.59620    0.15340    0.27580    1.000
    C134     C        0.61000    0.10380    0.31121    1.000
    C135     C        0.48450    0.09700    0.30630    1.000
    H257     H        0.45210    0.08080    0.29770    1.000
    H258     H        0.47370    0.12740    0.31840    1.000
    H259     H        0.50330    0.06950    0.31770    1.000
    C136     C        0.53150    0.07580    0.25892    1.000
    H260     H        0.49620    0.06030    0.25380    1.000
    H261     H        0.55550    0.04690    0.26570    1.000
    H262     H        0.54780    0.09310    0.24230    1.000
    C137     C        0.81650    0.33290    0.43280    1.000
    C138     C        0.75820    0.31320    0.42137    1.000
    H263     H        0.75370    0.27290    0.42270    1.000
    C139     C        0.75440    0.33455    0.38919    1.000
    C140     C        0.82370    0.39710    0.43210    1.000
    H264     H        0.79160    0.41440    0.44040    1.000
    H265     H        0.82790    0.40920    0.41250    1.000
    H266     H        0.85600    0.40720    0.44300    1.000
    C141     C        0.86450    0.30070    0.41973    1.000
    H267     H        0.89890    0.31520    0.42700    1.000
    H268     H        0.86360    0.30440    0.39910    1.000
    H269     H        0.86130    0.26230    0.42490    1.000
    C142     C        0.65070    0.32560    0.53392    1.000
    C143     C        0.63163    0.37560    0.51540    1.000
    H270     H        0.64110    0.41170    0.52370    1.000
    C144     C        0.56750    0.36440    0.51360    1.000
    C145     C        0.62390    0.27400    0.52568    1.000
    H271     H        0.62610    0.26950    0.50510    1.000
    H272     H        0.58570    0.27490    0.53150    1.000
    H273     H        0.64220    0.24350    0.53500    1.000
    C146     C        0.64450    0.33120    0.56198    1.000
    H274     H        0.66070    0.36560    0.56810    1.000
    H275     H        0.66260    0.30100    0.57170    1.000
    H276     H        0.60570    0.33100    0.56670    1.000
    C147     C        0.34120    0.01310    0.23144    1.000
    C148     C        0.34340    0.97058    0.20741    1.000
    H277     H        0.31680    0.98040    0.19230    1.000
    C149     C        0.32897    0.91250    0.22002    1.000
    C150     C        0.38320    0.00060    0.25533    1.000
    H278     H        0.38050    0.02850    0.27010    1.000
    H279     H        0.41990    0.00070    0.24740    1.000
    H280     H        0.37530    0.96490    0.26350    1.000
    C151     C        0.28430    0.02550    0.24421    1.000
    H281     H        0.28790    0.05300    0.25910    1.000
    H282     H        0.26900    0.99220    0.25230    1.000
    H283     H        0.26020    0.03910    0.22930    1.000
    C152     C        0.39530    0.02330    0.39882    1.000
    C153     C        0.45170    0.04110    0.41007    1.000
    H284     H        0.44640    0.05660    0.42940    1.000
    C154     C        0.48250    0.08600    0.39131    1.000
    C155     C        0.39960    0.00200    0.36905    1.000
    H285     H        0.36350    0.99130    0.36230    1.000
    H286     H        0.42380    0.97030    0.36870    1.000
    H287     H        0.41440    0.03040    0.35670    1.000
    C156     C        0.34950    0.07020    0.40085    1.000
    H288     H        0.31510    0.05650    0.39330    1.000
    H289     H        0.36110    0.10190    0.38980    1.000
    H290     H        0.34460    0.08080    0.42060    1.000
    C157     C        0.58827    0.30760    0.21181    1.000
    C158     C        0.62440    0.30190    0.18745    1.000
    H291     H        0.62480    0.26230    0.18270    1.000
    C159     C        0.68480    0.31830    0.19259    1.000
    C160     C        0.58230    0.36650    0.21801    1.000
    H292     H        0.57350    0.38600    0.20060    1.000
    H293     H        0.61640    0.38060    0.22580    1.000
    H294     H        0.55310    0.37180    0.23180    1.000
    C161     C        0.60190    0.27720    0.23722    1.000
    H295     H        0.60440    0.23840    0.23270    1.000
    H296     H        0.57360    0.28280    0.25150    1.000
    H297     H        0.63690    0.28980    0.24460    1.000
    C162     C        0.19870    0.95190    0.35144    1.000
    C163     C        0.15040    0.98260    0.34585    1.000
    H298     H        0.11730    0.96180    0.35160    1.000
    C164     C        0.14500    0.00380    0.31404    1.000
    C165     C        0.25120    0.97680    0.34090    1.000
    H299     H        0.28150    0.95200    0.34480    1.000
    H300     H        0.25750    0.01150    0.35060    1.000
    H301     H        0.24860    0.98310    0.32050    1.000
    C166     C        0.19760    0.89570    0.33769    1.000
    H302     H        0.23220    0.87720    0.34110    1.000
    H303     H        0.19190    0.89960    0.31730    1.000
    H304     H        0.16790    0.87430    0.34580    1.000
    C167     C        0.91700    0.03630    0.55176    1.000
    C168     C        0.87321    0.99600    0.55763    1.000
    H305     H        0.85290    0.00630    0.57510    1.000
    C169     C        0.89790    0.93840    0.56082    1.000
    C170     C        0.95370    0.02465    0.52655    1.000
    H306     H        0.98070    0.05370    0.52470    1.000
    H307     H        0.93170    0.02290    0.50930    1.000
    H308     H        0.97220    0.98980    0.52940    1.000
    C171     C        0.95090    0.04590    0.57904    1.000
    H309     H        0.92630    0.05310    0.59490    1.000
    H310     H        0.97500    0.07710    0.57630    1.000
    H311     H        0.97260    0.01350    0.58310    1.000
    C172     C        0.72130    0.13340    0.48183    1.000
    C173     C        0.74080    0.08290    0.46837    1.000
    H312     H        0.77240    0.09310    0.45610    1.000
    C174     C        0.69690    0.05750    0.44870    1.000
    C175     C        0.67390    0.12460    0.50066    1.000
    H313     H        0.68190    0.09510    0.51390    1.000
    H314     H        0.64200    0.11500    0.48930    1.000
    H315     H        0.66640    0.15800    0.51120    1.000
    C176     C        0.71340    0.17650    0.46037    1.000
    H316     H        0.74600    0.17910    0.44850    1.000
    H317     H        0.70710    0.21130    0.46980    1.000
    H318     H        0.68200    0.16750    0.44850    1.000
    C177     C        0.70850    0.14860    0.59927    1.000
    C178     C        0.70150    0.15060    0.63091    1.000
    H319     H        0.73370    0.13200    0.63940    1.000
    C179     C        0.65230    0.11960    0.63976    1.000
    C180     C        0.65670    0.16970    0.58564    1.000
    H320     H        0.66050    0.16870    0.56500    1.000
    H321     H        0.65020    0.20720    0.59170    1.000
    H322     H        0.62600    0.14690    0.59140    1.000
    C181     C        0.72300    0.09490    0.58633    1.000
    H323     H        0.72540    0.09880    0.56580    1.000
    H324     H        0.69510    0.06800    0.59100    1.000
    H325     H        0.75820    0.08270    0.59370    1.000
    C182     C        0.81029    0.37350    0.63809    1.000
    C183     C        0.75280    0.37850    0.64716    1.000
    H326     H        0.73060    0.39490    0.63160    1.000
    C184     C        0.74750    0.41450    0.67516    1.000
    C185     C        0.84780    0.35320    0.65863    1.000
    H327     H        0.83510    0.31790    0.66560    1.000
    H328     H        0.85020    0.37880    0.67440    1.000
    H329     H        0.88370    0.34900    0.64990    1.000
    C186     C        0.82530    0.43010    0.62579    1.000
    H330     H        0.86330    0.42990    0.61960    1.000
    H331     H        0.82030    0.45790    0.64040    1.000
    H332     H        0.80170    0.43820    0.60960    1.000
    O83      O        0.58670    0.16350    0.41502    1.000
    C187     C        0.56080    0.12560    0.43710    1.000
    C188     C        0.53750    0.17110    0.46050    1.000
    H333     H        0.54210    0.20780    0.45280    1.000
    H334     H        0.55780    0.16770    0.47820    1.000
    H335     H        0.49880    0.16430    0.46400    1.000
    O84      O        0.56550    0.08370    0.43560    1.000
    La18     La       0.46764    0.42901    0.54265    1.000
    La19     La       0.34948    0.77925    0.24193    1.000
    O85      O        0.28050    0.82010    0.27837    1.000
    O86      O        0.54270    0.38160    0.50247    1.000
    O87      O        0.55650    0.41500    0.54543    1.000
    H336     H        0.65620    0.40530    0.52210    1.000
    C189     C        0.57260    0.40040    0.52156    1.000
    La20     La       0.43419    0.36137    0.48385    1.000
    La21     La       0.45760    0.45550    0.48922    1.000
    La22     La       0.44560    0.38300    0.51727    1.000
    La23     La       0.72870    0.32840    0.74071    1.000
    La24     La       0.68120    0.35670    0.73419    1.000
    Ag25     Ag       0.15908    0.78206    0.97818    1.000
    Ag26     Ag       0.61056    0.85399    0.75087    1.000
    Ag27     Ag       0.49880    0.81303    0.71209    1.000
    Ag28     Ag       0.05607    0.82843    0.02230    1.000
    Ag29     Ag       0.24295    0.77203    0.03991    1.000
    Ag30     Ag       0.21386    0.62538    0.06155    1.000
    Ag31     Ag       0.69996    0.09247    0.90255    1.000
    Ag32     Ag       0.14164    0.84889    0.09256    1.000
    Pd19     Pd       0.99800    0.74186    0.95505    1.000
    Pd20     Pd       0.27653    0.66269    0.98060    1.000
    Pd21     Pd       0.54526    0.06834    0.93614    1.000
    Pd22     Pd       0.47602    0.68435    0.65364    1.000
    Pd23     Pd       0.18649    0.92759    0.01797    1.000
    Pd24     Pd       0.24832    0.73805    0.12398    1.000
    I4       I        0.62644    0.76345    0.70947    1.000
    La25     La       0.38002    0.92071    0.88572    1.000
    S37      S        0.06069    0.80219    0.96995    1.000
    S38      S        0.51481    0.82641    0.76389    1.000
    S39      S        0.18939    0.68643    0.97138    1.000
    S40      S        0.27552    0.67779    0.02806    1.000
    S41      S        0.63690    0.92259    0.71416    1.000
    S42      S        0.62653    0.03151    0.92334    1.000
    S43      S        0.48055    0.71457    0.69859    1.000
    S44      S        0.79390    0.06097    0.88974    1.000
    S45      S        0.11811    0.89736    0.04622    1.000
    S46      S        0.21944    0.84596    0.00419    1.000
    S47      S        0.23346    0.80261    0.09074    1.000
    S48      S        0.19084    0.67353    0.10797    1.000
    O88      O        0.95656    0.89062    0.89878    1.000
    O89      O        0.03800    0.90825    0.88414    1.000
    O90      O        0.39146    0.88507    0.83712    1.000
    O91      O        0.37080    0.93640    0.79893    1.000
    O92      O        0.26655    0.62354    0.88268    1.000
    O93      O        0.22670    0.70155    0.87396    1.000
    O94      O        0.46010    0.65350    0.99293    1.000
    O95      O        0.45370    0.60600    0.03214    1.000
    O96      O        0.63159    0.11640    0.72427    1.000
    O97      O        0.71931    0.09890    0.71794    1.000
    O98      O        0.47901    0.92716    0.87917    1.000
    O99      O        0.54323    0.86757    0.89206    1.000
    O100     O        0.30034    0.63557    0.68468    1.000
    O101     O        0.28610    0.71390    0.70652    1.000
    O102     O        0.83620    0.95210    0.80694    1.000
    O103     O        0.87140    0.03180    0.79783    1.000
    O104     O        0.09430    0.08960    0.04129    1.000
    O105     O        0.09160    0.06920    0.08895    1.000
    O106     O        0.32545    0.98545    0.95648    1.000
    O107     O        0.31335    0.91805    0.92592    1.000
    O108     O        0.38817    0.85616    0.14585    1.000
    O109     O        0.34180    0.93397    0.14026    1.000
    O110     O        0.26670    0.61326    0.19499    1.000
    O111     O        0.25420    0.53809    0.17123    1.000
    N37      N        0.98373    0.79539    0.92426    1.000
    H337     H        0.97900    0.77660    0.90760    1.000
    H338     H        0.95160    0.81290    0.92820    1.000
    N38      N        0.43594    0.80682    0.80949    1.000
    H339     H        0.40450    0.78670    0.80980    1.000
    H340     H        0.44360    0.81670    0.82780    1.000
    N39      N        0.28510    0.65660    0.93818    1.000
    H341     H        0.31870    0.66990    0.93320    1.000
    H342     H        0.28410    0.62040    0.93320    1.000
    N40      N        0.35282    0.63010    0.98704    1.000
    H343     H        0.35410    0.59650    0.97860    1.000
    H344     H        0.37790    0.65190    0.97810    1.000
    N41      N        0.60003    0.03035    0.69543    1.000
    H345     H        0.60020    0.05090    0.67920    1.000
    H346     H        0.57740    0.04730    0.70820    1.000
    N42      N        0.51200    0.00725    0.91276    1.000
    H347     H        0.47990    0.99670    0.92100    1.000
    H348     H        0.50410    0.02020    0.89500    1.000
    N43      N        0.39553    0.66944    0.66150    1.000
    H349     H        0.37530    0.68050    0.64620    1.000
    H350     H        0.39050    0.63260    0.66370    1.000
    N44      N        0.84340    0.96860    0.86309    1.000
    H351     H        0.87670    0.95170    0.86380    1.000
    H352     H        0.82020    0.94560    0.85370    1.000
    N45      N        0.16333    0.00240    0.03290    1.000
    H353     H        0.19430    0.02140    0.03740    1.000
    H354     H        0.14660    0.02070    0.01840    1.000
    N46      N        0.24080    0.95742    0.98718    1.000
    H355     H        0.22380    0.98440    0.97700    1.000
    H356     H        0.27030    0.97260    0.99610    1.000
    N47      N        0.29876    0.79274    0.14164    1.000
    H357     H        0.29110    0.79400    0.16070    1.000
    H358     H        0.33360    0.77960    0.13980    1.000
    N48      N        0.26760    0.68068    0.15349    1.000
    H359     H        0.30480    0.67980    0.15540    1.000
    H360     H        0.25340    0.69150    0.17060    1.000
    C190     C        0.04400    0.86020    0.94598    1.000
    C191     C        0.02510    0.83560    0.91989    1.000
    H361     H        0.05690    0.81680    0.91110    1.000
    C192     C        0.00610    0.88250    0.89827    1.000
    C193     C        0.00230    0.89700    0.95976    1.000
    H362     H        0.01740    0.91240    0.97710    1.000
    H363     H        0.96960    0.87600    0.96430    1.000
    H364     H        0.99280    0.92650    0.94670    1.000
    C194     C        0.10350    0.89230    0.94155    1.000
    H365     H        0.11490    0.90850    0.95950    1.000
    H366     H        0.09940    0.92080    0.92730    1.000
    H367     H        0.13110    0.86620    0.93530    1.000
    C195     C        0.47627    0.88175    0.78229    1.000
    C196     C        0.42589    0.85710    0.79265    1.000
    H368     H        0.40380    0.84660    0.77580    1.000
    C197     C        0.39000    0.89620    0.81121    1.000
    C198     C        0.51550    0.90300    0.80630    1.000
    H369     H        0.54790    0.91920    0.79770    1.000
    H370     H        0.52630    0.87260    0.81840    1.000
    H371     H        0.49670    0.93050    0.81770    1.000
    C199     C        0.46850    0.92420    0.75892    1.000
    H372     H        0.50380    0.93970    0.75380    1.000
    H373     H        0.44450    0.95310    0.76570    1.000
    H374     H        0.45220    0.90690    0.74230    1.000
    C200     C        0.18350    0.66710    0.93280    1.000
    C201     C        0.24180    0.68680    0.92137    1.000
    H375     H        0.24630    0.72710    0.92270    1.000
    C202     C        0.24560    0.66545    0.88919    1.000
    C203     C        0.17630    0.60290    0.93210    1.000
    H376     H        0.20840    0.58560    0.94040    1.000
    H377     H        0.17210    0.59080    0.91250    1.000
    H378     H        0.14400    0.59280    0.94300    1.000
    C204     C        0.13550    0.69930    0.91973    1.000
    H379     H        0.10110    0.68480    0.92700    1.000
    H380     H        0.13640    0.69560    0.89910    1.000
    H381     H        0.13870    0.73770    0.92490    1.000
    C205     C        0.34930    0.67440    0.03392    1.000
    C206     C        0.36837    0.62440    0.01540    1.000
    H382     H        0.35890    0.58830    0.02370    1.000
    C207     C        0.43250    0.63560    0.01360    1.000
    C208     C        0.37610    0.72600    0.02568    1.000
    H383     H        0.37390    0.73050    0.00510    1.000
    H384     H        0.41430    0.72510    0.03150    1.000
    H385     H        0.35780    0.75650    0.03500    1.000
    C209     C        0.35550    0.66880    0.06198    1.000
    H386     H        0.33930    0.63440    0.06810    1.000
    H387     H        0.33740    0.69900    0.07170    1.000
    H388     H        0.39430    0.66900    0.06670    1.000
    C210     C        0.65880    0.98690    0.73144    1.000
    C211     C        0.65660    0.02942    0.70741    1.000
    H389     H        0.68320    0.01960    0.69230    1.000
    C212     C        0.67103    0.08750    0.72002    1.000
    C213     C        0.61680    0.99940    0.75533    1.000
    H390     H        0.61950    0.97150    0.77010    1.000
    H391     H        0.58010    0.99930    0.74740    1.000
    H392     H        0.62470    0.03510    0.76350    1.000
    C214     C        0.71570    0.97450    0.74421    1.000
    H393     H        0.71210    0.94700    0.75910    1.000
    H394     H        0.73100    0.00780    0.75230    1.000
    H395     H        0.73980    0.96090    0.72930    1.000
    C215     C        0.60470    0.97670    0.89882    1.000
    C216     C        0.54830    0.95890    0.91007    1.000
    H396     H        0.55360    0.94340    0.92940    1.000
    C217     C        0.51750    0.91400    0.89131    1.000
    C218     C        0.60040    0.99800    0.86905    1.000
    H397     H        0.63650    0.00870    0.86230    1.000
    H398     H        0.57620    0.02970    0.86870    1.000
    H399     H        0.58560    0.96960    0.85670    1.000
    C219     C        0.65050    0.92980    0.90085    1.000
    H400     H        0.68490    0.94350    0.89330    1.000
    H401     H        0.63890    0.89810    0.88980    1.000
    H402     H        0.65540    0.91920    0.92060    1.000
    C220     C        0.41173    0.69240    0.71181    1.000
    C221     C        0.37560    0.69810    0.68745    1.000
    H403     H        0.37520    0.73770    0.68270    1.000
    C222     C        0.31520    0.68170    0.69259    1.000
    C223     C        0.41770    0.63350    0.71801    1.000
    H404     H        0.42650    0.61400    0.70060    1.000
    H405     H        0.38360    0.61940    0.72580    1.000
    H406     H        0.44690    0.62820    0.73180    1.000
    C224     C        0.39810    0.72280    0.73722    1.000
    H407     H        0.39560    0.76160    0.73270    1.000
    H408     H        0.42640    0.71720    0.75150    1.000
    H409     H        0.36310    0.71020    0.74460    1.000
    C225     C        0.80130    0.04810    0.85144    1.000
    C226     C        0.84960    0.01740    0.84585    1.000
    H410     H        0.88270    0.03820    0.85160    1.000
    C227     C        0.85500    0.99620    0.81404    1.000
    C228     C        0.74880    0.02320    0.84090    1.000
    H411     H        0.71850    0.04800    0.84480    1.000
    H412     H        0.74250    0.98850    0.85060    1.000
    H413     H        0.75140    0.01690    0.82050    1.000
    C229     C        0.80240    0.10430    0.83769    1.000
    H414     H        0.76780    0.12280    0.84110    1.000
    H415     H        0.80810    0.10040    0.81730    1.000
    H416     H        0.83210    0.12570    0.84580    1.000
    C230     C        0.08300    0.96370    0.05176    1.000
    C231     C        0.12679    0.00400    0.05763    1.000
    H417     H        0.14710    0.99370    0.07510    1.000
    C232     C        0.10210    0.06160    0.06082    1.000
    C233     C        0.04630    0.97535    0.02655    1.000
    H418     H        0.01930    0.94630    0.02470    1.000
    H419     H        0.06830    0.97710    0.00930    1.000
    H420     H        0.02780    0.01020    0.02940    1.000
    C234     C        0.04910    0.95410    0.07904    1.000
    H421     H        0.07370    0.94690    0.09490    1.000
    H422     H        0.02500    0.92290    0.07630    1.000
    H423     H        0.02740    0.98650    0.08310    1.000
    C235     C        0.27870    0.86660    0.98183    1.000
    C236     C        0.25920    0.91710    0.96837    1.000
    H424     H        0.22760    0.90690    0.95610    1.000
    C237     C        0.30310    0.94250    0.94870    1.000
    C238     C        0.32610    0.87540    0.00066    1.000
    H425     H        0.31810    0.90490    0.01390    1.000
    H426     H        0.35800    0.88500    0.98930    1.000
    H427     H        0.33360    0.84200    0.01120    1.000
    C239     C        0.28660    0.82350    0.96037    1.000
    H428     H        0.25400    0.82090    0.94850    1.000
    H429     H        0.29290    0.78870    0.96980    1.000
    H430     H        0.31800    0.83250    0.94850    1.000
    C240     C        0.29150    0.85140    0.09927    1.000
    C241     C        0.29850    0.84940    0.13091    1.000
    H431     H        0.26630    0.86800    0.13940    1.000
    C242     C        0.34770    0.88040    0.13976    1.000
    C243     C        0.34330    0.83030    0.08564    1.000
    H432     H        0.33950    0.83130    0.06500    1.000
    H433     H        0.34980    0.79280    0.09170    1.000
    H434     H        0.37400    0.85310    0.09140    1.000
    C244     C        0.27700    0.90510    0.08633    1.000
    H435     H        0.27460    0.90120    0.06580    1.000
    H436     H        0.30490    0.93200    0.09100    1.000
    H437     H        0.24180    0.91730    0.09370    1.000
    C245     C        0.18971    0.62650    0.13809    1.000
    C246     C        0.24720    0.62150    0.14716    1.000
    H438     H        0.26940    0.60510    0.13160    1.000
    C247     C        0.25250    0.58550    0.17516    1.000
    C248     C        0.15220    0.64680    0.15863    1.000
    H439     H        0.16490    0.68210    0.16560    1.000
    H440     H        0.14980    0.62120    0.17440    1.000
    H441     H        0.11630    0.65100    0.14990    1.000
    C249     C        0.17470    0.56990    0.12579    1.000
    H442     H        0.13670    0.57010    0.11960    1.000
    H443     H        0.17970    0.54210    0.14040    1.000
    H444     H        0.19830    0.56180    0.10960    1.000
    O112     O        0.41330    0.83650    0.91502    1.000
    C250     C        0.43920    0.87440    0.93710    1.000
    C251     C        0.46250    0.82890    0.96050    1.000
    H445     H        0.45790    0.79220    0.95280    1.000
    H446     H        0.44220    0.83230    0.97820    1.000
    H447     H        0.50120    0.83570    0.96400    1.000
    O113     O        0.43450    0.91630    0.93560    1.000
    La26     La       0.53236    0.57099    0.04265    1.000
    La27     La       0.65052    0.22075    0.74193    1.000
    O114     O        0.71950    0.17990    0.77837    1.000
    O115     O        0.45730    0.61840    0.00247    1.000
    O116     O        0.44350    0.58500    0.04543    1.000
    H448     H        0.34380    0.59470    0.02210    1.000
    C252     C        0.42740    0.59960    0.02156    1.000
    La28     La       0.56581    0.63863    0.98385    1.000
    La29     La       0.54240    0.54450    0.98922    1.000
    La30     La       0.55440    0.61700    0.01727    1.000
    La31     La       0.27130    0.67160    0.24071    1.000
    La32     La       0.31880    0.64330    0.23419    1.000
    Ag33     Ag       0.78206    0.15908    0.02182    1.000
    Ag34     Ag       0.85399    0.61056    0.24913    1.000
    Ag35     Ag       0.81303    0.49880    0.28791    1.000
    Ag36     Ag       0.82843    0.05607    0.97770    1.000
    Ag37     Ag       0.77203    0.24295    0.96009    1.000
    Ag38     Ag       0.62538    0.21386    0.93845    1.000
    Ag39     Ag       0.09247    0.69996    0.09745    1.000
    Ag40     Ag       0.84889    0.14164    0.90744    1.000
    Pd25     Pd       0.74186    0.99800    0.04495    1.000
    Pd26     Pd       0.66269    0.27653    0.01940    1.000
    Pd27     Pd       0.06834    0.54526    0.06386    1.000
    Pd28     Pd       0.68435    0.47602    0.34636    1.000
    Pd29     Pd       0.92759    0.18649    0.98203    1.000
    Pd30     Pd       0.73805    0.24832    0.87602    1.000
    I5       I        0.76345    0.62644    0.29053    1.000
    La33     La       0.92071    0.38002    0.11428    1.000
    S49      S        0.80219    0.06069    0.03005    1.000
    S50      S        0.82641    0.51481    0.23611    1.000
    S51      S        0.68643    0.18939    0.02862    1.000
    S52      S        0.67779    0.27552    0.97194    1.000
    S53      S        0.92259    0.63690    0.28584    1.000
    S54      S        0.03151    0.62653    0.07666    1.000
    S55      S        0.71457    0.48055    0.30141    1.000
    S56      S        0.06097    0.79390    0.11026    1.000
    S57      S        0.89736    0.11811    0.95378    1.000
    S58      S        0.84596    0.21944    0.99581    1.000
    S59      S        0.80261    0.23346    0.90926    1.000
    S60      S        0.67353    0.19084    0.89203    1.000
    O117     O        0.89062    0.95656    0.10122    1.000
    O118     O        0.90825    0.03800    0.11586    1.000
    O119     O        0.88507    0.39146    0.16288    1.000
    O120     O        0.93640    0.37080    0.20107    1.000
    O121     O        0.62354    0.26655    0.11732    1.000
    O122     O        0.70155    0.22670    0.12604    1.000
    O123     O        0.65350    0.46010    0.00707    1.000
    O124     O        0.60600    0.45370    0.96786    1.000
    O125     O        0.11640    0.63159    0.27573    1.000
    O126     O        0.09890    0.71931    0.28206    1.000
    O127     O        0.92716    0.47901    0.12083    1.000
    O128     O        0.86757    0.54323    0.10794    1.000
    O129     O        0.63557    0.30034    0.31532    1.000
    O130     O        0.71390    0.28610    0.29348    1.000
    O131     O        0.95210    0.83620    0.19306    1.000
    O132     O        0.03180    0.87140    0.20217    1.000
    O133     O        0.08960    0.09430    0.95871    1.000
    O134     O        0.06920    0.09160    0.91105    1.000
    O135     O        0.98545    0.32545    0.04352    1.000
    O136     O        0.91805    0.31335    0.07408    1.000
    O137     O        0.85616    0.38817    0.85415    1.000
    O138     O        0.93397    0.34180    0.85974    1.000
    O139     O        0.61326    0.26670    0.80501    1.000
    O140     O        0.53809    0.25420    0.82877    1.000
    N49      N        0.79539    0.98373    0.07574    1.000
    H449     H        0.77660    0.97900    0.09240    1.000
    H450     H        0.81290    0.95160    0.07180    1.000
    N50      N        0.80682    0.43594    0.19051    1.000
    H451     H        0.78670    0.40450    0.19020    1.000
    H452     H        0.81670    0.44360    0.17220    1.000
    N51      N        0.65660    0.28510    0.06182    1.000
    H453     H        0.66990    0.31870    0.06680    1.000
    H454     H        0.62040    0.28410    0.06680    1.000
    N52      N        0.63010    0.35282    0.01296    1.000
    H455     H        0.59650    0.35410    0.02140    1.000
    H456     H        0.65190    0.37790    0.02190    1.000
    N53      N        0.03035    0.60003    0.30457    1.000
    H457     H        0.05090    0.60020    0.32080    1.000
    H458     H        0.04730    0.57740    0.29180    1.000
    N54      N        0.00725    0.51200    0.08724    1.000
    H459     H        0.99670    0.47990    0.07900    1.000
    H460     H        0.02020    0.50410    0.10500    1.000
    N55      N        0.66944    0.39553    0.33850    1.000
    H461     H        0.68050    0.37530    0.35380    1.000
    H462     H        0.63260    0.39050    0.33630    1.000
    N56      N        0.96860    0.84340    0.13691    1.000
    H463     H        0.95170    0.87670    0.13620    1.000
    H464     H        0.94560    0.82020    0.14630    1.000
    N57      N        0.00240    0.16333    0.96710    1.000
    H465     H        0.02140    0.19430    0.96260    1.000
    H466     H        0.02070    0.14660    0.98160    1.000
    N58      N        0.95742    0.24080    0.01282    1.000
    H467     H        0.98440    0.22380    0.02300    1.000
    H468     H        0.97260    0.27030    0.00390    1.000
    N59      N        0.79274    0.29876    0.85836    1.000
    H469     H        0.79400    0.29110    0.83930    1.000
    H470     H        0.77960    0.33360    0.86020    1.000
    N60      N        0.68068    0.26760    0.84651    1.000
    H471     H        0.67980    0.30480    0.84460    1.000
    H472     H        0.69150    0.25340    0.82940    1.000
    C253     C        0.86020    0.04400    0.05402    1.000
    C254     C        0.83560    0.02510    0.08011    1.000
    H473     H        0.81680    0.05690    0.08890    1.000
    C255     C        0.88250    0.00610    0.10173    1.000
    C256     C        0.89700    0.00230    0.04024    1.000
    H474     H        0.91240    0.01740    0.02290    1.000
    H475     H        0.87600    0.96960    0.03570    1.000
    H476     H        0.92650    0.99280    0.05330    1.000
    C257     C        0.89230    0.10350    0.05845    1.000
    H477     H        0.90850    0.11490    0.04050    1.000
    H478     H        0.92080    0.09940    0.07270    1.000
    H479     H        0.86620    0.13110    0.06470    1.000
    C258     C        0.88175    0.47627    0.21771    1.000
    C259     C        0.85710    0.42589    0.20735    1.000
    H480     H        0.84660    0.40380    0.22420    1.000
    C260     C        0.89620    0.39000    0.18879    1.000
    C261     C        0.90300    0.51550    0.19370    1.000
    H481     H        0.91920    0.54790    0.20230    1.000
    H482     H        0.87260    0.52630    0.18160    1.000
    H483     H        0.93050    0.49670    0.18230    1.000
    C262     C        0.92420    0.46850    0.24108    1.000
    H484     H        0.93970    0.50380    0.24620    1.000
    H485     H        0.95310    0.44450    0.23430    1.000
    H486     H        0.90690    0.45220    0.25770    1.000
    C263     C        0.66710    0.18350    0.06720    1.000
    C264     C        0.68680    0.24180    0.07863    1.000
    H487     H        0.72710    0.24630    0.07730    1.000
    C265     C        0.66545    0.24560    0.11081    1.000
    C266     C        0.60290    0.17630    0.06790    1.000
    H488     H        0.58560    0.20840    0.05960    1.000
    H489     H        0.59080    0.17210    0.08750    1.000
    H490     H        0.59280    0.14400    0.05700    1.000
    C267     C        0.69930    0.13550    0.08027    1.000
    H491     H        0.68480    0.10110    0.07300    1.000
    H492     H        0.69560    0.13640    0.10090    1.000
    H493     H        0.73770    0.13870    0.07510    1.000
    C268     C        0.67440    0.34930    0.96608    1.000
    C269     C        0.62440    0.36837    0.98460    1.000
    H494     H        0.58830    0.35890    0.97630    1.000
    C270     C        0.63560    0.43250    0.98640    1.000
    C271     C        0.72600    0.37610    0.97432    1.000
    H495     H        0.73050    0.37390    0.99490    1.000
    H496     H        0.72510    0.41430    0.96850    1.000
    H497     H        0.75650    0.35780    0.96500    1.000
    C272     C        0.66880    0.35550    0.93802    1.000
    H498     H        0.63440    0.33930    0.93190    1.000
    H499     H        0.69900    0.33740    0.92830    1.000
    H500     H        0.66900    0.39430    0.93330    1.000
    C273     C        0.98690    0.65880    0.26856    1.000
    C274     C        0.02942    0.65660    0.29259    1.000
    H501     H        0.01960    0.68320    0.30770    1.000
    C275     C        0.08750    0.67103    0.27998    1.000
    C276     C        0.99940    0.61680    0.24467    1.000
    H502     H        0.97150    0.61950    0.22990    1.000
    H503     H        0.99930    0.58010    0.25260    1.000
    H504     H        0.03510    0.62470    0.23650    1.000
    C277     C        0.97450    0.71570    0.25579    1.000
    H505     H        0.94700    0.71210    0.24090    1.000
    H506     H        0.00780    0.73100    0.24770    1.000
    H507     H        0.96090    0.73980    0.27070    1.000
    C278     C        0.97670    0.60470    0.10118    1.000
    C279     C        0.95890    0.54830    0.08993    1.000
    H508     H        0.94340    0.55360    0.07060    1.000
    C280     C        0.91400    0.51750    0.10869    1.000
    C281     C        0.99800    0.60040    0.13095    1.000
    H509     H        0.00870    0.63650    0.13770    1.000
    H510     H        0.02970    0.57620    0.13130    1.000
    H511     H        0.96960    0.58560    0.14330    1.000
    C282     C        0.92980    0.65050    0.09915    1.000
    H512     H        0.94350    0.68490    0.10670    1.000
    H513     H        0.89810    0.63890    0.11020    1.000
    H514     H        0.91920    0.65540    0.07940    1.000
    C283     C        0.69240    0.41173    0.28819    1.000
    C284     C        0.69810    0.37560    0.31255    1.000
    H515     H        0.73770    0.37520    0.31730    1.000
    C285     C        0.68170    0.31520    0.30741    1.000
    C286     C        0.63350    0.41770    0.28199    1.000
    H516     H        0.61400    0.42650    0.29940    1.000
    H517     H        0.61940    0.38360    0.27420    1.000
    H518     H        0.62820    0.44690    0.26820    1.000
    C287     C        0.72280    0.39810    0.26278    1.000
    H519     H        0.76160    0.39560    0.26730    1.000
    H520     H        0.71720    0.42640    0.24850    1.000
    H521     H        0.71020    0.36310    0.25540    1.000
    C288     C        0.04810    0.80130    0.14856    1.000
    C289     C        0.01740    0.84960    0.15415    1.000
    H522     H        0.03820    0.88270    0.14840    1.000
    C290     C        0.99620    0.85500    0.18596    1.000
    C291     C        0.02320    0.74880    0.15910    1.000
    H523     H        0.04800    0.71850    0.15520    1.000
    H524     H        0.98850    0.74250    0.14940    1.000
    H525     H        0.01690    0.75140    0.17950    1.000
    C292     C        0.10430    0.80240    0.16231    1.000
    H526     H        0.12280    0.76780    0.15890    1.000
    H527     H        0.10040    0.80810    0.18270    1.000
    H528     H        0.12570    0.83210    0.15420    1.000
    C293     C        0.96370    0.08300    0.94824    1.000
    C294     C        0.00400    0.12679    0.94237    1.000
    H529     H        0.99370    0.14710    0.92490    1.000
    C295     C        0.06160    0.10210    0.93918    1.000
    C296     C        0.97535    0.04630    0.97345    1.000
    H530     H        0.94630    0.01930    0.97530    1.000
    H531     H        0.97710    0.06830    0.99070    1.000
    H532     H        0.01020    0.02780    0.97060    1.000
    C297     C        0.95410    0.04910    0.92096    1.000
    H533     H        0.94690    0.07370    0.90510    1.000
    H534     H        0.92290    0.02500    0.92370    1.000
    H535     H        0.98650    0.02740    0.91690    1.000
    C298     C        0.86660    0.27870    0.01817    1.000
    C299     C        0.91710    0.25920    0.03163    1.000
    H536     H        0.90690    0.22760    0.04390    1.000
    C300     C        0.94250    0.30310    0.05130    1.000
    C301     C        0.87540    0.32610    0.99934    1.000
    H537     H        0.90490    0.31810    0.98610    1.000
    H538     H        0.88500    0.35800    0.01070    1.000
    H539     H        0.84200    0.33360    0.98880    1.000
    C302     C        0.82350    0.28660    0.03963    1.000
    H540     H        0.82090    0.25400    0.05150    1.000
    H541     H        0.78870    0.29290    0.03020    1.000
    H542     H        0.83250    0.31800    0.05150    1.000
    C303     C        0.85140    0.29150    0.90073    1.000
    C304     C        0.84940    0.29850    0.86909    1.000
    H543     H        0.86800    0.26630    0.86060    1.000
    C305     C        0.88040    0.34770    0.86024    1.000
    C306     C        0.83030    0.34330    0.91436    1.000
    H544     H        0.83130    0.33950    0.93500    1.000
    H545     H        0.79280    0.34980    0.90830    1.000
    H546     H        0.85310    0.37400    0.90860    1.000
    C307     C        0.90510    0.27700    0.91367    1.000
    H547     H        0.90120    0.27460    0.93420    1.000
    H548     H        0.93200    0.30490    0.90900    1.000
    H549     H        0.91730    0.24180    0.90630    1.000
    C308     C        0.62650    0.18971    0.86191    1.000
    C309     C        0.62150    0.24720    0.85284    1.000
    H550     H        0.60510    0.26940    0.86840    1.000
    C310     C        0.58550    0.25250    0.82484    1.000
    C311     C        0.64680    0.15220    0.84137    1.000
    H551     H        0.68210    0.16490    0.83440    1.000
    H552     H        0.62120    0.14980    0.82560    1.000
    H553     H        0.65100    0.11630    0.85010    1.000
    C312     C        0.56990    0.17470    0.87421    1.000
    H554     H        0.57010    0.13670    0.88040    1.000
    H555     H        0.54210    0.17970    0.85960    1.000
    H556     H        0.56180    0.19830    0.89040    1.000
    O141     O        0.83650    0.41330    0.08498    1.000
    C313     C        0.87440    0.43920    0.06290    1.000
    C314     C        0.82890    0.46250    0.03950    1.000
    H557     H        0.79220    0.45790    0.04720    1.000
    H558     H        0.83230    0.44220    0.02180    1.000
    H559     H        0.83570    0.50120    0.03600    1.000
    O142     O        0.91630    0.43450    0.06440    1.000
    La34     La       0.57099    0.53236    0.95735    1.000
    La35     La       0.22075    0.65052    0.25807    1.000
    O143     O        0.17990    0.71950    0.22163    1.000
    O144     O        0.61840    0.45730    0.99753    1.000
    O145     O        0.58500    0.44350    0.95457    1.000
    H560     H        0.59470    0.34380    0.97790    1.000
    C315     C        0.59960    0.42740    0.97844    1.000
    La36     La       0.63863    0.56581    0.01615    1.000
    La37     La       0.54450    0.54240    0.01078    1.000
    La38     La       0.61700    0.55440    0.98273    1.000
    La39     La       0.67160    0.27130    0.75929    1.000
    La40     La       0.64330    0.31880    0.76581    1.000
    Ag41     Ag       0.21794    0.84092    0.52182    1.000
    Ag42     Ag       0.14601    0.38944    0.74913    1.000
    Ag43     Ag       0.18697    0.50120    0.78791    1.000
    Ag44     Ag       0.17157    0.94393    0.47770    1.000
    Ag45     Ag       0.22797    0.75705    0.46009    1.000
    Ag46     Ag       0.37462    0.78614    0.43845    1.000
    Ag47     Ag       0.90753    0.30004    0.59745    1.000
    Ag48     Ag       0.15111    0.85836    0.40744    1.000
    Pd31     Pd       0.25814    0.00200    0.54495    1.000
    Pd32     Pd       0.33731    0.72347    0.51940    1.000
    Pd33     Pd       0.93166    0.45474    0.56386    1.000
    Pd34     Pd       0.31565    0.52398    0.84636    1.000
    Pd35     Pd       0.07241    0.81351    0.48203    1.000
    Pd36     Pd       0.26195    0.75168    0.37602    1.000
    I6       I        0.23655    0.37356    0.79053    1.000
    La41     La       0.07930    0.61998    0.61428    1.000
    S61      S        0.19781    0.93931    0.53005    1.000
    S62      S        0.17359    0.48519    0.73611    1.000
    S63      S        0.31357    0.81061    0.52862    1.000
    S64      S        0.32221    0.72448    0.47194    1.000
    S65      S        0.07741    0.36310    0.78584    1.000
    S66      S        0.96849    0.37347    0.57666    1.000
    S67      S        0.28543    0.51945    0.80141    1.000
    S68      S        0.93903    0.20610    0.61026    1.000
    S69      S        0.10264    0.88189    0.45378    1.000
    S70      S        0.15404    0.78056    0.49581    1.000
    S71      S        0.19739    0.76654    0.40926    1.000
    S72      S        0.32647    0.80916    0.39203    1.000
    O146     O        0.10938    0.04344    0.60122    1.000
    O147     O        0.09175    0.96200    0.61586    1.000
    O148     O        0.11493    0.60854    0.66288    1.000
    O149     O        0.06360    0.62920    0.70107    1.000
    O150     O        0.37646    0.73345    0.61732    1.000
    O151     O        0.29845    0.77330    0.62604    1.000
    O152     O        0.34650    0.53990    0.50707    1.000
    O153     O        0.39400    0.54630    0.46786    1.000
    O154     O        0.88360    0.36841    0.77573    1.000
    O155     O        0.90110    0.28069    0.78206    1.000
    O156     O        0.07284    0.52099    0.62083    1.000
    O157     O        0.13243    0.45677    0.60794    1.000
    O158     O        0.36443    0.69966    0.81532    1.000
    O159     O        0.28610    0.71390    0.79348    1.000
    O160     O        0.04790    0.16380    0.69306    1.000
    O161     O        0.96820    0.12860    0.70217    1.000
    O162     O        0.91040    0.90570    0.45871    1.000
    O163     O        0.93080    0.90840    0.41105    1.000
    O164     O        0.01455    0.67455    0.54352    1.000
    O165     O        0.08195    0.68665    0.57408    1.000
    O166     O        0.14384    0.61183    0.35415    1.000
    O167     O        0.06603    0.65820    0.35974    1.000
    O168     O        0.38674    0.73330    0.30501    1.000
    O169     O        0.46191    0.74580    0.32877    1.000
    N61      N        0.20461    0.01627    0.57574    1.000
    H561     H        0.22340    0.02100    0.59240    1.000
    H562     H        0.18710    0.04840    0.57180    1.000
    N62      N        0.19318    0.56406    0.69051    1.000
    H563     H        0.21330    0.59550    0.69020    1.000
    H564     H        0.18330    0.55640    0.67220    1.000
    N63      N        0.34340    0.71490    0.56182    1.000
    H565     H        0.33010    0.68130    0.56680    1.000
    H566     H        0.37960    0.71590    0.56680    1.000
    N64      N        0.36990    0.64718    0.51296    1.000
    H567     H        0.40350    0.64590    0.52140    1.000
    H568     H        0.34810    0.62210    0.52190    1.000
    N65      N        0.96965    0.39997    0.80457    1.000
    H569     H        0.94910    0.39980    0.82080    1.000
    H570     H        0.95270    0.42260    0.79180    1.000
    N66      N        0.99275    0.48800    0.58724    1.000
    H571     H        0.00330    0.52010    0.57900    1.000
    H572     H        0.97980    0.49590    0.60500    1.000
    N67      N        0.33056    0.60447    0.83850    1.000
    H573     H        0.31950    0.62470    0.85380    1.000
    H574     H        0.36740    0.60950    0.83630    1.000
    N68      N        0.03140    0.15660    0.63691    1.000
    H575     H        0.04830    0.12330    0.63620    1.000
    H576     H        0.05440    0.17980    0.64630    1.000
    N69      N        0.99760    0.83667    0.46710    1.000
    H577     H        0.97860    0.80570    0.46260    1.000
    H578     H        0.97930    0.85340    0.48160    1.000
    N70      N        0.04258    0.75920    0.51282    1.000
    H579     H        0.01560    0.77620    0.52300    1.000
    H580     H        0.02740    0.72970    0.50390    1.000
    N71      N        0.20726    0.70124    0.35836    1.000
    H581     H        0.20600    0.70890    0.33930    1.000
    H582     H        0.22040    0.66640    0.36020    1.000
    N72      N        0.31932    0.73240    0.34651    1.000
    H583     H        0.32020    0.69520    0.34460    1.000
    H584     H        0.30850    0.74660    0.32940    1.000
    C316     C        0.13980    0.95600    0.55402    1.000
    C317     C        0.16440    0.97490    0.58011    1.000
    H585     H        0.18320    0.94310    0.58890    1.000
    C318     C        0.11750    0.99390    0.60173    1.000
    C319     C        0.10300    0.99770    0.54024    1.000
    H586     H        0.08760    0.98260    0.52290    1.000
    H587     H        0.12400    0.03040    0.53570    1.000
    H588     H        0.07350    0.00720    0.55330    1.000
    C320     C        0.10770    0.89650    0.55845    1.000
    H589     H        0.09150    0.88510    0.54050    1.000
    H590     H        0.07920    0.90060    0.57270    1.000
    H591     H        0.13380    0.86890    0.56470    1.000
    C321     C        0.11825    0.52373    0.71771    1.000
    C322     C        0.14290    0.57411    0.70735    1.000
    H592     H        0.15340    0.59620    0.72420    1.000
    C323     C        0.10380    0.61000    0.68879    1.000
    C324     C        0.09700    0.48450    0.69370    1.000
    H593     H        0.08080    0.45210    0.70230    1.000
    H594     H        0.12740    0.47370    0.68160    1.000
    H595     H        0.06950    0.50330    0.68230    1.000
    C325     C        0.07580    0.53150    0.74108    1.000
    H596     H        0.06030    0.49620    0.74620    1.000
    H597     H        0.04690    0.55550    0.73430    1.000
    H598     H        0.09310    0.54780    0.75770    1.000
    C326     C        0.33290    0.81650    0.56720    1.000
    C327     C        0.31320    0.75820    0.57863    1.000
    H599     H        0.27290    0.75370    0.57730    1.000
    C328     C        0.33455    0.75440    0.61081    1.000
    C329     C        0.39710    0.82370    0.56790    1.000
    H600     H        0.41440    0.79160    0.55960    1.000
    H601     H        0.40920    0.82790    0.58750    1.000
    H602     H        0.40720    0.85600    0.55700    1.000
    C330     C        0.30070    0.86450    0.58027    1.000
    H603     H        0.31520    0.89890    0.57300    1.000
    H604     H        0.30440    0.86360    0.60090    1.000
    H605     H        0.26230    0.86130    0.57510    1.000
    C331     C        0.32560    0.65070    0.46608    1.000
    C332     C        0.37560    0.63163    0.48460    1.000
    H606     H        0.41170    0.64110    0.47630    1.000
    C333     C        0.36440    0.56750    0.48640    1.000
    C334     C        0.27400    0.62390    0.47432    1.000
    H607     H        0.26950    0.62610    0.49490    1.000
    H608     H        0.27490    0.58570    0.46850    1.000
    H609     H        0.24350    0.64220    0.46500    1.000
    C335     C        0.33120    0.64450    0.43802    1.000
    H610     H        0.36560    0.66070    0.43190    1.000
    H611     H        0.30100    0.66260    0.42830    1.000
    H612     H        0.33100    0.60570    0.43330    1.000
    C336     C        0.01310    0.34120    0.76856    1.000
    C337     C        0.97058    0.34340    0.79259    1.000
    H613     H        0.98040    0.31680    0.80770    1.000
    C338     C        0.91250    0.32897    0.77998    1.000
    C339     C        0.00060    0.38320    0.74467    1.000
    H614     H        0.02850    0.38050    0.72990    1.000
    H615     H        0.00070    0.41990    0.75260    1.000
    H616     H        0.96490    0.37530    0.73650    1.000
    C340     C        0.02550    0.28430    0.75579    1.000
    H617     H        0.05300    0.28790    0.74090    1.000
    H618     H        0.99220    0.26900    0.74770    1.000
    H619     H        0.03910    0.26020    0.77070    1.000
    C341     C        0.02330    0.39530    0.60118    1.000
    C342     C        0.04110    0.45170    0.58993    1.000
    H620     H        0.05660    0.44640    0.57060    1.000
    C343     C        0.08600    0.48250    0.60869    1.000
    C344     C        0.00200    0.39960    0.63095    1.000
    H621     H        0.99130    0.36350    0.63770    1.000
    H622     H        0.97030    0.42380    0.63130    1.000
    H623     H        0.03040    0.41440    0.64330    1.000
    C345     C        0.07020    0.34950    0.59915    1.000
    H624     H        0.05650    0.31510    0.60670    1.000
    H625     H        0.10190    0.36110    0.61020    1.000
    H626     H        0.08080    0.34460    0.57940    1.000
    C346     C        0.30760    0.58827    0.78819    1.000
    C347     C        0.30190    0.62440    0.81255    1.000
    H627     H        0.26230    0.62480    0.81730    1.000
    C348     C        0.31830    0.68480    0.80741    1.000
    C349     C        0.36650    0.58230    0.78199    1.000
    H628     H        0.38600    0.57350    0.79940    1.000
    H629     H        0.38060    0.61640    0.77420    1.000
    H630     H        0.37180    0.55310    0.76820    1.000
    C350     C        0.27720    0.60190    0.76278    1.000
    H631     H        0.23840    0.60440    0.76730    1.000
    H632     H        0.28280    0.57360    0.74850    1.000
    H633     H        0.28980    0.63690    0.75540    1.000
    C351     C        0.95190    0.19870    0.64856    1.000
    C352     C        0.98260    0.15040    0.65415    1.000
    H634     H        0.96180    0.11730    0.64840    1.000
    C353     C        0.00380    0.14500    0.68596    1.000
    C354     C        0.97680    0.25120    0.65910    1.000
    H635     H        0.95200    0.28150    0.65520    1.000
    H636     H        0.01150    0.25750    0.64940    1.000
    H637     H        0.98310    0.24860    0.67950    1.000
    C355     C        0.89570    0.19760    0.66231    1.000
    H638     H        0.87720    0.23220    0.65890    1.000
    H639     H        0.89960    0.19190    0.68270    1.000
    H640     H        0.87430    0.16790    0.65420    1.000
    C356     C        0.03630    0.91700    0.44824    1.000
    C357     C        0.99600    0.87321    0.44237    1.000
    H641     H        0.00630    0.85290    0.42490    1.000
    C358     C        0.93840    0.89790    0.43918    1.000
    C359     C        0.02465    0.95370    0.47345    1.000
    H642     H        0.05370    0.98070    0.47530    1.000
    H643     H        0.02290    0.93170    0.49070    1.000
    H644     H        0.98980    0.97220    0.47060    1.000
    C360     C        0.04590    0.95090    0.42096    1.000
    H645     H        0.05310    0.92630    0.40510    1.000
    H646     H        0.07710    0.97500    0.42370    1.000
    H647     H        0.01350    0.97260    0.41690    1.000
    C361     C        0.13340    0.72130    0.51817    1.000
    C362     C        0.08290    0.74080    0.53163    1.000
    H648     H        0.09310    0.77240    0.54390    1.000
    C363     C        0.05750    0.69690    0.55130    1.000
    C364     C        0.12460    0.67390    0.49934    1.000
    H649     H        0.09510    0.68190    0.48610    1.000
    H650     H        0.11500    0.64200    0.51070    1.000
    H651     H        0.15800    0.66640    0.48880    1.000
    C365     C        0.17650    0.71340    0.53963    1.000
    H652     H        0.17910    0.74600    0.55150    1.000
    H653     H        0.21130    0.70710    0.53020    1.000
    H654     H        0.16750    0.68200    0.55150    1.000
    C366     C        0.14860    0.70850    0.40073    1.000
    C367     C        0.15060    0.70150    0.36909    1.000
    H655     H        0.13200    0.73370    0.36060    1.000
    C368     C        0.11960    0.65230    0.36024    1.000
    C369     C        0.16970    0.65670    0.41436    1.000
    H656     H        0.16870    0.66050    0.43500    1.000
    H657     H        0.20720    0.65020    0.40830    1.000
    H658     H        0.14690    0.62600    0.40860    1.000
    C370     C        0.09490    0.72300    0.41367    1.000
    H659     H        0.09880    0.72540    0.43420    1.000
    H660     H        0.06800    0.69510    0.40900    1.000
    H661     H        0.08270    0.75820    0.40630    1.000
    C371     C        0.37350    0.81029    0.36191    1.000
    C372     C        0.37850    0.75280    0.35284    1.000
    H662     H        0.39490    0.73060    0.36840    1.000
    C373     C        0.41450    0.74750    0.32484    1.000
    C374     C        0.35320    0.84780    0.34137    1.000
    H663     H        0.31790    0.83510    0.33440    1.000
    H664     H        0.37880    0.85020    0.32560    1.000
    H665     H        0.34900    0.88370    0.35010    1.000
    C375     C        0.43010    0.82530    0.37421    1.000
    H666     H        0.42990    0.86330    0.38040    1.000
    H667     H        0.45790    0.82030    0.35960    1.000
    H668     H        0.43820    0.80170    0.39040    1.000
    O170     O        0.16350    0.58670    0.58498    1.000
    C376     C        0.12560    0.56080    0.56290    1.000
    C377     C        0.17110    0.53750    0.53950    1.000
    H669     H        0.20780    0.54210    0.54720    1.000
    H670     H        0.16770    0.55780    0.52180    1.000
    H671     H        0.16430    0.49880    0.53600    1.000
    O171     O        0.08370    0.56550    0.56440    1.000
    La42     La       0.42901    0.46764    0.45735    1.000
    La43     La       0.77925    0.34948    0.75807    1.000
    O172     O        0.82010    0.28050    0.72163    1.000
    O173     O        0.38160    0.54270    0.49753    1.000
    O174     O        0.41500    0.55650    0.45457    1.000
    H672     H        0.40530    0.65620    0.47790    1.000
    C378     C        0.40040    0.57260    0.47844    1.000
    La44     La       0.36137    0.43419    0.51615    1.000
    La45     La       0.45550    0.45760    0.51078    1.000
    La46     La       0.38300    0.44560    0.48273    1.000
    La47     La       0.32840    0.72870    0.25929    1.000
    La48     La       0.35670    0.68120    0.26581    1.000
    Ag49     Ag       0.65908    0.71794    0.77182    1.000
    Ag50     Ag       0.11056    0.64601    0.99913    1.000
    Ag51     Ag       0.99880    0.68697    0.03791    1.000
    Ag52     Ag       0.55607    0.67157    0.72770    1.000
    Ag53     Ag       0.74295    0.72797    0.71009    1.000
    Ag54     Ag       0.71386    0.87462    0.68845    1.000
    Ag55     Ag       0.19996    0.40753    0.84745    1.000
    Ag56     Ag       0.64164    0.65111    0.65744    1.000
    Pd37     Pd       0.49800    0.75814    0.79495    1.000
    Pd38     Pd       0.77653    0.83731    0.76940    1.000
    Pd39     Pd       0.04526    0.43166    0.81386    1.000
    Pd40     Pd       0.97602    0.81565    0.09636    1.000
    Pd41     Pd       0.68649    0.57241    0.73203    1.000
    Pd42     Pd       0.74832    0.76195    0.62602    1.000
    I7       I        0.12644    0.73655    0.04053    1.000
    La49     La       0.88002    0.57930    0.86428    1.000
    S73      S        0.56069    0.69781    0.78005    1.000
    S74      S        0.01481    0.67359    0.98611    1.000
    S75      S        0.68939    0.81357    0.77862    1.000
    S76      S        0.77552    0.82221    0.72194    1.000
    S77      S        0.13690    0.57741    0.03584    1.000
    S78      S        0.12653    0.46849    0.82666    1.000
    S79      S        0.98055    0.78543    0.05141    1.000
    S80      S        0.29390    0.43903    0.86026    1.000
    S81      S        0.61811    0.60264    0.70378    1.000
    S82      S        0.71944    0.65404    0.74581    1.000
    S83      S        0.73346    0.69739    0.65926    1.000
    S84      S        0.69084    0.82647    0.64203    1.000
    O175     O        0.45656    0.60938    0.85122    1.000
    O176     O        0.53800    0.59175    0.86586    1.000
    O177     O        0.89146    0.61493    0.91288    1.000
    O178     O        0.87080    0.56360    0.95107    1.000
    O179     O        0.76655    0.87646    0.86732    1.000
    O180     O        0.72670    0.79845    0.87604    1.000
    O181     O        0.96010    0.84650    0.75707    1.000
    O182     O        0.95370    0.89400    0.71786    1.000
    O183     O        0.13159    0.38360    0.02573    1.000
    O184     O        0.21931    0.40110    0.03206    1.000
    O185     O        0.97901    0.57284    0.87083    1.000
    O186     O        0.04323    0.63243    0.85794    1.000
    O187     O        0.80034    0.86443    0.06532    1.000
    O188     O        0.78610    0.78610    0.04348    1.000
    O189     O        0.33620    0.54790    0.94306    1.000
    O190     O        0.37140    0.46820    0.95217    1.000
    O191     O        0.59430    0.41040    0.70871    1.000
    O192     O        0.59160    0.43080    0.66105    1.000
    O193     O        0.82545    0.51455    0.79352    1.000
    O194     O        0.81335    0.58195    0.82408    1.000
    O195     O        0.88817    0.64384    0.60415    1.000
    O196     O        0.84180    0.56603    0.60974    1.000
    O197     O        0.76670    0.88674    0.55501    1.000
    O198     O        0.75420    0.96191    0.57877    1.000
    N73      N        0.48373    0.70461    0.82574    1.000
    H673     H        0.47900    0.72340    0.84240    1.000
    H674     H        0.45160    0.68710    0.82180    1.000
    N74      N        0.93594    0.69318    0.94051    1.000
    H675     H        0.90450    0.71330    0.94020    1.000
    H676     H        0.94360    0.68330    0.92220    1.000
    N75      N        0.78510    0.84340    0.81182    1.000
    H677     H        0.81870    0.83010    0.81680    1.000
    H678     H        0.78410    0.87960    0.81680    1.000
    N76      N        0.85282    0.86990    0.76296    1.000
    H679     H        0.85410    0.90350    0.77140    1.000
    H680     H        0.87790    0.84810    0.77190    1.000
    N77      N        0.10003    0.46965    0.05457    1.000
    H681     H        0.10020    0.44910    0.07080    1.000
    H682     H        0.07740    0.45270    0.04180    1.000
    N78      N        0.01200    0.49275    0.83724    1.000
    H683     H        0.97990    0.50330    0.82900    1.000
    H684     H        0.00410    0.47980    0.85500    1.000
    N79      N        0.89553    0.83056    0.08850    1.000
    H685     H        0.87530    0.81950    0.10380    1.000
    H686     H        0.89050    0.86740    0.08630    1.000
    N80      N        0.34340    0.53140    0.88691    1.000
    H687     H        0.37670    0.54830    0.88620    1.000
    H688     H        0.32020    0.55440    0.89630    1.000
    N81      N        0.66333    0.49760    0.71710    1.000
    H689     H        0.69430    0.47860    0.71260    1.000
    H690     H        0.64660    0.47930    0.73160    1.000
    N82      N        0.74080    0.54258    0.76282    1.000
    H691     H        0.72380    0.51560    0.77300    1.000
    H692     H        0.77030    0.52740    0.75390    1.000
    N83      N        0.79876    0.70726    0.60836    1.000
    H693     H        0.79110    0.70600    0.58930    1.000
    H694     H        0.83360    0.72040    0.61020    1.000
    N84      N        0.76760    0.81932    0.59651    1.000
    H695     H        0.80480    0.82020    0.59460    1.000
    H696     H        0.75340    0.80850    0.57940    1.000
    C379     C        0.54400    0.63980    0.80402    1.000
    C380     C        0.52510    0.66440    0.83011    1.000
    H697     H        0.55690    0.68320    0.83890    1.000
    C381     C        0.50610    0.61750    0.85173    1.000
    C382     C        0.50230    0.60300    0.79024    1.000
    H698     H        0.51740    0.58760    0.77290    1.000
    H699     H        0.46960    0.62400    0.78570    1.000
    H700     H        0.49280    0.57350    0.80330    1.000
    C383     C        0.60350    0.60770    0.80845    1.000
    H701     H        0.61490    0.59150    0.79050    1.000
    H702     H        0.59940    0.57920    0.82270    1.000
    H703     H        0.63110    0.63380    0.81470    1.000
    C384     C        0.97627    0.61825    0.96771    1.000
    C385     C        0.92589    0.64290    0.95735    1.000
    H704     H        0.90380    0.65340    0.97420    1.000
    C386     C        0.89000    0.60380    0.93879    1.000
    C387     C        0.01550    0.59700    0.94370    1.000
    H705     H        0.04790    0.58080    0.95230    1.000
    H706     H        0.02630    0.62740    0.93160    1.000
    H707     H        0.99670    0.56950    0.93230    1.000
    C388     C        0.96850    0.57580    0.99108    1.000
    H708     H        0.00380    0.56030    0.99620    1.000
    H709     H        0.94450    0.54690    0.98430    1.000
    H710     H        0.95220    0.59310    0.00770    1.000
    C389     C        0.68350    0.83290    0.81720    1.000
    C390     C        0.74180    0.81320    0.82863    1.000
    H711     H        0.74630    0.77290    0.82730    1.000
    C391     C        0.74560    0.83455    0.86081    1.000
    C392     C        0.67630    0.89710    0.81790    1.000
    H712     H        0.70840    0.91440    0.80960    1.000
    H713     H        0.67210    0.90920    0.83750    1.000
    H714     H        0.64400    0.90720    0.80700    1.000
    C393     C        0.63550    0.80070    0.83027    1.000
    H715     H        0.60110    0.81520    0.82300    1.000
    H716     H        0.63640    0.80440    0.85090    1.000
    H717     H        0.63870    0.76230    0.82510    1.000
    C394     C        0.84930    0.82560    0.71608    1.000
    C395     C        0.86837    0.87560    0.73460    1.000
    H718     H        0.85890    0.91170    0.72630    1.000
    C396     C        0.93250    0.86440    0.73640    1.000
    C397     C        0.87610    0.77400    0.72432    1.000
    H719     H        0.87390    0.76950    0.74490    1.000
    H720     H        0.91430    0.77490    0.71850    1.000
    H721     H        0.85780    0.74350    0.71500    1.000
    C398     C        0.85550    0.83120    0.68802    1.000
    H722     H        0.83930    0.86560    0.68190    1.000
    H723     H        0.83740    0.80100    0.67830    1.000
    H724     H        0.89430    0.83100    0.68330    1.000
    C399     C        0.15880    0.51310    0.01856    1.000
    C400     C        0.15660    0.47058    0.04259    1.000
    H725     H        0.18320    0.48040    0.05770    1.000
    C401     C        0.17103    0.41250    0.02998    1.000
    C402     C        0.11680    0.50060    0.99467    1.000
    H726     H        0.11950    0.52850    0.97990    1.000
    H727     H        0.08010    0.50070    0.00260    1.000
    H728     H        0.12470    0.46490    0.98650    1.000
    C403     C        0.21570    0.52550    0.00579    1.000
    H729     H        0.21210    0.55300    0.99090    1.000
    H730     H        0.23100    0.49220    0.99770    1.000
    H731     H        0.23980    0.53910    0.02070    1.000
    C404     C        0.10470    0.52330    0.85118    1.000
    C405     C        0.04830    0.54110    0.83993    1.000
    H732     H        0.05360    0.55660    0.82060    1.000
    C406     C        0.01750    0.58600    0.85869    1.000
    C407     C        0.10040    0.50200    0.88095    1.000
    H733     H        0.13650    0.49130    0.88770    1.000
    H734     H        0.07620    0.47030    0.88130    1.000
    H735     H        0.08560    0.53040    0.89330    1.000
    C408     C        0.15050    0.57020    0.84915    1.000
    H736     H        0.18490    0.55650    0.85670    1.000
    H737     H        0.13890    0.60190    0.86020    1.000
    H738     H        0.15540    0.58080    0.82940    1.000
    C409     C        0.91173    0.80760    0.03819    1.000
    C410     C        0.87560    0.80190    0.06255    1.000
    H739     H        0.87520    0.76230    0.06730    1.000
    C411     C        0.81520    0.81830    0.05741    1.000
    C412     C        0.91770    0.86650    0.03199    1.000
    H740     H        0.92650    0.88600    0.04940    1.000
    H741     H        0.88360    0.88060    0.02420    1.000
    H742     H        0.94690    0.87180    0.01820    1.000
    C413     C        0.89810    0.77720    0.01278    1.000
    H743     H        0.89560    0.73840    0.01730    1.000
    H744     H        0.92640    0.78280    0.99850    1.000
    H745     H        0.86310    0.78980    0.00540    1.000
    C414     C        0.30130    0.45190    0.89856    1.000
    C415     C        0.34960    0.48260    0.90415    1.000
    H746     H        0.38270    0.46180    0.89840    1.000
    C416     C        0.35500    0.50380    0.93596    1.000
    C417     C        0.24880    0.47680    0.90910    1.000
    H747     H        0.21850    0.45200    0.90520    1.000
    H748     H        0.24250    0.51150    0.89940    1.000
    H749     H        0.25140    0.48310    0.92950    1.000
    C418     C        0.30240    0.39570    0.91231    1.000
    H750     H        0.26780    0.37720    0.90890    1.000
    H751     H        0.30810    0.39960    0.93270    1.000
    H752     H        0.33210    0.37430    0.90420    1.000
    C419     C        0.58300    0.53630    0.69824    1.000
    C420     C        0.62679    0.49600    0.69237    1.000
    H753     H        0.64710    0.50630    0.67490    1.000
    C421     C        0.60210    0.43840    0.68918    1.000
    C422     C        0.54630    0.52465    0.72345    1.000
    H754     H        0.51930    0.55370    0.72530    1.000
    H755     H        0.56830    0.52290    0.74070    1.000
    H756     H        0.52780    0.48980    0.72060    1.000
    C423     C        0.54910    0.54590    0.67096    1.000
    H757     H        0.57370    0.55310    0.65510    1.000
    H758     H        0.52500    0.57710    0.67370    1.000
    H759     H        0.52740    0.51350    0.66690    1.000
    C424     C        0.77870    0.63340    0.76817    1.000
    C425     C        0.75920    0.58290    0.78163    1.000
    H760     H        0.72760    0.59310    0.79390    1.000
    C426     C        0.80310    0.55750    0.80130    1.000
    C427     C        0.82610    0.62460    0.74934    1.000
    H761     H        0.81810    0.59510    0.73610    1.000
    H762     H        0.85800    0.61500    0.76070    1.000
    H763     H        0.83360    0.65800    0.73880    1.000
    C428     C        0.78660    0.67650    0.78963    1.000
    H764     H        0.75400    0.67910    0.80150    1.000
    H765     H        0.79290    0.71130    0.78020    1.000
    H766     H        0.81800    0.66750    0.80150    1.000
    C429     C        0.79150    0.64860    0.65073    1.000
    C430     C        0.79850    0.65060    0.61909    1.000
    H767     H        0.76630    0.63200    0.61060    1.000
    C431     C        0.84770    0.61960    0.61024    1.000
    C432     C        0.84330    0.66970    0.66436    1.000
    H768     H        0.83950    0.66870    0.68500    1.000
    H769     H        0.84980    0.70720    0.65830    1.000
    H770     H        0.87400    0.64690    0.65860    1.000
    C433     C        0.77700    0.59490    0.66367    1.000
    H771     H        0.77460    0.59880    0.68420    1.000
    H772     H        0.80490    0.56800    0.65900    1.000
    H773     H        0.74180    0.58270    0.65630    1.000
    C434     C        0.68971    0.87350    0.61191    1.000
    C435     C        0.74720    0.87850    0.60284    1.000
    H774     H        0.76940    0.89490    0.61840    1.000
    C436     C        0.75250    0.91450    0.57484    1.000
    C437     C        0.65220    0.85320    0.59137    1.000
    H775     H        0.66490    0.81790    0.58440    1.000
    H776     H        0.64980    0.87880    0.57560    1.000
    H777     H        0.61630    0.84900    0.60010    1.000
    C438     C        0.67470    0.93010    0.62421    1.000
    H778     H        0.63670    0.92990    0.63040    1.000
    H779     H        0.67970    0.95790    0.60960    1.000
    H780     H        0.69830    0.93820    0.64040    1.000
    O199     O        0.91330    0.66350    0.83498    1.000
    C439     C        0.93920    0.62560    0.81290    1.000
    C440     C        0.96250    0.67110    0.78950    1.000
    H781     H        0.95790    0.70780    0.79720    1.000
    H782     H        0.94220    0.66770    0.77180    1.000
    H783     H        0.00120    0.66430    0.78600    1.000
    O200     O        0.93450    0.58370    0.81440    1.000
    La50     La       0.03236    0.92901    0.70735    1.000
    La51     La       0.15052    0.27925    0.00807    1.000
    O201     O        0.21950    0.32010    0.97163    1.000
    O202     O        0.95730    0.88160    0.74753    1.000
    O203     O        0.94350    0.91500    0.70457    1.000
    H784     H        0.84380    0.90530    0.72790    1.000
    C441     C        0.92740    0.90040    0.72844    1.000
    La52     La       0.06581    0.86137    0.76615    1.000
    La53     La       0.04240    0.95550    0.76078    1.000
    La54     La       0.05440    0.88300    0.73273    1.000
    La55     La       0.77130    0.82840    0.50929    1.000
    La56     La       0.81880    0.85670    0.51581    1.000
    Ag57     Ag       0.34092    0.28206    0.27182    1.000
    Ag58     Ag       0.88944    0.35399    0.49913    1.000
    Ag59     Ag       0.00120    0.31303    0.53791    1.000
    Ag60     Ag       0.44393    0.32843    0.22770    1.000
    Ag61     Ag       0.25705    0.27203    0.21009    1.000
    Ag62     Ag       0.28614    0.12538    0.18845    1.000
    Ag63     Ag       0.80004    0.59247    0.34745    1.000
    Ag64     Ag       0.35836    0.34889    0.15744    1.000
    Pd43     Pd       0.50200    0.24186    0.29495    1.000
    Pd44     Pd       0.22347    0.16269    0.26940    1.000
    Pd45     Pd       0.95474    0.56834    0.31386    1.000
    Pd46     Pd       0.02398    0.18435    0.59636    1.000
    Pd47     Pd       0.31351    0.42759    0.23203    1.000
    Pd48     Pd       0.25168    0.23805    0.12602    1.000
    I8       I        0.87356    0.26345    0.54053    1.000
    La57     La       0.11998    0.42071    0.36428    1.000
    S85      S        0.43931    0.30219    0.28005    1.000
    S86      S        0.98519    0.32641    0.48611    1.000
    S87      S        0.31061    0.18643    0.27862    1.000
    S88      S        0.22448    0.17779    0.22194    1.000
    S89      S        0.86310    0.42259    0.53584    1.000
    S90      S        0.87347    0.53151    0.32666    1.000
    S91      S        0.01945    0.21457    0.55141    1.000
    S92      S        0.70610    0.56097    0.36026    1.000
    S93      S        0.38189    0.39736    0.20378    1.000
    S94      S        0.28056    0.34596    0.24581    1.000
    S95      S        0.26654    0.30261    0.15926    1.000
    S96      S        0.30916    0.17353    0.14203    1.000
    O204     O        0.54344    0.39062    0.35122    1.000
    O205     O        0.46200    0.40825    0.36586    1.000
    O206     O        0.10854    0.38507    0.41288    1.000
    O207     O        0.12920    0.43640    0.45107    1.000
    O208     O        0.23345    0.12354    0.36732    1.000
    O209     O        0.27330    0.20155    0.37604    1.000
    O210     O        0.03990    0.15350    0.25707    1.000
    O211     O        0.04630    0.10600    0.21786    1.000
    O212     O        0.86841    0.61640    0.52573    1.000
    O213     O        0.78069    0.59890    0.53206    1.000
    O214     O        0.02099    0.42716    0.37083    1.000
    O215     O        0.95677    0.36757    0.35794    1.000
    O216     O        0.19966    0.13557    0.56532    1.000
    O217     O        0.21390    0.21390    0.54348    1.000
    O218     O        0.66380    0.45210    0.44306    1.000
    O219     O        0.62860    0.53180    0.45217    1.000
    O220     O        0.40570    0.58960    0.20871    1.000
    O221     O        0.40840    0.56920    0.16105    1.000
    O222     O        0.17455    0.48545    0.29352    1.000
    O223     O        0.18665    0.41805    0.32408    1.000
    O224     O        0.11183    0.35616    0.10415    1.000
    O225     O        0.15820    0.43397    0.10974    1.000
    O226     O        0.23330    0.11326    0.05501    1.000
    O227     O        0.24580    0.03809    0.07877    1.000
    N85      N        0.51627    0.29539    0.32574    1.000
    H785     H        0.52100    0.27660    0.34240    1.000
    H786     H        0.54840    0.31290    0.32180    1.000
    N86      N        0.06406    0.30682    0.44051    1.000
    H787     H        0.09550    0.28670    0.44020    1.000
    H788     H        0.05640    0.31670    0.42220    1.000
    N87      N        0.21490    0.15660    0.31182    1.000
    H789     H        0.18130    0.16990    0.31680    1.000
    H790     H        0.21590    0.12040    0.31680    1.000
    N88      N        0.14718    0.13010    0.26296    1.000
    H791     H        0.14590    0.09650    0.27140    1.000
    H792     H        0.12210    0.15190    0.27190    1.000
    N89      N        0.89997    0.53035    0.55457    1.000
    H793     H        0.89980    0.55090    0.57080    1.000
    H794     H        0.92260    0.54730    0.54180    1.000
    N90      N        0.98800    0.50725    0.33724    1.000
    H795     H        0.02010    0.49670    0.32900    1.000
    H796     H        0.99590    0.52020    0.35500    1.000
    N91      N        0.10447    0.16944    0.58850    1.000
    H797     H        0.12470    0.18050    0.60380    1.000
    H798     H        0.10950    0.13260    0.58630    1.000
    N92      N        0.65660    0.46860    0.38691    1.000
    H799     H        0.62330    0.45170    0.38620    1.000
    H800     H        0.67980    0.44560    0.39630    1.000
    N93      N        0.33667    0.50240    0.21710    1.000
    H801     H        0.30570    0.52140    0.21260    1.000
    H802     H        0.35340    0.52070    0.23160    1.000
    N94      N        0.25920    0.45742    0.26282    1.000
    H803     H        0.27620    0.48440    0.27300    1.000
    H804     H        0.22970    0.47260    0.25390    1.000
    N95      N        0.20124    0.29274    0.10836    1.000
    H805     H        0.20890    0.29400    0.08930    1.000
    H806     H        0.16640    0.27960    0.11020    1.000
    N96      N        0.23240    0.18068    0.09651    1.000
    H807     H        0.19520    0.17980    0.09460    1.000
    H808     H        0.24660    0.19150    0.07940    1.000
    C442     C        0.45600    0.36020    0.30402    1.000
    C443     C        0.47490    0.33560    0.33011    1.000
    H809     H        0.44310    0.31680    0.33890    1.000
    C444     C        0.49390    0.38250    0.35173    1.000
    C445     C        0.49770    0.39700    0.29024    1.000
    H810     H        0.48260    0.41240    0.27290    1.000
    H811     H        0.53040    0.37600    0.28570    1.000
    H812     H        0.50720    0.42650    0.30330    1.000
    C446     C        0.39650    0.39230    0.30845    1.000
    H813     H        0.38510    0.40850    0.29050    1.000
    H814     H        0.40060    0.42080    0.32270    1.000
    H815     H        0.36890    0.36620    0.31470    1.000
    C447     C        0.02373    0.38175    0.46771    1.000
    C448     C        0.07411    0.35710    0.45735    1.000
    H816     H        0.09620    0.34660    0.47420    1.000
    C449     C        0.11000    0.39620    0.43879    1.000
    C450     C        0.98450    0.40300    0.44370    1.000
    H817     H        0.95210    0.41920    0.45230    1.000
    H818     H        0.97370    0.37260    0.43160    1.000
    H819     H        0.00330    0.43050    0.43230    1.000
    C451     C        0.03150    0.42420    0.49108    1.000
    H820     H        0.99620    0.43970    0.49620    1.000
    H821     H        0.05550    0.45310    0.48430    1.000
    H822     H        0.04780    0.40690    0.50770    1.000
    C452     C        0.31650    0.16710    0.31720    1.000
    C453     C        0.25820    0.18680    0.32863    1.000
    H823     H        0.25370    0.22710    0.32730    1.000
    C454     C        0.25440    0.16545    0.36081    1.000
    C455     C        0.32370    0.10290    0.31790    1.000
    H824     H        0.29160    0.08560    0.30960    1.000
    H825     H        0.32790    0.09080    0.33750    1.000
    H826     H        0.35600    0.09280    0.30700    1.000
    C456     C        0.36450    0.19930    0.33027    1.000
    H827     H        0.39890    0.18480    0.32300    1.000
    H828     H        0.36360    0.19560    0.35090    1.000
    H829     H        0.36130    0.23770    0.32510    1.000
    C457     C        0.15070    0.17440    0.21608    1.000
    C458     C        0.13163    0.12440    0.23460    1.000
    H830     H        0.14110    0.08830    0.22630    1.000
    C459     C        0.06750    0.13560    0.23640    1.000
    C460     C        0.12390    0.22600    0.22432    1.000
    H831     H        0.12610    0.23050    0.24490    1.000
    H832     H        0.08570    0.22510    0.21850    1.000
    H833     H        0.14220    0.25650    0.21500    1.000
    C461     C        0.14450    0.16880    0.18802    1.000
    H834     H        0.16070    0.13440    0.18190    1.000
    H835     H        0.16260    0.19900    0.17830    1.000
    H836     H        0.10570    0.16900    0.18330    1.000
    C462     C        0.84120    0.48690    0.51856    1.000
    C463     C        0.84340    0.52942    0.54259    1.000
    H837     H        0.81680    0.51960    0.55770    1.000
    C464     C        0.82897    0.58750    0.52998    1.000
    C465     C        0.88320    0.49940    0.49467    1.000
    H838     H        0.88050    0.47150    0.47990    1.000
    H839     H        0.91990    0.49930    0.50260    1.000
    H840     H        0.87530    0.53510    0.48650    1.000
    C466     C        0.78430    0.47450    0.50579    1.000
    H841     H        0.78790    0.44700    0.49090    1.000
    H842     H        0.76900    0.50780    0.49770    1.000
    H843     H        0.76020    0.46090    0.52070    1.000
    C467     C        0.89530    0.47670    0.35118    1.000
    C468     C        0.95170    0.45890    0.33993    1.000
    H844     H        0.94640    0.44340    0.32060    1.000
    C469     C        0.98250    0.41400    0.35869    1.000
    C470     C        0.89960    0.49800    0.38095    1.000
    H845     H        0.86350    0.50870    0.38770    1.000
    H846     H        0.92380    0.52970    0.38130    1.000
    H847     H        0.91440    0.46960    0.39330    1.000
    C471     C        0.84950    0.42980    0.34915    1.000
    H848     H        0.81510    0.44350    0.35670    1.000
    H849     H        0.86110    0.39810    0.36020    1.000
    H850     H        0.84460    0.41920    0.32940    1.000
    C472     C        0.08827    0.19240    0.53819    1.000
    C473     C        0.12440    0.19810    0.56255    1.000
    H851     H        0.12480    0.23770    0.56730    1.000
    C474     C        0.18480    0.18170    0.55741    1.000
    C475     C        0.08230    0.13350    0.53199    1.000
    H852     H        0.07350    0.11400    0.54940    1.000
    H853     H        0.11640    0.11940    0.52420    1.000
    H854     H        0.05310    0.12820    0.51820    1.000
    C476     C        0.10190    0.22280    0.51278    1.000
    H855     H        0.10440    0.26160    0.51730    1.000
    H856     H        0.07360    0.21720    0.49850    1.000
    H857     H        0.13690    0.21020    0.50540    1.000
    C477     C        0.69870    0.54810    0.39856    1.000
    C478     C        0.65040    0.51740    0.40415    1.000
    H858     H        0.61730    0.53820    0.39840    1.000
    C479     C        0.64500    0.49620    0.43596    1.000
    C480     C        0.75120    0.52320    0.40910    1.000
    H859     H        0.78150    0.54800    0.40520    1.000
    H860     H        0.75750    0.48850    0.39940    1.000
    H861     H        0.74860    0.51690    0.42950    1.000
    C481     C        0.69760    0.60430    0.41231    1.000
    H862     H        0.73220    0.62280    0.40890    1.000
    H863     H        0.69190    0.60040    0.43270    1.000
    H864     H        0.66790    0.62570    0.40420    1.000
    C482     C        0.41700    0.46370    0.19824    1.000
    C483     C        0.37321    0.50400    0.19237    1.000
    H865     H        0.35290    0.49370    0.17490    1.000
    C484     C        0.39790    0.56160    0.18918    1.000
    C485     C        0.45370    0.47535    0.22345    1.000
    H866     H        0.48070    0.44630    0.22530    1.000
    H867     H        0.43170    0.47710    0.24070    1.000
    H868     H        0.47220    0.51020    0.22060    1.000
    C486     C        0.45090    0.45410    0.17096    1.000
    H869     H        0.42630    0.44690    0.15510    1.000
    H870     H        0.47500    0.42290    0.17370    1.000
    H871     H        0.47260    0.48650    0.16690    1.000
    C487     C        0.22130    0.36660    0.26817    1.000
    C488     C        0.24080    0.41710    0.28163    1.000
    H872     H        0.27240    0.40690    0.29390    1.000
    C489     C        0.19690    0.44250    0.30130    1.000
    C490     C        0.17390    0.37540    0.24934    1.000
    H873     H        0.18190    0.40490    0.23610    1.000
    H874     H        0.14200    0.38500    0.26070    1.000
    H875     H        0.16640    0.34200    0.23880    1.000
    C491     C        0.21340    0.32350    0.28963    1.000
    H876     H        0.24600    0.32090    0.30150    1.000
    H877     H        0.20710    0.28870    0.28020    1.000
    H878     H        0.18200    0.33250    0.30150    1.000
    C492     C        0.20850    0.35140    0.15073    1.000
    C493     C        0.20150    0.34940    0.11909    1.000
    H879     H        0.23370    0.36800    0.11060    1.000
    C494     C        0.15230    0.38040    0.11024    1.000
    C495     C        0.15670    0.33030    0.16436    1.000
    H880     H        0.16050    0.33130    0.18500    1.000
    H881     H        0.15020    0.29280    0.15830    1.000
    H882     H        0.12600    0.35310    0.15860    1.000
    C496     C        0.22300    0.40510    0.16367    1.000
    H883     H        0.22540    0.40120    0.18420    1.000
    H884     H        0.19510    0.43200    0.15900    1.000
    H885     H        0.25820    0.41730    0.15630    1.000
    C497     C        0.31029    0.12650    0.11191    1.000
    C498     C        0.25280    0.12150    0.10284    1.000
    H886     H        0.23060    0.10510    0.11840    1.000
    C499     C        0.24750    0.08550    0.07484    1.000
    C500     C        0.34780    0.14680    0.09137    1.000
    H887     H        0.33510    0.18210    0.08440    1.000
    H888     H        0.35020    0.12120    0.07560    1.000
    H889     H        0.38370    0.15100    0.10010    1.000
    C501     C        0.32530    0.06990    0.12421    1.000
    H890     H        0.36330    0.07010    0.13040    1.000
    H891     H        0.32030    0.04210    0.10960    1.000
    H892     H        0.30170    0.06180    0.14040    1.000
    O228     O        0.08670    0.33650    0.33498    1.000
    C502     C        0.06080    0.37440    0.31290    1.000
    C503     C        0.03750    0.32890    0.28950    1.000
    H893     H        0.04210    0.29220    0.29720    1.000
    H894     H        0.05780    0.33230    0.27180    1.000
    H895     H        0.99880    0.33570    0.28600    1.000
    O229     O        0.06550    0.41630    0.31440    1.000
    La58     La       0.96764    0.07099    0.20735    1.000
    La59     La       0.84948    0.72075    0.50807    1.000
    O230     O        0.78050    0.67990    0.47163    1.000
    O231     O        0.04270    0.11840    0.24753    1.000
    O232     O        0.05650    0.08500    0.20457    1.000
    H896     H        0.15620    0.09470    0.22790    1.000
    C504     C        0.07260    0.09960    0.22844    1.000
    La60     La       0.93419    0.13863    0.26615    1.000
    La61     La       0.95760    0.04450    0.26078    1.000
    La62     La       0.94560    0.11700    0.23273    1.000
    La63     La       0.22870    0.17160    0.00929    1.000
    La64     La       0.18120    0.14330    0.01581    1.000
