# CIF file generated by openbabel 3.1.0, see https://openbabel.org
data_I
_chemical_name_common 'REWLEM_clean_h'
_cell_length_a 18.5837
_cell_length_b 18.5837
_cell_length_c 53.135
_cell_angle_alpha 90
_cell_angle_beta 90
_cell_angle_gamma 90
_space_group_name_H-M_alt 'P 1'
_space_group_name_Hall 'P 1'
loop_
    _symmetry_equiv_pos_as_xyz
    x,y,z
loop_
    _atom_site_label
    _atom_site_type_symbol
    _atom_site_fract_x
    _atom_site_fract_y
    _atom_site_fract_z
    _atom_site_occupancy
    H1       H        0.27713    0.59836    0.41303    1.000
    N2       N        0.22050    0.55450    0.47303    1.000
    C3       C        0.22230    0.54210    0.44677    1.000
    C4       C        0.21270    0.42840    0.39456    1.000
    C5       C        0.21150    0.43010    0.36745    1.000
    C6       C        0.21780    0.48380    0.32638    1.000
    C7       C        0.22560    0.54940    0.31316    1.000
    H8       H        0.22392    0.60268    0.32378    1.000
    C9       C        0.23540    0.55050    0.28717    1.000
    C10      C        0.23550    0.48710    0.27413    1.000
    H11      H        0.24634    0.48704    0.25301    1.000
    C12      C        0.22260    0.42270    0.28619    1.000
    C13      C        0.21600    0.42110    0.31244    1.000
    H14      H        0.20903    0.36752    0.32260    1.000
    C15      C        0.22320    0.35280    0.27255    1.000
    C16      C        0.24500    0.61930    0.27475    1.000
    O17      O        0.25170    0.35555    0.25007    1.000
    O18      O        0.19560    0.29860    0.28269    1.000
    O19      O        0.22260    0.67480    0.28524    1.000
    O20      O        0.27590    0.61890    0.25311    1.000
    H21      H        0.10057    0.37100    0.41454    1.000
    H22      H        0.13259    0.58885    0.40213    1.000
    H23      H        0.14907    0.59202    0.35497    1.000
    N24      N        0.13620    0.43200    0.47250    1.000
    C25      C        0.18490    0.49250    0.43580    1.000
    C26      C        0.14710    0.43840    0.44640    1.000
    C27      C        0.10400    0.37860    0.43580    1.000
    C28      C        0.07750    0.34510    0.45280    1.000
    C29      C        0.08630    0.36140    0.47560    1.000
    C30      C        0.19460    0.48730    0.40681    1.000
    C31      C        0.16280    0.54340    0.39233    1.000
    C32      C        0.26780    0.61580    0.47730    1.000
    C33      C        0.29240    0.63980    0.45230    1.000
    C34      C        0.26920    0.59890    0.43430    1.000
    C35      C        0.16820    0.54340    0.36621    1.000
    C36      C        0.19530    0.48780    0.35380    1.000
    H37      H        0.22900    0.37703    0.40481    1.000
    H38      H        0.22507    0.37955    0.35626    1.000
    H39      H        0.72287    0.40164    0.41303    1.000
    N40      N        0.77950    0.44550    0.47303    1.000
    C41      C        0.77770    0.45790    0.44677    1.000
    C42      C        0.78730    0.57160    0.39456    1.000
    C43      C        0.78850    0.56990    0.36745    1.000
    C44      C        0.78220    0.51620    0.32638    1.000
    C45      C        0.77440    0.45060    0.31316    1.000
    H46      H        0.77608    0.39732    0.32378    1.000
    C47      C        0.76460    0.44950    0.28717    1.000
    C48      C        0.76450    0.51290    0.27413    1.000
    H49      H        0.75366    0.51296    0.25301    1.000
    C50      C        0.77740    0.57730    0.28619    1.000
    C51      C        0.78400    0.57890    0.31244    1.000
    H52      H        0.79097    0.63248    0.32260    1.000
    C53      C        0.77680    0.64720    0.27255    1.000
    C54      C        0.75500    0.38070    0.27475    1.000
    O55      O        0.74830    0.64445    0.25007    1.000
    O56      O        0.80440    0.70140    0.28269    1.000
    O57      O        0.77740    0.32520    0.28524    1.000
    O58      O        0.72410    0.38110    0.25311    1.000
    H59      H        0.89943    0.62900    0.41454    1.000
    H60      H        0.86741    0.41115    0.40213    1.000
    H61      H        0.85093    0.40798    0.35497    1.000
    N62      N        0.86380    0.56800    0.47250    1.000
    C63      C        0.81510    0.50750    0.43580    1.000
    C64      C        0.85290    0.56160    0.44640    1.000
    C65      C        0.89600    0.62140    0.43580    1.000
    C66      C        0.92250    0.65490    0.45280    1.000
    C67      C        0.91370    0.63860    0.47560    1.000
    C68      C        0.80540    0.51270    0.40681    1.000
    C69      C        0.83720    0.45660    0.39233    1.000
    C70      C        0.73220    0.38420    0.47730    1.000
    C71      C        0.70760    0.36020    0.45230    1.000
    C72      C        0.73080    0.40110    0.43430    1.000
    C73      C        0.83180    0.45660    0.36621    1.000
    C74      C        0.80470    0.51220    0.35380    1.000
    H75      H        0.77100    0.62297    0.40481    1.000
    H76      H        0.77493    0.62045    0.35626    1.000
    H77      H        0.90164    0.77713    0.91303    1.000
    N78      N        0.94550    0.72050    0.97303    1.000
    C79      C        0.95790    0.72230    0.94677    1.000
    C80      C        0.07160    0.71270    0.89456    1.000
    C81      C        0.06990    0.71150    0.86745    1.000
    C82      C        0.01620    0.71780    0.82638    1.000
    C83      C        0.95060    0.72560    0.81316    1.000
    H84      H        0.89732    0.72392    0.82378    1.000
    C85      C        0.94950    0.73540    0.78717    1.000
    C86      C        0.01290    0.73550    0.77413    1.000
    H87      H        0.01296    0.74634    0.75301    1.000
    C88      C        0.07730    0.72260    0.78619    1.000
    C89      C        0.07890    0.71600    0.81244    1.000
    H90      H        0.13248    0.70903    0.82260    1.000
    C91      C        0.14720    0.72320    0.77255    1.000
    C92      C        0.88070    0.74500    0.77475    1.000
    O93      O        0.14445    0.75170    0.75007    1.000
    O94      O        0.20140    0.69560    0.78269    1.000
    O95      O        0.82520    0.72260    0.78524    1.000
    O96      O        0.88110    0.77590    0.75311    1.000
    H97      H        0.12900    0.60057    0.91454    1.000
    H98      H        0.91115    0.63259    0.90213    1.000
    H99      H        0.90798    0.64907    0.85497    1.000
    N100     N        0.06800    0.63620    0.97250    1.000
    C101     C        0.00750    0.68490    0.93580    1.000
    C102     C        0.06160    0.64710    0.94640    1.000
    C103     C        0.12140    0.60400    0.93580    1.000
    C104     C        0.15490    0.57750    0.95280    1.000
    C105     C        0.13860    0.58630    0.97560    1.000
    C106     C        0.01270    0.69460    0.90681    1.000
    C107     C        0.95660    0.66280    0.89233    1.000
    C108     C        0.88420    0.76780    0.97730    1.000
    C109     C        0.86020    0.79240    0.95230    1.000
    C110     C        0.90110    0.76920    0.93430    1.000
    C111     C        0.95660    0.66820    0.86621    1.000
    C112     C        0.01220    0.69530    0.85380    1.000
    H113     H        0.12297    0.72900    0.90481    1.000
    H114     H        0.12045    0.72507    0.85626    1.000
    H115     H        0.09836    0.22287    0.91303    1.000
    N116     N        0.05450    0.27950    0.97303    1.000
    C117     C        0.04210    0.27770    0.94677    1.000
    C118     C        0.92840    0.28730    0.89456    1.000
    C119     C        0.93010    0.28850    0.86745    1.000
    C120     C        0.98380    0.28220    0.82638    1.000
    C121     C        0.04940    0.27440    0.81316    1.000
    H122     H        0.10268    0.27608    0.82378    1.000
    C123     C        0.05050    0.26460    0.78717    1.000
    C124     C        0.98710    0.26450    0.77413    1.000
    H125     H        0.98704    0.25366    0.75301    1.000
    C126     C        0.92270    0.27740    0.78619    1.000
    C127     C        0.92110    0.28400    0.81244    1.000
    H128     H        0.86752    0.29097    0.82260    1.000
    C129     C        0.85280    0.27680    0.77255    1.000
    C130     C        0.11930    0.25500    0.77475    1.000
    O131     O        0.85555    0.24830    0.75007    1.000
    O132     O        0.79860    0.30440    0.78269    1.000
    O133     O        0.17480    0.27740    0.78524    1.000
    O134     O        0.11890    0.22410    0.75311    1.000
    H135     H        0.87100    0.39943    0.91454    1.000
    H136     H        0.08885    0.36741    0.90213    1.000
    H137     H        0.09202    0.35093    0.85497    1.000
    N138     N        0.93200    0.36380    0.97250    1.000
    C139     C        0.99250    0.31510    0.93580    1.000
    C140     C        0.93840    0.35290    0.94640    1.000
    C141     C        0.87860    0.39600    0.93580    1.000
    C142     C        0.84510    0.42250    0.95280    1.000
    C143     C        0.86140    0.41370    0.97560    1.000
    C144     C        0.98730    0.30540    0.90681    1.000
    C145     C        0.04340    0.33720    0.89233    1.000
    C146     C        0.11580    0.23220    0.97730    1.000
    C147     C        0.13980    0.20760    0.95230    1.000
    C148     C        0.09890    0.23080    0.93430    1.000
    C149     C        0.04340    0.33180    0.86621    1.000
    C150     C        0.98780    0.30470    0.85380    1.000
    H151     H        0.87703    0.27100    0.90481    1.000
    H152     H        0.87955    0.27493    0.85626    1.000
    H153     H        0.22287    0.09836    0.08697    1.000
    N154     N        0.27950    0.05450    0.02697    1.000
    C155     C        0.27770    0.04210    0.05323    1.000
    C156     C        0.28730    0.92840    0.10544    1.000
    C157     C        0.28850    0.93010    0.13255    1.000
    C158     C        0.28220    0.98380    0.17362    1.000
    C159     C        0.27440    0.04940    0.18684    1.000
    H160     H        0.27608    0.10268    0.17622    1.000
    C161     C        0.26460    0.05050    0.21283    1.000
    C162     C        0.26450    0.98710    0.22587    1.000
    H163     H        0.25366    0.98704    0.24699    1.000
    C164     C        0.27740    0.92270    0.21381    1.000
    C165     C        0.28400    0.92110    0.18756    1.000
    H166     H        0.29097    0.86752    0.17740    1.000
    C167     C        0.27680    0.85280    0.22745    1.000
    C168     C        0.25500    0.11930    0.22525    1.000
    O169     O        0.24830    0.85555    0.24993    1.000
    O170     O        0.30440    0.79860    0.21731    1.000
    O171     O        0.27740    0.17480    0.21476    1.000
    O172     O        0.22410    0.11890    0.24689    1.000
    H173     H        0.39943    0.87100    0.08546    1.000
    H174     H        0.36741    0.08885    0.09787    1.000
    H175     H        0.35093    0.09202    0.14503    1.000
    N176     N        0.36380    0.93200    0.02750    1.000
    C177     C        0.31510    0.99250    0.06420    1.000
    C178     C        0.35290    0.93840    0.05360    1.000
    C179     C        0.39600    0.87860    0.06420    1.000
    C180     C        0.42250    0.84510    0.04720    1.000
    C181     C        0.41370    0.86140    0.02440    1.000
    C182     C        0.30540    0.98730    0.09319    1.000
    C183     C        0.33720    0.04340    0.10767    1.000
    C184     C        0.23220    0.11580    0.02270    1.000
    C185     C        0.20760    0.13980    0.04770    1.000
    C186     C        0.23080    0.09890    0.06570    1.000
    C187     C        0.33180    0.04340    0.13379    1.000
    C188     C        0.30470    0.98780    0.14620    1.000
    H189     H        0.27100    0.87703    0.09519    1.000
    H190     H        0.27493    0.87955    0.14374    1.000
    H191     H        0.77713    0.90164    0.08697    1.000
    N192     N        0.72050    0.94550    0.02697    1.000
    C193     C        0.72230    0.95790    0.05323    1.000
    C194     C        0.71270    0.07160    0.10544    1.000
    C195     C        0.71150    0.06990    0.13255    1.000
    C196     C        0.71780    0.01620    0.17362    1.000
    C197     C        0.72560    0.95060    0.18684    1.000
    H198     H        0.72392    0.89732    0.17622    1.000
    C199     C        0.73540    0.94950    0.21283    1.000
    C200     C        0.73550    0.01290    0.22587    1.000
    H201     H        0.74634    0.01296    0.24699    1.000
    C202     C        0.72260    0.07730    0.21381    1.000
    C203     C        0.71600    0.07890    0.18756    1.000
    H204     H        0.70903    0.13248    0.17740    1.000
    C205     C        0.72320    0.14720    0.22745    1.000
    C206     C        0.74500    0.88070    0.22525    1.000
    O207     O        0.75170    0.14445    0.24993    1.000
    O208     O        0.69560    0.20140    0.21731    1.000
    O209     O        0.72260    0.82520    0.21476    1.000
    O210     O        0.77590    0.88110    0.24689    1.000
    H211     H        0.60057    0.12900    0.08546    1.000
    H212     H        0.63259    0.91115    0.09787    1.000
    H213     H        0.64907    0.90798    0.14503    1.000
    N214     N        0.63620    0.06800    0.02750    1.000
    C215     C        0.68490    0.00750    0.06420    1.000
    C216     C        0.64710    0.06160    0.05360    1.000
    C217     C        0.60400    0.12140    0.06420    1.000
    C218     C        0.57750    0.15490    0.04720    1.000
    C219     C        0.58630    0.13860    0.02440    1.000
    C220     C        0.69460    0.01270    0.09319    1.000
    C221     C        0.66280    0.95660    0.10767    1.000
    C222     C        0.76780    0.88420    0.02270    1.000
    C223     C        0.79240    0.86020    0.04770    1.000
    C224     C        0.76920    0.90110    0.06570    1.000
    C225     C        0.66820    0.95660    0.13379    1.000
    C226     C        0.69530    0.01220    0.14620    1.000
    H227     H        0.72900    0.12297    0.09519    1.000
    H228     H        0.72507    0.12045    0.14374    1.000
    H229     H        0.59836    0.27713    0.58697    1.000
    N230     N        0.55450    0.22050    0.52697    1.000
    C231     C        0.54210    0.22230    0.55323    1.000
    C232     C        0.42840    0.21270    0.60544    1.000
    C233     C        0.43010    0.21150    0.63255    1.000
    C234     C        0.48380    0.21780    0.67362    1.000
    C235     C        0.54940    0.22560    0.68684    1.000
    H236     H        0.60268    0.22392    0.67622    1.000
    C237     C        0.55050    0.23540    0.71283    1.000
    C238     C        0.48710    0.23550    0.72587    1.000
    H239     H        0.48704    0.24634    0.74699    1.000
    C240     C        0.42270    0.22260    0.71381    1.000
    C241     C        0.42110    0.21600    0.68756    1.000
    H242     H        0.36752    0.20903    0.67740    1.000
    C243     C        0.35280    0.22320    0.72745    1.000
    C244     C        0.61930    0.24500    0.72525    1.000
    O245     O        0.35555    0.25170    0.74993    1.000
    O246     O        0.29860    0.19560    0.71731    1.000
    O247     O        0.67480    0.22260    0.71476    1.000
    O248     O        0.61890    0.27590    0.74689    1.000
    H249     H        0.37100    0.10057    0.58546    1.000
    H250     H        0.58885    0.13259    0.59787    1.000
    H251     H        0.59202    0.14907    0.64503    1.000
    N252     N        0.43200    0.13620    0.52750    1.000
    C253     C        0.49250    0.18490    0.56420    1.000
    C254     C        0.43840    0.14710    0.55360    1.000
    C255     C        0.37860    0.10400    0.56420    1.000
    C256     C        0.34510    0.07750    0.54720    1.000
    C257     C        0.36140    0.08630    0.52440    1.000
    C258     C        0.48730    0.19460    0.59319    1.000
    C259     C        0.54340    0.16280    0.60767    1.000
    C260     C        0.61580    0.26780    0.52270    1.000
    C261     C        0.63980    0.29240    0.54770    1.000
    C262     C        0.59890    0.26920    0.56570    1.000
    C263     C        0.54340    0.16820    0.63379    1.000
    C264     C        0.48780    0.19530    0.64620    1.000
    H265     H        0.37703    0.22900    0.59519    1.000
    H266     H        0.37955    0.22507    0.64374    1.000
    H267     H        0.40164    0.72287    0.58697    1.000
    N268     N        0.44550    0.77950    0.52697    1.000
    C269     C        0.45790    0.77770    0.55323    1.000
    C270     C        0.57160    0.78730    0.60544    1.000
    C271     C        0.56990    0.78850    0.63255    1.000
    C272     C        0.51620    0.78220    0.67362    1.000
    C273     C        0.45060    0.77440    0.68684    1.000
    H274     H        0.39732    0.77608    0.67622    1.000
    C275     C        0.44950    0.76460    0.71283    1.000
    C276     C        0.51290    0.76450    0.72587    1.000
    H277     H        0.51296    0.75366    0.74699    1.000
    C278     C        0.57730    0.77740    0.71381    1.000
    C279     C        0.57890    0.78400    0.68756    1.000
    H280     H        0.63248    0.79097    0.67740    1.000
    C281     C        0.64720    0.77680    0.72745    1.000
    C282     C        0.38070    0.75500    0.72525    1.000
    O283     O        0.64445    0.74830    0.74993    1.000
    O284     O        0.70140    0.80440    0.71731    1.000
    O285     O        0.32520    0.77740    0.71476    1.000
    O286     O        0.38110    0.72410    0.74689    1.000
    H287     H        0.62900    0.89943    0.58546    1.000
    H288     H        0.41115    0.86741    0.59787    1.000
    H289     H        0.40798    0.85093    0.64503    1.000
    N290     N        0.56800    0.86380    0.52750    1.000
    C291     C        0.50750    0.81510    0.56420    1.000
    C292     C        0.56160    0.85290    0.55360    1.000
    C293     C        0.62140    0.89600    0.56420    1.000
    C294     C        0.65490    0.92250    0.54720    1.000
    C295     C        0.63860    0.91370    0.52440    1.000
    C296     C        0.51270    0.80540    0.59319    1.000
    C297     C        0.45660    0.83720    0.60767    1.000
    C298     C        0.38420    0.73220    0.52270    1.000
    C299     C        0.36020    0.70760    0.54770    1.000
    C300     C        0.40110    0.73080    0.56570    1.000
    C301     C        0.45660    0.83180    0.63379    1.000
    C302     C        0.51220    0.80470    0.64620    1.000
    H303     H        0.62297    0.77100    0.59519    1.000
    H304     H        0.62045    0.77493    0.64374    1.000
    H305     H        0.72287    0.40164    0.58697    1.000
    N306     N        0.77950    0.44550    0.52697    1.000
    C307     C        0.77770    0.45790    0.55323    1.000
    C308     C        0.78730    0.57160    0.60544    1.000
    C309     C        0.78850    0.56990    0.63255    1.000
    C310     C        0.78220    0.51620    0.67362    1.000
    C311     C        0.77440    0.45060    0.68684    1.000
    H312     H        0.77608    0.39732    0.67622    1.000
    C313     C        0.76460    0.44950    0.71283    1.000
    C314     C        0.76450    0.51290    0.72587    1.000
    H315     H        0.75366    0.51296    0.74699    1.000
    C316     C        0.77740    0.57730    0.71381    1.000
    C317     C        0.78400    0.57890    0.68756    1.000
    H318     H        0.79097    0.63248    0.67740    1.000
    C319     C        0.77680    0.64720    0.72745    1.000
    C320     C        0.75500    0.38070    0.72525    1.000
    O321     O        0.74830    0.64445    0.74993    1.000
    O322     O        0.80440    0.70140    0.71731    1.000
    O323     O        0.77740    0.32520    0.71476    1.000
    O324     O        0.72410    0.38110    0.74689    1.000
    H325     H        0.89943    0.62900    0.58546    1.000
    H326     H        0.86741    0.41115    0.59787    1.000
    H327     H        0.85093    0.40798    0.64503    1.000
    N328     N        0.86380    0.56800    0.52750    1.000
    C329     C        0.81510    0.50750    0.56420    1.000
    C330     C        0.85290    0.56160    0.55360    1.000
    C331     C        0.89600    0.62140    0.56420    1.000
    C332     C        0.92250    0.65490    0.54720    1.000
    C333     C        0.91370    0.63860    0.52440    1.000
    C334     C        0.80540    0.51270    0.59319    1.000
    C335     C        0.83720    0.45660    0.60767    1.000
    C336     C        0.73220    0.38420    0.52270    1.000
    C337     C        0.70760    0.36020    0.54770    1.000
    C338     C        0.73080    0.40110    0.56570    1.000
    C339     C        0.83180    0.45660    0.63379    1.000
    C340     C        0.80470    0.51220    0.64620    1.000
    H341     H        0.77100    0.62297    0.59519    1.000
    H342     H        0.77493    0.62045    0.64374    1.000
    H343     H        0.27713    0.59836    0.58697    1.000
    N344     N        0.22050    0.55450    0.52697    1.000
    C345     C        0.22230    0.54210    0.55323    1.000
    C346     C        0.21270    0.42840    0.60544    1.000
    C347     C        0.21150    0.43010    0.63255    1.000
    C348     C        0.21780    0.48380    0.67362    1.000
    C349     C        0.22560    0.54940    0.68684    1.000
    H350     H        0.22392    0.60268    0.67622    1.000
    C351     C        0.23540    0.55050    0.71283    1.000
    C352     C        0.23550    0.48710    0.72587    1.000
    H353     H        0.24634    0.48704    0.74699    1.000
    C354     C        0.22260    0.42270    0.71381    1.000
    C355     C        0.21600    0.42110    0.68756    1.000
    H356     H        0.20903    0.36752    0.67740    1.000
    C357     C        0.22320    0.35280    0.72745    1.000
    C358     C        0.24500    0.61930    0.72525    1.000
    O359     O        0.25170    0.35555    0.74993    1.000
    O360     O        0.19560    0.29860    0.71731    1.000
    O361     O        0.22260    0.67480    0.71476    1.000
    O362     O        0.27590    0.61890    0.74689    1.000
    H363     H        0.10057    0.37100    0.58546    1.000
    H364     H        0.13259    0.58885    0.59787    1.000
    H365     H        0.14907    0.59202    0.64503    1.000
    N366     N        0.13620    0.43200    0.52750    1.000
    C367     C        0.18490    0.49250    0.56420    1.000
    C368     C        0.14710    0.43840    0.55360    1.000
    C369     C        0.10400    0.37860    0.56420    1.000
    C370     C        0.07750    0.34510    0.54720    1.000
    C371     C        0.08630    0.36140    0.52440    1.000
    C372     C        0.19460    0.48730    0.59319    1.000
    C373     C        0.16280    0.54340    0.60767    1.000
    C374     C        0.26780    0.61580    0.52270    1.000
    C375     C        0.29240    0.63980    0.54770    1.000
    C376     C        0.26920    0.59890    0.56570    1.000
    C377     C        0.16820    0.54340    0.63379    1.000
    C378     C        0.19530    0.48780    0.64620    1.000
    H379     H        0.22900    0.37703    0.59519    1.000
    H380     H        0.22507    0.37955    0.64374    1.000
    H381     H        0.09836    0.22287    0.08697    1.000
    N382     N        0.05450    0.27950    0.02697    1.000
    C383     C        0.04210    0.27770    0.05323    1.000
    C384     C        0.92840    0.28730    0.10544    1.000
    C385     C        0.93010    0.28850    0.13255    1.000
    C386     C        0.98380    0.28220    0.17362    1.000
    C387     C        0.04940    0.27440    0.18684    1.000
    H388     H        0.10268    0.27608    0.17622    1.000
    C389     C        0.05050    0.26460    0.21283    1.000
    C390     C        0.98710    0.26450    0.22587    1.000
    H391     H        0.98704    0.25366    0.24699    1.000
    C392     C        0.92270    0.27740    0.21381    1.000
    C393     C        0.92110    0.28400    0.18756    1.000
    H394     H        0.86752    0.29097    0.17740    1.000
    C395     C        0.85280    0.27680    0.22745    1.000
    C396     C        0.11930    0.25500    0.22525    1.000
    O397     O        0.85555    0.24830    0.24993    1.000
    O398     O        0.79860    0.30440    0.21731    1.000
    O399     O        0.17480    0.27740    0.21476    1.000
    O400     O        0.11890    0.22410    0.24689    1.000
    H401     H        0.87100    0.39943    0.08546    1.000
    H402     H        0.08885    0.36741    0.09787    1.000
    H403     H        0.09202    0.35093    0.14503    1.000
    N404     N        0.93200    0.36380    0.02750    1.000
    C405     C        0.99250    0.31510    0.06420    1.000
    C406     C        0.93840    0.35290    0.05360    1.000
    C407     C        0.87860    0.39600    0.06420    1.000
    C408     C        0.84510    0.42250    0.04720    1.000
    C409     C        0.86140    0.41370    0.02440    1.000
    C410     C        0.98730    0.30540    0.09319    1.000
    C411     C        0.04340    0.33720    0.10767    1.000
    C412     C        0.11580    0.23220    0.02270    1.000
    C413     C        0.13980    0.20760    0.04770    1.000
    C414     C        0.09890    0.23080    0.06570    1.000
    C415     C        0.04340    0.33180    0.13379    1.000
    C416     C        0.98780    0.30470    0.14620    1.000
    H417     H        0.87703    0.27100    0.09519    1.000
    H418     H        0.87955    0.27493    0.14374    1.000
    H419     H        0.90164    0.77713    0.08697    1.000
    N420     N        0.94550    0.72050    0.02697    1.000
    C421     C        0.95790    0.72230    0.05323    1.000
    C422     C        0.07160    0.71270    0.10544    1.000
    C423     C        0.06990    0.71150    0.13255    1.000
    C424     C        0.01620    0.71780    0.17362    1.000
    C425     C        0.95060    0.72560    0.18684    1.000
    H426     H        0.89732    0.72392    0.17622    1.000
    C427     C        0.94950    0.73540    0.21283    1.000
    C428     C        0.01290    0.73550    0.22587    1.000
    H429     H        0.01296    0.74634    0.24699    1.000
    C430     C        0.07730    0.72260    0.21381    1.000
    C431     C        0.07890    0.71600    0.18756    1.000
    H432     H        0.13248    0.70903    0.17740    1.000
    C433     C        0.14720    0.72320    0.22745    1.000
    C434     C        0.88070    0.74500    0.22525    1.000
    O435     O        0.14445    0.75170    0.24993    1.000
    O436     O        0.20140    0.69560    0.21731    1.000
    O437     O        0.82520    0.72260    0.21476    1.000
    O438     O        0.88110    0.77590    0.24689    1.000
    H439     H        0.12900    0.60057    0.08546    1.000
    H440     H        0.91115    0.63259    0.09787    1.000
    H441     H        0.90798    0.64907    0.14503    1.000
    N442     N        0.06800    0.63620    0.02750    1.000
    C443     C        0.00750    0.68490    0.06420    1.000
    C444     C        0.06160    0.64710    0.05360    1.000
    C445     C        0.12140    0.60400    0.06420    1.000
    C446     C        0.15490    0.57750    0.04720    1.000
    C447     C        0.13860    0.58630    0.02440    1.000
    C448     C        0.01270    0.69460    0.09319    1.000
    C449     C        0.95660    0.66280    0.10767    1.000
    C450     C        0.88420    0.76780    0.02270    1.000
    C451     C        0.86020    0.79240    0.04770    1.000
    C452     C        0.90110    0.76920    0.06570    1.000
    C453     C        0.95660    0.66820    0.13379    1.000
    C454     C        0.01220    0.69530    0.14620    1.000
    H455     H        0.12297    0.72900    0.09519    1.000
    H456     H        0.12045    0.72507    0.14374    1.000
    H457     H        0.77713    0.90164    0.91303    1.000
    N458     N        0.72050    0.94550    0.97303    1.000
    C459     C        0.72230    0.95790    0.94677    1.000
    C460     C        0.71270    0.07160    0.89456    1.000
    C461     C        0.71150    0.06990    0.86745    1.000
    C462     C        0.71780    0.01620    0.82638    1.000
    C463     C        0.72560    0.95060    0.81316    1.000
    H464     H        0.72392    0.89732    0.82378    1.000
    C465     C        0.73540    0.94950    0.78717    1.000
    C466     C        0.73550    0.01290    0.77413    1.000
    H467     H        0.74634    0.01296    0.75301    1.000
    C468     C        0.72260    0.07730    0.78619    1.000
    C469     C        0.71600    0.07890    0.81244    1.000
    H470     H        0.70903    0.13248    0.82260    1.000
    C471     C        0.72320    0.14720    0.77255    1.000
    C472     C        0.74500    0.88070    0.77475    1.000
    O473     O        0.75170    0.14445    0.75007    1.000
    O474     O        0.69560    0.20140    0.78269    1.000
    O475     O        0.72260    0.82520    0.78524    1.000
    O476     O        0.77590    0.88110    0.75311    1.000
    H477     H        0.60057    0.12900    0.91454    1.000
    H478     H        0.63259    0.91115    0.90213    1.000
    H479     H        0.64907    0.90798    0.85497    1.000
    N480     N        0.63620    0.06800    0.97250    1.000
    C481     C        0.68490    0.00750    0.93580    1.000
    C482     C        0.64710    0.06160    0.94640    1.000
    C483     C        0.60400    0.12140    0.93580    1.000
    C484     C        0.57750    0.15490    0.95280    1.000
    C485     C        0.58630    0.13860    0.97560    1.000
    C486     C        0.69460    0.01270    0.90681    1.000
    C487     C        0.66280    0.95660    0.89233    1.000
    C488     C        0.76780    0.88420    0.97730    1.000
    C489     C        0.79240    0.86020    0.95230    1.000
    C490     C        0.76920    0.90110    0.93430    1.000
    C491     C        0.66820    0.95660    0.86621    1.000
    C492     C        0.69530    0.01220    0.85380    1.000
    H493     H        0.72900    0.12297    0.90481    1.000
    H494     H        0.72507    0.12045    0.85626    1.000
    H495     H        0.22287    0.09836    0.91303    1.000
    N496     N        0.27950    0.05450    0.97303    1.000
    C497     C        0.27770    0.04210    0.94677    1.000
    C498     C        0.28730    0.92840    0.89456    1.000
    C499     C        0.28850    0.93010    0.86745    1.000
    C500     C        0.28220    0.98380    0.82638    1.000
    C501     C        0.27440    0.04940    0.81316    1.000
    H502     H        0.27608    0.10268    0.82378    1.000
    C503     C        0.26460    0.05050    0.78717    1.000
    C504     C        0.26450    0.98710    0.77413    1.000
    H505     H        0.25366    0.98704    0.75301    1.000
    C506     C        0.27740    0.92270    0.78619    1.000
    C507     C        0.28400    0.92110    0.81244    1.000
    H508     H        0.29097    0.86752    0.82260    1.000
    C509     C        0.27680    0.85280    0.77255    1.000
    C510     C        0.25500    0.11930    0.77475    1.000
    O511     O        0.24830    0.85555    0.75007    1.000
    O512     O        0.30440    0.79860    0.78269    1.000
    O513     O        0.27740    0.17480    0.78524    1.000
    O514     O        0.22410    0.11890    0.75311    1.000
    H515     H        0.39943    0.87100    0.91454    1.000
    H516     H        0.36741    0.08885    0.90213    1.000
    H517     H        0.35093    0.09202    0.85497    1.000
    N518     N        0.36380    0.93200    0.97250    1.000
    C519     C        0.31510    0.99250    0.93580    1.000
    C520     C        0.35290    0.93840    0.94640    1.000
    C521     C        0.39600    0.87860    0.93580    1.000
    C522     C        0.42250    0.84510    0.95280    1.000
    C523     C        0.41370    0.86140    0.97560    1.000
    C524     C        0.30540    0.98730    0.90681    1.000
    C525     C        0.33720    0.04340    0.89233    1.000
    C526     C        0.23220    0.11580    0.97730    1.000
    C527     C        0.20760    0.13980    0.95230    1.000
    C528     C        0.23080    0.09890    0.93430    1.000
    C529     C        0.33180    0.04340    0.86621    1.000
    C530     C        0.30470    0.98780    0.85380    1.000
    H531     H        0.27100    0.87703    0.90481    1.000
    H532     H        0.27493    0.87955    0.85626    1.000
    H533     H        0.40164    0.72287    0.41303    1.000
    N534     N        0.44550    0.77950    0.47303    1.000
    C535     C        0.45790    0.77770    0.44677    1.000
    C536     C        0.57160    0.78730    0.39456    1.000
    C537     C        0.56990    0.78850    0.36745    1.000
    C538     C        0.51620    0.78220    0.32638    1.000
    C539     C        0.45060    0.77440    0.31316    1.000
    H540     H        0.39732    0.77608    0.32378    1.000
    C541     C        0.44950    0.76460    0.28717    1.000
    C542     C        0.51290    0.76450    0.27413    1.000
    H543     H        0.51296    0.75366    0.25301    1.000
    C544     C        0.57730    0.77740    0.28619    1.000
    C545     C        0.57890    0.78400    0.31244    1.000
    H546     H        0.63248    0.79097    0.32260    1.000
    C547     C        0.64720    0.77680    0.27255    1.000
    C548     C        0.38070    0.75500    0.27475    1.000
    O549     O        0.64445    0.74830    0.25007    1.000
    O550     O        0.70140    0.80440    0.28269    1.000
    O551     O        0.32520    0.77740    0.28524    1.000
    O552     O        0.38110    0.72410    0.25311    1.000
    H553     H        0.62900    0.89943    0.41454    1.000
    H554     H        0.41115    0.86741    0.40213    1.000
    H555     H        0.40798    0.85093    0.35497    1.000
    N556     N        0.56800    0.86380    0.47250    1.000
    C557     C        0.50750    0.81510    0.43580    1.000
    C558     C        0.56160    0.85290    0.44640    1.000
    C559     C        0.62140    0.89600    0.43580    1.000
    C560     C        0.65490    0.92250    0.45280    1.000
    C561     C        0.63860    0.91370    0.47560    1.000
    C562     C        0.51270    0.80540    0.40681    1.000
    C563     C        0.45660    0.83720    0.39233    1.000
    C564     C        0.38420    0.73220    0.47730    1.000
    C565     C        0.36020    0.70760    0.45230    1.000
    C566     C        0.40110    0.73080    0.43430    1.000
    C567     C        0.45660    0.83180    0.36621    1.000
    C568     C        0.51220    0.80470    0.35380    1.000
    H569     H        0.62297    0.77100    0.40481    1.000
    H570     H        0.62045    0.77493    0.35626    1.000
    H571     H        0.59836    0.27713    0.41303    1.000
    N572     N        0.55450    0.22050    0.47303    1.000
    C573     C        0.54210    0.22230    0.44677    1.000
    C574     C        0.42840    0.21270    0.39456    1.000
    C575     C        0.43010    0.21150    0.36745    1.000
    C576     C        0.48380    0.21780    0.32638    1.000
    C577     C        0.54940    0.22560    0.31316    1.000
    H578     H        0.60268    0.22392    0.32378    1.000
    C579     C        0.55050    0.23540    0.28717    1.000
    C580     C        0.48710    0.23550    0.27413    1.000
    H581     H        0.48704    0.24634    0.25301    1.000
    C582     C        0.42270    0.22260    0.28619    1.000
    C583     C        0.42110    0.21600    0.31244    1.000
    H584     H        0.36752    0.20903    0.32260    1.000
    C585     C        0.35280    0.22320    0.27255    1.000
    C586     C        0.61930    0.24500    0.27475    1.000
    O587     O        0.35555    0.25170    0.25007    1.000
    O588     O        0.29860    0.19560    0.28269    1.000
    O589     O        0.67480    0.22260    0.28524    1.000
    O590     O        0.61890    0.27590    0.25311    1.000
    H591     H        0.37100    0.10057    0.41454    1.000
    H592     H        0.58885    0.13259    0.40213    1.000
    H593     H        0.59202    0.14907    0.35497    1.000
    N594     N        0.43200    0.13620    0.47250    1.000
    C595     C        0.49250    0.18490    0.43580    1.000
    C596     C        0.43840    0.14710    0.44640    1.000
    C597     C        0.37860    0.10400    0.43580    1.000
    C598     C        0.34510    0.07750    0.45280    1.000
    C599     C        0.36140    0.08630    0.47560    1.000
    C600     C        0.48730    0.19460    0.40681    1.000
    C601     C        0.54340    0.16280    0.39233    1.000
    C602     C        0.61580    0.26780    0.47730    1.000
    C603     C        0.63980    0.29240    0.45230    1.000
    C604     C        0.59890    0.26920    0.43430    1.000
    C605     C        0.54340    0.16820    0.36621    1.000
    C606     C        0.48780    0.19530    0.35380    1.000
    H607     H        0.37703    0.22900    0.40481    1.000
    H608     H        0.37955    0.22507    0.35626    1.000
    Cu609    Cu       0.27029    0.27029    0.22959    1.000
    Cu610    Cu       0.20378    0.20378    0.26725    1.000
    Cu611    Cu       0.72971    0.72971    0.22959    1.000
    Cu612    Cu       0.79622    0.79622    0.26725    1.000
    Cu613    Cu       0.22971    0.77029    0.72959    1.000
    Cu614    Cu       0.29622    0.70378    0.76725    1.000
    Cu615    Cu       0.77029    0.22971    0.72959    1.000
    Cu616    Cu       0.70378    0.29622    0.76725    1.000
    Cu617    Cu       0.22971    0.77029    0.27041    1.000
    Cu618    Cu       0.29622    0.70378    0.23275    1.000
    Cu619    Cu       0.77029    0.22971    0.27041    1.000
    Cu620    Cu       0.70378    0.29622    0.23275    1.000
    Cu621    Cu       0.27029    0.27029    0.77041    1.000
    Cu622    Cu       0.20378    0.20378    0.73275    1.000
    Cu623    Cu       0.72971    0.72971    0.77041    1.000
    Cu624    Cu       0.79622    0.79622    0.73275    1.000
    Zn625    Zn       0.17136    0.50213    0.50000    1.000
    C626     C        0.07110    0.34660    0.50000    1.000
    C627     C        0.28880    0.64380    0.50000    1.000
    Zn628    Zn       0.82864    0.49787    0.50000    1.000
    C629     C        0.92890    0.65340    0.50000    1.000
    C630     C        0.71120    0.35620    0.50000    1.000
    Zn631    Zn       0.99787    0.67136    0.00000    1.000
    C632     C        0.15340    0.57110    0.00000    1.000
    C633     C        0.85620    0.78880    0.00000    1.000
    Zn634    Zn       0.00213    0.32864    0.00000    1.000
    C635     C        0.84660    0.42890    0.00000    1.000
    C636     C        0.14380    0.21120    0.00000    1.000
    Zn637    Zn       0.32864    0.00213    0.00000    1.000
    C638     C        0.42890    0.84660    0.00000    1.000
    C639     C        0.21120    0.14380    0.00000    1.000
    Zn640    Zn       0.67136    0.99787    0.00000    1.000
    C641     C        0.57110    0.15340    0.00000    1.000
    C642     C        0.78880    0.85620    0.00000    1.000
    Zn643    Zn       0.50213    0.17136    0.50000    1.000
    C644     C        0.34660    0.07110    0.50000    1.000
    C645     C        0.64380    0.28880    0.50000    1.000
    Zn646    Zn       0.49787    0.82864    0.50000    1.000
    C647     C        0.65340    0.92890    0.50000    1.000
    C648     C        0.35620    0.71120    0.50000    1.000
