data_functionalizedCrystal
_audit_creation_method	'EQeq! by Chris Wilmer'
_symmetry_space_group_name_H-M	'P1'
_symmetry_Int_Tables_number	1
_symmetry_cell_setting	triclinic
loop_
_symmetry_equiv_pos_as_xyz
  x,y,z
_cell_length_a	8.6194
_cell_length_b	21.695
_cell_length_c	13.3534
_cell_angle_alpha	90
_cell_angle_beta	108.238
_cell_angle_gamma	90
loop_
_atom_site_label
_atom_site_type_symbol
_atom_site_fract_x
_atom_site_fract_y
_atom_site_fract_z
_atom_site_charge
Mof_Ag	Ag	0.78561	0.528	0.47393	0.605
Mof_Ag	Ag	0.47713	0.55414	0.69872	0.568
Mof_Ag	Ag	0.38729	0.53665	0.41144	0.341
Mof_Ag	Ag	0.902	0.53137	0.71179	0.307
Mof_Ag	Ag	0.86337	0.67453	0.8601	0.834
Mof_N 	N 	0.6916	0.71539	0.6983	-0.136
Mof_N 	N 	0.5051	0.77472	0.5123	-0.138
Mof_C 	C 	0.6554	0.56259	0.5934	-0.44
Mof_C 	C 	0.6436	0.61821	0.605	0.082
Mof_C 	C 	0.6245	0.68433	0.6069	0.055
Mof_C 	C 	0.6609	0.7758	0.694	0.096
Mof_H 	H 	0.7034	0.7991	0.7549	0.069
Mof_C 	C 	0.5692	0.80502	0.6033	0.098
Mof_H 	H 	0.5511	0.8472	0.6053	0.035
Mof_C 	C 	0.5336	0.71404	0.5147	0.098
Mof_H 	H 	0.4918	0.6911	0.4533	0.057
Mof_O 	O 	0.6784	0.56475	0.301	-0.265
Mof_O 	O 	0.4578	0.61247	0.3184	-0.24
Mof_C 	C 	0.5739	0.60673	0.2836	0.143
Mof_C 	C 	0.5864	0.6588	0.2077	0.864
Mof_F 	F 	0.4498	0.6629	0.1277	-0.688
Mof_F 	F 	0.694	0.6512	0.164	-0.425
Mof_F 	F 	0.596	0.7139	0.2514	-0.231
Mof_O 	O 	0.2617	0.61715	0.4723	-0.226
Mof_O 	O 	0.0532	0.56327	0.4897	-0.311
Mof_C 	C 	0.1254	0.61177	0.4814	0.063
Mof_C 	C 	0.0366	0.6727	0.4839	1.159
Mof_F 	F 	0.8811	0.6664	0.4503	-0.264
Mof_F 	F 	0.075	0.7163	0.432	-0.258
Mof_F 	F 	0.083	0.6931	0.581	-0.271
Mof_O 	O 	0.2462	0.57371	0.7295	-0.295
Mof_O 	O 	0.0618	0.62129	0.7855	-0.289
Mof_C 	C 	0.2007	0.6148	0.7795	0.2
Mof_C 	C 	0.3308	0.6612	0.8387	0.82
Mof_F 	F 	0.3783	0.6952	0.7707	-0.417
Mof_F 	F 	0.463	0.6339	0.8998	-0.481
Mof_F 	F 	0.2814	0.69907	0.8995	-0.387
Mof_Ag	Ag	0.089	0.4519	0.2963	0.122
Mof_F 	F 	0.737	0.6633	0.203	-0.054
Mof_F 	F 	0.561	0.7118	0.2485	-0.138
Mof_F 	F 	0.489	0.6522	0.1174	0.268
Mof_F 	F 	0.1201	0.7133	0.538	-0.296
Mof_F 	F 	0.91	0.6698	0.509	-0.342
Mof_F 	F 	0.998	0.6967	0.3909	-0.296
Mof_Ag	Ag	0.71439	0.028	0.02607	0.602
Mof_Ag	Ag	0.02287	0.05414	0.80128	0.579
Mof_Ag	Ag	0.11271	0.03665	0.08856	0.339
Mof_Ag	Ag	0.598	0.03137	0.78821	0.308
Mof_Ag	Ag	0.63663	0.17453	0.6399	0.833
Mof_N 	N 	0.8084	0.21539	0.8017	-0.135
Mof_N 	N 	0.9949	0.27472	0.9877	-0.138
Mof_C 	C 	0.8446	0.06259	0.9066	-0.438
Mof_C 	C 	0.8564	0.11821	0.895	0.08
Mof_C 	C 	0.8755	0.18433	0.8931	0.055
Mof_C 	C 	0.8391	0.2758	0.806	0.096
Mof_H 	H 	0.7966	0.2991	0.7451	0.069
Mof_C 	C 	0.9308	0.30502	0.8967	0.098
Mof_H 	H 	0.9489	0.3472	0.8947	0.034
Mof_C 	C 	0.9664	0.21404	0.9853	0.097
Mof_H 	H 	0.0082	0.1911	0.0467	0.057
Mof_O 	O 	0.8216	0.06475	0.199	-0.265
Mof_O 	O 	0.0422	0.11247	0.1816	-0.239
Mof_C 	C 	0.9261	0.10673	0.2164	0.141
Mof_C 	C 	0.9136	0.1588	0.2923	0.864
Mof_F 	F 	0.0502	0.1629	0.3723	-0.679
Mof_F 	F 	0.806	0.1512	0.336	-0.425
Mof_F 	F 	0.904	0.2139	0.2486	-0.232
Mof_O 	O 	0.2383	0.11715	0.0277	-0.227
Mof_O 	O 	0.4468	0.06327	0.0103	-0.312
Mof_C 	C 	0.3746	0.11177	0.0186	0.063
Mof_C 	C 	0.4634	0.1727	0.0161	1.158
Mof_F 	F 	0.6189	0.1664	0.0497	-0.267
Mof_F 	F 	0.425	0.2163	0.068	-0.256
Mof_F 	F 	0.417	0.1931	0.919	-0.27
Mof_O 	O 	0.2538	0.07371	0.7705	-0.295
Mof_O 	O 	0.4382	0.12129	0.7145	-0.289
Mof_C 	C 	0.2993	0.1148	0.7205	0.201
Mof_C 	C 	0.1692	0.1612	0.6613	0.819
Mof_F 	F 	0.1217	0.1952	0.7293	-0.416
Mof_F 	F 	0.037	0.1339	0.6002	-0.479
Mof_F 	F 	0.2186	0.19907	0.6005	-0.387
Mof_Ag	Ag	0.411	0.9519	0.2037	0.125
Mof_F 	F 	0.763	0.1633	0.297	-0.055
Mof_F 	F 	0.939	0.2118	0.2515	-0.138
Mof_F 	F 	0.011	0.1522	0.3826	0.259
Mof_F 	F 	0.3799	0.2133	0.962	-0.295
Mof_F 	F 	0.59	0.1698	0.991	-0.34
Mof_F 	F 	0.502	0.1967	0.1091	-0.299
Mof_Ag	Ag	0.21439	0.472	0.52607	0.606
Mof_Ag	Ag	0.52287	0.44586	0.30128	0.569
Mof_Ag	Ag	0.61271	0.46335	0.58856	0.342
Mof_Ag	Ag	0.098	0.46863	0.28821	0.308
Mof_Ag	Ag	0.13663	0.32547	0.1399	0.835
Mof_N 	N 	0.3084	0.28461	0.3017	-0.135
Mof_N 	N 	0.4949	0.22528	0.4877	-0.138
Mof_C 	C 	0.3446	0.43741	0.4066	-0.44
Mof_C 	C 	0.3564	0.38179	0.395	0.082
Mof_C 	C 	0.3755	0.31567	0.3931	0.055
Mof_C 	C 	0.3391	0.2242	0.306	0.096
Mof_H 	H 	0.2966	0.2009	0.2451	0.069
Mof_C 	C 	0.4308	0.19498	0.3967	0.098
Mof_H 	H 	0.4489	0.1528	0.3947	0.035
Mof_C 	C 	0.4664	0.28596	0.4853	0.098
Mof_H 	H 	0.5082	0.3089	0.5467	0.057
Mof_O 	O 	0.3216	0.43525	0.699	-0.265
Mof_O 	O 	0.5422	0.38753	0.6816	-0.24
Mof_C 	C 	0.4261	0.39327	0.7164	0.143
Mof_C 	C 	0.4136	0.3412	0.7923	0.864
Mof_F 	F 	0.5502	0.3371	0.8723	-0.688
Mof_F 	F 	0.306	0.3488	0.836	-0.425
Mof_F 	F 	0.404	0.2861	0.7486	-0.231
Mof_O 	O 	0.7383	0.38285	0.5277	-0.226
Mof_O 	O 	0.9468	0.43673	0.5103	-0.311
Mof_C 	C 	0.8746	0.38823	0.5186	0.063
Mof_C 	C 	0.9634	0.3273	0.5161	1.159
Mof_F 	F 	0.1189	0.3336	0.5497	-0.264
Mof_F 	F 	0.925	0.2837	0.568	-0.258
Mof_F 	F 	0.917	0.3069	0.419	-0.271
Mof_O 	O 	0.7538	0.42629	0.2705	-0.295
Mof_O 	O 	0.9382	0.37871	0.2145	-0.289
Mof_C 	C 	0.7993	0.3852	0.2205	0.2
Mof_C 	C 	0.6692	0.3388	0.1613	0.82
Mof_F 	F 	0.6217	0.3048	0.2293	-0.417
Mof_F 	F 	0.537	0.3661	0.1002	-0.481
Mof_F 	F 	0.7186	0.30093	0.1005	-0.387
Mof_Ag	Ag	0.911	0.5481	0.7037	0.122
Mof_F 	F 	0.263	0.3367	0.797	-0.054
Mof_F 	F 	0.439	0.2882	0.7515	-0.138
Mof_F 	F 	0.511	0.3478	0.8826	0.268
Mof_F 	F 	0.8799	0.2867	0.462	-0.296
Mof_F 	F 	0.09	0.3302	0.491	-0.342
Mof_F 	F 	0.002	0.3033	0.6091	-0.296
Mof_Ag	Ag	0.28561	0.972	0.97393	0.602
Mof_Ag	Ag	0.97713	0.94586	0.19872	0.579
Mof_Ag	Ag	0.88729	0.96335	0.91144	0.339
Mof_Ag	Ag	0.402	0.96863	0.21179	0.308
Mof_Ag	Ag	0.36337	0.82547	0.3601	0.833
Mof_N 	N 	0.1916	0.78461	0.1983	-0.135
Mof_N 	N 	0.0051	0.72528	0.0123	-0.138
Mof_C 	C 	0.1554	0.93741	0.0934	-0.438
Mof_C 	C 	0.1436	0.88179	0.105	0.08
Mof_C 	C 	0.1245	0.81567	0.1069	0.055
Mof_C 	C 	0.1609	0.7242	0.194	0.096
Mof_H 	H 	0.2034	0.7009	0.2549	0.069
Mof_C 	C 	0.0692	0.69498	0.1033	0.098
Mof_H 	H 	0.0511	0.6528	0.1053	0.034
Mof_C 	C 	0.0336	0.78596	0.0147	0.097
Mof_H 	H 	0.9918	0.8089	0.9533	0.057
Mof_O 	O 	0.1784	0.93525	0.801	-0.265
Mof_O 	O 	0.9578	0.88753	0.8184	-0.239
Mof_C 	C 	0.0739	0.89327	0.7836	0.141
Mof_C 	C 	0.0864	0.8412	0.7077	0.864
Mof_F 	F 	0.9498	0.8371	0.6277	-0.679
Mof_F 	F 	0.194	0.8488	0.664	-0.425
Mof_F 	F 	0.096	0.7861	0.7514	-0.232
Mof_O 	O 	0.7617	0.88285	0.9723	-0.227
Mof_O 	O 	0.5532	0.93673	0.9897	-0.312
Mof_C 	C 	0.6254	0.88823	0.9814	0.063
Mof_C 	C 	0.5366	0.8273	0.9839	1.158
Mof_F 	F 	0.3811	0.8336	0.9503	-0.267
Mof_F 	F 	0.575	0.7837	0.932	-0.256
Mof_F 	F 	0.583	0.8069	0.081	-0.27
Mof_O 	O 	0.7462	0.92629	0.2295	-0.295
Mof_O 	O 	0.5618	0.87871	0.2855	-0.289
Mof_C 	C 	0.7007	0.8852	0.2795	0.201
Mof_C 	C 	0.8308	0.8388	0.3387	0.819
Mof_F 	F 	0.8783	0.8048	0.2707	-0.416
Mof_F 	F 	0.963	0.8661	0.3998	-0.479
Mof_F 	F 	0.7814	0.80093	0.3995	-0.387
Mof_Ag	Ag	0.589	0.0481	0.7963	0.125
Mof_F 	F 	0.237	0.8367	0.703	-0.055
Mof_F 	F 	0.061	0.7882	0.7485	-0.138
Mof_F 	F 	0.989	0.8478	0.6174	0.259
Mof_F 	F 	0.6201	0.7867	0.038	-0.295
Mof_F 	F 	0.41	0.8302	0.009	-0.34
Mof_F 	F 	0.498	0.8033	0.8909	-0.299
_end
