data_functionalizedCrystal
_audit_creation_method	'EQeq! by Chris Wilmer'
_symmetry_space_group_name_H-M	'P1'
_symmetry_Int_Tables_number	1
_symmetry_cell_setting	triclinic
loop_
_symmetry_equiv_pos_as_xyz
  x,y,z
_cell_length_a	12.8331
_cell_length_b	15.626
_cell_length_c	7.545
_cell_angle_alpha	90
_cell_angle_beta	93.225
_cell_angle_gamma	90
loop_
_atom_site_label
_atom_site_type_symbol
_atom_site_fract_x
_atom_site_fract_y
_atom_site_fract_z
_atom_site_charge
Mof_O 	O 	0.1688	0.541	0.7339	-0.305
Mof_O 	O 	0.0619	0.5711	0.942	-0.323
Mof_N 	N 	0.3802	0.733	0.891	-0.158
Mof_N 	N 	0.4975	0.6225	0.0009	-0.186
Mof_C 	C 	0.2218	0.6477	0.947	-0.38
Mof_H 	H 	0.263	0.6213	0.0439	0.147
Mof_H 	H 	0.1835	0.695	0.9954	0.155
Mof_C 	C 	0.1448	0.5827	0.8674	0.4
Mof_N 	N 	0.6249	0.5357	0.1257	-0.347
Mof_H 	H 	0.6842	0.5276	0.1818	0.185
Mof_H 	H 	0.5867	0.4927	0.093	0.175
Mof_C 	C 	0.5278	0.7749	0.0281	-0.021
Mof_N 	N 	0.6554	0.6803	0.144	-0.149
Mof_N 	N 	0.4722	0.8494	0.9816	-0.108
Mof_C 	C 	0.4704	0.7033	0.977	0.154
Mof_C 	C 	0.2952	0.6822	0.8098	0.103
Mof_H 	H 	0.3241	0.6345	0.7466	0.018
Mof_H 	H 	0.2554	0.7172	0.724	0.011
Mof_C 	C 	0.5922	0.6146	0.0895	0.216
Mof_C 	C 	0.3868	0.8194	0.9006	0.102
Mof_H 	H 	0.3344	0.855	0.8531	0.023
Mof_C 	C 	0.6233	0.759	0.1174	0.028
Mof_H 	H 	0.6647	0.8045	0.1586	0.048
Mof_O 	O 	0.4101	0.9911	0.2248	-0.175
Mof_O 	O 	0.8312	0.541	0.7661	-0.281
Mof_O 	O 	0.9381	0.5711	0.558	-0.271
Mof_N 	N 	0.6198	0.733	0.609	-0.153
Mof_N 	N 	0.5025	0.6225	0.4991	-0.17
Mof_C 	C 	0.7782	0.6477	0.553	-0.407
Mof_H 	H 	0.737	0.6213	0.4561	0.169
Mof_H 	H 	0.8165	0.695	0.5046	0.176
Mof_C 	C 	0.8552	0.5827	0.6326	0.406
Mof_N 	N 	0.3751	0.5357	0.3743	-0.347
Mof_H 	H 	0.3158	0.5276	0.3182	0.184
Mof_H 	H 	0.4133	0.4927	0.407	0.179
Mof_C 	C 	0.4722	0.7749	0.4719	0.01
Mof_N 	N 	0.3446	0.6803	0.356	-0.151
Mof_N 	N 	0.5278	0.8494	0.5184	-0.121
Mof_C 	C 	0.5296	0.7033	0.523	0.123
Mof_C 	C 	0.7048	0.6822	0.6902	0.108
Mof_H 	H 	0.6759	0.6345	0.7534	0.02
Mof_H 	H 	0.7446	0.7172	0.776	0.023
Mof_C 	C 	0.4078	0.6146	0.4105	0.217
Mof_C 	C 	0.6132	0.8194	0.5994	0.101
Mof_H 	H 	0.6656	0.855	0.6469	0.031
Mof_C 	C 	0.3767	0.759	0.3826	0.016
Mof_H 	H 	0.3353	0.8045	0.3414	0.044
Mof_O 	O 	0.5899	0.9911	0.2752	-0.165
Mof_O 	O 	0.8312	0.459	0.2661	-0.287
Mof_O 	O 	0.9381	0.4289	0.058	-0.283
Mof_N 	N 	0.6198	0.267	0.109	-0.155
Mof_N 	N 	0.5025	0.3775	0.9991	-0.156
Mof_C 	C 	0.7782	0.3523	0.053	-0.444
Mof_H 	H 	0.737	0.3787	0.9561	0.19
Mof_H 	H 	0.8165	0.305	0.0046	0.176
Mof_C 	C 	0.8552	0.4173	0.1326	0.415
Mof_N 	N 	0.3751	0.4643	0.8743	-0.348
Mof_H 	H 	0.3158	0.4724	0.8182	0.186
Mof_H 	H 	0.4133	0.5073	0.907	0.184
Mof_C 	C 	0.4722	0.2251	0.9719	0.04
Mof_N 	N 	0.3446	0.3197	0.856	-0.147
Mof_N 	N 	0.5278	0.1506	0.0184	-0.148
Mof_C 	C 	0.5296	0.2967	0.023	0.089
Mof_C 	C 	0.7048	0.3178	0.1902	0.122
Mof_H 	H 	0.6759	0.3655	0.2534	0.012
Mof_H 	H 	0.7446	0.2828	0.276	0.01
Mof_C 	C 	0.4078	0.3854	0.9105	0.221
Mof_C 	C 	0.6132	0.1806	0.0994	0.096
Mof_H 	H 	0.6656	0.145	0.1469	0.006
Mof_C 	C 	0.3767	0.241	0.8826	0.006
Mof_H 	H 	0.3353	0.1955	0.8414	0.041
Mof_O 	O 	0.5899	0.0089	0.7752	-0.22
Mof_O 	O 	0.1688	0.459	0.2339	-0.311
Mof_O 	O 	0.0619	0.4289	0.442	-0.334
Mof_N 	N 	0.3802	0.267	0.391	-0.159
Mof_N 	N 	0.4975	0.3775	0.5009	-0.171
Mof_C 	C 	0.2218	0.3523	0.447	-0.418
Mof_H 	H 	0.263	0.3787	0.5439	0.169
Mof_H 	H 	0.1835	0.305	0.4954	0.157
Mof_C 	C 	0.1448	0.4173	0.3674	0.409
Mof_N 	N 	0.6249	0.4643	0.6257	-0.348
Mof_H 	H 	0.6842	0.4724	0.6818	0.188
Mof_H 	H 	0.5867	0.5073	0.593	0.18
Mof_C 	C 	0.5278	0.2251	0.5281	0.007
Mof_N 	N 	0.6554	0.3197	0.644	-0.146
Mof_N 	N 	0.4722	0.1506	0.4816	-0.137
Mof_C 	C 	0.4704	0.2967	0.477	0.123
Mof_C 	C 	0.2952	0.3178	0.3098	0.119
Mof_H 	H 	0.3241	0.3655	0.2466	0.009
Mof_H 	H 	0.2554	0.2828	0.224	-0.003
Mof_C 	C 	0.5922	0.3854	0.5895	0.22
Mof_C 	C 	0.3868	0.1806	0.4006	0.098
Mof_H 	H 	0.3344	0.145	0.3531	-0.002
Mof_C 	C 	0.6233	0.241	0.6174	0.019
Mof_H 	H 	0.6647	0.1955	0.6586	0.045
Mof_O 	O 	0.4101	0.0089	0.7248	-0.231
Mof_Cd	Cd	1.74631e-33	0.45889	0.75	0.387
Mof_Cd	Cd	1.17593e-18	0.54111	0.25	0.378
Mof_Cd	Cd	0.5	0	-0	0.389
Mof_Cd	Cd	0.5	0	0.5	0.403
_end
