data_functionalizedCrystal
_audit_creation_method	'EQeq! by Chris Wilmer'
_symmetry_space_group_name_H-M	'P1'
_symmetry_Int_Tables_number	1
_symmetry_cell_setting	triclinic
loop_
_symmetry_equiv_pos_as_xyz
  x,y,z
_cell_length_a	14.1341
_cell_length_b	14.1341
_cell_length_c	14.1341
_cell_angle_alpha	90
_cell_angle_beta	90
_cell_angle_gamma	90
loop_
_atom_site_label
_atom_site_type_symbol
_atom_site_fract_x
_atom_site_fract_y
_atom_site_fract_z
_atom_site_charge
Mof_Sm	Sm	0.00049	0.99951	0.49951	1.752
Mof_Sm	Sm	0.49951	0.00049	0.99951	1.752
Mof_Sm	Sm	0.99951	0.49951	0.00049	1.752
Mof_Sm	Sm	0.50049	0.50049	0.50049	1.767
Mof_C 	C 	0.0901	0.164	0.5732	0.357
Mof_C 	C 	0.129	0.2536	0.6204	-0.141
Mof_C 	C 	0.0849	0.2914	0.7004	0.13
Mof_C 	C 	0.4099	0.836	0.0732	0.358
Mof_C 	C 	0.371	0.7464	0.1204	-0.142
Mof_C 	C 	0.4151	0.7086	0.2004	0.129
Mof_C 	C 	0.9099	0.664	0.9268	0.359
Mof_C 	C 	0.871	0.7536	0.8796	-0.142
Mof_C 	C 	0.9151	0.7914	0.7996	0.133
Mof_C 	C 	0.5901	0.336	0.4268	0.358
Mof_C 	C 	0.629	0.2464	0.3796	-0.141
Mof_C 	C 	0.5849	0.2086	0.2996	0.129
Mof_C 	C 	0.5732	0.0901	0.164	0.357
Mof_C 	C 	0.6204	0.129	0.2536	-0.141
Mof_C 	C 	0.7004	0.0849	0.2914	0.13
Mof_C 	C 	0.0732	0.4099	0.836	0.358
Mof_C 	C 	0.1204	0.371	0.7464	-0.142
Mof_C 	C 	0.2004	0.4151	0.7086	0.129
Mof_C 	C 	0.9268	0.9099	0.664	0.359
Mof_C 	C 	0.8796	0.871	0.7536	-0.142
Mof_C 	C 	0.7996	0.9151	0.7914	0.133
Mof_C 	C 	0.4268	0.5901	0.336	0.358
Mof_C 	C 	0.3796	0.629	0.2464	-0.141
Mof_C 	C 	0.2996	0.5849	0.2086	0.129
Mof_C 	C 	0.164	0.5732	0.0901	0.357
Mof_C 	C 	0.2536	0.6204	0.129	-0.141
Mof_C 	C 	0.2914	0.7004	0.0849	0.13
Mof_C 	C 	0.836	0.0732	0.4099	0.358
Mof_C 	C 	0.7464	0.1204	0.371	-0.142
Mof_C 	C 	0.7086	0.2004	0.4151	0.129
Mof_C 	C 	0.664	0.9268	0.9099	0.359
Mof_C 	C 	0.7536	0.8796	0.871	-0.142
Mof_C 	C 	0.7914	0.7996	0.9151	0.133
Mof_C 	C 	0.336	0.4268	0.5901	0.358
Mof_C 	C 	0.2464	0.3796	0.629	-0.141
Mof_C 	C 	0.2086	0.2996	0.5849	0.129
Mof_I 	I 	0.96194	0.22509	0.75131	-0.111
Mof_I 	I 	0.53806	0.77491	0.25131	-0.109
Mof_I 	I 	0.03806	0.72509	0.74869	-0.114
Mof_I 	I 	0.46194	0.27491	0.24869	-0.106
Mof_I 	I 	0.75131	0.96194	0.22509	-0.111
Mof_I 	I 	0.25131	0.53806	0.77491	-0.109
Mof_I 	I 	0.74869	0.03806	0.72509	-0.114
Mof_I 	I 	0.24869	0.46194	0.27491	-0.106
Mof_I 	I 	0.22509	0.75131	0.96194	-0.111
Mof_I 	I 	0.77491	0.25131	0.53806	-0.109
Mof_I 	I 	0.72509	0.74869	0.03806	-0.114
Mof_I 	I 	0.27491	0.24869	0.46194	-0.106
Mof_O 	O 	0.0163	0.17185	0.5256	-0.402
Mof_O 	O 	0.1326	0.08834	0.5861	-0.416
Mof_O 	O 	0.4837	0.82815	0.0256	-0.407
Mof_O 	O 	0.3674	0.91166	0.0861	-0.419
Mof_O 	O 	0.9837	0.67185	0.9744	-0.402
Mof_O 	O 	0.8674	0.58834	0.9139	-0.416
Mof_O 	O 	0.5163	0.32815	0.4744	-0.407
Mof_O 	O 	0.6326	0.41166	0.4139	-0.419
Mof_O 	O 	0.5256	0.0163	0.17185	-0.402
Mof_O 	O 	0.5861	0.1326	0.08834	-0.416
Mof_O 	O 	0.0256	0.4837	0.82815	-0.407
Mof_O 	O 	0.0861	0.3674	0.91166	-0.419
Mof_O 	O 	0.9744	0.9837	0.67185	-0.402
Mof_O 	O 	0.9139	0.8674	0.58834	-0.416
Mof_O 	O 	0.4744	0.5163	0.32815	-0.407
Mof_O 	O 	0.4139	0.6326	0.41166	-0.419
Mof_O 	O 	0.17185	0.5256	0.0163	-0.402
Mof_O 	O 	0.08834	0.5861	0.1326	-0.416
Mof_O 	O 	0.82815	0.0256	0.4837	-0.407
Mof_O 	O 	0.91166	0.0861	0.3674	-0.419
Mof_O 	O 	0.67185	0.9744	0.9837	-0.402
Mof_O 	O 	0.58834	0.9139	0.8674	-0.416
Mof_O 	O 	0.32815	0.4744	0.5163	-0.407
Mof_O 	O 	0.41166	0.4139	0.6326	-0.419
_end
