# CIF file generated by openbabel 3.1.0, see https://openbabel.org
data_I
_chemical_name_common 'image0'
_cell_length_a 10.246
_cell_length_b 16.147
_cell_length_c 19.161
_cell_angle_alpha 90
_cell_angle_beta 99.98
_cell_angle_gamma 90
_space_group_name_H-M_alt 'P 1'
_space_group_name_Hall 'P 1'
loop_
    _symmetry_equiv_pos_as_xyz
    x,y,z
loop_
    _atom_site_label
    _atom_site_type_symbol
    _atom_site_fract_x
    _atom_site_fract_y
    _atom_site_fract_z
    _atom_site_occupancy
    Zn1      Zn       0.72129    0.13247    0.01071    1.000
    Zn2      Zn       0.96487    0.22661    0.12545    1.000
    S1       S        0.79717    0.37626    0.53212    1.000
    C1       C        0.21780    0.23280    0.15510    1.000
    C2       C        0.35720    0.24950    0.18920    1.000
    C3       C        0.45840    0.23780    0.15050    1.000
    H1       H        0.43960    0.21980    0.10370    1.000
    C4       C        0.59000    0.25350    0.18330    1.000
    C5       C        0.69970    0.23940    0.14260    1.000
    C6       C        0.61950    0.27820    0.25320    1.000
    H2       H        0.70710    0.28760    0.27430    1.000
    C7       C        0.51690    0.28930    0.29240    1.000
    C8       C        0.38550    0.27540    0.26000    1.000
    H3       H        0.31700    0.28330    0.28550    1.000
    C9       C        0.65240    0.33540    0.40250    1.000
    C10      C        0.65170    0.34760    0.48090    1.000
    C11      C        0.55760    0.33960    0.52000    1.000
    H4       H        0.47120    0.32390    0.50140    1.000
    C12      C        0.60160    0.35720    0.59310    1.000
    H5       H        0.54750    0.35510    0.62730    1.000
    C13      C        0.73030    0.37730    0.60660    1.000
    C14      C        0.82090    0.39250    0.67440    1.000
    C15      C        0.84210    0.39160    0.80330    1.000
    C16      C        0.83560    0.33010    0.85390    1.000
    H6       H        0.78740    0.28210    0.84080    1.000
    C17      C        0.89940    0.33960    0.92280    1.000
    C18      C        0.97720    0.41320    0.94130    1.000
    H7       H        0.02310    0.42050    0.98720    1.000
    C19      C        0.98280    0.47140    0.89130    1.000
    C20      C        0.91290    0.46440    0.82070    1.000
    H8       H        0.91440    0.50640    0.78770    1.000
    C21      C        0.05930    0.54940    0.91020    1.000
    C22      C        0.88680    0.27810    0.97790    1.000
    N1       N        0.53810    0.31280    0.36300    1.000
    H9       H        0.46990    0.31270    0.38360    1.000
    N2       N        0.76680    0.38080    0.73400    1.000
    H10      H        0.68490    0.36650    0.72960    1.000
    O1       O        0.66990    0.21270    0.07963    1.000
    O2       O        0.81680    0.25640    0.17408    1.000
    O3       O        0.12670    0.26010    0.18981    1.000
    O4       O        0.19190    0.19770    0.09698    1.000
    O5       O        0.94140    0.29450    0.04086    1.000
    O6       O        0.82200    0.21480    0.95865    1.000
    O7       O        0.12850    0.55370    0.97187    1.000
    O8       O        0.05190    0.60590    0.86417    1.000
    O9       O        0.75560    0.34400    0.38270    1.000
    O10      O        0.93400    0.41410    0.67540    1.000
    Zn3      Zn       0.27871    0.63247    0.98929    1.000
    Zn4      Zn       0.03513    0.72661    0.87455    1.000
    S2       S        0.20283    0.87626    0.46788    1.000
    C23      C        0.78220    0.73280    0.84490    1.000
    C24      C        0.64280    0.74950    0.81080    1.000
    C25      C        0.54160    0.73780    0.84950    1.000
    H11      H        0.56040    0.71980    0.89630    1.000
    C26      C        0.41000    0.75350    0.81670    1.000
    C27      C        0.30030    0.73940    0.85740    1.000
    C28      C        0.38050    0.77820    0.74680    1.000
    H12      H        0.29290    0.78760    0.72570    1.000
    C29      C        0.48310    0.78930    0.70760    1.000
    C30      C        0.61450    0.77540    0.74000    1.000
    H13      H        0.68300    0.78330    0.71450    1.000
    C31      C        0.34760    0.83540    0.59750    1.000
    C32      C        0.34830    0.84760    0.51910    1.000
    C33      C        0.44240    0.83960    0.48000    1.000
    H14      H        0.52880    0.82390    0.49860    1.000
    C34      C        0.39840    0.85720    0.40690    1.000
    H15      H        0.45250    0.85510    0.37270    1.000
    C35      C        0.26970    0.87730    0.39340    1.000
    C36      C        0.17910    0.89250    0.32560    1.000
    C37      C        0.15790    0.89160    0.19670    1.000
    C38      C        0.16440    0.83010    0.14610    1.000
    H16      H        0.21260    0.78210    0.15920    1.000
    C39      C        0.10060    0.83960    0.07720    1.000
    C40      C        0.02280    0.91320    0.05870    1.000
    H17      H        0.97690    0.92050    0.01280    1.000
    C41      C        0.01720    0.97140    0.10870    1.000
    C42      C        0.08710    0.96440    0.17930    1.000
    H18      H        0.08560    0.00640    0.21230    1.000
    C43      C        0.94070    0.04940    0.08980    1.000
    C44      C        0.11320    0.77810    0.02210    1.000
    N3       N        0.46190    0.81280    0.63700    1.000
    H19      H        0.53010    0.81270    0.61640    1.000
    N4       N        0.23320    0.88080    0.26600    1.000
    H20      H        0.31510    0.86650    0.27040    1.000
    O11      O        0.33010    0.71270    0.92037    1.000
    O12      O        0.18320    0.75640    0.82592    1.000
    O13      O        0.87330    0.76010    0.81019    1.000
    O14      O        0.80810    0.69770    0.90302    1.000
    O15      O        0.05860    0.79450    0.95914    1.000
    O16      O        0.17800    0.71480    0.04135    1.000
    O17      O        0.87150    0.05370    0.02813    1.000
    O18      O        0.94810    0.10590    0.13583    1.000
    O19      O        0.24440    0.84400    0.61730    1.000
    O20      O        0.06600    0.91410    0.32460    1.000
