# CIF file generated by openbabel 3.1.0, see https://openbabel.org
data_I
_chemical_name_common 'NERVOV_clean'
_cell_length_a 10.6671
_cell_length_b 12.0063
_cell_length_c 14.0658
_cell_angle_alpha 106.718
_cell_angle_beta 102.279
_cell_angle_gamma 111.19
_space_group_name_H-M_alt 'P 1'
_space_group_name_Hall 'P 1'
loop_
    _symmetry_equiv_pos_as_xyz
    x,y,z
loop_
    _atom_site_label
    _atom_site_type_symbol
    _atom_site_fract_x
    _atom_site_fract_y
    _atom_site_fract_z
    _atom_site_occupancy
    Co1      Co       0.80651    0.50421    0.78597    1.000
    Co2      Co       0.54787    0.76829    0.30975    1.000
    Co3      Co       0.19349    0.49579    0.21403    1.000
    Co4      Co       0.45213    0.23171    0.69025    1.000
    H1       H        0.52300    0.44600    0.68600    1.000
    H2       H        0.57500    0.47600    0.79300    1.000
    H3       H        0.97460    0.79930    0.85900    1.000
    H4       H        0.87770    0.83320    0.38590    1.000
    H5       H        0.05440    0.82240    0.32130    1.000
    H6       H        0.00250    0.73660    0.13890    1.000
    H7       H        0.59370    0.66040    0.09960    1.000
    H8       H        0.72870    0.98880    0.24930    1.000
    H9       H        0.84010    0.21190    0.30890    1.000
    H10      H        0.83660    0.33820    0.46720    1.000
    H11      H        0.61950    0.01000    0.49880    1.000
    H12      H        0.69770    0.53790    0.58070    1.000
    H13      H        0.00340    0.96380    0.80080    1.000
    H14      H        0.87030    0.91360    0.62770    1.000
    H15      H        0.06670    0.53330    0.70600    1.000
    H16      H        0.30620    0.58650    0.77010    1.000
    H17      H        0.42400    0.66230    0.95300    1.000
    H18      H        0.04770    0.60490    0.98920    1.000
    H19      H        0.47700    0.55400    0.31400    1.000
    H20      H        0.42500    0.52400    0.20700    1.000
    H21      H        0.02540    0.20070    0.14100    1.000
    H22      H        0.12230    0.16680    0.61410    1.000
    H23      H        0.94560    0.17760    0.67870    1.000
    H24      H        0.99750    0.26340    0.86110    1.000
    H25      H        0.40630    0.33960    0.90040    1.000
    H26      H        0.27130    0.01120    0.75070    1.000
    H27      H        0.15990    0.78810    0.69110    1.000
    H28      H        0.16340    0.66180    0.53280    1.000
    H29      H        0.38050    0.99000    0.50120    1.000
    H30      H        0.30230    0.46210    0.41930    1.000
    H31      H        0.99660    0.03620    0.19920    1.000
    H32      H        0.12970    0.08640    0.37230    1.000
    H33      H        0.93330    0.46670    0.29400    1.000
    H34      H        0.69380    0.41350    0.22990    1.000
    H35      H        0.57600    0.33770    0.04700    1.000
    H36      H        0.95230    0.39510    0.01080    1.000
    C1       C        0.92230    0.77840    0.78910    1.000
    C2       C        0.85430    0.79570    0.31290    1.000
    C3       C        0.96160    0.79070    0.27450    1.000
    C4       C        0.93090    0.73870    0.16620    1.000
    C5       C        0.79010    0.68960    0.09950    1.000
    C6       C        0.68830    0.69550    0.14471    1.000
    C7       C        0.74180    0.62780    0.97994    1.000
    C8       C        0.72870    0.03860    0.31360    1.000
    C9       C        0.79460    0.17270    0.34840    1.000
    C10      C        0.79210    0.24770    0.44230    1.000
    C11      C        0.72240    0.18640    0.49888    1.000
    C12      C        0.66310    0.05150    0.45969    1.000
    C13      C        0.69980    0.26130    0.59430    1.000
    C14      C        0.75840    0.62480    0.62559    1.000
    C15      C        0.93960    0.87790    0.75510    1.000
    C16      C        0.86070    0.84790    0.65230    1.000
    C17      C        0.76740    0.71960    0.58580    1.000
    C18      C        0.66920    0.68200    0.47560    1.000
    C19      C        0.11200    0.56020    0.77850    1.000
    C20      C        0.25610    0.59320    0.81650    1.000
    C21      C        0.32610    0.63700    0.92530    1.000
    C22      C        0.24690    0.64220    0.99119    1.000
    C23      C        0.10160    0.60370    0.94528    1.000
    C24      C        0.30700    0.67860    0.10914    1.000
    C25      C        0.07770    0.22160    0.21090    1.000
    C26      C        0.14570    0.20430    0.68710    1.000
    C27      C        0.03840    0.20930    0.72550    1.000
    C28      C        0.06910    0.26130    0.83380    1.000
    C29      C        0.20990    0.31040    0.90050    1.000
    C30      C        0.31170    0.30450    0.85529    1.000
    C31      C        0.25820    0.37220    0.02006    1.000
    C32      C        0.27130    0.96140    0.68640    1.000
    C33      C        0.20540    0.82730    0.65160    1.000
    C34      C        0.20790    0.75230    0.55770    1.000
    C35      C        0.27760    0.81360    0.50112    1.000
    C36      C        0.33690    0.94850    0.54031    1.000
    C37      C        0.30020    0.73870    0.40570    1.000
    C38      C        0.24160    0.37520    0.37441    1.000
    C39      C        0.06040    0.12210    0.24490    1.000
    C40      C        0.13930    0.15210    0.34770    1.000
    C41      C        0.23260    0.28040    0.41420    1.000
    C42      C        0.33080    0.31800    0.52440    1.000
    C43      C        0.88800    0.43980    0.22150    1.000
    C44      C        0.74390    0.40680    0.18350    1.000
    C45      C        0.67390    0.36300    0.07470    1.000
    C46      C        0.75310    0.35780    0.00881    1.000
    C47      C        0.89840    0.39630    0.05472    1.000
    C48      C        0.69300    0.32140    0.89086    1.000
    N1       N        0.71750    0.74860    0.24944    1.000
    N2       N        0.66490    0.97720    0.36866    1.000
    N3       N        0.83390    0.65330    0.72631    1.000
    N4       N        0.03420    0.56510    0.84138    1.000
    N5       N        0.28250    0.25140    0.75056    1.000
    N6       N        0.33510    0.02280    0.63134    1.000
    N7       N        0.16610    0.34670    0.27369    1.000
    N8       N        0.96580    0.43490    0.15862    1.000
    O1       O        0.83667    0.63066    0.93920    1.000
    O2       O        0.60944    0.57540    0.93019    1.000
    O3       O        0.78341    0.38149    0.64037    1.000
    O4       O        0.59703    0.19768    0.61732    1.000
    O5       O        0.66540    0.77491    0.45201    1.000
    O6       O        0.59740    0.56360    0.41703    1.000
    O7       O        0.21720    0.63790    0.15104    1.000
    O8       O        0.44152    0.74653    0.15672    1.000
    O9       O        0.57605    0.43856    0.74178    1.000
    O10      O        0.16333    0.36934    0.06080    1.000
    O11      O        0.39056    0.42460    0.06981    1.000
    O12      O        0.21659    0.61851    0.35963    1.000
    O13      O        0.40297    0.80232    0.38268    1.000
    O14      O        0.33460    0.22509    0.54799    1.000
    O15      O        0.40260    0.43640    0.58297    1.000
    O16      O        0.78280    0.36210    0.84896    1.000
    O17      O        0.55848    0.25347    0.84328    1.000
    O18      O        0.42395    0.56144    0.25822    1.000
