data_functionalizedCrystal
_audit_creation_method	'EQeq! by Chris Wilmer'
_symmetry_space_group_name_H-M	'P1'
_symmetry_Int_Tables_number	1
_symmetry_cell_setting	triclinic
loop_
_symmetry_equiv_pos_as_xyz
  x,y,z
_cell_length_a	22.018
_cell_length_b	20.783
_cell_length_c	37.062
_cell_angle_alpha	90
_cell_angle_beta	94.845
_cell_angle_gamma	90
loop_
_atom_site_label
_atom_site_type_symbol
_atom_site_fract_x
_atom_site_fract_y
_atom_site_fract_z
_atom_site_charge
Mof_Zn	Zn	0.77166	0.17991	0.6489	1.215
Mof_N 	N 	0.77933	0.09145	0.67472	-0.191
Mof_O 	O 	0.82903	0.23243	0.6844	-0.47
Mof_O 	O 	0.83772	0.17308	0.61534	-0.466
Mof_O 	O 	0.70313	0.21707	0.67372	-0.494
Mof_O 	O 	0.71007	0.15567	0.60647	-0.471
Mof_C 	C 	0.84119	0.08606	0.69233	-0.037
Mof_C 	C 	0.76811	0.03724	0.64832	-0.048
Mof_C 	C 	0.73494	0.08422	0.70324	-0.02
Mof_C 	C 	0.83571	0.2916	0.68513	0.406
Mof_C 	C 	0.84594	0.2156	0.59171	0.401
Mof_C 	C 	0.67692	0.2707	0.67378	0.425
Mof_C 	C 	0.68495	0.197	0.58683	0.437
Mof_N 	N 	0.85074	0.02425	0.71127	-0.191
Mof_H 	H 	0.8485	0.1217	0.7099	0.039
Mof_H 	H 	0.8709	0.0902	0.6739	0.04
Mof_N 	N 	0.77732	0.97427	0.66705	-0.184
Mof_H 	H 	0.7259	0.0399	0.6369	0.056
Mof_H 	H 	0.7964	0.0409	0.629	0.05
Mof_N 	N 	0.74332	0.02231	0.72182	-0.084
Mof_H 	H 	0.7411	0.1196	0.7211	0.041
Mof_H 	H 	0.6928	0.0872	0.6918	0.046
Mof_O 	O 	0.81786	0.32997	0.66041	-0.474
Mof_C 	C 	0.86675	0.32052	0.71893	-0.127
Mof_O 	O 	0.82151	0.26925	0.58949	-0.472
Mof_C 	C 	0.88978	0.19789	0.56452	-0.134
Mof_O 	O 	0.69055	0.31808	0.65588	-0.463
Mof_C 	C 	0.62577	0.2772	0.69733	-0.156
Mof_O 	O 	0.69482	0.2561	0.5888	-0.494
Mof_C 	C 	0.6366	0.1749	0.55801	-0.164
Mof_Zn	Zn	0.93903	0.01971	0.73461	1.214
Mof_C 	C 	0.8399	0.971	0.68482	-0.043
Mof_C 	C 	0.80546	0.01793	0.73924	-0.025
Mof_Zn	Zn	0.76524	0.89764	0.63057	1.248
Mof_C 	C 	0.7332	0.97042	0.69608	-0.03
Mof_Zn	Zn	0.75526	0.30814	0.61938	1.214
Mof_C 	C 	0.90459	0.2836	0.74291	0.045
Mof_C 	C 	0.8567	0.385	0.72788	0.046
Mof_C 	C 	0.9221	0.1407	0.56781	0.054
Mof_C 	C 	0.89875	0.2371	0.53541	0.06
Mof_C 	C 	0.611	0.2262	0.71862	0.076
Mof_C 	C 	0.5923	0.3315	0.69856	0.077
Mof_C 	C 	0.6228	0.1143	0.55196	0.1
Mof_C 	C 	0.6051	0.2199	0.53701	0.08
Mof_O 	O 	0.98114	0.96157	0.70101	-0.454
Mof_O 	O 	0.92894	0.94298	0.76716	-0.452
Mof_O 	O 	0.92629	0.07798	0.77664	-0.465
Mof_O 	O 	0.97399	0.09534	0.70871	-0.449
Mof_H 	H 	0.8696	0.9739	0.6663	0.041
Mof_H 	H 	0.846	0.9292	0.6974	0.043
Mof_H 	H 	0.8111	0.976	0.7518	0.047
Mof_H 	H 	0.8122	0.0525	0.7575	0.046
Mof_O 	O 	0.7991	0.8373	0.66976	-0.227
Mof_O 	O 	0.825	0.8612	0.60137	-0.437
Mof_O 	O 	0.7011	0.9065	0.5928	-0.222
Mof_H 	H 	0.6909	0.9727	0.6847	0.064
Mof_H 	H 	0.7383	0.9287	0.7089	0.054
Mof_N 	N 	0.74146	0.39703	0.59549	-0.202
Mof_H 	H 	0.9123	0.24	0.7372	0.033
Mof_C 	C 	0.931	0.3095	0.7748	-0.103
Mof_C 	C 	0.8809	0.4101	0.76027	-0.105
Mof_H 	H 	0.8329	0.4117	0.7114	0.029
Mof_H 	H 	0.9171	0.1129	0.5877	0.037
Mof_C 	C 	0.9622	0.1235	0.54207	-0.116
Mof_C 	C 	0.93817	0.2205	0.51014	-0.126
Mof_H 	H 	0.8771	0.2766	0.5328	0.026
Mof_H 	H 	0.6346	0.1879	0.7187	0.019
Mof_C 	C 	0.5632	0.2298	0.73945	-0.129
Mof_C 	C 	0.543	0.3346	0.71903	-0.129
Mof_H 	H 	0.6028	0.3681	0.6851	0.019
Mof_H 	H 	0.6446	0.082	0.5658	0.019
Mof_C 	C 	0.5774	0.0962	0.52608	-0.158
Mof_C 	C 	0.5581	0.2008	0.51128	-0.139
Mof_H 	H 	0.615	0.2642	0.5398	0.018
Mof_C 	C 	0.0315	0.9331	0.70635	0.357
Mof_C 	C 	0.79181	0.41076	0.57374	-0.031
Mof_C 	C 	0.6837	0.4025	0.57184	-0.012
Mof_C 	C 	0.7405	0.4503	0.62371	-0.018
Mof_H 	H 	0.9576	0.284	0.7904	0.075
Mof_C 	C 	0.9187	0.3735	0.78422	0.041
Mof_H 	H 	0.8716	0.4531	0.7664	0.07
Mof_H 	H 	0.9836	0.0839	0.5444	0.076
Mof_C 	C 	0.9709	0.1638	0.51326	0.068
Mof_H 	H 	0.943	0.2484	0.4903	0.083
Mof_H 	H 	0.5544	0.1942	0.7542	0.076
Mof_C 	C 	0.5275	0.2837	0.73957	0.057
Mof_H 	H 	0.5194	0.3728	0.7189	0.075
Mof_H 	H 	0.5689	0.0516	0.5233	0.083
Mof_C 	C 	0.5457	0.1358	0.50542	0.083
Mof_H 	H 	0.5347	0.2323	0.4978	0.078
Mof_C 	C 	0.0454	0.8809	0.6804	-0.093
Mof_N 	N 	0.78693	0.47422	0.55648	-0.206
Mof_H 	H 	0.7931	0.3774	0.5548	0.027
Mof_H 	H 	0.8305	0.4085	0.5893	0.03
Mof_N 	N 	0.6766	0.4666	0.55503	-0.097
Mof_H 	H 	0.6832	0.3694	0.5526	0.039
Mof_H 	H 	0.6489	0.3941	0.5864	0.038
Mof_N 	N 	0.736	0.5121	0.60771	-0.094
Mof_H 	H 	0.7054	0.4436	0.6383	0.044
Mof_H 	H 	0.7782	0.448	0.6402	0.042
Mof_C 	C 	0.94579	0.40025	0.81942	0.057
Mof_C 	C 	0.0148	0.1465	0.48673	0.025
Mof_C 	C 	0.4949	0.1148	0.4801	0.021
Mof_C 	C 	0.002	0.8678	0.65122	0.009
Mof_C 	C 	0.101	0.8498	0.68302	0.027
Mof_Zn	Zn	0.86371	0.48381	0.52824	1.217
Mof_C 	C 	0.7286	0.4774	0.53388	-0.011
Mof_C 	C 	0.7859	0.5233	0.58599	-0.012
Mof_C 	C 	0.6795	0.5136	0.5837	0.004
Mof_C 	C 	0.9121	0.4377	0.84116	-0.103
Mof_C 	C 	0.00557	0.3865	0.83137	-0.116
Mof_C 	C 	0.0193	0.0839	0.47377	-0.12
Mof_C 	C 	0.0534	0.1924	0.47429	-0.091
Mof_C 	C 	0.5047	0.0765	0.4512	-0.106
Mof_C 	C 	0.436	0.1412	0.4836	-0.161
Mof_H 	H 	0.9653	0.8918	0.6477	0.055
Mof_C 	C 	0.0151	0.8177	0.62756	-0.101
Mof_C 	C 	0.1134	0.8033	0.65784	-0.089
Mof_H 	H 	0.1308	0.8602	0.7021	0.041
Mof_O 	O 	0.81815	0.55529	0.48767	-0.382
Mof_O 	O 	0.91514	0.55306	0.50529	-0.534
Mof_O 	O 	0.91832	0.46462	0.57191	-0.487
Mof_O 	O 	0.84663	0.4111	0.49255	-0.441
Mof_H 	H 	0.7246	0.5203	0.5222	0.041
Mof_H 	H 	0.7285	0.4446	0.5145	0.039
Mof_H 	H 	0.8247	0.5215	0.6015	0.034
Mof_H 	H 	0.7821	0.5668	0.5752	0.028
Mof_H 	H 	0.6447	0.5066	0.5985	0.041
Mof_H 	H 	0.6749	0.557	0.5728	0.042
Mof_H 	H 	0.8711	0.4484	0.8332	0.067
Mof_C 	C 	0.93698	0.46	0.87441	0.037
Mof_C 	C 	0.03112	0.4096	0.86435	0.024
Mof_H 	H 	0.0295	0.3609	0.8168	0.074
Mof_H 	H 	0.9933	0.0515	0.4819	0.079
Mof_C 	C 	0.0608	0.0683	0.44945	0.044
Mof_C 	C 	0.0959	0.1774	0.44972	0.024
Mof_H 	H 	0.0509	0.2355	0.4827	0.06
Mof_H 	H 	0.5445	0.0601	0.4491	0.066
Mof_C 	C 	0.4598	0.0613	0.4256	0.04
Mof_C 	C 	0.3886	0.1253	0.4575	0.14
Mof_H 	H 	0.429	0.169	0.5032	0.086
Mof_H 	H 	0.9851	0.8056	0.6089	0.08
Mof_C 	C 	0.0696	0.7858	0.6306	0.031
Mof_H 	H 	0.1523	0.7833	0.6593	0.064
Mof_C 	C 	0.8705	0.5749	0.48419	0.343
Mof_H 	H 	0.9127	0.4852	0.889	0.035
Mof_C 	C 	0.99689	0.44607	0.88673	-0.093
Mof_H 	H 	0.0726	0.4004	0.8718	0.038
Mof_H 	H 	0.0631	0.0251	0.4412	0.027
Mof_C 	C 	0.0986	0.1132	0.4369	-0.108
Mof_H 	H 	0.1224	0.2095	0.4417	0.039
Mof_H 	H 	0.4697	0.0362	0.4054	0.031
Mof_C 	C 	0.4037	0.0794	0.4273	-0.061
Mof_H 	H 	0.3488	0.1424	0.4585	0.002
Mof_C 	C 	0.0813	0.736	0.60293	0.066
Mof_C 	C 	0.8834	0.6235	0.45618	-0.114
Mof_O 	O 	0.01108	0.48997	0.55527	-0.466
Mof_O 	O 	0.05256	0.57997	0.50293	-0.495
Mof_C 	C 	0.02398	0.46863	0.92267	0.366
Mof_C 	C 	0.1428	0.095	0.40958	0.364
Mof_C 	C 	0.3525	0.0664	0.3989	0.466
Mof_C 	C 	0.1374	0.729	0.58894	-0.126
Mof_C 	C 	0.0334	0.6973	0.58972	-0.151
Mof_C 	C 	0.8411	0.6347	0.42737	0.041
Mof_C 	C 	0.9386	0.6566	0.45837	0.036
Mof_O 	O 	0.14595	0.0402	0.39922	-0.339
Mof_O 	O 	0.3601	0.0404	0.37302	-0.334
Mof_H 	H 	0.1707	0.7549	0.5981	0.075
Mof_C 	C 	0.1453	0.6853	0.56219	0.062
Mof_C 	C 	0.0411	0.6521	0.56328	0.069
Mof_H 	H 	0.9947	0.7019	0.599	0.093
Mof_H 	H 	0.803	0.613	0.4257	0.031
Mof_C 	C 	0.8546	0.678	0.40083	-0.105
Mof_C 	C 	0.951	0.6993	0.43178	-0.101
Mof_H 	H 	0.9678	0.6494	0.4783	0.037
Mof_H 	H 	0.1838	0.6815	0.5526	0.025
Mof_C 	C 	0.0971	0.6464	0.54898	-0.14
Mof_H 	H 	0.0082	0.6249	0.5549	0.014
Mof_H 	H 	0.8251	0.6859	0.3811	0.067
Mof_C 	C 	0.9086	0.7095	0.4021	0.05
Mof_H 	H 	0.9886	0.722	0.4335	0.076
Mof_C 	C 	0.1018	0.6009	0.51831	0.375
Mof_C 	C 	0.92418	0.7558	0.37328	0.039
Mof_C 	C 	0.8784	0.7897	0.35276	-0.104
Mof_C 	C 	0.98459	0.7667	0.3666	-0.091
Mof_H 	H 	0.8368	0.7826	0.3566	0.067
Mof_C 	C 	0.89374	0.8337	0.32691	0.049
Mof_C 	C 	0.99922	0.8102	0.34104	0.063
Mof_H 	H 	0.0161	0.7436	0.38	0.058
Mof_H 	H 	0.8625	0.8566	0.3132	0.03
Mof_C 	C 	0.95404	0.8446	0.3209	-0.134
Mof_H 	H 	0.0408	0.8171	0.337	0.023
Mof_C 	C 	0.96994	0.89393	0.29449	0.402
Mof_C 	C 	0.4948	0.1248	0.4779	-0.006
Mof_C 	C 	0.4494	0.0814	0.4848	0.068
Mof_H 	H 	0.4535	0.0576	0.5068	0.003
Mof_C 	C 	0.3978	0.0715	0.4608	-0.136
Mof_H 	H 	0.3664	0.0438	0.4676	0.083
Mof_C 	C 	0.3918	0.0989	0.4295	-0.032
Mof_C 	C 	0.4343	0.1487	0.4187	-0.045
Mof_H 	H 	0.4273	0.1726	0.3968	0.069
Mof_C 	C 	0.4883	0.1585	0.4441	-0.02
Mof_H 	H 	0.5192	0.1876	0.4381	0.039
Mof_C 	C 	0.3371	0.0908	0.4041	-0.006
Mof_O 	O 	0.2984	0.054	0.4088	-0.222
Mof_O 	O 	0.3226	0.1306	0.3765	-0.261
Mof_O 	O 	0.7384	0.8262	0.661	-0.201
Mof_Zn	Zn	0.22834	0.17991	0.8511	1.216
Mof_N 	N 	0.22067	0.09145	0.82528	-0.19
Mof_O 	O 	0.17097	0.23243	0.8156	-0.469
Mof_O 	O 	0.16228	0.17308	0.88466	-0.464
Mof_O 	O 	0.29687	0.21707	0.82628	-0.493
Mof_O 	O 	0.28993	0.15567	0.89353	-0.469
Mof_C 	C 	0.15881	0.08606	0.80767	-0.035
Mof_C 	C 	0.23189	0.03724	0.85168	-0.047
Mof_C 	C 	0.26506	0.08422	0.79676	-0.019
Mof_C 	C 	0.16429	0.2916	0.81487	0.406
Mof_C 	C 	0.15406	0.2156	0.90829	0.397
Mof_C 	C 	0.32308	0.2707	0.82622	0.425
Mof_C 	C 	0.31505	0.197	0.91317	0.436
Mof_N 	N 	0.14926	0.02425	0.78873	-0.191
Mof_H 	H 	0.1515	0.1217	0.7901	0.039
Mof_H 	H 	0.1291	0.0902	0.8261	0.039
Mof_N 	N 	0.22268	0.97427	0.83295	-0.185
Mof_H 	H 	0.2741	0.0399	0.8631	0.056
Mof_H 	H 	0.2036	0.0409	0.871	0.049
Mof_N 	N 	0.25668	0.02231	0.77818	-0.084
Mof_H 	H 	0.2589	0.1196	0.7789	0.04
Mof_H 	H 	0.3072	0.0872	0.8082	0.046
Mof_O 	O 	0.18214	0.32997	0.83959	-0.474
Mof_C 	C 	0.13325	0.32052	0.78107	-0.129
Mof_O 	O 	0.17849	0.26925	0.91051	-0.471
Mof_C 	C 	0.11022	0.19789	0.93548	-0.124
Mof_O 	O 	0.30945	0.31808	0.84412	-0.462
Mof_C 	C 	0.37423	0.2772	0.80267	-0.156
Mof_O 	O 	0.30518	0.2561	0.9112	-0.494
Mof_C 	C 	0.3634	0.1749	0.94199	-0.161
Mof_Zn	Zn	0.06097	0.01971	0.76539	1.212
Mof_C 	C 	0.1601	0.971	0.81518	-0.042
Mof_C 	C 	0.19454	0.01793	0.76076	-0.024
Mof_Zn	Zn	0.23476	0.89764	0.86943	1.248
Mof_C 	C 	0.2668	0.97042	0.80392	-0.03
Mof_Zn	Zn	0.24473	0.30814	0.88062	1.214
Mof_C 	C 	0.09541	0.2836	0.75709	0.044
Mof_C 	C 	0.1433	0.385	0.77212	0.046
Mof_C 	C 	0.0779	0.1407	0.93219	0.039
Mof_C 	C 	0.10125	0.2371	0.96459	0.041
Mof_C 	C 	0.389	0.2262	0.78138	0.076
Mof_C 	C 	0.4077	0.3315	0.80144	0.077
Mof_C 	C 	0.3772	0.1143	0.94804	0.097
Mof_C 	C 	0.3949	0.2199	0.96299	0.074
Mof_O 	O 	0.01886	0.96157	0.79899	-0.482
Mof_O 	O 	0.07106	0.94298	0.73284	-0.447
Mof_O 	O 	0.07371	0.07798	0.72336	-0.459
Mof_O 	O 	0.02601	0.09534	0.79129	-0.475
Mof_H 	H 	0.1304	0.9739	0.8337	0.041
Mof_H 	H 	0.154	0.9292	0.8026	0.042
Mof_H 	H 	0.1889	0.976	0.7482	0.046
Mof_H 	H 	0.1878	0.0525	0.7425	0.045
Mof_O 	O 	0.2009	0.8373	0.83024	-0.229
Mof_O 	O 	0.175	0.8612	0.89863	-0.439
Mof_O 	O 	0.2989	0.9065	0.9072	-0.222
Mof_H 	H 	0.3091	0.9727	0.8153	0.064
Mof_H 	H 	0.2617	0.9287	0.7911	0.053
Mof_N 	N 	0.25854	0.39703	0.90451	-0.202
Mof_H 	H 	0.0877	0.24	0.7628	0.031
Mof_C 	C 	0.069	0.3095	0.7252	-0.107
Mof_C 	C 	0.1191	0.4101	0.73973	-0.107
Mof_H 	H 	0.1671	0.4117	0.7886	0.028
Mof_H 	H 	0.0829	0.1129	0.9123	0.04
Mof_C 	C 	0.0378	0.1235	0.95793	-0.101
Mof_C 	C 	0.06183	0.2205	0.98986	-0.104
Mof_H 	H 	0.1229	0.2766	0.9672	0.032
Mof_H 	H 	0.3654	0.1879	0.7813	0.019
Mof_C 	C 	0.4368	0.2298	0.76055	-0.129
Mof_C 	C 	0.457	0.3346	0.78097	-0.129
Mof_H 	H 	0.3972	0.3681	0.8149	0.019
Mof_H 	H 	0.3554	0.082	0.9342	0.02
Mof_C 	C 	0.4226	0.0962	0.97392	-0.156
Mof_C 	C 	0.4419	0.2008	0.98872	-0.129
Mof_H 	H 	0.385	0.2642	0.9602	0.021
Mof_C 	C 	0.9685	0.9331	0.79365	0.398
Mof_C 	C 	0.20819	0.41076	0.92626	-0.03
Mof_C 	C 	0.3163	0.4025	0.92816	-0.012
Mof_C 	C 	0.2595	0.4503	0.87629	-0.018
Mof_H 	H 	0.0424	0.284	0.7096	0.071
Mof_C 	C 	0.0813	0.3735	0.71578	0.041
Mof_H 	H 	0.1284	0.4531	0.7336	0.069
Mof_H 	H 	0.0164	0.0839	0.9556	0.064
Mof_C 	C 	0.0291	0.1638	0.98674	0.037
Mof_H 	H 	0.057	0.2484	0.0097	0.067
Mof_H 	H 	0.4456	0.1942	0.7458	0.076
Mof_C 	C 	0.4725	0.2837	0.76043	0.057
Mof_H 	H 	0.4806	0.3728	0.7811	0.075
Mof_H 	H 	0.4311	0.0516	0.9767	0.083
Mof_C 	C 	0.4543	0.1358	0.99458	0.081
Mof_H 	H 	0.4653	0.2323	0.0022	0.072
Mof_C 	C 	0.9546	0.8809	0.8196	-0.118
Mof_N 	N 	0.21307	0.47422	0.94352	-0.206
Mof_H 	H 	0.2069	0.3774	0.9452	0.027
Mof_H 	H 	0.1695	0.4085	0.9107	0.028
Mof_N 	N 	0.3234	0.4666	0.94497	-0.096
Mof_H 	H 	0.3168	0.3694	0.9474	0.04
Mof_H 	H 	0.3511	0.3941	0.9136	0.039
Mof_N 	N 	0.264	0.5121	0.89229	-0.094
Mof_H 	H 	0.2946	0.4436	0.8617	0.043
Mof_H 	H 	0.2218	0.448	0.8598	0.041
Mof_C 	C 	0.05421	0.40025	0.68058	0.044
Mof_C 	C 	0.9852	0.1465	0.01327	0.035
Mof_C 	C 	0.5051	0.1148	0.0199	0.021
Mof_C 	C 	0.998	0.8678	0.84878	0.06
Mof_C 	C 	0.899	0.8498	0.81698	0.048
Mof_Zn	Zn	0.13629	0.48381	0.97176	1.217
Mof_C 	C 	0.2714	0.4774	0.96612	-0.012
Mof_C 	C 	0.2141	0.5233	0.91401	-0.011
Mof_C 	C 	0.3205	0.5136	0.9163	0.004
Mof_C 	C 	0.0879	0.4377	0.65884	-0.12
Mof_C 	C 	0.99443	0.3865	0.66863	-0.108
Mof_C 	C 	0.9807	0.0839	0.02623	-0.068
Mof_C 	C 	0.9466	0.1924	0.02571	-0.088
Mof_C 	C 	0.4953	0.0765	0.0488	-0.107
Mof_C 	C 	0.564	0.1412	0.0164	-0.167
Mof_H 	H 	0.0347	0.8918	0.8523	0.024
Mof_C 	C 	0.9849	0.8177	0.87244	-0.086
Mof_C 	C 	0.8866	0.8033	0.84216	-0.105
Mof_H 	H 	0.8692	0.8602	0.7979	0.035
Mof_O 	O 	0.18185	0.55529	0.01233	-0.383
Mof_O 	O 	0.08486	0.55306	0.99471	-0.536
Mof_O 	O 	0.08168	0.46462	0.92809	-0.473
Mof_O 	O 	0.15337	0.4111	0.00745	-0.447
Mof_H 	H 	0.2754	0.5203	0.9778	0.042
Mof_H 	H 	0.2715	0.4446	0.9855	0.04
Mof_H 	H 	0.1753	0.5215	0.8985	0.031
Mof_H 	H 	0.2179	0.5668	0.9248	0.027
Mof_H 	H 	0.3553	0.5066	0.9015	0.041
Mof_H 	H 	0.3251	0.557	0.9272	0.042
Mof_H 	H 	0.1289	0.4484	0.6668	0.072
Mof_C 	C 	0.06302	0.46	0.62559	0.072
Mof_C 	C 	0.96888	0.4096	0.63565	0.082
Mof_H 	H 	0.9705	0.3609	0.6832	0.078
Mof_H 	H 	0.0067	0.0515	0.0181	0.042
Mof_C 	C 	0.9392	0.0683	0.05055	0.018
Mof_C 	C 	0.9041	0.1774	0.05028	0.018
Mof_H 	H 	0.9491	0.2355	0.0173	0.065
Mof_H 	H 	0.4555	0.0601	0.0509	0.065
Mof_C 	C 	0.5402	0.0613	0.0744	0.041
Mof_C 	C 	0.6114	0.1253	0.0425	0.142
Mof_H 	H 	0.571	0.169	0.9968	0.09
Mof_H 	H 	0.0149	0.8056	0.8911	0.06
Mof_C 	C 	0.9304	0.7858	0.8694	0.048
Mof_H 	H 	0.8477	0.7833	0.8407	0.07
Mof_C 	C 	0.1295	0.5749	0.01581	0.34
Mof_H 	H 	0.0873	0.4852	0.611	0.021
Mof_C 	C 	0.00311	0.44607	0.61327	-0.172
Mof_H 	H 	0.9274	0.4004	0.6282	0.021
Mof_H 	H 	0.9369	0.0251	0.0588	0.04
Mof_C 	C 	0.9014	0.1132	0.0631	-0.095
Mof_H 	H 	0.8776	0.2095	0.0583	0.042
Mof_H 	H 	0.5303	0.0362	0.0946	0.03
Mof_C 	C 	0.5963	0.0794	0.0727	-0.063
Mof_H 	H 	0.6512	0.1424	0.0415	0.001
Mof_C 	C 	0.9187	0.736	0.89707	0.032
Mof_C 	C 	0.1166	0.6235	0.04382	-0.113
Mof_O 	O 	0.98892	0.48997	0.94473	-0.428
Mof_O 	O 	0.94744	0.57997	0.99707	-0.481
Mof_C 	C 	0.97602	0.46863	0.57733	0.441
Mof_C 	C 	0.8572	0.095	0.09042	0.359
Mof_C 	C 	0.6475	0.0664	0.1011	0.466
Mof_C 	C 	0.8626	0.729	0.91106	-0.096
Mof_C 	C 	0.9666	0.6973	0.91028	-0.07
Mof_C 	C 	0.1589	0.6347	0.07263	0.038
Mof_C 	C 	0.0614	0.6566	0.04163	0.033
Mof_O 	O 	0.85405	0.0402	0.10078	-0.337
Mof_O 	O 	0.6399	0.0404	0.12698	-0.334
Mof_H 	H 	0.8293	0.7549	0.9019	0.066
Mof_C 	C 	0.8547	0.6853	0.93781	0.035
Mof_C 	C 	0.9589	0.6521	0.93672	0.022
Mof_H 	H 	0.0053	0.7019	0.901	0.048
Mof_H 	H 	0.197	0.613	0.0743	0.032
Mof_C 	C 	0.1454	0.678	0.09917	-0.101
Mof_C 	C 	0.049	0.6993	0.06822	-0.099
Mof_H 	H 	0.0322	0.6494	0.0217	0.028
Mof_H 	H 	0.8162	0.6815	0.9474	0.035
Mof_C 	C 	0.9029	0.6464	0.95102	-0.111
Mof_H 	H 	0.9918	0.6249	0.9451	0.038
Mof_H 	H 	0.1749	0.6859	0.1189	0.065
Mof_C 	C 	0.0914	0.7095	0.0979	0.042
Mof_H 	H 	0.0114	0.722	0.0665	0.064
Mof_C 	C 	0.8982	0.6009	0.98169	0.363
Mof_C 	C 	0.07582	0.7558	0.12672	0.045
Mof_C 	C 	0.1216	0.7897	0.14724	-0.103
Mof_C 	C 	0.01541	0.7667	0.1334	-0.119
Mof_H 	H 	0.1632	0.7826	0.1434	0.066
Mof_C 	C 	0.10626	0.8337	0.17309	0.039
Mof_C 	C 	0.00078	0.8102	0.15896	0.022
Mof_H 	H 	0.9839	0.7436	0.12	0.084
Mof_H 	H 	0.1375	0.8566	0.1868	0.033
Mof_C 	C 	0.04596	0.8446	0.1791	-0.114
Mof_H 	H 	0.9592	0.8171	0.163	0.05
Mof_C 	C 	0.03006	0.89393	0.20551	0.364
Mof_C 	C 	0.5052	0.1248	0.0221	-0.006
Mof_C 	C 	0.5506	0.0814	0.0152	0.063
Mof_H 	H 	0.5465	0.0576	0.9932	0.007
Mof_C 	C 	0.6022	0.0715	0.0392	-0.134
Mof_H 	H 	0.6336	0.0438	0.0324	0.082
Mof_C 	C 	0.6082	0.0989	0.0705	-0.033
Mof_C 	C 	0.5657	0.1487	0.0813	-0.045
Mof_H 	H 	0.5727	0.1726	0.1032	0.068
Mof_C 	C 	0.5117	0.1585	0.0559	-0.021
Mof_H 	H 	0.4808	0.1876	0.0619	0.038
Mof_C 	C 	0.6629	0.0908	0.0959	-0.005
Mof_O 	O 	0.7016	0.054	0.0912	-0.222
Mof_O 	O 	0.6774	0.1306	0.1235	-0.261
Mof_O 	O 	0.2616	0.8262	0.839	-0.202
Mof_Zn	Zn	0.22834	0.82009	0.3511	1.216
Mof_N 	N 	0.22067	0.90855	0.32528	-0.19
Mof_O 	O 	0.17097	0.76757	0.3156	-0.469
Mof_O 	O 	0.16228	0.82692	0.38466	-0.465
Mof_O 	O 	0.29687	0.78293	0.32628	-0.493
Mof_O 	O 	0.28993	0.84433	0.39353	-0.47
Mof_C 	C 	0.15881	0.91394	0.30767	-0.035
Mof_C 	C 	0.23189	0.96276	0.35168	-0.047
Mof_C 	C 	0.26506	0.91578	0.29676	-0.019
Mof_C 	C 	0.16429	0.7084	0.31487	0.406
Mof_C 	C 	0.15406	0.7844	0.40829	0.397
Mof_C 	C 	0.32308	0.7293	0.32622	0.425
Mof_C 	C 	0.31505	0.803	0.41317	0.437
Mof_N 	N 	0.14926	0.97575	0.28873	-0.191
Mof_H 	H 	0.1515	0.8783	0.2901	0.039
Mof_H 	H 	0.1291	0.9098	0.3261	0.039
Mof_N 	N 	0.22268	0.02573	0.33295	-0.185
Mof_H 	H 	0.2741	0.9601	0.3631	0.056
Mof_H 	H 	0.2036	0.9591	0.371	0.049
Mof_N 	N 	0.25668	0.97769	0.27818	-0.084
Mof_H 	H 	0.2589	0.8804	0.2789	0.04
Mof_H 	H 	0.3072	0.9128	0.3082	0.046
Mof_O 	O 	0.18214	0.67003	0.33959	-0.474
Mof_C 	C 	0.13325	0.67948	0.28107	-0.129
Mof_O 	O 	0.17849	0.73075	0.41051	-0.472
Mof_C 	C 	0.11022	0.80211	0.43548	-0.126
Mof_O 	O 	0.30945	0.68192	0.34412	-0.462
Mof_C 	C 	0.37423	0.7228	0.30267	-0.156
Mof_O 	O 	0.30518	0.7439	0.4112	-0.494
Mof_C 	C 	0.3634	0.8251	0.44199	-0.164
Mof_Zn	Zn	0.06097	0.98029	0.26539	1.212
Mof_C 	C 	0.1601	0.029	0.31518	-0.042
Mof_C 	C 	0.19454	0.98207	0.26076	-0.024
Mof_Zn	Zn	0.23476	0.10236	0.36943	1.248
Mof_C 	C 	0.2668	0.02958	0.30392	-0.03
Mof_Zn	Zn	0.24473	0.69186	0.38062	1.214
Mof_C 	C 	0.09541	0.7164	0.25709	0.044
Mof_C 	C 	0.1433	0.615	0.27212	0.046
Mof_C 	C 	0.0779	0.8593	0.43219	0.039
Mof_C 	C 	0.10125	0.7629	0.46459	0.045
Mof_C 	C 	0.389	0.7738	0.28138	0.076
Mof_C 	C 	0.4077	0.6685	0.30144	0.077
Mof_C 	C 	0.3772	0.8857	0.44804	0.1
Mof_C 	C 	0.3949	0.7801	0.46299	0.08
Mof_O 	O 	0.01886	0.03843	0.29899	-0.482
Mof_O 	O 	0.07106	0.05702	0.23284	-0.447
Mof_O 	O 	0.07371	0.92202	0.22336	-0.459
Mof_O 	O 	0.02601	0.90466	0.29129	-0.475
Mof_H 	H 	0.1304	0.0261	0.3337	0.041
Mof_H 	H 	0.154	0.0708	0.3026	0.042
Mof_H 	H 	0.1889	0.024	0.2482	0.046
Mof_H 	H 	0.1878	0.9475	0.2425	0.045
Mof_O 	O 	0.2009	0.1627	0.33024	-0.229
Mof_O 	O 	0.175	0.1388	0.39863	-0.439
Mof_O 	O 	0.2989	0.0935	0.4072	-0.222
Mof_H 	H 	0.3091	0.0273	0.3153	0.064
Mof_H 	H 	0.2617	0.0713	0.2911	0.053
Mof_N 	N 	0.25854	0.60297	0.40451	-0.202
Mof_H 	H 	0.0877	0.76	0.2628	0.031
Mof_C 	C 	0.069	0.6905	0.2252	-0.107
Mof_C 	C 	0.1191	0.5899	0.23973	-0.107
Mof_H 	H 	0.1671	0.5883	0.2886	0.028
Mof_H 	H 	0.0829	0.8871	0.4123	0.039
Mof_C 	C 	0.0378	0.8765	0.45793	-0.101
Mof_C 	C 	0.06183	0.7795	0.48986	-0.111
Mof_H 	H 	0.1229	0.7234	0.4672	0.03
Mof_H 	H 	0.3654	0.8121	0.2813	0.019
Mof_C 	C 	0.4368	0.7702	0.26055	-0.129
Mof_C 	C 	0.457	0.6654	0.28097	-0.129
Mof_H 	H 	0.3972	0.6319	0.3149	0.019
Mof_H 	H 	0.3554	0.918	0.4342	0.019
Mof_C 	C 	0.4226	0.9038	0.47392	-0.158
Mof_C 	C 	0.4419	0.7992	0.48872	-0.139
Mof_H 	H 	0.385	0.7358	0.4602	0.018
Mof_C 	C 	0.9685	0.0669	0.29365	0.398
Mof_C 	C 	0.20819	0.58924	0.42626	-0.03
Mof_C 	C 	0.3163	0.5975	0.42816	-0.012
Mof_C 	C 	0.2595	0.5497	0.37629	-0.018
Mof_H 	H 	0.0424	0.716	0.2096	0.071
Mof_C 	C 	0.0813	0.6265	0.21578	0.041
Mof_H 	H 	0.1284	0.5469	0.2336	0.069
Mof_H 	H 	0.0164	0.9161	0.4556	0.063
Mof_C 	C 	0.0291	0.8362	0.48674	0.035
Mof_H 	H 	0.057	0.7516	0.5097	0.072
Mof_H 	H 	0.4456	0.8058	0.2458	0.076
Mof_C 	C 	0.4725	0.7163	0.26043	0.057
Mof_H 	H 	0.4806	0.6272	0.2811	0.075
Mof_H 	H 	0.4311	0.9484	0.4767	0.083
Mof_C 	C 	0.4543	0.8642	0.49458	0.083
Mof_H 	H 	0.4653	0.7677	0.5022	0.078
Mof_C 	C 	0.9546	0.1191	0.3196	-0.118
Mof_N 	N 	0.21307	0.52578	0.44352	-0.207
Mof_H 	H 	0.2069	0.6226	0.4452	0.027
Mof_H 	H 	0.1695	0.5915	0.4107	0.028
Mof_N 	N 	0.3234	0.5334	0.44497	-0.097
Mof_H 	H 	0.3168	0.6306	0.4474	0.039
Mof_H 	H 	0.3511	0.6059	0.4136	0.038
Mof_N 	N 	0.264	0.4879	0.39229	-0.094
Mof_H 	H 	0.2946	0.5564	0.3617	0.043
Mof_H 	H 	0.2218	0.552	0.3598	0.041
Mof_C 	C 	0.05421	0.59975	0.18058	0.044
Mof_C 	C 	0.9852	0.8535	0.51327	0.04
Mof_C 	C 	0.5051	0.8852	0.5199	0.021
Mof_C 	C 	0.998	0.1322	0.34878	0.059
Mof_C 	C 	0.899	0.1502	0.31698	0.048
Mof_Zn	Zn	0.13629	0.51619	0.47176	1.216
Mof_C 	C 	0.2714	0.5226	0.46612	-0.011
Mof_C 	C 	0.2141	0.4767	0.41401	-0.011
Mof_C 	C 	0.3205	0.4864	0.4163	0.004
Mof_C 	C 	0.0879	0.5623	0.15884	-0.12
Mof_C 	C 	0.99443	0.6135	0.16863	-0.108
Mof_C 	C 	0.9807	0.9161	0.52623	-0.07
Mof_C 	C 	0.9466	0.8076	0.52571	-0.091
Mof_C 	C 	0.4953	0.9235	0.5488	-0.106
Mof_C 	C 	0.564	0.8588	0.5164	-0.161
Mof_H 	H 	0.0347	0.1082	0.3523	0.025
Mof_C 	C 	0.9849	0.1823	0.37244	-0.086
Mof_C 	C 	0.8866	0.1967	0.34216	-0.105
Mof_H 	H 	0.8692	0.1398	0.2979	0.035
Mof_O 	O 	0.18185	0.44471	0.51233	-0.382
Mof_O 	O 	0.08486	0.44694	0.49471	-0.54
Mof_O 	O 	0.08168	0.53538	0.42809	-0.473
Mof_O 	O 	0.15337	0.5889	0.50745	-0.444
Mof_H 	H 	0.2754	0.4797	0.4778	0.04
Mof_H 	H 	0.2715	0.5554	0.4855	0.039
Mof_H 	H 	0.1753	0.4785	0.3985	0.031
Mof_H 	H 	0.2179	0.4332	0.4248	0.027
Mof_H 	H 	0.3553	0.4934	0.4015	0.041
Mof_H 	H 	0.3251	0.443	0.4272	0.041
Mof_H 	H 	0.1289	0.5516	0.1668	0.072
Mof_C 	C 	0.06302	0.54	0.12559	0.072
Mof_C 	C 	0.96888	0.5904	0.13565	0.081
Mof_H 	H 	0.9705	0.6391	0.1832	0.078
Mof_H 	H 	0.0067	0.9485	0.5181	0.044
Mof_C 	C 	0.9392	0.9317	0.55055	0.02
Mof_C 	C 	0.9041	0.8226	0.55028	0.02
Mof_H 	H 	0.9491	0.7645	0.5173	0.067
Mof_H 	H 	0.4555	0.9399	0.5509	0.066
Mof_C 	C 	0.5402	0.9387	0.5744	0.04
Mof_C 	C 	0.6114	0.8747	0.5425	0.14
Mof_H 	H 	0.571	0.831	0.4968	0.086
Mof_H 	H 	0.0149	0.1944	0.3911	0.06
Mof_C 	C 	0.9304	0.2142	0.3694	0.048
Mof_H 	H 	0.8477	0.2167	0.3407	0.07
Mof_C 	C 	0.1295	0.4251	0.51581	0.344
Mof_H 	H 	0.0873	0.5148	0.111	0.021
Mof_C 	C 	0.00311	0.55393	0.11327	-0.172
Mof_H 	H 	0.9274	0.5996	0.1282	0.021
Mof_H 	H 	0.9369	0.9749	0.5588	0.039
Mof_C 	C 	0.9014	0.8868	0.5631	-0.096
Mof_H 	H 	0.8776	0.7905	0.5583	0.042
Mof_H 	H 	0.5303	0.9638	0.5946	0.031
Mof_C 	C 	0.5963	0.9206	0.5727	-0.061
Mof_H 	H 	0.6512	0.8576	0.5415	0.002
Mof_C 	C 	0.9187	0.264	0.39707	0.032
Mof_C 	C 	0.1166	0.3765	0.54382	-0.114
Mof_O 	O 	0.98892	0.51003	0.44473	-0.429
Mof_O 	O 	0.94744	0.42003	0.49707	-0.483
Mof_C 	C 	0.97602	0.53137	0.07733	0.441
Mof_C 	C 	0.8572	0.905	0.59042	0.36
Mof_C 	C 	0.6475	0.9336	0.6011	0.465
Mof_C 	C 	0.8626	0.271	0.41106	-0.097
Mof_C 	C 	0.9666	0.3027	0.41028	-0.07
Mof_C 	C 	0.1589	0.3653	0.57263	0.039
Mof_C 	C 	0.0614	0.3434	0.54163	0.034
Mof_O 	O 	0.85405	0.9598	0.60078	-0.337
Mof_O 	O 	0.6399	0.9596	0.62698	-0.334
Mof_H 	H 	0.8293	0.2451	0.4019	0.066
Mof_C 	C 	0.8547	0.3147	0.43781	0.035
Mof_C 	C 	0.9589	0.3479	0.43672	0.022
Mof_H 	H 	0.0053	0.2981	0.401	0.048
Mof_H 	H 	0.197	0.387	0.5743	0.032
Mof_C 	C 	0.1454	0.322	0.59917	-0.101
Mof_C 	C 	0.049	0.3007	0.56822	-0.099
Mof_H 	H 	0.0322	0.3506	0.5217	0.029
Mof_H 	H 	0.8162	0.3185	0.4474	0.034
Mof_C 	C 	0.9029	0.3536	0.45102	-0.112
Mof_H 	H 	0.9918	0.3751	0.4451	0.038
Mof_H 	H 	0.1749	0.3141	0.6189	0.065
Mof_C 	C 	0.0914	0.2905	0.5979	0.042
Mof_H 	H 	0.0114	0.278	0.5665	0.065
Mof_C 	C 	0.8982	0.3991	0.48169	0.364
Mof_C 	C 	0.07582	0.2442	0.62672	0.045
Mof_C 	C 	0.1216	0.2103	0.64724	-0.103
Mof_C 	C 	0.01541	0.2333	0.6334	-0.119
Mof_H 	H 	0.1632	0.2174	0.6434	0.066
Mof_C 	C 	0.10626	0.1663	0.67309	0.039
Mof_C 	C 	0.00078	0.1898	0.65896	0.022
Mof_H 	H 	0.9839	0.2564	0.62	0.084
Mof_H 	H 	0.1375	0.1434	0.6868	0.033
Mof_C 	C 	0.04596	0.1554	0.6791	-0.114
Mof_H 	H 	0.9592	0.1829	0.663	0.05
Mof_C 	C 	0.03006	0.10607	0.70551	0.364
Mof_C 	C 	0.5052	0.8752	0.5221	-0.006
Mof_C 	C 	0.5506	0.9186	0.5152	0.068
Mof_H 	H 	0.5465	0.9424	0.4932	0.003
Mof_C 	C 	0.6022	0.9285	0.5392	-0.136
Mof_H 	H 	0.6336	0.9562	0.5324	0.083
Mof_C 	C 	0.6082	0.9011	0.5705	-0.032
Mof_C 	C 	0.5657	0.8513	0.5813	-0.045
Mof_H 	H 	0.5727	0.8274	0.6032	0.069
Mof_C 	C 	0.5117	0.8415	0.5559	-0.02
Mof_H 	H 	0.4808	0.8124	0.5619	0.039
Mof_C 	C 	0.6629	0.9092	0.5959	-0.006
Mof_O 	O 	0.7016	0.946	0.5912	-0.222
Mof_O 	O 	0.6774	0.8694	0.6235	-0.261
Mof_O 	O 	0.2616	0.1738	0.339	-0.202
Mof_Zn	Zn	0.77166	0.82009	0.1489	1.216
Mof_N 	N 	0.77933	0.90855	0.17472	-0.19
Mof_O 	O 	0.82903	0.76757	0.1844	-0.469
Mof_O 	O 	0.83772	0.82692	0.11534	-0.465
Mof_O 	O 	0.70313	0.78293	0.17372	-0.493
Mof_O 	O 	0.71007	0.84433	0.10647	-0.47
Mof_C 	C 	0.84119	0.91394	0.19233	-0.036
Mof_C 	C 	0.76811	0.96276	0.14832	-0.047
Mof_C 	C 	0.73494	0.91578	0.20324	-0.019
Mof_C 	C 	0.83571	0.7084	0.18513	0.406
Mof_C 	C 	0.84594	0.7844	0.09171	0.402
Mof_C 	C 	0.67692	0.7293	0.17378	0.425
Mof_C 	C 	0.68495	0.803	0.08683	0.438
Mof_N 	N 	0.85074	0.97575	0.21127	-0.191
Mof_H 	H 	0.8485	0.8783	0.2099	0.039
Mof_H 	H 	0.8709	0.9098	0.1739	0.04
Mof_N 	N 	0.77732	0.02573	0.16705	-0.184
Mof_H 	H 	0.7259	0.9601	0.1369	0.056
Mof_H 	H 	0.7964	0.9591	0.129	0.049
Mof_N 	N 	0.74332	0.97769	0.22182	-0.084
Mof_H 	H 	0.7411	0.8804	0.2211	0.041
Mof_H 	H 	0.6928	0.9128	0.1918	0.046
Mof_O 	O 	0.81786	0.67003	0.16041	-0.474
Mof_C 	C 	0.86675	0.67948	0.21893	-0.127
Mof_O 	O 	0.82151	0.73075	0.08949	-0.472
Mof_C 	C 	0.88978	0.80211	0.06452	-0.136
Mof_O 	O 	0.69055	0.68192	0.15588	-0.463
Mof_C 	C 	0.62577	0.7228	0.19733	-0.156
Mof_O 	O 	0.69482	0.7439	0.0888	-0.495
Mof_C 	C 	0.6366	0.8251	0.05801	-0.168
Mof_Zn	Zn	0.93903	0.98029	0.23461	1.214
Mof_C 	C 	0.8399	0.029	0.18482	-0.043
Mof_C 	C 	0.80546	0.98207	0.23924	-0.025
Mof_Zn	Zn	0.76524	0.10236	0.13057	1.248
Mof_C 	C 	0.7332	0.02958	0.19608	-0.03
Mof_Zn	Zn	0.75526	0.69186	0.11938	1.214
Mof_C 	C 	0.90459	0.7164	0.24291	0.045
Mof_C 	C 	0.8567	0.615	0.22788	0.046
Mof_C 	C 	0.9221	0.8593	0.06781	0.055
Mof_C 	C 	0.89875	0.7629	0.03541	0.064
Mof_C 	C 	0.611	0.7738	0.21862	0.076
Mof_C 	C 	0.5923	0.6685	0.19856	0.077
Mof_C 	C 	0.6228	0.8857	0.05196	0.103
Mof_C 	C 	0.6051	0.7801	0.03701	0.085
Mof_O 	O 	0.98114	0.03843	0.20101	-0.454
Mof_O 	O 	0.92894	0.05702	0.26716	-0.452
Mof_O 	O 	0.92629	0.92202	0.27664	-0.465
Mof_O 	O 	0.97399	0.90466	0.20871	-0.449
Mof_H 	H 	0.8696	0.0261	0.1663	0.041
Mof_H 	H 	0.846	0.0708	0.1974	0.043
Mof_H 	H 	0.8111	0.024	0.2518	0.047
Mof_H 	H 	0.8122	0.9475	0.2575	0.046
Mof_O 	O 	0.7991	0.1627	0.16976	-0.227
Mof_O 	O 	0.825	0.1388	0.10137	-0.437
Mof_O 	O 	0.7011	0.0935	0.0928	-0.223
Mof_H 	H 	0.6909	0.0273	0.1847	0.064
Mof_H 	H 	0.7383	0.0713	0.2089	0.054
Mof_N 	N 	0.74146	0.60297	0.09549	-0.202
Mof_H 	H 	0.9123	0.76	0.2372	0.033
Mof_C 	C 	0.931	0.6905	0.2748	-0.103
Mof_C 	C 	0.8809	0.5899	0.26027	-0.105
Mof_H 	H 	0.8329	0.5883	0.2114	0.029
Mof_H 	H 	0.9171	0.8871	0.0877	0.037
Mof_C 	C 	0.9622	0.8765	0.04207	-0.116
Mof_C 	C 	0.93817	0.7795	0.01014	-0.134
Mof_H 	H 	0.8771	0.7234	0.0328	0.024
Mof_H 	H 	0.6346	0.8121	0.2187	0.019
Mof_C 	C 	0.5632	0.7702	0.23945	-0.129
Mof_C 	C 	0.543	0.6654	0.21903	-0.129
Mof_H 	H 	0.6028	0.6319	0.1851	0.019
Mof_H 	H 	0.6446	0.918	0.0658	0.018
Mof_C 	C 	0.5774	0.9038	0.02608	-0.161
Mof_C 	C 	0.5581	0.7992	0.01128	-0.15
Mof_H 	H 	0.615	0.7358	0.0398	0.015
Mof_C 	C 	0.0315	0.0669	0.20635	0.357
Mof_C 	C 	0.79181	0.58924	0.07374	-0.031
Mof_C 	C 	0.6837	0.5975	0.07184	-0.012
Mof_C 	C 	0.7405	0.5497	0.12371	-0.018
Mof_H 	H 	0.9576	0.716	0.2904	0.075
Mof_C 	C 	0.9187	0.6265	0.28422	0.041
Mof_H 	H 	0.8716	0.5469	0.2664	0.07
Mof_H 	H 	0.9836	0.9161	0.0444	0.075
Mof_C 	C 	0.9709	0.8362	0.01326	0.066
Mof_H 	H 	0.943	0.7516	0.9903	0.088
Mof_H 	H 	0.5544	0.8058	0.2542	0.076
Mof_C 	C 	0.5275	0.7163	0.23957	0.057
Mof_H 	H 	0.5194	0.6272	0.2189	0.075
Mof_H 	H 	0.5689	0.9484	0.0233	0.083
Mof_C 	C 	0.5457	0.8642	0.00542	0.085
Mof_H 	H 	0.5347	0.7677	0.9978	0.085
Mof_C 	C 	0.0454	0.1191	0.1804	-0.093
Mof_N 	N 	0.78693	0.52578	0.05648	-0.207
Mof_H 	H 	0.7931	0.6226	0.0548	0.027
Mof_H 	H 	0.8305	0.5915	0.0893	0.03
Mof_N 	N 	0.6766	0.5334	0.05503	-0.097
Mof_H 	H 	0.6832	0.6306	0.0526	0.039
Mof_H 	H 	0.6489	0.6059	0.0864	0.038
Mof_N 	N 	0.736	0.4879	0.10771	-0.094
Mof_H 	H 	0.7054	0.5564	0.1383	0.044
Mof_H 	H 	0.7782	0.552	0.1402	0.042
Mof_C 	C 	0.94579	0.59975	0.31942	0.057
Mof_C 	C 	0.0148	0.8535	0.98673	0.031
Mof_C 	C 	0.4949	0.8852	0.9801	0.021
Mof_C 	C 	0.002	0.1322	0.15122	0.009
Mof_C 	C 	0.101	0.1502	0.18302	0.027
Mof_Zn	Zn	0.86371	0.51619	0.02824	1.216
Mof_C 	C 	0.7286	0.5226	0.03388	-0.011
Mof_C 	C 	0.7859	0.4767	0.08599	-0.012
Mof_C 	C 	0.6795	0.4864	0.0837	0.004
Mof_C 	C 	0.9121	0.5623	0.34116	-0.103
Mof_C 	C 	0.00557	0.6135	0.33137	-0.116
Mof_C 	C 	0.0193	0.9161	0.97377	-0.123
Mof_C 	C 	0.0534	0.8076	0.97429	-0.093
Mof_C 	C 	0.5047	0.9235	0.9512	-0.106
Mof_C 	C 	0.436	0.8588	0.9836	-0.157
Mof_H 	H 	0.9653	0.1082	0.1477	0.055
Mof_C 	C 	0.0151	0.1823	0.12756	-0.101
Mof_C 	C 	0.1134	0.1967	0.15784	-0.089
Mof_H 	H 	0.1308	0.1398	0.2021	0.041
Mof_O 	O 	0.81815	0.44471	0.98767	-0.381
Mof_O 	O 	0.91514	0.44694	0.00529	-0.538
Mof_O 	O 	0.91832	0.53538	0.07191	-0.487
Mof_O 	O 	0.84663	0.5889	0.99255	-0.438
Mof_H 	H 	0.7246	0.4797	0.0222	0.039
Mof_H 	H 	0.7285	0.5554	0.0145	0.037
Mof_H 	H 	0.8247	0.4785	0.1015	0.034
Mof_H 	H 	0.7821	0.4332	0.0752	0.028
Mof_H 	H 	0.6447	0.4934	0.0985	0.04
Mof_H 	H 	0.6749	0.443	0.0728	0.041
Mof_H 	H 	0.8711	0.5516	0.3332	0.067
Mof_C 	C 	0.93698	0.54	0.37441	0.037
Mof_C 	C 	0.03112	0.5904	0.36435	0.024
Mof_H 	H 	0.0295	0.6391	0.3168	0.074
Mof_H 	H 	0.9933	0.9485	0.9819	0.081
Mof_C 	C 	0.0608	0.9317	0.94945	0.047
Mof_C 	C 	0.0959	0.8226	0.94972	0.026
Mof_H 	H 	0.0509	0.7645	0.9827	0.063
Mof_H 	H 	0.5445	0.9399	0.9491	0.067
Mof_C 	C 	0.4598	0.9387	0.9256	0.04
Mof_C 	C 	0.3886	0.8747	0.9575	0.14
Mof_H 	H 	0.429	0.831	0.0032	0.081
Mof_H 	H 	0.9851	0.1944	0.1089	0.08
Mof_C 	C 	0.0696	0.2142	0.1306	0.031
Mof_H 	H 	0.1523	0.2167	0.1593	0.063
Mof_C 	C 	0.8705	0.4251	0.98419	0.348
Mof_H 	H 	0.9127	0.5148	0.389	0.035
Mof_C 	C 	0.99689	0.55393	0.38673	-0.093
Mof_H 	H 	0.0726	0.5996	0.3718	0.038
Mof_H 	H 	0.0631	0.9749	0.9412	0.027
Mof_C 	C 	0.0986	0.8868	0.9369	-0.11
Mof_H 	H 	0.1224	0.7905	0.9417	0.039
Mof_H 	H 	0.4697	0.9638	0.9054	0.031
Mof_C 	C 	0.4037	0.9206	0.9273	-0.06
Mof_H 	H 	0.3488	0.8576	0.9585	0.003
Mof_C 	C 	0.0813	0.264	0.10293	0.066
Mof_C 	C 	0.8834	0.3765	0.95618	-0.114
Mof_O 	O 	0.01108	0.51003	0.05527	-0.466
Mof_O 	O 	0.05256	0.42003	0.00293	-0.497
Mof_C 	C 	0.02398	0.53137	0.42267	0.366
Mof_C 	C 	0.1428	0.905	0.90958	0.365
Mof_C 	C 	0.3525	0.9336	0.8989	0.465
Mof_C 	C 	0.1374	0.271	0.08894	-0.127
Mof_C 	C 	0.0334	0.3027	0.08972	-0.151
Mof_C 	C 	0.8411	0.3653	0.92737	0.042
Mof_C 	C 	0.9386	0.3434	0.95837	0.037
Mof_O 	O 	0.14595	0.9598	0.89922	-0.339
Mof_O 	O 	0.3601	0.9596	0.87302	-0.333
Mof_H 	H 	0.1707	0.2451	0.0981	0.074
Mof_C 	C 	0.1453	0.3147	0.06219	0.062
Mof_C 	C 	0.0411	0.3479	0.06328	0.069
Mof_H 	H 	0.9947	0.2981	0.099	0.093
Mof_H 	H 	0.803	0.387	0.9257	0.031
Mof_C 	C 	0.8546	0.322	0.90083	-0.105
Mof_C 	C 	0.951	0.3007	0.93178	-0.101
Mof_H 	H 	0.9678	0.3506	0.9783	0.038
Mof_H 	H 	0.1838	0.3185	0.0526	0.024
Mof_C 	C 	0.0971	0.3536	0.04898	-0.141
Mof_H 	H 	0.0082	0.3751	0.0549	0.013
Mof_H 	H 	0.8251	0.3141	0.8811	0.067
Mof_C 	C 	0.9086	0.2905	0.9021	0.05
Mof_H 	H 	0.9886	0.278	0.9335	0.076
Mof_C 	C 	0.1018	0.3991	0.01831	0.376
Mof_C 	C 	0.92418	0.2442	0.87328	0.039
Mof_C 	C 	0.8784	0.2103	0.85276	-0.104
Mof_C 	C 	0.98459	0.2333	0.8666	-0.091
Mof_H 	H 	0.8368	0.2174	0.8566	0.067
Mof_C 	C 	0.89374	0.1663	0.82691	0.049
Mof_C 	C 	0.99922	0.1898	0.84104	0.063
Mof_H 	H 	0.0161	0.2564	0.88	0.058
Mof_H 	H 	0.8625	0.1434	0.8132	0.03
Mof_C 	C 	0.95404	0.1554	0.8209	-0.134
Mof_H 	H 	0.0408	0.1829	0.837	0.023
Mof_C 	C 	0.96994	0.10607	0.79449	0.402
Mof_C 	C 	0.4948	0.8752	0.9779	-0.007
Mof_C 	C 	0.4494	0.9186	0.9848	0.076
Mof_H 	H 	0.4535	0.9424	0.0068	-0.003
Mof_C 	C 	0.3978	0.9285	0.9608	-0.141
Mof_H 	H 	0.3664	0.9562	0.9676	0.085
Mof_C 	C 	0.3918	0.9011	0.9295	-0.031
Mof_C 	C 	0.4343	0.8513	0.9187	-0.046
Mof_H 	H 	0.4273	0.8274	0.8968	0.069
Mof_C 	C 	0.4883	0.8415	0.9441	-0.019
Mof_H 	H 	0.5192	0.8124	0.9381	0.039
Mof_C 	C 	0.3371	0.9092	0.9041	-0.006
Mof_O 	O 	0.2984	0.946	0.9088	-0.222
Mof_O 	O 	0.3226	0.8694	0.8765	-0.261
Mof_O 	O 	0.7384	0.1738	0.161	-0.201
Mof_Zn	Zn	1.34549e-17	0.5	0.5	1.239
Mof_Zn	Zn	-0	0.5	-0	1.238
_end
