data_functionalizedCrystal
_audit_creation_method	'EQeq! by Chris Wilmer'
_symmetry_space_group_name_H-M	'P1'
_symmetry_Int_Tables_number	1
_symmetry_cell_setting	triclinic
loop_
_symmetry_equiv_pos_as_xyz
  x,y,z
_cell_length_a	26.533
_cell_length_b	26.533
_cell_length_c	4.5396
_cell_angle_alpha	90
_cell_angle_beta	90
_cell_angle_gamma	90
loop_
_atom_site_label
_atom_site_type_symbol
_atom_site_fract_x
_atom_site_fract_y
_atom_site_fract_z
_atom_site_charge
Mof_Zn	Zn	0.26864	0.21554	0.9402	1.203
Mof_O 	O 	0.2268	0.278	0.001	-0.738
Mof_H 	H 	0.205	0.2895	0.8835	0.238
Mof_N 	N 	0.2405	0.1488	0.986	-0.308
Mof_C 	C 	0.2564	0.1127	0.158	0.139
Mof_H 	H 	0.2818	0.1167	0.2972	-0.026
Mof_N 	N 	0.2316	0.0688	0.109	-0.16
Mof_C 	C 	0.2004	0.1246	0.806	0.048
Mof_O 	O 	0.2661	0.8373	0.488	-0.517
Mof_C 	C 	0.1716	0.1471	0.589	-0.143
Mof_H 	H 	0.1761	0.1808	0.5401	0.069
Mof_O 	O 	0.3384	0.8669	0.441	-0.329
Mof_C 	C 	0.1355	0.1176	0.446	0.066
Mof_C 	C 	0.1058	0.1383	0.227	-0.11
Mof_H 	H 	0.1101	0.172	0.1776	0.08
Mof_C 	C 	0.0696	0.11	0.079	0.001
Mof_H 	H 	0.0496	0.1239	0.9313	0.019
Mof_C 	C 	0.0651	0.0599	0.163	-0.043
Mof_H 	H 	0.0414	0.0397	0.069	0.038
Mof_C 	C 	0.0948	0.0393	0.383	-0.079
Mof_H 	H 	0.0902	0.0056	0.4329	0.056
Mof_C 	C 	0.131	0.067	0.531	0.033
Mof_C 	C 	0.1601	0.0448	0.749	-0.118
Mof_H 	H 	0.156	0.011	0.7982	0.07
Mof_C 	C 	0.1954	0.0746	0.89	0.058
Mof_C 	C 	0.2449	0.0202	0.233	0.168
Mof_C 	C 	0.2688	0.9263	0.442	-0.174
Mof_C 	C 	0.2651	0.0142	0.511	-0.096
Mof_H 	H 	0.2706	0.0426	0.6274	0.067
Mof_C 	C 	0.2773	0.9675	0.621	0.036
Mof_H 	H 	0.2908	0.9638	0.8088	0.031
Mof_C 	C 	0.2486	0.9301	0.163	-0.003
Mof_H 	H 	0.2431	0.9017	0.0479	0.062
Mof_C 	C 	0.2369	0.9777	0.062	-0.06
Mof_H 	H 	0.2234	0.9814	0.8741	0.054
Mof_C 	C 	0.2914	0.8749	0.508	0.571
Mof_O 	O 	0.276	0.871	0.773	-0.282
Mof_C 	C 	0.294	0.0095	0.313	-0.115
Mof_H 	H 	0.3186	0.0343	0.2952	0.078
Mof_C 	C 	0.3075	0.962	0.421	0.046
Mof_H 	H 	0.3404	0.9544	0.4749	0.032
Mof_C 	C 	0.2182	0.9334	0.367	0.078
Mof_H 	H 	0.1936	0.9087	0.3837	0.008
Mof_C 	C 	0.209	0.9821	0.262	-0.142
Mof_H 	H 	0.1762	0.9898	0.2073	0.08
Mof_Zn	Zn	0.76864	0.71554	0.4402	1.215
Mof_O 	O 	0.7268	0.778	0.501	-0.78
Mof_H 	H 	0.705	0.7895	0.3835	0.27
Mof_N 	N 	0.7405	0.6488	0.486	-0.284
Mof_C 	C 	0.7564	0.6127	0.658	0.108
Mof_H 	H 	0.7818	0.6167	0.7972	-0.018
Mof_N 	N 	0.7316	0.5688	0.609	-0.165
Mof_C 	C 	0.7004	0.6246	0.306	0.019
Mof_O 	O 	0.7661	0.3373	0.988	-0.465
Mof_C 	C 	0.6716	0.6471	0.089	-0.076
Mof_H 	H 	0.6761	0.6808	0.0401	0.049
Mof_O 	O 	0.8384	0.3669	0.941	-0.289
Mof_C 	C 	0.6355	0.6176	0.946	-0.026
Mof_C 	C 	0.6058	0.6383	0.727	-0.038
Mof_H 	H 	0.6101	0.672	0.6776	0.045
Mof_C 	C 	0.5696	0.61	0.579	-0.078
Mof_H 	H 	0.5496	0.6239	0.4313	0.051
Mof_C 	C 	0.5651	0.5599	0.663	0.025
Mof_H 	H 	0.5414	0.5397	0.569	0.016
Mof_C 	C 	0.5948	0.5393	0.883	-0.153
Mof_H 	H 	0.5902	0.5056	0.9329	0.082
Mof_C 	C 	0.631	0.567	0.031	0.113
Mof_C 	C 	0.6601	0.5448	0.249	-0.174
Mof_H 	H 	0.656	0.511	0.2982	0.088
Mof_C 	C 	0.6954	0.5746	0.39	0.1
Mof_C 	C 	0.7449	0.5202	0.733	0.152
Mof_C 	C 	0.7688	0.4263	0.942	-0.091
Mof_C 	C 	0.7651	0.5142	0.011	-0.109
Mof_H 	H 	0.7706	0.5426	0.1274	0.076
Mof_C 	C 	0.7773	0.4675	0.121	-0.01
Mof_H 	H 	0.7908	0.4638	0.3088	0.047
Mof_C 	C 	0.7486	0.4301	0.663	0.032
Mof_H 	H 	0.7431	0.4017	0.5479	0.054
Mof_C 	C 	0.7369	0.4777	0.562	-0.131
Mof_H 	H 	0.7234	0.4814	0.3741	0.08
Mof_C 	C 	0.7914	0.3749	0.008	0.462
Mof_O 	O 	0.776	0.371	0.273	-0.277
Mof_C 	C 	0.794	0.5095	0.813	-0.077
Mof_H 	H 	0.8186	0.5343	0.7952	0.066
Mof_C 	C 	0.8075	0.462	0.921	0.027
Mof_H 	H 	0.8404	0.4544	0.9749	0.044
Mof_C 	C 	0.7182	0.4334	0.867	-0.011
Mof_H 	H 	0.6936	0.4087	0.8837	0.045
Mof_C 	C 	0.709	0.4821	0.762	-0.047
Mof_H 	H 	0.6762	0.4898	0.7073	0.044
Mof_Zn	Zn	0.73136	0.78446	0.9402	1.204
Mof_O 	O 	0.7732	0.722	0.001	-0.737
Mof_H 	H 	0.795	0.7105	0.8835	0.239
Mof_N 	N 	0.7595	0.8512	0.986	-0.307
Mof_C 	C 	0.7436	0.8873	0.158	0.139
Mof_H 	H 	0.7182	0.8833	0.2972	-0.026
Mof_N 	N 	0.7684	0.9312	0.109	-0.16
Mof_C 	C 	0.7996	0.8754	0.806	0.048
Mof_O 	O 	0.7339	0.1627	0.488	-0.517
Mof_C 	C 	0.8284	0.8529	0.589	-0.143
Mof_H 	H 	0.8239	0.8192	0.5401	0.069
Mof_O 	O 	0.6616	0.1331	0.441	-0.329
Mof_C 	C 	0.8645	0.8824	0.446	0.066
Mof_C 	C 	0.8942	0.8617	0.227	-0.11
Mof_H 	H 	0.8899	0.828	0.1776	0.08
Mof_C 	C 	0.9304	0.89	0.079	0.001
Mof_H 	H 	0.9504	0.8761	0.9313	0.019
Mof_C 	C 	0.9349	0.9401	0.163	-0.043
Mof_H 	H 	0.9586	0.9603	0.069	0.038
Mof_C 	C 	0.9052	0.9607	0.383	-0.079
Mof_H 	H 	0.9098	0.9944	0.4329	0.056
Mof_C 	C 	0.869	0.933	0.531	0.033
Mof_C 	C 	0.8399	0.9552	0.749	-0.118
Mof_H 	H 	0.844	0.989	0.7982	0.07
Mof_C 	C 	0.8046	0.9254	0.89	0.058
Mof_C 	C 	0.7551	0.9798	0.233	0.168
Mof_C 	C 	0.7312	0.0737	0.442	-0.174
Mof_C 	C 	0.7349	0.9858	0.511	-0.096
Mof_H 	H 	0.7294	0.9574	0.6274	0.067
Mof_C 	C 	0.7227	0.0325	0.621	0.036
Mof_H 	H 	0.7092	0.0362	0.8088	0.031
Mof_C 	C 	0.7514	0.0699	0.163	-0.003
Mof_H 	H 	0.7569	0.0983	0.0479	0.062
Mof_C 	C 	0.7631	0.0223	0.062	-0.06
Mof_H 	H 	0.7766	0.0186	0.8741	0.054
Mof_C 	C 	0.7086	0.1251	0.508	0.571
Mof_O 	O 	0.724	0.129	0.773	-0.282
Mof_C 	C 	0.706	0.9905	0.313	-0.115
Mof_H 	H 	0.6814	0.9657	0.2952	0.078
Mof_C 	C 	0.6925	0.038	0.421	0.046
Mof_H 	H 	0.6596	0.0456	0.4749	0.032
Mof_C 	C 	0.7818	0.0666	0.367	0.078
Mof_H 	H 	0.8064	0.0913	0.3837	0.008
Mof_C 	C 	0.791	0.0179	0.262	-0.142
Mof_H 	H 	0.8238	0.0102	0.2073	0.08
Mof_Zn	Zn	0.23136	0.28446	0.4402	1.215
Mof_O 	O 	0.2732	0.222	0.501	-0.78
Mof_H 	H 	0.295	0.2105	0.3835	0.27
Mof_N 	N 	0.2595	0.3512	0.486	-0.284
Mof_C 	C 	0.2436	0.3873	0.658	0.108
Mof_H 	H 	0.2182	0.3833	0.7972	-0.018
Mof_N 	N 	0.2684	0.4312	0.609	-0.165
Mof_C 	C 	0.2996	0.3754	0.306	0.019
Mof_O 	O 	0.2339	0.6627	0.988	-0.465
Mof_C 	C 	0.3284	0.3529	0.089	-0.076
Mof_H 	H 	0.3239	0.3192	0.0401	0.049
Mof_O 	O 	0.1616	0.6331	0.941	-0.289
Mof_C 	C 	0.3645	0.3824	0.946	-0.026
Mof_C 	C 	0.3942	0.3617	0.727	-0.038
Mof_H 	H 	0.3899	0.328	0.6776	0.045
Mof_C 	C 	0.4304	0.39	0.579	-0.078
Mof_H 	H 	0.4504	0.3761	0.4313	0.051
Mof_C 	C 	0.4349	0.4401	0.663	0.025
Mof_H 	H 	0.4586	0.4603	0.569	0.016
Mof_C 	C 	0.4052	0.4607	0.883	-0.153
Mof_H 	H 	0.4098	0.4944	0.9329	0.082
Mof_C 	C 	0.369	0.433	0.031	0.113
Mof_C 	C 	0.3399	0.4552	0.249	-0.174
Mof_H 	H 	0.344	0.489	0.2982	0.088
Mof_C 	C 	0.3046	0.4254	0.39	0.1
Mof_C 	C 	0.2551	0.4798	0.733	0.152
Mof_C 	C 	0.2312	0.5737	0.942	-0.091
Mof_C 	C 	0.2349	0.4858	0.011	-0.109
Mof_H 	H 	0.2294	0.4574	0.1274	0.076
Mof_C 	C 	0.2227	0.5325	0.121	-0.01
Mof_H 	H 	0.2092	0.5362	0.3088	0.047
Mof_C 	C 	0.2514	0.5699	0.663	0.032
Mof_H 	H 	0.2569	0.5983	0.5479	0.054
Mof_C 	C 	0.2631	0.5223	0.562	-0.131
Mof_H 	H 	0.2766	0.5186	0.3741	0.08
Mof_C 	C 	0.2086	0.6251	0.008	0.462
Mof_O 	O 	0.224	0.629	0.273	-0.277
Mof_C 	C 	0.206	0.4905	0.813	-0.077
Mof_H 	H 	0.1814	0.4657	0.7952	0.066
Mof_C 	C 	0.1925	0.538	0.921	0.027
Mof_H 	H 	0.1596	0.5456	0.9749	0.044
Mof_C 	C 	0.2818	0.5666	0.867	-0.011
Mof_H 	H 	0.3064	0.5913	0.8837	0.045
Mof_C 	C 	0.291	0.5179	0.762	-0.047
Mof_H 	H 	0.3238	0.5102	0.7073	0.044
Mof_Zn	Zn	0.21554	0.73136	0.0598	1.204
Mof_O 	O 	0.278	0.7732	0.999	-0.737
Mof_H 	H 	0.2895	0.795	0.1165	0.239
Mof_N 	N 	0.1488	0.7595	0.014	-0.307
Mof_C 	C 	0.1127	0.7436	0.842	0.139
Mof_H 	H 	0.1167	0.7182	0.7028	-0.026
Mof_N 	N 	0.0688	0.7684	0.891	-0.16
Mof_C 	C 	0.1246	0.7996	0.194	0.048
Mof_O 	O 	0.8373	0.7339	0.512	-0.517
Mof_C 	C 	0.1471	0.8284	0.411	-0.143
Mof_H 	H 	0.1808	0.8239	0.4599	0.069
Mof_O 	O 	0.8669	0.6616	0.559	-0.329
Mof_C 	C 	0.1176	0.8645	0.554	0.066
Mof_C 	C 	0.1383	0.8942	0.773	-0.11
Mof_H 	H 	0.172	0.8899	0.8224	0.08
Mof_C 	C 	0.11	0.9304	0.921	0.001
Mof_H 	H 	0.1239	0.9504	0.0687	0.019
Mof_C 	C 	0.0599	0.9349	0.837	-0.043
Mof_H 	H 	0.0397	0.9586	0.931	0.038
Mof_C 	C 	0.0393	0.9052	0.617	-0.079
Mof_H 	H 	0.0056	0.9098	0.5671	0.056
Mof_C 	C 	0.067	0.869	0.469	0.033
Mof_C 	C 	0.0448	0.8399	0.251	-0.118
Mof_H 	H 	0.011	0.844	0.2018	0.07
Mof_C 	C 	0.0746	0.8046	0.11	0.058
Mof_C 	C 	0.0202	0.7551	0.767	0.168
Mof_C 	C 	0.9263	0.7312	0.558	-0.174
Mof_C 	C 	0.0142	0.7349	0.489	-0.096
Mof_H 	H 	0.0426	0.7294	0.3726	0.067
Mof_C 	C 	0.9675	0.7227	0.379	0.036
Mof_H 	H 	0.9638	0.7092	0.1912	0.031
Mof_C 	C 	0.9301	0.7514	0.837	-0.003
Mof_H 	H 	0.9017	0.7569	0.9521	0.062
Mof_C 	C 	0.9777	0.7631	0.938	-0.06
Mof_H 	H 	0.9814	0.7766	0.1259	0.054
Mof_C 	C 	0.8749	0.7086	0.492	0.571
Mof_O 	O 	0.871	0.724	0.227	-0.282
Mof_C 	C 	0.0095	0.706	0.687	-0.115
Mof_H 	H 	0.0343	0.6814	0.7048	0.078
Mof_C 	C 	0.962	0.6925	0.579	0.046
Mof_H 	H 	0.9544	0.6596	0.5251	0.032
Mof_C 	C 	0.9334	0.7818	0.633	0.078
Mof_H 	H 	0.9087	0.8064	0.6163	0.008
Mof_C 	C 	0.9821	0.791	0.738	-0.142
Mof_H 	H 	0.9898	0.8238	0.7927	0.08
Mof_Zn	Zn	0.71554	0.23136	0.5598	1.215
Mof_O 	O 	0.778	0.2732	0.499	-0.78
Mof_H 	H 	0.7895	0.295	0.6165	0.27
Mof_N 	N 	0.6488	0.2595	0.514	-0.284
Mof_C 	C 	0.6127	0.2436	0.342	0.108
Mof_H 	H 	0.6167	0.2182	0.2028	-0.018
Mof_N 	N 	0.5688	0.2684	0.391	-0.165
Mof_C 	C 	0.6246	0.2996	0.694	0.019
Mof_O 	O 	0.3373	0.2339	0.012	-0.465
Mof_C 	C 	0.6471	0.3284	0.911	-0.076
Mof_H 	H 	0.6808	0.3239	0.9599	0.049
Mof_O 	O 	0.3669	0.1616	0.059	-0.289
Mof_C 	C 	0.6176	0.3645	0.054	-0.026
Mof_C 	C 	0.6383	0.3942	0.273	-0.038
Mof_H 	H 	0.672	0.3899	0.3224	0.045
Mof_C 	C 	0.61	0.4304	0.421	-0.078
Mof_H 	H 	0.6239	0.4504	0.5687	0.051
Mof_C 	C 	0.5599	0.4349	0.337	0.025
Mof_H 	H 	0.5397	0.4586	0.431	0.016
Mof_C 	C 	0.5393	0.4052	0.117	-0.153
Mof_H 	H 	0.5056	0.4098	0.0671	0.082
Mof_C 	C 	0.567	0.369	0.969	0.113
Mof_C 	C 	0.5448	0.3399	0.751	-0.174
Mof_H 	H 	0.511	0.344	0.7018	0.088
Mof_C 	C 	0.5746	0.3046	0.61	0.1
Mof_C 	C 	0.5202	0.2551	0.267	0.152
Mof_C 	C 	0.4263	0.2312	0.058	-0.091
Mof_C 	C 	0.5142	0.2349	0.989	-0.109
Mof_H 	H 	0.5426	0.2294	0.8726	0.076
Mof_C 	C 	0.4675	0.2227	0.879	-0.01
Mof_H 	H 	0.4638	0.2092	0.6912	0.047
Mof_C 	C 	0.4301	0.2514	0.337	0.032
Mof_H 	H 	0.4017	0.2569	0.4521	0.054
Mof_C 	C 	0.4777	0.2631	0.438	-0.131
Mof_H 	H 	0.4814	0.2766	0.6259	0.08
Mof_C 	C 	0.3749	0.2086	0.992	0.462
Mof_O 	O 	0.371	0.224	0.727	-0.277
Mof_C 	C 	0.5095	0.206	0.187	-0.077
Mof_H 	H 	0.5343	0.1814	0.2048	0.066
Mof_C 	C 	0.462	0.1925	0.079	0.027
Mof_H 	H 	0.4544	0.1596	0.0251	0.044
Mof_C 	C 	0.4334	0.2818	0.133	-0.011
Mof_H 	H 	0.4087	0.3064	0.1163	0.045
Mof_C 	C 	0.4821	0.291	0.238	-0.047
Mof_H 	H 	0.4898	0.3238	0.2927	0.044
Mof_Zn	Zn	0.78446	0.26864	0.0598	1.204
Mof_O 	O 	0.722	0.2268	0.999	-0.737
Mof_H 	H 	0.7105	0.205	0.1165	0.239
Mof_N 	N 	0.8512	0.2405	0.014	-0.307
Mof_C 	C 	0.8873	0.2564	0.842	0.139
Mof_H 	H 	0.8833	0.2818	0.7028	-0.026
Mof_N 	N 	0.9312	0.2316	0.891	-0.16
Mof_C 	C 	0.8754	0.2004	0.194	0.048
Mof_O 	O 	0.1627	0.2661	0.512	-0.517
Mof_C 	C 	0.8529	0.1716	0.411	-0.143
Mof_H 	H 	0.8192	0.1761	0.4599	0.069
Mof_O 	O 	0.1331	0.3384	0.559	-0.329
Mof_C 	C 	0.8824	0.1355	0.554	0.066
Mof_C 	C 	0.8617	0.1058	0.773	-0.11
Mof_H 	H 	0.828	0.1101	0.8224	0.08
Mof_C 	C 	0.89	0.0696	0.921	0.001
Mof_H 	H 	0.8761	0.0496	0.0687	0.019
Mof_C 	C 	0.9401	0.0651	0.837	-0.043
Mof_H 	H 	0.9603	0.0414	0.931	0.038
Mof_C 	C 	0.9607	0.0948	0.617	-0.079
Mof_H 	H 	0.9944	0.0902	0.5671	0.056
Mof_C 	C 	0.933	0.131	0.469	0.033
Mof_C 	C 	0.9552	0.1601	0.251	-0.118
Mof_H 	H 	0.989	0.156	0.2018	0.07
Mof_C 	C 	0.9254	0.1954	0.11	0.058
Mof_C 	C 	0.9798	0.2449	0.767	0.168
Mof_C 	C 	0.0737	0.2688	0.558	-0.174
Mof_C 	C 	0.9858	0.2651	0.489	-0.096
Mof_H 	H 	0.9574	0.2706	0.3726	0.067
Mof_C 	C 	0.0325	0.2773	0.379	0.036
Mof_H 	H 	0.0362	0.2908	0.1912	0.031
Mof_C 	C 	0.0699	0.2486	0.837	-0.003
Mof_H 	H 	0.0983	0.2431	0.9521	0.062
Mof_C 	C 	0.0223	0.2369	0.938	-0.06
Mof_H 	H 	0.0186	0.2234	0.1259	0.054
Mof_C 	C 	0.1251	0.2914	0.492	0.571
Mof_O 	O 	0.129	0.276	0.227	-0.282
Mof_C 	C 	0.9905	0.294	0.687	-0.115
Mof_H 	H 	0.9657	0.3186	0.7048	0.078
Mof_C 	C 	0.038	0.3075	0.579	0.046
Mof_H 	H 	0.0456	0.3404	0.5251	0.032
Mof_C 	C 	0.0666	0.2182	0.633	0.078
Mof_H 	H 	0.0913	0.1936	0.6163	0.008
Mof_C 	C 	0.0179	0.209	0.738	-0.142
Mof_H 	H 	0.0102	0.1762	0.7927	0.08
Mof_Zn	Zn	0.28446	0.76864	0.5598	1.215
Mof_O 	O 	0.222	0.7268	0.499	-0.78
Mof_H 	H 	0.2105	0.705	0.6165	0.27
Mof_N 	N 	0.3512	0.7405	0.514	-0.284
Mof_C 	C 	0.3873	0.7564	0.342	0.108
Mof_H 	H 	0.3833	0.7818	0.2028	-0.018
Mof_N 	N 	0.4312	0.7316	0.391	-0.165
Mof_C 	C 	0.3754	0.7004	0.694	0.019
Mof_O 	O 	0.6627	0.7661	0.012	-0.465
Mof_C 	C 	0.3529	0.6716	0.911	-0.076
Mof_H 	H 	0.3192	0.6761	0.9599	0.049
Mof_O 	O 	0.6331	0.8384	0.059	-0.289
Mof_C 	C 	0.3824	0.6355	0.054	-0.026
Mof_C 	C 	0.3617	0.6058	0.273	-0.038
Mof_H 	H 	0.328	0.6101	0.3224	0.045
Mof_C 	C 	0.39	0.5696	0.421	-0.078
Mof_H 	H 	0.3761	0.5496	0.5687	0.051
Mof_C 	C 	0.4401	0.5651	0.337	0.025
Mof_H 	H 	0.4603	0.5414	0.431	0.016
Mof_C 	C 	0.4607	0.5948	0.117	-0.153
Mof_H 	H 	0.4944	0.5902	0.0671	0.082
Mof_C 	C 	0.433	0.631	0.969	0.113
Mof_C 	C 	0.4552	0.6601	0.751	-0.174
Mof_H 	H 	0.489	0.656	0.7018	0.088
Mof_C 	C 	0.4254	0.6954	0.61	0.1
Mof_C 	C 	0.4798	0.7449	0.267	0.152
Mof_C 	C 	0.5737	0.7688	0.058	-0.091
Mof_C 	C 	0.4858	0.7651	0.989	-0.109
Mof_H 	H 	0.4574	0.7706	0.8726	0.076
Mof_C 	C 	0.5325	0.7773	0.879	-0.01
Mof_H 	H 	0.5362	0.7908	0.6912	0.047
Mof_C 	C 	0.5699	0.7486	0.337	0.032
Mof_H 	H 	0.5983	0.7431	0.4521	0.054
Mof_C 	C 	0.5223	0.7369	0.438	-0.131
Mof_H 	H 	0.5186	0.7234	0.6259	0.08
Mof_C 	C 	0.6251	0.7914	0.992	0.462
Mof_O 	O 	0.629	0.776	0.727	-0.277
Mof_C 	C 	0.4905	0.794	0.187	-0.077
Mof_H 	H 	0.4657	0.8186	0.2048	0.066
Mof_C 	C 	0.538	0.8075	0.079	0.027
Mof_H 	H 	0.5456	0.8404	0.0251	0.044
Mof_C 	C 	0.5666	0.7182	0.133	-0.011
Mof_H 	H 	0.5913	0.6936	0.1163	0.045
Mof_C 	C 	0.5179	0.709	0.238	-0.047
Mof_H 	H 	0.5102	0.6762	0.2927	0.044
_end
