data_functionalizedCrystal
_audit_creation_method	'EQeq! by Chris Wilmer'
_symmetry_space_group_name_H-M	'P1'
_symmetry_Int_Tables_number	1
_symmetry_cell_setting	triclinic
loop_
_symmetry_equiv_pos_as_xyz
  x,y,z
_cell_length_a	9.0606
_cell_length_b	15.7587
_cell_length_c	32.0453
_cell_angle_alpha	90
_cell_angle_beta	90
_cell_angle_gamma	90
loop_
_atom_site_label
_atom_site_type_symbol
_atom_site_fract_x
_atom_site_fract_y
_atom_site_fract_z
_atom_site_charge
Mof_P 	P 	0.3552	0.19437	0.05804	0.48
Mof_O 	O 	0.4187	0.2788	0.04664	-0.438
Mof_O 	O 	0.3025	0.143	0.02155	-0.471
Mof_O 	O 	0.2432	0.2015	0.09249	-0.465
Mof_H 	H 	0.4745	0.1522	0.0719	-0.028
Mof_P 	P 	0.3552	0.69437	0.55804	0.48
Mof_O 	O 	0.4187	0.7788	0.54664	-0.438
Mof_O 	O 	0.3025	0.643	0.52155	-0.471
Mof_O 	O 	0.2432	0.7015	0.59249	-0.465
Mof_H 	H 	0.4745	0.6522	0.5719	-0.028
Mof_P 	P 	0.8552	0.19437	0.55804	0.48
Mof_O 	O 	0.9187	0.2788	0.54664	-0.438
Mof_O 	O 	0.8025	0.143	0.52155	-0.471
Mof_O 	O 	0.7432	0.2015	0.59249	-0.465
Mof_H 	H 	0.9745	0.1522	0.5719	-0.028
Mof_P 	P 	0.8552	0.69437	0.05804	0.48
Mof_O 	O 	0.9187	0.7788	0.04664	-0.439
Mof_O 	O 	0.8025	0.643	0.02155	-0.472
Mof_O 	O 	0.7432	0.7015	0.09249	-0.466
Mof_H 	H 	0.9745	0.6522	0.0719	-0.029
Mof_P 	P 	0.3948	0.55563	0.05804	0.479
Mof_O 	O 	0.3313	0.4712	0.04664	-0.439
Mof_O 	O 	0.4475	0.607	0.02155	-0.472
Mof_O 	O 	0.5068	0.5485	0.09249	-0.466
Mof_H 	H 	0.2755	0.5978	0.0719	-0.029
Mof_P 	P 	0.3948	0.05563	0.55804	0.479
Mof_O 	O 	0.3313	0.9712	0.54664	-0.439
Mof_O 	O 	0.4475	0.107	0.52155	-0.472
Mof_O 	O 	0.5068	0.0485	0.59249	-0.466
Mof_H 	H 	0.2755	0.0978	0.5719	-0.029
Mof_P 	P 	0.8948	0.55563	0.55804	0.479
Mof_O 	O 	0.8313	0.4712	0.54664	-0.439
Mof_O 	O 	0.9475	0.607	0.52155	-0.472
Mof_O 	O 	0.0068	0.5485	0.59249	-0.466
Mof_H 	H 	0.7755	0.5978	0.5719	-0.029
Mof_P 	P 	0.8948	0.05563	0.05804	0.479
Mof_O 	O 	0.8313	0.9712	0.04664	-0.439
Mof_O 	O 	0.9475	0.107	0.02155	-0.472
Mof_O 	O 	0.0068	0.0485	0.09249	-0.466
Mof_H 	H 	0.7755	0.0978	0.0719	-0.029
Mof_P 	P 	0.3948	0.19437	0.69196	0.479
Mof_O 	O 	0.3313	0.2788	0.70336	-0.439
Mof_O 	O 	0.4475	0.143	0.72845	-0.472
Mof_O 	O 	0.5068	0.2015	0.65751	-0.466
Mof_H 	H 	0.2755	0.1522	0.6781	-0.029
Mof_P 	P 	0.3948	0.69437	0.19196	0.479
Mof_O 	O 	0.3313	0.7788	0.20336	-0.439
Mof_O 	O 	0.4475	0.643	0.22845	-0.472
Mof_O 	O 	0.5068	0.7015	0.15751	-0.466
Mof_H 	H 	0.2755	0.6522	0.1781	-0.029
Mof_P 	P 	0.8948	0.19437	0.19196	0.479
Mof_O 	O 	0.8313	0.2788	0.20336	-0.439
Mof_O 	O 	0.9475	0.143	0.22845	-0.472
Mof_O 	O 	0.0068	0.2015	0.15751	-0.466
Mof_H 	H 	0.7755	0.1522	0.1781	-0.029
Mof_P 	P 	0.8948	0.69437	0.69196	0.479
Mof_O 	O 	0.8313	0.7788	0.70336	-0.439
Mof_O 	O 	0.9475	0.643	0.72845	-0.472
Mof_O 	O 	0.0068	0.7015	0.65751	-0.466
Mof_H 	H 	0.7755	0.6522	0.6781	-0.029
Mof_P 	P 	0.3552	0.55563	0.69196	0.479
Mof_O 	O 	0.4187	0.4712	0.70336	-0.439
Mof_O 	O 	0.3025	0.607	0.72845	-0.472
Mof_O 	O 	0.2432	0.5485	0.65751	-0.466
Mof_H 	H 	0.4745	0.5978	0.6781	-0.029
Mof_P 	P 	0.3552	0.05563	0.19196	0.479
Mof_O 	O 	0.4187	0.9712	0.20336	-0.439
Mof_O 	O 	0.3025	0.107	0.22845	-0.472
Mof_O 	O 	0.2432	0.0485	0.15751	-0.466
Mof_H 	H 	0.4745	0.0978	0.1781	-0.029
Mof_P 	P 	0.8552	0.55563	0.19196	0.479
Mof_O 	O 	0.9187	0.4712	0.20336	-0.439
Mof_O 	O 	0.8025	0.607	0.22845	-0.472
Mof_O 	O 	0.7432	0.5485	0.15751	-0.466
Mof_H 	H 	0.9745	0.5978	0.1781	-0.029
Mof_P 	P 	0.8552	0.05563	0.69196	0.479
Mof_O 	O 	0.9187	0.9712	0.70336	-0.439
Mof_O 	O 	0.8025	0.107	0.72845	-0.472
Mof_O 	O 	0.7432	0.0485	0.65751	-0.466
Mof_H 	H 	0.9745	0.0978	0.6781	-0.029
Mof_P 	P 	0.6448	0.80563	0.94196	0.479
Mof_O 	O 	0.5813	0.7212	0.95336	-0.439
Mof_O 	O 	0.6975	0.857	0.97845	-0.472
Mof_O 	O 	0.7568	0.7985	0.90751	-0.466
Mof_H 	H 	0.5255	0.8478	0.9281	-0.029
Mof_P 	P 	0.6448	0.30563	0.44196	0.479
Mof_O 	O 	0.5813	0.2212	0.45336	-0.439
Mof_O 	O 	0.6975	0.357	0.47845	-0.472
Mof_O 	O 	0.7568	0.2985	0.40751	-0.466
Mof_H 	H 	0.5255	0.3478	0.4281	-0.029
Mof_P 	P 	0.1448	0.80563	0.44196	0.479
Mof_O 	O 	0.0813	0.7212	0.45336	-0.439
Mof_O 	O 	0.1975	0.857	0.47845	-0.472
Mof_O 	O 	0.2568	0.7985	0.40751	-0.466
Mof_H 	H 	0.0255	0.8478	0.4281	-0.029
Mof_P 	P 	0.1448	0.30563	0.94196	0.479
Mof_O 	O 	0.0813	0.2212	0.95336	-0.439
Mof_O 	O 	0.1975	0.357	0.97845	-0.472
Mof_O 	O 	0.2568	0.2985	0.90751	-0.466
Mof_H 	H 	0.0255	0.3478	0.9281	-0.029
Mof_P 	P 	0.6052	0.44437	0.94196	0.479
Mof_O 	O 	0.6687	0.5288	0.95336	-0.439
Mof_O 	O 	0.5525	0.393	0.97845	-0.472
Mof_O 	O 	0.4932	0.4515	0.90751	-0.466
Mof_H 	H 	0.7245	0.4022	0.9281	-0.029
Mof_P 	P 	0.6052	0.94437	0.44196	0.479
Mof_O 	O 	0.6687	0.0288	0.45336	-0.439
Mof_O 	O 	0.5525	0.893	0.47845	-0.472
Mof_O 	O 	0.4932	0.9515	0.40751	-0.466
Mof_H 	H 	0.7245	0.9022	0.4281	-0.029
Mof_P 	P 	0.1052	0.44437	0.44196	0.479
Mof_O 	O 	0.1687	0.5288	0.45336	-0.439
Mof_O 	O 	0.0525	0.393	0.47845	-0.472
Mof_O 	O 	0.9932	0.4515	0.40751	-0.466
Mof_H 	H 	0.2245	0.4022	0.4281	-0.029
Mof_P 	P 	0.1052	0.94437	0.94196	0.479
Mof_O 	O 	0.1687	0.0288	0.95336	-0.439
Mof_O 	O 	0.0525	0.893	0.97845	-0.472
Mof_O 	O 	0.9932	0.9515	0.90751	-0.466
Mof_H 	H 	0.2245	0.9022	0.9281	-0.029
Mof_P 	P 	0.6052	0.80563	0.30804	0.479
Mof_O 	O 	0.6687	0.7212	0.29664	-0.439
Mof_O 	O 	0.5525	0.857	0.27155	-0.472
Mof_O 	O 	0.4932	0.7985	0.34249	-0.466
Mof_H 	H 	0.7245	0.8478	0.3219	-0.029
Mof_P 	P 	0.6052	0.30563	0.80804	0.479
Mof_O 	O 	0.6687	0.2212	0.79664	-0.439
Mof_O 	O 	0.5525	0.357	0.77155	-0.472
Mof_O 	O 	0.4932	0.2985	0.84249	-0.466
Mof_H 	H 	0.7245	0.3478	0.8219	-0.029
Mof_P 	P 	0.1052	0.80563	0.80804	0.479
Mof_O 	O 	0.1687	0.7212	0.79664	-0.439
Mof_O 	O 	0.0525	0.857	0.77155	-0.472
Mof_O 	O 	0.9932	0.7985	0.84249	-0.466
Mof_H 	H 	0.2245	0.8478	0.8219	-0.029
Mof_P 	P 	0.1052	0.30563	0.30804	0.479
Mof_O 	O 	0.1687	0.2212	0.29664	-0.439
Mof_O 	O 	0.0525	0.357	0.27155	-0.472
Mof_O 	O 	0.9932	0.2985	0.34249	-0.466
Mof_H 	H 	0.2245	0.3478	0.3219	-0.029
Mof_P 	P 	0.6448	0.44437	0.30804	0.479
Mof_O 	O 	0.5813	0.5288	0.29664	-0.439
Mof_O 	O 	0.6975	0.393	0.27155	-0.472
Mof_O 	O 	0.7568	0.4515	0.34249	-0.466
Mof_H 	H 	0.5255	0.4022	0.3219	-0.029
Mof_P 	P 	0.6448	0.94437	0.80804	0.479
Mof_O 	O 	0.5813	0.0288	0.79664	-0.439
Mof_O 	O 	0.6975	0.893	0.77155	-0.472
Mof_O 	O 	0.7568	0.9515	0.84249	-0.466
Mof_H 	H 	0.5255	0.9022	0.8219	-0.029
Mof_P 	P 	0.1448	0.44437	0.80804	0.479
Mof_O 	O 	0.0813	0.5288	0.79664	-0.439
Mof_O 	O 	0.1975	0.393	0.77155	-0.472
Mof_O 	O 	0.2568	0.4515	0.84249	-0.466
Mof_H 	H 	0.0255	0.4022	0.8219	-0.029
Mof_P 	P 	0.1448	0.94437	0.30804	0.479
Mof_O 	O 	0.0813	0.0288	0.29664	-0.439
Mof_O 	O 	0.1975	0.893	0.27155	-0.472
Mof_O 	O 	0.2568	0.9515	0.34249	-0.466
Mof_H 	H 	0.0255	0.9022	0.3219	-0.029
Mof_Zn	Zn	0.375	0.375	0.01083	1.235
Mof_Zn	Zn	0.375	0.875	0.51083	1.235
Mof_Zn	Zn	0.875	0.375	0.51083	1.235
Mof_Zn	Zn	0.875	0.875	0.01083	1.235
Mof_Zn	Zn	0.375	0.375	0.73917	1.235
Mof_Zn	Zn	0.375	0.875	0.23917	1.235
Mof_Zn	Zn	0.875	0.375	0.23917	1.235
Mof_Zn	Zn	0.875	0.875	0.73917	1.235
Mof_Zn	Zn	0.625	0.625	0.98917	1.235
Mof_Zn	Zn	0.625	0.125	0.48917	1.235
Mof_Zn	Zn	0.125	0.625	0.48917	1.235
Mof_Zn	Zn	0.125	0.125	0.98917	1.235
Mof_Zn	Zn	0.625	0.625	0.26083	1.235
Mof_Zn	Zn	0.625	0.125	0.76083	1.235
Mof_Zn	Zn	0.125	0.625	0.76083	1.235
Mof_Zn	Zn	0.125	0.125	0.26083	1.235
Mof_Zn	Zn	0.125	0.125	0.125	1.236
Mof_Zn	Zn	0.125	0.625	0.625	1.236
Mof_Zn	Zn	0.625	0.125	0.625	1.236
Mof_Zn	Zn	0.625	0.625	0.125	1.236
Mof_Zn	Zn	0.875	0.875	0.875	1.236
Mof_Zn	Zn	0.875	0.375	0.375	1.236
Mof_Zn	Zn	0.375	0.875	0.375	1.236
Mof_Zn	Zn	0.375	0.375	0.875	1.236
_end
