data_functionalizedCrystal
_audit_creation_method	'EQeq! by Chris Wilmer'
_symmetry_space_group_name_H-M	'P1'
_symmetry_Int_Tables_number	1
_symmetry_cell_setting	triclinic
loop_
_symmetry_equiv_pos_as_xyz
  x,y,z
_cell_length_a	13.047
_cell_length_b	11.6893
_cell_length_c	7.8244
_cell_angle_alpha	90
_cell_angle_beta	109.954
_cell_angle_gamma	90
loop_
_atom_site_label
_atom_site_type_symbol
_atom_site_fract_x
_atom_site_fract_y
_atom_site_fract_z
_atom_site_charge
Mof_C 	C 	0.1357	0.8662	0.9504	0.321
Mof_O 	O 	0.1311	0.9015	0.7967	-0.432
Mof_O 	O 	0.0729	0.911	0.027	-0.526
Mof_C 	C 	0.2164	0.7758	0.0525	-0.154
Mof_H 	H 	0.1768	0.7149	0.0869	0.028
Mof_H 	H 	0.2656	0.8095	0.1636	0.048
Mof_C 	C 	0.6357	0.3662	0.9504	0.372
Mof_O 	O 	0.6311	0.4015	0.7967	-0.438
Mof_O 	O 	0.5729	0.411	0.027	-0.552
Mof_C 	C 	0.7164	0.2758	0.0525	-0.198
Mof_H 	H 	0.6768	0.2149	0.0869	0.064
Mof_H 	H 	0.7656	0.3095	0.1636	0.084
Mof_C 	C 	0.8643	0.8662	0.5496	0.363
Mof_O 	O 	0.8689	0.9015	0.7033	-0.334
Mof_O 	O 	0.9271	0.911	0.473	-0.379
Mof_C 	C 	0.7836	0.7758	0.4475	-0.205
Mof_H 	H 	0.8232	0.7149	0.4131	0.095
Mof_H 	H 	0.7344	0.8095	0.3364	0.073
Mof_C 	C 	0.3643	0.3662	0.5496	0.396
Mof_O 	O 	0.3689	0.4015	0.7033	-0.464
Mof_O 	O 	0.4271	0.411	0.473	-0.573
Mof_C 	C 	0.2836	0.2758	0.4475	-0.245
Mof_H 	H 	0.3232	0.2149	0.4131	0.07
Mof_H 	H 	0.2344	0.3095	0.3364	0.056
Mof_C 	C 	0.8643	0.1338	0.0496	0.398
Mof_O 	O 	0.8689	0.0985	0.2033	-0.338
Mof_O 	O 	0.9271	0.089	0.973	-0.397
Mof_C 	C 	0.7836	0.2242	0.9475	-0.265
Mof_H 	H 	0.8232	0.2851	0.9131	0.11
Mof_H 	H 	0.7344	0.1905	0.8364	0.088
Mof_C 	C 	0.3643	0.6338	0.0496	0.433
Mof_O 	O 	0.3689	0.5985	0.2033	-0.47
Mof_O 	O 	0.4271	0.589	0.973	-0.592
Mof_C 	C 	0.2836	0.7242	0.9475	-0.306
Mof_H 	H 	0.3232	0.7851	0.9131	0.084
Mof_H 	H 	0.2344	0.6905	0.8364	0.07
Mof_C 	C 	0.1357	0.1338	0.4504	0.361
Mof_O 	O 	0.1311	0.0985	0.2967	-0.435
Mof_O 	O 	0.0729	0.089	0.527	-0.543
Mof_C 	C 	0.2164	0.2242	0.5525	-0.215
Mof_H 	H 	0.1768	0.2851	0.5869	0.042
Mof_H 	H 	0.2656	0.1905	0.6636	0.063
Mof_C 	C 	0.6357	0.6338	0.4504	0.408
Mof_O 	O 	0.6311	0.5985	0.2967	-0.445
Mof_O 	O 	0.5729	0.589	0.527	-0.57
Mof_C 	C 	0.7164	0.7242	0.5525	-0.256
Mof_H 	H 	0.6768	0.7851	0.5869	0.077
Mof_H 	H 	0.7656	0.6905	0.6636	0.097
Mof_Er	Er	2.53389e-17	0.0554	0.75	1.07
Mof_Er	Er	0.5	0.5554	0.75	1.485
Mof_Er	Er	6.33472e-18	0.9446	0.25	1.079
Mof_Er	Er	0.5	0.4446	0.25	1.497
_end
