data_functionalizedCrystal
_audit_creation_method	'EQeq! by Chris Wilmer'
_symmetry_space_group_name_H-M	'P1'
_symmetry_Int_Tables_number	1
_symmetry_cell_setting	triclinic
loop_
_symmetry_equiv_pos_as_xyz
  x,y,z
_cell_length_a	17.4682
_cell_length_b	17.4682
_cell_length_c	17.4682
_cell_angle_alpha	97.4701
_cell_angle_beta	115.785
_cell_angle_gamma	115.785
loop_
_atom_site_label
_atom_site_type_symbol
_atom_site_fract_x
_atom_site_fract_y
_atom_site_fract_z
_atom_site_charge
Mof_Cd	Cd	0.45521	0.04939	0.16342	0.438
Mof_Cd	Cd	0.95521	0.79179	0.40582	0.437
Mof_H 	H 	0.649	0.0341	0.3251	0.044
Mof_H 	H 	0.453	0.8848	0.0652	0.004
Mof_H 	H 	0.7552	0.9474	0.3684	0.039
Mof_H 	H 	0.6943	0.8208	0.2097	0.126
Mof_H 	H 	0.594	0.2841	0.2845	0.056
Mof_H 	H 	0.6146	0.1605	0.1007	0.008
Mof_H 	H 	0.7084	0.4622	0.3098	0.047
Mof_H 	H 	0.814	0.4866	0.2272	0.121
Mof_H 	H 	0.5601	0.8289	0.1224	0.166
Mof_H 	H 	0.715	0.3219	0.1421	0.16
Mof_H 	H 	0.149	0.8239	0.6149	0.043
Mof_H 	H 	0.953	0.8878	0.5682	-0.001
Mof_H 	H 	0.2552	0.8868	0.8078	0.039
Mof_H 	H 	0.1943	0.9846	0.8735	0.127
Mof_H 	H 	0.094	0.8095	0.3099	0.056
Mof_H 	H 	0.1146	0.0139	0.4541	0.002
Mof_H 	H 	0.2084	0.8986	0.2462	0.046
Mof_H 	H 	0.314	0.0868	0.3274	0.122
Mof_H 	H 	0.0601	0.9377	0.7312	0.167
Mof_H 	H 	0.215	0.0729	0.3931	0.161
Mof_C 	C 	0.6328	0.9248	0.2472	0.07
Mof_C 	C 	0.6126	0.9878	0.2672	-0.023
Mof_C 	C 	0.5063	0.9078	0.1263	0.153
Mof_C 	C 	0.7148	0.9126	0.305	0.017
Mof_C 	C 	0.7349	0.856	0.2729	-0.222
Mof_C 	C 	0.8173	0.8454	0.3311	0.375
Mof_C 	C 	0.6726	0.3416	0.2294	0.075
Mof_C 	C 	0.612	0.2744	0.243	-0.025
Mof_C 	C 	0.6227	0.2061	0.1432	0.131
Mof_C 	C 	0.7261	0.4407	0.2728	0.001
Mof_C 	C 	0.797	0.5049	0.2665	-0.188
Mof_C 	C 	0.8508	0.6056	0.3204	0.339
Mof_C 	C 	0.1328	0.8856	0.708	0.07
Mof_C 	C 	0.1126	0.8454	0.6248	-0.02
Mof_C 	C 	0.0063	0.88	0.5985	0.16
Mof_C 	C 	0.2148	0.9098	0.8022	0.018
Mof_C 	C 	0.2349	0.962	0.8789	-0.222
Mof_C 	C 	0.3173	0.9862	0.9719	0.377
Mof_C 	C 	0.1726	0.9432	0.331	0.076
Mof_C 	C 	0.112	0.869	0.3376	-0.025
Mof_C 	C 	0.1227	0.9795	0.4166	0.142
Mof_C 	C 	0.2261	0.9533	0.2854	0.005
Mof_C 	C 	0.297	0.0305	0.2921	-0.192
Mof_C 	C 	0.3508	0.0304	0.2452	0.337
Mof_N 	N 	0.565	0.8739	0.1555	-0.226
Mof_N 	N 	0.5311	0.9735	0.19	-0.155
Mof_N 	N 	0.6801	0.2966	0.1645	-0.22
Mof_N 	N 	0.5795	0.1896	0.1889	-0.144
Mof_N 	N 	0.065	0.9095	0.6911	-0.227
Mof_N 	N 	0.0311	0.8411	0.5576	-0.156
Mof_N 	N 	0.1801	0.0156	0.3835	-0.225
Mof_N 	N 	0.0795	0.8906	0.3899	-0.144
Mof_O 	O 	0.9294	0.6604	0.3224	-0.281
Mof_O 	O 	0.8206	0.6328	0.3644	-0.288
Mof_O 	O 	0.8322	0.7948	0.2892	-0.314
Mof_O 	O 	0.8691	0.8824	0.4159	-0.287
Mof_O 	O 	0.4294	0.107	0.269	-0.28
Mof_O 	O 	0.3206	0.9562	0.1878	-0.286
Mof_O 	O 	0.3322	0.043	0.0374	-0.315
Mof_O 	O 	0.3691	0.9532	0.9867	-0.287
Mof_Cd	Cd	0.04479	0.20821	0.59418	0.437
Mof_Cd	Cd	0.54479	0.95061	0.83658	0.438
Mof_H 	H 	0.851	0.1761	0.3851	0.043
Mof_H 	H 	0.047	0.1122	0.4318	-0.001
Mof_H 	H 	0.7448	0.1132	0.1922	0.039
Mof_H 	H 	0.8057	0.0154	0.1265	0.127
Mof_H 	H 	0.906	0.1905	0.6901	0.056
Mof_H 	H 	0.8854	0.9861	0.5459	0.002
Mof_H 	H 	0.7916	0.1014	0.7538	0.046
Mof_H 	H 	0.686	0.9132	0.6726	0.122
Mof_H 	H 	0.9399	0.0623	0.2688	0.167
Mof_H 	H 	0.785	0.9271	0.6069	0.161
Mof_H 	H 	0.351	0.9659	0.6749	0.044
Mof_H 	H 	0.547	0.1152	0.9348	0.004
Mof_H 	H 	0.2448	0.0526	0.6316	0.039
Mof_H 	H 	0.3057	0.1792	0.7903	0.126
Mof_H 	H 	0.406	0.7159	0.7155	0.056
Mof_H 	H 	0.3854	0.8395	0.8993	0.008
Mof_H 	H 	0.2916	0.5378	0.6902	0.047
Mof_H 	H 	0.186	0.5134	0.7728	0.121
Mof_H 	H 	0.4399	0.1711	0.8776	0.166
Mof_H 	H 	0.285	0.6781	0.8579	0.16
Mof_C 	C 	0.8672	0.1144	0.292	0.07
Mof_C 	C 	0.8874	0.1546	0.3752	-0.02
Mof_C 	C 	0.9937	0.12	0.4015	0.16
Mof_C 	C 	0.7852	0.0902	0.1978	0.018
Mof_C 	C 	0.7651	0.038	0.1211	-0.222
Mof_C 	C 	0.6827	0.0138	0.0281	0.377
Mof_C 	C 	0.8274	0.0568	0.669	0.076
Mof_C 	C 	0.888	0.131	0.6624	-0.025
Mof_C 	C 	0.8773	0.0205	0.5834	0.142
Mof_C 	C 	0.7739	0.0467	0.7146	0.005
Mof_C 	C 	0.703	0.9695	0.7079	-0.192
Mof_C 	C 	0.6492	0.9696	0.7548	0.337
Mof_C 	C 	0.3672	0.0752	0.7528	0.07
Mof_C 	C 	0.3874	0.0122	0.7328	-0.023
Mof_C 	C 	0.4937	0.0922	0.8737	0.153
Mof_C 	C 	0.2852	0.0874	0.695	0.017
Mof_C 	C 	0.2651	0.144	0.7271	-0.222
Mof_C 	C 	0.1827	0.1546	0.6689	0.375
Mof_C 	C 	0.3274	0.6584	0.7706	0.075
Mof_C 	C 	0.388	0.7256	0.757	-0.025
Mof_C 	C 	0.3773	0.7939	0.8568	0.131
Mof_C 	C 	0.2739	0.5593	0.7272	0.001
Mof_C 	C 	0.203	0.4951	0.7335	-0.188
Mof_C 	C 	0.1492	0.3944	0.6796	0.339
Mof_N 	N 	0.935	0.0905	0.3089	-0.227
Mof_N 	N 	0.9689	0.1589	0.4424	-0.156
Mof_N 	N 	0.8199	0.9844	0.6165	-0.225
Mof_N 	N 	0.9205	0.1094	0.6101	-0.144
Mof_N 	N 	0.435	0.1261	0.8445	-0.226
Mof_N 	N 	0.4689	0.0265	0.81	-0.155
Mof_N 	N 	0.3199	0.7034	0.8355	-0.22
Mof_N 	N 	0.4205	0.8104	0.8111	-0.144
Mof_O 	O 	0.5706	0.893	0.731	-0.28
Mof_O 	O 	0.6794	0.0438	0.8122	-0.286
Mof_O 	O 	0.6678	0.957	0.9626	-0.315
Mof_O 	O 	0.6309	0.0468	0.0133	-0.287
Mof_O 	O 	0.0706	0.3396	0.6776	-0.281
Mof_O 	O 	0.1794	0.3672	0.6356	-0.288
Mof_O 	O 	0.1678	0.2052	0.7108	-0.314
Mof_O 	O 	0.1309	0.1176	0.5841	-0.287
Mof_Cd	Cd	0.11403	0.16342	0.20821	0.436
Mof_Cd	Cd	0.61403	0.40582	0.95061	0.439
Mof_H 	H 	0.291	0.3251	0.1761	0.043
Mof_H 	H 	0.1804	0.0652	0.1122	0.002
Mof_H 	H 	0.421	0.3684	0.1132	0.039
Mof_H 	H 	0.3889	0.2097	0.0154	0.125
Mof_H 	H 	0.0004	0.2845	0.1905	0.053
Mof_H 	H 	0.9402	0.1007	0.9861	0.011
Mof_H 	H 	0.8476	0.3098	0.1014	0.047
Mof_H 	H 	0.7406	0.2272	0.9132	0.121
Mof_H 	H 	0.2935	0.1224	0.0623	0.166
Mof_H 	H 	0.8202	0.1421	0.9271	0.16
Mof_H 	H 	0.791	0.6149	0.9659	0.043
Mof_H 	H 	0.6804	0.5682	0.1152	0.004
Mof_H 	H 	0.921	0.8078	0.0526	0.04
Mof_H 	H 	0.8889	0.8735	0.1792	0.123
Mof_H 	H 	0.5004	0.3099	0.7159	0.056
Mof_H 	H 	0.4402	0.4541	0.8395	0.008
Mof_H 	H 	0.3476	0.2462	0.5378	0.047
Mof_H 	H 	0.2406	0.3274	0.5134	0.121
Mof_H 	H 	0.7935	0.7312	0.1711	0.166
Mof_H 	H 	0.3202	0.3931	0.6781	0.16
Mof_C 	C 	0.3224	0.2472	0.1144	0.07
Mof_C 	C 	0.2794	0.2672	0.1546	-0.021
Mof_C 	C 	0.2185	0.1263	0.12	0.153
Mof_C 	C 	0.3924	0.305	0.0902	0.017
Mof_C 	C 	0.4169	0.2729	0.038	-0.221
Mof_C 	C 	0.4857	0.3311	0.0138	0.374
Mof_C 	C 	0.8878	0.2294	0.0568	0.073
Mof_C 	C 	0.9686	0.243	0.131	-0.021
Mof_C 	C 	0.9371	0.1432	0.0205	0.128
Mof_C 	C 	0.8321	0.2728	0.0467	0
Mof_C 	C 	0.7616	0.2665	0.9695	-0.187
Mof_C 	C 	0.7148	0.3204	0.9696	0.339
Mof_C 	C 	0.8224	0.708	0.0752	0.071
Mof_C 	C 	0.7794	0.6248	0.0122	-0.022
Mof_C 	C 	0.7185	0.5985	0.0922	0.153
Mof_C 	C 	0.8924	0.8022	0.0874	0.013
Mof_C 	C 	0.9169	0.8789	0.144	-0.216
Mof_C 	C 	0.9857	0.9719	0.1546	0.362
Mof_C 	C 	0.3878	0.331	0.6584	0.075
Mof_C 	C 	0.4686	0.3376	0.7256	-0.025
Mof_C 	C 	0.4371	0.4166	0.7939	0.131
Mof_C 	C 	0.3321	0.2854	0.5593	0.001
Mof_C 	C 	0.2616	0.2921	0.4951	-0.188
Mof_C 	C 	0.2148	0.2452	0.3944	0.339
Mof_N 	N 	0.2816	0.1555	0.0905	-0.226
Mof_N 	N 	0.2165	0.19	0.1589	-0.156
Mof_N 	N 	0.8679	0.1645	0.9844	-0.218
Mof_N 	N 	0.9993	0.1889	0.1094	-0.143
Mof_N 	N 	0.7816	0.6911	0.1261	-0.226
Mof_N 	N 	0.7165	0.5576	0.0265	-0.156
Mof_N 	N 	0.3679	0.3835	0.7034	-0.22
Mof_N 	N 	0.4993	0.3899	0.8104	-0.144
Mof_O 	O 	0.662	0.3224	0.893	-0.28
Mof_O 	O 	0.7316	0.3644	0.0438	-0.288
Mof_O 	O 	0.4944	0.2892	0.957	-0.313
Mof_O 	O 	0.5335	0.4159	0.0468	-0.286
Mof_O 	O 	0.162	0.269	0.3396	-0.281
Mof_O 	O 	0.2316	0.1878	0.3672	-0.288
Mof_O 	O 	0.9944	0.0374	0.2052	-0.307
Mof_O 	O 	0.0335	0.9867	0.1176	-0.278
Mof_Cd	Cd	0.38597	0.59418	0.04939	0.439
Mof_Cd	Cd	0.88597	0.83658	0.79179	0.436
Mof_H 	H 	0.209	0.3851	0.0341	0.043
Mof_H 	H 	0.3196	0.4318	0.8848	0.004
Mof_H 	H 	0.079	0.1922	0.9474	0.04
Mof_H 	H 	0.1111	0.1265	0.8208	0.123
Mof_H 	H 	0.4996	0.6901	0.2841	0.056
Mof_H 	H 	0.5598	0.5459	0.1605	0.008
Mof_H 	H 	0.6524	0.7538	0.4622	0.047
Mof_H 	H 	0.7594	0.6726	0.4866	0.121
Mof_H 	H 	0.2065	0.2688	0.8289	0.166
Mof_H 	H 	0.6798	0.6069	0.3219	0.16
Mof_H 	H 	0.709	0.6749	0.8239	0.043
Mof_H 	H 	0.8196	0.9348	0.8878	0.002
Mof_H 	H 	0.579	0.6316	0.8868	0.039
Mof_H 	H 	0.6111	0.7903	0.9846	0.125
Mof_H 	H 	0.9996	0.7155	0.8095	0.053
Mof_H 	H 	0.0598	0.8993	0.0139	0.011
Mof_H 	H 	0.1524	0.6902	0.8986	0.047
Mof_H 	H 	0.2594	0.7728	0.0868	0.121
Mof_H 	H 	0.7065	0.8776	0.9377	0.166
Mof_H 	H 	0.1798	0.8579	0.0729	0.16
Mof_C 	C 	0.1776	0.292	0.9248	0.071
Mof_C 	C 	0.2206	0.3752	0.9878	-0.022
Mof_C 	C 	0.2815	0.4015	0.9078	0.153
Mof_C 	C 	0.1076	0.1978	0.9126	0.013
Mof_C 	C 	0.0831	0.1211	0.856	-0.216
Mof_C 	C 	0.0143	0.0281	0.8454	0.362
Mof_C 	C 	0.6122	0.669	0.3416	0.075
Mof_C 	C 	0.5314	0.6624	0.2744	-0.025
Mof_C 	C 	0.5629	0.5834	0.2061	0.131
Mof_C 	C 	0.6679	0.7146	0.4407	0.001
Mof_C 	C 	0.7384	0.7079	0.5049	-0.188
Mof_C 	C 	0.7852	0.7548	0.6056	0.339
Mof_C 	C 	0.6776	0.7528	0.8856	0.07
Mof_C 	C 	0.7206	0.7328	0.8454	-0.021
Mof_C 	C 	0.7815	0.8737	0.88	0.153
Mof_C 	C 	0.6076	0.695	0.9098	0.017
Mof_C 	C 	0.5831	0.7271	0.962	-0.221
Mof_C 	C 	0.5143	0.6689	0.9862	0.374
Mof_C 	C 	0.1122	0.7706	0.9432	0.073
Mof_C 	C 	0.0314	0.757	0.869	-0.021
Mof_C 	C 	0.0629	0.8568	0.9795	0.128
Mof_C 	C 	0.1679	0.7272	0.9533	0
Mof_C 	C 	0.2384	0.7335	0.0305	-0.187
Mof_C 	C 	0.2852	0.6796	0.0304	0.339
Mof_N 	N 	0.2184	0.3089	0.8739	-0.226
Mof_N 	N 	0.2835	0.4424	0.9735	-0.156
Mof_N 	N 	0.6321	0.6165	0.2966	-0.22
Mof_N 	N 	0.5007	0.6101	0.1896	-0.144
Mof_N 	N 	0.7184	0.8445	0.9095	-0.226
Mof_N 	N 	0.7835	0.81	0.8411	-0.156
Mof_N 	N 	0.1321	0.8355	0.0156	-0.218
Mof_N 	N 	0.0007	0.8111	0.8906	-0.143
Mof_O 	O 	0.838	0.731	0.6604	-0.281
Mof_O 	O 	0.7684	0.8122	0.6328	-0.288
Mof_O 	O 	0.0056	0.9626	0.7948	-0.307
Mof_O 	O 	0.9665	0.0133	0.8824	-0.278
Mof_O 	O 	0.338	0.6776	0.107	-0.28
Mof_O 	O 	0.2684	0.6356	0.9562	-0.288
Mof_O 	O 	0.5056	0.7108	0.043	-0.313
Mof_O 	O 	0.4665	0.5841	0.9532	-0.286
_end
