data_functionalizedCrystal
_audit_creation_method	'EQeq! by Chris Wilmer'
_symmetry_space_group_name_H-M	'P1'
_symmetry_Int_Tables_number	1
_symmetry_cell_setting	triclinic
loop_
_symmetry_equiv_pos_as_xyz
  x,y,z
_cell_length_a	8.677
_cell_length_b	13.042
_cell_length_c	28.201
_cell_angle_alpha	90
_cell_angle_beta	90
_cell_angle_gamma	90
loop_
_atom_site_label
_atom_site_type_symbol
_atom_site_fract_x
_atom_site_fract_y
_atom_site_fract_z
_atom_site_charge
Mof_Cu	Cu	0.94926	0.95344	0.46123	0.916
Mof_Cu	Cu	0.94926	0.54656	0.03877	0.918
Mof_Cu	Cu	0.55074	0.04656	0.96123	0.919
Mof_Cu	Cu	0.55074	0.45344	0.53877	0.918
Mof_Cu	Cu	0.05074	0.04656	0.53877	0.915
Mof_Cu	Cu	0.05074	0.45344	0.96123	0.917
Mof_Cu	Cu	0.44926	0.95344	0.03877	0.919
Mof_Cu	Cu	0.44926	0.54656	0.46123	0.918
Mof_H 	H 	0.1216	0.733	0.5903	0.209
Mof_H 	H 	0.2168	0.7094	0.5445	0.223
Mof_H 	H 	0.9138	0.6424	0.5618	-0.081
Mof_H 	H 	0.9942	0.6279	0.5124	-0.059
Mof_H 	H 	0.0164	0.4755	0.5574	0.227
Mof_H 	H 	0.0999	0.5358	0.5981	0.209
Mof_H 	H 	0.7849	0.753	0.4283	-0.003
Mof_H 	H 	0.6184	0.6925	0.3719	0.131
Mof_H 	H 	0.6481	0.9643	0.3068	0.111
Mof_H 	H 	0.8138	0.0162	0.3648	-0.007
Mof_H 	H 	0.4475	0.7282	0.3037	0.148
Mof_H 	H 	0.4426	0.8401	0.2832	0.143
Mof_H 	H 	0.6715	0.6939	0.2598	-0.035
Mof_H 	H 	0.1216	0.767	0.9097	0.208
Mof_H 	H 	0.2168	0.7906	0.9555	0.222
Mof_H 	H 	0.9138	0.8576	0.9382	-0.081
Mof_H 	H 	0.9942	0.8721	0.9876	-0.06
Mof_H 	H 	0.0164	0.0245	0.9426	0.22
Mof_H 	H 	0.0999	0.9642	0.9019	0.207
Mof_H 	H 	0.7849	0.747	0.0717	-0.003
Mof_H 	H 	0.6184	0.8075	0.1281	0.131
Mof_H 	H 	0.6481	0.5357	0.1932	0.113
Mof_H 	H 	0.8138	0.4838	0.1352	-0.012
Mof_H 	H 	0.4475	0.7718	0.1963	0.149
Mof_H 	H 	0.4426	0.6599	0.2168	0.143
Mof_H 	H 	0.6715	0.8061	0.2402	-0.035
Mof_H 	H 	0.3784	0.267	0.0903	0.21
Mof_H 	H 	0.2832	0.2906	0.0445	0.223
Mof_H 	H 	0.5862	0.3576	0.0618	-0.082
Mof_H 	H 	0.5058	0.3721	0.0124	-0.06
Mof_H 	H 	0.4836	0.5245	0.0574	0.229
Mof_H 	H 	0.4001	0.4642	0.0981	0.211
Mof_H 	H 	0.7151	0.247	0.9283	0.001
Mof_H 	H 	0.8816	0.3075	0.8719	0.126
Mof_H 	H 	0.8519	0.0357	0.8068	0.11
Mof_H 	H 	0.6862	0.9838	0.8648	-0.012
Mof_H 	H 	0.0525	0.2718	0.8037	0.119
Mof_H 	H 	0.0574	0.1599	0.7832	0.113
Mof_H 	H 	0.8285	0.3061	0.7598	-0.015
Mof_H 	H 	0.3784	0.233	0.4097	0.209
Mof_H 	H 	0.2832	0.2094	0.4555	0.222
Mof_H 	H 	0.5862	0.1424	0.4382	-0.08
Mof_H 	H 	0.5058	0.1279	0.4876	-0.058
Mof_H 	H 	0.4836	0.9755	0.4426	0.228
Mof_H 	H 	0.4001	0.0358	0.4019	0.209
Mof_H 	H 	0.7151	0.253	0.5717	0.001
Mof_H 	H 	0.8816	0.1925	0.6281	0.126
Mof_H 	H 	0.8519	0.4643	0.6932	0.107
Mof_H 	H 	0.6862	0.5162	0.6352	-0.008
Mof_H 	H 	0.0525	0.2282	0.6963	0.12
Mof_H 	H 	0.0574	0.3401	0.7168	0.116
Mof_H 	H 	0.8285	0.1939	0.7402	-0.015
Mof_H 	H 	0.8784	0.267	0.4097	0.209
Mof_H 	H 	0.7832	0.2906	0.4555	0.223
Mof_H 	H 	0.0862	0.3576	0.4382	-0.081
Mof_H 	H 	0.0058	0.3721	0.4876	-0.059
Mof_H 	H 	0.9836	0.5245	0.4426	0.227
Mof_H 	H 	0.9001	0.4642	0.4019	0.209
Mof_H 	H 	0.2151	0.247	0.5717	-0.003
Mof_H 	H 	0.3816	0.3075	0.6281	0.131
Mof_H 	H 	0.3519	0.0357	0.6932	0.111
Mof_H 	H 	0.1862	0.9838	0.6352	-0.007
Mof_H 	H 	0.5525	0.2718	0.6963	0.148
Mof_H 	H 	0.5574	0.1599	0.7168	0.143
Mof_H 	H 	0.3285	0.3061	0.7402	-0.035
Mof_H 	H 	0.8784	0.233	0.0903	0.208
Mof_H 	H 	0.7832	0.2094	0.0445	0.222
Mof_H 	H 	0.0862	0.1424	0.0618	-0.081
Mof_H 	H 	0.0058	0.1279	0.0124	-0.06
Mof_H 	H 	0.9836	0.9755	0.0574	0.22
Mof_H 	H 	0.9001	0.0358	0.0981	0.207
Mof_H 	H 	0.2151	0.253	0.9283	-0.003
Mof_H 	H 	0.3816	0.1925	0.8719	0.131
Mof_H 	H 	0.3519	0.4643	0.8068	0.113
Mof_H 	H 	0.1862	0.5162	0.8648	-0.012
Mof_H 	H 	0.5525	0.2282	0.8037	0.149
Mof_H 	H 	0.5574	0.3401	0.7832	0.143
Mof_H 	H 	0.3285	0.1939	0.7598	-0.035
Mof_H 	H 	0.6216	0.733	0.9097	0.21
Mof_H 	H 	0.7168	0.7094	0.9555	0.223
Mof_H 	H 	0.4138	0.6424	0.9382	-0.082
Mof_H 	H 	0.4942	0.6279	0.9876	-0.06
Mof_H 	H 	0.5164	0.4755	0.9426	0.229
Mof_H 	H 	0.5999	0.5358	0.9019	0.211
Mof_H 	H 	0.2849	0.753	0.0717	0.001
Mof_H 	H 	0.1184	0.6925	0.1281	0.126
Mof_H 	H 	0.1481	0.9643	0.1932	0.11
Mof_H 	H 	0.3138	0.0162	0.1352	-0.012
Mof_H 	H 	0.9475	0.7282	0.1963	0.119
Mof_H 	H 	0.9426	0.8401	0.2168	0.113
Mof_H 	H 	0.1715	0.6939	0.2402	-0.015
Mof_H 	H 	0.6216	0.767	0.5903	0.209
Mof_H 	H 	0.7168	0.7906	0.5445	0.222
Mof_H 	H 	0.4138	0.8576	0.5618	-0.08
Mof_H 	H 	0.4942	0.8721	0.5124	-0.058
Mof_H 	H 	0.5164	0.0245	0.5574	0.228
Mof_H 	H 	0.5999	0.9642	0.5981	0.209
Mof_H 	H 	0.2849	0.747	0.4283	0.001
Mof_H 	H 	0.1184	0.8075	0.3719	0.126
Mof_H 	H 	0.1481	0.5357	0.3068	0.107
Mof_H 	H 	0.3138	0.4838	0.3648	-0.008
Mof_H 	H 	0.9475	0.7718	0.3037	0.12
Mof_H 	H 	0.9426	0.6599	0.2832	0.116
Mof_H 	H 	0.1715	0.8061	0.2598	-0.015
Mof_C 	C 	0.062	0.8252	0.53484	0.502
Mof_C 	C 	0.1141	0.7244	0.55622	-0.585
Mof_C 	C 	0.0125	0.6328	0.5463	0.372
Mof_C 	C 	0.0861	0.5319	0.56397	-0.589
Mof_C 	C 	0.2394	0.5104	0.541	0.504
Mof_C 	C 	0.7575	0.7961	0.4034	0.139
Mof_C 	C 	0.6567	0.7589	0.36956	-0.266
Mof_C 	C 	0.6139	0.8209	0.3325	0.24
Mof_C 	C 	0.6746	0.9196	0.33117	-0.26
Mof_C 	C 	0.7742	0.95	0.3663	0.123
Mof_C 	C 	0.5107	0.7847	0.29266	-0.399
Mof_C 	C 	0.062	0.6748	0.96516	0.499
Mof_C 	C 	0.1141	0.7756	0.94378	-0.583
Mof_C 	C 	0.0125	0.8672	0.9537	0.37
Mof_C 	C 	0.0861	0.9681	0.93603	-0.578
Mof_C 	C 	0.2394	0.9896	0.959	0.501
Mof_C 	C 	0.7575	0.7039	0.0966	0.141
Mof_C 	C 	0.6567	0.7411	0.13044	-0.268
Mof_C 	C 	0.6139	0.6791	0.1675	0.243
Mof_C 	C 	0.6746	0.5804	0.16883	-0.265
Mof_C 	C 	0.7742	0.55	0.1337	0.131
Mof_C 	C 	0.5107	0.7153	0.20734	-0.4
Mof_C 	C 	0.438	0.1748	0.03484	0.502
Mof_C 	C 	0.3859	0.2756	0.05622	-0.587
Mof_C 	C 	0.4875	0.3672	0.0463	0.374
Mof_C 	C 	0.4139	0.4681	0.06397	-0.592
Mof_C 	C 	0.2606	0.4896	0.041	0.505
Mof_C 	C 	0.7425	0.2039	0.9034	0.131
Mof_C 	C 	0.8433	0.2411	0.86956	-0.247
Mof_C 	C 	0.8861	0.1791	0.8325	0.213
Mof_C 	C 	0.8254	0.0804	0.83117	-0.248
Mof_C 	C 	0.7258	0.05	0.8663	0.127
Mof_C 	C 	0.9893	0.2153	0.79266	-0.318
Mof_C 	C 	0.438	0.3252	0.46516	0.502
Mof_C 	C 	0.3859	0.2244	0.44378	-0.585
Mof_C 	C 	0.4875	0.1328	0.4537	0.371
Mof_C 	C 	0.4139	0.0319	0.43603	-0.588
Mof_C 	C 	0.2606	0.0104	0.459	0.499
Mof_C 	C 	0.7425	0.2961	0.5966	0.13
Mof_C 	C 	0.8433	0.2589	0.63044	-0.246
Mof_C 	C 	0.8861	0.3209	0.6675	0.212
Mof_C 	C 	0.8254	0.4196	0.66883	-0.245
Mof_C 	C 	0.7258	0.45	0.6337	0.121
Mof_C 	C 	0.9893	0.2847	0.70734	-0.321
Mof_C 	C 	0.938	0.1748	0.46516	0.502
Mof_C 	C 	0.8859	0.2756	0.44378	-0.585
Mof_C 	C 	0.9875	0.3672	0.4537	0.372
Mof_C 	C 	0.9139	0.4681	0.43603	-0.589
Mof_C 	C 	0.7606	0.4896	0.459	0.504
Mof_C 	C 	0.2425	0.2039	0.5966	0.139
Mof_C 	C 	0.3433	0.2411	0.63044	-0.266
Mof_C 	C 	0.3861	0.1791	0.6675	0.24
Mof_C 	C 	0.3254	0.0804	0.66883	-0.26
Mof_C 	C 	0.2258	0.05	0.6337	0.123
Mof_C 	C 	0.4893	0.2153	0.70734	-0.399
Mof_C 	C 	0.938	0.3252	0.03484	0.499
Mof_C 	C 	0.8859	0.2244	0.05622	-0.583
Mof_C 	C 	0.9875	0.1328	0.0463	0.37
Mof_C 	C 	0.9139	0.0319	0.06397	-0.578
Mof_C 	C 	0.7606	0.0104	0.041	0.501
Mof_C 	C 	0.2425	0.2961	0.9034	0.141
Mof_C 	C 	0.3433	0.2589	0.86956	-0.268
Mof_C 	C 	0.3861	0.3209	0.8325	0.243
Mof_C 	C 	0.3254	0.4196	0.83117	-0.265
Mof_C 	C 	0.2258	0.45	0.8663	0.131
Mof_C 	C 	0.4893	0.2847	0.79266	-0.4
Mof_C 	C 	0.562	0.8252	0.96516	0.502
Mof_C 	C 	0.6141	0.7244	0.94378	-0.587
Mof_C 	C 	0.5125	0.6328	0.9537	0.374
Mof_C 	C 	0.5861	0.5319	0.93603	-0.592
Mof_C 	C 	0.7394	0.5104	0.959	0.505
Mof_C 	C 	0.2575	0.7961	0.0966	0.131
Mof_C 	C 	0.1567	0.7589	0.13044	-0.247
Mof_C 	C 	0.1139	0.8209	0.1675	0.213
Mof_C 	C 	0.1746	0.9196	0.16883	-0.248
Mof_C 	C 	0.2742	0.95	0.1337	0.127
Mof_C 	C 	0.0107	0.7847	0.20734	-0.318
Mof_C 	C 	0.562	0.6748	0.53484	0.502
Mof_C 	C 	0.6141	0.7756	0.55622	-0.585
Mof_C 	C 	0.5125	0.8672	0.5463	0.371
Mof_C 	C 	0.5861	0.9681	0.56397	-0.588
Mof_C 	C 	0.7394	0.9896	0.541	0.499
Mof_C 	C 	0.2575	0.7039	0.4034	0.13
Mof_C 	C 	0.1567	0.7411	0.36956	-0.246
Mof_C 	C 	0.1139	0.6791	0.3325	0.212
Mof_C 	C 	0.1746	0.5804	0.33117	-0.245
Mof_C 	C 	0.2742	0.55	0.3663	0.121
Mof_C 	C 	0.0107	0.7153	0.29266	-0.321
Mof_C 	C 	0.6055	0.75	0.25	0.186
Mof_C 	C 	0.8945	0.25	0.75	0.119
Mof_C 	C 	0.3945	0.25	0.75	0.186
Mof_C 	C 	0.1055	0.75	0.25	0.119
Mof_N 	N 	0.8178	0.8903	0.40253	-0.215
Mof_N 	N 	0.8178	0.6097	0.09747	-0.216
Mof_N 	N 	0.6822	0.1097	0.90253	-0.212
Mof_N 	N 	0.6822	0.3903	0.59747	-0.212
Mof_N 	N 	0.1822	0.1097	0.59747	-0.215
Mof_N 	N 	0.1822	0.3903	0.90253	-0.216
Mof_N 	N 	0.3178	0.8903	0.09747	-0.212
Mof_N 	N 	0.3178	0.6097	0.40253	-0.212
Mof_O 	O 	0.0058	0.82469	0.49426	-0.442
Mof_O 	O 	0.0849	0.90401	0.55974	-0.45
Mof_O 	O 	0.2577	0.54032	0.49924	-0.452
Mof_O 	O 	0.3399	0.464	0.56487	-0.448
Mof_O 	O 	0.0058	0.67531	0.00574	-0.44
Mof_O 	O 	0.0849	0.59599	0.94026	-0.451
Mof_O 	O 	0.2577	0.95968	0.00076	-0.449
Mof_O 	O 	0.3399	0.036	0.93513	-0.449
Mof_O 	O 	0.4942	0.17531	0.99426	-0.445
Mof_O 	O 	0.4151	0.09599	0.05974	-0.452
Mof_O 	O 	0.2423	0.45968	0.99924	-0.454
Mof_O 	O 	0.1601	0.536	0.06487	-0.447
Mof_O 	O 	0.4942	0.32469	0.50574	-0.445
Mof_O 	O 	0.4151	0.40401	0.44026	-0.451
Mof_O 	O 	0.2423	0.04032	0.50076	-0.452
Mof_O 	O 	0.1601	0.964	0.43513	-0.443
Mof_O 	O 	0.9942	0.17531	0.50574	-0.442
Mof_O 	O 	0.9151	0.09599	0.44026	-0.45
Mof_O 	O 	0.7423	0.45968	0.50076	-0.452
Mof_O 	O 	0.6601	0.536	0.43513	-0.448
Mof_O 	O 	0.9942	0.32469	0.99426	-0.44
Mof_O 	O 	0.9151	0.40401	0.05974	-0.451
Mof_O 	O 	0.7423	0.04032	0.99924	-0.449
Mof_O 	O 	0.6601	0.964	0.06487	-0.449
Mof_O 	O 	0.5058	0.82469	0.00574	-0.445
Mof_O 	O 	0.5849	0.90401	0.94026	-0.452
Mof_O 	O 	0.7577	0.54032	0.00076	-0.454
Mof_O 	O 	0.8399	0.464	0.93513	-0.447
Mof_O 	O 	0.5058	0.67531	0.49426	-0.445
Mof_O 	O 	0.5849	0.59599	0.55974	-0.451
Mof_O 	O 	0.7577	0.95968	0.49924	-0.452
Mof_O 	O 	0.8399	0.036	0.56487	-0.443
_end
