# CIF file generated by openbabel 3.1.0, see https://openbabel.org
data_I
_chemical_name_common 'image0'
_cell_length_a 11.7073
_cell_length_b 5.5647
_cell_length_c 22.83
_cell_angle_alpha 90
_cell_angle_beta 100.586
_cell_angle_gamma 90
_space_group_name_H-M_alt 'P 1'
_space_group_name_Hall 'P 1'
loop_
    _symmetry_equiv_pos_as_xyz
    x,y,z
loop_
    _atom_site_label
    _atom_site_type_symbol
    _atom_site_fract_x
    _atom_site_fract_y
    _atom_site_fract_z
    _atom_site_occupancy
    Ca1      Ca       0.63729    0.25666    0.22192    1.000
    S1       S        0.39846    0.46493    0.10674    1.000
    O1       O        0.26426    0.02310    0.82792    1.000
    O2       O        0.26053    0.41490    0.80911    1.000
    O3       O        0.41539    0.72090    0.11051    1.000
    O4       O        0.49480    0.30610    0.12965    1.000
    O5       O        0.98711    0.02410    0.24639    1.000
    O6       O        0.95804    0.41960    0.25535    1.000
    C1       C        0.10083    0.29250    0.20110    1.000
    C2       C        0.29868    0.29150    0.91041    1.000
    C3       C        0.19234    0.55960    0.14051    1.000
    H1       H        0.19320    0.70550    0.11900    1.000
    C4       C        0.26760    0.51200    0.93165    1.000
    H2       H        0.22830    0.62810    0.90470    1.000
    C5       C        0.10262    0.51030    0.17100    1.000
    H3       H        0.04260    0.62480    0.17140    1.000
    C6       C        0.29424    0.56210    0.99237    1.000
    H4       H        0.27220    0.71090    0.00740    1.000
    C7       C        0.38210    0.16740    0.01042    1.000
    H5       H        0.42010    0.05020    0.03740    1.000
    C8       C        0.18857    0.12420    0.20044    1.000
    H6       H        0.18560    0.97450    0.22010    1.000
    C9       C        0.28046    0.17220    0.17132    1.000
    H7       H        0.34110    0.05860    0.17140    1.000
    C10      C        0.27420    0.23820    0.84462    1.000
    C11      C        0.35396    0.11910    0.94983    1.000
    H8       H        0.37260    0.96710    0.93520    1.000
    C12      C        0.00659    0.24100    0.23699    1.000
    C13      C        0.35353    0.39080    0.03067    1.000
    C14      C        0.28117    0.39130    0.14203    1.000
    Ca2      Ca       0.86271    0.75666    0.27808    1.000
    S2       S        0.10154    0.96493    0.39326    1.000
    O7       O        0.23574    0.52310    0.67208    1.000
    O8       O        0.23947    0.91490    0.69089    1.000
    O9       O        0.08461    0.22090    0.38949    1.000
    O10      O        0.00520    0.80610    0.37035    1.000
    O11      O        0.51289    0.52410    0.25361    1.000
    O12      O        0.54196    0.91960    0.24465    1.000
    C15      C        0.39917    0.79250    0.29890    1.000
    C16      C        0.20132    0.79150    0.58959    1.000
    C17      C        0.30766    0.05960    0.35949    1.000
    H9       H        0.30680    0.20550    0.38100    1.000
    C18      C        0.23240    0.01200    0.56835    1.000
    H10      H        0.27170    0.12810    0.59530    1.000
    C19      C        0.39738    0.01030    0.32900    1.000
    H11      H        0.45740    0.12480    0.32860    1.000
    C20      C        0.20576    0.06210    0.50763    1.000
    H12      H        0.22780    0.21090    0.49260    1.000
    C21      C        0.11790    0.66740    0.48958    1.000
    H13      H        0.07990    0.55020    0.46260    1.000
    C22      C        0.31143    0.62420    0.29956    1.000
    H14      H        0.31440    0.47450    0.27990    1.000
    C23      C        0.21954    0.67220    0.32868    1.000
    H15      H        0.15890    0.55860    0.32860    1.000
    C24      C        0.22580    0.73820    0.65538    1.000
    C25      C        0.14604    0.61910    0.55017    1.000
    H16      H        0.12740    0.46710    0.56480    1.000
    C26      C        0.49341    0.74100    0.26301    1.000
    C27      C        0.14647    0.89080    0.46933    1.000
    C28      C        0.21883    0.89130    0.35797    1.000
    Ca3      Ca       0.36271    0.74334    0.77808    1.000
    S3       S        0.60154    0.53507    0.89326    1.000
    O13      O        0.73574    0.97690    0.17208    1.000
    O14      O        0.73947    0.58510    0.19089    1.000
    O15      O        0.58461    0.27910    0.88949    1.000
    O16      O        0.50520    0.69390    0.87035    1.000
    O17      O        0.01289    0.97590    0.75361    1.000
    O18      O        0.04196    0.58040    0.74465    1.000
    C29      C        0.89917    0.70750    0.79890    1.000
    C30      C        0.70132    0.70850    0.08959    1.000
    C31      C        0.80766    0.44040    0.85949    1.000
    H17      H        0.80680    0.29450    0.88100    1.000
    C32      C        0.73240    0.48800    0.06835    1.000
    H18      H        0.77170    0.37190    0.09530    1.000
    C33      C        0.89738    0.48970    0.82900    1.000
    H19      H        0.95740    0.37520    0.82860    1.000
    C34      C        0.70576    0.43790    0.00763    1.000
    H20      H        0.72780    0.28910    0.99260    1.000
    C35      C        0.61790    0.83260    0.98958    1.000
    H21      H        0.57990    0.94980    0.96260    1.000
    C36      C        0.81143    0.87580    0.79956    1.000
    H22      H        0.81440    0.02550    0.77990    1.000
    C37      C        0.71954    0.82780    0.82868    1.000
    H23      H        0.65890    0.94140    0.82860    1.000
    C38      C        0.72580    0.76180    0.15538    1.000
    C39      C        0.64604    0.88090    0.05017    1.000
    H24      H        0.62740    0.03290    0.06480    1.000
    C40      C        0.99341    0.75900    0.76301    1.000
    C41      C        0.64647    0.60920    0.96933    1.000
    C42      C        0.71883    0.60870    0.85797    1.000
    Ca4      Ca       0.13729    0.24334    0.72192    1.000
    S4       S        0.89846    0.03507    0.60674    1.000
    O19      O        0.76426    0.47690    0.32792    1.000
    O20      O        0.76053    0.08510    0.30911    1.000
    O21      O        0.91539    0.77910    0.61051    1.000
    O22      O        0.99480    0.19390    0.62965    1.000
    O23      O        0.48711    0.47590    0.74639    1.000
    O24      O        0.45804    0.08040    0.75535    1.000
    C43      C        0.60083    0.20750    0.70110    1.000
    C44      C        0.79868    0.20850    0.41041    1.000
    C45      C        0.69234    0.94040    0.64051    1.000
    H25      H        0.69320    0.79450    0.61900    1.000
    C46      C        0.76760    0.98800    0.43165    1.000
    H26      H        0.72830    0.87190    0.40470    1.000
    C47      C        0.60262    0.98970    0.67100    1.000
    H27      H        0.54260    0.87520    0.67140    1.000
    C48      C        0.79424    0.93790    0.49237    1.000
    H28      H        0.77220    0.78910    0.50740    1.000
    C49      C        0.88210    0.33260    0.51042    1.000
    H29      H        0.92010    0.44980    0.53740    1.000
    C50      C        0.68857    0.37580    0.70044    1.000
    H30      H        0.68560    0.52550    0.72010    1.000
    C51      C        0.78046    0.32780    0.67132    1.000
    H31      H        0.84110    0.44140    0.67140    1.000
    C52      C        0.77420    0.26180    0.34462    1.000
    C53      C        0.85396    0.38090    0.44983    1.000
    H32      H        0.87260    0.53290    0.43520    1.000
    C54      C        0.50659    0.25900    0.73699    1.000
    C55      C        0.85353    0.10920    0.53067    1.000
    C56      C        0.78117    0.10870    0.64203    1.000
