# CIF file generated by openbabel 3.1.0, see https://openbabel.org
data_I
_chemical_name_common 'image0'
_cell_length_a 20.1469
_cell_length_b 20.5147
_cell_length_c 10.0242
_cell_angle_alpha 90
_cell_angle_beta 90
_cell_angle_gamma 90
_space_group_name_H-M_alt 'P 1'
_space_group_name_Hall 'P 1'
loop_
    _symmetry_equiv_pos_as_xyz
    x,y,z
loop_
    _atom_site_label
    _atom_site_type_symbol
    _atom_site_fract_x
    _atom_site_fract_y
    _atom_site_fract_z
    _atom_site_occupancy
    Al1      Al       0.19830    0.32890    0.38010    1.000
    Al2      Al       0.93060    0.43440    0.40590    1.000
    P1       P        0.17620    0.32120    0.06780    1.000
    P2       P        0.08670    0.44220    0.40860    1.000
    O1       O        0.21430    0.33450    0.19270    1.000
    O2       O        0.16380    0.24930    0.05520    1.000
    O3       O        0.01900    0.41660    0.44230    1.000
    O4       O        0.10890    0.35560    0.06600    1.000
    O5       O        0.13850    0.39170    0.43650    1.000
    O6       O        0.10390    0.50080    0.49050    1.000
    O7       O        0.09060    0.46310    0.26280    1.000
    O8       O        0.21860    0.34330    0.94920    1.000
    Al3      Al       0.69830    0.82890    0.38010    1.000
    Al4      Al       0.43060    0.93440    0.40590    1.000
    P3       P        0.67620    0.82120    0.06780    1.000
    P4       P        0.58670    0.94220    0.40860    1.000
    O9       O        0.71430    0.83450    0.19270    1.000
    O10      O        0.66380    0.74930    0.05520    1.000
    O11      O        0.51900    0.91660    0.44230    1.000
    O12      O        0.60890    0.85560    0.06600    1.000
    O13      O        0.63850    0.89170    0.43650    1.000
    O14      O        0.60390    0.00080    0.49050    1.000
    O15      O        0.59060    0.96310    0.26280    1.000
    O16      O        0.71860    0.84330    0.94920    1.000
    Al5      Al       0.30170    0.67110    0.38010    1.000
    Al6      Al       0.56940    0.56560    0.40590    1.000
    P5       P        0.32380    0.67880    0.06780    1.000
    P6       P        0.41330    0.55780    0.40860    1.000
    O17      O        0.28570    0.66550    0.19270    1.000
    O18      O        0.33620    0.75070    0.05520    1.000
    O19      O        0.48100    0.58340    0.44230    1.000
    O20      O        0.39110    0.64440    0.06600    1.000
    O21      O        0.36150    0.60830    0.43650    1.000
    O22      O        0.39610    0.49920    0.49050    1.000
    O23      O        0.40940    0.53690    0.26280    1.000
    O24      O        0.28140    0.65670    0.94920    1.000
    Al7      Al       0.80170    0.17110    0.38010    1.000
    Al8      Al       0.06940    0.06560    0.40590    1.000
    P7       P        0.82380    0.17880    0.06780    1.000
    P8       P        0.91330    0.05780    0.40860    1.000
    O25      O        0.78570    0.16550    0.19270    1.000
    O26      O        0.83620    0.25070    0.05520    1.000
    O27      O        0.98100    0.08340    0.44230    1.000
    O28      O        0.89110    0.14440    0.06600    1.000
    O29      O        0.86150    0.10830    0.43650    1.000
    O30      O        0.89610    0.99920    0.49050    1.000
    O31      O        0.90940    0.03690    0.26280    1.000
    O32      O        0.78140    0.15670    0.94920    1.000
    Al9      Al       0.80170    0.32890    0.11990    1.000
    Al10     Al       0.06940    0.43440    0.09410    1.000
    P9       P        0.82380    0.32120    0.43220    1.000
    P10      P        0.91330    0.44220    0.09140    1.000
    O33      O        0.78570    0.33450    0.30730    1.000
    O34      O        0.83620    0.24930    0.44480    1.000
    O35      O        0.98100    0.41660    0.05770    1.000
    O36      O        0.89110    0.35560    0.43400    1.000
    O37      O        0.86150    0.39170    0.06350    1.000
    O38      O        0.89610    0.50080    0.00950    1.000
    O39      O        0.90940    0.46310    0.23720    1.000
    O40      O        0.78140    0.34330    0.55080    1.000
    Al11     Al       0.30170    0.82890    0.11990    1.000
    Al12     Al       0.56940    0.93440    0.09410    1.000
    P11      P        0.32380    0.82120    0.43220    1.000
    P12      P        0.41330    0.94220    0.09140    1.000
    O41      O        0.28570    0.83450    0.30730    1.000
    O42      O        0.33620    0.74930    0.44480    1.000
    O43      O        0.48100    0.91660    0.05770    1.000
    O44      O        0.39110    0.85560    0.43400    1.000
    O45      O        0.36150    0.89170    0.06350    1.000
    O46      O        0.39610    0.00080    0.00950    1.000
    O47      O        0.40940    0.96310    0.23720    1.000
    O48      O        0.28140    0.84330    0.55080    1.000
    Al13     Al       0.69830    0.67110    0.11990    1.000
    Al14     Al       0.43060    0.56560    0.09410    1.000
    P13      P        0.67620    0.67880    0.43220    1.000
    P14      P        0.58670    0.55780    0.09140    1.000
    O49      O        0.71430    0.66550    0.30730    1.000
    O50      O        0.66380    0.75070    0.44480    1.000
    O51      O        0.51900    0.58340    0.05770    1.000
    O52      O        0.60890    0.64440    0.43400    1.000
    O53      O        0.63850    0.60830    0.06350    1.000
    O54      O        0.60390    0.49920    0.00950    1.000
    O55      O        0.59060    0.53690    0.23720    1.000
    O56      O        0.71860    0.65670    0.55080    1.000
    Al15     Al       0.19830    0.17110    0.11990    1.000
    Al16     Al       0.93060    0.06560    0.09410    1.000
    P15      P        0.17620    0.17880    0.43220    1.000
    P16      P        0.08670    0.05780    0.09140    1.000
    O57      O        0.21430    0.16550    0.30730    1.000
    O58      O        0.16380    0.25070    0.44480    1.000
    O59      O        0.01900    0.08340    0.05770    1.000
    O60      O        0.10890    0.14440    0.43400    1.000
    O61      O        0.13850    0.10830    0.06350    1.000
    O62      O        0.10390    0.99920    0.00950    1.000
    O63      O        0.09060    0.03690    0.23720    1.000
    O64      O        0.21860    0.15670    0.55080    1.000
    Al17     Al       0.80170    0.67110    0.61990    1.000
    Al18     Al       0.06940    0.56560    0.59410    1.000
    P17      P        0.82380    0.67880    0.93220    1.000
    P18      P        0.91330    0.55780    0.59140    1.000
    O65      O        0.78570    0.66550    0.80730    1.000
    O66      O        0.83620    0.75070    0.94480    1.000
    O67      O        0.98100    0.58340    0.55770    1.000
    O68      O        0.89110    0.64440    0.93400    1.000
    O69      O        0.86150    0.60830    0.56350    1.000
    O70      O        0.89610    0.49920    0.50950    1.000
    O71      O        0.90940    0.53690    0.73720    1.000
    O72      O        0.78140    0.65670    0.05080    1.000
    Al19     Al       0.30170    0.17110    0.61990    1.000
    Al20     Al       0.56940    0.06560    0.59410    1.000
    P19      P        0.32380    0.17880    0.93220    1.000
    P20      P        0.41330    0.05780    0.59140    1.000
    O73      O        0.28570    0.16550    0.80730    1.000
    O74      O        0.33620    0.25070    0.94480    1.000
    O75      O        0.48100    0.08340    0.55770    1.000
    O76      O        0.39110    0.14440    0.93400    1.000
    O77      O        0.36150    0.10830    0.56350    1.000
    O78      O        0.39610    0.99920    0.50950    1.000
    O79      O        0.40940    0.03690    0.73720    1.000
    O80      O        0.28140    0.15670    0.05080    1.000
    Al21     Al       0.69830    0.32890    0.61990    1.000
    Al22     Al       0.43060    0.43440    0.59410    1.000
    P21      P        0.67620    0.32120    0.93220    1.000
    P22      P        0.58670    0.44220    0.59140    1.000
    O81      O        0.71430    0.33450    0.80730    1.000
    O82      O        0.66380    0.24930    0.94480    1.000
    O83      O        0.51900    0.41660    0.55770    1.000
    O84      O        0.60890    0.35560    0.93400    1.000
    O85      O        0.63850    0.39170    0.56350    1.000
    O86      O        0.60390    0.50080    0.50950    1.000
    O87      O        0.59060    0.46310    0.73720    1.000
    O88      O        0.71860    0.34330    0.05080    1.000
    Al23     Al       0.19830    0.82890    0.61990    1.000
    Al24     Al       0.93060    0.93440    0.59410    1.000
    P23      P        0.17620    0.82120    0.93220    1.000
    P24      P        0.08670    0.94220    0.59140    1.000
    O89      O        0.21430    0.83450    0.80730    1.000
    O90      O        0.16380    0.74930    0.94480    1.000
    O91      O        0.01900    0.91660    0.55770    1.000
    O92      O        0.10890    0.85560    0.93400    1.000
    O93      O        0.13850    0.89170    0.56350    1.000
    O94      O        0.10390    0.00080    0.50950    1.000
    O95      O        0.09060    0.96310    0.73720    1.000
    O96      O        0.21860    0.84330    0.05080    1.000
    Al25     Al       0.19830    0.67110    0.88010    1.000
    Al26     Al       0.93060    0.56560    0.90590    1.000
    P25      P        0.17620    0.67880    0.56780    1.000
    P26      P        0.08670    0.55780    0.90860    1.000
    O97      O        0.21430    0.66550    0.69270    1.000
    O98      O        0.16380    0.75070    0.55520    1.000
    O99      O        0.01900    0.58340    0.94230    1.000
    O100     O        0.10890    0.64440    0.56600    1.000
    O101     O        0.13850    0.60830    0.93650    1.000
    O102     O        0.10390    0.49920    0.99050    1.000
    O103     O        0.09060    0.53690    0.76280    1.000
    O104     O        0.21860    0.65670    0.44920    1.000
    Al27     Al       0.69830    0.17110    0.88010    1.000
    Al28     Al       0.43060    0.06560    0.90590    1.000
    P27      P        0.67620    0.17880    0.56780    1.000
    P28      P        0.58670    0.05780    0.90860    1.000
    O105     O        0.71430    0.16550    0.69270    1.000
    O106     O        0.66380    0.25070    0.55520    1.000
    O107     O        0.51900    0.08340    0.94230    1.000
    O108     O        0.60890    0.14440    0.56600    1.000
    O109     O        0.63850    0.10830    0.93650    1.000
    O110     O        0.60390    0.99920    0.99050    1.000
    O111     O        0.59060    0.03690    0.76280    1.000
    O112     O        0.71860    0.15670    0.44920    1.000
    Al29     Al       0.30170    0.32890    0.88010    1.000
    Al30     Al       0.56940    0.43440    0.90590    1.000
    P29      P        0.32380    0.32120    0.56780    1.000
    P30      P        0.41330    0.44220    0.90860    1.000
    O113     O        0.28570    0.33450    0.69270    1.000
    O114     O        0.33620    0.24930    0.55520    1.000
    O115     O        0.48100    0.41660    0.94230    1.000
    O116     O        0.39110    0.35560    0.56600    1.000
    O117     O        0.36150    0.39170    0.93650    1.000
    O118     O        0.39610    0.50080    0.99050    1.000
    O119     O        0.40940    0.46310    0.76280    1.000
    O120     O        0.28140    0.34330    0.44920    1.000
    Al31     Al       0.80170    0.82890    0.88010    1.000
    Al32     Al       0.06940    0.93440    0.90590    1.000
    P31      P        0.82380    0.82120    0.56780    1.000
    P32      P        0.91330    0.94220    0.90860    1.000
    O121     O        0.78570    0.83450    0.69270    1.000
    O122     O        0.83620    0.74930    0.55520    1.000
    O123     O        0.98100    0.91660    0.94230    1.000
    O124     O        0.89110    0.85560    0.56600    1.000
    O125     O        0.86150    0.89170    0.93650    1.000
    O126     O        0.89610    0.00080    0.99050    1.000
    O127     O        0.90940    0.96310    0.76280    1.000
    O128     O        0.78140    0.84330    0.44920    1.000
