# CIF file generated by openbabel 3.1.0, see https://openbabel.org
data_I
_chemical_name_common 'image0'
_cell_length_a 8.8723
_cell_length_b 10.7152
_cell_length_c 18.92
_cell_angle_alpha 75.496
_cell_angle_beta 83.797
_cell_angle_gamma 69.336
_space_group_name_H-M_alt 'P 1'
_space_group_name_Hall 'P 1'
loop_
    _symmetry_equiv_pos_as_xyz
    x,y,z
loop_
    _atom_site_label
    _atom_site_type_symbol
    _atom_site_fract_x
    _atom_site_fract_y
    _atom_site_fract_z
    _atom_site_occupancy
    Pr1      Pr       0.49816    0.58858    0.21300    1.000
    O1       O        0.28020    0.60350    0.31043    1.000
    O2       O        0.20240    0.60790    0.16790    1.000
    O3       O        0.40340    0.57190    0.08810    1.000
    O4       O        0.43480    0.37180    0.24430    1.000
    O5       O        0.65060    0.44250    0.31892    1.000
    O6       O        0.73660    0.45840    0.15957    1.000
    O7       O        0.60950    0.73110    0.25880    1.000
    Pr2      Pr       0.10400    0.46808    0.27628    1.000
    C1       C        0.42670    0.25620    0.24590    1.000
    C2       C        0.75860    0.40630    0.36460    1.000
    C3       C        0.88500    0.41690    0.14380    1.000
    O8       O        0.07020    0.59100    0.38070    1.000
    O9       O        0.29520    0.23870    0.24610    1.000
    O10      O        0.90240    0.39760    0.35110    1.000
    O11      O        0.99480    0.40970    0.18211    1.000
    O12      O        0.87600    0.67370    0.24350    1.000
    C4       C        0.58130    0.13560    0.24980    1.000
    C5       C        0.71000    0.36880    0.44360    1.000
    C6       C        0.93110    0.37560    0.07200    1.000
    C7       C        0.72790    0.15270    0.25390    1.000
    C8       C        0.58190    0.00640    0.24960    1.000
    C9       C        0.57880    0.32400    0.46300    1.000
    C10      C        0.78710    0.38380    0.49870    1.000
    C11      C        0.81320    0.40090    0.02200    1.000
    C12      C        0.09200    0.31940    0.05260    1.000
    H1       H        0.72740    0.23930    0.25460    1.000
    N1       N        0.87050    0.05070    0.25700    1.000
    H2       H        0.48550    0.99140    0.24770    1.000
    C13      C        0.72700    0.89960    0.25230    1.000
    N2       N        0.52600    0.29110    0.53070    1.000
    H3       H        0.52430    0.31680    0.42570    1.000
    C14      C        0.73010    0.35650    0.57040    1.000
    H4       H        0.87660    0.41190    0.48820    1.000
    C15      C        0.86150    0.37030    0.95430    1.000
    H5       H        0.70450    0.43750    0.03380    1.000
    N3       N        0.13970    0.28910    0.98690    1.000
    H6       H        0.17010    0.30190    0.08620    1.000
    C16      C        0.86830    0.92790    0.25530    1.000
    C17      C        0.73840    0.75620    0.25200    1.000
    C18      C        0.60150    0.30730    0.58320    1.000
    C19      C        0.79910    0.38670    0.62970    1.000
    C20      C        0.02390    0.31570    0.93960    1.000
    C21      C        0.74350    0.40070    0.89640    1.000
    H7       H        0.96620    0.85680    0.25620    1.000
    H8       H        0.56620    0.28440    0.63120    1.000
    H9       H        0.05540    0.29590    0.89400    1.000
    Pr3      Pr       0.50184    0.41142    0.78700    1.000
    O13      O        0.71980    0.39650    0.68957    1.000
    O14      O        0.79760    0.39210    0.83210    1.000
    O15      O        0.59660    0.42810    0.91190    1.000
    O16      O        0.56520    0.62820    0.75570    1.000
    O17      O        0.34940    0.55750    0.68108    1.000
    O18      O        0.26340    0.54160    0.84043    1.000
    O19      O        0.39050    0.26890    0.74120    1.000
    Pr4      Pr       0.89600    0.53192    0.72372    1.000
    C22      C        0.57330    0.74380    0.75410    1.000
    C23      C        0.24140    0.59370    0.63540    1.000
    C24      C        0.11500    0.58310    0.85620    1.000
    O20      O        0.92980    0.40900    0.61930    1.000
    O21      O        0.70480    0.76130    0.75390    1.000
    O22      O        0.09760    0.60240    0.64890    1.000
    O23      O        0.00520    0.59030    0.81789    1.000
    O24      O        0.12400    0.32630    0.75650    1.000
    C25      C        0.41870    0.86440    0.75020    1.000
    C26      C        0.29000    0.63120    0.55640    1.000
    C27      C        0.06890    0.62440    0.92800    1.000
    C28      C        0.27210    0.84730    0.74610    1.000
    C29      C        0.41810    0.99360    0.75040    1.000
    C30      C        0.42120    0.67600    0.53700    1.000
    C31      C        0.21290    0.61620    0.50130    1.000
    C32      C        0.18680    0.59910    0.97800    1.000
    C33      C        0.90800    0.68060    0.94740    1.000
    H10      H        0.27260    0.76070    0.74540    1.000
    N4       N        0.12950    0.94930    0.74300    1.000
    H11      H        0.51450    0.00860    0.75230    1.000
    C34      C        0.27300    0.10040    0.74770    1.000
    N5       N        0.47400    0.70890    0.46930    1.000
    H12      H        0.47570    0.68320    0.57430    1.000
    C35      C        0.26990    0.64350    0.42960    1.000
    H13      H        0.12340    0.58810    0.51180    1.000
    C36      C        0.13850    0.62970    0.04570    1.000
    H14      H        0.29550    0.56250    0.96620    1.000
    N6       N        0.86030    0.71090    0.01310    1.000
    H15      H        0.82990    0.69810    0.91380    1.000
    C37      C        0.13170    0.07210    0.74470    1.000
    C38      C        0.26160    0.24380    0.74800    1.000
    C39      C        0.39850    0.69270    0.41680    1.000
    C40      C        0.20090    0.61330    0.37030    1.000
    C41      C        0.97610    0.68430    0.06040    1.000
    C42      C        0.25650    0.59930    0.10360    1.000
    H16      H        0.03380    0.14320    0.74380    1.000
    H17      H        0.43380    0.71560    0.36880    1.000
    H18      H        0.94460    0.70410    0.10600    1.000
