data_functionalizedCrystal
_audit_creation_method	'EQeq! by Chris Wilmer'
_symmetry_space_group_name_H-M	'P1'
_symmetry_Int_Tables_number	1
_symmetry_cell_setting	triclinic
loop_
_symmetry_equiv_pos_as_xyz
  x,y,z
_cell_length_a	10.5415
_cell_length_b	10.5415
_cell_length_c	16.9981
_cell_angle_alpha	77.799
_cell_angle_beta	73.361
_cell_angle_gamma	101.39
loop_
_atom_site_label
_atom_site_type_symbol
_atom_site_fract_x
_atom_site_fract_y
_atom_site_fract_z
_atom_site_charge
Mof_Cd	Cd	0.5	0.5	-0	0.394
Mof_Cd	Cd	-0	0.5	0.5	0.394
Mof_H 	H 	0.1936	0.3952	0.7544	0.117
Mof_H 	H 	0.0954	0.5035	0.6653	0.025
Mof_H 	H 	0.1491	0.2591	0.5224	0.017
Mof_H 	H 	0.2405	0.1384	0.6087	0.111
Mof_H 	H 	0.4467	0.4285	0.7146	0.121
Mof_H 	H 	0.5233	0.5301	0.8074	0.02
Mof_H 	H 	0.3266	0.2035	0.9999	0.03
Mof_H 	H 	0.241	0.0929	0.9117	0.12
Mof_H 	H 	0.2865	0.0262	0.6987	0.051
Mof_H 	H 	0.6496	0.948	0.7456	0.119
Mof_H 	H 	0.6688	0.7607	0.8347	0.033
Mof_H 	H 	0.2815	0.6715	0.9776	0.025
Mof_H 	H 	0.2471	0.8492	0.8913	0.112
Mof_H 	H 	0.6431	0.1613	0.7854	0.123
Mof_H 	H 	0.8375	0.3307	0.6926	0.025
Mof_H 	H 	0.7034	0.3265	0.5001	0.022
Mof_H 	H 	0.5046	0.1527	0.5883	0.119
Mof_H 	H 	0.2249	0.9852	0.8013	0.05
Mof_H 	H 	0.8064	0.6048	0.2456	0.119
Mof_H 	H 	0.9046	0.4965	0.3347	0.036
Mof_H 	H 	0.8509	0.7409	0.4776	0.023
Mof_H 	H 	0.7595	0.8616	0.3913	0.115
Mof_H 	H 	0.5533	0.5715	0.2854	0.121
Mof_H 	H 	0.4767	0.4699	0.1926	0.017
Mof_H 	H 	0.6734	0.7965	0.0001	0.011
Mof_H 	H 	0.759	0.9071	0.0883	0.119
Mof_H 	H 	0.7135	0.9738	0.3013	0.056
Mof_H 	H 	0.3504	0.052	0.2544	0.116
Mof_H 	H 	0.3312	0.2393	0.1653	0.027
Mof_H 	H 	0.7185	0.3285	0.0224	0.014
Mof_H 	H 	0.7529	0.1508	0.1087	0.113
Mof_H 	H 	0.3569	0.8387	0.2146	0.119
Mof_H 	H 	0.1625	0.6693	0.3074	0.013
Mof_H 	H 	0.2966	0.6735	0.4999	0.019
Mof_H 	H 	0.4954	0.8473	0.4117	0.119
Mof_H 	H 	0.7751	0.0148	0.1987	0.057
Mof_C 	C 	0.1847	0.3641	0.7072	-0.176
Mof_C 	C 	0.1262	0.4285	0.6533	0.107
Mof_C 	C 	0.1563	0.2861	0.5712	0.113
Mof_C 	C 	0.2132	0.2144	0.6216	-0.184
Mof_C 	C 	0.231	0.2528	0.692	0.178
Mof_C 	C 	0.3349	0.2503	0.803	0.184
Mof_C 	C 	0.4193	0.38	0.7733	-0.194
Mof_C 	C 	0.4646	0.4404	0.8292	0.119
Mof_C 	C 	0.3497	0.2506	0.9413	0.113
Mof_C 	C 	0.2988	0.1829	0.8887	-0.181
Mof_C 	C 	0.5713	0.8919	0.7928	-0.173
Mof_C 	C 	0.5818	0.7795	0.8467	0.111
Mof_C 	C 	0.3573	0.7275	0.9288	0.117
Mof_C 	C 	0.336	0.8348	0.8784	-0.18
Mof_C 	C 	0.4448	0.923	0.808	0.181
Mof_C 	C 	0.5533	0.1379	0.697	0.187
Mof_C 	C 	0.6533	0.1926	0.7267	-0.195
Mof_C 	C 	0.7696	0.2938	0.6708	0.12
Mof_C 	C 	0.6919	0.291	0.5587	0.114
Mof_C 	C 	0.5716	0.1875	0.6113	-0.182
Mof_C 	C 	0.8153	0.6359	0.2928	-0.171
Mof_C 	C 	0.8738	0.5715	0.3467	0.112
Mof_C 	C 	0.8437	0.7139	0.4288	0.119
Mof_C 	C 	0.7868	0.7856	0.3784	-0.18
Mof_C 	C 	0.769	0.7472	0.308	0.184
Mof_C 	C 	0.6651	0.7497	0.197	0.188
Mof_C 	C 	0.5807	0.62	0.2267	-0.197
Mof_C 	C 	0.5354	0.5596	0.1708	0.119
Mof_C 	C 	0.6503	0.7494	0.0587	0.112
Mof_C 	C 	0.7012	0.8171	0.1113	-0.185
Mof_C 	C 	0.4287	0.1081	0.2072	-0.175
Mof_C 	C 	0.4182	0.2205	0.1533	0.107
Mof_C 	C 	0.6427	0.2725	0.0712	0.115
Mof_C 	C 	0.664	0.1652	0.1216	-0.184
Mof_C 	C 	0.5552	0.077	0.192	0.18
Mof_C 	C 	0.4467	0.8621	0.303	0.185
Mof_C 	C 	0.3467	0.8074	0.2733	-0.196
Mof_C 	C 	0.2304	0.7062	0.3292	0.118
Mof_C 	C 	0.3081	0.709	0.4413	0.111
Mof_C 	C 	0.4284	0.8125	0.3887	-0.183
Mof_C 	C 	0.2992	0.0492	0.75	0.018
Mof_C 	C 	0.7008	0.9508	0.25	0.016
Mof_N 	N 	0.1099	0.3917	0.5852	-0.161
Mof_N 	N 	0.2913	0.1871	0.746	-0.161
Mof_N 	N 	0.4284	0.3769	0.9129	-0.152
Mof_N 	N 	0.4769	0.6951	0.9148	-0.151
Mof_N 	N 	0.4331	0.0373	0.754	-0.16
Mof_N 	N 	0.7898	0.3413	0.5871	-0.153
Mof_N 	N 	0.8901	0.6083	0.4148	-0.151
Mof_N 	N 	0.7087	0.8129	0.254	-0.159
Mof_N 	N 	0.5716	0.6231	0.0871	-0.161
Mof_N 	N 	0.5231	0.3049	0.0852	-0.161
Mof_N 	N 	0.5669	0.9627	0.246	-0.16
Mof_N 	N 	0.2102	0.6587	0.4129	-0.16
Mof_O 	O 	0.7261	0.5533	0.9084	-0.142
Mof_O 	O 	0.9617	0.6345	0.5916	-0.144
Mof_O 	O 	0.2739	0.4467	0.0916	-0.173
Mof_O 	O 	0.0383	0.3655	0.4084	-0.172
Mof_N 	N 	0.9184	0.0329	0.8359	0.066
Mof_O 	O 	0.9455	0.9501	0.8014	-0.096
Mof_O 	O 	0.9407	0.0365	0.897	-0.096
Mof_O 	O 	0.8685	0.1131	0.8078	-0.111
Mof_N 	N 	0.3688	0.7543	0.6641	0.07
Mof_O 	O 	0.2515	0.7469	0.6986	-0.114
Mof_O 	O 	0.4335	0.8377	0.603	-0.117
Mof_O 	O 	0.4209	0.6763	0.6922	-0.122
Mof_N 	N 	0.0816	0.9671	0.1641	0.073
Mof_O 	O 	0.0545	0.0499	0.1986	-0.123
Mof_O 	O 	0.0593	0.9635	0.103	-0.136
Mof_O 	O 	0.1315	0.8869	0.1922	-0.132
Mof_N 	N 	0.6312	0.2457	0.3359	0.069
Mof_O 	O 	0.7485	0.2531	0.3014	-0.105
Mof_O 	O 	0.5665	0.1623	0.397	-0.117
Mof_O 	O 	0.5791	0.3237	0.3078	-0.122
_end
