data_functionalizedCrystal
_audit_creation_method	'EQeq! by Chris Wilmer'
_symmetry_space_group_name_H-M	'P1'
_symmetry_Int_Tables_number	1
_symmetry_cell_setting	triclinic
loop_
_symmetry_equiv_pos_as_xyz
  x,y,z
_cell_length_a	6.907
_cell_length_b	21.897
_cell_length_c	23.151
_cell_angle_alpha	90
_cell_angle_beta	90
_cell_angle_gamma	90
loop_
_atom_site_label
_atom_site_type_symbol
_atom_site_fract_x
_atom_site_fract_y
_atom_site_fract_z
_atom_site_charge
Mof_Nd	Nd	0.5783	0.26843	0.44936	2.605
Mof_O 	O 	0.6006	0.31026	0.3495	-0.469
Mof_O 	O 	0.5664	0.21088	0.35873	-0.439
Mof_O 	O 	0.7982	0.35142	0.46075	-0.624
Mof_O 	O 	0.415	0.22452	0.05241	-0.708
Mof_O 	O 	0.7284	0.23946	0.05149	-0.747
Mof_O 	O 	0.0494	0.33625	0.52031	-0.584
Mof_C 	C 	0.5824	0.2577	0.3274	0.262
Mof_C 	C 	0.5795	0.2497	0.2634	0.067
Mof_C 	C 	0.5707	0.1918	0.2398	-0.186
Mof_H 	H 	0.5646	0.1576	0.2636	0.149
Mof_C 	C 	0.5868	0.3002	0.2271	-0.167
Mof_H 	H 	0.5928	0.3392	0.2429	0.109
Mof_C 	C 	0.573	0.2315	0.0785	0.577
Mof_C 	C 	0.5765	0.2347	0.1438	-0.273
Mof_C 	C 	0.5853	0.2931	0.1675	0.146
Mof_H 	H 	0.5901	0.3271	0.1436	-0.045
Mof_C 	C 	0.571	0.1854	0.1804	0.216
Mof_O 	O 	0.6021	0.117	0.105	-0.114
Mof_O 	O 	0.535	0.0826	0.1887	-0.083
Mof_N 	N 	0.5683	0.1239	0.1562	-0.025
Mof_N 	N 	0.0976	0.4308	0.5995	-0.015
Mof_O 	O 	0.961	0.4137	0.6297	-0.08
Mof_O 	O 	0.263	0.4245	0.6107	-0.088
Mof_C 	C 	0.9313	0.3697	0.4932	0.554
Mof_C 	C 	0.898	0.475	0.4534	0.043
Mof_C 	C 	0.0628	0.4627	0.5441	0.097
Mof_C 	C 	0.9641	0.4374	0.498	-0.172
Mof_Nd	Nd	0.9217	0.73157	0.94936	2.593
Mof_O 	O 	0.8994	0.68974	0.8495	-0.469
Mof_O 	O 	0.9336	0.78912	0.85873	-0.439
Mof_O 	O 	0.7018	0.64858	0.96075	-0.621
Mof_O 	O 	0.085	0.77548	0.55241	-0.7
Mof_O 	O 	0.7716	0.76054	0.55149	-0.748
Mof_O 	O 	0.4506	0.66375	0.02031	-0.579
Mof_C 	C 	0.9176	0.7423	0.8274	0.262
Mof_C 	C 	0.9205	0.7503	0.7634	0.064
Mof_C 	C 	0.9293	0.8082	0.7398	-0.185
Mof_H 	H 	0.9354	0.8424	0.7636	0.148
Mof_C 	C 	0.9132	0.6998	0.7271	-0.166
Mof_H 	H 	0.9072	0.6608	0.7429	0.108
Mof_C 	C 	0.927	0.7685	0.5785	0.57
Mof_C 	C 	0.9235	0.7653	0.6438	-0.273
Mof_C 	C 	0.9147	0.7069	0.6675	0.142
Mof_H 	H 	0.9099	0.6729	0.6436	-0.046
Mof_C 	C 	0.929	0.8146	0.6804	0.212
Mof_O 	O 	0.8979	0.883	0.605	-0.116
Mof_O 	O 	0.965	0.9174	0.6887	-0.085
Mof_N 	N 	0.9317	0.8761	0.6562	-0.025
Mof_N 	N 	0.4024	0.5692	0.0995	-0.014
Mof_O 	O 	0.539	0.5863	0.1297	-0.082
Mof_O 	O 	0.237	0.5755	0.1107	-0.086
Mof_C 	C 	0.5687	0.6303	0.9932	0.547
Mof_C 	C 	0.602	0.525	0.9534	0.042
Mof_C 	C 	0.4372	0.5373	0.0441	0.1
Mof_C 	C 	0.5359	0.5626	0.998	-0.172
Mof_Nd	Nd	0.4217	0.76843	0.05064	2.606
Mof_O 	O 	0.3994	0.81026	0.1505	-0.468
Mof_O 	O 	0.4336	0.71088	0.14127	-0.438
Mof_O 	O 	0.2018	0.85142	0.03925	-0.623
Mof_O 	O 	0.585	0.72452	0.44759	-0.708
Mof_O 	O 	0.2716	0.73946	0.44851	-0.747
Mof_O 	O 	0.9506	0.83625	0.97969	-0.583
Mof_C 	C 	0.4176	0.7577	0.1726	0.263
Mof_C 	C 	0.4205	0.7497	0.2366	0.068
Mof_C 	C 	0.4293	0.6918	0.2602	-0.185
Mof_H 	H 	0.4354	0.6576	0.2364	0.15
Mof_C 	C 	0.4132	0.8002	0.2729	-0.166
Mof_H 	H 	0.4072	0.8392	0.2571	0.11
Mof_C 	C 	0.427	0.7315	0.4215	0.578
Mof_C 	C 	0.4235	0.7347	0.3562	-0.274
Mof_C 	C 	0.4147	0.7931	0.3325	0.146
Mof_H 	H 	0.4099	0.8271	0.3564	-0.045
Mof_C 	C 	0.429	0.6854	0.3196	0.216
Mof_O 	O 	0.3979	0.617	0.395	-0.114
Mof_O 	O 	0.465	0.5826	0.3113	-0.083
Mof_N 	N 	0.4317	0.6239	0.3438	-0.025
Mof_N 	N 	0.9024	0.9308	0.9005	-0.016
Mof_O 	O 	0.039	0.9137	0.8703	-0.078
Mof_O 	O 	0.737	0.9245	0.8893	-0.088
Mof_C 	C 	0.0687	0.8697	0.0068	0.553
Mof_C 	C 	0.102	0.975	0.0466	0.043
Mof_C 	C 	0.9372	0.9627	0.9559	0.097
Mof_C 	C 	0.0359	0.9374	0.002	-0.172
Mof_Nd	Nd	0.0783	0.23157	0.55064	2.593
Mof_O 	O 	0.1006	0.18974	0.6505	-0.469
Mof_O 	O 	0.0664	0.28912	0.64127	-0.439
Mof_O 	O 	0.2982	0.14858	0.53925	-0.621
Mof_O 	O 	0.915	0.27548	0.94759	-0.701
Mof_O 	O 	0.2284	0.26054	0.94851	-0.748
Mof_O 	O 	0.5494	0.16375	0.47969	-0.578
Mof_C 	C 	0.0824	0.2423	0.6726	0.262
Mof_C 	C 	0.0795	0.2503	0.7366	0.065
Mof_C 	C 	0.0707	0.3082	0.7602	-0.185
Mof_H 	H 	0.0646	0.3424	0.7364	0.148
Mof_C 	C 	0.0868	0.1998	0.7729	-0.166
Mof_H 	H 	0.0928	0.1608	0.7571	0.108
Mof_C 	C 	0.073	0.2685	0.9215	0.571
Mof_C 	C 	0.0765	0.2653	0.8562	-0.273
Mof_C 	C 	0.0853	0.2069	0.8325	0.143
Mof_H 	H 	0.0901	0.1729	0.8564	-0.046
Mof_C 	C 	0.071	0.3146	0.8196	0.213
Mof_O 	O 	0.1021	0.383	0.895	-0.115
Mof_O 	O 	0.035	0.4174	0.8113	-0.084
Mof_N 	N 	0.0683	0.3761	0.8438	-0.025
Mof_N 	N 	0.5976	0.0692	0.4005	-0.014
Mof_O 	O 	0.461	0.0863	0.3703	-0.082
Mof_O 	O 	0.763	0.0755	0.3893	-0.085
Mof_C 	C 	0.4313	0.1303	0.5068	0.547
Mof_C 	C 	0.398	0.025	0.5466	0.041
Mof_C 	C 	0.5628	0.0373	0.4559	0.1
Mof_C 	C 	0.4641	0.0626	0.502	-0.172
Mof_Nd	Nd	0.4217	0.73157	0.55064	2.606
Mof_O 	O 	0.3994	0.68974	0.6505	-0.468
Mof_O 	O 	0.4336	0.78912	0.64127	-0.438
Mof_O 	O 	0.2018	0.64858	0.53925	-0.623
Mof_O 	O 	0.585	0.77548	0.94759	-0.707
Mof_O 	O 	0.2716	0.76054	0.94851	-0.746
Mof_O 	O 	0.9506	0.66375	0.47969	-0.583
Mof_C 	C 	0.4176	0.7423	0.6726	0.263
Mof_C 	C 	0.4205	0.7503	0.7366	0.068
Mof_C 	C 	0.4293	0.8082	0.7602	-0.185
Mof_H 	H 	0.4354	0.8424	0.7364	0.15
Mof_C 	C 	0.4132	0.6998	0.7729	-0.166
Mof_H 	H 	0.4072	0.6608	0.7571	0.11
Mof_C 	C 	0.427	0.7685	0.9215	0.578
Mof_C 	C 	0.4235	0.7653	0.8562	-0.273
Mof_C 	C 	0.4147	0.7069	0.8325	0.146
Mof_H 	H 	0.4099	0.6729	0.8564	-0.045
Mof_C 	C 	0.429	0.8146	0.8196	0.216
Mof_O 	O 	0.3979	0.883	0.895	-0.114
Mof_O 	O 	0.465	0.9174	0.8113	-0.083
Mof_N 	N 	0.4317	0.8761	0.8438	-0.025
Mof_N 	N 	0.9024	0.5692	0.4005	-0.015
Mof_O 	O 	0.039	0.5863	0.3703	-0.08
Mof_O 	O 	0.737	0.5755	0.3893	-0.088
Mof_C 	C 	0.0687	0.6303	0.5068	0.554
Mof_C 	C 	0.102	0.525	0.5466	0.043
Mof_C 	C 	0.9372	0.5373	0.4559	0.097
Mof_C 	C 	0.0359	0.5626	0.502	-0.172
Mof_Nd	Nd	0.0783	0.26843	0.05064	2.593
Mof_O 	O 	0.1006	0.31026	0.1505	-0.469
Mof_O 	O 	0.0664	0.21088	0.14127	-0.439
Mof_O 	O 	0.2982	0.35142	0.03925	-0.621
Mof_O 	O 	0.915	0.22452	0.44759	-0.7
Mof_O 	O 	0.2284	0.23946	0.44851	-0.748
Mof_O 	O 	0.5494	0.33625	0.97969	-0.579
Mof_C 	C 	0.0824	0.2577	0.1726	0.262
Mof_C 	C 	0.0795	0.2497	0.2366	0.064
Mof_C 	C 	0.0707	0.1918	0.2602	-0.185
Mof_H 	H 	0.0646	0.1576	0.2364	0.148
Mof_C 	C 	0.0868	0.3002	0.2729	-0.166
Mof_H 	H 	0.0928	0.3392	0.2571	0.108
Mof_C 	C 	0.073	0.2315	0.4215	0.57
Mof_C 	C 	0.0765	0.2347	0.3562	-0.273
Mof_C 	C 	0.0853	0.2931	0.3325	0.142
Mof_H 	H 	0.0901	0.3271	0.3564	-0.046
Mof_C 	C 	0.071	0.1854	0.3196	0.212
Mof_O 	O 	0.1021	0.117	0.395	-0.116
Mof_O 	O 	0.035	0.0826	0.3113	-0.085
Mof_N 	N 	0.0683	0.1239	0.3438	-0.025
Mof_N 	N 	0.5976	0.4308	0.9005	-0.014
Mof_O 	O 	0.461	0.4137	0.8703	-0.082
Mof_O 	O 	0.763	0.4245	0.8893	-0.086
Mof_C 	C 	0.4313	0.3697	0.0068	0.547
Mof_C 	C 	0.398	0.475	0.0466	0.042
Mof_C 	C 	0.5628	0.4627	0.9559	0.1
Mof_C 	C 	0.4641	0.4374	0.002	-0.172
Mof_Nd	Nd	0.5783	0.23157	0.94936	2.606
Mof_O 	O 	0.6006	0.18974	0.8495	-0.468
Mof_O 	O 	0.5664	0.28912	0.85873	-0.438
Mof_O 	O 	0.7982	0.14858	0.96075	-0.623
Mof_O 	O 	0.415	0.27548	0.55241	-0.708
Mof_O 	O 	0.7284	0.26054	0.55149	-0.747
Mof_O 	O 	0.0494	0.16375	0.02031	-0.583
Mof_C 	C 	0.5824	0.2423	0.8274	0.263
Mof_C 	C 	0.5795	0.2503	0.7634	0.068
Mof_C 	C 	0.5707	0.3082	0.7398	-0.185
Mof_H 	H 	0.5646	0.3424	0.7636	0.15
Mof_C 	C 	0.5868	0.1998	0.7271	-0.166
Mof_H 	H 	0.5928	0.1608	0.7429	0.11
Mof_C 	C 	0.573	0.2685	0.5785	0.578
Mof_C 	C 	0.5765	0.2653	0.6438	-0.274
Mof_C 	C 	0.5853	0.2069	0.6675	0.146
Mof_H 	H 	0.5901	0.1729	0.6436	-0.045
Mof_C 	C 	0.571	0.3146	0.6804	0.216
Mof_O 	O 	0.6021	0.383	0.605	-0.114
Mof_O 	O 	0.535	0.4174	0.6887	-0.083
Mof_N 	N 	0.5683	0.3761	0.6562	-0.025
Mof_N 	N 	0.0976	0.0692	0.0995	-0.016
Mof_O 	O 	0.961	0.0863	0.1297	-0.078
Mof_O 	O 	0.263	0.0755	0.1107	-0.088
Mof_C 	C 	0.9313	0.1303	0.9932	0.553
Mof_C 	C 	0.898	0.025	0.9534	0.043
Mof_C 	C 	0.0628	0.0373	0.0441	0.097
Mof_C 	C 	0.9641	0.0626	0.998	-0.172
Mof_Nd	Nd	0.9217	0.76843	0.44936	2.593
Mof_O 	O 	0.8994	0.81026	0.3495	-0.469
Mof_O 	O 	0.9336	0.71088	0.35873	-0.439
Mof_O 	O 	0.7018	0.85142	0.46075	-0.621
Mof_O 	O 	0.085	0.72452	0.05241	-0.701
Mof_O 	O 	0.7716	0.73946	0.05149	-0.748
Mof_O 	O 	0.4506	0.83625	0.52031	-0.578
Mof_C 	C 	0.9176	0.7577	0.3274	0.262
Mof_C 	C 	0.9205	0.7497	0.2634	0.065
Mof_C 	C 	0.9293	0.6918	0.2398	-0.185
Mof_H 	H 	0.9354	0.6576	0.2636	0.148
Mof_C 	C 	0.9132	0.8002	0.2271	-0.166
Mof_H 	H 	0.9072	0.8392	0.2429	0.108
Mof_C 	C 	0.927	0.7315	0.0785	0.571
Mof_C 	C 	0.9235	0.7347	0.1438	-0.273
Mof_C 	C 	0.9147	0.7931	0.1675	0.143
Mof_H 	H 	0.9099	0.8271	0.1436	-0.046
Mof_C 	C 	0.929	0.6854	0.1804	0.213
Mof_O 	O 	0.8979	0.617	0.105	-0.115
Mof_O 	O 	0.965	0.5826	0.1887	-0.084
Mof_N 	N 	0.9317	0.6239	0.1562	-0.025
Mof_N 	N 	0.4024	0.9308	0.5995	-0.014
Mof_O 	O 	0.539	0.9137	0.6297	-0.082
Mof_O 	O 	0.237	0.9245	0.6107	-0.085
Mof_C 	C 	0.5687	0.8697	0.4932	0.547
Mof_C 	C 	0.602	0.975	0.4534	0.041
Mof_C 	C 	0.4372	0.9627	0.5441	0.1
Mof_C 	C 	0.5359	0.9374	0.498	-0.172
_end
