# CIF file generated by openbabel 3.1.0, see https://openbabel.org
data_I
_chemical_name_common 'DICVIW_clean'
_cell_length_a 8.0794
_cell_length_b 16.6042
_cell_length_c 26.8003
_cell_angle_alpha 90
_cell_angle_beta 90
_cell_angle_gamma 101.191
_space_group_name_H-M_alt 'P 1'
_space_group_name_Hall 'P 1'
loop_
    _symmetry_equiv_pos_as_xyz
    x,y,z
loop_
    _atom_site_label
    _atom_site_type_symbol
    _atom_site_fract_x
    _atom_site_fract_y
    _atom_site_fract_z
    _atom_site_occupancy
    Eu1      Eu       0.78500    0.77266    0.25567    1.000
    Eu2      Eu       0.71500    0.22734    0.75567    1.000
    Eu3      Eu       0.21500    0.22734    0.74433    1.000
    Eu4      Eu       0.28500    0.77266    0.24433    1.000
    H1       H        0.64000    0.68400    0.08800    1.000
    H2       H        0.64080    0.82470    0.07950    1.000
    H3       H        0.44280    0.80670    0.07810    1.000
    H4       H        0.65170    0.75740    0.00390    1.000
    H5       H        0.53990    0.82400    0.99660    1.000
    H6       H        0.28990    0.59320    0.01240    1.000
    H7       H        0.48740    0.60590    0.01460    1.000
    H8       H        0.28330    0.66000    0.08840    1.000
    H9       H        0.38500    0.58930    0.09580    1.000
    H10      H        0.09320    0.51110    0.92690    1.000
    H11      H        0.91740    0.49230    0.89980    1.000
    H12      H        0.21530    0.44770    0.86400    1.000
    H13      H        0.05570    0.38590    0.88310    1.000
    H14      H        0.18900    0.52650    0.78190    1.000
    H15      H        0.01420    0.50990    0.75440    1.000
    H16      H        0.89040    0.57060    0.81920    1.000
    H17      H        0.05090    0.63320    0.80130    1.000
    H18      H        0.89800    0.41600    0.81510    1.000
    H19      H        0.42770    0.84610    0.78100    1.000
    H20      H        0.23870    0.80430    0.79020    1.000
    H21      H        0.26120    0.93000    0.74680    1.000
    H22      H        0.15980    0.93000    0.79670    1.000
    H23      H        0.30970    0.00360    0.87300    1.000
    H24      H        0.49870    0.04820    0.86760    1.000
    H25      H        0.47810    0.92020    0.90720    1.000
    H26      H        0.58450    0.92430    0.85800    1.000
    H27      H        0.50200    0.00600    0.78410    1.000
    H28      H        0.86000    0.31600    0.58800    1.000
    H29      H        0.85920    0.17530    0.57950    1.000
    H30      H        0.05720    0.19330    0.57810    1.000
    H31      H        0.84830    0.24260    0.50390    1.000
    H32      H        0.96010    0.17600    0.49660    1.000
    H33      H        0.21010    0.40680    0.51240    1.000
    H34      H        0.01260    0.39410    0.51460    1.000
    H35      H        0.21670    0.34000    0.58840    1.000
    H36      H        0.11500    0.41070    0.59580    1.000
    H37      H        0.40680    0.48890    0.42690    1.000
    H38      H        0.58260    0.50770    0.39980    1.000
    H39      H        0.28470    0.55230    0.36400    1.000
    H40      H        0.44430    0.61410    0.38310    1.000
    H41      H        0.31100    0.47350    0.28190    1.000
    H42      H        0.48580    0.49010    0.25440    1.000
    H43      H        0.60960    0.42940    0.31920    1.000
    H44      H        0.44910    0.36680    0.30130    1.000
    H45      H        0.60200    0.58400    0.31510    1.000
    H46      H        0.07230    0.15390    0.28100    1.000
    H47      H        0.26130    0.19570    0.29020    1.000
    H48      H        0.23880    0.07000    0.24680    1.000
    H49      H        0.34020    0.07000    0.29670    1.000
    H50      H        0.19030    0.99640    0.37300    1.000
    H51      H        0.00130    0.95180    0.36760    1.000
    H52      H        0.02190    0.07980    0.40720    1.000
    H53      H        0.91550    0.07570    0.35800    1.000
    H54      H        0.99800    0.99400    0.28410    1.000
    H55      H        0.36000    0.31600    0.91200    1.000
    H56      H        0.35920    0.17530    0.92050    1.000
    H57      H        0.55720    0.19330    0.92190    1.000
    H58      H        0.34830    0.24260    0.99610    1.000
    H59      H        0.46010    0.17600    0.00340    1.000
    H60      H        0.71010    0.40680    0.98760    1.000
    H61      H        0.51260    0.39410    0.98540    1.000
    H62      H        0.71670    0.34000    0.91160    1.000
    H63      H        0.61500    0.41070    0.90420    1.000
    H64      H        0.90680    0.48890    0.07310    1.000
    H65      H        0.08260    0.50770    0.10020    1.000
    H66      H        0.78470    0.55230    0.13600    1.000
    H67      H        0.94430    0.61410    0.11690    1.000
    H68      H        0.81100    0.47350    0.21810    1.000
    H69      H        0.98580    0.49010    0.24560    1.000
    H70      H        0.10960    0.42940    0.18080    1.000
    H71      H        0.94910    0.36680    0.19870    1.000
    H72      H        0.10200    0.58400    0.18490    1.000
    H73      H        0.57230    0.15390    0.21900    1.000
    H74      H        0.76130    0.19570    0.20980    1.000
    H75      H        0.73880    0.07000    0.25320    1.000
    H76      H        0.84020    0.07000    0.20330    1.000
    H77      H        0.69030    0.99640    0.12700    1.000
    H78      H        0.50130    0.95180    0.13240    1.000
    H79      H        0.52190    0.07980    0.09280    1.000
    H80      H        0.41550    0.07570    0.14200    1.000
    H81      H        0.49800    0.99400    0.21590    1.000
    H82      H        0.14000    0.68400    0.41200    1.000
    H83      H        0.14080    0.82470    0.42050    1.000
    H84      H        0.94280    0.80670    0.42190    1.000
    H85      H        0.15170    0.75740    0.49610    1.000
    H86      H        0.03990    0.82400    0.50340    1.000
    H87      H        0.78990    0.59320    0.48760    1.000
    H88      H        0.98740    0.60590    0.48540    1.000
    H89      H        0.78330    0.66000    0.41160    1.000
    H90      H        0.88500    0.58930    0.40420    1.000
    H91      H        0.59320    0.51110    0.57310    1.000
    H92      H        0.41740    0.49230    0.60020    1.000
    H93      H        0.71530    0.44770    0.63600    1.000
    H94      H        0.55570    0.38590    0.61690    1.000
    H95      H        0.68900    0.52650    0.71810    1.000
    H96      H        0.51420    0.50990    0.74560    1.000
    H97      H        0.39040    0.57060    0.68080    1.000
    H98      H        0.55090    0.63320    0.69870    1.000
    H99      H        0.39800    0.41600    0.68490    1.000
    H100     H        0.92770    0.84610    0.71900    1.000
    H101     H        0.73870    0.80430    0.70980    1.000
    H102     H        0.76120    0.93000    0.75320    1.000
    H103     H        0.65980    0.93000    0.70330    1.000
    H104     H        0.80970    0.00360    0.62700    1.000
    H105     H        0.99870    0.04820    0.63240    1.000
    H106     H        0.97810    0.92020    0.59280    1.000
    H107     H        0.08450    0.92430    0.64200    1.000
    H108     H        0.00200    0.00600    0.71590    1.000
    C1       C        0.54290    0.71980    0.15301    1.000
    C2       C        0.53850    0.70410    0.09704    1.000
    C3       C        0.54200    0.78500    0.06930    1.000
    C4       C        0.54620    0.77290    0.01329    1.000
    C5       C        0.39140    0.63030    0.02321    1.000
    C6       C        0.38600    0.64150    0.07938    1.000
    C7       C        0.34050    0.71190    0.95034    1.000
    C8       C        0.31890    0.78120    0.87934    1.000
    C9       C        0.18170    0.65060    0.88700    1.000
    C10      C        0.03840    0.50560    0.89450    1.000
    C11      C        0.09310    0.43750    0.86568    1.000
    C12      C        0.06790    0.51310    0.78688    1.000
    C13      C        0.01260    0.58050    0.81741    1.000
    C14      C        0.33770    0.08350    0.78440    1.000
    C15      C        0.02130    0.43050    0.81283    1.000
    C16      C        0.32570    0.85120    0.79880    1.000
    C17      C        0.27050    0.92940    0.78289    1.000
    C18      C        0.41560    0.00130    0.85656    1.000
    C19      C        0.47230    0.92340    0.87115    1.000
    C20      C        0.39250    0.00590    0.79980    1.000
    C21      C        0.08290    0.36380    0.78494    1.000
    C22      C        0.95710    0.28020    0.65301    1.000
    C23      C        0.96150    0.29590    0.59704    1.000
    C24      C        0.95800    0.21500    0.56930    1.000
    C25      C        0.95380    0.22710    0.51329    1.000
    C26      C        0.10860    0.36970    0.52321    1.000
    C27      C        0.11400    0.35850    0.57938    1.000
    C28      C        0.15950    0.28810    0.45034    1.000
    C29      C        0.18110    0.21880    0.37934    1.000
    C30      C        0.31830    0.34940    0.38700    1.000
    C31      C        0.46160    0.49440    0.39450    1.000
    C32      C        0.40690    0.56250    0.36568    1.000
    C33      C        0.43210    0.48690    0.28688    1.000
    C34      C        0.48740    0.41950    0.31741    1.000
    C35      C        0.16230    0.91650    0.28440    1.000
    C36      C        0.47870    0.56950    0.31283    1.000
    C37      C        0.17430    0.14880    0.29880    1.000
    C38      C        0.22950    0.07060    0.28289    1.000
    C39      C        0.08440    0.99870    0.35656    1.000
    C40      C        0.02770    0.07660    0.37115    1.000
    C41      C        0.10750    0.99410    0.29980    1.000
    C42      C        0.41710    0.63620    0.28494    1.000
    C43      C        0.45710    0.28020    0.84699    1.000
    C44      C        0.46150    0.29590    0.90296    1.000
    C45      C        0.45800    0.21500    0.93070    1.000
    C46      C        0.45380    0.22710    0.98671    1.000
    C47      C        0.60860    0.36970    0.97679    1.000
    C48      C        0.61400    0.35850    0.92062    1.000
    C49      C        0.65950    0.28810    0.04966    1.000
    C50      C        0.68110    0.21880    0.12066    1.000
    C51      C        0.81830    0.34940    0.11300    1.000
    C52      C        0.96160    0.49440    0.10550    1.000
    C53      C        0.90690    0.56250    0.13432    1.000
    C54      C        0.93210    0.48690    0.21312    1.000
    C55      C        0.98740    0.41950    0.18259    1.000
    C56      C        0.66230    0.91650    0.21560    1.000
    C57      C        0.97870    0.56950    0.18717    1.000
    C58      C        0.67430    0.14880    0.20120    1.000
    C59      C        0.72950    0.07060    0.21711    1.000
    C60      C        0.58440    0.99870    0.14344    1.000
    C61      C        0.52770    0.07660    0.12885    1.000
    C62      C        0.60750    0.99410    0.20020    1.000
    C63      C        0.91710    0.63620    0.21506    1.000
    C64      C        0.04290    0.71980    0.34699    1.000
    C65      C        0.03850    0.70410    0.40296    1.000
    C66      C        0.04200    0.78500    0.43070    1.000
    C67      C        0.04620    0.77290    0.48671    1.000
    C68      C        0.89140    0.63030    0.47679    1.000
    C69      C        0.88600    0.64150    0.42062    1.000
    C70      C        0.84050    0.71190    0.54966    1.000
    C71      C        0.81890    0.78120    0.62066    1.000
    C72      C        0.68170    0.65060    0.61300    1.000
    C73      C        0.53840    0.50560    0.60550    1.000
    C74      C        0.59310    0.43750    0.63432    1.000
    C75      C        0.56790    0.51310    0.71312    1.000
    C76      C        0.51260    0.58050    0.68259    1.000
    C77      C        0.83770    0.08350    0.71560    1.000
    C78      C        0.52130    0.43050    0.68717    1.000
    C79      C        0.82570    0.85120    0.70120    1.000
    C80      C        0.77050    0.92940    0.71711    1.000
    C81      C        0.91560    0.00130    0.64344    1.000
    C82      C        0.97230    0.92340    0.62885    1.000
    C83      C        0.89250    0.00590    0.70020    1.000
    C84      C        0.58290    0.36380    0.71506    1.000
    N1       N        0.40480    0.70900    0.99741    1.000
    N2       N        0.38610    0.78260    0.92515    1.000
    N3       N        0.23650    0.64420    0.93411    1.000
    N4       N        0.21790    0.71680    0.85765    1.000
    N5       N        0.35730    0.85110    0.85228    1.000
    N6       N        0.08200    0.58270    0.86742    1.000
    N7       N        0.09520    0.29100    0.49741    1.000
    N8       N        0.11390    0.21740    0.42515    1.000
    N9       N        0.26350    0.35580    0.43411    1.000
    N10      N        0.28210    0.28320    0.35765    1.000
    N11      N        0.14270    0.14890    0.35228    1.000
    N12      N        0.41800    0.41730    0.36742    1.000
    N13      N        0.59520    0.29100    0.00259    1.000
    N14      N        0.61390    0.21740    0.07485    1.000
    N15      N        0.76350    0.35580    0.06589    1.000
    N16      N        0.78210    0.28320    0.14235    1.000
    N17      N        0.64270    0.14890    0.14772    1.000
    N18      N        0.91800    0.41730    0.13258    1.000
    N19      N        0.90480    0.70900    0.50259    1.000
    N20      N        0.88610    0.78260    0.57485    1.000
    N21      N        0.73650    0.64420    0.56589    1.000
    N22      N        0.71790    0.71680    0.64235    1.000
    N23      N        0.85730    0.85110    0.64772    1.000
    N24      N        0.58200    0.58270    0.63258    1.000
    O1       O        0.68830    0.74320    0.17195    1.000
    O2       O        0.18650    0.08950    0.78804    1.000
    O3       O        0.44250    0.14355    0.76624    1.000
    O4       O        0.98890    0.29112    0.78398    1.000
    O5       O        0.22420    0.37608    0.76528    1.000
    O6       O        0.40650    0.71335    0.17605    1.000
    O7       O        0.81170    0.25680    0.67195    1.000
    O8       O        0.31350    0.91050    0.28804    1.000
    O9       O        0.05750    0.85645    0.26624    1.000
    O10      O        0.51110    0.70888    0.28398    1.000
    O11      O        0.27580    0.62392    0.26528    1.000
    O12      O        0.09350    0.28665    0.67605    1.000
    O13      O        0.31170    0.25680    0.82805    1.000
    O14      O        0.81350    0.91050    0.21196    1.000
    O15      O        0.55750    0.85645    0.23376    1.000
    O16      O        0.01110    0.70888    0.21602    1.000
    O17      O        0.77580    0.62392    0.23472    1.000
    O18      O        0.59350    0.28665    0.82395    1.000
    O19      O        0.18830    0.74320    0.32805    1.000
    O20      O        0.68650    0.08950    0.71196    1.000
    O21      O        0.94250    0.14355    0.73376    1.000
    O22      O        0.48890    0.29112    0.71602    1.000
    O23      O        0.72420    0.37608    0.73472    1.000
    O24      O        0.90650    0.71335    0.32395    1.000
