# CIF file generated by openbabel 3.1.0, see https://openbabel.org
data_I
_chemical_name_common 'image0'
_cell_length_a 9.9516
_cell_length_b 15.7818
_cell_length_c 16.5509
_cell_angle_alpha 110.421
_cell_angle_beta 101.582
_cell_angle_gamma 90.029
_space_group_name_H-M_alt 'P 1'
_space_group_name_Hall 'P 1'
loop_
    _symmetry_equiv_pos_as_xyz
    x,y,z
loop_
    _atom_site_label
    _atom_site_type_symbol
    _atom_site_fract_x
    _atom_site_fract_y
    _atom_site_fract_z
    _atom_site_occupancy
    Cd1      Cd       0.95979    0.77521    0.56704    1.000
    N1       N        0.30860    0.40030    0.92350    1.000
    N2       N        0.15390    0.85620    0.67490    1.000
    N3       N        0.41390    0.60750    0.93450    1.000
    N4       N        0.99360    0.67130    0.63730    1.000
    N5       N        0.76900    0.67930    0.46980    1.000
    O1       O        0.60520    0.41530    0.88780    1.000
    O2       O        0.73840    0.50080    0.84910    1.000
    O3       O        0.84790    0.34170    0.54140    1.000
    O4       O        0.93870    0.21250    0.53510    1.000
    O5       O        0.63350    0.02700    0.65070    1.000
    O6       O        0.83780    0.90040    0.55800    1.000
    O7       O        0.79430    0.85580    0.65970    1.000
    O8       O        0.10700    0.11600    0.71050    1.000
    H1       H        0.12170    0.08110    0.66370    1.000
    O9       O        0.14880    0.10130    0.87970    1.000
    H2       H        0.07520    0.09480    0.84470    1.000
    O10      O        0.08730    0.82360    0.89860    1.000
    H3       H        0.13310    0.86740    0.93760    1.000
    O11      O        0.99300    0.60050    0.89840    1.000
    H4       H        0.92180    0.56710    0.87890    1.000
    O12      O        0.33930    0.51710    0.43670    1.000
    H5       H        0.30020    0.56200    0.43380    1.000
    C1       C        0.68510    0.42590    0.84200    1.000
    C2       C        0.86670    0.27600    0.56700    1.000
    C3       C        0.71700    0.34090    0.77180    1.000
    C4       C        0.77040    0.34730    0.70250    1.000
    H6       H        0.78210    0.40360    0.69760    1.000
    C5       C        0.80620    0.27090    0.64080    1.000
    C6       C        0.78880    0.18690    0.64920    1.000
    H7       H        0.81480    0.13550    0.60870    1.000
    C7       C        0.73360    0.17880    0.71680    1.000
    C8       C        0.69780    0.25650    0.77760    1.000
    H8       H        0.66020    0.25180    0.82310    1.000
    C9       C        0.72170    0.08730    0.72630    1.000
    H9       H        0.81180    0.06400    0.73350    1.000
    H10      H        0.68570    0.09330    0.77810    1.000
    C10      C        0.64070    0.95270    0.61110    1.000
    H11      H        0.61670    0.93410    0.65740    1.000
    C11      C        0.76770    0.90080    0.61130    1.000
    C12      C        0.52130    0.89810    0.54630    1.000
    H12      H        0.44200    0.93280    0.55010    1.000
    H13      H        0.50460    0.84430    0.55840    1.000
    H14      H        0.53900    0.88160    0.48810    1.000
    C13      C        0.18200    0.42580    0.92470    1.000
    H15      H        0.17120    0.48490    0.95960    1.000
    C14      C        0.06770    0.37050    0.87790    1.000
    H16      H        0.98070    0.39160    0.87950    1.000
    C15      C        0.08340    0.28030    0.82670    1.000
    H17      H        0.00650    0.24050    0.79450    1.000
    C16      C        0.21520    0.25140    0.82470    1.000
    C17      C        0.32400    0.31410    0.87350    1.000
    H18      H        0.41270    0.29620    0.87180    1.000
    C18      C        0.23560    0.15310    0.77130    1.000
    C19      C        0.34970    0.14740    0.72300    1.000
    H19      H        0.35230    0.08590    0.68480    1.000
    H20      H        0.43580    0.16700    0.76480    1.000
    H21      H        0.33390    0.18570    0.68850    1.000
    C20      C        0.26390    0.09640    0.83320    1.000
    C21      C        0.39340    0.13320    0.89520    1.000
    H22      H        0.38820    0.19650    0.92720    1.000
    H23      H        0.46630    0.12600    0.86370    1.000
    H24      H        0.41140    0.10150    0.93590    1.000
    C22      C        0.27110    0.99620    0.77910    1.000
    C23      C        0.39370    0.95590    0.77690    1.000
    H25      H        0.47590    0.98960    0.80960    1.000
    C24      C        0.39460    0.86540    0.72610    1.000
    H26      H        0.47640    0.83690    0.72680    1.000
    C25      C        0.27480    0.81870    0.67530    1.000
    H27      H        0.27650    0.75850    0.63940    1.000
    C26      C        0.15380    0.94200    0.72750    1.000
    H28      H        0.06950    0.96710    0.72970    1.000
    C27      C        0.47870    0.62720    0.88010    1.000
    H29      H        0.55980    0.60040    0.86980    1.000
    C28      C        0.42970    0.68630    0.83800    1.000
    H30      H        0.47730    0.69910    0.80020    1.000
    C29      C        0.30880    0.72630    0.85320    1.000
    H31      H        0.27440    0.76610    0.82520    1.000
    C30      C        0.23940    0.70710    0.90980    1.000
    C31      C        0.29800    0.64800    0.94970    1.000
    H32      H        0.25440    0.63560    0.98950    1.000
    C32      C        0.10040    0.74490    0.92540    1.000
    C33      C        0.09530    0.76890    0.02010    1.000
    H33      H        0.17700    0.80580    0.05650    1.000
    H34      H        0.08950    0.71450    0.03310    1.000
    H35      H        0.01600    0.80190    0.03160    1.000
    C34      C        0.97940    0.67290    0.86550    1.000
    C35      C        0.83830    0.71050    0.87250    1.000
    H36      H        0.76740    0.66610    0.83190    1.000
    H37      H        0.83400    0.76470    0.85850    1.000
    H38      H        0.82530    0.72430    0.93160    1.000
    C36      C        0.99610    0.63990    0.76940    1.000
    C37      C        0.04770    0.55800    0.73230    1.000
    H39      H        0.06790    0.51960    0.76410    1.000
    C38      C        0.06920    0.53310    0.64860    1.000
    H40      H        0.10080    0.47680    0.62200    1.000
    C39      C        0.04390    0.59220    0.60390    1.000
    H41      H        0.06280    0.57580    0.54790    1.000
    C40      C        0.96840    0.69420    0.71990    1.000
    H42      H        0.93080    0.74890    0.74380    1.000
    C41      C        0.73540    0.66600    0.38370    1.000
    H43      H        0.79150    0.69410    0.36030    1.000
    C42      C        0.62090    0.61250    0.32860    1.000
    H44      H        0.60080    0.60400    0.26880    1.000
    C43      C        0.53630    0.57170    0.36300    1.000
    H45      H        0.45880    0.53490    0.32650    1.000
    C44      C        0.56730    0.58580    0.45240    1.000
    C45      C        0.68520    0.63810    0.50140    1.000
    H46      H        0.70920    0.64580    0.56100    1.000
    C46      C        0.47230    0.54490    0.49460    1.000
    C47      C        0.45790    0.61410    0.58380    1.000
    H47      H        0.44430    0.67230    0.57850    1.000
    H48      H        0.53990    0.61840    0.62740    1.000
    H49      H        0.38040    0.59490    0.60130    1.000
    Cd2      Cd       0.04021    0.22479    0.43296    1.000
    N6       N        0.69140    0.59970    0.07650    1.000
    N7       N        0.84610    0.14380    0.32510    1.000
    N8       N        0.58610    0.39250    0.06550    1.000
    N9       N        0.00640    0.32870    0.36270    1.000
    N10      N        0.23100    0.32070    0.53020    1.000
    O13      O        0.39480    0.58470    0.11220    1.000
    O14      O        0.26160    0.49920    0.15090    1.000
    O15      O        0.15210    0.65830    0.45860    1.000
    O16      O        0.06130    0.78750    0.46490    1.000
    O17      O        0.36650    0.97300    0.34930    1.000
    O18      O        0.16220    0.09960    0.44200    1.000
    O19      O        0.20570    0.14420    0.34030    1.000
    O20      O        0.89300    0.88400    0.28950    1.000
    H50      H        0.87830    0.91890    0.33630    1.000
    O21      O        0.85120    0.89870    0.12030    1.000
    H51      H        0.92480    0.90520    0.15530    1.000
    O22      O        0.91270    0.17640    0.10140    1.000
    H52      H        0.86690    0.13260    0.06240    1.000
    O23      O        0.00700    0.39950    0.10160    1.000
    H53      H        0.07820    0.43290    0.12110    1.000
    O24      O        0.66070    0.48290    0.56330    1.000
    H54      H        0.69980    0.43800    0.56620    1.000
    C48      C        0.31490    0.57410    0.15800    1.000
    C49      C        0.13330    0.72400    0.43300    1.000
    C50      C        0.28300    0.65910    0.22820    1.000
    C51      C        0.22960    0.65270    0.29750    1.000
    H55      H        0.21790    0.59640    0.30240    1.000
    C52      C        0.19380    0.72910    0.35920    1.000
    C53      C        0.21120    0.81310    0.35080    1.000
    H56      H        0.18520    0.86450    0.39130    1.000
    C54      C        0.26640    0.82120    0.28320    1.000
    C55      C        0.30220    0.74350    0.22240    1.000
    H57      H        0.33980    0.74820    0.17690    1.000
    C56      C        0.27830    0.91270    0.27370    1.000
    H58      H        0.18820    0.93600    0.26650    1.000
    H59      H        0.31430    0.90670    0.22190    1.000
    C57      C        0.35930    0.04730    0.38890    1.000
    H60      H        0.38330    0.06590    0.34260    1.000
    C58      C        0.23230    0.09920    0.38870    1.000
    C59      C        0.47870    0.10190    0.45370    1.000
    H61      H        0.55800    0.06720    0.44990    1.000
    H62      H        0.49540    0.15570    0.44160    1.000
    H63      H        0.46100    0.11840    0.51190    1.000
    C60      C        0.81800    0.57420    0.07530    1.000
    H64      H        0.82880    0.51510    0.04040    1.000
    C61      C        0.93230    0.62950    0.12210    1.000
    H65      H        0.01930    0.60840    0.12050    1.000
    C62      C        0.91660    0.71970    0.17330    1.000
    H66      H        0.99350    0.75950    0.20550    1.000
    C63      C        0.78480    0.74860    0.17530    1.000
    C64      C        0.67600    0.68590    0.12650    1.000
    H67      H        0.58730    0.70380    0.12820    1.000
    C65      C        0.76440    0.84690    0.22870    1.000
    C66      C        0.65030    0.85260    0.27700    1.000
    H68      H        0.64770    0.91410    0.31520    1.000
    H69      H        0.56420    0.83300    0.23520    1.000
    H70      H        0.66610    0.81430    0.31150    1.000
    C67      C        0.73610    0.90360    0.16680    1.000
    C68      C        0.60660    0.86680    0.10480    1.000
    H71      H        0.61180    0.80350    0.07280    1.000
    H72      H        0.53370    0.87400    0.13630    1.000
    H73      H        0.58860    0.89850    0.06410    1.000
    C69      C        0.72890    0.00380    0.22090    1.000
    C70      C        0.60630    0.04410    0.22310    1.000
    H74      H        0.52410    0.01040    0.19040    1.000
    C71      C        0.60540    0.13460    0.27390    1.000
    H75      H        0.52360    0.16310    0.27320    1.000
    C72      C        0.72520    0.18130    0.32470    1.000
    H76      H        0.72350    0.24150    0.36060    1.000
    C73      C        0.84620    0.05800    0.27250    1.000
    H77      H        0.93050    0.03290    0.27030    1.000
    C74      C        0.52130    0.37280    0.11990    1.000
    H78      H        0.44020    0.39960    0.13020    1.000
    C75      C        0.57030    0.31370    0.16200    1.000
    H79      H        0.52270    0.30090    0.19980    1.000
    C76      C        0.69120    0.27370    0.14680    1.000
    H80      H        0.72560    0.23390    0.17480    1.000
    C77      C        0.76060    0.29290    0.09020    1.000
    C78      C        0.70200    0.35200    0.05030    1.000
    H81      H        0.74560    0.36440    0.01050    1.000
    C79      C        0.89960    0.25510    0.07460    1.000
    C80      C        0.90470    0.23110    0.97990    1.000
    H82      H        0.82300    0.19420    0.94350    1.000
    H83      H        0.91050    0.28550    0.96690    1.000
    H84      H        0.98400    0.19810    0.96840    1.000
    C81      C        0.02060    0.32710    0.13450    1.000
    C82      C        0.16170    0.28950    0.12750    1.000
    H85      H        0.23260    0.33390    0.16810    1.000
    H86      H        0.16600    0.23530    0.14150    1.000
    H87      H        0.17470    0.27570    0.06840    1.000
    C83      C        0.00390    0.36010    0.23060    1.000
    C84      C        0.95230    0.44200    0.26770    1.000
    H88      H        0.93210    0.48040    0.23590    1.000
    C85      C        0.93080    0.46690    0.35140    1.000
    H89      H        0.89920    0.52320    0.37800    1.000
    C86      C        0.95610    0.40780    0.39610    1.000
    H90      H        0.93720    0.42420    0.45210    1.000
    C87      C        0.03160    0.30580    0.28010    1.000
    H91      H        0.06920    0.25110    0.25620    1.000
    C88      C        0.26460    0.33400    0.61630    1.000
    H92      H        0.20850    0.30590    0.63970    1.000
    C89      C        0.37910    0.38750    0.67140    1.000
    H93      H        0.39920    0.39600    0.73120    1.000
    C90      C        0.46370    0.42830    0.63700    1.000
    H94      H        0.54120    0.46510    0.67350    1.000
    C91      C        0.43270    0.41420    0.54760    1.000
    C92      C        0.31480    0.36190    0.49860    1.000
    H95      H        0.29080    0.35420    0.43900    1.000
    C93      C        0.52770    0.45510    0.50540    1.000
    C94      C        0.54210    0.38590    0.41620    1.000
    H96      H        0.55570    0.32770    0.42150    1.000
    H97      H        0.46010    0.38160    0.37260    1.000
    H98      H        0.61960    0.40510    0.39870    1.000
    Cd3      Cd       0.50000    0.50000    0.00000    1.000
