data_functionalizedCrystal
_audit_creation_method	'EQeq! by Chris Wilmer'
_symmetry_space_group_name_H-M	'P1'
_symmetry_Int_Tables_number	1
_symmetry_cell_setting	triclinic
loop_
_symmetry_equiv_pos_as_xyz
  x,y,z
_cell_length_a	6.8904
_cell_length_b	21.8211
_cell_length_c	23.0642
_cell_angle_alpha	90
_cell_angle_beta	90
_cell_angle_gamma	90
loop_
_atom_site_label
_atom_site_type_symbol
_atom_site_fract_x
_atom_site_fract_y
_atom_site_fract_z
_atom_site_charge
Mof_Sm	Sm	0.5747	0.23229	0.04955	2.45
Mof_O 	O 	0.5928	0.3093	0.6484	-0.462
Mof_O 	O 	0.5609	0.2105	0.6398	-0.422
Mof_C 	C 	0.5782	0.2572	0.671	0.279
Mof_C 	C 	0.5727	0.2518	0.7368	0.068
Mof_C 	C 	0.566	0.1919	0.76	-0.184
Mof_H 	H 	0.5626	0.1575	0.7361	0.155
Mof_C 	C 	0.5648	0.1867	0.8192	0.22
Mof_N 	N 	0.51	0.1247	0.8436	-0.027
Mof_O 	O 	0.552	0.116	0.8949	0.011
Mof_O 	O 	0.441	0.0858	0.814	-0.048
Mof_C 	C 	0.5718	0.2369	0.8564	-0.269
Mof_C 	C 	0.5794	0.2955	0.8327	0.139
Mof_H 	H 	0.5839	0.33	0.8564	-0.036
Mof_C 	C 	0.5803	0.3008	0.7714	-0.162
Mof_H 	H 	0.5862	0.3396	0.7549	0.11
Mof_C 	C 	0.5709	0.2328	0.921	0.581
Mof_O 	O 	0.4124	0.2265	0.9468	-0.683
Mof_O 	O 	0.7269	0.2411	0.94781	-0.716
Mof_O 	O 	0.2872	0.3522	0.9632	-0.596
Mof_O 	O 	0.5445	0.3355	0.0195	-0.565
Mof_C 	C 	0.4262	0.3698	0.9933	0.527
Mof_C 	C 	0.4607	0.4375	0.9976	-0.113
Mof_C 	C 	0.5741	0.4618	0.0411	-0.064
Mof_H 	H 	0.625	0.4363	0.0699	0.179
Mof_C 	C 	0.388	0.476	0.9563	0.043
Mof_H 	H 	0.3126	0.4604	0.9263	0.041
Mof_N 	N 	0.617	0.1251	0.8431	-0.002
Mof_O 	O 	0.644	0.1197	0.8952	-0.12
Mof_O 	O 	0.617	0.0809	0.8095	-0.058
Mof_N 	N 	0.604	0.4305	0.105	-0.096
Mof_O 	O 	0.469	0.4166	0.1342	-0.053
Mof_O 	O 	0.779	0.4179	0.1038	-0.101
Mof_Sm	Sm	0.9253	0.76771	0.54955	2.438
Mof_O 	O 	0.9072	0.6907	0.1484	-0.464
Mof_O 	O 	0.9391	0.7895	0.1398	-0.425
Mof_C 	C 	0.9218	0.7428	0.171	0.277
Mof_C 	C 	0.9273	0.7482	0.2368	0.064
Mof_C 	C 	0.934	0.8081	0.26	-0.185
Mof_H 	H 	0.9374	0.8425	0.2361	0.152
Mof_C 	C 	0.9352	0.8133	0.3192	0.216
Mof_N 	N 	0.99	0.8753	0.3436	-0.032
Mof_O 	O 	0.948	0.884	0.3949	0.009
Mof_O 	O 	0.059	0.9142	0.314	-0.042
Mof_C 	C 	0.9282	0.7631	0.3564	-0.269
Mof_C 	C 	0.9206	0.7045	0.3327	0.135
Mof_H 	H 	0.9161	0.67	0.3564	-0.037
Mof_C 	C 	0.9197	0.6992	0.2714	-0.162
Mof_H 	H 	0.9138	0.6604	0.2549	0.108
Mof_C 	C 	0.9291	0.7672	0.421	0.573
Mof_O 	O 	0.0876	0.7735	0.4468	-0.676
Mof_O 	O 	0.7731	0.7589	0.44781	-0.718
Mof_O 	O 	0.2128	0.6478	0.4632	-0.597
Mof_O 	O 	0.9555	0.6645	0.5195	-0.569
Mof_C 	C 	0.0738	0.6302	0.4933	0.533
Mof_C 	C 	0.0393	0.5625	0.4976	-0.113
Mof_C 	C 	0.9259	0.5382	0.5411	-0.068
Mof_H 	H 	0.875	0.5637	0.5699	0.181
Mof_C 	C 	0.112	0.524	0.4563	0.044
Mof_H 	H 	0.1874	0.5396	0.4263	0.04
Mof_N 	N 	0.883	0.8749	0.3431	0.001
Mof_O 	O 	0.856	0.8803	0.3952	-0.121
Mof_O 	O 	0.883	0.9191	0.3095	-0.062
Mof_N 	N 	0.896	0.5695	0.605	-0.098
Mof_O 	O 	0.031	0.5834	0.6342	-0.05
Mof_O 	O 	0.721	0.5821	0.6038	-0.103
Mof_Sm	Sm	0.4253	0.73229	0.45045	2.45
Mof_O 	O 	0.4072	0.8093	0.8516	-0.463
Mof_O 	O 	0.4391	0.7105	0.8602	-0.423
Mof_C 	C 	0.4218	0.7572	0.829	0.278
Mof_C 	C 	0.4273	0.7518	0.7632	0.067
Mof_C 	C 	0.434	0.6919	0.74	-0.185
Mof_H 	H 	0.4374	0.6575	0.7639	0.154
Mof_C 	C 	0.4352	0.6867	0.6808	0.219
Mof_N 	N 	0.49	0.6247	0.6564	-0.028
Mof_O 	O 	0.448	0.616	0.6051	0.011
Mof_O 	O 	0.559	0.5858	0.686	-0.048
Mof_C 	C 	0.4282	0.7369	0.6436	-0.27
Mof_C 	C 	0.4206	0.7955	0.6673	0.139
Mof_H 	H 	0.4161	0.83	0.6436	-0.036
Mof_C 	C 	0.4197	0.8008	0.7286	-0.162
Mof_H 	H 	0.4138	0.8396	0.7451	0.109
Mof_C 	C 	0.4291	0.7328	0.579	0.581
Mof_O 	O 	0.5876	0.7265	0.5532	-0.684
Mof_O 	O 	0.2731	0.7411	0.55219	-0.717
Mof_O 	O 	0.7128	0.8522	0.5368	-0.596
Mof_O 	O 	0.4555	0.8355	0.4805	-0.565
Mof_C 	C 	0.5738	0.8698	0.5067	0.527
Mof_C 	C 	0.5393	0.9375	0.5024	-0.113
Mof_C 	C 	0.4259	0.9618	0.4589	-0.063
Mof_H 	H 	0.375	0.9363	0.4301	0.179
Mof_C 	C 	0.612	0.976	0.5437	0.042
Mof_H 	H 	0.6874	0.9604	0.5737	0.041
Mof_N 	N 	0.383	0.6251	0.6569	-0.002
Mof_O 	O 	0.356	0.6197	0.6048	-0.121
Mof_O 	O 	0.383	0.5809	0.6905	-0.058
Mof_N 	N 	0.396	0.9305	0.395	-0.096
Mof_O 	O 	0.531	0.9166	0.3658	-0.053
Mof_O 	O 	0.221	0.9179	0.3962	-0.101
Mof_Sm	Sm	0.0747	0.26771	0.95045	2.439
Mof_O 	O 	0.0928	0.1907	0.3516	-0.464
Mof_O 	O 	0.0609	0.2895	0.3602	-0.425
Mof_C 	C 	0.0782	0.2428	0.329	0.277
Mof_C 	C 	0.0727	0.2482	0.2632	0.064
Mof_C 	C 	0.066	0.3081	0.24	-0.186
Mof_H 	H 	0.0626	0.3425	0.2639	0.153
Mof_C 	C 	0.0648	0.3133	0.1808	0.217
Mof_N 	N 	0.01	0.3753	0.1564	-0.031
Mof_O 	O 	0.052	0.384	0.1051	0.01
Mof_O 	O 	0.941	0.4142	0.186	-0.044
Mof_C 	C 	0.0718	0.2631	0.1436	-0.269
Mof_C 	C 	0.0794	0.2045	0.1673	0.136
Mof_H 	H 	0.0839	0.17	0.1436	-0.037
Mof_C 	C 	0.0803	0.1992	0.2286	-0.162
Mof_H 	H 	0.0862	0.1604	0.2451	0.108
Mof_C 	C 	0.0709	0.2672	0.079	0.574
Mof_O 	O 	0.9124	0.2735	0.0532	-0.677
Mof_O 	O 	0.2269	0.2589	0.05219	-0.718
Mof_O 	O 	0.7872	0.1478	0.0368	-0.597
Mof_O 	O 	0.0445	0.1645	0.9805	-0.569
Mof_C 	C 	0.9262	0.1302	0.0067	0.533
Mof_C 	C 	0.9607	0.0625	0.0024	-0.113
Mof_C 	C 	0.0741	0.0382	0.9589	-0.068
Mof_H 	H 	0.125	0.0637	0.9301	0.182
Mof_C 	C 	0.888	0.024	0.0437	0.044
Mof_H 	H 	0.8126	0.0396	0.0737	0.04
Mof_N 	N 	0.117	0.3749	0.1569	0
Mof_O 	O 	0.144	0.3803	0.1048	-0.121
Mof_O 	O 	0.117	0.4191	0.1905	-0.06
Mof_N 	N 	0.104	0.0695	0.895	-0.1
Mof_O 	O 	0.969	0.0834	0.8658	-0.048
Mof_O 	O 	0.279	0.0821	0.8962	-0.102
Mof_Sm	Sm	0.4253	0.76771	0.95045	2.449
Mof_O 	O 	0.4072	0.6907	0.3516	-0.463
Mof_O 	O 	0.4391	0.7895	0.3602	-0.423
Mof_C 	C 	0.4218	0.7428	0.329	0.278
Mof_C 	C 	0.4273	0.7482	0.2632	0.067
Mof_C 	C 	0.434	0.8081	0.24	-0.185
Mof_H 	H 	0.4374	0.8425	0.2639	0.154
Mof_C 	C 	0.4352	0.8133	0.1808	0.219
Mof_N 	N 	0.49	0.8753	0.1564	-0.028
Mof_O 	O 	0.448	0.884	0.1051	0.01
Mof_O 	O 	0.559	0.9142	0.186	-0.048
Mof_C 	C 	0.4282	0.7631	0.1436	-0.269
Mof_C 	C 	0.4206	0.7045	0.1673	0.139
Mof_H 	H 	0.4161	0.67	0.1436	-0.036
Mof_C 	C 	0.4197	0.6992	0.2286	-0.162
Mof_H 	H 	0.4138	0.6604	0.2451	0.11
Mof_C 	C 	0.4291	0.7672	0.079	0.581
Mof_O 	O 	0.5876	0.7735	0.0532	-0.683
Mof_O 	O 	0.2731	0.7589	0.05219	-0.716
Mof_O 	O 	0.7128	0.6478	0.0368	-0.596
Mof_O 	O 	0.4555	0.6645	0.9805	-0.565
Mof_C 	C 	0.5738	0.6302	0.0067	0.527
Mof_C 	C 	0.5393	0.5625	0.0024	-0.113
Mof_C 	C 	0.4259	0.5382	0.9589	-0.064
Mof_H 	H 	0.375	0.5637	0.9301	0.179
Mof_C 	C 	0.612	0.524	0.0437	0.043
Mof_H 	H 	0.6874	0.5396	0.0737	0.041
Mof_N 	N 	0.383	0.8749	0.1569	-0.002
Mof_O 	O 	0.356	0.8803	0.1048	-0.12
Mof_O 	O 	0.383	0.9191	0.1905	-0.058
Mof_N 	N 	0.396	0.5695	0.895	-0.096
Mof_O 	O 	0.531	0.5834	0.8658	-0.053
Mof_O 	O 	0.221	0.5821	0.8962	-0.101
Mof_Sm	Sm	0.0747	0.23229	0.45045	2.438
Mof_O 	O 	0.0928	0.3093	0.8516	-0.464
Mof_O 	O 	0.0609	0.2105	0.8602	-0.425
Mof_C 	C 	0.0782	0.2572	0.829	0.277
Mof_C 	C 	0.0727	0.2518	0.7632	0.064
Mof_C 	C 	0.066	0.1919	0.74	-0.185
Mof_H 	H 	0.0626	0.1575	0.7639	0.152
Mof_C 	C 	0.0648	0.1867	0.6808	0.216
Mof_N 	N 	0.01	0.1247	0.6564	-0.032
Mof_O 	O 	0.052	0.116	0.6051	0.009
Mof_O 	O 	0.941	0.0858	0.686	-0.042
Mof_C 	C 	0.0718	0.2369	0.6436	-0.269
Mof_C 	C 	0.0794	0.2955	0.6673	0.135
Mof_H 	H 	0.0839	0.33	0.6436	-0.037
Mof_C 	C 	0.0803	0.3008	0.7286	-0.162
Mof_H 	H 	0.0862	0.3396	0.7451	0.108
Mof_C 	C 	0.0709	0.2328	0.579	0.573
Mof_O 	O 	0.9124	0.2265	0.5532	-0.676
Mof_O 	O 	0.2269	0.2411	0.55219	-0.718
Mof_O 	O 	0.7872	0.3522	0.5368	-0.597
Mof_O 	O 	0.0445	0.3355	0.4805	-0.569
Mof_C 	C 	0.9262	0.3698	0.5067	0.533
Mof_C 	C 	0.9607	0.4375	0.5024	-0.113
Mof_C 	C 	0.0741	0.4618	0.4589	-0.068
Mof_H 	H 	0.125	0.4363	0.4301	0.181
Mof_C 	C 	0.888	0.476	0.5437	0.044
Mof_H 	H 	0.8126	0.4604	0.5737	0.04
Mof_N 	N 	0.117	0.1251	0.6569	0.001
Mof_O 	O 	0.144	0.1197	0.6048	-0.121
Mof_O 	O 	0.117	0.0809	0.6905	-0.062
Mof_N 	N 	0.104	0.4305	0.395	-0.098
Mof_O 	O 	0.969	0.4166	0.3658	-0.05
Mof_O 	O 	0.279	0.4179	0.3962	-0.103
Mof_Sm	Sm	0.5747	0.26771	0.54955	2.45
Mof_O 	O 	0.5928	0.1907	0.1484	-0.463
Mof_O 	O 	0.5609	0.2895	0.1398	-0.423
Mof_C 	C 	0.5782	0.2428	0.171	0.278
Mof_C 	C 	0.5727	0.2482	0.2368	0.067
Mof_C 	C 	0.566	0.3081	0.26	-0.185
Mof_H 	H 	0.5626	0.3425	0.2361	0.154
Mof_C 	C 	0.5648	0.3133	0.3192	0.219
Mof_N 	N 	0.51	0.3753	0.3436	-0.028
Mof_O 	O 	0.552	0.384	0.3949	0.011
Mof_O 	O 	0.441	0.4142	0.314	-0.048
Mof_C 	C 	0.5718	0.2631	0.3564	-0.27
Mof_C 	C 	0.5794	0.2045	0.3327	0.139
Mof_H 	H 	0.5839	0.17	0.3564	-0.036
Mof_C 	C 	0.5803	0.1992	0.2714	-0.162
Mof_H 	H 	0.5862	0.1604	0.2549	0.109
Mof_C 	C 	0.5709	0.2672	0.421	0.581
Mof_O 	O 	0.4124	0.2735	0.4468	-0.684
Mof_O 	O 	0.7269	0.2589	0.44781	-0.717
Mof_O 	O 	0.2872	0.1478	0.4632	-0.596
Mof_O 	O 	0.5445	0.1645	0.5195	-0.565
Mof_C 	C 	0.4262	0.1302	0.4933	0.527
Mof_C 	C 	0.4607	0.0625	0.4976	-0.113
Mof_C 	C 	0.5741	0.0382	0.5411	-0.063
Mof_H 	H 	0.625	0.0637	0.5699	0.179
Mof_C 	C 	0.388	0.024	0.4563	0.042
Mof_H 	H 	0.3126	0.0396	0.4263	0.041
Mof_N 	N 	0.617	0.3749	0.3431	-0.002
Mof_O 	O 	0.644	0.3803	0.3952	-0.121
Mof_O 	O 	0.617	0.4191	0.3095	-0.058
Mof_N 	N 	0.604	0.0695	0.605	-0.096
Mof_O 	O 	0.469	0.0834	0.6342	-0.053
Mof_O 	O 	0.779	0.0821	0.6038	-0.101
Mof_Sm	Sm	0.9253	0.73229	0.04955	2.439
Mof_O 	O 	0.9072	0.8093	0.6484	-0.464
Mof_O 	O 	0.9391	0.7105	0.6398	-0.425
Mof_C 	C 	0.9218	0.7572	0.671	0.277
Mof_C 	C 	0.9273	0.7518	0.7368	0.064
Mof_C 	C 	0.934	0.6919	0.76	-0.186
Mof_H 	H 	0.9374	0.6575	0.7361	0.153
Mof_C 	C 	0.9352	0.6867	0.8192	0.217
Mof_N 	N 	0.99	0.6247	0.8436	-0.031
Mof_O 	O 	0.948	0.616	0.8949	0.01
Mof_O 	O 	0.059	0.5858	0.814	-0.044
Mof_C 	C 	0.9282	0.7369	0.8564	-0.269
Mof_C 	C 	0.9206	0.7955	0.8327	0.136
Mof_H 	H 	0.9161	0.83	0.8564	-0.037
Mof_C 	C 	0.9197	0.8008	0.7714	-0.162
Mof_H 	H 	0.9138	0.8396	0.7549	0.108
Mof_C 	C 	0.9291	0.7328	0.921	0.574
Mof_O 	O 	0.0876	0.7265	0.9468	-0.677
Mof_O 	O 	0.7731	0.7411	0.94781	-0.718
Mof_O 	O 	0.2128	0.8522	0.9632	-0.597
Mof_O 	O 	0.9555	0.8355	0.0195	-0.569
Mof_C 	C 	0.0738	0.8698	0.9933	0.533
Mof_C 	C 	0.0393	0.9375	0.9976	-0.113
Mof_C 	C 	0.9259	0.9618	0.0411	-0.068
Mof_H 	H 	0.875	0.9363	0.0699	0.182
Mof_C 	C 	0.112	0.976	0.9563	0.044
Mof_H 	H 	0.1874	0.9604	0.9263	0.04
Mof_N 	N 	0.883	0.6251	0.8431	0
Mof_O 	O 	0.856	0.6197	0.8952	-0.121
Mof_O 	O 	0.883	0.5809	0.8095	-0.06
Mof_N 	N 	0.896	0.9305	0.105	-0.1
Mof_O 	O 	0.031	0.9166	0.1342	-0.048
Mof_O 	O 	0.721	0.9179	0.1038	-0.102
_end
