data_functionalizedCrystal
_audit_creation_method	'EQeq! by Chris Wilmer'
_symmetry_space_group_name_H-M	'P1'
_symmetry_Int_Tables_number	1
_symmetry_cell_setting	triclinic
loop_
_symmetry_equiv_pos_as_xyz
  x,y,z
_cell_length_a	23.9724
_cell_length_b	24.0928
_cell_length_c	24.5693
_cell_angle_alpha	86.145
_cell_angle_beta	61.593
_cell_angle_gamma	61.533
loop_
_atom_site_label
_atom_site_type_symbol
_atom_site_fract_x
_atom_site_fract_y
_atom_site_fract_z
_atom_site_charge
Mof_Ho	Ho	0.86124	0.35443	0.70338	1.987
Mof_Ho	Ho	0.24014	0.77517	0.74305	1.99
Mof_Ho	Ho	0.63401	0.79589	0.15351	1.979
Mof_Ho	Ho	0.36599	0.20411	0.84649	1.979
Mof_Ho	Ho	0.13876	0.64557	0.29662	1.987
Mof_Ho	Ho	0.75986	0.22483	0.25695	1.99
Mof_H 	H 	0.7728	0.0023	0.1468	0.07
Mof_H 	H 	0.8833	0.1554	0.9756	0.062
Mof_H 	H 	0.3218	0.4276	0.0561	0.08
Mof_H 	H 	0.5234	0.3159	0.5225	0.071
Mof_H 	H 	0.098	0.8049	0.5885	0.063
Mof_H 	H 	0.9156	0.2161	0.7883	0.037
Mof_H 	H 	0.4594	0.9363	0.754	0.066
Mof_H 	H 	0.8911	0.5021	0.6792	0.025
Mof_H 	H 	0.2379	0.9046	0.632	0.027
Mof_H 	H 	0.8156	0.9062	0.002	0.065
Mof_H 	H 	0.7157	0.4691	0.8957	0.021
Mof_H 	H 	0.4766	0.6841	0.4775	0.071
Mof_H 	H 	0.6214	0.7755	0.002	0.03
Mof_H 	H 	0.0739	0.9063	0.2624	0.072
Mof_H 	H 	0.3745	0.0557	0.0484	0.067
Mof_H 	H 	0.5632	0.1378	0.268	0.069
Mof_H 	H 	0.8626	0.1625	0.3561	0.035
Mof_H 	H 	0.7648	0.3315	0.1338	0.044
Mof_H 	H 	0.9405	0.2333	0.4523	0.071
Mof_H 	H 	0.3357	0.8292	0.2561	0.071
Mof_H 	H 	0.4945	0.6732	0.1204	0.073
Mof_H 	H 	0.1788	0.3182	0.0203	0.024
Mof_H 	H 	0.1097	0.8555	0.9313	0.016
Mof_H 	H 	0.4368	0.8622	0.732	0.069
Mof_H 	H 	0.404	0.8805	0.4383	0.068
Mof_H 	H 	0.5406	0.0637	0.246	0.066
Mof_H 	H 	0.4115	0.872	0.2203	0.018
Mof_H 	H 	0.4016	0.7874	0.7404	0.032
Mof_H 	H 	0.8711	0.7003	0.043	0.036
Mof_H 	H 	0.3957	0.423	0.7537	0.066
Mof_H 	H 	0.4263	0.3333	0.8008	0.03
Mof_H 	H 	0.4209	0.0097	0.1015	0.068
Mof_H 	H 	0.4633	0.6587	0.8235	0.066
Mof_H 	H 	0.3534	0.8567	0.6385	0.027
Mof_H 	H 	0.5582	0.5605	0.6482	0.066
Mof_H 	H 	0.352	0.3102	0.0604	0.067
Mof_H 	H 	0.5601	0.5636	0.8217	0.074
Mof_H 	H 	0.4881	0.0176	0.7383	0.021
Mof_H 	H 	0.8564	0.1886	0.7156	0.028
Mof_H 	H 	0.8187	0.5094	0.1218	0.095
Mof_H 	H 	0.2538	0.6517	0.9532	0.102
Mof_H 	H 	0.1258	0.4515	0.1797	0.078
Mof_H 	H 	0.9249	0.2442	0.2409	0.031
Mof_H 	H 	0.6444	0.5073	0.2984	0.068
Mof_H 	H 	0.0595	0.7667	0.5477	0.071
Mof_H 	H 	0.8212	0.6818	0.9797	0.024
Mof_H 	H 	0.8399	0.0143	0.394	0.064
Mof_H 	H 	0.9083	0.6413	0.1687	0.103
Mof_H 	H 	0.0366	0.3392	0.5585	0.014
Mof_H 	H 	0.2272	0.9977	0.8532	0.071
Mof_H 	H 	0.0156	0.2578	0.1532	0.072
Mof_H 	H 	0.7147	0.8533	0.2243	0.035
Mof_H 	H 	0.6713	0.9026	0.0184	0.028
Mof_H 	H 	0.5573	0.3922	0.3421	0.019
Mof_H 	H 	0.6704	0.4135	0.3356	0.013
Mof_H 	H 	0.7621	0.0954	0.368	0.027
Mof_H 	H 	0.0895	0.2494	0.6294	0.019
Mof_H 	H 	0.5885	0.128	0.7797	0.018
Mof_H 	H 	0.5651	0.3283	0.422	0.008
Mof_H 	H 	0.5367	0.3413	0.1765	0.066
Mof_H 	H 	0.0355	0.1904	0.5882	0.01
Mof_H 	H 	0.9645	0.8096	0.4118	0.01
Mof_H 	H 	0.902	0.1951	0.4115	0.063
Mof_H 	H 	0.7462	0.3483	0.0468	0.102
Mof_H 	H 	0.2923	0.6614	0.0185	0.072
Mof_H 	H 	0.2549	0.0642	0.7894	0.069
Mof_H 	H 	0.7786	0.2777	0.6552	0.031
Mof_H 	H 	0.9634	0.6608	0.4415	0.014
Mof_H 	H 	0.2686	0.1072	0.9097	0.029
Mof_H 	H 	0.194	0.9193	0.8651	0.016
Mof_H 	H 	0.4023	0.3033	0.717	0.034
Mof_H 	H 	0.1436	0.8114	0.2844	0.028
Mof_H 	H 	0.3296	0.5865	0.6644	0.013
Mof_H 	H 	0.0846	0.8059	0.1174	0.07
Mof_H 	H 	0.0237	0.3266	0.8307	0.118
Mof_H 	H 	0.4522	0.8798	0.3313	0.019
Mof_H 	H 	0.6678	0.5104	0.8156	0.009
Mof_H 	H 	0.0571	0.6856	0.1868	0.074
Mof_H 	H 	0.0806	0.9694	0.8155	0.019
Mof_H 	H 	0.972	0.0936	0.1344	0.015
Mof_H 	H 	0.3386	0.223	0.697	0.03
Mof_H 	H 	0.6043	0.577	0.2463	0.066
Mof_H 	H 	0.5737	0.6667	0.1992	0.03
Mof_H 	H 	0.7077	0.3386	0.9815	0.072
Mof_H 	H 	0.6513	0.2969	0.1675	0.034
Mof_H 	H 	0.5478	0.1202	0.6687	0.019
Mof_H 	H 	0.4427	0.6078	0.6579	0.019
Mof_H 	H 	0.3287	0.0974	0.9816	0.028
Mof_H 	H 	0.045	0.2886	0.0502	0.085
Mof_H 	H 	0.5736	0.3632	0.8554	0.065
Mof_H 	H 	0.3556	0.4927	0.7016	0.068
Mof_H 	H 	0.4333	0.2823	0.9196	0.03
Mof_H 	H 	0.1479	0.4071	0.0808	0.099
Mof_H 	H 	0.9303	0.899	0.9523	0.068
Mof_H 	H 	0.5614	0.6932	0.3885	0.066
Mof_H 	H 	0.5055	0.3268	0.8796	0.073
Mof_H 	H 	0.6782	0.5724	0.9439	0.08
Mof_H 	H 	0.3939	0.8714	0.5332	0.066
Mof_H 	H 	0.0697	0.101	0.0477	0.068
Mof_H 	H 	0.7314	0.8928	0.0903	0.029
Mof_H 	H 	0.7451	0.9358	0.2106	0.069
Mof_H 	H 	0.0023	0.0536	0.7901	0.065
Mof_H 	H 	0.4701	0.9602	0.1619	0.016
Mof_H 	H 	0.2118	0.3996	0.9201	0.033
Mof_H 	H 	0.1729	0.2575	0.6435	0.066
Mof_H 	H 	0.256	0.2247	0.6714	0.069
Mof_H 	H 	0.3559	0.5879	0.1874	0.018
Mof_H 	H 	0.7125	0.2263	0.6956	0.066
Mof_H 	H 	0.1374	0.8375	0.6439	0.035
Mof_H 	H 	0.2341	0.5822	0.3942	0.025
Mof_H 	H 	0.0751	0.7558	0.7591	0.031
Mof_H 	H 	0.2655	0.6135	0.455	0.071
Mof_H 	H 	0.891	0.9021	0.3902	0.071
Mof_H 	H 	0.6061	0.1286	0.4668	0.066
Mof_H 	H 	0.1665	0.5845	0.8643	0.105
Mof_H 	H 	0.0763	0.392	0.4744	0.068
Mof_H 	H 	0.2352	0.6685	0.8662	0.044
Mof_H 	H 	0.744	0.7753	0.3286	0.069
Mof_H 	H 	0.2928	0.6406	0.1123	0.021
Mof_H 	H 	0.0928	0.552	0.229	0.028
Mof_H 	H 	0.5984	0.2126	0.2596	0.032
Mof_H 	H 	0.596	0.1195	0.5617	0.068
Mof_H 	H 	0.6558	0.5764	0.6398	0.068
Mof_H 	H 	0.3322	0.4896	0.1844	0.009
Mof_H 	H 	0.7659	0.4178	0.6058	0.025
Mof_H 	H 	0.4386	0.3068	0.6115	0.066
Mof_H 	H 	0.9072	0.448	0.771	0.028
Mof_H 	H 	0.2214	0.7223	0.3448	0.031
Mof_H 	H 	0.7345	0.3865	0.545	0.071
Mof_H 	H 	0.0917	0.3587	0.8313	0.103
Mof_H 	H 	0.1167	0.8446	0.0244	0.063
Mof_H 	H 	0.0867	0.4419	0.4023	0.069
Mof_H 	H 	0.4264	0.6368	0.1446	0.065
Mof_H 	H 	0.109	0.0979	0.6098	0.071
Mof_H 	H 	0.6614	0.777	0.303	0.03
Mof_H 	H 	0.5299	0.0398	0.8381	0.016
Mof_H 	H 	0.8335	0.4155	0.1357	0.105
Mof_H 	H 	0.1601	0.9857	0.606	0.064
Mof_H 	H 	0.1289	0.2997	0.957	0.036
Mof_H 	H 	0.6811	0.3311	0.4192	0.018
Mof_H 	H 	0.4399	0.4364	0.1783	0.074
Mof_H 	H 	0.2853	0.1467	0.7757	0.035
Mof_H 	H 	0.8242	0.6457	0.1444	0.026
Mof_H 	H 	0.2875	0.7737	0.3044	0.066
Mof_H 	H 	0.7169	0.3696	0.474	0.061
Mof_H 	H 	0.806	0.0807	0.1349	0.016
Mof_H 	H 	0.9154	0.1941	0.8826	0.07
Mof_H 	H 	0.4418	0.4395	0.3518	0.066
Mof_H 	H 	0.2831	0.6304	0.526	0.061
Mof_H 	H 	0.9237	0.608	0.5256	0.068
Mof_H 	H 	0.1378	0.6809	0.8239	0.039
Mof_H 	H 	0.2843	0.5309	0.1043	0.021
Mof_H 	H 	0.955	0.7114	0.9498	0.085
Mof_H 	H 	0.1089	0.4979	0.3208	0.025
Mof_H 	H 	0.9133	0.5581	0.5977	0.069
Mof_H 	H 	0.9977	0.9464	0.2099	0.065
Mof_H 	H 	0.1758	0.3543	0.8556	0.026
Mof_H 	H 	0.9684	0.2735	0.5136	0.018
Mof_H 	H 	0.2278	0.4866	0.3674	0.027
Mof_H 	H 	0.6255	0.9443	0.9516	0.067
Mof_H 	H 	0.8521	0.5929	0.9192	0.099
Mof_H 	H 	0.7882	0.6004	0.0799	0.033
Mof_H 	H 	0.3442	0.4236	0.3602	0.068
Mof_H 	H 	0.9194	0.0306	0.1845	0.019
Mof_H 	H 	0.0316	0.7265	0.4864	0.018
Mof_H 	H 	0.5119	0.9824	0.2617	0.021
Mof_H 	H 	0.3189	0.6689	0.5808	0.018
Mof_H 	H 	0.9763	0.6734	0.1693	0.118
Mof_H 	H 	0.6643	0.1708	0.7439	0.071
Mof_H 	H 	0.9844	0.7422	0.8468	0.072
Mof_H 	H 	0.5667	0.7177	0.0804	0.03
Mof_H 	H 	0.9429	0.3144	0.8132	0.074
Mof_H 	H 	0.6466	0.1433	0.3615	0.027
Mof_H 	H 	0.7072	0.3594	0.8877	0.021
Mof_H 	H 	0.8742	0.5485	0.8203	0.078
Mof_H 	H 	0.8271	0.7425	0.3565	0.066
Mof_H 	H 	0.5791	0.9903	0.8985	0.068
Mof_H 	H 	0.4349	0.6717	0.578	0.008
Mof_H 	H 	0.5977	0.6967	0.283	0.034
Mof_H 	H 	0.648	0.6898	0.9396	0.067
Mof_H 	H 	0.028	0.9064	0.8656	0.015
Mof_H 	H 	0.1844	0.0938	0.998	0.065
Mof_H 	H 	0.9105	0.7506	0.3706	0.019
Mof_H 	H 	0.7722	0.5134	0.6326	0.027
Mof_H 	H 	0.9261	0.0937	0.7376	0.072
Mof_H 	H 	0.3487	0.7031	0.8325	0.034
Mof_H 	H 	0.8622	0.3191	0.1761	0.039
Mof_H 	H 	0.3786	0.2245	0.998	0.03
Mof_H 	H 	0.0844	0.7839	0.2117	0.037
Mof_H 	H 	0.6441	0.4121	0.8126	0.018
Mof_H 	H 	0.8903	0.1445	0.0687	0.016
Mof_H 	H 	0.1813	0.4906	0.8782	0.095
Mof_C 	C 	0.4433	0.8418	0.4079	-0.116
Mof_C 	C 	0.7769	0.8564	0.061	0.054
Mof_C 	C 	0.6238	0.6352	0.1845	0.055
Mof_C 	C 	0.5015	0.9579	0.1187	0.068
Mof_C 	C 	0.5224	0.2859	0.8579	-0.121
Mof_C 	C 	0.2718	0.4758	0.3287	0.053
Mof_C 	C 	0.9651	0.584	0.485	-0.115
Mof_C 	C 	0.14	0.5267	0.1927	0.094
Mof_C 	C 	0.5288	0.1601	0.6561	0.07
Mof_C 	C 	0.8155	0.2537	0.9998	0.052
Mof_C 	C 	0.2007	0.584	0.823	-0.106
Mof_C 	C 	0.4428	0.2662	0.6849	0.054
Mof_C 	C 	0.0766	0.2651	0.6705	0.061
Mof_C 	C 	0.9934	0.4817	0.5263	0.052
Mof_C 	C 	0.1958	0.3702	0.0634	-0.106
Mof_C 	C 	0.2735	0.453	0.0911	-0.107
Mof_C 	C 	0.6352	0.2881	0.7787	0.04
Mof_C 	C 	0.1438	0.983	0.6492	-0.103
Mof_C 	C 	0.8598	0.7415	0.0324	0.063
Mof_C 	C 	0.3318	0.2626	0.0142	0.058
Mof_C 	C 	0.9234	0.7349	0.3295	0.061
Mof_C 	C 	0.5157	0.5896	0.6861	-0.107
Mof_C 	C 	0.8559	0.2243	0.4149	-0.096
Mof_C 	C 	0.9412	0.5123	0.5879	-0.116
Mof_C 	C 	0.0066	0.5183	0.4737	0.052
Mof_C 	C 	0.5467	0.28	0.4902	-0.127
Mof_C 	C 	0.6835	0.6867	0.9489	-0.109
Mof_C 	C 	0.7854	0.682	0.9727	0.061
Mof_C 	C 	0.4776	0.7141	0.1421	-0.121
Mof_C 	C 	0.0191	0.8729	0.8617	0.062
Mof_C 	C 	0.7503	0.5955	0.1138	0.08
Mof_C 	C 	0.023	0.0881	0.6807	0.056
Mof_C 	C 	0.9083	0.1699	0.6951	0.064
Mof_C 	C 	0.5929	0.949	0.9951	-0.111
Mof_C 	C 	0.802	0.3805	0.5728	0.073
Mof_C 	C 	0.3648	0.7119	0.2213	0.04
Mof_C 	C 	0.2146	0.318	0.0273	0.061
Mof_C 	C 	0.4756	0.784	0.4257	0.045
Mof_C 	C 	0.1597	0.4666	0.1634	-0.098
Mof_C 	C 	0.3558	0.9899	0.7726	0.04
Mof_C 	C 	0.6442	0.0101	0.2274	0.04
Mof_C 	C 	0.8359	0.7091	0.2489	0.061
Mof_C 	C 	0.2649	0.5274	0.7876	0.062
Mof_C 	C 	0.366	0.8306	0.7632	0.061
Mof_C 	C 	0.0102	0.6964	0.2217	0.056
Mof_C 	C 	0.5572	0.7338	0.3151	0.054
Mof_C 	C 	0.7265	0.547	0.9089	-0.107
Mof_C 	C 	0.634	0.1694	0.2368	0.061
Mof_C 	C 	0.9809	0.1271	0.1383	0.062
Mof_C 	C 	0.0349	0.416	0.515	-0.115
Mof_C 	C 	0.3801	0.0771	0.9656	0.066
Mof_C 	C 	0.7993	0.416	0.177	-0.106
Mof_C 	C 	0.7127	0.7504	0.2745	0.057
Mof_C 	C 	0.8726	0.241	0.8278	0.051
Mof_C 	C 	0.1378	0.814	0.9371	0.069
Mof_C 	C 	0.5726	0.2872	0.4312	0.079
Mof_C 	C 	0.4055	0.8295	0.5419	-0.111
Mof_C 	C 	0.3844	0.6549	0.1859	-0.105
Mof_C 	C 	0.8403	0.5334	0.8366	-0.098
Mof_C 	C 	0.9509	0.8165	0.9086	0.056
Mof_C 	C 	0.3862	0.875	0.7571	-0.117
Mof_C 	C 	0.4047	0.4271	0.2687	0.056
Mof_C 	C 	0.86	0.4733	0.8073	0.094
Mof_C 	C 	0.2493	0.6872	0.0577	-0.097
Mof_C 	C 	0.904	0.2727	0.4825	-0.12
Mof_C 	C 	0.0506	0.8858	0.2915	-0.123
Mof_C 	C 	0.8079	0.673	0.1812	0.074
Mof_C 	C 	0.3576	0.4194	0.7889	-0.097
Mof_C 	C 	0.977	0.9119	0.3193	0.056
Mof_C 	C 	0.2636	0.7049	0.3036	0.055
Mof_C 	C 	0.3412	0.4395	0.3247	-0.112
Mof_C 	C 	0.0383	0.3099	0.7893	-0.097
Mof_C 	C 	0.6086	0.327	0.2047	0.052
Mof_C 	C 	0.6156	0.3451	0.8141	-0.105
Mof_C 	C 	0.8578	0.1924	0.0075	-0.101
Mof_C 	C 	0.397	0.4465	0.2178	-0.131
Mof_C 	C 	0.2231	0.1436	0.939	0.054
Mof_C 	C 	0.4274	0.7128	0.5688	0.079
Mof_C 	C 	0.7282	0.5242	0.6713	0.053
Mof_C 	C 	0.9864	0.6151	0.4337	0.074
Mof_C 	C 	0.4847	0.0167	0.9798	0.048
Mof_C 	C 	0.1426	0.3293	0.8039	-0.121
Mof_C 	C 	0.8909	0.7087	0.2613	0.046
Mof_C 	C 	0.0491	0.1835	0.0914	0.056
Mof_C 	C 	0.3354	0.9383	0.7861	0.053
Mof_C 	C 	0.7684	0.5414	0.1385	-0.093
Mof_C 	C 	0.8574	0.6707	0.1961	-0.121
Mof_C 	C 	0.3109	0.5311	0.7284	-0.117
Mof_C 	C 	0.274	0.697	0.5816	0.057
Mof_C 	C 	0.2316	0.4586	0.8615	-0.093
Mof_C 	C 	0.5153	0.9833	0.0202	0.048
Mof_C 	C 	0.2873	0.2496	0.7255	0.057
Mof_C 	C 	0.6199	0.9229	0.0344	0.066
Mof_C 	C 	0.2528	0.6739	0.5485	-0.098
Mof_C 	C 	0.8622	0.186	0.0629	0.069
Mof_C 	C 	0.2861	0.4679	0.8118	0.054
Mof_C 	C 	0.8258	0.8641	0.0094	-0.101
Mof_C 	C 	0.1742	0.1359	0.9906	-0.101
Mof_C 	C 	0.9271	0.4794	0.6367	0.071
Mof_C 	C 	0.2221	0.6938	0.9511	-0.088
Mof_C 	C 	0.7364	0.2951	0.6964	0.055
Mof_C 	C 	0.9494	0.1142	0.7085	-0.123
Mof_C 	C 	0.0917	0.8301	0.3049	0.064
Mof_C 	C 	0.6209	0.1786	0.3954	0.059
Mof_C 	C 	0.4652	0.2681	0.6221	-0.109
Mof_C 	C 	0.6891	0.4689	0.2716	-0.117
Mof_C 	C 	0.1259	0.2694	0.6789	-0.108
Mof_C 	C 	0.7779	0.3062	0.0489	-0.088
Mof_C 	C 	0.5204	0.7399	0.1183	0.063
Mof_C 	C 	0.3033	0.7351	0.2796	-0.105
Mof_C 	C 	0.6967	0.2649	0.7204	-0.105
Mof_C 	C 	0.7612	0.7494	0.2905	-0.115
Mof_C 	C 	0.9097	0.7486	0.9781	-0.103
Mof_C 	C 	0.8108	0.0656	0.3359	0.052
Mof_C 	C 	0.7139	0.5321	0.1882	0.054
Mof_C 	C 	0.5516	0.223	0.5075	0.053
Mof_C 	C 	0.1837	0.6424	0.7996	0.058
Mof_C 	C 	0.0136	0.3849	0.5663	0.074
Mof_C 	C 	0.9898	0.3036	0.7783	0.056
Mof_C 	C 	0.56	0.9728	0.2497	0.061
Mof_C 	C 	0.1042	0.1929	0.0361	0.042
Mof_C 	C 	0.0076	0.2239	0.1483	-0.111
Mof_C 	C 	0.5244	0.216	0.5743	0.045
Mof_C 	C 	0.3025	0.0541	0.7796	-0.101
Mof_C 	C 	0.3762	0.3648	0.8155	0.055
Mof_C 	C 	0.2124	0.7042	0.8986	0.07
Mof_C 	C 	0.2273	0.4307	0.112	0.08
Mof_C 	C 	0.4292	0.8304	0.1996	0.07
Mof_C 	C 	0.0709	0.0314	0.6968	0.037
Mof_C 	C 	0.1854	0.7153	0.5482	0.032
Mof_C 	C 	0.9924	0.7761	0.8517	-0.111
Mof_C 	C 	0.0729	0.5206	0.3633	0.071
Mof_C 	C 	0.5271	0.0137	0.9172	-0.116
Mof_C 	C 	0.0903	0.2514	0.0219	-0.103
Mof_C 	C 	0.8723	0.2285	0.8844	-0.094
Mof_C 	C 	0.6797	0.8965	0.2279	0.051
Mof_C 	C 	0.7834	0.3619	0.5373	-0.123
Mof_C 	C 	0.6152	0.1955	0.778	-0.122
Mof_C 	C 	0.9617	0.6901	0.2107	-0.097
Mof_C 	C 	0.726	0.303	0.4184	0.057
Mof_C 	C 	0.9523	0.2165	0.2008	0.057
Mof_C 	C 	0.3165	0.3133	0.0511	-0.109
Mof_C 	C 	0.5405	0.3527	0.2104	-0.105
Mof_C 	C 	0.3914	0.673	0.7953	0.052
Mof_C 	C 	0.8741	0.7306	0.3211	-0.108
Mof_C 	C 	0.1402	0.2585	0.9676	0.063
Mof_C 	C 	0.6588	0.5605	0.6753	-0.112
Mof_C 	C 	0.8042	0.6298	0.9366	-0.106
Mof_C 	C 	0.1845	0.7463	0.0002	0.052
Mof_C 	C 	0.7503	0.3253	0.8863	0.065
Mof_C 	C 	0.0132	0.1715	0.6205	0.08
Mof_C 	C 	0.198	0.6195	0.4272	0.073
Mof_C 	C 	0.5531	0.3835	0.3075	0.056
Mof_C 	C 	0.9614	0.8678	0.914	-0.109
Mof_C 	C 	0.096	0.7273	0.5175	-0.12
Mof_C 	C 	0.4843	0.4104	0.3139	-0.107
Mof_C 	C 	0.8318	0.2045	0.382	0.047
Mof_C 	C 	0.6138	0.125	0.2429	-0.117
Mof_C 	C 	0.9291	0.9686	0.3032	0.037
Mof_C 	C 	0.2517	0.5145	0.1206	0.101
Mof_C 	C 	0.943	0.8833	0.3673	-0.121
Mof_C 	C 	0.7373	0.0451	0.1708	-0.117
Mof_C 	C 	0.3203	0.1035	0.7721	0.051
Mof_C 	C 	0.1422	0.8076	0.9925	-0.101
Mof_C 	C 	0.1892	0.9344	0.6641	0.052
Mof_C 	C 	0.0588	0.4877	0.4121	-0.116
Mof_C 	C 	0.704	0.4132	0.2941	0.072
Mof_C 	C 	0.2433	0.9085	0.8363	0.069
Mof_C 	C 	0.8338	0.3074	0.4894	0.056
Mof_C 	C 	0.5945	0.1705	0.4581	-0.111
Mof_C 	C 	0.7876	0.2958	0.1014	0.07
Mof_C 	C 	0.9868	0.8285	0.3795	0.08
Mof_C 	C 	0.1274	0.759	0.1722	0.051
Mof_C 	C 	0.4228	0.979	0.7584	-0.107
Mof_C 	C 	0.7567	0.0915	0.1637	0.069
Mof_C 	C 	0.1662	0.6926	0.5106	0.056
Mof_C 	C 	0.4985	0.0421	0.8813	0.068
Mof_C 	C 	0.3791	0.8214	0.6046	0.059
Mof_C 	C 	0.2627	0.9549	0.8292	-0.117
Mof_C 	C 	0.057	0.1167	0.6327	-0.121
Mof_C 	C 	0.9036	0.0271	0.2274	0.052
Mof_C 	C 	0.4533	0.72	0.5098	-0.127
Mof_C 	C 	0.2483	0.3698	0.0752	0.052
Mof_C 	C 	0.296	0.5868	0.7059	0.072
Mof_C 	C 	0.5224	0.6051	0.7348	0.042
Mof_C 	C 	0.6682	0.7374	0.9858	0.058
Mof_C 	C 	0.188	0.7361	0.058	0.063
Mof_C 	C 	0.2497	0.4045	0.8862	0.08
Mof_C 	C 	0.6573	0.3741	0.7887	0.063
Mof_C 	C 	0.7517	0.6302	0.9248	0.052
Mof_C 	C 	0.3427	0.6259	0.2113	0.063
Mof_C 	C 	0.1682	0.7955	0.618	0.047
Mof_C 	C 	0.6975	0.9459	0.2204	-0.101
Mof_C 	C 	0.7351	0.4726	0.2124	0.062
Mof_C 	C 	0.5953	0.5729	0.7313	0.056
Mof_C 	C 	0.44	0.0272	0.7503	0.061
Mof_C 	C 	0.3848	0.8045	0.222	-0.122
Mof_C 	C 	0.7472	0.3261	0.4515	-0.098
Mof_C 	C 	0.5892	0.2565	0.8042	0.061
Mof_C 	C 	0.4469	0.6165	0.6925	0.056
Mof_C 	C 	0.812	0.2639	0.942	0.063
Mof_C 	C 	0.5567	0.1582	0.5921	-0.116
Mof_C 	C 	0.4071	0.051	0.0049	-0.111
Mof_C 	C 	0.7507	0.3128	0.9423	-0.097
Mof_C 	C 	0.603	0.5535	0.7822	-0.131
Mof_C 	C 	0.5348	0.7319	0.3779	-0.109
Mof_C 	C 	0.7727	0.5693	0.888	0.08
Mof_C 	C 	0.1921	0.327	0.8188	0.074
Mof_C 	C 	0.4484	0.777	0.4925	0.053
Mof_C 	C 	0.4108	0.7435	0.1958	0.061
Mof_C 	C 	0.4712	0.8399	0.3439	0.07
Mof_C 	C 	0.6424	0.5806	0.2111	-0.097
Mof_C 	C 	0.2497	0.6747	0.1137	0.065
Mof_C 	C 	0.1641	0.2909	0.7511	0.061
Mof_C 	C 	0.8562	0.017	0.3508	-0.103
Mof_C 	C 	0.4796	0.2601	0.8817	0.063
Mof_C 	C 	0.4729	0.9863	0.0828	-0.116
Mof_C 	C 	0.666	0.5222	0.7786	0.076
Mof_C 	C 	0.8958	0.8071	0.9639	0.042
Mof_C 	C 	0.08	0.704	0.4801	0.076
Mof_C 	C 	0.8146	0.2847	0.4518	0.032
Mof_C 	C 	0.6646	0.0617	0.2139	0.053
Mof_C 	C 	0.0503	0.0234	0.7572	-0.103
Mof_C 	C 	0.0386	0.1322	0.086	-0.109
Mof_C 	C 	0.0964	0.9729	0.7726	0.052
Mof_C 	C 	0.9497	0.9766	0.2428	-0.103
Mof_C 	C 	0.7483	0.4855	0.8794	0.101
Mof_C 	C 	0.4776	0.3949	0.2652	0.042
Mof_C 	C 	0.2166	0.6381	0.4627	-0.123
Mof_C 	C 	0.1441	0.7757	0.5851	-0.096
Mof_C 	C 	0.5772	0.021	0.2416	-0.107
Mof_C 	C 	0.92	0.296	0.5199	0.076
Mof_C 	C 	0.2388	0.2506	0.7095	-0.115
Mof_C 	C 	0.0477	0.7835	0.7992	0.057
Mof_C 	C 	0.4595	0.6473	0.7896	-0.105
Mof_C 	C 	0.1277	0.7715	0.1156	-0.094
Mof_C 	C 	0.8163	0.3576	0.2004	0.058
Mof_C 	C 	0.334	0.4778	0.2214	0.076
Mof_C 	C 	0.1091	0.2913	0.7387	0.046
Mof_C 	C 	0.5708	0.1696	0.8004	0.07
Mof_N 	N 	0.387	0.0881	0.7597	-0.063
Mof_N 	N 	0.735	0.7154	0.2204	-0.064
Mof_N 	N 	0.3909	0.7628	0.6155	-0.07
Mof_N 	N 	0.8134	0.4523	0.8302	-0.065
Mof_N 	N 	0.7164	0.3491	0.7304	-0.062
Mof_N 	N 	0.7063	0.1518	0.1973	-0.067
Mof_N 	N 	0.9391	0.1702	0.1933	-0.066
Mof_N 	N 	0.7669	0.2432	0.386	-0.057
Mof_N 	N 	0.613	0.9119	0.2403	-0.063
Mof_N 	N 	0.3209	0.3576	0.8633	-0.061
Mof_N 	N 	0.6791	0.6424	0.1367	-0.061
Mof_N 	N 	0.7153	0.7363	0.0003	-0.061
Mof_N 	N 	0.5025	0.2014	0.8512	-0.065
Mof_N 	N 	0.1719	0.7633	0.8937	-0.06
Mof_N 	N 	0.2847	0.2637	0.9997	-0.061
Mof_N 	N 	0.2331	0.7568	0.614	-0.057
Mof_N 	N 	0.7654	0.3587	0.258	-0.061
Mof_N 	N 	0.5766	0.9251	0.0937	-0.066
Mof_N 	N 	0.1653	0.9275	0.7256	-0.055
Mof_N 	N 	0.8703	0.3477	0.5631	-0.073
Mof_N 	N 	0.9937	0.7167	0.2784	-0.057
Mof_N 	N 	0.8108	0.2892	0.8299	-0.053
Mof_N 	N 	0.7928	0.7957	0.0713	-0.057
Mof_N 	N 	0.9638	0.4177	0.623	-0.073
Mof_N 	N 	0.8347	0.0725	0.2744	-0.055
Mof_N 	N 	0.1892	0.7108	0.1701	-0.053
Mof_N 	N 	0.0063	0.2833	0.7216	-0.057
Mof_N 	N 	0.4795	0.2106	0.6999	-0.066
Mof_N 	N 	0.5205	0.7894	0.3001	-0.066
Mof_N 	N 	0.1297	0.6523	0.4369	-0.073
Mof_N 	N 	0.2836	0.6509	0.2696	-0.062
Mof_N 	N 	0.3847	0.6558	0.7484	-0.056
Mof_N 	N 	0.8281	0.2367	0.1063	-0.06
Mof_N 	N 	0.6091	0.2372	0.3845	-0.07
Mof_N 	N 	0.7308	0.5052	0.7232	-0.067
Mof_N 	N 	0.9421	0.1985	0.6518	-0.076
Mof_N 	N 	0.4234	0.0749	0.9063	-0.066
Mof_N 	N 	0.2072	0.2043	0.9287	-0.057
Mof_N 	N 	0.265	0.2846	0.7796	-0.064
Mof_N 	N 	0.2692	0.4948	0.2768	-0.067
Mof_N 	N 	0.6153	0.3442	0.2516	-0.056
Mof_N 	N 	0.2346	0.6413	0.742	-0.061
Mof_N 	N 	0.0579	0.8015	0.3482	-0.076
Mof_N 	N 	0.0609	0.8298	0.8067	-0.066
Mof_N 	N 	0.0362	0.5823	0.377	-0.073
Mof_N 	N 	0.4975	0.7986	0.1488	-0.065
Mof_N 	N 	0.1866	0.5477	0.1698	-0.065
Mof_N 	N 	0.2937	0.8482	0.8027	-0.067
Mof_O 	O 	0.1007	0.7425	0.356	-0.304
Mof_O 	O 	0.1678	0.6054	0.1959	-0.289
Mof_O 	O 	0.7882	0.118	0.2604	-0.318
Mof_O 	O 	0.458	0.1776	0.8717	-0.306
Mof_O 	O 	0.5378	0.7901	0.2396	-0.314
Mof_O 	O 	0.0503	0.6153	0.3315	-0.315
Mof_O 	O 	0.2479	0.6188	0.2922	-0.318
Mof_O 	O 	0.1891	0.6989	0.2226	-0.307
Mof_O 	O 	0.7437	0.2221	0.358	-0.317
Mof_O 	O 	0.9497	0.3847	0.6685	-0.315
Mof_O 	O 	0.3125	0.2807	0.7955	-0.302
Mof_O 	O 	0.1639	0.7696	0.8439	-0.317
Mof_O 	O 	0.8829	0.1668	0.2405	-0.289
Mof_O 	O 	0.7957	0.4695	0.7196	-0.299
Mof_O 	O 	0.3972	0.1012	0.8675	-0.318
Mof_O 	O 	0.2118	0.882	0.7396	-0.318
Mof_O 	O 	0.9609	0.2753	0.7116	-0.313
Mof_O 	O 	0.3576	0.758	0.6774	-0.318
Mof_O 	O 	0.2194	0.6946	0.7216	-0.304
Mof_O 	O 	0.7521	0.3812	0.7078	-0.318
Mof_O 	O 	0.7456	0.7881	0.1244	-0.316
Mof_O 	O 	0.6981	0.783	0.0395	-0.284
Mof_O 	O 	0.8322	0.3946	0.8041	-0.289
Mof_O 	O 	0.2725	0.8041	0.8097	-0.299
Mof_O 	O 	0.3373	0.305	0.8891	-0.303
Mof_O 	O 	0.6627	0.695	0.1109	-0.303
Mof_O 	O 	0.6807	0.3235	0.2443	-0.307
Mof_O 	O 	0.1144	0.6303	0.3995	-0.309
Mof_O 	O 	0.0391	0.7247	0.2884	-0.313
Mof_O 	O 	0.8361	0.2304	0.1561	-0.317
Mof_O 	O 	0.8993	0.2575	0.644	-0.304
Mof_O 	O 	0.6875	0.7193	0.2045	-0.302
Mof_O 	O 	0.2043	0.5305	0.2804	-0.299
Mof_O 	O 	0.2563	0.7779	0.642	-0.317
Mof_O 	O 	0.7806	0.3054	0.2784	-0.304
Mof_O 	O 	0.8856	0.3697	0.6005	-0.309
Mof_O 	O 	0.3019	0.217	0.9605	-0.284
Mof_O 	O 	0.542	0.8224	0.1283	-0.306
Mof_O 	O 	0.6013	0.8627	0.2417	-0.307
Mof_O 	O 	0.6028	0.8988	0.1325	-0.318
Mof_O 	O 	0.6424	0.242	0.3226	-0.318
Mof_O 	O 	0.8109	0.3011	0.7774	-0.307
Mof_O 	O 	0.3987	0.1373	0.7583	-0.307
Mof_O 	O 	0.2544	0.2119	0.8756	-0.316
Mof_O 	O 	0.4622	0.2099	0.7604	-0.314
Mof_O 	O 	0.7275	0.1959	0.1903	-0.299
Mof_O 	O 	0.3193	0.6765	0.7557	-0.307
Mof_O 	O 	0.1171	0.8332	0.7595	-0.289
Mof_C 	C 	0.872	0.4156	0.9725	0.948
Mof_S 	S 	0.9434	0.3713	0.9933	0.279
Mof_O 	O 	0.0084	0.3451	0.934	-0.182
Mof_O 	O 	0.9216	0.3279	0.0292	-0.172
Mof_O 	O 	0.9325	0.4193	0.0338	-0.189
Mof_F 	F 	0.8861	0.4483	0.9355	-0.57
Mof_F 	F 	0.8759	0.3744	0.9355	-0.492
Mof_F 	F 	0.8063	0.4411	0.0213	-0.529
Mof_C 	C 	0.128	0.5844	0.0275	0.948
Mof_S 	S 	0.0566	0.6287	0.0067	0.279
Mof_O 	O 	0.0784	0.6721	0.9708	-0.172
Mof_O 	O 	0.0675	0.5807	0.9662	-0.189
Mof_O 	O 	0.9916	0.6549	0.066	-0.182
Mof_F 	F 	0.1139	0.5517	0.0645	-0.57
Mof_F 	F 	0.1241	0.6256	0.0645	-0.492
Mof_F 	F 	0.1937	0.5589	0.9787	-0.529
_end
