# CIF file generated by openbabel 3.1.0, see https://openbabel.org
data_I
_chemical_name_common 'image0'
_cell_length_a 12.1647
_cell_length_b 12.1647
_cell_length_c 27.1971
_cell_angle_alpha 90
_cell_angle_beta 90
_cell_angle_gamma 120
_space_group_name_H-M_alt 'P 1'
_space_group_name_Hall 'P 1'
loop_
    _symmetry_equiv_pos_as_xyz
    x,y,z
loop_
    _atom_site_label
    _atom_site_type_symbol
    _atom_site_fract_x
    _atom_site_fract_y
    _atom_site_fract_z
    _atom_site_occupancy
    O1       O        0.88180    0.43230    0.19820    1.000
    O2       O        0.84710    0.58770    0.19890    1.000
    C1       C        0.87460    0.51630    0.17880    1.000
    C2       C        0.90940    0.53790    0.12650    1.000
    C3       C        0.82350    0.45340    0.08820    1.000
    C4       C        0.85440    0.49460    0.03740    1.000
    C5       C        0.97980    0.58400    0.02590    1.000
    C6       C        0.04980    0.67160    0.05880    1.000
    C7       C        0.99810    0.66100    0.10730    1.000
    O3       O        0.56770    0.44950    0.19820    1.000
    O4       O        0.41230    0.25940    0.19890    1.000
    C8       C        0.48370    0.35830    0.17880    1.000
    C9       C        0.46210    0.37150    0.12650    1.000
    C10      C        0.54660    0.37010    0.08820    1.000
    C11      C        0.50540    0.35980    0.03740    1.000
    C12      C        0.41600    0.39580    0.02590    1.000
    C13      C        0.32840    0.37820    0.05880    1.000
    C14      C        0.33900    0.33710    0.10730    1.000
    O5       O        0.55050    0.11820    0.19820    1.000
    O6       O        0.74060    0.15290    0.19890    1.000
    C15      C        0.64170    0.12540    0.17880    1.000
    C16      C        0.62850    0.09060    0.12650    1.000
    C17      C        0.62990    0.17650    0.08820    1.000
    C18      C        0.64020    0.14560    0.03740    1.000
    C19      C        0.60420    0.02020    0.02590    1.000
    C20      C        0.62180    0.95020    0.05880    1.000
    C21      C        0.66290    0.00190    0.10730    1.000
    O7       O        0.88180    0.43230    0.30180    1.000
    O8       O        0.84710    0.58770    0.30110    1.000
    C22      C        0.87460    0.51630    0.32120    1.000
    C23      C        0.90940    0.53790    0.37350    1.000
    C24      C        0.82350    0.45340    0.41180    1.000
    C25      C        0.85440    0.49460    0.46260    1.000
    C26      C        0.97980    0.58400    0.47410    1.000
    C27      C        0.04980    0.67160    0.44120    1.000
    C28      C        0.99810    0.66100    0.39270    1.000
    O9       O        0.56770    0.44950    0.30180    1.000
    O10      O        0.41230    0.25940    0.30110    1.000
    C29      C        0.48370    0.35830    0.32120    1.000
    C30      C        0.46210    0.37150    0.37350    1.000
    C31      C        0.54660    0.37010    0.41180    1.000
    C32      C        0.50540    0.35980    0.46260    1.000
    C33      C        0.41600    0.39580    0.47410    1.000
    C34      C        0.32840    0.37820    0.44120    1.000
    C35      C        0.33900    0.33710    0.39270    1.000
    O11      O        0.55050    0.11820    0.30180    1.000
    O12      O        0.74060    0.15290    0.30110    1.000
    C36      C        0.64170    0.12540    0.32120    1.000
    C37      C        0.62850    0.09060    0.37350    1.000
    C38      C        0.62990    0.17650    0.41180    1.000
    C39      C        0.64020    0.14560    0.46260    1.000
    C40      C        0.60420    0.02020    0.47410    1.000
    C41      C        0.62180    0.95020    0.44120    1.000
    C42      C        0.66290    0.00190    0.39270    1.000
    O13      O        0.43230    0.88180    0.80180    1.000
    O14      O        0.58770    0.84710    0.80110    1.000
    C43      C        0.51630    0.87460    0.82120    1.000
    C44      C        0.53790    0.90940    0.87350    1.000
    C45      C        0.45340    0.82350    0.91180    1.000
    C46      C        0.49460    0.85440    0.96260    1.000
    C47      C        0.58400    0.97980    0.97410    1.000
    C48      C        0.67160    0.04980    0.94120    1.000
    C49      C        0.66100    0.99810    0.89270    1.000
    O15      O        0.44950    0.56770    0.80180    1.000
    O16      O        0.25940    0.41230    0.80110    1.000
    C50      C        0.35830    0.48370    0.82120    1.000
    C51      C        0.37150    0.46210    0.87350    1.000
    C52      C        0.37010    0.54660    0.91180    1.000
    C53      C        0.35980    0.50540    0.96260    1.000
    C54      C        0.39580    0.41600    0.97410    1.000
    C55      C        0.37820    0.32840    0.94120    1.000
    C56      C        0.33710    0.33900    0.89270    1.000
    O17      O        0.11820    0.55050    0.80180    1.000
    O18      O        0.15290    0.74060    0.80110    1.000
    C57      C        0.12540    0.64170    0.82120    1.000
    C58      C        0.09060    0.62850    0.87350    1.000
    C59      C        0.17650    0.62990    0.91180    1.000
    C60      C        0.14560    0.64020    0.96260    1.000
    C61      C        0.02020    0.60420    0.97410    1.000
    C62      C        0.95020    0.62180    0.94120    1.000
    C63      C        0.00190    0.66290    0.89270    1.000
    O19      O        0.43230    0.88180    0.69820    1.000
    O20      O        0.58770    0.84710    0.69890    1.000
    C64      C        0.51630    0.87460    0.67880    1.000
    C65      C        0.53790    0.90940    0.62650    1.000
    C66      C        0.45340    0.82350    0.58820    1.000
    C67      C        0.49460    0.85440    0.53740    1.000
    C68      C        0.58400    0.97980    0.52590    1.000
    C69      C        0.67160    0.04980    0.55880    1.000
    C70      C        0.66100    0.99810    0.60730    1.000
    O21      O        0.44950    0.56770    0.69820    1.000
    O22      O        0.25940    0.41230    0.69890    1.000
    C71      C        0.35830    0.48370    0.67880    1.000
    C72      C        0.37150    0.46210    0.62650    1.000
    C73      C        0.37010    0.54660    0.58820    1.000
    C74      C        0.35980    0.50540    0.53740    1.000
    C75      C        0.39580    0.41600    0.52590    1.000
    C76      C        0.37820    0.32840    0.55880    1.000
    C77      C        0.33710    0.33900    0.60730    1.000
    O23      O        0.11820    0.55050    0.69820    1.000
    O24      O        0.15290    0.74060    0.69890    1.000
    C78      C        0.12540    0.64170    0.67880    1.000
    C79      C        0.09060    0.62850    0.62650    1.000
    C80      C        0.17650    0.62990    0.58820    1.000
    C81      C        0.14560    0.64020    0.53740    1.000
    C82      C        0.02020    0.60420    0.52590    1.000
    C83      C        0.95020    0.62180    0.55880    1.000
    C84      C        0.00190    0.66290    0.60730    1.000
    Cr1      Cr       0.81310    0.30040    0.25000    1.000
    Cr2      Cr       0.69960    0.51270    0.25000    1.000
    Cr3      Cr       0.48730    0.18690    0.25000    1.000
    Cr4      Cr       0.30040    0.81310    0.75000    1.000
    Cr5      Cr       0.51270    0.69960    0.75000    1.000
    Cr6      Cr       0.18690    0.48730    0.75000    1.000
    O25      O        0.66667    0.33333    0.25000    1.000
    O26      O        0.33333    0.66667    0.75000    1.000
