data_functionalizedCrystal
_audit_creation_method	'EQeq! by Chris Wilmer'
_symmetry_space_group_name_H-M	'P1'
_symmetry_Int_Tables_number	1
_symmetry_cell_setting	triclinic
loop_
_symmetry_equiv_pos_as_xyz
  x,y,z
_cell_length_a	18.611
_cell_length_b	18.611
_cell_length_c	52.08
_cell_angle_alpha	90
_cell_angle_beta	90
_cell_angle_gamma	120
loop_
_atom_site_label
_atom_site_type_symbol
_atom_site_fract_x
_atom_site_fract_y
_atom_site_fract_z
_atom_site_charge
Mof_Cu	Cu	0.2871	0.1335	0.0493	-0.178
Mof_O 	O 	0.5631	0.848	0.7329	0.027
Mof_Cu	Cu	0.381	0.1792	0.09115	0.551
Mof_O 	O 	0.2117	0.0911	0.0169	0.332
Mof_O 	O 	0.362	0.0952	0.0377	0.282
Mof_O 	O 	0.7485	0.1048	0.0384	0.36
Mof_O 	O 	0.3084	0.8628	0.7331	-0.355
Mof_C 	C 	0.5822	0.8818	0.755	0.057
Mof_O 	O 	0.6403	0.8843	0.7693	-0.072
Mof_O 	O 	0.451	0.216	0.127	-0.099
Mof_O 	O 	0.4407	0.1354	0.0719	0.056
Mof_O 	O 	0.6997	0.1326	0.073	-0.027
Mof_O 	O 	0.2699	0.9024	0.7681	-0.272
Mof_C 	C 	0.4275	0.1157	0.0496	0.429
Mof_C 	C 	0.6949	0.1169	0.0502	0.302
Mof_C 	C 	0.3206	0.8923	0.7558	0.182
Mof_C 	C 	0.493	0.1074	0.0352	-0.022
Mof_C 	C 	0.4877	0.095	0.0088	-0.042
Mof_C 	C 	0.5605	0.1139	0.04865	-0.116
Mof_C 	C 	0.5499	0.0891	0.99584	-0.04
Mof_H 	H 	0.4416	0.0906	0.9996	0.028
Mof_C 	C 	0.6227	0.108	0.0357	0.043
Mof_H 	H 	0.5641	0.1224	0.0667	-0.215
Mof_C 	C 	0.5431	0.0718	0.96629	-0.03
Mof_C 	C 	0.6173	0.0956	0.0093	-0.102
Mof_C 	C 	0.4768	0.0669	0.95255	-0.118
Mof_C 	C 	0.6064	0.0675	0.9535	0
Mof_H 	H 	0.6599	0.0916	0.0005	-0.148
Mof_C 	C 	0.4738	0.0578	0.92602	-0.098
Mof_H 	H 	0.4335	0.0698	0.9613	0.088
Mof_H 	H 	0.6517	0.0708	0.9629	-0.019
Mof_C 	C 	0.6034	0.0584	0.92697	-0.002
Mof_H 	H 	0.4285	0.0545	0.9166	0.07
Mof_C 	C 	0.537	0.0535	0.91323	-0.01
Mof_H 	H 	0.6467	0.0555	0.9182	-0.026
Mof_C 	C 	0.522	0.0327	0.88522	-0.002
Mof_C 	C 	0.5547	0.9861	0.87501	-0.029
Mof_C 	C 	0.4779	0.0576	0.8696	-0.032
Mof_C 	C 	0.5432	0.9644	0.84918	-0.044
Mof_H 	H 	0.5849	0.9691	0.8857	0.05
Mof_C 	C 	0.4664	0.0359	0.8438	-0.035
Mof_H 	H 	0.4555	0.0894	0.8766	0.037
Mof_C 	C 	0.4991	0.9893	0.83356	0.01
Mof_H 	H 	0.5656	0.9326	0.8422	0.057
Mof_H 	H 	0.4362	0.0529	0.8331	0.036
Mof_C 	C 	0.4938	0.9581	0.80521	0.009
Mof_C 	C 	0.5479	0.9403	0.792	0.045
Mof_C 	C 	0.4206	0.9442	0.7936	-0.065
Mof_C 	C 	0.529	0.9088	0.7672	0.05
Mof_H 	H 	0.5979	0.9498	0.7999	0.031
Mof_C 	C 	0.4017	0.9127	0.7688	-0.095
Mof_H 	H 	0.3836	0.9564	0.8026	0.018
Mof_C 	C 	0.4558	0.8949	0.7556	0.026
Mof_H 	H 	0.4429	0.8734	0.7386	0.024
Mof_Cu	Cu	0.798	0.1787	0.09044	0.376
Mof_Cu	Cu	0.8453	0.1322	0.0489	1.086
Mof_O 	O 	0.757	0.213	0.1255	-0.115
Mof_O 	O 	0.8768	0.0941	0.0152	-0.524
Mof_O 	O 	0.8749	0.2426	0.0358	-0.555
Mof_O 	O 	0.8345	0.282	0.0707	-0.391
Mof_C 	C 	0.8577	0.2885	0.0487	-0.214
Mof_C 	C 	0.8657	0.3636	0.0347	-0.033
Mof_C 	C 	0.8614	0.4266	0.04771	0.099
Mof_H 	H 	0.8534	0.4231	0.0658	0.283
Mof_C 	C 	0.8691	0.4946	0.0343	-0.007
Mof_C 	C 	0.8809	0.4996	0.0079	0.008
Mof_H 	H 	0.8861	0.5461	0.9987	0.257
Mof_C 	C 	0.8851	0.4367	0.99485	0.056
Mof_C 	C 	0.8775	0.3686	0.0083	0.011
Mof_H 	H 	0.8804	0.3256	0.9994	0.039
Mof_C 	C 	0.8599	0.5622	0.0475	-0.026
Mof_O 	O 	0.8425	0.5486	0.0703	-0.317
Mof_O 	O 	0.8734	0.6233	0.0332	-0.711
Mof_C 	C 	0.8993	0.4428	0.96492	0.072
Mof_C 	C 	0.9068	0.5102	0.95116	-0.059
Mof_H 	H 	0.9036	0.5534	0.9598	0.074
Mof_C 	C 	0.919	0.5143	0.92476	-0.055
Mof_H 	H 	0.9242	0.5604	0.9154	0.076
Mof_C 	C 	0.9238	0.4511	0.9121	0.042
Mof_C 	C 	0.9163	0.3837	0.92586	0.043
Mof_H 	H 	0.9196	0.3404	0.9172	-0.029
Mof_C 	C 	0.9041	0.3795	0.95227	0.046
Mof_H 	H 	0.899	0.3334	0.9617	-0.034
Mof_C 	C 	0.9487	0.4678	0.88413	0.019
Mof_C 	C 	0.9177	0.5034	0.8672	-0.049
Mof_H 	H 	0.8787	0.5185	0.8731	0.044
Mof_C 	C 	0.9436	0.5167	0.84177	-0.037
Mof_H 	H 	0.9224	0.5411	0.8302	0.037
Mof_C 	C 	0.0006	0.4946	0.83323	0.011
Mof_C 	C 	0.0317	0.459	0.8501	-0.034
Mof_H 	H 	0.0706	0.4438	0.8443	0.055
Mof_C 	C 	0.0057	0.4456	0.87559	-0.034
Mof_H 	H 	0.027	0.4212	0.8872	0.052
Mof_C 	C 	0.0372	0.5047	0.80537	0.016
Mof_C 	C 	0.0583	0.4519	0.7928	0.043
Mof_H 	H 	0.0483	0.4019	0.8009	0.021
Mof_C 	C 	0.0941	0.4723	0.7686	0.043
Mof_C 	C 	0.1087	0.5455	0.7568	0.022
Mof_H 	H 	0.1332	0.5594	0.7403	0.035
Mof_C 	C 	0.0876	0.5983	0.7694	-0.126
Mof_C 	C 	0.0518	0.5779	0.7936	-0.049
Mof_H 	H 	0.0374	0.614	0.8022	0.006
Mof_C 	C 	0.1228	0.4182	0.7557	0.078
Mof_O 	O 	0.1149	0.3602	0.7696	-0.094
Mof_O 	O 	0.1568	0.4388	0.7341	0.032
Mof_C 	C 	0.1062	0.6753	0.7565	0.203
Mof_O 	O 	0.1353	0.6916	0.7335	-0.41
Mof_O 	O 	0.0996	0.7315	0.7693	-0.282
Mof_Cu	Cu	0.95377	0.46683	0.38263	-0.18
Mof_O 	O 	0.22977	0.18133	0.06623	0.025
Mof_Cu	Cu	0.04767	0.51253	0.42448	0.55
Mof_O 	O 	0.87837	0.42443	0.35023	0.333
Mof_O 	O 	0.02867	0.42853	0.37103	0.28
Mof_O 	O 	0.41517	0.43813	0.37173	0.359
Mof_O 	O 	0.97507	0.19613	0.06643	-0.356
Mof_C 	C 	0.24887	0.21513	0.08833	0.057
Mof_O 	O 	0.30697	0.21763	0.10263	-0.072
Mof_O 	O 	0.11767	0.54933	0.46033	-0.099
Mof_O 	O 	0.10737	0.46873	0.40523	0.055
Mof_O 	O 	0.36637	0.46593	0.40633	-0.027
Mof_O 	O 	0.93657	0.23573	0.10143	-0.272
Mof_C 	C 	0.09417	0.44903	0.38293	0.428
Mof_C 	C 	0.36157	0.45023	0.38353	0.302
Mof_C 	C 	0.98727	0.22563	0.08913	0.181
Mof_C 	C 	0.15967	0.44073	0.36853	-0.022
Mof_C 	C 	0.15437	0.42833	0.34213	-0.042
Mof_C 	C 	0.22717	0.44723	0.38198	-0.115
Mof_C 	C 	0.21657	0.42243	0.32917	-0.04
Mof_H 	H 	0.10827	0.42393	0.33293	0.028
Mof_C 	C 	0.28937	0.44133	0.36903	0.042
Mof_H 	H 	0.23077	0.45573	0.40003	-0.215
Mof_C 	C 	0.20977	0.40513	0.29962	-0.031
Mof_C 	C 	0.28397	0.42893	0.34263	-0.103
Mof_C 	C 	0.14347	0.40023	0.28588	-0.119
Mof_C 	C 	0.27307	0.40083	0.28683	0
Mof_H 	H 	0.32657	0.42493	0.33383	-0.149
Mof_C 	C 	0.14047	0.39113	0.25935	-0.098
Mof_H 	H 	0.10017	0.40313	0.29463	0.088
Mof_H 	H 	0.31837	0.40413	0.29623	-0.018
Mof_C 	C 	0.27007	0.39173	0.2603	-0.002
Mof_H 	H 	0.09517	0.38783	0.24993	0.07
Mof_C 	C 	0.20367	0.38683	0.24656	-0.011
Mof_H 	H 	0.31337	0.38883	0.25153	-0.026
Mof_C 	C 	0.18867	0.36603	0.21855	-0.002
Mof_C 	C 	0.22137	0.31943	0.20834	-0.029
Mof_C 	C 	0.14457	0.39093	0.20293	-0.03
Mof_C 	C 	0.20987	0.29773	0.18251	-0.045
Mof_H 	H 	0.25157	0.30243	0.21903	0.05
Mof_C 	C 	0.13307	0.36923	0.17713	-0.035
Mof_H 	H 	0.12217	0.42273	0.20993	0.037
Mof_C 	C 	0.16577	0.32263	0.16689	0.009
Mof_H 	H 	0.23227	0.26593	0.17553	0.057
Mof_H 	H 	0.10287	0.38623	0.16643	0.036
Mof_C 	C 	0.16047	0.29143	0.13854	0.009
Mof_C 	C 	0.21457	0.27363	0.12533	0.045
Mof_C 	C 	0.08727	0.27753	0.12693	-0.066
Mof_C 	C 	0.19567	0.24213	0.10053	0.05
Mof_H 	H 	0.26457	0.28313	0.13323	0.031
Mof_C 	C 	0.06837	0.24603	0.10213	-0.095
Mof_H 	H 	0.05027	0.28973	0.13593	0.02
Mof_C 	C 	0.12247	0.22823	0.08893	0.026
Mof_H 	H 	0.10957	0.20673	0.07193	0.024
Mof_Cu	Cu	0.46467	0.51203	0.42377	0.376
Mof_Cu	Cu	0.51197	0.46553	0.38223	1.086
Mof_O 	O 	0.42367	0.54633	0.45883	-0.115
Mof_O 	O 	0.54347	0.42743	0.34853	-0.524
Mof_O 	O 	0.54157	0.57593	0.36913	-0.555
Mof_O 	O 	0.50117	0.61533	0.40403	-0.391
Mof_C 	C 	0.52437	0.62183	0.38203	-0.214
Mof_C 	C 	0.53237	0.69693	0.36803	-0.033
Mof_C 	C 	0.52807	0.75993	0.38104	0.099
Mof_H 	H 	0.52007	0.75643	0.39913	0.283
Mof_C 	C 	0.53577	0.82793	0.36763	-0.007
Mof_C 	C 	0.54757	0.83293	0.34123	0.008
Mof_H 	H 	0.55277	0.87943	0.33203	0.257
Mof_C 	C 	0.55177	0.77003	0.32818	0.056
Mof_C 	C 	0.54417	0.70193	0.34163	0.011
Mof_H 	H 	0.54707	0.65893	0.33273	0.039
Mof_C 	C 	0.52657	0.89553	0.38083	-0.027
Mof_O 	O 	0.50917	0.88193	0.40363	-0.318
Mof_O 	O 	0.54007	0.95663	0.36653	-0.712
Mof_C 	C 	0.56597	0.77613	0.29825	0.073
Mof_C 	C 	0.57347	0.84353	0.28449	-0.058
Mof_H 	H 	0.57027	0.88673	0.29313	0.073
Mof_C 	C 	0.58567	0.84763	0.25809	-0.054
Mof_H 	H 	0.59087	0.89373	0.24873	0.076
Mof_C 	C 	0.59047	0.78443	0.24543	0.042
Mof_C 	C 	0.58297	0.71703	0.25919	0.043
Mof_H 	H 	0.58627	0.67373	0.25053	-0.029
Mof_C 	C 	0.57077	0.71283	0.2856	0.047
Mof_H 	H 	0.56567	0.66673	0.29503	-0.034
Mof_C 	C 	0.61537	0.80113	0.21746	0.021
Mof_C 	C 	0.58437	0.83673	0.20053	-0.05
Mof_H 	H 	0.54537	0.85183	0.20643	0.045
Mof_C 	C 	0.61027	0.85003	0.1751	-0.035
Mof_H 	H 	0.58907	0.87443	0.16353	0.037
Mof_C 	C 	0.66727	0.82793	0.16656	0.011
Mof_C 	C 	0.69837	0.79233	0.18343	-0.033
Mof_H 	H 	0.73727	0.77713	0.17763	0.054
Mof_C 	C 	0.67237	0.77893	0.20892	-0.037
Mof_H 	H 	0.69367	0.75453	0.22053	0.053
Mof_C 	C 	0.70387	0.83803	0.1387	0.016
Mof_C 	C 	0.72497	0.78523	0.12613	0.043
Mof_H 	H 	0.71497	0.73523	0.13423	0.021
Mof_C 	C 	0.76077	0.80563	0.10193	0.043
Mof_C 	C 	0.77537	0.87883	0.09013	0.022
Mof_H 	H 	0.79987	0.89273	0.07363	0.035
Mof_C 	C 	0.75427	0.93163	0.10273	-0.127
Mof_C 	C 	0.71847	0.91123	0.12693	-0.049
Mof_H 	H 	0.70407	0.94733	0.13553	0.006
Mof_C 	C 	0.78947	0.75153	0.08903	0.078
Mof_O 	O 	0.78157	0.69353	0.10293	-0.095
Mof_O 	O 	0.82347	0.77213	0.06743	0.032
Mof_C 	C 	0.77287	0.00863	0.08983	0.203
Mof_O 	O 	0.80197	0.02493	0.06683	-0.41
Mof_O 	O 	0.76627	0.06483	0.10263	-0.282
Mof_Cu	Cu	0.62043	0.80017	0.71597	-0.179
Mof_O 	O 	0.89643	0.51467	0.39957	0.025
Mof_Cu	Cu	0.71433	0.84587	0.75782	0.55
Mof_O 	O 	0.54503	0.75777	0.68357	0.331
Mof_O 	O 	0.69533	0.76187	0.70437	0.28
Mof_O 	O 	0.08183	0.77147	0.70507	0.361
Mof_O 	O 	0.64173	0.52947	0.39977	-0.356
Mof_C 	C 	0.91553	0.54847	0.42167	0.057
Mof_O 	O 	0.97363	0.55097	0.43597	-0.072
Mof_O 	O 	0.78433	0.88267	0.79367	-0.099
Mof_O 	O 	0.77403	0.80207	0.73857	0.055
Mof_O 	O 	0.03303	0.79927	0.73967	-0.026
Mof_O 	O 	0.60323	0.56907	0.43477	-0.272
Mof_C 	C 	0.76083	0.78237	0.71627	0.428
Mof_C 	C 	0.02823	0.78357	0.71687	0.304
Mof_C 	C 	0.65393	0.55897	0.42247	0.182
Mof_C 	C 	0.82633	0.77407	0.70187	-0.022
Mof_C 	C 	0.82103	0.76167	0.67547	-0.042
Mof_C 	C 	0.89383	0.78057	0.71532	-0.116
Mof_C 	C 	0.88323	0.75577	0.66251	-0.04
Mof_H 	H 	0.77493	0.75727	0.66627	0.028
Mof_C 	C 	0.95603	0.77467	0.70237	0.042
Mof_H 	H 	0.89743	0.78907	0.73337	-0.216
Mof_C 	C 	0.87643	0.73847	0.63296	-0.031
Mof_C 	C 	0.95063	0.76227	0.67597	-0.103
Mof_C 	C 	0.81013	0.73357	0.61922	-0.119
Mof_C 	C 	0.93973	0.73417	0.62017	0
Mof_H 	H 	0.99323	0.75827	0.66717	-0.15
Mof_C 	C 	0.80713	0.72447	0.59269	-0.098
Mof_H 	H 	0.76683	0.73647	0.62797	0.088
Mof_H 	H 	0.98503	0.73747	0.62957	-0.018
Mof_C 	C 	0.93673	0.72507	0.59364	-0.002
Mof_H 	H 	0.76183	0.72117	0.58327	0.07
Mof_C 	C 	0.87033	0.72017	0.5799	-0.011
Mof_H 	H 	0.98003	0.72217	0.58487	-0.026
Mof_C 	C 	0.85533	0.69937	0.55189	-0.002
Mof_C 	C 	0.88803	0.65277	0.54168	-0.03
Mof_C 	C 	0.81123	0.72427	0.53627	-0.03
Mof_C 	C 	0.87653	0.63107	0.51585	-0.044
Mof_H 	H 	0.91823	0.63577	0.55237	0.05
Mof_C 	C 	0.79973	0.70257	0.51047	-0.034
Mof_H 	H 	0.78883	0.75607	0.54327	0.037
Mof_C 	C 	0.83243	0.65597	0.50023	0.009
Mof_H 	H 	0.89893	0.59927	0.50887	0.057
Mof_H 	H 	0.76953	0.71957	0.49977	0.036
Mof_C 	C 	0.82713	0.62477	0.47188	0.009
Mof_C 	C 	0.88123	0.60697	0.45867	0.045
Mof_C 	C 	0.75393	0.61087	0.46027	-0.065
Mof_C 	C 	0.86233	0.57547	0.43387	0.05
Mof_H 	H 	0.93123	0.61647	0.46657	0.031
Mof_C 	C 	0.73503	0.57937	0.43547	-0.095
Mof_H 	H 	0.71693	0.62307	0.46927	0.019
Mof_C 	C 	0.78913	0.56157	0.42227	0.026
Mof_H 	H 	0.77623	0.54007	0.40527	0.024
Mof_Cu	Cu	0.13133	0.84537	0.75711	0.375
Mof_Cu	Cu	0.17863	0.79887	0.71557	1.091
Mof_O 	O 	0.09033	0.87967	0.79217	-0.115
Mof_O 	O 	0.21013	0.76077	0.68187	-0.526
Mof_O 	O 	0.20823	0.90927	0.70247	-0.557
Mof_O 	O 	0.16783	0.94867	0.73737	-0.393
Mof_C 	C 	0.19103	0.95517	0.71537	-0.215
Mof_C 	C 	0.19903	0.03027	0.70137	-0.032
Mof_C 	C 	0.19473	0.09327	0.71438	0.1
Mof_H 	H 	0.18673	0.08977	0.73247	0.283
Mof_C 	C 	0.20243	0.16127	0.70097	-0.007
Mof_C 	C 	0.21423	0.16627	0.67457	0.008
Mof_H 	H 	0.21943	0.21277	0.66537	0.257
Mof_C 	C 	0.21843	0.10337	0.66152	0.057
Mof_C 	C 	0.21083	0.03527	0.67497	0.014
Mof_H 	H 	0.21373	0.99227	0.66607	0.042
Mof_C 	C 	0.19323	0.22887	0.71417	-0.028
Mof_O 	O 	0.17583	0.21527	0.73697	-0.319
Mof_O 	O 	0.20673	0.28997	0.69987	-0.713
Mof_C 	C 	0.23263	0.10947	0.63159	0.073
Mof_C 	C 	0.24013	0.17687	0.61783	-0.058
Mof_H 	H 	0.23693	0.22007	0.62647	0.073
Mof_C 	C 	0.25233	0.18097	0.59143	-0.054
Mof_H 	H 	0.25753	0.22707	0.58207	0.076
Mof_C 	C 	0.25713	0.11777	0.57877	0.042
Mof_C 	C 	0.24963	0.05037	0.59253	0.043
Mof_H 	H 	0.25293	0.00707	0.58387	-0.029
Mof_C 	C 	0.23743	0.04617	0.61894	0.047
Mof_H 	H 	0.23233	7e-05	0.62837	-0.035
Mof_C 	C 	0.28203	0.13447	0.5508	0.021
Mof_C 	C 	0.25103	0.17007	0.53387	-0.05
Mof_H 	H 	0.21203	0.18517	0.53977	0.045
Mof_C 	C 	0.27693	0.18337	0.50844	-0.035
Mof_H 	H 	0.25573	0.20777	0.49687	0.037
Mof_C 	C 	0.33393	0.16127	0.4999	0.011
Mof_C 	C 	0.36503	0.12567	0.51677	-0.033
Mof_H 	H 	0.40393	0.11047	0.51097	0.054
Mof_C 	C 	0.33903	0.11227	0.54226	-0.037
Mof_H 	H 	0.36033	0.08787	0.55387	0.053
Mof_C 	C 	0.37053	0.17137	0.47204	0.016
Mof_C 	C 	0.39163	0.11857	0.45947	0.043
Mof_H 	H 	0.38163	0.06857	0.46757	0.021
Mof_C 	C 	0.42743	0.13897	0.43527	0.043
Mof_C 	C 	0.44203	0.21217	0.42347	0.022
Mof_H 	H 	0.46653	0.22607	0.40697	0.035
Mof_C 	C 	0.42093	0.26497	0.43607	-0.126
Mof_C 	C 	0.38513	0.24457	0.46027	-0.049
Mof_H 	H 	0.37073	0.28067	0.46887	0.006
Mof_C 	C 	0.45613	0.08487	0.42237	0.078
Mof_O 	O 	0.44823	0.02687	0.43627	-0.095
Mof_O 	O 	0.49013	0.10547	0.40077	0.032
Mof_C 	C 	0.43953	0.34197	0.42317	0.203
Mof_O 	O 	0.46863	0.35827	0.40017	-0.41
Mof_O 	O 	0.43293	0.39817	0.43597	-0.282
Mof_Cu	Cu	0.8665	0.1536	0.0493	-0.178
Mof_O 	O 	0.152	0.7151	0.7329	0.026
Mof_Cu	Cu	0.8208	0.2018	0.09115	0.55
Mof_O 	O 	0.9089	0.1206	0.0169	0.331
Mof_O 	O 	0.9048	0.2668	0.0377	0.281
Mof_O 	O 	0.8952	0.6437	0.0384	0.358
Mof_O 	O 	0.1372	0.4456	0.7331	-0.356
Mof_C 	C 	0.1182	0.7004	0.755	0.057
Mof_O 	O 	0.1157	0.756	0.7693	-0.072
Mof_O 	O 	0.784	0.235	0.127	-0.099
Mof_O 	O 	0.8646	0.3053	0.0719	0.056
Mof_O 	O 	0.8674	0.5671	0.073	-0.028
Mof_O 	O 	0.0976	0.3675	0.7681	-0.272
Mof_C 	C 	0.8843	0.3118	0.0496	0.429
Mof_C 	C 	0.8831	0.578	0.0502	0.302
Mof_C 	C 	0.1077	0.4283	0.7558	0.182
Mof_C 	C 	0.8926	0.3856	0.0352	-0.022
Mof_C 	C 	0.905	0.3927	0.0088	-0.042
Mof_C 	C 	0.8861	0.4466	0.04865	-0.115
Mof_C 	C 	0.9109	0.4608	0.99584	-0.04
Mof_H 	H 	0.9094	0.351	0.9996	0.028
Mof_C 	C 	0.892	0.5147	0.0357	0.042
Mof_H 	H 	0.8776	0.4417	0.0667	-0.215
Mof_C 	C 	0.9282	0.4713	0.96629	-0.03
Mof_C 	C 	0.9044	0.5217	0.0093	-0.102
Mof_C 	C 	0.9331	0.4099	0.95255	-0.118
Mof_C 	C 	0.9325	0.5389	0.9535	0
Mof_H 	H 	0.9084	0.5683	0.0005	-0.148
Mof_C 	C 	0.9422	0.416	0.92602	-0.098
Mof_H 	H 	0.9302	0.3637	0.9613	0.088
Mof_H 	H 	0.9292	0.5809	0.9629	-0.019
Mof_C 	C 	0.9416	0.545	0.92697	-0.002
Mof_H 	H 	0.9455	0.374	0.9166	0.07
Mof_C 	C 	0.9465	0.4835	0.91323	-0.01
Mof_H 	H 	0.9445	0.5912	0.9182	-0.026
Mof_C 	C 	0.9673	0.4893	0.88522	-0.002
Mof_C 	C 	0.0139	0.5686	0.87501	-0.029
Mof_C 	C 	0.9424	0.4203	0.8696	-0.032
Mof_C 	C 	0.0356	0.5788	0.84918	-0.044
Mof_H 	H 	0.0309	0.6158	0.8857	0.05
Mof_C 	C 	0.9641	0.4305	0.8438	-0.035
Mof_H 	H 	0.9106	0.3661	0.8766	0.037
Mof_C 	C 	0.0107	0.5098	0.83356	0.01
Mof_H 	H 	0.0674	0.633	0.8422	0.057
Mof_H 	H 	0.9471	0.3833	0.8331	0.036
Mof_C 	C 	0.0419	0.5357	0.80521	0.009
Mof_C 	C 	0.0597	0.6076	0.792	0.045
Mof_C 	C 	0.0558	0.4764	0.7936	-0.065
Mof_C 	C 	0.0912	0.6202	0.7672	0.05
Mof_H 	H 	0.0502	0.6481	0.7999	0.031
Mof_C 	C 	0.0873	0.489	0.7688	-0.095
Mof_H 	H 	0.0436	0.4272	0.8026	0.018
Mof_C 	C 	0.1051	0.5609	0.7556	0.026
Mof_H 	H 	0.1266	0.5695	0.7386	0.024
Mof_Cu	Cu	0.8213	0.6193	0.09044	0.376
Mof_Cu	Cu	0.8678	0.7131	0.0489	1.086
Mof_O 	O 	0.787	0.544	0.1255	-0.115
Mof_O 	O 	0.9059	0.7827	0.0152	-0.524
Mof_O 	O 	0.7574	0.6323	0.0358	-0.555
Mof_O 	O 	0.718	0.5525	0.0707	-0.391
Mof_C 	C 	0.7115	0.5692	0.0487	-0.214
Mof_C 	C 	0.6364	0.5021	0.0347	-0.033
Mof_C 	C 	0.5734	0.4348	0.04771	0.099
Mof_H 	H 	0.5769	0.4303	0.0658	0.283
Mof_C 	C 	0.5054	0.3745	0.0343	-0.006
Mof_C 	C 	0.5004	0.3813	0.0079	0.008
Mof_H 	H 	0.4539	0.34	0.9987	0.258
Mof_C 	C 	0.5633	0.4484	0.99485	0.056
Mof_C 	C 	0.6314	0.5089	0.0083	0.011
Mof_H 	H 	0.6744	0.5548	0.9994	0.039
Mof_C 	C 	0.4378	0.2977	0.0475	-0.027
Mof_O 	O 	0.4514	0.2939	0.0703	-0.317
Mof_O 	O 	0.3767	0.2501	0.0332	-0.711
Mof_C 	C 	0.5572	0.4565	0.96492	0.072
Mof_C 	C 	0.4898	0.3966	0.95116	-0.058
Mof_H 	H 	0.4466	0.3502	0.9598	0.073
Mof_C 	C 	0.4857	0.4047	0.92476	-0.054
Mof_H 	H 	0.4396	0.3638	0.9154	0.076
Mof_C 	C 	0.5489	0.4727	0.9121	0.042
Mof_C 	C 	0.6163	0.5326	0.92586	0.043
Mof_H 	H 	0.6596	0.5792	0.9172	-0.029
Mof_C 	C 	0.6205	0.5246	0.95227	0.047
Mof_H 	H 	0.6666	0.5656	0.9617	-0.034
Mof_C 	C 	0.5322	0.4809	0.88413	0.021
Mof_C 	C 	0.4966	0.4143	0.8672	-0.05
Mof_H 	H 	0.4815	0.3602	0.8731	0.045
Mof_C 	C 	0.4833	0.4269	0.84177	-0.035
Mof_H 	H 	0.4589	0.3813	0.8302	0.037
Mof_C 	C 	0.5054	0.506	0.83323	0.011
Mof_C 	C 	0.541	0.5727	0.8501	-0.033
Mof_H 	H 	0.5562	0.6268	0.8443	0.054
Mof_C 	C 	0.5544	0.5601	0.87559	-0.037
Mof_H 	H 	0.5788	0.6058	0.8872	0.053
Mof_C 	C 	0.4953	0.5325	0.80537	0.016
Mof_C 	C 	0.5481	0.6064	0.7928	0.043
Mof_H 	H 	0.5981	0.6464	0.8009	0.02
Mof_C 	C 	0.5277	0.6218	0.7686	0.043
Mof_C 	C 	0.4545	0.5632	0.7568	0.021
Mof_H 	H 	0.4406	0.5738	0.7403	0.035
Mof_C 	C 	0.4017	0.4893	0.7694	-0.126
Mof_C 	C 	0.4221	0.4739	0.7936	-0.049
Mof_H 	H 	0.386	0.4234	0.8022	0.006
Mof_C 	C 	0.5818	0.7046	0.7557	0.078
Mof_O 	O 	0.6398	0.7547	0.7696	-0.095
Mof_O 	O 	0.5612	0.718	0.7341	0.032
Mof_C 	C 	0.3247	0.4309	0.7565	0.203
Mof_O 	O 	0.3084	0.4437	0.7335	-0.41
Mof_O 	O 	0.2685	0.3681	0.7693	-0.282
Mof_Cu	Cu	0.53317	0.48693	0.38263	-0.178
Mof_O 	O 	0.81867	0.04843	0.06623	0.025
Mof_Cu	Cu	0.48747	0.53513	0.42448	0.55
Mof_O 	O 	0.57557	0.45393	0.35023	0.332
Mof_O 	O 	0.57147	0.60013	0.37103	0.281
Mof_O 	O 	0.56187	0.97703	0.37173	0.359
Mof_O 	O 	0.80387	0.77893	0.06643	-0.356
Mof_C 	C 	0.78487	0.03373	0.08833	0.058
Mof_O 	O 	0.78237	0.08933	0.10263	-0.072
Mof_O 	O 	0.45067	0.56833	0.46033	-0.099
Mof_O 	O 	0.53127	0.63863	0.40523	0.056
Mof_O 	O 	0.53407	0.90043	0.40633	-0.027
Mof_O 	O 	0.76427	0.70083	0.10143	-0.272
Mof_C 	C 	0.55097	0.64513	0.38293	0.428
Mof_C 	C 	0.54977	0.91133	0.38353	0.302
Mof_C 	C 	0.77437	0.76163	0.08913	0.182
Mof_C 	C 	0.55927	0.71893	0.36853	-0.022
Mof_C 	C 	0.57167	0.72603	0.34213	-0.042
Mof_C 	C 	0.55277	0.77993	0.38198	-0.116
Mof_C 	C 	0.57757	0.79413	0.32917	-0.04
Mof_H 	H 	0.57607	0.68433	0.33293	0.028
Mof_C 	C 	0.55867	0.84803	0.36903	0.043
Mof_H 	H 	0.54427	0.77503	0.40003	-0.215
Mof_C 	C 	0.59487	0.80463	0.29962	-0.031
Mof_C 	C 	0.57107	0.85503	0.34263	-0.102
Mof_C 	C 	0.59977	0.74323	0.28588	-0.119
Mof_C 	C 	0.59917	0.87223	0.28683	0
Mof_H 	H 	0.57507	0.90163	0.33383	-0.148
Mof_C 	C 	0.60887	0.74933	0.25935	-0.098
Mof_H 	H 	0.59687	0.69703	0.29463	0.088
Mof_H 	H 	0.59587	0.91423	0.29623	-0.018
Mof_C 	C 	0.60827	0.87833	0.2603	-0.002
Mof_H 	H 	0.61217	0.70733	0.24993	0.07
Mof_C 	C 	0.61317	0.81683	0.24656	-0.011
Mof_H 	H 	0.61117	0.92453	0.25153	-0.026
Mof_C 	C 	0.63397	0.82263	0.21855	-0.002
Mof_C 	C 	0.68057	0.90193	0.20834	-0.03
Mof_C 	C 	0.60907	0.75363	0.20293	-0.03
Mof_C 	C 	0.70227	0.91213	0.18251	-0.045
Mof_H 	H 	0.69757	0.94913	0.21903	0.049
Mof_C 	C 	0.63077	0.76383	0.17713	-0.034
Mof_H 	H 	0.57727	0.69943	0.20993	0.037
Mof_C 	C 	0.67737	0.84313	0.16689	0.009
Mof_H 	H 	0.73407	0.96633	0.17553	0.056
Mof_H 	H 	0.61377	0.71663	0.16643	0.036
Mof_C 	C 	0.70857	0.86903	0.13854	0.009
Mof_C 	C 	0.72637	0.94093	0.12533	0.045
Mof_C 	C 	0.72247	0.80973	0.12693	-0.065
Mof_C 	C 	0.75787	0.95353	0.10053	0.051
Mof_H 	H 	0.71687	0.98143	0.13323	0.031
Mof_C 	C 	0.75397	0.82233	0.10213	-0.095
Mof_H 	H 	0.71027	0.76053	0.13593	0.019
Mof_C 	C 	0.77177	0.89423	0.08893	0.026
Mof_H 	H 	0.79327	0.90283	0.07193	0.024
Mof_Cu	Cu	0.48797	0.95263	0.42377	0.376
Mof_Cu	Cu	0.53447	0.04643	0.38223	1.088
Mof_O 	O 	0.45367	0.87733	0.45883	-0.115
Mof_O 	O 	0.57257	0.11603	0.34853	-0.524
Mof_O 	O 	0.42407	0.96563	0.36913	-0.554
Mof_O 	O 	0.38467	0.88583	0.40403	-0.39
Mof_C 	C 	0.37817	0.90253	0.38203	-0.213
Mof_C 	C 	0.30307	0.83543	0.36803	-0.033
Mof_C 	C 	0.24007	0.76813	0.38104	0.099
Mof_H 	H 	0.24357	0.76363	0.39913	0.283
Mof_C 	C 	0.17207	0.70783	0.36763	-0.007
Mof_C 	C 	0.16707	0.71463	0.34123	0.008
Mof_H 	H 	0.12057	0.67333	0.33203	0.258
Mof_C 	C 	0.22997	0.78173	0.32818	0.056
Mof_C 	C 	0.29807	0.84223	0.34163	0.011
Mof_H 	H 	0.34107	0.88813	0.33273	0.039
Mof_C 	C 	0.10447	0.63103	0.38083	-0.027
Mof_O 	O 	0.11807	0.62723	0.40363	-0.318
Mof_O 	O 	0.04337	0.58343	0.36653	-0.712
Mof_C 	C 	0.22387	0.78983	0.29825	0.072
Mof_C 	C 	0.15647	0.72993	0.28449	-0.058
Mof_H 	H 	0.11327	0.68353	0.29313	0.073
Mof_C 	C 	0.15237	0.73803	0.25809	-0.054
Mof_H 	H 	0.10627	0.69713	0.24873	0.077
Mof_C 	C 	0.21557	0.80603	0.24543	0.042
Mof_C 	C 	0.28297	0.86593	0.25919	0.043
Mof_H 	H 	0.32627	0.91253	0.25053	-0.03
Mof_C 	C 	0.28717	0.85793	0.2856	0.047
Mof_H 	H 	0.33327	0.89893	0.29503	-0.034
Mof_C 	C 	0.19887	0.81423	0.21746	0.021
Mof_C 	C 	0.16327	0.74763	0.20053	-0.05
Mof_H 	H 	0.14817	0.69353	0.20643	0.045
Mof_C 	C 	0.14997	0.76023	0.1751	-0.035
Mof_H 	H 	0.12557	0.71463	0.16353	0.037
Mof_C 	C 	0.17207	0.83933	0.16656	0.011
Mof_C 	C 	0.20767	0.90603	0.18343	-0.033
Mof_H 	H 	0.22287	0.96013	0.17763	0.054
Mof_C 	C 	0.22107	0.89343	0.20892	-0.037
Mof_H 	H 	0.24547	0.93913	0.22053	0.053
Mof_C 	C 	0.16197	0.86583	0.1387	0.016
Mof_C 	C 	0.21477	0.93973	0.12613	0.043
Mof_H 	H 	0.26477	0.97973	0.13423	0.02
Mof_C 	C 	0.19437	0.95513	0.10193	0.043
Mof_C 	C 	0.12117	0.89653	0.09013	0.022
Mof_H 	H 	0.10727	0.90713	0.07363	0.035
Mof_C 	C 	0.06837	0.82263	0.10273	-0.127
Mof_C 	C 	0.08877	0.80723	0.12693	-0.049
Mof_H 	H 	0.05267	0.75673	0.13553	0.006
Mof_C 	C 	0.24847	0.03793	0.08903	0.079
Mof_O 	O 	0.30647	0.08803	0.10293	-0.095
Mof_O 	O 	0.22787	0.05133	0.06743	0.033
Mof_C 	C 	0.99137	0.76423	0.08983	0.203
Mof_O 	O 	0.97507	0.77703	0.06683	-0.41
Mof_O 	O 	0.93517	0.70143	0.10263	-0.282
Mof_Cu	Cu	0.19983	0.82027	0.71597	-0.184
Mof_O 	O 	0.48533	0.38177	0.39957	0.025
Mof_Cu	Cu	0.15413	0.86847	0.75782	0.551
Mof_O 	O 	0.24223	0.78727	0.68357	0.333
Mof_O 	O 	0.23813	0.93347	0.70437	0.284
Mof_O 	O 	0.22853	0.31037	0.70507	0.361
Mof_O 	O 	0.47053	0.11227	0.39977	-0.356
Mof_C 	C 	0.45153	0.36707	0.42167	0.057
Mof_O 	O 	0.44903	0.42267	0.43597	-0.072
Mof_O 	O 	0.11733	0.90167	0.79367	-0.099
Mof_O 	O 	0.19793	0.97197	0.73857	0.058
Mof_O 	O 	0.20073	0.23377	0.73967	-0.026
Mof_O 	O 	0.43093	0.03417	0.43477	-0.272
Mof_C 	C 	0.21763	0.97847	0.71627	0.43
Mof_C 	C 	0.21643	0.24467	0.71687	0.303
Mof_C 	C 	0.44103	0.09497	0.42247	0.181
Mof_C 	C 	0.22593	0.05227	0.70187	-0.023
Mof_C 	C 	0.23833	0.05937	0.67547	-0.044
Mof_C 	C 	0.21943	0.11327	0.71532	-0.115
Mof_C 	C 	0.24423	0.12747	0.66251	-0.041
Mof_H 	H 	0.24273	0.01767	0.66627	0.025
Mof_C 	C 	0.22533	0.18137	0.70237	0.043
Mof_H 	H 	0.21093	0.10837	0.73337	-0.215
Mof_C 	C 	0.26153	0.13797	0.63296	-0.031
Mof_C 	C 	0.23773	0.18837	0.67597	-0.102
Mof_C 	C 	0.26643	0.07657	0.61922	-0.119
Mof_C 	C 	0.26583	0.20557	0.62017	0
Mof_H 	H 	0.24173	0.23497	0.66717	-0.148
Mof_C 	C 	0.27553	0.08267	0.59269	-0.098
Mof_H 	H 	0.26353	0.03037	0.62797	0.088
Mof_H 	H 	0.26253	0.24757	0.62957	-0.018
Mof_C 	C 	0.27493	0.21167	0.59364	-0.002
Mof_H 	H 	0.27883	0.04067	0.58327	0.07
Mof_C 	C 	0.27983	0.15017	0.5799	-0.011
Mof_H 	H 	0.27783	0.25787	0.58487	-0.026
Mof_C 	C 	0.30063	0.15597	0.55189	-0.002
Mof_C 	C 	0.34723	0.23527	0.54168	-0.03
Mof_C 	C 	0.27573	0.08697	0.53627	-0.03
Mof_C 	C 	0.36893	0.24547	0.51585	-0.044
Mof_H 	H 	0.36423	0.28247	0.55237	0.05
Mof_C 	C 	0.29743	0.09717	0.51047	-0.034
Mof_H 	H 	0.24393	0.03277	0.54327	0.037
Mof_C 	C 	0.34403	0.17647	0.50023	0.009
Mof_H 	H 	0.40073	0.29967	0.50887	0.057
Mof_H 	H 	0.28043	0.04997	0.49977	0.036
Mof_C 	C 	0.37523	0.20237	0.47188	0.009
Mof_C 	C 	0.39303	0.27427	0.45867	0.045
Mof_C 	C 	0.38913	0.14307	0.46027	-0.065
Mof_C 	C 	0.42453	0.28687	0.43387	0.05
Mof_H 	H 	0.38353	0.31477	0.46657	0.031
Mof_C 	C 	0.42063	0.15567	0.43547	-0.095
Mof_H 	H 	0.37693	0.09387	0.46927	0.019
Mof_C 	C 	0.43843	0.22757	0.42227	0.026
Mof_H 	H 	0.45993	0.23617	0.40527	0.024
Mof_Cu	Cu	0.15463	0.28597	0.75711	0.375
Mof_Cu	Cu	0.20113	0.37977	0.71557	1.091
Mof_O 	O 	0.12033	0.21067	0.79217	-0.114
Mof_O 	O 	0.23923	0.44937	0.68187	-0.527
Mof_O 	O 	0.09073	0.29897	0.70247	-0.557
Mof_O 	O 	0.05133	0.21917	0.73737	-0.393
Mof_C 	C 	0.04483	0.23587	0.71537	-0.215
Mof_C 	C 	0.96973	0.16877	0.70137	-0.033
Mof_C 	C 	0.90673	0.10147	0.71438	0.099
Mof_H 	H 	0.91023	0.09697	0.73247	0.281
Mof_C 	C 	0.83873	0.04117	0.70097	-0.008
Mof_C 	C 	0.83373	0.04797	0.67457	0.007
Mof_H 	H 	0.78723	0.00667	0.66537	0.255
Mof_C 	C 	0.89663	0.11507	0.66152	0.057
Mof_C 	C 	0.96473	0.17557	0.67497	0.014
Mof_H 	H 	0.00773	0.22147	0.66607	0.041
Mof_C 	C 	0.77113	0.96437	0.71417	-0.026
Mof_O 	O 	0.78473	0.96057	0.73697	-0.317
Mof_O 	O 	0.71003	0.91677	0.69987	-0.711
Mof_C 	C 	0.89053	0.12317	0.63159	0.073
Mof_C 	C 	0.82313	0.06327	0.61783	-0.058
Mof_H 	H 	0.77993	0.01687	0.62647	0.073
Mof_C 	C 	0.81903	0.07137	0.59143	-0.054
Mof_H 	H 	0.77293	0.03047	0.58207	0.076
Mof_C 	C 	0.88223	0.13937	0.57877	0.042
Mof_C 	C 	0.94963	0.19927	0.59253	0.043
Mof_H 	H 	0.99293	0.24587	0.58387	-0.03
Mof_C 	C 	0.95383	0.19127	0.61894	0.047
Mof_H 	H 	0.99993	0.23227	0.62837	-0.035
Mof_C 	C 	0.86553	0.14757	0.5508	0.021
Mof_C 	C 	0.82993	0.08097	0.53387	-0.05
Mof_H 	H 	0.81483	0.02687	0.53977	0.045
Mof_C 	C 	0.81663	0.09357	0.50844	-0.035
Mof_H 	H 	0.79223	0.04797	0.49687	0.037
Mof_C 	C 	0.83873	0.17267	0.4999	0.011
Mof_C 	C 	0.87433	0.23937	0.51677	-0.033
Mof_H 	H 	0.88953	0.29347	0.51097	0.054
Mof_C 	C 	0.88773	0.22677	0.54226	-0.037
Mof_H 	H 	0.91213	0.27247	0.55387	0.053
Mof_C 	C 	0.82863	0.19917	0.47204	0.016
Mof_C 	C 	0.88143	0.27307	0.45947	0.043
Mof_H 	H 	0.93143	0.31307	0.46757	0.021
Mof_C 	C 	0.86103	0.28847	0.43527	0.043
Mof_C 	C 	0.78783	0.22987	0.42347	0.022
Mof_H 	H 	0.77393	0.24047	0.40697	0.035
Mof_C 	C 	0.73503	0.15597	0.43607	-0.126
Mof_C 	C 	0.75543	0.14057	0.46027	-0.049
Mof_H 	H 	0.71933	0.09007	0.46887	0.006
Mof_C 	C 	0.91513	0.37127	0.42237	0.078
Mof_O 	O 	0.97313	0.42137	0.43627	-0.095
Mof_O 	O 	0.89453	0.38467	0.40077	0.032
Mof_C 	C 	0.65803	0.09757	0.42317	0.203
Mof_O 	O 	0.64173	0.11037	0.40017	-0.41
Mof_O 	O 	0.60183	0.03477	0.43597	-0.282
Mof_Cu	Cu	0.8464	0.7129	0.0493	-0.179
Mof_O 	O 	0.2849	0.4369	0.7329	0.026
Mof_Cu	Cu	0.7982	0.619	0.09115	0.55
Mof_O 	O 	0.8794	0.7883	0.0169	0.331
Mof_O 	O 	0.7332	0.638	0.0377	0.281
Mof_O 	O 	0.3563	0.2515	0.0384	0.359
Mof_O 	O 	0.5544	0.6916	0.7331	-0.356
Mof_C 	C 	0.2996	0.4178	0.755	0.057
Mof_O 	O 	0.244	0.3597	0.7693	-0.072
Mof_O 	O 	0.765	0.549	0.127	-0.099
Mof_O 	O 	0.6947	0.5593	0.0719	0.056
Mof_O 	O 	0.4329	0.3003	0.073	-0.027
Mof_O 	O 	0.6325	0.7301	0.7681	-0.272
Mof_C 	C 	0.6882	0.5725	0.0496	0.428
Mof_C 	C 	0.422	0.3051	0.0502	0.302
Mof_C 	C 	0.5717	0.6794	0.7558	0.182
Mof_C 	C 	0.6144	0.507	0.0352	-0.022
Mof_C 	C 	0.6073	0.5123	0.0088	-0.042
Mof_C 	C 	0.5534	0.4395	0.04865	-0.116
Mof_C 	C 	0.5392	0.4501	0.99584	-0.04
Mof_H 	H 	0.649	0.5584	0.9996	0.028
Mof_C 	C 	0.4853	0.3773	0.0357	0.043
Mof_H 	H 	0.5583	0.4359	0.0667	-0.215
Mof_C 	C 	0.5287	0.4569	0.96629	-0.031
Mof_C 	C 	0.4783	0.3827	0.0093	-0.103
Mof_C 	C 	0.5901	0.5232	0.95255	-0.119
Mof_C 	C 	0.4611	0.3936	0.9535	0
Mof_H 	H 	0.4317	0.3401	0.0005	-0.149
Mof_C 	C 	0.584	0.5262	0.92602	-0.098
Mof_H 	H 	0.6363	0.5665	0.9613	0.088
Mof_H 	H 	0.4191	0.3483	0.9629	-0.018
Mof_C 	C 	0.455	0.3966	0.92697	-0.002
Mof_H 	H 	0.626	0.5715	0.9166	0.07
Mof_C 	C 	0.5165	0.463	0.91323	-0.011
Mof_H 	H 	0.4088	0.3533	0.9182	-0.026
Mof_C 	C 	0.5107	0.478	0.88522	-0.002
Mof_C 	C 	0.4314	0.4453	0.87501	-0.03
Mof_C 	C 	0.5797	0.5221	0.8696	-0.03
Mof_C 	C 	0.4212	0.4568	0.84918	-0.044
Mof_H 	H 	0.3842	0.4151	0.8857	0.05
Mof_C 	C 	0.5695	0.5336	0.8438	-0.034
Mof_H 	H 	0.6339	0.5445	0.8766	0.037
Mof_C 	C 	0.4902	0.5009	0.83356	0.009
Mof_H 	H 	0.367	0.4344	0.8422	0.057
Mof_H 	H 	0.6167	0.5638	0.8331	0.036
Mof_C 	C 	0.4643	0.5062	0.80521	0.009
Mof_C 	C 	0.3924	0.4521	0.792	0.045
Mof_C 	C 	0.5236	0.5794	0.7936	-0.065
Mof_C 	C 	0.3798	0.471	0.7672	0.05
Mof_H 	H 	0.3519	0.4021	0.7999	0.031
Mof_C 	C 	0.511	0.5983	0.7688	-0.095
Mof_H 	H 	0.5728	0.6164	0.8026	0.019
Mof_C 	C 	0.4391	0.5442	0.7556	0.026
Mof_H 	H 	0.4305	0.5571	0.7386	0.024
Mof_Cu	Cu	0.3807	0.202	0.09044	0.376
Mof_Cu	Cu	0.2869	0.1547	0.0489	1.086
Mof_O 	O 	0.456	0.243	0.1255	-0.115
Mof_O 	O 	0.2173	0.1232	0.0152	-0.524
Mof_O 	O 	0.3677	0.1251	0.0358	-0.555
Mof_O 	O 	0.4475	0.1655	0.0707	-0.391
Mof_C 	C 	0.4308	0.1423	0.0487	-0.214
Mof_C 	C 	0.4979	0.1343	0.0347	-0.033
Mof_C 	C 	0.5652	0.1386	0.04771	0.099
Mof_H 	H 	0.5697	0.1466	0.0658	0.283
Mof_C 	C 	0.6255	0.1309	0.0343	-0.007
Mof_C 	C 	0.6187	0.1191	0.0079	0.007
Mof_H 	H 	0.66	0.1139	0.9987	0.257
Mof_C 	C 	0.5516	0.1149	0.99485	0.056
Mof_C 	C 	0.4911	0.1225	0.0083	0.011
Mof_H 	H 	0.4452	0.1196	0.9994	0.039
Mof_C 	C 	0.7023	0.1401	0.0475	-0.027
Mof_O 	O 	0.7061	0.1575	0.0703	-0.317
Mof_O 	O 	0.7499	0.1266	0.0332	-0.711
Mof_C 	C 	0.5435	0.1007	0.96492	0.072
Mof_C 	C 	0.6034	0.0932	0.95116	-0.059
Mof_H 	H 	0.6498	0.0964	0.9598	0.074
Mof_C 	C 	0.5953	0.081	0.92476	-0.055
Mof_H 	H 	0.6362	0.0758	0.9154	0.076
Mof_C 	C 	0.5273	0.0762	0.9121	0.042
Mof_C 	C 	0.4674	0.0837	0.92586	0.043
Mof_H 	H 	0.4208	0.0804	0.9172	-0.029
Mof_C 	C 	0.4754	0.0959	0.95227	0.046
Mof_H 	H 	0.4344	0.101	0.9617	-0.034
Mof_C 	C 	0.5191	0.0513	0.88413	0.019
Mof_C 	C 	0.5857	0.0823	0.8672	-0.049
Mof_H 	H 	0.6398	0.1213	0.8731	0.044
Mof_C 	C 	0.5731	0.0564	0.84177	-0.037
Mof_H 	H 	0.6187	0.0776	0.8302	0.037
Mof_C 	C 	0.494	0.9994	0.83323	0.011
Mof_C 	C 	0.4273	0.9683	0.8501	-0.034
Mof_H 	H 	0.3732	0.9294	0.8443	0.055
Mof_C 	C 	0.4399	0.9943	0.87559	-0.034
Mof_H 	H 	0.3942	0.973	0.8872	0.052
Mof_C 	C 	0.4675	0.9628	0.80537	0.016
Mof_C 	C 	0.3936	0.9417	0.7928	0.043
Mof_H 	H 	0.3536	0.9517	0.8009	0.021
Mof_C 	C 	0.3782	0.9059	0.7686	0.043
Mof_C 	C 	0.4368	0.8913	0.7568	0.022
Mof_H 	H 	0.4262	0.8668	0.7403	0.035
Mof_C 	C 	0.5107	0.9124	0.7694	-0.126
Mof_C 	C 	0.5261	0.9482	0.7936	-0.049
Mof_H 	H 	0.5766	0.9626	0.8022	0.006
Mof_C 	C 	0.2954	0.8772	0.7557	0.078
Mof_O 	O 	0.2453	0.8851	0.7696	-0.094
Mof_O 	O 	0.282	0.8432	0.7341	0.032
Mof_C 	C 	0.5691	0.8938	0.7565	0.203
Mof_O 	O 	0.5563	0.8647	0.7335	-0.41
Mof_O 	O 	0.6319	0.9004	0.7693	-0.282
Mof_Cu	Cu	0.51307	0.04623	0.38263	-0.18
Mof_O 	O 	0.95157	0.77023	0.06623	0.025
Mof_Cu	Cu	0.46487	0.95233	0.42448	0.55
Mof_O 	O 	0.54607	0.12163	0.35023	0.332
Mof_O 	O 	0.39987	0.97133	0.37103	0.28
Mof_O 	O 	0.02297	0.58483	0.37173	0.359
Mof_O 	O 	0.22107	0.02493	0.06643	-0.356
Mof_C 	C 	0.96627	0.75113	0.08833	0.058
Mof_O 	O 	0.91067	0.69303	0.10263	-0.072
Mof_O 	O 	0.43167	0.88233	0.46033	-0.099
Mof_O 	O 	0.36137	0.89263	0.40523	0.055
Mof_O 	O 	0.09957	0.63363	0.40633	-0.027
Mof_O 	O 	0.29917	0.06343	0.10143	-0.272
Mof_C 	C 	0.35487	0.90583	0.38293	0.428
Mof_C 	C 	0.08867	0.63843	0.38353	0.302
Mof_C 	C 	0.23837	0.01273	0.08913	0.181
Mof_C 	C 	0.28107	0.84033	0.36853	-0.022
Mof_C 	C 	0.27397	0.84563	0.34213	-0.042
Mof_C 	C 	0.22007	0.77283	0.38198	-0.115
Mof_C 	C 	0.20587	0.78343	0.32917	-0.04
Mof_H 	H 	0.31567	0.89173	0.33293	0.028
Mof_C 	C 	0.15197	0.71063	0.36903	0.043
Mof_H 	H 	0.22497	0.76923	0.40003	-0.215
Mof_C 	C 	0.19537	0.79023	0.29962	-0.031
Mof_C 	C 	0.14497	0.71603	0.34263	-0.103
Mof_C 	C 	0.25677	0.85653	0.28588	-0.118
Mof_C 	C 	0.12777	0.72693	0.28683	0
Mof_H 	H 	0.09837	0.67343	0.33383	-0.149
Mof_C 	C 	0.25067	0.85953	0.25935	-0.098
Mof_H 	H 	0.30297	0.89983	0.29463	0.088
Mof_H 	H 	0.08577	0.68163	0.29623	-0.019
Mof_C 	C 	0.12167	0.72993	0.2603	-0.002
Mof_H 	H 	0.29267	0.90483	0.24993	0.07
Mof_C 	C 	0.18317	0.79633	0.24656	-0.011
Mof_H 	H 	0.07547	0.68663	0.25153	-0.027
Mof_C 	C 	0.17737	0.81133	0.21855	-0.002
Mof_C 	C 	0.09807	0.77863	0.20834	-0.03
Mof_C 	C 	0.24637	0.85543	0.20293	-0.03
Mof_C 	C 	0.08787	0.79013	0.18251	-0.045
Mof_H 	H 	0.05087	0.74843	0.21903	0.049
Mof_C 	C 	0.23617	0.86693	0.17713	-0.034
Mof_H 	H 	0.30057	0.87783	0.20993	0.037
Mof_C 	C 	0.15687	0.83423	0.16689	0.009
Mof_H 	H 	0.03367	0.76773	0.17553	0.056
Mof_H 	H 	0.28337	0.89713	0.16643	0.036
Mof_C 	C 	0.13097	0.83953	0.13854	0.009
Mof_C 	C 	0.05907	0.78543	0.12533	0.045
Mof_C 	C 	0.19027	0.91273	0.12693	-0.066
Mof_C 	C 	0.04647	0.80433	0.10053	0.051
Mof_H 	H 	0.01857	0.73543	0.13323	0.031
Mof_C 	C 	0.17767	0.93163	0.10213	-0.095
Mof_H 	H 	0.23947	0.94973	0.13593	0.02
Mof_C 	C 	0.10577	0.87753	0.08893	0.026
Mof_H 	H 	0.09717	0.89043	0.07193	0.024
Mof_Cu	Cu	0.04737	0.53533	0.42377	0.375
Mof_Cu	Cu	0.95357	0.48803	0.38223	1.087
Mof_O 	O 	0.12267	0.57633	0.45883	-0.115
Mof_O 	O 	0.88397	0.45653	0.34853	-0.525
Mof_O 	O 	0.03437	0.45843	0.36913	-0.554
Mof_O 	O 	0.11417	0.49883	0.40403	-0.391
Mof_C 	C 	0.09747	0.47563	0.38203	-0.213
Mof_C 	C 	0.16457	0.46763	0.36803	-0.033
Mof_C 	C 	0.23187	0.47193	0.38104	0.099
Mof_H 	H 	0.23637	0.47993	0.39913	0.283
Mof_C 	C 	0.29217	0.46423	0.36763	-0.006
Mof_C 	C 	0.28537	0.45243	0.34123	0.008
Mof_H 	H 	0.32667	0.44723	0.33203	0.258
Mof_C 	C 	0.21827	0.44823	0.32818	0.056
Mof_C 	C 	0.15777	0.45583	0.34163	0.011
Mof_H 	H 	0.11187	0.45293	0.33273	0.039
Mof_C 	C 	0.36897	0.47343	0.38083	-0.027
Mof_O 	O 	0.37277	0.49083	0.40363	-0.317
Mof_O 	O 	0.41657	0.45993	0.36653	-0.711
Mof_C 	C 	0.21017	0.43403	0.29825	0.072
Mof_C 	C 	0.27007	0.42653	0.28449	-0.058
Mof_H 	H 	0.31647	0.42973	0.29313	0.073
Mof_C 	C 	0.26197	0.41433	0.25809	-0.054
Mof_H 	H 	0.30287	0.40913	0.24873	0.076
Mof_C 	C 	0.19397	0.40953	0.24543	0.042
Mof_C 	C 	0.13407	0.41703	0.25919	0.043
Mof_H 	H 	0.08747	0.41373	0.25053	-0.03
Mof_C 	C 	0.14207	0.42923	0.2856	0.047
Mof_H 	H 	0.10107	0.43433	0.29503	-0.034
Mof_C 	C 	0.18577	0.38463	0.21746	0.021
Mof_C 	C 	0.25237	0.41563	0.20053	-0.05
Mof_H 	H 	0.30647	0.45463	0.20643	0.045
Mof_C 	C 	0.23977	0.38973	0.1751	-0.035
Mof_H 	H 	0.28537	0.41093	0.16353	0.037
Mof_C 	C 	0.16067	0.33273	0.16656	0.011
Mof_C 	C 	0.09397	0.30163	0.18343	-0.033
Mof_H 	H 	0.03987	0.26273	0.17763	0.054
Mof_C 	C 	0.10657	0.32763	0.20892	-0.037
Mof_H 	H 	0.06087	0.30633	0.22053	0.053
Mof_C 	C 	0.13417	0.29613	0.1387	0.016
Mof_C 	C 	0.06027	0.27503	0.12613	0.043
Mof_H 	H 	0.02027	0.28503	0.13423	0.02
Mof_C 	C 	0.04487	0.23923	0.10193	0.043
Mof_C 	C 	0.10347	0.22463	0.09013	0.022
Mof_H 	H 	0.09287	0.20013	0.07363	0.035
Mof_C 	C 	0.17737	0.24573	0.10273	-0.126
Mof_C 	C 	0.19277	0.28153	0.12693	-0.049
Mof_H 	H 	0.24327	0.29593	0.13553	0.006
Mof_C 	C 	0.96207	0.21053	0.08903	0.079
Mof_O 	O 	0.91197	0.21843	0.10293	-0.095
Mof_O 	O 	0.94867	0.17653	0.06743	0.033
Mof_C 	C 	0.23577	0.22713	0.08983	0.203
Mof_O 	O 	0.22297	0.19803	0.06683	-0.41
Mof_O 	O 	0.29857	0.23373	0.10263	-0.282
Mof_Cu	Cu	0.17973	0.37957	0.71597	-0.183
Mof_O 	O 	0.61823	0.10357	0.39957	0.025
Mof_Cu	Cu	0.13153	0.28567	0.75782	0.551
Mof_O 	O 	0.21273	0.45497	0.68357	0.334
Mof_O 	O 	0.06653	0.30467	0.70437	0.284
Mof_O 	O 	0.68963	0.91817	0.70507	0.359
Mof_O 	O 	0.88773	0.35827	0.39977	-0.356
Mof_C 	C 	0.63293	0.08447	0.42167	0.057
Mof_O 	O 	0.57733	0.02637	0.43597	-0.072
Mof_O 	O 	0.09833	0.21567	0.79367	-0.1
Mof_O 	O 	0.02803	0.22597	0.73857	0.058
Mof_O 	O 	0.76623	0.96697	0.73967	-0.027
Mof_O 	O 	0.96583	0.39677	0.43477	-0.272
Mof_C 	C 	0.02153	0.23917	0.71627	0.43
Mof_C 	C 	0.75533	0.97177	0.71687	0.303
Mof_C 	C 	0.90503	0.34607	0.42247	0.181
Mof_C 	C 	0.94773	0.17367	0.70187	-0.023
Mof_C 	C 	0.94063	0.17897	0.67547	-0.044
Mof_C 	C 	0.88673	0.10617	0.71532	-0.114
Mof_C 	C 	0.87253	0.11677	0.66251	-0.041
Mof_H 	H 	0.98233	0.22507	0.66627	0.026
Mof_C 	C 	0.81863	0.04397	0.70237	0.042
Mof_H 	H 	0.89163	0.10257	0.73337	-0.214
Mof_C 	C 	0.86203	0.12357	0.63296	-0.032
Mof_C 	C 	0.81163	0.04937	0.67597	-0.101
Mof_C 	C 	0.92343	0.18987	0.61922	-0.119
Mof_C 	C 	0.79443	0.06027	0.62017	-0
Mof_H 	H 	0.76503	0.00677	0.66717	-0.147
Mof_C 	C 	0.91733	0.19287	0.59269	-0.098
Mof_H 	H 	0.96963	0.23317	0.62797	0.089
Mof_H 	H 	0.75243	0.01497	0.62957	-0.018
Mof_C 	C 	0.78833	0.06327	0.59364	-0.002
Mof_H 	H 	0.95933	0.23817	0.58327	0.07
Mof_C 	C 	0.84983	0.12967	0.5799	-0.011
Mof_H 	H 	0.74213	0.01997	0.58487	-0.026
Mof_C 	C 	0.84403	0.14467	0.55189	-0.002
Mof_C 	C 	0.76473	0.11197	0.54168	-0.029
Mof_C 	C 	0.91303	0.18877	0.53627	-0.03
Mof_C 	C 	0.75453	0.12347	0.51585	-0.045
Mof_H 	H 	0.71753	0.08177	0.55237	0.05
Mof_C 	C 	0.90283	0.20027	0.51047	-0.035
Mof_H 	H 	0.96723	0.21117	0.54327	0.037
Mof_C 	C 	0.82353	0.16757	0.50023	0.009
Mof_H 	H 	0.70033	0.10107	0.50887	0.057
Mof_H 	H 	0.95003	0.23047	0.49977	0.036
Mof_C 	C 	0.79763	0.17287	0.47188	0.009
Mof_C 	C 	0.72573	0.11877	0.45867	0.045
Mof_C 	C 	0.85693	0.24607	0.46027	-0.065
Mof_C 	C 	0.71313	0.13767	0.43387	0.05
Mof_H 	H 	0.68523	0.06877	0.46657	0.031
Mof_C 	C 	0.84433	0.26497	0.43547	-0.095
Mof_H 	H 	0.90613	0.28307	0.46927	0.019
Mof_C 	C 	0.77243	0.21087	0.42227	0.026
Mof_H 	H 	0.76383	0.22377	0.40527	0.024
Mof_Cu	Cu	0.71403	0.86867	0.75711	0.376
Mof_Cu	Cu	0.62023	0.82137	0.71557	1.087
Mof_O 	O 	0.78933	0.90967	0.79217	-0.115
Mof_O 	O 	0.55063	0.78987	0.68187	-0.524
Mof_O 	O 	0.70103	0.79177	0.70247	-0.554
Mof_O 	O 	0.78083	0.83217	0.73737	-0.391
Mof_C 	C 	0.76413	0.80897	0.71537	-0.213
Mof_C 	C 	0.83123	0.80097	0.70137	-0.033
Mof_C 	C 	0.89853	0.80527	0.71438	0.1
Mof_H 	H 	0.90303	0.81327	0.73247	0.284
Mof_C 	C 	0.95883	0.79757	0.70097	-0.007
Mof_C 	C 	0.95203	0.78577	0.67457	0.008
Mof_H 	H 	0.99333	0.78057	0.66537	0.259
Mof_C 	C 	0.88493	0.78157	0.66152	0.057
Mof_C 	C 	0.82443	0.78917	0.67497	0.011
Mof_H 	H 	0.77853	0.78627	0.66607	0.039
Mof_C 	C 	0.03563	0.80677	0.71417	-0.027
Mof_O 	O 	0.03943	0.82417	0.73697	-0.318
Mof_O 	O 	0.08323	0.79327	0.69987	-0.713
Mof_C 	C 	0.87683	0.76737	0.63159	0.073
Mof_C 	C 	0.93673	0.75987	0.61783	-0.058
Mof_H 	H 	0.98313	0.76307	0.62647	0.073
Mof_C 	C 	0.92863	0.74767	0.59143	-0.054
Mof_H 	H 	0.96953	0.74247	0.58207	0.076
Mof_C 	C 	0.86063	0.74287	0.57877	0.042
Mof_C 	C 	0.80073	0.75037	0.59253	0.043
Mof_H 	H 	0.75413	0.74707	0.58387	-0.029
Mof_C 	C 	0.80873	0.76257	0.61894	0.047
Mof_H 	H 	0.76773	0.76767	0.62837	-0.034
Mof_C 	C 	0.85243	0.71797	0.5508	0.021
Mof_C 	C 	0.91903	0.74897	0.53387	-0.05
Mof_H 	H 	0.97313	0.78797	0.53977	0.045
Mof_C 	C 	0.90643	0.72307	0.50844	-0.035
Mof_H 	H 	0.95203	0.74427	0.49687	0.037
Mof_C 	C 	0.82733	0.66607	0.4999	0.011
Mof_C 	C 	0.76063	0.63497	0.51677	-0.033
Mof_H 	H 	0.70653	0.59607	0.51097	0.054
Mof_C 	C 	0.77323	0.66097	0.54226	-0.037
Mof_H 	H 	0.72753	0.63967	0.55387	0.053
Mof_C 	C 	0.80083	0.62947	0.47204	0.016
Mof_C 	C 	0.72693	0.60837	0.45947	0.043
Mof_H 	H 	0.68693	0.61837	0.46757	0.02
Mof_C 	C 	0.71153	0.57257	0.43527	0.043
Mof_C 	C 	0.77013	0.55797	0.42347	0.021
Mof_H 	H 	0.75953	0.53347	0.40697	0.035
Mof_C 	C 	0.84403	0.57907	0.43607	-0.126
Mof_C 	C 	0.85943	0.61487	0.46027	-0.049
Mof_H 	H 	0.90993	0.62927	0.46887	0.006
Mof_C 	C 	0.62873	0.54387	0.42237	0.078
Mof_O 	O 	0.57863	0.55177	0.43627	-0.095
Mof_O 	O 	0.61533	0.50987	0.40077	0.032
Mof_C 	C 	0.90243	0.56047	0.42317	0.203
Mof_O 	O 	0.88963	0.53137	0.40017	-0.41
Mof_O 	O 	0.96523	0.56707	0.43597	-0.282
Mof_Cu	Cu	0.7129	0.8665	0.9507	-0.179
Mof_O 	O 	0.4369	0.152	0.2671	0.026
Mof_Cu	Cu	0.619	0.8208	0.90885	0.55
Mof_O 	O 	0.7883	0.9089	0.9831	0.331
Mof_O 	O 	0.638	0.9048	0.9623	0.281
Mof_O 	O 	0.2515	0.8952	0.9616	0.359
Mof_O 	O 	0.6916	0.1372	0.2669	-0.355
Mof_C 	C 	0.4178	0.1182	0.245	0.057
Mof_O 	O 	0.3597	0.1157	0.2307	-0.072
Mof_O 	O 	0.549	0.784	0.873	-0.099
Mof_O 	O 	0.5593	0.8646	0.9281	0.056
Mof_O 	O 	0.3003	0.8674	0.927	-0.027
Mof_O 	O 	0.7301	0.0976	0.2319	-0.272
Mof_C 	C 	0.5725	0.8843	0.9504	0.429
Mof_C 	C 	0.3051	0.8831	0.9498	0.302
Mof_C 	C 	0.6794	0.1077	0.2442	0.182
Mof_C 	C 	0.507	0.8926	0.9648	-0.022
Mof_C 	C 	0.5123	0.905	0.9912	-0.042
Mof_C 	C 	0.4395	0.8861	0.95135	-0.116
Mof_C 	C 	0.4501	0.9109	0.00416	-0.04
Mof_H 	H 	0.5584	0.9094	0.0004	0.028
Mof_C 	C 	0.3773	0.892	0.9643	0.043
Mof_H 	H 	0.4359	0.8776	0.9333	-0.215
Mof_C 	C 	0.4569	0.9282	0.03371	-0.03
Mof_C 	C 	0.3827	0.9044	0.9907	-0.102
Mof_C 	C 	0.5232	0.9331	0.04745	-0.118
Mof_C 	C 	0.3936	0.9325	0.0465	0
Mof_H 	H 	0.3401	0.9084	0.9995	-0.148
Mof_C 	C 	0.5262	0.9422	0.07398	-0.098
Mof_H 	H 	0.5665	0.9302	0.0387	0.088
Mof_H 	H 	0.3483	0.9292	0.0371	-0.019
Mof_C 	C 	0.3966	0.9416	0.07303	-0.002
Mof_H 	H 	0.5715	0.9455	0.0834	0.07
Mof_C 	C 	0.463	0.9465	0.08677	-0.01
Mof_H 	H 	0.3533	0.9445	0.0818	-0.026
Mof_C 	C 	0.478	0.9673	0.11478	-0.002
Mof_C 	C 	0.4453	0.0139	0.12499	-0.029
Mof_C 	C 	0.5221	0.9424	0.1304	-0.032
Mof_C 	C 	0.4568	0.0356	0.15082	-0.044
Mof_H 	H 	0.4151	0.0309	0.1143	0.05
Mof_C 	C 	0.5336	0.9641	0.1562	-0.035
Mof_H 	H 	0.5445	0.9106	0.1234	0.037
Mof_C 	C 	0.5009	0.0107	0.16644	0.01
Mof_H 	H 	0.4344	0.0674	0.1578	0.057
Mof_H 	H 	0.5638	0.9471	0.1669	0.036
Mof_C 	C 	0.5062	0.0419	0.19479	0.009
Mof_C 	C 	0.4521	0.0597	0.208	0.045
Mof_C 	C 	0.5794	0.0558	0.2064	-0.065
Mof_C 	C 	0.471	0.0912	0.2328	0.05
Mof_H 	H 	0.4021	0.0502	0.2001	0.031
Mof_C 	C 	0.5983	0.0873	0.2312	-0.095
Mof_H 	H 	0.6164	0.0436	0.1974	0.018
Mof_C 	C 	0.5442	0.1051	0.2444	0.026
Mof_H 	H 	0.5571	0.1266	0.2614	0.024
Mof_Cu	Cu	0.202	0.8213	0.90956	0.376
Mof_Cu	Cu	0.1547	0.8678	0.9511	1.086
Mof_O 	O 	0.243	0.787	0.8745	-0.115
Mof_O 	O 	0.1232	0.9059	0.9848	-0.524
Mof_O 	O 	0.1251	0.7574	0.9642	-0.555
Mof_O 	O 	0.1655	0.718	0.9293	-0.391
Mof_C 	C 	0.1423	0.7115	0.9513	-0.214
Mof_C 	C 	0.1343	0.6364	0.9653	-0.033
Mof_C 	C 	0.1386	0.5734	0.95229	0.099
Mof_H 	H 	0.1466	0.5769	0.9342	0.283
Mof_C 	C 	0.1309	0.5054	0.9657	-0.007
Mof_C 	C 	0.1191	0.5004	0.9921	0.008
Mof_H 	H 	0.1139	0.4539	0.0013	0.257
Mof_C 	C 	0.1149	0.5633	0.00515	0.056
Mof_C 	C 	0.1225	0.6314	0.9917	0.011
Mof_H 	H 	0.1196	0.6744	0.0006	0.039
Mof_C 	C 	0.1401	0.4378	0.9525	-0.026
Mof_O 	O 	0.1575	0.4514	0.9297	-0.317
Mof_O 	O 	0.1266	0.3767	0.9668	-0.711
Mof_C 	C 	0.1007	0.5572	0.03508	0.072
Mof_C 	C 	0.0932	0.4898	0.04884	-0.059
Mof_H 	H 	0.0964	0.4466	0.0402	0.074
Mof_C 	C 	0.081	0.4857	0.07524	-0.055
Mof_H 	H 	0.0758	0.4396	0.0846	0.076
Mof_C 	C 	0.0762	0.5489	0.0879	0.042
Mof_C 	C 	0.0837	0.6163	0.07414	0.043
Mof_H 	H 	0.0804	0.6596	0.0828	-0.029
Mof_C 	C 	0.0959	0.6205	0.04773	0.046
Mof_H 	H 	0.101	0.6666	0.0383	-0.034
Mof_C 	C 	0.0513	0.5322	0.11587	0.019
Mof_C 	C 	0.0823	0.4966	0.1328	-0.049
Mof_H 	H 	0.1213	0.4815	0.1269	0.044
Mof_C 	C 	0.0564	0.4833	0.15823	-0.037
Mof_H 	H 	0.0776	0.4589	0.1698	0.037
Mof_C 	C 	0.9994	0.5054	0.16677	0.011
Mof_C 	C 	0.9683	0.541	0.1499	-0.034
Mof_H 	H 	0.9294	0.5562	0.1557	0.055
Mof_C 	C 	0.9943	0.5544	0.12441	-0.034
Mof_H 	H 	0.973	0.5788	0.1128	0.052
Mof_C 	C 	0.9628	0.4953	0.19463	0.016
Mof_C 	C 	0.9417	0.5481	0.2072	0.043
Mof_H 	H 	0.9517	0.5981	0.1991	0.021
Mof_C 	C 	0.9059	0.5277	0.2314	0.043
Mof_C 	C 	0.8913	0.4545	0.2432	0.022
Mof_H 	H 	0.8668	0.4406	0.2597	0.035
Mof_C 	C 	0.9124	0.4017	0.2306	-0.126
Mof_C 	C 	0.9482	0.4221	0.2064	-0.049
Mof_H 	H 	0.9626	0.386	0.1978	0.006
Mof_C 	C 	0.8772	0.5818	0.2443	0.078
Mof_O 	O 	0.8851	0.6398	0.2304	-0.094
Mof_O 	O 	0.8432	0.5612	0.2659	0.032
Mof_C 	C 	0.8938	0.3247	0.2435	0.203
Mof_O 	O 	0.8647	0.3084	0.2665	-0.41
Mof_O 	O 	0.9004	0.2685	0.2307	-0.282
Mof_Cu	Cu	0.37957	0.19983	0.28403	-0.179
Mof_O 	O 	0.10357	0.48533	0.60043	0.025
Mof_Cu	Cu	0.28567	0.15413	0.24218	0.55
Mof_O 	O 	0.45497	0.24223	0.31643	0.331
Mof_O 	O 	0.30467	0.23813	0.29563	0.28
Mof_O 	O 	0.91817	0.22853	0.29493	0.361
Mof_O 	O 	0.35827	0.47053	0.60023	-0.356
Mof_C 	C 	0.08447	0.45153	0.57833	0.057
Mof_O 	O 	0.02637	0.44903	0.56403	-0.072
Mof_O 	O 	0.21567	0.11733	0.20633	-0.099
Mof_O 	O 	0.22597	0.19793	0.26143	0.055
Mof_O 	O 	0.96697	0.20073	0.26033	-0.026
Mof_O 	O 	0.39677	0.43093	0.56523	-0.272
Mof_C 	C 	0.23917	0.21763	0.28373	0.428
Mof_C 	C 	0.97177	0.21643	0.28313	0.304
Mof_C 	C 	0.34607	0.44103	0.57753	0.182
Mof_C 	C 	0.17367	0.22593	0.29813	-0.022
Mof_C 	C 	0.17897	0.23833	0.32453	-0.042
Mof_C 	C 	0.10617	0.21943	0.28468	-0.116
Mof_C 	C 	0.11677	0.24423	0.33749	-0.04
Mof_H 	H 	0.22507	0.24273	0.33373	0.028
Mof_C 	C 	0.04397	0.22533	0.29763	0.042
Mof_H 	H 	0.10257	0.21093	0.26663	-0.216
Mof_C 	C 	0.12357	0.26153	0.36704	-0.031
Mof_C 	C 	0.04937	0.23773	0.32403	-0.103
Mof_C 	C 	0.18987	0.26643	0.38078	-0.119
Mof_C 	C 	0.06027	0.26583	0.37983	0
Mof_H 	H 	0.00677	0.24173	0.33283	-0.15
Mof_C 	C 	0.19287	0.27553	0.40731	-0.098
Mof_H 	H 	0.23317	0.26353	0.37203	0.088
Mof_H 	H 	0.01497	0.26253	0.37043	-0.018
Mof_C 	C 	0.06327	0.27493	0.40636	-0.002
Mof_H 	H 	0.23817	0.27883	0.41673	0.07
Mof_C 	C 	0.12967	0.27983	0.4201	-0.011
Mof_H 	H 	0.01997	0.27783	0.41513	-0.026
Mof_C 	C 	0.14467	0.30063	0.44811	-0.002
Mof_C 	C 	0.11197	0.34723	0.45832	-0.03
Mof_C 	C 	0.18877	0.27573	0.46373	-0.03
Mof_C 	C 	0.12347	0.36893	0.48415	-0.044
Mof_H 	H 	0.08177	0.36423	0.44763	0.05
Mof_C 	C 	0.20027	0.29743	0.48953	-0.034
Mof_H 	H 	0.21117	0.24393	0.45673	0.037
Mof_C 	C 	0.16757	0.34403	0.49977	0.009
Mof_H 	H 	0.10107	0.40073	0.49113	0.057
Mof_H 	H 	0.23047	0.28043	0.50023	0.036
Mof_C 	C 	0.17287	0.37523	0.52812	0.009
Mof_C 	C 	0.11877	0.39303	0.54133	0.045
Mof_C 	C 	0.24607	0.38913	0.53973	-0.065
Mof_C 	C 	0.13767	0.42453	0.56613	0.05
Mof_H 	H 	0.06877	0.38353	0.53343	0.031
Mof_C 	C 	0.26497	0.42063	0.56453	-0.095
Mof_H 	H 	0.28307	0.37693	0.53073	0.019
Mof_C 	C 	0.21087	0.43843	0.57773	0.026
Mof_H 	H 	0.22377	0.45993	0.59473	0.024
Mof_Cu	Cu	0.86867	0.15463	0.24289	0.375
Mof_Cu	Cu	0.82137	0.20113	0.28443	1.091
Mof_O 	O 	0.90967	0.12033	0.20783	-0.115
Mof_O 	O 	0.78987	0.23923	0.31813	-0.526
Mof_O 	O 	0.79177	0.09073	0.29753	-0.557
Mof_O 	O 	0.83217	0.05133	0.26263	-0.393
Mof_C 	C 	0.80897	0.04483	0.28463	-0.215
Mof_C 	C 	0.80097	0.96973	0.29863	-0.032
Mof_C 	C 	0.80527	0.90673	0.28562	0.1
Mof_H 	H 	0.81327	0.91023	0.26753	0.283
Mof_C 	C 	0.79757	0.83873	0.29903	-0.007
Mof_C 	C 	0.78577	0.83373	0.32543	0.008
Mof_H 	H 	0.78057	0.78723	0.33463	0.257
Mof_C 	C 	0.78157	0.89663	0.33848	0.057
Mof_C 	C 	0.78917	0.96473	0.32503	0.014
Mof_H 	H 	0.78627	0.00773	0.33393	0.042
Mof_C 	C 	0.80677	0.77113	0.28583	-0.028
Mof_O 	O 	0.82417	0.78473	0.26303	-0.319
Mof_O 	O 	0.79327	0.71003	0.30013	-0.713
Mof_C 	C 	0.76737	0.89053	0.36841	0.073
Mof_C 	C 	0.75987	0.82313	0.38217	-0.058
Mof_H 	H 	0.76307	0.77993	0.37353	0.073
Mof_C 	C 	0.74767	0.81903	0.40857	-0.054
Mof_H 	H 	0.74247	0.77293	0.41793	0.076
Mof_C 	C 	0.74287	0.88223	0.42123	0.042
Mof_C 	C 	0.75037	0.94963	0.40747	0.043
Mof_H 	H 	0.74707	0.99293	0.41613	-0.029
Mof_C 	C 	0.76257	0.95383	0.38106	0.047
Mof_H 	H 	0.76767	0.99993	0.37163	-0.035
Mof_C 	C 	0.71797	0.86553	0.4492	0.021
Mof_C 	C 	0.74897	0.82993	0.46613	-0.05
Mof_H 	H 	0.78797	0.81483	0.46023	0.045
Mof_C 	C 	0.72307	0.81663	0.49156	-0.035
Mof_H 	H 	0.74427	0.79223	0.50313	0.037
Mof_C 	C 	0.66607	0.83873	0.5001	0.011
Mof_C 	C 	0.63497	0.87433	0.48323	-0.033
Mof_H 	H 	0.59607	0.88953	0.48903	0.054
Mof_C 	C 	0.66097	0.88773	0.45774	-0.037
Mof_H 	H 	0.63967	0.91213	0.44613	0.053
Mof_C 	C 	0.62947	0.82863	0.52796	0.016
Mof_C 	C 	0.60837	0.88143	0.54053	0.043
Mof_H 	H 	0.61837	0.93143	0.53243	0.021
Mof_C 	C 	0.57257	0.86103	0.56473	0.043
Mof_C 	C 	0.55797	0.78783	0.57653	0.022
Mof_H 	H 	0.53347	0.77393	0.59303	0.035
Mof_C 	C 	0.57907	0.73503	0.56393	-0.126
Mof_C 	C 	0.61487	0.75543	0.53973	-0.049
Mof_H 	H 	0.62927	0.71933	0.53113	0.006
Mof_C 	C 	0.54387	0.91513	0.57763	0.078
Mof_O 	O 	0.55177	0.97313	0.56373	-0.095
Mof_O 	O 	0.50987	0.89453	0.59923	0.032
Mof_C 	C 	0.56047	0.65803	0.57683	0.203
Mof_O 	O 	0.53137	0.64173	0.59983	-0.41
Mof_O 	O 	0.56707	0.60183	0.56403	-0.282
Mof_Cu	Cu	0.04623	0.53317	0.61737	-0.18
Mof_O 	O 	0.77023	0.81867	0.93377	0.025
Mof_Cu	Cu	0.95233	0.48747	0.57552	0.55
Mof_O 	O 	0.12163	0.57557	0.64977	0.333
Mof_O 	O 	0.97133	0.57147	0.62897	0.28
Mof_O 	O 	0.58483	0.56187	0.62827	0.359
Mof_O 	O 	0.02493	0.80387	0.93357	-0.356
Mof_C 	C 	0.75113	0.78487	0.91167	0.057
Mof_O 	O 	0.69303	0.78237	0.89737	-0.072
Mof_O 	O 	0.88233	0.45067	0.53967	-0.099
Mof_O 	O 	0.89263	0.53127	0.59477	0.055
Mof_O 	O 	0.63363	0.53407	0.59367	-0.027
Mof_O 	O 	0.06343	0.76427	0.89857	-0.272
Mof_C 	C 	0.90583	0.55097	0.61707	0.428
Mof_C 	C 	0.63843	0.54977	0.61647	0.302
Mof_C 	C 	0.01273	0.77437	0.91087	0.181
Mof_C 	C 	0.84033	0.55927	0.63147	-0.022
Mof_C 	C 	0.84563	0.57167	0.65787	-0.042
Mof_C 	C 	0.77283	0.55277	0.61802	-0.115
Mof_C 	C 	0.78343	0.57757	0.67083	-0.04
Mof_H 	H 	0.89173	0.57607	0.66707	0.028
Mof_C 	C 	0.71063	0.55867	0.63097	0.042
Mof_H 	H 	0.76923	0.54427	0.59997	-0.215
Mof_C 	C 	0.79023	0.59487	0.70038	-0.031
Mof_C 	C 	0.71603	0.57107	0.65737	-0.103
Mof_C 	C 	0.85653	0.59977	0.71412	-0.119
Mof_C 	C 	0.72693	0.59917	0.71317	0
Mof_H 	H 	0.67343	0.57507	0.66617	-0.149
Mof_C 	C 	0.85953	0.60887	0.74065	-0.098
Mof_H 	H 	0.89983	0.59687	0.70537	0.088
Mof_H 	H 	0.68163	0.59587	0.70377	-0.018
Mof_C 	C 	0.72993	0.60827	0.7397	-0.002
Mof_H 	H 	0.90483	0.61217	0.75007	0.07
Mof_C 	C 	0.79633	0.61317	0.75344	-0.011
Mof_H 	H 	0.68663	0.61117	0.74847	-0.026
Mof_C 	C 	0.81133	0.63397	0.78145	-0.002
Mof_C 	C 	0.77863	0.68057	0.79166	-0.029
Mof_C 	C 	0.85543	0.60907	0.79707	-0.03
Mof_C 	C 	0.79013	0.70227	0.81749	-0.045
Mof_H 	H 	0.74843	0.69757	0.78097	0.05
Mof_C 	C 	0.86693	0.63077	0.82287	-0.035
Mof_H 	H 	0.87783	0.57727	0.79007	0.037
Mof_C 	C 	0.83423	0.67737	0.83311	0.009
Mof_H 	H 	0.76773	0.73407	0.82447	0.057
Mof_H 	H 	0.89713	0.61377	0.83357	0.036
Mof_C 	C 	0.83953	0.70857	0.86146	0.009
Mof_C 	C 	0.78543	0.72637	0.87467	0.045
Mof_C 	C 	0.91273	0.72247	0.87307	-0.066
Mof_C 	C 	0.80433	0.75787	0.89947	0.05
Mof_H 	H 	0.73543	0.71687	0.86677	0.031
Mof_C 	C 	0.93163	0.75397	0.89787	-0.095
Mof_H 	H 	0.94973	0.71027	0.86407	0.02
Mof_C 	C 	0.87753	0.77177	0.91107	0.026
Mof_H 	H 	0.89043	0.79327	0.92807	0.024
Mof_Cu	Cu	0.53533	0.48797	0.57623	0.376
Mof_Cu	Cu	0.48803	0.53447	0.61777	1.086
Mof_O 	O 	0.57633	0.45367	0.54117	-0.115
Mof_O 	O 	0.45653	0.57257	0.65147	-0.524
Mof_O 	O 	0.45843	0.42407	0.63087	-0.555
Mof_O 	O 	0.49883	0.38467	0.59597	-0.391
Mof_C 	C 	0.47563	0.37817	0.61797	-0.214
Mof_C 	C 	0.46763	0.30307	0.63197	-0.033
Mof_C 	C 	0.47193	0.24007	0.61896	0.099
Mof_H 	H 	0.47993	0.24357	0.60087	0.283
Mof_C 	C 	0.46423	0.17207	0.63237	-0.007
Mof_C 	C 	0.45243	0.16707	0.65877	0.008
Mof_H 	H 	0.44723	0.12057	0.66797	0.257
Mof_C 	C 	0.44823	0.22997	0.67182	0.056
Mof_C 	C 	0.45583	0.29807	0.65837	0.011
Mof_H 	H 	0.45293	0.34107	0.66727	0.039
Mof_C 	C 	0.47343	0.10447	0.61917	-0.027
Mof_O 	O 	0.49083	0.11807	0.59637	-0.318
Mof_O 	O 	0.45993	0.04337	0.63347	-0.712
Mof_C 	C 	0.43403	0.22387	0.70175	0.073
Mof_C 	C 	0.42653	0.15647	0.71551	-0.058
Mof_H 	H 	0.42973	0.11327	0.70687	0.073
Mof_C 	C 	0.41433	0.15237	0.74191	-0.054
Mof_H 	H 	0.40913	0.10627	0.75127	0.076
Mof_C 	C 	0.40953	0.21557	0.75457	0.042
Mof_C 	C 	0.41703	0.28297	0.74081	0.043
Mof_H 	H 	0.41373	0.32627	0.74947	-0.029
Mof_C 	C 	0.42923	0.28717	0.7144	0.047
Mof_H 	H 	0.43433	0.33327	0.70497	-0.034
Mof_C 	C 	0.38463	0.19887	0.78254	0.021
Mof_C 	C 	0.41563	0.16327	0.79947	-0.05
Mof_H 	H 	0.45463	0.14817	0.79357	0.045
Mof_C 	C 	0.38973	0.14997	0.8249	-0.035
Mof_H 	H 	0.41093	0.12557	0.83647	0.037
Mof_C 	C 	0.33273	0.17207	0.83344	0.011
Mof_C 	C 	0.30163	0.20767	0.81657	-0.033
Mof_H 	H 	0.26273	0.22287	0.82237	0.054
Mof_C 	C 	0.32763	0.22107	0.79108	-0.037
Mof_H 	H 	0.30633	0.24547	0.77947	0.053
Mof_C 	C 	0.29613	0.16197	0.8613	0.016
Mof_C 	C 	0.27503	0.21477	0.87387	0.043
Mof_H 	H 	0.28503	0.26477	0.86577	0.021
Mof_C 	C 	0.23923	0.19437	0.89807	0.043
Mof_C 	C 	0.22463	0.12117	0.90987	0.022
Mof_H 	H 	0.20013	0.10727	0.92637	0.035
Mof_C 	C 	0.24573	0.06837	0.89727	-0.127
Mof_C 	C 	0.28153	0.08877	0.87307	-0.049
Mof_H 	H 	0.29593	0.05267	0.86447	0.006
Mof_C 	C 	0.21053	0.24847	0.91097	0.078
Mof_O 	O 	0.21843	0.30647	0.89707	-0.095
Mof_O 	O 	0.17653	0.22787	0.93257	0.032
Mof_C 	C 	0.22713	0.99137	0.91017	0.203
Mof_O 	O 	0.19803	0.97507	0.93317	-0.41
Mof_O 	O 	0.23373	0.93517	0.89737	-0.282
Mof_Cu	Cu	0.1335	0.8464	0.9507	-0.178
Mof_O 	O 	0.848	0.2849	0.2671	0.026
Mof_Cu	Cu	0.1792	0.7982	0.90885	0.55
Mof_O 	O 	0.0911	0.8794	0.9831	0.331
Mof_O 	O 	0.0952	0.7332	0.9623	0.281
Mof_O 	O 	0.1048	0.3563	0.9616	0.358
Mof_O 	O 	0.8628	0.5544	0.2669	-0.356
Mof_C 	C 	0.8818	0.2996	0.245	0.057
Mof_O 	O 	0.8843	0.244	0.2307	-0.072
Mof_O 	O 	0.216	0.765	0.873	-0.099
Mof_O 	O 	0.1354	0.6947	0.9281	0.056
Mof_O 	O 	0.1326	0.4329	0.927	-0.028
Mof_O 	O 	0.9024	0.6325	0.2319	-0.272
Mof_C 	C 	0.1157	0.6882	0.9504	0.429
Mof_C 	C 	0.1169	0.422	0.9498	0.302
Mof_C 	C 	0.8923	0.5717	0.2442	0.182
Mof_C 	C 	0.1074	0.6144	0.9648	-0.022
Mof_C 	C 	0.095	0.6073	0.9912	-0.042
Mof_C 	C 	0.1139	0.5534	0.95135	-0.115
Mof_C 	C 	0.0891	0.5392	0.00416	-0.04
Mof_H 	H 	0.0906	0.649	0.0004	0.028
Mof_C 	C 	0.108	0.4853	0.9643	0.042
Mof_H 	H 	0.1224	0.5583	0.9333	-0.215
Mof_C 	C 	0.0718	0.5287	0.03371	-0.03
Mof_C 	C 	0.0956	0.4783	0.9907	-0.102
Mof_C 	C 	0.0669	0.5901	0.04745	-0.118
Mof_C 	C 	0.0675	0.4611	0.0465	0
Mof_H 	H 	0.0916	0.4317	0.9995	-0.148
Mof_C 	C 	0.0578	0.584	0.07398	-0.098
Mof_H 	H 	0.0698	0.6363	0.0387	0.088
Mof_H 	H 	0.0708	0.4191	0.0371	-0.019
Mof_C 	C 	0.0584	0.455	0.07303	-0.002
Mof_H 	H 	0.0545	0.626	0.0834	0.07
Mof_C 	C 	0.0535	0.5165	0.08677	-0.01
Mof_H 	H 	0.0555	0.4088	0.0818	-0.026
Mof_C 	C 	0.0327	0.5107	0.11478	-0.002
Mof_C 	C 	0.9861	0.4314	0.12499	-0.029
Mof_C 	C 	0.0576	0.5797	0.1304	-0.032
Mof_C 	C 	0.9644	0.4212	0.15082	-0.044
Mof_H 	H 	0.9691	0.3842	0.1143	0.05
Mof_C 	C 	0.0359	0.5695	0.1562	-0.035
Mof_H 	H 	0.0894	0.6339	0.1234	0.037
Mof_C 	C 	0.9893	0.4902	0.16644	0.01
Mof_H 	H 	0.9326	0.367	0.1578	0.057
Mof_H 	H 	0.0529	0.6167	0.1669	0.036
Mof_C 	C 	0.9581	0.4643	0.19479	0.009
Mof_C 	C 	0.9403	0.3924	0.208	0.045
Mof_C 	C 	0.9442	0.5236	0.2064	-0.065
Mof_C 	C 	0.9088	0.3798	0.2328	0.05
Mof_H 	H 	0.9498	0.3519	0.2001	0.031
Mof_C 	C 	0.9127	0.511	0.2312	-0.095
Mof_H 	H 	0.9564	0.5728	0.1974	0.018
Mof_C 	C 	0.8949	0.4391	0.2444	0.026
Mof_H 	H 	0.8734	0.4305	0.2614	0.024
Mof_Cu	Cu	0.1787	0.3807	0.90956	0.376
Mof_Cu	Cu	0.1322	0.2869	0.9511	1.086
Mof_O 	O 	0.213	0.456	0.8745	-0.115
Mof_O 	O 	0.0941	0.2173	0.9848	-0.524
Mof_O 	O 	0.2426	0.3677	0.9642	-0.555
Mof_O 	O 	0.282	0.4475	0.9293	-0.391
Mof_C 	C 	0.2885	0.4308	0.9513	-0.214
Mof_C 	C 	0.3636	0.4979	0.9653	-0.033
Mof_C 	C 	0.4266	0.5652	0.95229	0.099
Mof_H 	H 	0.4231	0.5697	0.9342	0.283
Mof_C 	C 	0.4946	0.6255	0.9657	-0.006
Mof_C 	C 	0.4996	0.6187	0.9921	0.008
Mof_H 	H 	0.5461	0.66	0.0013	0.258
Mof_C 	C 	0.4367	0.5516	0.00515	0.056
Mof_C 	C 	0.3686	0.4911	0.9917	0.011
Mof_H 	H 	0.3256	0.4452	0.0006	0.039
Mof_C 	C 	0.5622	0.7023	0.9525	-0.027
Mof_O 	O 	0.5486	0.7061	0.9297	-0.317
Mof_O 	O 	0.6233	0.7499	0.9668	-0.711
Mof_C 	C 	0.4428	0.5435	0.03508	0.072
Mof_C 	C 	0.5102	0.6034	0.04884	-0.058
Mof_H 	H 	0.5534	0.6498	0.0402	0.073
Mof_C 	C 	0.5143	0.5953	0.07524	-0.054
Mof_H 	H 	0.5604	0.6362	0.0846	0.076
Mof_C 	C 	0.4511	0.5273	0.0879	0.042
Mof_C 	C 	0.3837	0.4674	0.07414	0.043
Mof_H 	H 	0.3404	0.4208	0.0828	-0.029
Mof_C 	C 	0.3795	0.4754	0.04773	0.047
Mof_H 	H 	0.3334	0.4344	0.0383	-0.034
Mof_C 	C 	0.4678	0.5191	0.11587	0.021
Mof_C 	C 	0.5034	0.5857	0.1328	-0.05
Mof_H 	H 	0.5185	0.6398	0.1269	0.045
Mof_C 	C 	0.5167	0.5731	0.15823	-0.035
Mof_H 	H 	0.5411	0.6187	0.1698	0.037
Mof_C 	C 	0.4946	0.494	0.16677	0.011
Mof_C 	C 	0.459	0.4273	0.1499	-0.033
Mof_H 	H 	0.4438	0.3732	0.1557	0.054
Mof_C 	C 	0.4456	0.4399	0.12441	-0.037
Mof_H 	H 	0.4212	0.3942	0.1128	0.053
Mof_C 	C 	0.5047	0.4675	0.19463	0.016
Mof_C 	C 	0.4519	0.3936	0.2072	0.043
Mof_H 	H 	0.4019	0.3536	0.1991	0.02
Mof_C 	C 	0.4723	0.3782	0.2314	0.043
Mof_C 	C 	0.5455	0.4368	0.2432	0.021
Mof_H 	H 	0.5594	0.4262	0.2597	0.035
Mof_C 	C 	0.5983	0.5107	0.2306	-0.126
Mof_C 	C 	0.5779	0.5261	0.2064	-0.049
Mof_H 	H 	0.614	0.5766	0.1978	0.006
Mof_C 	C 	0.4182	0.2954	0.2443	0.078
Mof_O 	O 	0.3602	0.2453	0.2304	-0.095
Mof_O 	O 	0.4388	0.282	0.2659	0.032
Mof_C 	C 	0.6753	0.5691	0.2435	0.203
Mof_O 	O 	0.6916	0.5563	0.2665	-0.41
Mof_O 	O 	0.7315	0.6319	0.2307	-0.282
Mof_Cu	Cu	0.80017	0.17973	0.28403	-0.184
Mof_O 	O 	0.51467	0.61823	0.60043	0.025
Mof_Cu	Cu	0.84587	0.13153	0.24218	0.551
Mof_O 	O 	0.75777	0.21273	0.31643	0.333
Mof_O 	O 	0.76187	0.06653	0.29563	0.284
Mof_O 	O 	0.77147	0.68963	0.29493	0.361
Mof_O 	O 	0.52947	0.88773	0.60023	-0.356
Mof_C 	C 	0.54847	0.63293	0.57833	0.057
Mof_O 	O 	0.55097	0.57733	0.56403	-0.072
Mof_O 	O 	0.88267	0.09833	0.20633	-0.099
Mof_O 	O 	0.80207	0.02803	0.26143	0.058
Mof_O 	O 	0.79927	0.76623	0.26033	-0.026
Mof_O 	O 	0.56907	0.96583	0.56523	-0.272
Mof_C 	C 	0.78237	0.02153	0.28373	0.43
Mof_C 	C 	0.78357	0.75533	0.28313	0.303
Mof_C 	C 	0.55897	0.90503	0.57753	0.181
Mof_C 	C 	0.77407	0.94773	0.29813	-0.023
Mof_C 	C 	0.76167	0.94063	0.32453	-0.044
Mof_C 	C 	0.78057	0.88673	0.28468	-0.115
Mof_C 	C 	0.75577	0.87253	0.33749	-0.041
Mof_H 	H 	0.75727	0.98233	0.33373	0.025
Mof_C 	C 	0.77467	0.81863	0.29763	0.043
Mof_H 	H 	0.78907	0.89163	0.26663	-0.215
Mof_C 	C 	0.73847	0.86203	0.36704	-0.031
Mof_C 	C 	0.76227	0.81163	0.32403	-0.102
Mof_C 	C 	0.73357	0.92343	0.38078	-0.119
Mof_C 	C 	0.73417	0.79443	0.37983	0
Mof_H 	H 	0.75827	0.76503	0.33283	-0.148
Mof_C 	C 	0.72447	0.91733	0.40731	-0.098
Mof_H 	H 	0.73647	0.96963	0.37203	0.088
Mof_H 	H 	0.73747	0.75243	0.37043	-0.018
Mof_C 	C 	0.72507	0.78833	0.40636	-0.002
Mof_H 	H 	0.72117	0.95933	0.41673	0.07
Mof_C 	C 	0.72017	0.84983	0.4201	-0.011
Mof_H 	H 	0.72217	0.74213	0.41513	-0.026
Mof_C 	C 	0.69937	0.84403	0.44811	-0.002
Mof_C 	C 	0.65277	0.76473	0.45832	-0.03
Mof_C 	C 	0.72427	0.91303	0.46373	-0.03
Mof_C 	C 	0.63107	0.75453	0.48415	-0.044
Mof_H 	H 	0.63577	0.71753	0.44763	0.05
Mof_C 	C 	0.70257	0.90283	0.48953	-0.034
Mof_H 	H 	0.75607	0.96723	0.45673	0.037
Mof_C 	C 	0.65597	0.82353	0.49977	0.009
Mof_H 	H 	0.59927	0.70033	0.49113	0.057
Mof_H 	H 	0.71957	0.95003	0.50023	0.036
Mof_C 	C 	0.62477	0.79763	0.52812	0.009
Mof_C 	C 	0.60697	0.72573	0.54133	0.045
Mof_C 	C 	0.61087	0.85693	0.53973	-0.065
Mof_C 	C 	0.57547	0.71313	0.56613	0.05
Mof_H 	H 	0.61647	0.68523	0.53343	0.031
Mof_C 	C 	0.57937	0.84433	0.56453	-0.095
Mof_H 	H 	0.62307	0.90613	0.53073	0.019
Mof_C 	C 	0.56157	0.77243	0.57773	0.026
Mof_H 	H 	0.54007	0.76383	0.59473	0.024
Mof_Cu	Cu	0.84537	0.71403	0.24289	0.375
Mof_Cu	Cu	0.79887	0.62023	0.28443	1.091
Mof_O 	O 	0.87967	0.78933	0.20783	-0.114
Mof_O 	O 	0.76077	0.55063	0.31813	-0.527
Mof_O 	O 	0.90927	0.70103	0.29753	-0.557
Mof_O 	O 	0.94867	0.78083	0.26263	-0.393
Mof_C 	C 	0.95517	0.76413	0.28463	-0.215
Mof_C 	C 	0.03027	0.83123	0.29863	-0.033
Mof_C 	C 	0.09327	0.89853	0.28562	0.099
Mof_H 	H 	0.08977	0.90303	0.26753	0.281
Mof_C 	C 	0.16127	0.95883	0.29903	-0.008
Mof_C 	C 	0.16627	0.95203	0.32543	0.007
Mof_H 	H 	0.21277	0.99333	0.33463	0.255
Mof_C 	C 	0.10337	0.88493	0.33848	0.057
Mof_C 	C 	0.03527	0.82443	0.32503	0.014
Mof_H 	H 	0.99227	0.77853	0.33393	0.041
Mof_C 	C 	0.22887	0.03563	0.28583	-0.026
Mof_O 	O 	0.21527	0.03943	0.26303	-0.317
Mof_O 	O 	0.28997	0.08323	0.30013	-0.711
Mof_C 	C 	0.10947	0.87683	0.36841	0.073
Mof_C 	C 	0.17687	0.93673	0.38217	-0.058
Mof_H 	H 	0.22007	0.98313	0.37353	0.073
Mof_C 	C 	0.18097	0.92863	0.40857	-0.054
Mof_H 	H 	0.22707	0.96953	0.41793	0.076
Mof_C 	C 	0.11777	0.86063	0.42123	0.042
Mof_C 	C 	0.05037	0.80073	0.40747	0.043
Mof_H 	H 	0.00707	0.75413	0.41613	-0.03
Mof_C 	C 	0.04617	0.80873	0.38106	0.047
Mof_H 	H 	7e-05	0.76773	0.37163	-0.035
Mof_C 	C 	0.13447	0.85243	0.4492	0.021
Mof_C 	C 	0.17007	0.91903	0.46613	-0.05
Mof_H 	H 	0.18517	0.97313	0.46023	0.045
Mof_C 	C 	0.18337	0.90643	0.49156	-0.035
Mof_H 	H 	0.20777	0.95203	0.50313	0.037
Mof_C 	C 	0.16127	0.82733	0.5001	0.011
Mof_C 	C 	0.12567	0.76063	0.48323	-0.033
Mof_H 	H 	0.11047	0.70653	0.48903	0.054
Mof_C 	C 	0.11227	0.77323	0.45774	-0.037
Mof_H 	H 	0.08787	0.72753	0.44613	0.053
Mof_C 	C 	0.17137	0.80083	0.52796	0.016
Mof_C 	C 	0.11857	0.72693	0.54053	0.043
Mof_H 	H 	0.06857	0.68693	0.53243	0.021
Mof_C 	C 	0.13897	0.71153	0.56473	0.043
Mof_C 	C 	0.21217	0.77013	0.57653	0.022
Mof_H 	H 	0.22607	0.75953	0.59303	0.035
Mof_C 	C 	0.26497	0.84403	0.56393	-0.126
Mof_C 	C 	0.24457	0.85943	0.53973	-0.049
Mof_H 	H 	0.28067	0.90993	0.53113	0.006
Mof_C 	C 	0.08487	0.62873	0.57763	0.078
Mof_O 	O 	0.02687	0.57863	0.56373	-0.095
Mof_O 	O 	0.10547	0.61533	0.59923	0.032
Mof_C 	C 	0.34197	0.90243	0.57683	0.203
Mof_O 	O 	0.35827	0.88963	0.59983	-0.41
Mof_O 	O 	0.39817	0.96523	0.56403	-0.282
Mof_Cu	Cu	0.46683	0.51307	0.61737	-0.178
Mof_O 	O 	0.18133	0.95157	0.93377	0.025
Mof_Cu	Cu	0.51253	0.46487	0.57552	0.55
Mof_O 	O 	0.42443	0.54607	0.64977	0.332
Mof_O 	O 	0.42853	0.39987	0.62897	0.281
Mof_O 	O 	0.43813	0.02297	0.62827	0.359
Mof_O 	O 	0.19613	0.22107	0.93357	-0.356
Mof_C 	C 	0.21513	0.96627	0.91167	0.058
Mof_O 	O 	0.21763	0.91067	0.89737	-0.072
Mof_O 	O 	0.54933	0.43167	0.53967	-0.099
Mof_O 	O 	0.46873	0.36137	0.59477	0.056
Mof_O 	O 	0.46593	0.09957	0.59367	-0.027
Mof_O 	O 	0.23573	0.29917	0.89857	-0.272
Mof_C 	C 	0.44903	0.35487	0.61707	0.428
Mof_C 	C 	0.45023	0.08867	0.61647	0.302
Mof_C 	C 	0.22563	0.23837	0.91087	0.182
Mof_C 	C 	0.44073	0.28107	0.63147	-0.022
Mof_C 	C 	0.42833	0.27397	0.65787	-0.042
Mof_C 	C 	0.44723	0.22007	0.61802	-0.116
Mof_C 	C 	0.42243	0.20587	0.67083	-0.04
Mof_H 	H 	0.42393	0.31567	0.66707	0.028
Mof_C 	C 	0.44133	0.15197	0.63097	0.043
Mof_H 	H 	0.45573	0.22497	0.59997	-0.215
Mof_C 	C 	0.40513	0.19537	0.70038	-0.031
Mof_C 	C 	0.42893	0.14497	0.65737	-0.102
Mof_C 	C 	0.40023	0.25677	0.71412	-0.119
Mof_C 	C 	0.40083	0.12777	0.71317	0
Mof_H 	H 	0.42493	0.09837	0.66617	-0.148
Mof_C 	C 	0.39113	0.25067	0.74065	-0.098
Mof_H 	H 	0.40313	0.30297	0.70537	0.088
Mof_H 	H 	0.40413	0.08577	0.70377	-0.018
Mof_C 	C 	0.39173	0.12167	0.7397	-0.002
Mof_H 	H 	0.38783	0.29267	0.75007	0.07
Mof_C 	C 	0.38683	0.18317	0.75344	-0.011
Mof_H 	H 	0.38883	0.07547	0.74847	-0.026
Mof_C 	C 	0.36603	0.17737	0.78145	-0.002
Mof_C 	C 	0.31943	0.09807	0.79166	-0.03
Mof_C 	C 	0.39093	0.24637	0.79707	-0.03
Mof_C 	C 	0.29773	0.08787	0.81749	-0.045
Mof_H 	H 	0.30243	0.05087	0.78097	0.049
Mof_C 	C 	0.36923	0.23617	0.82287	-0.034
Mof_H 	H 	0.42273	0.30057	0.79007	0.037
Mof_C 	C 	0.32263	0.15687	0.83311	0.009
Mof_H 	H 	0.26593	0.03367	0.82447	0.056
Mof_H 	H 	0.38623	0.28337	0.83357	0.036
Mof_C 	C 	0.29143	0.13097	0.86146	0.009
Mof_C 	C 	0.27363	0.05907	0.87467	0.045
Mof_C 	C 	0.27753	0.19027	0.87307	-0.065
Mof_C 	C 	0.24213	0.04647	0.89947	0.051
Mof_H 	H 	0.28313	0.01857	0.86677	0.031
Mof_C 	C 	0.24603	0.17767	0.89787	-0.095
Mof_H 	H 	0.28973	0.23947	0.86407	0.019
Mof_C 	C 	0.22823	0.10577	0.91107	0.026
Mof_H 	H 	0.20673	0.09717	0.92807	0.024
Mof_Cu	Cu	0.51203	0.04737	0.57623	0.376
Mof_Cu	Cu	0.46553	0.95357	0.61777	1.088
Mof_O 	O 	0.54633	0.12267	0.54117	-0.115
Mof_O 	O 	0.42743	0.88397	0.65147	-0.524
Mof_O 	O 	0.57593	0.03437	0.63087	-0.554
Mof_O 	O 	0.61533	0.11417	0.59597	-0.39
Mof_C 	C 	0.62183	0.09747	0.61797	-0.213
Mof_C 	C 	0.69693	0.16457	0.63197	-0.033
Mof_C 	C 	0.75993	0.23187	0.61896	0.099
Mof_H 	H 	0.75643	0.23637	0.60087	0.283
Mof_C 	C 	0.82793	0.29217	0.63237	-0.007
Mof_C 	C 	0.83293	0.28537	0.65877	0.008
Mof_H 	H 	0.87943	0.32667	0.66797	0.258
Mof_C 	C 	0.77003	0.21827	0.67182	0.056
Mof_C 	C 	0.70193	0.15777	0.65837	0.011
Mof_H 	H 	0.65893	0.11187	0.66727	0.039
Mof_C 	C 	0.89553	0.36897	0.61917	-0.027
Mof_O 	O 	0.88193	0.37277	0.59637	-0.318
Mof_O 	O 	0.95663	0.41657	0.63347	-0.712
Mof_C 	C 	0.77613	0.21017	0.70175	0.072
Mof_C 	C 	0.84353	0.27007	0.71551	-0.058
Mof_H 	H 	0.88673	0.31647	0.70687	0.073
Mof_C 	C 	0.84763	0.26197	0.74191	-0.054
Mof_H 	H 	0.89373	0.30287	0.75127	0.077
Mof_C 	C 	0.78443	0.19397	0.75457	0.042
Mof_C 	C 	0.71703	0.13407	0.74081	0.043
Mof_H 	H 	0.67373	0.08747	0.74947	-0.03
Mof_C 	C 	0.71283	0.14207	0.7144	0.047
Mof_H 	H 	0.66673	0.10107	0.70497	-0.034
Mof_C 	C 	0.80113	0.18577	0.78254	0.021
Mof_C 	C 	0.83673	0.25237	0.79947	-0.05
Mof_H 	H 	0.85183	0.30647	0.79357	0.045
Mof_C 	C 	0.85003	0.23977	0.8249	-0.035
Mof_H 	H 	0.87443	0.28537	0.83647	0.037
Mof_C 	C 	0.82793	0.16067	0.83344	0.011
Mof_C 	C 	0.79233	0.09397	0.81657	-0.033
Mof_H 	H 	0.77713	0.03987	0.82237	0.054
Mof_C 	C 	0.77893	0.10657	0.79108	-0.037
Mof_H 	H 	0.75453	0.06087	0.77947	0.053
Mof_C 	C 	0.83803	0.13417	0.8613	0.016
Mof_C 	C 	0.78523	0.06027	0.87387	0.043
Mof_H 	H 	0.73523	0.02027	0.86577	0.02
Mof_C 	C 	0.80563	0.04487	0.89807	0.043
Mof_C 	C 	0.87883	0.10347	0.90987	0.022
Mof_H 	H 	0.89273	0.09287	0.92637	0.035
Mof_C 	C 	0.93163	0.17737	0.89727	-0.127
Mof_C 	C 	0.91123	0.19277	0.87307	-0.049
Mof_H 	H 	0.94733	0.24327	0.86447	0.006
Mof_C 	C 	0.75153	0.96207	0.91097	0.079
Mof_O 	O 	0.69353	0.91197	0.89707	-0.095
Mof_O 	O 	0.77213	0.94867	0.93257	0.033
Mof_C 	C 	0.00863	0.23577	0.91017	0.203
Mof_O 	O 	0.02493	0.22297	0.93317	-0.41
Mof_O 	O 	0.06483	0.29857	0.89737	-0.282
Mof_Cu	Cu	0.1536	0.2871	0.9507	-0.179
Mof_O 	O 	0.7151	0.5631	0.2671	0.026
Mof_Cu	Cu	0.2018	0.381	0.90885	0.55
Mof_O 	O 	0.1206	0.2117	0.9831	0.331
Mof_O 	O 	0.2668	0.362	0.9623	0.281
Mof_O 	O 	0.6437	0.7485	0.9616	0.359
Mof_O 	O 	0.4456	0.3084	0.2669	-0.356
Mof_C 	C 	0.7004	0.5822	0.245	0.057
Mof_O 	O 	0.756	0.6403	0.2307	-0.072
Mof_O 	O 	0.235	0.451	0.873	-0.099
Mof_O 	O 	0.3053	0.4407	0.9281	0.056
Mof_O 	O 	0.5671	0.6997	0.927	-0.027
Mof_O 	O 	0.3675	0.2699	0.2319	-0.272
Mof_C 	C 	0.3118	0.4275	0.9504	0.428
Mof_C 	C 	0.578	0.6949	0.9498	0.302
Mof_C 	C 	0.4283	0.3206	0.2442	0.182
Mof_C 	C 	0.3856	0.493	0.9648	-0.022
Mof_C 	C 	0.3927	0.4877	0.9912	-0.042
Mof_C 	C 	0.4466	0.5605	0.95135	-0.116
Mof_C 	C 	0.4608	0.5499	0.00416	-0.04
Mof_H 	H 	0.351	0.4416	0.0004	0.028
Mof_C 	C 	0.5147	0.6227	0.9643	0.043
Mof_H 	H 	0.4417	0.5641	0.9333	-0.215
Mof_C 	C 	0.4713	0.5431	0.03371	-0.031
Mof_C 	C 	0.5217	0.6173	0.9907	-0.103
Mof_C 	C 	0.4099	0.4768	0.04745	-0.119
Mof_C 	C 	0.5389	0.6064	0.0465	0
Mof_H 	H 	0.5683	0.6599	0.9995	-0.149
Mof_C 	C 	0.416	0.4738	0.07398	-0.098
Mof_H 	H 	0.3637	0.4335	0.0387	0.088
Mof_H 	H 	0.5809	0.6517	0.0371	-0.018
Mof_C 	C 	0.545	0.6034	0.07303	-0.002
Mof_H 	H 	0.374	0.4285	0.0834	0.07
Mof_C 	C 	0.4835	0.537	0.08677	-0.011
Mof_H 	H 	0.5912	0.6467	0.0818	-0.026
Mof_C 	C 	0.4893	0.522	0.11478	-0.002
Mof_C 	C 	0.5686	0.5547	0.12499	-0.03
Mof_C 	C 	0.4203	0.4779	0.1304	-0.03
Mof_C 	C 	0.5788	0.5432	0.15082	-0.044
Mof_H 	H 	0.6158	0.5849	0.1143	0.05
Mof_C 	C 	0.4305	0.4664	0.1562	-0.034
Mof_H 	H 	0.3661	0.4555	0.1234	0.037
Mof_C 	C 	0.5098	0.4991	0.16644	0.009
Mof_H 	H 	0.633	0.5656	0.1578	0.057
Mof_H 	H 	0.3833	0.4362	0.1669	0.036
Mof_C 	C 	0.5357	0.4938	0.19479	0.009
Mof_C 	C 	0.6076	0.5479	0.208	0.045
Mof_C 	C 	0.4764	0.4206	0.2064	-0.065
Mof_C 	C 	0.6202	0.529	0.2328	0.05
Mof_H 	H 	0.6481	0.5979	0.2001	0.031
Mof_C 	C 	0.489	0.4017	0.2312	-0.095
Mof_H 	H 	0.4272	0.3836	0.1974	0.019
Mof_C 	C 	0.5609	0.4558	0.2444	0.026
Mof_H 	H 	0.5695	0.4429	0.2614	0.024
Mof_Cu	Cu	0.6193	0.798	0.90956	0.376
Mof_Cu	Cu	0.7131	0.8453	0.9511	1.086
Mof_O 	O 	0.544	0.757	0.8745	-0.115
Mof_O 	O 	0.7827	0.8768	0.9848	-0.524
Mof_O 	O 	0.6323	0.8749	0.9642	-0.555
Mof_O 	O 	0.5525	0.8345	0.9293	-0.391
Mof_C 	C 	0.5692	0.8577	0.9513	-0.214
Mof_C 	C 	0.5021	0.8657	0.9653	-0.033
Mof_C 	C 	0.4348	0.8614	0.95229	0.099
Mof_H 	H 	0.4303	0.8534	0.9342	0.283
Mof_C 	C 	0.3745	0.8691	0.9657	-0.007
Mof_C 	C 	0.3813	0.8809	0.9921	0.007
Mof_H 	H 	0.34	0.8861	0.0013	0.257
Mof_C 	C 	0.4484	0.8851	0.00515	0.056
Mof_C 	C 	0.5089	0.8775	0.9917	0.011
Mof_H 	H 	0.5548	0.8804	0.0006	0.039
Mof_C 	C 	0.2977	0.8599	0.9525	-0.027
Mof_O 	O 	0.2939	0.8425	0.9297	-0.317
Mof_O 	O 	0.2501	0.8734	0.9668	-0.711
Mof_C 	C 	0.4565	0.8993	0.03508	0.072
Mof_C 	C 	0.3966	0.9068	0.04884	-0.059
Mof_H 	H 	0.3502	0.9036	0.0402	0.074
Mof_C 	C 	0.4047	0.919	0.07524	-0.055
Mof_H 	H 	0.3638	0.9242	0.0846	0.076
Mof_C 	C 	0.4727	0.9238	0.0879	0.042
Mof_C 	C 	0.5326	0.9163	0.07414	0.043
Mof_H 	H 	0.5792	0.9196	0.0828	-0.029
Mof_C 	C 	0.5246	0.9041	0.04773	0.046
Mof_H 	H 	0.5656	0.899	0.0383	-0.034
Mof_C 	C 	0.4809	0.9487	0.11587	0.019
Mof_C 	C 	0.4143	0.9177	0.1328	-0.049
Mof_H 	H 	0.3602	0.8787	0.1269	0.044
Mof_C 	C 	0.4269	0.9436	0.15823	-0.037
Mof_H 	H 	0.3813	0.9224	0.1698	0.037
Mof_C 	C 	0.506	0.0006	0.16677	0.011
Mof_C 	C 	0.5727	0.0317	0.1499	-0.034
Mof_H 	H 	0.6268	0.0706	0.1557	0.055
Mof_C 	C 	0.5601	0.0057	0.12441	-0.034
Mof_H 	H 	0.6058	0.027	0.1128	0.052
Mof_C 	C 	0.5325	0.0372	0.19463	0.016
Mof_C 	C 	0.6064	0.0583	0.2072	0.043
Mof_H 	H 	0.6464	0.0483	0.1991	0.021
Mof_C 	C 	0.6218	0.0941	0.2314	0.043
Mof_C 	C 	0.5632	0.1087	0.2432	0.022
Mof_H 	H 	0.5738	0.1332	0.2597	0.035
Mof_C 	C 	0.4893	0.0876	0.2306	-0.126
Mof_C 	C 	0.4739	0.0518	0.2064	-0.049
Mof_H 	H 	0.4234	0.0374	0.1978	0.006
Mof_C 	C 	0.7046	0.1228	0.2443	0.078
Mof_O 	O 	0.7547	0.1149	0.2304	-0.094
Mof_O 	O 	0.718	0.1568	0.2659	0.032
Mof_C 	C 	0.4309	0.1062	0.2435	0.203
Mof_O 	O 	0.4437	0.1353	0.2665	-0.41
Mof_O 	O 	0.3681	0.0996	0.2307	-0.282
Mof_Cu	Cu	0.82027	0.62043	0.28403	-0.183
Mof_O 	O 	0.38177	0.89643	0.60043	0.025
Mof_Cu	Cu	0.86847	0.71433	0.24218	0.551
Mof_O 	O 	0.78727	0.54503	0.31643	0.334
Mof_O 	O 	0.93347	0.69533	0.29563	0.284
Mof_O 	O 	0.31037	0.08183	0.29493	0.359
Mof_O 	O 	0.11227	0.64173	0.60023	-0.356
Mof_C 	C 	0.36707	0.91553	0.57833	0.057
Mof_O 	O 	0.42267	0.97363	0.56403	-0.072
Mof_O 	O 	0.90167	0.78433	0.20633	-0.1
Mof_O 	O 	0.97197	0.77403	0.26143	0.058
Mof_O 	O 	0.23377	0.03303	0.26033	-0.027
Mof_O 	O 	0.03417	0.60323	0.56523	-0.272
Mof_C 	C 	0.97847	0.76083	0.28373	0.43
Mof_C 	C 	0.24467	0.02823	0.28313	0.303
Mof_C 	C 	0.09497	0.65393	0.57753	0.181
Mof_C 	C 	0.05227	0.82633	0.29813	-0.023
Mof_C 	C 	0.05937	0.82103	0.32453	-0.044
Mof_C 	C 	0.11327	0.89383	0.28468	-0.114
Mof_C 	C 	0.12747	0.88323	0.33749	-0.041
Mof_H 	H 	0.01767	0.77493	0.33373	0.026
Mof_C 	C 	0.18137	0.95603	0.29763	0.042
Mof_H 	H 	0.10837	0.89743	0.26663	-0.214
Mof_C 	C 	0.13797	0.87643	0.36704	-0.032
Mof_C 	C 	0.18837	0.95063	0.32403	-0.101
Mof_C 	C 	0.07657	0.81013	0.38078	-0.119
Mof_C 	C 	0.20557	0.93973	0.37983	-0
Mof_H 	H 	0.23497	0.99323	0.33283	-0.147
Mof_C 	C 	0.08267	0.80713	0.40731	-0.098
Mof_H 	H 	0.03037	0.76683	0.37203	0.089
Mof_H 	H 	0.24757	0.98503	0.37043	-0.018
Mof_C 	C 	0.21167	0.93673	0.40636	-0.002
Mof_H 	H 	0.04067	0.76183	0.41673	0.07
Mof_C 	C 	0.15017	0.87033	0.4201	-0.011
Mof_H 	H 	0.25787	0.98003	0.41513	-0.026
Mof_C 	C 	0.15597	0.85533	0.44811	-0.002
Mof_C 	C 	0.23527	0.88803	0.45832	-0.029
Mof_C 	C 	0.08697	0.81123	0.46373	-0.03
Mof_C 	C 	0.24547	0.87653	0.48415	-0.045
Mof_H 	H 	0.28247	0.91823	0.44763	0.05
Mof_C 	C 	0.09717	0.79973	0.48953	-0.035
Mof_H 	H 	0.03277	0.78883	0.45673	0.037
Mof_C 	C 	0.17647	0.83243	0.49977	0.009
Mof_H 	H 	0.29967	0.89893	0.49113	0.057
Mof_H 	H 	0.04997	0.76953	0.50023	0.036
Mof_C 	C 	0.20237	0.82713	0.52812	0.009
Mof_C 	C 	0.27427	0.88123	0.54133	0.045
Mof_C 	C 	0.14307	0.75393	0.53973	-0.065
Mof_C 	C 	0.28687	0.86233	0.56613	0.05
Mof_H 	H 	0.31477	0.93123	0.53343	0.031
Mof_C 	C 	0.15567	0.73503	0.56453	-0.095
Mof_H 	H 	0.09387	0.71693	0.53073	0.019
Mof_C 	C 	0.22757	0.78913	0.57773	0.026
Mof_H 	H 	0.23617	0.77623	0.59473	0.024
Mof_Cu	Cu	0.28597	0.13133	0.24289	0.376
Mof_Cu	Cu	0.37977	0.17863	0.28443	1.087
Mof_O 	O 	0.21067	0.09033	0.20783	-0.115
Mof_O 	O 	0.44937	0.21013	0.31813	-0.524
Mof_O 	O 	0.29897	0.20823	0.29753	-0.554
Mof_O 	O 	0.21917	0.16783	0.26263	-0.391
Mof_C 	C 	0.23587	0.19103	0.28463	-0.213
Mof_C 	C 	0.16877	0.19903	0.29863	-0.033
Mof_C 	C 	0.10147	0.19473	0.28562	0.1
Mof_H 	H 	0.09697	0.18673	0.26753	0.284
Mof_C 	C 	0.04117	0.20243	0.29903	-0.007
Mof_C 	C 	0.04797	0.21423	0.32543	0.008
Mof_H 	H 	0.00667	0.21943	0.33463	0.259
Mof_C 	C 	0.11507	0.21843	0.33848	0.057
Mof_C 	C 	0.17557	0.21083	0.32503	0.011
Mof_H 	H 	0.22147	0.21373	0.33393	0.039
Mof_C 	C 	0.96437	0.19323	0.28583	-0.027
Mof_O 	O 	0.96057	0.17583	0.26303	-0.318
Mof_O 	O 	0.91677	0.20673	0.30013	-0.713
Mof_C 	C 	0.12317	0.23263	0.36841	0.073
Mof_C 	C 	0.06327	0.24013	0.38217	-0.058
Mof_H 	H 	0.01687	0.23693	0.37353	0.073
Mof_C 	C 	0.07137	0.25233	0.40857	-0.054
Mof_H 	H 	0.03047	0.25753	0.41793	0.076
Mof_C 	C 	0.13937	0.25713	0.42123	0.042
Mof_C 	C 	0.19927	0.24963	0.40747	0.043
Mof_H 	H 	0.24587	0.25293	0.41613	-0.029
Mof_C 	C 	0.19127	0.23743	0.38106	0.047
Mof_H 	H 	0.23227	0.23233	0.37163	-0.034
Mof_C 	C 	0.14757	0.28203	0.4492	0.021
Mof_C 	C 	0.08097	0.25103	0.46613	-0.05
Mof_H 	H 	0.02687	0.21203	0.46023	0.045
Mof_C 	C 	0.09357	0.27693	0.49156	-0.035
Mof_H 	H 	0.04797	0.25573	0.50313	0.037
Mof_C 	C 	0.17267	0.33393	0.5001	0.011
Mof_C 	C 	0.23937	0.36503	0.48323	-0.033
Mof_H 	H 	0.29347	0.40393	0.48903	0.054
Mof_C 	C 	0.22677	0.33903	0.45774	-0.037
Mof_H 	H 	0.27247	0.36033	0.44613	0.053
Mof_C 	C 	0.19917	0.37053	0.52796	0.016
Mof_C 	C 	0.27307	0.39163	0.54053	0.043
Mof_H 	H 	0.31307	0.38163	0.53243	0.02
Mof_C 	C 	0.28847	0.42743	0.56473	0.043
Mof_C 	C 	0.22987	0.44203	0.57653	0.021
Mof_H 	H 	0.24047	0.46653	0.59303	0.035
Mof_C 	C 	0.15597	0.42093	0.56393	-0.126
Mof_C 	C 	0.14057	0.38513	0.53973	-0.049
Mof_H 	H 	0.09007	0.37073	0.53113	0.006
Mof_C 	C 	0.37127	0.45613	0.57763	0.078
Mof_O 	O 	0.42137	0.44823	0.56373	-0.095
Mof_O 	O 	0.38467	0.49013	0.59923	0.032
Mof_C 	C 	0.09757	0.43953	0.57683	0.203
Mof_O 	O 	0.11037	0.46863	0.59983	-0.41
Mof_O 	O 	0.03477	0.43293	0.56403	-0.282
Mof_Cu	Cu	0.48693	0.95377	0.61737	-0.18
Mof_O 	O 	0.04843	0.22977	0.93377	0.025
Mof_Cu	Cu	0.53513	0.04767	0.57552	0.55
Mof_O 	O 	0.45393	0.87837	0.64977	0.332
Mof_O 	O 	0.60013	0.02867	0.62897	0.28
Mof_O 	O 	0.97703	0.41517	0.62827	0.359
Mof_O 	O 	0.77893	0.97507	0.93357	-0.356
Mof_C 	C 	0.03373	0.24887	0.91167	0.058
Mof_O 	O 	0.08933	0.30697	0.89737	-0.072
Mof_O 	O 	0.56833	0.11767	0.53967	-0.099
Mof_O 	O 	0.63863	0.10737	0.59477	0.055
Mof_O 	O 	0.90043	0.36637	0.59367	-0.027
Mof_O 	O 	0.70083	0.93657	0.89857	-0.272
Mof_C 	C 	0.64513	0.09417	0.61707	0.428
Mof_C 	C 	0.91133	0.36157	0.61647	0.302
Mof_C 	C 	0.76163	0.98727	0.91087	0.181
Mof_C 	C 	0.71893	0.15967	0.63147	-0.022
Mof_C 	C 	0.72603	0.15437	0.65787	-0.042
Mof_C 	C 	0.77993	0.22717	0.61802	-0.115
Mof_C 	C 	0.79413	0.21657	0.67083	-0.04
Mof_H 	H 	0.68433	0.10827	0.66707	0.028
Mof_C 	C 	0.84803	0.28937	0.63097	0.043
Mof_H 	H 	0.77503	0.23077	0.59997	-0.215
Mof_C 	C 	0.80463	0.20977	0.70038	-0.031
Mof_C 	C 	0.85503	0.28397	0.65737	-0.103
Mof_C 	C 	0.74323	0.14347	0.71412	-0.118
Mof_C 	C 	0.87223	0.27307	0.71317	0
Mof_H 	H 	0.90163	0.32657	0.66617	-0.149
Mof_C 	C 	0.74933	0.14047	0.74065	-0.098
Mof_H 	H 	0.69703	0.10017	0.70537	0.088
Mof_H 	H 	0.91423	0.31837	0.70377	-0.019
Mof_C 	C 	0.87833	0.27007	0.7397	-0.002
Mof_H 	H 	0.70733	0.09517	0.75007	0.07
Mof_C 	C 	0.81683	0.20367	0.75344	-0.011
Mof_H 	H 	0.92453	0.31337	0.74847	-0.027
Mof_C 	C 	0.82263	0.18867	0.78145	-0.002
Mof_C 	C 	0.90193	0.22137	0.79166	-0.03
Mof_C 	C 	0.75363	0.14457	0.79707	-0.03
Mof_C 	C 	0.91213	0.20987	0.81749	-0.045
Mof_H 	H 	0.94913	0.25157	0.78097	0.049
Mof_C 	C 	0.76383	0.13307	0.82287	-0.034
Mof_H 	H 	0.69943	0.12217	0.79007	0.037
Mof_C 	C 	0.84313	0.16577	0.83311	0.009
Mof_H 	H 	0.96633	0.23227	0.82447	0.056
Mof_H 	H 	0.71663	0.10287	0.83357	0.036
Mof_C 	C 	0.86903	0.16047	0.86146	0.009
Mof_C 	C 	0.94093	0.21457	0.87467	0.045
Mof_C 	C 	0.80973	0.08727	0.87307	-0.066
Mof_C 	C 	0.95353	0.19567	0.89947	0.051
Mof_H 	H 	0.98143	0.26457	0.86677	0.031
Mof_C 	C 	0.82233	0.06837	0.89787	-0.095
Mof_H 	H 	0.76053	0.05027	0.86407	0.02
Mof_C 	C 	0.89423	0.12247	0.91107	0.026
Mof_H 	H 	0.90283	0.10957	0.92807	0.024
Mof_Cu	Cu	0.95263	0.46467	0.57623	0.375
Mof_Cu	Cu	0.04643	0.51197	0.61777	1.087
Mof_O 	O 	0.87733	0.42367	0.54117	-0.115
Mof_O 	O 	0.11603	0.54347	0.65147	-0.525
Mof_O 	O 	0.96563	0.54157	0.63087	-0.554
Mof_O 	O 	0.88583	0.50117	0.59597	-0.391
Mof_C 	C 	0.90253	0.52437	0.61797	-0.213
Mof_C 	C 	0.83543	0.53237	0.63197	-0.033
Mof_C 	C 	0.76813	0.52807	0.61896	0.099
Mof_H 	H 	0.76363	0.52007	0.60087	0.283
Mof_C 	C 	0.70783	0.53577	0.63237	-0.006
Mof_C 	C 	0.71463	0.54757	0.65877	0.008
Mof_H 	H 	0.67333	0.55277	0.66797	0.258
Mof_C 	C 	0.78173	0.55177	0.67182	0.056
Mof_C 	C 	0.84223	0.54417	0.65837	0.011
Mof_H 	H 	0.88813	0.54707	0.66727	0.039
Mof_C 	C 	0.63103	0.52657	0.61917	-0.027
Mof_O 	O 	0.62723	0.50917	0.59637	-0.317
Mof_O 	O 	0.58343	0.54007	0.63347	-0.711
Mof_C 	C 	0.78983	0.56597	0.70175	0.072
Mof_C 	C 	0.72993	0.57347	0.71551	-0.058
Mof_H 	H 	0.68353	0.57027	0.70687	0.073
Mof_C 	C 	0.73803	0.58567	0.74191	-0.054
Mof_H 	H 	0.69713	0.59087	0.75127	0.076
Mof_C 	C 	0.80603	0.59047	0.75457	0.042
Mof_C 	C 	0.86593	0.58297	0.74081	0.043
Mof_H 	H 	0.91253	0.58627	0.74947	-0.03
Mof_C 	C 	0.85793	0.57077	0.7144	0.047
Mof_H 	H 	0.89893	0.56567	0.70497	-0.034
Mof_C 	C 	0.81423	0.61537	0.78254	0.021
Mof_C 	C 	0.74763	0.58437	0.79947	-0.05
Mof_H 	H 	0.69353	0.54537	0.79357	0.045
Mof_C 	C 	0.76023	0.61027	0.8249	-0.035
Mof_H 	H 	0.71463	0.58907	0.83647	0.037
Mof_C 	C 	0.83933	0.66727	0.83344	0.011
Mof_C 	C 	0.90603	0.69837	0.81657	-0.033
Mof_H 	H 	0.96013	0.73727	0.82237	0.054
Mof_C 	C 	0.89343	0.67237	0.79108	-0.037
Mof_H 	H 	0.93913	0.69367	0.77947	0.053
Mof_C 	C 	0.86583	0.70387	0.8613	0.016
Mof_C 	C 	0.93973	0.72497	0.87387	0.043
Mof_H 	H 	0.97973	0.71497	0.86577	0.02
Mof_C 	C 	0.95513	0.76077	0.89807	0.043
Mof_C 	C 	0.89653	0.77537	0.90987	0.022
Mof_H 	H 	0.90713	0.79987	0.92637	0.035
Mof_C 	C 	0.82263	0.75427	0.89727	-0.126
Mof_C 	C 	0.80723	0.71847	0.87307	-0.049
Mof_H 	H 	0.75673	0.70407	0.86447	0.006
Mof_C 	C 	0.03793	0.78947	0.91097	0.079
Mof_O 	O 	0.08803	0.78157	0.89707	-0.095
Mof_O 	O 	0.05133	0.82347	0.93257	0.033
Mof_C 	C 	0.76423	0.77287	0.91017	0.203
Mof_O 	O 	0.77703	0.80197	0.93317	-0.41
Mof_O 	O 	0.70143	0.76627	0.89737	-0.282
_end
