data_functionalizedCrystal
_audit_creation_method	'EQeq! by Chris Wilmer'
_symmetry_space_group_name_H-M	'P1'
_symmetry_Int_Tables_number	1
_symmetry_cell_setting	triclinic
loop_
_symmetry_equiv_pos_as_xyz
  x,y,z
_cell_length_a	26.865
_cell_length_b	26.865
_cell_length_c	26.865
_cell_angle_alpha	90
_cell_angle_beta	90
_cell_angle_gamma	90
loop_
_atom_site_label
_atom_site_type_symbol
_atom_site_fract_x
_atom_site_fract_y
_atom_site_fract_z
_atom_site_charge
Mof_O 	O 	0.9469	0.5011	0.0834	-0.645
Mof_O 	O 	0.0216	0.5302	0.0897	-0.478
Mof_O 	O 	0.9715	0.5834	0.3409	-0.487
Mof_O 	O 	0.8923	0.5802	0.3257	-0.522
Mof_C 	C 	0.9807	0.5232	0.1084	0.463
Mof_C 	C 	0.969	0.5403	0.1595	-0.029
Mof_C 	C 	0.0076	0.5514	0.1917	-0.066
Mof_C 	C 	0.9971	0.5648	0.2414	0.252
Mof_C 	C 	0.9478	0.568	0.2572	-0.252
Mof_C 	C 	0.9098	0.5576	0.2239	0.233
Mof_C 	C 	0.9214	0.5439	0.1761	-0.161
Mof_H 	H 	0.8956	0.5367	0.1541	0.077
Mof_C 	C 	0.936	0.5778	0.3112	0.409
Mof_N 	N 	0.0375	0.5786	0.2684	-0.356
Mof_H 	H 	0.0337	0.5905	0.2979	0.169
Mof_H 	H 	0.0669	0.5755	0.2561	0.145
Mof_N 	N 	0.059	0.5442	0.1827	-0.269
Mof_H 	H 	0.0688	0.5318	0.1548	0.155
Mof_H 	H 	0.0805	0.5522	0.205	0.119
Mof_N 	N 	0.8614	0.5611	0.2343	-0.351
Mof_H 	H 	0.8397	0.5548	0.2117	0.153
Mof_H 	H 	0.852	0.5696	0.2637	0.187
Mof_O 	O 	0.4469	0.0011	0.5834	-0.676
Mof_O 	O 	0.5216	0.0302	0.5897	-0.46
Mof_O 	O 	0.4715	0.0834	0.8409	-0.507
Mof_O 	O 	0.3923	0.0802	0.8257	-0.52
Mof_C 	C 	0.4807	0.0232	0.6084	0.436
Mof_C 	C 	0.469	0.0403	0.6595	-0.121
Mof_C 	C 	0.5076	0.0514	0.6917	0.059
Mof_C 	C 	0.4971	0.0648	0.7414	0.126
Mof_C 	C 	0.4478	0.068	0.7572	-0.209
Mof_C 	C 	0.4098	0.0576	0.7239	0.182
Mof_C 	C 	0.4214	0.0439	0.6761	-0.105
Mof_H 	H 	0.3956	0.0367	0.6541	0.05
Mof_C 	C 	0.436	0.0778	0.8112	0.388
Mof_N 	N 	0.5375	0.0786	0.7684	-0.311
Mof_H 	H 	0.5337	0.0905	0.7979	0.168
Mof_H 	H 	0.5669	0.0755	0.7561	0.131
Mof_N 	N 	0.559	0.0442	0.6827	-0.29
Mof_H 	H 	0.5688	0.0318	0.6548	0.156
Mof_H 	H 	0.5805	0.0522	0.705	0.123
Mof_N 	N 	0.3614	0.0611	0.7343	-0.338
Mof_H 	H 	0.3397	0.0548	0.7117	0.141
Mof_H 	H 	0.352	0.0696	0.7637	0.176
Mof_O 	O 	0.5531	0.4989	0.5834	-0.658
Mof_O 	O 	0.4784	0.4698	0.5897	-0.459
Mof_O 	O 	0.5285	0.4166	0.8409	-0.503
Mof_O 	O 	0.6077	0.4198	0.8257	-0.517
Mof_C 	C 	0.5193	0.4768	0.6084	0.435
Mof_C 	C 	0.531	0.4597	0.6595	-0.11
Mof_C 	C 	0.4924	0.4486	0.6917	0.062
Mof_C 	C 	0.5029	0.4352	0.7414	0.135
Mof_C 	C 	0.5522	0.432	0.7572	-0.208
Mof_C 	C 	0.5902	0.4424	0.7239	0.194
Mof_C 	C 	0.5786	0.4561	0.6761	-0.108
Mof_H 	H 	0.6044	0.4633	0.6541	0.061
Mof_C 	C 	0.564	0.4222	0.8112	0.394
Mof_N 	N 	0.4625	0.4214	0.7684	-0.313
Mof_H 	H 	0.4663	0.4095	0.7979	0.173
Mof_H 	H 	0.4331	0.4245	0.7561	0.137
Mof_N 	N 	0.441	0.4558	0.6827	-0.291
Mof_H 	H 	0.4312	0.4682	0.6548	0.165
Mof_H 	H 	0.4195	0.4478	0.705	0.13
Mof_N 	N 	0.6386	0.4389	0.7343	-0.341
Mof_H 	H 	0.6603	0.4452	0.7117	0.151
Mof_H 	H 	0.648	0.4304	0.7637	0.183
Mof_O 	O 	0.0531	0.9989	0.0834	-0.595
Mof_O 	O 	0.9784	0.9698	0.0897	-0.37
Mof_O 	O 	0.0285	0.9166	0.3409	-0.506
Mof_O 	O 	0.1077	0.9198	0.3257	-0.504
Mof_C 	C 	0.0193	0.9768	0.1084	0.392
Mof_C 	C 	0.031	0.9597	0.1595	-0.173
Mof_C 	C 	0.9924	0.9486	0.1917	0.185
Mof_C 	C 	0.0029	0.9352	0.2414	0.031
Mof_C 	C 	0.0522	0.932	0.2572	-0.165
Mof_C 	C 	0.0902	0.9424	0.2239	0.17
Mof_C 	C 	0.0786	0.9561	0.1761	-0.063
Mof_H 	H 	0.1044	0.9633	0.1541	0.056
Mof_C 	C 	0.064	0.9222	0.3112	0.384
Mof_N 	N 	0.9625	0.9214	0.2684	-0.273
Mof_H 	H 	0.9663	0.9095	0.2979	0.182
Mof_H 	H 	0.9331	0.9245	0.2561	0.134
Mof_N 	N 	0.941	0.9558	0.1827	-0.315
Mof_H 	H 	0.9312	0.9682	0.1548	0.185
Mof_H 	H 	0.9195	0.9478	0.205	0.149
Mof_N 	N 	0.1386	0.9389	0.2343	-0.335
Mof_H 	H 	0.1603	0.9452	0.2117	0.158
Mof_H 	H 	0.148	0.9304	0.2637	0.187
Mof_O 	O 	0.0531	0.0011	0.4166	-0.662
Mof_O 	O 	0.9784	0.0302	0.4103	-0.405
Mof_O 	O 	0.0285	0.0834	0.1591	-0.511
Mof_O 	O 	0.1077	0.0802	0.1743	-0.504
Mof_C 	C 	0.0193	0.0232	0.3916	0.4
Mof_C 	C 	0.031	0.0403	0.3405	-0.202
Mof_C 	C 	0.9924	0.0514	0.3083	0.187
Mof_C 	C 	0.0029	0.0648	0.2586	0.008
Mof_C 	C 	0.0522	0.068	0.2428	-0.164
Mof_C 	C 	0.0902	0.0576	0.2761	0.142
Mof_C 	C 	0.0786	0.0439	0.3239	-0.052
Mof_H 	H 	0.1044	0.0367	0.3459	0.034
Mof_C 	C 	0.064	0.0778	0.1888	0.371
Mof_N 	N 	0.9625	0.0786	0.2316	-0.268
Mof_H 	H 	0.9663	0.0905	0.2021	0.174
Mof_H 	H 	0.9331	0.0755	0.2439	0.123
Mof_N 	N 	0.941	0.0442	0.3173	-0.314
Mof_H 	H 	0.9312	0.0318	0.3452	0.167
Mof_H 	H 	0.9195	0.0522	0.295	0.135
Mof_N 	N 	0.1386	0.0611	0.2657	-0.328
Mof_H 	H 	0.1603	0.0548	0.2883	0.138
Mof_H 	H 	0.148	0.0696	0.2363	0.173
Mof_O 	O 	0.5531	0.5011	0.9166	-0.64
Mof_O 	O 	0.4784	0.5302	0.9103	-0.443
Mof_O 	O 	0.5285	0.5834	0.6591	-0.499
Mof_O 	O 	0.6077	0.5802	0.6743	-0.513
Mof_C 	C 	0.5193	0.5232	0.8916	0.43
Mof_C 	C 	0.531	0.5403	0.8405	-0.108
Mof_C 	C 	0.4924	0.5514	0.8083	0.061
Mof_C 	C 	0.5029	0.5648	0.7586	0.135
Mof_C 	C 	0.5522	0.568	0.7428	-0.208
Mof_C 	C 	0.5902	0.5576	0.7761	0.195
Mof_C 	C 	0.5786	0.5439	0.8239	-0.109
Mof_H 	H 	0.6044	0.5367	0.8459	0.062
Mof_C 	C 	0.564	0.5778	0.6888	0.394
Mof_N 	N 	0.4625	0.5786	0.7316	-0.313
Mof_H 	H 	0.4663	0.5905	0.7021	0.173
Mof_H 	H 	0.4331	0.5755	0.7439	0.137
Mof_N 	N 	0.441	0.5442	0.8173	-0.291
Mof_H 	H 	0.4312	0.5318	0.8452	0.165
Mof_H 	H 	0.4195	0.5522	0.795	0.13
Mof_N 	N 	0.6386	0.5611	0.7657	-0.342
Mof_H 	H 	0.6603	0.5548	0.7883	0.151
Mof_H 	H 	0.648	0.5696	0.7363	0.184
Mof_O 	O 	0.4469	0.9989	0.9166	-0.6
Mof_O 	O 	0.5216	0.9698	0.9103	-0.417
Mof_O 	O 	0.4715	0.9166	0.6591	-0.495
Mof_O 	O 	0.3923	0.9198	0.6743	-0.511
Mof_C 	C 	0.4807	0.9768	0.8916	0.424
Mof_C 	C 	0.469	0.9597	0.8405	-0.094
Mof_C 	C 	0.5076	0.9486	0.8083	0.063
Mof_C 	C 	0.4971	0.9352	0.7586	0.145
Mof_C 	C 	0.4478	0.932	0.7428	-0.208
Mof_C 	C 	0.4098	0.9424	0.7761	0.208
Mof_C 	C 	0.4214	0.9561	0.8239	-0.114
Mof_H 	H 	0.3956	0.9633	0.8459	0.073
Mof_C 	C 	0.436	0.9222	0.6888	0.399
Mof_N 	N 	0.5375	0.9214	0.7316	-0.314
Mof_H 	H 	0.5337	0.9095	0.7021	0.178
Mof_H 	H 	0.5669	0.9245	0.7439	0.143
Mof_N 	N 	0.559	0.9558	0.8173	-0.292
Mof_H 	H 	0.5688	0.9682	0.8452	0.174
Mof_H 	H 	0.5805	0.9478	0.795	0.137
Mof_N 	N 	0.3614	0.9389	0.7657	-0.345
Mof_H 	H 	0.3397	0.9452	0.7883	0.161
Mof_H 	H 	0.352	0.9304	0.7363	0.19
Mof_O 	O 	0.9469	0.4989	0.4166	-0.65
Mof_O 	O 	0.0216	0.4698	0.4103	-0.487
Mof_O 	O 	0.9715	0.4166	0.1591	-0.482
Mof_O 	O 	0.8923	0.4198	0.1743	-0.517
Mof_C 	C 	0.9807	0.4768	0.3916	0.465
Mof_C 	C 	0.969	0.4597	0.3405	-0.027
Mof_C 	C 	0.0076	0.4486	0.3083	-0.065
Mof_C 	C 	0.9971	0.4352	0.2586	0.253
Mof_C 	C 	0.9478	0.432	0.2428	-0.252
Mof_C 	C 	0.9098	0.4424	0.2761	0.234
Mof_C 	C 	0.9214	0.4561	0.3239	-0.161
Mof_H 	H 	0.8956	0.4633	0.3459	0.077
Mof_C 	C 	0.936	0.4222	0.1888	0.408
Mof_N 	N 	0.0375	0.4214	0.2316	-0.356
Mof_H 	H 	0.0337	0.4095	0.2021	0.169
Mof_H 	H 	0.0669	0.4245	0.2439	0.145
Mof_N 	N 	0.059	0.4558	0.3173	-0.268
Mof_H 	H 	0.0688	0.4682	0.3452	0.154
Mof_H 	H 	0.0805	0.4478	0.295	0.118
Mof_N 	N 	0.8614	0.4389	0.2657	-0.351
Mof_H 	H 	0.8397	0.4452	0.2883	0.154
Mof_H 	H 	0.852	0.4304	0.2363	0.187
Mof_O 	O 	0.0834	0.9469	0.5011	-0.644
Mof_O 	O 	0.0897	0.0216	0.5302	-0.477
Mof_O 	O 	0.3409	0.9715	0.5834	-0.486
Mof_O 	O 	0.3257	0.8923	0.5802	-0.521
Mof_C 	C 	0.1084	0.9807	0.5232	0.464
Mof_C 	C 	0.1595	0.969	0.5403	-0.028
Mof_C 	C 	0.1917	0.0076	0.5514	-0.065
Mof_C 	C 	0.2414	0.9971	0.5648	0.252
Mof_C 	C 	0.2572	0.9478	0.568	-0.252
Mof_C 	C 	0.2239	0.9098	0.5576	0.233
Mof_C 	C 	0.1761	0.9214	0.5439	-0.161
Mof_H 	H 	0.1541	0.8956	0.5367	0.077
Mof_C 	C 	0.3112	0.936	0.5778	0.409
Mof_N 	N 	0.2684	0.0375	0.5786	-0.356
Mof_H 	H 	0.2979	0.0337	0.5905	0.169
Mof_H 	H 	0.2561	0.0669	0.5755	0.145
Mof_N 	N 	0.1827	0.059	0.5442	-0.269
Mof_H 	H 	0.1548	0.0688	0.5318	0.155
Mof_H 	H 	0.205	0.0805	0.5522	0.119
Mof_N 	N 	0.2343	0.8614	0.5611	-0.351
Mof_H 	H 	0.2117	0.8397	0.5548	0.153
Mof_H 	H 	0.2637	0.852	0.5696	0.187
Mof_O 	O 	0.5834	0.4469	0.0011	-0.676
Mof_O 	O 	0.5897	0.5216	0.0302	-0.46
Mof_O 	O 	0.8409	0.4715	0.0834	-0.507
Mof_O 	O 	0.8257	0.3923	0.0802	-0.52
Mof_C 	C 	0.6084	0.4807	0.0232	0.436
Mof_C 	C 	0.6595	0.469	0.0403	-0.121
Mof_C 	C 	0.6917	0.5076	0.0514	0.059
Mof_C 	C 	0.7414	0.4971	0.0648	0.126
Mof_C 	C 	0.7572	0.4478	0.068	-0.209
Mof_C 	C 	0.7239	0.4098	0.0576	0.182
Mof_C 	C 	0.6761	0.4214	0.0439	-0.105
Mof_H 	H 	0.6541	0.3956	0.0367	0.05
Mof_C 	C 	0.8112	0.436	0.0778	0.388
Mof_N 	N 	0.7684	0.5375	0.0786	-0.311
Mof_H 	H 	0.7979	0.5337	0.0905	0.168
Mof_H 	H 	0.7561	0.5669	0.0755	0.131
Mof_N 	N 	0.6827	0.559	0.0442	-0.29
Mof_H 	H 	0.6548	0.5688	0.0318	0.156
Mof_H 	H 	0.705	0.5805	0.0522	0.123
Mof_N 	N 	0.7343	0.3614	0.0611	-0.338
Mof_H 	H 	0.7117	0.3397	0.0548	0.141
Mof_H 	H 	0.7637	0.352	0.0696	0.176
Mof_O 	O 	0.5834	0.5531	0.4989	-0.658
Mof_O 	O 	0.5897	0.4784	0.4698	-0.459
Mof_O 	O 	0.8409	0.5285	0.4166	-0.503
Mof_O 	O 	0.8257	0.6077	0.4198	-0.517
Mof_C 	C 	0.6084	0.5193	0.4768	0.435
Mof_C 	C 	0.6595	0.531	0.4597	-0.11
Mof_C 	C 	0.6917	0.4924	0.4486	0.062
Mof_C 	C 	0.7414	0.5029	0.4352	0.135
Mof_C 	C 	0.7572	0.5522	0.432	-0.208
Mof_C 	C 	0.7239	0.5902	0.4424	0.194
Mof_C 	C 	0.6761	0.5786	0.4561	-0.108
Mof_H 	H 	0.6541	0.6044	0.4633	0.061
Mof_C 	C 	0.8112	0.564	0.4222	0.394
Mof_N 	N 	0.7684	0.4625	0.4214	-0.313
Mof_H 	H 	0.7979	0.4663	0.4095	0.173
Mof_H 	H 	0.7561	0.4331	0.4245	0.137
Mof_N 	N 	0.6827	0.441	0.4558	-0.291
Mof_H 	H 	0.6548	0.4312	0.4682	0.165
Mof_H 	H 	0.705	0.4195	0.4478	0.13
Mof_N 	N 	0.7343	0.6386	0.4389	-0.341
Mof_H 	H 	0.7117	0.6603	0.4452	0.151
Mof_H 	H 	0.7637	0.648	0.4304	0.183
Mof_O 	O 	0.0834	0.0531	0.9989	-0.595
Mof_O 	O 	0.0897	0.9784	0.9698	-0.37
Mof_O 	O 	0.3409	0.0285	0.9166	-0.506
Mof_O 	O 	0.3257	0.1077	0.9198	-0.504
Mof_C 	C 	0.1084	0.0193	0.9768	0.392
Mof_C 	C 	0.1595	0.031	0.9597	-0.173
Mof_C 	C 	0.1917	0.9924	0.9486	0.185
Mof_C 	C 	0.2414	0.0029	0.9352	0.031
Mof_C 	C 	0.2572	0.0522	0.932	-0.165
Mof_C 	C 	0.2239	0.0902	0.9424	0.17
Mof_C 	C 	0.1761	0.0786	0.9561	-0.063
Mof_H 	H 	0.1541	0.1044	0.9633	0.056
Mof_C 	C 	0.3112	0.064	0.9222	0.384
Mof_N 	N 	0.2684	0.9625	0.9214	-0.273
Mof_H 	H 	0.2979	0.9663	0.9095	0.182
Mof_H 	H 	0.2561	0.9331	0.9245	0.134
Mof_N 	N 	0.1827	0.941	0.9558	-0.315
Mof_H 	H 	0.1548	0.9312	0.9682	0.185
Mof_H 	H 	0.205	0.9195	0.9478	0.149
Mof_N 	N 	0.2343	0.1386	0.9389	-0.335
Mof_H 	H 	0.2117	0.1603	0.9452	0.158
Mof_H 	H 	0.2637	0.148	0.9304	0.187
Mof_O 	O 	0.4166	0.0531	0.0011	-0.662
Mof_O 	O 	0.4103	0.9784	0.0302	-0.405
Mof_O 	O 	0.1591	0.0285	0.0834	-0.511
Mof_O 	O 	0.1743	0.1077	0.0802	-0.504
Mof_C 	C 	0.3916	0.0193	0.0232	0.4
Mof_C 	C 	0.3405	0.031	0.0403	-0.202
Mof_C 	C 	0.3083	0.9924	0.0514	0.187
Mof_C 	C 	0.2586	0.0029	0.0648	0.008
Mof_C 	C 	0.2428	0.0522	0.068	-0.164
Mof_C 	C 	0.2761	0.0902	0.0576	0.142
Mof_C 	C 	0.3239	0.0786	0.0439	-0.052
Mof_H 	H 	0.3459	0.1044	0.0367	0.034
Mof_C 	C 	0.1888	0.064	0.0778	0.371
Mof_N 	N 	0.2316	0.9625	0.0786	-0.268
Mof_H 	H 	0.2021	0.9663	0.0905	0.174
Mof_H 	H 	0.2439	0.9331	0.0755	0.123
Mof_N 	N 	0.3173	0.941	0.0442	-0.314
Mof_H 	H 	0.3452	0.9312	0.0318	0.167
Mof_H 	H 	0.295	0.9195	0.0522	0.135
Mof_N 	N 	0.2657	0.1386	0.0611	-0.328
Mof_H 	H 	0.2883	0.1603	0.0548	0.138
Mof_H 	H 	0.2363	0.148	0.0696	0.173
Mof_O 	O 	0.9166	0.5531	0.5011	-0.64
Mof_O 	O 	0.9103	0.4784	0.5302	-0.443
Mof_O 	O 	0.6591	0.5285	0.5834	-0.499
Mof_O 	O 	0.6743	0.6077	0.5802	-0.513
Mof_C 	C 	0.8916	0.5193	0.5232	0.43
Mof_C 	C 	0.8405	0.531	0.5403	-0.108
Mof_C 	C 	0.8083	0.4924	0.5514	0.061
Mof_C 	C 	0.7586	0.5029	0.5648	0.135
Mof_C 	C 	0.7428	0.5522	0.568	-0.208
Mof_C 	C 	0.7761	0.5902	0.5576	0.195
Mof_C 	C 	0.8239	0.5786	0.5439	-0.109
Mof_H 	H 	0.8459	0.6044	0.5367	0.062
Mof_C 	C 	0.6888	0.564	0.5778	0.394
Mof_N 	N 	0.7316	0.4625	0.5786	-0.313
Mof_H 	H 	0.7021	0.4663	0.5905	0.173
Mof_H 	H 	0.7439	0.4331	0.5755	0.137
Mof_N 	N 	0.8173	0.441	0.5442	-0.291
Mof_H 	H 	0.8452	0.4312	0.5318	0.165
Mof_H 	H 	0.795	0.4195	0.5522	0.13
Mof_N 	N 	0.7657	0.6386	0.5611	-0.342
Mof_H 	H 	0.7883	0.6603	0.5548	0.151
Mof_H 	H 	0.7363	0.648	0.5696	0.184
Mof_O 	O 	0.9166	0.4469	0.9989	-0.6
Mof_O 	O 	0.9103	0.5216	0.9698	-0.417
Mof_O 	O 	0.6591	0.4715	0.9166	-0.495
Mof_O 	O 	0.6743	0.3923	0.9198	-0.511
Mof_C 	C 	0.8916	0.4807	0.9768	0.424
Mof_C 	C 	0.8405	0.469	0.9597	-0.094
Mof_C 	C 	0.8083	0.5076	0.9486	0.063
Mof_C 	C 	0.7586	0.4971	0.9352	0.145
Mof_C 	C 	0.7428	0.4478	0.932	-0.208
Mof_C 	C 	0.7761	0.4098	0.9424	0.208
Mof_C 	C 	0.8239	0.4214	0.9561	-0.114
Mof_H 	H 	0.8459	0.3956	0.9633	0.073
Mof_C 	C 	0.6888	0.436	0.9222	0.399
Mof_N 	N 	0.7316	0.5375	0.9214	-0.314
Mof_H 	H 	0.7021	0.5337	0.9095	0.178
Mof_H 	H 	0.7439	0.5669	0.9245	0.143
Mof_N 	N 	0.8173	0.559	0.9558	-0.292
Mof_H 	H 	0.8452	0.5688	0.9682	0.174
Mof_H 	H 	0.795	0.5805	0.9478	0.137
Mof_N 	N 	0.7657	0.3614	0.9389	-0.345
Mof_H 	H 	0.7883	0.3397	0.9452	0.161
Mof_H 	H 	0.7363	0.352	0.9304	0.19
Mof_O 	O 	0.4166	0.9469	0.4989	-0.65
Mof_O 	O 	0.4103	0.0216	0.4698	-0.487
Mof_O 	O 	0.1591	0.9715	0.4166	-0.482
Mof_O 	O 	0.1743	0.8923	0.4198	-0.517
Mof_C 	C 	0.3916	0.9807	0.4768	0.465
Mof_C 	C 	0.3405	0.969	0.4597	-0.027
Mof_C 	C 	0.3083	0.0076	0.4486	-0.065
Mof_C 	C 	0.2586	0.9971	0.4352	0.253
Mof_C 	C 	0.2428	0.9478	0.432	-0.252
Mof_C 	C 	0.2761	0.9098	0.4424	0.234
Mof_C 	C 	0.3239	0.9214	0.4561	-0.161
Mof_H 	H 	0.3459	0.8956	0.4633	0.077
Mof_C 	C 	0.1888	0.936	0.4222	0.408
Mof_N 	N 	0.2316	0.0375	0.4214	-0.356
Mof_H 	H 	0.2021	0.0337	0.4095	0.169
Mof_H 	H 	0.2439	0.0669	0.4245	0.145
Mof_N 	N 	0.3173	0.059	0.4558	-0.268
Mof_H 	H 	0.3452	0.0688	0.4682	0.154
Mof_H 	H 	0.295	0.0805	0.4478	0.118
Mof_N 	N 	0.2657	0.8614	0.4389	-0.351
Mof_H 	H 	0.2883	0.8397	0.4452	0.154
Mof_H 	H 	0.2363	0.852	0.4304	0.187
Mof_O 	O 	0.5011	0.0834	0.9469	-0.644
Mof_O 	O 	0.5302	0.0897	0.0216	-0.477
Mof_O 	O 	0.5834	0.3409	0.9715	-0.486
Mof_O 	O 	0.5802	0.3257	0.8923	-0.521
Mof_C 	C 	0.5232	0.1084	0.9807	0.464
Mof_C 	C 	0.5403	0.1595	0.969	-0.028
Mof_C 	C 	0.5514	0.1917	0.0076	-0.065
Mof_C 	C 	0.5648	0.2414	0.9971	0.252
Mof_C 	C 	0.568	0.2572	0.9478	-0.252
Mof_C 	C 	0.5576	0.2239	0.9098	0.233
Mof_C 	C 	0.5439	0.1761	0.9214	-0.161
Mof_H 	H 	0.5367	0.1541	0.8956	0.077
Mof_C 	C 	0.5778	0.3112	0.936	0.409
Mof_N 	N 	0.5786	0.2684	0.0375	-0.356
Mof_H 	H 	0.5905	0.2979	0.0337	0.169
Mof_H 	H 	0.5755	0.2561	0.0669	0.145
Mof_N 	N 	0.5442	0.1827	0.059	-0.269
Mof_H 	H 	0.5318	0.1548	0.0688	0.155
Mof_H 	H 	0.5522	0.205	0.0805	0.119
Mof_N 	N 	0.5611	0.2343	0.8614	-0.351
Mof_H 	H 	0.5548	0.2117	0.8397	0.153
Mof_H 	H 	0.5696	0.2637	0.852	0.187
Mof_O 	O 	0.0011	0.5834	0.4469	-0.676
Mof_O 	O 	0.0302	0.5897	0.5216	-0.46
Mof_O 	O 	0.0834	0.8409	0.4715	-0.507
Mof_O 	O 	0.0802	0.8257	0.3923	-0.52
Mof_C 	C 	0.0232	0.6084	0.4807	0.436
Mof_C 	C 	0.0403	0.6595	0.469	-0.121
Mof_C 	C 	0.0514	0.6917	0.5076	0.059
Mof_C 	C 	0.0648	0.7414	0.4971	0.126
Mof_C 	C 	0.068	0.7572	0.4478	-0.209
Mof_C 	C 	0.0576	0.7239	0.4098	0.182
Mof_C 	C 	0.0439	0.6761	0.4214	-0.105
Mof_H 	H 	0.0367	0.6541	0.3956	0.05
Mof_C 	C 	0.0778	0.8112	0.436	0.388
Mof_N 	N 	0.0786	0.7684	0.5375	-0.311
Mof_H 	H 	0.0905	0.7979	0.5337	0.168
Mof_H 	H 	0.0755	0.7561	0.5669	0.131
Mof_N 	N 	0.0442	0.6827	0.559	-0.29
Mof_H 	H 	0.0318	0.6548	0.5688	0.156
Mof_H 	H 	0.0522	0.705	0.5805	0.123
Mof_N 	N 	0.0611	0.7343	0.3614	-0.338
Mof_H 	H 	0.0548	0.7117	0.3397	0.141
Mof_H 	H 	0.0696	0.7637	0.352	0.176
Mof_O 	O 	0.4989	0.5834	0.5531	-0.658
Mof_O 	O 	0.4698	0.5897	0.4784	-0.459
Mof_O 	O 	0.4166	0.8409	0.5285	-0.503
Mof_O 	O 	0.4198	0.8257	0.6077	-0.517
Mof_C 	C 	0.4768	0.6084	0.5193	0.435
Mof_C 	C 	0.4597	0.6595	0.531	-0.11
Mof_C 	C 	0.4486	0.6917	0.4924	0.062
Mof_C 	C 	0.4352	0.7414	0.5029	0.135
Mof_C 	C 	0.432	0.7572	0.5522	-0.208
Mof_C 	C 	0.4424	0.7239	0.5902	0.194
Mof_C 	C 	0.4561	0.6761	0.5786	-0.108
Mof_H 	H 	0.4633	0.6541	0.6044	0.061
Mof_C 	C 	0.4222	0.8112	0.564	0.394
Mof_N 	N 	0.4214	0.7684	0.4625	-0.313
Mof_H 	H 	0.4095	0.7979	0.4663	0.173
Mof_H 	H 	0.4245	0.7561	0.4331	0.137
Mof_N 	N 	0.4558	0.6827	0.441	-0.291
Mof_H 	H 	0.4682	0.6548	0.4312	0.165
Mof_H 	H 	0.4478	0.705	0.4195	0.13
Mof_N 	N 	0.4389	0.7343	0.6386	-0.341
Mof_H 	H 	0.4452	0.7117	0.6603	0.151
Mof_H 	H 	0.4304	0.7637	0.648	0.183
Mof_O 	O 	0.9989	0.0834	0.0531	-0.595
Mof_O 	O 	0.9698	0.0897	0.9784	-0.37
Mof_O 	O 	0.9166	0.3409	0.0285	-0.506
Mof_O 	O 	0.9198	0.3257	0.1077	-0.504
Mof_C 	C 	0.9768	0.1084	0.0193	0.392
Mof_C 	C 	0.9597	0.1595	0.031	-0.173
Mof_C 	C 	0.9486	0.1917	0.9924	0.185
Mof_C 	C 	0.9352	0.2414	0.0029	0.031
Mof_C 	C 	0.932	0.2572	0.0522	-0.165
Mof_C 	C 	0.9424	0.2239	0.0902	0.17
Mof_C 	C 	0.9561	0.1761	0.0786	-0.063
Mof_H 	H 	0.9633	0.1541	0.1044	0.056
Mof_C 	C 	0.9222	0.3112	0.064	0.384
Mof_N 	N 	0.9214	0.2684	0.9625	-0.273
Mof_H 	H 	0.9095	0.2979	0.9663	0.182
Mof_H 	H 	0.9245	0.2561	0.9331	0.134
Mof_N 	N 	0.9558	0.1827	0.941	-0.315
Mof_H 	H 	0.9682	0.1548	0.9312	0.185
Mof_H 	H 	0.9478	0.205	0.9195	0.149
Mof_N 	N 	0.9389	0.2343	0.1386	-0.335
Mof_H 	H 	0.9452	0.2117	0.1603	0.158
Mof_H 	H 	0.9304	0.2637	0.148	0.187
Mof_O 	O 	0.0011	0.4166	0.0531	-0.662
Mof_O 	O 	0.0302	0.4103	0.9784	-0.405
Mof_O 	O 	0.0834	0.1591	0.0285	-0.511
Mof_O 	O 	0.0802	0.1743	0.1077	-0.504
Mof_C 	C 	0.0232	0.3916	0.0193	0.4
Mof_C 	C 	0.0403	0.3405	0.031	-0.202
Mof_C 	C 	0.0514	0.3083	0.9924	0.187
Mof_C 	C 	0.0648	0.2586	0.0029	0.008
Mof_C 	C 	0.068	0.2428	0.0522	-0.164
Mof_C 	C 	0.0576	0.2761	0.0902	0.142
Mof_C 	C 	0.0439	0.3239	0.0786	-0.052
Mof_H 	H 	0.0367	0.3459	0.1044	0.034
Mof_C 	C 	0.0778	0.1888	0.064	0.371
Mof_N 	N 	0.0786	0.2316	0.9625	-0.268
Mof_H 	H 	0.0905	0.2021	0.9663	0.174
Mof_H 	H 	0.0755	0.2439	0.9331	0.123
Mof_N 	N 	0.0442	0.3173	0.941	-0.314
Mof_H 	H 	0.0318	0.3452	0.9312	0.167
Mof_H 	H 	0.0522	0.295	0.9195	0.135
Mof_N 	N 	0.0611	0.2657	0.1386	-0.328
Mof_H 	H 	0.0548	0.2883	0.1603	0.138
Mof_H 	H 	0.0696	0.2363	0.148	0.173
Mof_O 	O 	0.5011	0.9166	0.5531	-0.64
Mof_O 	O 	0.5302	0.9103	0.4784	-0.443
Mof_O 	O 	0.5834	0.6591	0.5285	-0.499
Mof_O 	O 	0.5802	0.6743	0.6077	-0.513
Mof_C 	C 	0.5232	0.8916	0.5193	0.43
Mof_C 	C 	0.5403	0.8405	0.531	-0.108
Mof_C 	C 	0.5514	0.8083	0.4924	0.061
Mof_C 	C 	0.5648	0.7586	0.5029	0.135
Mof_C 	C 	0.568	0.7428	0.5522	-0.208
Mof_C 	C 	0.5576	0.7761	0.5902	0.195
Mof_C 	C 	0.5439	0.8239	0.5786	-0.109
Mof_H 	H 	0.5367	0.8459	0.6044	0.062
Mof_C 	C 	0.5778	0.6888	0.564	0.394
Mof_N 	N 	0.5786	0.7316	0.4625	-0.313
Mof_H 	H 	0.5905	0.7021	0.4663	0.173
Mof_H 	H 	0.5755	0.7439	0.4331	0.137
Mof_N 	N 	0.5442	0.8173	0.441	-0.291
Mof_H 	H 	0.5318	0.8452	0.4312	0.165
Mof_H 	H 	0.5522	0.795	0.4195	0.13
Mof_N 	N 	0.5611	0.7657	0.6386	-0.342
Mof_H 	H 	0.5548	0.7883	0.6603	0.151
Mof_H 	H 	0.5696	0.7363	0.648	0.184
Mof_O 	O 	0.9989	0.9166	0.4469	-0.6
Mof_O 	O 	0.9698	0.9103	0.5216	-0.417
Mof_O 	O 	0.9166	0.6591	0.4715	-0.495
Mof_O 	O 	0.9198	0.6743	0.3923	-0.511
Mof_C 	C 	0.9768	0.8916	0.4807	0.424
Mof_C 	C 	0.9597	0.8405	0.469	-0.094
Mof_C 	C 	0.9486	0.8083	0.5076	0.063
Mof_C 	C 	0.9352	0.7586	0.4971	0.145
Mof_C 	C 	0.932	0.7428	0.4478	-0.208
Mof_C 	C 	0.9424	0.7761	0.4098	0.208
Mof_C 	C 	0.9561	0.8239	0.4214	-0.114
Mof_H 	H 	0.9633	0.8459	0.3956	0.073
Mof_C 	C 	0.9222	0.6888	0.436	0.399
Mof_N 	N 	0.9214	0.7316	0.5375	-0.314
Mof_H 	H 	0.9095	0.7021	0.5337	0.178
Mof_H 	H 	0.9245	0.7439	0.5669	0.143
Mof_N 	N 	0.9558	0.8173	0.559	-0.292
Mof_H 	H 	0.9682	0.8452	0.5688	0.174
Mof_H 	H 	0.9478	0.795	0.5805	0.137
Mof_N 	N 	0.9389	0.7657	0.3614	-0.345
Mof_H 	H 	0.9452	0.7883	0.3397	0.161
Mof_H 	H 	0.9304	0.7363	0.352	0.19
Mof_O 	O 	0.4989	0.4166	0.9469	-0.65
Mof_O 	O 	0.4698	0.4103	0.0216	-0.487
Mof_O 	O 	0.4166	0.1591	0.9715	-0.482
Mof_O 	O 	0.4198	0.1743	0.8923	-0.517
Mof_C 	C 	0.4768	0.3916	0.9807	0.465
Mof_C 	C 	0.4597	0.3405	0.969	-0.027
Mof_C 	C 	0.4486	0.3083	0.0076	-0.065
Mof_C 	C 	0.4352	0.2586	0.9971	0.253
Mof_C 	C 	0.432	0.2428	0.9478	-0.252
Mof_C 	C 	0.4424	0.2761	0.9098	0.234
Mof_C 	C 	0.4561	0.3239	0.9214	-0.161
Mof_H 	H 	0.4633	0.3459	0.8956	0.077
Mof_C 	C 	0.4222	0.1888	0.936	0.408
Mof_N 	N 	0.4214	0.2316	0.0375	-0.356
Mof_H 	H 	0.4095	0.2021	0.0337	0.169
Mof_H 	H 	0.4245	0.2439	0.0669	0.145
Mof_N 	N 	0.4558	0.3173	0.059	-0.268
Mof_H 	H 	0.4682	0.3452	0.0688	0.154
Mof_H 	H 	0.4478	0.295	0.0805	0.118
Mof_N 	N 	0.4389	0.2657	0.8614	-0.351
Mof_H 	H 	0.4452	0.2883	0.8397	0.154
Mof_H 	H 	0.4304	0.2363	0.852	0.187
Mof_O 	O 	0.0531	0.4989	0.9166	-0.625
Mof_O 	O 	0.9784	0.4698	0.9103	-0.391
Mof_O 	O 	0.0285	0.4166	0.6591	-0.511
Mof_O 	O 	0.1077	0.4198	0.6743	-0.506
Mof_C 	C 	0.0193	0.4768	0.8916	0.396
Mof_C 	C 	0.031	0.4597	0.8405	-0.186
Mof_C 	C 	0.9924	0.4486	0.8083	0.183
Mof_C 	C 	0.0029	0.4352	0.7586	0.021
Mof_C 	C 	0.0522	0.432	0.7428	-0.166
Mof_C 	C 	0.0902	0.4424	0.7761	0.157
Mof_C 	C 	0.0786	0.4561	0.8239	-0.059
Mof_H 	H 	0.1044	0.4633	0.8459	0.046
Mof_C 	C 	0.064	0.4222	0.6888	0.378
Mof_N 	N 	0.9625	0.4214	0.7316	-0.271
Mof_H 	H 	0.9663	0.4095	0.7021	0.178
Mof_H 	H 	0.9331	0.4245	0.7439	0.129
Mof_N 	N 	0.941	0.4558	0.8173	-0.314
Mof_H 	H 	0.9312	0.4682	0.8452	0.175
Mof_H 	H 	0.9195	0.4478	0.795	0.142
Mof_N 	N 	0.1386	0.4389	0.7657	-0.332
Mof_H 	H 	0.1603	0.4452	0.7883	0.149
Mof_H 	H 	0.148	0.4304	0.7363	0.18
Mof_O 	O 	0.5531	0.9989	0.4166	-0.616
Mof_O 	O 	0.4784	0.9698	0.4103	-0.432
Mof_O 	O 	0.5285	0.9166	0.1591	-0.49
Mof_O 	O 	0.6077	0.9198	0.1743	-0.507
Mof_C 	C 	0.5193	0.9768	0.3916	0.428
Mof_C 	C 	0.531	0.9597	0.3405	-0.096
Mof_C 	C 	0.4924	0.9486	0.3083	0.064
Mof_C 	C 	0.5029	0.9352	0.2586	0.144
Mof_C 	C 	0.5522	0.932	0.2428	-0.207
Mof_C 	C 	0.5902	0.9424	0.2761	0.207
Mof_C 	C 	0.5786	0.9561	0.3239	-0.112
Mof_H 	H 	0.6044	0.9633	0.3459	0.072
Mof_C 	C 	0.564	0.9222	0.1888	0.398
Mof_N 	N 	0.4625	0.9214	0.2316	-0.314
Mof_H 	H 	0.4663	0.9095	0.2021	0.178
Mof_H 	H 	0.4331	0.9245	0.2439	0.143
Mof_N 	N 	0.441	0.9558	0.3173	-0.293
Mof_H 	H 	0.4312	0.9682	0.3452	0.175
Mof_H 	H 	0.4195	0.9478	0.295	0.138
Mof_N 	N 	0.6386	0.9389	0.2657	-0.345
Mof_H 	H 	0.6603	0.9452	0.2883	0.161
Mof_H 	H 	0.648	0.9304	0.2363	0.19
Mof_O 	O 	0.4469	0.5011	0.4166	-0.658
Mof_O 	O 	0.5216	0.5302	0.4103	-0.459
Mof_O 	O 	0.4715	0.5834	0.1591	-0.494
Mof_O 	O 	0.3923	0.5802	0.1743	-0.509
Mof_C 	C 	0.4807	0.5232	0.3916	0.435
Mof_C 	C 	0.469	0.5403	0.3405	-0.11
Mof_C 	C 	0.5076	0.5514	0.3083	0.062
Mof_C 	C 	0.4971	0.5648	0.2586	0.135
Mof_C 	C 	0.4478	0.568	0.2428	-0.208
Mof_C 	C 	0.4098	0.5576	0.2761	0.194
Mof_C 	C 	0.4214	0.5439	0.3239	-0.108
Mof_H 	H 	0.3956	0.5367	0.3459	0.061
Mof_C 	C 	0.436	0.5778	0.1888	0.393
Mof_N 	N 	0.5375	0.5786	0.2316	-0.313
Mof_H 	H 	0.5337	0.5905	0.2021	0.173
Mof_H 	H 	0.5669	0.5755	0.2439	0.137
Mof_N 	N 	0.559	0.5442	0.3173	-0.291
Mof_H 	H 	0.5688	0.5318	0.3452	0.165
Mof_H 	H 	0.5805	0.5522	0.295	0.13
Mof_N 	N 	0.3614	0.5611	0.2657	-0.341
Mof_H 	H 	0.3397	0.5548	0.2883	0.151
Mof_H 	H 	0.352	0.5696	0.2363	0.183
Mof_O 	O 	0.9469	0.0011	0.9166	-0.648
Mof_O 	O 	0.0216	0.0302	0.9103	-0.47
Mof_O 	O 	0.9715	0.0834	0.6591	-0.49
Mof_O 	O 	0.8923	0.0802	0.6743	-0.523
Mof_C 	C 	0.9807	0.0232	0.8916	0.46
Mof_C 	C 	0.969	0.0403	0.8405	-0.037
Mof_C 	C 	0.0076	0.0514	0.8083	-0.066
Mof_C 	C 	0.9971	0.0648	0.7586	0.243
Mof_C 	C 	0.9478	0.068	0.7428	-0.253
Mof_C 	C 	0.9098	0.0576	0.7761	0.222
Mof_C 	C 	0.9214	0.0439	0.8239	-0.159
Mof_H 	H 	0.8956	0.0367	0.8459	0.068
Mof_C 	C 	0.936	0.0778	0.6888	0.403
Mof_N 	N 	0.0375	0.0786	0.7316	-0.354
Mof_H 	H 	0.0337	0.0905	0.7021	0.164
Mof_H 	H 	0.0669	0.0755	0.7439	0.14
Mof_N 	N 	0.059	0.0442	0.8173	-0.267
Mof_H 	H 	0.0688	0.0318	0.8452	0.145
Mof_H 	H 	0.0805	0.0522	0.795	0.112
Mof_N 	N 	0.8614	0.0611	0.7657	-0.348
Mof_H 	H 	0.8397	0.0548	0.7883	0.145
Mof_H 	H 	0.852	0.0696	0.7363	0.18
Mof_O 	O 	0.9469	0.9989	0.5834	-0.609
Mof_O 	O 	0.0216	0.9698	0.5897	-0.458
Mof_O 	O 	0.9715	0.9166	0.8409	-0.487
Mof_O 	O 	0.8923	0.9198	0.8257	-0.523
Mof_C 	C 	0.9807	0.9768	0.6084	0.457
Mof_C 	C 	0.969	0.9597	0.6595	-0.019
Mof_C 	C 	0.0076	0.9486	0.6917	-0.056
Mof_C 	C 	0.9971	0.9352	0.7414	0.255
Mof_C 	C 	0.9478	0.932	0.7572	-0.249
Mof_C 	C 	0.9098	0.9424	0.7239	0.244
Mof_C 	C 	0.9214	0.9561	0.6761	-0.163
Mof_H 	H 	0.8956	0.9633	0.6541	0.087
Mof_C 	C 	0.936	0.9222	0.8112	0.415
Mof_N 	N 	0.0375	0.9214	0.7684	-0.355
Mof_H 	H 	0.0337	0.9095	0.7979	0.174
Mof_H 	H 	0.0669	0.9245	0.7561	0.15
Mof_N 	N 	0.059	0.9558	0.6827	-0.271
Mof_H 	H 	0.0688	0.9682	0.6548	0.164
Mof_H 	H 	0.0805	0.9478	0.705	0.127
Mof_N 	N 	0.8614	0.9389	0.7343	-0.354
Mof_H 	H 	0.8397	0.9452	0.7117	0.163
Mof_H 	H 	0.852	0.9304	0.7637	0.193
Mof_O 	O 	0.4469	0.4989	0.0834	-0.653
Mof_O 	O 	0.5216	0.4698	0.0897	-0.449
Mof_O 	O 	0.4715	0.4166	0.3409	-0.499
Mof_O 	O 	0.3923	0.4198	0.3257	-0.513
Mof_C 	C 	0.4807	0.4768	0.1084	0.434
Mof_C 	C 	0.469	0.4597	0.1595	-0.11
Mof_C 	C 	0.5076	0.4486	0.1917	0.062
Mof_C 	C 	0.4971	0.4352	0.2414	0.135
Mof_C 	C 	0.4478	0.432	0.2572	-0.208
Mof_C 	C 	0.4098	0.4424	0.2239	0.194
Mof_C 	C 	0.4214	0.4561	0.1761	-0.108
Mof_H 	H 	0.3956	0.4633	0.1541	0.06
Mof_C 	C 	0.436	0.4222	0.3112	0.393
Mof_N 	N 	0.5375	0.4214	0.2684	-0.313
Mof_H 	H 	0.5337	0.4095	0.2979	0.173
Mof_H 	H 	0.5669	0.4245	0.2561	0.137
Mof_N 	N 	0.559	0.4558	0.1827	-0.292
Mof_H 	H 	0.5688	0.4682	0.1548	0.165
Mof_H 	H 	0.5805	0.4478	0.205	0.13
Mof_N 	N 	0.3614	0.4389	0.2343	-0.341
Mof_H 	H 	0.3397	0.4452	0.2117	0.15
Mof_H 	H 	0.352	0.4304	0.2637	0.183
Mof_O 	O 	0.5531	0.0011	0.0834	-0.671
Mof_O 	O 	0.4784	0.0302	0.0897	-0.45
Mof_O 	O 	0.5285	0.0834	0.3409	-0.503
Mof_O 	O 	0.6077	0.0802	0.3257	-0.515
Mof_C 	C 	0.5193	0.0232	0.1084	0.435
Mof_C 	C 	0.531	0.0403	0.1595	-0.121
Mof_C 	C 	0.4924	0.0514	0.1917	0.059
Mof_C 	C 	0.5029	0.0648	0.2414	0.126
Mof_C 	C 	0.5522	0.068	0.2572	-0.209
Mof_C 	C 	0.5902	0.0576	0.2239	0.182
Mof_C 	C 	0.5786	0.0439	0.1761	-0.105
Mof_H 	H 	0.6044	0.0367	0.1541	0.05
Mof_C 	C 	0.564	0.0778	0.3112	0.387
Mof_N 	N 	0.4625	0.0786	0.2684	-0.311
Mof_H 	H 	0.4663	0.0905	0.2979	0.168
Mof_H 	H 	0.4331	0.0755	0.2561	0.131
Mof_N 	N 	0.441	0.0442	0.1827	-0.29
Mof_H 	H 	0.4312	0.0318	0.1548	0.156
Mof_H 	H 	0.4195	0.0522	0.205	0.123
Mof_N 	N 	0.6386	0.0611	0.2343	-0.338
Mof_H 	H 	0.6603	0.0548	0.2117	0.141
Mof_H 	H 	0.648	0.0696	0.2637	0.176
Mof_O 	O 	0.0531	0.5011	0.5834	-0.643
Mof_O 	O 	0.9784	0.5302	0.5897	-0.406
Mof_O 	O 	0.0285	0.5834	0.8409	-0.515
Mof_O 	O 	0.1077	0.5802	0.8257	-0.51
Mof_C 	C 	0.0193	0.5232	0.6084	0.399
Mof_C 	C 	0.031	0.5403	0.6595	-0.187
Mof_C 	C 	0.9924	0.5514	0.6917	0.184
Mof_C 	C 	0.0029	0.5648	0.7414	0.021
Mof_C 	C 	0.0522	0.568	0.7572	-0.166
Mof_C 	C 	0.0902	0.5576	0.7239	0.156
Mof_C 	C 	0.0786	0.5439	0.6761	-0.058
Mof_H 	H 	0.1044	0.5367	0.6541	0.045
Mof_C 	C 	0.064	0.5778	0.8112	0.379
Mof_N 	N 	0.9625	0.5786	0.7684	-0.271
Mof_H 	H 	0.9663	0.5905	0.7979	0.177
Mof_H 	H 	0.9331	0.5755	0.7561	0.129
Mof_N 	N 	0.941	0.5442	0.6827	-0.314
Mof_H 	H 	0.9312	0.5318	0.6548	0.175
Mof_H 	H 	0.9195	0.5522	0.705	0.142
Mof_N 	N 	0.1386	0.5611	0.7343	-0.331
Mof_H 	H 	0.1603	0.5548	0.7117	0.148
Mof_H 	H 	0.148	0.5696	0.7637	0.18
Mof_O 	O 	0.9166	0.0531	0.4989	-0.625
Mof_O 	O 	0.9103	0.9784	0.4698	-0.391
Mof_O 	O 	0.6591	0.0285	0.4166	-0.511
Mof_O 	O 	0.6743	0.1077	0.4198	-0.506
Mof_C 	C 	0.8916	0.0193	0.4768	0.396
Mof_C 	C 	0.8405	0.031	0.4597	-0.186
Mof_C 	C 	0.8083	0.9924	0.4486	0.183
Mof_C 	C 	0.7586	0.0029	0.4352	0.021
Mof_C 	C 	0.7428	0.0522	0.432	-0.166
Mof_C 	C 	0.7761	0.0902	0.4424	0.157
Mof_C 	C 	0.8239	0.0786	0.4561	-0.059
Mof_H 	H 	0.8459	0.1044	0.4633	0.046
Mof_C 	C 	0.6888	0.064	0.4222	0.378
Mof_N 	N 	0.7316	0.9625	0.4214	-0.271
Mof_H 	H 	0.7021	0.9663	0.4095	0.178
Mof_H 	H 	0.7439	0.9331	0.4245	0.129
Mof_N 	N 	0.8173	0.941	0.4558	-0.314
Mof_H 	H 	0.8452	0.9312	0.4682	0.175
Mof_H 	H 	0.795	0.9195	0.4478	0.142
Mof_N 	N 	0.7657	0.1386	0.4389	-0.332
Mof_H 	H 	0.7883	0.1603	0.4452	0.149
Mof_H 	H 	0.7363	0.148	0.4304	0.18
Mof_O 	O 	0.4166	0.5531	0.9989	-0.616
Mof_O 	O 	0.4103	0.4784	0.9698	-0.432
Mof_O 	O 	0.1591	0.5285	0.9166	-0.49
Mof_O 	O 	0.1743	0.6077	0.9198	-0.507
Mof_C 	C 	0.3916	0.5193	0.9768	0.428
Mof_C 	C 	0.3405	0.531	0.9597	-0.096
Mof_C 	C 	0.3083	0.4924	0.9486	0.064
Mof_C 	C 	0.2586	0.5029	0.9352	0.144
Mof_C 	C 	0.2428	0.5522	0.932	-0.207
Mof_C 	C 	0.2761	0.5902	0.9424	0.207
Mof_C 	C 	0.3239	0.5786	0.9561	-0.112
Mof_H 	H 	0.3459	0.6044	0.9633	0.072
Mof_C 	C 	0.1888	0.564	0.9222	0.398
Mof_N 	N 	0.2316	0.4625	0.9214	-0.314
Mof_H 	H 	0.2021	0.4663	0.9095	0.178
Mof_H 	H 	0.2439	0.4331	0.9245	0.143
Mof_N 	N 	0.3173	0.441	0.9558	-0.293
Mof_H 	H 	0.3452	0.4312	0.9682	0.175
Mof_H 	H 	0.295	0.4195	0.9478	0.138
Mof_N 	N 	0.2657	0.6386	0.9389	-0.345
Mof_H 	H 	0.2883	0.6603	0.9452	0.161
Mof_H 	H 	0.2363	0.648	0.9304	0.19
Mof_O 	O 	0.4166	0.4469	0.5011	-0.658
Mof_O 	O 	0.4103	0.5216	0.5302	-0.459
Mof_O 	O 	0.1591	0.4715	0.5834	-0.494
Mof_O 	O 	0.1743	0.3923	0.5802	-0.509
Mof_C 	C 	0.3916	0.4807	0.5232	0.435
Mof_C 	C 	0.3405	0.469	0.5403	-0.11
Mof_C 	C 	0.3083	0.5076	0.5514	0.062
Mof_C 	C 	0.2586	0.4971	0.5648	0.135
Mof_C 	C 	0.2428	0.4478	0.568	-0.208
Mof_C 	C 	0.2761	0.4098	0.5576	0.194
Mof_C 	C 	0.3239	0.4214	0.5439	-0.108
Mof_H 	H 	0.3459	0.3956	0.5367	0.061
Mof_C 	C 	0.1888	0.436	0.5778	0.393
Mof_N 	N 	0.2316	0.5375	0.5786	-0.313
Mof_H 	H 	0.2021	0.5337	0.5905	0.173
Mof_H 	H 	0.2439	0.5669	0.5755	0.137
Mof_N 	N 	0.3173	0.559	0.5442	-0.291
Mof_H 	H 	0.3452	0.5688	0.5318	0.165
Mof_H 	H 	0.295	0.5805	0.5522	0.13
Mof_N 	N 	0.2657	0.3614	0.5611	-0.341
Mof_H 	H 	0.2883	0.3397	0.5548	0.151
Mof_H 	H 	0.2363	0.352	0.5696	0.183
Mof_O 	O 	0.9166	0.9469	0.0011	-0.648
Mof_O 	O 	0.9103	0.0216	0.0302	-0.47
Mof_O 	O 	0.6591	0.9715	0.0834	-0.49
Mof_O 	O 	0.6743	0.8923	0.0802	-0.523
Mof_C 	C 	0.8916	0.9807	0.0232	0.46
Mof_C 	C 	0.8405	0.969	0.0403	-0.037
Mof_C 	C 	0.8083	0.0076	0.0514	-0.066
Mof_C 	C 	0.7586	0.9971	0.0648	0.243
Mof_C 	C 	0.7428	0.9478	0.068	-0.253
Mof_C 	C 	0.7761	0.9098	0.0576	0.222
Mof_C 	C 	0.8239	0.9214	0.0439	-0.159
Mof_H 	H 	0.8459	0.8956	0.0367	0.068
Mof_C 	C 	0.6888	0.936	0.0778	0.403
Mof_N 	N 	0.7316	0.0375	0.0786	-0.354
Mof_H 	H 	0.7021	0.0337	0.0905	0.164
Mof_H 	H 	0.7439	0.0669	0.0755	0.14
Mof_N 	N 	0.8173	0.059	0.0442	-0.267
Mof_H 	H 	0.8452	0.0688	0.0318	0.145
Mof_H 	H 	0.795	0.0805	0.0522	0.112
Mof_N 	N 	0.7657	0.8614	0.0611	-0.348
Mof_H 	H 	0.7883	0.8397	0.0548	0.145
Mof_H 	H 	0.7363	0.852	0.0696	0.18
Mof_O 	O 	0.5834	0.9469	0.9989	-0.609
Mof_O 	O 	0.5897	0.0216	0.9698	-0.458
Mof_O 	O 	0.8409	0.9715	0.9166	-0.487
Mof_O 	O 	0.8257	0.8923	0.9198	-0.523
Mof_C 	C 	0.6084	0.9807	0.9768	0.457
Mof_C 	C 	0.6595	0.969	0.9597	-0.019
Mof_C 	C 	0.6917	0.0076	0.9486	-0.056
Mof_C 	C 	0.7414	0.9971	0.9352	0.255
Mof_C 	C 	0.7572	0.9478	0.932	-0.249
Mof_C 	C 	0.7239	0.9098	0.9424	0.244
Mof_C 	C 	0.6761	0.9214	0.9561	-0.163
Mof_H 	H 	0.6541	0.8956	0.9633	0.087
Mof_C 	C 	0.8112	0.936	0.9222	0.415
Mof_N 	N 	0.7684	0.0375	0.9214	-0.355
Mof_H 	H 	0.7979	0.0337	0.9095	0.174
Mof_H 	H 	0.7561	0.0669	0.9245	0.15
Mof_N 	N 	0.6827	0.059	0.9558	-0.271
Mof_H 	H 	0.6548	0.0688	0.9682	0.164
Mof_H 	H 	0.705	0.0805	0.9478	0.127
Mof_N 	N 	0.7343	0.8614	0.9389	-0.354
Mof_H 	H 	0.7117	0.8397	0.9452	0.163
Mof_H 	H 	0.7637	0.852	0.9304	0.193
Mof_O 	O 	0.0834	0.4469	0.4989	-0.653
Mof_O 	O 	0.0897	0.5216	0.4698	-0.449
Mof_O 	O 	0.3409	0.4715	0.4166	-0.499
Mof_O 	O 	0.3257	0.3923	0.4198	-0.513
Mof_C 	C 	0.1084	0.4807	0.4768	0.434
Mof_C 	C 	0.1595	0.469	0.4597	-0.11
Mof_C 	C 	0.1917	0.5076	0.4486	0.062
Mof_C 	C 	0.2414	0.4971	0.4352	0.135
Mof_C 	C 	0.2572	0.4478	0.432	-0.208
Mof_C 	C 	0.2239	0.4098	0.4424	0.194
Mof_C 	C 	0.1761	0.4214	0.4561	-0.108
Mof_H 	H 	0.1541	0.3956	0.4633	0.06
Mof_C 	C 	0.3112	0.436	0.4222	0.393
Mof_N 	N 	0.2684	0.5375	0.4214	-0.313
Mof_H 	H 	0.2979	0.5337	0.4095	0.173
Mof_H 	H 	0.2561	0.5669	0.4245	0.137
Mof_N 	N 	0.1827	0.559	0.4558	-0.292
Mof_H 	H 	0.1548	0.5688	0.4682	0.165
Mof_H 	H 	0.205	0.5805	0.4478	0.13
Mof_N 	N 	0.2343	0.3614	0.4389	-0.341
Mof_H 	H 	0.2117	0.3397	0.4452	0.15
Mof_H 	H 	0.2637	0.352	0.4304	0.183
Mof_O 	O 	0.0834	0.5531	0.0011	-0.671
Mof_O 	O 	0.0897	0.4784	0.0302	-0.45
Mof_O 	O 	0.3409	0.5285	0.0834	-0.503
Mof_O 	O 	0.3257	0.6077	0.0802	-0.515
Mof_C 	C 	0.1084	0.5193	0.0232	0.435
Mof_C 	C 	0.1595	0.531	0.0403	-0.121
Mof_C 	C 	0.1917	0.4924	0.0514	0.059
Mof_C 	C 	0.2414	0.5029	0.0648	0.126
Mof_C 	C 	0.2572	0.5522	0.068	-0.209
Mof_C 	C 	0.2239	0.5902	0.0576	0.182
Mof_C 	C 	0.1761	0.5786	0.0439	-0.105
Mof_H 	H 	0.1541	0.6044	0.0367	0.05
Mof_C 	C 	0.3112	0.564	0.0778	0.387
Mof_N 	N 	0.2684	0.4625	0.0786	-0.311
Mof_H 	H 	0.2979	0.4663	0.0905	0.168
Mof_H 	H 	0.2561	0.4331	0.0755	0.131
Mof_N 	N 	0.1827	0.441	0.0442	-0.29
Mof_H 	H 	0.1548	0.4312	0.0318	0.156
Mof_H 	H 	0.205	0.4195	0.0522	0.123
Mof_N 	N 	0.2343	0.6386	0.0611	-0.338
Mof_H 	H 	0.2117	0.6603	0.0548	0.141
Mof_H 	H 	0.2637	0.648	0.0696	0.176
Mof_O 	O 	0.5834	0.0531	0.5011	-0.643
Mof_O 	O 	0.5897	0.9784	0.5302	-0.406
Mof_O 	O 	0.8409	0.0285	0.5834	-0.515
Mof_O 	O 	0.8257	0.1077	0.5802	-0.51
Mof_C 	C 	0.6084	0.0193	0.5232	0.399
Mof_C 	C 	0.6595	0.031	0.5403	-0.187
Mof_C 	C 	0.6917	0.9924	0.5514	0.184
Mof_C 	C 	0.7414	0.0029	0.5648	0.021
Mof_C 	C 	0.7572	0.0522	0.568	-0.166
Mof_C 	C 	0.7239	0.0902	0.5576	0.156
Mof_C 	C 	0.6761	0.0786	0.5439	-0.058
Mof_H 	H 	0.6541	0.1044	0.5367	0.045
Mof_C 	C 	0.8112	0.064	0.5778	0.379
Mof_N 	N 	0.7684	0.9625	0.5786	-0.271
Mof_H 	H 	0.7979	0.9663	0.5905	0.177
Mof_H 	H 	0.7561	0.9331	0.5755	0.129
Mof_N 	N 	0.6827	0.941	0.5442	-0.314
Mof_H 	H 	0.6548	0.9312	0.5318	0.175
Mof_H 	H 	0.705	0.9195	0.5522	0.142
Mof_N 	N 	0.7343	0.1386	0.5611	-0.331
Mof_H 	H 	0.7117	0.1603	0.5548	0.148
Mof_H 	H 	0.7637	0.148	0.5696	0.18
Mof_O 	O 	0.4989	0.9166	0.0531	-0.625
Mof_O 	O 	0.4698	0.9103	0.9784	-0.391
Mof_O 	O 	0.4166	0.6591	0.0285	-0.511
Mof_O 	O 	0.4198	0.6743	0.1077	-0.506
Mof_C 	C 	0.4768	0.8916	0.0193	0.396
Mof_C 	C 	0.4597	0.8405	0.031	-0.186
Mof_C 	C 	0.4486	0.8083	0.9924	0.183
Mof_C 	C 	0.4352	0.7586	0.0029	0.021
Mof_C 	C 	0.432	0.7428	0.0522	-0.166
Mof_C 	C 	0.4424	0.7761	0.0902	0.157
Mof_C 	C 	0.4561	0.8239	0.0786	-0.059
Mof_H 	H 	0.4633	0.8459	0.1044	0.046
Mof_C 	C 	0.4222	0.6888	0.064	0.378
Mof_N 	N 	0.4214	0.7316	0.9625	-0.271
Mof_H 	H 	0.4095	0.7021	0.9663	0.178
Mof_H 	H 	0.4245	0.7439	0.9331	0.129
Mof_N 	N 	0.4558	0.8173	0.941	-0.314
Mof_H 	H 	0.4682	0.8452	0.9312	0.175
Mof_H 	H 	0.4478	0.795	0.9195	0.142
Mof_N 	N 	0.4389	0.7657	0.1386	-0.332
Mof_H 	H 	0.4452	0.7883	0.1603	0.149
Mof_H 	H 	0.4304	0.7363	0.148	0.18
Mof_O 	O 	0.9989	0.4166	0.5531	-0.616
Mof_O 	O 	0.9698	0.4103	0.4784	-0.432
Mof_O 	O 	0.9166	0.1591	0.5285	-0.49
Mof_O 	O 	0.9198	0.1743	0.6077	-0.507
Mof_C 	C 	0.9768	0.3916	0.5193	0.428
Mof_C 	C 	0.9597	0.3405	0.531	-0.096
Mof_C 	C 	0.9486	0.3083	0.4924	0.064
Mof_C 	C 	0.9352	0.2586	0.5029	0.144
Mof_C 	C 	0.932	0.2428	0.5522	-0.207
Mof_C 	C 	0.9424	0.2761	0.5902	0.207
Mof_C 	C 	0.9561	0.3239	0.5786	-0.112
Mof_H 	H 	0.9633	0.3459	0.6044	0.072
Mof_C 	C 	0.9222	0.1888	0.564	0.398
Mof_N 	N 	0.9214	0.2316	0.4625	-0.314
Mof_H 	H 	0.9095	0.2021	0.4663	0.178
Mof_H 	H 	0.9245	0.2439	0.4331	0.143
Mof_N 	N 	0.9558	0.3173	0.441	-0.293
Mof_H 	H 	0.9682	0.3452	0.4312	0.175
Mof_H 	H 	0.9478	0.295	0.4195	0.138
Mof_N 	N 	0.9389	0.2657	0.6386	-0.345
Mof_H 	H 	0.9452	0.2883	0.6603	0.161
Mof_H 	H 	0.9304	0.2363	0.648	0.19
Mof_O 	O 	0.5011	0.4166	0.4469	-0.658
Mof_O 	O 	0.5302	0.4103	0.5216	-0.459
Mof_O 	O 	0.5834	0.1591	0.4715	-0.494
Mof_O 	O 	0.5802	0.1743	0.3923	-0.509
Mof_C 	C 	0.5232	0.3916	0.4807	0.435
Mof_C 	C 	0.5403	0.3405	0.469	-0.11
Mof_C 	C 	0.5514	0.3083	0.5076	0.062
Mof_C 	C 	0.5648	0.2586	0.4971	0.135
Mof_C 	C 	0.568	0.2428	0.4478	-0.208
Mof_C 	C 	0.5576	0.2761	0.4098	0.194
Mof_C 	C 	0.5439	0.3239	0.4214	-0.108
Mof_H 	H 	0.5367	0.3459	0.3956	0.061
Mof_C 	C 	0.5778	0.1888	0.436	0.393
Mof_N 	N 	0.5786	0.2316	0.5375	-0.313
Mof_H 	H 	0.5905	0.2021	0.5337	0.173
Mof_H 	H 	0.5755	0.2439	0.5669	0.137
Mof_N 	N 	0.5442	0.3173	0.559	-0.291
Mof_H 	H 	0.5318	0.3452	0.5688	0.165
Mof_H 	H 	0.5522	0.295	0.5805	0.13
Mof_N 	N 	0.5611	0.2657	0.3614	-0.341
Mof_H 	H 	0.5548	0.2883	0.3397	0.151
Mof_H 	H 	0.5696	0.2363	0.352	0.183
Mof_O 	O 	0.0011	0.9166	0.9469	-0.648
Mof_O 	O 	0.0302	0.9103	0.0216	-0.47
Mof_O 	O 	0.0834	0.6591	0.9715	-0.49
Mof_O 	O 	0.0802	0.6743	0.8923	-0.523
Mof_C 	C 	0.0232	0.8916	0.9807	0.46
Mof_C 	C 	0.0403	0.8405	0.969	-0.037
Mof_C 	C 	0.0514	0.8083	0.0076	-0.066
Mof_C 	C 	0.0648	0.7586	0.9971	0.243
Mof_C 	C 	0.068	0.7428	0.9478	-0.253
Mof_C 	C 	0.0576	0.7761	0.9098	0.222
Mof_C 	C 	0.0439	0.8239	0.9214	-0.159
Mof_H 	H 	0.0367	0.8459	0.8956	0.068
Mof_C 	C 	0.0778	0.6888	0.936	0.403
Mof_N 	N 	0.0786	0.7316	0.0375	-0.354
Mof_H 	H 	0.0905	0.7021	0.0337	0.164
Mof_H 	H 	0.0755	0.7439	0.0669	0.14
Mof_N 	N 	0.0442	0.8173	0.059	-0.267
Mof_H 	H 	0.0318	0.8452	0.0688	0.145
Mof_H 	H 	0.0522	0.795	0.0805	0.112
Mof_N 	N 	0.0611	0.7657	0.8614	-0.348
Mof_H 	H 	0.0548	0.7883	0.8397	0.145
Mof_H 	H 	0.0696	0.7363	0.852	0.18
Mof_O 	O 	0.9989	0.5834	0.9469	-0.609
Mof_O 	O 	0.9698	0.5897	0.0216	-0.458
Mof_O 	O 	0.9166	0.8409	0.9715	-0.487
Mof_O 	O 	0.9198	0.8257	0.8923	-0.523
Mof_C 	C 	0.9768	0.6084	0.9807	0.457
Mof_C 	C 	0.9597	0.6595	0.969	-0.019
Mof_C 	C 	0.9486	0.6917	0.0076	-0.056
Mof_C 	C 	0.9352	0.7414	0.9971	0.255
Mof_C 	C 	0.932	0.7572	0.9478	-0.249
Mof_C 	C 	0.9424	0.7239	0.9098	0.244
Mof_C 	C 	0.9561	0.6761	0.9214	-0.163
Mof_H 	H 	0.9633	0.6541	0.8956	0.087
Mof_C 	C 	0.9222	0.8112	0.936	0.415
Mof_N 	N 	0.9214	0.7684	0.0375	-0.355
Mof_H 	H 	0.9095	0.7979	0.0337	0.174
Mof_H 	H 	0.9245	0.7561	0.0669	0.15
Mof_N 	N 	0.9558	0.6827	0.059	-0.271
Mof_H 	H 	0.9682	0.6548	0.0688	0.164
Mof_H 	H 	0.9478	0.705	0.0805	0.127
Mof_N 	N 	0.9389	0.7343	0.8614	-0.354
Mof_H 	H 	0.9452	0.7117	0.8397	0.163
Mof_H 	H 	0.9304	0.7637	0.852	0.193
Mof_O 	O 	0.4989	0.0834	0.4469	-0.653
Mof_O 	O 	0.4698	0.0897	0.5216	-0.449
Mof_O 	O 	0.4166	0.3409	0.4715	-0.499
Mof_O 	O 	0.4198	0.3257	0.3923	-0.513
Mof_C 	C 	0.4768	0.1084	0.4807	0.434
Mof_C 	C 	0.4597	0.1595	0.469	-0.11
Mof_C 	C 	0.4486	0.1917	0.5076	0.062
Mof_C 	C 	0.4352	0.2414	0.4971	0.135
Mof_C 	C 	0.432	0.2572	0.4478	-0.208
Mof_C 	C 	0.4424	0.2239	0.4098	0.194
Mof_C 	C 	0.4561	0.1761	0.4214	-0.108
Mof_H 	H 	0.4633	0.1541	0.3956	0.06
Mof_C 	C 	0.4222	0.3112	0.436	0.393
Mof_N 	N 	0.4214	0.2684	0.5375	-0.313
Mof_H 	H 	0.4095	0.2979	0.5337	0.173
Mof_H 	H 	0.4245	0.2561	0.5669	0.137
Mof_N 	N 	0.4558	0.1827	0.559	-0.292
Mof_H 	H 	0.4682	0.1548	0.5688	0.165
Mof_H 	H 	0.4478	0.205	0.5805	0.13
Mof_N 	N 	0.4389	0.2343	0.3614	-0.341
Mof_H 	H 	0.4452	0.2117	0.3397	0.15
Mof_H 	H 	0.4304	0.2637	0.352	0.183
Mof_O 	O 	0.0011	0.0834	0.5531	-0.671
Mof_O 	O 	0.0302	0.0897	0.4784	-0.45
Mof_O 	O 	0.0834	0.3409	0.5285	-0.503
Mof_O 	O 	0.0802	0.3257	0.6077	-0.515
Mof_C 	C 	0.0232	0.1084	0.5193	0.435
Mof_C 	C 	0.0403	0.1595	0.531	-0.121
Mof_C 	C 	0.0514	0.1917	0.4924	0.059
Mof_C 	C 	0.0648	0.2414	0.5029	0.126
Mof_C 	C 	0.068	0.2572	0.5522	-0.209
Mof_C 	C 	0.0576	0.2239	0.5902	0.182
Mof_C 	C 	0.0439	0.1761	0.5786	-0.105
Mof_H 	H 	0.0367	0.1541	0.6044	0.05
Mof_C 	C 	0.0778	0.3112	0.564	0.387
Mof_N 	N 	0.0786	0.2684	0.4625	-0.311
Mof_H 	H 	0.0905	0.2979	0.4663	0.168
Mof_H 	H 	0.0755	0.2561	0.4331	0.131
Mof_N 	N 	0.0442	0.1827	0.441	-0.29
Mof_H 	H 	0.0318	0.1548	0.4312	0.156
Mof_H 	H 	0.0522	0.205	0.4195	0.123
Mof_N 	N 	0.0611	0.2343	0.6386	-0.338
Mof_H 	H 	0.0548	0.2117	0.6603	0.141
Mof_H 	H 	0.0696	0.2637	0.648	0.176
Mof_O 	O 	0.5011	0.5834	0.0531	-0.643
Mof_O 	O 	0.5302	0.5897	0.9784	-0.406
Mof_O 	O 	0.5834	0.8409	0.0285	-0.515
Mof_O 	O 	0.5802	0.8257	0.1077	-0.51
Mof_C 	C 	0.5232	0.6084	0.0193	0.399
Mof_C 	C 	0.5403	0.6595	0.031	-0.187
Mof_C 	C 	0.5514	0.6917	0.9924	0.184
Mof_C 	C 	0.5648	0.7414	0.0029	0.021
Mof_C 	C 	0.568	0.7572	0.0522	-0.166
Mof_C 	C 	0.5576	0.7239	0.0902	0.156
Mof_C 	C 	0.5439	0.6761	0.0786	-0.058
Mof_H 	H 	0.5367	0.6541	0.1044	0.045
Mof_C 	C 	0.5778	0.8112	0.064	0.379
Mof_N 	N 	0.5786	0.7684	0.9625	-0.271
Mof_H 	H 	0.5905	0.7979	0.9663	0.177
Mof_H 	H 	0.5755	0.7561	0.9331	0.129
Mof_N 	N 	0.5442	0.6827	0.941	-0.314
Mof_H 	H 	0.5318	0.6548	0.9312	0.175
Mof_H 	H 	0.5522	0.705	0.9195	0.142
Mof_N 	N 	0.5611	0.7343	0.1386	-0.331
Mof_H 	H 	0.5548	0.7117	0.1603	0.148
Mof_H 	H 	0.5696	0.7637	0.148	0.18
Mof_Nd	Nd	0.91525	0.41525	0.08475	2.632
Mof_Nd	Nd	0.41525	0.91525	0.58475	2.669
Mof_Nd	Nd	0.58475	0.58475	0.58475	2.624
Mof_Nd	Nd	0.08475	0.08475	0.08475	2.502
Mof_Nd	Nd	0.08475	0.91525	0.41525	2.632
Mof_Nd	Nd	0.58475	0.41525	0.91525	2.669
Mof_Nd	Nd	0.41525	0.08475	0.91525	2.632
Mof_Nd	Nd	0.91525	0.58475	0.41525	2.669
Mof_Nd	Nd	0.08475	0.58475	0.91525	2.632
Mof_Nd	Nd	0.58475	0.08475	0.41525	2.584
Mof_Nd	Nd	0.41525	0.41525	0.41525	2.624
Mof_Nd	Nd	0.91525	0.91525	0.91525	2.752
Mof_Nd	Nd	0.91525	0.08475	0.58475	2.632
Mof_Nd	Nd	0.41525	0.58475	0.08475	2.584
Mof_Nd	Nd	0.58475	0.91525	0.08475	2.632
Mof_Nd	Nd	0.08475	0.41525	0.58475	2.584
Mof_Nd	Nd	-0	0.5	-0	2.157
Mof_Nd	Nd	0.5	0	0.5	2.296
Mof_Nd	Nd	0.5	0.5	0.5	2.437
Mof_Nd	Nd	-0	0	-0	2.014
Mof_Nd	Nd	1.8747e-33	0	0.5	2.157
Mof_Nd	Nd	0.5	0.5	-0	2.296
Mof_Nd	Nd	0.5	0	-0	2.157
Mof_Nd	Nd	1.8747e-33	0.5	0.5	2.296
_end
