# CIF file generated by openbabel 3.1.0, see https://openbabel.org
data_I
_chemical_name_common 'image0'
_cell_length_a 14.726
_cell_length_b 9.221
_cell_length_c 16.969
_cell_angle_alpha 90
_cell_angle_beta 90.332
_cell_angle_gamma 90
_space_group_name_H-M_alt 'P 1'
_space_group_name_Hall 'P 1'
loop_
    _symmetry_equiv_pos_as_xyz
    x,y,z
loop_
    _atom_site_label
    _atom_site_type_symbol
    _atom_site_fract_x
    _atom_site_fract_y
    _atom_site_fract_z
    _atom_site_occupancy
    Ni1      Ni       0.98095    0.83756    0.99514    1.000
    Ni2      Ni       0.19465    0.90655    0.03851    1.000
    O1       O        0.05380    0.80460    0.89050    1.000
    O2       O        0.19190    0.77600    0.94300    1.000
    O3       O        0.39560    0.64760    0.59090    1.000
    O4       O        0.26410    0.57750    0.53380    1.000
    O5       O        0.83570    0.62950    0.57450    1.000
    O6       O        0.74460    0.48450    0.63890    1.000
    O7       O        0.83670    0.26410    0.88940    1.000
    O8       O        0.96360    0.33970    0.95030    1.000
    O9       O        0.06830    0.97630    0.05020    1.000
    H1       H        0.05390    0.97530    0.10660    1.000
    C1       C        0.12770    0.65360    0.74780    1.000
    C2       C        0.17520    0.72730    0.80820    1.000
    C3       C        0.26530    0.76890    0.79510    1.000
    H2       H        0.29690    0.81780    0.83460    1.000
    C4       C        0.30860    0.73930    0.72480    1.000
    H3       H        0.36870    0.76740    0.71790    1.000
    C5       C        0.26270    0.66800    0.66490    1.000
    C6       C        0.17290    0.62750    0.67660    1.000
    H4       H        0.14160    0.58160    0.63590    1.000
    C7       C        0.03550    0.59050    0.75580    1.000
    C8       C        0.97220    0.60420    0.69480    1.000
    H5       H        0.98610    0.66160    0.65140    1.000
    C9       C        0.88820    0.53290    0.69750    1.000
    C10      C        0.86740    0.45040    0.76320    1.000
    H6       H        0.81120    0.40490    0.76650    1.000
    C11      C        0.93000    0.43490    0.82440    1.000
    C12      C        0.01370    0.50490    0.82120    1.000
    H7       H        0.05500    0.49480    0.86250    1.000
    C13      C        0.13520    0.77280    0.88620    1.000
    C14      C        0.31110    0.62840    0.59010    1.000
    C15      C        0.82030    0.55000    0.63340    1.000
    C16      C        0.90870    0.33710    0.89370    1.000
    Ni3      Ni       0.51905    0.33756    0.50486    1.000
    Ni4      Ni       0.30535    0.40655    0.46149    1.000
    O10      O        0.44620    0.30460    0.60950    1.000
    O11      O        0.30810    0.27600    0.55700    1.000
    O12      O        0.10440    0.14760    0.90910    1.000
    O13      O        0.23590    0.07750    0.96620    1.000
    O14      O        0.66430    0.12950    0.92550    1.000
    O15      O        0.75540    0.98450    0.86110    1.000
    O16      O        0.66330    0.76410    0.61060    1.000
    O17      O        0.53640    0.83970    0.54970    1.000
    O18      O        0.43170    0.47630    0.44980    1.000
    H8       H        0.44610    0.47530    0.39340    1.000
    C17      C        0.37230    0.15360    0.75220    1.000
    C18      C        0.32480    0.22730    0.69180    1.000
    C19      C        0.23470    0.26890    0.70490    1.000
    H9       H        0.20310    0.31780    0.66540    1.000
    C20      C        0.19140    0.23930    0.77520    1.000
    H10      H        0.13130    0.26740    0.78210    1.000
    C21      C        0.23730    0.16800    0.83510    1.000
    C22      C        0.32710    0.12750    0.82340    1.000
    H11      H        0.35840    0.08160    0.86410    1.000
    C23      C        0.46450    0.09050    0.74420    1.000
    C24      C        0.52780    0.10420    0.80520    1.000
    H12      H        0.51390    0.16160    0.84860    1.000
    C25      C        0.61180    0.03290    0.80250    1.000
    C26      C        0.63260    0.95040    0.73680    1.000
    H13      H        0.68880    0.90490    0.73350    1.000
    C27      C        0.57000    0.93490    0.67560    1.000
    C28      C        0.48630    0.00490    0.67880    1.000
    H14      H        0.44500    0.99480    0.63750    1.000
    C29      C        0.36480    0.27280    0.61380    1.000
    C30      C        0.18890    0.12840    0.90990    1.000
    C31      C        0.67970    0.05000    0.86660    1.000
    C32      C        0.59130    0.83710    0.60630    1.000
    Ni5      Ni       0.01905    0.16244    0.00486    1.000
    Ni6      Ni       0.80535    0.09345    0.96149    1.000
    O19      O        0.94620    0.19540    0.10950    1.000
    O20      O        0.80810    0.22400    0.05700    1.000
    O21      O        0.60440    0.35240    0.40910    1.000
    O22      O        0.73590    0.42250    0.46620    1.000
    O23      O        0.16430    0.37050    0.42550    1.000
    O24      O        0.25540    0.51550    0.36110    1.000
    O25      O        0.16330    0.73590    0.11060    1.000
    O26      O        0.03640    0.66030    0.04970    1.000
    O27      O        0.93170    0.02370    0.94980    1.000
    H15      H        0.94610    0.02470    0.89340    1.000
    C33      C        0.87230    0.34640    0.25220    1.000
    C34      C        0.82480    0.27270    0.19180    1.000
    C35      C        0.73470    0.23110    0.20490    1.000
    H16      H        0.70310    0.18220    0.16540    1.000
    C36      C        0.69140    0.26070    0.27520    1.000
    H17      H        0.63130    0.23260    0.28210    1.000
    C37      C        0.73730    0.33200    0.33510    1.000
    C38      C        0.82710    0.37250    0.32340    1.000
    H18      H        0.85840    0.41840    0.36410    1.000
    C39      C        0.96450    0.40950    0.24420    1.000
    C40      C        0.02780    0.39580    0.30520    1.000
    H19      H        0.01390    0.33840    0.34860    1.000
    C41      C        0.11180    0.46710    0.30250    1.000
    C42      C        0.13260    0.54960    0.23680    1.000
    H20      H        0.18880    0.59510    0.23350    1.000
    C43      C        0.07000    0.56510    0.17560    1.000
    C44      C        0.98630    0.49510    0.17880    1.000
    H21      H        0.94500    0.50520    0.13750    1.000
    C45      C        0.86480    0.22720    0.11380    1.000
    C46      C        0.68890    0.37160    0.40990    1.000
    C47      C        0.17970    0.45000    0.36660    1.000
    C48      C        0.09130    0.66290    0.10630    1.000
    Ni7      Ni       0.48095    0.66244    0.49514    1.000
    Ni8      Ni       0.69465    0.59345    0.53851    1.000
    O28      O        0.55380    0.69540    0.39050    1.000
    O29      O        0.69190    0.72400    0.44300    1.000
    O30      O        0.89560    0.85240    0.09090    1.000
    O31      O        0.76410    0.92250    0.03380    1.000
    O32      O        0.33570    0.87050    0.07450    1.000
    O33      O        0.24460    0.01550    0.13890    1.000
    O34      O        0.33670    0.23590    0.38940    1.000
    O35      O        0.46360    0.16030    0.45030    1.000
    O36      O        0.56830    0.52370    0.55020    1.000
    H22      H        0.55390    0.52470    0.60660    1.000
    C49      C        0.62770    0.84640    0.24780    1.000
    C50      C        0.67520    0.77270    0.30820    1.000
    C51      C        0.76530    0.73110    0.29510    1.000
    H23      H        0.79690    0.68220    0.33460    1.000
    C52      C        0.80860    0.76070    0.22480    1.000
    H24      H        0.86870    0.73260    0.21790    1.000
    C53      C        0.76270    0.83200    0.16490    1.000
    C54      C        0.67290    0.87250    0.17660    1.000
    H25      H        0.64160    0.91840    0.13590    1.000
    C55      C        0.53550    0.90950    0.25580    1.000
    C56      C        0.47220    0.89580    0.19480    1.000
    H26      H        0.48610    0.83840    0.15140    1.000
    C57      C        0.38820    0.96710    0.19750    1.000
    C58      C        0.36740    0.04960    0.26320    1.000
    H27      H        0.31120    0.09510    0.26650    1.000
    C59      C        0.43000    0.06510    0.32440    1.000
    C60      C        0.51370    0.99510    0.32120    1.000
    H28      H        0.55500    0.00520    0.36250    1.000
    C61      C        0.63520    0.72720    0.38620    1.000
    C62      C        0.81110    0.87160    0.09010    1.000
    C63      C        0.32030    0.95000    0.13340    1.000
    C64      C        0.40870    0.16290    0.39370    1.000
