data_functionalizedCrystal
_audit_creation_method	'EQeq! by Chris Wilmer'
_symmetry_space_group_name_H-M	'P1'
_symmetry_Int_Tables_number	1
_symmetry_cell_setting	triclinic
loop_
_symmetry_equiv_pos_as_xyz
  x,y,z
_cell_length_a	41.288
_cell_length_b	41.288
_cell_length_c	17.5402
_cell_angle_alpha	90
_cell_angle_beta	90
_cell_angle_gamma	120
loop_
_atom_site_label
_atom_site_type_symbol
_atom_site_fract_x
_atom_site_fract_y
_atom_site_fract_z
_atom_site_charge
Mof_Zn	Zn	0.37192	0.40083	0.33952	1.217
Mof_O 	O 	0.29345	0.40343	0.15747	-0.513
Mof_O 	O 	0.33008	0.38716	0.09355	-0.509
Mof_O 	O 	0.0171	0.37344	0.68648	-0.513
Mof_O 	O 	0.41707	0.43327	0.3962	-0.519
Mof_O 	O 	0.43983	0.48791	0.3384	-0.514
Mof_C 	C 	0.30262	0.39241	0.09961	0.416
Mof_C 	C 	0.28082	0.38738	0.02766	-0.136
Mof_C 	C 	0.28678	0.37039	0.9646	0.061
Mof_C 	C 	0.26682	0.36715	0.8967	-0.025
Mof_C 	C 	0.24268	0.3803	0.89244	0.023
Mof_C 	C 	0.23655	0.39614	0.9564	-0.027
Mof_C 	C 	0.25451	0.39862	0.0238	0.062
Mof_C 	C 	0.22318	0.37755	0.81905	-0.009
Mof_C 	C 	0.18839	0.37533	0.8202	0.007
Mof_C 	C 	0.1233	0.3866	0.6856	-0.015
Mof_C 	C 	0.0892	0.3873	0.6864	0.037
Mof_C 	C 	0.1107	0.3579	0.8121	-0.011
Mof_C 	C 	0.0774	0.3601	0.8131	0.035
Mof_C 	C 	0.32251	0.53734	0.28859	0.048
Mof_C 	C 	0.31823	0.56853	0.2956	-0.021
Mof_C 	C 	0.34463	0.60246	0.2639	0.012
Mof_C 	C 	0.37531	0.60521	0.2253	-0.017
Mof_C 	C 	0.37959	0.57402	0.21836	0.044
Mof_C 	C 	0.4398	0.46676	0.3894	0.436
Mof_C 	C 	0.4718	0.48443	0.4476	-0.148
Mof_C 	C 	0.4741	0.4664	0.4985	0.058
Mof_C 	C 	0.4973	0.5187	0.4387	0.045
Mof_Zn	Zn	0.59917	0.97109	0.33952	1.216
Mof_O 	O 	0.59657	0.89002	0.15747	-0.514
Mof_O 	O 	0.61284	0.94292	0.09355	-0.51
Mof_O 	O 	0.62656	0.64366	0.68648	-0.514
Mof_O 	O 	0.56673	0.9838	0.3962	-0.52
Mof_O 	O 	0.51209	0.95192	0.3384	-0.515
Mof_C 	C 	0.60759	0.91021	0.09961	0.415
Mof_C 	C 	0.61262	0.89344	0.02766	-0.137
Mof_C 	C 	0.62961	0.91639	0.9646	0.06
Mof_C 	C 	0.63285	0.89967	0.8967	-0.026
Mof_C 	C 	0.6197	0.86238	0.89244	0.022
Mof_C 	C 	0.60386	0.84041	0.9564	-0.028
Mof_C 	C 	0.60138	0.85589	0.0238	0.061
Mof_C 	C 	0.62245	0.84563	0.81905	-0.01
Mof_C 	C 	0.62467	0.81306	0.8202	0.006
Mof_C 	C 	0.6134	0.7367	0.6856	-0.016
Mof_C 	C 	0.6127	0.7019	0.6864	0.036
Mof_C 	C 	0.6421	0.7528	0.8121	-0.012
Mof_C 	C 	0.6399	0.7173	0.8131	0.035
Mof_C 	C 	0.46266	0.78517	0.28859	0.048
Mof_C 	C 	0.43147	0.7497	0.2956	-0.021
Mof_C 	C 	0.39754	0.74217	0.2639	0.012
Mof_C 	C 	0.39479	0.7701	0.2253	-0.017
Mof_C 	C 	0.42598	0.80557	0.21836	0.044
Mof_C 	C 	0.53324	0.97304	0.3894	0.436
Mof_C 	C 	0.51557	0.98737	0.4476	-0.148
Mof_C 	C 	0.5336	0.0077	0.4985	0.058
Mof_C 	C 	0.4813	0.9786	0.4387	0.045
Mof_Zn	Zn	0.02891	0.62808	0.33952	1.216
Mof_O 	O 	0.10998	0.70655	0.15747	-0.514
Mof_O 	O 	0.05708	0.66992	0.09355	-0.51
Mof_O 	O 	0.35634	0.9829	0.68648	-0.514
Mof_O 	O 	0.0162	0.58293	0.3962	-0.52
Mof_O 	O 	0.04808	0.56017	0.3384	-0.515
Mof_C 	C 	0.08979	0.69738	0.09961	0.415
Mof_C 	C 	0.10656	0.71918	0.02766	-0.137
Mof_C 	C 	0.08361	0.71322	0.9646	0.06
Mof_C 	C 	0.10033	0.73318	0.8967	-0.026
Mof_C 	C 	0.13762	0.75732	0.89244	0.022
Mof_C 	C 	0.15959	0.76345	0.9564	-0.028
Mof_C 	C 	0.14411	0.74549	0.0238	0.061
Mof_C 	C 	0.15437	0.77682	0.81905	-0.01
Mof_C 	C 	0.18694	0.81161	0.8202	0.006
Mof_C 	C 	0.2633	0.8767	0.6856	-0.016
Mof_C 	C 	0.2981	0.9108	0.6864	0.036
Mof_C 	C 	0.2472	0.8893	0.8121	-0.012
Mof_C 	C 	0.2827	0.9226	0.8131	0.035
Mof_C 	C 	0.21483	0.67749	0.28859	0.048
Mof_C 	C 	0.2503	0.68177	0.2956	-0.021
Mof_C 	C 	0.25783	0.65537	0.2639	0.012
Mof_C 	C 	0.2299	0.62469	0.2253	-0.017
Mof_C 	C 	0.19443	0.62041	0.21836	0.044
Mof_C 	C 	0.02696	0.5602	0.3894	0.436
Mof_C 	C 	0.01263	0.5282	0.4476	-0.148
Mof_C 	C 	0.9923	0.5259	0.4985	0.058
Mof_C 	C 	0.0214	0.5027	0.4387	0.045
Mof_Zn	Zn	0.62808	0.59917	0.83952	1.216
Mof_O 	O 	0.70655	0.59657	0.65747	-0.514
Mof_O 	O 	0.66992	0.61284	0.59355	-0.51
Mof_O 	O 	0.9829	0.62656	0.18648	-0.514
Mof_O 	O 	0.58293	0.56673	0.8962	-0.52
Mof_O 	O 	0.56017	0.51209	0.8384	-0.515
Mof_C 	C 	0.69738	0.60759	0.59961	0.415
Mof_C 	C 	0.71918	0.61262	0.52766	-0.137
Mof_C 	C 	0.71322	0.62961	0.4646	0.06
Mof_C 	C 	0.73318	0.63285	0.3967	-0.026
Mof_C 	C 	0.75732	0.6197	0.39244	0.022
Mof_C 	C 	0.76345	0.60386	0.4564	-0.028
Mof_C 	C 	0.74549	0.60138	0.5238	0.061
Mof_C 	C 	0.77682	0.62245	0.31905	-0.01
Mof_C 	C 	0.81161	0.62467	0.3202	0.006
Mof_C 	C 	0.8767	0.6134	0.1856	-0.016
Mof_C 	C 	0.9108	0.6127	0.1864	0.036
Mof_C 	C 	0.8893	0.6421	0.3121	-0.012
Mof_C 	C 	0.9226	0.6399	0.3131	0.035
Mof_C 	C 	0.67749	0.46266	0.78859	0.048
Mof_C 	C 	0.68177	0.43147	0.7956	-0.021
Mof_C 	C 	0.65537	0.39754	0.7639	0.012
Mof_C 	C 	0.62469	0.39479	0.7253	-0.017
Mof_C 	C 	0.62041	0.42598	0.71836	0.044
Mof_C 	C 	0.5602	0.53324	0.8894	0.436
Mof_C 	C 	0.5282	0.51557	0.9476	-0.148
Mof_C 	C 	0.5259	0.5336	0.9985	0.058
Mof_C 	C 	0.5027	0.4813	0.9387	0.045
Mof_Zn	Zn	0.40083	0.02891	0.83952	1.216
Mof_O 	O 	0.40343	0.10998	0.65747	-0.514
Mof_O 	O 	0.38716	0.05708	0.59355	-0.51
Mof_O 	O 	0.37344	0.35634	0.18648	-0.514
Mof_O 	O 	0.43327	0.0162	0.8962	-0.52
Mof_O 	O 	0.48791	0.04808	0.8384	-0.515
Mof_C 	C 	0.39241	0.08979	0.59961	0.415
Mof_C 	C 	0.38738	0.10656	0.52766	-0.137
Mof_C 	C 	0.37039	0.08361	0.4646	0.06
Mof_C 	C 	0.36715	0.10033	0.3967	-0.026
Mof_C 	C 	0.3803	0.13762	0.39244	0.022
Mof_C 	C 	0.39614	0.15959	0.4564	-0.028
Mof_C 	C 	0.39862	0.14411	0.5238	0.061
Mof_C 	C 	0.37755	0.15437	0.31905	-0.01
Mof_C 	C 	0.37533	0.18694	0.3202	0.006
Mof_C 	C 	0.3866	0.2633	0.1856	-0.016
Mof_C 	C 	0.3873	0.2981	0.1864	0.036
Mof_C 	C 	0.3579	0.2472	0.3121	-0.012
Mof_C 	C 	0.3601	0.2827	0.3131	0.035
Mof_C 	C 	0.53734	0.21483	0.78859	0.048
Mof_C 	C 	0.56853	0.2503	0.7956	-0.021
Mof_C 	C 	0.60246	0.25783	0.7639	0.012
Mof_C 	C 	0.60521	0.2299	0.7253	-0.017
Mof_C 	C 	0.57402	0.19443	0.71836	0.044
Mof_C 	C 	0.46676	0.02696	0.8894	0.436
Mof_C 	C 	0.48443	0.01263	0.9476	-0.148
Mof_C 	C 	0.4664	0.9923	0.9985	0.058
Mof_C 	C 	0.5187	0.0214	0.9387	0.045
Mof_Zn	Zn	0.97109	0.37192	0.83952	1.216
Mof_O 	O 	0.89002	0.29345	0.65747	-0.514
Mof_O 	O 	0.94292	0.33008	0.59355	-0.51
Mof_O 	O 	0.64366	0.0171	0.18648	-0.514
Mof_O 	O 	0.9838	0.41707	0.8962	-0.52
Mof_O 	O 	0.95192	0.43983	0.8384	-0.515
Mof_C 	C 	0.91021	0.30262	0.59961	0.415
Mof_C 	C 	0.89344	0.28082	0.52766	-0.137
Mof_C 	C 	0.91639	0.28678	0.4646	0.06
Mof_C 	C 	0.89967	0.26682	0.3967	-0.026
Mof_C 	C 	0.86238	0.24268	0.39244	0.022
Mof_C 	C 	0.84041	0.23655	0.4564	-0.028
Mof_C 	C 	0.85589	0.25451	0.5238	0.061
Mof_C 	C 	0.84563	0.22318	0.31905	-0.01
Mof_C 	C 	0.81306	0.18839	0.3202	0.006
Mof_C 	C 	0.7367	0.1233	0.1856	-0.016
Mof_C 	C 	0.7019	0.0892	0.1864	0.036
Mof_C 	C 	0.7528	0.1107	0.3121	-0.012
Mof_C 	C 	0.7173	0.0774	0.3131	0.035
Mof_C 	C 	0.78517	0.32251	0.78859	0.048
Mof_C 	C 	0.7497	0.31823	0.7956	-0.021
Mof_C 	C 	0.74217	0.34463	0.7639	0.012
Mof_C 	C 	0.7701	0.37531	0.7253	-0.017
Mof_C 	C 	0.80557	0.37959	0.71836	0.044
Mof_C 	C 	0.97304	0.4398	0.8894	0.436
Mof_C 	C 	0.98737	0.4718	0.9476	-0.148
Mof_C 	C 	0.0077	0.4741	0.9985	0.058
Mof_C 	C 	0.9786	0.4973	0.9387	0.045
Mof_Zn	Zn	0.62808	0.59917	0.66048	1.216
Mof_O 	O 	0.70655	0.59657	0.84253	-0.514
Mof_O 	O 	0.66992	0.61284	0.90645	-0.51
Mof_O 	O 	0.9829	0.62656	0.31352	-0.514
Mof_O 	O 	0.58293	0.56673	0.6038	-0.52
Mof_O 	O 	0.56017	0.51209	0.6616	-0.515
Mof_C 	C 	0.69738	0.60759	0.90039	0.415
Mof_C 	C 	0.71918	0.61262	0.97234	-0.137
Mof_C 	C 	0.71322	0.62961	0.0354	0.06
Mof_C 	C 	0.73318	0.63285	0.1033	-0.026
Mof_C 	C 	0.75732	0.6197	0.10756	0.022
Mof_C 	C 	0.76345	0.60386	0.0436	-0.028
Mof_C 	C 	0.74549	0.60138	0.9762	0.061
Mof_C 	C 	0.77682	0.62245	0.18095	-0.01
Mof_C 	C 	0.81161	0.62467	0.1798	0.006
Mof_C 	C 	0.8767	0.6134	0.3144	-0.016
Mof_C 	C 	0.9108	0.6127	0.3136	0.036
Mof_C 	C 	0.8893	0.6421	0.1879	-0.012
Mof_C 	C 	0.9226	0.6399	0.1869	0.035
Mof_C 	C 	0.67749	0.46266	0.71141	0.048
Mof_C 	C 	0.68177	0.43147	0.7044	-0.021
Mof_C 	C 	0.65537	0.39754	0.7361	0.012
Mof_C 	C 	0.62469	0.39479	0.7747	-0.017
Mof_C 	C 	0.62041	0.42598	0.78164	0.044
Mof_C 	C 	0.5602	0.53324	0.6106	0.436
Mof_C 	C 	0.5282	0.51557	0.5524	-0.148
Mof_C 	C 	0.5259	0.5336	0.5015	0.058
Mof_C 	C 	0.5027	0.4813	0.5613	0.045
Mof_Zn	Zn	0.40083	0.02891	0.66048	1.216
Mof_O 	O 	0.40343	0.10998	0.84253	-0.514
Mof_O 	O 	0.38716	0.05708	0.90645	-0.51
Mof_O 	O 	0.37344	0.35634	0.31352	-0.514
Mof_O 	O 	0.43327	0.0162	0.6038	-0.52
Mof_O 	O 	0.48791	0.04808	0.6616	-0.515
Mof_C 	C 	0.39241	0.08979	0.90039	0.415
Mof_C 	C 	0.38738	0.10656	0.97234	-0.137
Mof_C 	C 	0.37039	0.08361	0.0354	0.06
Mof_C 	C 	0.36715	0.10033	0.1033	-0.026
Mof_C 	C 	0.3803	0.13762	0.10756	0.022
Mof_C 	C 	0.39614	0.15959	0.0436	-0.028
Mof_C 	C 	0.39862	0.14411	0.9762	0.061
Mof_C 	C 	0.37755	0.15437	0.18095	-0.01
Mof_C 	C 	0.37533	0.18694	0.1798	0.006
Mof_C 	C 	0.3866	0.2633	0.3144	-0.016
Mof_C 	C 	0.3873	0.2981	0.3136	0.036
Mof_C 	C 	0.3579	0.2472	0.1879	-0.012
Mof_C 	C 	0.3601	0.2827	0.1869	0.035
Mof_C 	C 	0.53734	0.21483	0.71141	0.048
Mof_C 	C 	0.56853	0.2503	0.7044	-0.021
Mof_C 	C 	0.60246	0.25783	0.7361	0.012
Mof_C 	C 	0.60521	0.2299	0.7747	-0.017
Mof_C 	C 	0.57402	0.19443	0.78164	0.044
Mof_C 	C 	0.46676	0.02696	0.6106	0.436
Mof_C 	C 	0.48443	0.01263	0.5524	-0.148
Mof_C 	C 	0.4664	0.9923	0.5015	0.058
Mof_C 	C 	0.5187	0.0214	0.5613	0.045
Mof_Zn	Zn	0.97109	0.37192	0.66048	1.216
Mof_O 	O 	0.89002	0.29345	0.84253	-0.514
Mof_O 	O 	0.94292	0.33008	0.90645	-0.51
Mof_O 	O 	0.64366	0.0171	0.31352	-0.514
Mof_O 	O 	0.9838	0.41707	0.6038	-0.52
Mof_O 	O 	0.95192	0.43983	0.6616	-0.515
Mof_C 	C 	0.91021	0.30262	0.90039	0.415
Mof_C 	C 	0.89344	0.28082	0.97234	-0.137
Mof_C 	C 	0.91639	0.28678	0.0354	0.06
Mof_C 	C 	0.89967	0.26682	0.1033	-0.026
Mof_C 	C 	0.86238	0.24268	0.10756	0.022
Mof_C 	C 	0.84041	0.23655	0.0436	-0.028
Mof_C 	C 	0.85589	0.25451	0.9762	0.061
Mof_C 	C 	0.84563	0.22318	0.18095	-0.01
Mof_C 	C 	0.81306	0.18839	0.1798	0.006
Mof_C 	C 	0.7367	0.1233	0.3144	-0.016
Mof_C 	C 	0.7019	0.0892	0.3136	0.036
Mof_C 	C 	0.7528	0.1107	0.1879	-0.012
Mof_C 	C 	0.7173	0.0774	0.1869	0.035
Mof_C 	C 	0.78517	0.32251	0.71141	0.048
Mof_C 	C 	0.7497	0.31823	0.7044	-0.021
Mof_C 	C 	0.74217	0.34463	0.7361	0.012
Mof_C 	C 	0.7701	0.37531	0.7747	-0.017
Mof_C 	C 	0.80557	0.37959	0.78164	0.044
Mof_C 	C 	0.97304	0.4398	0.6106	0.436
Mof_C 	C 	0.98737	0.4718	0.5524	-0.148
Mof_C 	C 	0.0077	0.4741	0.5015	0.058
Mof_C 	C 	0.9786	0.4973	0.5613	0.045
Mof_Zn	Zn	0.37192	0.40083	0.16048	1.216
Mof_O 	O 	0.29345	0.40343	0.34253	-0.514
Mof_O 	O 	0.33008	0.38716	0.40645	-0.51
Mof_O 	O 	0.0171	0.37344	0.81352	-0.514
Mof_O 	O 	0.41707	0.43327	0.1038	-0.52
Mof_O 	O 	0.43983	0.48791	0.1616	-0.515
Mof_C 	C 	0.30262	0.39241	0.40039	0.415
Mof_C 	C 	0.28082	0.38738	0.47234	-0.137
Mof_C 	C 	0.28678	0.37039	0.5354	0.06
Mof_C 	C 	0.26682	0.36715	0.6033	-0.026
Mof_C 	C 	0.24268	0.3803	0.60756	0.022
Mof_C 	C 	0.23655	0.39614	0.5436	-0.028
Mof_C 	C 	0.25451	0.39862	0.4762	0.061
Mof_C 	C 	0.22318	0.37755	0.68095	-0.01
Mof_C 	C 	0.18839	0.37533	0.6798	0.006
Mof_C 	C 	0.1233	0.3866	0.8144	-0.016
Mof_C 	C 	0.0892	0.3873	0.8136	0.036
Mof_C 	C 	0.1107	0.3579	0.6879	-0.012
Mof_C 	C 	0.0774	0.3601	0.6869	0.035
Mof_C 	C 	0.32251	0.53734	0.21141	0.048
Mof_C 	C 	0.31823	0.56853	0.2044	-0.021
Mof_C 	C 	0.34463	0.60246	0.2361	0.012
Mof_C 	C 	0.37531	0.60521	0.2747	-0.017
Mof_C 	C 	0.37959	0.57402	0.28164	0.044
Mof_C 	C 	0.4398	0.46676	0.1106	0.436
Mof_C 	C 	0.4718	0.48443	0.0524	-0.148
Mof_C 	C 	0.4741	0.4664	0.0015	0.058
Mof_C 	C 	0.4973	0.5187	0.0613	0.045
Mof_Zn	Zn	0.59917	0.97109	0.16048	1.216
Mof_O 	O 	0.59657	0.89002	0.34253	-0.514
Mof_O 	O 	0.61284	0.94292	0.40645	-0.51
Mof_O 	O 	0.62656	0.64366	0.81352	-0.514
Mof_O 	O 	0.56673	0.9838	0.1038	-0.52
Mof_O 	O 	0.51209	0.95192	0.1616	-0.515
Mof_C 	C 	0.60759	0.91021	0.40039	0.415
Mof_C 	C 	0.61262	0.89344	0.47234	-0.137
Mof_C 	C 	0.62961	0.91639	0.5354	0.06
Mof_C 	C 	0.63285	0.89967	0.6033	-0.026
Mof_C 	C 	0.6197	0.86238	0.60756	0.022
Mof_C 	C 	0.60386	0.84041	0.5436	-0.028
Mof_C 	C 	0.60138	0.85589	0.4762	0.061
Mof_C 	C 	0.62245	0.84563	0.68095	-0.01
Mof_C 	C 	0.62467	0.81306	0.6798	0.006
Mof_C 	C 	0.6134	0.7367	0.8144	-0.016
Mof_C 	C 	0.6127	0.7019	0.8136	0.036
Mof_C 	C 	0.6421	0.7528	0.6879	-0.012
Mof_C 	C 	0.6399	0.7173	0.6869	0.035
Mof_C 	C 	0.46266	0.78517	0.21141	0.048
Mof_C 	C 	0.43147	0.7497	0.2044	-0.021
Mof_C 	C 	0.39754	0.74217	0.2361	0.012
Mof_C 	C 	0.39479	0.7701	0.2747	-0.017
Mof_C 	C 	0.42598	0.80557	0.28164	0.044
Mof_C 	C 	0.53324	0.97304	0.1106	0.436
Mof_C 	C 	0.51557	0.98737	0.0524	-0.148
Mof_C 	C 	0.5336	0.0077	0.0015	0.058
Mof_C 	C 	0.4813	0.9786	0.0613	0.045
Mof_Zn	Zn	0.02891	0.62808	0.16048	1.216
Mof_O 	O 	0.10998	0.70655	0.34253	-0.514
Mof_O 	O 	0.05708	0.66992	0.40645	-0.51
Mof_O 	O 	0.35634	0.9829	0.81352	-0.514
Mof_O 	O 	0.0162	0.58293	0.1038	-0.52
Mof_O 	O 	0.04808	0.56017	0.1616	-0.515
Mof_C 	C 	0.08979	0.69738	0.40039	0.415
Mof_C 	C 	0.10656	0.71918	0.47234	-0.137
Mof_C 	C 	0.08361	0.71322	0.5354	0.06
Mof_C 	C 	0.10033	0.73318	0.6033	-0.026
Mof_C 	C 	0.13762	0.75732	0.60756	0.022
Mof_C 	C 	0.15959	0.76345	0.5436	-0.028
Mof_C 	C 	0.14411	0.74549	0.4762	0.061
Mof_C 	C 	0.15437	0.77682	0.68095	-0.01
Mof_C 	C 	0.18694	0.81161	0.6798	0.006
Mof_C 	C 	0.2633	0.8767	0.8144	-0.016
Mof_C 	C 	0.2981	0.9108	0.8136	0.036
Mof_C 	C 	0.2472	0.8893	0.6879	-0.012
Mof_C 	C 	0.2827	0.9226	0.6869	0.035
Mof_C 	C 	0.21483	0.67749	0.21141	0.048
Mof_C 	C 	0.2503	0.68177	0.2044	-0.021
Mof_C 	C 	0.25783	0.65537	0.2361	0.012
Mof_C 	C 	0.2299	0.62469	0.2747	-0.017
Mof_C 	C 	0.19443	0.62041	0.28164	0.044
Mof_C 	C 	0.02696	0.5602	0.1106	0.436
Mof_C 	C 	0.01263	0.5282	0.0524	-0.148
Mof_C 	C 	0.9923	0.5259	0.0015	0.058
Mof_C 	C 	0.0214	0.5027	0.0613	0.045
Mof_Zn	Zn	0.32064	0.4252	0.25	1.219
Mof_Zn	Zn	0.40834	0.47783	0.25	1.22
Mof_O 	O 	0.36846	0.4267	0.25	-0.958
Mof_O 	O 	0.38963	0.51209	0.25	-0.529
Mof_O 	O 	0.32935	0.47526	0.25	-0.534
Mof_C 	C 	0.35736	0.50678	0.25	0.473
Mof_C 	C 	0.35319	0.54008	0.25	-0.188
Mof_C 	C 	0.3382	0.63564	0.25	-0.01
Mof_C 	C 	0.36833	0.67092	0.25	0.006
Mof_Zn	Zn	0.5748	0.89544	0.25	1.219
Mof_Zn	Zn	0.52217	0.93051	0.25	1.22
Mof_O 	O 	0.5733	0.94176	0.25	-0.958
Mof_O 	O 	0.48791	0.87754	0.25	-0.529
Mof_O 	O 	0.52474	0.85409	0.25	-0.534
Mof_C 	C 	0.49322	0.85058	0.25	0.473
Mof_C 	C 	0.45992	0.81311	0.25	-0.188
Mof_C 	C 	0.36436	0.70256	0.25	-0.01
Mof_C 	C 	0.32908	0.69741	0.25	0.006
Mof_Zn	Zn	0.10456	0.67936	0.25	1.219
Mof_Zn	Zn	0.06949	0.59166	0.25	1.22
Mof_O 	O 	0.05824	0.63154	0.25	-0.958
Mof_O 	O 	0.12246	0.61037	0.25	-0.529
Mof_O 	O 	0.14591	0.67065	0.25	-0.534
Mof_C 	C 	0.14942	0.64264	0.25	0.473
Mof_C 	C 	0.18689	0.64681	0.25	-0.188
Mof_C 	C 	0.29744	0.6618	0.25	-0.01
Mof_C 	C 	0.30259	0.63167	0.25	0.006
Mof_Zn	Zn	0.67936	0.5748	0.75	1.219
Mof_Zn	Zn	0.59166	0.52217	0.75	1.22
Mof_O 	O 	0.63154	0.5733	0.75	-0.958
Mof_O 	O 	0.61037	0.48791	0.75	-0.529
Mof_O 	O 	0.67065	0.52474	0.75	-0.534
Mof_C 	C 	0.64264	0.49322	0.75	0.473
Mof_C 	C 	0.64681	0.45992	0.75	-0.188
Mof_C 	C 	0.6618	0.36436	0.75	-0.01
Mof_C 	C 	0.63167	0.32908	0.75	0.006
Mof_Zn	Zn	0.4252	0.10456	0.75	1.219
Mof_Zn	Zn	0.47783	0.06949	0.75	1.22
Mof_O 	O 	0.4267	0.05824	0.75	-0.958
Mof_O 	O 	0.51209	0.12246	0.75	-0.529
Mof_O 	O 	0.47526	0.14591	0.75	-0.534
Mof_C 	C 	0.50678	0.14942	0.75	0.473
Mof_C 	C 	0.54008	0.18689	0.75	-0.188
Mof_C 	C 	0.63564	0.29744	0.75	-0.01
Mof_C 	C 	0.67092	0.30259	0.75	0.006
Mof_Zn	Zn	0.89544	0.32064	0.75	1.219
Mof_Zn	Zn	0.93051	0.40834	0.75	1.22
Mof_O 	O 	0.94176	0.36846	0.75	-0.958
Mof_O 	O 	0.87754	0.38963	0.75	-0.529
Mof_O 	O 	0.85409	0.32935	0.75	-0.534
Mof_C 	C 	0.85058	0.35736	0.75	0.473
Mof_C 	C 	0.81311	0.35319	0.75	-0.188
Mof_C 	C 	0.70256	0.3382	0.75	-0.01
Mof_C 	C 	0.69741	0.36833	0.75	0.006
Mof_C 	C 	0.23994	0.3776	0.75	0.006
Mof_C 	C 	0.17087	0.3747	0.75	-0.009
Mof_C 	C 	0.13424	0.373	0.75	0.02
Mof_C 	C 	0.06619	0.37285	0.75	-0.158
Mof_C 	C 	0.03139	0.37381	0.75	0.427
Mof_C 	C 	0.6224	0.86234	0.75	0.006
Mof_C 	C 	0.6253	0.79617	0.75	-0.009
Mof_C 	C 	0.627	0.76124	0.75	0.02
Mof_C 	C 	0.62715	0.69334	0.75	-0.158
Mof_C 	C 	0.62619	0.65758	0.75	0.427
Mof_C 	C 	0.13766	0.76006	0.75	0.006
Mof_C 	C 	0.20383	0.82913	0.75	-0.009
Mof_C 	C 	0.23876	0.86576	0.75	0.02
Mof_C 	C 	0.30666	0.93381	0.75	-0.158
Mof_C 	C 	0.34242	0.96861	0.75	0.427
Mof_C 	C 	0.76006	0.6224	0.25	0.006
Mof_C 	C 	0.82913	0.6253	0.25	-0.009
Mof_C 	C 	0.86576	0.627	0.25	0.02
Mof_C 	C 	0.93381	0.62715	0.25	-0.158
Mof_C 	C 	0.96861	0.62619	0.25	0.427
Mof_C 	C 	0.3776	0.13766	0.25	0.006
Mof_C 	C 	0.3747	0.20383	0.25	-0.009
Mof_C 	C 	0.373	0.23876	0.25	0.02
Mof_C 	C 	0.37285	0.30666	0.25	-0.158
Mof_C 	C 	0.37381	0.34242	0.25	0.427
Mof_C 	C 	0.86234	0.23994	0.25	0.006
Mof_C 	C 	0.79617	0.17087	0.25	-0.009
Mof_C 	C 	0.76124	0.13424	0.25	0.02
Mof_C 	C 	0.69334	0.06619	0.25	-0.158
Mof_C 	C 	0.65758	0.03139	0.25	0.427
_end
