data_functionalizedCrystal
_audit_creation_method	'EQeq! by Chris Wilmer'
_symmetry_space_group_name_H-M	'P1'
_symmetry_Int_Tables_number	1
_symmetry_cell_setting	triclinic
loop_
_symmetry_equiv_pos_as_xyz
  x,y,z
_cell_length_a	9.2355
_cell_length_b	11.278
_cell_length_c	18.64
_cell_angle_alpha	93.948
_cell_angle_beta	98.273
_cell_angle_gamma	109.09
loop_
_atom_site_label
_atom_site_type_symbol
_atom_site_fract_x
_atom_site_fract_y
_atom_site_fract_z
_atom_site_charge
Mof_U 	U 	0.59184	0.45743	0.31343	0.001
Mof_U 	U 	0.65801	0.97687	0.30952	-0.009
Mof_U 	U 	0.34199	0.02313	0.69048	-0.009
Mof_U 	U 	0.40816	0.54257	0.68657	0.001
Mof_Cu	Cu	0.86876	0.04595	0.61779	0.905
Mof_Cu	Cu	0.13124	0.95405	0.38221	0.905
Mof_P 	P 	0.646	0.86794	0.71395	0.402
Mof_P 	P 	0.8794	0.30453	0.28546	0.381
Mof_P 	P 	0.3492	0.66427	0.28874	0.381
Mof_P 	P 	0.1206	0.69547	0.71454	0.381
Mof_P 	P 	0.6508	0.33573	0.71126	0.381
Mof_P 	P 	0.1244	0.23227	0.71886	0.383
Mof_P 	P 	0.354	0.13206	0.28605	0.402
Mof_P 	P 	0.8756	0.76773	0.28114	0.383
Mof_H 	H 	0.7543	0.1777	0.8023	0.053
Mof_H 	H 	0.0768	0.4961	0.804	0.065
Mof_H 	H 	0.1197	0.4845	0.9283	0.062
Mof_H 	H 	0.7317	0.4963	0.9637	0.058
Mof_H 	H 	0.8495	0.7718	0.8011	0.056
Mof_H 	H 	0.6026	0.6428	0.0339	0.063
Mof_H 	H 	0.8077	0.1711	0.925	0.06
Mof_H 	H 	0.3289	0.4986	0.1608	0.055
Mof_H 	H 	0.2087	0.2551	0.3989	0.034
Mof_H 	H 	0.8995	0.7447	0.9216	0.067
Mof_H 	H 	0.9232	0.5039	0.196	0.065
Mof_H 	H 	0.8616	0.6053	0.5286	0.124
Mof_H 	H 	0.1005	0.2553	0.0784	0.067
Mof_H 	H 	0.9971	0.3197	0.5611	0.024
Mof_H 	H 	0.0029	0.6803	0.4389	0.024
Mof_H 	H 	0.8803	0.5155	0.0717	0.062
Mof_H 	H 	0.4129	0.1015	0.0347	0.062
Mof_H 	H 	0.7364	0.1379	0.0326	0.055
Mof_H 	H 	0.0161	0.9397	0.1867	0.042
Mof_H 	H 	0.9839	0.0603	0.8133	0.042
Mof_H 	H 	0.3473	0.38	0.8434	0.051
Mof_H 	H 	0.2683	0.5037	0.0363	0.058
Mof_H 	H 	0.3974	0.3572	0.9661	0.063
Mof_H 	H 	0.7913	0.7449	0.6011	0.034
Mof_H 	H 	0.6711	0.5014	0.8392	0.055
Mof_H 	H 	0.1384	0.3947	0.4714	0.124
Mof_H 	H 	0.2457	0.8223	0.1977	0.053
Mof_H 	H 	0.5388	0.9309	0.8446	0.051
Mof_H 	H 	0.1505	0.2282	0.1989	0.056
Mof_H 	H 	0.1923	0.8289	0.075	0.06
Mof_H 	H 	0.974	0.9565	0.065	0.065
Mof_H 	H 	0.22	0.8743	0.8428	0.055
Mof_H 	H 	0.78	0.1257	0.1572	0.055
Mof_H 	H 	0.6527	0.62	0.1566	0.051
Mof_H 	H 	0.5871	0.8985	0.9653	0.062
Mof_H 	H 	0.2636	0.8621	0.9674	0.055
Mof_H 	H 	0.4612	0.0691	0.1554	0.051
Mof_H 	H 	0.026	0.0435	0.935	0.065
Mof_C 	C 	0.7182	0.6883	0.1383	0.002
Mof_C 	C 	0.3027	0.5657	0.1437	-0.01
Mof_C 	C 	0.7461	0.2409	0.8345	-0
Mof_C 	C 	0.3104	0.1448	0.1905	-0.05
Mof_C 	C 	0.2017	0.7959	0.8597	-0.017
Mof_C 	C 	0.1554	0.2253	0.8153	-0.054
Mof_C 	C 	0.0653	0.1228	0.8441	0.009
Mof_C 	C 	0.9347	0.8772	0.1559	0.009
Mof_C 	C 	0.8503	0.3131	0.1892	-0.039
Mof_C 	C 	0.6896	0.8552	0.8095	-0.05
Mof_C 	C 	0.7005	0.3357	0.8072	-0.043
Mof_C 	C 	0.2539	0.7591	0.1655	-0
Mof_C 	C 	0.3885	0.1072	0.1404	-0.003
Mof_C 	C 	0.0247	0.2643	0.5311	0.117
Mof_C 	C 	0.9753	0.7357	0.4689	0.117
Mof_C 	C 	0.2995	0.6643	0.1928	-0.043
Mof_C 	C 	0.1496	0.2256	0.4345	0.117
Mof_C 	C 	0.9756	0.933	0.5041	0.085
Mof_C 	C 	0.2515	0.1803	0.0431	0.03
Mof_C 	C 	0.1497	0.6869	0.8108	-0.039
Mof_C 	C 	0.1412	0.5632	0.9115	-0.074
Mof_C 	C 	0.8908	0.6903	0.522	-0.144
Mof_C 	C 	0.8021	0.328	0.0383	0.023
Mof_C 	C 	0.3584	0.1263	0.0676	-0.085
Mof_C 	C 	0.8504	0.7744	0.5655	0.117
Mof_C 	C 	0.7798	0.2377	0.9081	-0.081
Mof_C 	C 	0.8262	0.782	0.9063	-0.089
Mof_C 	C 	0.6416	0.8737	0.9324	-0.085
Mof_C 	C 	0.6878	0.7022	0.0644	-0.087
Mof_C 	C 	0.1092	0.3097	0.478	-0.144
Mof_C 	C 	0.7485	0.8197	0.9569	0.03
Mof_C 	C 	0.1979	0.672	0.9617	0.023
Mof_C 	C 	0.6115	0.8928	0.8596	-0.003
Mof_C 	C 	0.227	0.6665	0.0412	0.029
Mof_C 	C 	0.8588	0.4368	0.0885	-0.074
Mof_C 	C 	0.1738	0.218	0.0937	-0.089
Mof_C 	C 	0.907	0.8889	0.0832	-0.093
Mof_C 	C 	0.7732	0.2119	0.0652	-0.075
Mof_C 	C 	0.2033	0.2012	0.1659	0.002
Mof_C 	C 	0.7339	0.4306	0.9313	-0.079
Mof_C 	C 	0.1161	0.5699	0.8367	-0.01
Mof_C 	C 	0.0244	0.067	0.4959	0.085
Mof_C 	C 	0.093	0.1111	0.9168	-0.093
Mof_C 	C 	0.2172	0.1967	0.9638	0.032
Mof_C 	C 	0.3122	0.2978	0.9356	-0.087
Mof_C 	C 	0.2268	0.7881	0.9348	-0.075
Mof_C 	C 	0.2818	0.3117	0.8617	0.002
Mof_C 	C 	0.7967	0.7988	0.8341	0.002
Mof_C 	C 	0.8839	0.4301	0.1633	-0.01
Mof_C 	C 	0.8446	0.7747	0.1847	-0.054
Mof_C 	C 	0.7828	0.8033	0.0362	0.032
Mof_C 	C 	0.773	0.3335	0.9588	0.029
Mof_C 	C 	0.2202	0.7623	0.0919	-0.081
Mof_C 	C 	0.2661	0.5694	0.0687	-0.079
Mof_C 	C 	0.6973	0.4343	0.8563	-0.01
Mof_C 	C 	0.7983	0.2041	0.1403	-0.017
Mof_N 	N 	0.9808	0.1402	0.5407	-0.216
Mof_N 	N 	0.8945	0.8974	0.5574	-0.211
Mof_N 	N 	0.1055	0.1026	0.4426	-0.211
Mof_N 	N 	0.0192	0.8598	0.4593	-0.216
Mof_O 	O 	0.7892	0.3731	0.3218	-0.17
Mof_O 	O 	0.455	0.7944	0.3226	-0.186
Mof_O 	O 	0.1907	0.6329	0.3201	-0.168
Mof_O 	O 	0.8423	0.1694	0.2995	-0.19
Mof_O 	O 	0.2041	0.0565	0.309	-0.365
Mof_O 	O 	0.5228	0.9305	0.7033	-0.197
Mof_O 	O 	0.7959	0.9435	0.691	-0.365
Mof_O 	O 	0.5794	0.7331	0.6728	-0.179
Mof_O 	O 	0.1577	0.8306	0.7005	-0.19
Mof_O 	O 	0.4206	0.2669	0.3272	-0.179
Mof_O 	O 	0.2241	0.3614	0.704	-0.179
Mof_O 	O 	0.1674	0.1268	0.6819	-0.229
Mof_O 	O 	0.7759	0.6386	0.296	-0.179
Mof_O 	O 	0.049	0.7943	0.3102	-0.319
Mof_O 	O 	0.8093	0.3671	0.6799	-0.168
Mof_O 	O 	0.9423	0.6276	0.6836	-0.177
Mof_O 	O 	0.545	0.2056	0.6774	-0.186
Mof_O 	O 	0.4115	0.5598	0.3045	-0.173
Mof_O 	O 	0.4772	0.0695	0.2967	-0.197
Mof_O 	O 	0.8326	0.8732	0.3181	-0.229
Mof_O 	O 	0.951	0.2057	0.6898	-0.319
Mof_O 	O 	0.5885	0.4402	0.6955	-0.173
Mof_O 	O 	0.0577	0.3724	0.3164	-0.177
Mof_O 	O 	0.2108	0.6269	0.6782	-0.17
_end
