data_functionalizedCrystal
_audit_creation_method	'EQeq! by Chris Wilmer'
_symmetry_space_group_name_H-M	'P1'
_symmetry_Int_Tables_number	1
_symmetry_cell_setting	triclinic
loop_
_symmetry_equiv_pos_as_xyz
  x,y,z
_cell_length_a	11.1556
_cell_length_b	13.043
_cell_length_c	14.135
_cell_angle_alpha	89.759
_cell_angle_beta	87.182
_cell_angle_gamma	85.006
loop_
_atom_site_label
_atom_site_type_symbol
_atom_site_fract_x
_atom_site_fract_y
_atom_site_fract_z
_atom_site_charge
Mof_Cu	Cu	0.59444	0.93211	0.99934	0.933
Mof_Cu	Cu	0.59847	0.54972	0.49893	0.909
Mof_C 	C 	0.6582	0.1497	0.7838	-0.068
Mof_C 	C 	0.5936	0.2277	0.7348	0.004
Mof_C 	C 	0.6582	0.2856	0.669	-0.073
Mof_C 	C 	0.7799	0.2637	0.6505	0.015
Mof_H 	H 	0.8203	0.303	0.6064	0.044
Mof_C 	C 	0.8429	0.1839	0.6965	-0.075
Mof_H 	H 	0.9254	0.1697	0.6845	0.065
Mof_C 	C 	0.7791	0.1247	0.7621	0.006
Mof_H 	H 	0.819	0.0682	0.791	0.053
Mof_C 	C 	0.5985	0.0895	0.8628	0.361
Mof_C 	C 	0.4617	0.2477	0.7505	0.286
Mof_C 	C 	0.595	0.3698	0.6122	0.358
Mof_O 	O 	0.6555	0.011	0.8933	-0.388
Mof_O 	O 	0.4989	0.1283	0.8964	-0.383
Mof_O 	O 	0.4163	0.3262	0.7939	-0.234
Mof_O 	O 	0.397	0.1839	0.7122	-0.195
Mof_O 	O 	0.6547	0.4437	0.5896	-0.401
Mof_O 	O 	0.488	0.3608	0.5924	-0.385
Mof_C 	C 	0.34	0.8242	0.819	-0.087
Mof_C 	C 	0.4041	0.7504	0.7583	0.016
Mof_C 	C 	0.339	0.6911	0.7006	-0.086
Mof_C 	C 	0.2167	0.7019	0.7048	0.026
Mof_H 	H 	0.1758	0.6601	0.6668	0.04
Mof_C 	C 	0.1509	0.7728	0.7634	-0.085
Mof_H 	H 	0.0671	0.7796	0.7646	0.068
Mof_C 	C 	0.214	0.8342	0.821	0.027
Mof_H 	H 	0.1716	0.8823	0.8612	0.046
Mof_C 	C 	0.4011	0.8874	0.885	0.372
Mof_C 	C 	0.5402	0.7451	0.7524	0.29
Mof_C 	C 	0.402	0.6151	0.6299	0.377
Mof_O 	O 	0.503	0.8554	0.9114	-0.389
Mof_O 	O 	0.345	0.97	0.9112	-0.389
Mof_O 	O 	0.5886	0.8147	0.7092	-0.206
Mof_O 	O 	0.5961	0.668	0.7904	-0.235
Mof_O 	O 	0.5036	0.6291	0.6007	-0.402
Mof_O 	O 	0.341	0.5436	0.6044	-0.402
Mof_N 	N 	0.3278	0.5608	0.0021	-0.273
Mof_C 	C 	0.2932	0.6407	0.0572	0.08
Mof_H 	H 	0.3499	0.6659	0.0951	-0.011
Mof_C 	C 	0.1776	0.6889	0.0617	-0.139
Mof_H 	H 	0.1577	0.7444	0.1023	0.084
Mof_C 	C 	0.0923	0.6539	0.0054	0.041
Mof_C 	C 	0.1299	0.5701	0.949	-0.123
Mof_H 	H 	0.0766	0.5427	0.9096	0.085
Mof_C 	C 	0.2467	0.5275	0.9515	0.132
Mof_H 	H 	0.2688	0.4701	0.9136	-0.014
Mof_N 	N 	0.7507	0.8252	0.0037	-0.209
Mof_C 	C 	0.8059	0.8097	0.0833	0.072
Mof_H 	H 	0.7698	0.8392	0.1385	0.031
Mof_C 	C 	0.9158	0.7512	0.0887	-0.117
Mof_H 	H 	0.9512	0.7417	0.1466	0.078
Mof_C 	C 	0.9718	0.7075	0.0078	0.025
Mof_C 	C 	0.9071	0.7177	0.9264	-0.093
Mof_H 	H 	0.9368	0.6844	0.8709	0.072
Mof_C 	C 	0.7968	0.7784	0.9278	0.096
Mof_H 	H 	0.7553	0.7855	0.8724	0.024
Mof_Cu	Cu	0.40556	0.06789	0.00066	0.902
Mof_Cu	Cu	0.40153	0.45028	0.50107	0.908
Mof_C 	C 	0.3418	0.8503	0.2162	-0.073
Mof_C 	C 	0.4064	0.7723	0.2652	0.005
Mof_C 	C 	0.3418	0.7144	0.331	-0.075
Mof_C 	C 	0.2201	0.7363	0.3495	0.016
Mof_H 	H 	0.1797	0.697	0.3936	0.043
Mof_C 	C 	0.1571	0.8161	0.3035	-0.078
Mof_H 	H 	0.0746	0.8303	0.3155	0.065
Mof_C 	C 	0.2209	0.8753	0.2379	0.009
Mof_H 	H 	0.181	0.9318	0.209	0.047
Mof_C 	C 	0.4015	0.9105	0.1372	0.364
Mof_C 	C 	0.5383	0.7523	0.2495	0.286
Mof_C 	C 	0.405	0.6302	0.3878	0.358
Mof_O 	O 	0.3445	0.989	0.1067	-0.404
Mof_O 	O 	0.5011	0.8717	0.1036	-0.404
Mof_O 	O 	0.5837	0.6738	0.2061	-0.24
Mof_O 	O 	0.603	0.8161	0.2878	-0.196
Mof_O 	O 	0.3453	0.5563	0.4104	-0.402
Mof_O 	O 	0.512	0.6392	0.4076	-0.385
Mof_C 	C 	0.66	0.1758	0.181	-0.096
Mof_C 	C 	0.5959	0.2496	0.2417	0.016
Mof_C 	C 	0.661	0.3089	0.2994	-0.089
Mof_C 	C 	0.7833	0.2981	0.2952	0.029
Mof_H 	H 	0.8242	0.3399	0.3332	0.039
Mof_C 	C 	0.8491	0.2272	0.2366	-0.093
Mof_H 	H 	0.9329	0.2204	0.2354	0.068
Mof_C 	C 	0.786	0.1658	0.179	0.029
Mof_H 	H 	0.8284	0.1177	0.1388	0.036
Mof_C 	C 	0.5989	0.1126	0.115	0.373
Mof_C 	C 	0.4598	0.2549	0.2476	0.29
Mof_C 	C 	0.598	0.3849	0.3701	0.377
Mof_O 	O 	0.497	0.1446	0.0886	-0.407
Mof_O 	O 	0.655	0.03	0.0888	-0.409
Mof_O 	O 	0.4114	0.1853	0.2908	-0.207
Mof_O 	O 	0.4039	0.332	0.2096	-0.243
Mof_O 	O 	0.4964	0.3709	0.3993	-0.403
Mof_O 	O 	0.659	0.4564	0.3956	-0.402
Mof_N 	N 	0.6722	0.4392	0.9979	-0.235
Mof_C 	C 	0.7068	0.3593	0.9428	0.105
Mof_H 	H 	0.6501	0.3341	0.9049	-0.012
Mof_C 	C 	0.8224	0.3111	0.9383	-0.156
Mof_H 	H 	0.8423	0.2556	0.8977	0.094
Mof_C 	C 	0.9077	0.3461	0.9946	0.107
Mof_C 	C 	0.8701	0.4299	0.051	-0.194
Mof_H 	H 	0.9234	0.4573	0.0904	0.098
Mof_C 	C 	0.7533	0.4725	0.0485	0.087
Mof_H 	H 	0.7312	0.5299	0.0864	-0.009
Mof_N 	N 	0.2493	0.1748	0.9963	-0.167
Mof_C 	C 	0.1941	0.1903	0.9167	0.089
Mof_H 	H 	0.2302	0.1608	0.8615	0.029
Mof_C 	C 	0.0842	0.2488	0.9113	-0.128
Mof_H 	H 	0.0488	0.2583	0.8534	0.082
Mof_C 	C 	0.0282	0.2925	0.9922	0.076
Mof_C 	C 	0.0929	0.2823	0.0736	-0.156
Mof_H 	H 	0.0632	0.3156	0.1291	0.084
Mof_C 	C 	0.2032	0.2216	0.0722	0.048
Mof_H 	H 	0.2447	0.2145	0.1276	0.034
Mof_Cu	Cu	0.5	0.5	-0	0.816
_end
