data_functionalizedCrystal
_audit_creation_method	'EQeq! by Chris Wilmer'
_symmetry_space_group_name_H-M	'P1'
_symmetry_Int_Tables_number	1
_symmetry_cell_setting	triclinic
loop_
_symmetry_equiv_pos_as_xyz
  x,y,z
_cell_length_a	16.0685
_cell_length_b	14.6258
_cell_length_c	9.3457
_cell_angle_alpha	90
_cell_angle_beta	117.798
_cell_angle_gamma	90
loop_
_atom_site_label
_atom_site_type_symbol
_atom_site_fract_x
_atom_site_fract_y
_atom_site_fract_z
_atom_site_charge
Mof_O 	O 	0.60729	0.94682	0.9807	-0.527
Mof_O 	O 	0.60016	0.03281	0.171	-0.517
Mof_C 	C 	0.6341	0.9689	0.1242	0.462
Mof_C 	C 	0.7156	0.9156	0.2519	-0.173
Mof_C 	C 	0.7417	0.8315	0.2155	0.088
Mof_H 	H 	0.7118	0.8099	0.1098	0.006
Mof_C 	C 	0.812	0.7796	0.3356	-0.138
Mof_H 	H 	0.8281	0.723	0.3101	0.084
Mof_C 	C 	0.8586	0.8119	0.4944	0.076
Mof_C 	C 	0.8327	0.8967	0.5289	-0.126
Mof_H 	H 	0.8639	0.9196	0.6337	0.107
Mof_C 	C 	0.7615	0.9474	0.4097	0.076
Mof_H 	H 	0.7442	0.0033	0.4356	0.023
Mof_C 	C 	0.9341	0.7587	0.6271	0.09
Mof_C 	C 	0.9359	0.6637	0.6264	0.095
Mof_H 	H 	0.8909	0.6326	0.5369	0.01
Mof_O 	O 	0.10729	0.44682	0.9807	-0.557
Mof_O 	O 	0.10016	0.53281	0.171	-0.549
Mof_C 	C 	0.1341	0.4689	0.1242	0.472
Mof_C 	C 	0.2156	0.4156	0.2519	-0.191
Mof_C 	C 	0.2417	0.3315	0.2155	0.096
Mof_H 	H 	0.2118	0.3099	0.1098	-0.007
Mof_C 	C 	0.312	0.2796	0.3356	-0.158
Mof_H 	H 	0.3281	0.223	0.3101	0.081
Mof_C 	C 	0.3586	0.3119	0.4944	0.084
Mof_C 	C 	0.3327	0.3967	0.5289	-0.148
Mof_H 	H 	0.3639	0.4196	0.6337	0.091
Mof_C 	C 	0.2615	0.4474	0.4097	0.086
Mof_H 	H 	0.2442	0.5033	0.4356	0.013
Mof_C 	C 	0.4341	0.2587	0.6271	0.02
Mof_C 	C 	0.4359	0.1637	0.6264	-0.006
Mof_H 	H 	0.3909	0.1326	0.5369	0.032
Mof_O 	O 	0.39271	0.94682	0.5193	-0.528
Mof_O 	O 	0.39984	0.03281	0.329	-0.521
Mof_C 	C 	0.3659	0.9689	0.3758	0.461
Mof_C 	C 	0.2844	0.9156	0.2481	-0.175
Mof_C 	C 	0.2583	0.8315	0.2845	0.08
Mof_H 	H 	0.2882	0.8099	0.3902	0.003
Mof_C 	C 	0.188	0.7796	0.1644	-0.149
Mof_H 	H 	0.1719	0.723	0.1899	0.072
Mof_C 	C 	0.1414	0.8119	0.0056	0.064
Mof_C 	C 	0.1673	0.8967	0.9711	-0.133
Mof_H 	H 	0.1361	0.9196	0.8663	0.073
Mof_C 	C 	0.2385	0.9474	0.0903	0.06
Mof_H 	H 	0.2558	0.0033	0.0644	0.02
Mof_C 	C 	0.0659	0.7587	0.8729	0.008
Mof_C 	C 	0.0641	0.6637	0.8736	-0.028
Mof_H 	H 	0.1091	0.6326	0.9631	0.033
Mof_O 	O 	0.89271	0.44682	0.5193	-0.491
Mof_O 	O 	0.89984	0.53281	0.329	-0.483
Mof_C 	C 	0.8659	0.4689	0.3758	0.466
Mof_C 	C 	0.7844	0.4156	0.2481	-0.179
Mof_C 	C 	0.7583	0.3315	0.2845	0.097
Mof_H 	H 	0.7882	0.3099	0.3902	0.01
Mof_C 	C 	0.688	0.2796	0.1644	-0.158
Mof_H 	H 	0.6719	0.223	0.1899	0.086
Mof_C 	C 	0.6414	0.3119	0.0056	0.094
Mof_C 	C 	0.6673	0.3967	0.9711	-0.161
Mof_H 	H 	0.6361	0.4196	0.8663	0.095
Mof_C 	C 	0.7385	0.4474	0.0903	0.092
Mof_H 	H 	0.7558	0.5033	0.0644	0.013
Mof_C 	C 	0.5659	0.2587	0.8729	0.014
Mof_C 	C 	0.5641	0.1637	0.8736	-0.005
Mof_H 	H 	0.6091	0.1326	0.9631	0.03
Mof_O 	O 	0.39271	0.05318	0.0193	-0.524
Mof_O 	O 	0.39984	0.96719	0.829	-0.52
Mof_C 	C 	0.3659	0.0311	0.8758	0.458
Mof_C 	C 	0.2844	0.0844	0.7481	-0.179
Mof_C 	C 	0.2583	0.1685	0.7845	0.083
Mof_H 	H 	0.2882	0.1901	0.8902	0.001
Mof_C 	C 	0.188	0.2204	0.6644	-0.153
Mof_H 	H 	0.1719	0.277	0.6899	0.073
Mof_C 	C 	0.1414	0.1881	0.5056	0.068
Mof_C 	C 	0.1673	0.1033	0.4711	-0.141
Mof_H 	H 	0.1361	0.0804	0.3663	0.076
Mof_C 	C 	0.2385	0.0526	0.5903	0.07
Mof_H 	H 	0.2558	0.9967	0.5644	0.014
Mof_C 	C 	0.0659	0.2413	0.3729	0.007
Mof_C 	C 	0.0641	0.3363	0.3736	-0.029
Mof_H 	H 	0.1091	0.3674	0.4631	0.033
Mof_O 	O 	0.89271	0.55318	0.0193	-0.486
Mof_O 	O 	0.89984	0.46719	0.829	-0.482
Mof_C 	C 	0.8659	0.5311	0.8758	0.457
Mof_C 	C 	0.7844	0.5844	0.7481	-0.168
Mof_C 	C 	0.7583	0.6685	0.7845	0.084
Mof_H 	H 	0.7882	0.6901	0.8902	0.013
Mof_C 	C 	0.688	0.7204	0.6644	-0.146
Mof_H 	H 	0.6719	0.777	0.6899	0.081
Mof_C 	C 	0.6414	0.6881	0.5056	0.076
Mof_C 	C 	0.6673	0.6033	0.4711	-0.138
Mof_H 	H 	0.6361	0.5804	0.3663	0.088
Mof_C 	C 	0.7385	0.5526	0.5903	0.073
Mof_H 	H 	0.7558	0.4967	0.5644	0.019
Mof_C 	C 	0.5659	0.7413	0.3729	0.023
Mof_C 	C 	0.5641	0.8363	0.3736	-0.009
Mof_H 	H 	0.6091	0.8674	0.4631	0.034
Mof_O 	O 	0.60729	0.05318	0.4807	-0.525
Mof_O 	O 	0.60016	0.96719	0.671	-0.519
Mof_C 	C 	0.6341	0.0311	0.6242	0.459
Mof_C 	C 	0.7156	0.0844	0.7519	-0.159
Mof_C 	C 	0.7417	0.1685	0.7155	0.071
Mof_H 	H 	0.7118	0.1901	0.6098	0.012
Mof_C 	C 	0.812	0.2204	0.8356	-0.119
Mof_H 	H 	0.8281	0.277	0.8101	0.076
Mof_C 	C 	0.8586	0.1881	0.9944	0.047
Mof_C 	C 	0.8327	0.1033	0.0289	-0.092
Mof_H 	H 	0.8639	0.0804	0.1337	0.097
Mof_C 	C 	0.7615	0.0526	0.9097	0.048
Mof_H 	H 	0.7442	0.9967	0.9356	0.031
Mof_C 	C 	0.9341	0.2413	0.1271	0.106
Mof_C 	C 	0.9359	0.3363	0.1264	0.091
Mof_H 	H 	0.8909	0.3674	0.0369	0.013
Mof_O 	O 	0.10729	0.55318	0.4807	-0.555
Mof_O 	O 	0.10016	0.46719	0.671	-0.549
Mof_C 	C 	0.1341	0.5311	0.6242	0.469
Mof_C 	C 	0.2156	0.5844	0.7519	-0.188
Mof_C 	C 	0.2417	0.6685	0.7155	0.093
Mof_H 	H 	0.2118	0.6901	0.6098	-0.006
Mof_C 	C 	0.312	0.7204	0.8356	-0.155
Mof_H 	H 	0.3281	0.777	0.8101	0.08
Mof_C 	C 	0.3586	0.6881	0.9944	0.079
Mof_C 	C 	0.3327	0.6033	0.0289	-0.141
Mof_H 	H 	0.3639	0.5804	0.1337	0.09
Mof_C 	C 	0.2615	0.5526	0.9097	0.081
Mof_H 	H 	0.2442	0.4967	0.9356	0.014
Mof_C 	C 	0.4341	0.7413	0.1271	0.022
Mof_C 	C 	0.4359	0.8363	0.1264	-0.008
Mof_H 	H 	0.3909	0.8674	0.0369	0.033
Mof_Mg	Mg	0.5	0.95728	0.75	1.468
Mof_Mg	Mg	-2.92569e-17	0.45728	0.75	1.459
Mof_Mg	Mg	0.5	0.04272	0.25	1.468
Mof_Mg	Mg	7.99425e-34	0.54272	0.25	1.459
Mof_N 	N 	-2.92569e-17	0.8062	0.75	-0.181
Mof_N 	N 	-2.92569e-17	0.6158	0.75	-0.279
Mof_N 	N 	0.5	0.3062	0.75	-0.112
Mof_N 	N 	0.5	0.1158	0.75	-0.207
Mof_N 	N 	7.99425e-34	0.1938	0.25	-0.184
Mof_N 	N 	1.46284e-17	0.3842	0.25	-0.279
Mof_N 	N 	0.5	0.6938	0.25	-0.113
Mof_N 	N 	0.5	0.8842	0.25	-0.206
_end
