data_functionalizedCrystal
_audit_creation_method	'EQeq! by Chris Wilmer'
_symmetry_space_group_name_H-M	'P1'
_symmetry_Int_Tables_number	1
_symmetry_cell_setting	triclinic
loop_
_symmetry_equiv_pos_as_xyz
  x,y,z
_cell_length_a	13.0126
_cell_length_b	13.1146
_cell_length_c	13.9071
_cell_angle_alpha	84.956
_cell_angle_beta	69.273
_cell_angle_gamma	84.608
loop_
_atom_site_label
_atom_site_type_symbol
_atom_site_fract_x
_atom_site_fract_y
_atom_site_fract_z
_atom_site_charge
Mof_Zn	Zn	0.20298	0.32206	0.16422	1.214
Mof_Zn	Zn	0.13367	0.32743	0.39017	1.214
Mof_O 	O 	0.13961	0.47954	0.34898	-0.466
Mof_O 	O 	0.13954	0.17424	0.37276	-0.466
Mof_O 	O 	0.97261	0.33681	0.40015	-0.45
Mof_O 	O 	0.2037	0.16945	0.20129	-0.46
Mof_O 	O 	0.36409	0.3151	0.15423	-0.445
Mof_O 	O 	0.1935	0.47562	0.17756	-0.464
Mof_N 	N 	0.1991	0.32217	0.01894	-0.236
Mof_N 	N 	0.1318	0.32447	0.5367	-0.239
Mof_O 	O 	0.3037	0.31724	0.32514	-0.47
Mof_O 	O 	0.03173	0.3262	0.22994	-0.469
Mof_C 	C 	0.1689	0.5211	0.2598	0.375
Mof_C 	C 	0.1552	0.7991	0.3251	0.042
Mof_C 	C 	0.1712	0.1274	0.2914	0.386
Mof_C 	C 	0.1495	0.6915	0.3342	-0.05
Mof_H 	H 	0.1282	0.657	0.4005	0.065
Mof_C 	C 	0.3785	0.3144	0.2388	0.382
Mof_C 	C 	0.1341	0.9626	0.4013	0.028
Mof_H 	H 	0.1147	0.0011	0.4606	0.035
Mof_C 	C 	0.1288	0.8581	0.412	-0.103
Mof_H 	H 	0.107	0.8249	0.479	0.076
Mof_C 	C 	0.821	0.3108	0.2327	-0.034
Mof_H 	H 	0.8813	0.2998	0.1707	0.053
Mof_C 	C 	0.7126	0.3092	0.2329	0.02
Mof_C 	C 	0.495	0.3112	0.2372	-0.083
Mof_C 	C 	0.1686	0.0133	0.3017	-0.097
Mof_C 	C 	0.1741	0.6362	0.2488	-0.07
Mof_C 	C 	0.1674	0.3215	0.8306	0.027
Mof_C 	C 	0.5847	0.293	0.1453	0.013
Mof_H 	H 	0.5713	0.2812	0.0845	0.04
Mof_C 	C 	0.6901	0.2921	0.1435	-0.084
Mof_H 	H 	0.7495	0.2797	0.0811	0.054
Mof_C 	C 	0.8409	0.3277	0.3196	-0.091
Mof_C 	C 	0.1975	0.9571	0.2166	-0.017
Mof_H 	H 	0.2225	0.9911	0.1501	0.049
Mof_C 	C 	0.1527	0.3217	0.7293	0.031
Mof_C 	C 	0.515	0.3271	0.3249	-0.033
Mof_H 	H 	0.4547	0.3386	0.3867	0.057
Mof_C 	C 	0.6231	0.3266	0.3252	0.024
Mof_C 	C 	0.1074	0.4046	0.6912	-0.052
Mof_H 	H 	0.0823	0.4639	0.7299	0.041
Mof_C 	C 	0.6457	0.3445	0.4149	-0.087
Mof_H 	H 	0.5863	0.3566	0.4773	0.061
Mof_C 	C 	0.751	0.3444	0.4128	0.014
Mof_H 	H 	0.7646	0.3555	0.4737	0.038
Mof_C 	C 	0.0972	0.4036	0.5949	0.005
Mof_H 	H 	0.0638	0.4626	0.5701	0.02
Mof_C 	C 	0.1908	0.8496	0.2255	0.002
Mof_C 	C 	0.2229	0.6864	0.1471	-0.014
Mof_H 	H 	0.2469	0.6472	0.0878	0.033
Mof_C 	C 	0.2343	0.7893	0.1365	-0.034
Mof_H 	H 	0.2709	0.8211	0.0706	0.033
Mof_C 	C 	0.9576	0.3303	0.3158	0.373
Mof_C 	C 	0.1272	0.2367	0.5949	0.029
Mof_H 	H 	0.1175	0.1751	0.5688	0.013
Mof_C 	C 	0.1359	0.2323	0.6916	-0.01
Mof_H 	H 	0.1305	0.1692	0.7316	0.03
Mof_C 	C 	0.122	0.4045	0.8964	-0.105
Mof_H 	H 	0.0797	0.4603	0.8773	0.06
Mof_C 	C 	0.1407	0.4017	0.9874	-0.012
Mof_H 	H 	0.1119	0.4576	0.0305	0.022
Mof_C 	C 	0.23	0.2404	0.9631	0.019
Mof_H 	H 	0.2639	0.1819	0.9882	0.009
Mof_C 	C 	0.2151	0.2367	0.8697	-0.039
Mof_H 	H 	0.2374	0.1762	0.8326	0.032
Mof_C 	C 	0.203	0.2404	0.6633	-0.089
Mof_H 	H 	0.244	0.1847	0.6842	0.054
Mof_C 	C 	0.1909	0.2444	0.5684	0.003
Mof_H 	H 	0.2243	0.1906	0.5237	0.021
Mof_C 	C 	0.1368	0.4112	0.5775	0.032
Mof_H 	H 	0.1319	0.4744	0.5398	0.01
Mof_C 	C 	0.1488	0.4138	0.6727	-0.034
Mof_H 	H 	0.1542	0.477	0.6984	0.034
Mof_C 	C 	0.1875	0.7927	0.1409	-0.031
Mof_H 	H 	0.1918	0.8278	0.077	0.03
Mof_C 	C 	0.178	0.6881	0.1539	-0.001
Mof_H 	H 	0.1742	0.6512	0.0996	0.026
Mof_C 	C 	0.1986	0.4087	0.9617	0.044
Mof_H 	H 	0.2072	0.4712	0.9869	0.006
Mof_C 	C 	0.186	0.4111	0.8677	0.005
Mof_H 	H 	0.1899	0.4741	0.8275	0.029
Mof_C 	C 	0.188	0.2359	0.9812	0.015
Mof_H 	H 	0.1912	0.1731	0.0201	0.014
Mof_C 	C 	0.1721	0.2322	0.8883	-0.046
Mof_H 	H 	0.1645	0.1684	0.8648	0.034
Mof_Zn	Zn	0.79702	0.67794	0.83578	1.215
Mof_Zn	Zn	0.86633	0.67257	0.60983	1.215
Mof_O 	O 	0.86039	0.52046	0.65102	-0.465
Mof_O 	O 	0.86046	0.82576	0.62724	-0.465
Mof_O 	O 	0.02739	0.66319	0.59985	-0.449
Mof_O 	O 	0.7963	0.83055	0.79871	-0.459
Mof_O 	O 	0.63591	0.6849	0.84577	-0.444
Mof_O 	O 	0.8065	0.52438	0.82244	-0.463
Mof_N 	N 	0.8009	0.67783	0.98106	-0.235
Mof_N 	N 	0.8682	0.67553	0.4633	-0.238
Mof_O 	O 	0.6963	0.68276	0.67486	-0.47
Mof_O 	O 	0.96827	0.6738	0.77006	-0.469
Mof_C 	C 	0.8311	0.4789	0.7402	0.375
Mof_C 	C 	0.8448	0.2009	0.6749	0.042
Mof_C 	C 	0.8288	0.8726	0.7086	0.386
Mof_C 	C 	0.8505	0.3085	0.6658	-0.05
Mof_H 	H 	0.8718	0.343	0.5995	0.065
Mof_C 	C 	0.6215	0.6856	0.7612	0.382
Mof_C 	C 	0.8659	0.0374	0.5987	0.028
Mof_H 	H 	0.8853	0.9989	0.5394	0.035
Mof_C 	C 	0.8712	0.1419	0.588	-0.103
Mof_H 	H 	0.893	0.1751	0.521	0.076
Mof_C 	C 	0.179	0.6892	0.7673	-0.034
Mof_H 	H 	0.1187	0.7002	0.8293	0.053
Mof_C 	C 	0.2874	0.6908	0.7671	0.02
Mof_C 	C 	0.505	0.6888	0.7628	-0.083
Mof_C 	C 	0.8314	0.9867	0.6983	-0.097
Mof_C 	C 	0.8259	0.3638	0.7512	-0.07
Mof_C 	C 	0.8326	0.6785	0.1694	0.027
Mof_C 	C 	0.4153	0.707	0.8547	0.013
Mof_H 	H 	0.4287	0.7188	0.9155	0.04
Mof_C 	C 	0.3099	0.7079	0.8565	-0.084
Mof_H 	H 	0.2505	0.7203	0.9189	0.054
Mof_C 	C 	0.1591	0.6723	0.6804	-0.091
Mof_C 	C 	0.8025	0.0429	0.7834	-0.017
Mof_H 	H 	0.7775	0.0089	0.8499	0.049
Mof_C 	C 	0.8473	0.6783	0.2707	0.031
Mof_C 	C 	0.485	0.6729	0.6751	-0.033
Mof_H 	H 	0.5453	0.6614	0.6133	0.057
Mof_C 	C 	0.3769	0.6734	0.6748	0.024
Mof_C 	C 	0.8926	0.5954	0.3088	-0.052
Mof_H 	H 	0.9177	0.5361	0.2701	0.041
Mof_C 	C 	0.3543	0.6555	0.5851	-0.087
Mof_H 	H 	0.4137	0.6434	0.5227	0.061
Mof_C 	C 	0.249	0.6556	0.5872	0.014
Mof_H 	H 	0.2354	0.6445	0.5263	0.038
Mof_C 	C 	0.9028	0.5964	0.4051	0.005
Mof_H 	H 	0.9362	0.5374	0.4299	0.02
Mof_C 	C 	0.8092	0.1504	0.7745	0.002
Mof_C 	C 	0.7771	0.3136	0.8529	-0.014
Mof_H 	H 	0.7531	0.3528	0.9122	0.033
Mof_C 	C 	0.7657	0.2107	0.8635	-0.034
Mof_H 	H 	0.7291	0.1789	0.9294	0.033
Mof_C 	C 	0.0424	0.6697	0.6842	0.373
Mof_C 	C 	0.8728	0.7633	0.4051	0.029
Mof_H 	H 	0.8825	0.8249	0.4312	0.013
Mof_C 	C 	0.8641	0.7677	0.3084	-0.01
Mof_H 	H 	0.8695	0.8308	0.2684	0.03
Mof_C 	C 	0.878	0.5955	0.1036	-0.105
Mof_H 	H 	0.9203	0.5397	0.1227	0.06
Mof_C 	C 	0.8593	0.5983	0.0126	-0.012
Mof_H 	H 	0.8881	0.5424	0.9695	0.022
Mof_C 	C 	0.77	0.7596	0.0369	0.019
Mof_H 	H 	0.7361	0.8181	0.0118	0.009
Mof_C 	C 	0.7849	0.7633	0.1303	-0.039
Mof_H 	H 	0.7626	0.8238	0.1674	0.032
Mof_C 	C 	0.797	0.7596	0.3367	-0.089
Mof_H 	H 	0.756	0.8153	0.3158	0.054
Mof_C 	C 	0.8091	0.7556	0.4316	0.003
Mof_H 	H 	0.7757	0.8094	0.4763	0.021
Mof_C 	C 	0.8632	0.5888	0.4225	0.032
Mof_H 	H 	0.8681	0.5256	0.4602	0.01
Mof_C 	C 	0.8512	0.5862	0.3273	-0.034
Mof_H 	H 	0.8458	0.523	0.3016	0.034
Mof_C 	C 	0.8125	0.2073	0.8591	-0.031
Mof_H 	H 	0.8082	0.1722	0.923	0.03
Mof_C 	C 	0.822	0.3119	0.8461	-0.001
Mof_H 	H 	0.8258	0.3488	0.9004	0.026
Mof_C 	C 	0.8014	0.5913	0.0383	0.044
Mof_H 	H 	0.7928	0.5288	0.0131	0.006
Mof_C 	C 	0.814	0.5889	0.1323	0.005
Mof_H 	H 	0.8101	0.5259	0.1725	0.029
Mof_C 	C 	0.812	0.7641	0.0188	0.015
Mof_H 	H 	0.8088	0.8269	0.9799	0.014
Mof_C 	C 	0.8279	0.7678	0.1117	-0.046
Mof_H 	H 	0.8355	0.8316	0.1352	0.034
_end
