data_functionalizedCrystal
_audit_creation_method	'EQeq! by Chris Wilmer'
_symmetry_space_group_name_H-M	'P1'
_symmetry_Int_Tables_number	1
_symmetry_cell_setting	triclinic
loop_
_symmetry_equiv_pos_as_xyz
  x,y,z
_cell_length_a	11.3469
_cell_length_b	12.2871
_cell_length_c	12.2871
_cell_angle_alpha	69.031
_cell_angle_beta	72.0716
_cell_angle_gamma	107.928
loop_
_atom_site_label
_atom_site_type_symbol
_atom_site_fract_x
_atom_site_fract_y
_atom_site_fract_z
_atom_site_charge
Mof_Zn	Zn	0.68762	0.53524	0.93775	1.115
Mof_Zn	Zn	0.62537	0.93775	0.52701	1.115
Mof_Zn	Zn	0.15238	0.52701	0.53524	1.115
Mof_Zn	Zn	0.31238	0.46476	0.06225	1.115
Mof_Zn	Zn	0.37463	0.06225	0.47299	1.116
Mof_Zn	Zn	0.84762	0.47299	0.46476	1.116
Mof_H 	H 	0.2686	0.6706	0.9181	0.132
Mof_H 	H 	0.3616	0.8237	0.8243	0.149
Mof_H 	H 	0.3191	0.7326	0.7659	0.148
Mof_H 	H 	0.8712	0.7599	0.6822	0.105
Mof_H 	H 	0.8469	0.8148	0.5592	0.11
Mof_H 	H 	0.8834	0.9014	0.6233	0.117
Mof_H 	H 	0.1867	0.9181	0.4113	0.131
Mof_H 	H 	0.1859	0.8243	0.352	0.148
Mof_H 	H 	0.085	0.7659	0.5015	0.148
Mof_H 	H 	0.5534	0.6822	0.5579	0.107
Mof_H 	H 	0.4061	0.5592	0.626	0.112
Mof_H 	H 	0.5067	0.6233	0.4753	0.119
Mof_H 	H 	0.598	0.4113	0.6706	0.13
Mof_H 	H 	0.5379	0.352	0.8237	0.148
Mof_H 	H 	0.5865	0.5015	0.7326	0.146
Mof_H 	H 	0.1113	0.5579	0.7599	0.1
Mof_H 	H 	0.0321	0.626	0.8148	0.106
Mof_H 	H 	0.982	0.4753	0.9014	0.11
Mof_H 	H 	0.7314	0.3294	0.0819	0.132
Mof_H 	H 	0.6384	0.1763	0.1757	0.149
Mof_H 	H 	0.6809	0.2674	0.2341	0.148
Mof_H 	H 	0.1288	0.2401	0.3178	0.105
Mof_H 	H 	0.1531	0.1852	0.4408	0.11
Mof_H 	H 	0.1166	0.0986	0.3767	0.117
Mof_H 	H 	0.8133	0.0819	0.5887	0.131
Mof_H 	H 	0.8141	0.1757	0.648	0.148
Mof_H 	H 	0.915	0.2341	0.4985	0.148
Mof_H 	H 	0.4466	0.3178	0.4421	0.107
Mof_H 	H 	0.5939	0.4408	0.374	0.112
Mof_H 	H 	0.4933	0.3767	0.5247	0.119
Mof_H 	H 	0.402	0.5887	0.3294	0.13
Mof_H 	H 	0.4621	0.648	0.1763	0.148
Mof_H 	H 	0.4135	0.4985	0.2674	0.146
Mof_H 	H 	0.8887	0.4421	0.2401	0.1
Mof_H 	H 	0.9679	0.374	0.1852	0.106
Mof_H 	H 	0.018	0.5247	0.0986	0.11
Mof_C 	C 	0.3441	0.7391	0.8321	-0.658
Mof_C 	C 	0.4724	0.7241	0.8132	0.201
Mof_C 	C 	0.6828	0.7564	0.7297	0.169
Mof_C 	C 	0.8345	0.8132	0.6407	-0.582
Mof_C 	C 	0.1762	0.8321	0.4288	-0.657
Mof_C 	C 	0.2856	0.8132	0.4627	0.2
Mof_C 	C 	0.4125	0.7297	0.5139	0.17
Mof_C 	C 	0.4752	0.6407	0.5461	-0.585
Mof_C 	C 	0.605	0.4288	0.7391	-0.655
Mof_C 	C 	0.7483	0.4627	0.7241	0.199
Mof_C 	C 	0.9264	0.5139	0.7564	0.162
Mof_C 	C 	0.0213	0.5461	0.8132	-0.562
Mof_C 	C 	0.6559	0.2609	0.1679	-0.658
Mof_C 	C 	0.5276	0.2759	0.1868	0.201
Mof_C 	C 	0.3172	0.2436	0.2703	0.169
Mof_C 	C 	0.1655	0.1868	0.3593	-0.582
Mof_C 	C 	0.8238	0.1679	0.5712	-0.657
Mof_C 	C 	0.7144	0.1868	0.5373	0.2
Mof_C 	C 	0.5875	0.2703	0.4861	0.17
Mof_C 	C 	0.5248	0.3593	0.4539	-0.585
Mof_C 	C 	0.395	0.5712	0.2609	-0.655
Mof_C 	C 	0.2517	0.5373	0.2759	0.199
Mof_C 	C 	0.0736	0.4861	0.2436	0.162
Mof_C 	C 	0.9787	0.4539	0.1868	-0.562
Mof_N 	N 	0.6146	0.6498	0.8472	-0.319
Mof_N 	N 	0.4781	0.6294	0.9009	-0.326
Mof_N 	N 	0.5972	0.8059	0.7027	-0.36
Mof_N 	N 	0.4618	0.8472	0.503	-0.319
Mof_N 	N 	0.379	0.9009	0.4697	-0.326
Mof_N 	N 	0.2999	0.7027	0.4914	-0.36
Mof_N 	N 	0.9648	0.503	0.6498	-0.318
Mof_N 	N 	0.8487	0.4697	0.6294	-0.327
Mof_N 	N 	0.7913	0.4914	0.8059	-0.359
Mof_N 	N 	0.3854	0.3502	0.1528	-0.319
Mof_N 	N 	0.5219	0.3706	0.0991	-0.326
Mof_N 	N 	0.4028	0.1941	0.2973	-0.36
Mof_N 	N 	0.5382	0.1528	0.497	-0.319
Mof_N 	N 	0.621	0.0991	0.5303	-0.326
Mof_N 	N 	0.7001	0.2973	0.5086	-0.36
Mof_N 	N 	0.0352	0.497	0.3502	-0.318
Mof_N 	N 	0.1513	0.5303	0.3706	-0.327
Mof_N 	N 	0.2087	0.5086	0.1941	-0.359
_end
