data_functionalizedCrystal
_audit_creation_method	'EQeq! by Chris Wilmer'
_symmetry_space_group_name_H-M	'P1'
_symmetry_Int_Tables_number	1
_symmetry_cell_setting	triclinic
loop_
_symmetry_equiv_pos_as_xyz
  x,y,z
_cell_length_a	8.851
_cell_length_b	20.676
_cell_length_c	34.203
_cell_angle_alpha	90
_cell_angle_beta	90
_cell_angle_gamma	90
loop_
_atom_site_label
_atom_site_type_symbol
_atom_site_fract_x
_atom_site_fract_y
_atom_site_fract_z
_atom_site_charge
Mof_O 	O 	0.2413	0.3331	0.6792	-0.556
Mof_C 	C 	0.1024	0.3204	0.6819	0.55
Mof_O 	O 	0.006	0.3359	0.657	-0.608
Mof_C 	C 	0.0496	0.2839	0.7172	-0.156
Mof_C 	C 	0.1494	0.2646	0.7457	0.006
Mof_C 	C 	0.1002	0.2306	0.7785	0.007
Mof_O 	O 	0.2458	0.4575	0.6347	-0.579
Mof_C 	C 	0.259	0.5915	0.625	0.007
Mof_H 	H 	0.2531	0.2753	0.7431	0.042
Mof_H 	H 	0.1713	0.2163	0.7973	0.031
Mof_H 	H 	0.3519	0.5687	0.6263	0.037
Mof_O 	O 	0.2413	0.8331	0.1792	-0.553
Mof_C 	C 	0.1024	0.8204	0.1819	0.548
Mof_O 	O 	0.006	0.8359	0.157	-0.603
Mof_C 	C 	0.0496	0.7839	0.2172	-0.145
Mof_C 	C 	0.1494	0.7646	0.2457	-0.002
Mof_C 	C 	0.1002	0.7306	0.2785	0.019
Mof_O 	O 	0.2458	0.9575	0.1347	-0.578
Mof_C 	C 	0.259	0.0915	0.125	0.01
Mof_H 	H 	0.2531	0.7753	0.2431	0.045
Mof_H 	H 	0.1713	0.7163	0.2973	0.027
Mof_H 	H 	0.3519	0.0687	0.1263	0.036
Mof_O 	O 	0.7413	0.3331	0.1792	-0.554
Mof_C 	C 	0.6024	0.3204	0.1819	0.55
Mof_O 	O 	0.506	0.3359	0.157	-0.606
Mof_C 	C 	0.5496	0.2839	0.2172	-0.15
Mof_C 	C 	0.6494	0.2646	0.2457	0.002
Mof_C 	C 	0.6002	0.2306	0.2785	0.014
Mof_O 	O 	0.7458	0.4575	0.1347	-0.578
Mof_C 	C 	0.759	0.5915	0.125	0.007
Mof_H 	H 	0.7531	0.2753	0.2431	0.044
Mof_H 	H 	0.6713	0.2163	0.2973	0.029
Mof_H 	H 	0.8519	0.5687	0.1263	0.037
Mof_O 	O 	0.7413	0.8331	0.6792	-0.554
Mof_C 	C 	0.6024	0.8204	0.6819	0.55
Mof_O 	O 	0.506	0.8359	0.657	-0.606
Mof_C 	C 	0.5496	0.7839	0.7172	-0.15
Mof_C 	C 	0.6494	0.7646	0.7457	0.003
Mof_C 	C 	0.6002	0.7306	0.7785	0.014
Mof_O 	O 	0.7458	0.9575	0.6347	-0.578
Mof_C 	C 	0.759	0.0915	0.625	0.007
Mof_H 	H 	0.7531	0.7753	0.7431	0.043
Mof_H 	H 	0.6713	0.7163	0.7973	0.029
Mof_H 	H 	0.8519	0.0687	0.6263	0.037
Mof_O 	O 	0.5087	0.4169	0.6792	-0.554
Mof_C 	C 	0.6476	0.4296	0.6819	0.55
Mof_O 	O 	0.744	0.4141	0.657	-0.606
Mof_C 	C 	0.7004	0.4661	0.7172	-0.15
Mof_C 	C 	0.6006	0.4854	0.7457	0.002
Mof_C 	C 	0.6498	0.5194	0.7785	0.015
Mof_O 	O 	0.5042	0.2925	0.6347	-0.578
Mof_C 	C 	0.491	0.1585	0.625	0.008
Mof_H 	H 	0.4969	0.4747	0.7431	0.044
Mof_H 	H 	0.5787	0.5337	0.7973	0.029
Mof_H 	H 	0.3981	0.1813	0.6263	0.037
Mof_O 	O 	0.5087	0.9169	0.1792	-0.553
Mof_C 	C 	0.6476	0.9296	0.1819	0.548
Mof_O 	O 	0.744	0.9141	0.157	-0.606
Mof_C 	C 	0.7004	0.9661	0.2172	-0.145
Mof_C 	C 	0.6006	0.9854	0.2457	-0.004
Mof_C 	C 	0.6498	0.0194	0.2785	0.021
Mof_O 	O 	0.5042	0.7925	0.1347	-0.578
Mof_C 	C 	0.491	0.6585	0.125	0.007
Mof_H 	H 	0.4969	0.9747	0.2431	0.046
Mof_H 	H 	0.5787	0.0337	0.2973	0.027
Mof_H 	H 	0.3981	0.6813	0.1263	0.037
Mof_O 	O 	0.0087	0.4169	0.1792	-0.554
Mof_C 	C 	0.1476	0.4296	0.1819	0.55
Mof_O 	O 	0.244	0.4141	0.157	-0.606
Mof_C 	C 	0.2004	0.4661	0.2172	-0.151
Mof_C 	C 	0.1006	0.4854	0.2457	0.003
Mof_C 	C 	0.1498	0.5194	0.2785	0.014
Mof_O 	O 	0.0042	0.2925	0.1347	-0.578
Mof_C 	C 	0.991	0.1585	0.125	0.006
Mof_H 	H 	0.9969	0.4747	0.2431	0.043
Mof_H 	H 	0.0787	0.5337	0.2973	0.029
Mof_H 	H 	0.8981	0.1813	0.1263	0.037
Mof_O 	O 	0.0087	0.9169	0.6792	-0.553
Mof_C 	C 	0.1476	0.9296	0.6819	0.552
Mof_O 	O 	0.244	0.9141	0.657	-0.607
Mof_C 	C 	0.2004	0.9661	0.7172	-0.156
Mof_C 	C 	0.1006	0.9854	0.7457	0.014
Mof_C 	C 	0.1498	0.0194	0.7785	0.005
Mof_O 	O 	0.0042	0.7925	0.6347	-0.576
Mof_C 	C 	0.991	0.6585	0.625	0.005
Mof_H 	H 	0.9969	0.9747	0.7431	0.038
Mof_H 	H 	0.0787	0.0337	0.7973	0.031
Mof_H 	H 	0.8981	0.6813	0.6263	0.037
Mof_O 	O 	0.5087	0.3331	0.0708	-0.554
Mof_C 	C 	0.6476	0.3204	0.0681	0.549
Mof_O 	O 	0.744	0.3359	0.093	-0.606
Mof_C 	C 	0.7004	0.2839	0.0328	-0.148
Mof_C 	C 	0.6006	0.2646	0.0043	-0
Mof_C 	C 	0.6498	0.2306	0.9715	0.017
Mof_O 	O 	0.5042	0.4575	0.1153	-0.578
Mof_C 	C 	0.491	0.5915	0.125	0.007
Mof_H 	H 	0.4969	0.2753	0.0069	0.044
Mof_H 	H 	0.5787	0.2163	0.9527	0.028
Mof_H 	H 	0.3981	0.5687	0.1237	0.037
Mof_O 	O 	0.5087	0.8331	0.5708	-0.554
Mof_C 	C 	0.6476	0.8204	0.5681	0.55
Mof_O 	O 	0.744	0.8359	0.593	-0.606
Mof_C 	C 	0.7004	0.7839	0.5328	-0.151
Mof_C 	C 	0.6006	0.7646	0.5043	0.003
Mof_C 	C 	0.6498	0.7306	0.4715	0.013
Mof_O 	O 	0.5042	0.9575	0.6153	-0.578
Mof_C 	C 	0.491	0.0915	0.625	0.007
Mof_H 	H 	0.4969	0.7753	0.5069	0.043
Mof_H 	H 	0.5787	0.7163	0.4527	0.029
Mof_H 	H 	0.3981	0.0687	0.6237	0.037
Mof_O 	O 	0.0087	0.3331	0.5708	-0.554
Mof_C 	C 	0.1476	0.3204	0.5681	0.549
Mof_O 	O 	0.244	0.3359	0.593	-0.606
Mof_C 	C 	0.2004	0.2839	0.5328	-0.149
Mof_C 	C 	0.1006	0.2646	0.5043	-0
Mof_C 	C 	0.1498	0.2306	0.4715	0.016
Mof_O 	O 	0.0042	0.4575	0.6153	-0.578
Mof_C 	C 	0.991	0.5915	0.625	0.007
Mof_H 	H 	0.9969	0.2753	0.5069	0.045
Mof_H 	H 	0.0787	0.2163	0.4527	0.028
Mof_H 	H 	0.8981	0.5687	0.6237	0.037
Mof_O 	O 	0.0087	0.8331	0.0708	-0.552
Mof_C 	C 	0.1476	0.8204	0.0681	0.551
Mof_O 	O 	0.244	0.8359	0.093	-0.606
Mof_C 	C 	0.2004	0.7839	0.0328	-0.154
Mof_C 	C 	0.1006	0.7646	0.0043	0.01
Mof_C 	C 	0.1498	0.7306	0.9715	0.009
Mof_O 	O 	0.0042	0.9575	0.1153	-0.576
Mof_C 	C 	0.991	0.0915	0.125	0.01
Mof_H 	H 	0.9969	0.7753	0.0069	0.039
Mof_H 	H 	0.0787	0.7163	0.9527	0.03
Mof_H 	H 	0.8981	0.0687	0.1237	0.036
Mof_O 	O 	0.2413	0.4169	0.0708	-0.554
Mof_C 	C 	0.1024	0.4296	0.0681	0.55
Mof_O 	O 	0.006	0.4141	0.093	-0.606
Mof_C 	C 	0.0496	0.4661	0.0328	-0.149
Mof_C 	C 	0.1494	0.4854	0.0043	0.003
Mof_C 	C 	0.1002	0.5194	0.9715	0.012
Mof_O 	O 	0.2458	0.2925	0.1153	-0.578
Mof_C 	C 	0.259	0.1585	0.125	0.006
Mof_H 	H 	0.2531	0.4747	0.0069	0.043
Mof_H 	H 	0.1713	0.5337	0.9527	0.029
Mof_H 	H 	0.3519	0.1813	0.1237	0.037
Mof_O 	O 	0.2413	0.9169	0.5708	-0.554
Mof_C 	C 	0.1024	0.9296	0.5681	0.549
Mof_O 	O 	0.006	0.9141	0.593	-0.604
Mof_C 	C 	0.0496	0.9661	0.5328	-0.147
Mof_C 	C 	0.1494	0.9854	0.5043	0.006
Mof_C 	C 	0.1002	0.0194	0.4715	0.008
Mof_O 	O 	0.2458	0.7925	0.6153	-0.578
Mof_C 	C 	0.259	0.6585	0.625	0.006
Mof_H 	H 	0.2531	0.9747	0.5069	0.043
Mof_H 	H 	0.1713	0.0337	0.4527	0.03
Mof_H 	H 	0.3519	0.6813	0.6237	0.037
Mof_O 	O 	0.7413	0.4169	0.5708	-0.554
Mof_C 	C 	0.6024	0.4296	0.5681	0.55
Mof_O 	O 	0.506	0.4141	0.593	-0.606
Mof_C 	C 	0.5496	0.4661	0.5328	-0.15
Mof_C 	C 	0.6494	0.4854	0.5043	0.002
Mof_C 	C 	0.6002	0.5194	0.4715	0.014
Mof_O 	O 	0.7458	0.2925	0.6153	-0.578
Mof_C 	C 	0.759	0.1585	0.625	0.008
Mof_H 	H 	0.7531	0.4747	0.5069	0.044
Mof_H 	H 	0.6713	0.5337	0.4527	0.029
Mof_H 	H 	0.8519	0.1813	0.6237	0.037
Mof_O 	O 	0.7413	0.9169	0.0708	-0.554
Mof_C 	C 	0.6024	0.9296	0.0681	0.55
Mof_O 	O 	0.506	0.9141	0.093	-0.606
Mof_C 	C 	0.5496	0.9661	0.0328	-0.15
Mof_C 	C 	0.6494	0.9854	0.0043	0.002
Mof_C 	C 	0.6002	0.0194	0.9715	0.015
Mof_O 	O 	0.7458	0.7925	0.1153	-0.578
Mof_C 	C 	0.759	0.6585	0.125	0.007
Mof_H 	H 	0.7531	0.9747	0.0069	0.043
Mof_H 	H 	0.6713	0.0337	0.9527	0.029
Mof_H 	H 	0.8519	0.6813	0.1237	0.036
Mof_O 	O 	0.7587	0.6669	0.3208	-0.555
Mof_C 	C 	0.8976	0.6796	0.3181	0.551
Mof_O 	O 	0.994	0.6641	0.343	-0.607
Mof_C 	C 	0.9504	0.7161	0.2828	-0.155
Mof_C 	C 	0.8506	0.7354	0.2543	0.007
Mof_C 	C 	0.8998	0.7694	0.2215	0.008
Mof_O 	O 	0.7542	0.5425	0.3653	-0.578
Mof_C 	C 	0.741	0.4085	0.375	0.008
Mof_H 	H 	0.7469	0.7247	0.2569	0.042
Mof_H 	H 	0.8287	0.7837	0.2027	0.031
Mof_H 	H 	0.6481	0.4313	0.3737	0.037
Mof_O 	O 	0.7587	0.1669	0.8208	-0.553
Mof_C 	C 	0.8976	0.1796	0.8181	0.548
Mof_O 	O 	0.994	0.1641	0.843	-0.603
Mof_C 	C 	0.9504	0.2161	0.7828	-0.145
Mof_C 	C 	0.8506	0.2354	0.7543	-0.002
Mof_C 	C 	0.8998	0.2694	0.7215	0.019
Mof_O 	O 	0.7542	0.0425	0.8653	-0.578
Mof_C 	C 	0.741	0.9085	0.875	0.01
Mof_H 	H 	0.7469	0.2247	0.7569	0.045
Mof_H 	H 	0.8287	0.2837	0.7027	0.027
Mof_H 	H 	0.6481	0.9313	0.8737	0.036
Mof_O 	O 	0.2587	0.6669	0.8208	-0.554
Mof_C 	C 	0.3976	0.6796	0.8181	0.55
Mof_O 	O 	0.494	0.6641	0.843	-0.606
Mof_C 	C 	0.4504	0.7161	0.7828	-0.15
Mof_C 	C 	0.3506	0.7354	0.7543	0.002
Mof_C 	C 	0.3998	0.7694	0.7215	0.014
Mof_O 	O 	0.2542	0.5425	0.8653	-0.578
Mof_C 	C 	0.241	0.4085	0.875	0.007
Mof_H 	H 	0.2469	0.7247	0.7569	0.044
Mof_H 	H 	0.3287	0.7837	0.7027	0.029
Mof_H 	H 	0.1481	0.4313	0.8737	0.037
Mof_O 	O 	0.2587	0.1669	0.3208	-0.554
Mof_C 	C 	0.3976	0.1796	0.3181	0.55
Mof_O 	O 	0.494	0.1641	0.343	-0.606
Mof_C 	C 	0.4504	0.2161	0.2828	-0.15
Mof_C 	C 	0.3506	0.2354	0.2543	0.003
Mof_C 	C 	0.3998	0.2694	0.2215	0.014
Mof_O 	O 	0.2542	0.0425	0.3653	-0.578
Mof_C 	C 	0.241	0.9085	0.375	0.007
Mof_H 	H 	0.2469	0.2247	0.2569	0.043
Mof_H 	H 	0.3287	0.2837	0.2027	0.029
Mof_H 	H 	0.1481	0.9313	0.3737	0.037
Mof_O 	O 	0.4913	0.5831	0.3208	-0.554
Mof_C 	C 	0.3524	0.5704	0.3181	0.55
Mof_O 	O 	0.256	0.5859	0.343	-0.606
Mof_C 	C 	0.2996	0.5339	0.2828	-0.15
Mof_C 	C 	0.3994	0.5146	0.2543	0.002
Mof_C 	C 	0.3502	0.4806	0.2215	0.015
Mof_O 	O 	0.4958	0.7075	0.3653	-0.578
Mof_C 	C 	0.509	0.8415	0.375	0.008
Mof_H 	H 	0.5031	0.5253	0.2569	0.044
Mof_H 	H 	0.4213	0.4663	0.2027	0.029
Mof_H 	H 	0.6019	0.8187	0.3737	0.037
Mof_O 	O 	0.4913	0.0831	0.8208	-0.553
Mof_C 	C 	0.3524	0.0704	0.8181	0.548
Mof_O 	O 	0.256	0.0859	0.843	-0.606
Mof_C 	C 	0.2996	0.0339	0.7828	-0.145
Mof_C 	C 	0.3994	0.0146	0.7543	-0.004
Mof_C 	C 	0.3502	0.9806	0.7215	0.021
Mof_O 	O 	0.4958	0.2075	0.8653	-0.578
Mof_C 	C 	0.509	0.3415	0.875	0.007
Mof_H 	H 	0.5031	0.0253	0.7569	0.046
Mof_H 	H 	0.4213	0.9663	0.7027	0.027
Mof_H 	H 	0.6019	0.3187	0.8737	0.037
Mof_O 	O 	0.9913	0.5831	0.8208	-0.554
Mof_C 	C 	0.8524	0.5704	0.8181	0.55
Mof_O 	O 	0.756	0.5859	0.843	-0.606
Mof_C 	C 	0.7996	0.5339	0.7828	-0.151
Mof_C 	C 	0.8994	0.5146	0.7543	0.003
Mof_C 	C 	0.8502	0.4806	0.7215	0.014
Mof_O 	O 	0.9958	0.7075	0.8653	-0.578
Mof_C 	C 	0.009	0.8415	0.875	0.006
Mof_H 	H 	0.0031	0.5253	0.7569	0.043
Mof_H 	H 	0.9213	0.4663	0.7027	0.029
Mof_H 	H 	0.1019	0.8187	0.8737	0.037
Mof_O 	O 	0.9913	0.0831	0.3208	-0.553
Mof_C 	C 	0.8524	0.0704	0.3181	0.552
Mof_O 	O 	0.756	0.0859	0.343	-0.607
Mof_C 	C 	0.7996	0.0339	0.2828	-0.156
Mof_C 	C 	0.8994	0.0146	0.2543	0.014
Mof_C 	C 	0.8502	0.9806	0.2215	0.005
Mof_O 	O 	0.9958	0.2075	0.3653	-0.576
Mof_C 	C 	0.009	0.3415	0.375	0.005
Mof_H 	H 	0.0031	0.0253	0.2569	0.038
Mof_H 	H 	0.9213	0.9663	0.2027	0.031
Mof_H 	H 	0.1019	0.3187	0.3737	0.037
Mof_O 	O 	0.4913	0.6669	0.9292	-0.554
Mof_C 	C 	0.3524	0.6796	0.9319	0.549
Mof_O 	O 	0.256	0.6641	0.907	-0.606
Mof_C 	C 	0.2996	0.7161	0.9672	-0.148
Mof_C 	C 	0.3994	0.7354	0.9957	-0
Mof_C 	C 	0.3502	0.7694	0.0285	0.017
Mof_O 	O 	0.4958	0.5425	0.8847	-0.578
Mof_C 	C 	0.509	0.4085	0.875	0.007
Mof_H 	H 	0.5031	0.7247	0.9931	0.044
Mof_H 	H 	0.4213	0.7837	0.0473	0.028
Mof_H 	H 	0.6019	0.4313	0.8763	0.037
Mof_O 	O 	0.4913	0.1669	0.4292	-0.554
Mof_C 	C 	0.3524	0.1796	0.4319	0.55
Mof_O 	O 	0.256	0.1641	0.407	-0.606
Mof_C 	C 	0.2996	0.2161	0.4672	-0.151
Mof_C 	C 	0.3994	0.2354	0.4957	0.003
Mof_C 	C 	0.3502	0.2694	0.5285	0.013
Mof_O 	O 	0.4958	0.0425	0.3847	-0.578
Mof_C 	C 	0.509	0.9085	0.375	0.007
Mof_H 	H 	0.5031	0.2247	0.4931	0.043
Mof_H 	H 	0.4213	0.2837	0.5473	0.029
Mof_H 	H 	0.6019	0.9313	0.3763	0.037
Mof_O 	O 	0.9913	0.6669	0.4292	-0.554
Mof_C 	C 	0.8524	0.6796	0.4319	0.549
Mof_O 	O 	0.756	0.6641	0.407	-0.606
Mof_C 	C 	0.7996	0.7161	0.4672	-0.149
Mof_C 	C 	0.8994	0.7354	0.4957	-0
Mof_C 	C 	0.8502	0.7694	0.5285	0.016
Mof_O 	O 	0.9958	0.5425	0.3847	-0.578
Mof_C 	C 	0.009	0.4085	0.375	0.007
Mof_H 	H 	0.0031	0.7247	0.4931	0.045
Mof_H 	H 	0.9213	0.7837	0.5473	0.028
Mof_H 	H 	0.1019	0.4313	0.3763	0.037
Mof_O 	O 	0.9913	0.1669	0.9292	-0.552
Mof_C 	C 	0.8524	0.1796	0.9319	0.551
Mof_O 	O 	0.756	0.1641	0.907	-0.606
Mof_C 	C 	0.7996	0.2161	0.9672	-0.154
Mof_C 	C 	0.8994	0.2354	0.9957	0.01
Mof_C 	C 	0.8502	0.2694	0.0285	0.009
Mof_O 	O 	0.9958	0.0425	0.8847	-0.576
Mof_C 	C 	0.009	0.9085	0.875	0.01
Mof_H 	H 	0.0031	0.2247	0.9931	0.039
Mof_H 	H 	0.9213	0.2837	0.0473	0.03
Mof_H 	H 	0.1019	0.9313	0.8763	0.036
Mof_O 	O 	0.7587	0.5831	0.9292	-0.554
Mof_C 	C 	0.8976	0.5704	0.9319	0.55
Mof_O 	O 	0.994	0.5859	0.907	-0.606
Mof_C 	C 	0.9504	0.5339	0.9672	-0.149
Mof_C 	C 	0.8506	0.5146	0.9957	0.003
Mof_C 	C 	0.8998	0.4806	0.0285	0.012
Mof_O 	O 	0.7542	0.7075	0.8847	-0.578
Mof_C 	C 	0.741	0.8415	0.875	0.006
Mof_H 	H 	0.7469	0.5253	0.9931	0.043
Mof_H 	H 	0.8287	0.4663	0.0473	0.029
Mof_H 	H 	0.6481	0.8187	0.8763	0.037
Mof_O 	O 	0.7587	0.0831	0.4292	-0.554
Mof_C 	C 	0.8976	0.0704	0.4319	0.549
Mof_O 	O 	0.994	0.0859	0.407	-0.604
Mof_C 	C 	0.9504	0.0339	0.4672	-0.147
Mof_C 	C 	0.8506	0.0146	0.4957	0.006
Mof_C 	C 	0.8998	0.9806	0.5285	0.008
Mof_O 	O 	0.7542	0.2075	0.3847	-0.578
Mof_C 	C 	0.741	0.3415	0.375	0.006
Mof_H 	H 	0.7469	0.0253	0.4931	0.043
Mof_H 	H 	0.8287	0.9663	0.5473	0.03
Mof_H 	H 	0.6481	0.3187	0.3763	0.037
Mof_O 	O 	0.2587	0.5831	0.4292	-0.554
Mof_C 	C 	0.3976	0.5704	0.4319	0.55
Mof_O 	O 	0.494	0.5859	0.407	-0.606
Mof_C 	C 	0.4504	0.5339	0.4672	-0.15
Mof_C 	C 	0.3506	0.5146	0.4957	0.002
Mof_C 	C 	0.3998	0.4806	0.5285	0.014
Mof_O 	O 	0.2542	0.7075	0.3847	-0.578
Mof_C 	C 	0.241	0.8415	0.375	0.008
Mof_H 	H 	0.2469	0.5253	0.4931	0.044
Mof_H 	H 	0.3287	0.4663	0.5473	0.029
Mof_H 	H 	0.1481	0.8187	0.3763	0.037
Mof_O 	O 	0.2587	0.0831	0.9292	-0.554
Mof_C 	C 	0.3976	0.0704	0.9319	0.55
Mof_O 	O 	0.494	0.0859	0.907	-0.606
Mof_C 	C 	0.4504	0.0339	0.9672	-0.15
Mof_C 	C 	0.3506	0.0146	0.9957	0.002
Mof_C 	C 	0.3998	0.9806	0.0285	0.015
Mof_O 	O 	0.2542	0.2075	0.8847	-0.578
Mof_C 	C 	0.241	0.3415	0.875	0.007
Mof_H 	H 	0.2469	0.0253	0.9931	0.043
Mof_H 	H 	0.3287	0.9663	0.0473	0.029
Mof_H 	H 	0.1481	0.3187	0.8763	0.036
Mof_Sc	Sc	0.375	0.375	0.6353	2.017
Mof_Sc	Sc	0.375	0.875	0.1353	2.017
Mof_Sc	Sc	0.875	0.375	0.1353	2.015
Mof_Sc	Sc	0.875	0.875	0.6353	2.011
Mof_Sc	Sc	0.375	0.375	0.1147	2.017
Mof_Sc	Sc	0.375	0.875	0.6147	2.017
Mof_Sc	Sc	0.875	0.375	0.6147	2.017
Mof_Sc	Sc	0.875	0.875	0.1147	2.009
Mof_Sc	Sc	0.625	0.625	0.3647	2.017
Mof_Sc	Sc	0.625	0.125	0.8647	2.017
Mof_Sc	Sc	0.125	0.625	0.8647	2.015
Mof_Sc	Sc	0.125	0.125	0.3647	2.011
Mof_Sc	Sc	0.625	0.625	0.8853	2.017
Mof_Sc	Sc	0.625	0.125	0.3853	2.017
Mof_Sc	Sc	0.125	0.625	0.3853	2.017
Mof_Sc	Sc	0.125	0.125	0.8853	2.009
Mof_C 	C 	0.125	0.4857	0.625	0.543
Mof_C 	C 	0.125	0.5578	0.625	-0.147
Mof_C 	C 	0.125	0.9857	0.125	0.545
Mof_C 	C 	0.125	0.0578	0.125	-0.151
Mof_C 	C 	0.625	0.9857	0.625	0.542
Mof_C 	C 	0.625	0.0578	0.625	-0.147
Mof_C 	C 	0.625	0.2643	0.625	0.543
Mof_C 	C 	0.625	0.1922	0.625	-0.148
Mof_C 	C 	0.625	0.7643	0.125	0.542
Mof_C 	C 	0.625	0.6922	0.125	-0.148
Mof_C 	C 	0.625	0.4857	0.125	0.543
Mof_C 	C 	0.625	0.5578	0.125	-0.148
Mof_C 	C 	0.125	0.2643	0.125	0.542
Mof_C 	C 	0.125	0.1922	0.125	-0.147
Mof_C 	C 	0.125	0.7643	0.625	0.542
Mof_C 	C 	0.125	0.6922	0.625	-0.145
Mof_C 	C 	0.875	0.5143	0.375	0.543
Mof_C 	C 	0.875	0.4422	0.375	-0.147
Mof_C 	C 	0.875	0.0143	0.875	0.545
Mof_C 	C 	0.875	0.9422	0.875	-0.151
Mof_C 	C 	0.375	0.7357	0.375	0.543
Mof_C 	C 	0.375	0.8078	0.375	-0.148
Mof_C 	C 	0.375	0.2357	0.875	0.542
Mof_C 	C 	0.375	0.3078	0.875	-0.148
Mof_C 	C 	0.375	0.5143	0.875	0.543
Mof_C 	C 	0.375	0.4422	0.875	-0.148
Mof_C 	C 	0.375	0.0143	0.375	0.542
Mof_C 	C 	0.375	0.9422	0.375	-0.147
Mof_C 	C 	0.875	0.7357	0.875	0.542
Mof_C 	C 	0.875	0.8078	0.875	-0.147
Mof_C 	C 	0.875	0.2357	0.375	0.542
Mof_C 	C 	0.875	0.3078	0.375	-0.145
_end
