data_functionalizedCrystal
_audit_creation_method	'EQeq! by Chris Wilmer'
_symmetry_space_group_name_H-M	'P1'
_symmetry_Int_Tables_number	1
_symmetry_cell_setting	triclinic
loop_
_symmetry_equiv_pos_as_xyz
  x,y,z
_cell_length_a	47.899
_cell_length_b	47.899
_cell_length_c	14.1778
_cell_angle_alpha	90
_cell_angle_beta	90
_cell_angle_gamma	120
loop_
_atom_site_label
_atom_site_type_symbol
_atom_site_fract_x
_atom_site_fract_y
_atom_site_fract_z
_atom_site_charge
Mof_Mn	Mn	0.52945	0.02893	0.98488	1.071
Mof_Mn	Mn	0.46609	0.02846	0.92329	1.106
Mof_Mn	Mn	0.44864	0.02032	0.69743	0.758
Mof_Mn	Mn	0.45245	0.96237	0.79972	0.949
Mof_Mn	Mn	0.52102	0.03079	0.76197	0.799
Mof_N 	N 	0.29227	0.91472	0.0225	-0.165
Mof_N 	N 	0.5842	0.20255	0.8595	-0.153
Mof_O 	O 	0.4883	0.05131	0.8099	-0.519
Mof_O 	O 	0.49233	0.99976	0.9112	-0.661
Mof_O 	O 	0.5009	0.05599	0.0057	-0.535
Mof_O 	O 	0.4105	0.97747	0.6339	-0.518
Mof_O 	O 	0.41126	0.93666	0.7119	-0.507
Mof_O 	O 	0.44671	0.00211	0.0343	-0.53
Mof_O 	O 	0.43364	0.99696	0.8389	-0.51
Mof_O 	O 	0.43522	0.94401	0.9335	-0.482
Mof_O 	O 	0.44143	0.05517	0.937	-0.484
Mof_O 	O 	0.44502	0.06469	0.093	-0.478
Mof_O 	O 	0.56238	0.97152	0.7318	-0.471
Mof_O 	O 	0.54824	0.05605	0.8766	-0.49
Mof_O 	O 	0.47802	0.99747	0.6969	-0.509
Mof_O 	O 	0.49819	0.90627	0.784	-0.443
Mof_C 	C 	0.3137	0.9136	0.0802	0.479
Mof_H 	H 	0.3061	0.9017	0.1381	-0.119
Mof_C 	C 	0.3031	0.932	0.9446	0.391
Mof_H 	H 	0.2882	0.9334	0.9024	-0.124
Mof_C 	C 	0.4496	0.8915	0.6975	-1.342
Mof_H 	H 	0.4358	0.9004	0.6867	0.416
Mof_H 	H 	0.4375	0.8708	0.7271	0.415
Mof_H 	H 	0.458	0.8892	0.6384	0.408
Mof_C 	C 	0.5713	0.1892	0.9382	0.131
Mof_H 	H 	0.5725	0.2025	0.9878	-0.018
Mof_C 	C 	0.5802	0.1829	0.7822	0.111
Mof_H 	H 	0.5886	0.1914	0.7231	-0.015
Mof_C 	C 	0.3769	0.9243	0.5832	-1.283
Mof_H 	H 	0.3708	0.9349	0.5371	0.391
Mof_H 	H 	0.3583	0.9094	0.6188	0.409
Mof_H 	H 	0.3859	0.9128	0.5519	0.38
Mof_C 	C 	0.5559	0.1565	0.9541	-0.229
Mof_H 	H 	0.5484	0.1484	0.0142	0.102
Mof_C 	C 	0.4179	0.0842	0.9968	-1.164
Mof_H 	H 	0.4151	0.092	0.0564	0.348
Mof_H 	H 	0.3972	0.0698	0.9699	0.36
Mof_H 	H 	0.4298	0.102	0.955	0.366
Mof_C 	C 	0.3458	0.9286	0.0617	-0.537
Mof_H 	H 	0.36	0.9269	0.1061	0.188
Mof_C 	C 	0.3373	0.9488	0.9206	-0.49
Mof_H 	H 	0.3454	0.961	0.8636	0.185
Mof_C 	C 	0.5515	0.13591	0.8806	0.184
Mof_C 	C 	0.5635	0.1508	0.7982	-0.225
Mof_H 	H 	0.5598	0.1376	0.7462	0.092
Mof_C 	C 	0.4765	0.9133	0.7595	0.766
Mof_C 	C 	0.4361	0.0665	0.0115	0.683
Mof_C 	C 	0.53332	0.09858	0.89	-0.255
Mof_C 	C 	0.57529	0.0131	0.6197	-1.397
Mof_H 	H 	0.571	0.0305	0.6123	0.406
Mof_H 	H 	0.5667	0.9988	0.5668	0.432
Mof_H 	H 	0.5981	0.0216	0.6232	0.421
Mof_C 	C 	0.40121	0.94848	0.6472	0.728
Mof_C 	C 	0.48229	0.98524	0.6068	0.146
Mof_H 	H 	0.4956	0.9757	0.6158	-0.047
Mof_H 	H 	0.4924	0.0027	0.5625	-0.066
Mof_H 	H 	0.4616	0.9693	0.5829	-0.056
Mof_C 	C 	0.5069	0.08552	0.8158	0.244
Mof_H 	H 	0.4925	0.0938	0.8289	-0.051
Mof_H 	H 	0.5167	0.0938	0.7547	-0.083
Mof_C 	C 	0.40048	0.98078	0.8712	0.229
Mof_H 	H 	0.3869	0.9661	0.8222	-0.051
Mof_H 	H 	0.3939	0.9967	0.8807	-0.051
Mof_C 	C 	0.35837	0.94598	0.9845	0.157
Mof_C 	C 	0.51832	0.08988	0.9943	0.253
Mof_H 	H 	0.5355	0.0994	0.0406	-0.059
Mof_H 	H 	0.5041	0.0986	0.004	-0.059
Mof_C 	C 	0.56022	0.99563	0.7058	0.777
Mof_C 	C 	0.5592	0.0897	0.8789	0.237
Mof_H 	H 	0.5709	0.0993	0.821	-0.066
Mof_H 	H 	0.5743	0.0992	0.9307	-0.04
Mof_C 	C 	0.40256	0.93468	0.9556	0.221
Mof_H 	H 	0.3971	0.9234	0.0155	-0.039
Mof_H 	H 	0.3887	0.9195	0.908	-0.038
Mof_C 	C 	0.41236	0.98414	0.0467	0.242
Mof_H 	H 	0.4044	0.999	0.0552	-0.058
Mof_H 	H 	0.4073	0.9711	0.1033	-0.061
Mof_C 	C 	0.39493	0.96196	0.9617	-0.239
Mof_O 	O 	0.47956	0.93847	0.7877	-0.614
Mof_O 	O 	0.54216	0.00113	0.756	-0.587
Mof_Mn	Mn	0.52854	0.95696	0.85577	0.956
Mof_C 	C 	0.3029	0.8929	0.0162	-0.339
Mof_H 	H 	0.2881	0.8701	0.0189	0.111
Mof_C 	C 	0.3079	0.9407	0.0225	-0.378
Mof_H 	H 	0.2984	0.9539	0.0354	0.137
Mof_C 	C 	0.3395	0.9081	0.9936	0.2
Mof_H 	H 	0.35	0.8955	0.9916	-0.046
Mof_C 	C 	0.3424	0.9566	0.9989	0.324
Mof_H 	H 	0.3532	0.9797	0.9948	-0.075
Mof_Mn	Mn	0.19612	0.36226	0.31821	1.071
Mof_Mn	Mn	0.13276	0.36179	0.25662	1.107
Mof_Mn	Mn	0.11531	0.35365	0.03076	0.759
Mof_Mn	Mn	0.11912	0.2957	0.13305	0.95
Mof_Mn	Mn	0.18769	0.36412	0.0953	0.8
Mof_N 	N 	0.95894	0.24805	0.35583	-0.167
Mof_N 	N 	0.25087	0.53588	0.19283	-0.152
Mof_O 	O 	0.15497	0.38464	0.14323	-0.518
Mof_O 	O 	0.159	0.33309	0.24453	-0.66
Mof_O 	O 	0.16757	0.38932	0.33903	-0.532
Mof_O 	O 	0.07717	0.3108	0.96723	-0.517
Mof_O 	O 	0.07793	0.26999	0.04523	-0.506
Mof_O 	O 	0.11338	0.33544	0.36763	-0.529
Mof_O 	O 	0.10031	0.33029	0.17223	-0.509
Mof_O 	O 	0.10189	0.27734	0.26683	-0.481
Mof_O 	O 	0.1081	0.3885	0.27033	-0.484
Mof_O 	O 	0.11169	0.39802	0.42633	-0.478
Mof_O 	O 	0.22905	0.30485	0.06513	-0.471
Mof_O 	O 	0.21491	0.38938	0.20993	-0.488
Mof_O 	O 	0.14469	0.3308	0.03023	-0.508
Mof_O 	O 	0.16486	0.2396	0.11733	-0.442
Mof_C 	C 	0.98037	0.24693	0.41353	0.47
Mof_H 	H 	0.97277	0.23503	0.47143	-0.115
Mof_C 	C 	0.96977	0.26533	0.27793	0.379
Mof_H 	H 	0.95487	0.26673	0.23573	-0.118
Mof_C 	C 	0.11627	0.22483	0.03083	-1.34
Mof_H 	H 	0.10247	0.23373	0.02003	0.417
Mof_H 	H 	0.10417	0.20413	0.06043	0.416
Mof_H 	H 	0.12467	0.22253	0.97173	0.408
Mof_C 	C 	0.23797	0.52253	0.27153	0.134
Mof_H 	H 	0.23917	0.53583	0.32113	-0.018
Mof_C 	C 	0.24687	0.51623	0.11553	0.112
Mof_H 	H 	0.25527	0.52473	0.05643	-0.014
Mof_C 	C 	0.04357	0.25763	0.91653	-1.282
Mof_H 	H 	0.03747	0.26823	0.87043	0.392
Mof_H 	H 	0.02497	0.24273	0.95213	0.41
Mof_H 	H 	0.05257	0.24613	0.88523	0.381
Mof_C 	C 	0.22257	0.48983	0.28743	-0.232
Mof_H 	H 	0.21507	0.48173	0.34753	0.105
Mof_C 	C 	0.08457	0.41753	0.33013	-1.17
Mof_H 	H 	0.08177	0.42533	0.38973	0.351
Mof_H 	H 	0.06387	0.40313	0.30323	0.363
Mof_H 	H 	0.09647	0.43533	0.28833	0.369
Mof_C 	C 	0.01247	0.26193	0.39503	-0.528
Mof_H 	H 	0.02667	0.26023	0.43943	0.186
Mof_C 	C 	0.00397	0.28213	0.25393	-0.475
Mof_H 	H 	0.01207	0.29433	0.19693	0.181
Mof_C 	C 	0.21817	0.46924	0.21393	0.186
Mof_C 	C 	0.23017	0.48413	0.13153	-0.226
Mof_H 	H 	0.22647	0.47093	0.07953	0.092
Mof_C 	C 	0.14317	0.24663	0.09283	0.765
Mof_C 	C 	0.10277	0.39983	0.34483	0.686
Mof_C 	C 	0.19999	0.43191	0.22333	-0.254
Mof_C 	C 	0.24196	0.34643	0.95303	-1.399
Mof_H 	H 	0.23767	0.36383	0.94563	0.406
Mof_H 	H 	0.23337	0.33213	0.90013	0.433
Mof_H 	H 	0.26477	0.35493	0.95653	0.422
Mof_C 	C 	0.06788	0.28181	0.98053	0.728
Mof_C 	C 	0.14896	0.31857	0.94013	0.145
Mof_H 	H 	0.16227	0.30903	0.94913	-0.047
Mof_H 	H 	0.15907	0.33603	0.89583	-0.066
Mof_H 	H 	0.12827	0.30263	0.91623	-0.056
Mof_C 	C 	0.17357	0.41885	0.14913	0.244
Mof_H 	H 	0.15917	0.42713	0.16223	-0.051
Mof_H 	H 	0.18337	0.42713	0.08803	-0.083
Mof_C 	C 	0.06715	0.31411	0.20453	0.23
Mof_H 	H 	0.05357	0.29943	0.15553	-0.051
Mof_H 	H 	0.06057	0.33003	0.21403	-0.051
Mof_C 	C 	0.02504	0.27931	0.31783	0.161
Mof_C 	C 	0.18499	0.42321	0.32763	0.248
Mof_H 	H 	0.20217	0.43273	0.37393	-0.057
Mof_H 	H 	0.17077	0.43193	0.33733	-0.056
Mof_C 	C 	0.22689	0.32896	0.03913	0.778
Mof_C 	C 	0.22587	0.42303	0.21223	0.237
Mof_H 	H 	0.23757	0.43263	0.15433	-0.066
Mof_H 	H 	0.24097	0.43253	0.26403	-0.04
Mof_C 	C 	0.06923	0.26801	0.28893	0.224
Mof_H 	H 	0.06377	0.25673	0.34883	-0.041
Mof_H 	H 	0.05537	0.25283	0.24133	-0.039
Mof_C 	C 	0.07903	0.31747	0.38003	0.243
Mof_H 	H 	0.07107	0.33233	0.38853	-0.058
Mof_H 	H 	0.07397	0.30443	0.43663	-0.061
Mof_C 	C 	0.0616	0.29529	0.29503	-0.241
Mof_O 	O 	0.14623	0.2718	0.12103	-0.613
Mof_O 	O 	0.20883	0.33446	0.08933	-0.588
Mof_Mn	Mn	0.19521	0.29029	0.1891	0.956
Mof_C 	C 	0.96957	0.22623	0.34953	-0.332
Mof_H 	H 	0.95477	0.20343	0.35223	0.108
Mof_C 	C 	0.97457	0.27403	0.35583	-0.361
Mof_H 	H 	0.96507	0.28723	0.36873	0.132
Mof_C 	C 	0.00617	0.24143	0.32693	0.195
Mof_H 	H 	0.01667	0.22883	0.32493	-0.044
Mof_C 	C 	0.00907	0.28993	0.33223	0.306
Mof_H 	H 	0.01987	0.31303	0.32813	-0.069
Mof_Mn	Mn	0.86278	0.6956	0.65155	1.071
Mof_Mn	Mn	0.79942	0.69513	0.58996	1.107
Mof_Mn	Mn	0.78197	0.68699	0.3641	0.759
Mof_Mn	Mn	0.78578	0.62904	0.46639	0.95
Mof_Mn	Mn	0.85435	0.69746	0.42864	0.8
Mof_N 	N 	0.6256	0.58139	0.68917	-0.167
Mof_N 	N 	0.91753	0.86922	0.52617	-0.152
Mof_O 	O 	0.82163	0.71798	0.47657	-0.518
Mof_O 	O 	0.82566	0.66643	0.57787	-0.66
Mof_O 	O 	0.83423	0.72266	0.67237	-0.532
Mof_O 	O 	0.74383	0.64414	0.30057	-0.517
Mof_O 	O 	0.74459	0.60333	0.37857	-0.506
Mof_O 	O 	0.78004	0.66878	0.70097	-0.529
Mof_O 	O 	0.76697	0.66363	0.50557	-0.509
Mof_O 	O 	0.76855	0.61068	0.60017	-0.481
Mof_O 	O 	0.77476	0.72184	0.60367	-0.484
Mof_O 	O 	0.77835	0.73136	0.75967	-0.478
Mof_O 	O 	0.89571	0.63819	0.39847	-0.47
Mof_O 	O 	0.88157	0.72272	0.54327	-0.488
Mof_O 	O 	0.81135	0.66414	0.36357	-0.508
Mof_O 	O 	0.83152	0.57294	0.45067	-0.442
Mof_C 	C 	0.64703	0.58027	0.74687	0.47
Mof_H 	H 	0.63943	0.56837	0.80477	-0.115
Mof_C 	C 	0.63643	0.59867	0.61127	0.379
Mof_H 	H 	0.62153	0.60007	0.56907	-0.118
Mof_C 	C 	0.78293	0.55817	0.36417	-1.341
Mof_H 	H 	0.76913	0.56707	0.35337	0.417
Mof_H 	H 	0.77083	0.53747	0.39377	0.416
Mof_H 	H 	0.79133	0.55587	0.30507	0.408
Mof_C 	C 	0.90463	0.85587	0.60487	0.134
Mof_H 	H 	0.90583	0.86917	0.65447	-0.018
Mof_C 	C 	0.91353	0.84957	0.44887	0.112
Mof_H 	H 	0.92193	0.85807	0.38977	-0.014
Mof_C 	C 	0.71023	0.59097	0.24987	-1.282
Mof_H 	H 	0.70413	0.60157	0.20377	0.392
Mof_H 	H 	0.69163	0.57607	0.28547	0.41
Mof_H 	H 	0.71923	0.57947	0.21857	0.381
Mof_C 	C 	0.88923	0.82317	0.62077	-0.232
Mof_H 	H 	0.88173	0.81507	0.68087	0.105
Mof_C 	C 	0.75123	0.75087	0.66347	-1.17
Mof_H 	H 	0.74843	0.75867	0.72307	0.351
Mof_H 	H 	0.73053	0.73647	0.63657	0.363
Mof_H 	H 	0.76313	0.76867	0.62167	0.369
Mof_C 	C 	0.67913	0.59527	0.72837	-0.528
Mof_H 	H 	0.69333	0.59357	0.77277	0.187
Mof_C 	C 	0.67063	0.61547	0.58727	-0.475
Mof_H 	H 	0.67873	0.62767	0.53027	0.181
Mof_C 	C 	0.88483	0.80258	0.54727	0.186
Mof_C 	C 	0.89683	0.81747	0.46487	-0.226
Mof_H 	H 	0.89313	0.80427	0.41287	0.092
Mof_C 	C 	0.80983	0.57997	0.42617	0.766
Mof_C 	C 	0.76943	0.73317	0.67817	0.686
Mof_C 	C 	0.86665	0.76525	0.55667	-0.254
Mof_C 	C 	0.90862	0.67977	0.28637	-1.397
Mof_H 	H 	0.90433	0.69717	0.27897	0.406
Mof_H 	H 	0.90003	0.66547	0.23347	0.432
Mof_H 	H 	0.93143	0.68827	0.28987	0.421
Mof_C 	C 	0.73454	0.61515	0.31387	0.728
Mof_C 	C 	0.81562	0.65191	0.27347	0.146
Mof_H 	H 	0.82893	0.64237	0.28247	-0.047
Mof_H 	H 	0.82573	0.66937	0.22917	-0.066
Mof_H 	H 	0.79493	0.63597	0.24957	-0.057
Mof_C 	C 	0.84023	0.75219	0.48247	0.244
Mof_H 	H 	0.82583	0.76047	0.49557	-0.051
Mof_H 	H 	0.85003	0.76047	0.42137	-0.083
Mof_C 	C 	0.73381	0.64745	0.53787	0.23
Mof_H 	H 	0.72023	0.63277	0.48887	-0.051
Mof_H 	H 	0.72723	0.66337	0.54737	-0.051
Mof_C 	C 	0.6917	0.61265	0.65117	0.161
Mof_C 	C 	0.85165	0.75655	0.66097	0.248
Mof_H 	H 	0.86883	0.76607	0.70727	-0.057
Mof_H 	H 	0.83743	0.76527	0.67067	-0.056
Mof_C 	C 	0.89355	0.6623	0.37247	0.777
Mof_C 	C 	0.89253	0.75637	0.54557	0.237
Mof_H 	H 	0.90423	0.76597	0.48767	-0.066
Mof_H 	H 	0.90763	0.76587	0.59737	-0.04
Mof_C 	C 	0.73589	0.60135	0.62227	0.224
Mof_H 	H 	0.73043	0.59007	0.68217	-0.041
Mof_H 	H 	0.72203	0.58617	0.57467	-0.039
Mof_C 	C 	0.74569	0.65081	0.71337	0.243
Mof_H 	H 	0.73773	0.66567	0.72187	-0.058
Mof_H 	H 	0.74063	0.63777	0.76997	-0.061
Mof_C 	C 	0.72826	0.62863	0.62837	-0.241
Mof_O 	O 	0.81289	0.60514	0.45437	-0.613
Mof_O 	O 	0.87549	0.6678	0.42267	-0.587
Mof_Mn	Mn	0.86187	0.62363	0.52244	0.956
Mof_C 	C 	0.63623	0.55957	0.68287	-0.332
Mof_H 	H 	0.62143	0.53677	0.68557	0.108
Mof_C 	C 	0.64123	0.60737	0.68917	-0.36
Mof_H 	H 	0.63173	0.62057	0.70207	0.132
Mof_C 	C 	0.67283	0.57477	0.66027	0.195
Mof_H 	H 	0.68333	0.56217	0.65827	-0.044
Mof_C 	C 	0.67573	0.62327	0.66557	0.306
Mof_H 	H 	0.68653	0.64637	0.66147	-0.069
Mof_Mn	Mn	0.97107	0.50052	0.98488	1.072
Mof_Mn	Mn	0.97154	0.43763	0.92329	1.107
Mof_Mn	Mn	0.97968	0.42832	0.69743	0.759
Mof_Mn	Mn	0.03763	0.49008	0.79972	0.95
Mof_Mn	Mn	0.96921	0.49023	0.76197	0.8
Mof_N 	N 	0.08528	0.37755	0.0225	-0.164
Mof_N 	N 	0.79745	0.38165	0.8595	-0.152
Mof_O 	O 	0.94869	0.43699	0.8099	-0.518
Mof_O 	O 	0.00024	0.49257	0.9112	-0.66
Mof_O 	O 	0.94401	0.44491	0.0057	-0.534
Mof_O 	O 	0.02253	0.43303	0.6339	-0.517
Mof_O 	O 	0.06334	0.4746	0.7119	-0.506
Mof_O 	O 	0.99789	0.4446	0.0343	-0.529
Mof_O 	O 	0.00304	0.43668	0.8389	-0.509
Mof_O 	O 	0.05599	0.49121	0.9335	-0.481
Mof_O 	O 	0.94483	0.38626	0.937	-0.483
Mof_O 	O 	0.93531	0.38033	0.093	-0.477
Mof_O 	O 	0.02848	0.59086	0.7318	-0.47
Mof_O 	O 	0.94395	0.49219	0.8766	-0.489
Mof_O 	O 	0.00253	0.48055	0.6969	-0.508
Mof_O 	O 	0.09373	0.59192	0.784	-0.442
Mof_C 	C 	0.0864	0.4001	0.0802	0.479
Mof_H 	H 	0.0983	0.4044	0.1381	-0.118
Mof_C 	C 	0.068	0.3711	0.9446	0.391
Mof_H 	H 	0.0666	0.3548	0.9024	-0.123
Mof_C 	C 	0.1085	0.5581	0.6975	-1.341
Mof_H 	H 	0.0996	0.5354	0.6867	0.417
Mof_H 	H 	0.1292	0.5667	0.7271	0.416
Mof_H 	H 	0.1108	0.5688	0.6384	0.409
Mof_C 	C 	0.8108	0.3821	0.9382	0.132
Mof_H 	H 	0.7975	0.37	0.9878	-0.017
Mof_C 	C 	0.8171	0.3973	0.7822	0.112
Mof_H 	H 	0.8086	0.3972	0.7231	-0.014
Mof_C 	C 	0.0757	0.4526	0.5832	-1.282
Mof_H 	H 	0.0651	0.4359	0.5371	0.392
Mof_H 	H 	0.0906	0.4489	0.6188	0.41
Mof_H 	H 	0.0872	0.4731	0.5519	0.381
Mof_C 	C 	0.8435	0.3994	0.9541	-0.228
Mof_H 	H 	0.8516	0.4	0.0142	0.103
Mof_C 	C 	0.9158	0.3337	0.9968	-1.162
Mof_H 	H 	0.908	0.3231	0.0564	0.349
Mof_H 	H 	0.9302	0.3274	0.9699	0.361
Mof_H 	H 	0.898	0.3278	0.955	0.367
Mof_C 	C 	0.0714	0.4172	0.0617	-0.536
Mof_H 	H 	0.0731	0.4331	0.1061	0.189
Mof_C 	C 	0.0512	0.3885	0.9206	-0.488
Mof_H 	H 	0.039	0.3844	0.8636	0.185
Mof_C 	C 	0.86409	0.41559	0.8806	0.185
Mof_C 	C 	0.8492	0.4127	0.7982	-0.225
Mof_H 	H 	0.8624	0.4222	0.7462	0.092
Mof_C 	C 	0.0867	0.5632	0.7595	0.766
Mof_C 	C 	0.9335	0.3696	0.0115	0.682
Mof_C 	C 	0.90142	0.43474	0.89	-0.255
Mof_C 	C 	0.9869	0.56219	0.6197	-1.397
Mof_H 	H 	0.9695	0.5405	0.6123	0.406
Mof_H 	H 	0.0012	0.5679	0.5668	0.432
Mof_H 	H 	0.9784	0.5765	0.6232	0.421
Mof_C 	C 	0.05152	0.45273	0.6472	0.728
Mof_C 	C 	0.01476	0.49705	0.6068	0.146
Mof_H 	H 	0.0243	0.5199	0.6158	-0.047
Mof_H 	H 	0.9973	0.4897	0.5625	-0.066
Mof_H 	H 	0.0307	0.4923	0.5829	-0.056
Mof_C 	C 	0.91448	0.42138	0.8158	0.244
Mof_H 	H 	0.9062	0.3987	0.8289	-0.051
Mof_H 	H 	0.9062	0.4229	0.7547	-0.083
Mof_C 	C 	0.01922	0.4197	0.8712	0.229
Mof_H 	H 	0.0339	0.4208	0.8222	-0.051
Mof_H 	H 	0.0033	0.3972	0.8807	-0.051
Mof_C 	C 	0.05402	0.41239	0.9845	0.158
Mof_C 	C 	0.91012	0.42844	0.9943	0.253
Mof_H 	H 	0.9006	0.4361	0.0406	-0.059
Mof_H 	H 	0.9014	0.4055	0.004	-0.059
Mof_C 	C 	0.00437	0.56459	0.7058	0.776
Mof_C 	C 	0.9103	0.4695	0.8789	0.237
Mof_H 	H 	0.9007	0.4716	0.821	-0.066
Mof_H 	H 	0.9008	0.4751	0.9307	-0.04
Mof_C 	C 	0.06532	0.46788	0.9556	0.221
Mof_H 	H 	0.0766	0.4737	0.0155	-0.039
Mof_H 	H 	0.0805	0.4692	0.908	-0.038
Mof_C 	C 	0.01586	0.42822	0.0467	0.242
Mof_H 	H 	0.001	0.4054	0.0552	-0.058
Mof_H 	H 	0.0289	0.4362	0.1033	-0.061
Mof_C 	C 	0.03804	0.43297	0.9617	-0.239
Mof_O 	O 	0.06153	0.54109	0.7877	-0.614
Mof_O 	O 	0.99887	0.54103	0.756	-0.587
Mof_Mn	Mn	0.04304	0.57158	0.85577	0.956
Mof_C 	C 	0.1071	0.41	0.0162	-0.339
Mof_H 	H 	0.1299	0.418	0.0189	0.111
Mof_C 	C 	0.0593	0.3672	0.0225	-0.378
Mof_H 	H 	0.0461	0.3445	0.0354	0.137
Mof_C 	C 	0.0919	0.4314	0.9936	0.2
Mof_H 	H 	0.1045	0.4545	0.9916	-0.046
Mof_C 	C 	0.0434	0.3858	0.9989	0.324
Mof_H 	H 	0.0203	0.3735	0.9948	-0.075
Mof_Mn	Mn	0.63774	0.83385	0.31821	1.071
Mof_Mn	Mn	0.63821	0.77096	0.25662	1.107
Mof_Mn	Mn	0.64635	0.76165	0.03076	0.759
Mof_Mn	Mn	0.7043	0.82341	0.13305	0.95
Mof_Mn	Mn	0.63588	0.82356	0.0953	0.8
Mof_N 	N 	0.75195	0.71088	0.35583	-0.167
Mof_N 	N 	0.46412	0.71498	0.19283	-0.152
Mof_O 	O 	0.61536	0.77032	0.14323	-0.518
Mof_O 	O 	0.66691	0.8259	0.24453	-0.66
Mof_O 	O 	0.61068	0.77824	0.33903	-0.532
Mof_O 	O 	0.6892	0.76636	0.96723	-0.517
Mof_O 	O 	0.73001	0.80793	0.04523	-0.506
Mof_O 	O 	0.66456	0.77793	0.36763	-0.529
Mof_O 	O 	0.66971	0.77001	0.17223	-0.509
Mof_O 	O 	0.72266	0.82454	0.26683	-0.481
Mof_O 	O 	0.6115	0.71959	0.27033	-0.484
Mof_O 	O 	0.60198	0.71366	0.42633	-0.478
Mof_O 	O 	0.69515	0.92419	0.06513	-0.471
Mof_O 	O 	0.61062	0.82552	0.20993	-0.488
Mof_O 	O 	0.6692	0.81388	0.03023	-0.508
Mof_O 	O 	0.7604	0.92525	0.11733	-0.442
Mof_C 	C 	0.75307	0.73343	0.41353	0.47
Mof_H 	H 	0.76497	0.73773	0.47143	-0.115
Mof_C 	C 	0.73467	0.70443	0.27793	0.379
Mof_H 	H 	0.73327	0.68813	0.23573	-0.118
Mof_C 	C 	0.77517	0.89143	0.03083	-1.34
Mof_H 	H 	0.76627	0.86873	0.02003	0.417
Mof_H 	H 	0.79587	0.90003	0.06043	0.416
Mof_H 	H 	0.77747	0.90213	0.97173	0.408
Mof_C 	C 	0.47747	0.71543	0.27153	0.134
Mof_H 	H 	0.46417	0.70333	0.32113	-0.018
Mof_C 	C 	0.48377	0.73063	0.11553	0.112
Mof_H 	H 	0.47527	0.73053	0.05643	-0.014
Mof_C 	C 	0.74237	0.78593	0.91653	-1.282
Mof_H 	H 	0.73177	0.76923	0.87043	0.392
Mof_H 	H 	0.75727	0.78223	0.95213	0.41
Mof_H 	H 	0.75387	0.80643	0.88523	0.381
Mof_C 	C 	0.51017	0.73273	0.28743	-0.232
Mof_H 	H 	0.51827	0.73333	0.34753	0.105
Mof_C 	C 	0.58247	0.66703	0.33013	-1.17
Mof_H 	H 	0.57467	0.65643	0.38973	0.351
Mof_H 	H 	0.59687	0.66073	0.30323	0.363
Mof_H 	H 	0.56467	0.66113	0.28833	0.369
Mof_C 	C 	0.73807	0.75053	0.39503	-0.528
Mof_H 	H 	0.73977	0.76643	0.43943	0.187
Mof_C 	C 	0.71787	0.72183	0.25393	-0.475
Mof_H 	H 	0.70567	0.71773	0.19693	0.181
Mof_C 	C 	0.53076	0.74892	0.21393	0.186
Mof_C 	C 	0.51587	0.74603	0.13153	-0.226
Mof_H 	H 	0.52907	0.75553	0.07953	0.092
Mof_C 	C 	0.75337	0.89653	0.09283	0.765
Mof_C 	C 	0.60017	0.70293	0.34483	0.686
Mof_C 	C 	0.56809	0.76807	0.22333	-0.254
Mof_C 	C 	0.65357	0.89552	0.95303	-1.399
Mof_H 	H 	0.63617	0.87383	0.94563	0.406
Mof_H 	H 	0.66787	0.90123	0.90013	0.433
Mof_H 	H 	0.64507	0.90983	0.95653	0.422
Mof_C 	C 	0.71819	0.78606	0.98053	0.728
Mof_C 	C 	0.68143	0.83038	0.94013	0.145
Mof_H 	H 	0.69097	0.85323	0.94913	-0.047
Mof_H 	H 	0.66397	0.82303	0.89583	-0.066
Mof_H 	H 	0.69737	0.82563	0.91623	-0.056
Mof_C 	C 	0.58115	0.75471	0.14913	0.244
Mof_H 	H 	0.57287	0.73203	0.16223	-0.051
Mof_H 	H 	0.57287	0.75623	0.08803	-0.083
Mof_C 	C 	0.68589	0.75303	0.20453	0.23
Mof_H 	H 	0.70057	0.75413	0.15553	-0.051
Mof_H 	H 	0.66997	0.73053	0.21403	-0.051
Mof_C 	C 	0.72069	0.74572	0.31783	0.161
Mof_C 	C 	0.57679	0.76177	0.32763	0.248
Mof_H 	H 	0.56727	0.76943	0.37393	-0.057
Mof_H 	H 	0.56807	0.73883	0.33733	-0.056
Mof_C 	C 	0.67104	0.89792	0.03913	0.778
Mof_C 	C 	0.57697	0.80283	0.21223	0.237
Mof_H 	H 	0.56737	0.80493	0.15433	-0.066
Mof_H 	H 	0.56747	0.80843	0.26403	-0.04
Mof_C 	C 	0.73199	0.80121	0.28893	0.224
Mof_H 	H 	0.74327	0.80703	0.34883	-0.041
Mof_H 	H 	0.74717	0.80253	0.24133	-0.039
Mof_C 	C 	0.68253	0.76155	0.38003	0.243
Mof_H 	H 	0.66767	0.73873	0.38853	-0.058
Mof_H 	H 	0.69557	0.76953	0.43663	-0.061
Mof_C 	C 	0.70471	0.7663	0.29503	-0.241
Mof_O 	O 	0.7282	0.87442	0.12103	-0.613
Mof_O 	O 	0.66554	0.87436	0.08933	-0.588
Mof_Mn	Mn	0.70971	0.90491	0.1891	0.956
Mof_C 	C 	0.77377	0.74333	0.34953	-0.332
Mof_H 	H 	0.79657	0.75133	0.35223	0.108
Mof_C 	C 	0.72597	0.70053	0.35583	-0.361
Mof_H 	H 	0.71277	0.67783	0.36873	0.132
Mof_C 	C 	0.75857	0.76473	0.32693	0.195
Mof_H 	H 	0.77117	0.78783	0.32493	-0.044
Mof_C 	C 	0.71007	0.71913	0.33223	0.307
Mof_H 	H 	0.68697	0.70683	0.32813	-0.069
Mof_Mn	Mn	0.3044	0.16719	0.65155	1.071
Mof_Mn	Mn	0.30487	0.1043	0.58996	1.107
Mof_Mn	Mn	0.31301	0.09499	0.3641	0.759
Mof_Mn	Mn	0.37096	0.15675	0.46639	0.95
Mof_Mn	Mn	0.30254	0.1569	0.42864	0.8
Mof_N 	N 	0.41861	0.04422	0.68917	-0.167
Mof_N 	N 	0.13078	0.04832	0.52617	-0.152
Mof_O 	O 	0.28202	0.10366	0.47657	-0.518
Mof_O 	O 	0.33357	0.15924	0.57787	-0.66
Mof_O 	O 	0.27734	0.11158	0.67237	-0.532
Mof_O 	O 	0.35586	0.0997	0.30057	-0.517
Mof_O 	O 	0.39667	0.14127	0.37857	-0.506
Mof_O 	O 	0.33122	0.11127	0.70097	-0.529
Mof_O 	O 	0.33637	0.10335	0.50557	-0.509
Mof_O 	O 	0.38932	0.15788	0.60017	-0.481
Mof_O 	O 	0.27816	0.05293	0.60367	-0.484
Mof_O 	O 	0.26864	0.047	0.75967	-0.478
Mof_O 	O 	0.36181	0.25753	0.39847	-0.47
Mof_O 	O 	0.27728	0.15886	0.54327	-0.488
Mof_O 	O 	0.33586	0.14722	0.36357	-0.508
Mof_O 	O 	0.42706	0.25859	0.45067	-0.442
Mof_C 	C 	0.41973	0.06677	0.74687	0.47
Mof_H 	H 	0.43163	0.07107	0.80477	-0.115
Mof_C 	C 	0.40133	0.03777	0.61127	0.379
Mof_H 	H 	0.39993	0.02147	0.56907	-0.118
Mof_C 	C 	0.44183	0.22477	0.36417	-1.341
Mof_H 	H 	0.43293	0.20207	0.35337	0.417
Mof_H 	H 	0.46253	0.23337	0.39377	0.416
Mof_H 	H 	0.44413	0.23547	0.30507	0.408
Mof_C 	C 	0.14413	0.04877	0.60487	0.134
Mof_H 	H 	0.13083	0.03667	0.65447	-0.018
Mof_C 	C 	0.15043	0.06397	0.44887	0.112
Mof_H 	H 	0.14193	0.06387	0.38977	-0.014
Mof_C 	C 	0.40903	0.11927	0.24987	-1.282
Mof_H 	H 	0.39843	0.10257	0.20377	0.392
Mof_H 	H 	0.42393	0.11557	0.28547	0.41
Mof_H 	H 	0.42053	0.13977	0.21857	0.381
Mof_C 	C 	0.17683	0.06607	0.62077	-0.232
Mof_H 	H 	0.18493	0.06667	0.68087	0.105
Mof_C 	C 	0.24913	0.00037	0.66347	-1.17
Mof_H 	H 	0.24133	0.98977	0.72307	0.351
Mof_H 	H 	0.26353	0.99407	0.63657	0.363
Mof_H 	H 	0.23133	0.99447	0.62167	0.369
Mof_C 	C 	0.40473	0.08387	0.72837	-0.528
Mof_H 	H 	0.40643	0.09977	0.77277	0.187
Mof_C 	C 	0.38453	0.05517	0.58727	-0.475
Mof_H 	H 	0.37233	0.05107	0.53027	0.181
Mof_C 	C 	0.19742	0.08226	0.54727	0.186
Mof_C 	C 	0.18253	0.07937	0.46487	-0.226
Mof_H 	H 	0.19573	0.08887	0.41287	0.092
Mof_C 	C 	0.42003	0.22987	0.42617	0.766
Mof_C 	C 	0.26683	0.03627	0.67817	0.686
Mof_C 	C 	0.23475	0.10141	0.55667	-0.254
Mof_C 	C 	0.32023	0.22886	0.28637	-1.397
Mof_H 	H 	0.30283	0.20717	0.27897	0.406
Mof_H 	H 	0.33453	0.23457	0.23347	0.432
Mof_H 	H 	0.31173	0.24317	0.28987	0.421
Mof_C 	C 	0.38485	0.1194	0.31387	0.728
Mof_C 	C 	0.34809	0.16372	0.27347	0.146
Mof_H 	H 	0.35763	0.18657	0.28247	-0.047
Mof_H 	H 	0.33063	0.15637	0.22917	-0.066
Mof_H 	H 	0.36403	0.15897	0.24957	-0.057
Mof_C 	C 	0.24781	0.08805	0.48247	0.244
Mof_H 	H 	0.23953	0.06537	0.49557	-0.051
Mof_H 	H 	0.23953	0.08957	0.42137	-0.083
Mof_C 	C 	0.35255	0.08637	0.53787	0.23
Mof_H 	H 	0.36723	0.08747	0.48887	-0.051
Mof_H 	H 	0.33663	0.06387	0.54737	-0.051
Mof_C 	C 	0.38735	0.07906	0.65117	0.161
Mof_C 	C 	0.24345	0.09511	0.66097	0.248
Mof_H 	H 	0.23393	0.10277	0.70727	-0.057
Mof_H 	H 	0.23473	0.07217	0.67067	-0.056
Mof_C 	C 	0.3377	0.23126	0.37247	0.777
Mof_C 	C 	0.24363	0.13617	0.54557	0.237
Mof_H 	H 	0.23403	0.13827	0.48767	-0.066
Mof_H 	H 	0.23413	0.14177	0.59737	-0.04
Mof_C 	C 	0.39865	0.13455	0.62227	0.224
Mof_H 	H 	0.40993	0.14037	0.68217	-0.041
Mof_H 	H 	0.41383	0.13587	0.57467	-0.039
Mof_C 	C 	0.34919	0.09489	0.71337	0.243
Mof_H 	H 	0.33433	0.07207	0.72187	-0.058
Mof_H 	H 	0.36223	0.10287	0.76997	-0.061
Mof_C 	C 	0.37137	0.09964	0.62837	-0.241
Mof_O 	O 	0.39486	0.20776	0.45437	-0.613
Mof_O 	O 	0.3322	0.2077	0.42267	-0.587
Mof_Mn	Mn	0.37637	0.23825	0.52244	0.956
Mof_C 	C 	0.44043	0.07667	0.68287	-0.332
Mof_H 	H 	0.46323	0.08467	0.68557	0.108
Mof_C 	C 	0.39263	0.03387	0.68917	-0.36
Mof_H 	H 	0.37943	0.01117	0.70207	0.131
Mof_C 	C 	0.42523	0.09807	0.66027	0.195
Mof_H 	H 	0.43783	0.12117	0.65827	-0.044
Mof_C 	C 	0.37673	0.05247	0.66557	0.306
Mof_H 	H 	0.35363	0.04017	0.66147	-0.069
Mof_Mn	Mn	0.49948	0.47055	0.98488	1.072
Mof_Mn	Mn	0.56237	0.53391	0.92329	1.107
Mof_Mn	Mn	0.57168	0.55136	0.69743	0.759
Mof_Mn	Mn	0.50992	0.54755	0.79972	0.95
Mof_Mn	Mn	0.50977	0.47898	0.76197	0.8
Mof_N 	N 	0.62245	0.70773	0.0225	-0.164
Mof_N 	N 	0.61835	0.4158	0.8595	-0.152
Mof_O 	O 	0.56301	0.5117	0.8099	-0.518
Mof_O 	O 	0.50743	0.50767	0.9112	-0.66
Mof_O 	O 	0.55509	0.4991	0.0057	-0.534
Mof_O 	O 	0.56697	0.5895	0.6339	-0.517
Mof_O 	O 	0.5254	0.58874	0.7119	-0.506
Mof_O 	O 	0.5554	0.55329	0.0343	-0.528
Mof_O 	O 	0.56332	0.56636	0.8389	-0.509
Mof_O 	O 	0.50879	0.56478	0.9335	-0.481
Mof_O 	O 	0.61374	0.55857	0.937	-0.483
Mof_O 	O 	0.61967	0.55498	0.093	-0.478
Mof_O 	O 	0.40914	0.43762	0.7318	-0.47
Mof_O 	O 	0.50781	0.45176	0.8766	-0.489
Mof_O 	O 	0.51945	0.52198	0.6969	-0.508
Mof_O 	O 	0.40808	0.50181	0.784	-0.442
Mof_C 	C 	0.5999	0.6863	0.0802	0.479
Mof_H 	H 	0.5956	0.6939	0.1381	-0.118
Mof_C 	C 	0.6289	0.6969	0.9446	0.391
Mof_H 	H 	0.6452	0.7118	0.9024	-0.123
Mof_C 	C 	0.4419	0.5504	0.6975	-1.341
Mof_H 	H 	0.4646	0.5642	0.6867	0.417
Mof_H 	H 	0.4333	0.5625	0.7271	0.416
Mof_H 	H 	0.4312	0.542	0.6384	0.409
Mof_C 	C 	0.6179	0.4287	0.9382	0.132
Mof_H 	H 	0.63	0.4275	0.9878	-0.017
Mof_C 	C 	0.6027	0.4198	0.7822	0.112
Mof_H 	H 	0.6028	0.4114	0.7231	-0.014
Mof_C 	C 	0.5474	0.6231	0.5832	-1.282
Mof_H 	H 	0.5641	0.6292	0.5371	0.392
Mof_H 	H 	0.5511	0.6417	0.6188	0.41
Mof_H 	H 	0.5269	0.6141	0.5519	0.381
Mof_C 	C 	0.6006	0.4441	0.9541	-0.228
Mof_H 	H 	0.6	0.4516	0.0142	0.103
Mof_C 	C 	0.6663	0.5821	0.9968	-1.163
Mof_H 	H 	0.6769	0.5849	0.0564	0.349
Mof_H 	H 	0.6726	0.6028	0.9699	0.361
Mof_H 	H 	0.6722	0.5702	0.955	0.367
Mof_C 	C 	0.5828	0.6542	0.0617	-0.536
Mof_H 	H 	0.5669	0.64	0.1061	0.189
Mof_C 	C 	0.6115	0.6627	0.9206	-0.488
Mof_H 	H 	0.6156	0.6546	0.8636	0.185
Mof_C 	C 	0.58441	0.4485	0.8806	0.185
Mof_C 	C 	0.5873	0.4365	0.7982	-0.225
Mof_H 	H 	0.5778	0.4402	0.7462	0.092
Mof_C 	C 	0.4368	0.5235	0.7595	0.766
Mof_C 	C 	0.6304	0.5639	0.0115	0.683
Mof_C 	C 	0.56526	0.46668	0.89	-0.255
Mof_C 	C 	0.43781	0.42471	0.6197	-1.397
Mof_H 	H 	0.4595	0.429	0.6123	0.406
Mof_H 	H 	0.4321	0.4333	0.5668	0.432
Mof_H 	H 	0.4235	0.4019	0.6232	0.421
Mof_C 	C 	0.54727	0.59879	0.6472	0.728
Mof_C 	C 	0.50295	0.51771	0.6068	0.146
Mof_H 	H 	0.4801	0.5044	0.6158	-0.047
Mof_H 	H 	0.5103	0.5076	0.5625	-0.066
Mof_H 	H 	0.5077	0.5384	0.5829	-0.056
Mof_C 	C 	0.57862	0.4931	0.8158	0.244
Mof_H 	H 	0.6013	0.5075	0.8289	-0.051
Mof_H 	H 	0.5771	0.4833	0.7547	-0.083
Mof_C 	C 	0.5803	0.59952	0.8712	0.229
Mof_H 	H 	0.5792	0.6131	0.8222	-0.051
Mof_H 	H 	0.6028	0.6061	0.8807	-0.051
Mof_C 	C 	0.58761	0.64163	0.9845	0.158
Mof_C 	C 	0.57156	0.48168	0.9943	0.253
Mof_H 	H 	0.5639	0.4645	0.0406	-0.059
Mof_H 	H 	0.5945	0.4959	0.004	-0.059
Mof_C 	C 	0.43541	0.43978	0.7058	0.777
Mof_C 	C 	0.5305	0.4408	0.8789	0.237
Mof_H 	H 	0.5284	0.4291	0.821	-0.066
Mof_H 	H 	0.5249	0.4257	0.9307	-0.04
Mof_C 	C 	0.53212	0.59744	0.9556	0.221
Mof_H 	H 	0.5263	0.6029	0.0155	-0.039
Mof_H 	H 	0.5308	0.6113	0.908	-0.038
Mof_C 	C 	0.57178	0.58764	0.0467	0.242
Mof_H 	H 	0.5946	0.5956	0.0552	-0.058
Mof_H 	H 	0.5638	0.5927	0.1033	-0.061
Mof_C 	C 	0.56703	0.60507	0.9617	-0.239
Mof_O 	O 	0.45891	0.52044	0.7877	-0.614
Mof_O 	O 	0.45897	0.45784	0.756	-0.588
Mof_Mn	Mn	0.42842	0.47146	0.85577	0.956
Mof_C 	C 	0.59	0.6971	0.0162	-0.339
Mof_H 	H 	0.582	0.7119	0.0189	0.111
Mof_C 	C 	0.6328	0.6921	0.0225	-0.377
Mof_H 	H 	0.6555	0.7016	0.0354	0.137
Mof_C 	C 	0.5686	0.6605	0.9936	0.2
Mof_H 	H 	0.5455	0.65	0.9916	-0.046
Mof_C 	C 	0.6142	0.6576	0.9989	0.323
Mof_H 	H 	0.6265	0.6468	0.9948	-0.074
Mof_Mn	Mn	0.16615	0.80388	0.31821	1.071
Mof_Mn	Mn	0.22904	0.86724	0.25662	1.107
Mof_Mn	Mn	0.23835	0.88469	0.03076	0.759
Mof_Mn	Mn	0.17659	0.88088	0.13305	0.95
Mof_Mn	Mn	0.17644	0.81231	0.0953	0.8
Mof_N 	N 	0.28912	0.04106	0.35583	-0.167
Mof_N 	N 	0.28502	0.74913	0.19283	-0.152
Mof_O 	O 	0.22968	0.84503	0.14323	-0.518
Mof_O 	O 	0.1741	0.841	0.24453	-0.66
Mof_O 	O 	0.22176	0.83243	0.33903	-0.532
Mof_O 	O 	0.23364	0.92283	0.96723	-0.517
Mof_O 	O 	0.19207	0.92207	0.04523	-0.506
Mof_O 	O 	0.22207	0.88662	0.36763	-0.529
Mof_O 	O 	0.22999	0.89969	0.17223	-0.509
Mof_O 	O 	0.17546	0.89811	0.26683	-0.481
Mof_O 	O 	0.28041	0.8919	0.27033	-0.484
Mof_O 	O 	0.28634	0.88831	0.42633	-0.478
Mof_O 	O 	0.07581	0.77095	0.06513	-0.471
Mof_O 	O 	0.17448	0.78509	0.20993	-0.488
Mof_O 	O 	0.18612	0.85531	0.03023	-0.508
Mof_O 	O 	0.07475	0.83514	0.11733	-0.442
Mof_C 	C 	0.26657	0.01963	0.41353	0.47
Mof_H 	H 	0.26227	0.02723	0.47143	-0.115
Mof_C 	C 	0.29557	0.03023	0.27793	0.379
Mof_H 	H 	0.31187	0.04513	0.23573	-0.118
Mof_C 	C 	0.10857	0.88373	0.03083	-1.34
Mof_H 	H 	0.13127	0.89753	0.02003	0.417
Mof_H 	H 	0.09997	0.89583	0.06043	0.416
Mof_H 	H 	0.09787	0.87533	0.97173	0.408
Mof_C 	C 	0.28457	0.76203	0.27153	0.134
Mof_H 	H 	0.29667	0.76083	0.32113	-0.018
Mof_C 	C 	0.26937	0.75313	0.11553	0.112
Mof_H 	H 	0.26947	0.74473	0.05643	-0.014
Mof_C 	C 	0.21407	0.95643	0.91653	-1.281
Mof_H 	H 	0.23077	0.96253	0.87043	0.392
Mof_H 	H 	0.21777	0.97503	0.95213	0.41
Mof_H 	H 	0.19357	0.94743	0.88523	0.381
Mof_C 	C 	0.26727	0.77743	0.28743	-0.232
Mof_H 	H 	0.26667	0.78493	0.34753	0.105
Mof_C 	C 	0.33297	0.91543	0.33013	-1.17
Mof_H 	H 	0.34357	0.91823	0.38973	0.351
Mof_H 	H 	0.33927	0.93613	0.30323	0.363
Mof_H 	H 	0.33887	0.90353	0.28833	0.369
Mof_C 	C 	0.24947	0.98753	0.39503	-0.528
Mof_H 	H 	0.23357	0.97333	0.43943	0.186
Mof_C 	C 	0.27817	0.99603	0.25393	-0.475
Mof_H 	H 	0.28227	0.98793	0.19693	0.181
Mof_C 	C 	0.25108	0.78183	0.21393	0.186
Mof_C 	C 	0.25397	0.76983	0.13153	-0.226
Mof_H 	H 	0.24447	0.77353	0.07953	0.092
Mof_C 	C 	0.10347	0.85683	0.09283	0.765
Mof_C 	C 	0.29707	0.89723	0.34483	0.686
Mof_C 	C 	0.23193	0.80001	0.22333	-0.254
Mof_C 	C 	0.10448	0.75804	0.95303	-1.399
Mof_H 	H 	0.12617	0.76233	0.94563	0.406
Mof_H 	H 	0.09877	0.76663	0.90013	0.433
Mof_H 	H 	0.09017	0.73523	0.95653	0.422
Mof_C 	C 	0.21394	0.93212	0.98053	0.728
Mof_C 	C 	0.16962	0.85104	0.94013	0.145
Mof_H 	H 	0.14677	0.83773	0.94913	-0.047
Mof_H 	H 	0.17697	0.84093	0.89583	-0.066
Mof_H 	H 	0.17437	0.87173	0.91623	-0.056
Mof_C 	C 	0.24529	0.82643	0.14913	0.244
Mof_H 	H 	0.26797	0.84083	0.16223	-0.051
Mof_H 	H 	0.24377	0.81663	0.08803	-0.083
Mof_C 	C 	0.24697	0.93285	0.20453	0.23
Mof_H 	H 	0.24587	0.94643	0.15553	-0.051
Mof_H 	H 	0.26947	0.93943	0.21403	-0.051
Mof_C 	C 	0.25428	0.97496	0.31783	0.161
Mof_C 	C 	0.23823	0.81501	0.32763	0.248
Mof_H 	H 	0.23057	0.79783	0.37393	-0.057
Mof_H 	H 	0.26117	0.82923	0.33733	-0.056
Mof_C 	C 	0.10208	0.77311	0.03913	0.778
Mof_C 	C 	0.19717	0.77413	0.21223	0.237
Mof_H 	H 	0.19507	0.76243	0.15433	-0.066
Mof_H 	H 	0.19157	0.75903	0.26403	-0.04
Mof_C 	C 	0.19879	0.93077	0.28893	0.224
Mof_H 	H 	0.19297	0.93623	0.34883	-0.041
Mof_H 	H 	0.19747	0.94463	0.24133	-0.039
Mof_C 	C 	0.23845	0.92097	0.38003	0.243
Mof_H 	H 	0.26127	0.92893	0.38853	-0.058
Mof_H 	H 	0.23047	0.92603	0.43663	-0.061
Mof_C 	C 	0.2337	0.9384	0.29503	-0.241
Mof_O 	O 	0.12558	0.85377	0.12103	-0.613
Mof_O 	O 	0.12564	0.79117	0.08933	-0.588
Mof_Mn	Mn	0.09509	0.80479	0.1891	0.956
Mof_C 	C 	0.25667	0.03043	0.34953	-0.332
Mof_H 	H 	0.24867	0.04523	0.35223	0.108
Mof_C 	C 	0.29947	0.02543	0.35583	-0.36
Mof_H 	H 	0.32217	0.03493	0.36873	0.132
Mof_C 	C 	0.23527	0.99383	0.32693	0.195
Mof_H 	H 	0.21217	0.98333	0.32493	-0.044
Mof_C 	C 	0.28087	0.99093	0.33223	0.306
Mof_H 	H 	0.29317	0.98013	0.32813	-0.069
Mof_Mn	Mn	0.83281	0.13722	0.65155	1.071
Mof_Mn	Mn	0.8957	0.20058	0.58996	1.107
Mof_Mn	Mn	0.90501	0.21803	0.3641	0.759
Mof_Mn	Mn	0.84325	0.21422	0.46639	0.95
Mof_Mn	Mn	0.8431	0.14565	0.42864	0.8
Mof_N 	N 	0.95578	0.3744	0.68917	-0.167
Mof_N 	N 	0.95168	0.08247	0.52617	-0.152
Mof_O 	O 	0.89634	0.17837	0.47657	-0.518
Mof_O 	O 	0.84076	0.17434	0.57787	-0.66
Mof_O 	O 	0.88842	0.16577	0.67237	-0.532
Mof_O 	O 	0.9003	0.25617	0.30057	-0.517
Mof_O 	O 	0.85873	0.25541	0.37857	-0.506
Mof_O 	O 	0.88873	0.21996	0.70097	-0.529
Mof_O 	O 	0.89665	0.23303	0.50557	-0.509
Mof_O 	O 	0.84212	0.23145	0.60017	-0.481
Mof_O 	O 	0.94707	0.22524	0.60367	-0.484
Mof_O 	O 	0.953	0.22165	0.75967	-0.478
Mof_O 	O 	0.74247	0.10429	0.39847	-0.47
Mof_O 	O 	0.84114	0.11843	0.54327	-0.488
Mof_O 	O 	0.85278	0.18865	0.36357	-0.508
Mof_O 	O 	0.74141	0.16848	0.45067	-0.442
Mof_C 	C 	0.93323	0.35297	0.74687	0.47
Mof_H 	H 	0.92893	0.36057	0.80477	-0.115
Mof_C 	C 	0.96223	0.36357	0.61127	0.379
Mof_H 	H 	0.97853	0.37847	0.56907	-0.118
Mof_C 	C 	0.77523	0.21707	0.36417	-1.341
Mof_H 	H 	0.79793	0.23087	0.35337	0.417
Mof_H 	H 	0.76663	0.22917	0.39377	0.416
Mof_H 	H 	0.76453	0.20867	0.30507	0.408
Mof_C 	C 	0.95123	0.09537	0.60487	0.134
Mof_H 	H 	0.96333	0.09417	0.65447	-0.018
Mof_C 	C 	0.93603	0.08647	0.44887	0.112
Mof_H 	H 	0.93613	0.07807	0.38977	-0.014
Mof_C 	C 	0.88073	0.28977	0.24987	-1.282
Mof_H 	H 	0.89743	0.29587	0.20377	0.392
Mof_H 	H 	0.88443	0.30837	0.28547	0.41
Mof_H 	H 	0.86023	0.28077	0.21857	0.381
Mof_C 	C 	0.93393	0.11077	0.62077	-0.232
Mof_H 	H 	0.93333	0.11827	0.68087	0.105
Mof_C 	C 	0.99963	0.24877	0.66347	-1.17
Mof_H 	H 	0.01023	0.25157	0.72307	0.351
Mof_H 	H 	0.00593	0.26947	0.63657	0.363
Mof_H 	H 	0.00553	0.23687	0.62167	0.369
Mof_C 	C 	0.91613	0.32087	0.72837	-0.528
Mof_H 	H 	0.90023	0.30667	0.77277	0.187
Mof_C 	C 	0.94483	0.32937	0.58727	-0.475
Mof_H 	H 	0.94893	0.32127	0.53027	0.181
Mof_C 	C 	0.91774	0.11517	0.54727	0.186
Mof_C 	C 	0.92063	0.10317	0.46487	-0.226
Mof_H 	H 	0.91113	0.10687	0.41287	0.092
Mof_C 	C 	0.77013	0.19017	0.42617	0.766
Mof_C 	C 	0.96373	0.23057	0.67817	0.686
Mof_C 	C 	0.89859	0.13335	0.55667	-0.254
Mof_C 	C 	0.77114	0.09138	0.28637	-1.397
Mof_H 	H 	0.79283	0.09567	0.27897	0.406
Mof_H 	H 	0.76543	0.09997	0.23347	0.432
Mof_H 	H 	0.75683	0.06857	0.28987	0.421
Mof_C 	C 	0.8806	0.26546	0.31387	0.728
Mof_C 	C 	0.83628	0.18438	0.27347	0.146
Mof_H 	H 	0.81343	0.17107	0.28247	-0.047
Mof_H 	H 	0.84363	0.17427	0.22917	-0.066
Mof_H 	H 	0.84103	0.20507	0.24957	-0.057
Mof_C 	C 	0.91195	0.15977	0.48247	0.244
Mof_H 	H 	0.93463	0.17417	0.49557	-0.051
Mof_H 	H 	0.91043	0.14997	0.42137	-0.083
Mof_C 	C 	0.91363	0.26619	0.53787	0.23
Mof_H 	H 	0.91253	0.27977	0.48887	-0.051
Mof_H 	H 	0.93613	0.27277	0.54737	-0.051
Mof_C 	C 	0.92094	0.3083	0.65117	0.161
Mof_C 	C 	0.90489	0.14835	0.66097	0.248
Mof_H 	H 	0.89723	0.13117	0.70727	-0.057
Mof_H 	H 	0.92783	0.16257	0.67067	-0.056
Mof_C 	C 	0.76874	0.10645	0.37247	0.777
Mof_C 	C 	0.86383	0.10747	0.54557	0.237
Mof_H 	H 	0.86173	0.09577	0.48767	-0.066
Mof_H 	H 	0.85823	0.09237	0.59737	-0.04
Mof_C 	C 	0.86545	0.26411	0.62227	0.224
Mof_H 	H 	0.85963	0.26957	0.68217	-0.041
Mof_H 	H 	0.86413	0.27797	0.57467	-0.039
Mof_C 	C 	0.90511	0.25431	0.71337	0.243
Mof_H 	H 	0.92793	0.26227	0.72187	-0.058
Mof_H 	H 	0.89713	0.25937	0.76997	-0.061
Mof_C 	C 	0.90036	0.27174	0.62837	-0.241
Mof_O 	O 	0.79224	0.18711	0.45437	-0.613
Mof_O 	O 	0.7923	0.12451	0.42267	-0.587
Mof_Mn	Mn	0.76175	0.13813	0.52244	0.956
Mof_C 	C 	0.92333	0.36377	0.68287	-0.332
Mof_H 	H 	0.91533	0.37857	0.68557	0.108
Mof_C 	C 	0.96613	0.35877	0.68917	-0.36
Mof_H 	H 	0.98883	0.36827	0.70207	0.132
Mof_C 	C 	0.90193	0.32717	0.66027	0.195
Mof_H 	H 	0.87883	0.31667	0.65827	-0.044
Mof_C 	C 	0.94753	0.32427	0.66557	0.306
Mof_H 	H 	0.95983	0.31347	0.66147	-0.069
Mof_Mn	Mn	0.47055	0.97107	0.01512	1.072
Mof_Mn	Mn	0.53391	0.97154	0.07671	1.107
Mof_Mn	Mn	0.55136	0.97968	0.30257	0.759
Mof_Mn	Mn	0.54755	0.03763	0.20028	0.95
Mof_Mn	Mn	0.47898	0.96921	0.23803	0.8
Mof_N 	N 	0.70773	0.08528	0.9775	-0.164
Mof_N 	N 	0.4158	0.79745	0.1405	-0.152
Mof_O 	O 	0.5117	0.94869	0.1901	-0.518
Mof_O 	O 	0.50767	0.00024	0.0888	-0.66
Mof_O 	O 	0.4991	0.94401	0.9943	-0.534
Mof_O 	O 	0.5895	0.02253	0.3661	-0.517
Mof_O 	O 	0.58874	0.06334	0.2881	-0.506
Mof_O 	O 	0.55329	0.99789	0.9657	-0.529
Mof_O 	O 	0.56636	0.00304	0.1611	-0.509
Mof_O 	O 	0.56478	0.05599	0.0665	-0.481
Mof_O 	O 	0.55857	0.94483	0.063	-0.483
Mof_O 	O 	0.55498	0.93531	0.907	-0.477
Mof_O 	O 	0.43762	0.02848	0.2682	-0.47
Mof_O 	O 	0.45176	0.94395	0.1234	-0.489
Mof_O 	O 	0.52198	0.00253	0.3031	-0.508
Mof_O 	O 	0.50181	0.09373	0.216	-0.442
Mof_C 	C 	0.6863	0.0864	0.9198	0.48
Mof_H 	H 	0.6939	0.0983	0.8619	-0.118
Mof_C 	C 	0.6969	0.068	0.0554	0.392
Mof_H 	H 	0.7118	0.0666	0.0976	-0.123
Mof_C 	C 	0.5504	0.1085	0.3025	-1.341
Mof_H 	H 	0.5642	0.0996	0.3133	0.417
Mof_H 	H 	0.5625	0.1292	0.2729	0.416
Mof_H 	H 	0.542	0.1108	0.3616	0.409
Mof_C 	C 	0.4287	0.8108	0.0618	0.132
Mof_H 	H 	0.4275	0.7975	0.0122	-0.017
Mof_C 	C 	0.4198	0.8171	0.2178	0.112
Mof_H 	H 	0.4114	0.8086	0.2769	-0.014
Mof_C 	C 	0.6231	0.0757	0.4168	-1.282
Mof_H 	H 	0.6292	0.0651	0.4629	0.392
Mof_H 	H 	0.6417	0.0906	0.3812	0.41
Mof_H 	H 	0.6141	0.0872	0.4481	0.381
Mof_C 	C 	0.4441	0.8435	0.0459	-0.228
Mof_H 	H 	0.4516	0.8516	0.9858	0.103
Mof_C 	C 	0.5821	0.9158	0.0032	-1.163
Mof_H 	H 	0.5849	0.908	0.9436	0.349
Mof_H 	H 	0.6028	0.9302	0.0301	0.361
Mof_H 	H 	0.5702	0.898	0.045	0.367
Mof_C 	C 	0.6542	0.0714	0.9383	-0.536
Mof_H 	H 	0.64	0.0731	0.8939	0.189
Mof_C 	C 	0.6627	0.0512	0.0794	-0.489
Mof_H 	H 	0.6546	0.039	0.1364	0.186
Mof_C 	C 	0.4485	0.86409	0.1194	0.185
Mof_C 	C 	0.4365	0.8492	0.2018	-0.225
Mof_H 	H 	0.4402	0.8624	0.2538	0.092
Mof_C 	C 	0.5235	0.0867	0.2405	0.766
Mof_C 	C 	0.5639	0.9335	0.9885	0.683
Mof_C 	C 	0.46668	0.90142	0.11	-0.255
Mof_C 	C 	0.42471	0.9869	0.3803	-1.397
Mof_H 	H 	0.429	0.9695	0.3877	0.406
Mof_H 	H 	0.4333	0.0012	0.4332	0.432
Mof_H 	H 	0.4019	0.9784	0.3768	0.421
Mof_C 	C 	0.59879	0.05152	0.3528	0.728
Mof_C 	C 	0.51771	0.01476	0.3932	0.146
Mof_H 	H 	0.5044	0.0243	0.3842	-0.047
Mof_H 	H 	0.5076	0.9973	0.4375	-0.066
Mof_H 	H 	0.5384	0.0307	0.4171	-0.056
Mof_C 	C 	0.4931	0.91448	0.1842	0.244
Mof_H 	H 	0.5075	0.9062	0.1711	-0.051
Mof_H 	H 	0.4833	0.9062	0.2453	-0.083
Mof_C 	C 	0.59952	0.01922	0.1288	0.229
Mof_H 	H 	0.6131	0.0339	0.1778	-0.051
Mof_H 	H 	0.6061	0.0033	0.1193	-0.051
Mof_C 	C 	0.64163	0.05402	0.0155	0.157
Mof_C 	C 	0.48168	0.91012	0.0057	0.253
Mof_H 	H 	0.4645	0.9006	0.9594	-0.059
Mof_H 	H 	0.4959	0.9014	0.996	-0.059
Mof_C 	C 	0.43978	0.00437	0.2942	0.777
Mof_C 	C 	0.4408	0.9103	0.1211	0.237
Mof_H 	H 	0.4291	0.9007	0.179	-0.066
Mof_H 	H 	0.4257	0.9008	0.0693	-0.04
Mof_C 	C 	0.59744	0.06532	0.0444	0.221
Mof_H 	H 	0.6029	0.0766	0.9845	-0.039
Mof_H 	H 	0.6113	0.0805	0.092	-0.038
Mof_C 	C 	0.58764	0.01586	0.9533	0.242
Mof_H 	H 	0.5956	0.001	0.9448	-0.058
Mof_H 	H 	0.5927	0.0289	0.8967	-0.061
Mof_C 	C 	0.60507	0.03804	0.0383	-0.239
Mof_O 	O 	0.52044	0.06153	0.2123	-0.614
Mof_O 	O 	0.45784	0.99887	0.244	-0.587
Mof_Mn	Mn	0.47146	0.04304	0.14423	0.956
Mof_C 	C 	0.6971	0.1071	0.9838	-0.339
Mof_H 	H 	0.7119	0.1299	0.9811	0.111
Mof_C 	C 	0.6921	0.0593	0.9775	-0.378
Mof_H 	H 	0.7016	0.0461	0.9646	0.137
Mof_C 	C 	0.6605	0.0919	0.0064	0.2
Mof_H 	H 	0.65	0.1045	0.0084	-0.046
Mof_C 	C 	0.6576	0.0434	0.0011	0.324
Mof_H 	H 	0.6468	0.0203	0.0052	-0.075
Mof_Mn	Mn	0.13722	0.3044	0.34845	1.071
Mof_Mn	Mn	0.20058	0.30487	0.41004	1.107
Mof_Mn	Mn	0.21803	0.31301	0.6359	0.759
Mof_Mn	Mn	0.21422	0.37096	0.53361	0.95
Mof_Mn	Mn	0.14565	0.30254	0.57136	0.8
Mof_N 	N 	0.3744	0.41861	0.31083	-0.167
Mof_N 	N 	0.08247	0.13078	0.47383	-0.152
Mof_O 	O 	0.17837	0.28202	0.52343	-0.518
Mof_O 	O 	0.17434	0.33357	0.42213	-0.66
Mof_O 	O 	0.16577	0.27734	0.32763	-0.532
Mof_O 	O 	0.25617	0.35586	0.69943	-0.517
Mof_O 	O 	0.25541	0.39667	0.62143	-0.506
Mof_O 	O 	0.21996	0.33122	0.29903	-0.529
Mof_O 	O 	0.23303	0.33637	0.49443	-0.509
Mof_O 	O 	0.23145	0.38932	0.39983	-0.481
Mof_O 	O 	0.22524	0.27816	0.39633	-0.484
Mof_O 	O 	0.22165	0.26864	0.24033	-0.478
Mof_O 	O 	0.10429	0.36181	0.60153	-0.47
Mof_O 	O 	0.11843	0.27728	0.45673	-0.488
Mof_O 	O 	0.18865	0.33586	0.63643	-0.508
Mof_O 	O 	0.16848	0.42706	0.54933	-0.442
Mof_C 	C 	0.35297	0.41973	0.25313	0.47
Mof_H 	H 	0.36057	0.43163	0.19523	-0.115
Mof_C 	C 	0.36357	0.40133	0.38873	0.379
Mof_H 	H 	0.37847	0.39993	0.43093	-0.118
Mof_C 	C 	0.21707	0.44183	0.63583	-1.341
Mof_H 	H 	0.23087	0.43293	0.64663	0.417
Mof_H 	H 	0.22917	0.46253	0.60623	0.416
Mof_H 	H 	0.20867	0.44413	0.69493	0.408
Mof_C 	C 	0.09537	0.14413	0.39513	0.134
Mof_H 	H 	0.09417	0.13083	0.34553	-0.018
Mof_C 	C 	0.08647	0.15043	0.55113	0.112
Mof_H 	H 	0.07807	0.14193	0.61023	-0.014
Mof_C 	C 	0.28977	0.40903	0.75013	-1.282
Mof_H 	H 	0.29587	0.39843	0.79623	0.392
Mof_H 	H 	0.30837	0.42393	0.71453	0.41
Mof_H 	H 	0.28077	0.42053	0.78143	0.381
Mof_C 	C 	0.11077	0.17683	0.37923	-0.232
Mof_H 	H 	0.11827	0.18493	0.31913	0.105
Mof_C 	C 	0.24877	0.24913	0.33653	-1.17
Mof_H 	H 	0.25157	0.24133	0.27693	0.351
Mof_H 	H 	0.26947	0.26353	0.36343	0.363
Mof_H 	H 	0.23687	0.23133	0.37833	0.369
Mof_C 	C 	0.32087	0.40473	0.27163	-0.528
Mof_H 	H 	0.30667	0.40643	0.22723	0.187
Mof_C 	C 	0.32937	0.38453	0.41273	-0.475
Mof_H 	H 	0.32127	0.37233	0.46973	0.181
Mof_C 	C 	0.11517	0.19742	0.45273	0.186
Mof_C 	C 	0.10317	0.18253	0.53513	-0.226
Mof_H 	H 	0.10687	0.19573	0.58713	0.092
Mof_C 	C 	0.19017	0.42003	0.57383	0.766
Mof_C 	C 	0.23057	0.26683	0.32183	0.686
Mof_C 	C 	0.13335	0.23475	0.44333	-0.254
Mof_C 	C 	0.09138	0.32023	0.71363	-1.397
Mof_H 	H 	0.09567	0.30283	0.72103	0.406
Mof_H 	H 	0.09997	0.33453	0.76653	0.432
Mof_H 	H 	0.06857	0.31173	0.71013	0.421
Mof_C 	C 	0.26546	0.38485	0.68613	0.728
Mof_C 	C 	0.18438	0.34809	0.72653	0.146
Mof_H 	H 	0.17107	0.35763	0.71753	-0.047
Mof_H 	H 	0.17427	0.33063	0.77083	-0.066
Mof_H 	H 	0.20507	0.36403	0.75043	-0.057
Mof_C 	C 	0.15977	0.24781	0.51753	0.244
Mof_H 	H 	0.17417	0.23953	0.50443	-0.051
Mof_H 	H 	0.14997	0.23953	0.57863	-0.083
Mof_C 	C 	0.26619	0.35255	0.46213	0.23
Mof_H 	H 	0.27977	0.36723	0.51113	-0.051
Mof_H 	H 	0.27277	0.33663	0.45263	-0.051
Mof_C 	C 	0.3083	0.38735	0.34883	0.161
Mof_C 	C 	0.14835	0.24345	0.33903	0.248
Mof_H 	H 	0.13117	0.23393	0.29273	-0.057
Mof_H 	H 	0.16257	0.23473	0.32933	-0.056
Mof_C 	C 	0.10645	0.3377	0.62753	0.777
Mof_C 	C 	0.10747	0.24363	0.45443	0.237
Mof_H 	H 	0.09577	0.23403	0.51233	-0.066
Mof_H 	H 	0.09237	0.23413	0.40263	-0.04
Mof_C 	C 	0.26411	0.39865	0.37773	0.224
Mof_H 	H 	0.26957	0.40993	0.31783	-0.041
Mof_H 	H 	0.27797	0.41383	0.42533	-0.039
Mof_C 	C 	0.25431	0.34919	0.28663	0.243
Mof_H 	H 	0.26227	0.33433	0.27813	-0.058
Mof_H 	H 	0.25937	0.36223	0.23003	-0.061
Mof_C 	C 	0.27174	0.37137	0.37163	-0.241
Mof_O 	O 	0.18711	0.39486	0.54563	-0.613
Mof_O 	O 	0.12451	0.3322	0.57733	-0.587
Mof_Mn	Mn	0.13813	0.37637	0.47756	0.956
Mof_C 	C 	0.36377	0.44043	0.31713	-0.332
Mof_H 	H 	0.37857	0.46323	0.31443	0.108
Mof_C 	C 	0.35877	0.39263	0.31083	-0.36
Mof_H 	H 	0.36827	0.37943	0.29793	0.132
Mof_C 	C 	0.32717	0.42523	0.33973	0.195
Mof_H 	H 	0.31667	0.43783	0.34173	-0.044
Mof_C 	C 	0.32427	0.37673	0.33443	0.306
Mof_H 	H 	0.31347	0.35363	0.33853	-0.069
Mof_Mn	Mn	0.80388	0.63774	0.68179	1.071
Mof_Mn	Mn	0.86724	0.63821	0.74338	1.107
Mof_Mn	Mn	0.88469	0.64635	0.96924	0.759
Mof_Mn	Mn	0.88088	0.7043	0.86695	0.95
Mof_Mn	Mn	0.81231	0.63588	0.9047	0.8
Mof_N 	N 	0.04106	0.75195	0.64417	-0.167
Mof_N 	N 	0.74913	0.46412	0.80717	-0.152
Mof_O 	O 	0.84503	0.61536	0.85677	-0.518
Mof_O 	O 	0.841	0.66691	0.75547	-0.66
Mof_O 	O 	0.83243	0.61068	0.66097	-0.532
Mof_O 	O 	0.92283	0.6892	0.03277	-0.517
Mof_O 	O 	0.92207	0.73001	0.95477	-0.506
Mof_O 	O 	0.88662	0.66456	0.63237	-0.529
Mof_O 	O 	0.89969	0.66971	0.82777	-0.509
Mof_O 	O 	0.89811	0.72266	0.73317	-0.481
Mof_O 	O 	0.8919	0.6115	0.72967	-0.484
Mof_O 	O 	0.88831	0.60198	0.57367	-0.478
Mof_O 	O 	0.77095	0.69515	0.93487	-0.471
Mof_O 	O 	0.78509	0.61062	0.79007	-0.488
Mof_O 	O 	0.85531	0.6692	0.96977	-0.508
Mof_O 	O 	0.83514	0.7604	0.88267	-0.442
Mof_C 	C 	0.01963	0.75307	0.58647	0.47
Mof_H 	H 	0.02723	0.76497	0.52857	-0.115
Mof_C 	C 	0.03023	0.73467	0.72207	0.379
Mof_H 	H 	0.04513	0.73327	0.76427	-0.118
Mof_C 	C 	0.88373	0.77517	0.96917	-1.34
Mof_H 	H 	0.89753	0.76627	0.97997	0.417
Mof_H 	H 	0.89583	0.79587	0.93957	0.416
Mof_H 	H 	0.87533	0.77747	0.02827	0.408
Mof_C 	C 	0.76203	0.47747	0.72847	0.134
Mof_H 	H 	0.76083	0.46417	0.67887	-0.018
Mof_C 	C 	0.75313	0.48377	0.88447	0.112
Mof_H 	H 	0.74473	0.47527	0.94357	-0.014
Mof_C 	C 	0.95643	0.74237	0.08347	-1.282
Mof_H 	H 	0.96253	0.73177	0.12957	0.392
Mof_H 	H 	0.97503	0.75727	0.04787	0.41
Mof_H 	H 	0.94743	0.75387	0.11477	0.381
Mof_C 	C 	0.77743	0.51017	0.71257	-0.232
Mof_H 	H 	0.78493	0.51827	0.65247	0.105
Mof_C 	C 	0.91543	0.58247	0.66987	-1.17
Mof_H 	H 	0.91823	0.57467	0.61027	0.351
Mof_H 	H 	0.93613	0.59687	0.69677	0.363
Mof_H 	H 	0.90353	0.56467	0.71167	0.369
Mof_C 	C 	0.98753	0.73807	0.60497	-0.528
Mof_H 	H 	0.97333	0.73977	0.56057	0.186
Mof_C 	C 	0.99603	0.71787	0.74607	-0.475
Mof_H 	H 	0.98793	0.70567	0.80307	0.181
Mof_C 	C 	0.78183	0.53076	0.78607	0.186
Mof_C 	C 	0.76983	0.51587	0.86847	-0.226
Mof_H 	H 	0.77353	0.52907	0.92047	0.092
Mof_C 	C 	0.85683	0.75337	0.90717	0.765
Mof_C 	C 	0.89723	0.60017	0.65517	0.686
Mof_C 	C 	0.80001	0.56809	0.77667	-0.254
Mof_C 	C 	0.75804	0.65357	0.04697	-1.399
Mof_H 	H 	0.76233	0.63617	0.05437	0.406
Mof_H 	H 	0.76663	0.66787	0.09987	0.433
Mof_H 	H 	0.73523	0.64507	0.04347	0.422
Mof_C 	C 	0.93212	0.71819	0.01947	0.728
Mof_C 	C 	0.85104	0.68143	0.05987	0.145
Mof_H 	H 	0.83773	0.69097	0.05087	-0.047
Mof_H 	H 	0.84093	0.66397	0.10417	-0.066
Mof_H 	H 	0.87173	0.69737	0.08377	-0.056
Mof_C 	C 	0.82643	0.58115	0.85087	0.244
Mof_H 	H 	0.84083	0.57287	0.83777	-0.051
Mof_H 	H 	0.81663	0.57287	0.91197	-0.083
Mof_C 	C 	0.93285	0.68589	0.79547	0.23
Mof_H 	H 	0.94643	0.70057	0.84447	-0.051
Mof_H 	H 	0.93943	0.66997	0.78597	-0.051
Mof_C 	C 	0.97496	0.72069	0.68217	0.161
Mof_C 	C 	0.81501	0.57679	0.67237	0.248
Mof_H 	H 	0.79783	0.56727	0.62607	-0.057
Mof_H 	H 	0.82923	0.56807	0.66267	-0.056
Mof_C 	C 	0.77311	0.67104	0.96087	0.778
Mof_C 	C 	0.77413	0.57697	0.78777	0.237
Mof_H 	H 	0.76243	0.56737	0.84567	-0.066
Mof_H 	H 	0.75903	0.56747	0.73597	-0.04
Mof_C 	C 	0.93077	0.73199	0.71107	0.224
Mof_H 	H 	0.93623	0.74327	0.65117	-0.041
Mof_H 	H 	0.94463	0.74717	0.75867	-0.039
Mof_C 	C 	0.92097	0.68253	0.61997	0.243
Mof_H 	H 	0.92893	0.66767	0.61147	-0.058
Mof_H 	H 	0.92603	0.69557	0.56337	-0.061
Mof_C 	C 	0.9384	0.70471	0.70497	-0.241
Mof_O 	O 	0.85377	0.7282	0.87897	-0.613
Mof_O 	O 	0.79117	0.66554	0.91067	-0.588
Mof_Mn	Mn	0.80479	0.70971	0.8109	0.956
Mof_C 	C 	0.03043	0.77377	0.65047	-0.332
Mof_H 	H 	0.04523	0.79657	0.64777	0.108
Mof_C 	C 	0.02543	0.72597	0.64417	-0.361
Mof_H 	H 	0.03493	0.71277	0.63127	0.132
Mof_C 	C 	0.99383	0.75857	0.67307	0.195
Mof_H 	H 	0.98333	0.77117	0.67507	-0.044
Mof_C 	C 	0.99093	0.71007	0.66777	0.306
Mof_H 	H 	0.98013	0.68697	0.67187	-0.069
Mof_Mn	Mn	0.02893	0.49948	0.01512	1.072
Mof_Mn	Mn	0.02846	0.56237	0.07671	1.107
Mof_Mn	Mn	0.02032	0.57168	0.30257	0.759
Mof_Mn	Mn	0.96237	0.50992	0.20028	0.95
Mof_Mn	Mn	0.03079	0.50977	0.23803	0.8
Mof_N 	N 	0.91472	0.62245	0.9775	-0.164
Mof_N 	N 	0.20255	0.61835	0.1405	-0.152
Mof_O 	O 	0.05131	0.56301	0.1901	-0.518
Mof_O 	O 	0.99976	0.50743	0.0888	-0.66
Mof_O 	O 	0.05599	0.55509	0.9943	-0.534
Mof_O 	O 	0.97747	0.56697	0.3661	-0.517
Mof_O 	O 	0.93666	0.5254	0.2881	-0.506
Mof_O 	O 	0.00211	0.5554	0.9657	-0.529
Mof_O 	O 	0.99696	0.56332	0.1611	-0.509
Mof_O 	O 	0.94401	0.50879	0.0665	-0.481
Mof_O 	O 	0.05517	0.61374	0.063	-0.483
Mof_O 	O 	0.06469	0.61967	0.907	-0.477
Mof_O 	O 	0.97152	0.40914	0.2682	-0.47
Mof_O 	O 	0.05605	0.50781	0.1234	-0.489
Mof_O 	O 	0.99747	0.51945	0.3031	-0.508
Mof_O 	O 	0.90627	0.40808	0.216	-0.442
Mof_C 	C 	0.9136	0.5999	0.9198	0.479
Mof_H 	H 	0.9017	0.5956	0.8619	-0.118
Mof_C 	C 	0.932	0.6289	0.0554	0.391
Mof_H 	H 	0.9334	0.6452	0.0976	-0.123
Mof_C 	C 	0.8915	0.4419	0.3025	-1.341
Mof_H 	H 	0.9004	0.4646	0.3133	0.417
Mof_H 	H 	0.8708	0.4333	0.2729	0.416
Mof_H 	H 	0.8892	0.4312	0.3616	0.409
Mof_C 	C 	0.1892	0.6179	0.0618	0.132
Mof_H 	H 	0.2025	0.63	0.0122	-0.017
Mof_C 	C 	0.1829	0.6027	0.2178	0.112
Mof_H 	H 	0.1914	0.6028	0.2769	-0.014
Mof_C 	C 	0.9243	0.5474	0.4168	-1.282
Mof_H 	H 	0.9349	0.5641	0.4629	0.392
Mof_H 	H 	0.9094	0.5511	0.3812	0.41
Mof_H 	H 	0.9128	0.5269	0.4481	0.381
Mof_C 	C 	0.1565	0.6006	0.0459	-0.228
Mof_H 	H 	0.1484	0.6	0.9858	0.103
Mof_C 	C 	0.0842	0.6663	0.0032	-1.162
Mof_H 	H 	0.092	0.6769	0.9436	0.349
Mof_H 	H 	0.0698	0.6726	0.0301	0.361
Mof_H 	H 	0.102	0.6722	0.045	0.367
Mof_C 	C 	0.9286	0.5828	0.9383	-0.536
Mof_H 	H 	0.9269	0.5669	0.8939	0.189
Mof_C 	C 	0.9488	0.6115	0.0794	-0.488
Mof_H 	H 	0.961	0.6156	0.1364	0.185
Mof_C 	C 	0.13591	0.58441	0.1194	0.185
Mof_C 	C 	0.1508	0.5873	0.2018	-0.225
Mof_H 	H 	0.1376	0.5778	0.2538	0.092
Mof_C 	C 	0.9133	0.4368	0.2405	0.766
Mof_C 	C 	0.0665	0.6304	0.9885	0.682
Mof_C 	C 	0.09858	0.56526	0.11	-0.255
Mof_C 	C 	0.0131	0.43781	0.3803	-1.397
Mof_H 	H 	0.0305	0.4595	0.3877	0.406
Mof_H 	H 	0.9988	0.4321	0.4332	0.432
Mof_H 	H 	0.0216	0.4235	0.3768	0.421
Mof_C 	C 	0.94848	0.54727	0.3528	0.728
Mof_C 	C 	0.98524	0.50295	0.3932	0.146
Mof_H 	H 	0.9757	0.4801	0.3842	-0.047
Mof_H 	H 	0.0027	0.5103	0.4375	-0.066
Mof_H 	H 	0.9693	0.5077	0.4171	-0.056
Mof_C 	C 	0.08552	0.57862	0.1842	0.244
Mof_H 	H 	0.0938	0.6013	0.1711	-0.051
Mof_H 	H 	0.0938	0.5771	0.2453	-0.083
Mof_C 	C 	0.98078	0.5803	0.1288	0.229
Mof_H 	H 	0.9661	0.5792	0.1778	-0.051
Mof_H 	H 	0.9967	0.6028	0.1193	-0.051
Mof_C 	C 	0.94598	0.58761	0.0155	0.158
Mof_C 	C 	0.08988	0.57156	0.0057	0.253
Mof_H 	H 	0.0994	0.5639	0.9594	-0.059
Mof_H 	H 	0.0986	0.5945	0.996	-0.059
Mof_C 	C 	0.99563	0.43541	0.2942	0.776
Mof_C 	C 	0.0897	0.5305	0.1211	0.237
Mof_H 	H 	0.0993	0.5284	0.179	-0.066
Mof_H 	H 	0.0992	0.5249	0.0693	-0.04
Mof_C 	C 	0.93468	0.53212	0.0444	0.221
Mof_H 	H 	0.9234	0.5263	0.9845	-0.039
Mof_H 	H 	0.9195	0.5308	0.092	-0.038
Mof_C 	C 	0.98414	0.57178	0.9533	0.242
Mof_H 	H 	0.999	0.5946	0.9448	-0.058
Mof_H 	H 	0.9711	0.5638	0.8967	-0.061
Mof_C 	C 	0.96196	0.56703	0.0383	-0.239
Mof_O 	O 	0.93847	0.45891	0.2123	-0.614
Mof_O 	O 	0.00113	0.45897	0.244	-0.587
Mof_Mn	Mn	0.95696	0.42842	0.14423	0.956
Mof_C 	C 	0.8929	0.59	0.9838	-0.339
Mof_H 	H 	0.8701	0.582	0.9811	0.111
Mof_C 	C 	0.9407	0.6328	0.9775	-0.378
Mof_H 	H 	0.9539	0.6555	0.9646	0.137
Mof_C 	C 	0.9081	0.5686	0.0064	0.2
Mof_H 	H 	0.8955	0.5455	0.0084	-0.046
Mof_C 	C 	0.9566	0.6142	0.0011	0.324
Mof_H 	H 	0.9797	0.6265	0.0052	-0.075
Mof_Mn	Mn	0.6956	0.83281	0.34845	1.071
Mof_Mn	Mn	0.69513	0.8957	0.41004	1.107
Mof_Mn	Mn	0.68699	0.90501	0.6359	0.759
Mof_Mn	Mn	0.62904	0.84325	0.53361	0.95
Mof_Mn	Mn	0.69746	0.8431	0.57136	0.8
Mof_N 	N 	0.58139	0.95578	0.31083	-0.167
Mof_N 	N 	0.86922	0.95168	0.47383	-0.152
Mof_O 	O 	0.71798	0.89634	0.52343	-0.518
Mof_O 	O 	0.66643	0.84076	0.42213	-0.66
Mof_O 	O 	0.72266	0.88842	0.32763	-0.532
Mof_O 	O 	0.64414	0.9003	0.69943	-0.517
Mof_O 	O 	0.60333	0.85873	0.62143	-0.506
Mof_O 	O 	0.66878	0.88873	0.29903	-0.529
Mof_O 	O 	0.66363	0.89665	0.49443	-0.509
Mof_O 	O 	0.61068	0.84212	0.39983	-0.481
Mof_O 	O 	0.72184	0.94707	0.39633	-0.484
Mof_O 	O 	0.73136	0.953	0.24033	-0.478
Mof_O 	O 	0.63819	0.74247	0.60153	-0.47
Mof_O 	O 	0.72272	0.84114	0.45673	-0.488
Mof_O 	O 	0.66414	0.85278	0.63643	-0.508
Mof_O 	O 	0.57294	0.74141	0.54933	-0.442
Mof_C 	C 	0.58027	0.93323	0.25313	0.47
Mof_H 	H 	0.56837	0.92893	0.19523	-0.115
Mof_C 	C 	0.59867	0.96223	0.38873	0.379
Mof_H 	H 	0.60007	0.97853	0.43093	-0.118
Mof_C 	C 	0.55817	0.77523	0.63583	-1.341
Mof_H 	H 	0.56707	0.79793	0.64663	0.417
Mof_H 	H 	0.53747	0.76663	0.60623	0.416
Mof_H 	H 	0.55587	0.76453	0.69493	0.408
Mof_C 	C 	0.85587	0.95123	0.39513	0.134
Mof_H 	H 	0.86917	0.96333	0.34553	-0.018
Mof_C 	C 	0.84957	0.93603	0.55113	0.112
Mof_H 	H 	0.85807	0.93613	0.61023	-0.014
Mof_C 	C 	0.59097	0.88073	0.75013	-1.282
Mof_H 	H 	0.60157	0.89743	0.79623	0.392
Mof_H 	H 	0.57607	0.88443	0.71453	0.41
Mof_H 	H 	0.57947	0.86023	0.78143	0.381
Mof_C 	C 	0.82317	0.93393	0.37923	-0.232
Mof_H 	H 	0.81507	0.93333	0.31913	0.105
Mof_C 	C 	0.75087	0.99963	0.33653	-1.17
Mof_H 	H 	0.75867	0.01023	0.27693	0.351
Mof_H 	H 	0.73647	0.00593	0.36343	0.363
Mof_H 	H 	0.76867	0.00553	0.37833	0.369
Mof_C 	C 	0.59527	0.91613	0.27163	-0.528
Mof_H 	H 	0.59357	0.90023	0.22723	0.187
Mof_C 	C 	0.61547	0.94483	0.41273	-0.475
Mof_H 	H 	0.62767	0.94893	0.46973	0.181
Mof_C 	C 	0.80258	0.91774	0.45273	0.186
Mof_C 	C 	0.81747	0.92063	0.53513	-0.226
Mof_H 	H 	0.80427	0.91113	0.58713	0.092
Mof_C 	C 	0.57997	0.77013	0.57383	0.766
Mof_C 	C 	0.73317	0.96373	0.32183	0.686
Mof_C 	C 	0.76525	0.89859	0.44333	-0.254
Mof_C 	C 	0.67977	0.77114	0.71363	-1.397
Mof_H 	H 	0.69717	0.79283	0.72103	0.406
Mof_H 	H 	0.66547	0.76543	0.76653	0.432
Mof_H 	H 	0.68827	0.75683	0.71013	0.421
Mof_C 	C 	0.61515	0.8806	0.68613	0.728
Mof_C 	C 	0.65191	0.83628	0.72653	0.146
Mof_H 	H 	0.64237	0.81343	0.71753	-0.047
Mof_H 	H 	0.66937	0.84363	0.77083	-0.066
Mof_H 	H 	0.63597	0.84103	0.75043	-0.057
Mof_C 	C 	0.75219	0.91195	0.51753	0.244
Mof_H 	H 	0.76047	0.93463	0.50443	-0.051
Mof_H 	H 	0.76047	0.91043	0.57863	-0.083
Mof_C 	C 	0.64745	0.91363	0.46213	0.23
Mof_H 	H 	0.63277	0.91253	0.51113	-0.051
Mof_H 	H 	0.66337	0.93613	0.45263	-0.051
Mof_C 	C 	0.61265	0.92094	0.34883	0.161
Mof_C 	C 	0.75655	0.90489	0.33903	0.248
Mof_H 	H 	0.76607	0.89723	0.29273	-0.057
Mof_H 	H 	0.76527	0.92783	0.32933	-0.056
Mof_C 	C 	0.6623	0.76874	0.62753	0.777
Mof_C 	C 	0.75637	0.86383	0.45443	0.237
Mof_H 	H 	0.76597	0.86173	0.51233	-0.066
Mof_H 	H 	0.76587	0.85823	0.40263	-0.04
Mof_C 	C 	0.60135	0.86545	0.37773	0.224
Mof_H 	H 	0.59007	0.85963	0.31783	-0.041
Mof_H 	H 	0.58617	0.86413	0.42533	-0.039
Mof_C 	C 	0.65081	0.90511	0.28663	0.243
Mof_H 	H 	0.66567	0.92793	0.27813	-0.058
Mof_H 	H 	0.63777	0.89713	0.23003	-0.061
Mof_C 	C 	0.62863	0.90036	0.37163	-0.241
Mof_O 	O 	0.60514	0.79224	0.54563	-0.613
Mof_O 	O 	0.6678	0.7923	0.57733	-0.587
Mof_Mn	Mn	0.62363	0.76175	0.47756	0.956
Mof_C 	C 	0.55957	0.92333	0.31713	-0.332
Mof_H 	H 	0.53677	0.91533	0.31443	0.108
Mof_C 	C 	0.60737	0.96613	0.31083	-0.36
Mof_H 	H 	0.62057	0.98883	0.29793	0.131
Mof_C 	C 	0.57477	0.90193	0.33973	0.195
Mof_H 	H 	0.56217	0.87883	0.34173	-0.044
Mof_C 	C 	0.62327	0.94753	0.33443	0.306
Mof_H 	H 	0.64637	0.95983	0.33853	-0.069
Mof_Mn	Mn	0.36226	0.16615	0.68179	1.071
Mof_Mn	Mn	0.36179	0.22904	0.74338	1.107
Mof_Mn	Mn	0.35365	0.23835	0.96924	0.759
Mof_Mn	Mn	0.2957	0.17659	0.86695	0.95
Mof_Mn	Mn	0.36412	0.17644	0.9047	0.8
Mof_N 	N 	0.24805	0.28912	0.64417	-0.167
Mof_N 	N 	0.53588	0.28502	0.80717	-0.152
Mof_O 	O 	0.38464	0.22968	0.85677	-0.518
Mof_O 	O 	0.33309	0.1741	0.75547	-0.66
Mof_O 	O 	0.38932	0.22176	0.66097	-0.532
Mof_O 	O 	0.3108	0.23364	0.03277	-0.517
Mof_O 	O 	0.26999	0.19207	0.95477	-0.506
Mof_O 	O 	0.33544	0.22207	0.63237	-0.529
Mof_O 	O 	0.33029	0.22999	0.82777	-0.509
Mof_O 	O 	0.27734	0.17546	0.73317	-0.481
Mof_O 	O 	0.3885	0.28041	0.72967	-0.484
Mof_O 	O 	0.39802	0.28634	0.57367	-0.478
Mof_O 	O 	0.30485	0.07581	0.93487	-0.471
Mof_O 	O 	0.38938	0.17448	0.79007	-0.488
Mof_O 	O 	0.3308	0.18612	0.96977	-0.508
Mof_O 	O 	0.2396	0.07475	0.88267	-0.442
Mof_C 	C 	0.24693	0.26657	0.58647	0.47
Mof_H 	H 	0.23503	0.26227	0.52857	-0.115
Mof_C 	C 	0.26533	0.29557	0.72207	0.379
Mof_H 	H 	0.26673	0.31187	0.76427	-0.118
Mof_C 	C 	0.22483	0.10857	0.96917	-1.34
Mof_H 	H 	0.23373	0.13127	0.97997	0.417
Mof_H 	H 	0.20413	0.09997	0.93957	0.416
Mof_H 	H 	0.22253	0.09787	0.02827	0.408
Mof_C 	C 	0.52253	0.28457	0.72847	0.134
Mof_H 	H 	0.53583	0.29667	0.67887	-0.018
Mof_C 	C 	0.51623	0.26937	0.88447	0.112
Mof_H 	H 	0.52473	0.26947	0.94357	-0.014
Mof_C 	C 	0.25763	0.21407	0.08347	-1.282
Mof_H 	H 	0.26823	0.23077	0.12957	0.392
Mof_H 	H 	0.24273	0.21777	0.04787	0.41
Mof_H 	H 	0.24613	0.19357	0.11477	0.381
Mof_C 	C 	0.48983	0.26727	0.71257	-0.232
Mof_H 	H 	0.48173	0.26667	0.65247	0.105
Mof_C 	C 	0.41753	0.33297	0.66987	-1.17
Mof_H 	H 	0.42533	0.34357	0.61027	0.351
Mof_H 	H 	0.40313	0.33927	0.69677	0.363
Mof_H 	H 	0.43533	0.33887	0.71167	0.369
Mof_C 	C 	0.26193	0.24947	0.60497	-0.528
Mof_H 	H 	0.26023	0.23357	0.56057	0.187
Mof_C 	C 	0.28213	0.27817	0.74607	-0.475
Mof_H 	H 	0.29433	0.28227	0.80307	0.181
Mof_C 	C 	0.46924	0.25108	0.78607	0.186
Mof_C 	C 	0.48413	0.25397	0.86847	-0.226
Mof_H 	H 	0.47093	0.24447	0.92047	0.092
Mof_C 	C 	0.24663	0.10347	0.90717	0.765
Mof_C 	C 	0.39983	0.29707	0.65517	0.686
Mof_C 	C 	0.43191	0.23193	0.77667	-0.254
Mof_C 	C 	0.34643	0.10448	0.04697	-1.399
Mof_H 	H 	0.36383	0.12617	0.05437	0.406
Mof_H 	H 	0.33213	0.09877	0.09987	0.433
Mof_H 	H 	0.35493	0.09017	0.04347	0.422
Mof_C 	C 	0.28181	0.21394	0.01947	0.728
Mof_C 	C 	0.31857	0.16962	0.05987	0.145
Mof_H 	H 	0.30903	0.14677	0.05087	-0.047
Mof_H 	H 	0.33603	0.17697	0.10417	-0.066
Mof_H 	H 	0.30263	0.17437	0.08377	-0.056
Mof_C 	C 	0.41885	0.24529	0.85087	0.244
Mof_H 	H 	0.42713	0.26797	0.83777	-0.051
Mof_H 	H 	0.42713	0.24377	0.91197	-0.083
Mof_C 	C 	0.31411	0.24697	0.79547	0.23
Mof_H 	H 	0.29943	0.24587	0.84447	-0.051
Mof_H 	H 	0.33003	0.26947	0.78597	-0.051
Mof_C 	C 	0.27931	0.25428	0.68217	0.161
Mof_C 	C 	0.42321	0.23823	0.67237	0.248
Mof_H 	H 	0.43273	0.23057	0.62607	-0.057
Mof_H 	H 	0.43193	0.26117	0.66267	-0.056
Mof_C 	C 	0.32896	0.10208	0.96087	0.778
Mof_C 	C 	0.42303	0.19717	0.78777	0.237
Mof_H 	H 	0.43263	0.19507	0.84567	-0.066
Mof_H 	H 	0.43253	0.19157	0.73597	-0.04
Mof_C 	C 	0.26801	0.19879	0.71107	0.224
Mof_H 	H 	0.25673	0.19297	0.65117	-0.041
Mof_H 	H 	0.25283	0.19747	0.75867	-0.039
Mof_C 	C 	0.31747	0.23845	0.61997	0.243
Mof_H 	H 	0.33233	0.26127	0.61147	-0.058
Mof_H 	H 	0.30443	0.23047	0.56337	-0.061
Mof_C 	C 	0.29529	0.2337	0.70497	-0.241
Mof_O 	O 	0.2718	0.12558	0.87897	-0.613
Mof_O 	O 	0.33446	0.12564	0.91067	-0.588
Mof_Mn	Mn	0.29029	0.09509	0.8109	0.956
Mof_C 	C 	0.22623	0.25667	0.65047	-0.332
Mof_H 	H 	0.20343	0.24867	0.64777	0.108
Mof_C 	C 	0.27403	0.29947	0.64417	-0.361
Mof_H 	H 	0.28723	0.32217	0.63127	0.132
Mof_C 	C 	0.24143	0.23527	0.67307	0.195
Mof_H 	H 	0.22883	0.21217	0.67507	-0.044
Mof_C 	C 	0.28993	0.28087	0.66777	0.307
Mof_H 	H 	0.31303	0.29317	0.67187	-0.069
Mof_Mn	Mn	0.50052	0.52945	0.01512	1.072
Mof_Mn	Mn	0.43763	0.46609	0.07671	1.107
Mof_Mn	Mn	0.42832	0.44864	0.30257	0.759
Mof_Mn	Mn	0.49008	0.45245	0.20028	0.95
Mof_Mn	Mn	0.49023	0.52102	0.23803	0.8
Mof_N 	N 	0.37755	0.29227	0.9775	-0.164
Mof_N 	N 	0.38165	0.5842	0.1405	-0.152
Mof_O 	O 	0.43699	0.4883	0.1901	-0.518
Mof_O 	O 	0.49257	0.49233	0.0888	-0.66
Mof_O 	O 	0.44491	0.5009	0.9943	-0.534
Mof_O 	O 	0.43303	0.4105	0.3661	-0.517
Mof_O 	O 	0.4746	0.41126	0.2881	-0.506
Mof_O 	O 	0.4446	0.44671	0.9657	-0.528
Mof_O 	O 	0.43668	0.43364	0.1611	-0.509
Mof_O 	O 	0.49121	0.43522	0.0665	-0.481
Mof_O 	O 	0.38626	0.44143	0.063	-0.483
Mof_O 	O 	0.38033	0.44502	0.907	-0.478
Mof_O 	O 	0.59086	0.56238	0.2682	-0.47
Mof_O 	O 	0.49219	0.54824	0.1234	-0.489
Mof_O 	O 	0.48055	0.47802	0.3031	-0.508
Mof_O 	O 	0.59192	0.49819	0.216	-0.442
Mof_C 	C 	0.4001	0.3137	0.9198	0.479
Mof_H 	H 	0.4044	0.3061	0.8619	-0.118
Mof_C 	C 	0.3711	0.3031	0.0554	0.391
Mof_H 	H 	0.3548	0.2882	0.0976	-0.123
Mof_C 	C 	0.5581	0.4496	0.3025	-1.341
Mof_H 	H 	0.5354	0.4358	0.3133	0.417
Mof_H 	H 	0.5667	0.4375	0.2729	0.416
Mof_H 	H 	0.5688	0.458	0.3616	0.409
Mof_C 	C 	0.3821	0.5713	0.0618	0.132
Mof_H 	H 	0.37	0.5725	0.0122	-0.017
Mof_C 	C 	0.3973	0.5802	0.2178	0.112
Mof_H 	H 	0.3972	0.5886	0.2769	-0.014
Mof_C 	C 	0.4526	0.3769	0.4168	-1.282
Mof_H 	H 	0.4359	0.3708	0.4629	0.392
Mof_H 	H 	0.4489	0.3583	0.3812	0.41
Mof_H 	H 	0.4731	0.3859	0.4481	0.381
Mof_C 	C 	0.3994	0.5559	0.0459	-0.228
Mof_H 	H 	0.4	0.5484	0.9858	0.103
Mof_C 	C 	0.3337	0.4179	0.0032	-1.163
Mof_H 	H 	0.3231	0.4151	0.9436	0.349
Mof_H 	H 	0.3274	0.3972	0.0301	0.361
Mof_H 	H 	0.3278	0.4298	0.045	0.367
Mof_C 	C 	0.4172	0.3458	0.9383	-0.536
Mof_H 	H 	0.4331	0.36	0.8939	0.189
Mof_C 	C 	0.3885	0.3373	0.0794	-0.488
Mof_H 	H 	0.3844	0.3454	0.1364	0.185
Mof_C 	C 	0.41559	0.5515	0.1194	0.185
Mof_C 	C 	0.4127	0.5635	0.2018	-0.225
Mof_H 	H 	0.4222	0.5598	0.2538	0.092
Mof_C 	C 	0.5632	0.4765	0.2405	0.766
Mof_C 	C 	0.3696	0.4361	0.9885	0.683
Mof_C 	C 	0.43474	0.53332	0.11	-0.255
Mof_C 	C 	0.56219	0.57529	0.3803	-1.397
Mof_H 	H 	0.5405	0.571	0.3877	0.406
Mof_H 	H 	0.5679	0.5667	0.4332	0.432
Mof_H 	H 	0.5765	0.5981	0.3768	0.421
Mof_C 	C 	0.45273	0.40121	0.3528	0.728
Mof_C 	C 	0.49705	0.48229	0.3932	0.146
Mof_H 	H 	0.5199	0.4956	0.3842	-0.047
Mof_H 	H 	0.4897	0.4924	0.4375	-0.066
Mof_H 	H 	0.4923	0.4616	0.4171	-0.056
Mof_C 	C 	0.42138	0.5069	0.1842	0.244
Mof_H 	H 	0.3987	0.4925	0.1711	-0.051
Mof_H 	H 	0.4229	0.5167	0.2453	-0.083
Mof_C 	C 	0.4197	0.40048	0.1288	0.229
Mof_H 	H 	0.4208	0.3869	0.1778	-0.051
Mof_H 	H 	0.3972	0.3939	0.1193	-0.051
Mof_C 	C 	0.41239	0.35837	0.0155	0.158
Mof_C 	C 	0.42844	0.51832	0.0057	0.253
Mof_H 	H 	0.4361	0.5355	0.9594	-0.059
Mof_H 	H 	0.4055	0.5041	0.996	-0.059
Mof_C 	C 	0.56459	0.56022	0.2942	0.777
Mof_C 	C 	0.4695	0.5592	0.1211	0.237
Mof_H 	H 	0.4716	0.5709	0.179	-0.066
Mof_H 	H 	0.4751	0.5743	0.0693	-0.04
Mof_C 	C 	0.46788	0.40256	0.0444	0.221
Mof_H 	H 	0.4737	0.3971	0.9845	-0.039
Mof_H 	H 	0.4692	0.3887	0.092	-0.038
Mof_C 	C 	0.42822	0.41236	0.9533	0.242
Mof_H 	H 	0.4054	0.4044	0.9448	-0.058
Mof_H 	H 	0.4362	0.4073	0.8967	-0.061
Mof_C 	C 	0.43297	0.39493	0.0383	-0.239
Mof_O 	O 	0.54109	0.47956	0.2123	-0.614
Mof_O 	O 	0.54103	0.54216	0.244	-0.588
Mof_Mn	Mn	0.57158	0.52854	0.14423	0.956
Mof_C 	C 	0.41	0.3029	0.9838	-0.339
Mof_H 	H 	0.418	0.2881	0.9811	0.111
Mof_C 	C 	0.3672	0.3079	0.9775	-0.377
Mof_H 	H 	0.3445	0.2984	0.9646	0.137
Mof_C 	C 	0.4314	0.3395	0.0064	0.2
Mof_H 	H 	0.4545	0.35	0.0084	-0.046
Mof_C 	C 	0.3858	0.3424	0.0011	0.323
Mof_H 	H 	0.3735	0.3532	0.0052	-0.074
Mof_Mn	Mn	0.16719	0.86278	0.34845	1.071
Mof_Mn	Mn	0.1043	0.79942	0.41004	1.107
Mof_Mn	Mn	0.09499	0.78197	0.6359	0.759
Mof_Mn	Mn	0.15675	0.78578	0.53361	0.95
Mof_Mn	Mn	0.1569	0.85435	0.57136	0.8
Mof_N 	N 	0.04422	0.6256	0.31083	-0.167
Mof_N 	N 	0.04832	0.91753	0.47383	-0.152
Mof_O 	O 	0.10366	0.82163	0.52343	-0.518
Mof_O 	O 	0.15924	0.82566	0.42213	-0.66
Mof_O 	O 	0.11158	0.83423	0.32763	-0.532
Mof_O 	O 	0.0997	0.74383	0.69943	-0.517
Mof_O 	O 	0.14127	0.74459	0.62143	-0.506
Mof_O 	O 	0.11127	0.78004	0.29903	-0.529
Mof_O 	O 	0.10335	0.76697	0.49443	-0.509
Mof_O 	O 	0.15788	0.76855	0.39983	-0.481
Mof_O 	O 	0.05293	0.77476	0.39633	-0.484
Mof_O 	O 	0.047	0.77835	0.24033	-0.478
Mof_O 	O 	0.25753	0.89571	0.60153	-0.47
Mof_O 	O 	0.15886	0.88157	0.45673	-0.488
Mof_O 	O 	0.14722	0.81135	0.63643	-0.508
Mof_O 	O 	0.25859	0.83152	0.54933	-0.442
Mof_C 	C 	0.06677	0.64703	0.25313	0.47
Mof_H 	H 	0.07107	0.63943	0.19523	-0.115
Mof_C 	C 	0.03777	0.63643	0.38873	0.379
Mof_H 	H 	0.02147	0.62153	0.43093	-0.118
Mof_C 	C 	0.22477	0.78293	0.63583	-1.341
Mof_H 	H 	0.20207	0.76913	0.64663	0.417
Mof_H 	H 	0.23337	0.77083	0.60623	0.416
Mof_H 	H 	0.23547	0.79133	0.69493	0.408
Mof_C 	C 	0.04877	0.90463	0.39513	0.134
Mof_H 	H 	0.03667	0.90583	0.34553	-0.018
Mof_C 	C 	0.06397	0.91353	0.55113	0.112
Mof_H 	H 	0.06387	0.92193	0.61023	-0.014
Mof_C 	C 	0.11927	0.71023	0.75013	-1.282
Mof_H 	H 	0.10257	0.70413	0.79623	0.392
Mof_H 	H 	0.11557	0.69163	0.71453	0.41
Mof_H 	H 	0.13977	0.71923	0.78143	0.381
Mof_C 	C 	0.06607	0.88923	0.37923	-0.232
Mof_H 	H 	0.06667	0.88173	0.31913	0.105
Mof_C 	C 	0.00037	0.75123	0.33653	-1.17
Mof_H 	H 	0.98977	0.74843	0.27693	0.351
Mof_H 	H 	0.99407	0.73053	0.36343	0.363
Mof_H 	H 	0.99447	0.76313	0.37833	0.369
Mof_C 	C 	0.08387	0.67913	0.27163	-0.528
Mof_H 	H 	0.09977	0.69333	0.22723	0.187
Mof_C 	C 	0.05517	0.67063	0.41273	-0.475
Mof_H 	H 	0.05107	0.67873	0.46973	0.181
Mof_C 	C 	0.08226	0.88483	0.45273	0.186
Mof_C 	C 	0.07937	0.89683	0.53513	-0.226
Mof_H 	H 	0.08887	0.89313	0.58713	0.092
Mof_C 	C 	0.22987	0.80983	0.57383	0.766
Mof_C 	C 	0.03627	0.76943	0.32183	0.686
Mof_C 	C 	0.10141	0.86665	0.44333	-0.254
Mof_C 	C 	0.22886	0.90862	0.71363	-1.397
Mof_H 	H 	0.20717	0.90433	0.72103	0.406
Mof_H 	H 	0.23457	0.90003	0.76653	0.432
Mof_H 	H 	0.24317	0.93143	0.71013	0.421
Mof_C 	C 	0.1194	0.73454	0.68613	0.728
Mof_C 	C 	0.16372	0.81562	0.72653	0.146
Mof_H 	H 	0.18657	0.82893	0.71753	-0.047
Mof_H 	H 	0.15637	0.82573	0.77083	-0.066
Mof_H 	H 	0.15897	0.79493	0.75043	-0.057
Mof_C 	C 	0.08805	0.84023	0.51753	0.244
Mof_H 	H 	0.06537	0.82583	0.50443	-0.051
Mof_H 	H 	0.08957	0.85003	0.57863	-0.083
Mof_C 	C 	0.08637	0.73381	0.46213	0.23
Mof_H 	H 	0.08747	0.72023	0.51113	-0.051
Mof_H 	H 	0.06387	0.72723	0.45263	-0.051
Mof_C 	C 	0.07906	0.6917	0.34883	0.161
Mof_C 	C 	0.09511	0.85165	0.33903	0.248
Mof_H 	H 	0.10277	0.86883	0.29273	-0.057
Mof_H 	H 	0.07217	0.83743	0.32933	-0.056
Mof_C 	C 	0.23126	0.89355	0.62753	0.777
Mof_C 	C 	0.13617	0.89253	0.45443	0.237
Mof_H 	H 	0.13827	0.90423	0.51233	-0.066
Mof_H 	H 	0.14177	0.90763	0.40263	-0.04
Mof_C 	C 	0.13455	0.73589	0.37773	0.224
Mof_H 	H 	0.14037	0.73043	0.31783	-0.041
Mof_H 	H 	0.13587	0.72203	0.42533	-0.039
Mof_C 	C 	0.09489	0.74569	0.28663	0.243
Mof_H 	H 	0.07207	0.73773	0.27813	-0.058
Mof_H 	H 	0.10287	0.74063	0.23003	-0.061
Mof_C 	C 	0.09964	0.72826	0.37163	-0.241
Mof_O 	O 	0.20776	0.81289	0.54563	-0.613
Mof_O 	O 	0.2077	0.87549	0.57733	-0.587
Mof_Mn	Mn	0.23825	0.86187	0.47756	0.956
Mof_C 	C 	0.07667	0.63623	0.31713	-0.332
Mof_H 	H 	0.08467	0.62143	0.31443	0.108
Mof_C 	C 	0.03387	0.64123	0.31083	-0.36
Mof_H 	H 	0.01117	0.63173	0.29793	0.132
Mof_C 	C 	0.09807	0.67283	0.33973	0.195
Mof_H 	H 	0.12117	0.68333	0.34173	-0.044
Mof_C 	C 	0.05247	0.67573	0.33443	0.306
Mof_H 	H 	0.04017	0.68653	0.33853	-0.069
Mof_Mn	Mn	0.83385	0.19612	0.68179	1.071
Mof_Mn	Mn	0.77096	0.13276	0.74338	1.107
Mof_Mn	Mn	0.76165	0.11531	0.96924	0.759
Mof_Mn	Mn	0.82341	0.11912	0.86695	0.95
Mof_Mn	Mn	0.82356	0.18769	0.9047	0.8
Mof_N 	N 	0.71088	0.95894	0.64417	-0.167
Mof_N 	N 	0.71498	0.25087	0.80717	-0.152
Mof_O 	O 	0.77032	0.15497	0.85677	-0.518
Mof_O 	O 	0.8259	0.159	0.75547	-0.66
Mof_O 	O 	0.77824	0.16757	0.66097	-0.532
Mof_O 	O 	0.76636	0.07717	0.03277	-0.517
Mof_O 	O 	0.80793	0.07793	0.95477	-0.506
Mof_O 	O 	0.77793	0.11338	0.63237	-0.529
Mof_O 	O 	0.77001	0.10031	0.82777	-0.509
Mof_O 	O 	0.82454	0.10189	0.73317	-0.481
Mof_O 	O 	0.71959	0.1081	0.72967	-0.484
Mof_O 	O 	0.71366	0.11169	0.57367	-0.478
Mof_O 	O 	0.92419	0.22905	0.93487	-0.471
Mof_O 	O 	0.82552	0.21491	0.79007	-0.488
Mof_O 	O 	0.81388	0.14469	0.96977	-0.508
Mof_O 	O 	0.92525	0.16486	0.88267	-0.442
Mof_C 	C 	0.73343	0.98037	0.58647	0.47
Mof_H 	H 	0.73773	0.97277	0.52857	-0.115
Mof_C 	C 	0.70443	0.96977	0.72207	0.379
Mof_H 	H 	0.68813	0.95487	0.76427	-0.118
Mof_C 	C 	0.89143	0.11627	0.96917	-1.34
Mof_H 	H 	0.86873	0.10247	0.97997	0.417
Mof_H 	H 	0.90003	0.10417	0.93957	0.416
Mof_H 	H 	0.90213	0.12467	0.02827	0.408
Mof_C 	C 	0.71543	0.23797	0.72847	0.134
Mof_H 	H 	0.70333	0.23917	0.67887	-0.018
Mof_C 	C 	0.73063	0.24687	0.88447	0.112
Mof_H 	H 	0.73053	0.25527	0.94357	-0.014
Mof_C 	C 	0.78593	0.04357	0.08347	-1.281
Mof_H 	H 	0.76923	0.03747	0.12957	0.392
Mof_H 	H 	0.78223	0.02497	0.04787	0.41
Mof_H 	H 	0.80643	0.05257	0.11477	0.381
Mof_C 	C 	0.73273	0.22257	0.71257	-0.232
Mof_H 	H 	0.73333	0.21507	0.65247	0.105
Mof_C 	C 	0.66703	0.08457	0.66987	-1.17
Mof_H 	H 	0.65643	0.08177	0.61027	0.351
Mof_H 	H 	0.66073	0.06387	0.69677	0.363
Mof_H 	H 	0.66113	0.09647	0.71167	0.369
Mof_C 	C 	0.75053	0.01247	0.60497	-0.528
Mof_H 	H 	0.76643	0.02667	0.56057	0.186
Mof_C 	C 	0.72183	0.00397	0.74607	-0.475
Mof_H 	H 	0.71773	0.01207	0.80307	0.181
Mof_C 	C 	0.74892	0.21817	0.78607	0.186
Mof_C 	C 	0.74603	0.23017	0.86847	-0.226
Mof_H 	H 	0.75553	0.22647	0.92047	0.092
Mof_C 	C 	0.89653	0.14317	0.90717	0.765
Mof_C 	C 	0.70293	0.10277	0.65517	0.686
Mof_C 	C 	0.76807	0.19999	0.77667	-0.254
Mof_C 	C 	0.89552	0.24196	0.04697	-1.399
Mof_H 	H 	0.87383	0.23767	0.05437	0.406
Mof_H 	H 	0.90123	0.23337	0.09987	0.433
Mof_H 	H 	0.90983	0.26477	0.04347	0.422
Mof_C 	C 	0.78606	0.06788	0.01947	0.728
Mof_C 	C 	0.83038	0.14896	0.05987	0.145
Mof_H 	H 	0.85323	0.16227	0.05087	-0.047
Mof_H 	H 	0.82303	0.15907	0.10417	-0.066
Mof_H 	H 	0.82563	0.12827	0.08377	-0.056
Mof_C 	C 	0.75471	0.17357	0.85087	0.244
Mof_H 	H 	0.73203	0.15917	0.83777	-0.051
Mof_H 	H 	0.75623	0.18337	0.91197	-0.083
Mof_C 	C 	0.75303	0.06715	0.79547	0.23
Mof_H 	H 	0.75413	0.05357	0.84447	-0.051
Mof_H 	H 	0.73053	0.06057	0.78597	-0.051
Mof_C 	C 	0.74572	0.02504	0.68217	0.161
Mof_C 	C 	0.76177	0.18499	0.67237	0.248
Mof_H 	H 	0.76943	0.20217	0.62607	-0.057
Mof_H 	H 	0.73883	0.17077	0.66267	-0.056
Mof_C 	C 	0.89792	0.22689	0.96087	0.778
Mof_C 	C 	0.80283	0.22587	0.78777	0.237
Mof_H 	H 	0.80493	0.23757	0.84567	-0.066
Mof_H 	H 	0.80843	0.24097	0.73597	-0.04
Mof_C 	C 	0.80121	0.06923	0.71107	0.224
Mof_H 	H 	0.80703	0.06377	0.65117	-0.041
Mof_H 	H 	0.80253	0.05537	0.75867	-0.039
Mof_C 	C 	0.76155	0.07903	0.61997	0.243
Mof_H 	H 	0.73873	0.07107	0.61147	-0.058
Mof_H 	H 	0.76953	0.07397	0.56337	-0.061
Mof_C 	C 	0.7663	0.0616	0.70497	-0.241
Mof_O 	O 	0.87442	0.14623	0.87897	-0.613
Mof_O 	O 	0.87436	0.20883	0.91067	-0.588
Mof_Mn	Mn	0.90491	0.19521	0.8109	0.956
Mof_C 	C 	0.74333	0.96957	0.65047	-0.332
Mof_H 	H 	0.75133	0.95477	0.64777	0.108
Mof_C 	C 	0.70053	0.97457	0.64417	-0.36
Mof_H 	H 	0.67783	0.96507	0.63127	0.132
Mof_C 	C 	0.76473	0.00617	0.67307	0.195
Mof_H 	H 	0.78783	0.01667	0.67507	-0.044
Mof_C 	C 	0.71913	0.00907	0.66777	0.306
Mof_H 	H 	0.70683	0.01987	0.67187	-0.069
_end
