data_functionalizedCrystal
_audit_creation_method	'EQeq! by Chris Wilmer'
_symmetry_space_group_name_H-M	'P1'
_symmetry_Int_Tables_number	1
_symmetry_cell_setting	triclinic
loop_
_symmetry_equiv_pos_as_xyz
  x,y,z
_cell_length_a	8.524
_cell_length_b	17.2139
_cell_length_c	17.2139
_cell_angle_alpha	120
_cell_angle_beta	90
_cell_angle_gamma	90
loop_
_atom_site_label
_atom_site_type_symbol
_atom_site_fract_x
_atom_site_fract_y
_atom_site_fract_z
_atom_site_charge
Mof_Ni	Ni	0.66667	0.47466	0.47466	1.086
Mof_Ni	Ni	0.33333	0	0.52534	1.064
Mof_Ni	Ni	-1.15403e-32	0.52534	-0	1.049
Mof_H 	H 	0.3372	0.2345	0.5336	0.123
Mof_H 	H 	0.5474	0.1925	0.3065	0.072
Mof_H 	H 	0.4693	0.0439	0.236	0.007
Mof_H 	H 	0.00387	0.2991	0.7655	0.134
Mof_H 	H 	0.21407	0.114	0.8075	0.073
Mof_H 	H 	0.13597	0.1921	0.9561	0.034
Mof_H 	H 	0.67053	0.4664	0.7009	0.119
Mof_H 	H 	0.88073	0.6935	0.886	0.088
Mof_H 	H 	0.80263	0.764	0.8079	0.061
Mof_H 	H 	0.6628	0.7009	0.4664	0.118
Mof_H 	H 	0.4526	0.886	0.6935	0.078
Mof_H 	H 	0.5307	0.8079	0.764	0.057
Mof_H 	H 	0.99613	0.5336	0.2345	0.094
Mof_H 	H 	0.78593	0.3065	0.1925	0.042
Mof_H 	H 	0.86403	0.236	0.0439	0.05
Mof_H 	H 	0.32947	0.7655	0.2991	0.102
Mof_H 	H 	0.11927	0.8075	0.114	0.037
Mof_H 	H 	0.19737	0.9561	0.1921	0.072
Mof_C 	C 	0.4515	0.22816	0.42734	0.013
Mof_C 	C 	0.3638	0.19608	0.4739	-0.173
Mof_C 	C 	0.3583	0.04792	0.34192	-0.131
Mof_C 	C 	0.4904	0.1711	0.33793	-0.092
Mof_C 	C 	0.3164	0.10707	0.4314	0.196
Mof_C 	C 	0.4435	0.0819	0.296	0.023
Mof_C 	C 	0.5023	0.3241	0.47358	0.287
Mof_C 	C 	0.11817	0.19918	0.77184	0.03
Mof_C 	C 	0.03047	0.27782	0.80392	-0.231
Mof_C 	C 	0.02497	0.294	0.95208	-0.102
Mof_C 	C 	0.15707	0.16683	0.8289	-0.096
Mof_C 	C 	0.98307	0.32433	0.89293	0.272
Mof_C 	C 	0.11017	0.2141	0.9181	0.024
Mof_C 	C 	0.16897	0.14948	0.6759	0.281
Mof_C 	C 	0.78483	0.57266	0.80082	0.009
Mof_C 	C 	0.69713	0.5261	0.72218	-0.146
Mof_C 	C 	0.69163	0.65808	0.706	-0.037
Mof_C 	C 	0.82373	0.66207	0.83317	-0.053
Mof_C 	C 	0.64973	0.5686	0.67567	0.171
Mof_C 	C 	0.77683	0.704	0.7859	-0.015
Mof_C 	C 	0.83563	0.52642	0.85052	0.29
Mof_C 	C 	0.5485	0.80082	0.57266	0.001
Mof_C 	C 	0.6362	0.72218	0.5261	-0.143
Mof_C 	C 	0.6417	0.706	0.65808	-0.034
Mof_C 	C 	0.5096	0.83317	0.66207	-0.05
Mof_C 	C 	0.6836	0.67567	0.5686	0.168
Mof_C 	C 	0.5565	0.7859	0.704	-0.021
Mof_C 	C 	0.4977	0.85052	0.52642	0.293
Mof_C 	C 	0.88183	0.42734	0.22816	-0.056
Mof_C 	C 	0.96953	0.4739	0.19608	-0.045
Mof_C 	C 	0.97503	0.34192	0.04792	0.03
Mof_C 	C 	0.84293	0.33793	0.1711	-0.003
Mof_C 	C 	0.01693	0.4314	0.10707	0.05
Mof_C 	C 	0.88983	0.296	0.0819	-0.083
Mof_C 	C 	0.83103	0.47358	0.3241	0.313
Mof_C 	C 	0.21517	0.77184	0.19918	-0.042
Mof_C 	C 	0.30287	0.80392	0.27782	-0.109
Mof_C 	C 	0.30837	0.95208	0.294	0.053
Mof_C 	C 	0.17627	0.8289	0.16683	-0.009
Mof_C 	C 	0.35027	0.89293	0.32433	0.13
Mof_C 	C 	0.22317	0.9181	0.2141	-0.083
Mof_C 	C 	0.16437	0.6759	0.14948	0.309
Mof_O 	O 	0.4707	0.37235	0.55732	-0.241
Mof_O 	O 	0.2291	0.07668	0.47723	-0.355
Mof_O 	O 	0.5735	0.35116	0.42865	-0.399
Mof_O 	O 	0.13737	0.18497	0.62765	-0.248
Mof_O 	O 	0.89577	0.40055	0.92332	-0.311
Mof_O 	O 	0.24017	0.07749	0.64884	-0.411
Mof_O 	O 	0.80403	0.44268	0.81503	-0.225
Mof_O 	O 	0.56243	0.52277	0.59945	-0.33
Mof_O 	O 	0.90683	0.57135	0.92251	-0.352
Mof_O 	O 	0.5293	0.81503	0.44268	-0.233
Mof_O 	O 	0.7709	0.59945	0.52277	-0.322
Mof_O 	O 	0.4265	0.92251	0.57135	-0.373
Mof_O 	O 	0.86263	0.55732	0.37235	-0.238
Mof_O 	O 	0.10423	0.47723	0.07668	-0.329
Mof_O 	O 	0.75983	0.42865	0.35116	-0.404
Mof_O 	O 	0.19597	0.62765	0.18497	-0.255
Mof_O 	O 	0.43757	0.92332	0.40055	-0.294
Mof_O 	O 	0.09317	0.64884	0.07749	-0.429
_end
