data_functionalizedCrystal
_audit_creation_method	'EQeq! by Chris Wilmer'
_symmetry_space_group_name_H-M	'P1'
_symmetry_Int_Tables_number	1
_symmetry_cell_setting	triclinic
loop_
_symmetry_equiv_pos_as_xyz
  x,y,z
_cell_length_a	30.0053
_cell_length_b	30.0053
_cell_length_c	30.0053
_cell_angle_alpha	109.471
_cell_angle_beta	109.471
_cell_angle_gamma	109.471
loop_
_atom_site_label
_atom_site_type_symbol
_atom_site_fract_x
_atom_site_fract_y
_atom_site_fract_z
_atom_site_charge
Mof_Zn	Zn	0.91607	0.05626	0.63803	1.176
Mof_Zn	Zn	0.91823	0.27804	0.86197	1.176
Mof_Zn	Zn	0.58177	0.44374	0.35981	1.176
Mof_Zn	Zn	0.58393	0.22196	0.14019	1.176
Mof_Zn	Zn	0.85981	0.58177	0.94374	1.176
Mof_Zn	Zn	0.64019	0.58393	0.72196	1.176
Mof_Zn	Zn	0.13803	0.91607	0.55626	1.177
Mof_Zn	Zn	0.36197	0.91823	0.77804	1.177
Mof_Zn	Zn	0.27804	0.36197	0.41823	1.177
Mof_Zn	Zn	0.05626	0.13803	0.41607	1.177
Mof_Zn	Zn	0.22196	0.64019	0.08393	1.177
Mof_Zn	Zn	0.44374	0.85981	0.08177	1.177
Mof_Zn	Zn	0.44374	0.58393	0.86197	1.177
Mof_Zn	Zn	0.22196	0.58177	0.63803	1.177
Mof_Zn	Zn	0.05626	0.91823	0.14019	1.177
Mof_Zn	Zn	0.27804	0.91607	0.35981	1.177
Mof_Zn	Zn	0.91823	0.64019	0.55626	1.177
Mof_Zn	Zn	0.91607	0.85981	0.77804	1.177
Mof_Zn	Zn	0.58393	0.36197	0.94374	1.177
Mof_Zn	Zn	0.58177	0.13803	0.72196	1.177
Mof_Zn	Zn	0.13803	0.22196	0.08177	1.177
Mof_Zn	Zn	0.36197	0.44374	0.08393	1.177
Mof_Zn	Zn	0.85981	0.27804	0.41607	1.177
Mof_Zn	Zn	0.64019	0.05626	0.41823	1.177
Mof_Zn	Zn	0.08393	0.94374	0.36197	1.177
Mof_Zn	Zn	0.08177	0.72196	0.13803	1.177
Mof_Zn	Zn	0.41823	0.55626	0.64019	1.177
Mof_Zn	Zn	0.41607	0.77804	0.85981	1.177
Mof_Zn	Zn	0.14019	0.41823	0.05626	1.177
Mof_Zn	Zn	0.35981	0.41607	0.27804	1.177
Mof_Zn	Zn	0.86197	0.08393	0.44374	1.177
Mof_Zn	Zn	0.63803	0.08177	0.22196	1.177
Mof_Zn	Zn	0.72196	0.63803	0.58177	1.177
Mof_Zn	Zn	0.94374	0.86197	0.58393	1.177
Mof_Zn	Zn	0.77804	0.35981	0.91607	1.177
Mof_Zn	Zn	0.55626	0.14019	0.91823	1.177
Mof_Zn	Zn	0.55626	0.41607	0.13803	1.177
Mof_Zn	Zn	0.77804	0.41823	0.36197	1.177
Mof_Zn	Zn	0.94374	0.08177	0.85981	1.177
Mof_Zn	Zn	0.72196	0.08393	0.64019	1.177
Mof_Zn	Zn	0.08177	0.35981	0.44374	1.177
Mof_Zn	Zn	0.08393	0.14019	0.22196	1.177
Mof_Zn	Zn	0.41607	0.63803	0.05626	1.177
Mof_Zn	Zn	0.41823	0.86197	0.27804	1.177
Mof_Zn	Zn	0.86197	0.77804	0.91823	1.177
Mof_Zn	Zn	0.63803	0.55626	0.91607	1.177
Mof_Zn	Zn	0.14019	0.72196	0.58393	1.177
Mof_Zn	Zn	0.35981	0.94374	0.58177	1.177
Mof_H 	H 	0.8564	0.0799	0.5455	-0.046
Mof_H 	H 	0.9851	0.1213	0.53	0.022
Mof_H 	H 	0.8874	0.0591	0.7349	-0.054
Mof_H 	H 	0.0358	0.0975	0.8245	0.013
Mof_H 	H 	0.0505	0.1232	0.6043	0.059
Mof_H 	H 	0.0699	0.123	0.7461	0.053
Mof_H 	H 	0.0344	0.3109	0.9545	-0.046
Mof_H 	H 	0.0913	0.4551	0.97	0.024
Mof_H 	H 	0.8242	0.1525	0.7651	-0.054
Mof_H 	H 	0.773	0.2113	0.6755	0.015
Mof_H 	H 	0.0189	0.4462	0.8957	0.062
Mof_H 	H 	0.8769	0.3238	0.7539	0.054
Mof_H 	H 	0.4656	0.4201	0.2765	-0.046
Mof_H 	H 	0.4087	0.3787	0.3638	0.023
Mof_H 	H 	0.6758	0.4409	0.3283	-0.054
Mof_H 	H 	0.727	0.4025	0.4383	0.015
Mof_H 	H 	0.4811	0.3768	0.4273	0.059
Mof_H 	H 	0.6231	0.377	0.4469	0.054
Mof_H 	H 	0.6436	0.1891	0.2235	-0.046
Mof_H 	H 	0.5149	0.0449	0.1362	0.023
Mof_H 	H 	0.6126	0.3475	0.1717	-0.054
Mof_H 	H 	0.4642	0.2887	0.0617	0.015
Mof_H 	H 	0.4495	0.0538	0.0727	0.059
Mof_H 	H 	0.4301	0.1762	0.0531	0.054
Mof_H 	H 	0.7765	0.4656	0.9201	-0.046
Mof_H 	H 	0.8638	0.4087	0.8787	0.023
Mof_H 	H 	0.8283	0.6758	0.9409	-0.054
Mof_H 	H 	0.9383	0.727	0.9025	0.015
Mof_H 	H 	0.9273	0.4811	0.8768	0.059
Mof_H 	H 	0.9469	0.6231	0.877	0.054
Mof_H 	H 	0.7235	0.6436	0.6891	-0.046
Mof_H 	H 	0.6362	0.5149	0.5449	0.023
Mof_H 	H 	0.6717	0.6126	0.8475	-0.054
Mof_H 	H 	0.5617	0.4642	0.7887	0.015
Mof_H 	H 	0.5727	0.4495	0.5538	0.059
Mof_H 	H 	0.5531	0.4301	0.6762	0.054
Mof_H 	H 	0.0455	0.8564	0.5799	-0.046
Mof_H 	H 	0.03	0.9851	0.6213	0.022
Mof_H 	H 	0.2349	0.8874	0.5591	-0.054
Mof_H 	H 	0.3245	0.0358	0.5975	0.014
Mof_H 	H 	0.1043	0.0505	0.6232	0.059
Mof_H 	H 	0.2461	0.0699	0.623	0.053
Mof_H 	H 	0.4545	0.0344	0.8109	-0.046
Mof_H 	H 	0.47	0.0913	0.9551	0.023
Mof_H 	H 	0.2651	0.8242	0.6525	-0.054
Mof_H 	H 	0.1755	0.773	0.7113	0.015
Mof_H 	H 	0.3957	0.0189	0.9462	0.059
Mof_H 	H 	0.2539	0.8769	0.8238	0.054
Mof_H 	H 	0.3109	0.4545	0.5344	-0.046
Mof_H 	H 	0.4551	0.47	0.5913	0.023
Mof_H 	H 	0.1525	0.2651	0.3242	-0.054
Mof_H 	H 	0.2113	0.1755	0.273	0.015
Mof_H 	H 	0.4462	0.3957	0.5189	0.059
Mof_H 	H 	0.3238	0.2539	0.3769	0.054
Mof_H 	H 	0.0799	0.0455	0.3564	-0.046
Mof_H 	H 	0.1213	0.03	0.4851	0.023
Mof_H 	H 	0.0591	0.2349	0.3874	-0.054
Mof_H 	H 	0.0975	0.3245	0.5358	0.015
Mof_H 	H 	0.1232	0.1043	0.5505	0.059
Mof_H 	H 	0.123	0.2461	0.5699	0.054
Mof_H 	H 	0.1891	0.7235	0.1436	-0.046
Mof_H 	H 	0.0449	0.6362	0.0149	0.022
Mof_H 	H 	0.3475	0.6717	0.1126	-0.054
Mof_H 	H 	0.2887	0.5617	0.9642	0.014
Mof_H 	H 	0.0538	0.5727	0.9495	0.059
Mof_H 	H 	0.1762	0.5531	0.9301	0.053
Mof_H 	H 	0.4201	0.7765	0.9656	-0.046
Mof_H 	H 	0.3787	0.8638	0.9087	0.023
Mof_H 	H 	0.4409	0.8283	0.1758	-0.054
Mof_H 	H 	0.4025	0.9383	0.227	0.015
Mof_H 	H 	0.3768	0.9273	0.9811	0.06
Mof_H 	H 	0.377	0.9469	0.1231	0.054
Mof_H 	H 	0.4201	0.6436	0.9545	-0.046
Mof_H 	H 	0.3787	0.5149	0.97	0.023
Mof_H 	H 	0.4409	0.6126	0.7651	-0.054
Mof_H 	H 	0.4025	0.4642	0.6755	0.015
Mof_H 	H 	0.3768	0.4495	0.8957	0.059
Mof_H 	H 	0.377	0.4301	0.7539	0.054
Mof_H 	H 	0.1891	0.4656	0.5455	-0.046
Mof_H 	H 	0.0449	0.4087	0.53	0.023
Mof_H 	H 	0.3475	0.6758	0.7349	-0.054
Mof_H 	H 	0.2887	0.727	0.8245	0.015
Mof_H 	H 	0.0538	0.4811	0.6043	0.059
Mof_H 	H 	0.1762	0.6231	0.7461	0.054
Mof_H 	H 	0.0799	0.0344	0.2235	-0.046
Mof_H 	H 	0.1213	0.0913	0.1362	0.023
Mof_H 	H 	0.0591	0.8242	0.1717	-0.054
Mof_H 	H 	0.0975	0.773	0.0617	0.015
Mof_H 	H 	0.1232	0.0189	0.0727	0.061
Mof_H 	H 	0.123	0.8769	0.0531	0.053
Mof_H 	H 	0.3109	0.8564	0.2765	-0.046
Mof_H 	H 	0.4551	0.9851	0.3638	0.023
Mof_H 	H 	0.1525	0.8874	0.3283	-0.054
Mof_H 	H 	0.2113	0.0358	0.4383	0.014
Mof_H 	H 	0.4462	0.0505	0.4273	0.059
Mof_H 	H 	0.3238	0.0699	0.4469	0.053
Mof_H 	H 	0.0344	0.7235	0.5799	-0.046
Mof_H 	H 	0.0913	0.6362	0.6213	0.023
Mof_H 	H 	0.8242	0.6717	0.5591	-0.054
Mof_H 	H 	0.773	0.5617	0.5975	0.015
Mof_H 	H 	0.0189	0.5727	0.6232	0.059
Mof_H 	H 	0.8769	0.5531	0.623	0.054
Mof_H 	H 	0.8564	0.7765	0.8109	-0.046
Mof_H 	H 	0.9851	0.8638	0.9551	0.023
Mof_H 	H 	0.8874	0.8283	0.6525	-0.054
Mof_H 	H 	0.0358	0.9383	0.7113	0.015
Mof_H 	H 	0.0505	0.9273	0.9462	0.059
Mof_H 	H 	0.0699	0.9469	0.8238	0.054
Mof_H 	H 	0.6436	0.4545	0.9201	-0.046
Mof_H 	H 	0.5149	0.47	0.8787	0.023
Mof_H 	H 	0.6126	0.2651	0.9409	-0.054
Mof_H 	H 	0.4642	0.1755	0.9025	0.015
Mof_H 	H 	0.4495	0.3957	0.8768	0.059
Mof_H 	H 	0.4301	0.2539	0.877	0.054
Mof_H 	H 	0.4656	0.0455	0.6891	-0.046
Mof_H 	H 	0.4087	0.03	0.5449	0.023
Mof_H 	H 	0.6758	0.2349	0.8475	-0.054
Mof_H 	H 	0.727	0.3245	0.7887	0.015
Mof_H 	H 	0.4811	0.1043	0.5538	0.059
Mof_H 	H 	0.6231	0.2461	0.6762	0.054
Mof_H 	H 	0.0455	0.1891	0.9656	-0.046
Mof_H 	H 	0.03	0.0449	0.9087	0.024
Mof_H 	H 	0.2349	0.3475	0.1758	-0.054
Mof_H 	H 	0.3245	0.2887	0.227	0.015
Mof_H 	H 	0.1043	0.0538	0.9811	0.061
Mof_H 	H 	0.2461	0.1762	0.1231	0.054
Mof_H 	H 	0.4545	0.4201	0.1436	-0.046
Mof_H 	H 	0.47	0.3787	0.0149	0.023
Mof_H 	H 	0.2651	0.4409	0.1126	-0.054
Mof_H 	H 	0.1755	0.4025	0.9642	0.014
Mof_H 	H 	0.3957	0.3768	0.9495	0.059
Mof_H 	H 	0.2539	0.377	0.9301	0.053
Mof_H 	H 	0.7765	0.3109	0.3564	-0.046
Mof_H 	H 	0.8638	0.4551	0.4851	0.023
Mof_H 	H 	0.8283	0.1525	0.3874	-0.054
Mof_H 	H 	0.9383	0.2113	0.5358	0.015
Mof_H 	H 	0.9273	0.4462	0.5505	0.059
Mof_H 	H 	0.9469	0.3238	0.5699	0.054
Mof_H 	H 	0.7235	0.0799	0.5344	-0.046
Mof_H 	H 	0.6362	0.1213	0.5913	0.023
Mof_H 	H 	0.6717	0.0591	0.3242	-0.054
Mof_H 	H 	0.5617	0.0975	0.273	0.015
Mof_H 	H 	0.5727	0.1232	0.5189	0.059
Mof_H 	H 	0.5531	0.123	0.3769	0.054
Mof_H 	H 	0.1436	0.9201	0.4545	-0.046
Mof_H 	H 	0.0149	0.8787	0.47	0.022
Mof_H 	H 	0.1126	0.9409	0.2651	-0.054
Mof_H 	H 	0.9642	0.9025	0.1755	0.013
Mof_H 	H 	0.9495	0.8768	0.3957	0.059
Mof_H 	H 	0.9301	0.877	0.2539	0.053
Mof_H 	H 	0.9656	0.6891	0.0455	-0.046
Mof_H 	H 	0.9087	0.5449	0.03	0.024
Mof_H 	H 	0.1758	0.8475	0.2349	-0.054
Mof_H 	H 	0.227	0.7887	0.3245	0.015
Mof_H 	H 	0.9811	0.5538	0.1043	0.062
Mof_H 	H 	0.1231	0.6762	0.2461	0.054
Mof_H 	H 	0.5344	0.5799	0.7235	-0.046
Mof_H 	H 	0.5913	0.6213	0.6362	0.023
Mof_H 	H 	0.3242	0.5591	0.6717	-0.054
Mof_H 	H 	0.273	0.5975	0.5617	0.015
Mof_H 	H 	0.5189	0.6232	0.5727	0.059
Mof_H 	H 	0.3769	0.623	0.5531	0.054
Mof_H 	H 	0.3564	0.8109	0.7765	-0.046
Mof_H 	H 	0.4851	0.9551	0.8638	0.023
Mof_H 	H 	0.3874	0.6525	0.8283	-0.054
Mof_H 	H 	0.5358	0.7113	0.9383	0.015
Mof_H 	H 	0.5505	0.9462	0.9273	0.059
Mof_H 	H 	0.5699	0.8238	0.9469	0.054
Mof_H 	H 	0.2235	0.5344	0.0799	-0.046
Mof_H 	H 	0.1362	0.5913	0.1213	0.023
Mof_H 	H 	0.1717	0.3242	0.0591	-0.054
Mof_H 	H 	0.0617	0.273	0.0975	0.015
Mof_H 	H 	0.0727	0.5189	0.1232	0.059
Mof_H 	H 	0.0531	0.3769	0.123	0.054
Mof_H 	H 	0.2765	0.3564	0.3109	-0.046
Mof_H 	H 	0.3638	0.4851	0.4551	0.023
Mof_H 	H 	0.3283	0.3874	0.1525	-0.054
Mof_H 	H 	0.4383	0.5358	0.2113	0.015
Mof_H 	H 	0.4273	0.5505	0.4462	0.059
Mof_H 	H 	0.4469	0.5699	0.3238	0.054
Mof_H 	H 	0.9545	0.1436	0.4201	-0.046
Mof_H 	H 	0.97	0.0149	0.3787	0.022
Mof_H 	H 	0.7651	0.1126	0.4409	-0.054
Mof_H 	H 	0.6755	0.9642	0.4025	0.014
Mof_H 	H 	0.8957	0.9495	0.3768	0.059
Mof_H 	H 	0.7539	0.9301	0.377	0.053
Mof_H 	H 	0.5455	0.9656	0.1891	-0.046
Mof_H 	H 	0.53	0.9087	0.0449	0.023
Mof_H 	H 	0.7349	0.1758	0.3475	-0.054
Mof_H 	H 	0.8245	0.227	0.2887	0.015
Mof_H 	H 	0.6043	0.9811	0.0538	0.059
Mof_H 	H 	0.7461	0.1231	0.1762	0.054
Mof_H 	H 	0.6891	0.5455	0.4656	-0.046
Mof_H 	H 	0.5449	0.53	0.4087	0.023
Mof_H 	H 	0.8475	0.7349	0.6758	-0.054
Mof_H 	H 	0.7887	0.8245	0.727	0.015
Mof_H 	H 	0.5538	0.6043	0.4811	0.059
Mof_H 	H 	0.6762	0.7461	0.6231	0.054
Mof_H 	H 	0.9201	0.9545	0.6436	-0.046
Mof_H 	H 	0.8787	0.97	0.5149	0.023
Mof_H 	H 	0.9409	0.7651	0.6126	-0.054
Mof_H 	H 	0.9025	0.6755	0.4642	0.015
Mof_H 	H 	0.8768	0.8957	0.4495	0.059
Mof_H 	H 	0.877	0.7539	0.4301	0.054
Mof_H 	H 	0.8109	0.2765	0.8564	-0.046
Mof_H 	H 	0.9551	0.3638	0.9851	0.022
Mof_H 	H 	0.6525	0.3283	0.8874	-0.054
Mof_H 	H 	0.7113	0.4383	0.0358	0.014
Mof_H 	H 	0.9462	0.4273	0.0505	0.059
Mof_H 	H 	0.8238	0.4469	0.0699	0.053
Mof_H 	H 	0.5799	0.2235	0.0344	-0.046
Mof_H 	H 	0.6213	0.1362	0.0913	0.023
Mof_H 	H 	0.5591	0.1717	0.8242	-0.054
Mof_H 	H 	0.5975	0.0617	0.773	0.015
Mof_H 	H 	0.6232	0.0727	0.0189	0.06
Mof_H 	H 	0.623	0.0531	0.8769	0.054
Mof_H 	H 	0.5799	0.3564	0.0455	-0.046
Mof_H 	H 	0.6213	0.4851	0.03	0.023
Mof_H 	H 	0.5591	0.3874	0.2349	-0.054
Mof_H 	H 	0.5975	0.5358	0.3245	0.015
Mof_H 	H 	0.6232	0.5505	0.1043	0.059
Mof_H 	H 	0.623	0.5699	0.2461	0.054
Mof_H 	H 	0.8109	0.5344	0.4545	-0.046
Mof_H 	H 	0.9551	0.5913	0.47	0.023
Mof_H 	H 	0.6525	0.3242	0.2651	-0.054
Mof_H 	H 	0.7113	0.273	0.1755	0.015
Mof_H 	H 	0.9462	0.5189	0.3957	0.059
Mof_H 	H 	0.8238	0.3769	0.2539	0.054
Mof_H 	H 	0.9201	0.9656	0.7765	-0.046
Mof_H 	H 	0.8787	0.9087	0.8638	0.023
Mof_H 	H 	0.9409	0.1758	0.8283	-0.054
Mof_H 	H 	0.9025	0.227	0.9383	0.015
Mof_H 	H 	0.8768	0.9811	0.9273	0.061
Mof_H 	H 	0.877	0.1231	0.9469	0.053
Mof_H 	H 	0.6891	0.1436	0.7235	-0.046
Mof_H 	H 	0.5449	0.0149	0.6362	0.023
Mof_H 	H 	0.8475	0.1126	0.6717	-0.054
Mof_H 	H 	0.7887	0.9642	0.5617	0.014
Mof_H 	H 	0.5538	0.9495	0.5727	0.059
Mof_H 	H 	0.6762	0.9301	0.5531	0.053
Mof_H 	H 	0.9656	0.2765	0.4201	-0.046
Mof_H 	H 	0.9087	0.3638	0.3787	0.023
Mof_H 	H 	0.1758	0.3283	0.4409	-0.054
Mof_H 	H 	0.227	0.4383	0.4025	0.015
Mof_H 	H 	0.9811	0.4273	0.3768	0.059
Mof_H 	H 	0.1231	0.4469	0.377	0.054
Mof_H 	H 	0.1436	0.2235	0.1891	-0.046
Mof_H 	H 	0.0149	0.1362	0.0449	0.023
Mof_H 	H 	0.1126	0.1717	0.3475	-0.054
Mof_H 	H 	0.9642	0.0617	0.2887	0.015
Mof_H 	H 	0.9495	0.0727	0.0538	0.059
Mof_H 	H 	0.9301	0.0531	0.1762	0.054
Mof_H 	H 	0.3564	0.5455	0.0799	-0.046
Mof_H 	H 	0.4851	0.53	0.1213	0.023
Mof_H 	H 	0.3874	0.7349	0.0591	-0.054
Mof_H 	H 	0.5358	0.8245	0.0975	0.015
Mof_H 	H 	0.5505	0.6043	0.1232	0.059
Mof_H 	H 	0.5699	0.7461	0.123	0.054
Mof_H 	H 	0.5344	0.9545	0.3109	-0.046
Mof_H 	H 	0.5913	0.97	0.4551	0.023
Mof_H 	H 	0.3242	0.7651	0.1525	-0.054
Mof_H 	H 	0.273	0.6755	0.2113	0.015
Mof_H 	H 	0.5189	0.8957	0.4462	0.059
Mof_H 	H 	0.3769	0.7539	0.3238	0.054
Mof_H 	H 	0.9545	0.8109	0.0344	-0.046
Mof_H 	H 	0.97	0.9551	0.0913	0.024
Mof_H 	H 	0.7651	0.6525	0.8242	-0.054
Mof_H 	H 	0.6755	0.7113	0.773	0.015
Mof_H 	H 	0.8957	0.9462	0.0189	0.061
Mof_H 	H 	0.7539	0.8238	0.8769	0.054
Mof_H 	H 	0.5455	0.5799	0.8564	-0.046
Mof_H 	H 	0.53	0.6213	0.9851	0.023
Mof_H 	H 	0.7349	0.5591	0.8874	-0.054
Mof_H 	H 	0.8245	0.5975	0.0358	0.014
Mof_H 	H 	0.6043	0.6232	0.0505	0.059
Mof_H 	H 	0.7461	0.623	0.0699	0.053
Mof_H 	H 	0.2235	0.6891	0.6436	-0.046
Mof_H 	H 	0.1362	0.5449	0.5149	0.023
Mof_H 	H 	0.1717	0.8475	0.6126	-0.054
Mof_H 	H 	0.0617	0.7887	0.4642	0.015
Mof_H 	H 	0.0727	0.5538	0.4495	0.059
Mof_H 	H 	0.0531	0.6762	0.4301	0.054
Mof_H 	H 	0.2765	0.9201	0.4656	-0.046
Mof_H 	H 	0.3638	0.8787	0.4087	0.023
Mof_H 	H 	0.3283	0.9409	0.6758	-0.054
Mof_H 	H 	0.4383	0.9025	0.727	0.015
Mof_H 	H 	0.4273	0.8768	0.4811	0.059
Mof_H 	H 	0.4469	0.877	0.6231	0.054
Mof_C 	C 	0.97411	0.10658	0.58801	0.046
Mof_C 	C 	0.89171	0.08923	0.55204	0.096
Mof_C 	C 	0.96138	0.11171	0.54301	-0.023
Mof_C 	C 	0.9237	0.06822	0.74666	0.102
Mof_C 	C 	0.00391	0.08875	0.79552	-0.016
Mof_C 	C 	0.99901	0.0854	0.74739	0.028
Mof_C 	C 	0.0272	0.1127	0.6175	-0.055
Mof_C 	C 	0.0321	0.1033	0.7244	-0.047
Mof_C 	C 	0.01857	0.3861	0.91199	0.052
Mof_C 	C 	0.03719	0.33967	0.94796	0.098
Mof_C 	C 	0.0687	0.41837	0.95699	-0.025
Mof_C 	C 	0.82156	0.17704	0.75334	0.103
Mof_C 	C 	0.79323	0.20839	0.70448	-0.021
Mof_C 	C 	0.83801	0.25162	0.75261	0.033
Mof_C 	C 	0.9952	0.4097	0.8825	-0.062
Mof_C 	C 	0.8789	0.3077	0.7756	-0.051
Mof_C 	C 	0.48143	0.39342	0.36753	0.048
Mof_C 	C 	0.46281	0.41077	0.30248	0.096
Mof_C 	C 	0.4313	0.38829	0.34967	-0.023
Mof_C 	C 	0.67844	0.43178	0.35548	0.103
Mof_C 	C 	0.70677	0.41125	0.41516	-0.021
Mof_C 	C 	0.66199	0.4146	0.41361	0.033
Mof_C 	C 	0.5048	0.3873	0.4145	-0.057
Mof_C 	C 	0.6211	0.3967	0.4288	-0.051
Mof_C 	C 	0.52589	0.1139	0.13247	0.048
Mof_C 	C 	0.60829	0.16033	0.19752	0.096
Mof_C 	C 	0.53862	0.08163	0.15033	-0.023
Mof_C 	C 	0.5763	0.32296	0.14452	0.103
Mof_C 	C 	0.49609	0.29161	0.08484	-0.021
Mof_C 	C 	0.50099	0.24838	0.08639	0.033
Mof_C 	C 	0.4728	0.0903	0.0855	-0.057
Mof_C 	C 	0.4679	0.1923	0.0712	-0.051
Mof_C 	C 	0.86753	0.48143	0.89342	0.048
Mof_C 	C 	0.80248	0.46281	0.91077	0.096
Mof_C 	C 	0.84967	0.4313	0.88829	-0.024
Mof_C 	C 	0.85548	0.67844	0.93178	0.103
Mof_C 	C 	0.91516	0.70677	0.91125	-0.021
Mof_C 	C 	0.91361	0.66199	0.9146	0.033
Mof_C 	C 	0.9145	0.5048	0.8873	-0.057
Mof_C 	C 	0.9288	0.6211	0.8967	-0.051
Mof_C 	C 	0.63247	0.52589	0.6139	0.048
Mof_C 	C 	0.69752	0.60829	0.66033	0.096
Mof_C 	C 	0.65033	0.53862	0.58163	-0.023
Mof_C 	C 	0.64452	0.5763	0.82296	0.103
Mof_C 	C 	0.58484	0.49609	0.79161	-0.021
Mof_C 	C 	0.58639	0.50099	0.74838	0.033
Mof_C 	C 	0.5855	0.4728	0.5903	-0.057
Mof_C 	C 	0.5712	0.4679	0.6923	-0.051
Mof_C 	C 	0.08801	0.97411	0.60658	0.047
Mof_C 	C 	0.05204	0.89171	0.58923	0.096
Mof_C 	C 	0.04301	0.96138	0.61171	-0.023
Mof_C 	C 	0.24666	0.9237	0.56822	0.103
Mof_C 	C 	0.29552	0.00391	0.58875	-0.02
Mof_C 	C 	0.24739	0.99901	0.5854	0.031
Mof_C 	C 	0.1175	0.0272	0.6127	-0.056
Mof_C 	C 	0.2244	0.0321	0.6033	-0.05
Mof_C 	C 	0.41199	0.01857	0.8861	0.048
Mof_C 	C 	0.44796	0.03719	0.83967	0.096
Mof_C 	C 	0.45699	0.0687	0.91837	-0.024
Mof_C 	C 	0.25334	0.82156	0.67704	0.103
Mof_C 	C 	0.20448	0.79323	0.70839	-0.021
Mof_C 	C 	0.25261	0.83801	0.75162	0.033
Mof_C 	C 	0.3825	0.9952	0.9097	-0.057
Mof_C 	C 	0.2756	0.8789	0.8077	-0.051
Mof_C 	C 	0.3861	0.41199	0.51857	0.048
Mof_C 	C 	0.33967	0.44796	0.53719	0.096
Mof_C 	C 	0.41837	0.45699	0.5687	-0.023
Mof_C 	C 	0.17704	0.25334	0.32156	0.103
Mof_C 	C 	0.20839	0.20448	0.29323	-0.021
Mof_C 	C 	0.25162	0.25261	0.33801	0.033
Mof_C 	C 	0.4097	0.3825	0.4952	-0.057
Mof_C 	C 	0.3077	0.2756	0.3789	-0.051
Mof_C 	C 	0.10658	0.08801	0.47411	0.048
Mof_C 	C 	0.08923	0.05204	0.39171	0.096
Mof_C 	C 	0.11171	0.04301	0.46138	-0.023
Mof_C 	C 	0.06822	0.24666	0.4237	0.103
Mof_C 	C 	0.08875	0.29552	0.50391	-0.021
Mof_C 	C 	0.0854	0.24739	0.49901	0.033
Mof_C 	C 	0.1127	0.1175	0.5272	-0.057
Mof_C 	C 	0.1033	0.2244	0.5321	-0.051
Mof_C 	C 	0.1139	0.63247	0.02589	0.046
Mof_C 	C 	0.16033	0.69752	0.10829	0.096
Mof_C 	C 	0.08163	0.65033	0.03862	-0.023
Mof_C 	C 	0.32296	0.64452	0.0763	0.103
Mof_C 	C 	0.29161	0.58484	0.99609	-0.019
Mof_C 	C 	0.24838	0.58639	0.00099	0.03
Mof_C 	C 	0.0903	0.5855	0.9728	-0.055
Mof_C 	C 	0.1923	0.5712	0.9679	-0.049
Mof_C 	C 	0.39342	0.86753	0.98143	0.049
Mof_C 	C 	0.41077	0.80248	0.96281	0.096
Mof_C 	C 	0.38829	0.84967	0.9313	-0.024
Mof_C 	C 	0.43178	0.85548	0.17844	0.103
Mof_C 	C 	0.41125	0.91516	0.20677	-0.021
Mof_C 	C 	0.4146	0.91361	0.16199	0.033
Mof_C 	C 	0.3873	0.9145	0.0048	-0.059
Mof_C 	C 	0.3967	0.9288	0.1211	-0.051
Mof_C 	C 	0.39342	0.52589	0.91199	0.048
Mof_C 	C 	0.41077	0.60829	0.94796	0.096
Mof_C 	C 	0.38829	0.53862	0.95699	-0.023
Mof_C 	C 	0.43178	0.5763	0.75334	0.103
Mof_C 	C 	0.41125	0.49609	0.70448	-0.021
Mof_C 	C 	0.4146	0.50099	0.75261	0.033
Mof_C 	C 	0.3873	0.4728	0.8825	-0.057
Mof_C 	C 	0.3967	0.4679	0.7756	-0.051
Mof_C 	C 	0.1139	0.48143	0.58801	0.048
Mof_C 	C 	0.16033	0.46281	0.55204	0.096
Mof_C 	C 	0.08163	0.4313	0.54301	-0.023
Mof_C 	C 	0.32296	0.67844	0.74666	0.103
Mof_C 	C 	0.29161	0.70677	0.79552	-0.021
Mof_C 	C 	0.24838	0.66199	0.74739	0.033
Mof_C 	C 	0.0903	0.5048	0.6175	-0.057
Mof_C 	C 	0.1923	0.6211	0.7244	-0.051
Mof_C 	C 	0.10658	0.01857	0.13247	0.051
Mof_C 	C 	0.08923	0.03719	0.19752	0.097
Mof_C 	C 	0.11171	0.0687	0.15033	-0.025
Mof_C 	C 	0.06822	0.82156	0.14452	0.102
Mof_C 	C 	0.08875	0.79323	0.08484	-0.021
Mof_C 	C 	0.0854	0.83801	0.08639	0.032
Mof_C 	C 	0.1127	0.9952	0.0855	-0.061
Mof_C 	C 	0.1033	0.8789	0.0712	-0.051
Mof_C 	C 	0.3861	0.97411	0.36753	0.048
Mof_C 	C 	0.33967	0.89171	0.30248	0.096
Mof_C 	C 	0.41837	0.96138	0.34967	-0.023
Mof_C 	C 	0.17704	0.9237	0.35548	0.103
Mof_C 	C 	0.20839	0.00391	0.41516	-0.019
Mof_C 	C 	0.25162	0.99901	0.41361	0.031
Mof_C 	C 	0.4097	0.0272	0.4145	-0.057
Mof_C 	C 	0.3077	0.0321	0.4288	-0.049
Mof_C 	C 	0.01857	0.63247	0.60658	0.048
Mof_C 	C 	0.03719	0.69752	0.58923	0.096
Mof_C 	C 	0.0687	0.65033	0.61171	-0.024
Mof_C 	C 	0.82156	0.64452	0.56822	0.103
Mof_C 	C 	0.79323	0.58484	0.58875	-0.021
Mof_C 	C 	0.83801	0.58639	0.5854	0.033
Mof_C 	C 	0.9952	0.5855	0.6127	-0.058
Mof_C 	C 	0.8789	0.5712	0.6033	-0.051
Mof_C 	C 	0.97411	0.86753	0.8861	0.048
Mof_C 	C 	0.89171	0.80248	0.83967	0.096
Mof_C 	C 	0.96138	0.84967	0.91837	-0.023
Mof_C 	C 	0.9237	0.85548	0.67704	0.103
Mof_C 	C 	0.00391	0.91516	0.70839	-0.022
Mof_C 	C 	0.99901	0.91361	0.75162	0.033
Mof_C 	C 	0.0272	0.9145	0.9097	-0.057
Mof_C 	C 	0.0321	0.9288	0.8077	-0.051
Mof_C 	C 	0.52589	0.41199	0.89342	0.048
Mof_C 	C 	0.60829	0.44796	0.91077	0.096
Mof_C 	C 	0.53862	0.45699	0.88829	-0.024
Mof_C 	C 	0.5763	0.25334	0.93178	0.103
Mof_C 	C 	0.49609	0.20448	0.91125	-0.021
Mof_C 	C 	0.50099	0.25261	0.9146	0.033
Mof_C 	C 	0.4728	0.3825	0.8873	-0.057
Mof_C 	C 	0.4679	0.2756	0.8967	-0.051
Mof_C 	C 	0.48143	0.08801	0.6139	0.048
Mof_C 	C 	0.46281	0.05204	0.66033	0.096
Mof_C 	C 	0.4313	0.04301	0.58163	-0.023
Mof_C 	C 	0.67844	0.24666	0.82296	0.103
Mof_C 	C 	0.70677	0.29552	0.79161	-0.021
Mof_C 	C 	0.66199	0.24739	0.74838	0.033
Mof_C 	C 	0.5048	0.1175	0.5903	-0.057
Mof_C 	C 	0.6211	0.2244	0.6923	-0.051
Mof_C 	C 	0.08801	0.1139	0.98143	0.051
Mof_C 	C 	0.05204	0.16033	0.96281	0.097
Mof_C 	C 	0.04301	0.08163	0.9313	-0.025
Mof_C 	C 	0.24666	0.32296	0.17844	0.103
Mof_C 	C 	0.29552	0.29161	0.20677	-0.021
Mof_C 	C 	0.24739	0.24838	0.16199	0.033
Mof_C 	C 	0.1175	0.0903	0.0048	-0.061
Mof_C 	C 	0.2244	0.1923	0.1211	-0.051
Mof_C 	C 	0.41199	0.39342	0.02589	0.048
Mof_C 	C 	0.44796	0.41077	0.10829	0.096
Mof_C 	C 	0.45699	0.38829	0.03862	-0.023
Mof_C 	C 	0.25334	0.43178	0.0763	0.103
Mof_C 	C 	0.20448	0.41125	0.99609	-0.019
Mof_C 	C 	0.25261	0.4146	0.00099	0.031
Mof_C 	C 	0.3825	0.3873	0.9728	-0.057
Mof_C 	C 	0.2756	0.3967	0.9679	-0.049
Mof_C 	C 	0.86753	0.3861	0.47411	0.048
Mof_C 	C 	0.80248	0.33967	0.39171	0.096
Mof_C 	C 	0.84967	0.41837	0.46138	-0.023
Mof_C 	C 	0.85548	0.17704	0.4237	0.103
Mof_C 	C 	0.91516	0.20839	0.50391	-0.021
Mof_C 	C 	0.91361	0.25162	0.49901	0.033
Mof_C 	C 	0.9145	0.4097	0.5272	-0.057
Mof_C 	C 	0.9288	0.3077	0.5321	-0.051
Mof_C 	C 	0.63247	0.10658	0.51857	0.048
Mof_C 	C 	0.69752	0.08923	0.53719	0.096
Mof_C 	C 	0.65033	0.11171	0.5687	-0.024
Mof_C 	C 	0.64452	0.06822	0.32156	0.103
Mof_C 	C 	0.58484	0.08875	0.29323	-0.021
Mof_C 	C 	0.58639	0.0854	0.33801	0.033
Mof_C 	C 	0.5855	0.1127	0.4952	-0.057
Mof_C 	C 	0.5712	0.1033	0.3789	-0.051
Mof_C 	C 	0.02589	0.89342	0.41199	0.046
Mof_C 	C 	0.10829	0.91077	0.44796	0.096
Mof_C 	C 	0.03862	0.88829	0.45699	-0.023
Mof_C 	C 	0.0763	0.93178	0.25334	0.102
Mof_C 	C 	0.99609	0.91125	0.20448	-0.016
Mof_C 	C 	0.00099	0.9146	0.25261	0.028
Mof_C 	C 	0.9728	0.8873	0.3825	-0.055
Mof_C 	C 	0.9679	0.8967	0.2756	-0.047
Mof_C 	C 	0.98143	0.6139	0.08801	0.052
Mof_C 	C 	0.96281	0.66033	0.05204	0.098
Mof_C 	C 	0.9313	0.58163	0.04301	-0.025
Mof_C 	C 	0.17844	0.82296	0.24666	0.103
Mof_C 	C 	0.20677	0.79161	0.29552	-0.021
Mof_C 	C 	0.16199	0.74838	0.24739	0.033
Mof_C 	C 	0.0048	0.5903	0.1175	-0.062
Mof_C 	C 	0.1211	0.6923	0.2244	-0.051
Mof_C 	C 	0.51857	0.60658	0.63247	0.048
Mof_C 	C 	0.53719	0.58923	0.69752	0.096
Mof_C 	C 	0.5687	0.61171	0.65033	-0.023
Mof_C 	C 	0.32156	0.56822	0.64452	0.103
Mof_C 	C 	0.29323	0.58875	0.58484	-0.021
Mof_C 	C 	0.33801	0.5854	0.58639	0.033
Mof_C 	C 	0.4952	0.6127	0.5855	-0.057
Mof_C 	C 	0.3789	0.6033	0.5712	-0.051
Mof_C 	C 	0.47411	0.8861	0.86753	0.048
Mof_C 	C 	0.39171	0.83967	0.80248	0.096
Mof_C 	C 	0.46138	0.91837	0.84967	-0.023
Mof_C 	C 	0.4237	0.67704	0.85548	0.103
Mof_C 	C 	0.50391	0.70839	0.91516	-0.021
Mof_C 	C 	0.49901	0.75162	0.91361	0.033
Mof_C 	C 	0.5272	0.9097	0.9145	-0.057
Mof_C 	C 	0.5321	0.8077	0.9288	-0.051
Mof_C 	C 	0.13247	0.51857	0.10658	0.048
Mof_C 	C 	0.19752	0.53719	0.08923	0.096
Mof_C 	C 	0.15033	0.5687	0.11171	-0.024
Mof_C 	C 	0.14452	0.32156	0.06822	0.103
Mof_C 	C 	0.08484	0.29323	0.08875	-0.021
Mof_C 	C 	0.08639	0.33801	0.0854	0.033
Mof_C 	C 	0.0855	0.4952	0.1127	-0.057
Mof_C 	C 	0.0712	0.3789	0.1033	-0.051
Mof_C 	C 	0.36753	0.47411	0.3861	0.048
Mof_C 	C 	0.30248	0.39171	0.33967	0.096
Mof_C 	C 	0.34967	0.46138	0.41837	-0.023
Mof_C 	C 	0.35548	0.4237	0.17704	0.103
Mof_C 	C 	0.41516	0.50391	0.20839	-0.021
Mof_C 	C 	0.41361	0.49901	0.25162	0.033
Mof_C 	C 	0.4145	0.5272	0.4097	-0.057
Mof_C 	C 	0.4288	0.5321	0.3077	-0.051
Mof_C 	C 	0.91199	0.02589	0.39342	0.047
Mof_C 	C 	0.94796	0.10829	0.41077	0.096
Mof_C 	C 	0.95699	0.03862	0.38829	-0.023
Mof_C 	C 	0.75334	0.0763	0.43178	0.103
Mof_C 	C 	0.70448	0.99609	0.41125	-0.02
Mof_C 	C 	0.75261	0.00099	0.4146	0.031
Mof_C 	C 	0.8825	0.9728	0.3873	-0.056
Mof_C 	C 	0.7756	0.9679	0.3967	-0.05
Mof_C 	C 	0.58801	0.98143	0.1139	0.048
Mof_C 	C 	0.55204	0.96281	0.16033	0.096
Mof_C 	C 	0.54301	0.9313	0.08163	-0.024
Mof_C 	C 	0.74666	0.17844	0.32296	0.103
Mof_C 	C 	0.79552	0.20677	0.29161	-0.021
Mof_C 	C 	0.74739	0.16199	0.24838	0.033
Mof_C 	C 	0.6175	0.0048	0.0903	-0.057
Mof_C 	C 	0.7244	0.1211	0.1923	-0.051
Mof_C 	C 	0.6139	0.58801	0.48143	0.048
Mof_C 	C 	0.66033	0.55204	0.46281	0.096
Mof_C 	C 	0.58163	0.54301	0.4313	-0.023
Mof_C 	C 	0.82296	0.74666	0.67844	0.103
Mof_C 	C 	0.79161	0.79552	0.70677	-0.021
Mof_C 	C 	0.74838	0.74739	0.66199	0.033
Mof_C 	C 	0.5903	0.6175	0.5048	-0.057
Mof_C 	C 	0.6923	0.7244	0.6211	-0.051
Mof_C 	C 	0.89342	0.91199	0.52589	0.048
Mof_C 	C 	0.91077	0.94796	0.60829	0.096
Mof_C 	C 	0.88829	0.95699	0.53862	-0.023
Mof_C 	C 	0.93178	0.75334	0.5763	0.103
Mof_C 	C 	0.91125	0.70448	0.49609	-0.021
Mof_C 	C 	0.9146	0.75261	0.50099	0.033
Mof_C 	C 	0.8873	0.8825	0.4728	-0.057
Mof_C 	C 	0.8967	0.7756	0.4679	-0.051
Mof_C 	C 	0.8861	0.36753	0.97411	0.046
Mof_C 	C 	0.83967	0.30248	0.89171	0.096
Mof_C 	C 	0.91837	0.34967	0.96138	-0.023
Mof_C 	C 	0.67704	0.35548	0.9237	0.103
Mof_C 	C 	0.70839	0.41516	0.00391	-0.019
Mof_C 	C 	0.75162	0.41361	0.99901	0.03
Mof_C 	C 	0.9097	0.4145	0.0272	-0.055
Mof_C 	C 	0.8077	0.4288	0.0321	-0.049
Mof_C 	C 	0.60658	0.13247	0.01857	0.049
Mof_C 	C 	0.58923	0.19752	0.03719	0.096
Mof_C 	C 	0.61171	0.15033	0.0687	-0.024
Mof_C 	C 	0.56822	0.14452	0.82156	0.103
Mof_C 	C 	0.58875	0.08484	0.79323	-0.021
Mof_C 	C 	0.5854	0.08639	0.83801	0.033
Mof_C 	C 	0.6127	0.0855	0.9952	-0.059
Mof_C 	C 	0.6033	0.0712	0.8789	-0.051
Mof_C 	C 	0.60658	0.47411	0.08801	0.048
Mof_C 	C 	0.58923	0.39171	0.05204	0.096
Mof_C 	C 	0.61171	0.46138	0.04301	-0.023
Mof_C 	C 	0.56822	0.4237	0.24666	0.103
Mof_C 	C 	0.58875	0.50391	0.29552	-0.021
Mof_C 	C 	0.5854	0.49901	0.24739	0.033
Mof_C 	C 	0.6127	0.5272	0.1175	-0.057
Mof_C 	C 	0.6033	0.5321	0.2244	-0.051
Mof_C 	C 	0.8861	0.51857	0.41199	0.048
Mof_C 	C 	0.83967	0.53719	0.44796	0.096
Mof_C 	C 	0.91837	0.5687	0.45699	-0.023
Mof_C 	C 	0.67704	0.32156	0.25334	0.103
Mof_C 	C 	0.70839	0.29323	0.20448	-0.021
Mof_C 	C 	0.75162	0.33801	0.25261	0.033
Mof_C 	C 	0.9097	0.4952	0.3825	-0.057
Mof_C 	C 	0.8077	0.3789	0.2756	-0.051
Mof_C 	C 	0.89342	0.98143	0.86753	0.051
Mof_C 	C 	0.91077	0.96281	0.80248	0.097
Mof_C 	C 	0.88829	0.9313	0.84967	-0.025
Mof_C 	C 	0.93178	0.17844	0.85548	0.102
Mof_C 	C 	0.91125	0.20677	0.91516	-0.021
Mof_C 	C 	0.9146	0.16199	0.91361	0.032
Mof_C 	C 	0.8873	0.0048	0.9145	-0.061
Mof_C 	C 	0.8967	0.1211	0.9288	-0.051
Mof_C 	C 	0.6139	0.02589	0.63247	0.048
Mof_C 	C 	0.66033	0.10829	0.69752	0.096
Mof_C 	C 	0.58163	0.03862	0.65033	-0.023
Mof_C 	C 	0.82296	0.0763	0.64452	0.103
Mof_C 	C 	0.79161	0.99609	0.58484	-0.019
Mof_C 	C 	0.74838	0.00099	0.58639	0.031
Mof_C 	C 	0.5903	0.9728	0.5855	-0.057
Mof_C 	C 	0.6923	0.9679	0.5712	-0.049
Mof_C 	C 	0.98143	0.36753	0.39342	0.048
Mof_C 	C 	0.96281	0.30248	0.41077	0.096
Mof_C 	C 	0.9313	0.34967	0.38829	-0.024
Mof_C 	C 	0.17844	0.35548	0.43178	0.103
Mof_C 	C 	0.20677	0.41516	0.41125	-0.021
Mof_C 	C 	0.16199	0.41361	0.4146	0.033
Mof_C 	C 	0.0048	0.4145	0.3873	-0.058
Mof_C 	C 	0.1211	0.4288	0.3967	-0.051
Mof_C 	C 	0.02589	0.13247	0.1139	0.048
Mof_C 	C 	0.10829	0.19752	0.16033	0.096
Mof_C 	C 	0.03862	0.15033	0.08163	-0.023
Mof_C 	C 	0.0763	0.14452	0.32296	0.103
Mof_C 	C 	0.99609	0.08484	0.29161	-0.022
Mof_C 	C 	0.00099	0.08639	0.24838	0.033
Mof_C 	C 	0.9728	0.0855	0.0903	-0.057
Mof_C 	C 	0.9679	0.0712	0.1923	-0.051
Mof_C 	C 	0.47411	0.58801	0.10658	0.048
Mof_C 	C 	0.39171	0.55204	0.08923	0.096
Mof_C 	C 	0.46138	0.54301	0.11171	-0.024
Mof_C 	C 	0.4237	0.74666	0.06822	0.103
Mof_C 	C 	0.50391	0.79552	0.08875	-0.021
Mof_C 	C 	0.49901	0.74739	0.0854	0.033
Mof_C 	C 	0.5272	0.6175	0.1127	-0.057
Mof_C 	C 	0.5321	0.7244	0.1033	-0.051
Mof_C 	C 	0.51857	0.91199	0.3861	0.048
Mof_C 	C 	0.53719	0.94796	0.33967	0.096
Mof_C 	C 	0.5687	0.95699	0.41837	-0.023
Mof_C 	C 	0.32156	0.75334	0.17704	0.103
Mof_C 	C 	0.29323	0.70448	0.20839	-0.021
Mof_C 	C 	0.33801	0.75261	0.25162	0.033
Mof_C 	C 	0.4952	0.8825	0.4097	-0.057
Mof_C 	C 	0.3789	0.7756	0.3077	-0.051
Mof_C 	C 	0.91199	0.8861	0.01857	0.051
Mof_C 	C 	0.94796	0.83967	0.03719	0.097
Mof_C 	C 	0.95699	0.91837	0.0687	-0.025
Mof_C 	C 	0.75334	0.67704	0.82156	0.103
Mof_C 	C 	0.70448	0.70839	0.79323	-0.021
Mof_C 	C 	0.75261	0.75162	0.83801	0.033
Mof_C 	C 	0.8825	0.9097	0.9952	-0.061
Mof_C 	C 	0.7756	0.8077	0.8789	-0.051
Mof_C 	C 	0.58801	0.60658	0.97411	0.048
Mof_C 	C 	0.55204	0.58923	0.89171	0.096
Mof_C 	C 	0.54301	0.61171	0.96138	-0.023
Mof_C 	C 	0.74666	0.56822	0.9237	0.103
Mof_C 	C 	0.79552	0.58875	0.00391	-0.019
Mof_C 	C 	0.74739	0.5854	0.99901	0.031
Mof_C 	C 	0.6175	0.6127	0.0272	-0.057
Mof_C 	C 	0.7244	0.6033	0.0321	-0.049
Mof_C 	C 	0.13247	0.6139	0.52589	0.048
Mof_C 	C 	0.19752	0.66033	0.60829	0.096
Mof_C 	C 	0.15033	0.58163	0.53862	-0.023
Mof_C 	C 	0.14452	0.82296	0.5763	0.103
Mof_C 	C 	0.08484	0.79161	0.49609	-0.021
Mof_C 	C 	0.08639	0.74838	0.50099	0.033
Mof_C 	C 	0.0855	0.5903	0.4728	-0.057
Mof_C 	C 	0.0712	0.6923	0.4679	-0.051
Mof_C 	C 	0.36753	0.89342	0.48143	0.048
Mof_C 	C 	0.30248	0.91077	0.46281	0.096
Mof_C 	C 	0.34967	0.88829	0.4313	-0.024
Mof_C 	C 	0.35548	0.93178	0.67844	0.103
Mof_C 	C 	0.41516	0.91125	0.70677	-0.021
Mof_C 	C 	0.41361	0.9146	0.66199	0.033
Mof_C 	C 	0.4145	0.8873	0.5048	-0.057
Mof_C 	C 	0.4288	0.8967	0.6211	-0.051
Mof_N 	N 	0.95679	0.07782	0.79549	-0.273
Mof_N 	N 	0.90925	0.10079	0.51974	-0.271
Mof_N 	N 	0.92849	0.09213	0.59414	-0.284
Mof_N 	N 	0.94629	0.07273	0.71604	-0.284
Mof_N 	N 	0.0106	0.0928	0.6756	-0.167
Mof_N 	N 	0.049	0.1064	0.6594	-0.078
Mof_N 	N 	0.78233	0.1613	0.70451	-0.271
Mof_N 	N 	0.08105	0.38951	0.98026	-0.271
Mof_N 	N 	0.99799	0.33435	0.90586	-0.286
Mof_N 	N 	0.85669	0.23025	0.78396	-0.284
Mof_N 	N 	0.9172	0.335	0.8244	-0.167
Mof_N 	N 	0.947	0.3896	0.8406	-0.078
Mof_N 	N 	0.71767	0.42218	0.37897	-0.271
Mof_N 	N 	0.41895	0.39921	0.30846	-0.271
Mof_N 	N 	0.50201	0.40787	0.33636	-0.284
Mof_N 	N 	0.64331	0.42727	0.37356	-0.284
Mof_N 	N 	0.5828	0.4072	0.4178	-0.167
Mof_N 	N 	0.553	0.3936	0.4426	-0.078
Mof_N 	N 	0.54321	0.3387	0.12103	-0.271
Mof_N 	N 	0.59075	0.11049	0.19154	-0.271
Mof_N 	N 	0.57151	0.16565	0.16364	-0.284
Mof_N 	N 	0.55371	0.26975	0.12644	-0.284
Mof_N 	N 	0.4894	0.165	0.0822	-0.167
Mof_N 	N 	0.451	0.1104	0.0574	-0.078
Mof_N 	N 	0.87897	0.71767	0.92218	-0.271
Mof_N 	N 	0.80846	0.41895	0.89921	-0.271
Mof_N 	N 	0.83636	0.50201	0.90787	-0.284
Mof_N 	N 	0.87356	0.64331	0.92727	-0.284
Mof_N 	N 	0.9178	0.5828	0.9072	-0.167
Mof_N 	N 	0.9426	0.553	0.8936	-0.078
Mof_N 	N 	0.62103	0.54321	0.8387	-0.271
Mof_N 	N 	0.69154	0.59075	0.61049	-0.271
Mof_N 	N 	0.66364	0.57151	0.66565	-0.284
Mof_N 	N 	0.62644	0.55371	0.76975	-0.284
Mof_N 	N 	0.5822	0.4894	0.665	-0.167
Mof_N 	N 	0.5574	0.451	0.6104	-0.078
Mof_N 	N 	0.29549	0.95679	0.57782	-0.272
Mof_N 	N 	0.01974	0.90925	0.60079	-0.272
Mof_N 	N 	0.09414	0.92849	0.59213	-0.283
Mof_N 	N 	0.21604	0.94629	0.57273	-0.284
Mof_N 	N 	0.1756	0.0106	0.5928	-0.166
Mof_N 	N 	0.1594	0.049	0.6064	-0.078
Mof_N 	N 	0.20451	0.78233	0.6613	-0.271
Mof_N 	N 	0.48026	0.08105	0.88951	-0.271
Mof_N 	N 	0.40586	0.99799	0.83435	-0.284
Mof_N 	N 	0.28396	0.85669	0.73025	-0.284
Mof_N 	N 	0.3244	0.9172	0.835	-0.167
Mof_N 	N 	0.3406	0.947	0.8896	-0.078
Mof_N 	N 	0.1613	0.20451	0.28233	-0.271
Mof_N 	N 	0.38951	0.48026	0.58105	-0.271
Mof_N 	N 	0.33435	0.40586	0.49799	-0.284
Mof_N 	N 	0.23025	0.28396	0.35669	-0.284
Mof_N 	N 	0.335	0.3244	0.4172	-0.167
Mof_N 	N 	0.3896	0.3406	0.447	-0.078
Mof_N 	N 	0.07782	0.29549	0.45679	-0.271
Mof_N 	N 	0.10079	0.01974	0.40925	-0.271
Mof_N 	N 	0.09213	0.09414	0.42849	-0.284
Mof_N 	N 	0.07273	0.21604	0.44629	-0.284
Mof_N 	N 	0.0928	0.1756	0.5106	-0.166
Mof_N 	N 	0.1064	0.1594	0.549	-0.078
Mof_N 	N 	0.3387	0.62103	0.04321	-0.272
Mof_N 	N 	0.11049	0.69154	0.09075	-0.272
Mof_N 	N 	0.16565	0.66364	0.07151	-0.283
Mof_N 	N 	0.26975	0.62644	0.05371	-0.284
Mof_N 	N 	0.165	0.5822	0.9894	-0.167
Mof_N 	N 	0.1104	0.5574	0.951	-0.078
Mof_N 	N 	0.42218	0.87897	0.21767	-0.271
Mof_N 	N 	0.39921	0.80846	0.91895	-0.271
Mof_N 	N 	0.40787	0.83636	0.00201	-0.284
Mof_N 	N 	0.42727	0.87356	0.14331	-0.284
Mof_N 	N 	0.4072	0.9178	0.0828	-0.167
Mof_N 	N 	0.3936	0.9426	0.053	-0.078
Mof_N 	N 	0.42218	0.54321	0.70451	-0.271
Mof_N 	N 	0.39921	0.59075	0.98026	-0.271
Mof_N 	N 	0.40787	0.57151	0.90586	-0.284
Mof_N 	N 	0.42727	0.55371	0.78396	-0.284
Mof_N 	N 	0.4072	0.4894	0.8244	-0.167
Mof_N 	N 	0.3936	0.451	0.8406	-0.078
Mof_N 	N 	0.3387	0.71767	0.79549	-0.271
Mof_N 	N 	0.11049	0.41895	0.51974	-0.271
Mof_N 	N 	0.16565	0.50201	0.59414	-0.284
Mof_N 	N 	0.26975	0.64331	0.71604	-0.284
Mof_N 	N 	0.165	0.5828	0.6756	-0.167
Mof_N 	N 	0.1104	0.553	0.6594	-0.078
Mof_N 	N 	0.07782	0.78233	0.12103	-0.271
Mof_N 	N 	0.10079	0.08105	0.19154	-0.271
Mof_N 	N 	0.09213	0.99799	0.16364	-0.285
Mof_N 	N 	0.07273	0.85669	0.12644	-0.285
Mof_N 	N 	0.0928	0.9172	0.0822	-0.167
Mof_N 	N 	0.1064	0.947	0.0574	-0.078
Mof_N 	N 	0.1613	0.95679	0.37897	-0.272
Mof_N 	N 	0.38951	0.90925	0.30846	-0.271
Mof_N 	N 	0.33435	0.92849	0.33636	-0.284
Mof_N 	N 	0.23025	0.94629	0.37356	-0.284
Mof_N 	N 	0.335	0.0106	0.4178	-0.167
Mof_N 	N 	0.3896	0.049	0.4426	-0.078
Mof_N 	N 	0.78233	0.62103	0.57782	-0.271
Mof_N 	N 	0.08105	0.69154	0.60079	-0.271
Mof_N 	N 	0.99799	0.66364	0.59213	-0.284
Mof_N 	N 	0.85669	0.62644	0.57273	-0.284
Mof_N 	N 	0.9172	0.5822	0.5928	-0.167
Mof_N 	N 	0.947	0.5574	0.6064	-0.078
Mof_N 	N 	0.95679	0.87897	0.6613	-0.271
Mof_N 	N 	0.90925	0.80846	0.88951	-0.271
Mof_N 	N 	0.92849	0.83636	0.83435	-0.284
Mof_N 	N 	0.94629	0.87356	0.73025	-0.284
Mof_N 	N 	0.0106	0.9178	0.835	-0.166
Mof_N 	N 	0.049	0.9426	0.8896	-0.078
Mof_N 	N 	0.54321	0.20451	0.92218	-0.271
Mof_N 	N 	0.59075	0.48026	0.89921	-0.271
Mof_N 	N 	0.57151	0.40586	0.90787	-0.284
Mof_N 	N 	0.55371	0.28396	0.92727	-0.284
Mof_N 	N 	0.4894	0.3244	0.9072	-0.167
Mof_N 	N 	0.451	0.3406	0.8936	-0.078
Mof_N 	N 	0.71767	0.29549	0.8387	-0.271
Mof_N 	N 	0.41895	0.01974	0.61049	-0.271
Mof_N 	N 	0.50201	0.09414	0.66565	-0.284
Mof_N 	N 	0.64331	0.21604	0.76975	-0.284
Mof_N 	N 	0.5828	0.1756	0.665	-0.167
Mof_N 	N 	0.553	0.1594	0.6104	-0.078
Mof_N 	N 	0.29549	0.3387	0.21767	-0.271
Mof_N 	N 	0.01974	0.11049	0.91895	-0.271
Mof_N 	N 	0.09414	0.16565	0.00201	-0.285
Mof_N 	N 	0.21604	0.26975	0.14331	-0.284
Mof_N 	N 	0.1756	0.165	0.0828	-0.167
Mof_N 	N 	0.1594	0.1104	0.053	-0.078
Mof_N 	N 	0.20451	0.42218	0.04321	-0.272
Mof_N 	N 	0.48026	0.39921	0.09075	-0.271
Mof_N 	N 	0.40586	0.40787	0.07151	-0.284
Mof_N 	N 	0.28396	0.42727	0.05371	-0.284
Mof_N 	N 	0.3244	0.4072	0.9894	-0.167
Mof_N 	N 	0.3406	0.3936	0.951	-0.078
Mof_N 	N 	0.87897	0.1613	0.45679	-0.271
Mof_N 	N 	0.80846	0.38951	0.40925	-0.271
Mof_N 	N 	0.83636	0.33435	0.42849	-0.284
Mof_N 	N 	0.87356	0.23025	0.44629	-0.284
Mof_N 	N 	0.9178	0.335	0.5106	-0.167
Mof_N 	N 	0.9426	0.3896	0.549	-0.078
Mof_N 	N 	0.62103	0.07782	0.28233	-0.271
Mof_N 	N 	0.69154	0.10079	0.58105	-0.271
Mof_N 	N 	0.66364	0.09213	0.49799	-0.284
Mof_N 	N 	0.62644	0.07273	0.35669	-0.284
Mof_N 	N 	0.5822	0.0928	0.4172	-0.167
Mof_N 	N 	0.5574	0.1064	0.447	-0.078
Mof_N 	N 	0.04321	0.92218	0.20451	-0.273
Mof_N 	N 	0.09075	0.89921	0.48026	-0.271
Mof_N 	N 	0.07151	0.90787	0.40586	-0.284
Mof_N 	N 	0.05371	0.92727	0.28396	-0.284
Mof_N 	N 	0.9894	0.9072	0.3244	-0.167
Mof_N 	N 	0.951	0.8936	0.3406	-0.078
Mof_N 	N 	0.21767	0.8387	0.29549	-0.271
Mof_N 	N 	0.91895	0.61049	0.01974	-0.271
Mof_N 	N 	0.00201	0.66565	0.09414	-0.286
Mof_N 	N 	0.14331	0.76975	0.21604	-0.284
Mof_N 	N 	0.0828	0.665	0.1756	-0.167
Mof_N 	N 	0.053	0.6104	0.1594	-0.078
Mof_N 	N 	0.28233	0.57782	0.62103	-0.271
Mof_N 	N 	0.58105	0.60079	0.69154	-0.271
Mof_N 	N 	0.49799	0.59213	0.66364	-0.284
Mof_N 	N 	0.35669	0.57273	0.62644	-0.284
Mof_N 	N 	0.4172	0.5928	0.5822	-0.167
Mof_N 	N 	0.447	0.6064	0.5574	-0.078
Mof_N 	N 	0.45679	0.6613	0.87897	-0.271
Mof_N 	N 	0.40925	0.88951	0.80846	-0.271
Mof_N 	N 	0.42849	0.83435	0.83636	-0.284
Mof_N 	N 	0.44629	0.73025	0.87356	-0.284
Mof_N 	N 	0.5106	0.835	0.9178	-0.167
Mof_N 	N 	0.549	0.8896	0.9426	-0.078
Mof_N 	N 	0.12103	0.28233	0.07782	-0.271
Mof_N 	N 	0.19154	0.58105	0.10079	-0.271
Mof_N 	N 	0.16364	0.49799	0.09213	-0.284
Mof_N 	N 	0.12644	0.35669	0.07273	-0.284
Mof_N 	N 	0.0822	0.4172	0.0928	-0.167
Mof_N 	N 	0.0574	0.447	0.1064	-0.078
Mof_N 	N 	0.37897	0.45679	0.1613	-0.271
Mof_N 	N 	0.30846	0.40925	0.38951	-0.271
Mof_N 	N 	0.33636	0.42849	0.33435	-0.284
Mof_N 	N 	0.37356	0.44629	0.23025	-0.284
Mof_N 	N 	0.4178	0.5106	0.335	-0.167
Mof_N 	N 	0.4426	0.549	0.3896	-0.078
Mof_N 	N 	0.70451	0.04321	0.42218	-0.272
Mof_N 	N 	0.98026	0.09075	0.39921	-0.272
Mof_N 	N 	0.90586	0.07151	0.40787	-0.283
Mof_N 	N 	0.78396	0.05371	0.42727	-0.284
Mof_N 	N 	0.8244	0.9894	0.4072	-0.166
Mof_N 	N 	0.8406	0.951	0.3936	-0.078
Mof_N 	N 	0.79549	0.21767	0.3387	-0.271
Mof_N 	N 	0.51974	0.91895	0.11049	-0.271
Mof_N 	N 	0.59414	0.00201	0.16565	-0.284
Mof_N 	N 	0.71604	0.14331	0.26975	-0.284
Mof_N 	N 	0.6756	0.0828	0.165	-0.167
Mof_N 	N 	0.6594	0.053	0.1104	-0.078
Mof_N 	N 	0.8387	0.79549	0.71767	-0.271
Mof_N 	N 	0.61049	0.51974	0.41895	-0.271
Mof_N 	N 	0.66565	0.59414	0.50201	-0.284
Mof_N 	N 	0.76975	0.71604	0.64331	-0.284
Mof_N 	N 	0.665	0.6756	0.5828	-0.167
Mof_N 	N 	0.6104	0.6594	0.553	-0.078
Mof_N 	N 	0.92218	0.70451	0.54321	-0.271
Mof_N 	N 	0.89921	0.98026	0.59075	-0.271
Mof_N 	N 	0.90787	0.90586	0.57151	-0.284
Mof_N 	N 	0.92727	0.78396	0.55371	-0.284
Mof_N 	N 	0.9072	0.8244	0.4894	-0.166
Mof_N 	N 	0.8936	0.8406	0.451	-0.078
Mof_N 	N 	0.6613	0.37897	0.95679	-0.272
Mof_N 	N 	0.88951	0.30846	0.90925	-0.272
Mof_N 	N 	0.83435	0.33636	0.92849	-0.283
Mof_N 	N 	0.73025	0.37356	0.94629	-0.284
Mof_N 	N 	0.835	0.4178	0.0106	-0.167
Mof_N 	N 	0.8896	0.4426	0.049	-0.078
Mof_N 	N 	0.57782	0.12103	0.78233	-0.271
Mof_N 	N 	0.60079	0.19154	0.08105	-0.271
Mof_N 	N 	0.59213	0.16364	0.99799	-0.284
Mof_N 	N 	0.57273	0.12644	0.85669	-0.284
Mof_N 	N 	0.5928	0.0822	0.9172	-0.167
Mof_N 	N 	0.6064	0.0574	0.947	-0.078
Mof_N 	N 	0.57782	0.45679	0.29549	-0.271
Mof_N 	N 	0.60079	0.40925	0.01974	-0.271
Mof_N 	N 	0.59213	0.42849	0.09414	-0.284
Mof_N 	N 	0.57273	0.44629	0.21604	-0.284
Mof_N 	N 	0.5928	0.5106	0.1756	-0.167
Mof_N 	N 	0.6064	0.549	0.1594	-0.078
Mof_N 	N 	0.6613	0.28233	0.20451	-0.271
Mof_N 	N 	0.88951	0.58105	0.48026	-0.271
Mof_N 	N 	0.83435	0.49799	0.40586	-0.284
Mof_N 	N 	0.73025	0.35669	0.28396	-0.284
Mof_N 	N 	0.835	0.4172	0.3244	-0.167
Mof_N 	N 	0.8896	0.447	0.3406	-0.078
Mof_N 	N 	0.92218	0.21767	0.87897	-0.271
Mof_N 	N 	0.89921	0.91895	0.80846	-0.271
Mof_N 	N 	0.90787	0.00201	0.83636	-0.285
Mof_N 	N 	0.92727	0.14331	0.87356	-0.285
Mof_N 	N 	0.9072	0.0828	0.9178	-0.167
Mof_N 	N 	0.8936	0.053	0.9426	-0.078
Mof_N 	N 	0.8387	0.04321	0.62103	-0.272
Mof_N 	N 	0.61049	0.09075	0.69154	-0.271
Mof_N 	N 	0.66565	0.07151	0.66364	-0.284
Mof_N 	N 	0.76975	0.05371	0.62644	-0.284
Mof_N 	N 	0.665	0.9894	0.5822	-0.167
Mof_N 	N 	0.6104	0.951	0.5574	-0.078
Mof_N 	N 	0.21767	0.37897	0.42218	-0.271
Mof_N 	N 	0.91895	0.30846	0.39921	-0.271
Mof_N 	N 	0.00201	0.33636	0.40787	-0.284
Mof_N 	N 	0.14331	0.37356	0.42727	-0.284
Mof_N 	N 	0.0828	0.4178	0.4072	-0.167
Mof_N 	N 	0.053	0.4426	0.3936	-0.078
Mof_N 	N 	0.04321	0.12103	0.3387	-0.271
Mof_N 	N 	0.09075	0.19154	0.11049	-0.271
Mof_N 	N 	0.07151	0.16364	0.16565	-0.284
Mof_N 	N 	0.05371	0.12644	0.26975	-0.284
Mof_N 	N 	0.9894	0.0822	0.165	-0.166
Mof_N 	N 	0.951	0.0574	0.1104	-0.078
Mof_N 	N 	0.45679	0.79549	0.07782	-0.271
Mof_N 	N 	0.40925	0.51974	0.10079	-0.271
Mof_N 	N 	0.42849	0.59414	0.09213	-0.284
Mof_N 	N 	0.44629	0.71604	0.07273	-0.284
Mof_N 	N 	0.5106	0.6756	0.0928	-0.167
Mof_N 	N 	0.549	0.6594	0.1064	-0.078
Mof_N 	N 	0.28233	0.70451	0.1613	-0.271
Mof_N 	N 	0.58105	0.98026	0.38951	-0.271
Mof_N 	N 	0.49799	0.90586	0.33435	-0.284
Mof_N 	N 	0.35669	0.78396	0.23025	-0.284
Mof_N 	N 	0.4172	0.8244	0.335	-0.167
Mof_N 	N 	0.447	0.8406	0.3896	-0.078
Mof_N 	N 	0.70451	0.6613	0.78233	-0.271
Mof_N 	N 	0.98026	0.88951	0.08105	-0.271
Mof_N 	N 	0.90586	0.83435	0.99799	-0.285
Mof_N 	N 	0.78396	0.73025	0.85669	-0.284
Mof_N 	N 	0.8244	0.835	0.9172	-0.167
Mof_N 	N 	0.8406	0.8896	0.947	-0.078
Mof_N 	N 	0.79549	0.57782	0.95679	-0.272
Mof_N 	N 	0.51974	0.60079	0.90925	-0.271
Mof_N 	N 	0.59414	0.59213	0.92849	-0.284
Mof_N 	N 	0.71604	0.57273	0.94629	-0.284
Mof_N 	N 	0.6756	0.5928	0.0106	-0.167
Mof_N 	N 	0.6594	0.6064	0.049	-0.078
Mof_N 	N 	0.12103	0.8387	0.54321	-0.271
Mof_N 	N 	0.19154	0.61049	0.59075	-0.271
Mof_N 	N 	0.16364	0.66565	0.57151	-0.284
Mof_N 	N 	0.12644	0.76975	0.55371	-0.284
Mof_N 	N 	0.0822	0.665	0.4894	-0.167
Mof_N 	N 	0.0574	0.6104	0.451	-0.078
Mof_N 	N 	0.37897	0.92218	0.71767	-0.271
Mof_N 	N 	0.30846	0.89921	0.41895	-0.271
Mof_N 	N 	0.33636	0.90787	0.50201	-0.284
Mof_N 	N 	0.37356	0.92727	0.64331	-0.284
Mof_N 	N 	0.4178	0.9072	0.5828	-0.167
Mof_N 	N 	0.4426	0.8936	0.553	-0.078
_end
