data_functionalizedCrystal
_audit_creation_method	'EQeq! by Chris Wilmer'
_symmetry_space_group_name_H-M	'P1'
_symmetry_Int_Tables_number	1
_symmetry_cell_setting	triclinic
loop_
_symmetry_equiv_pos_as_xyz
  x,y,z
_cell_length_a	12.1323
_cell_length_b	12.3676
_cell_length_c	13.3757
_cell_angle_alpha	101.748
_cell_angle_beta	99.025
_cell_angle_gamma	105.984
loop_
_atom_site_label
_atom_site_type_symbol
_atom_site_fract_x
_atom_site_fract_y
_atom_site_fract_z
_atom_site_charge
Mof_Tb	Tb	0.32646	0.48121	0.45432	1.925
Mof_Tb	Tb	0.67354	0.51879	0.54568	1.925
Mof_H 	H 	0.0445	0.3564	0.1091	0.06
Mof_H 	H 	0.1973	0.699	0.2123	0.039
Mof_H 	H 	0.8931	0.2724	0.9391	0.059
Mof_H 	H 	0.5955	0.2285	0.5397	0.024
Mof_H 	H 	0.2584	0.0611	0.3845	0.025
Mof_H 	H 	0.717	0.1135	0.6078	0.063
Mof_H 	H 	0.3652	0.4701	0.1343	0.049
Mof_H 	H 	0.7141	0.5371	0.2159	0.007
Mof_H 	H 	0.2714	0.4539	0.9496	0.071
Mof_H 	H 	0.9555	0.6436	0.8909	0.06
Mof_H 	H 	0.8027	0.301	0.7877	0.039
Mof_H 	H 	0.1069	0.7276	0.0609	0.059
Mof_H 	H 	0.4045	0.7715	0.4603	0.024
Mof_H 	H 	0.7416	0.9389	0.6155	0.025
Mof_H 	H 	0.283	0.8865	0.3922	0.063
Mof_H 	H 	0.6348	0.5299	0.8657	0.049
Mof_H 	H 	0.2859	0.4629	0.7841	0.007
Mof_H 	H 	0.7286	0.5461	0.0504	0.071
Mof_C 	C 	0.1915	0.508	0.2779	0.325
Mof_C 	C 	0.9895	0.4433	0.007	0.022
Mof_C 	C 	0.0538	0.4306	0.0997	-0.056
Mof_C 	C 	0.1287	0.5248	0.1753	-0.062
Mof_C 	C 	0.1464	0.6351	0.16	-0.002
Mof_C 	C 	0.9087	0.3471	0.9294	-0.089
Mof_C 	C 	0.4093	0.2783	0.4562	0.448
Mof_C 	C 	0.549	0.0519	0.5211	0.016
Mof_C 	C 	0.533	0.1596	0.5121	-0.011
Mof_C 	C 	0.4261	0.1626	0.4629	-0.131
Mof_C 	C 	0.3304	0.0585	0.4181	0.034
Mof_C 	C 	0.6552	0.0452	0.5755	-0.104
Mof_C 	C 	0.5251	0.4959	0.3014	0.475
Mof_C 	C 	0.4443	0.4866	0.013	0.023
Mof_C 	C 	0.438	0.4836	0.1166	-0.009
Mof_C 	C 	0.5348	0.4997	0.1915	-0.14
Mof_C 	C 	0.6467	0.5247	0.1653	0.049
Mof_C 	C 	0.3451	0.4696	0.9336	-0.113
Mof_C 	C 	0.8085	0.492	0.7221	0.325
Mof_C 	C 	0.0105	0.5567	0.993	0.022
Mof_C 	C 	0.9462	0.5694	0.9003	-0.056
Mof_C 	C 	0.8713	0.4752	0.8247	-0.062
Mof_C 	C 	0.8536	0.3649	0.84	-0.002
Mof_C 	C 	0.0913	0.6529	0.0706	-0.089
Mof_C 	C 	0.5907	0.7217	0.5438	0.448
Mof_C 	C 	0.451	0.9481	0.4789	0.016
Mof_C 	C 	0.467	0.8404	0.4879	-0.011
Mof_C 	C 	0.5739	0.8374	0.5371	-0.131
Mof_C 	C 	0.6696	0.9415	0.5819	0.034
Mof_C 	C 	0.3448	0.9548	0.4245	-0.104
Mof_C 	C 	0.4749	0.5041	0.6986	0.475
Mof_C 	C 	0.5557	0.5134	0.987	0.023
Mof_C 	C 	0.562	0.5164	0.8834	-0.009
Mof_C 	C 	0.4652	0.5003	0.8085	-0.14
Mof_C 	C 	0.3533	0.4753	0.8347	0.049
Mof_C 	C 	0.6549	0.5304	0.0664	-0.113
Mof_O 	O 	0.1717	0.4087	0.2914	-0.436
Mof_O 	O 	0.2627	0.5955	0.3413	-0.45
Mof_O 	O 	0.3084	0.2786	0.4214	-0.489
Mof_O 	O 	0.4971	0.3693	0.4891	-0.588
Mof_O 	O 	0.4232	0.4631	0.3173	-0.497
Mof_O 	O 	0.6198	0.5252	0.3686	-0.537
Mof_O 	O 	0.8283	0.5913	0.7086	-0.436
Mof_O 	O 	0.7373	0.4045	0.6587	-0.45
Mof_O 	O 	0.6916	0.7214	0.5786	-0.489
Mof_O 	O 	0.5029	0.6307	0.5109	-0.588
Mof_O 	O 	0.5768	0.5369	0.6827	-0.497
Mof_O 	O 	0.3802	0.4748	0.6314	-0.537
_end
