data_functionalizedCrystal
_audit_creation_method	'EQeq! by Chris Wilmer'
_symmetry_space_group_name_H-M	'P1'
_symmetry_Int_Tables_number	1
_symmetry_cell_setting	triclinic
loop_
_symmetry_equiv_pos_as_xyz
  x,y,z
_cell_length_a	23.1885
_cell_length_b	23.1885
_cell_length_c	23.1885
_cell_angle_alpha	90
_cell_angle_beta	90
_cell_angle_gamma	90
loop_
_atom_site_label
_atom_site_type_symbol
_atom_site_fract_x
_atom_site_fract_y
_atom_site_fract_z
_atom_site_charge
Mof_O 	O 	0.324	0.2232	0.2919	-0.225
Mof_N 	N 	0.324	0.221	0.3492	-0.068
Mof_C 	C 	0.362	0.2528	0.3781	0.062
Mof_H 	H 	0.3876	0.2761	0.3578	0.028
Mof_C 	C 	0.3641	0.252	0.4359	-0.112
Mof_H 	H 	0.3907	0.2751	0.4549	0.068
Mof_C 	C 	0.3267	0.2166	0.4684	0.045
Mof_C 	C 	0.2898	0.1828	0.4369	-0.092
Mof_H 	H 	0.2649	0.1582	0.4564	0.068
Mof_C 	C 	0.2881	0.1839	0.376	0.035
Mof_H 	H 	0.2633	0.1601	0.3554	0.045
Mof_O 	O 	0.824	0.7232	0.7919	-0.225
Mof_N 	N 	0.824	0.721	0.8492	-0.068
Mof_C 	C 	0.862	0.7528	0.8781	0.062
Mof_H 	H 	0.8876	0.7761	0.8578	0.028
Mof_C 	C 	0.8641	0.752	0.9359	-0.112
Mof_H 	H 	0.8907	0.7751	0.9549	0.068
Mof_C 	C 	0.8267	0.7166	0.9684	0.045
Mof_C 	C 	0.7898	0.6828	0.9369	-0.092
Mof_H 	H 	0.7649	0.6582	0.9564	0.068
Mof_C 	C 	0.7881	0.6839	0.876	0.035
Mof_H 	H 	0.7633	0.6601	0.8554	0.045
Mof_O 	O 	0.676	0.7768	0.2919	-0.225
Mof_N 	N 	0.676	0.779	0.3492	-0.068
Mof_C 	C 	0.638	0.7472	0.3781	0.061
Mof_H 	H 	0.6124	0.7239	0.3578	0.027
Mof_C 	C 	0.6359	0.748	0.4359	-0.113
Mof_H 	H 	0.6093	0.7249	0.4549	0.067
Mof_C 	C 	0.6733	0.7834	0.4684	0.044
Mof_C 	C 	0.7102	0.8172	0.4369	-0.093
Mof_H 	H 	0.7351	0.8418	0.4564	0.067
Mof_C 	C 	0.7119	0.8161	0.376	0.034
Mof_H 	H 	0.7367	0.8399	0.3554	0.044
Mof_O 	O 	0.176	0.2768	0.7919	-0.226
Mof_N 	N 	0.176	0.279	0.8492	-0.069
Mof_C 	C 	0.138	0.2472	0.8781	0.061
Mof_H 	H 	0.1124	0.2239	0.8578	0.027
Mof_C 	C 	0.1359	0.248	0.9359	-0.113
Mof_H 	H 	0.1093	0.2249	0.9549	0.067
Mof_C 	C 	0.1733	0.2834	0.9684	0.044
Mof_C 	C 	0.2102	0.3172	0.9369	-0.093
Mof_H 	H 	0.2351	0.3418	0.9564	0.067
Mof_C 	C 	0.2119	0.3161	0.876	0.034
Mof_H 	H 	0.2367	0.3399	0.8554	0.044
Mof_O 	O 	0.676	0.2232	0.7081	-0.226
Mof_N 	N 	0.676	0.221	0.6508	-0.069
Mof_C 	C 	0.638	0.2528	0.6219	0.061
Mof_H 	H 	0.6124	0.2761	0.6422	0.027
Mof_C 	C 	0.6359	0.252	0.5641	-0.113
Mof_H 	H 	0.6093	0.2751	0.5451	0.067
Mof_C 	C 	0.6733	0.2166	0.5316	0.044
Mof_C 	C 	0.7102	0.1828	0.5631	-0.093
Mof_H 	H 	0.7351	0.1582	0.5436	0.067
Mof_C 	C 	0.7119	0.1839	0.624	0.034
Mof_H 	H 	0.7367	0.1601	0.6446	0.044
Mof_O 	O 	0.176	0.7232	0.2081	-0.226
Mof_N 	N 	0.176	0.721	0.1508	-0.069
Mof_C 	C 	0.138	0.7528	0.1219	0.061
Mof_H 	H 	0.1124	0.7761	0.1422	0.027
Mof_C 	C 	0.1359	0.752	0.0641	-0.113
Mof_H 	H 	0.1093	0.7751	0.0451	0.067
Mof_C 	C 	0.1733	0.7166	0.0316	0.044
Mof_C 	C 	0.2102	0.6828	0.0631	-0.093
Mof_H 	H 	0.2351	0.6582	0.0436	0.067
Mof_C 	C 	0.2119	0.6839	0.124	0.034
Mof_H 	H 	0.2367	0.6601	0.1446	0.044
Mof_O 	O 	0.324	0.7768	0.7081	-0.226
Mof_N 	N 	0.324	0.779	0.6508	-0.069
Mof_C 	C 	0.362	0.7472	0.6219	0.061
Mof_H 	H 	0.3876	0.7239	0.6422	0.027
Mof_C 	C 	0.3641	0.748	0.5641	-0.113
Mof_H 	H 	0.3907	0.7249	0.5451	0.067
Mof_C 	C 	0.3267	0.7834	0.5316	0.044
Mof_C 	C 	0.2898	0.8172	0.5631	-0.093
Mof_H 	H 	0.2649	0.8418	0.5436	0.067
Mof_C 	C 	0.2881	0.8161	0.624	0.034
Mof_H 	H 	0.2633	0.8399	0.6446	0.044
Mof_O 	O 	0.824	0.2768	0.2081	-0.226
Mof_N 	N 	0.824	0.279	0.1508	-0.069
Mof_C 	C 	0.862	0.2472	0.1219	0.061
Mof_H 	H 	0.8876	0.2239	0.1422	0.027
Mof_C 	C 	0.8641	0.248	0.0641	-0.113
Mof_H 	H 	0.8907	0.2249	0.0451	0.067
Mof_C 	C 	0.8267	0.2834	0.0316	0.044
Mof_C 	C 	0.7898	0.3172	0.0631	-0.093
Mof_H 	H 	0.7649	0.3418	0.0436	0.067
Mof_C 	C 	0.7881	0.3161	0.124	0.034
Mof_H 	H 	0.7633	0.3399	0.1446	0.044
Mof_O 	O 	0.2919	0.324	0.2232	-0.226
Mof_N 	N 	0.3492	0.324	0.221	-0.069
Mof_C 	C 	0.3781	0.362	0.2528	0.061
Mof_H 	H 	0.3578	0.3876	0.2761	0.027
Mof_C 	C 	0.4359	0.3641	0.252	-0.113
Mof_H 	H 	0.4549	0.3907	0.2751	0.067
Mof_C 	C 	0.4684	0.3267	0.2166	0.044
Mof_C 	C 	0.4369	0.2898	0.1828	-0.093
Mof_H 	H 	0.4564	0.2649	0.1582	0.067
Mof_C 	C 	0.376	0.2881	0.1839	0.034
Mof_H 	H 	0.3554	0.2633	0.1601	0.044
Mof_O 	O 	0.7919	0.824	0.7232	-0.226
Mof_N 	N 	0.8492	0.824	0.721	-0.069
Mof_C 	C 	0.8781	0.862	0.7528	0.061
Mof_H 	H 	0.8578	0.8876	0.7761	0.027
Mof_C 	C 	0.9359	0.8641	0.752	-0.113
Mof_H 	H 	0.9549	0.8907	0.7751	0.067
Mof_C 	C 	0.9684	0.8267	0.7166	0.044
Mof_C 	C 	0.9369	0.7898	0.6828	-0.093
Mof_H 	H 	0.9564	0.7649	0.6582	0.067
Mof_C 	C 	0.876	0.7881	0.6839	0.034
Mof_H 	H 	0.8554	0.7633	0.6601	0.044
Mof_O 	O 	0.2919	0.676	0.7768	-0.226
Mof_N 	N 	0.3492	0.676	0.779	-0.069
Mof_C 	C 	0.3781	0.638	0.7472	0.061
Mof_H 	H 	0.3578	0.6124	0.7239	0.027
Mof_C 	C 	0.4359	0.6359	0.748	-0.113
Mof_H 	H 	0.4549	0.6093	0.7249	0.067
Mof_C 	C 	0.4684	0.6733	0.7834	0.044
Mof_C 	C 	0.4369	0.7102	0.8172	-0.093
Mof_H 	H 	0.4564	0.7351	0.8418	0.067
Mof_C 	C 	0.376	0.7119	0.8161	0.034
Mof_H 	H 	0.3554	0.7367	0.8399	0.044
Mof_O 	O 	0.7919	0.176	0.2768	-0.226
Mof_N 	N 	0.8492	0.176	0.279	-0.069
Mof_C 	C 	0.8781	0.138	0.2472	0.061
Mof_H 	H 	0.8578	0.1124	0.2239	0.027
Mof_C 	C 	0.9359	0.1359	0.248	-0.113
Mof_H 	H 	0.9549	0.1093	0.2249	0.067
Mof_C 	C 	0.9684	0.1733	0.2834	0.044
Mof_C 	C 	0.9369	0.2102	0.3172	-0.093
Mof_H 	H 	0.9564	0.2351	0.3418	0.067
Mof_C 	C 	0.876	0.2119	0.3161	0.034
Mof_H 	H 	0.8554	0.2367	0.3399	0.044
Mof_O 	O 	0.7081	0.676	0.2232	-0.226
Mof_N 	N 	0.6508	0.676	0.221	-0.069
Mof_C 	C 	0.6219	0.638	0.2528	0.061
Mof_H 	H 	0.6422	0.6124	0.2761	0.027
Mof_C 	C 	0.5641	0.6359	0.252	-0.113
Mof_H 	H 	0.5451	0.6093	0.2751	0.067
Mof_C 	C 	0.5316	0.6733	0.2166	0.044
Mof_C 	C 	0.5631	0.7102	0.1828	-0.093
Mof_H 	H 	0.5436	0.7351	0.1582	0.067
Mof_C 	C 	0.624	0.7119	0.1839	0.034
Mof_H 	H 	0.6446	0.7367	0.1601	0.044
Mof_O 	O 	0.2081	0.176	0.7232	-0.226
Mof_N 	N 	0.1508	0.176	0.721	-0.069
Mof_C 	C 	0.1219	0.138	0.7528	0.061
Mof_H 	H 	0.1422	0.1124	0.7761	0.027
Mof_C 	C 	0.0641	0.1359	0.752	-0.113
Mof_H 	H 	0.0451	0.1093	0.7751	0.067
Mof_C 	C 	0.0316	0.1733	0.7166	0.044
Mof_C 	C 	0.0631	0.2102	0.6828	-0.093
Mof_H 	H 	0.0436	0.2351	0.6582	0.067
Mof_C 	C 	0.124	0.2119	0.6839	0.034
Mof_H 	H 	0.1446	0.2367	0.6601	0.044
Mof_O 	O 	0.7081	0.324	0.7768	-0.226
Mof_N 	N 	0.6508	0.324	0.779	-0.069
Mof_C 	C 	0.6219	0.362	0.7472	0.061
Mof_H 	H 	0.6422	0.3876	0.7239	0.027
Mof_C 	C 	0.5641	0.3641	0.748	-0.113
Mof_H 	H 	0.5451	0.3907	0.7249	0.067
Mof_C 	C 	0.5316	0.3267	0.7834	0.044
Mof_C 	C 	0.5631	0.2898	0.8172	-0.093
Mof_H 	H 	0.5436	0.2649	0.8418	0.067
Mof_C 	C 	0.624	0.2881	0.8161	0.034
Mof_H 	H 	0.6446	0.2633	0.8399	0.044
Mof_O 	O 	0.2081	0.824	0.2768	-0.226
Mof_N 	N 	0.1508	0.824	0.279	-0.069
Mof_C 	C 	0.1219	0.862	0.2472	0.061
Mof_H 	H 	0.1422	0.8876	0.2239	0.027
Mof_C 	C 	0.0641	0.8641	0.248	-0.113
Mof_H 	H 	0.0451	0.8907	0.2249	0.067
Mof_C 	C 	0.0316	0.8267	0.2834	0.044
Mof_C 	C 	0.0631	0.7898	0.3172	-0.093
Mof_H 	H 	0.0436	0.7649	0.3418	0.067
Mof_C 	C 	0.124	0.7881	0.3161	0.034
Mof_H 	H 	0.1446	0.7633	0.3399	0.044
Mof_O 	O 	0.2232	0.2919	0.324	-0.226
Mof_N 	N 	0.221	0.3492	0.324	-0.069
Mof_C 	C 	0.2528	0.3781	0.362	0.061
Mof_H 	H 	0.2761	0.3578	0.3876	0.027
Mof_C 	C 	0.252	0.4359	0.3641	-0.113
Mof_H 	H 	0.2751	0.4549	0.3907	0.067
Mof_C 	C 	0.2166	0.4684	0.3267	0.044
Mof_C 	C 	0.1828	0.4369	0.2898	-0.093
Mof_H 	H 	0.1582	0.4564	0.2649	0.067
Mof_C 	C 	0.1839	0.376	0.2881	0.034
Mof_H 	H 	0.1601	0.3554	0.2633	0.044
Mof_O 	O 	0.7232	0.7919	0.824	-0.226
Mof_N 	N 	0.721	0.8492	0.824	-0.069
Mof_C 	C 	0.7528	0.8781	0.862	0.061
Mof_H 	H 	0.7761	0.8578	0.8876	0.027
Mof_C 	C 	0.752	0.9359	0.8641	-0.113
Mof_H 	H 	0.7751	0.9549	0.8907	0.067
Mof_C 	C 	0.7166	0.9684	0.8267	0.044
Mof_C 	C 	0.6828	0.9369	0.7898	-0.093
Mof_H 	H 	0.6582	0.9564	0.7649	0.067
Mof_C 	C 	0.6839	0.876	0.7881	0.034
Mof_H 	H 	0.6601	0.8554	0.7633	0.044
Mof_O 	O 	0.7768	0.2919	0.676	-0.226
Mof_N 	N 	0.779	0.3492	0.676	-0.069
Mof_C 	C 	0.7472	0.3781	0.638	0.061
Mof_H 	H 	0.7239	0.3578	0.6124	0.027
Mof_C 	C 	0.748	0.4359	0.6359	-0.113
Mof_H 	H 	0.7249	0.4549	0.6093	0.067
Mof_C 	C 	0.7834	0.4684	0.6733	0.044
Mof_C 	C 	0.8172	0.4369	0.7102	-0.093
Mof_H 	H 	0.8418	0.4564	0.7351	0.067
Mof_C 	C 	0.8161	0.376	0.7119	0.034
Mof_H 	H 	0.8399	0.3554	0.7367	0.044
Mof_O 	O 	0.2768	0.7919	0.176	-0.226
Mof_N 	N 	0.279	0.8492	0.176	-0.069
Mof_C 	C 	0.2472	0.8781	0.138	0.061
Mof_H 	H 	0.2239	0.8578	0.1124	0.027
Mof_C 	C 	0.248	0.9359	0.1359	-0.113
Mof_H 	H 	0.2249	0.9549	0.1093	0.067
Mof_C 	C 	0.2834	0.9684	0.1733	0.044
Mof_C 	C 	0.3172	0.9369	0.2102	-0.093
Mof_H 	H 	0.3418	0.9564	0.2351	0.067
Mof_C 	C 	0.3161	0.876	0.2119	0.034
Mof_H 	H 	0.3399	0.8554	0.2367	0.044
Mof_O 	O 	0.2232	0.7081	0.676	-0.226
Mof_N 	N 	0.221	0.6508	0.676	-0.069
Mof_C 	C 	0.2528	0.6219	0.638	0.061
Mof_H 	H 	0.2761	0.6422	0.6124	0.027
Mof_C 	C 	0.252	0.5641	0.6359	-0.113
Mof_H 	H 	0.2751	0.5451	0.6093	0.067
Mof_C 	C 	0.2166	0.5316	0.6733	0.044
Mof_C 	C 	0.1828	0.5631	0.7102	-0.093
Mof_H 	H 	0.1582	0.5436	0.7351	0.067
Mof_C 	C 	0.1839	0.624	0.7119	0.034
Mof_H 	H 	0.1601	0.6446	0.7367	0.044
Mof_O 	O 	0.7232	0.2081	0.176	-0.226
Mof_N 	N 	0.721	0.1508	0.176	-0.069
Mof_C 	C 	0.7528	0.1219	0.138	0.061
Mof_H 	H 	0.7761	0.1422	0.1124	0.027
Mof_C 	C 	0.752	0.0641	0.1359	-0.113
Mof_H 	H 	0.7751	0.0451	0.1093	0.067
Mof_C 	C 	0.7166	0.0316	0.1733	0.044
Mof_C 	C 	0.6828	0.0631	0.2102	-0.093
Mof_H 	H 	0.6582	0.0436	0.2351	0.067
Mof_C 	C 	0.6839	0.124	0.2119	0.034
Mof_H 	H 	0.6601	0.1446	0.2367	0.044
Mof_O 	O 	0.7768	0.7081	0.324	-0.226
Mof_N 	N 	0.779	0.6508	0.324	-0.069
Mof_C 	C 	0.7472	0.6219	0.362	0.061
Mof_H 	H 	0.7239	0.6422	0.3876	0.027
Mof_C 	C 	0.748	0.5641	0.3641	-0.113
Mof_H 	H 	0.7249	0.5451	0.3907	0.067
Mof_C 	C 	0.7834	0.5316	0.3267	0.044
Mof_C 	C 	0.8172	0.5631	0.2898	-0.093
Mof_H 	H 	0.8418	0.5436	0.2649	0.067
Mof_C 	C 	0.8161	0.624	0.2881	0.034
Mof_H 	H 	0.8399	0.6446	0.2633	0.044
Mof_O 	O 	0.2768	0.2081	0.824	-0.226
Mof_N 	N 	0.279	0.1508	0.824	-0.069
Mof_C 	C 	0.2472	0.1219	0.862	0.061
Mof_H 	H 	0.2239	0.1422	0.8876	0.027
Mof_C 	C 	0.248	0.0641	0.8641	-0.113
Mof_H 	H 	0.2249	0.0451	0.8907	0.067
Mof_C 	C 	0.2834	0.0316	0.8267	0.044
Mof_C 	C 	0.3172	0.0631	0.7898	-0.093
Mof_H 	H 	0.3418	0.0436	0.7649	0.067
Mof_C 	C 	0.3161	0.124	0.7881	0.034
Mof_H 	H 	0.3399	0.1446	0.7633	0.044
Mof_O 	O 	0.676	0.7768	0.7081	-0.226
Mof_N 	N 	0.676	0.779	0.6508	-0.069
Mof_C 	C 	0.638	0.7472	0.6219	0.061
Mof_H 	H 	0.6124	0.7239	0.6422	0.027
Mof_C 	C 	0.6359	0.748	0.5641	-0.113
Mof_H 	H 	0.6093	0.7249	0.5451	0.067
Mof_C 	C 	0.6733	0.7834	0.5316	0.044
Mof_C 	C 	0.7102	0.8172	0.5631	-0.093
Mof_H 	H 	0.7351	0.8418	0.5436	0.067
Mof_C 	C 	0.7119	0.8161	0.624	0.034
Mof_H 	H 	0.7367	0.8399	0.6446	0.044
Mof_O 	O 	0.176	0.2768	0.2081	-0.226
Mof_N 	N 	0.176	0.279	0.1508	-0.069
Mof_C 	C 	0.138	0.2472	0.1219	0.061
Mof_H 	H 	0.1124	0.2239	0.1422	0.027
Mof_C 	C 	0.1359	0.248	0.0641	-0.113
Mof_H 	H 	0.1093	0.2249	0.0451	0.067
Mof_C 	C 	0.1733	0.2834	0.0316	0.044
Mof_C 	C 	0.2102	0.3172	0.0631	-0.093
Mof_H 	H 	0.2351	0.3418	0.0436	0.067
Mof_C 	C 	0.2119	0.3161	0.124	0.034
Mof_H 	H 	0.2367	0.3399	0.1446	0.044
Mof_O 	O 	0.324	0.2232	0.7081	-0.226
Mof_N 	N 	0.324	0.221	0.6508	-0.069
Mof_C 	C 	0.362	0.2528	0.6219	0.061
Mof_H 	H 	0.3876	0.2761	0.6422	0.027
Mof_C 	C 	0.3641	0.252	0.5641	-0.113
Mof_H 	H 	0.3907	0.2751	0.5451	0.067
Mof_C 	C 	0.3267	0.2166	0.5316	0.044
Mof_C 	C 	0.2898	0.1828	0.5631	-0.093
Mof_H 	H 	0.2649	0.1582	0.5436	0.067
Mof_C 	C 	0.2881	0.1839	0.624	0.034
Mof_H 	H 	0.2633	0.1601	0.6446	0.044
Mof_O 	O 	0.824	0.7232	0.2081	-0.226
Mof_N 	N 	0.824	0.721	0.1508	-0.069
Mof_C 	C 	0.862	0.7528	0.1219	0.061
Mof_H 	H 	0.8876	0.7761	0.1422	0.027
Mof_C 	C 	0.8641	0.752	0.0641	-0.113
Mof_H 	H 	0.8907	0.7751	0.0451	0.067
Mof_C 	C 	0.8267	0.7166	0.0316	0.044
Mof_C 	C 	0.7898	0.6828	0.0631	-0.093
Mof_H 	H 	0.7649	0.6582	0.0436	0.067
Mof_C 	C 	0.7881	0.6839	0.124	0.034
Mof_H 	H 	0.7633	0.6601	0.1446	0.044
Mof_O 	O 	0.324	0.7768	0.2919	-0.226
Mof_N 	N 	0.324	0.779	0.3492	-0.069
Mof_C 	C 	0.362	0.7472	0.3781	0.061
Mof_H 	H 	0.3876	0.7239	0.3578	0.027
Mof_C 	C 	0.3641	0.748	0.4359	-0.113
Mof_H 	H 	0.3907	0.7249	0.4549	0.067
Mof_C 	C 	0.3267	0.7834	0.4684	0.044
Mof_C 	C 	0.2898	0.8172	0.4369	-0.093
Mof_H 	H 	0.2649	0.8418	0.4564	0.067
Mof_C 	C 	0.2881	0.8161	0.376	0.034
Mof_H 	H 	0.2633	0.8399	0.3554	0.044
Mof_O 	O 	0.824	0.2768	0.7919	-0.226
Mof_N 	N 	0.824	0.279	0.8492	-0.069
Mof_C 	C 	0.862	0.2472	0.8781	0.061
Mof_H 	H 	0.8876	0.2239	0.8578	0.027
Mof_C 	C 	0.8641	0.248	0.9359	-0.113
Mof_H 	H 	0.8907	0.2249	0.9549	0.067
Mof_C 	C 	0.8267	0.2834	0.9684	0.044
Mof_C 	C 	0.7898	0.3172	0.9369	-0.093
Mof_H 	H 	0.7649	0.3418	0.9564	0.067
Mof_C 	C 	0.7881	0.3161	0.876	0.034
Mof_H 	H 	0.7633	0.3399	0.8554	0.044
Mof_O 	O 	0.676	0.2232	0.2919	-0.226
Mof_N 	N 	0.676	0.221	0.3492	-0.069
Mof_C 	C 	0.638	0.2528	0.3781	0.061
Mof_H 	H 	0.6124	0.2761	0.3578	0.027
Mof_C 	C 	0.6359	0.252	0.4359	-0.113
Mof_H 	H 	0.6093	0.2751	0.4549	0.067
Mof_C 	C 	0.6733	0.2166	0.4684	0.044
Mof_C 	C 	0.7102	0.1828	0.4369	-0.093
Mof_H 	H 	0.7351	0.1582	0.4564	0.067
Mof_C 	C 	0.7119	0.1839	0.376	0.034
Mof_H 	H 	0.7367	0.1601	0.3554	0.044
Mof_O 	O 	0.176	0.7232	0.7919	-0.226
Mof_N 	N 	0.176	0.721	0.8492	-0.069
Mof_C 	C 	0.138	0.7528	0.8781	0.061
Mof_H 	H 	0.1124	0.7761	0.8578	0.027
Mof_C 	C 	0.1359	0.752	0.9359	-0.113
Mof_H 	H 	0.1093	0.7751	0.9549	0.067
Mof_C 	C 	0.1733	0.7166	0.9684	0.044
Mof_C 	C 	0.2102	0.6828	0.9369	-0.093
Mof_H 	H 	0.2351	0.6582	0.9564	0.067
Mof_C 	C 	0.2119	0.6839	0.876	0.034
Mof_H 	H 	0.2367	0.6601	0.8554	0.044
Mof_O 	O 	0.7081	0.676	0.7768	-0.226
Mof_N 	N 	0.6508	0.676	0.779	-0.069
Mof_C 	C 	0.6219	0.638	0.7472	0.061
Mof_H 	H 	0.6422	0.6124	0.7239	0.027
Mof_C 	C 	0.5641	0.6359	0.748	-0.113
Mof_H 	H 	0.5451	0.6093	0.7249	0.067
Mof_C 	C 	0.5316	0.6733	0.7834	0.044
Mof_C 	C 	0.5631	0.7102	0.8172	-0.093
Mof_H 	H 	0.5436	0.7351	0.8418	0.067
Mof_C 	C 	0.624	0.7119	0.8161	0.034
Mof_H 	H 	0.6446	0.7367	0.8399	0.044
Mof_O 	O 	0.2081	0.176	0.2768	-0.226
Mof_N 	N 	0.1508	0.176	0.279	-0.069
Mof_C 	C 	0.1219	0.138	0.2472	0.061
Mof_H 	H 	0.1422	0.1124	0.2239	0.027
Mof_C 	C 	0.0641	0.1359	0.248	-0.113
Mof_H 	H 	0.0451	0.1093	0.2249	0.067
Mof_C 	C 	0.0316	0.1733	0.2834	0.044
Mof_C 	C 	0.0631	0.2102	0.3172	-0.093
Mof_H 	H 	0.0436	0.2351	0.3418	0.067
Mof_C 	C 	0.124	0.2119	0.3161	0.034
Mof_H 	H 	0.1446	0.2367	0.3399	0.044
Mof_O 	O 	0.7081	0.324	0.2232	-0.226
Mof_N 	N 	0.6508	0.324	0.221	-0.069
Mof_C 	C 	0.6219	0.362	0.2528	0.061
Mof_H 	H 	0.6422	0.3876	0.2761	0.027
Mof_C 	C 	0.5641	0.3641	0.252	-0.113
Mof_H 	H 	0.5451	0.3907	0.2751	0.067
Mof_C 	C 	0.5316	0.3267	0.2166	0.044
Mof_C 	C 	0.5631	0.2898	0.1828	-0.093
Mof_H 	H 	0.5436	0.2649	0.1582	0.067
Mof_C 	C 	0.624	0.2881	0.1839	0.034
Mof_H 	H 	0.6446	0.2633	0.1601	0.044
Mof_O 	O 	0.2081	0.824	0.7232	-0.226
Mof_N 	N 	0.1508	0.824	0.721	-0.069
Mof_C 	C 	0.1219	0.862	0.7528	0.061
Mof_H 	H 	0.1422	0.8876	0.7761	0.027
Mof_C 	C 	0.0641	0.8641	0.752	-0.113
Mof_H 	H 	0.0451	0.8907	0.7751	0.067
Mof_C 	C 	0.0316	0.8267	0.7166	0.044
Mof_C 	C 	0.0631	0.7898	0.6828	-0.093
Mof_H 	H 	0.0436	0.7649	0.6582	0.067
Mof_C 	C 	0.124	0.7881	0.6839	0.034
Mof_H 	H 	0.1446	0.7633	0.6601	0.044
Mof_O 	O 	0.2919	0.324	0.7768	-0.226
Mof_N 	N 	0.3492	0.324	0.779	-0.069
Mof_C 	C 	0.3781	0.362	0.7472	0.061
Mof_H 	H 	0.3578	0.3876	0.7239	0.027
Mof_C 	C 	0.4359	0.3641	0.748	-0.113
Mof_H 	H 	0.4549	0.3907	0.7249	0.067
Mof_C 	C 	0.4684	0.3267	0.7834	0.044
Mof_C 	C 	0.4369	0.2898	0.8172	-0.093
Mof_H 	H 	0.4564	0.2649	0.8418	0.067
Mof_C 	C 	0.376	0.2881	0.8161	0.034
Mof_H 	H 	0.3554	0.2633	0.8399	0.044
Mof_O 	O 	0.7919	0.824	0.2768	-0.226
Mof_N 	N 	0.8492	0.824	0.279	-0.069
Mof_C 	C 	0.8781	0.862	0.2472	0.061
Mof_H 	H 	0.8578	0.8876	0.2239	0.027
Mof_C 	C 	0.9359	0.8641	0.248	-0.113
Mof_H 	H 	0.9549	0.8907	0.2249	0.067
Mof_C 	C 	0.9684	0.8267	0.2834	0.044
Mof_C 	C 	0.9369	0.7898	0.3172	-0.093
Mof_H 	H 	0.9564	0.7649	0.3418	0.067
Mof_C 	C 	0.876	0.7881	0.3161	0.034
Mof_H 	H 	0.8554	0.7633	0.3399	0.044
Mof_O 	O 	0.2919	0.676	0.2232	-0.226
Mof_N 	N 	0.3492	0.676	0.221	-0.069
Mof_C 	C 	0.3781	0.638	0.2528	0.061
Mof_H 	H 	0.3578	0.6124	0.2761	0.027
Mof_C 	C 	0.4359	0.6359	0.252	-0.113
Mof_H 	H 	0.4549	0.6093	0.2751	0.067
Mof_C 	C 	0.4684	0.6733	0.2166	0.044
Mof_C 	C 	0.4369	0.7102	0.1828	-0.093
Mof_H 	H 	0.4564	0.7351	0.1582	0.067
Mof_C 	C 	0.376	0.7119	0.1839	0.034
Mof_H 	H 	0.3554	0.7367	0.1601	0.044
Mof_O 	O 	0.7919	0.176	0.7232	-0.226
Mof_N 	N 	0.8492	0.176	0.721	-0.069
Mof_C 	C 	0.8781	0.138	0.7528	0.061
Mof_H 	H 	0.8578	0.1124	0.7761	0.027
Mof_C 	C 	0.9359	0.1359	0.752	-0.113
Mof_H 	H 	0.9549	0.1093	0.7751	0.067
Mof_C 	C 	0.9684	0.1733	0.7166	0.044
Mof_C 	C 	0.9369	0.2102	0.6828	-0.093
Mof_H 	H 	0.9564	0.2351	0.6582	0.067
Mof_C 	C 	0.876	0.2119	0.6839	0.034
Mof_H 	H 	0.8554	0.2367	0.6601	0.044
Mof_O 	O 	0.7768	0.7081	0.676	-0.226
Mof_N 	N 	0.779	0.6508	0.676	-0.069
Mof_C 	C 	0.7472	0.6219	0.638	0.061
Mof_H 	H 	0.7239	0.6422	0.6124	0.027
Mof_C 	C 	0.748	0.5641	0.6359	-0.113
Mof_H 	H 	0.7249	0.5451	0.6093	0.067
Mof_C 	C 	0.7834	0.5316	0.6733	0.044
Mof_C 	C 	0.8172	0.5631	0.7102	-0.093
Mof_H 	H 	0.8418	0.5436	0.7351	0.067
Mof_C 	C 	0.8161	0.624	0.7119	0.034
Mof_H 	H 	0.8399	0.6446	0.7367	0.044
Mof_O 	O 	0.2768	0.2081	0.176	-0.226
Mof_N 	N 	0.279	0.1508	0.176	-0.069
Mof_C 	C 	0.2472	0.1219	0.138	0.061
Mof_H 	H 	0.2239	0.1422	0.1124	0.027
Mof_C 	C 	0.248	0.0641	0.1359	-0.113
Mof_H 	H 	0.2249	0.0451	0.1093	0.067
Mof_C 	C 	0.2834	0.0316	0.1733	0.044
Mof_C 	C 	0.3172	0.0631	0.2102	-0.093
Mof_H 	H 	0.3418	0.0436	0.2351	0.067
Mof_C 	C 	0.3161	0.124	0.2119	0.034
Mof_H 	H 	0.3399	0.1446	0.2367	0.044
Mof_O 	O 	0.2232	0.7081	0.324	-0.226
Mof_N 	N 	0.221	0.6508	0.324	-0.069
Mof_C 	C 	0.2528	0.6219	0.362	0.061
Mof_H 	H 	0.2761	0.6422	0.3876	0.027
Mof_C 	C 	0.252	0.5641	0.3641	-0.113
Mof_H 	H 	0.2751	0.5451	0.3907	0.067
Mof_C 	C 	0.2166	0.5316	0.3267	0.044
Mof_C 	C 	0.1828	0.5631	0.2898	-0.093
Mof_H 	H 	0.1582	0.5436	0.2649	0.067
Mof_C 	C 	0.1839	0.624	0.2881	0.034
Mof_H 	H 	0.1601	0.6446	0.2633	0.044
Mof_O 	O 	0.7232	0.2081	0.824	-0.226
Mof_N 	N 	0.721	0.1508	0.824	-0.069
Mof_C 	C 	0.7528	0.1219	0.862	0.061
Mof_H 	H 	0.7761	0.1422	0.8876	0.027
Mof_C 	C 	0.752	0.0641	0.8641	-0.113
Mof_H 	H 	0.7751	0.0451	0.8907	0.067
Mof_C 	C 	0.7166	0.0316	0.8267	0.044
Mof_C 	C 	0.6828	0.0631	0.7898	-0.093
Mof_H 	H 	0.6582	0.0436	0.7649	0.067
Mof_C 	C 	0.6839	0.124	0.7881	0.034
Mof_H 	H 	0.6601	0.1446	0.7633	0.044
Mof_O 	O 	0.7768	0.2919	0.324	-0.226
Mof_N 	N 	0.779	0.3492	0.324	-0.069
Mof_C 	C 	0.7472	0.3781	0.362	0.061
Mof_H 	H 	0.7239	0.3578	0.3876	0.027
Mof_C 	C 	0.748	0.4359	0.3641	-0.113
Mof_H 	H 	0.7249	0.4549	0.3907	0.067
Mof_C 	C 	0.7834	0.4684	0.3267	0.044
Mof_C 	C 	0.8172	0.4369	0.2898	-0.093
Mof_H 	H 	0.8418	0.4564	0.2649	0.067
Mof_C 	C 	0.8161	0.376	0.2881	0.034
Mof_H 	H 	0.8399	0.3554	0.2633	0.044
Mof_O 	O 	0.2768	0.7919	0.824	-0.226
Mof_N 	N 	0.279	0.8492	0.824	-0.069
Mof_C 	C 	0.2472	0.8781	0.862	0.061
Mof_H 	H 	0.2239	0.8578	0.8876	0.027
Mof_C 	C 	0.248	0.9359	0.8641	-0.113
Mof_H 	H 	0.2249	0.9549	0.8907	0.067
Mof_C 	C 	0.2834	0.9684	0.8267	0.044
Mof_C 	C 	0.3172	0.9369	0.7898	-0.093
Mof_H 	H 	0.3418	0.9564	0.7649	0.067
Mof_C 	C 	0.3161	0.876	0.7881	0.034
Mof_H 	H 	0.3399	0.8554	0.7633	0.044
Mof_O 	O 	0.2232	0.2919	0.676	-0.226
Mof_N 	N 	0.221	0.3492	0.676	-0.069
Mof_C 	C 	0.2528	0.3781	0.638	0.061
Mof_H 	H 	0.2761	0.3578	0.6124	0.027
Mof_C 	C 	0.252	0.4359	0.6359	-0.113
Mof_H 	H 	0.2751	0.4549	0.6093	0.067
Mof_C 	C 	0.2166	0.4684	0.6733	0.044
Mof_C 	C 	0.1828	0.4369	0.7102	-0.093
Mof_H 	H 	0.1582	0.4564	0.7351	0.067
Mof_C 	C 	0.1839	0.376	0.7119	0.034
Mof_H 	H 	0.1601	0.3554	0.7367	0.044
Mof_O 	O 	0.7232	0.7919	0.176	-0.226
Mof_N 	N 	0.721	0.8492	0.176	-0.069
Mof_C 	C 	0.7528	0.8781	0.138	0.061
Mof_H 	H 	0.7761	0.8578	0.1124	0.027
Mof_C 	C 	0.752	0.9359	0.1359	-0.113
Mof_H 	H 	0.7751	0.9549	0.1093	0.067
Mof_C 	C 	0.7166	0.9684	0.1733	0.044
Mof_C 	C 	0.6828	0.9369	0.2102	-0.093
Mof_H 	H 	0.6582	0.9564	0.2351	0.067
Mof_C 	C 	0.6839	0.876	0.2119	0.034
Mof_H 	H 	0.6601	0.8554	0.2367	0.044
Mof_Cu	Cu	0.25	0.25	0.25	0.939
Mof_Cu	Cu	0.75	0.75	0.25	0.939
Mof_Cu	Cu	0.75	0.25	0.75	0.939
Mof_Cu	Cu	0.25	0.75	0.75	0.939
Mof_Cu	Cu	0.75	0.75	0.75	0.939
Mof_Cu	Cu	0.25	0.25	0.75	0.939
Mof_Cu	Cu	0.25	0.75	0.25	0.939
Mof_Cu	Cu	0.75	0.25	0.25	0.939
_end
