# CIF file generated by openbabel 3.1.0, see https://openbabel.org
data_I
_chemical_name_common 'image0'
_cell_length_a 10.7029
_cell_length_b 28.176
_cell_length_c 34.014
_cell_angle_alpha 90
_cell_angle_beta 90
_cell_angle_gamma 90
_space_group_name_H-M_alt 'P 1'
_space_group_name_Hall 'P 1'
loop_
    _symmetry_equiv_pos_as_xyz
    x,y,z
loop_
    _atom_site_label
    _atom_site_type_symbol
    _atom_site_fract_x
    _atom_site_fract_y
    _atom_site_fract_z
    _atom_site_occupancy
    O1       O        0.32370    0.35770    0.55644    1.000
    O2       O        0.12780    0.24060    0.70413    1.000
    O3       O        0.01600    0.30660    0.70909    1.000
    O4       O        0.26760    0.36090    0.46040    1.000
    O5       O        0.01690    0.13030    0.70644    1.000
    O6       O        0.07720    0.05560    0.70250    1.000
    O7       O        0.57870    0.35200    0.44060    1.000
    O8       O        0.87440    0.21240    0.71000    1.000
    O9       O        0.75670    0.27720    0.70341    1.000
    O10      O        0.64370    0.36690    0.53748    1.000
    O11      O        0.20240    0.96070    0.79960    1.000
    O12      O        0.87110    0.38820    0.70735    1.000
    C1       C        0.45430    0.35980    0.49920    1.000
    C2       C        0.39530    0.32850    0.53070    1.000
    H1       H        0.34070    0.30450    0.51820    1.000
    H2       H        0.46120    0.31180    0.54570    1.000
    C3       C        0.35820    0.39130    0.47800    1.000
    H3       H        0.31740    0.41300    0.49700    1.000
    H4       H        0.40000    0.41070    0.45760    1.000
    C4       C        0.51470    0.32500    0.46990    1.000
    H5       H        0.57430    0.30390    0.48370    1.000
    H6       H        0.44960    0.30500    0.45740    1.000
    C5       C        0.54710    0.39440    0.51770    1.000
    H7       H        0.58500    0.41460    0.49710    1.000
    H8       H        0.50380    0.41510    0.53680    1.000
    C6       C        0.27240    0.33680    0.58920    1.000
    C7       C        0.29020    0.28980    0.59970    1.000
    H9       H        0.33930    0.26950    0.58360    1.000
    C8       C        0.23580    0.27240    0.63400    1.000
    H10      H        0.25160    0.24070    0.64200    1.000
    C9       C        0.15830    0.30130    0.65660    1.000
    C10      C        0.14220    0.34850    0.64600    1.000
    H11      H        0.09170    0.36880    0.66170    1.000
    C11      C        0.19950    0.36610    0.61260    1.000
    H12      H        0.18880    0.39850    0.60560    1.000
    C12      C        0.09590    0.28110    0.69320    1.000
    C13      C        0.21480    0.37520    0.42550    1.000
    C14      C        0.15420    0.33940    0.40460    1.000
    H13      H        0.14790    0.30840    0.41550    1.000
    C15      C        0.10390    0.34900    0.36850    1.000
    H14      H        0.06190    0.32470    0.35440    1.000
    C16      C        0.11380    0.39400    0.35240    1.000
    C17      C        0.16590    0.43000    0.37430    1.000
    H15      H        0.16740    0.46140    0.36410    1.000
    C18      C        0.21620    0.42080    0.41110    1.000
    H16      H        0.25130    0.44580    0.42630    1.000
    C19      C        0.06760    0.09690    0.68850    1.000
    C20      C        0.62580    0.32790    0.40870    1.000
    C21      C        0.60200    0.28040    0.40060    1.000
    H17      H        0.55170    0.26200    0.41790    1.000
    C22      C        0.65290    0.26030    0.36700    1.000
    H18      H        0.63400    0.22830    0.36060    1.000
    C23      C        0.73070    0.28630    0.34280    1.000
    C24      C        0.75360    0.33330    0.35140    1.000
    H19      H        0.80640    0.35140    0.33470    1.000
    C25      C        0.70140    0.35420    0.38360    1.000
    H20      H        0.71670    0.38680    0.38890    1.000
    C26      C        0.79110    0.23620    0.69310    1.000
    C27      C        0.68510    0.38280    0.57270    1.000
    C28      C        0.75700    0.35070    0.59380    1.000
    H21      H        0.77680    0.32050    0.58290    1.000
    C29      C        0.79950    0.36300    0.63100    1.000
    H22      H        0.84710    0.34080    0.64570    1.000
    C30      C        0.77380    0.40710    0.64700    1.000
    C31      C        0.70530    0.43960    0.62530    1.000
    H23      H        0.68860    0.47010    0.63600    1.000
    C32      C        0.66020    0.42810    0.58780    1.000
    H24      H        0.61370    0.45060    0.57290    1.000
    C33      C        0.81690    0.41980    0.68780    1.000
    O13      O        0.67630    0.64230    0.05644    1.000
    O14      O        0.87220    0.75940    0.20413    1.000
    O15      O        0.98400    0.69340    0.20909    1.000
    O16      O        0.73240    0.63910    0.96040    1.000
    O17      O        0.98310    0.86970    0.20644    1.000
    O18      O        0.92280    0.94440    0.20250    1.000
    O19      O        0.42130    0.64800    0.94060    1.000
    O20      O        0.12560    0.78760    0.21000    1.000
    O21      O        0.24330    0.72280    0.20341    1.000
    O22      O        0.35630    0.63310    0.03748    1.000
    O23      O        0.79760    0.03930    0.29960    1.000
    O24      O        0.12890    0.61180    0.20735    1.000
    C34      C        0.54570    0.64020    0.99920    1.000
    C35      C        0.60470    0.67150    0.03070    1.000
    H25      H        0.65930    0.69550    0.01820    1.000
    H26      H        0.53880    0.68820    0.04570    1.000
    C36      C        0.64180    0.60870    0.97800    1.000
    H27      H        0.68260    0.58700    0.99700    1.000
    H28      H        0.60000    0.58930    0.95760    1.000
    C37      C        0.48530    0.67500    0.96990    1.000
    H29      H        0.42570    0.69610    0.98370    1.000
    H30      H        0.55040    0.69500    0.95740    1.000
    C38      C        0.45290    0.60560    0.01770    1.000
    H31      H        0.41500    0.58540    0.99710    1.000
    H32      H        0.49620    0.58490    0.03680    1.000
    C39      C        0.72760    0.66320    0.08920    1.000
    C40      C        0.70980    0.71020    0.09970    1.000
    H33      H        0.66070    0.73050    0.08360    1.000
    C41      C        0.76420    0.72760    0.13400    1.000
    H34      H        0.74840    0.75930    0.14200    1.000
    C42      C        0.84170    0.69870    0.15660    1.000
    C43      C        0.85780    0.65150    0.14600    1.000
    H35      H        0.90830    0.63120    0.16170    1.000
    C44      C        0.80050    0.63390    0.11260    1.000
    H36      H        0.81120    0.60150    0.10560    1.000
    C45      C        0.90410    0.71890    0.19320    1.000
    C46      C        0.78520    0.62480    0.92550    1.000
    C47      C        0.84580    0.66060    0.90460    1.000
    H37      H        0.85210    0.69160    0.91550    1.000
    C48      C        0.89610    0.65100    0.86850    1.000
    H38      H        0.93810    0.67530    0.85440    1.000
    C49      C        0.88620    0.60600    0.85240    1.000
    C50      C        0.83410    0.57000    0.87430    1.000
    H39      H        0.83260    0.53860    0.86410    1.000
    C51      C        0.78380    0.57920    0.91110    1.000
    H40      H        0.74870    0.55420    0.92630    1.000
    C52      C        0.93240    0.90310    0.18850    1.000
    C53      C        0.37420    0.67210    0.90870    1.000
    C54      C        0.39800    0.71960    0.90060    1.000
    H41      H        0.44830    0.73800    0.91790    1.000
    C55      C        0.34710    0.73970    0.86700    1.000
    H42      H        0.36600    0.77170    0.86060    1.000
    C56      C        0.26930    0.71370    0.84280    1.000
    C57      C        0.24640    0.66670    0.85140    1.000
    H43      H        0.19360    0.64860    0.83470    1.000
    C58      C        0.29860    0.64580    0.88360    1.000
    H44      H        0.28330    0.61320    0.88890    1.000
    C59      C        0.20890    0.76380    0.19310    1.000
    C60      C        0.31490    0.61720    0.07270    1.000
    C61      C        0.24300    0.64930    0.09380    1.000
    H45      H        0.22320    0.67950    0.08290    1.000
    C62      C        0.20050    0.63700    0.13100    1.000
    H46      H        0.15290    0.65920    0.14570    1.000
    C63      C        0.22620    0.59290    0.14700    1.000
    C64      C        0.29470    0.56040    0.12530    1.000
    H47      H        0.31140    0.52990    0.13600    1.000
    C65      C        0.33980    0.57190    0.08780    1.000
    H48      H        0.38630    0.54940    0.07290    1.000
    C66      C        0.18310    0.58020    0.18780    1.000
    O25      O        0.67630    0.85770    0.94356    1.000
    O26      O        0.87220    0.74060    0.79587    1.000
    O27      O        0.98400    0.80660    0.79091    1.000
    O28      O        0.73240    0.86090    0.03960    1.000
    O29      O        0.98310    0.63030    0.79356    1.000
    O30      O        0.92280    0.55560    0.79750    1.000
    O31      O        0.42130    0.85200    0.05940    1.000
    O32      O        0.12560    0.71240    0.79000    1.000
    O33      O        0.24330    0.77720    0.79659    1.000
    O34      O        0.35630    0.86690    0.96252    1.000
    O35      O        0.79760    0.46070    0.70040    1.000
    O36      O        0.12890    0.88820    0.79265    1.000
    C67      C        0.54570    0.85980    0.00080    1.000
    C68      C        0.60470    0.82850    0.96930    1.000
    H49      H        0.65930    0.80450    0.98180    1.000
    H50      H        0.53880    0.81180    0.95430    1.000
    C69      C        0.64180    0.89130    0.02200    1.000
    H51      H        0.68260    0.91300    0.00300    1.000
    H52      H        0.60000    0.91070    0.04240    1.000
    C70      C        0.48530    0.82500    0.03010    1.000
    H53      H        0.42570    0.80390    0.01630    1.000
    H54      H        0.55040    0.80500    0.04260    1.000
    C71      C        0.45290    0.89440    0.98230    1.000
    H55      H        0.41500    0.91460    0.00290    1.000
    H56      H        0.49620    0.91510    0.96320    1.000
    C72      C        0.72760    0.83680    0.91080    1.000
    C73      C        0.70980    0.78980    0.90030    1.000
    H57      H        0.66070    0.76950    0.91640    1.000
    C74      C        0.76420    0.77240    0.86600    1.000
    H58      H        0.74840    0.74070    0.85800    1.000
    C75      C        0.84170    0.80130    0.84340    1.000
    C76      C        0.85780    0.84850    0.85400    1.000
    H59      H        0.90830    0.86880    0.83830    1.000
    C77      C        0.80050    0.86610    0.88740    1.000
    H60      H        0.81120    0.89850    0.89440    1.000
    C78      C        0.90410    0.78110    0.80680    1.000
    C79      C        0.78520    0.87520    0.07450    1.000
    C80      C        0.84580    0.83940    0.09540    1.000
    H61      H        0.85210    0.80840    0.08450    1.000
    C81      C        0.89610    0.84900    0.13150    1.000
    H62      H        0.93810    0.82470    0.14560    1.000
    C82      C        0.88620    0.89400    0.14760    1.000
    C83      C        0.83410    0.93000    0.12570    1.000
    H63      H        0.83260    0.96140    0.13590    1.000
    C84      C        0.78380    0.92080    0.08890    1.000
    H64      H        0.74870    0.94580    0.07370    1.000
    C85      C        0.93240    0.59690    0.81150    1.000
    C86      C        0.37420    0.82790    0.09130    1.000
    C87      C        0.39800    0.78040    0.09940    1.000
    H65      H        0.44830    0.76200    0.08210    1.000
    C88      C        0.34710    0.76030    0.13300    1.000
    H66      H        0.36600    0.72830    0.13940    1.000
    C89      C        0.26930    0.78630    0.15720    1.000
    C90      C        0.24640    0.83330    0.14860    1.000
    H67      H        0.19360    0.85140    0.16530    1.000
    C91      C        0.29860    0.85420    0.11640    1.000
    H68      H        0.28330    0.88680    0.11110    1.000
    C92      C        0.20890    0.73620    0.80690    1.000
    C93      C        0.31490    0.88280    0.92730    1.000
    C94      C        0.24300    0.85070    0.90620    1.000
    H69      H        0.22320    0.82050    0.91710    1.000
    C95      C        0.20050    0.86300    0.86900    1.000
    H70      H        0.15290    0.84080    0.85430    1.000
    C96      C        0.22620    0.90710    0.85300    1.000
    C97      C        0.29470    0.93960    0.87470    1.000
    H71      H        0.31140    0.97010    0.86400    1.000
    C98      C        0.33980    0.92810    0.91220    1.000
    H72      H        0.38630    0.95060    0.92710    1.000
    C99      C        0.18310    0.91980    0.81220    1.000
    O37      O        0.32370    0.14230    0.44356    1.000
    O38      O        0.12780    0.25940    0.29587    1.000
    O39      O        0.01600    0.19340    0.29091    1.000
    O40      O        0.26760    0.13910    0.53960    1.000
    O41      O        0.01690    0.36970    0.29356    1.000
    O42      O        0.07720    0.44440    0.29750    1.000
    O43      O        0.57870    0.14800    0.55940    1.000
    O44      O        0.87440    0.28760    0.29000    1.000
    O45      O        0.75670    0.22280    0.29659    1.000
    O46      O        0.64370    0.13310    0.46252    1.000
    O47      O        0.20240    0.53930    0.20040    1.000
    O48      O        0.87110    0.11180    0.29265    1.000
    C100     C        0.45430    0.14020    0.50080    1.000
    C101     C        0.39530    0.17150    0.46930    1.000
    H73      H        0.34070    0.19550    0.48180    1.000
    H74      H        0.46120    0.18820    0.45430    1.000
    C102     C        0.35820    0.10870    0.52200    1.000
    H75      H        0.31740    0.08700    0.50300    1.000
    H76      H        0.40000    0.08930    0.54240    1.000
    C103     C        0.51470    0.17500    0.53010    1.000
    H77      H        0.57430    0.19610    0.51630    1.000
    H78      H        0.44960    0.19500    0.54260    1.000
    C104     C        0.54710    0.10560    0.48230    1.000
    H79      H        0.58500    0.08540    0.50290    1.000
    H80      H        0.50380    0.08490    0.46320    1.000
    C105     C        0.27240    0.16320    0.41080    1.000
    C106     C        0.29020    0.21020    0.40030    1.000
    H81      H        0.33930    0.23050    0.41640    1.000
    C107     C        0.23580    0.22760    0.36600    1.000
    H82      H        0.25160    0.25930    0.35800    1.000
    C108     C        0.15830    0.19870    0.34340    1.000
    C109     C        0.14220    0.15150    0.35400    1.000
    H83      H        0.09170    0.13120    0.33830    1.000
    C110     C        0.19950    0.13390    0.38740    1.000
    H84      H        0.18880    0.10150    0.39440    1.000
    C111     C        0.09590    0.21890    0.30680    1.000
    C112     C        0.21480    0.12480    0.57450    1.000
    C113     C        0.15420    0.16060    0.59540    1.000
    H85      H        0.14790    0.19160    0.58450    1.000
    C114     C        0.10390    0.15100    0.63150    1.000
    H86      H        0.06190    0.17530    0.64560    1.000
    C115     C        0.11380    0.10600    0.64760    1.000
    C116     C        0.16590    0.07000    0.62570    1.000
    H87      H        0.16740    0.03860    0.63590    1.000
    C117     C        0.21620    0.07920    0.58890    1.000
    H88      H        0.25130    0.05420    0.57370    1.000
    C118     C        0.06760    0.40310    0.31150    1.000
    C119     C        0.62580    0.17210    0.59130    1.000
    C120     C        0.60200    0.21960    0.59940    1.000
    H89      H        0.55170    0.23800    0.58210    1.000
    C121     C        0.65290    0.23970    0.63300    1.000
    H90      H        0.63400    0.27170    0.63940    1.000
    C122     C        0.73070    0.21370    0.65720    1.000
    C123     C        0.75360    0.16670    0.64860    1.000
    H91      H        0.80640    0.14860    0.66530    1.000
    C124     C        0.70140    0.14580    0.61640    1.000
    H92      H        0.71670    0.11320    0.61110    1.000
    C125     C        0.79110    0.26380    0.30690    1.000
    C126     C        0.68510    0.11720    0.42730    1.000
    C127     C        0.75700    0.14930    0.40620    1.000
    H93      H        0.77680    0.17950    0.41710    1.000
    C128     C        0.79950    0.13700    0.36900    1.000
    H94      H        0.84710    0.15920    0.35430    1.000
    C129     C        0.77380    0.09290    0.35300    1.000
    C130     C        0.70530    0.06040    0.37470    1.000
    H95      H        0.68860    0.02990    0.36400    1.000
    C131     C        0.66020    0.07190    0.41220    1.000
    H96      H        0.61370    0.04940    0.42710    1.000
    C132     C        0.81690    0.08020    0.31220    1.000
    O49      O        0.67630    0.64230    0.44356    1.000
    O50      O        0.87220    0.75940    0.29587    1.000
    O51      O        0.98400    0.69340    0.29091    1.000
    O52      O        0.73240    0.63910    0.53960    1.000
    O53      O        0.98310    0.86970    0.29356    1.000
    O54      O        0.92280    0.94440    0.29750    1.000
    O55      O        0.42130    0.64800    0.55940    1.000
    O56      O        0.12560    0.78760    0.29000    1.000
    O57      O        0.24330    0.72280    0.29659    1.000
    O58      O        0.35630    0.63310    0.46252    1.000
    O59      O        0.79760    0.03930    0.20040    1.000
    O60      O        0.12890    0.61180    0.29265    1.000
    C133     C        0.54570    0.64020    0.50080    1.000
    C134     C        0.60470    0.67150    0.46930    1.000
    H97      H        0.65930    0.69550    0.48180    1.000
    H98      H        0.53880    0.68820    0.45430    1.000
    C135     C        0.64180    0.60870    0.52200    1.000
    H99      H        0.68260    0.58700    0.50300    1.000
    H100     H        0.60000    0.58930    0.54240    1.000
    C136     C        0.48530    0.67500    0.53010    1.000
    H101     H        0.42570    0.69610    0.51630    1.000
    H102     H        0.55040    0.69500    0.54260    1.000
    C137     C        0.45290    0.60560    0.48230    1.000
    H103     H        0.41500    0.58540    0.50290    1.000
    H104     H        0.49620    0.58490    0.46320    1.000
    C138     C        0.72760    0.66320    0.41080    1.000
    C139     C        0.70980    0.71020    0.40030    1.000
    H105     H        0.66070    0.73050    0.41640    1.000
    C140     C        0.76420    0.72760    0.36600    1.000
    H106     H        0.74840    0.75930    0.35800    1.000
    C141     C        0.84170    0.69870    0.34340    1.000
    C142     C        0.85780    0.65150    0.35400    1.000
    H107     H        0.90830    0.63120    0.33830    1.000
    C143     C        0.80050    0.63390    0.38740    1.000
    H108     H        0.81120    0.60150    0.39440    1.000
    C144     C        0.90410    0.71890    0.30680    1.000
    C145     C        0.78520    0.62480    0.57450    1.000
    C146     C        0.84580    0.66060    0.59540    1.000
    H109     H        0.85210    0.69160    0.58450    1.000
    C147     C        0.89610    0.65100    0.63150    1.000
    H110     H        0.93810    0.67530    0.64560    1.000
    C148     C        0.88620    0.60600    0.64760    1.000
    C149     C        0.83410    0.57000    0.62570    1.000
    H111     H        0.83260    0.53860    0.63590    1.000
    C150     C        0.78380    0.57920    0.58890    1.000
    H112     H        0.74870    0.55420    0.57370    1.000
    C151     C        0.93240    0.90310    0.31150    1.000
    C152     C        0.37420    0.67210    0.59130    1.000
    C153     C        0.39800    0.71960    0.59940    1.000
    H113     H        0.44830    0.73800    0.58210    1.000
    C154     C        0.34710    0.73970    0.63300    1.000
    H114     H        0.36600    0.77170    0.63940    1.000
    C155     C        0.26930    0.71370    0.65720    1.000
    C156     C        0.24640    0.66670    0.64860    1.000
    H115     H        0.19360    0.64860    0.66530    1.000
    C157     C        0.29860    0.64580    0.61640    1.000
    H116     H        0.28330    0.61320    0.61110    1.000
    C158     C        0.20890    0.76380    0.30690    1.000
    C159     C        0.31490    0.61720    0.42730    1.000
    C160     C        0.24300    0.64930    0.40620    1.000
    H117     H        0.22320    0.67950    0.41710    1.000
    C161     C        0.20050    0.63700    0.36900    1.000
    H118     H        0.15290    0.65920    0.35430    1.000
    C162     C        0.22620    0.59290    0.35300    1.000
    C163     C        0.29470    0.56040    0.37470    1.000
    H119     H        0.31140    0.52990    0.36400    1.000
    C164     C        0.33980    0.57190    0.41220    1.000
    H120     H        0.38630    0.54940    0.42710    1.000
    C165     C        0.18310    0.58020    0.31220    1.000
    O61      O        0.32370    0.35770    0.94356    1.000
    O62      O        0.12780    0.24060    0.79587    1.000
    O63      O        0.01600    0.30660    0.79091    1.000
    O64      O        0.26760    0.36090    0.03960    1.000
    O65      O        0.01690    0.13030    0.79356    1.000
    O66      O        0.07720    0.05560    0.79750    1.000
    O67      O        0.57870    0.35200    0.05940    1.000
    O68      O        0.87440    0.21240    0.79000    1.000
    O69      O        0.75670    0.27720    0.79659    1.000
    O70      O        0.64370    0.36690    0.96252    1.000
    O71      O        0.20240    0.96070    0.70040    1.000
    O72      O        0.87110    0.38820    0.79265    1.000
    C166     C        0.45430    0.35980    0.00080    1.000
    C167     C        0.39530    0.32850    0.96930    1.000
    H121     H        0.34070    0.30450    0.98180    1.000
    H122     H        0.46120    0.31180    0.95430    1.000
    C168     C        0.35820    0.39130    0.02200    1.000
    H123     H        0.31740    0.41300    0.00300    1.000
    H124     H        0.40000    0.41070    0.04240    1.000
    C169     C        0.51470    0.32500    0.03010    1.000
    H125     H        0.57430    0.30390    0.01630    1.000
    H126     H        0.44960    0.30500    0.04260    1.000
    C170     C        0.54710    0.39440    0.98230    1.000
    H127     H        0.58500    0.41460    0.00290    1.000
    H128     H        0.50380    0.41510    0.96320    1.000
    C171     C        0.27240    0.33680    0.91080    1.000
    C172     C        0.29020    0.28980    0.90030    1.000
    H129     H        0.33930    0.26950    0.91640    1.000
    C173     C        0.23580    0.27240    0.86600    1.000
    H130     H        0.25160    0.24070    0.85800    1.000
    C174     C        0.15830    0.30130    0.84340    1.000
    C175     C        0.14220    0.34850    0.85400    1.000
    H131     H        0.09170    0.36880    0.83830    1.000
    C176     C        0.19950    0.36610    0.88740    1.000
    H132     H        0.18880    0.39850    0.89440    1.000
    C177     C        0.09590    0.28110    0.80680    1.000
    C178     C        0.21480    0.37520    0.07450    1.000
    C179     C        0.15420    0.33940    0.09540    1.000
    H133     H        0.14790    0.30840    0.08450    1.000
    C180     C        0.10390    0.34900    0.13150    1.000
    H134     H        0.06190    0.32470    0.14560    1.000
    C181     C        0.11380    0.39400    0.14760    1.000
    C182     C        0.16590    0.43000    0.12570    1.000
    H135     H        0.16740    0.46140    0.13590    1.000
    C183     C        0.21620    0.42080    0.08890    1.000
    H136     H        0.25130    0.44580    0.07370    1.000
    C184     C        0.06760    0.09690    0.81150    1.000
    C185     C        0.62580    0.32790    0.09130    1.000
    C186     C        0.60200    0.28040    0.09940    1.000
    H137     H        0.55170    0.26200    0.08210    1.000
    C187     C        0.65290    0.26030    0.13300    1.000
    H138     H        0.63400    0.22830    0.13940    1.000
    C188     C        0.73070    0.28630    0.15720    1.000
    C189     C        0.75360    0.33330    0.14860    1.000
    H139     H        0.80640    0.35140    0.16530    1.000
    C190     C        0.70140    0.35420    0.11640    1.000
    H140     H        0.71670    0.38680    0.11110    1.000
    C191     C        0.79110    0.23620    0.80690    1.000
    C192     C        0.68510    0.38280    0.92730    1.000
    C193     C        0.75700    0.35070    0.90620    1.000
    H141     H        0.77680    0.32050    0.91710    1.000
    C194     C        0.79950    0.36300    0.86900    1.000
    H142     H        0.84710    0.34080    0.85430    1.000
    C195     C        0.77380    0.40710    0.85300    1.000
    C196     C        0.70530    0.43960    0.87470    1.000
    H143     H        0.68860    0.47010    0.86400    1.000
    C197     C        0.66020    0.42810    0.91220    1.000
    H144     H        0.61370    0.45060    0.92710    1.000
    C198     C        0.81690    0.41980    0.81220    1.000
    O73      O        0.32370    0.14230    0.05644    1.000
    O74      O        0.12780    0.25940    0.20413    1.000
    O75      O        0.01600    0.19340    0.20909    1.000
    O76      O        0.26760    0.13910    0.96040    1.000
    O77      O        0.01690    0.36970    0.20644    1.000
    O78      O        0.07720    0.44440    0.20250    1.000
    O79      O        0.57870    0.14800    0.94060    1.000
    O80      O        0.87440    0.28760    0.21000    1.000
    O81      O        0.75670    0.22280    0.20341    1.000
    O82      O        0.64370    0.13310    0.03748    1.000
    O83      O        0.20240    0.53930    0.29960    1.000
    O84      O        0.87110    0.11180    0.20735    1.000
    C199     C        0.45430    0.14020    0.99920    1.000
    C200     C        0.39530    0.17150    0.03070    1.000
    H145     H        0.34070    0.19550    0.01820    1.000
    H146     H        0.46120    0.18820    0.04570    1.000
    C201     C        0.35820    0.10870    0.97800    1.000
    H147     H        0.31740    0.08700    0.99700    1.000
    H148     H        0.40000    0.08930    0.95760    1.000
    C202     C        0.51470    0.17500    0.96990    1.000
    H149     H        0.57430    0.19610    0.98370    1.000
    H150     H        0.44960    0.19500    0.95740    1.000
    C203     C        0.54710    0.10560    0.01770    1.000
    H151     H        0.58500    0.08540    0.99710    1.000
    H152     H        0.50380    0.08490    0.03680    1.000
    C204     C        0.27240    0.16320    0.08920    1.000
    C205     C        0.29020    0.21020    0.09970    1.000
    H153     H        0.33930    0.23050    0.08360    1.000
    C206     C        0.23580    0.22760    0.13400    1.000
    H154     H        0.25160    0.25930    0.14200    1.000
    C207     C        0.15830    0.19870    0.15660    1.000
    C208     C        0.14220    0.15150    0.14600    1.000
    H155     H        0.09170    0.13120    0.16170    1.000
    C209     C        0.19950    0.13390    0.11260    1.000
    H156     H        0.18880    0.10150    0.10560    1.000
    C210     C        0.09590    0.21890    0.19320    1.000
    C211     C        0.21480    0.12480    0.92550    1.000
    C212     C        0.15420    0.16060    0.90460    1.000
    H157     H        0.14790    0.19160    0.91550    1.000
    C213     C        0.10390    0.15100    0.86850    1.000
    H158     H        0.06190    0.17530    0.85440    1.000
    C214     C        0.11380    0.10600    0.85240    1.000
    C215     C        0.16590    0.07000    0.87430    1.000
    H159     H        0.16740    0.03860    0.86410    1.000
    C216     C        0.21620    0.07920    0.91110    1.000
    H160     H        0.25130    0.05420    0.92630    1.000
    C217     C        0.06760    0.40310    0.18850    1.000
    C218     C        0.62580    0.17210    0.90870    1.000
    C219     C        0.60200    0.21960    0.90060    1.000
    H161     H        0.55170    0.23800    0.91790    1.000
    C220     C        0.65290    0.23970    0.86700    1.000
    H162     H        0.63400    0.27170    0.86060    1.000
    C221     C        0.73070    0.21370    0.84280    1.000
    C222     C        0.75360    0.16670    0.85140    1.000
    H163     H        0.80640    0.14860    0.83470    1.000
    C223     C        0.70140    0.14580    0.88360    1.000
    H164     H        0.71670    0.11320    0.88890    1.000
    C224     C        0.79110    0.26380    0.19310    1.000
    C225     C        0.68510    0.11720    0.07270    1.000
    C226     C        0.75700    0.14930    0.09380    1.000
    H165     H        0.77680    0.17950    0.08290    1.000
    C227     C        0.79950    0.13700    0.13100    1.000
    H166     H        0.84710    0.15920    0.14570    1.000
    C228     C        0.77380    0.09290    0.14700    1.000
    C229     C        0.70530    0.06040    0.12530    1.000
    H167     H        0.68860    0.02990    0.13600    1.000
    C230     C        0.66020    0.07190    0.08780    1.000
    H168     H        0.61370    0.04940    0.07290    1.000
    C231     C        0.81690    0.08020    0.18780    1.000
    O85      O        0.67630    0.85770    0.55644    1.000
    O86      O        0.87220    0.74060    0.70413    1.000
    O87      O        0.98400    0.80660    0.70909    1.000
    O88      O        0.73240    0.86090    0.46040    1.000
    O89      O        0.98310    0.63030    0.70644    1.000
    O90      O        0.92280    0.55560    0.70250    1.000
    O91      O        0.42130    0.85200    0.44060    1.000
    O92      O        0.12560    0.71240    0.71000    1.000
    O93      O        0.24330    0.77720    0.70341    1.000
    O94      O        0.35630    0.86690    0.53748    1.000
    O95      O        0.79760    0.46070    0.79960    1.000
    O96      O        0.12890    0.88820    0.70735    1.000
    C232     C        0.54570    0.85980    0.49920    1.000
    C233     C        0.60470    0.82850    0.53070    1.000
    H169     H        0.65930    0.80450    0.51820    1.000
    H170     H        0.53880    0.81180    0.54570    1.000
    C234     C        0.64180    0.89130    0.47800    1.000
    H171     H        0.68260    0.91300    0.49700    1.000
    H172     H        0.60000    0.91070    0.45760    1.000
    C235     C        0.48530    0.82500    0.46990    1.000
    H173     H        0.42570    0.80390    0.48370    1.000
    H174     H        0.55040    0.80500    0.45740    1.000
    C236     C        0.45290    0.89440    0.51770    1.000
    H175     H        0.41500    0.91460    0.49710    1.000
    H176     H        0.49620    0.91510    0.53680    1.000
    C237     C        0.72760    0.83680    0.58920    1.000
    C238     C        0.70980    0.78980    0.59970    1.000
    H177     H        0.66070    0.76950    0.58360    1.000
    C239     C        0.76420    0.77240    0.63400    1.000
    H178     H        0.74840    0.74070    0.64200    1.000
    C240     C        0.84170    0.80130    0.65660    1.000
    C241     C        0.85780    0.84850    0.64600    1.000
    H179     H        0.90830    0.86880    0.66170    1.000
    C242     C        0.80050    0.86610    0.61260    1.000
    H180     H        0.81120    0.89850    0.60560    1.000
    C243     C        0.90410    0.78110    0.69320    1.000
    C244     C        0.78520    0.87520    0.42550    1.000
    C245     C        0.84580    0.83940    0.40460    1.000
    H181     H        0.85210    0.80840    0.41550    1.000
    C246     C        0.89610    0.84900    0.36850    1.000
    H182     H        0.93810    0.82470    0.35440    1.000
    C247     C        0.88620    0.89400    0.35240    1.000
    C248     C        0.83410    0.93000    0.37430    1.000
    H183     H        0.83260    0.96140    0.36410    1.000
    C249     C        0.78380    0.92080    0.41110    1.000
    H184     H        0.74870    0.94580    0.42630    1.000
    C250     C        0.93240    0.59690    0.68850    1.000
    C251     C        0.37420    0.82790    0.40870    1.000
    C252     C        0.39800    0.78040    0.40060    1.000
    H185     H        0.44830    0.76200    0.41790    1.000
    C253     C        0.34710    0.76030    0.36700    1.000
    H186     H        0.36600    0.72830    0.36060    1.000
    C254     C        0.26930    0.78630    0.34280    1.000
    C255     C        0.24640    0.83330    0.35140    1.000
    H187     H        0.19360    0.85140    0.33470    1.000
    C256     C        0.29860    0.85420    0.38360    1.000
    H188     H        0.28330    0.88680    0.38890    1.000
    C257     C        0.20890    0.73620    0.69310    1.000
    C258     C        0.31490    0.88280    0.57270    1.000
    C259     C        0.24300    0.85070    0.59380    1.000
    H189     H        0.22320    0.82050    0.58290    1.000
    C260     C        0.20050    0.86300    0.63100    1.000
    H190     H        0.15290    0.84080    0.64570    1.000
    C261     C        0.22620    0.90710    0.64700    1.000
    C262     C        0.29470    0.93960    0.62530    1.000
    H191     H        0.31140    0.97010    0.63600    1.000
    C263     C        0.33980    0.92810    0.58780    1.000
    H192     H        0.38630    0.95060    0.57290    1.000
    C264     C        0.18310    0.91980    0.68780    1.000
    Dy1      Dy       0.03356    0.19094    0.75000    1.000
    Dy2      Dy       0.85371    0.32561    0.75000    1.000
    Dy3      Dy       0.17890    0.01253    0.75000    1.000
    N1       N        0.91660    0.99600    0.75000    1.000
    O97      O        0.95400    0.03590    0.75000    1.000
    O98      O        0.98630    0.96360    0.75000    1.000
    O99      O        0.80580    0.98890    0.75000    1.000
    O100     O        0.40000    0.56980    0.75000    1.000
    Dy4      Dy       0.88610    0.50574    0.75000    1.000
    N2       N        0.62400    0.53020    0.75000    1.000
    O101     O        0.65630    0.48940    0.75000    1.000
    O102     O        0.70250    0.56030    0.75000    1.000
    O103     O        0.51700    0.54010    0.75000    1.000
    Dy5      Dy       0.96644    0.80906    0.25000    1.000
    Dy6      Dy       0.14629    0.67439    0.25000    1.000
    Dy7      Dy       0.82110    0.98747    0.25000    1.000
    N3       N        0.08340    0.00400    0.25000    1.000
    O104     O        0.04600    0.96410    0.25000    1.000
    O105     O        0.01370    0.03640    0.25000    1.000
    O106     O        0.19420    0.01110    0.25000    1.000
    O107     O        0.60000    0.43020    0.25000    1.000
    Dy8      Dy       0.11390    0.49426    0.25000    1.000
    N4       N        0.37600    0.46980    0.25000    1.000
    O108     O        0.34370    0.51060    0.25000    1.000
    O109     O        0.29750    0.43970    0.25000    1.000
    O110     O        0.48300    0.45990    0.25000    1.000
    Dy9      Dy       0.96644    0.69094    0.75000    1.000
    Dy10     Dy       0.14629    0.82561    0.75000    1.000
    Dy11     Dy       0.82110    0.51253    0.75000    1.000
    N5       N        0.08340    0.49600    0.75000    1.000
    O111     O        0.04600    0.53590    0.75000    1.000
    O112     O        0.01370    0.46360    0.75000    1.000
    O113     O        0.19420    0.48890    0.75000    1.000
    O114     O        0.60000    0.06980    0.75000    1.000
    Dy12     Dy       0.11390    0.00574    0.75000    1.000
    N6       N        0.37600    0.03020    0.75000    1.000
    O115     O        0.34370    0.98940    0.75000    1.000
    O116     O        0.29750    0.06030    0.75000    1.000
    O117     O        0.48300    0.04010    0.75000    1.000
    Dy13     Dy       0.03356    0.30906    0.25000    1.000
    Dy14     Dy       0.85371    0.17439    0.25000    1.000
    Dy15     Dy       0.17890    0.48747    0.25000    1.000
    N7       N        0.91660    0.50400    0.25000    1.000
    O118     O        0.95400    0.46410    0.25000    1.000
    O119     O        0.98630    0.53640    0.25000    1.000
    O120     O        0.80580    0.51110    0.25000    1.000
    O121     O        0.40000    0.93020    0.25000    1.000
    Dy16     Dy       0.88610    0.99426    0.25000    1.000
    N8       N        0.62400    0.96980    0.25000    1.000
    O122     O        0.65630    0.01060    0.25000    1.000
    O123     O        0.70250    0.93970    0.25000    1.000
    O124     O        0.51700    0.95990    0.25000    1.000
