# CIF file generated by openbabel 3.1.0, see https://openbabel.org
data_I
_chemical_name_common 'image0'
_cell_length_a 19.61
_cell_length_b 9.409
_cell_length_c 20.32
_cell_angle_alpha 90
_cell_angle_beta 125.31
_cell_angle_gamma 90
_space_group_name_H-M_alt 'P 1'
_space_group_name_Hall 'P 1'
loop_
    _symmetry_equiv_pos_as_xyz
    x,y,z
loop_
    _atom_site_label
    _atom_site_type_symbol
    _atom_site_fract_x
    _atom_site_fract_y
    _atom_site_fract_z
    _atom_site_occupancy
    Cu1      Cu       0.24950    0.99910    0.06670    1.000
    Cu2      Cu       0.75170    0.74410    0.42710    1.000
    C1       C        0.97620    0.06080    0.88830    1.000
    C2       C        0.06730    0.05110    0.92020    1.000
    C3       C        0.11970    0.99480    0.00520    1.000
    C4       C        0.14610    0.95830    0.07270    1.000
    C5       C        0.15140    0.91610    0.14520    1.000
    C6       C        0.93800    0.91450    0.87370    1.000
    C7       C        0.38020    0.99560    0.14500    1.000
    C8       C        0.35700    0.91800    0.17310    1.000
    C9       C        0.35430    0.81420    0.22600    1.000
    C10      C        0.44140    0.76240    0.29460    1.000
    C11      C        0.47640    0.66260    0.26290    1.000
    C12      C        0.57000    0.62780    0.32730    1.000
    C13      C        0.62410    0.75050    0.33840    1.000
    C14      C        0.64810    0.86580    0.33380    1.000
    C15      C        0.65430    0.01100    0.31490    1.000
    C16      C        0.56910    0.07750    0.26000    1.000
    C17      C        0.52060    0.03310    0.17260    1.000
    C18      C        0.42980    0.08370    0.12330    1.000
    C19      C        0.88280    0.78150    0.49770    1.000
    C20      C        0.85640    0.82000    0.43150    1.000
    C21      C        0.85190    0.87150    0.35930    1.000
    C22      C        0.93780    0.87930    0.37490    1.000
    C23      C        0.97390    0.73320    0.38200    1.000
    C24      C        0.93280    0.73580    0.58350    1.000
    S1       S        0.73900    0.88390    0.57680    1.000
    O1       O        0.74430    0.76650    0.53410    1.000
    O2       O        0.79690    0.87850    0.66310    1.000
    O3       O        0.73110    0.02240    0.54110    1.000
    C25      C        0.63650    0.85520    0.55770    1.000
    F1       F        0.63400    0.72990    0.58310    1.000
    F2       F        0.62470    0.95050    0.59830    1.000
    F3       F        0.57680    0.87020    0.48150    1.000
    Cu3      Cu       0.74950    0.49910    0.06670    1.000
    Cu4      Cu       0.25170    0.24410    0.42710    1.000
    C26      C        0.47620    0.56080    0.88830    1.000
    C27      C        0.56730    0.55110    0.92020    1.000
    C28      C        0.61970    0.49480    0.00520    1.000
    C29      C        0.64610    0.45830    0.07270    1.000
    C30      C        0.65140    0.41610    0.14520    1.000
    C31      C        0.43800    0.41450    0.87370    1.000
    C32      C        0.88020    0.49560    0.14500    1.000
    C33      C        0.85700    0.41800    0.17310    1.000
    C34      C        0.85430    0.31420    0.22600    1.000
    C35      C        0.94140    0.26240    0.29460    1.000
    C36      C        0.97640    0.16260    0.26290    1.000
    C37      C        0.07000    0.12780    0.32730    1.000
    C38      C        0.12410    0.25050    0.33840    1.000
    C39      C        0.14810    0.36580    0.33380    1.000
    C40      C        0.15430    0.51100    0.31490    1.000
    C41      C        0.06910    0.57750    0.26000    1.000
    C42      C        0.02060    0.53310    0.17260    1.000
    C43      C        0.92980    0.58370    0.12330    1.000
    C44      C        0.38280    0.28150    0.49770    1.000
    C45      C        0.35640    0.32000    0.43150    1.000
    C46      C        0.35190    0.37150    0.35930    1.000
    C47      C        0.43780    0.37930    0.37490    1.000
    C48      C        0.47390    0.23320    0.38200    1.000
    C49      C        0.43280    0.23580    0.58350    1.000
    S2       S        0.23900    0.38390    0.57680    1.000
    O4       O        0.24430    0.26650    0.53410    1.000
    O5       O        0.29690    0.37850    0.66310    1.000
    O6       O        0.23110    0.52240    0.54110    1.000
    C50      C        0.13650    0.35520    0.55770    1.000
    F4       F        0.13400    0.22990    0.58310    1.000
    F5       F        0.12470    0.45050    0.59830    1.000
    F6       F        0.07680    0.37020    0.48150    1.000
    Cu5      Cu       0.75050    0.99910    0.93330    1.000
    Cu6      Cu       0.24830    0.74410    0.57290    1.000
    C51      C        0.02380    0.06080    0.11170    1.000
    C52      C        0.93270    0.05110    0.07980    1.000
    C53      C        0.88030    0.99480    0.99480    1.000
    C54      C        0.85390    0.95830    0.92730    1.000
    C55      C        0.84860    0.91610    0.85480    1.000
    C56      C        0.06200    0.91450    0.12630    1.000
    C57      C        0.61980    0.99560    0.85500    1.000
    C58      C        0.64300    0.91800    0.82690    1.000
    C59      C        0.64570    0.81420    0.77400    1.000
    C60      C        0.55860    0.76240    0.70540    1.000
    C61      C        0.52360    0.66260    0.73710    1.000
    C62      C        0.43000    0.62780    0.67270    1.000
    C63      C        0.37590    0.75050    0.66160    1.000
    C64      C        0.35190    0.86580    0.66620    1.000
    C65      C        0.34570    0.01100    0.68510    1.000
    C66      C        0.43090    0.07750    0.74000    1.000
    C67      C        0.47940    0.03310    0.82740    1.000
    C68      C        0.57020    0.08370    0.87670    1.000
    C69      C        0.11720    0.78150    0.50230    1.000
    C70      C        0.14360    0.82000    0.56850    1.000
    C71      C        0.14810    0.87150    0.64070    1.000
    C72      C        0.06220    0.87930    0.62510    1.000
    C73      C        0.02610    0.73320    0.61800    1.000
    C74      C        0.06720    0.73580    0.41650    1.000
    S3       S        0.26100    0.88390    0.42320    1.000
    O7       O        0.25570    0.76650    0.46590    1.000
    O8       O        0.20310    0.87850    0.33690    1.000
    O9       O        0.26890    0.02240    0.45890    1.000
    C75      C        0.36350    0.85520    0.44230    1.000
    F7       F        0.36600    0.72990    0.41690    1.000
    F8       F        0.37530    0.95050    0.40170    1.000
    F9       F        0.42320    0.87020    0.51850    1.000
    Cu7      Cu       0.25050    0.49910    0.93330    1.000
    Cu8      Cu       0.74830    0.24410    0.57290    1.000
    C76      C        0.52380    0.56080    0.11170    1.000
    C77      C        0.43270    0.55110    0.07980    1.000
    C78      C        0.38030    0.49480    0.99480    1.000
    C79      C        0.35390    0.45830    0.92730    1.000
    C80      C        0.34860    0.41610    0.85480    1.000
    C81      C        0.56200    0.41450    0.12630    1.000
    C82      C        0.11980    0.49560    0.85500    1.000
    C83      C        0.14300    0.41800    0.82690    1.000
    C84      C        0.14570    0.31420    0.77400    1.000
    C85      C        0.05860    0.26240    0.70540    1.000
    C86      C        0.02360    0.16260    0.73710    1.000
    C87      C        0.93000    0.12780    0.67270    1.000
    C88      C        0.87590    0.25050    0.66160    1.000
    C89      C        0.85190    0.36580    0.66620    1.000
    C90      C        0.84570    0.51100    0.68510    1.000
    C91      C        0.93090    0.57750    0.74000    1.000
    C92      C        0.97940    0.53310    0.82740    1.000
    C93      C        0.07020    0.58370    0.87670    1.000
    C94      C        0.61720    0.28150    0.50230    1.000
    C95      C        0.64360    0.32000    0.56850    1.000
    C96      C        0.64810    0.37150    0.64070    1.000
    C97      C        0.56220    0.37930    0.62510    1.000
    C98      C        0.52610    0.23320    0.61800    1.000
    C99      C        0.56720    0.23580    0.41650    1.000
    S4       S        0.76100    0.38390    0.42320    1.000
    O10      O        0.75570    0.26650    0.46590    1.000
    O11      O        0.70310    0.37850    0.33690    1.000
    O12      O        0.76890    0.52240    0.45890    1.000
    C100     C        0.86350    0.35520    0.44230    1.000
    F10      F        0.86600    0.22990    0.41690    1.000
    F11      F        0.87530    0.45050    0.40170    1.000
    F12      F        0.92320    0.37020    0.51850    1.000
