data_functionalizedCrystal
_audit_creation_method	'EQeq! by Chris Wilmer'
_symmetry_space_group_name_H-M	'P1'
_symmetry_Int_Tables_number	1
_symmetry_cell_setting	triclinic
loop_
_symmetry_equiv_pos_as_xyz
  x,y,z
_cell_length_a	7.6001
_cell_length_b	9.9758
_cell_length_c	17.5108
_cell_angle_alpha	90
_cell_angle_beta	90
_cell_angle_gamma	90
loop_
_atom_site_label
_atom_site_type_symbol
_atom_site_fract_x
_atom_site_fract_y
_atom_site_fract_z
_atom_site_charge
Mof_Zn	Zn	0.34975	0.25	0.41926	1.134
Mof_Zn	Zn	0.48977	0.25	0.76296	1.167
Mof_Zn	Zn	0.15025	0.75	0.91926	1.135
Mof_Zn	Zn	0.01023	0.75	0.26296	1.167
Mof_Zn	Zn	0.65025	0.75	0.58074	1.135
Mof_Zn	Zn	0.51023	0.75	0.23704	1.168
Mof_Zn	Zn	0.84975	0.25	0.08074	1.135
Mof_Zn	Zn	0.98977	0.25	0.73704	1.167
Mof_H 	H 	0.5372	0.4592	0.3184	-0.067
Mof_H 	H 	0.0379	0.4683	0.3723	-0.063
Mof_H 	H 	0.9628	0.5408	0.8184	-0.067
Mof_H 	H 	0.4621	0.5317	0.8723	-0.063
Mof_H 	H 	0.4628	0.9592	0.6816	-0.067
Mof_H 	H 	0.9621	0.9683	0.6277	-0.062
Mof_H 	H 	0.0372	0.0408	0.1816	-0.06
Mof_H 	H 	0.5379	0.0317	0.1277	-0.062
Mof_H 	H 	0.4628	0.5408	0.6816	-0.067
Mof_H 	H 	0.9621	0.5317	0.6277	-0.063
Mof_H 	H 	0.0372	0.4592	0.1816	-0.067
Mof_H 	H 	0.5379	0.4683	0.1277	-0.063
Mof_H 	H 	0.5372	0.0408	0.3184	-0.067
Mof_H 	H 	0.0379	0.0317	0.3723	-0.062
Mof_H 	H 	0.9628	0.9592	0.8184	-0.06
Mof_H 	H 	0.4621	0.9683	0.8723	-0.062
Mof_H 	H 	0.5353	0.25	0.5777	-0.066
Mof_H 	H 	0.0262	0.25	0.5429	-0.064
Mof_H 	H 	0.9647	0.75	0.0777	-0.061
Mof_H 	H 	0.4738	0.75	0.0429	-0.065
Mof_H 	H 	0.4647	0.75	0.4223	-0.066
Mof_H 	H 	0.9738	0.75	0.4571	-0.064
Mof_H 	H 	0.0353	0.25	0.9223	-0.061
Mof_H 	H 	0.5262	0.25	0.9571	-0.065
Mof_C 	C 	0.4176	0.48589	0.3225	0.072
Mof_C 	C 	0.1495	0.4906	0.35145	0.092
Mof_C 	C 	0.0824	0.51411	0.8225	0.073
Mof_C 	C 	0.3505	0.5094	0.85145	0.092
Mof_C 	C 	0.5824	0.98589	0.6775	0.072
Mof_C 	C 	0.8505	0.9906	0.64855	0.094
Mof_C 	C 	0.9176	0.01411	0.1775	0.059
Mof_C 	C 	0.6495	0.0094	0.14855	0.087
Mof_C 	C 	0.5824	0.51411	0.6775	0.072
Mof_C 	C 	0.8505	0.5094	0.64855	0.092
Mof_C 	C 	0.9176	0.48589	0.1775	0.073
Mof_C 	C 	0.6495	0.4906	0.14855	0.092
Mof_C 	C 	0.4176	0.01411	0.3225	0.072
Mof_C 	C 	0.1495	0.0094	0.35145	0.094
Mof_C 	C 	0.0824	0.98589	0.8225	0.059
Mof_C 	C 	0.3505	0.9906	0.85145	0.087
Mof_C 	C 	0.4117	0.25	0.58588	0.07
Mof_C 	C 	0.1381	0.25	0.56714	0.09
Mof_C 	C 	0.0883	0.75	0.08588	0.065
Mof_C 	C 	0.3619	0.75	0.06714	0.09
Mof_C 	C 	0.5883	0.75	0.41412	0.07
Mof_C 	C 	0.8619	0.75	0.43286	0.09
Mof_C 	C 	0.9117	0.25	0.91412	0.065
Mof_C 	C 	0.6381	0.25	0.93286	0.09
Mof_N 	N 	0.2957	0.41598	0.3617	-0.328
Mof_N 	N 	0.35388	0.59487	0.29041	-0.234
Mof_N 	N 	0.17832	0.59813	0.30931	-0.239
Mof_N 	N 	0.2043	0.58402	0.8617	-0.328
Mof_N 	N 	0.14612	0.40513	0.79041	-0.233
Mof_N 	N 	0.32168	0.40187	0.80931	-0.238
Mof_N 	N 	0.7043	0.91598	0.6383	-0.328
Mof_N 	N 	0.64612	0.09487	0.70959	-0.234
Mof_N 	N 	0.82168	0.09813	0.69069	-0.24
Mof_N 	N 	0.7957	0.08402	0.1383	-0.326
Mof_N 	N 	0.85388	0.90513	0.20959	-0.229
Mof_N 	N 	0.67832	0.90187	0.19069	-0.236
Mof_N 	N 	0.7043	0.58402	0.6383	-0.328
Mof_N 	N 	0.64612	0.40513	0.70959	-0.234
Mof_N 	N 	0.82168	0.40187	0.69069	-0.239
Mof_N 	N 	0.7957	0.41598	0.1383	-0.328
Mof_N 	N 	0.85388	0.59487	0.20959	-0.233
Mof_N 	N 	0.67832	0.59813	0.19069	-0.238
Mof_N 	N 	0.2957	0.08402	0.3617	-0.328
Mof_N 	N 	0.35388	0.90513	0.29041	-0.234
Mof_N 	N 	0.17832	0.90187	0.30931	-0.24
Mof_N 	N 	0.2043	0.91598	0.8617	-0.326
Mof_N 	N 	0.14612	0.09487	0.79041	-0.229
Mof_N 	N 	0.32168	0.09813	0.80931	-0.236
Mof_N 	N 	0.2927	0.25	0.52887	-0.332
Mof_N 	N 	0.3389	0.25	0.65435	-0.226
Mof_N 	N 	0.1603	0.25	0.642	-0.242
Mof_N 	N 	0.2073	0.75	0.02887	-0.331
Mof_N 	N 	0.1611	0.75	0.15435	-0.226
Mof_N 	N 	0.3397	0.75	0.142	-0.243
Mof_N 	N 	0.7073	0.75	0.47113	-0.332
Mof_N 	N 	0.6611	0.75	0.34565	-0.226
Mof_N 	N 	0.8397	0.75	0.358	-0.242
Mof_N 	N 	0.7927	0.25	0.97113	-0.331
Mof_N 	N 	0.8389	0.25	0.84565	-0.226
Mof_N 	N 	0.6603	0.25	0.858	-0.243
_end
