data_functionalizedCrystal
_audit_creation_method	'EQeq! by Chris Wilmer'
_symmetry_space_group_name_H-M	'P1'
_symmetry_Int_Tables_number	1
_symmetry_cell_setting	triclinic
loop_
_symmetry_equiv_pos_as_xyz
  x,y,z
_cell_length_a	10.022
_cell_length_b	10.182
_cell_length_c	10.619
_cell_angle_alpha	72.983
_cell_angle_beta	62.182
_cell_angle_gamma	63.997
loop_
_atom_site_label
_atom_site_type_symbol
_atom_site_fract_x
_atom_site_fract_y
_atom_site_fract_z
_atom_site_charge
Mof_Cu	Cu	0.22877	0.49947	0.53742	0.925
Mof_Cu	Cu	0.42925	0.18211	0.80104	0.866
Mof_Cu	Cu	0.24864	0.14313	0.1863	0.864
Mof_Cu	Cu	0.77123	0.50053	0.46258	0.924
Mof_Cu	Cu	0.57075	0.81789	0.19896	0.865
Mof_Cu	Cu	0.75136	0.85687	0.8137	0.864
Mof_P 	P 	0.85454	0.54252	0.71595	0.461
Mof_P 	P 	0.59272	0.10921	0.00747	0.413
Mof_P 	P 	0.57944	0.48551	0.30451	0.431
Mof_P 	P 	0.14546	0.45748	0.28405	0.461
Mof_P 	P 	0.40728	0.89079	0.99253	0.413
Mof_P 	P 	0.42056	0.51449	0.69549	0.431
Mof_H 	H 	0.731	0.312	0.793	0.025
Mof_H 	H 	0.547	0.251	0.217	0.034
Mof_H 	H 	0.759	0.542	0.018	-0.006
Mof_H 	H 	0.269	0.688	0.207	0.025
Mof_H 	H 	0.453	0.749	0.783	0.034
Mof_H 	H 	0.241	0.458	0.982	-0.006
Mof_C 	C 	0.7625	0.444	0.8823	-0.107
Mof_C 	C 	0.7224	0.3281	0.8823	0.033
Mof_C 	C 	0.6442	0.2553	0.0114	-0.091
Mof_C 	C 	0.6023	0.3	0.1408	0.023
Mof_C 	C 	0.6435	0.4131	0.1418	-0.098
Mof_C 	C 	0.7259	0.4814	0.0123	0.042
Mof_C 	C 	0.2375	0.556	0.1177	-0.107
Mof_C 	C 	0.2776	0.6719	0.1177	0.033
Mof_C 	C 	0.3558	0.7447	0.9886	-0.091
Mof_C 	C 	0.3977	0.7	0.8592	0.023
Mof_C 	C 	0.3565	0.5869	0.8582	-0.098
Mof_C 	C 	0.2741	0.5186	0.9877	0.042
Mof_O 	O 	0.459	0.4173	0.4241	-0.387
Mof_O 	O 	0.8339	0.5018	0.6033	-0.403
Mof_O 	O 	0.0316	0.4893	0.6938	-0.408
Mof_O 	O 	0.7333	0.4397	0.3293	-0.402
Mof_O 	O 	0.4273	0.1735	0.9947	-0.477
Mof_O 	O 	0.7211	0.0347	0.8735	-0.438
Mof_O 	O 	0.7688	0.7064	0.7306	-0.427
Mof_O 	O 	0.4995	0.6528	0.2814	-0.42
Mof_O 	O 	0.5775	0.0138	0.1503	-0.452
Mof_O 	O 	0.541	0.5827	0.5759	-0.387
Mof_O 	O 	0.1661	0.4982	0.3967	-0.403
Mof_O 	O 	0.9684	0.5107	0.3062	-0.408
Mof_O 	O 	0.2667	0.5603	0.6707	-0.402
Mof_O 	O 	0.5727	0.8265	0.0053	-0.477
Mof_O 	O 	0.2789	0.9653	0.1265	-0.438
Mof_O 	O 	0.2312	0.2936	0.2694	-0.427
Mof_O 	O 	0.5005	0.3472	0.7186	-0.42
Mof_O 	O 	0.4225	0.9862	0.8497	-0.452
_end
