data_functionalizedCrystal
_audit_creation_method	'EQeq! by Chris Wilmer'
_symmetry_space_group_name_H-M	'P1'
_symmetry_Int_Tables_number	1
_symmetry_cell_setting	triclinic
loop_
_symmetry_equiv_pos_as_xyz
  x,y,z
_cell_length_a	27.288
_cell_length_b	27.288
_cell_length_c	27.288
_cell_angle_alpha	60
_cell_angle_beta	60
_cell_angle_gamma	60
loop_
_atom_site_label
_atom_site_type_symbol
_atom_site_fract_x
_atom_site_fract_y
_atom_site_fract_z
_atom_site_charge
Mof_Zn	Zn	0.31935	0.31935	0.31935	1.116
Mof_Zn	Zn	0.80468	0.19532	0.80468	1.168
Mof_Zn	Zn	0.62689	0.11933	0.62689	1.181
Mof_Zn	Zn	0.04195	0.31935	0.31935	1.115
Mof_Zn	Zn	0.37311	0.88067	0.37311	1.181
Mof_Zn	Zn	0.80468	0.80468	0.19532	1.168
Mof_Zn	Zn	0.72745	0.72745	0.27255	1.185
Mof_Zn	Zn	0.19532	0.19532	0.80468	1.168
Mof_Zn	Zn	0.68065	0.68065	0.95805	1.115
Mof_Zn	Zn	0.31935	0.31935	0.04195	1.115
Mof_Zn	Zn	0.68065	0.95805	0.68065	1.115
Mof_Zn	Zn	0.72745	0.27255	0.27255	1.185
Mof_Zn	Zn	0.11933	0.62689	0.62689	1.181
Mof_Zn	Zn	0.27255	0.72745	0.72745	1.185
Mof_Zn	Zn	0.37311	0.37311	0.37311	1.181
Mof_Zn	Zn	0.27255	0.72745	0.27255	1.185
Mof_Zn	Zn	0.31935	0.04195	0.31935	1.115
Mof_Zn	Zn	0.95805	0.68065	0.68065	1.115
Mof_Zn	Zn	0.19532	0.80468	0.80468	1.168
Mof_Zn	Zn	0.72745	0.27255	0.72745	1.185
Mof_Zn	Zn	0.27255	0.27255	0.72745	1.186
Mof_Zn	Zn	0.62689	0.62689	0.11933	1.182
Mof_Zn	Zn	0.68065	0.68065	0.68065	1.117
Mof_Zn	Zn	0.62689	0.62689	0.62689	1.182
Mof_Zn	Zn	0.88067	0.37311	0.37311	1.182
Mof_Zn	Zn	0.80468	0.19532	0.19532	1.169
Mof_Zn	Zn	0.37311	0.37311	0.88067	1.182
Mof_Zn	Zn	0.19532	0.80468	0.19532	1.169
Mof_H 	H 	0.8964	0.7098	0.4626	1.326
Mof_H 	H 	0.0275	0.8159	0.8159	0.238
Mof_H 	H 	0.5374	0.0688	0.2902	1.326
Mof_H 	H 	0.9583	0.7205	0.4293	1.348
Mof_H 	H 	0.1036	0.5374	0.2902	1.326
Mof_H 	H 	0.8687	0.2867	0.2867	0.115
Mof_H 	H 	0.922	0.9534	0.3924	1.317
Mof_H 	H 	0.2358	0.0482	0.4802	0.21
Mof_H 	H 	0.8919	0.4293	0.7205	1.348
Mof_H 	H 	0.7133	0.1313	0.7133	0.115
Mof_H 	H 	0.8159	0.3407	0.8159	0.253
Mof_H 	H 	0.0466	0.2678	0.6076	1.311
Mof_H 	H 	0.0417	0.1081	0.5707	1.354
Mof_H 	H 	0.4626	0.8964	0.7098	1.326
Mof_H 	H 	0.2902	0.1036	0.5374	1.326
Mof_H 	H 	0.0688	0.5374	0.2902	1.326
Mof_H 	H 	0.7205	0.9583	0.8919	1.281
Mof_H 	H 	0.078	0.2678	0.0466	1.243
Mof_H 	H 	0.922	0.9534	0.7322	1.243
Mof_H 	H 	0.6076	0.2678	0.0466	1.311
Mof_H 	H 	0.9312	0.8964	0.7098	1.259
Mof_H 	H 	0.7642	0.5198	0.9518	0.21
Mof_H 	H 	0.0688	0.5374	0.1036	1.332
Mof_H 	H 	0.8964	0.4626	0.7098	1.326
Mof_H 	H 	0.2358	0.4802	0.0482	0.21
Mof_H 	H 	0.0482	0.2358	0.4802	0.21
Mof_H 	H 	0.2867	0.8687	0.5579	0.122
Mof_H 	H 	0.922	0.7322	0.3924	1.311
Mof_H 	H 	0.5374	0.1036	0.0688	1.332
Mof_H 	H 	0.2867	0.2867	0.5579	0.121
Mof_H 	H 	0.2358	0.0482	0.2358	0.197
Mof_H 	H 	0.0466	0.078	0.2678	1.243
Mof_H 	H 	0.4293	0.7205	0.8919	1.348
Mof_H 	H 	0.0417	0.5707	0.2795	1.348
Mof_H 	H 	0.4626	0.9312	0.7098	1.326
Mof_H 	H 	0.0466	0.2678	0.078	1.243
Mof_H 	H 	0.0466	0.078	0.6076	1.317
Mof_H 	H 	0.9534	0.3924	0.7322	1.311
Mof_H 	H 	0.1841	0.1841	0.9725	0.238
Mof_H 	H 	0.9312	0.7098	0.4626	1.326
Mof_H 	H 	0.2678	0.6076	0.078	1.311
Mof_H 	H 	0.8687	0.2867	0.5579	0.122
Mof_H 	H 	0.9583	0.8919	0.4293	1.354
Mof_H 	H 	0.9725	0.1841	0.6593	0.254
Mof_H 	H 	0.2902	0.5374	0.0688	1.326
Mof_H 	H 	0.5198	0.7642	0.9518	0.21
Mof_H 	H 	0.6076	0.078	0.0466	1.317
Mof_H 	H 	0.922	0.3924	0.9534	1.317
Mof_H 	H 	0.8919	0.9583	0.4293	1.354
Mof_H 	H 	0.7322	0.3924	0.922	1.311
Mof_H 	H 	0.3924	0.7322	0.922	1.311
Mof_H 	H 	0.4626	0.9312	0.8964	1.332
Mof_H 	H 	0.2795	0.5707	0.1081	1.348
Mof_H 	H 	0.2902	0.5374	0.1036	1.326
Mof_H 	H 	0.8159	0.0275	0.3407	0.254
Mof_H 	H 	0.0275	0.3407	0.8159	0.254
Mof_H 	H 	0.7205	0.4293	0.9583	1.348
Mof_H 	H 	0.1081	0.5707	0.2795	1.348
Mof_H 	H 	0.3924	0.9534	0.922	1.317
Mof_H 	H 	0.2795	0.5707	0.0417	1.348
Mof_H 	H 	0.9518	0.7642	0.7642	0.197
Mof_H 	H 	0.9518	0.5198	0.7642	0.21
Mof_H 	H 	0.1036	0.5374	0.0688	1.332
Mof_H 	H 	0.1036	0.2902	0.5374	1.326
Mof_H 	H 	0.8964	0.9312	0.4626	1.332
Mof_H 	H 	0.0688	0.1036	0.5374	1.332
Mof_H 	H 	0.5374	0.0688	0.1036	1.332
Mof_H 	H 	0.2902	0.0688	0.5374	1.326
Mof_H 	H 	0.4802	0.0482	0.2358	0.21
Mof_H 	H 	0.5707	0.1081	0.2795	1.348
Mof_H 	H 	0.0482	0.4802	0.2358	0.21
Mof_H 	H 	0.3407	0.8159	0.8159	0.253
Mof_H 	H 	0.7133	0.1313	0.4421	0.122
Mof_H 	H 	0.5707	0.2795	0.0417	1.348
Mof_H 	H 	0.7205	0.9583	0.4293	1.348
Mof_H 	H 	0.2678	0.0466	0.6076	1.311
Mof_H 	H 	0.2795	0.0417	0.5707	1.348
Mof_H 	H 	0.7133	0.4421	0.7133	0.121
Mof_H 	H 	0.5374	0.2902	0.0688	1.326
Mof_H 	H 	0.7205	0.8919	0.4293	1.348
Mof_H 	H 	0.078	0.6076	0.0466	1.317
Mof_H 	H 	0.5198	0.9518	0.7642	0.21
Mof_H 	H 	0.4626	0.8964	0.9312	1.332
Mof_H 	H 	0.7133	0.7133	0.1313	0.115
Mof_H 	H 	0.2795	0.1081	0.5707	1.348
Mof_H 	H 	0.5374	0.1036	0.2902	1.326
Mof_H 	H 	0.9534	0.922	0.3924	1.317
Mof_H 	H 	0.8159	0.3407	0.0275	0.254
Mof_H 	H 	0.1036	0.0688	0.2902	1.259
Mof_H 	H 	0.3924	0.922	0.7322	1.311
Mof_H 	H 	0.2902	0.0688	0.1036	1.259
Mof_H 	H 	0.7098	0.4626	0.9312	1.326
Mof_H 	H 	0.2678	0.6076	0.0466	1.311
Mof_H 	H 	0.3407	0.0275	0.8159	0.254
Mof_H 	H 	0.9725	0.1841	0.1841	0.238
Mof_H 	H 	0.6076	0.0466	0.078	1.317
Mof_H 	H 	0.0466	0.6076	0.078	1.317
Mof_H 	H 	0.5374	0.2902	0.1036	1.326
Mof_H 	H 	0.4626	0.7098	0.8964	1.326
Mof_H 	H 	0.1313	0.7133	0.4421	0.122
Mof_H 	H 	0.7642	0.7642	0.9518	0.197
Mof_H 	H 	0.9583	0.8919	0.7205	1.281
Mof_H 	H 	0.4802	0.2358	0.0482	0.21
Mof_H 	H 	0.9312	0.4626	0.7098	1.326
Mof_H 	H 	0.2867	0.8687	0.2867	0.115
Mof_H 	H 	0.6593	0.1841	0.1841	0.253
Mof_H 	H 	0.8687	0.5579	0.2867	0.122
Mof_H 	H 	0.4421	0.7133	0.7133	0.121
Mof_H 	H 	0.8919	0.4293	0.9583	1.354
Mof_H 	H 	0.922	0.3924	0.7322	1.311
Mof_H 	H 	0.0482	0.2358	0.2358	0.197
Mof_H 	H 	0.4421	0.1313	0.7133	0.122
Mof_H 	H 	0.7133	0.4421	0.1313	0.122
Mof_H 	H 	0.2678	0.0466	0.078	1.243
Mof_H 	H 	0.0275	0.8159	0.3407	0.254
Mof_H 	H 	0.1841	0.1841	0.6593	0.253
Mof_H 	H 	0.9583	0.7205	0.8919	1.281
Mof_H 	H 	0.5579	0.2867	0.8687	0.122
Mof_H 	H 	0.1036	0.0688	0.5374	1.332
Mof_H 	H 	0.4293	0.7205	0.9583	1.348
Mof_H 	H 	0.2902	0.1036	0.0688	1.259
Mof_H 	H 	0.1081	0.2795	0.0417	1.281
Mof_H 	H 	0.3924	0.9534	0.7322	1.311
Mof_H 	H 	0.1841	0.6593	0.9725	0.254
Mof_H 	H 	0.6076	0.2678	0.078	1.311
Mof_H 	H 	0.7642	0.9518	0.5198	0.21
Mof_H 	H 	0.0417	0.2795	0.1081	1.281
Mof_H 	H 	0.5579	0.2867	0.2867	0.121
Mof_H 	H 	0.8964	0.9312	0.7098	1.259
Mof_H 	H 	0.078	0.6076	0.2678	1.311
Mof_H 	H 	0.2678	0.078	0.0466	1.243
Mof_H 	H 	0.1841	0.9725	0.6593	0.254
Mof_H 	H 	0.1841	0.9725	0.1841	0.238
Mof_H 	H 	0.2358	0.2358	0.0482	0.197
Mof_H 	H 	0.2867	0.5579	0.2867	0.121
Mof_H 	H 	0.7322	0.9534	0.922	1.243
Mof_H 	H 	0.922	0.7322	0.9534	1.243
Mof_H 	H 	0.6076	0.078	0.2678	1.311
Mof_H 	H 	0.8964	0.4626	0.9312	1.332
Mof_H 	H 	0.9534	0.3924	0.922	1.317
Mof_H 	H 	0.7642	0.5198	0.7642	0.209
Mof_H 	H 	0.078	0.2678	0.6076	1.311
Mof_H 	H 	0.7322	0.3924	0.9534	1.311
Mof_H 	H 	0.7098	0.9312	0.8964	1.259
Mof_H 	H 	0.7642	0.7642	0.5198	0.209
Mof_H 	H 	0.8919	0.7205	0.9583	1.281
Mof_H 	H 	0.2867	0.5579	0.8687	0.122
Mof_H 	H 	0.078	0.0466	0.6076	1.317
Mof_H 	H 	0.8159	0.8159	0.3407	0.253
Mof_H 	H 	0.7322	0.922	0.3924	1.311
Mof_H 	H 	0.4802	0.2358	0.2358	0.209
Mof_H 	H 	0.9583	0.4293	0.7205	1.348
Mof_H 	H 	0.5579	0.8687	0.2867	0.122
Mof_H 	H 	0.3924	0.7322	0.9534	1.311
Mof_H 	H 	0.4293	0.9583	0.8919	1.354
Mof_H 	H 	0.0688	0.2902	0.1036	1.259
Mof_H 	H 	0.9534	0.922	0.7322	1.243
Mof_H 	H 	0.1313	0.7133	0.7133	0.115
Mof_H 	H 	0.8159	0.0275	0.8159	0.238
Mof_H 	H 	0.0417	0.5707	0.1081	1.354
Mof_H 	H 	0.0688	0.1036	0.2902	1.259
Mof_H 	H 	0.5198	0.7642	0.7642	0.209
Mof_H 	H 	0.5707	0.2795	0.1081	1.348
Mof_H 	H 	0.9534	0.7322	0.922	1.243
Mof_H 	H 	0.8919	0.7205	0.4293	1.348
Mof_H 	H 	0.2358	0.4802	0.2358	0.209
Mof_H 	H 	0.9583	0.4293	0.8919	1.354
Mof_H 	H 	0.7098	0.8964	0.4626	1.326
Mof_H 	H 	0.6593	0.1841	0.9725	0.254
Mof_H 	H 	0.9312	0.8964	0.4626	1.332
Mof_H 	H 	0.4293	0.9583	0.7205	1.348
Mof_H 	H 	0.3924	0.922	0.9534	1.317
Mof_H 	H 	0.2678	0.078	0.6076	1.311
Mof_H 	H 	0.7322	0.922	0.9534	1.243
Mof_H 	H 	0.2358	0.2358	0.4802	0.209
Mof_H 	H 	0.9312	0.7098	0.8964	1.259
Mof_H 	H 	0.0466	0.6076	0.2678	1.311
Mof_H 	H 	0.4421	0.7133	0.1313	0.122
Mof_H 	H 	0.7098	0.8964	0.9312	1.259
Mof_H 	H 	0.5707	0.1081	0.0417	1.354
Mof_H 	H 	0.6076	0.0466	0.2678	1.311
Mof_H 	H 	0.7205	0.4293	0.8919	1.348
Mof_H 	H 	0.5707	0.0417	0.1081	1.354
Mof_H 	H 	0.1036	0.2902	0.0688	1.259
Mof_H 	H 	0.1313	0.4421	0.7133	0.122
Mof_H 	H 	0.3407	0.8159	0.0275	0.254
Mof_H 	H 	0.7098	0.9312	0.4626	1.326
Mof_H 	H 	0.2795	0.1081	0.0417	1.281
Mof_H 	H 	0.7322	0.9534	0.3924	1.311
Mof_H 	H 	0.1081	0.0417	0.2795	1.281
Mof_H 	H 	0.2867	0.2867	0.8687	0.115
Mof_H 	H 	0.4626	0.7098	0.9312	1.326
Mof_H 	H 	0.8919	0.9583	0.7205	1.281
Mof_H 	H 	0.4293	0.8919	0.9583	1.354
Mof_H 	H 	0.7133	0.7133	0.4421	0.121
Mof_H 	H 	0.7098	0.4626	0.8964	1.326
Mof_H 	H 	0.0417	0.1081	0.2795	1.281
Mof_H 	H 	0.9312	0.4626	0.8964	1.332
Mof_H 	H 	0.1081	0.5707	0.0417	1.354
Mof_H 	H 	0.5707	0.0417	0.2795	1.348
Mof_H 	H 	0.078	0.0466	0.2678	1.243
Mof_H 	H 	0.0417	0.2795	0.5707	1.348
Mof_H 	H 	0.7642	0.9518	0.7642	0.197
Mof_H 	H 	0.4293	0.8919	0.7205	1.348
Mof_H 	H 	0.1081	0.0417	0.5707	1.354
Mof_H 	H 	0.8159	0.8159	0.0275	0.238
Mof_H 	H 	0.1841	0.6593	0.1841	0.253
Mof_H 	H 	0.0688	0.2902	0.5374	1.326
Mof_H 	H 	0.1081	0.2795	0.5707	1.348
Mof_H 	H 	0.9518	0.7642	0.5198	0.21
Mof_H 	H 	0.6593	0.9725	0.1841	0.254
Mof_H 	H 	0.9534	0.7322	0.3924	1.311
Mof_H 	H 	0.7205	0.8919	0.9583	1.281
Mof_H 	H 	0.9725	0.6593	0.1841	0.254
Mof_H 	H 	0.8964	0.7098	0.9312	1.259
Mof_H 	H 	0.2795	0.0417	0.1081	1.281
Mof_C 	C 	0.205	0.6214	0.205	-0.928
Mof_C 	C 	0.427	0.7976	0.8877	3.664
Mof_C 	C 	0.7964	0.7964	0.4294	1.096
Mof_C 	C 	0.1713	0.1713	0.083	-2.816
Mof_C 	C 	0.7646	0.98546	0.48534	-0.901
Mof_C 	C 	0.9686	0.205	0.205	-0.867
Mof_C 	C 	0.2661	0.90684	0.56096	-0.382
Mof_C 	C 	0.573	0.1123	0.1123	3.673
Mof_C 	C 	0.083	0.1713	0.5744	-2.971
Mof_C 	C 	0.2338	0.2338	0.6727	0.205
Mof_C 	C 	0.51466	0.2354	0.01454	-0.901
Mof_C 	C 	0.7339	0.09316	0.43904	-0.382
Mof_C 	C 	0.427	0.8877	0.7976	3.664
Mof_C 	C 	0.9778	0.4294	0.7964	1.097
Mof_C 	C 	0.9577	0.5091	0.2666	0.167
Mof_C 	C 	0.7344	0.9188	0.428	-8.214
Mof_C 	C 	0.2354	0.01454	0.2354	-0.854
Mof_C 	C 	0.95124	0.2998	0.2998	0.316
Mof_C 	C 	0.2656	0.0812	0.0812	-7.808
Mof_C 	C 	0.427	0.8877	0.8877	3.673
Mof_C 	C 	0.572	0.0812	0.0812	-8.246
Mof_C 	C 	0.44916	0.2998	0.95124	0.307
Mof_C 	C 	0.8597	0.6727	0.2338	0.206
Mof_C 	C 	0.0862	0.382	0.7659	0.26
Mof_C 	C 	0.04876	0.7002	0.7002	0.316
Mof_C 	C 	0.4294	0.9778	0.7964	1.097
Mof_C 	C 	0.1403	0.7662	0.7662	0.217
Mof_C 	C 	0.7659	0.382	0.0862	0.26
Mof_C 	C 	0.3786	0.795	0.0314	-0.926
Mof_C 	C 	0.0862	0.7659	0.382	0.26
Mof_C 	C 	0.2661	0.56096	0.90684	-0.382
Mof_C 	C 	0.48534	0.7646	0.98546	-0.901
Mof_C 	C 	0.7002	0.7002	0.55084	0.308
Mof_C 	C 	0.7339	0.43904	0.7339	-0.38
Mof_C 	C 	0.6727	0.2338	0.8597	0.206
Mof_C 	C 	0.2354	0.2354	0.01454	-0.854
Mof_C 	C 	0.01454	0.51466	0.2354	-0.901
Mof_C 	C 	0.2341	0.9138	0.618	0.26
Mof_C 	C 	0.56096	0.90684	0.2661	-0.382
Mof_C 	C 	0.04876	0.7002	0.55084	0.307
Mof_C 	C 	0.48534	0.98546	0.7646	-0.901
Mof_C 	C 	0.7646	0.7646	0.48534	-0.896
Mof_C 	C 	0.4256	0.8287	0.917	-2.971
Mof_C 	C 	0.382	0.0862	0.7659	0.26
Mof_C 	C 	0.7662	0.1403	0.7662	0.217
Mof_C 	C 	0.09316	0.7339	0.43904	-0.382
Mof_C 	C 	0.4294	0.7964	0.9778	1.097
Mof_C 	C 	0.7344	0.428	0.9188	-8.214
Mof_C 	C 	0.8287	0.8287	0.4256	-2.967
Mof_C 	C 	0.8287	0.4256	0.8287	-2.967
Mof_C 	C 	0.56096	0.2661	0.90684	-0.382
Mof_C 	C 	0.0222	0.2036	0.5706	1.097
Mof_C 	C 	0.0222	0.5706	0.2036	1.097
Mof_C 	C 	0.7646	0.98546	0.7646	-0.854
Mof_C 	C 	0.6214	0.205	0.205	-0.928
Mof_C 	C 	0.205	0.9686	0.6214	-0.926
Mof_C 	C 	0.8877	0.8877	0.427	3.673
Mof_C 	C 	0.1123	0.1123	0.573	3.673
Mof_C 	C 	0.7964	0.4294	0.9778	1.097
Mof_C 	C 	0.2338	0.2338	0.8597	0.217
Mof_C 	C 	0.55084	0.04876	0.7002	0.307
Mof_C 	C 	0.7659	0.0862	0.7659	0.233
Mof_C 	C 	0.51466	0.01454	0.2354	-0.901
Mof_C 	C 	0.90684	0.2661	0.56096	-0.382
Mof_C 	C 	0.2036	0.2036	0.5706	1.096
Mof_C 	C 	0.7334	0.7334	0.4909	0.161
Mof_C 	C 	0.7964	0.9778	0.4294	1.097
Mof_C 	C 	0.2024	0.1123	0.573	3.664
Mof_C 	C 	0.083	0.1713	0.1713	-2.816
Mof_C 	C 	0.5706	0.0222	0.2036	1.097
Mof_C 	C 	0.7964	0.4294	0.7964	1.096
Mof_C 	C 	0.44916	0.2998	0.2998	0.308
Mof_C 	C 	0.9188	0.7344	0.9188	-7.808
Mof_C 	C 	0.7334	0.0423	0.4909	0.167
Mof_C 	C 	0.98546	0.7646	0.48534	-0.901
Mof_C 	C 	0.2656	0.0812	0.572	-8.214
Mof_C 	C 	0.618	0.9138	0.2341	0.26
Mof_C 	C 	0.7659	0.7659	0.382	0.259
Mof_C 	C 	0.428	0.9188	0.7344	-8.214
Mof_C 	C 	0.205	0.9686	0.205	-0.867
Mof_C 	C 	0.1123	0.2024	0.573	3.664
Mof_C 	C 	0.0812	0.0812	0.572	-8.246
Mof_C 	C 	0.2341	0.2341	0.618	0.259
Mof_C 	C 	0.1713	0.5744	0.1713	-2.967
Mof_C 	C 	0.01454	0.2354	0.51466	-0.901
Mof_C 	C 	0.9138	0.2341	0.618	0.26
Mof_C 	C 	0.6214	0.9686	0.205	-0.926
Mof_C 	C 	0.2341	0.618	0.9138	0.26
Mof_C 	C 	0.7662	0.3273	0.1403	0.206
Mof_C 	C 	0.5706	0.2036	0.2036	1.096
Mof_C 	C 	0.2338	0.8597	0.6727	0.206
Mof_C 	C 	0.2661	0.2661	0.56096	-0.38
Mof_C 	C 	0.0222	0.2036	0.2036	1.029
Mof_C 	C 	0.2998	0.44916	0.2998	0.308
Mof_C 	C 	0.0423	0.7334	0.7334	0.148
Mof_C 	C 	0.9778	0.7964	0.4294	1.097
Mof_C 	C 	0.55084	0.7002	0.04876	0.307
Mof_C 	C 	0.572	0.2656	0.0812	-8.214
Mof_C 	C 	0.0812	0.2656	0.572	-8.214
Mof_C 	C 	0.2341	0.618	0.2341	0.259
Mof_C 	C 	0.2354	0.2354	0.51466	-0.896
Mof_C 	C 	0.7662	0.3273	0.7662	0.205
Mof_C 	C 	0.795	0.795	0.0314	-0.867
Mof_C 	C 	0.8287	0.917	0.4256	-2.971
Mof_C 	C 	0.7659	0.382	0.7659	0.259
Mof_C 	C 	0.7339	0.7339	0.43904	-0.38
Mof_C 	C 	0.7659	0.0862	0.382	0.26
Mof_C 	C 	0.7334	0.4909	0.0423	0.167
Mof_C 	C 	0.917	0.4256	0.8287	-2.971
Mof_C 	C 	0.428	0.7344	0.9188	-8.214
Mof_C 	C 	0.2036	0.0222	0.5706	1.097
Mof_C 	C 	0.1403	0.3273	0.7662	0.206
Mof_C 	C 	0.7334	0.0423	0.7334	0.148
Mof_C 	C 	0.0423	0.4909	0.7334	0.167
Mof_C 	C 	0.0812	0.2656	0.0812	-7.808
Mof_C 	C 	0.2661	0.2661	0.90684	-0.356
Mof_C 	C 	0.795	0.3786	0.795	-0.928
Mof_C 	C 	0.1123	0.2024	0.1123	3.475
Mof_C 	C 	0.2338	0.6727	0.8597	0.206
Mof_C 	C 	0.205	0.6214	0.9686	-0.926
Mof_C 	C 	0.9686	0.6214	0.205	-0.926
Mof_C 	C 	0.7002	0.55084	0.04876	0.307
Mof_C 	C 	0.90684	0.56096	0.2661	-0.382
Mof_C 	C 	0.3273	0.7662	0.7662	0.205
Mof_C 	C 	0.5744	0.1713	0.083	-2.971
Mof_C 	C 	0.56096	0.2661	0.2661	-0.38
Mof_C 	C 	0.8877	0.7976	0.427	3.664
Mof_C 	C 	0.2338	0.8597	0.2338	0.217
Mof_C 	C 	0.205	0.205	0.9686	-0.867
Mof_C 	C 	0.2666	0.2666	0.9577	0.148
Mof_C 	C 	0.7334	0.4909	0.7334	0.161
Mof_C 	C 	0.7646	0.48534	0.7646	-0.896
Mof_C 	C 	0.2024	0.1123	0.1123	3.475
Mof_C 	C 	0.6727	0.8597	0.2338	0.206
Mof_C 	C 	0.9188	0.9188	0.428	-8.246
Mof_C 	C 	0.2998	0.95124	0.44916	0.307
Mof_C 	C 	0.3273	0.7662	0.1403	0.206
Mof_C 	C 	0.2666	0.2666	0.5091	0.161
Mof_C 	C 	0.0423	0.7334	0.4909	0.167
Mof_C 	C 	0.1123	0.573	0.2024	3.664
Mof_C 	C 	0.7646	0.7646	0.98546	-0.854
Mof_C 	C 	0.8287	0.4256	0.917	-2.971
Mof_C 	C 	0.9778	0.7964	0.7964	1.029
Mof_C 	C 	0.7002	0.04876	0.7002	0.316
Mof_C 	C 	0.2341	0.2341	0.9138	0.233
Mof_C 	C 	0.618	0.2341	0.9138	0.26
Mof_C 	C 	0.5706	0.2036	0.0222	1.097
Mof_C 	C 	0.2036	0.5706	0.0222	1.097
Mof_C 	C 	0.8287	0.917	0.8287	-2.816
Mof_C 	C 	0.7659	0.7659	0.0862	0.233
Mof_C 	C 	0.4909	0.0423	0.7334	0.167
Mof_C 	C 	0.55084	0.7002	0.7002	0.308
Mof_C 	C 	0.2354	0.01454	0.51466	-0.901
Mof_C 	C 	0.6727	0.2338	0.2338	0.205
Mof_C 	C 	0.9188	0.7344	0.428	-8.214
Mof_C 	C 	0.7976	0.427	0.8877	3.664
Mof_C 	C 	0.2341	0.9138	0.2341	0.233
Mof_C 	C 	0.6214	0.205	0.9686	-0.926
Mof_C 	C 	0.428	0.9188	0.9188	-8.246
Mof_C 	C 	0.917	0.8287	0.4256	-2.971
Mof_C 	C 	0.7002	0.04876	0.55084	0.307
Mof_C 	C 	0.1123	0.573	0.1123	3.673
Mof_C 	C 	0.2354	0.51466	0.01454	-0.901
Mof_C 	C 	0.2998	0.44916	0.95124	0.307
Mof_C 	C 	0.7976	0.8877	0.427	3.664
Mof_C 	C 	0.98546	0.48534	0.7646	-0.901
Mof_C 	C 	0.0314	0.795	0.3786	-0.926
Mof_C 	C 	0.4909	0.7334	0.0423	0.167
Mof_C 	C 	0.43904	0.09316	0.7339	-0.382
Mof_C 	C 	0.90684	0.2661	0.2661	-0.356
Mof_C 	C 	0.2024	0.573	0.1123	3.664
Mof_C 	C 	0.382	0.7659	0.0862	0.26
Mof_C 	C 	0.44916	0.95124	0.2998	0.307
Mof_C 	C 	0.0812	0.0812	0.2656	-7.808
Mof_C 	C 	0.7002	0.55084	0.7002	0.308
Mof_C 	C 	0.9686	0.205	0.6214	-0.926
Mof_C 	C 	0.7662	0.1403	0.3273	0.206
Mof_C 	C 	0.795	0.3786	0.0314	-0.926
Mof_C 	C 	0.48534	0.7646	0.7646	-0.896
Mof_C 	C 	0.917	0.8287	0.8287	-2.816
Mof_C 	C 	0.4256	0.8287	0.8287	-2.967
Mof_C 	C 	0.1403	0.7662	0.3273	0.206
Mof_C 	C 	0.4909	0.7334	0.7334	0.161
Mof_C 	C 	0.7339	0.09316	0.7339	-0.356
Mof_C 	C 	0.572	0.0812	0.2656	-8.214
Mof_C 	C 	0.205	0.205	0.6214	-0.928
Mof_C 	C 	0.382	0.7659	0.7659	0.259
Mof_C 	C 	0.7334	0.7334	0.0423	0.148
Mof_C 	C 	0.8597	0.2338	0.2338	0.217
Mof_C 	C 	0.04876	0.55084	0.7002	0.307
Mof_C 	C 	0.9188	0.9188	0.7344	-7.808
Mof_C 	C 	0.7976	0.8877	0.8877	3.475
Mof_C 	C 	0.9188	0.428	0.7344	-8.214
Mof_C 	C 	0.083	0.5744	0.1713	-2.971
Mof_C 	C 	0.0812	0.572	0.0812	-8.246
Mof_C 	C 	0.2998	0.2998	0.44916	0.308
Mof_C 	C 	0.01454	0.2354	0.2354	-0.854
Mof_C 	C 	0.2338	0.6727	0.2338	0.205
Mof_C 	C 	0.8597	0.2338	0.6727	0.206
Mof_C 	C 	0.7002	0.7002	0.04876	0.316
Mof_C 	C 	0.8877	0.8877	0.7976	3.475
Mof_C 	C 	0.573	0.2024	0.1123	3.664
Mof_C 	C 	0.09316	0.43904	0.7339	-0.382
Mof_C 	C 	0.7344	0.9188	0.9188	-7.808
Mof_C 	C 	0.98546	0.7646	0.7646	-0.854
Mof_C 	C 	0.2666	0.5091	0.9577	0.167
Mof_C 	C 	0.5091	0.9577	0.2666	0.167
Mof_C 	C 	0.7662	0.7662	0.1403	0.217
Mof_C 	C 	0.1713	0.083	0.5744	-2.971
Mof_C 	C 	0.9188	0.428	0.9188	-8.246
Mof_C 	C 	0.5744	0.1713	0.1713	-2.967
Mof_C 	C 	0.09316	0.7339	0.7339	-0.356
Mof_C 	C 	0.5744	0.083	0.1713	-2.971
Mof_C 	C 	0.2661	0.56096	0.2661	-0.38
Mof_C 	C 	0.1713	0.1713	0.5744	-2.967
Mof_C 	C 	0.43904	0.7339	0.7339	-0.38
Mof_C 	C 	0.0812	0.572	0.2656	-8.214
Mof_C 	C 	0.2666	0.9577	0.5091	0.167
Mof_C 	C 	0.2998	0.2998	0.95124	0.316
Mof_C 	C 	0.2036	0.2036	0.0222	1.029
Mof_C 	C 	0.9577	0.2666	0.2666	0.148
Mof_C 	C 	0.2354	0.51466	0.2354	-0.896
Mof_C 	C 	0.8877	0.427	0.7976	3.664
Mof_C 	C 	0.8877	0.427	0.8877	3.673
Mof_C 	C 	0.2666	0.9577	0.2666	0.148
Mof_C 	C 	0.2036	0.5706	0.2036	1.096
Mof_C 	C 	0.7339	0.43904	0.09316	-0.382
Mof_C 	C 	0.2666	0.5091	0.2666	0.161
Mof_C 	C 	0.0314	0.3786	0.795	-0.926
Mof_C 	C 	0.51466	0.2354	0.2354	-0.896
Mof_C 	C 	0.95124	0.2998	0.44916	0.307
Mof_C 	C 	0.9138	0.2341	0.2341	0.233
Mof_C 	C 	0.9138	0.618	0.2341	0.26
Mof_C 	C 	0.5091	0.2666	0.9577	0.167
Mof_C 	C 	0.2036	0.0222	0.2036	1.029
Mof_C 	C 	0.7964	0.9778	0.7964	1.029
Mof_C 	C 	0.7646	0.48534	0.98546	-0.901
Mof_C 	C 	0.2661	0.90684	0.2661	-0.356
Mof_C 	C 	0.618	0.2341	0.2341	0.259
Mof_C 	C 	0.43904	0.7339	0.09316	-0.382
Mof_C 	C 	0.3273	0.1403	0.7662	0.206
Mof_C 	C 	0.1713	0.083	0.1713	-2.816
Mof_C 	C 	0.7964	0.7964	0.9778	1.029
Mof_C 	C 	0.795	0.0314	0.3786	-0.926
Mof_C 	C 	0.573	0.1123	0.2024	3.664
Mof_C 	C 	0.2998	0.95124	0.2998	0.316
Mof_C 	C 	0.795	0.795	0.3786	-0.928
Mof_C 	C 	0.8287	0.8287	0.917	-2.816
Mof_C 	C 	0.0862	0.7659	0.7659	0.233
Mof_C 	C 	0.3786	0.0314	0.795	-0.926
Mof_C 	C 	0.4294	0.7964	0.7964	1.096
Mof_C 	C 	0.3786	0.795	0.795	-0.928
Mof_C 	C 	0.7339	0.7339	0.09316	-0.356
Mof_C 	C 	0.2656	0.572	0.0812	-8.214
Mof_C 	C 	0.95124	0.44916	0.2998	0.307
Mof_C 	C 	0.7662	0.7662	0.3273	0.205
Mof_C 	C 	0.9577	0.2666	0.5091	0.167
Mof_C 	C 	0.795	0.0314	0.795	-0.867
Mof_C 	C 	0.1123	0.1123	0.2024	3.475
Mof_C 	C 	0.0314	0.795	0.795	-0.867
Mof_C 	C 	0.4256	0.917	0.8287	-2.971
Mof_C 	C 	0.1713	0.5744	0.083	-2.971
Mof_C 	C 	0.8877	0.7976	0.8877	3.475
Mof_C 	C 	0.5091	0.2666	0.2666	0.161
Mof_O 	O 	0.86832	0.2045	0.2045	-0.528
Mof_O 	O 	0.0038	0.701	0.5942	-0.624
Mof_O 	O 	0.5942	0.0038	0.701	-0.624
Mof_O 	O 	0.0038	0.5942	0.701	-0.624
Mof_O 	O 	0.7955	0.27732	0.7955	-0.528
Mof_O 	O 	0.9962	0.299	0.299	-0.624
Mof_O 	O 	0.701	0.0038	0.701	-0.624
Mof_O 	O 	0.1912	0.737	0.737	-0.493
Mof_O 	O 	0.3276	0.899	0.3276	-0.569
Mof_O 	O 	0.263	0.6652	0.263	-0.492
Mof_O 	O 	0.1912	0.737	0.3348	-0.491
Mof_O 	O 	0.5542	0.6724	0.6724	-0.569
Mof_O 	O 	0.13168	0.27732	0.7955	-0.527
Mof_O 	O 	0.3276	0.899	0.4458	-0.567
Mof_O 	O 	0.5942	0.701	0.701	-0.628
Mof_O 	O 	0.6724	0.6724	0.5542	-0.569
Mof_O 	O 	0.2045	0.2045	0.86832	-0.528
Mof_O 	O 	0.6724	0.101	0.5542	-0.567
Mof_O 	O 	0.299	0.4058	0.9962	-0.624
Mof_O 	O 	0.899	0.3276	0.4458	-0.567
Mof_O 	O 	0.8088	0.263	0.6652	-0.491
Mof_O 	O 	0.2045	0.86832	0.72268	-0.527
Mof_O 	O 	0.1912	0.3348	0.737	-0.491
Mof_O 	O 	0.72268	0.2045	0.2045	-0.528
Mof_O 	O 	0.7955	0.13168	0.7955	-0.528
Mof_O 	O 	0.8088	0.6652	0.263	-0.491
Mof_O 	O 	0.2045	0.72268	0.86832	-0.527
Mof_O 	O 	0.6724	0.101	0.6724	-0.569
Mof_O 	O 	0.299	0.9962	0.299	-0.624
Mof_O 	O 	0.9962	0.4058	0.299	-0.624
Mof_O 	O 	0.2045	0.72268	0.2045	-0.528
Mof_O 	O 	0.3276	0.3276	0.4458	-0.569
Mof_O 	O 	0.6652	0.263	0.263	-0.492
Mof_O 	O 	0.701	0.701	0.5942	-0.628
Mof_O 	O 	0.299	0.299	0.4058	-0.628
Mof_O 	O 	0.3348	0.1912	0.737	-0.491
Mof_O 	O 	0.2045	0.2045	0.72268	-0.528
Mof_O 	O 	0.9962	0.299	0.4058	-0.624
Mof_O 	O 	0.299	0.4058	0.299	-0.628
Mof_O 	O 	0.737	0.1912	0.737	-0.493
Mof_O 	O 	0.263	0.6652	0.8088	-0.491
Mof_O 	O 	0.3276	0.4458	0.899	-0.567
Mof_O 	O 	0.263	0.8088	0.263	-0.493
Mof_O 	O 	0.3276	0.4458	0.3276	-0.569
Mof_O 	O 	0.737	0.1912	0.3348	-0.491
Mof_O 	O 	0.737	0.737	0.3348	-0.492
Mof_O 	O 	0.13168	0.7955	0.7955	-0.528
Mof_O 	O 	0.4458	0.899	0.3276	-0.567
Mof_O 	O 	0.899	0.3276	0.3276	-0.569
Mof_O 	O 	0.5942	0.701	0.0038	-0.624
Mof_O 	O 	0.27732	0.13168	0.7955	-0.527
Mof_O 	O 	0.4458	0.3276	0.899	-0.567
Mof_O 	O 	0.13168	0.7955	0.27732	-0.527
Mof_O 	O 	0.7955	0.7955	0.27732	-0.528
Mof_O 	O 	0.701	0.0038	0.5942	-0.624
Mof_O 	O 	0.101	0.5542	0.6724	-0.567
Mof_O 	O 	0.5542	0.101	0.6724	-0.567
Mof_O 	O 	0.101	0.6724	0.6724	-0.569
Mof_O 	O 	0.72268	0.86832	0.2045	-0.527
Mof_O 	O 	0.299	0.299	0.9962	-0.624
Mof_O 	O 	0.3348	0.737	0.737	-0.492
Mof_O 	O 	0.4058	0.299	0.299	-0.628
Mof_O 	O 	0.7955	0.13168	0.27732	-0.527
Mof_O 	O 	0.86832	0.2045	0.72268	-0.527
Mof_O 	O 	0.737	0.737	0.1912	-0.493
Mof_O 	O 	0.8088	0.263	0.263	-0.493
Mof_O 	O 	0.7955	0.7955	0.13168	-0.528
Mof_O 	O 	0.701	0.5942	0.701	-0.628
Mof_O 	O 	0.86832	0.72268	0.2045	-0.527
Mof_O 	O 	0.899	0.4458	0.3276	-0.567
Mof_O 	O 	0.701	0.5942	0.0038	-0.624
Mof_O 	O 	0.6724	0.5542	0.101	-0.567
Mof_O 	O 	0.72268	0.2045	0.86832	-0.527
Mof_O 	O 	0.263	0.8088	0.6652	-0.491
Mof_O 	O 	0.6652	0.8088	0.263	-0.491
Mof_O 	O 	0.263	0.263	0.6652	-0.492
Mof_O 	O 	0.27732	0.7955	0.13168	-0.527
Mof_O 	O 	0.263	0.263	0.8088	-0.493
Mof_O 	O 	0.6724	0.5542	0.6724	-0.569
Mof_O 	O 	0.6724	0.6724	0.101	-0.569
Mof_O 	O 	0.27732	0.7955	0.7955	-0.528
Mof_O 	O 	0.4058	0.299	0.9962	-0.624
Mof_O 	O 	0.7955	0.27732	0.13168	-0.527
Mof_O 	O 	0.0038	0.701	0.701	-0.624
Mof_O 	O 	0.3276	0.3276	0.899	-0.569
Mof_O 	O 	0.3348	0.737	0.1912	-0.491
Mof_O 	O 	0.737	0.3348	0.737	-0.492
Mof_O 	O 	0.101	0.6724	0.5542	-0.567
Mof_O 	O 	0.6652	0.263	0.8088	-0.491
Mof_O 	O 	0.737	0.3348	0.1912	-0.491
Mof_O 	O 	0.299	0.9962	0.4058	-0.624
Mof_O 	O 	0.4058	0.9962	0.299	-0.624
Mof_O 	O 	0.5542	0.6724	0.101	-0.567
Mof_O 	O 	0.2045	0.86832	0.2045	-0.528
Mof_O 	O 	0.701	0.701	0.0038	-0.624
Mof_O 	O 	0.4458	0.3276	0.3276	-0.569
_end
