# CIF file generated by openbabel 3.1.0, see https://openbabel.org
data_I
_chemical_name_common 'image0'
_cell_length_a 9.7918
_cell_length_b 9.9454
_cell_length_c 12.7361
_cell_angle_alpha 84.216
_cell_angle_beta 76.642
_cell_angle_gamma 64.07
_space_group_name_H-M_alt 'P 1'
_space_group_name_Hall 'P 1'
loop_
    _symmetry_equiv_pos_as_xyz
    x,y,z
loop_
    _atom_site_label
    _atom_site_type_symbol
    _atom_site_fract_x
    _atom_site_fract_y
    _atom_site_fract_z
    _atom_site_occupancy
    U1       U        0.55948    0.99167    0.27489    1.000
    Cl1      Cl       0.81630    0.92500    0.35229    1.000
    O1       O        0.64300    0.18580    0.18800    1.000
    O2       O        0.46030    0.16720    0.12830    1.000
    O3       O        0.47720    0.17860    0.40530    1.000
    O4       O        0.73350    0.72210    0.23630    1.000
    O5       O        0.74960    0.88010    0.10680    1.000
    O6       O        0.50290    0.13600    0.57600    1.000
    C1       C        0.49550    0.36350    0.49680    1.000
    C2       C        0.49220    0.21530    0.49230    1.000
    C3       C        0.51870    0.44000    0.40190    1.000
    H1       H        0.53170    0.39890    0.33580    1.000
    C4       C        0.47740    0.42400    0.59510    1.000
    H2       H        0.46260    0.37280    0.65880    1.000
    C5       C        0.78850    0.75190    0.14030    1.000
    C6       C        0.90120    0.62210    0.06760    1.000
    C7       C        0.94280    0.64430    0.95930    1.000
    H3       H        0.90540    0.74050    0.93100    1.000
    C8       C        0.95910    0.47710    0.10870    1.000
    H4       H        0.93190    0.46120    0.18220    1.000
    C9       C        0.52190    0.37100    0.06170    1.000
    C10      C        0.54040    0.23270    0.12990    1.000
    C11      C        0.41610    0.42020    0.99490    1.000
    H5       H        0.35980    0.36660    0.99110    1.000
    C12      C        0.60680    0.45030    0.06690    1.000
    H6       H        0.67860    0.41750    0.11120    1.000
    U2       U        0.44052    0.00833    0.72511    1.000
    Cl2      Cl       0.18370    0.07500    0.64771    1.000
    O7       O        0.35700    0.81420    0.81200    1.000
    O8       O        0.53970    0.83280    0.87170    1.000
    O9       O        0.52280    0.82140    0.59470    1.000
    O10      O        0.26650    0.27790    0.76370    1.000
    O11      O        0.25040    0.11990    0.89320    1.000
    O12      O        0.49710    0.86400    0.42400    1.000
    C13      C        0.50450    0.63650    0.50320    1.000
    C14      C        0.50780    0.78470    0.50770    1.000
    C15      C        0.48130    0.56000    0.59810    1.000
    H7       H        0.46830    0.60110    0.66420    1.000
    C16      C        0.52260    0.57600    0.40490    1.000
    H8       H        0.53740    0.62720    0.34120    1.000
    C17      C        0.21150    0.24810    0.85970    1.000
    C18      C        0.09880    0.37790    0.93240    1.000
    C19      C        0.05720    0.35570    0.04070    1.000
    H9       H        0.09460    0.25950    0.06900    1.000
    C20      C        0.04090    0.52290    0.89130    1.000
    H10      H        0.06810    0.53880    0.81780    1.000
    C21      C        0.47810    0.62900    0.93830    1.000
    C22      C        0.45960    0.76730    0.87010    1.000
    C23      C        0.58390    0.57980    0.00510    1.000
    H11      H        0.64020    0.63340    0.00890    1.000
    C24      C        0.39320    0.54970    0.93310    1.000
    H12      H        0.32140    0.58250    0.88880    1.000
