# CIF file generated by openbabel 3.1.0, see https://openbabel.org
data_I
_chemical_name_common 'ECEZAO01_clean'
_cell_length_a 6.3722
_cell_length_b 9.9992
_cell_length_c 11.2234
_cell_angle_alpha 116.453
_cell_angle_beta 96.3409
_cell_angle_gamma 90
_space_group_name_H-M_alt 'P 1'
_space_group_name_Hall 'P 1'
loop_
    _symmetry_equiv_pos_as_xyz
    x,y,z
loop_
    _atom_site_label
    _atom_site_type_symbol
    _atom_site_fract_x
    _atom_site_fract_y
    _atom_site_fract_z
    _atom_site_occupancy
    Ni1      Ni       0.50000    0.84882    0.00000    1.000
    Ni2      Ni       0.50000    0.15118    0.00000    1.000
    Ni3      Ni       0.00000    0.00000    0.00000    1.000
    H1       H        0.07660    0.52030    0.65860    1.000
    H2       H        0.78780    0.55650    0.65800    1.000
    H3       H        0.79670    0.67040    0.59860    1.000
    H4       H        0.28640    0.62570    0.53240    1.000
    H5       H        0.33540    0.50600    0.58380    1.000
    H6       H        0.92340    0.86170    0.34140    1.000
    H7       H        0.21220    0.89850    0.34200    1.000
    H8       H        0.20330    0.07180    0.40140    1.000
    H9       H        0.71360    0.09330    0.46760    1.000
    H10      H        0.66460    0.92220    0.41620    1.000
    H11      H        0.92340    0.47970    0.34140    1.000
    H12      H        0.21220    0.44350    0.34200    1.000
    H13      H        0.20330    0.32960    0.40140    1.000
    H14      H        0.71360    0.37430    0.46760    1.000
    H15      H        0.66460    0.49400    0.41620    1.000
    H16      H        0.07660    0.13830    0.65860    1.000
    H17      H        0.78780    0.10150    0.65800    1.000
    H18      H        0.79670    0.92820    0.59860    1.000
    H19      H        0.28640    0.90670    0.53240    1.000
    H20      H        0.33540    0.07780    0.58380    1.000
    C1       C        0.07030    0.60417    0.63574    1.000
    C2       C        0.85190    0.57784    0.59348    1.000
    C3       C        0.22380    0.54401    0.54322    1.000
    C4       C        0.14970    0.71622    0.77724    1.000
    C5       C        0.92970    0.96843    0.36426    1.000
    C6       C        0.14810    0.98436    0.40652    1.000
    C7       C        0.77620    0.00079    0.45678    1.000
    C8       C        0.85030    0.93898    0.22276    1.000
    C9       C        0.92970    0.39583    0.36426    1.000
    C10      C        0.14810    0.42216    0.40652    1.000
    C11      C        0.77620    0.45599    0.45678    1.000
    C12      C        0.85030    0.28378    0.22276    1.000
    C13      C        0.07030    0.03157    0.63574    1.000
    C14      C        0.85190    0.01564    0.59348    1.000
    C15      C        0.22380    0.99921    0.54322    1.000
    C16      C        0.14970    0.06102    0.77724    1.000
    O1       O        0.34510    0.73959    0.80978    1.000
    O2       O        0.01120    0.77986    0.85492    1.000
    O3       O        0.65490    0.92981    0.19022    1.000
    O4       O        0.98880    0.92494    0.14508    1.000
    O5       O        0.65490    0.26041    0.19022    1.000
    O6       O        0.98880    0.22014    0.14508    1.000
    O7       O        0.34510    0.07019    0.80978    1.000
    O8       O        0.01120    0.07506    0.85492    1.000
    O9       O        0.68300    0.97101    0.94202    1.000
    O10      O        0.31700    0.02899    0.05798    1.000
