# CIF file generated by openbabel 3.1.0, see https://openbabel.org
data_I
_chemical_name_common 'image0'
_cell_length_a 9.428
_cell_length_b 22.415
_cell_length_c 10.051
_cell_angle_alpha 90
_cell_angle_beta 102.12
_cell_angle_gamma 90
_space_group_name_H-M_alt 'P 1'
_space_group_name_Hall 'P 1'
loop_
    _symmetry_equiv_pos_as_xyz
    x,y,z
loop_
    _atom_site_label
    _atom_site_type_symbol
    _atom_site_fract_x
    _atom_site_fract_y
    _atom_site_fract_z
    _atom_site_occupancy
    Dy1      Dy       0.25050    0.27717    0.04663    1.000
    Dy2      Dy       0.71833    0.43461    0.85831    1.000
    N1       N        0.59830    0.41520    0.62540    1.000
    N2       N        0.53410    0.41369    0.40250    1.000
    H1       H        0.52406    0.42668    0.32141    1.000
    N3       N        0.77660    0.50743    0.64830    1.000
    O1       O        0.06770    0.33781    0.10940    1.000
    O2       O        0.03430    0.28800    0.86350    1.000
    O3       O        0.83030    0.34248    0.79130    1.000
    O4       O        0.84900    0.38065    0.04880    1.000
    O5       O        0.52420    0.35985    0.82310    1.000
    O6       O        0.37760    0.29458    0.69370    1.000
    O7       O        0.27710    0.29313    0.39140    1.000
    O8       O        0.36510    0.33741    0.22730    1.000
    O9       O        0.60130    0.43610    0.05090    1.000
    O10      O        0.46950    0.49149    0.16570    1.000
    O11      O        0.97690    0.44787    0.86870    1.000
    O12      O        0.18080    0.48171    0.00470    1.000
    C1       C        0.45600    0.36928    0.44880    1.000
    C2       C        0.49800    0.37080    0.58940    1.000
    C3       C        0.61930    0.44017    0.51170    1.000
    C4       C        0.72350    0.48952    0.51850    1.000
    C5       C        0.76490    0.51421    0.40510    1.000
    H2       H        0.72757    0.49935    0.31608    1.000
    C6       C        0.86330    0.56168    0.42720    1.000
    H3       H        0.89464    0.57994    0.35309    1.000
    C7       C        0.91440    0.58159    0.55880    1.000
    H4       H        0.97965    0.61435    0.57603    1.000
    C8       C        0.86930    0.55318    0.66540    1.000
    H5       H        0.90647    0.56700    0.75531    1.000
    C9       C        0.35780    0.33023    0.34970    1.000
    C10      C        0.46170    0.33826    0.70680    1.000
    C11      C        0.52090    0.47858    0.06200    1.000
    C12      C        0.04520    0.47976    0.96250    1.000
    C13      C        0.95300    0.34932    0.02630    1.000
    C14      C        0.93680    0.32420    0.88010    1.000
    Dy3      Dy       0.74950    0.77717    0.45337    1.000
    Dy4      Dy       0.28167    0.93461    0.64169    1.000
    N4       N        0.40170    0.91520    0.87460    1.000
    N5       N        0.46590    0.91369    0.09750    1.000
    H6       H        0.47594    0.92668    0.17859    1.000
    N6       N        0.22340    0.00743    0.85170    1.000
    O13      O        0.93230    0.83781    0.39060    1.000
    O14      O        0.96570    0.78800    0.63650    1.000
    O15      O        0.16970    0.84248    0.70870    1.000
    O16      O        0.15100    0.88065    0.45120    1.000
    O17      O        0.47580    0.85985    0.67690    1.000
    O18      O        0.62240    0.79458    0.80630    1.000
    O19      O        0.72290    0.79313    0.10860    1.000
    O20      O        0.63490    0.83741    0.27270    1.000
    O21      O        0.39870    0.93610    0.44910    1.000
    O22      O        0.53050    0.99149    0.33430    1.000
    O23      O        0.02310    0.94787    0.63130    1.000
    O24      O        0.81920    0.98171    0.49530    1.000
    C15      C        0.54400    0.86928    0.05120    1.000
    C16      C        0.50200    0.87080    0.91060    1.000
    C17      C        0.38070    0.94017    0.98830    1.000
    C18      C        0.27650    0.98952    0.98150    1.000
    C19      C        0.23510    0.01421    0.09490    1.000
    H7       H        0.27243    0.99935    0.18392    1.000
    C20      C        0.13670    0.06168    0.07280    1.000
    H8       H        0.10536    0.07994    0.14691    1.000
    C21      C        0.08560    0.08159    0.94120    1.000
    H9       H        0.02035    0.11435    0.92397    1.000
    C22      C        0.13070    0.05318    0.83460    1.000
    H10      H        0.09353    0.06700    0.74469    1.000
    C23      C        0.64220    0.83023    0.15030    1.000
    C24      C        0.53830    0.83826    0.79320    1.000
    C25      C        0.47910    0.97858    0.43800    1.000
    C26      C        0.95480    0.97976    0.53750    1.000
    C27      C        0.04700    0.84932    0.47370    1.000
    C28      C        0.06320    0.82420    0.61990    1.000
    Dy5      Dy       0.74950    0.72283    0.95337    1.000
    Dy6      Dy       0.28167    0.56539    0.14169    1.000
    N7       N        0.40170    0.58480    0.37460    1.000
    N8       N        0.46590    0.58631    0.59750    1.000
    H11      H        0.47594    0.57332    0.67859    1.000
    N9       N        0.22340    0.49257    0.35170    1.000
    O25      O        0.93230    0.66219    0.89060    1.000
    O26      O        0.96570    0.71200    0.13650    1.000
    O27      O        0.16970    0.65752    0.20870    1.000
    O28      O        0.15100    0.61935    0.95120    1.000
    O29      O        0.47580    0.64015    0.17690    1.000
    O30      O        0.62240    0.70542    0.30630    1.000
    O31      O        0.72290    0.70687    0.60860    1.000
    O32      O        0.63490    0.66259    0.77270    1.000
    O33      O        0.39870    0.56390    0.94910    1.000
    O34      O        0.53050    0.50851    0.83430    1.000
    O35      O        0.02310    0.55213    0.13130    1.000
    O36      O        0.81920    0.51829    0.99530    1.000
    C29      C        0.54400    0.63072    0.55120    1.000
    C30      C        0.50200    0.62920    0.41060    1.000
    C31      C        0.38070    0.55983    0.48830    1.000
    C32      C        0.27650    0.51048    0.48150    1.000
    C33      C        0.23510    0.48579    0.59490    1.000
    H12      H        0.27243    0.50065    0.68392    1.000
    C34      C        0.13670    0.43832    0.57280    1.000
    H13      H        0.10536    0.42006    0.64691    1.000
    C35      C        0.08560    0.41841    0.44120    1.000
    H14      H        0.02035    0.38565    0.42397    1.000
    C36      C        0.13070    0.44682    0.33460    1.000
    H15      H        0.09353    0.43300    0.24469    1.000
    C37      C        0.64220    0.66977    0.65030    1.000
    C38      C        0.53830    0.66174    0.29320    1.000
    C39      C        0.47910    0.52142    0.93800    1.000
    C40      C        0.95480    0.52024    0.03750    1.000
    C41      C        0.04700    0.65068    0.97370    1.000
    C42      C        0.06320    0.67580    0.11990    1.000
    Dy7      Dy       0.25050    0.22283    0.54663    1.000
    Dy8      Dy       0.71833    0.06539    0.35831    1.000
    N10      N        0.59830    0.08480    0.12540    1.000
    N11      N        0.53410    0.08631    0.90250    1.000
    H16      H        0.52406    0.07332    0.82141    1.000
    N12      N        0.77660    0.99257    0.14830    1.000
    O37      O        0.06770    0.16219    0.60940    1.000
    O38      O        0.03430    0.21200    0.36350    1.000
    O39      O        0.83030    0.15752    0.29130    1.000
    O40      O        0.84900    0.11935    0.54880    1.000
    O41      O        0.52420    0.14015    0.32310    1.000
    O42      O        0.37760    0.20542    0.19370    1.000
    O43      O        0.27710    0.20687    0.89140    1.000
    O44      O        0.36510    0.16259    0.72730    1.000
    O45      O        0.60130    0.06390    0.55090    1.000
    O46      O        0.46950    0.00851    0.66570    1.000
    O47      O        0.97690    0.05213    0.36870    1.000
    O48      O        0.18080    0.01829    0.50470    1.000
    C43      C        0.45600    0.13072    0.94880    1.000
    C44      C        0.49800    0.12920    0.08940    1.000
    C45      C        0.61930    0.05983    0.01170    1.000
    C46      C        0.72350    0.01048    0.01850    1.000
    C47      C        0.76490    0.98579    0.90510    1.000
    H17      H        0.72757    0.00065    0.81608    1.000
    C48      C        0.86330    0.93832    0.92720    1.000
    H18      H        0.89464    0.92006    0.85309    1.000
    C49      C        0.91440    0.91841    0.05880    1.000
    H19      H        0.97965    0.88565    0.07603    1.000
    C50      C        0.86930    0.94682    0.16540    1.000
    H20      H        0.90647    0.93300    0.25531    1.000
    C51      C        0.35780    0.16977    0.84970    1.000
    C52      C        0.46170    0.16174    0.20680    1.000
    C53      C        0.52090    0.02142    0.56200    1.000
    C54      C        0.04520    0.02024    0.46250    1.000
    C55      C        0.95300    0.15068    0.52630    1.000
    C56      C        0.93680    0.17580    0.38010    1.000
