# CIF file generated by openbabel 3.1.0, see https://openbabel.org
data_I
_chemical_name_common 'OXUPUT_clean'
_cell_length_a 7.801
_cell_length_b 20.3539
_cell_length_c 20.3539
_cell_angle_alpha 90
_cell_angle_beta 90
_cell_angle_gamma 90
_space_group_name_H-M_alt 'P 1'
_space_group_name_Hall 'P 1'
loop_
    _symmetry_equiv_pos_as_xyz
    x,y,z
loop_
    _atom_site_label
    _atom_site_type_symbol
    _atom_site_fract_x
    _atom_site_fract_y
    _atom_site_fract_z
    _atom_site_occupancy
    U1       U        0.79162    0.59742    0.75000    1.000
    U2       U        0.79162    0.90258    0.75000    1.000
    U3       U        0.29162    0.75000    0.59742    1.000
    U4       U        0.29162    0.75000    0.90258    1.000
    U5       U        0.20838    0.40258    0.25000    1.000
    U6       U        0.20838    0.09742    0.25000    1.000
    U7       U        0.70838    0.25000    0.09742    1.000
    U8       U        0.70838    0.25000    0.40258    1.000
    P1       P        0.43150    0.57439    0.86427    1.000
    P2       P        0.43150    0.92561    0.63573    1.000
    P3       P        0.93150    0.63573    0.57439    1.000
    P4       P        0.93150    0.86427    0.92561    1.000
    P5       P        0.56850    0.42561    0.36427    1.000
    P6       P        0.56850    0.07439    0.13573    1.000
    P7       P        0.06850    0.36427    0.07439    1.000
    P8       P        0.06850    0.13573    0.42561    1.000
    P9       P        0.56850    0.42561    0.13573    1.000
    P10      P        0.56850    0.07439    0.36427    1.000
    P11      P        0.06850    0.36427    0.42561    1.000
    P12      P        0.06850    0.13573    0.07439    1.000
    P13      P        0.43150    0.57439    0.63573    1.000
    P14      P        0.43150    0.92561    0.86427    1.000
    P15      P        0.93150    0.63573    0.92561    1.000
    P16      P        0.93150    0.86427    0.57439    1.000
    H1       H        0.41900    0.60900    0.99850    1.000
    H2       H        0.41900    0.89100    0.50150    1.000
    H3       H        0.91900    0.50150    0.60900    1.000
    H4       H        0.91900    0.99850    0.89100    1.000
    H5       H        0.58100    0.39100    0.49850    1.000
    H6       H        0.58100    0.10900    0.00150    1.000
    H7       H        0.08100    0.49850    0.10900    1.000
    H8       H        0.08100    0.00150    0.39100    1.000
    H9       H        0.58100    0.39100    0.00150    1.000
    H10      H        0.58100    0.10900    0.49850    1.000
    H11      H        0.08100    0.49850    0.39100    1.000
    H12      H        0.08100    0.00150    0.10900    1.000
    H13      H        0.41900    0.60900    0.50150    1.000
    H14      H        0.41900    0.89100    0.99850    1.000
    H15      H        0.91900    0.50150    0.89100    1.000
    H16      H        0.91900    0.99850    0.60900    1.000
    C1       C        0.46710    0.53210    0.94070    1.000
    C2       C        0.51050    0.46610    0.94200    1.000
    C3       C        0.45380    0.56430    0.99850    1.000
    C4       C        0.46710    0.96790    0.55930    1.000
    C5       C        0.51050    0.03390    0.55800    1.000
    C6       C        0.45380    0.93570    0.50150    1.000
    C7       C        0.96710    0.55930    0.53210    1.000
    C8       C        0.01050    0.55800    0.46610    1.000
    C9       C        0.95380    0.50150    0.56430    1.000
    C10      C        0.96710    0.94070    0.96790    1.000
    C11      C        0.01050    0.94200    0.03390    1.000
    C12      C        0.95380    0.99850    0.93570    1.000
    C13      C        0.53290    0.46790    0.44070    1.000
    C14      C        0.48950    0.53390    0.44200    1.000
    C15      C        0.54620    0.43570    0.49850    1.000
    C16      C        0.53290    0.03210    0.05930    1.000
    C17      C        0.48950    0.96610    0.05800    1.000
    C18      C        0.54620    0.06430    0.00150    1.000
    C19      C        0.03290    0.44070    0.03210    1.000
    C20      C        0.98950    0.44200    0.96610    1.000
    C21      C        0.04620    0.49850    0.06430    1.000
    C22      C        0.03290    0.05930    0.46790    1.000
    C23      C        0.98950    0.05800    0.53390    1.000
    C24      C        0.04620    0.00150    0.43570    1.000
    C25      C        0.53290    0.46790    0.05930    1.000
    C26      C        0.48950    0.53390    0.05800    1.000
    C27      C        0.54620    0.43570    0.00150    1.000
    C28      C        0.53290    0.03210    0.44070    1.000
    C29      C        0.48950    0.96610    0.44200    1.000
    C30      C        0.54620    0.06430    0.49850    1.000
    C31      C        0.03290    0.44070    0.46790    1.000
    C32      C        0.98950    0.44200    0.53390    1.000
    C33      C        0.04620    0.49850    0.43570    1.000
    C34      C        0.03290    0.05930    0.03210    1.000
    C35      C        0.98950    0.05800    0.96610    1.000
    C36      C        0.04620    0.00150    0.06430    1.000
    C37      C        0.46710    0.53210    0.55930    1.000
    C38      C        0.51050    0.46610    0.55800    1.000
    C39      C        0.45380    0.56430    0.50150    1.000
    C40      C        0.46710    0.96790    0.94070    1.000
    C41      C        0.51050    0.03390    0.94200    1.000
    C42      C        0.45380    0.93570    0.99850    1.000
    C43      C        0.96710    0.55930    0.96790    1.000
    C44      C        0.01050    0.55800    0.03390    1.000
    C45      C        0.95380    0.50150    0.93570    1.000
    C46      C        0.96710    0.94070    0.53210    1.000
    C47      C        0.01050    0.94200    0.46610    1.000
    C48      C        0.95380    0.99850    0.56430    1.000
    O1       O        0.58150    0.56060    0.82010    1.000
    O2       O        0.39840    0.64510    0.87830    1.000
    O3       O        0.26630    0.54340    0.83360    1.000
    O4       O        0.58150    0.93940    0.67990    1.000
    O5       O        0.39840    0.85490    0.62170    1.000
    O6       O        0.26630    0.95660    0.66640    1.000
    O7       O        0.08150    0.67990    0.56060    1.000
    O8       O        0.89840    0.62170    0.64510    1.000
    O9       O        0.76630    0.66640    0.54340    1.000
    O10      O        0.08150    0.82010    0.93940    1.000
    O11      O        0.89840    0.87830    0.85490    1.000
    O12      O        0.76630    0.83360    0.95660    1.000
    O13      O        0.41850    0.43940    0.32010    1.000
    O14      O        0.60160    0.35490    0.37830    1.000
    O15      O        0.73370    0.45660    0.33360    1.000
    O16      O        0.41850    0.06060    0.17990    1.000
    O17      O        0.60160    0.14510    0.12170    1.000
    O18      O        0.73370    0.04340    0.16640    1.000
    O19      O        0.91850    0.32010    0.06060    1.000
    O20      O        0.10160    0.37830    0.14510    1.000
    O21      O        0.23370    0.33360    0.04340    1.000
    O22      O        0.91850    0.17990    0.43940    1.000
    O23      O        0.10160    0.12170    0.35490    1.000
    O24      O        0.23370    0.16640    0.45660    1.000
    O25      O        0.41850    0.43940    0.17990    1.000
    O26      O        0.60160    0.35490    0.12170    1.000
    O27      O        0.73370    0.45660    0.16640    1.000
    O28      O        0.41850    0.06060    0.32010    1.000
    O29      O        0.60160    0.14510    0.37830    1.000
    O30      O        0.73370    0.04340    0.33360    1.000
    O31      O        0.91850    0.32010    0.43940    1.000
    O32      O        0.10160    0.37830    0.35490    1.000
    O33      O        0.23370    0.33360    0.45660    1.000
    O34      O        0.91850    0.17990    0.06060    1.000
    O35      O        0.10160    0.12170    0.14510    1.000
    O36      O        0.23370    0.16640    0.04340    1.000
    O37      O        0.58150    0.56060    0.67990    1.000
    O38      O        0.39840    0.64510    0.62170    1.000
    O39      O        0.26630    0.54340    0.66640    1.000
    O40      O        0.58150    0.93940    0.82010    1.000
    O41      O        0.39840    0.85490    0.87830    1.000
    O42      O        0.26630    0.95660    0.83360    1.000
    O43      O        0.08150    0.67990    0.93940    1.000
    O44      O        0.89840    0.62170    0.85490    1.000
    O45      O        0.76630    0.66640    0.95660    1.000
    O46      O        0.08150    0.82010    0.56060    1.000
    O47      O        0.89840    0.87830    0.64510    1.000
    O48      O        0.76630    0.83360    0.54340    1.000
