data_functionalizedCrystal
_audit_creation_method	'EQeq! by Chris Wilmer'
_symmetry_space_group_name_H-M	'P1'
_symmetry_Int_Tables_number	1
_symmetry_cell_setting	triclinic
loop_
_symmetry_equiv_pos_as_xyz
  x,y,z
_cell_length_a	15.2688
_cell_length_b	15.3552
_cell_length_c	15.403
_cell_angle_alpha	106.787
_cell_angle_beta	117.059
_cell_angle_gamma	103.195
loop_
_atom_site_label
_atom_site_type_symbol
_atom_site_fract_x
_atom_site_fract_y
_atom_site_fract_z
_atom_site_charge
Mof_La	La	0.94298	0.80254	0.63424	2.271
Mof_La	La	0.67839	0.81607	0.38335	2.303
Mof_La	La	0.91512	0.14639	0.56324	2.166
Mof_La	La	0.05702	0.19746	0.36576	2.271
Mof_La	La	0.32161	0.18393	0.61665	2.303
Mof_La	La	0.08488	0.85361	0.43676	2.166
Mof_P 	P 	0.8741	0.9832	0.691	0.496
Mof_P 	P 	0.8033	0.6934	0.3244	0.503
Mof_P 	P 	0.1175	0.0251	0.6439	0.535
Mof_P 	P 	0.1259	0.0168	0.309	0.497
Mof_P 	P 	0.1967	0.3066	0.6756	0.504
Mof_P 	P 	0.8825	0.9749	0.3561	0.535
Mof_H 	H 	0.2933	0.5247	0.1767	0.259
Mof_H 	H 	0.6624	0.9451	0.6086	0.112
Mof_H 	H 	0.8413	0.5622	0.4042	0.116
Mof_H 	H 	0.2542	0.2141	0.8206	0.127
Mof_H 	H 	0.8272	0.0101	0.8166	0.097
Mof_H 	H 	0.7779	0.8949	0.7418	0.099
Mof_H 	H 	0.5951	0.8171	0.6369	0.059
Mof_H 	H 	0.6109	0.8956	0.7406	0.052
Mof_H 	H 	0.4294	0.8273	0.595	0.038
Mof_H 	H 	0.464	0.8569	0.5223	0.046
Mof_H 	H 	0.4915	0.9929	0.7104	0.088
Mof_H 	H 	0.5749	0.1255	0.6915	0.03
Mof_H 	H 	0.5582	0.0524	0.5846	0.043
Mof_H 	H 	0.7017	0.0797	0.7974	0.057
Mof_H 	H 	0.7363	0.1096	0.7248	0.048
Mof_H 	H 	0.7007	0.5244	0.1964	0.106
Mof_H 	H 	0.6609	0.5504	0.2742	0.108
Mof_H 	H 	0.7849	0.4185	0.2087	0.06
Mof_H 	H 	0.8877	0.5214	0.2807	0.053
Mof_H 	H 	0.9692	0.4754	0.4169	0.044
Mof_H 	H 	0.9326	0.3886	0.3069	0.033
Mof_H 	H 	0.7858	0.2924	0.2935	0.084
Mof_H 	H 	0.8389	0.4454	0.4874	0.049
Mof_H 	H 	0.738	0.3409	0.4156	0.041
Mof_H 	H 	0.685	0.4648	0.3768	0.06
Mof_H 	H 	0.6627	0.3823	0.2715	0.052
Mof_H 	H 	0.2758	0.0616	0.8062	0.095
Mof_H 	H 	0.1776	0.0354	0.8175	0.091
Mof_H 	H 	0.0957	0.1665	0.8149	0.031
Mof_H 	H 	0.1646	0.1721	0.9308	0.048
Mof_H 	H 	0.1929	0.3371	0.8845	0.058
Mof_H 	H 	0.1432	0.3198	0.9509	0.051
Mof_H 	H 	0.3091	0.345	0.095	0.074
Mof_H 	H 	0.4042	0.3715	0.979	0.078
Mof_H 	H 	0.4621	0.3704	0.0926	0.055
Mof_H 	H 	0.349	0.1972	0.0102	0.044
Mof_H 	H 	0.4073	0.2125	0.9505	0.048
Mof_H 	H 	0.278	0.683	0.0622	0.066
Mof_H 	H 	0.1351	0.6877	0.9232	0.044
Mof_H 	H 	0.3419	0.9147	0.9404	0.042
Mof_H 	H 	0.4857	0.9158	0.0871	0.048
Mof_H 	H 	0.5086	0.5352	0.6712	0.048
Mof_H 	H 	0.6311	0.6567	0.6731	0.043
Mof_H 	H 	0.7287	0.4576	0.5607	0.041
Mof_H 	H 	0.6037	0.3322	0.5527	0.043
Mof_H 	H 	0.7067	0.4753	0.8233	0.259
Mof_H 	H 	0.3376	0.0549	0.3914	0.112
Mof_H 	H 	0.1587	0.4378	0.5958	0.116
Mof_H 	H 	0.7458	0.7859	0.1794	0.127
Mof_H 	H 	0.1728	0.9899	0.1834	0.097
Mof_H 	H 	0.2221	0.1051	0.2582	0.099
Mof_H 	H 	0.4049	0.1829	0.3631	0.059
Mof_H 	H 	0.3891	0.1044	0.2594	0.052
Mof_H 	H 	0.5706	0.1727	0.405	0.038
Mof_H 	H 	0.536	0.1431	0.4777	0.046
Mof_H 	H 	0.5085	0.0071	0.2896	0.088
Mof_H 	H 	0.4251	0.8745	0.3085	0.03
Mof_H 	H 	0.4418	0.9476	0.4154	0.043
Mof_H 	H 	0.2983	0.9203	0.2026	0.057
Mof_H 	H 	0.2637	0.8904	0.2752	0.048
Mof_H 	H 	0.2993	0.4756	0.8036	0.106
Mof_H 	H 	0.3391	0.4496	0.7258	0.108
Mof_H 	H 	0.2151	0.5815	0.7913	0.06
Mof_H 	H 	0.1123	0.4786	0.7193	0.053
Mof_H 	H 	0.0308	0.5246	0.5831	0.044
Mof_H 	H 	0.0674	0.6114	0.6931	0.033
Mof_H 	H 	0.2142	0.7076	0.7065	0.084
Mof_H 	H 	0.1611	0.5546	0.5126	0.049
Mof_H 	H 	0.262	0.6591	0.5844	0.041
Mof_H 	H 	0.315	0.5352	0.6232	0.06
Mof_H 	H 	0.3373	0.6177	0.7285	0.052
Mof_H 	H 	0.7242	0.9384	0.1938	0.095
Mof_H 	H 	0.8224	0.9646	0.1825	0.091
Mof_H 	H 	0.9043	0.8335	0.1851	0.031
Mof_H 	H 	0.8354	0.8279	0.0692	0.048
Mof_H 	H 	0.8071	0.6629	0.1155	0.058
Mof_H 	H 	0.8568	0.6802	0.0491	0.051
Mof_H 	H 	0.6909	0.655	0.905	0.074
Mof_H 	H 	0.5958	0.6285	0.021	0.078
Mof_H 	H 	0.5379	0.6296	0.9074	0.055
Mof_H 	H 	0.651	0.8028	0.9898	0.044
Mof_H 	H 	0.5927	0.7875	0.0495	0.048
Mof_H 	H 	0.722	0.317	0.9378	0.066
Mof_H 	H 	0.8649	0.3123	0.0768	0.044
Mof_H 	H 	0.6581	0.0853	0.0596	0.042
Mof_H 	H 	0.5143	0.0842	0.9129	0.048
Mof_H 	H 	0.4914	0.4648	0.3288	0.048
Mof_H 	H 	0.3689	0.3433	0.3269	0.043
Mof_H 	H 	0.2713	0.5424	0.4393	0.041
Mof_H 	H 	0.3963	0.6678	0.4473	0.043
Mof_C 	C 	0.7888	0.9595	0.7415	-0.219
Mof_C 	C 	0.595	0.8817	0.6681	-0.07
Mof_C 	C 	0.4827	0.8773	0.5965	-0.034
Mof_C 	C 	0.479	0.9778	0.6383	-0.188
Mof_C 	C 	0.5725	0.0609	0.6554	-0.027
Mof_C 	C 	0.6817	0.0606	0.7229	-0.075
Mof_C 	C 	0.3692	0.9753	0.5668	0.444
Mof_C 	C 	0.7248	0.5594	0.2721	-0.221
Mof_C 	C 	0.8406	0.4692	0.2832	-0.079
Mof_C 	C 	0.9065	0.4224	0.3468	-0.027
Mof_C 	C 	0.8428	0.3488	0.3656	-0.176
Mof_C 	C 	0.7855	0.3928	0.4132	-0.043
Mof_C 	C 	0.7194	0.4358	0.3442	-0.067
Mof_C 	C 	0.91	0.3053	0.4342	0.436
Mof_C 	C 	0.2121	0.0736	0.7927	-0.214
Mof_C 	C 	0.1671	0.2002	0.8826	-0.033
Mof_C 	C 	0.1959	0.3101	0.935	-0.078
Mof_C 	C 	0.3111	0.3677	0.0423	-0.14
Mof_C 	C 	0.3932	0.3419	0.023	-0.082
Mof_C 	C 	0.3547	0.2266	0.964	-0.046
Mof_C 	C 	0.3394	0.4797	0.0897	0.412
Mof_C 	C 	0.4907	0.7924	0.1762	0.325
Mof_C 	C 	0.397	0.7934	0.0845	-0.06
Mof_C 	C 	0.2917	0.73	0.0378	-0.044
Mof_C 	C 	0.2055	0.7339	0.9559	-0.016
Mof_C 	C 	0.2235	0.8059	0.9224	-0.072
Mof_C 	C 	0.3288	0.8698	0.9673	-0.02
Mof_C 	C 	0.4157	0.8678	0.0521	-0.042
Mof_C 	C 	0.129	0.8105	0.831	0.319
Mof_C 	C 	0.4589	0.337	0.6002	0.325
Mof_C 	C 	0.5382	0.4179	0.6049	-0.066
Mof_C 	C 	0.5507	0.5186	0.6464	-0.033
Mof_C 	C 	0.6262	0.5918	0.6496	-0.017
Mof_C 	C 	0.6938	0.5721	0.6195	-0.072
Mof_C 	C 	0.6837	0.4727	0.5819	-0.023
Mof_C 	C 	0.6079	0.397	0.576	-0.034
Mof_C 	C 	0.7738	0.6498	0.6223	0.325
Mof_C 	C 	0.2112	0.0405	0.2585	-0.219
Mof_C 	C 	0.405	0.1183	0.3319	-0.07
Mof_C 	C 	0.5173	0.1227	0.4035	-0.034
Mof_C 	C 	0.521	0.0222	0.3617	-0.188
Mof_C 	C 	0.4275	0.9391	0.3446	-0.027
Mof_C 	C 	0.3183	0.9394	0.2771	-0.075
Mof_C 	C 	0.6308	0.0247	0.4332	0.444
Mof_C 	C 	0.2752	0.4406	0.7279	-0.221
Mof_C 	C 	0.1594	0.5308	0.7168	-0.079
Mof_C 	C 	0.0935	0.5776	0.6532	-0.027
Mof_C 	C 	0.1572	0.6512	0.6344	-0.176
Mof_C 	C 	0.2145	0.6072	0.5868	-0.043
Mof_C 	C 	0.2806	0.5642	0.6558	-0.067
Mof_C 	C 	0.09	0.6947	0.5658	0.436
Mof_C 	C 	0.7879	0.9264	0.2073	-0.214
Mof_C 	C 	0.8329	0.7998	0.1174	-0.033
Mof_C 	C 	0.8041	0.6899	0.065	-0.078
Mof_C 	C 	0.6889	0.6323	0.9577	-0.14
Mof_C 	C 	0.6068	0.6581	0.977	-0.082
Mof_C 	C 	0.6453	0.7734	0.036	-0.046
Mof_C 	C 	0.6606	0.5203	0.9103	0.412
Mof_C 	C 	0.5093	0.2076	0.8238	0.325
Mof_C 	C 	0.603	0.2066	0.9155	-0.06
Mof_C 	C 	0.7083	0.27	0.9622	-0.044
Mof_C 	C 	0.7945	0.2661	0.0441	-0.016
Mof_C 	C 	0.7765	0.1941	0.0776	-0.072
Mof_C 	C 	0.6712	0.1302	0.0327	-0.02
Mof_C 	C 	0.5843	0.1322	0.9479	-0.042
Mof_C 	C 	0.871	0.1895	0.169	0.319
Mof_C 	C 	0.5411	0.663	0.3998	0.325
Mof_C 	C 	0.4618	0.5821	0.3951	-0.066
Mof_C 	C 	0.4493	0.4814	0.3536	-0.033
Mof_C 	C 	0.3738	0.4082	0.3504	-0.017
Mof_C 	C 	0.3062	0.4279	0.3805	-0.072
Mof_C 	C 	0.3163	0.5273	0.4181	-0.023
Mof_C 	C 	0.3921	0.603	0.424	-0.034
Mof_C 	C 	0.2262	0.3502	0.3777	0.325
Mof_N 	N 	0.679	0.9597	0.6767	-0.127
Mof_N 	N 	0.7884	0.5135	0.3362	-0.127
Mof_N 	N 	0.248	0.1817	0.8592	-0.143
Mof_N 	N 	0.321	0.0403	0.3233	-0.127
Mof_N 	N 	0.2116	0.4865	0.6638	-0.127
Mof_N 	N 	0.752	0.8183	0.1408	-0.143
Mof_O 	O 	0.9764	0.9747	0.7662	-0.444
Mof_O 	O 	0.8133	0.8917	0.5785	-0.649
Mof_O 	O 	0.8862	0.081	0.685	-0.485
Mof_O 	O 	0.2875	0.9033	0.5388	-0.512
Mof_O 	O 	0.3647	0.0447	0.5392	-0.515
Mof_O 	O 	0.7208	0.7223	0.2502	-0.448
Mof_O 	O 	0.8247	0.744	0.4376	-0.642
Mof_O 	O 	0.9031	0.7074	0.3228	-0.486
Mof_O 	O 	0.8696	0.2568	0.4689	-0.508
Mof_O 	O 	0.0034	0.3219	0.4505	-0.502
Mof_O 	O 	0.0571	0.9111	0.5974	-0.624
Mof_O 	O 	0.0469	0.0803	0.6288	-0.531
Mof_O 	O 	0.1822	0.0391	0.5928	-0.623
Mof_O 	O 	0.2766	0.5072	0.1117	-0.482
Mof_O 	O 	0.4198	0.5319	0.103	-0.289
Mof_O 	O 	0.4749	0.7279	0.208	-0.389
Mof_O 	O 	0.5834	0.8593	0.2245	-0.446
Mof_O 	O 	0.0361	0.7655	0.8044	-0.415
Mof_O 	O 	0.1484	0.8592	0.7834	-0.431
Mof_O 	O 	0.407	0.3612	0.6407	-0.434
Mof_O 	O 	0.4439	0.2493	0.5558	-0.437
Mof_O 	O 	0.798	0.7412	0.6757	-0.428
Mof_O 	O 	0.8161	0.6246	0.5722	-0.435
Mof_O 	O 	0.0236	0.0253	0.2338	-0.444
Mof_O 	O 	0.1867	0.1083	0.4215	-0.649
Mof_O 	O 	0.1138	0.919	0.315	-0.485
Mof_O 	O 	0.7125	0.0967	0.4612	-0.512
Mof_O 	O 	0.6353	0.9553	0.4608	-0.515
Mof_O 	O 	0.2792	0.2777	0.7498	-0.448
Mof_O 	O 	0.1753	0.256	0.5624	-0.642
Mof_O 	O 	0.0969	0.2926	0.6772	-0.486
Mof_O 	O 	0.1304	0.7432	0.5311	-0.508
Mof_O 	O 	0.9966	0.6781	0.5495	-0.502
Mof_O 	O 	0.9429	0.0889	0.4026	-0.624
Mof_O 	O 	0.9531	0.9197	0.3712	-0.531
Mof_O 	O 	0.8178	0.9609	0.4072	-0.623
Mof_O 	O 	0.7234	0.4928	0.8883	-0.482
Mof_O 	O 	0.5802	0.4681	0.897	-0.289
Mof_O 	O 	0.5251	0.2721	0.792	-0.389
Mof_O 	O 	0.4166	0.1407	0.7755	-0.446
Mof_O 	O 	0.9639	0.2345	0.1956	-0.415
Mof_O 	O 	0.8516	0.1408	0.2166	-0.431
Mof_O 	O 	0.593	0.6388	0.3593	-0.434
Mof_O 	O 	0.5561	0.7507	0.4442	-0.437
Mof_O 	O 	0.202	0.2588	0.3243	-0.428
Mof_O 	O 	0.1839	0.3754	0.4278	-0.435
_end
