data_functionalizedCrystal
_audit_creation_method	'EQeq! by Chris Wilmer'
_symmetry_space_group_name_H-M	'P1'
_symmetry_Int_Tables_number	1
_symmetry_cell_setting	triclinic
loop_
_symmetry_equiv_pos_as_xyz
  x,y,z
_cell_length_a	9.1258
_cell_length_b	11.138
_cell_length_c	11.3262
_cell_angle_alpha	77.317
_cell_angle_beta	68.681
_cell_angle_gamma	79.25
loop_
_atom_site_label
_atom_site_type_symbol
_atom_site_fract_x
_atom_site_fract_y
_atom_site_fract_z
_atom_site_charge
Mof_La	La	0.23463	0.51922	0.5184	1.962
Mof_S 	S 	0.1964	0.619	0.99609	0.044
Mof_S 	S 	0.41181	0.23535	0.93975	0.048
Mof_S 	S 	0.34838	0.05074	0.37636	0.026
Mof_O 	O 	0.0675	0.5467	0.3764	-0.6
Mof_O 	O 	0.4169	0.4003	0.3317	-0.448
Mof_O 	O 	0.9277	0.5756	0.2498	-0.498
Mof_O 	O 	0.2367	0.2927	0.4823	-0.434
Mof_O 	O 	0.6481	0.3083	0.6658	-0.504
Mof_O 	O 	0.4534	0.3952	0.5951	-0.589
Mof_C 	C 	0.4135	0.0126	0.5174	-0.12
Mof_H 	H 	0.3759	0.0811	0.5651	0.064
Mof_H 	H 	0.3661	0.9403	0.5731	0.044
Mof_C 	C 	0.206	0.6003	0.1546	-0.409
Mof_H 	H 	0.2885	0.5334	0.1627	0.145
Mof_H 	H 	0.2382	0.6755	0.1628	0.152
Mof_C 	C 	0.3811	0.3979	0.9529	-0.135
Mof_H 	H 	0.4189	0.407	0.0198	0.058
Mof_H 	H 	0.4452	0.4427	0.8726	0.068
Mof_C 	C 	0.2105	0.4577	0.9828	-0.127
Mof_H 	H 	0.1446	0.4138	0.0628	0.054
Mof_H 	H 	0.172	0.452	0.9151	0.064
Mof_C 	C 	0.392	0.2431	0.7852	-0.414
Mof_H 	H 	0.4084	0.1596	0.7669	0.144
Mof_H 	H 	0.2846	0.2775	0.79	0.154
Mof_C 	C 	0.4156	0.1962	0.302	-0.343
Mof_H 	H 	0.53	0.1857	0.2783	0.12
Mof_H 	H 	0.3911	0.2209	0.223	0.12
Mof_C 	C 	0.056	0.5733	0.2654	0.482
Mof_C 	C 	0.3504	0.3021	0.3785	0.379
Mof_C 	C 	0.506	0.32	0.6754	0.494
Mof_La	La	0.76537	0.48078	0.4816	1.961
Mof_S 	S 	0.8036	0.381	0.00391	0.043
Mof_S 	S 	0.58819	0.76465	0.06025	0.048
Mof_S 	S 	0.65162	0.94926	0.62364	0.026
Mof_O 	O 	0.9325	0.4533	0.6236	-0.6
Mof_O 	O 	0.5831	0.5997	0.6683	-0.448
Mof_O 	O 	0.0723	0.4244	0.7502	-0.498
Mof_O 	O 	0.7633	0.7073	0.5177	-0.434
Mof_O 	O 	0.3519	0.6917	0.3342	-0.504
Mof_O 	O 	0.5466	0.6048	0.4049	-0.589
Mof_C 	C 	0.5865	0.9874	0.4826	-0.12
Mof_H 	H 	0.6241	0.9189	0.4349	0.064
Mof_H 	H 	0.6339	0.0597	0.4269	0.044
Mof_C 	C 	0.794	0.3997	0.8454	-0.409
Mof_H 	H 	0.7115	0.4666	0.8373	0.145
Mof_H 	H 	0.7618	0.3245	0.8372	0.152
Mof_C 	C 	0.6189	0.6021	0.0471	-0.135
Mof_H 	H 	0.5811	0.593	0.9802	0.058
Mof_H 	H 	0.5548	0.5573	0.1274	0.068
Mof_C 	C 	0.7895	0.5423	0.0172	-0.127
Mof_H 	H 	0.8554	0.5862	0.9372	0.054
Mof_H 	H 	0.828	0.548	0.0849	0.064
Mof_C 	C 	0.608	0.7569	0.2148	-0.414
Mof_H 	H 	0.5916	0.8404	0.2331	0.144
Mof_H 	H 	0.7154	0.7225	0.21	0.154
Mof_C 	C 	0.5844	0.8038	0.698	-0.343
Mof_H 	H 	0.47	0.8143	0.7217	0.12
Mof_H 	H 	0.6089	0.7791	0.777	0.12
Mof_C 	C 	0.944	0.4267	0.7346	0.482
Mof_C 	C 	0.6496	0.6979	0.6215	0.379
Mof_C 	C 	0.494	0.68	0.3246	0.494
_end
