data_functionalizedCrystal
_audit_creation_method	'EQeq! by Chris Wilmer'
_symmetry_space_group_name_H-M	'P1'
_symmetry_Int_Tables_number	1
_symmetry_cell_setting	triclinic
loop_
_symmetry_equiv_pos_as_xyz
  x,y,z
_cell_length_a	19.505
_cell_length_b	19.505
_cell_length_c	19.505
_cell_angle_alpha	90
_cell_angle_beta	90
_cell_angle_gamma	90
loop_
_atom_site_label
_atom_site_type_symbol
_atom_site_fract_x
_atom_site_fract_y
_atom_site_fract_z
_atom_site_charge
Mof_N 	N 	0.5289	0.3372	0.1753	-0.216
Mof_C 	C 	0.5319	0.3941	0.137	0.002
Mof_C 	C 	0.5364	0.4599	0.1621	-0.002
Mof_C 	C 	0.5371	0.4668	0.2341	0
Mof_C 	C 	0.5361	0.4081	0.2759	0.003
Mof_C 	C 	0.5325	0.3455	0.244	-0
Mof_C 	C 	0.5394	0.5208	0.1208	-0.046
Mof_C 	C 	0.5383	0.4151	0.3502	-0.053
Mof_H 	H 	0.5309	0.3886	0.0886	0
Mof_H 	H 	0.5325	0.3056	0.2719	0.009
Mof_H 	H 	0.5423	0.5166	0.0724	0.035
Mof_H 	H 	0.539	0.3755	0.3785	0.046
Mof_N 	N 	0.0289	0.8372	0.6753	-0.215
Mof_C 	C 	0.0319	0.8941	0.637	-0.008
Mof_C 	C 	0.0364	0.9599	0.6621	0.017
Mof_C 	C 	0.0371	0.9668	0.7341	0.004
Mof_C 	C 	0.0361	0.9081	0.7759	0.007
Mof_C 	C 	0.0325	0.8455	0.744	-0.004
Mof_C 	C 	0.0394	0.0208	0.6208	-0.073
Mof_C 	C 	0.0383	0.9151	0.8502	-0.064
Mof_H 	H 	0.0309	0.8886	0.5886	0.004
Mof_H 	H 	0.0325	0.8056	0.7719	0.008
Mof_H 	H 	0.0423	0.0166	0.5724	0.04
Mof_H 	H 	0.039	0.8755	0.8785	0.051
Mof_N 	N 	0.9711	0.6628	0.6753	-0.21
Mof_C 	C 	0.9681	0.6059	0.637	0.003
Mof_C 	C 	0.9636	0.5401	0.6621	0.003
Mof_C 	C 	0.9629	0.5332	0.7341	0.001
Mof_C 	C 	0.9639	0.5919	0.7759	0.007
Mof_C 	C 	0.9675	0.6545	0.744	0.001
Mof_C 	C 	0.9606	0.4792	0.6208	-0.045
Mof_C 	C 	0.9617	0.5849	0.8502	-0.051
Mof_H 	H 	0.9691	0.6114	0.5886	0.006
Mof_H 	H 	0.9675	0.6944	0.7719	0.015
Mof_H 	H 	0.9577	0.4834	0.5724	0.042
Mof_H 	H 	0.961	0.6245	0.8785	0.053
Mof_N 	N 	0.4711	0.1628	0.1753	-0.217
Mof_C 	C 	0.4681	0.1059	0.137	0.011
Mof_C 	C 	0.4636	0.0401	0.1621	-0.02
Mof_C 	C 	0.4629	0.0332	0.2341	-0.005
Mof_C 	C 	0.4639	0.0919	0.2759	-0.002
Mof_C 	C 	0.4675	0.1545	0.244	0.002
Mof_C 	C 	0.4606	0.9792	0.1208	-0.022
Mof_C 	C 	0.4617	0.0849	0.3502	-0.044
Mof_H 	H 	0.4691	0.1114	0.0886	-0.004
Mof_H 	H 	0.4675	0.1944	0.2719	0.008
Mof_H 	H 	0.4577	0.9834	0.0724	0.031
Mof_H 	H 	0.461	0.1245	0.3785	0.042
Mof_N 	N 	0.4711	0.8372	0.3247	-0.213
Mof_C 	C 	0.4681	0.8941	0.363	-0.007
Mof_C 	C 	0.4636	0.9599	0.3379	0.021
Mof_C 	C 	0.4629	0.9668	0.2659	0.005
Mof_C 	C 	0.4639	0.9081	0.2241	0.008
Mof_C 	C 	0.4675	0.8455	0.256	-0.003
Mof_C 	C 	0.4606	0.0208	0.3792	-0.073
Mof_C 	C 	0.4617	0.9151	0.1498	-0.064
Mof_H 	H 	0.4691	0.8886	0.4114	0.007
Mof_H 	H 	0.4675	0.8056	0.2281	0.009
Mof_H 	H 	0.4577	0.0166	0.4276	0.043
Mof_H 	H 	0.461	0.8755	0.1215	0.046
Mof_N 	N 	0.9711	0.3372	0.8247	-0.21
Mof_C 	C 	0.9681	0.3941	0.863	0.002
Mof_C 	C 	0.9636	0.4599	0.8379	0.004
Mof_C 	C 	0.9629	0.4668	0.7659	0
Mof_C 	C 	0.9639	0.4081	0.7241	0.006
Mof_C 	C 	0.9675	0.3455	0.756	0.001
Mof_C 	C 	0.9606	0.5208	0.8792	-0.045
Mof_C 	C 	0.9617	0.4151	0.6498	-0.052
Mof_H 	H 	0.9691	0.3886	0.9114	0.009
Mof_H 	H 	0.9675	0.3056	0.7281	0.013
Mof_H 	H 	0.9577	0.5166	0.9276	0.047
Mof_H 	H 	0.961	0.3755	0.6215	0.048
Mof_N 	N 	0.0289	0.1628	0.8247	-0.218
Mof_C 	C 	0.0319	0.1059	0.863	0.008
Mof_C 	C 	0.0364	0.0401	0.8379	-0.021
Mof_C 	C 	0.0371	0.0332	0.7659	-0.007
Mof_C 	C 	0.0361	0.0919	0.7241	-0.003
Mof_C 	C 	0.0325	0.1545	0.756	0.001
Mof_C 	C 	0.0394	0.9792	0.8792	-0.023
Mof_C 	C 	0.0383	0.0849	0.6498	-0.046
Mof_H 	H 	0.0309	0.1114	0.9114	-0.003
Mof_H 	H 	0.0325	0.1944	0.7281	0.005
Mof_H 	H 	0.0423	0.9834	0.9276	0.037
Mof_H 	H 	0.039	0.1245	0.6215	0.04
Mof_N 	N 	0.5289	0.6628	0.3247	-0.215
Mof_C 	C 	0.5319	0.6059	0.363	0.002
Mof_C 	C 	0.5364	0.5401	0.3379	0
Mof_C 	C 	0.5371	0.5332	0.2659	-0.001
Mof_C 	C 	0.5361	0.5919	0.2241	0.003
Mof_C 	C 	0.5325	0.6545	0.256	-0.001
Mof_C 	C 	0.5394	0.4792	0.3792	-0.047
Mof_C 	C 	0.5383	0.5849	0.1498	-0.054
Mof_H 	H 	0.5309	0.6114	0.4114	0.002
Mof_H 	H 	0.5325	0.6944	0.2281	0.009
Mof_H 	H 	0.5423	0.4834	0.4276	0.039
Mof_H 	H 	0.539	0.6245	0.1215	0.043
Mof_N 	N 	0.5872	0.7789	0.4253	-0.214
Mof_C 	C 	0.6441	0.7819	0.387	0.002
Mof_C 	C 	0.7099	0.7864	0.4121	-0
Mof_C 	C 	0.7168	0.7871	0.4841	0
Mof_C 	C 	0.6581	0.7861	0.5259	0.003
Mof_C 	C 	0.5955	0.7825	0.494	-0
Mof_C 	C 	0.7708	0.7894	0.3708	-0.046
Mof_C 	C 	0.6651	0.7883	0.6002	-0.053
Mof_H 	H 	0.6386	0.7809	0.3386	0.003
Mof_H 	H 	0.5556	0.7825	0.5219	0.01
Mof_H 	H 	0.7666	0.7923	0.3224	0.04
Mof_H 	H 	0.6255	0.789	0.6285	0.046
Mof_N 	N 	0.0872	0.2789	0.9253	-0.233
Mof_C 	C 	0.1441	0.2819	0.887	0.028
Mof_C 	C 	0.2099	0.2864	0.9121	-0.046
Mof_C 	C 	0.2168	0.2871	0.9841	0.079
Mof_C 	C 	0.1581	0.2861	0.0259	-0.077
Mof_C 	C 	0.0955	0.2825	0.994	0.071
Mof_C 	C 	0.2708	0.2894	0.8708	-0.001
Mof_C 	C 	0.1651	0.2883	0.1002	-0.002
Mof_H 	H 	0.1386	0.2809	0.8386	-0.008
Mof_H 	H 	0.0556	0.2825	0.0219	-0.026
Mof_H 	H 	0.2666	0.2923	0.8224	0.024
Mof_H 	H 	0.1255	0.289	0.1285	0.027
Mof_N 	N 	0.9128	0.2211	0.9253	-0.228
Mof_C 	C 	0.8559	0.2181	0.887	0.03
Mof_C 	C 	0.7901	0.2136	0.9121	-0.049
Mof_C 	C 	0.7832	0.2129	0.9841	0.086
Mof_C 	C 	0.8419	0.2139	0.0259	-0.085
Mof_C 	C 	0.9045	0.2175	0.994	0.082
Mof_C 	C 	0.7292	0.2106	0.8708	0.002
Mof_C 	C 	0.8349	0.2117	0.1002	0.004
Mof_H 	H 	0.8614	0.2191	0.8386	-0.005
Mof_H 	H 	0.9444	0.2175	0.0219	-0.023
Mof_H 	H 	0.7334	0.2077	0.8224	0.024
Mof_H 	H 	0.8745	0.211	0.1285	0.028
Mof_N 	N 	0.4128	0.7211	0.4253	-0.214
Mof_C 	C 	0.3559	0.7181	0.387	0.001
Mof_C 	C 	0.2901	0.7136	0.4121	0
Mof_C 	C 	0.2832	0.7129	0.4841	-0.001
Mof_C 	C 	0.3419	0.7139	0.5259	0.004
Mof_C 	C 	0.4045	0.7175	0.494	-0.001
Mof_C 	C 	0.2292	0.7106	0.3708	-0.047
Mof_C 	C 	0.3349	0.7117	0.6002	-0.053
Mof_H 	H 	0.3614	0.7191	0.3386	0.002
Mof_H 	H 	0.4444	0.7175	0.5219	0.01
Mof_H 	H 	0.2334	0.7077	0.3224	0.039
Mof_H 	H 	0.3745	0.711	0.6285	0.046
Mof_N 	N 	0.0872	0.7211	0.5747	-0.217
Mof_C 	C 	0.1441	0.7181	0.613	0.001
Mof_C 	C 	0.2099	0.7136	0.5879	-0
Mof_C 	C 	0.2168	0.7129	0.5159	-0
Mof_C 	C 	0.1581	0.7139	0.4741	0.002
Mof_C 	C 	0.0955	0.7175	0.506	-0
Mof_C 	C 	0.2708	0.7106	0.6292	-0.047
Mof_C 	C 	0.1651	0.7117	0.3998	-0.053
Mof_H 	H 	0.1386	0.7191	0.6614	0.001
Mof_H 	H 	0.0556	0.7175	0.4781	0.005
Mof_H 	H 	0.2666	0.7077	0.6776	0.04
Mof_H 	H 	0.1255	0.711	0.3715	0.045
Mof_N 	N 	0.5872	0.2211	0.0747	-0.197
Mof_C 	C 	0.6441	0.2181	0.113	-0.026
Mof_C 	C 	0.7099	0.2136	0.0879	0.05
Mof_C 	C 	0.7168	0.2129	0.0159	-0.086
Mof_C 	C 	0.6581	0.2139	0.9741	0.091
Mof_C 	C 	0.5955	0.2175	0.006	-0.08
Mof_C 	C 	0.7708	0.2106	0.1292	-0.095
Mof_C 	C 	0.6651	0.2117	0.8998	-0.109
Mof_H 	H 	0.6386	0.2191	0.1614	0.011
Mof_H 	H 	0.5556	0.2175	0.9781	0.044
Mof_H 	H 	0.7666	0.2077	0.1776	0.055
Mof_H 	H 	0.6255	0.211	0.8715	0.065
Mof_N 	N 	0.4128	0.2789	0.0747	-0.198
Mof_C 	C 	0.3559	0.2819	0.113	-0.024
Mof_C 	C 	0.2901	0.2864	0.0879	0.046
Mof_C 	C 	0.2832	0.2871	0.0159	-0.08
Mof_C 	C 	0.3419	0.2861	0.9741	0.087
Mof_C 	C 	0.4045	0.2825	0.006	-0.077
Mof_C 	C 	0.2292	0.2894	0.1292	-0.091
Mof_C 	C 	0.3349	0.2883	0.8998	-0.107
Mof_H 	H 	0.3614	0.2809	0.1614	0.01
Mof_H 	H 	0.4444	0.2825	0.9781	0.043
Mof_H 	H 	0.2334	0.2923	0.1776	0.053
Mof_H 	H 	0.3745	0.289	0.8715	0.064
Mof_N 	N 	0.9128	0.7789	0.5747	-0.21
Mof_C 	C 	0.8559	0.7819	0.613	0.001
Mof_C 	C 	0.7901	0.7864	0.5879	0.002
Mof_C 	C 	0.7832	0.7871	0.5159	-0.001
Mof_C 	C 	0.8419	0.7861	0.4741	0.006
Mof_C 	C 	0.9045	0.7825	0.506	-0.001
Mof_C 	C 	0.7292	0.7894	0.6292	-0.048
Mof_C 	C 	0.8349	0.7883	0.3998	-0.054
Mof_H 	H 	0.8614	0.7809	0.6614	0.006
Mof_H 	H 	0.9444	0.7825	0.4781	0.015
Mof_H 	H 	0.7334	0.7923	0.6776	0.041
Mof_H 	H 	0.8745	0.789	0.3715	0.048
Mof_Cu	Cu	0.5	0.25	0.125	0.849
Mof_Cu	Cu	2.34337e-33	0.75	0.625	0.843
Mof_Cu	Cu	0.5	0.75	0.375	0.85
Mof_Cu	Cu	1.00844e-32	0.25	0.875	0.844
Mof_N 	N 	0.1753	0.5289	0.3372	-0.215
Mof_C 	C 	0.137	0.5319	0.3941	0.003
Mof_C 	C 	0.1621	0.5364	0.4599	-0.001
Mof_C 	C 	0.2341	0.5371	0.4668	0
Mof_C 	C 	0.2759	0.5361	0.4081	0.003
Mof_C 	C 	0.244	0.5325	0.3455	-0
Mof_C 	C 	0.1208	0.5394	0.5208	-0.046
Mof_C 	C 	0.3502	0.5383	0.4151	-0.053
Mof_H 	H 	0.0886	0.5309	0.3886	0
Mof_H 	H 	0.2719	0.5325	0.3056	0.009
Mof_H 	H 	0.0724	0.5423	0.5166	0.035
Mof_H 	H 	0.3785	0.539	0.3755	0.046
Mof_N 	N 	0.6753	0.0289	0.8372	-0.215
Mof_C 	C 	0.637	0.0319	0.8941	-0.008
Mof_C 	C 	0.6621	0.0364	0.9599	0.017
Mof_C 	C 	0.7341	0.0371	0.9668	0.004
Mof_C 	C 	0.7759	0.0361	0.9081	0.007
Mof_C 	C 	0.744	0.0325	0.8455	-0.004
Mof_C 	C 	0.6208	0.0394	0.0208	-0.073
Mof_C 	C 	0.8502	0.0383	0.9151	-0.064
Mof_H 	H 	0.5886	0.0309	0.8886	0.004
Mof_H 	H 	0.7719	0.0325	0.8056	0.008
Mof_H 	H 	0.5724	0.0423	0.0166	0.04
Mof_H 	H 	0.8785	0.039	0.8755	0.051
Mof_N 	N 	0.6753	0.9711	0.6628	-0.21
Mof_C 	C 	0.637	0.9681	0.6059	0.003
Mof_C 	C 	0.6621	0.9636	0.5401	0.003
Mof_C 	C 	0.7341	0.9629	0.5332	0.001
Mof_C 	C 	0.7759	0.9639	0.5919	0.007
Mof_C 	C 	0.744	0.9675	0.6545	0.001
Mof_C 	C 	0.6208	0.9606	0.4792	-0.045
Mof_C 	C 	0.8502	0.9617	0.5849	-0.051
Mof_H 	H 	0.5886	0.9691	0.6114	0.006
Mof_H 	H 	0.7719	0.9675	0.6944	0.015
Mof_H 	H 	0.5724	0.9577	0.4834	0.042
Mof_H 	H 	0.8785	0.961	0.6245	0.053
Mof_N 	N 	0.1753	0.4711	0.1628	-0.217
Mof_C 	C 	0.137	0.4681	0.1059	0.011
Mof_C 	C 	0.1621	0.4636	0.0401	-0.02
Mof_C 	C 	0.2341	0.4629	0.0332	-0.005
Mof_C 	C 	0.2759	0.4639	0.0919	-0.002
Mof_C 	C 	0.244	0.4675	0.1545	0.002
Mof_C 	C 	0.1208	0.4606	0.9792	-0.022
Mof_C 	C 	0.3502	0.4617	0.0849	-0.044
Mof_H 	H 	0.0886	0.4691	0.1114	-0.004
Mof_H 	H 	0.2719	0.4675	0.1944	0.008
Mof_H 	H 	0.0724	0.4577	0.9834	0.031
Mof_H 	H 	0.3785	0.461	0.1245	0.042
Mof_N 	N 	0.3247	0.4711	0.8372	-0.213
Mof_C 	C 	0.363	0.4681	0.8941	-0.007
Mof_C 	C 	0.3379	0.4636	0.9599	0.021
Mof_C 	C 	0.2659	0.4629	0.9668	0.005
Mof_C 	C 	0.2241	0.4639	0.9081	0.008
Mof_C 	C 	0.256	0.4675	0.8455	-0.003
Mof_C 	C 	0.3792	0.4606	0.0208	-0.073
Mof_C 	C 	0.1498	0.4617	0.9151	-0.064
Mof_H 	H 	0.4114	0.4691	0.8886	0.007
Mof_H 	H 	0.2281	0.4675	0.8056	0.009
Mof_H 	H 	0.4276	0.4577	0.0166	0.043
Mof_H 	H 	0.1215	0.461	0.8755	0.046
Mof_N 	N 	0.8247	0.9711	0.3372	-0.21
Mof_C 	C 	0.863	0.9681	0.3941	0.002
Mof_C 	C 	0.8379	0.9636	0.4599	0.004
Mof_C 	C 	0.7659	0.9629	0.4668	0
Mof_C 	C 	0.7241	0.9639	0.4081	0.006
Mof_C 	C 	0.756	0.9675	0.3455	0.001
Mof_C 	C 	0.8792	0.9606	0.5208	-0.045
Mof_C 	C 	0.6498	0.9617	0.4151	-0.052
Mof_H 	H 	0.9114	0.9691	0.3886	0.009
Mof_H 	H 	0.7281	0.9675	0.3056	0.013
Mof_H 	H 	0.9276	0.9577	0.5166	0.047
Mof_H 	H 	0.6215	0.961	0.3755	0.048
Mof_N 	N 	0.8247	0.0289	0.1628	-0.218
Mof_C 	C 	0.863	0.0319	0.1059	0.008
Mof_C 	C 	0.8379	0.0364	0.0401	-0.021
Mof_C 	C 	0.7659	0.0371	0.0332	-0.007
Mof_C 	C 	0.7241	0.0361	0.0919	-0.003
Mof_C 	C 	0.756	0.0325	0.1545	0.001
Mof_C 	C 	0.8792	0.0394	0.9792	-0.023
Mof_C 	C 	0.6498	0.0383	0.0849	-0.046
Mof_H 	H 	0.9114	0.0309	0.1114	-0.003
Mof_H 	H 	0.7281	0.0325	0.1944	0.005
Mof_H 	H 	0.9276	0.0423	0.9834	0.037
Mof_H 	H 	0.6215	0.039	0.1245	0.04
Mof_N 	N 	0.3247	0.5289	0.6628	-0.215
Mof_C 	C 	0.363	0.5319	0.6059	0.002
Mof_C 	C 	0.3379	0.5364	0.5401	0
Mof_C 	C 	0.2659	0.5371	0.5332	-0.001
Mof_C 	C 	0.2241	0.5361	0.5919	0.003
Mof_C 	C 	0.256	0.5325	0.6545	-0.001
Mof_C 	C 	0.3792	0.5394	0.4792	-0.047
Mof_C 	C 	0.1498	0.5383	0.5849	-0.054
Mof_H 	H 	0.4114	0.5309	0.6114	0.002
Mof_H 	H 	0.2281	0.5325	0.6944	0.009
Mof_H 	H 	0.4276	0.5423	0.4834	0.039
Mof_H 	H 	0.1215	0.539	0.6245	0.043
Mof_N 	N 	0.4253	0.5872	0.7789	-0.214
Mof_C 	C 	0.387	0.6441	0.7819	0.002
Mof_C 	C 	0.4121	0.7099	0.7864	-0
Mof_C 	C 	0.4841	0.7168	0.7871	0
Mof_C 	C 	0.5259	0.6581	0.7861	0.003
Mof_C 	C 	0.494	0.5955	0.7825	-0
Mof_C 	C 	0.3708	0.7708	0.7894	-0.046
Mof_C 	C 	0.6002	0.6651	0.7883	-0.053
Mof_H 	H 	0.3386	0.6386	0.7809	0.003
Mof_H 	H 	0.5219	0.5556	0.7825	0.01
Mof_H 	H 	0.3224	0.7666	0.7923	0.04
Mof_H 	H 	0.6285	0.6255	0.789	0.046
Mof_N 	N 	0.9253	0.0872	0.2789	-0.233
Mof_C 	C 	0.887	0.1441	0.2819	0.028
Mof_C 	C 	0.9121	0.2099	0.2864	-0.046
Mof_C 	C 	0.9841	0.2168	0.2871	0.079
Mof_C 	C 	0.0259	0.1581	0.2861	-0.077
Mof_C 	C 	0.994	0.0955	0.2825	0.071
Mof_C 	C 	0.8708	0.2708	0.2894	-0.001
Mof_C 	C 	0.1002	0.1651	0.2883	-0.002
Mof_H 	H 	0.8386	0.1386	0.2809	-0.008
Mof_H 	H 	0.0219	0.0556	0.2825	-0.026
Mof_H 	H 	0.8224	0.2666	0.2923	0.024
Mof_H 	H 	0.1285	0.1255	0.289	0.027
Mof_N 	N 	0.9253	0.9128	0.2211	-0.228
Mof_C 	C 	0.887	0.8559	0.2181	0.03
Mof_C 	C 	0.9121	0.7901	0.2136	-0.049
Mof_C 	C 	0.9841	0.7832	0.2129	0.086
Mof_C 	C 	0.0259	0.8419	0.2139	-0.085
Mof_C 	C 	0.994	0.9045	0.2175	0.082
Mof_C 	C 	0.8708	0.7292	0.2106	0.002
Mof_C 	C 	0.1002	0.8349	0.2117	0.004
Mof_H 	H 	0.8386	0.8614	0.2191	-0.005
Mof_H 	H 	0.0219	0.9444	0.2175	-0.023
Mof_H 	H 	0.8224	0.7334	0.2077	0.024
Mof_H 	H 	0.1285	0.8745	0.211	0.028
Mof_N 	N 	0.4253	0.4128	0.7211	-0.214
Mof_C 	C 	0.387	0.3559	0.7181	0.001
Mof_C 	C 	0.4121	0.2901	0.7136	0
Mof_C 	C 	0.4841	0.2832	0.7129	-0.001
Mof_C 	C 	0.5259	0.3419	0.7139	0.004
Mof_C 	C 	0.494	0.4045	0.7175	-0.001
Mof_C 	C 	0.3708	0.2292	0.7106	-0.047
Mof_C 	C 	0.6002	0.3349	0.7117	-0.053
Mof_H 	H 	0.3386	0.3614	0.7191	0.002
Mof_H 	H 	0.5219	0.4444	0.7175	0.01
Mof_H 	H 	0.3224	0.2334	0.7077	0.039
Mof_H 	H 	0.6285	0.3745	0.711	0.046
Mof_N 	N 	0.5747	0.0872	0.7211	-0.217
Mof_C 	C 	0.613	0.1441	0.7181	0.001
Mof_C 	C 	0.5879	0.2099	0.7136	-0
Mof_C 	C 	0.5159	0.2168	0.7129	-0
Mof_C 	C 	0.4741	0.1581	0.7139	0.002
Mof_C 	C 	0.506	0.0955	0.7175	-0
Mof_C 	C 	0.6292	0.2708	0.7106	-0.047
Mof_C 	C 	0.3998	0.1651	0.7117	-0.053
Mof_H 	H 	0.6614	0.1386	0.7191	0.001
Mof_H 	H 	0.4781	0.0556	0.7175	0.005
Mof_H 	H 	0.6776	0.2666	0.7077	0.04
Mof_H 	H 	0.3715	0.1255	0.711	0.045
Mof_N 	N 	0.0747	0.5872	0.2211	-0.197
Mof_C 	C 	0.113	0.6441	0.2181	-0.026
Mof_C 	C 	0.0879	0.7099	0.2136	0.05
Mof_C 	C 	0.0159	0.7168	0.2129	-0.086
Mof_C 	C 	0.9741	0.6581	0.2139	0.091
Mof_C 	C 	0.006	0.5955	0.2175	-0.08
Mof_C 	C 	0.1292	0.7708	0.2106	-0.095
Mof_C 	C 	0.8998	0.6651	0.2117	-0.109
Mof_H 	H 	0.1614	0.6386	0.2191	0.011
Mof_H 	H 	0.9781	0.5556	0.2175	0.044
Mof_H 	H 	0.1776	0.7666	0.2077	0.055
Mof_H 	H 	0.8715	0.6255	0.211	0.065
Mof_N 	N 	0.0747	0.4128	0.2789	-0.198
Mof_C 	C 	0.113	0.3559	0.2819	-0.024
Mof_C 	C 	0.0879	0.2901	0.2864	0.046
Mof_C 	C 	0.0159	0.2832	0.2871	-0.08
Mof_C 	C 	0.9741	0.3419	0.2861	0.087
Mof_C 	C 	0.006	0.4045	0.2825	-0.077
Mof_C 	C 	0.1292	0.2292	0.2894	-0.091
Mof_C 	C 	0.8998	0.3349	0.2883	-0.107
Mof_H 	H 	0.1614	0.3614	0.2809	0.01
Mof_H 	H 	0.9781	0.4444	0.2825	0.043
Mof_H 	H 	0.1776	0.2334	0.2923	0.053
Mof_H 	H 	0.8715	0.3745	0.289	0.064
Mof_N 	N 	0.5747	0.9128	0.7789	-0.21
Mof_C 	C 	0.613	0.8559	0.7819	0.001
Mof_C 	C 	0.5879	0.7901	0.7864	0.002
Mof_C 	C 	0.5159	0.7832	0.7871	-0.001
Mof_C 	C 	0.4741	0.8419	0.7861	0.006
Mof_C 	C 	0.506	0.9045	0.7825	-0.001
Mof_C 	C 	0.6292	0.7292	0.7894	-0.048
Mof_C 	C 	0.3998	0.8349	0.7883	-0.054
Mof_H 	H 	0.6614	0.8614	0.7809	0.006
Mof_H 	H 	0.4781	0.9444	0.7825	0.015
Mof_H 	H 	0.6776	0.7334	0.7923	0.041
Mof_H 	H 	0.3715	0.8745	0.789	0.048
Mof_Cu	Cu	0.125	0.5	0.25	0.849
Mof_Cu	Cu	0.625	6.80366e-33	0.75	0.843
Mof_Cu	Cu	0.375	0.5	0.75	0.85
Mof_Cu	Cu	0.875	1.70091e-33	0.25	0.844
Mof_N 	N 	0.3372	0.1753	0.5289	-0.215
Mof_C 	C 	0.3941	0.137	0.5319	0.003
Mof_C 	C 	0.4599	0.1621	0.5364	-0.001
Mof_C 	C 	0.4668	0.2341	0.5371	0
Mof_C 	C 	0.4081	0.2759	0.5361	0.003
Mof_C 	C 	0.3455	0.244	0.5325	-0
Mof_C 	C 	0.5208	0.1208	0.5394	-0.046
Mof_C 	C 	0.4151	0.3502	0.5383	-0.053
Mof_H 	H 	0.3886	0.0886	0.5309	0
Mof_H 	H 	0.3056	0.2719	0.5325	0.009
Mof_H 	H 	0.5166	0.0724	0.5423	0.035
Mof_H 	H 	0.3755	0.3785	0.539	0.046
Mof_N 	N 	0.8372	0.6753	0.0289	-0.215
Mof_C 	C 	0.8941	0.637	0.0319	-0.008
Mof_C 	C 	0.9599	0.6621	0.0364	0.017
Mof_C 	C 	0.9668	0.7341	0.0371	0.004
Mof_C 	C 	0.9081	0.7759	0.0361	0.007
Mof_C 	C 	0.8455	0.744	0.0325	-0.004
Mof_C 	C 	0.0208	0.6208	0.0394	-0.073
Mof_C 	C 	0.9151	0.8502	0.0383	-0.064
Mof_H 	H 	0.8886	0.5886	0.0309	0.004
Mof_H 	H 	0.8056	0.7719	0.0325	0.008
Mof_H 	H 	0.0166	0.5724	0.0423	0.04
Mof_H 	H 	0.8755	0.8785	0.039	0.051
Mof_N 	N 	0.6628	0.6753	0.9711	-0.21
Mof_C 	C 	0.6059	0.637	0.9681	0.003
Mof_C 	C 	0.5401	0.6621	0.9636	0.003
Mof_C 	C 	0.5332	0.7341	0.9629	0.001
Mof_C 	C 	0.5919	0.7759	0.9639	0.007
Mof_C 	C 	0.6545	0.744	0.9675	0.001
Mof_C 	C 	0.4792	0.6208	0.9606	-0.045
Mof_C 	C 	0.5849	0.8502	0.9617	-0.051
Mof_H 	H 	0.6114	0.5886	0.9691	0.006
Mof_H 	H 	0.6944	0.7719	0.9675	0.015
Mof_H 	H 	0.4834	0.5724	0.9577	0.042
Mof_H 	H 	0.6245	0.8785	0.961	0.053
Mof_N 	N 	0.1628	0.1753	0.4711	-0.217
Mof_C 	C 	0.1059	0.137	0.4681	0.011
Mof_C 	C 	0.0401	0.1621	0.4636	-0.02
Mof_C 	C 	0.0332	0.2341	0.4629	-0.005
Mof_C 	C 	0.0919	0.2759	0.4639	-0.002
Mof_C 	C 	0.1545	0.244	0.4675	0.002
Mof_C 	C 	0.9792	0.1208	0.4606	-0.022
Mof_C 	C 	0.0849	0.3502	0.4617	-0.044
Mof_H 	H 	0.1114	0.0886	0.4691	-0.004
Mof_H 	H 	0.1944	0.2719	0.4675	0.008
Mof_H 	H 	0.9834	0.0724	0.4577	0.031
Mof_H 	H 	0.1245	0.3785	0.461	0.042
Mof_N 	N 	0.8372	0.3247	0.4711	-0.213
Mof_C 	C 	0.8941	0.363	0.4681	-0.007
Mof_C 	C 	0.9599	0.3379	0.4636	0.021
Mof_C 	C 	0.9668	0.2659	0.4629	0.005
Mof_C 	C 	0.9081	0.2241	0.4639	0.008
Mof_C 	C 	0.8455	0.256	0.4675	-0.003
Mof_C 	C 	0.0208	0.3792	0.4606	-0.073
Mof_C 	C 	0.9151	0.1498	0.4617	-0.064
Mof_H 	H 	0.8886	0.4114	0.4691	0.007
Mof_H 	H 	0.8056	0.2281	0.4675	0.009
Mof_H 	H 	0.0166	0.4276	0.4577	0.043
Mof_H 	H 	0.8755	0.1215	0.461	0.046
Mof_N 	N 	0.3372	0.8247	0.9711	-0.21
Mof_C 	C 	0.3941	0.863	0.9681	0.002
Mof_C 	C 	0.4599	0.8379	0.9636	0.004
Mof_C 	C 	0.4668	0.7659	0.9629	0
Mof_C 	C 	0.4081	0.7241	0.9639	0.006
Mof_C 	C 	0.3455	0.756	0.9675	0.001
Mof_C 	C 	0.5208	0.8792	0.9606	-0.045
Mof_C 	C 	0.4151	0.6498	0.9617	-0.052
Mof_H 	H 	0.3886	0.9114	0.9691	0.009
Mof_H 	H 	0.3056	0.7281	0.9675	0.013
Mof_H 	H 	0.5166	0.9276	0.9577	0.047
Mof_H 	H 	0.3755	0.6215	0.961	0.048
Mof_N 	N 	0.1628	0.8247	0.0289	-0.218
Mof_C 	C 	0.1059	0.863	0.0319	0.008
Mof_C 	C 	0.0401	0.8379	0.0364	-0.021
Mof_C 	C 	0.0332	0.7659	0.0371	-0.007
Mof_C 	C 	0.0919	0.7241	0.0361	-0.003
Mof_C 	C 	0.1545	0.756	0.0325	0.001
Mof_C 	C 	0.9792	0.8792	0.0394	-0.023
Mof_C 	C 	0.0849	0.6498	0.0383	-0.046
Mof_H 	H 	0.1114	0.9114	0.0309	-0.003
Mof_H 	H 	0.1944	0.7281	0.0325	0.005
Mof_H 	H 	0.9834	0.9276	0.0423	0.037
Mof_H 	H 	0.1245	0.6215	0.039	0.04
Mof_N 	N 	0.6628	0.3247	0.5289	-0.215
Mof_C 	C 	0.6059	0.363	0.5319	0.002
Mof_C 	C 	0.5401	0.3379	0.5364	0
Mof_C 	C 	0.5332	0.2659	0.5371	-0.001
Mof_C 	C 	0.5919	0.2241	0.5361	0.003
Mof_C 	C 	0.6545	0.256	0.5325	-0.001
Mof_C 	C 	0.4792	0.3792	0.5394	-0.047
Mof_C 	C 	0.5849	0.1498	0.5383	-0.054
Mof_H 	H 	0.6114	0.4114	0.5309	0.002
Mof_H 	H 	0.6944	0.2281	0.5325	0.009
Mof_H 	H 	0.4834	0.4276	0.5423	0.039
Mof_H 	H 	0.6245	0.1215	0.539	0.043
Mof_N 	N 	0.7789	0.4253	0.5872	-0.214
Mof_C 	C 	0.7819	0.387	0.6441	0.002
Mof_C 	C 	0.7864	0.4121	0.7099	-0
Mof_C 	C 	0.7871	0.4841	0.7168	0
Mof_C 	C 	0.7861	0.5259	0.6581	0.003
Mof_C 	C 	0.7825	0.494	0.5955	-0
Mof_C 	C 	0.7894	0.3708	0.7708	-0.046
Mof_C 	C 	0.7883	0.6002	0.6651	-0.053
Mof_H 	H 	0.7809	0.3386	0.6386	0.003
Mof_H 	H 	0.7825	0.5219	0.5556	0.01
Mof_H 	H 	0.7923	0.3224	0.7666	0.04
Mof_H 	H 	0.789	0.6285	0.6255	0.046
Mof_N 	N 	0.2789	0.9253	0.0872	-0.233
Mof_C 	C 	0.2819	0.887	0.1441	0.028
Mof_C 	C 	0.2864	0.9121	0.2099	-0.046
Mof_C 	C 	0.2871	0.9841	0.2168	0.079
Mof_C 	C 	0.2861	0.0259	0.1581	-0.077
Mof_C 	C 	0.2825	0.994	0.0955	0.071
Mof_C 	C 	0.2894	0.8708	0.2708	-0.001
Mof_C 	C 	0.2883	0.1002	0.1651	-0.002
Mof_H 	H 	0.2809	0.8386	0.1386	-0.008
Mof_H 	H 	0.2825	0.0219	0.0556	-0.026
Mof_H 	H 	0.2923	0.8224	0.2666	0.024
Mof_H 	H 	0.289	0.1285	0.1255	0.027
Mof_N 	N 	0.2211	0.9253	0.9128	-0.228
Mof_C 	C 	0.2181	0.887	0.8559	0.03
Mof_C 	C 	0.2136	0.9121	0.7901	-0.049
Mof_C 	C 	0.2129	0.9841	0.7832	0.086
Mof_C 	C 	0.2139	0.0259	0.8419	-0.085
Mof_C 	C 	0.2175	0.994	0.9045	0.082
Mof_C 	C 	0.2106	0.8708	0.7292	0.002
Mof_C 	C 	0.2117	0.1002	0.8349	0.004
Mof_H 	H 	0.2191	0.8386	0.8614	-0.005
Mof_H 	H 	0.2175	0.0219	0.9444	-0.023
Mof_H 	H 	0.2077	0.8224	0.7334	0.024
Mof_H 	H 	0.211	0.1285	0.8745	0.028
Mof_N 	N 	0.7211	0.4253	0.4128	-0.214
Mof_C 	C 	0.7181	0.387	0.3559	0.001
Mof_C 	C 	0.7136	0.4121	0.2901	0
Mof_C 	C 	0.7129	0.4841	0.2832	-0.001
Mof_C 	C 	0.7139	0.5259	0.3419	0.004
Mof_C 	C 	0.7175	0.494	0.4045	-0.001
Mof_C 	C 	0.7106	0.3708	0.2292	-0.047
Mof_C 	C 	0.7117	0.6002	0.3349	-0.053
Mof_H 	H 	0.7191	0.3386	0.3614	0.002
Mof_H 	H 	0.7175	0.5219	0.4444	0.01
Mof_H 	H 	0.7077	0.3224	0.2334	0.039
Mof_H 	H 	0.711	0.6285	0.3745	0.046
Mof_N 	N 	0.7211	0.5747	0.0872	-0.217
Mof_C 	C 	0.7181	0.613	0.1441	0.001
Mof_C 	C 	0.7136	0.5879	0.2099	-0
Mof_C 	C 	0.7129	0.5159	0.2168	-0
Mof_C 	C 	0.7139	0.4741	0.1581	0.002
Mof_C 	C 	0.7175	0.506	0.0955	-0
Mof_C 	C 	0.7106	0.6292	0.2708	-0.047
Mof_C 	C 	0.7117	0.3998	0.1651	-0.053
Mof_H 	H 	0.7191	0.6614	0.1386	0.001
Mof_H 	H 	0.7175	0.4781	0.0556	0.005
Mof_H 	H 	0.7077	0.6776	0.2666	0.04
Mof_H 	H 	0.711	0.3715	0.1255	0.045
Mof_N 	N 	0.2211	0.0747	0.5872	-0.197
Mof_C 	C 	0.2181	0.113	0.6441	-0.026
Mof_C 	C 	0.2136	0.0879	0.7099	0.05
Mof_C 	C 	0.2129	0.0159	0.7168	-0.086
Mof_C 	C 	0.2139	0.9741	0.6581	0.091
Mof_C 	C 	0.2175	0.006	0.5955	-0.08
Mof_C 	C 	0.2106	0.1292	0.7708	-0.095
Mof_C 	C 	0.2117	0.8998	0.6651	-0.109
Mof_H 	H 	0.2191	0.1614	0.6386	0.011
Mof_H 	H 	0.2175	0.9781	0.5556	0.044
Mof_H 	H 	0.2077	0.1776	0.7666	0.055
Mof_H 	H 	0.211	0.8715	0.6255	0.065
Mof_N 	N 	0.2789	0.0747	0.4128	-0.198
Mof_C 	C 	0.2819	0.113	0.3559	-0.024
Mof_C 	C 	0.2864	0.0879	0.2901	0.046
Mof_C 	C 	0.2871	0.0159	0.2832	-0.08
Mof_C 	C 	0.2861	0.9741	0.3419	0.087
Mof_C 	C 	0.2825	0.006	0.4045	-0.077
Mof_C 	C 	0.2894	0.1292	0.2292	-0.091
Mof_C 	C 	0.2883	0.8998	0.3349	-0.107
Mof_H 	H 	0.2809	0.1614	0.3614	0.01
Mof_H 	H 	0.2825	0.9781	0.4444	0.043
Mof_H 	H 	0.2923	0.1776	0.2334	0.053
Mof_H 	H 	0.289	0.8715	0.3745	0.064
Mof_N 	N 	0.7789	0.5747	0.9128	-0.21
Mof_C 	C 	0.7819	0.613	0.8559	0.001
Mof_C 	C 	0.7864	0.5879	0.7901	0.002
Mof_C 	C 	0.7871	0.5159	0.7832	-0.001
Mof_C 	C 	0.7861	0.4741	0.8419	0.006
Mof_C 	C 	0.7825	0.506	0.9045	-0.001
Mof_C 	C 	0.7894	0.6292	0.7292	-0.048
Mof_C 	C 	0.7883	0.3998	0.8349	-0.054
Mof_H 	H 	0.7809	0.6614	0.8614	0.006
Mof_H 	H 	0.7825	0.4781	0.9444	0.015
Mof_H 	H 	0.7923	0.6776	0.7334	0.041
Mof_H 	H 	0.789	0.3715	0.8745	0.048
Mof_Cu	Cu	0.25	0.125	0.5	0.849
Mof_Cu	Cu	0.75	0.625	-0	0.843
Mof_Cu	Cu	0.75	0.375	0.5	0.85
Mof_Cu	Cu	0.25	0.875	-0	0.844
_end
