data_functionalizedCrystal
_audit_creation_method	'EQeq! by Chris Wilmer'
_symmetry_space_group_name_H-M	'P1'
_symmetry_Int_Tables_number	1
_symmetry_cell_setting	triclinic
loop_
_symmetry_equiv_pos_as_xyz
  x,y,z
_cell_length_a	10.102
_cell_length_b	10.769
_cell_length_c	14.4953
_cell_angle_alpha	98.0125
_cell_angle_beta	95.7037
_cell_angle_gamma	110.535
loop_
_atom_site_label
_atom_site_type_symbol
_atom_site_fract_x
_atom_site_fract_y
_atom_site_fract_z
_atom_site_charge
Mof_Cd	Cd	-3.93792e-17	0.5	-0	0.45
Mof_Cd	Cd	0.90262	0.36299	0.40275	0.455
Mof_Cd	Cd	0.02308	0.27707	0.17915	0.447
Mof_Cd	Cd	0.09738	0.63701	0.59725	0.433
Mof_Cd	Cd	0.97692	0.72293	0.82085	0.481
Mof_H 	H 	0.3312	0.0529	0.8311	0.051
Mof_H 	H 	0.1678	0.9249	0.3358	0.082
Mof_H 	H 	0.5979	0.5811	0.6595	0.071
Mof_H 	H 	0.4572	0.2014	0.1872	0.07
Mof_H 	H 	0.7286	0.5358	0.0736	0.08
Mof_H 	H 	0.8221	0.8624	0.6864	0.027
Mof_H 	H 	0.6484	0.4913	0.3903	0.064
Mof_H 	H 	0.5268	0.2135	0.9326	0.067
Mof_H 	H 	0.5428	0.7986	0.8128	0.057
Mof_H 	H 	0.0761	0.0166	0.9276	0.023
Mof_H 	H 	0.1779	0.1376	0.3136	0.029
Mof_H 	H 	0.8322	0.0751	0.6642	0.09
Mof_H 	H 	0.2714	0.4642	0.9264	0.042
Mof_H 	H 	0.9239	0.9834	0.0724	0.016
Mof_H 	H 	0.5309	0.4648	0.1515	0.042
Mof_H 	H 	0.0859	0.2288	0.9165	0.105
Mof_H 	H 	0.4021	0.4189	0.3405	0.071
Mof_H 	H 	0.3516	0.5087	0.6097	0.063
Mof_H 	H 	0.6688	0.9471	0.1689	0.065
Mof_H 	H 	0.4691	0.5352	0.8485	0.075
Mof_H 	H 	0.2713	0.0432	0.0732	0.039
Mof_H 	H 	0.4732	0.7865	0.0674	0.044
Mof_H 	H 	0.7287	0.9568	0.9268	0.067
Mof_H 	H 	0.9141	0.7712	0.0835	0.09
Mof_C 	C 	0.3538	0.4634	0.471	-0.053
Mof_C 	C 	0.4819	0.5208	0.91	-0.074
Mof_C 	C 	0.2999	0.8087	0.7391	0.291
Mof_C 	C 	0.6462	0.5366	0.529	-0.051
Mof_C 	C 	0.0345	0.822	0.2141	0.043
Mof_C 	C 	0.5875	0.966	0.1526	-0.047
Mof_C 	C 	0.8774	0.938	0.7316	0.08
Mof_C 	C 	0.3626	0.4785	0.9565	0.035
Mof_C 	C 	0.5823	0.0882	0.1891	-0.028
Mof_C 	C 	0.3487	0.0221	0.0958	0.011
Mof_C 	C 	0.5291	0.1296	0.9089	-0.043
Mof_C 	C 	0.4621	0.1191	0.1621	-0.054
Mof_C 	C 	0.8028	0.5779	0.5613	0.296
Mof_C 	C 	0.9655	0.178	0.7859	0.08
Mof_C 	C 	0.0263	0.0291	0.8744	0.08
Mof_C 	C 	0.1226	0.062	0.2684	0.067
Mof_C 	C 	0.6513	0.9779	0.9042	-0.04
Mof_C 	C 	0.2218	0.7941	0.998	0.358
Mof_C 	C 	0.2567	0.4042	0.0971	0.302
Mof_C 	C 	0.5883	0.4933	0.4346	-0.017
Mof_C 	C 	0.8831	0.0656	0.7181	-0.124
Mof_C 	C 	0.4117	0.5067	0.5654	-0.017
Mof_C 	C 	0.3844	0.4587	0.047	-0.1
Mof_C 	C 	0.9879	0.3148	0.7704	0.105
Mof_C 	C 	0.0347	0.1567	0.8675	-0.156
Mof_C 	C 	0.7433	0.5958	0.9029	0.268
Mof_C 	C 	0.5181	0.4792	0.09	0.021
Mof_C 	C 	0.7001	0.1913	0.2609	0.278
Mof_C 	C 	0.5592	0.5476	0.5961	-0.028
Mof_C 	C 	0.5379	0.8809	0.8379	-0.013
Mof_C 	C 	0.4709	0.8704	0.0911	0.006
Mof_C 	C 	0.4125	0.034	0.8474	-0.005
Mof_C 	C 	0.7782	0.2059	0.002	0.279
Mof_C 	C 	0.351	0.8999	0.0649	-0.091
Mof_C 	C 	0.1169	0.9344	0.2819	-0.114
Mof_C 	C 	0.0121	0.6852	0.2296	0.084
Mof_C 	C 	0.649	0.1001	0.9351	-0.017
Mof_C 	C 	0.6156	0.5413	0.953	0.003
Mof_C 	C 	0.6374	0.5215	0.0435	-0.088
Mof_C 	C 	0.4177	0.9118	0.8109	-0.058
Mof_C 	C 	0.9653	0.8433	0.1325	-0.116
Mof_C 	C 	0.1972	0.4221	0.4387	0.296
Mof_C 	C 	0.9737	0.9709	0.1256	0.098
Mof_C 	C 	0.4408	0.4524	0.4039	-0.027
Mof_N 	N 	0.9952	0.6514	0.3141	-0.075
Mof_N 	N 	0.9824	0.4773	0.2154	-0.058
Mof_N 	N 	0.0222	0.4788	0.6966	-0.065
Mof_N 	N 	0.9778	0.5212	0.3034	-0.059
Mof_N 	N 	0.9953	0.4212	0.8342	-0.092
Mof_N 	N 	0.9508	0.9231	0.8091	-0.138
Mof_N 	N 	0.0176	0.5227	0.7846	-0.077
Mof_N 	N 	0.0048	0.3486	0.6859	-0.096
Mof_N 	N 	0.0047	0.5788	0.1658	-0.111
Mof_N 	N 	0.0492	0.0769	0.1909	-0.153
Mof_O 	O 	0.1257	0.4636	0.4968	-0.298
Mof_O 	O 	0.7257	0.626	0.8238	-0.263
Mof_O 	O 	0.329	0.7304	0.68	-0.274
Mof_O 	O 	0.172	0.8087	0.7353	-0.287
Mof_O 	O 	0.828	0.1913	0.2647	-0.272
Mof_O 	O 	0.799	0.3267	0.9992	-0.258
Mof_O 	O 	0.201	0.6733	0.0008	-0.309
Mof_O 	O 	0.8532	0.1635	0.0526	-0.273
Mof_O 	O 	0.8641	0.6517	0.6387	-0.27
Mof_O 	O 	0.1468	0.8365	0.9474	-0.3
Mof_O 	O 	0.1359	0.3483	0.3613	-0.28
Mof_O 	O 	0.2743	0.374	0.1762	-0.273
Mof_O 	O 	0.671	0.2696	0.32	-0.271
Mof_O 	O 	0.1322	0.3862	0.0532	-0.303
Mof_O 	O 	0.8743	0.5364	0.5032	-0.286
Mof_O 	O 	0.8678	0.6138	0.9468	-0.275
_end
