data_functionalizedCrystal
_audit_creation_method	'EQeq! by Chris Wilmer'
_symmetry_space_group_name_H-M	'P1'
_symmetry_Int_Tables_number	1
_symmetry_cell_setting	triclinic
loop_
_symmetry_equiv_pos_as_xyz
  x,y,z
_cell_length_a	20.1319
_cell_length_b	20.1319
_cell_length_c	20.42
_cell_angle_alpha	61.4721
_cell_angle_beta	61.4721
_cell_angle_gamma	65.3388
loop_
_atom_site_label
_atom_site_type_symbol
_atom_site_fract_x
_atom_site_fract_y
_atom_site_fract_z
_atom_site_charge
Mof_Zn	Zn	0.82463	0.35333	0.01605	1.216
Mof_Zn	Zn	0.95604	0.42748	0.91856	1.218
Mof_Zn	Zn	0.35333	0.82463	0.51605	1.216
Mof_Zn	Zn	0.42748	0.95604	0.41856	1.216
Mof_H 	H 	0.6816	0.494	0.8592	-0.011
Mof_H 	H 	0.8384	0.6176	0.77	0.001
Mof_H 	H 	0.7763	0.7157	0.6847	0.07
Mof_H 	H 	0.6859	0.8101	0.5939	0.076
Mof_H 	H 	0.5943	0.8695	0.5317	0.015
Mof_H 	H 	0.4946	0.6888	0.6694	-0.01
Mof_H 	H 	0.5619	0.5357	0.7297	0.292
Mof_H 	H 	0.62	0.483	0.7762	0.299
Mof_H 	H 	0.6507	0.5347	0.6864	0.304
Mof_H 	H 	0.4765	0.6053	0.8279	0.31
Mof_H 	H 	0.5119	0.6487	0.8454	0.315
Mof_H 	H 	0.5296	0.5574	0.8802	0.304
Mof_H 	H 	0.2913	0.0913	0.2564	-0.018
Mof_H 	H 	0.1804	0.9208	0.4132	0.011
Mof_H 	H 	0.0886	0.9772	0.3555	0.072
Mof_H 	H 	0.9932	0.0712	0.2702	0.051
Mof_H 	H 	0.9302	0.1642	0.1834	0.034
Mof_H 	H 	0.103	0.275	0.0679	-0.005
Mof_H 	H 	0.2342	0.2414	0.1817	0.349
Mof_H 	H 	0.1746	0.2926	0.1369	0.355
Mof_H 	H 	0.1446	0.2484	0.229	0.357
Mof_H 	H 	0.3074	0.1628	0.0945	0.351
Mof_H 	H 	0.2658	0.1182	0.0859	0.356
Mof_H 	H 	0.2515	0.2091	0.0453	0.355
Mof_H 	H 	0.5649	0.9887	0.4051	-0.008
Mof_H 	H 	0.6475	0.0695	0.3217	0.089
Mof_H 	H 	0.5182	0.1814	0.1861	0.068
Mof_H 	H 	0.4422	0.0946	0.2695	-0.011
Mof_H 	H 	0.6706	0.1906	0.2719	0.095
Mof_H 	H 	0.7529	0.2713	0.1858	-0.014
Mof_H 	H 	0.7114	0.2992	0.0093	-0.018
Mof_H 	H 	0.6351	0.2105	0.088	0.072
Mof_H 	H 	0.494	0.6816	0.3592	-0.011
Mof_H 	H 	0.6176	0.8384	0.27	0
Mof_H 	H 	0.7157	0.7763	0.1847	0.07
Mof_H 	H 	0.8101	0.6859	0.0939	0.075
Mof_H 	H 	0.8695	0.5943	0.0317	0.014
Mof_H 	H 	0.6888	0.4946	0.1694	-0.01
Mof_H 	H 	0.5357	0.5619	0.2297	0.292
Mof_H 	H 	0.483	0.62	0.2762	0.299
Mof_H 	H 	0.5347	0.6507	0.1864	0.304
Mof_H 	H 	0.6053	0.4765	0.3279	0.31
Mof_H 	H 	0.6487	0.5119	0.3454	0.315
Mof_H 	H 	0.5574	0.5296	0.3802	0.303
Mof_H 	H 	0.0913	0.2913	0.7564	-0.019
Mof_H 	H 	0.9208	0.1804	0.9132	0.008
Mof_H 	H 	0.9772	0.0886	0.8555	0.079
Mof_H 	H 	0.0712	0.9932	0.7702	0.061
Mof_H 	H 	0.1642	0.9302	0.6834	0.025
Mof_H 	H 	0.275	0.103	0.5679	-0.01
Mof_H 	H 	0.2414	0.2342	0.6817	0.35
Mof_H 	H 	0.2926	0.1746	0.6369	0.355
Mof_H 	H 	0.2484	0.1446	0.729	0.357
Mof_H 	H 	0.1628	0.3074	0.5945	0.351
Mof_H 	H 	0.1182	0.2658	0.5859	0.356
Mof_H 	H 	0.2091	0.2515	0.5453	0.355
Mof_H 	H 	0.9887	0.5649	0.9051	-0.002
Mof_H 	H 	0.0695	0.6475	0.8217	0.086
Mof_H 	H 	0.1814	0.5182	0.6861	0.067
Mof_H 	H 	0.0946	0.4422	0.7695	-0.011
Mof_H 	H 	0.1906	0.6706	0.7719	0.096
Mof_H 	H 	0.2713	0.7529	0.6858	-0.015
Mof_H 	H 	0.2992	0.7114	0.5093	-0.018
Mof_H 	H 	0.2105	0.6351	0.588	0.073
Mof_C 	C 	0.701	0.5378	0.8231	0.108
Mof_C 	C 	0.7679	0.5463	0.8219	-0.172
Mof_C 	C 	0.7945	0.6125	0.7699	0.081
Mof_C 	C 	0.7582	0.6708	0.7185	-0.159
Mof_C 	C 	0.6482	0.7856	0.6085	-0.153
Mof_C 	C 	0.5931	0.8207	0.5716	0.075
Mof_C 	C 	0.5365	0.7849	0.5928	-0.171
Mof_C 	C 	0.5331	0.7127	0.6539	0.113
Mof_C 	C 	0.5935	0.5991	0.7603	0.498
Mof_C 	C 	0.6652	0.5954	0.7702	-0.211
Mof_C 	C 	0.6935	0.6627	0.7169	0.068
Mof_C 	C 	0.6453	0.7131	0.6674	0.063
Mof_C 	C 	0.5863	0.6775	0.6908	-0.203
Mof_C 	C 	0.6079	0.5319	0.7359	-0.96
Mof_C 	C 	0.521	0.603	0.8355	-0.973
Mof_C 	C 	0.8086	0.4846	0.8783	0.413
Mof_C 	C 	0.4794	0.8238	0.5506	0.417
Mof_C 	C 	0.251	0.0684	0.2749	0.144
Mof_C 	C 	0.2448	0.9992	0.3411	-0.184
Mof_C 	C 	0.184	0.9668	0.3694	0.087
Mof_C 	C 	0.1294	0	0.3352	-0.144
Mof_C 	C 	0.0146	0.1126	0.2298	-0.089
Mof_C 	C 	0.9772	0.1678	0.1779	0.019
Mof_C 	C 	0.0093	0.2301	0.1163	-0.125
Mof_C 	C 	0.0806	0.2344	0.1088	0.102
Mof_C 	C 	0.1923	0.1749	0.1654	0.589
Mof_C 	C 	0.1979	0.1017	0.2381	-0.246
Mof_C 	C 	0.1345	0.0687	0.2691	0.084
Mof_C 	C 	0.0841	0.1179	0.2226	0.056
Mof_C 	C 	0.117	0.1794	0.1615	-0.224
Mof_C 	C 	0.1858	0.246	0.1796	-1.097
Mof_C 	C 	0.2606	0.1654	0.0909	-1.111
Mof_C 	C 	0.3032	0.9624	0.3826	0.425
Mof_C 	C 	0.9674	0.2912	0.0606	0.381
Mof_C 	C 	0.5557	0.0277	0.3594	0.097
Mof_C 	C 	0.6054	0.0766	0.3097	-0.15
Mof_C 	C 	0.5928	0.135	0.2435	0.063
Mof_C 	C 	0.5299	0.1415	0.2301	-0.147
Mof_C 	C 	0.4838	0.0896	0.2811	0.093
Mof_C 	C 	0.6446	0.1886	0.1907	0.068
Mof_C 	C 	0.6798	0.2094	0.2177	-0.164
Mof_C 	C 	0.7293	0.2585	0.1653	0.102
Mof_C 	C 	0.7064	0.2736	0.0627	0.093
Mof_C 	C 	0.6581	0.2221	0.1103	-0.16
Mof_C 	C 	0.5378	0.701	0.3231	0.108
Mof_C 	C 	0.5463	0.7679	0.3219	-0.173
Mof_C 	C 	0.6125	0.7945	0.2699	0.081
Mof_C 	C 	0.6708	0.7582	0.2185	-0.16
Mof_C 	C 	0.7856	0.6482	0.1085	-0.152
Mof_C 	C 	0.8207	0.5931	0.0716	0.074
Mof_C 	C 	0.7849	0.5365	0.0928	-0.169
Mof_C 	C 	0.7127	0.5331	0.1539	0.112
Mof_C 	C 	0.5991	0.5935	0.2603	0.498
Mof_C 	C 	0.5954	0.6652	0.2702	-0.211
Mof_C 	C 	0.6627	0.6935	0.2169	0.068
Mof_C 	C 	0.7131	0.6453	0.1674	0.062
Mof_C 	C 	0.6775	0.5863	0.1908	-0.203
Mof_C 	C 	0.5319	0.6079	0.2359	-0.96
Mof_C 	C 	0.603	0.521	0.3355	-0.973
Mof_C 	C 	0.4846	0.8086	0.3783	0.413
Mof_C 	C 	0.8238	0.4794	0.0506	0.412
Mof_C 	C 	0.0684	0.251	0.7749	0.142
Mof_C 	C 	0.9992	0.2448	0.8411	-0.185
Mof_C 	C 	0.9668	0.184	0.8694	0.097
Mof_C 	C 	1.28488e-16	0.1294	0.8352	-0.158
Mof_C 	C 	0.1126	0.0146	0.7298	-0.112
Mof_C 	C 	0.1678	0.9772	0.6779	0.045
Mof_C 	C 	0.2301	0.0093	0.6163	-0.146
Mof_C 	C 	0.2344	0.0806	0.6088	0.115
Mof_C 	C 	0.1749	0.1923	0.6654	0.592
Mof_C 	C 	0.1017	0.1979	0.7381	-0.248
Mof_C 	C 	0.0687	0.1345	0.7691	0.085
Mof_C 	C 	0.1179	0.0841	0.7226	0.065
Mof_C 	C 	0.1794	0.117	0.6615	-0.233
Mof_C 	C 	0.246	0.1858	0.6796	-1.098
Mof_C 	C 	0.1654	0.2606	0.5909	-1.113
Mof_C 	C 	0.9624	0.3032	0.8826	0.426
Mof_C 	C 	0.2912	0.9674	0.5606	0.396
Mof_C 	C 	0.0277	0.5557	0.8594	0.087
Mof_C 	C 	0.0766	0.6054	0.8097	-0.144
Mof_C 	C 	0.135	0.5928	0.7435	0.06
Mof_C 	C 	0.1415	0.5299	0.7301	-0.145
Mof_C 	C 	0.0896	0.4838	0.7811	0.092
Mof_C 	C 	0.1886	0.6446	0.6907	0.07
Mof_C 	C 	0.2094	0.6798	0.7177	-0.165
Mof_C 	C 	0.2585	0.7293	0.6653	0.102
Mof_C 	C 	0.2736	0.7064	0.5627	0.094
Mof_C 	C 	0.2221	0.6581	0.6103	-0.161
Mof_N 	N 	0.49576	0.03336	0.3453	-0.259
Mof_N 	N 	0.74472	0.28772	0.089	-0.266
Mof_N 	N 	0.03336	0.49576	0.8453	-0.259
Mof_N 	N 	0.28772	0.74472	0.589	-0.265
Mof_O 	O 	0.77431	0.43211	0.9343	-0.468
Mof_O 	O 	0.87271	0.48971	0.8673	-0.49
Mof_O 	O 	0.48331	0.89031	0.4988	-0.477
Mof_O 	O 	0.43242	0.78722	0.5692	-0.478
Mof_O 	O 	0.35427	0.99587	0.3589	-0.479
Mof_O 	O 	0.29615	0.89835	0.4381	-0.483
Mof_O 	O 	0.00274	0.33974	0.001	-0.456
Mof_O 	O 	0.89899	0.28959	0.0793	-0.465
Mof_O 	O 	0.43211	0.77431	0.4343	-0.469
Mof_O 	O 	0.48971	0.87271	0.3673	-0.491
Mof_O 	O 	0.89031	0.48331	0.9988	-0.473
Mof_O 	O 	0.78722	0.43242	0.0692	-0.478
Mof_O 	O 	0.99587	0.35427	0.8589	-0.478
Mof_O 	O 	0.89835	0.29615	0.9381	-0.482
Mof_O 	O 	0.33974	0.00274	0.501	-0.464
Mof_O 	O 	0.28959	0.89899	0.5793	-0.468
Mof_Zn	Zn	0.64667	0.17537	0.48395	1.216
Mof_Zn	Zn	0.57252	0.04396	0.58144	1.218
Mof_Zn	Zn	0.17537	0.64667	0.98395	1.215
Mof_Zn	Zn	0.04396	0.57252	0.08144	1.218
Mof_H 	H 	0.506	0.3184	0.6408	-0.011
Mof_H 	H 	0.3824	0.1616	0.73	0.001
Mof_H 	H 	0.2843	0.2237	0.8153	0.07
Mof_H 	H 	0.1899	0.3141	0.9061	0.076
Mof_H 	H 	0.1305	0.4057	0.9683	0.014
Mof_H 	H 	0.3112	0.5054	0.8306	-0.01
Mof_H 	H 	0.4643	0.4381	0.7703	0.292
Mof_H 	H 	0.517	0.38	0.7238	0.299
Mof_H 	H 	0.4653	0.3493	0.8136	0.304
Mof_H 	H 	0.3947	0.5235	0.6721	0.31
Mof_H 	H 	0.3513	0.4881	0.6546	0.315
Mof_H 	H 	0.4426	0.4704	0.6198	0.304
Mof_H 	H 	0.9087	0.7087	0.2436	-0.015
Mof_H 	H 	0.0792	0.8196	0.0868	0.011
Mof_H 	H 	0.0228	0.9114	0.1445	0.077
Mof_H 	H 	0.9288	0.0068	0.2298	0.083
Mof_H 	H 	0.8358	0.0698	0.3166	0.006
Mof_H 	H 	0.725	0.897	0.4321	-0.019
Mof_H 	H 	0.7586	0.7658	0.3183	0.349
Mof_H 	H 	0.7074	0.8254	0.3631	0.355
Mof_H 	H 	0.7516	0.8554	0.271	0.357
Mof_H 	H 	0.8372	0.6926	0.4055	0.35
Mof_H 	H 	0.8818	0.7342	0.4141	0.355
Mof_H 	H 	0.7909	0.7485	0.4547	0.355
Mof_H 	H 	0.0113	0.4351	0.0949	0.009
Mof_H 	H 	0.9305	0.3525	0.1783	0.08
Mof_H 	H 	0.8186	0.4818	0.3139	0.065
Mof_H 	H 	0.9054	0.5578	0.2305	-0.012
Mof_H 	H 	0.8094	0.3294	0.2281	0.096
Mof_H 	H 	0.7287	0.2471	0.3142	-0.015
Mof_H 	H 	0.7008	0.2886	0.4907	-0.018
Mof_H 	H 	0.7895	0.3649	0.412	0.073
Mof_H 	H 	0.3184	0.506	0.1408	-0.011
Mof_H 	H 	0.1616	0.3824	0.23	0.002
Mof_H 	H 	0.2237	0.2843	0.3153	0.071
Mof_H 	H 	0.3141	0.1899	0.4061	0.077
Mof_H 	H 	0.4057	0.1305	0.4683	0.015
Mof_H 	H 	0.5054	0.3112	0.3306	-0.01
Mof_H 	H 	0.4381	0.4643	0.2703	0.292
Mof_H 	H 	0.38	0.517	0.2238	0.299
Mof_H 	H 	0.3493	0.4653	0.3136	0.304
Mof_H 	H 	0.5235	0.3947	0.1721	0.31
Mof_H 	H 	0.4881	0.3513	0.1546	0.315
Mof_H 	H 	0.4704	0.4426	0.1198	0.304
Mof_H 	H 	0.7087	0.9087	0.7436	-0.018
Mof_H 	H 	0.8196	0.0792	0.5868	0.006
Mof_H 	H 	0.9114	0.0228	0.6445	0.081
Mof_H 	H 	0.0068	0.9288	0.7298	0.073
Mof_H 	H 	0.0698	0.8358	0.8166	0.016
Mof_H 	H 	0.897	0.725	0.9321	-0.014
Mof_H 	H 	0.7658	0.7586	0.8183	0.35
Mof_H 	H 	0.8254	0.7074	0.8631	0.356
Mof_H 	H 	0.8554	0.7516	0.771	0.358
Mof_H 	H 	0.6926	0.8372	0.9055	0.351
Mof_H 	H 	0.7342	0.8818	0.9141	0.356
Mof_H 	H 	0.7485	0.7909	0.9547	0.356
Mof_H 	H 	0.4351	0.0113	0.5949	0.003
Mof_H 	H 	0.3525	0.9305	0.6783	0.084
Mof_H 	H 	0.4818	0.8186	0.8139	0.066
Mof_H 	H 	0.5578	0.9054	0.7305	-0.012
Mof_H 	H 	0.3294	0.8094	0.7281	0.096
Mof_H 	H 	0.2471	0.7287	0.8142	-0.015
Mof_H 	H 	0.2886	0.7008	0.9907	-0.019
Mof_H 	H 	0.3649	0.7895	0.912	0.072
Mof_C 	C 	0.4622	0.299	0.6769	0.108
Mof_C 	C 	0.4537	0.2321	0.6781	-0.172
Mof_C 	C 	0.3875	0.2055	0.7301	0.081
Mof_C 	C 	0.3292	0.2418	0.7815	-0.159
Mof_C 	C 	0.2144	0.3518	0.8915	-0.152
Mof_C 	C 	0.1793	0.4069	0.9284	0.074
Mof_C 	C 	0.2151	0.4635	0.9072	-0.169
Mof_C 	C 	0.2873	0.4669	0.8461	0.111
Mof_C 	C 	0.4009	0.4065	0.7397	0.498
Mof_C 	C 	0.4046	0.3348	0.7298	-0.211
Mof_C 	C 	0.3373	0.3065	0.7831	0.068
Mof_C 	C 	0.2869	0.3547	0.8326	0.063
Mof_C 	C 	0.3225	0.4137	0.8092	-0.203
Mof_C 	C 	0.4681	0.3921	0.7641	-0.96
Mof_C 	C 	0.397	0.479	0.6645	-0.973
Mof_C 	C 	0.5154	0.1914	0.6217	0.413
Mof_C 	C 	0.1762	0.5206	0.9494	0.411
Mof_C 	C 	0.9316	0.749	0.2251	0.125
Mof_C 	C 	0.0008	0.7552	0.1589	-0.17
Mof_C 	C 	0.0332	0.816	0.1306	0.09
Mof_C 	C 	6.42442e-17	0.8706	0.1648	-0.148
Mof_C 	C 	0.8874	0.9854	0.2702	-0.169
Mof_C 	C 	0.8322	0.0228	0.3221	0.101
Mof_C 	C 	0.7699	0.9907	0.3837	-0.186
Mof_C 	C 	0.7656	0.9194	0.3912	0.141
Mof_C 	C 	0.8251	0.8077	0.3346	0.594
Mof_C 	C 	0.8983	0.8021	0.2619	-0.239
Mof_C 	C 	0.9313	0.8655	0.2309	0.066
Mof_C 	C 	0.8821	0.9159	0.2774	0.093
Mof_C 	C 	0.8206	0.883	0.3385	-0.252
Mof_C 	C 	0.754	0.8142	0.3204	-1.099
Mof_C 	C 	0.8346	0.7394	0.4091	-1.113
Mof_C 	C 	0.0376	0.6968	0.1174	0.422
Mof_C 	C 	0.7088	0.0326	0.4394	0.422
Mof_C 	C 	0.9723	0.4443	0.1406	0.069
Mof_C 	C 	0.9234	0.3946	0.1903	-0.133
Mof_C 	C 	0.865	0.4072	0.2565	0.053
Mof_C 	C 	0.8585	0.4701	0.2699	-0.14
Mof_C 	C 	0.9104	0.5162	0.2189	0.088
Mof_C 	C 	0.8114	0.3554	0.3093	0.073
Mof_C 	C 	0.7906	0.3202	0.2823	-0.168
Mof_C 	C 	0.7415	0.2707	0.3347	0.104
Mof_C 	C 	0.7264	0.2936	0.4373	0.095
Mof_C 	C 	0.7779	0.3419	0.3897	-0.163
Mof_C 	C 	0.299	0.4622	0.1769	0.108
Mof_C 	C 	0.2321	0.4537	0.1781	-0.172
Mof_C 	C 	0.2055	0.3875	0.2301	0.081
Mof_C 	C 	0.2418	0.3292	0.2815	-0.159
Mof_C 	C 	0.3518	0.2144	0.3915	-0.153
Mof_C 	C 	0.4069	0.1793	0.4284	0.075
Mof_C 	C 	0.4635	0.2151	0.4072	-0.171
Mof_C 	C 	0.4669	0.2873	0.3461	0.113
Mof_C 	C 	0.4065	0.4009	0.2397	0.498
Mof_C 	C 	0.3348	0.4046	0.2298	-0.211
Mof_C 	C 	0.3065	0.3373	0.2831	0.068
Mof_C 	C 	0.3547	0.2869	0.3326	0.063
Mof_C 	C 	0.4137	0.3225	0.3092	-0.204
Mof_C 	C 	0.3921	0.4681	0.2641	-0.96
Mof_C 	C 	0.479	0.397	0.1645	-0.973
Mof_C 	C 	0.1914	0.5154	0.1217	0.412
Mof_C 	C 	0.5206	0.1762	0.4494	0.416
Mof_C 	C 	0.749	0.9316	0.7251	0.137
Mof_C 	C 	0.7552	0.0008	0.6589	-0.181
Mof_C 	C 	0.816	0.0332	0.6306	0.102
Mof_C 	C 	0.8706	-3.6711e-17	0.6648	-0.164
Mof_C 	C 	0.9854	0.8874	0.7702	-0.143
Mof_C 	C 	0.0228	0.8322	0.8221	0.073
Mof_C 	C 	0.9907	0.7699	0.8837	-0.165
Mof_C 	C 	0.9194	0.7656	0.8912	0.128
Mof_C 	C 	0.8077	0.8251	0.8346	0.595
Mof_C 	C 	0.8021	0.8983	0.7619	-0.246
Mof_C 	C 	0.8655	0.9313	0.7309	0.08
Mof_C 	C 	0.9159	0.8821	0.7774	0.078
Mof_C 	C 	0.883	0.8206	0.8385	-0.242
Mof_C 	C 	0.8142	0.754	0.8204	-1.101
Mof_C 	C 	0.7394	0.8346	0.9091	-1.115
Mof_C 	C 	0.6968	0.0376	0.6174	0.425
Mof_C 	C 	0.0326	0.7088	0.9394	0.407
Mof_C 	C 	0.4443	0.9723	0.6406	0.08
Mof_C 	C 	0.3946	0.9234	0.6903	-0.139
Mof_C 	C 	0.4072	0.865	0.7565	0.057
Mof_C 	C 	0.4701	0.8585	0.7699	-0.143
Mof_C 	C 	0.5162	0.9104	0.7189	0.09
Mof_C 	C 	0.3554	0.8114	0.8093	0.071
Mof_C 	C 	0.3202	0.7906	0.7823	-0.166
Mof_C 	C 	0.2707	0.7415	0.8347	0.103
Mof_C 	C 	0.2936	0.7264	0.9373	0.094
Mof_C 	C 	0.3419	0.7779	0.8897	-0.162
Mof_N 	N 	0.96664	0.50424	0.1547	-0.257
Mof_N 	N 	0.71228	0.25528	0.411	-0.266
Mof_N 	N 	0.50424	0.96664	0.6547	-0.258
Mof_N 	N 	0.25528	0.71228	0.911	-0.266
Mof_O 	O 	0.56789	0.22569	0.5657	-0.469
Mof_O 	O 	0.51029	0.12729	0.6327	-0.49
Mof_O 	O 	0.10969	0.51669	0.0012	-0.472
Mof_O 	O 	0.21278	0.56758	0.9308	-0.477
Mof_O 	O 	0.00413	0.64573	0.1411	-0.473
Mof_O 	O 	0.10165	0.70385	0.0619	-0.48
Mof_O 	O 	0.66026	0.99726	0.499	-0.476
Mof_O 	O 	0.71041	0.10101	0.4207	-0.474
Mof_O 	O 	0.22569	0.56789	0.0657	-0.468
Mof_O 	O 	0.12729	0.51029	0.1327	-0.489
Mof_O 	O 	0.51669	0.10969	0.5012	-0.476
Mof_O 	O 	0.56758	0.21278	0.4308	-0.478
Mof_O 	O 	0.64573	0.00413	0.6411	-0.475
Mof_O 	O 	0.70385	0.10165	0.5619	-0.483
Mof_O 	O 	0.99726	0.66026	0.999	-0.469
Mof_O 	O 	0.10101	0.71041	0.9207	-0.471
_end
