# CIF file generated by openbabel 3.1.0, see https://openbabel.org
data_I
_chemical_name_common 'image0'
_cell_length_a 12.1119
_cell_length_b 12.5555
_cell_length_c 12.6565
_cell_angle_alpha 62.874
_cell_angle_beta 70.151
_cell_angle_gamma 84.075
_space_group_name_H-M_alt 'P 1'
_space_group_name_Hall 'P 1'
loop_
    _symmetry_equiv_pos_as_xyz
    x,y,z
loop_
    _atom_site_label
    _atom_site_type_symbol
    _atom_site_fract_x
    _atom_site_fract_y
    _atom_site_fract_z
    _atom_site_occupancy
    Ag1      Ag       0.91922    0.61864    0.35518    1.000
    Ag2      Ag       0.11156    0.45718    0.34291    1.000
    Ag3      Ag       0.10582    0.67072    0.43339    1.000
    Na1      Na       0.55857    0.66825    0.90787    1.000
    Na2      Na       0.45928    0.87323    0.65559    1.000
    S1       S        0.21804    0.66072    0.23060    1.000
    S2       S        0.82649    0.43781    0.38214    1.000
    S3       S        0.81200    0.70506    0.50016    1.000
    N1       N        0.03120    0.75310    0.15780    1.000
    N2       N        0.03150    0.41260    0.22600    1.000
    N3       N        0.01000    0.84440    0.40140    1.000
    O1       O        0.40440    0.80990    0.87160    1.000
    O2       O        0.40080    0.89000    0.99760    1.000
    O3       O        0.68260    0.24710    0.34180    1.000
    O4       O        0.66890    0.41960    0.18360    1.000
    O5       O        0.64600    0.94880    0.40540    1.000
    O6       O        0.65200    0.95740    0.57490    1.000
    O7       O        0.55540    0.68530    0.71690    1.000
    O8       O        0.37240    0.53510    0.03940    1.000
    C1       C        0.14990    0.75810    0.12040    1.000
    C2       C        0.21860    0.83570    0.99690    1.000
    C3       C        0.35160    0.84530    0.95190    1.000
    C4       C        0.16120    0.90460    0.91160    1.000
    H1       H        0.20450    0.95370    0.82830    1.000
    C5       C        0.03920    0.90000    0.95080    1.000
    H2       H        0.99960    0.94630    0.89510    1.000
    C6       C        0.97830    0.82470    0.07480    1.000
    H3       H        0.89660    0.82360    0.10220    1.000
    C7       C        0.91350    0.40180    0.26100    1.000
    C8       C        0.85870    0.36580    0.20060    1.000
    C9       C        0.72640    0.34200    0.24700    1.000
    C10      C        0.92820    0.34610    0.09940    1.000
    H4       H        0.89360    0.32590    0.05520    1.000
    C11      C        0.04890    0.35650    0.06480    1.000
    H5       H        0.09680    0.34200    0.99820    1.000
    C12      C        0.09700    0.38890    0.13090    1.000
    H6       H        0.17840    0.39460    0.10860    1.000
    C13      C        0.89170    0.84250    0.43970    1.000
    C14      C        0.83270    0.94660    0.43070    1.000
    C15      C        0.69980    0.94910    0.47430    1.000
    C16      C        0.89890    0.05250    0.38220    1.000
    H7       H        0.86160    0.12220    0.37780    1.000
    C17      C        0.01980    0.05420    0.34070    1.000
    H8       H        0.06510    0.12510    0.30570    1.000
    C18      C        0.07220    0.94860    0.35210    1.000
    H9       H        0.15380    0.94940    0.32470    1.000
    Ag4      Ag       0.08078    0.38136    0.64482    1.000
    Ag5      Ag       0.88844    0.54282    0.65709    1.000
    Ag6      Ag       0.89418    0.32928    0.56661    1.000
    Na3      Na       0.44143    0.33175    0.09213    1.000
    Na4      Na       0.54072    0.12677    0.34441    1.000
    S4       S        0.78196    0.33928    0.76940    1.000
    S5       S        0.17351    0.56219    0.61786    1.000
    S6       S        0.18800    0.29494    0.49984    1.000
    N4       N        0.96880    0.24690    0.84220    1.000
    N5       N        0.96850    0.58740    0.77400    1.000
    N6       N        0.99000    0.15560    0.59860    1.000
    O9       O        0.59560    0.19010    0.12840    1.000
    O10      O        0.59920    0.11000    0.00240    1.000
    O11      O        0.31740    0.75290    0.65820    1.000
    O12      O        0.33110    0.58040    0.81640    1.000
    O13      O        0.35400    0.05120    0.59460    1.000
    O14      O        0.34800    0.04260    0.42510    1.000
    O15      O        0.44460    0.31470    0.28310    1.000
    O16      O        0.62760    0.46490    0.96060    1.000
    C19      C        0.85010    0.24190    0.87960    1.000
    C20      C        0.78140    0.16430    0.00310    1.000
    C21      C        0.64840    0.15470    0.04810    1.000
    C22      C        0.83880    0.09540    0.08840    1.000
    H10      H        0.79550    0.04630    0.17170    1.000
    C23      C        0.96080    0.10000    0.04920    1.000
    H11      H        0.00040    0.05370    0.10490    1.000
    C24      C        0.02170    0.17530    0.92520    1.000
    H12      H        0.10340    0.17640    0.89780    1.000
    C25      C        0.08650    0.59820    0.73900    1.000
    C26      C        0.14130    0.63420    0.79940    1.000
    C27      C        0.27360    0.65800    0.75300    1.000
    C28      C        0.07180    0.65390    0.90060    1.000
    H13      H        0.10640    0.67410    0.94480    1.000
    C29      C        0.95110    0.64350    0.93520    1.000
    H14      H        0.90320    0.65800    0.00180    1.000
    C30      C        0.90300    0.61110    0.86910    1.000
    H15      H        0.82160    0.60540    0.89140    1.000
    C31      C        0.10830    0.15750    0.56030    1.000
    C32      C        0.16730    0.05340    0.56930    1.000
    C33      C        0.30020    0.05090    0.52570    1.000
    C34      C        0.10110    0.94750    0.61780    1.000
    H16      H        0.13840    0.87780    0.62220    1.000
    C35      C        0.98020    0.94580    0.65930    1.000
    H17      H        0.93490    0.87490    0.69430    1.000
    C36      C        0.92780    0.05140    0.64790    1.000
    H18      H        0.84620    0.05060    0.67530    1.000
