# CIF file generated by openbabel 3.1.0, see https://openbabel.org
data_I
_chemical_name_common 'image0'
_cell_length_a 26.5757
_cell_length_b 26.5757
_cell_length_c 5.2077
_cell_angle_alpha 90
_cell_angle_beta 90
_cell_angle_gamma 90
_space_group_name_H-M_alt 'P 1'
_space_group_name_Hall 'P 1'
loop_
    _symmetry_equiv_pos_as_xyz
    x,y,z
loop_
    _atom_site_label
    _atom_site_type_symbol
    _atom_site_fract_x
    _atom_site_fract_y
    _atom_site_fract_z
    _atom_site_occupancy
    Zn1      Zn       0.27147    0.21421    0.93330    1.000
    O1       O        0.22260    0.25450    0.10300    1.000
    H1       H        0.20180    0.26550    0.99090    1.000
    N1       N        0.25120    0.14180    0.91800    1.000
    C1       C        0.26650    0.10410    0.05900    1.000
    H2       H        0.29150    0.10680    0.18310    1.000
    N2       N        0.24190    0.06060    0.00510    1.000
    C2       C        0.21260    0.12170    0.75580    1.000
    O2       O        0.27570    0.83270    0.35200    1.000
    C3       C        0.18310    0.14400    0.56920    1.000
    H3       H        0.18650    0.17800    0.53090    1.000
    O3       O        0.31370    0.86950    0.67300    1.000
    C4       C        0.14820    0.11450    0.44030    1.000
    C5       C        0.11840    0.13580    0.25200    1.000
    H4       H        0.12240    0.16970    0.21420    1.000
    C6       C        0.08280    0.10840    0.11700    1.000
    H5       H        0.06300    0.12340    0.99130    1.000
    C7       C        0.07760    0.05770    0.17540    1.000
    H6       H        0.05410    0.03830    0.08780    1.000
    C8       C        0.10730    0.03590    0.36300    1.000
    H7       H        0.10330    0.00190    0.40030    1.000
    C9       C        0.14300    0.06370    0.49880    1.000
    C10      C        0.17250    0.04110    0.68700    1.000
    H8       H        0.16950    0.00700    0.72430    1.000
    C11      C        0.20640    0.07120    0.81700    1.000
    C12      C        0.25570    0.01220    0.11100    1.000
    C13      C        0.28300    0.92190    0.32700    1.000
    C14      C        0.30490    0.00450    0.18300    1.000
    H9       H        0.32830    0.03000    0.15770    1.000
    C15      C        0.32020    0.95890    0.29400    1.000
    H10      H        0.35340    0.95340    0.34230    1.000
    C16      C        0.23240    0.92640    0.25800    1.000
    H11      H        0.20870    0.90100    0.28140    1.000
    C17      C        0.22110    0.97340    0.15100    1.000
    H12      H        0.18800    0.97920    0.10310    1.000
    C18      C        0.29670    0.87140    0.44500    1.000
    O4       O        0.34790    0.87380    0.52000    1.000
    C19      C        0.27410    0.01020    0.35900    1.000
    H13      H        0.27730    0.03990    0.45240    1.000
    C20      C        0.28800    0.96540    0.47200    1.000
    H14      H        0.30030    0.96440    0.63870    1.000
    C21      C        0.26460    0.92210    0.07900    1.000
    H15      H        0.26120    0.89240    0.98650    1.000
    C22      C        0.25140    0.96780    0.97400    1.000
    H16      H        0.23920    0.96880    0.80650    1.000
    Zn2      Zn       0.77147    0.71421    0.43330    1.000
    O5       O        0.72260    0.75450    0.60300    1.000
    H17      H        0.70180    0.76550    0.49090    1.000
    N3       N        0.75120    0.64180    0.41800    1.000
    C23      C        0.76650    0.60410    0.55900    1.000
    H18      H        0.79150    0.60680    0.68310    1.000
    N4       N        0.74190    0.56060    0.50510    1.000
    C24      C        0.71260    0.62170    0.25580    1.000
    O6       O        0.77570    0.33270    0.85200    1.000
    C25      C        0.68310    0.64400    0.06920    1.000
    H19      H        0.68650    0.67800    0.03090    1.000
    O7       O        0.81370    0.36950    0.17300    1.000
    C26      C        0.64820    0.61450    0.94030    1.000
    C27      C        0.61840    0.63580    0.75200    1.000
    H20      H        0.62240    0.66970    0.71420    1.000
    C28      C        0.58280    0.60840    0.61700    1.000
    H21      H        0.56300    0.62340    0.49130    1.000
    C29      C        0.57760    0.55770    0.67540    1.000
    H22      H        0.55410    0.53830    0.58780    1.000
    C30      C        0.60730    0.53590    0.86300    1.000
    H23      H        0.60330    0.50190    0.90030    1.000
    C31      C        0.64300    0.56370    0.99880    1.000
    C32      C        0.67250    0.54110    0.18700    1.000
    H24      H        0.66950    0.50700    0.22430    1.000
    C33      C        0.70640    0.57120    0.31700    1.000
    C34      C        0.75570    0.51220    0.61100    1.000
    C35      C        0.78300    0.42190    0.82700    1.000
    C36      C        0.80490    0.50450    0.68300    1.000
    H25      H        0.82830    0.53000    0.65770    1.000
    C37      C        0.82020    0.45890    0.79400    1.000
    H26      H        0.85340    0.45340    0.84230    1.000
    C38      C        0.73240    0.42640    0.75800    1.000
    H27      H        0.70870    0.40100    0.78140    1.000
    C39      C        0.72110    0.47340    0.65100    1.000
    H28      H        0.68800    0.47920    0.60310    1.000
    C40      C        0.79670    0.37140    0.94500    1.000
    O8       O        0.84790    0.37380    0.02000    1.000
    C41      C        0.77410    0.51020    0.85900    1.000
    H29      H        0.77730    0.53990    0.95240    1.000
    C42      C        0.78800    0.46540    0.97200    1.000
    H30      H        0.80030    0.46440    0.13870    1.000
    C43      C        0.76460    0.42210    0.57900    1.000
    H31      H        0.76120    0.39240    0.48650    1.000
    C44      C        0.75140    0.46780    0.47400    1.000
    H32      H        0.73920    0.46880    0.30650    1.000
    Zn3      Zn       0.72853    0.78579    0.93330    1.000
    O9       O        0.77740    0.74550    0.10300    1.000
    H33      H        0.79820    0.73450    0.99090    1.000
    N5       N        0.74880    0.85820    0.91800    1.000
    C45      C        0.73350    0.89590    0.05900    1.000
    H34      H        0.70850    0.89320    0.18310    1.000
    N6       N        0.75810    0.93940    0.00510    1.000
    C46      C        0.78740    0.87830    0.75580    1.000
    O10      O        0.72430    0.16730    0.35200    1.000
    C47      C        0.81690    0.85600    0.56920    1.000
    H35      H        0.81350    0.82200    0.53090    1.000
    O11      O        0.68630    0.13050    0.67300    1.000
    C48      C        0.85180    0.88550    0.44030    1.000
    C49      C        0.88160    0.86420    0.25200    1.000
    H36      H        0.87760    0.83030    0.21420    1.000
    C50      C        0.91720    0.89160    0.11700    1.000
    H37      H        0.93700    0.87660    0.99130    1.000
    C51      C        0.92240    0.94230    0.17540    1.000
    H38      H        0.94590    0.96170    0.08780    1.000
    C52      C        0.89270    0.96410    0.36300    1.000
    H39      H        0.89670    0.99810    0.40030    1.000
    C53      C        0.85700    0.93630    0.49880    1.000
    C54      C        0.82750    0.95890    0.68700    1.000
    H40      H        0.83050    0.99300    0.72430    1.000
    C55      C        0.79360    0.92880    0.81700    1.000
    C56      C        0.74430    0.98780    0.11100    1.000
    C57      C        0.71700    0.07810    0.32700    1.000
    C58      C        0.69510    0.99550    0.18300    1.000
    H41      H        0.67170    0.97000    0.15770    1.000
    C59      C        0.67980    0.04110    0.29400    1.000
    H42      H        0.64660    0.04660    0.34230    1.000
    C60      C        0.76760    0.07360    0.25800    1.000
    H43      H        0.79130    0.09900    0.28140    1.000
    C61      C        0.77890    0.02660    0.15100    1.000
    H44      H        0.81200    0.02080    0.10310    1.000
    C62      C        0.70330    0.12860    0.44500    1.000
    O12      O        0.65210    0.12620    0.52000    1.000
    C63      C        0.72590    0.98980    0.35900    1.000
    H45      H        0.72270    0.96010    0.45240    1.000
    C64      C        0.71200    0.03460    0.47200    1.000
    H46      H        0.69970    0.03560    0.63870    1.000
    C65      C        0.73540    0.07790    0.07900    1.000
    H47      H        0.73880    0.10760    0.98650    1.000
    C66      C        0.74860    0.03220    0.97400    1.000
    H48      H        0.76080    0.03120    0.80650    1.000
    Zn4      Zn       0.22853    0.28579    0.43330    1.000
    O13      O        0.27740    0.24550    0.60300    1.000
    H49      H        0.29820    0.23450    0.49090    1.000
    N7       N        0.24880    0.35820    0.41800    1.000
    C67      C        0.23350    0.39590    0.55900    1.000
    H50      H        0.20850    0.39320    0.68310    1.000
    N8       N        0.25810    0.43940    0.50510    1.000
    C68      C        0.28740    0.37830    0.25580    1.000
    O14      O        0.22430    0.66730    0.85200    1.000
    C69      C        0.31690    0.35600    0.06920    1.000
    H51      H        0.31350    0.32200    0.03090    1.000
    O15      O        0.18630    0.63050    0.17300    1.000
    C70      C        0.35180    0.38550    0.94030    1.000
    C71      C        0.38160    0.36420    0.75200    1.000
    H52      H        0.37760    0.33030    0.71420    1.000
    C72      C        0.41720    0.39160    0.61700    1.000
    H53      H        0.43700    0.37660    0.49130    1.000
    C73      C        0.42240    0.44230    0.67540    1.000
    H54      H        0.44590    0.46170    0.58780    1.000
    C74      C        0.39270    0.46410    0.86300    1.000
    H55      H        0.39670    0.49810    0.90030    1.000
    C75      C        0.35700    0.43630    0.99880    1.000
    C76      C        0.32750    0.45890    0.18700    1.000
    H56      H        0.33050    0.49300    0.22430    1.000
    C77      C        0.29360    0.42880    0.31700    1.000
    C78      C        0.24430    0.48780    0.61100    1.000
    C79      C        0.21700    0.57810    0.82700    1.000
    C80      C        0.19510    0.49550    0.68300    1.000
    H57      H        0.17170    0.47000    0.65770    1.000
    C81      C        0.17980    0.54110    0.79400    1.000
    H58      H        0.14660    0.54660    0.84230    1.000
    C82      C        0.26760    0.57360    0.75800    1.000
    H59      H        0.29130    0.59900    0.78140    1.000
    C83      C        0.27890    0.52660    0.65100    1.000
    H60      H        0.31200    0.52080    0.60310    1.000
    C84      C        0.20330    0.62860    0.94500    1.000
    O16      O        0.15210    0.62620    0.02000    1.000
    C85      C        0.22590    0.48980    0.85900    1.000
    H61      H        0.22270    0.46010    0.95240    1.000
    C86      C        0.21200    0.53460    0.97200    1.000
    H62      H        0.19970    0.53560    0.13870    1.000
    C87      C        0.23540    0.57790    0.57900    1.000
    H63      H        0.23880    0.60760    0.48650    1.000
    C88      C        0.24860    0.53220    0.47400    1.000
    H64      H        0.26080    0.53120    0.30650    1.000
    Zn5      Zn       0.21421    0.72853    0.06670    1.000
    O17      O        0.25450    0.77740    0.89700    1.000
    H65      H        0.26550    0.79820    0.00910    1.000
    N9       N        0.14180    0.74880    0.08200    1.000
    C89      C        0.10410    0.73350    0.94100    1.000
    H66      H        0.10680    0.70850    0.81690    1.000
    N10      N        0.06060    0.75810    0.99490    1.000
    C90      C        0.12170    0.78740    0.24420    1.000
    O18      O        0.83270    0.72430    0.64800    1.000
    C91      C        0.14400    0.81690    0.43080    1.000
    H67      H        0.17800    0.81350    0.46910    1.000
    O19      O        0.86950    0.68630    0.32700    1.000
    C92      C        0.11450    0.85180    0.55970    1.000
    C93      C        0.13580    0.88160    0.74800    1.000
    H68      H        0.16970    0.87760    0.78580    1.000
    C94      C        0.10840    0.91720    0.88300    1.000
    H69      H        0.12340    0.93700    0.00870    1.000
    C95      C        0.05770    0.92240    0.82460    1.000
    H70      H        0.03830    0.94590    0.91220    1.000
    C96      C        0.03590    0.89270    0.63700    1.000
    H71      H        0.00190    0.89670    0.59970    1.000
    C97      C        0.06370    0.85700    0.50120    1.000
    C98      C        0.04110    0.82750    0.31300    1.000
    H72      H        0.00700    0.83050    0.27570    1.000
    C99      C        0.07120    0.79360    0.18300    1.000
    C100     C        0.01220    0.74430    0.88900    1.000
    C101     C        0.92190    0.71700    0.67300    1.000
    C102     C        0.00450    0.69510    0.81700    1.000
    H73      H        0.03000    0.67170    0.84230    1.000
    C103     C        0.95890    0.67980    0.70600    1.000
    H74      H        0.95340    0.64660    0.65770    1.000
    C104     C        0.92640    0.76760    0.74200    1.000
    H75      H        0.90100    0.79130    0.71860    1.000
    C105     C        0.97340    0.77890    0.84900    1.000
    H76      H        0.97920    0.81200    0.89690    1.000
    C106     C        0.87140    0.70330    0.55500    1.000
    O20      O        0.87380    0.65210    0.48000    1.000
    C107     C        0.01020    0.72590    0.64100    1.000
    H77      H        0.03990    0.72270    0.54760    1.000
    C108     C        0.96540    0.71200    0.52800    1.000
    H78      H        0.96440    0.69970    0.36130    1.000
    C109     C        0.92210    0.73540    0.92100    1.000
    H79      H        0.89240    0.73880    0.01350    1.000
    C110     C        0.96780    0.74860    0.02600    1.000
    H80      H        0.96880    0.76080    0.19350    1.000
    Zn6      Zn       0.71421    0.22853    0.56670    1.000
    O21      O        0.75450    0.27740    0.39700    1.000
    H81      H        0.76550    0.29820    0.50910    1.000
    N11      N        0.64180    0.24880    0.58200    1.000
    C111     C        0.60410    0.23350    0.44100    1.000
    H82      H        0.60680    0.20850    0.31690    1.000
    N12      N        0.56060    0.25810    0.49490    1.000
    C112     C        0.62170    0.28740    0.74420    1.000
    O22      O        0.33270    0.22430    0.14800    1.000
    C113     C        0.64400    0.31690    0.93080    1.000
    H83      H        0.67800    0.31350    0.96910    1.000
    O23      O        0.36950    0.18630    0.82700    1.000
    C114     C        0.61450    0.35180    0.05970    1.000
    C115     C        0.63580    0.38160    0.24800    1.000
    H84      H        0.66970    0.37760    0.28580    1.000
    C116     C        0.60840    0.41720    0.38300    1.000
    H85      H        0.62340    0.43700    0.50870    1.000
    C117     C        0.55770    0.42240    0.32460    1.000
    H86      H        0.53830    0.44590    0.41220    1.000
    C118     C        0.53590    0.39270    0.13700    1.000
    H87      H        0.50190    0.39670    0.09970    1.000
    C119     C        0.56370    0.35700    0.00120    1.000
    C120     C        0.54110    0.32750    0.81300    1.000
    H88      H        0.50700    0.33050    0.77570    1.000
    C121     C        0.57120    0.29360    0.68300    1.000
    C122     C        0.51220    0.24430    0.38900    1.000
    C123     C        0.42190    0.21700    0.17300    1.000
    C124     C        0.50450    0.19510    0.31700    1.000
    H89      H        0.53000    0.17170    0.34230    1.000
    C125     C        0.45890    0.17980    0.20600    1.000
    H90      H        0.45340    0.14660    0.15770    1.000
    C126     C        0.42640    0.26760    0.24200    1.000
    H91      H        0.40100    0.29130    0.21860    1.000
    C127     C        0.47340    0.27890    0.34900    1.000
    H92      H        0.47920    0.31200    0.39690    1.000
    C128     C        0.37140    0.20330    0.05500    1.000
    O24      O        0.37380    0.15210    0.98000    1.000
    C129     C        0.51020    0.22590    0.14100    1.000
    H93      H        0.53990    0.22270    0.04760    1.000
    C130     C        0.46540    0.21200    0.02800    1.000
    H94      H        0.46440    0.19970    0.86130    1.000
    C131     C        0.42210    0.23540    0.42100    1.000
    H95      H        0.39240    0.23880    0.51350    1.000
    C132     C        0.46780    0.24860    0.52600    1.000
    H96      H        0.46880    0.26080    0.69350    1.000
    Zn7      Zn       0.78579    0.27147    0.06670    1.000
    O25      O        0.74550    0.22260    0.89700    1.000
    H97      H        0.73450    0.20180    0.00910    1.000
    N13      N        0.85820    0.25120    0.08200    1.000
    C133     C        0.89590    0.26650    0.94100    1.000
    H98      H        0.89320    0.29150    0.81690    1.000
    N14      N        0.93940    0.24190    0.99490    1.000
    C134     C        0.87830    0.21260    0.24420    1.000
    O26      O        0.16730    0.27570    0.64800    1.000
    C135     C        0.85600    0.18310    0.43080    1.000
    H99      H        0.82200    0.18650    0.46910    1.000
    O27      O        0.13050    0.31370    0.32700    1.000
    C136     C        0.88550    0.14820    0.55970    1.000
    C137     C        0.86420    0.11840    0.74800    1.000
    H100     H        0.83030    0.12240    0.78580    1.000
    C138     C        0.89160    0.08280    0.88300    1.000
    H101     H        0.87660    0.06300    0.00870    1.000
    C139     C        0.94230    0.07760    0.82460    1.000
    H102     H        0.96170    0.05410    0.91220    1.000
    C140     C        0.96410    0.10730    0.63700    1.000
    H103     H        0.99810    0.10330    0.59970    1.000
    C141     C        0.93630    0.14300    0.50120    1.000
    C142     C        0.95890    0.17250    0.31300    1.000
    H104     H        0.99300    0.16950    0.27570    1.000
    C143     C        0.92880    0.20640    0.18300    1.000
    C144     C        0.98780    0.25570    0.88900    1.000
    C145     C        0.07810    0.28300    0.67300    1.000
    C146     C        0.99550    0.30490    0.81700    1.000
    H105     H        0.97000    0.32830    0.84230    1.000
    C147     C        0.04110    0.32020    0.70600    1.000
    H106     H        0.04660    0.35340    0.65770    1.000
    C148     C        0.07360    0.23240    0.74200    1.000
    H107     H        0.09900    0.20870    0.71860    1.000
    C149     C        0.02660    0.22110    0.84900    1.000
    H108     H        0.02080    0.18800    0.89690    1.000
    C150     C        0.12860    0.29670    0.55500    1.000
    O28      O        0.12620    0.34790    0.48000    1.000
    C151     C        0.98980    0.27410    0.64100    1.000
    H109     H        0.96010    0.27730    0.54760    1.000
    C152     C        0.03460    0.28800    0.52800    1.000
    H110     H        0.03560    0.30030    0.36130    1.000
    C153     C        0.07790    0.26460    0.92100    1.000
    H111     H        0.10760    0.26120    0.01350    1.000
    C154     C        0.03220    0.25140    0.02600    1.000
    H112     H        0.03120    0.23920    0.19350    1.000
    Zn8      Zn       0.28579    0.77147    0.56670    1.000
    O29      O        0.24550    0.72260    0.39700    1.000
    H113     H        0.23450    0.70180    0.50910    1.000
    N15      N        0.35820    0.75120    0.58200    1.000
    C155     C        0.39590    0.76650    0.44100    1.000
    H114     H        0.39320    0.79150    0.31690    1.000
    N16      N        0.43940    0.74190    0.49490    1.000
    C156     C        0.37830    0.71260    0.74420    1.000
    O30      O        0.66730    0.77570    0.14800    1.000
    C157     C        0.35600    0.68310    0.93080    1.000
    H115     H        0.32200    0.68650    0.96910    1.000
    O31      O        0.63050    0.81370    0.82700    1.000
    C158     C        0.38550    0.64820    0.05970    1.000
    C159     C        0.36420    0.61840    0.24800    1.000
    H116     H        0.33030    0.62240    0.28580    1.000
    C160     C        0.39160    0.58280    0.38300    1.000
    H117     H        0.37660    0.56300    0.50870    1.000
    C161     C        0.44230    0.57760    0.32460    1.000
    H118     H        0.46170    0.55410    0.41220    1.000
    C162     C        0.46410    0.60730    0.13700    1.000
    H119     H        0.49810    0.60330    0.09970    1.000
    C163     C        0.43630    0.64300    0.00120    1.000
    C164     C        0.45890    0.67250    0.81300    1.000
    H120     H        0.49300    0.66950    0.77570    1.000
    C165     C        0.42880    0.70640    0.68300    1.000
    C166     C        0.48780    0.75570    0.38900    1.000
    C167     C        0.57810    0.78300    0.17300    1.000
    C168     C        0.49550    0.80490    0.31700    1.000
    H121     H        0.47000    0.82830    0.34230    1.000
    C169     C        0.54110    0.82020    0.20600    1.000
    H122     H        0.54660    0.85340    0.15770    1.000
    C170     C        0.57360    0.73240    0.24200    1.000
    H123     H        0.59900    0.70870    0.21860    1.000
    C171     C        0.52660    0.72110    0.34900    1.000
    H124     H        0.52080    0.68800    0.39690    1.000
    C172     C        0.62860    0.79670    0.05500    1.000
    O32      O        0.62620    0.84790    0.98000    1.000
    C173     C        0.48980    0.77410    0.14100    1.000
    H125     H        0.46010    0.77730    0.04760    1.000
    C174     C        0.53460    0.78800    0.02800    1.000
    H126     H        0.53560    0.80030    0.86130    1.000
    C175     C        0.57790    0.76460    0.42100    1.000
    H127     H        0.60760    0.76120    0.51350    1.000
    C176     C        0.53220    0.75140    0.52600    1.000
    H128     H        0.53120    0.73920    0.69350    1.000
