data_functionalizedCrystal
_audit_creation_method	'EQeq! by Chris Wilmer'
_symmetry_space_group_name_H-M	'P1'
_symmetry_Int_Tables_number	1
_symmetry_cell_setting	triclinic
loop_
_symmetry_equiv_pos_as_xyz
  x,y,z
_cell_length_a	17.5235
_cell_length_b	17.5235
_cell_length_c	17.5235
_cell_angle_alpha	90
_cell_angle_beta	90
_cell_angle_gamma	90
loop_
_atom_site_label
_atom_site_type_symbol
_atom_site_fract_x
_atom_site_fract_y
_atom_site_fract_z
_atom_site_charge
Mof_Cu	Cu	0.91463	0.35388	0.99524	0.898
Mof_C 	C 	0.0206	0.2454	0.0003	0.304
Mof_O 	O 	0.9892	0.2851	0.9505	-0.368
Mof_O 	O 	0.056	0.1846	0.9884	-0.384
Mof_C 	C 	0.0135	0.2701	0.0839	0.01
Mof_O 	O 	0.9613	0.3282	0.0916	-0.431
Mof_O 	O 	0.9967	0.2057	0.1285	-0.287
Mof_C 	C 	0.0935	0.2949	0.1114	0.3
Mof_O 	O 	0.1023	0.3652	0.1295	-0.358
Mof_O 	O 	0.1445	0.2458	0.1139	-0.373
Mof_Cu	Cu	0.58537	0.64612	0.49524	0.9
Mof_C 	C 	0.4794	0.7546	0.5003	0.311
Mof_O 	O 	0.5108	0.7149	0.4505	-0.37
Mof_O 	O 	0.444	0.8154	0.4884	-0.395
Mof_C 	C 	0.4865	0.7299	0.5839	0.015
Mof_O 	O 	0.5387	0.6718	0.5916	-0.438
Mof_O 	O 	0.5033	0.7943	0.6285	-0.296
Mof_C 	C 	0.4065	0.7051	0.6114	0.298
Mof_O 	O 	0.3977	0.6348	0.6295	-0.358
Mof_O 	O 	0.3555	0.7542	0.6139	-0.374
Mof_Cu	Cu	0.08537	0.85388	0.50476	0.9
Mof_C 	C 	0.9794	0.7454	0.4997	0.305
Mof_O 	O 	0.0108	0.7851	0.5495	-0.365
Mof_O 	O 	0.944	0.6846	0.5116	-0.395
Mof_C 	C 	0.9865	0.7701	0.4161	0.009
Mof_O 	O 	0.0387	0.8282	0.4084	-0.433
Mof_O 	O 	0.0033	0.7057	0.3715	-0.291
Mof_C 	C 	0.9065	0.7949	0.3886	0.299
Mof_O 	O 	0.8977	0.8652	0.3705	-0.36
Mof_O 	O 	0.8555	0.7458	0.3861	-0.375
Mof_Cu	Cu	0.41463	0.14612	0.00476	0.898
Mof_C 	C 	0.5206	0.2546	0.9997	0.312
Mof_O 	O 	0.4892	0.2149	0.0495	-0.371
Mof_O 	O 	0.556	0.3154	0.0116	-0.394
Mof_C 	C 	0.5135	0.2299	0.9161	0.015
Mof_O 	O 	0.4613	0.1718	0.9084	-0.437
Mof_O 	O 	0.4967	0.2943	0.8715	-0.295
Mof_C 	C 	0.5935	0.2051	0.8886	0.299
Mof_O 	O 	0.6023	0.1348	0.8705	-0.358
Mof_O 	O 	0.6445	0.2542	0.8861	-0.375
Mof_Cu	Cu	0.99524	0.91463	0.35388	0.897
Mof_C 	C 	0.0003	0.0206	0.2454	0.303
Mof_O 	O 	0.9505	0.9892	0.2851	-0.369
Mof_O 	O 	0.9884	0.056	0.1846	-0.385
Mof_C 	C 	0.0839	0.0135	0.2701	0.009
Mof_O 	O 	0.0916	0.9613	0.3282	-0.432
Mof_O 	O 	0.1285	0.9967	0.2057	-0.288
Mof_C 	C 	0.1114	0.0935	0.2949	0.299
Mof_O 	O 	0.1295	0.1023	0.3652	-0.359
Mof_O 	O 	0.1139	0.1445	0.2458	-0.374
Mof_Cu	Cu	0.49524	0.58537	0.64612	0.9
Mof_C 	C 	0.5003	0.4794	0.7546	0.311
Mof_O 	O 	0.4505	0.5108	0.7149	-0.37
Mof_O 	O 	0.4884	0.444	0.8154	-0.395
Mof_C 	C 	0.5839	0.4865	0.7299	0.015
Mof_O 	O 	0.5916	0.5387	0.6718	-0.438
Mof_O 	O 	0.6285	0.5033	0.7943	-0.296
Mof_C 	C 	0.6114	0.4065	0.7051	0.298
Mof_O 	O 	0.6295	0.3977	0.6348	-0.358
Mof_O 	O 	0.6139	0.3555	0.7542	-0.374
Mof_Cu	Cu	0.50476	0.08537	0.85388	0.9
Mof_C 	C 	0.4997	0.9794	0.7454	0.305
Mof_O 	O 	0.5495	0.0108	0.7851	-0.365
Mof_O 	O 	0.5116	0.944	0.6846	-0.395
Mof_C 	C 	0.4161	0.9865	0.7701	0.009
Mof_O 	O 	0.4084	0.0387	0.8282	-0.433
Mof_O 	O 	0.3715	0.0033	0.7057	-0.291
Mof_C 	C 	0.3886	0.9065	0.7949	0.299
Mof_O 	O 	0.3705	0.8977	0.8652	-0.36
Mof_O 	O 	0.3861	0.8555	0.7458	-0.375
Mof_Cu	Cu	0.00476	0.41463	0.14612	0.898
Mof_C 	C 	0.9997	0.5206	0.2546	0.312
Mof_O 	O 	0.0495	0.4892	0.2149	-0.371
Mof_O 	O 	0.0116	0.556	0.3154	-0.394
Mof_C 	C 	0.9161	0.5135	0.2299	0.015
Mof_O 	O 	0.9084	0.4613	0.1718	-0.437
Mof_O 	O 	0.8715	0.4967	0.2943	-0.295
Mof_C 	C 	0.8886	0.5935	0.2051	0.299
Mof_O 	O 	0.8705	0.6023	0.1348	-0.358
Mof_O 	O 	0.8861	0.6445	0.2542	-0.375
Mof_Cu	Cu	0.35388	0.99524	0.91463	0.897
Mof_C 	C 	0.2454	0.0003	0.0206	0.303
Mof_O 	O 	0.2851	0.9505	0.9892	-0.369
Mof_O 	O 	0.1846	0.9884	0.056	-0.385
Mof_C 	C 	0.2701	0.0839	0.0135	0.009
Mof_O 	O 	0.3282	0.0916	0.9613	-0.432
Mof_O 	O 	0.2057	0.1285	0.9967	-0.288
Mof_C 	C 	0.2949	0.1114	0.0935	0.299
Mof_O 	O 	0.3652	0.1295	0.1023	-0.359
Mof_O 	O 	0.2458	0.1139	0.1445	-0.374
Mof_Cu	Cu	0.64612	0.49524	0.58537	0.9
Mof_C 	C 	0.7546	0.5003	0.4794	0.311
Mof_O 	O 	0.7149	0.4505	0.5108	-0.37
Mof_O 	O 	0.8154	0.4884	0.444	-0.395
Mof_C 	C 	0.7299	0.5839	0.4865	0.015
Mof_O 	O 	0.6718	0.5916	0.5387	-0.438
Mof_O 	O 	0.7943	0.6285	0.5033	-0.296
Mof_C 	C 	0.7051	0.6114	0.4065	0.298
Mof_O 	O 	0.6348	0.6295	0.3977	-0.358
Mof_O 	O 	0.7542	0.6139	0.3555	-0.374
Mof_Cu	Cu	0.85388	0.50476	0.08537	0.9
Mof_C 	C 	0.7454	0.4997	0.9794	0.305
Mof_O 	O 	0.7851	0.5495	0.0108	-0.365
Mof_O 	O 	0.6846	0.5116	0.944	-0.395
Mof_C 	C 	0.7701	0.4161	0.9865	0.009
Mof_O 	O 	0.8282	0.4084	0.0387	-0.433
Mof_O 	O 	0.7057	0.3715	0.0033	-0.291
Mof_C 	C 	0.7949	0.3886	0.9065	0.299
Mof_O 	O 	0.8652	0.3705	0.8977	-0.36
Mof_O 	O 	0.7458	0.3861	0.8555	-0.375
Mof_Cu	Cu	0.14612	0.00476	0.41463	0.898
Mof_C 	C 	0.2546	0.9997	0.5206	0.312
Mof_O 	O 	0.2149	0.0495	0.4892	-0.371
Mof_O 	O 	0.3154	0.0116	0.556	-0.394
Mof_C 	C 	0.2299	0.9161	0.5135	0.015
Mof_O 	O 	0.1718	0.9084	0.4613	-0.437
Mof_O 	O 	0.2943	0.8715	0.4967	-0.295
Mof_C 	C 	0.2051	0.8886	0.5935	0.299
Mof_O 	O 	0.1348	0.8705	0.6023	-0.358
Mof_O 	O 	0.2542	0.8861	0.6445	-0.375
Mof_La	La	0.10547	0.10547	0.10547	2.096
Mof_La	La	0.39453	0.89453	0.60547	2.116
Mof_La	La	0.89453	0.60547	0.39453	2.116
Mof_La	La	0.60547	0.39453	0.89453	2.116
_end
