data_functionalizedCrystal
_audit_creation_method	'EQeq! by Chris Wilmer'
_symmetry_space_group_name_H-M	'P1'
_symmetry_Int_Tables_number	1
_symmetry_cell_setting	triclinic
loop_
_symmetry_equiv_pos_as_xyz
  x,y,z
_cell_length_a	10.7117
_cell_length_b	12.4687
_cell_length_c	12.4687
_cell_angle_alpha	91.5997
_cell_angle_beta	113.842
_cell_angle_gamma	113.842
loop_
_atom_site_label
_atom_site_type_symbol
_atom_site_fract_x
_atom_site_fract_y
_atom_site_fract_z
_atom_site_charge
Mof_Tb	Tb	-1.04775e-17	0.20882	0.79118	1.295
Mof_Tb	Tb	4.97683e-17	0.79118	0.20882	1.295
Mof_Co	Co	-0	0	-0	0.962
Mof_Co	Co	-0	0.5	-0	0.987
Mof_Co	Co	-2.09551e-17	0	0.5	0.986
Mof_H 	H 	0.4942	0.1099	0.7107	0.123
Mof_H 	H 	0.6454	0.1648	0.4828	0.137
Mof_H 	H 	0.888	0.1398	0.2568	0.173
Mof_H 	H 	0.2581	0.9833	0.7807	0.158
Mof_H 	H 	0.283	0.7653	0.5967	0.114
Mof_H 	H 	0.6454	0.4828	0.1648	0.137
Mof_H 	H 	0.5058	0.8901	0.2893	0.136
Mof_H 	H 	0.717	0.4033	0.2347	0.163
Mof_H 	H 	0.5444	0.9425	0.4207	0.151
Mof_H 	H 	0.7419	0.0167	0.2193	0.14
Mof_H 	H 	0.112	0.7432	0.8602	0.085
Mof_H 	H 	0.112	0.8602	0.7432	0.085
Mof_H 	H 	0.2581	0.7807	0.9833	0.158
Mof_H 	H 	0.5058	0.2893	0.8901	0.136
Mof_H 	H 	0.3546	0.8352	0.5172	0.137
Mof_H 	H 	0.4556	0.0575	0.5793	0.103
Mof_H 	H 	0.717	0.2347	0.4033	0.163
Mof_H 	H 	0.5444	0.4207	0.9425	0.151
Mof_H 	H 	0.3546	0.5172	0.8352	0.137
Mof_H 	H 	0.283	0.5967	0.7653	0.114
Mof_H 	H 	0.888	0.2568	0.1398	0.173
Mof_H 	H 	0.4942	0.7107	0.1099	0.123
Mof_H 	H 	0.7419	0.2193	0.0167	0.14
Mof_H 	H 	0.4556	0.5793	0.0575	0.103
Mof_C 	C 	0.175	0.5077	0.8607	0.452
Mof_C 	C 	0.3251	0.8972	0.3002	0.407
Mof_C 	C 	0.6859	0.1586	0.4272	-0.309
Mof_C 	C 	0.9241	0.2218	0.9948	0.465
Mof_C 	C 	0.8257	0.2007	0.0617	-0.352
Mof_C 	C 	0.1743	0.9383	0.7993	-0.285
Mof_C 	C 	0.4833	0.7892	0.914	0.22
Mof_C 	C 	0.8257	0.0617	0.2007	-0.352
Mof_C 	C 	0.175	0.8607	0.5077	0.452
Mof_C 	C 	0.5073	0.056	0.6632	-0.288
Mof_C 	C 	0.6859	0.4272	0.1586	-0.309
Mof_C 	C 	0.5167	0.2108	0.086	0.097
Mof_C 	C 	0.5167	0.086	0.2108	0.097
Mof_C 	C 	0.6491	0.9879	0.9879	0.331
Mof_C 	C 	0.5073	0.6632	0.056	-0.288
Mof_C 	C 	0.6749	0.6998	0.1028	0.345
Mof_C 	C 	0.4927	0.944	0.3368	-0.26
Mof_C 	C 	0.825	0.1393	0.4923	0.429
Mof_C 	C 	0.3141	0.5728	0.8414	-0.311
Mof_C 	C 	0.4927	0.3368	0.944	-0.26
Mof_C 	C 	0.0759	0.7782	0.0052	0.418
Mof_C 	C 	0.1743	0.7993	0.9383	-0.285
Mof_C 	C 	0.3509	0.0121	0.0121	-0.043
Mof_C 	C 	0.3141	0.8414	0.5728	-0.311
Mof_C 	C 	0.3251	0.3002	0.8972	0.407
Mof_C 	C 	0.0759	0.0052	0.7782	0.418
Mof_C 	C 	0.9241	0.9948	0.2218	0.465
Mof_C 	C 	0.825	0.4923	0.1393	0.429
Mof_C 	C 	0.6749	0.1028	0.6998	0.345
Mof_C 	C 	0.4833	0.914	0.7892	0.22
Mof_N 	N 	0.5656	0.3221	0.0653	-0.065
Mof_N 	N 	0.4064	0.9875	0.1215	-0.082
Mof_N 	N 	0.5788	0.1989	0.1989	-0.142
Mof_N 	N 	0.2377	0.9203	0.9203	0.013
Mof_N 	N 	0.4212	0.8011	0.8011	-0.181
Mof_N 	N 	0.4344	0.6779	0.9347	-0.033
Mof_N 	N 	0.5656	0.0653	0.3221	-0.065
Mof_N 	N 	0.4344	0.9347	0.6779	-0.033
Mof_N 	N 	0.7623	0.0797	0.0797	-0.105
Mof_N 	N 	0.5936	0.8785	0.0125	-0.211
Mof_N 	N 	0.4064	0.1215	0.9875	-0.082
Mof_N 	N 	0.5936	0.0125	0.8785	-0.211
Mof_O 	O 	0.9873	0.3256	0.98	-0.276
Mof_O 	O 	0.0615	0.0467	0.8627	-0.611
Mof_O 	O 	0.7311	0.0344	0.6928	-0.282
Mof_O 	O 	0.1692	0.5552	0.947	-0.491
Mof_O 	O 	0.8308	0.4448	0.053	-0.366
Mof_O 	O 	0.2419	0.7848	0.2624	-0.44
Mof_O 	O 	0.8308	0.053	0.4448	-0.366
Mof_O 	O 	0.7581	0.2152	0.7376	-0.291
Mof_O 	O 	0.2419	0.2624	0.7848	-0.44
Mof_O 	O 	0.1692	0.947	0.5552	-0.491
Mof_O 	O 	0.7311	0.6928	0.0344	-0.282
Mof_O 	O 	0.9385	0.9533	0.1373	-0.356
Mof_O 	O 	0.7581	0.7376	0.2152	-0.291
Mof_O 	O 	0.9264	0.2133	0.5925	-0.244
Mof_O 	O 	0.9385	0.1373	0.9533	-0.356
Mof_O 	O 	0.0736	0.7867	0.4075	-0.57
Mof_O 	O 	0.2689	0.3072	0.9656	-0.407
Mof_O 	O 	0.9873	0.98	0.3256	-0.276
Mof_O 	O 	0.0615	0.8627	0.0467	-0.611
Mof_O 	O 	0.9264	0.5925	0.2133	-0.244
Mof_O 	O 	0.0127	0.02	0.6744	-0.622
Mof_O 	O 	0.2689	0.9656	0.3072	-0.407
Mof_O 	O 	0.0127	0.6744	0.02	-0.622
Mof_O 	O 	0.0736	0.4075	0.7867	-0.57
_end
