data_functionalizedCrystal
_audit_creation_method	'EQeq! by Chris Wilmer'
_symmetry_space_group_name_H-M	'P1'
_symmetry_Int_Tables_number	1
_symmetry_cell_setting	triclinic
loop_
_symmetry_equiv_pos_as_xyz
  x,y,z
_cell_length_a	14.988
_cell_length_b	16.101
_cell_length_c	27.404
_cell_angle_alpha	90
_cell_angle_beta	105.198
_cell_angle_gamma	90
loop_
_atom_site_label
_atom_site_type_symbol
_atom_site_fract_x
_atom_site_fract_y
_atom_site_fract_z
_atom_site_charge
Mof_W 	W 	0.56315	0.22137	0.45213	0.956
Mof_W 	W 	0.75301	0.27959	0.39359	1
Mof_W 	W 	0.58685	0.23087	0.57694	1.006
Mof_W 	W 	0.93512	0.36743	0.47682	1.333
Mof_W 	W 	0.9005	0.1581	0.4776	0.961
Mof_W 	W 	0.95927	0.37788	0.61186	1.01
Mof_W 	W 	0.80341	0.3011	0.66931	1.005
Mof_W 	W 	0.7089	0.09085	0.52983	0.977
Mof_W 	W 	0.92384	0.16787	0.61617	0.976
Mof_W 	W 	0.59471	0.43794	0.41966	1.38
Mof_W 	W 	0.37155	0.54824	0.39561	1.363
Mof_Sm	Sm	0.8021	0.56513	0.52594	1.871
Mof_Sm	Sm	0.65046	0.71448	0.25892	1.464
Mof_As	As	0.7581	0.32087	0.52866	0.406
Mof_P 	P 	0.521	0.5643	0.3234	0.439
Mof_P 	P 	0.4145	0.4088	0.3171	0.405
Mof_O 	O 	0.6882	0.3794	0.3973	-0.488
Mof_O 	O 	0.9131	0.3604	0.6718	-0.478
Mof_O 	O 	0.8219	0.2832	0.4848	-0.378
Mof_O 	O 	0.5008	0.3748	0.359	-0.38
Mof_O 	O 	0.9374	0.1575	0.5489	-0.472
Mof_O 	O 	0.3515	0.4585	0.3427	-0.411
Mof_O 	O 	0.4856	0.4947	0.4243	-0.515
Mof_O 	O 	0.618	0.119	0.5696	-0.444
Mof_O 	O 	0.4038	0.6476	0.4294	-0.476
Mof_O 	O 	0.866	0.3414	0.4075	-0.484
Mof_O 	O 	0.8371	0.2924	0.5872	-0.353
Mof_O 	O 	0.8688	0.4538	0.4847	-0.574
Mof_O 	O 	0.4472	0.6016	0.3466	-0.372
Mof_O 	O 	0.8707	0.1983	0.6698	-0.462
Mof_O 	O 	0.9776	0.2448	0.4725	-0.482
Mof_O 	O 	0.7846	0.1045	0.4896	-0.455
Mof_O 	O 	0.5119	0.2335	0.509	-0.466
Mof_O 	O 	0.6861	0.2321	0.5263	-0.354
Mof_O 	O 	0.9787	0.3535	0.5481	-0.516
Mof_O 	O 	0.5762	0.3453	0.4534	-0.483
Mof_O 	O 	0.6538	0.2285	0.4153	-0.452
Mof_O 	O 	0.596	0.519	0.365	-0.418
Mof_O 	O 	0.8201	0.1806	0.4115	-0.469
Mof_O 	O 	0.0045	0.2538	0.631	-0.468
Mof_O 	O 	0.8041	0.1115	0.5874	-0.453
Mof_O 	O 	0.359	0.3384	0.2833	-0.496
Mof_O 	O 	0.2672	0.6007	0.3512	-0.491
Mof_O 	O 	0.673	0.4914	0.4677	-0.589
Mof_O 	O 	0.8866	0.4598	0.586	-0.545
Mof_O 	O 	0.6968	0.2467	0.6332	-0.448
Mof_O 	O 	0.0324	0.4082	0.4614	-0.623
Mof_O 	O 	0.3121	0.4983	0.4338	-0.586
Mof_O 	O 	0.5602	0.6288	0.294	-0.474
Mof_O 	O 	0.5962	0.1101	0.4717	-0.439
Mof_O 	O 	0.523	0.443	0.2583	-0.437
Mof_H 	H 	0.4964	0.4051	0.2402	0.243
Mof_C 	C 	0.462	0.482	0.28	0.146
Mof_C 	C 	0.385	0.517	0.2417	-0.588
Mof_H 	H 	0.3434	0.5443	0.2577	0.187
Mof_H 	H 	0.4086	0.5568	0.222	0.175
Mof_H 	H 	0.3535	0.4736	0.2202	0.185
Mof_O 	O 	0.614	0.791	0.32	-0.335
Mof_O 	O 	0.548	0.809	0.302	-0.138
Mof_W 	W 	0.43685	0.72137	0.04787	0.957
Mof_W 	W 	0.24699	0.77959	0.10641	1.001
Mof_W 	W 	0.41315	0.73087	0.92306	1.007
Mof_W 	W 	0.06488	0.86743	0.02318	1.334
Mof_W 	W 	0.0995	0.6581	0.0224	0.962
Mof_W 	W 	0.04073	0.87788	0.88814	1.009
Mof_W 	W 	0.19659	0.8011	0.83069	1.005
Mof_W 	W 	0.2911	0.59085	0.97017	0.977
Mof_W 	W 	0.07616	0.66787	0.88383	0.976
Mof_W 	W 	0.40529	0.93794	0.08034	1.38
Mof_W 	W 	0.62845	0.04824	0.10439	1.363
Mof_Sm	Sm	0.1979	0.06513	0.97406	1.871
Mof_Sm	Sm	0.34954	0.21448	0.24108	1.464
Mof_As	As	0.2419	0.82087	0.97134	0.406
Mof_P 	P 	0.479	0.0643	0.1766	0.439
Mof_P 	P 	0.5855	0.9088	0.1829	0.405
Mof_O 	O 	0.3118	0.8794	0.1027	-0.488
Mof_O 	O 	0.0869	0.8604	0.8282	-0.478
Mof_O 	O 	0.1781	0.7832	0.0152	-0.378
Mof_O 	O 	0.4992	0.8748	0.141	-0.38
Mof_O 	O 	0.0626	0.6575	0.9511	-0.472
Mof_O 	O 	0.6485	0.9585	0.1573	-0.411
Mof_O 	O 	0.5144	0.9947	0.0757	-0.515
Mof_O 	O 	0.382	0.619	0.9304	-0.443
Mof_O 	O 	0.5962	0.1476	0.0706	-0.476
Mof_O 	O 	0.134	0.8414	0.0925	-0.484
Mof_O 	O 	0.1629	0.7924	0.9128	-0.353
Mof_O 	O 	0.1312	0.9538	0.0153	-0.575
Mof_O 	O 	0.5528	0.1016	0.1534	-0.372
Mof_O 	O 	0.1293	0.6983	0.8302	-0.462
Mof_O 	O 	0.0224	0.7448	0.0275	-0.482
Mof_O 	O 	0.2154	0.6045	0.0104	-0.455
Mof_O 	O 	0.4881	0.7335	0.991	-0.466
Mof_O 	O 	0.3139	0.7321	0.9737	-0.354
Mof_O 	O 	0.0213	0.8535	0.9519	-0.516
Mof_O 	O 	0.4238	0.8453	0.0466	-0.483
Mof_O 	O 	0.3462	0.7285	0.0847	-0.452
Mof_O 	O 	0.404	0.019	0.135	-0.418
Mof_O 	O 	0.1799	0.6806	0.0885	-0.469
Mof_O 	O 	0.9955	0.7538	0.869	-0.467
Mof_O 	O 	0.1959	0.6115	0.9126	-0.453
Mof_O 	O 	0.641	0.8384	0.2167	-0.496
Mof_O 	O 	0.7328	0.1007	0.1488	-0.491
Mof_O 	O 	0.327	0.9914	0.0323	-0.589
Mof_O 	O 	0.1134	0.9598	0.914	-0.545
Mof_O 	O 	0.3032	0.7467	0.8668	-0.448
Mof_O 	O 	0.9676	0.9082	0.0386	-0.623
Mof_O 	O 	0.6879	0.9983	0.0662	-0.586
Mof_O 	O 	0.4398	0.1288	0.206	-0.474
Mof_O 	O 	0.4038	0.6101	0.0283	-0.438
Mof_O 	O 	0.477	0.943	0.2417	-0.437
Mof_H 	H 	0.5036	0.9051	0.2598	0.243
Mof_C 	C 	0.538	0.982	0.22	0.146
Mof_C 	C 	0.615	0.017	0.2583	-0.587
Mof_H 	H 	0.6566	0.0443	0.2423	0.186
Mof_H 	H 	0.5914	0.0568	0.278	0.175
Mof_H 	H 	0.6465	0.9736	0.2798	0.185
Mof_O 	O 	0.386	0.291	0.18	-0.335
Mof_O 	O 	0.452	0.309	0.198	-0.138
Mof_W 	W 	0.43685	0.77863	0.54787	0.957
Mof_W 	W 	0.24699	0.72041	0.60641	1.001
Mof_W 	W 	0.41315	0.76913	0.42306	1.007
Mof_W 	W 	0.06488	0.63257	0.52318	1.334
Mof_W 	W 	0.0995	0.8419	0.5224	0.961
Mof_W 	W 	0.04073	0.62212	0.38814	1.01
Mof_W 	W 	0.19659	0.6989	0.33069	1.005
Mof_W 	W 	0.2911	0.90915	0.47017	0.977
Mof_W 	W 	0.07616	0.83213	0.38383	0.976
Mof_W 	W 	0.40529	0.56206	0.58034	1.38
Mof_W 	W 	0.62845	0.45176	0.60439	1.363
Mof_Sm	Sm	0.1979	0.43487	0.47406	1.871
Mof_Sm	Sm	0.34954	0.28552	0.74108	1.464
Mof_As	As	0.2419	0.67913	0.47134	0.406
Mof_P 	P 	0.479	0.4357	0.6766	0.439
Mof_P 	P 	0.5855	0.5912	0.6829	0.405
Mof_O 	O 	0.3118	0.6206	0.6027	-0.488
Mof_O 	O 	0.0869	0.6396	0.3282	-0.478
Mof_O 	O 	0.1781	0.7168	0.5152	-0.378
Mof_O 	O 	0.4992	0.6252	0.641	-0.38
Mof_O 	O 	0.0626	0.8425	0.4511	-0.472
Mof_O 	O 	0.6485	0.5415	0.6573	-0.411
Mof_O 	O 	0.5144	0.5053	0.5757	-0.515
Mof_O 	O 	0.382	0.881	0.4304	-0.444
Mof_O 	O 	0.5962	0.3524	0.5706	-0.476
Mof_O 	O 	0.134	0.6586	0.5925	-0.484
Mof_O 	O 	0.1629	0.7076	0.4128	-0.353
Mof_O 	O 	0.1312	0.5462	0.5153	-0.574
Mof_O 	O 	0.5528	0.3984	0.6534	-0.372
Mof_O 	O 	0.1293	0.8017	0.3302	-0.462
Mof_O 	O 	0.0224	0.7552	0.5275	-0.482
Mof_O 	O 	0.2154	0.8955	0.5104	-0.455
Mof_O 	O 	0.4881	0.7665	0.491	-0.466
Mof_O 	O 	0.3139	0.7679	0.4737	-0.354
Mof_O 	O 	0.0213	0.6465	0.4519	-0.516
Mof_O 	O 	0.4238	0.6547	0.5466	-0.483
Mof_O 	O 	0.3462	0.7715	0.5847	-0.452
Mof_O 	O 	0.404	0.481	0.635	-0.418
Mof_O 	O 	0.1799	0.8194	0.5885	-0.469
Mof_O 	O 	0.9955	0.7462	0.369	-0.468
Mof_O 	O 	0.1959	0.8885	0.4126	-0.453
Mof_O 	O 	0.641	0.6616	0.7167	-0.496
Mof_O 	O 	0.7328	0.3993	0.6488	-0.491
Mof_O 	O 	0.327	0.5086	0.5323	-0.589
Mof_O 	O 	0.1134	0.5402	0.414	-0.545
Mof_O 	O 	0.3032	0.7533	0.3668	-0.448
Mof_O 	O 	0.9676	0.5918	0.5386	-0.623
Mof_O 	O 	0.6879	0.5017	0.5662	-0.586
Mof_O 	O 	0.4398	0.3712	0.706	-0.474
Mof_O 	O 	0.4038	0.8899	0.5283	-0.439
Mof_O 	O 	0.477	0.557	0.7417	-0.437
Mof_H 	H 	0.5036	0.5949	0.7598	0.243
Mof_C 	C 	0.538	0.518	0.72	0.146
Mof_C 	C 	0.615	0.483	0.7583	-0.588
Mof_H 	H 	0.6566	0.4557	0.7423	0.187
Mof_H 	H 	0.5914	0.4432	0.778	0.175
Mof_H 	H 	0.6465	0.5264	0.7798	0.185
Mof_O 	O 	0.386	0.209	0.68	-0.335
Mof_O 	O 	0.452	0.191	0.698	-0.138
Mof_W 	W 	0.56315	0.27863	0.95213	0.957
Mof_W 	W 	0.75301	0.22041	0.89359	1.001
Mof_W 	W 	0.58685	0.26913	0.07694	1.007
Mof_W 	W 	0.93512	0.13257	0.97682	1.334
Mof_W 	W 	0.9005	0.3419	0.9776	0.962
Mof_W 	W 	0.95927	0.12212	0.11186	1.009
Mof_W 	W 	0.80341	0.1989	0.16931	1.005
Mof_W 	W 	0.7089	0.40915	0.02983	0.977
Mof_W 	W 	0.92384	0.33213	0.11617	0.976
Mof_W 	W 	0.59471	0.06206	0.91966	1.38
Mof_W 	W 	0.37155	0.95176	0.89561	1.363
Mof_Sm	Sm	0.8021	0.93487	0.02594	1.871
Mof_Sm	Sm	0.65046	0.78552	0.75892	1.464
Mof_As	As	0.7581	0.17913	0.02866	0.406
Mof_P 	P 	0.521	0.9357	0.8234	0.439
Mof_P 	P 	0.4145	0.0912	0.8171	0.405
Mof_O 	O 	0.6882	0.1206	0.8973	-0.488
Mof_O 	O 	0.9131	0.1396	0.1718	-0.478
Mof_O 	O 	0.8219	0.2168	0.9848	-0.378
Mof_O 	O 	0.5008	0.1252	0.859	-0.38
Mof_O 	O 	0.9374	0.3425	0.0489	-0.472
Mof_O 	O 	0.3515	0.0415	0.8427	-0.411
Mof_O 	O 	0.4856	0.0053	0.9243	-0.515
Mof_O 	O 	0.618	0.381	0.0696	-0.443
Mof_O 	O 	0.4038	0.8524	0.9294	-0.476
Mof_O 	O 	0.866	0.1586	0.9075	-0.484
Mof_O 	O 	0.8371	0.2076	0.0872	-0.353
Mof_O 	O 	0.8688	0.0462	0.9847	-0.575
Mof_O 	O 	0.4472	0.8984	0.8466	-0.372
Mof_O 	O 	0.8707	0.3017	0.1698	-0.462
Mof_O 	O 	0.9776	0.2552	0.9725	-0.482
Mof_O 	O 	0.7846	0.3955	0.9896	-0.455
Mof_O 	O 	0.5119	0.2665	0.009	-0.466
Mof_O 	O 	0.6861	0.2679	0.0263	-0.354
Mof_O 	O 	0.9787	0.1465	0.0481	-0.516
Mof_O 	O 	0.5762	0.1547	0.9534	-0.483
Mof_O 	O 	0.6538	0.2715	0.9153	-0.452
Mof_O 	O 	0.596	0.981	0.865	-0.418
Mof_O 	O 	0.8201	0.3194	0.9115	-0.469
Mof_O 	O 	0.0045	0.2462	0.131	-0.467
Mof_O 	O 	0.8041	0.3885	0.0874	-0.453
Mof_O 	O 	0.359	0.1616	0.7833	-0.496
Mof_O 	O 	0.2672	0.8993	0.8512	-0.491
Mof_O 	O 	0.673	0.0086	0.9677	-0.589
Mof_O 	O 	0.8866	0.0402	0.086	-0.545
Mof_O 	O 	0.6968	0.2533	0.1332	-0.448
Mof_O 	O 	0.0324	0.0918	0.9614	-0.623
Mof_O 	O 	0.3121	0.0017	0.9338	-0.586
Mof_O 	O 	0.5602	0.8712	0.794	-0.474
Mof_O 	O 	0.5962	0.3899	0.9717	-0.438
Mof_O 	O 	0.523	0.057	0.7583	-0.437
Mof_H 	H 	0.4964	0.0949	0.7402	0.243
Mof_C 	C 	0.462	0.018	0.78	0.146
Mof_C 	C 	0.385	0.983	0.7417	-0.587
Mof_H 	H 	0.3434	0.9557	0.7577	0.186
Mof_H 	H 	0.4086	0.9432	0.722	0.175
Mof_H 	H 	0.3535	0.0264	0.7202	0.185
Mof_O 	O 	0.614	0.709	0.82	-0.335
Mof_O 	O 	0.548	0.691	0.802	-0.138
_end
