# CIF file generated by openbabel 3.1.0, see https://openbabel.org
data_I
_chemical_name_common 'image0'
_cell_length_a 14.195
_cell_length_b 25.645
_cell_length_c 18.21
_cell_angle_alpha 90
_cell_angle_beta 90
_cell_angle_gamma 90
_space_group_name_H-M_alt 'P 1'
_space_group_name_Hall 'P 1'
loop_
    _symmetry_equiv_pos_as_xyz
    x,y,z
loop_
    _atom_site_label
    _atom_site_type_symbol
    _atom_site_fract_x
    _atom_site_fract_y
    _atom_site_fract_z
    _atom_site_occupancy
    Co1      Co       0.46858    0.35487    0.05727    1.000
    O1       O        0.57700    0.40880    0.19060    1.000
    O2       O        0.54700    0.42130    0.20200    1.000
    O3       O        0.53930    0.41929    0.07394    1.000
    O4       O        0.92120    0.80080    0.19360    1.000
    O5       O        0.96180    0.78930    0.19900    1.000
    O6       O        0.96750    0.78934    0.07742    1.000
    O7       O        0.39330    0.35746    0.17069    1.000
    O8       O        0.32860    0.34499    0.06586    1.000
    N1       N        0.48440    0.35491    0.94400    1.000
    C1       C        0.57620    0.43400    0.13380    1.000
    C2       C        0.63420    0.48280    0.13250    1.000
    C3       C        0.66910    0.50230    0.19720    1.000
    H1       H        0.65930    0.48430    0.24090    1.000
    C4       C        0.71890    0.54860    0.19780    1.000
    H2       H        0.74040    0.56200    0.24230    1.000
    C5       C        0.73760    0.57550    0.13330    1.000
    C6       C        0.70450    0.55450    0.06770    1.000
    H3       H        0.71720    0.57140    0.02370    1.000
    C7       C        0.65290    0.50870    0.06730    1.000
    H4       H        0.63070    0.49520    0.02320    1.000
    C8       C        0.78910    0.62610    0.13420    1.000
    C9       C        0.78240    0.65950    0.19270    1.000
    H5       H        0.74540    0.65000    0.23270    1.000
    C10      C        0.82880    0.70700    0.19420    1.000
    H6       H        0.82370    0.72850    0.23520    1.000
    C11      C        0.88260    0.72240    0.13520    1.000
    C12      C        0.88350    0.69150    0.07570    1.000
    H7       H        0.91560    0.70240    0.03390    1.000
    C13      C        0.83800    0.64400    0.07510    1.000
    H8       H        0.84090    0.62350    0.03300    1.000
    C14      C        0.93030    0.77400    0.13710    1.000
    C15      C        0.32130    0.34820    0.13460    1.000
    C16      C        0.22840    0.34280    0.17020    1.000
    C17      C        0.21630    0.35100    0.24460    1.000
    H9       H        0.26810    0.35830    0.27420    1.000
    C18      C        0.12690    0.34840    0.27510    1.000
    H10      H        0.11970    0.35470    0.32510    1.000
    C19      C        0.04810    0.33690    0.23370    1.000
    C20      C        0.06190    0.32700    0.16010    1.000
    H11      H        0.01050    0.31820    0.13100    1.000
    C21      C        0.14990    0.32980    0.12850    1.000
    H12      H        0.15690    0.32290    0.07870    1.000
    C22      C        0.46100    0.31300    0.90500    1.000
    H13      H        0.44010    0.28350    0.92990    1.000
    C23      C        0.46600    0.31090    0.82900    1.000
    H14      H        0.44900    0.28080    0.80390    1.000
    C24      C        0.49690    0.35470    0.79100    1.000
    C25      C        0.52110    0.39840    0.83120    1.000
    H15      H        0.54140    0.42850    0.80750    1.000
    C26      C        0.51490    0.39690    0.90720    1.000
    H16      H        0.53270    0.42620    0.93380    1.000
    Co2      Co       0.53142    0.35487    0.44273    1.000
    O9       O        0.42300    0.40880    0.30940    1.000
    O10      O        0.45300    0.42130    0.29800    1.000
    O11      O        0.46070    0.41929    0.42606    1.000
    O12      O        0.07880    0.80080    0.30640    1.000
    O13      O        0.03820    0.78930    0.30100    1.000
    O14      O        0.03250    0.78934    0.42258    1.000
    O15      O        0.60670    0.35746    0.32931    1.000
    O16      O        0.67140    0.34499    0.43414    1.000
    N2       N        0.51560    0.35491    0.55600    1.000
    C27      C        0.42380    0.43400    0.36620    1.000
    C28      C        0.36580    0.48280    0.36750    1.000
    C29      C        0.33090    0.50230    0.30280    1.000
    H17      H        0.34070    0.48430    0.25910    1.000
    C30      C        0.28110    0.54860    0.30220    1.000
    H18      H        0.25960    0.56200    0.25770    1.000
    C31      C        0.26240    0.57550    0.36670    1.000
    C32      C        0.29550    0.55450    0.43230    1.000
    H19      H        0.28280    0.57140    0.47630    1.000
    C33      C        0.34710    0.50870    0.43270    1.000
    H20      H        0.36930    0.49520    0.47680    1.000
    C34      C        0.21090    0.62610    0.36580    1.000
    C35      C        0.21760    0.65950    0.30730    1.000
    H21      H        0.25460    0.65000    0.26730    1.000
    C36      C        0.17120    0.70700    0.30580    1.000
    H22      H        0.17630    0.72850    0.26480    1.000
    C37      C        0.11740    0.72240    0.36480    1.000
    C38      C        0.11650    0.69150    0.42430    1.000
    H23      H        0.08440    0.70240    0.46610    1.000
    C39      C        0.16200    0.64400    0.42490    1.000
    H24      H        0.15910    0.62350    0.46700    1.000
    C40      C        0.06970    0.77400    0.36290    1.000
    C41      C        0.67870    0.34820    0.36540    1.000
    C42      C        0.77160    0.34280    0.32980    1.000
    C43      C        0.78370    0.35100    0.25540    1.000
    H25      H        0.73190    0.35830    0.22580    1.000
    C44      C        0.87310    0.34840    0.22490    1.000
    H26      H        0.88030    0.35470    0.17490    1.000
    C45      C        0.95190    0.33690    0.26630    1.000
    C46      C        0.93810    0.32700    0.33990    1.000
    H27      H        0.98950    0.31820    0.36900    1.000
    C47      C        0.85010    0.32980    0.37150    1.000
    H28      H        0.84310    0.32290    0.42130    1.000
    C48      C        0.53900    0.31300    0.59500    1.000
    H29      H        0.55990    0.28350    0.57010    1.000
    C49      C        0.53400    0.31090    0.67100    1.000
    H30      H        0.55100    0.28080    0.69610    1.000
    C50      C        0.50310    0.35470    0.70900    1.000
    C51      C        0.47890    0.39840    0.66880    1.000
    H31      H        0.45860    0.42850    0.69250    1.000
    C52      C        0.48510    0.39690    0.59280    1.000
    H32      H        0.46730    0.42620    0.56620    1.000
    Co3      Co       0.96858    0.85487    0.44273    1.000
    O17      O        0.07700    0.90880    0.30940    1.000
    O18      O        0.04700    0.92130    0.29800    1.000
    O19      O        0.03930    0.91929    0.42606    1.000
    O20      O        0.42120    0.30080    0.30640    1.000
    O21      O        0.46180    0.28930    0.30100    1.000
    O22      O        0.46750    0.28934    0.42258    1.000
    O23      O        0.89330    0.85746    0.32931    1.000
    O24      O        0.82860    0.84499    0.43414    1.000
    N3       N        0.98440    0.85491    0.55600    1.000
    C53      C        0.07620    0.93400    0.36620    1.000
    C54      C        0.13420    0.98280    0.36750    1.000
    C55      C        0.16910    0.00230    0.30280    1.000
    H33      H        0.15930    0.98430    0.25910    1.000
    C56      C        0.21890    0.04860    0.30220    1.000
    H34      H        0.24040    0.06200    0.25770    1.000
    C57      C        0.23760    0.07550    0.36670    1.000
    C58      C        0.20450    0.05450    0.43230    1.000
    H35      H        0.21720    0.07140    0.47630    1.000
    C59      C        0.15290    0.00870    0.43270    1.000
    H36      H        0.13070    0.99520    0.47680    1.000
    C60      C        0.28910    0.12610    0.36580    1.000
    C61      C        0.28240    0.15950    0.30730    1.000
    H37      H        0.24540    0.15000    0.26730    1.000
    C62      C        0.32880    0.20700    0.30580    1.000
    H38      H        0.32370    0.22850    0.26480    1.000
    C63      C        0.38260    0.22240    0.36480    1.000
    C64      C        0.38350    0.19150    0.42430    1.000
    H39      H        0.41560    0.20240    0.46610    1.000
    C65      C        0.33800    0.14400    0.42490    1.000
    H40      H        0.34090    0.12350    0.46700    1.000
    C66      C        0.43030    0.27400    0.36290    1.000
    C67      C        0.82130    0.84820    0.36540    1.000
    C68      C        0.72840    0.84280    0.32980    1.000
    C69      C        0.71630    0.85100    0.25540    1.000
    H41      H        0.76810    0.85830    0.22580    1.000
    C70      C        0.62690    0.84840    0.22490    1.000
    H42      H        0.61970    0.85470    0.17490    1.000
    C71      C        0.54810    0.83690    0.26630    1.000
    C72      C        0.56190    0.82700    0.33990    1.000
    H43      H        0.51050    0.81820    0.36900    1.000
    C73      C        0.64990    0.82980    0.37150    1.000
    H44      H        0.65690    0.82290    0.42130    1.000
    C74      C        0.96100    0.81300    0.59500    1.000
    H45      H        0.94010    0.78350    0.57010    1.000
    C75      C        0.96600    0.81090    0.67100    1.000
    H46      H        0.94900    0.78080    0.69610    1.000
    C76      C        0.99690    0.85470    0.70900    1.000
    C77      C        0.02110    0.89840    0.66880    1.000
    H47      H        0.04140    0.92850    0.69250    1.000
    C78      C        0.01490    0.89690    0.59280    1.000
    H48      H        0.03270    0.92620    0.56620    1.000
    Co4      Co       0.03142    0.85487    0.05727    1.000
    O25      O        0.92300    0.90880    0.19060    1.000
    O26      O        0.95300    0.92130    0.20200    1.000
    O27      O        0.96070    0.91929    0.07394    1.000
    O28      O        0.57880    0.30080    0.19360    1.000
    O29      O        0.53820    0.28930    0.19900    1.000
    O30      O        0.53250    0.28934    0.07742    1.000
    O31      O        0.10670    0.85746    0.17069    1.000
    O32      O        0.17140    0.84499    0.06586    1.000
    N4       N        0.01560    0.85491    0.94400    1.000
    C79      C        0.92380    0.93400    0.13380    1.000
    C80      C        0.86580    0.98280    0.13250    1.000
    C81      C        0.83090    0.00230    0.19720    1.000
    H49      H        0.84070    0.98430    0.24090    1.000
    C82      C        0.78110    0.04860    0.19780    1.000
    H50      H        0.75960    0.06200    0.24230    1.000
    C83      C        0.76240    0.07550    0.13330    1.000
    C84      C        0.79550    0.05450    0.06770    1.000
    H51      H        0.78280    0.07140    0.02370    1.000
    C85      C        0.84710    0.00870    0.06730    1.000
    H52      H        0.86930    0.99520    0.02320    1.000
    C86      C        0.71090    0.12610    0.13420    1.000
    C87      C        0.71760    0.15950    0.19270    1.000
    H53      H        0.75460    0.15000    0.23270    1.000
    C88      C        0.67120    0.20700    0.19420    1.000
    H54      H        0.67630    0.22850    0.23520    1.000
    C89      C        0.61740    0.22240    0.13520    1.000
    C90      C        0.61650    0.19150    0.07570    1.000
    H55      H        0.58440    0.20240    0.03390    1.000
    C91      C        0.66200    0.14400    0.07510    1.000
    H56      H        0.65910    0.12350    0.03300    1.000
    C92      C        0.56970    0.27400    0.13710    1.000
    C93      C        0.17870    0.84820    0.13460    1.000
    C94      C        0.27160    0.84280    0.17020    1.000
    C95      C        0.28370    0.85100    0.24460    1.000
    H57      H        0.23190    0.85830    0.27420    1.000
    C96      C        0.37310    0.84840    0.27510    1.000
    H58      H        0.38030    0.85470    0.32510    1.000
    C97      C        0.45190    0.83690    0.23370    1.000
    C98      C        0.43810    0.82700    0.16010    1.000
    H59      H        0.48950    0.81820    0.13100    1.000
    C99      C        0.35010    0.82980    0.12850    1.000
    H60      H        0.34310    0.82290    0.07870    1.000
    C100     C        0.03900    0.81300    0.90500    1.000
    H61      H        0.05990    0.78350    0.92990    1.000
    C101     C        0.03400    0.81090    0.82900    1.000
    H62      H        0.05100    0.78080    0.80390    1.000
    C102     C        0.00310    0.85470    0.79100    1.000
    C103     C        0.97890    0.89840    0.83120    1.000
    H63      H        0.95860    0.92850    0.80750    1.000
    C104     C        0.98510    0.89690    0.90720    1.000
    H64      H        0.96730    0.92620    0.93380    1.000
    Co5      Co       0.50000    0.35523    0.25000    1.000
    Co6      Co       0.00000    0.85523    0.25000    1.000
    Co7      Co       0.03142    0.14513    0.55727    1.000
    O33      O        0.92300    0.09120    0.69060    1.000
    O34      O        0.95300    0.07870    0.70200    1.000
    O35      O        0.96070    0.08071    0.57394    1.000
    O36      O        0.57880    0.69920    0.69360    1.000
    O37      O        0.53820    0.71070    0.69900    1.000
    O38      O        0.53250    0.71066    0.57742    1.000
    O39      O        0.10670    0.14254    0.67069    1.000
    O40      O        0.17140    0.15501    0.56586    1.000
    N5       N        0.01560    0.14509    0.44400    1.000
    C105     C        0.92380    0.06600    0.63380    1.000
    C106     C        0.86580    0.01720    0.63250    1.000
    C107     C        0.83090    0.99770    0.69720    1.000
    H65      H        0.84070    0.01570    0.74090    1.000
    C108     C        0.78110    0.95140    0.69780    1.000
    H66      H        0.75960    0.93800    0.74230    1.000
    C109     C        0.76240    0.92450    0.63330    1.000
    C110     C        0.79550    0.94550    0.56770    1.000
    H67      H        0.78280    0.92860    0.52370    1.000
    C111     C        0.84710    0.99130    0.56730    1.000
    H68      H        0.86930    0.00480    0.52320    1.000
    C112     C        0.71090    0.87390    0.63420    1.000
    C113     C        0.71760    0.84050    0.69270    1.000
    H69      H        0.75460    0.85000    0.73270    1.000
    C114     C        0.67120    0.79300    0.69420    1.000
    H70      H        0.67630    0.77150    0.73520    1.000
    C115     C        0.61740    0.77760    0.63520    1.000
    C116     C        0.61650    0.80850    0.57570    1.000
    H71      H        0.58440    0.79760    0.53390    1.000
    C117     C        0.66200    0.85600    0.57510    1.000
    H72      H        0.65910    0.87650    0.53300    1.000
    C118     C        0.56970    0.72600    0.63710    1.000
    C119     C        0.17870    0.15180    0.63460    1.000
    C120     C        0.27160    0.15720    0.67020    1.000
    C121     C        0.28370    0.14900    0.74460    1.000
    H73      H        0.23190    0.14170    0.77420    1.000
    C122     C        0.37310    0.15160    0.77510    1.000
    H74      H        0.38030    0.14530    0.82510    1.000
    C123     C        0.45190    0.16310    0.73370    1.000
    C124     C        0.43810    0.17300    0.66010    1.000
    H75      H        0.48950    0.18180    0.63100    1.000
    C125     C        0.35010    0.17020    0.62850    1.000
    H76      H        0.34310    0.17710    0.57870    1.000
    C126     C        0.03900    0.18700    0.40500    1.000
    H77      H        0.05990    0.21650    0.42990    1.000
    C127     C        0.03400    0.18910    0.32900    1.000
    H78      H        0.05100    0.21920    0.30390    1.000
    C128     C        0.00310    0.14530    0.29100    1.000
    C129     C        0.97890    0.10160    0.33120    1.000
    H79      H        0.95860    0.07150    0.30750    1.000
    C130     C        0.98510    0.10310    0.40720    1.000
    H80      H        0.96730    0.07380    0.43380    1.000
    Co8      Co       0.96858    0.14513    0.94273    1.000
    O41      O        0.07700    0.09120    0.80940    1.000
    O42      O        0.04700    0.07870    0.79800    1.000
    O43      O        0.03930    0.08071    0.92606    1.000
    O44      O        0.42120    0.69920    0.80640    1.000
    O45      O        0.46180    0.71070    0.80100    1.000
    O46      O        0.46750    0.71066    0.92258    1.000
    O47      O        0.89330    0.14254    0.82931    1.000
    O48      O        0.82860    0.15501    0.93414    1.000
    N6       N        0.98440    0.14509    0.05600    1.000
    C131     C        0.07620    0.06600    0.86620    1.000
    C132     C        0.13420    0.01720    0.86750    1.000
    C133     C        0.16910    0.99770    0.80280    1.000
    H81      H        0.15930    0.01570    0.75910    1.000
    C134     C        0.21890    0.95140    0.80220    1.000
    H82      H        0.24040    0.93800    0.75770    1.000
    C135     C        0.23760    0.92450    0.86670    1.000
    C136     C        0.20450    0.94550    0.93230    1.000
    H83      H        0.21720    0.92860    0.97630    1.000
    C137     C        0.15290    0.99130    0.93270    1.000
    H84      H        0.13070    0.00480    0.97680    1.000
    C138     C        0.28910    0.87390    0.86580    1.000
    C139     C        0.28240    0.84050    0.80730    1.000
    H85      H        0.24540    0.85000    0.76730    1.000
    C140     C        0.32880    0.79300    0.80580    1.000
    H86      H        0.32370    0.77150    0.76480    1.000
    C141     C        0.38260    0.77760    0.86480    1.000
    C142     C        0.38350    0.80850    0.92430    1.000
    H87      H        0.41560    0.79760    0.96610    1.000
    C143     C        0.33800    0.85600    0.92490    1.000
    H88      H        0.34090    0.87650    0.96700    1.000
    C144     C        0.43030    0.72600    0.86290    1.000
    C145     C        0.82130    0.15180    0.86540    1.000
    C146     C        0.72840    0.15720    0.82980    1.000
    C147     C        0.71630    0.14900    0.75540    1.000
    H89      H        0.76810    0.14170    0.72580    1.000
    C148     C        0.62690    0.15160    0.72490    1.000
    H90      H        0.61970    0.14530    0.67490    1.000
    C149     C        0.54810    0.16310    0.76630    1.000
    C150     C        0.56190    0.17300    0.83990    1.000
    H91      H        0.51050    0.18180    0.86900    1.000
    C151     C        0.64990    0.17020    0.87150    1.000
    H92      H        0.65690    0.17710    0.92130    1.000
    C152     C        0.96100    0.18700    0.09500    1.000
    H93      H        0.94010    0.21650    0.07010    1.000
    C153     C        0.96600    0.18910    0.17100    1.000
    H94      H        0.94900    0.21920    0.19610    1.000
    C154     C        0.99690    0.14530    0.20900    1.000
    C155     C        0.02110    0.10160    0.16880    1.000
    H95      H        0.04140    0.07150    0.19250    1.000
    C156     C        0.01490    0.10310    0.09280    1.000
    H96      H        0.03270    0.07380    0.06620    1.000
    Co9      Co       0.53142    0.64513    0.94273    1.000
    O49      O        0.42300    0.59120    0.80940    1.000
    O50      O        0.45300    0.57870    0.79800    1.000
    O51      O        0.46070    0.58071    0.92606    1.000
    O52      O        0.07880    0.19920    0.80640    1.000
    O53      O        0.03820    0.21070    0.80100    1.000
    O54      O        0.03250    0.21066    0.92258    1.000
    O55      O        0.60670    0.64254    0.82931    1.000
    O56      O        0.67140    0.65501    0.93414    1.000
    N7       N        0.51560    0.64509    0.05600    1.000
    C157     C        0.42380    0.56600    0.86620    1.000
    C158     C        0.36580    0.51720    0.86750    1.000
    C159     C        0.33090    0.49770    0.80280    1.000
    H97      H        0.34070    0.51570    0.75910    1.000
    C160     C        0.28110    0.45140    0.80220    1.000
    H98      H        0.25960    0.43800    0.75770    1.000
    C161     C        0.26240    0.42450    0.86670    1.000
    C162     C        0.29550    0.44550    0.93230    1.000
    H99      H        0.28280    0.42860    0.97630    1.000
    C163     C        0.34710    0.49130    0.93270    1.000
    H100     H        0.36930    0.50480    0.97680    1.000
    C164     C        0.21090    0.37390    0.86580    1.000
    C165     C        0.21760    0.34050    0.80730    1.000
    H101     H        0.25460    0.35000    0.76730    1.000
    C166     C        0.17120    0.29300    0.80580    1.000
    H102     H        0.17630    0.27150    0.76480    1.000
    C167     C        0.11740    0.27760    0.86480    1.000
    C168     C        0.11650    0.30850    0.92430    1.000
    H103     H        0.08440    0.29760    0.96610    1.000
    C169     C        0.16200    0.35600    0.92490    1.000
    H104     H        0.15910    0.37650    0.96700    1.000
    C170     C        0.06970    0.22600    0.86290    1.000
    C171     C        0.67870    0.65180    0.86540    1.000
    C172     C        0.77160    0.65720    0.82980    1.000
    C173     C        0.78370    0.64900    0.75540    1.000
    H105     H        0.73190    0.64170    0.72580    1.000
    C174     C        0.87310    0.65160    0.72490    1.000
    H106     H        0.88030    0.64530    0.67490    1.000
    C175     C        0.95190    0.66310    0.76630    1.000
    C176     C        0.93810    0.67300    0.83990    1.000
    H107     H        0.98950    0.68180    0.86900    1.000
    C177     C        0.85010    0.67020    0.87150    1.000
    H108     H        0.84310    0.67710    0.92130    1.000
    C178     C        0.53900    0.68700    0.09500    1.000
    H109     H        0.55990    0.71650    0.07010    1.000
    C179     C        0.53400    0.68910    0.17100    1.000
    H110     H        0.55100    0.71920    0.19610    1.000
    C180     C        0.50310    0.64530    0.20900    1.000
    C181     C        0.47890    0.60160    0.16880    1.000
    H111     H        0.45860    0.57150    0.19250    1.000
    C182     C        0.48510    0.60310    0.09280    1.000
    H112     H        0.46730    0.57380    0.06620    1.000
    Co10     Co       0.46858    0.64513    0.55727    1.000
    O57      O        0.57700    0.59120    0.69060    1.000
    O58      O        0.54700    0.57870    0.70200    1.000
    O59      O        0.53930    0.58071    0.57394    1.000
    O60      O        0.92120    0.19920    0.69360    1.000
    O61      O        0.96180    0.21070    0.69900    1.000
    O62      O        0.96750    0.21066    0.57742    1.000
    O63      O        0.39330    0.64254    0.67069    1.000
    O64      O        0.32860    0.65501    0.56586    1.000
    N8       N        0.48440    0.64509    0.44400    1.000
    C183     C        0.57620    0.56600    0.63380    1.000
    C184     C        0.63420    0.51720    0.63250    1.000
    C185     C        0.66910    0.49770    0.69720    1.000
    H113     H        0.65930    0.51570    0.74090    1.000
    C186     C        0.71890    0.45140    0.69780    1.000
    H114     H        0.74040    0.43800    0.74230    1.000
    C187     C        0.73760    0.42450    0.63330    1.000
    C188     C        0.70450    0.44550    0.56770    1.000
    H115     H        0.71720    0.42860    0.52370    1.000
    C189     C        0.65290    0.49130    0.56730    1.000
    H116     H        0.63070    0.50480    0.52320    1.000
    C190     C        0.78910    0.37390    0.63420    1.000
    C191     C        0.78240    0.34050    0.69270    1.000
    H117     H        0.74540    0.35000    0.73270    1.000
    C192     C        0.82880    0.29300    0.69420    1.000
    H118     H        0.82370    0.27150    0.73520    1.000
    C193     C        0.88260    0.27760    0.63520    1.000
    C194     C        0.88350    0.30850    0.57570    1.000
    H119     H        0.91560    0.29760    0.53390    1.000
    C195     C        0.83800    0.35600    0.57510    1.000
    H120     H        0.84090    0.37650    0.53300    1.000
    C196     C        0.93030    0.22600    0.63710    1.000
    C197     C        0.32130    0.65180    0.63460    1.000
    C198     C        0.22840    0.65720    0.67020    1.000
    C199     C        0.21630    0.64900    0.74460    1.000
    H121     H        0.26810    0.64170    0.77420    1.000
    C200     C        0.12690    0.65160    0.77510    1.000
    H122     H        0.11970    0.64530    0.82510    1.000
    C201     C        0.04810    0.66310    0.73370    1.000
    C202     C        0.06190    0.67300    0.66010    1.000
    H123     H        0.01050    0.68180    0.63100    1.000
    C203     C        0.14990    0.67020    0.62850    1.000
    H124     H        0.15690    0.67710    0.57870    1.000
    C204     C        0.46100    0.68700    0.40500    1.000
    H125     H        0.44010    0.71650    0.42990    1.000
    C205     C        0.46600    0.68910    0.32900    1.000
    H126     H        0.44900    0.71920    0.30390    1.000
    C206     C        0.49690    0.64530    0.29100    1.000
    C207     C        0.52110    0.60160    0.33120    1.000
    H127     H        0.54140    0.57150    0.30750    1.000
    C208     C        0.51490    0.60310    0.40720    1.000
    H128     H        0.53270    0.57380    0.43380    1.000
    Co11     Co       0.00000    0.14477    0.75000    1.000
    Co12     Co       0.50000    0.64477    0.75000    1.000
