# CIF file generated by openbabel 3.1.0, see https://openbabel.org
data_I
_chemical_name_common 'image0'
_cell_length_a 9.117
_cell_length_b 9.452
_cell_length_c 10.914
_cell_angle_alpha 97.53
_cell_angle_beta 92.11
_cell_angle_gamma 103.25
_space_group_name_H-M_alt 'P 1'
_space_group_name_Hall 'P 1'
loop_
    _symmetry_equiv_pos_as_xyz
    x,y,z
loop_
    _atom_site_label
    _atom_site_type_symbol
    _atom_site_fract_x
    _atom_site_fract_y
    _atom_site_fract_z
    _atom_site_occupancy
    C1       C        0.69060    0.31610    0.23220    1.000
    C2       C        0.61780    0.31170    0.35580    1.000
    C3       C        0.45800    0.26740    0.35540    1.000
    H1       H        0.39850    0.23350    0.28180    1.000
    C4       C        0.39320    0.27650    0.46920    1.000
    C5       C        0.47980    0.32680    0.58090    1.000
    H2       H        0.43320    0.33340    0.65520    1.000
    C6       C        0.63820    0.36760    0.58050    1.000
    C7       C        0.70760    0.36270    0.46820    1.000
    H3       H        0.81210    0.39270    0.46760    1.000
    C8       C        0.73050    0.42340    0.70310    1.000
    C9       C        0.13970    0.12930    0.40470    1.000
    C10      C        0.17840    0.99920    0.35780    1.000
    H4       H        0.27570    0.98790    0.37370    1.000
    C11      C        0.07240    0.88750    0.28790    1.000
    H5       H        0.09940    0.80120    0.25710    1.000
    C12      C        0.92510    0.90080    0.26230    1.000
    C13      C        0.88640    0.03040    0.31260    1.000
    H6       H        0.78840    0.04080    0.29840    1.000
    C14      C        0.99370    0.14510    0.38430    1.000
    H7       H        0.96700    0.23060    0.41770    1.000
    C15      C        0.81060    0.78190    0.18430    1.000
    Co1      Co       0.64360    0.36245    0.96621    1.000
    Co2      Co       0.97779    0.49263    0.14119    1.000
    N1       N        0.67500    0.80230    0.14720    1.000
    N2       N        0.60120    0.67260    0.07770    1.000
    N3       N        0.68800    0.57910    0.07300    1.000
    N4       N        0.82230    0.64350    0.14040    1.000
    O1       O        0.87550    0.38070    0.97150    1.000
    O2       O        0.83400    0.36520    0.24080    1.000
    O3       O        0.60790    0.27490    0.13200    1.000
    O4       O        0.87270    0.43580    0.70340    1.000
    O5       O        0.66220    0.45980    0.79880    1.000
    O6       O        0.23630    0.24880    0.47870    1.000
    C16      C        0.30940    0.68390    0.76780    1.000
    C17      C        0.38220    0.68830    0.64420    1.000
    C18      C        0.54200    0.73260    0.64460    1.000
    H8       H        0.60150    0.76650    0.71820    1.000
    C19      C        0.60680    0.72350    0.53080    1.000
    C20      C        0.52020    0.67320    0.41910    1.000
    H9       H        0.56680    0.66660    0.34480    1.000
    C21      C        0.36180    0.63240    0.41950    1.000
    C22      C        0.29240    0.63730    0.53180    1.000
    H10      H        0.18790    0.60730    0.53240    1.000
    C23      C        0.26950    0.57660    0.29690    1.000
    C24      C        0.86030    0.87070    0.59530    1.000
    C25      C        0.82160    0.00080    0.64220    1.000
    H11      H        0.72430    0.01210    0.62630    1.000
    C26      C        0.92760    0.11250    0.71210    1.000
    H12      H        0.90060    0.19880    0.74290    1.000
    C27      C        0.07490    0.09920    0.73770    1.000
    C28      C        0.11360    0.96960    0.68740    1.000
    H13      H        0.21160    0.95920    0.70160    1.000
    C29      C        0.00630    0.85490    0.61570    1.000
    H14      H        0.03300    0.76940    0.58230    1.000
    C30      C        0.18940    0.21810    0.81570    1.000
    Co3      Co       0.35640    0.63755    0.03379    1.000
    Co4      Co       0.02221    0.50737    0.85881    1.000
    N5       N        0.32500    0.19770    0.85280    1.000
    N6       N        0.39880    0.32740    0.92230    1.000
    N7       N        0.31200    0.42090    0.92700    1.000
    N8       N        0.17770    0.35650    0.85960    1.000
    O7       O        0.12450    0.61930    0.02850    1.000
    O8       O        0.16600    0.63480    0.75920    1.000
    O9       O        0.39210    0.72510    0.86800    1.000
    O10      O        0.12730    0.56420    0.29660    1.000
    O11      O        0.33780    0.54020    0.20120    1.000
    O12      O        0.76370    0.75120    0.52130    1.000
