data_functionalizedCrystal
_audit_creation_method	'EQeq! by Chris Wilmer'
_symmetry_space_group_name_H-M	'P1'
_symmetry_Int_Tables_number	1
_symmetry_cell_setting	triclinic
loop_
_symmetry_equiv_pos_as_xyz
  x,y,z
_cell_length_a	7.943
_cell_length_b	7.943
_cell_length_c	12.8125
_cell_angle_alpha	90
_cell_angle_beta	90
_cell_angle_gamma	90
loop_
_atom_site_label
_atom_site_type_symbol
_atom_site_fract_x
_atom_site_fract_y
_atom_site_fract_z
_atom_site_charge
Mof_Mg	Mg	0.46953	0.11794	0.787	1.466
Mof_Mg	Mg	0.53047	0.88206	0.287	1.465
Mof_Mg	Mg	0.88206	0.46953	0.037	1.46
Mof_Mg	Mg	0.11794	0.53047	0.537	1.466
Mof_H 	H 	0.4055	0.0737	0.9796	0.373
Mof_H 	H 	0.2979	0.8409	0.9952	-0.005
Mof_H 	H 	0.6176	0.7409	0.9149	0.157
Mof_H 	H 	0.4833	0.6064	0.9473	0.171
Mof_H 	H 	0.5945	0.9263	0.4796	0.347
Mof_H 	H 	0.7021	0.1591	0.4952	-0.043
Mof_H 	H 	0.3824	0.2591	0.4149	0.18
Mof_H 	H 	0.5167	0.3936	0.4473	0.189
Mof_H 	H 	0.9263	0.4055	0.2296	0.347
Mof_H 	H 	0.1591	0.2979	0.2452	-0.042
Mof_H 	H 	0.2591	0.6176	0.1649	0.166
Mof_H 	H 	0.3936	0.4833	0.1973	0.181
Mof_H 	H 	0.0737	0.5945	0.7296	0.349
Mof_H 	H 	0.8409	0.7021	0.7452	-0.038
Mof_H 	H 	0.7409	0.3824	0.6649	0.18
Mof_H 	H 	0.6064	0.5167	0.6973	0.188
Mof_C 	C 	0.3	0.8037	0.8351	0.226
Mof_C 	C 	0.3824	0.847	0.9396	0.196
Mof_C 	C 	0.5247	0.7188	0.9621	-0.424
Mof_C 	C 	0.5895	0.7234	0.0725	0.467
Mof_C 	C 	0.7	0.1963	0.3351	0.213
Mof_C 	C 	0.6176	0.153	0.4396	0.23
Mof_C 	C 	0.4753	0.2812	0.4621	-0.551
Mof_C 	C 	0.4105	0.2766	0.5725	0.564
Mof_C 	C 	0.1963	0.3	0.0851	0.218
Mof_C 	C 	0.153	0.3824	0.1896	0.222
Mof_C 	C 	0.2812	0.5247	0.2121	-0.54
Mof_C 	C 	0.2766	0.5895	0.3225	0.559
Mof_C 	C 	0.8037	0.7	0.5851	0.213
Mof_C 	C 	0.847	0.6176	0.6896	0.228
Mof_C 	C 	0.7188	0.4753	0.7121	-0.545
Mof_C 	C 	0.7234	0.4105	0.8225	0.559
Mof_O 	O 	0.3315	0.8966	0.7577	-0.442
Mof_O 	O 	0.2106	0.6742	0.8332	-0.284
Mof_O 	O 	0.6999	0.6181	0.0993	-0.601
Mof_O 	O 	0.5252	0.8287	0.1341	-0.569
Mof_O 	O 	0.4504	0.0151	0.9349	-0.672
Mof_O 	O 	0.6685	0.1034	0.2577	-0.451
Mof_O 	O 	0.7894	0.3258	0.3332	-0.296
Mof_O 	O 	0.3001	0.3819	0.5993	-0.599
Mof_O 	O 	0.4748	0.1713	0.6341	-0.568
Mof_O 	O 	0.5496	0.9849	0.4349	-0.688
Mof_O 	O 	0.1034	0.3315	0.0077	-0.485
Mof_O 	O 	0.3258	0.2106	0.0832	-0.328
Mof_O 	O 	0.3819	0.6999	0.3493	-0.602
Mof_O 	O 	0.1713	0.5252	0.3841	-0.569
Mof_O 	O 	0.9849	0.4504	0.1849	-0.697
Mof_O 	O 	0.8966	0.6685	0.5077	-0.444
Mof_O 	O 	0.6742	0.7894	0.5832	-0.293
Mof_O 	O 	0.6181	0.3001	0.8493	-0.582
Mof_O 	O 	0.8287	0.4748	0.8841	-0.538
Mof_O 	O 	0.0151	0.5496	0.6849	-0.684
_end
