# CIF file generated by openbabel 3.1.0, see https://openbabel.org
data_I
_chemical_name_common 'image0'
_cell_length_a 10.004
_cell_length_b 10.293
_cell_length_c 17.914
_cell_angle_alpha 103.66
_cell_angle_beta 99.58
_cell_angle_gamma 93.45
_space_group_name_H-M_alt 'P 1'
_space_group_name_Hall 'P 1'
loop_
    _symmetry_equiv_pos_as_xyz
    x,y,z
loop_
    _atom_site_label
    _atom_site_type_symbol
    _atom_site_fract_x
    _atom_site_fract_y
    _atom_site_fract_z
    _atom_site_occupancy
    C1       C        0.68290    0.49550    0.71640    1.000
    C2       C        0.57960    0.52410    0.76927    1.000
    C3       C        0.44190    0.49770    0.73620    1.000
    H1       H        0.41520    0.46570    0.68230    1.000
    C4       C        0.34400    0.51890    0.78291    1.000
    C5       C        0.19540    0.49030    0.74710    1.000
    C6       C        0.38370    0.56880    0.86310    1.000
    H2       H        0.31810    0.58200    0.89460    1.000
    C7       C        0.52090    0.59910    0.89677    1.000
    C8       C        0.61860    0.57640    0.84910    1.000
    H3       H        0.71070    0.59660    0.87120    1.000
    C9       C        0.49580    0.73440    0.02510    1.000
    C10      C        0.54770    0.76580    0.11120    1.000
    C11      C        0.68590    0.78230    0.14410    1.000
    H4       H        0.75070    0.76860    0.11210    1.000
    C12      C        0.72640    0.81930    0.22470    1.000
    H5       H        0.81870    0.83110    0.24660    1.000
    C13      C        0.63120    0.83860    0.27270    1.000
    C14      C        0.49400    0.81850    0.24010    1.000
    H6       H        0.42940    0.82980    0.27230    1.000
    C15      C        0.45230    0.78160    0.15990    1.000
    H7       H        0.35980    0.76730    0.13840    1.000
    C16      C        0.67160    0.89100    0.35960    1.000
    C17      C        0.82050    0.86760    0.47820    1.000
    C18      C        0.85390    0.76670    0.51550    1.000
    H8       H        0.84240    0.67730    0.48730    1.000
    C19      C        0.90460    0.80060    0.59550    1.000
    C20      C        0.93760    0.69370    0.63920    1.000
    C21      C        0.92160    0.93430    0.63740    1.000
    H9       H        0.95550    0.95660    0.69090    1.000
    C22      C        0.88810    0.03550    0.59987    1.000
    C23      C        0.90710    0.18000    0.64590    1.000
    C24      C        0.84030    0.00090    0.52000    1.000
    H10      H        0.82120    0.06800    0.49410    1.000
    N1       N        0.76860    0.83050    0.39606    1.000
    H11      H        0.80170    0.76500    0.36790    1.000
    N2       N        0.56360    0.64950    0.97849    1.000
    H12      H        0.63770    0.62450    0.00010    1.000
    O1       O        0.80640    0.49560    0.74891    1.000
    O2       O        0.64300    0.47590    0.64537    1.000
    O3       O        0.16120    0.43410    0.67511    1.000
    O4       O        0.10770    0.52220    0.78863    1.000
    O5       O        0.39470    0.78370    0.99959    1.000
    O6       O        0.61590    0.98410    0.39305    1.000
    O7       O        0.91250    0.57120    0.60148    1.000
    O8       O        0.98650    0.72960    0.70941    1.000
    O9       O        0.94260    0.20810    0.71797    1.000
    O10      O        0.88710    0.27030    0.60817    1.000
    Zn1      Zn       0.94399    0.45780    0.67947    1.000
    C25      C        0.31710    0.50450    0.28360    1.000
    C26      C        0.42040    0.47590    0.23073    1.000
    C27      C        0.55810    0.50230    0.26380    1.000
    H13      H        0.58480    0.53430    0.31770    1.000
    C28      C        0.65600    0.48110    0.21709    1.000
    C29      C        0.80460    0.50970    0.25290    1.000
    C30      C        0.61630    0.43120    0.13690    1.000
    H14      H        0.68190    0.41800    0.10540    1.000
    C31      C        0.47910    0.40090    0.10323    1.000
    C32      C        0.38140    0.42360    0.15090    1.000
    H15      H        0.28930    0.40340    0.12880    1.000
    C33      C        0.50420    0.26560    0.97490    1.000
    C34      C        0.45230    0.23420    0.88880    1.000
    C35      C        0.31410    0.21770    0.85590    1.000
    H16      H        0.24930    0.23140    0.88790    1.000
    C36      C        0.27360    0.18070    0.77530    1.000
    H17      H        0.18130    0.16890    0.75340    1.000
    C37      C        0.36880    0.16140    0.72730    1.000
    C38      C        0.50600    0.18150    0.75990    1.000
    H18      H        0.57060    0.17020    0.72770    1.000
    C39      C        0.54770    0.21840    0.84010    1.000
    H19      H        0.64020    0.23270    0.86160    1.000
    C40      C        0.32840    0.10900    0.64040    1.000
    C41      C        0.17950    0.13240    0.52180    1.000
    C42      C        0.14610    0.23330    0.48450    1.000
    H20      H        0.15760    0.32270    0.51270    1.000
    C43      C        0.09540    0.19940    0.40450    1.000
    C44      C        0.06240    0.30630    0.36080    1.000
    C45      C        0.07840    0.06570    0.36260    1.000
    H21      H        0.04450    0.04340    0.30910    1.000
    C46      C        0.11190    0.96450    0.40013    1.000
    C47      C        0.09290    0.82000    0.35410    1.000
    C48      C        0.15970    0.99910    0.48000    1.000
    H22      H        0.17880    0.93200    0.50590    1.000
    N3       N        0.23140    0.16950    0.60394    1.000
    H23      H        0.19830    0.23500    0.63210    1.000
    N4       N        0.43640    0.35050    0.02151    1.000
    H24      H        0.36230    0.37550    0.99990    1.000
    O11      O        0.19360    0.50440    0.25109    1.000
    O12      O        0.35700    0.52410    0.35463    1.000
    O13      O        0.83880    0.56590    0.32489    1.000
    O14      O        0.89230    0.47780    0.21137    1.000
    O15      O        0.60530    0.21630    0.00041    1.000
    O16      O        0.38410    0.01590    0.60695    1.000
    O17      O        0.08750    0.42880    0.39852    1.000
    O18      O        0.01350    0.27040    0.29059    1.000
    O19      O        0.05740    0.79190    0.28203    1.000
    O20      O        0.11290    0.72970    0.39183    1.000
    Zn2      Zn       0.05601    0.54220    0.32053    1.000
