# CIF file generated by openbabel 3.1.0, see https://openbabel.org
data_I
_chemical_name_common 'image0'
_cell_length_a 19.1758
_cell_length_b 10.9867
_cell_length_c 33.4105
_cell_angle_alpha 90
_cell_angle_beta 103.273
_cell_angle_gamma 90
_space_group_name_H-M_alt 'P 1'
_space_group_name_Hall 'P 1'
loop_
    _symmetry_equiv_pos_as_xyz
    x,y,z
loop_
    _atom_site_label
    _atom_site_type_symbol
    _atom_site_fract_x
    _atom_site_fract_y
    _atom_site_fract_z
    _atom_site_occupancy
    Eu1      Eu       0.01301    0.18479    0.18668    1.000
    Eu2      Eu       0.00349    0.05911    0.05576    1.000
    Cl1      Cl       0.92194    0.08659    0.11528    1.000
    O1       O        0.03180    0.33670    0.13901    1.000
    O2       O        0.05630    0.23760    0.08591    1.000
    O3       O        0.01880    0.87080    0.01979    1.000
    O4       O        0.07220    0.76830    0.97866    1.000
    C1       C        0.05410    0.45280    0.08284    1.000
    C2       C        0.03330    0.56090    0.09700    1.000
    H1       H        0.01960    0.56350    0.12190    1.000
    C3       C        0.03290    0.66720    0.07400    1.000
    H2       H        0.01590    0.73930    0.08290    1.000
    C4       C        0.05700    0.66610    0.03870    1.000
    C5       C        0.08080    0.55700    0.02540    1.000
    H3       H        0.09840    0.55560    0.00170    1.000
    C6       C        0.07830    0.45110    0.04710    1.000
    H4       H        0.09310    0.37810    0.03760    1.000
    C7       C        0.04730    0.33370    0.10440    1.000
    C8       C        0.05110    0.77510    0.01110    1.000
    O5       O        0.09600    0.07370    0.16113    1.000
    O6       O        0.07910    0.94780    0.10800    1.000
    O7       O        0.38110    0.72000    0.26413    1.000
    O8       O        0.40140    0.67700    0.20280    1.000
    C9       C        0.17150    0.90270    0.16647    1.000
    C10      C        0.19830    0.80880    0.14630    1.000
    H5       H        0.17430    0.78600    0.12000    1.000
    C11      C        0.26030    0.74970    0.16540    1.000
    H6       H        0.27940    0.68990    0.15140    1.000
    C12      C        0.29400    0.77850    0.20510    1.000
    C13      C        0.26510    0.86800    0.22600    1.000
    H7       H        0.28680    0.88590    0.25320    1.000
    C14      C        0.20450    0.92990    0.20650    1.000
    H8       H        0.18570    0.99040    0.22040    1.000
    C15      C        0.10990    0.98000    0.14394    1.000
    C16      C        0.36390    0.72030    0.22570    1.000
    O9       O        0.99630    0.37340    0.21641    1.000
    O10      O        0.01800    0.00020    0.22042    1.000
    C17      C        0.02830    0.62350    0.22170    1.000
    H9       H        0.04700    0.58100    0.20240    1.000
    C18      C        0.02900    0.75010    0.22180    1.000
    H10      H        0.04890    0.79230    0.20310    1.000
    O11      O        0.89320    0.96970    0.02806    1.000
    O12      O        0.88390    0.92110    0.96224    1.000
    C19      C        0.80490    0.82880    0.99770    1.000
    C20      C        0.77530    0.83110    0.03200    1.000
    H11      H        0.79230    0.88530    0.05340    1.000
    C21      C        0.77960    0.74860    0.96620    1.000
    H12      H        0.79960    0.74800    0.94340    1.000
    C22      C        0.86560    0.91300    0.99600    1.000
    Eu3      Eu       0.51301    0.68479    0.18668    1.000
    Eu4      Eu       0.50349    0.55911    0.05576    1.000
    Cl2      Cl       0.42194    0.58659    0.11528    1.000
    O13      O        0.53180    0.83670    0.13901    1.000
    O14      O        0.55630    0.73760    0.08591    1.000
    O15      O        0.51880    0.37080    0.01979    1.000
    O16      O        0.57220    0.26830    0.97866    1.000
    C23      C        0.55410    0.95280    0.08284    1.000
    C24      C        0.53330    0.06090    0.09700    1.000
    H13      H        0.51960    0.06350    0.12190    1.000
    C25      C        0.53290    0.16720    0.07400    1.000
    H14      H        0.51590    0.23930    0.08290    1.000
    C26      C        0.55700    0.16610    0.03870    1.000
    C27      C        0.58080    0.05700    0.02540    1.000
    H15      H        0.59840    0.05560    0.00170    1.000
    C28      C        0.57830    0.95110    0.04710    1.000
    H16      H        0.59310    0.87810    0.03760    1.000
    C29      C        0.54730    0.83370    0.10440    1.000
    C30      C        0.55110    0.27510    0.01110    1.000
    O17      O        0.59600    0.57370    0.16113    1.000
    O18      O        0.57910    0.44780    0.10800    1.000
    O19      O        0.88110    0.22000    0.26413    1.000
    O20      O        0.90140    0.17700    0.20280    1.000
    C31      C        0.67150    0.40270    0.16647    1.000
    C32      C        0.69830    0.30880    0.14630    1.000
    H17      H        0.67430    0.28600    0.12000    1.000
    C33      C        0.76030    0.24970    0.16540    1.000
    H18      H        0.77940    0.18990    0.15140    1.000
    C34      C        0.79400    0.27850    0.20510    1.000
    C35      C        0.76510    0.36800    0.22600    1.000
    H19      H        0.78680    0.38590    0.25320    1.000
    C36      C        0.70450    0.42990    0.20650    1.000
    H20      H        0.68570    0.49040    0.22040    1.000
    C37      C        0.60990    0.48000    0.14394    1.000
    C38      C        0.86390    0.22030    0.22570    1.000
    O21      O        0.49630    0.87340    0.21641    1.000
    O22      O        0.51800    0.50020    0.22042    1.000
    C39      C        0.52830    0.12350    0.22170    1.000
    H21      H        0.54700    0.08100    0.20240    1.000
    C40      C        0.52900    0.25010    0.22180    1.000
    H22      H        0.54890    0.29230    0.20310    1.000
    O23      O        0.39320    0.46970    0.02806    1.000
    O24      O        0.38390    0.42110    0.96224    1.000
    C41      C        0.30490    0.32880    0.99770    1.000
    C42      C        0.27530    0.33110    0.03200    1.000
    H23      H        0.29230    0.38530    0.05340    1.000
    C43      C        0.27960    0.24860    0.96620    1.000
    H24      H        0.29960    0.24800    0.94340    1.000
    C44      C        0.36560    0.41300    0.99600    1.000
    Eu5      Eu       0.98699    0.18479    0.31332    1.000
    Eu6      Eu       0.99651    0.05911    0.44424    1.000
    Cl3      Cl       0.07806    0.08659    0.38472    1.000
    O25      O        0.96820    0.33670    0.36099    1.000
    O26      O        0.94370    0.23760    0.41409    1.000
    O27      O        0.98120    0.87080    0.48021    1.000
    O28      O        0.92780    0.76830    0.52134    1.000
    C45      C        0.94590    0.45280    0.41716    1.000
    C46      C        0.96670    0.56090    0.40300    1.000
    H25      H        0.98040    0.56350    0.37810    1.000
    C47      C        0.96710    0.66720    0.42600    1.000
    H26      H        0.98410    0.73930    0.41710    1.000
    C48      C        0.94300    0.66610    0.46130    1.000
    C49      C        0.91920    0.55700    0.47460    1.000
    H27      H        0.90160    0.55560    0.49830    1.000
    C50      C        0.92170    0.45110    0.45290    1.000
    H28      H        0.90690    0.37810    0.46240    1.000
    C51      C        0.95270    0.33370    0.39560    1.000
    C52      C        0.94890    0.77510    0.48890    1.000
    O29      O        0.90400    0.07370    0.33887    1.000
    O30      O        0.92090    0.94780    0.39200    1.000
    O31      O        0.61890    0.72000    0.23587    1.000
    O32      O        0.59860    0.67700    0.29720    1.000
    C53      C        0.82850    0.90270    0.33353    1.000
    C54      C        0.80170    0.80880    0.35370    1.000
    H29      H        0.82570    0.78600    0.38000    1.000
    C55      C        0.73970    0.74970    0.33460    1.000
    H30      H        0.72060    0.68990    0.34860    1.000
    C56      C        0.70600    0.77850    0.29490    1.000
    C57      C        0.73490    0.86800    0.27400    1.000
    H31      H        0.71320    0.88590    0.24680    1.000
    C58      C        0.79550    0.92990    0.29350    1.000
    H32      H        0.81430    0.99040    0.27960    1.000
    C59      C        0.89010    0.98000    0.35606    1.000
    C60      C        0.63610    0.72030    0.27430    1.000
    O33      O        0.00370    0.37340    0.28359    1.000
    O34      O        0.98200    0.00020    0.27958    1.000
    C61      C        0.97170    0.62350    0.27830    1.000
    H33      H        0.95300    0.58100    0.29760    1.000
    C62      C        0.97100    0.75010    0.27820    1.000
    H34      H        0.95110    0.79230    0.29690    1.000
    O35      O        0.10680    0.96970    0.47194    1.000
    O36      O        0.11610    0.92110    0.53776    1.000
    C63      C        0.19510    0.82880    0.50230    1.000
    C64      C        0.22470    0.83110    0.46800    1.000
    H35      H        0.20770    0.88530    0.44660    1.000
    C65      C        0.22040    0.74860    0.53380    1.000
    H36      H        0.20040    0.74800    0.55660    1.000
    C66      C        0.13440    0.91300    0.50400    1.000
    Eu7      Eu       0.48699    0.68479    0.31332    1.000
    Eu8      Eu       0.49651    0.55911    0.44424    1.000
    Cl4      Cl       0.57806    0.58659    0.38472    1.000
    O37      O        0.46820    0.83670    0.36099    1.000
    O38      O        0.44370    0.73760    0.41409    1.000
    O39      O        0.48120    0.37080    0.48021    1.000
    O40      O        0.42780    0.26830    0.52134    1.000
    C67      C        0.44590    0.95280    0.41716    1.000
    C68      C        0.46670    0.06090    0.40300    1.000
    H37      H        0.48040    0.06350    0.37810    1.000
    C69      C        0.46710    0.16720    0.42600    1.000
    H38      H        0.48410    0.23930    0.41710    1.000
    C70      C        0.44300    0.16610    0.46130    1.000
    C71      C        0.41920    0.05700    0.47460    1.000
    H39      H        0.40160    0.05560    0.49830    1.000
    C72      C        0.42170    0.95110    0.45290    1.000
    H40      H        0.40690    0.87810    0.46240    1.000
    C73      C        0.45270    0.83370    0.39560    1.000
    C74      C        0.44890    0.27510    0.48890    1.000
    O41      O        0.40400    0.57370    0.33887    1.000
    O42      O        0.42090    0.44780    0.39200    1.000
    O43      O        0.11890    0.22000    0.23587    1.000
    O44      O        0.09860    0.17700    0.29720    1.000
    C75      C        0.32850    0.40270    0.33353    1.000
    C76      C        0.30170    0.30880    0.35370    1.000
    H41      H        0.32570    0.28600    0.38000    1.000
    C77      C        0.23970    0.24970    0.33460    1.000
    H42      H        0.22060    0.18990    0.34860    1.000
    C78      C        0.20600    0.27850    0.29490    1.000
    C79      C        0.23490    0.36800    0.27400    1.000
    H43      H        0.21320    0.38590    0.24680    1.000
    C80      C        0.29550    0.42990    0.29350    1.000
    H44      H        0.31430    0.49040    0.27960    1.000
    C81      C        0.39010    0.48000    0.35606    1.000
    C82      C        0.13610    0.22030    0.27430    1.000
    O45      O        0.50370    0.87340    0.28359    1.000
    O46      O        0.48200    0.50020    0.27958    1.000
    C83      C        0.47170    0.12350    0.27830    1.000
    H45      H        0.45300    0.08100    0.29760    1.000
    C84      C        0.47100    0.25010    0.27820    1.000
    H46      H        0.45110    0.29230    0.29690    1.000
    O47      O        0.60680    0.46970    0.47194    1.000
    O48      O        0.61610    0.42110    0.53776    1.000
    C85      C        0.69510    0.32880    0.50230    1.000
    C86      C        0.72470    0.33110    0.46800    1.000
    H47      H        0.70770    0.38530    0.44660    1.000
    C87      C        0.72040    0.24860    0.53380    1.000
    H48      H        0.70040    0.24800    0.55660    1.000
    C88      C        0.63440    0.41300    0.50400    1.000
    Eu9      Eu       0.98699    0.81521    0.81332    1.000
    Eu10     Eu       0.99651    0.94089    0.94424    1.000
    Cl5      Cl       0.07806    0.91341    0.88472    1.000
    O49      O        0.96820    0.66330    0.86099    1.000
    O50      O        0.94370    0.76240    0.91409    1.000
    O51      O        0.98120    0.12920    0.98021    1.000
    O52      O        0.92780    0.23170    0.02134    1.000
    C89      C        0.94590    0.54720    0.91716    1.000
    C90      C        0.96670    0.43910    0.90300    1.000
    H49      H        0.98040    0.43650    0.87810    1.000
    C91      C        0.96710    0.33280    0.92600    1.000
    H50      H        0.98410    0.26070    0.91710    1.000
    C92      C        0.94300    0.33390    0.96130    1.000
    C93      C        0.91920    0.44300    0.97460    1.000
    H51      H        0.90160    0.44440    0.99830    1.000
    C94      C        0.92170    0.54890    0.95290    1.000
    H52      H        0.90690    0.62190    0.96240    1.000
    C95      C        0.95270    0.66630    0.89560    1.000
    C96      C        0.94890    0.22490    0.98890    1.000
    O53      O        0.90400    0.92630    0.83887    1.000
    O54      O        0.92090    0.05220    0.89200    1.000
    O55      O        0.61890    0.28000    0.73587    1.000
    O56      O        0.59860    0.32300    0.79720    1.000
    C97      C        0.82850    0.09730    0.83353    1.000
    C98      C        0.80170    0.19120    0.85370    1.000
    H53      H        0.82570    0.21400    0.88000    1.000
    C99      C        0.73970    0.25030    0.83460    1.000
    H54      H        0.72060    0.31010    0.84860    1.000
    C100     C        0.70600    0.22150    0.79490    1.000
    C101     C        0.73490    0.13200    0.77400    1.000
    H55      H        0.71320    0.11410    0.74680    1.000
    C102     C        0.79550    0.07010    0.79350    1.000
    H56      H        0.81430    0.00960    0.77960    1.000
    C103     C        0.89010    0.02000    0.85606    1.000
    C104     C        0.63610    0.27970    0.77430    1.000
    O57      O        0.00370    0.62660    0.78359    1.000
    O58      O        0.98200    0.99980    0.77958    1.000
    C105     C        0.97170    0.37650    0.77830    1.000
    H57      H        0.95300    0.41900    0.79760    1.000
    C106     C        0.97100    0.24990    0.77820    1.000
    H58      H        0.95110    0.20770    0.79690    1.000
    O59      O        0.10680    0.03030    0.97194    1.000
    O60      O        0.11610    0.07890    0.03776    1.000
    C107     C        0.19510    0.17120    0.00230    1.000
    C108     C        0.22470    0.16890    0.96800    1.000
    H59      H        0.20770    0.11470    0.94660    1.000
    C109     C        0.22040    0.25140    0.03380    1.000
    H60      H        0.20040    0.25200    0.05660    1.000
    C110     C        0.13440    0.08700    0.00400    1.000
    Eu11     Eu       0.48699    0.31521    0.81332    1.000
    Eu12     Eu       0.49651    0.44089    0.94424    1.000
    Cl6      Cl       0.57806    0.41341    0.88472    1.000
    O61      O        0.46820    0.16330    0.86099    1.000
    O62      O        0.44370    0.26240    0.91409    1.000
    O63      O        0.48120    0.62920    0.98021    1.000
    O64      O        0.42780    0.73170    0.02134    1.000
    C111     C        0.44590    0.04720    0.91716    1.000
    C112     C        0.46670    0.93910    0.90300    1.000
    H61      H        0.48040    0.93650    0.87810    1.000
    C113     C        0.46710    0.83280    0.92600    1.000
    H62      H        0.48410    0.76070    0.91710    1.000
    C114     C        0.44300    0.83390    0.96130    1.000
    C115     C        0.41920    0.94300    0.97460    1.000
    H63      H        0.40160    0.94440    0.99830    1.000
    C116     C        0.42170    0.04890    0.95290    1.000
    H64      H        0.40690    0.12190    0.96240    1.000
    C117     C        0.45270    0.16630    0.89560    1.000
    C118     C        0.44890    0.72490    0.98890    1.000
    O65      O        0.40400    0.42630    0.83887    1.000
    O66      O        0.42090    0.55220    0.89200    1.000
    O67      O        0.11890    0.78000    0.73587    1.000
    O68      O        0.09860    0.82300    0.79720    1.000
    C119     C        0.32850    0.59730    0.83353    1.000
    C120     C        0.30170    0.69120    0.85370    1.000
    H65      H        0.32570    0.71400    0.88000    1.000
    C121     C        0.23970    0.75030    0.83460    1.000
    H66      H        0.22060    0.81010    0.84860    1.000
    C122     C        0.20600    0.72150    0.79490    1.000
    C123     C        0.23490    0.63200    0.77400    1.000
    H67      H        0.21320    0.61410    0.74680    1.000
    C124     C        0.29550    0.57010    0.79350    1.000
    H68      H        0.31430    0.50960    0.77960    1.000
    C125     C        0.39010    0.52000    0.85606    1.000
    C126     C        0.13610    0.77970    0.77430    1.000
    O69      O        0.50370    0.12660    0.78359    1.000
    O70      O        0.48200    0.49980    0.77958    1.000
    C127     C        0.47170    0.87650    0.77830    1.000
    H69      H        0.45300    0.91900    0.79760    1.000
    C128     C        0.47100    0.74990    0.77820    1.000
    H70      H        0.45110    0.70770    0.79690    1.000
    O71      O        0.60680    0.53030    0.97194    1.000
    O72      O        0.61610    0.57890    0.03776    1.000
    C129     C        0.69510    0.67120    0.00230    1.000
    C130     C        0.72470    0.66890    0.96800    1.000
    H71      H        0.70770    0.61470    0.94660    1.000
    C131     C        0.72040    0.75140    0.03380    1.000
    H72      H        0.70040    0.75200    0.05660    1.000
    C132     C        0.63440    0.58700    0.00400    1.000
    Eu13     Eu       0.01301    0.81521    0.68668    1.000
    Eu14     Eu       0.00349    0.94089    0.55576    1.000
    Cl7      Cl       0.92194    0.91341    0.61528    1.000
    O73      O        0.03180    0.66330    0.63901    1.000
    O74      O        0.05630    0.76240    0.58591    1.000
    O75      O        0.01880    0.12920    0.51979    1.000
    O76      O        0.07220    0.23170    0.47866    1.000
    C133     C        0.05410    0.54720    0.58284    1.000
    C134     C        0.03330    0.43910    0.59700    1.000
    H73      H        0.01960    0.43650    0.62190    1.000
    C135     C        0.03290    0.33280    0.57400    1.000
    H74      H        0.01590    0.26070    0.58290    1.000
    C136     C        0.05700    0.33390    0.53870    1.000
    C137     C        0.08080    0.44300    0.52540    1.000
    H75      H        0.09840    0.44440    0.50170    1.000
    C138     C        0.07830    0.54890    0.54710    1.000
    H76      H        0.09310    0.62190    0.53760    1.000
    C139     C        0.04730    0.66630    0.60440    1.000
    C140     C        0.05110    0.22490    0.51110    1.000
    O77      O        0.09600    0.92630    0.66113    1.000
    O78      O        0.07910    0.05220    0.60800    1.000
    O79      O        0.38110    0.28000    0.76413    1.000
    O80      O        0.40140    0.32300    0.70280    1.000
    C141     C        0.17150    0.09730    0.66647    1.000
    C142     C        0.19830    0.19120    0.64630    1.000
    H77      H        0.17430    0.21400    0.62000    1.000
    C143     C        0.26030    0.25030    0.66540    1.000
    H78      H        0.27940    0.31010    0.65140    1.000
    C144     C        0.29400    0.22150    0.70510    1.000
    C145     C        0.26510    0.13200    0.72600    1.000
    H79      H        0.28680    0.11410    0.75320    1.000
    C146     C        0.20450    0.07010    0.70650    1.000
    H80      H        0.18570    0.00960    0.72040    1.000
    C147     C        0.10990    0.02000    0.64394    1.000
    C148     C        0.36390    0.27970    0.72570    1.000
    O81      O        0.99630    0.62660    0.71641    1.000
    O82      O        0.01800    0.99980    0.72042    1.000
    C149     C        0.02830    0.37650    0.72170    1.000
    H81      H        0.04700    0.41900    0.70240    1.000
    C150     C        0.02900    0.24990    0.72180    1.000
    H82      H        0.04890    0.20770    0.70310    1.000
    O83      O        0.89320    0.03030    0.52806    1.000
    O84      O        0.88390    0.07890    0.46224    1.000
    C151     C        0.80490    0.17120    0.49770    1.000
    C152     C        0.77530    0.16890    0.53200    1.000
    H83      H        0.79230    0.11470    0.55340    1.000
    C153     C        0.77960    0.25140    0.46620    1.000
    H84      H        0.79960    0.25200    0.44340    1.000
    C154     C        0.86560    0.08700    0.49600    1.000
    Eu15     Eu       0.51301    0.31521    0.68668    1.000
    Eu16     Eu       0.50349    0.44089    0.55576    1.000
    Cl8      Cl       0.42194    0.41341    0.61528    1.000
    O85      O        0.53180    0.16330    0.63901    1.000
    O86      O        0.55630    0.26240    0.58591    1.000
    O87      O        0.51880    0.62920    0.51979    1.000
    O88      O        0.57220    0.73170    0.47866    1.000
    C155     C        0.55410    0.04720    0.58284    1.000
    C156     C        0.53330    0.93910    0.59700    1.000
    H85      H        0.51960    0.93650    0.62190    1.000
    C157     C        0.53290    0.83280    0.57400    1.000
    H86      H        0.51590    0.76070    0.58290    1.000
    C158     C        0.55700    0.83390    0.53870    1.000
    C159     C        0.58080    0.94300    0.52540    1.000
    H87      H        0.59840    0.94440    0.50170    1.000
    C160     C        0.57830    0.04890    0.54710    1.000
    H88      H        0.59310    0.12190    0.53760    1.000
    C161     C        0.54730    0.16630    0.60440    1.000
    C162     C        0.55110    0.72490    0.51110    1.000
    O89      O        0.59600    0.42630    0.66113    1.000
    O90      O        0.57910    0.55220    0.60800    1.000
    O91      O        0.88110    0.78000    0.76413    1.000
    O92      O        0.90140    0.82300    0.70280    1.000
    C163     C        0.67150    0.59730    0.66647    1.000
    C164     C        0.69830    0.69120    0.64630    1.000
    H89      H        0.67430    0.71400    0.62000    1.000
    C165     C        0.76030    0.75030    0.66540    1.000
    H90      H        0.77940    0.81010    0.65140    1.000
    C166     C        0.79400    0.72150    0.70510    1.000
    C167     C        0.76510    0.63200    0.72600    1.000
    H91      H        0.78680    0.61410    0.75320    1.000
    C168     C        0.70450    0.57010    0.70650    1.000
    H92      H        0.68570    0.50960    0.72040    1.000
    C169     C        0.60990    0.52000    0.64394    1.000
    C170     C        0.86390    0.77970    0.72570    1.000
    O93      O        0.49630    0.12660    0.71641    1.000
    O94      O        0.51800    0.49980    0.72042    1.000
    C171     C        0.52830    0.87650    0.72170    1.000
    H93      H        0.54700    0.91900    0.70240    1.000
    C172     C        0.52900    0.74990    0.72180    1.000
    H94      H        0.54890    0.70770    0.70310    1.000
    O95      O        0.39320    0.53030    0.52806    1.000
    O96      O        0.38390    0.57890    0.46224    1.000
    C173     C        0.30490    0.67120    0.49770    1.000
    C174     C        0.27530    0.66890    0.53200    1.000
    H95      H        0.29230    0.61470    0.55340    1.000
    C175     C        0.27960    0.75140    0.46620    1.000
    H96      H        0.29960    0.75200    0.44340    1.000
    C176     C        0.36560    0.58700    0.49600    1.000
    C177     C        0.00000    0.56110    0.25000    1.000
    C178     C        0.00000    0.81270    0.25000    1.000
    C179     C        0.00000    0.42460    0.25000    1.000
    C180     C        0.00000    0.94910    0.25000    1.000
    C181     C        0.50000    0.06110    0.25000    1.000
    C182     C        0.50000    0.31270    0.25000    1.000
    C183     C        0.50000    0.92460    0.25000    1.000
    C184     C        0.50000    0.44910    0.25000    1.000
    C185     C        0.00000    0.43890    0.75000    1.000
    C186     C        0.00000    0.18730    0.75000    1.000
    C187     C        0.00000    0.57540    0.75000    1.000
    C188     C        0.00000    0.05090    0.75000    1.000
    C189     C        0.50000    0.93890    0.75000    1.000
    C190     C        0.50000    0.68730    0.75000    1.000
    C191     C        0.50000    0.07540    0.75000    1.000
    C192     C        0.50000    0.55090    0.75000    1.000
