data_functionalizedCrystal
_audit_creation_method	'EQeq! by Chris Wilmer'
_symmetry_space_group_name_H-M	'P1'
_symmetry_Int_Tables_number	1
_symmetry_cell_setting	triclinic
loop_
_symmetry_equiv_pos_as_xyz
  x,y,z
_cell_length_a	10.024
_cell_length_b	18.725
_cell_length_c	24.813
_cell_angle_alpha	90
_cell_angle_beta	90
_cell_angle_gamma	90
loop_
_atom_site_label
_atom_site_type_symbol
_atom_site_fract_x
_atom_site_fract_y
_atom_site_fract_z
_atom_site_charge
Mof_Rh	Rh	0.30612	0.17106	0.11315	0.947
Mof_Ag	Ag	0.37512	0.21471	0.96284	0.502
Mof_S 	S 	0.32003	0.26256	0.05059	-0.384
Mof_S 	S 	0.29342	0.08266	0.04771	-0.358
Mof_S 	S 	0.53499	0.16002	0.11771	-0.333
Mof_O 	O 	0.8455	0.2289	0.0895	-0.16
Mof_O 	O 	0.8965	0.3443	0.0927	-0.184
Mof_O 	O 	0.225	0.9684	0.2282	-0.201
Mof_O 	O 	0.1297	0.9117	0.1629	-0.235
Mof_H 	H 	0.1278	0.8783	0.1855	0.234
Mof_O 	O 	0.3702	0.304	0.2759	-0.525
Mof_O 	O 	0.589	0.3123	0.2632	0.142
Mof_H 	H 	0.6459	0.2944	0.2423	0.082
Mof_N 	N 	0.0994	0.1894	0.11081	-0.31
Mof_H 	H 	0.0605	0.1601	0.0856	0.117
Mof_H 	H 	0.0624	0.1793	0.1439	0.151
Mof_N 	N 	0.277	0.0875	0.16821	-0.303
Mof_H 	H 	0.3583	0.0727	0.1813	0.124
Mof_H 	H 	0.2273	0.1038	0.1968	0.121
Mof_N 	N 	0.3279	0.243	0.17712	-0.307
Mof_H 	H 	0.3268	0.2889	0.1638	0.114
Mof_H 	H 	0.2568	0.2381	0.2003	0.141
Mof_C 	C 	0.1427	0.2809	0.0436	-0.012
Mof_H 	H 	0.1289	0.3316	0.0337	0.038
Mof_H 	H 	0.1043	0.2507	0.0147	0.009
Mof_C 	C 	0.0742	0.2649	0.0968	-0.105
Mof_H 	H 	0.1129	0.2962	0.1254	0.071
Mof_C 	C 	0.9253	0.2798	0.0921	0.336
Mof_C 	C 	0.2856	0.0056	0.09357	-0.008
Mof_H 	H 	0.2409	0.965	0.0755	0.026
Mof_H 	H 	0.3769	0.9906	0.1038	0.009
Mof_C 	C 	0.2086	0.0271	0.143	-0.121
Mof_H 	H 	0.1163	0.0418	0.1324	0.075
Mof_C 	C 	0.2009	0.9646	0.1821	0.404
Mof_C 	C 	0.5672	0.2293	0.1679	-0.023
Mof_H 	H 	0.6513	0.2188	0.1873	0.066
Mof_H 	H 	0.5767	0.2762	0.1499	0.019
Mof_C 	C 	0.4527	0.2315	0.2072	-0.13
Mof_H 	H 	0.4467	0.1833	0.2244	0.076
Mof_C 	C 	0.4699	0.2857	0.2521	0.402
Mof_O 	O 	0.8405	0.2411	0.1013	-0.131
Mof_O 	O 	0.9052	0.3501	0.0765	-0.197
Mof_H 	H 	0.823	0.3582	0.074	0.197
Mof_O 	O 	0.2931	0.9548	0.2164	-0.122
Mof_O 	O 	0.1092	0.9241	0.1761	-0.197
Mof_O 	O 	0.3684	0.3249	0.2609	0.169
Mof_H 	H 	0.3852	0.3534	0.2861	0.084
Mof_O 	O 	0.5758	0.2918	0.277	-0.503
Mof_Rh	Rh	0.80612	0.67106	0.61315	0.955
Mof_Ag	Ag	0.87512	0.71471	0.46284	0.49
Mof_S 	S 	0.82003	0.76256	0.55059	-0.368
Mof_S 	S 	0.79342	0.58266	0.54771	-0.345
Mof_S 	S 	0.03499	0.66002	0.61771	-0.345
Mof_O 	O 	0.3455	0.7289	0.5895	-0.158
Mof_O 	O 	0.3965	0.8443	0.5927	-0.185
Mof_O 	O 	0.725	0.4684	0.7282	-0.199
Mof_O 	O 	0.6297	0.4117	0.6629	-0.231
Mof_H 	H 	0.6278	0.3783	0.6855	0.232
Mof_O 	O 	0.8702	0.804	0.7759	-0.524
Mof_O 	O 	0.089	0.8123	0.7632	0.128
Mof_H 	H 	0.1459	0.7944	0.7423	0.085
Mof_N 	N 	0.5994	0.6894	0.61081	-0.314
Mof_H 	H 	0.5605	0.6601	0.5856	0.122
Mof_H 	H 	0.5624	0.6793	0.6439	0.155
Mof_N 	N 	0.777	0.5875	0.66821	-0.305
Mof_H 	H 	0.8583	0.5727	0.6813	0.127
Mof_H 	H 	0.7273	0.6038	0.6968	0.122
Mof_N 	N 	0.8279	0.743	0.67712	-0.308
Mof_H 	H 	0.8268	0.7889	0.6638	0.116
Mof_H 	H 	0.7568	0.7381	0.7003	0.142
Mof_C 	C 	0.6427	0.7809	0.5436	-0.026
Mof_H 	H 	0.6289	0.8316	0.5337	0.049
Mof_H 	H 	0.6043	0.7507	0.5147	0.021
Mof_C 	C 	0.5742	0.7649	0.5968	-0.088
Mof_H 	H 	0.6129	0.7962	0.6254	0.069
Mof_C 	C 	0.4253	0.7798	0.5921	0.325
Mof_C 	C 	0.7856	0.5056	0.59357	-0.013
Mof_H 	H 	0.7409	0.465	0.5755	0.03
Mof_H 	H 	0.8769	0.4906	0.6038	0.013
Mof_C 	C 	0.7086	0.5271	0.643	-0.118
Mof_H 	H 	0.6163	0.5418	0.6324	0.077
Mof_C 	C 	0.7009	0.4646	0.6821	0.403
Mof_C 	C 	0.0672	0.7293	0.6679	-0.033
Mof_H 	H 	0.1513	0.7188	0.6873	0.067
Mof_H 	H 	0.0767	0.7762	0.6499	0.018
Mof_C 	C 	0.9527	0.7315	0.7072	-0.123
Mof_H 	H 	0.9467	0.6833	0.7244	0.077
Mof_C 	C 	0.9699	0.7857	0.7521	0.415
Mof_O 	O 	0.3405	0.7411	0.6013	-0.131
Mof_O 	O 	0.4052	0.8501	0.5765	-0.196
Mof_H 	H 	0.323	0.8582	0.574	0.198
Mof_O 	O 	0.7931	0.4548	0.7164	-0.12
Mof_O 	O 	0.6092	0.4241	0.6761	-0.196
Mof_O 	O 	0.8684	0.8249	0.7609	0.165
Mof_H 	H 	0.8852	0.8534	0.7861	0.089
Mof_O 	O 	0.0758	0.7918	0.777	-0.501
Mof_Rh	Rh	0.69388	0.82894	0.11315	0.948
Mof_Ag	Ag	0.62488	0.78529	0.96284	0.505
Mof_S 	S 	0.67997	0.73744	0.05059	-0.381
Mof_S 	S 	0.70658	0.91734	0.04771	-0.355
Mof_S 	S 	0.46501	0.83998	0.11771	-0.334
Mof_O 	O 	0.1545	0.7711	0.0895	-0.152
Mof_O 	O 	0.1035	0.6557	0.0927	-0.195
Mof_O 	O 	0.775	0.0316	0.2282	-0.196
Mof_O 	O 	0.8703	0.0883	0.1629	-0.227
Mof_H 	H 	0.8722	0.1217	0.1855	0.232
Mof_O 	O 	0.6298	0.696	0.2759	-0.52
Mof_O 	O 	0.411	0.6877	0.2632	0.142
Mof_H 	H 	0.3541	0.7056	0.2423	0.082
Mof_N 	N 	0.9006	0.8106	0.11081	-0.316
Mof_H 	H 	0.9395	0.8399	0.0856	0.124
Mof_H 	H 	0.9376	0.8207	0.1439	0.159
Mof_N 	N 	0.723	0.9125	0.16821	-0.304
Mof_H 	H 	0.6417	0.9273	0.1813	0.125
Mof_H 	H 	0.7727	0.8962	0.1968	0.122
Mof_N 	N 	0.6721	0.757	0.17712	-0.307
Mof_H 	H 	0.6732	0.7111	0.1638	0.115
Mof_H 	H 	0.7432	0.7619	0.2003	0.143
Mof_C 	C 	0.8573	0.7191	0.0436	-0.025
Mof_H 	H 	0.8711	0.6684	0.0337	0.047
Mof_H 	H 	0.8957	0.7493	0.0147	0.018
Mof_C 	C 	0.9258	0.7351	0.0968	-0.079
Mof_H 	H 	0.8871	0.7038	0.1254	0.068
Mof_C 	C 	0.0747	0.7202	0.0921	0.314
Mof_C 	C 	0.7144	0.9944	0.09357	-0.009
Mof_H 	H 	0.7591	0.035	0.0755	0.028
Mof_H 	H 	0.6231	0.0094	0.1038	0.009
Mof_C 	C 	0.7914	0.9729	0.143	-0.12
Mof_H 	H 	0.8837	0.9582	0.1324	0.08
Mof_C 	C 	0.7991	0.0354	0.1821	0.404
Mof_C 	C 	0.4328	0.7707	0.1679	-0.023
Mof_H 	H 	0.3487	0.7812	0.1873	0.065
Mof_H 	H 	0.4233	0.7238	0.1499	0.019
Mof_C 	C 	0.5473	0.7685	0.2072	-0.13
Mof_H 	H 	0.5533	0.8167	0.2244	0.076
Mof_C 	C 	0.5301	0.7143	0.2521	0.402
Mof_O 	O 	0.1595	0.7589	0.1013	-0.137
Mof_O 	O 	0.0948	0.6499	0.0765	-0.188
Mof_H 	H 	0.177	0.6418	0.074	0.195
Mof_O 	O 	0.7069	0.0452	0.2164	-0.125
Mof_O 	O 	0.8908	0.0759	0.1761	-0.196
Mof_O 	O 	0.6316	0.6751	0.2609	0.166
Mof_H 	H 	0.6148	0.6466	0.2861	0.085
Mof_O 	O 	0.4242	0.7082	0.277	-0.503
Mof_Rh	Rh	0.19388	0.32894	0.61315	0.936
Mof_Ag	Ag	0.12488	0.28529	0.46284	0.472
Mof_S 	S 	0.17997	0.23744	0.55059	-0.375
Mof_S 	S 	0.20658	0.41734	0.54771	-0.35
Mof_S 	S 	0.96501	0.33998	0.61771	-0.326
Mof_O 	O 	0.6545	0.2711	0.5895	-0.157
Mof_O 	O 	0.6035	0.1557	0.5927	-0.186
Mof_O 	O 	0.275	0.5316	0.7282	-0.197
Mof_O 	O 	0.3703	0.5883	0.6629	-0.232
Mof_H 	H 	0.3722	0.6217	0.6855	0.233
Mof_O 	O 	0.1298	0.196	0.7759	-0.518
Mof_O 	O 	0.911	0.1877	0.7632	0.155
Mof_H 	H 	0.8541	0.2056	0.7423	0.079
Mof_N 	N 	0.4006	0.3106	0.61081	-0.312
Mof_H 	H 	0.4395	0.3399	0.5856	0.122
Mof_H 	H 	0.4376	0.3207	0.6439	0.155
Mof_N 	N 	0.223	0.4125	0.66821	-0.302
Mof_H 	H 	0.1417	0.4273	0.6813	0.122
Mof_H 	H 	0.2727	0.3962	0.6968	0.121
Mof_N 	N 	0.1721	0.257	0.67712	-0.306
Mof_H 	H 	0.1732	0.2111	0.6638	0.113
Mof_H 	H 	0.2432	0.2619	0.7003	0.142
Mof_C 	C 	0.3573	0.2191	0.5436	-0.023
Mof_H 	H 	0.3711	0.1684	0.5337	0.047
Mof_H 	H 	0.3957	0.2493	0.5147	0.021
Mof_C 	C 	0.4258	0.2351	0.5968	-0.089
Mof_H 	H 	0.3871	0.2038	0.6254	0.069
Mof_C 	C 	0.5747	0.2202	0.5921	0.326
Mof_C 	C 	0.2144	0.4944	0.59357	-0.01
Mof_H 	H 	0.2591	0.535	0.5755	0.029
Mof_H 	H 	0.1231	0.5094	0.6038	0.007
Mof_C 	C 	0.2914	0.4729	0.643	-0.121
Mof_H 	H 	0.3837	0.4582	0.6324	0.078
Mof_C 	C 	0.2991	0.5354	0.6821	0.404
Mof_C 	C 	0.9328	0.2707	0.6679	-0.012
Mof_H 	H 	0.8487	0.2812	0.6873	0.064
Mof_H 	H 	0.9233	0.2238	0.6499	0.018
Mof_C 	C 	0.0473	0.2685	0.7072	-0.137
Mof_H 	H 	0.0533	0.3167	0.7244	0.075
Mof_C 	C 	0.0301	0.2143	0.7521	0.389
Mof_O 	O 	0.6595	0.2589	0.6013	-0.133
Mof_O 	O 	0.5948	0.1499	0.5765	-0.196
Mof_H 	H 	0.677	0.1418	0.574	0.199
Mof_O 	O 	0.2069	0.5452	0.7164	-0.127
Mof_O 	O 	0.3908	0.5759	0.6761	-0.195
Mof_O 	O 	0.1316	0.1751	0.7609	0.166
Mof_H 	H 	0.1148	0.1466	0.7861	0.081
Mof_O 	O 	0.9242	0.2082	0.777	-0.504
Mof_Rh	Rh	0.69388	0.17106	0.88685	0.944
Mof_Ag	Ag	0.62488	0.21471	0.03716	0.461
Mof_S 	S 	0.67997	0.26256	0.94941	-0.359
Mof_S 	S 	0.70658	0.08266	0.95229	-0.336
Mof_S 	S 	0.46501	0.16002	0.88229	-0.338
Mof_O 	O 	0.1545	0.2289	0.9105	-0.155
Mof_O 	O 	0.1035	0.3443	0.9073	-0.186
Mof_O 	O 	0.775	0.9684	0.7718	-0.196
Mof_O 	O 	0.8703	0.9117	0.8371	-0.228
Mof_H 	H 	0.8722	0.8783	0.8145	0.231
Mof_O 	O 	0.6298	0.304	0.7241	-0.517
Mof_O 	O 	0.411	0.3123	0.7368	0.14
Mof_H 	H 	0.3541	0.2944	0.7577	0.082
Mof_N 	N 	0.9006	0.1894	0.88919	-0.317
Mof_H 	H 	0.9395	0.1601	0.9144	0.127
Mof_H 	H 	0.9376	0.1793	0.8561	0.159
Mof_N 	N 	0.723	0.0875	0.83179	-0.304
Mof_H 	H 	0.6417	0.0727	0.8187	0.125
Mof_H 	H 	0.7727	0.1038	0.8032	0.122
Mof_N 	N 	0.6721	0.243	0.82288	-0.307
Mof_H 	H 	0.6732	0.2889	0.8362	0.115
Mof_H 	H 	0.7432	0.2381	0.7997	0.143
Mof_C 	C 	0.8573	0.2809	0.9564	-0.037
Mof_H 	H 	0.8711	0.3316	0.9663	0.058
Mof_H 	H 	0.8957	0.2507	0.9853	0.033
Mof_C 	C 	0.9258	0.2649	0.9032	-0.073
Mof_H 	H 	0.8871	0.2962	0.8746	0.067
Mof_C 	C 	0.0747	0.2798	0.9079	0.314
Mof_C 	C 	0.7144	0.0056	0.90643	-0.015
Mof_H 	H 	0.7591	0.965	0.9245	0.034
Mof_H 	H 	0.6231	0.9906	0.8962	0.012
Mof_C 	C 	0.7914	0.0271	0.857	-0.118
Mof_H 	H 	0.8837	0.0418	0.8676	0.08
Mof_C 	C 	0.7991	0.9646	0.8179	0.403
Mof_C 	C 	0.4328	0.2293	0.8321	-0.022
Mof_H 	H 	0.3487	0.2188	0.8127	0.065
Mof_H 	H 	0.4233	0.2762	0.8501	0.018
Mof_C 	C 	0.5473	0.2315	0.7928	-0.13
Mof_H 	H 	0.5533	0.1833	0.7756	0.076
Mof_C 	C 	0.5301	0.2857	0.7479	0.402
Mof_O 	O 	0.1595	0.2411	0.8987	-0.134
Mof_O 	O 	0.0948	0.3501	0.9235	-0.195
Mof_H 	H 	0.177	0.3582	0.926	0.2
Mof_O 	O 	0.7069	0.9548	0.7836	-0.125
Mof_O 	O 	0.8908	0.9241	0.8239	-0.195
Mof_O 	O 	0.6316	0.3249	0.7391	0.162
Mof_H 	H 	0.6148	0.3534	0.7139	0.086
Mof_O 	O 	0.4242	0.2918	0.723	-0.501
Mof_Rh	Rh	0.19388	0.67106	0.38685	0.937
Mof_Ag	Ag	0.12488	0.71471	0.53716	0.472
Mof_S 	S 	0.17997	0.76256	0.44941	-0.375
Mof_S 	S 	0.20658	0.58266	0.45229	-0.35
Mof_S 	S 	0.96501	0.66002	0.38229	-0.326
Mof_O 	O 	0.6545	0.7289	0.4105	-0.157
Mof_O 	O 	0.6035	0.8443	0.4073	-0.186
Mof_O 	O 	0.275	0.4684	0.2718	-0.198
Mof_O 	O 	0.3703	0.4117	0.3371	-0.232
Mof_H 	H 	0.3722	0.3783	0.3145	0.233
Mof_O 	O 	0.1298	0.804	0.2241	-0.518
Mof_O 	O 	0.911	0.8123	0.2368	0.155
Mof_H 	H 	0.8541	0.7944	0.2577	0.079
Mof_N 	N 	0.4006	0.6894	0.38919	-0.312
Mof_H 	H 	0.4395	0.6601	0.4144	0.122
Mof_H 	H 	0.4376	0.6793	0.3561	0.155
Mof_N 	N 	0.223	0.5875	0.33179	-0.302
Mof_H 	H 	0.1417	0.5727	0.3187	0.122
Mof_H 	H 	0.2727	0.6038	0.3032	0.121
Mof_N 	N 	0.1721	0.743	0.32288	-0.306
Mof_H 	H 	0.1732	0.7889	0.3362	0.113
Mof_H 	H 	0.2432	0.7381	0.2997	0.142
Mof_C 	C 	0.3573	0.7809	0.4564	-0.023
Mof_H 	H 	0.3711	0.8316	0.4663	0.047
Mof_H 	H 	0.3957	0.7507	0.4853	0.021
Mof_C 	C 	0.4258	0.7649	0.4032	-0.089
Mof_H 	H 	0.3871	0.7962	0.3746	0.069
Mof_C 	C 	0.5747	0.7798	0.4079	0.326
Mof_C 	C 	0.2144	0.5056	0.40643	-0.01
Mof_H 	H 	0.2591	0.465	0.4245	0.029
Mof_H 	H 	0.1231	0.4906	0.3962	0.007
Mof_C 	C 	0.2914	0.5271	0.357	-0.121
Mof_H 	H 	0.3837	0.5418	0.3676	0.078
Mof_C 	C 	0.2991	0.4646	0.3179	0.404
Mof_C 	C 	0.9328	0.7293	0.3321	-0.012
Mof_H 	H 	0.8487	0.7188	0.3127	0.064
Mof_H 	H 	0.9233	0.7762	0.3501	0.018
Mof_C 	C 	0.0473	0.7315	0.2928	-0.137
Mof_H 	H 	0.0533	0.6833	0.2756	0.075
Mof_C 	C 	0.0301	0.7857	0.2479	0.39
Mof_O 	O 	0.6595	0.7411	0.3987	-0.133
Mof_O 	O 	0.5948	0.8501	0.4235	-0.196
Mof_H 	H 	0.677	0.8582	0.426	0.199
Mof_O 	O 	0.2069	0.4548	0.2836	-0.127
Mof_O 	O 	0.3908	0.4241	0.3239	-0.195
Mof_O 	O 	0.1316	0.8249	0.2391	0.167
Mof_H 	H 	0.1148	0.8534	0.2139	0.081
Mof_O 	O 	0.9242	0.7918	0.223	-0.504
Mof_Rh	Rh	0.30612	0.82894	0.88685	0.944
Mof_Ag	Ag	0.37512	0.78529	0.03716	0.459
Mof_S 	S 	0.32003	0.73744	0.94941	-0.362
Mof_S 	S 	0.29342	0.91734	0.95229	-0.339
Mof_S 	S 	0.53499	0.83998	0.88229	-0.337
Mof_O 	O 	0.8455	0.7711	0.9105	-0.162
Mof_O 	O 	0.8965	0.6557	0.9073	-0.176
Mof_O 	O 	0.225	0.0316	0.7718	-0.201
Mof_O 	O 	0.1297	0.0883	0.8371	-0.235
Mof_H 	H 	0.1278	0.1217	0.8145	0.234
Mof_O 	O 	0.3702	0.696	0.7241	-0.522
Mof_O 	O 	0.589	0.6877	0.7368	0.141
Mof_H 	H 	0.6459	0.7056	0.7577	0.082
Mof_N 	N 	0.0994	0.8106	0.88919	-0.311
Mof_H 	H 	0.0605	0.8399	0.9144	0.12
Mof_H 	H 	0.0624	0.8207	0.8561	0.151
Mof_N 	N 	0.277	0.9125	0.83179	-0.303
Mof_H 	H 	0.3583	0.9273	0.8187	0.124
Mof_H 	H 	0.2273	0.8962	0.8032	0.121
Mof_N 	N 	0.3279	0.757	0.82288	-0.307
Mof_H 	H 	0.3268	0.7111	0.8362	0.114
Mof_H 	H 	0.2568	0.7619	0.7997	0.141
Mof_C 	C 	0.1427	0.7191	0.9564	-0.024
Mof_H 	H 	0.1289	0.6684	0.9663	0.049
Mof_H 	H 	0.1043	0.7493	0.9853	0.023
Mof_C 	C 	0.0742	0.7351	0.9032	-0.099
Mof_H 	H 	0.1129	0.7038	0.8746	0.069
Mof_C 	C 	0.9253	0.7202	0.9079	0.336
Mof_C 	C 	0.2856	0.9944	0.90643	-0.014
Mof_H 	H 	0.2409	0.035	0.9245	0.031
Mof_H 	H 	0.3769	0.0094	0.8962	0.012
Mof_C 	C 	0.2086	0.9729	0.857	-0.119
Mof_H 	H 	0.1163	0.9582	0.8676	0.075
Mof_C 	C 	0.2009	0.0354	0.8179	0.403
Mof_C 	C 	0.5672	0.7707	0.8321	-0.022
Mof_H 	H 	0.6513	0.7812	0.8127	0.065
Mof_H 	H 	0.5767	0.7238	0.8501	0.018
Mof_C 	C 	0.4527	0.7685	0.7928	-0.13
Mof_H 	H 	0.4467	0.8167	0.7756	0.076
Mof_C 	C 	0.4699	0.7143	0.7479	0.402
Mof_O 	O 	0.8405	0.7589	0.8987	-0.127
Mof_O 	O 	0.9052	0.6499	0.9235	-0.204
Mof_H 	H 	0.823	0.6418	0.926	0.202
Mof_O 	O 	0.2931	0.0452	0.7836	-0.122
Mof_O 	O 	0.1092	0.0759	0.8239	-0.196
Mof_O 	O 	0.3684	0.6751	0.7391	0.166
Mof_H 	H 	0.3852	0.6466	0.7139	0.085
Mof_O 	O 	0.5758	0.7082	0.723	-0.502
Mof_Rh	Rh	0.80612	0.32894	0.38685	0.955
Mof_Ag	Ag	0.87512	0.28529	0.53716	0.49
Mof_S 	S 	0.82003	0.23744	0.44941	-0.368
Mof_S 	S 	0.79342	0.41734	0.45229	-0.345
Mof_S 	S 	0.03499	0.33998	0.38229	-0.345
Mof_O 	O 	0.3455	0.2711	0.4105	-0.157
Mof_O 	O 	0.3965	0.1557	0.4073	-0.185
Mof_O 	O 	0.725	0.5316	0.2718	-0.199
Mof_O 	O 	0.6297	0.5883	0.3371	-0.231
Mof_H 	H 	0.6278	0.6217	0.3145	0.233
Mof_O 	O 	0.8702	0.196	0.2241	-0.525
Mof_O 	O 	0.089	0.1877	0.2368	0.128
Mof_H 	H 	0.1459	0.2056	0.2577	0.085
Mof_N 	N 	0.5994	0.3106	0.38919	-0.314
Mof_H 	H 	0.5605	0.3399	0.4144	0.122
Mof_H 	H 	0.5624	0.3207	0.3561	0.155
Mof_N 	N 	0.777	0.4125	0.33179	-0.305
Mof_H 	H 	0.8583	0.4273	0.3187	0.127
Mof_H 	H 	0.7273	0.3962	0.3032	0.122
Mof_N 	N 	0.8279	0.257	0.32288	-0.308
Mof_H 	H 	0.8268	0.2111	0.3362	0.116
Mof_H 	H 	0.7568	0.2619	0.2997	0.142
Mof_C 	C 	0.6427	0.2191	0.4564	-0.026
Mof_H 	H 	0.6289	0.1684	0.4663	0.049
Mof_H 	H 	0.6043	0.2493	0.4853	0.021
Mof_C 	C 	0.5742	0.2351	0.4032	-0.088
Mof_H 	H 	0.6129	0.2038	0.3746	0.069
Mof_C 	C 	0.4253	0.2202	0.4079	0.325
Mof_C 	C 	0.7856	0.4944	0.40643	-0.013
Mof_H 	H 	0.7409	0.535	0.4245	0.03
Mof_H 	H 	0.8769	0.5094	0.3962	0.013
Mof_C 	C 	0.7086	0.4729	0.357	-0.119
Mof_H 	H 	0.6163	0.4582	0.3676	0.077
Mof_C 	C 	0.7009	0.5354	0.3179	0.403
Mof_C 	C 	0.0672	0.2707	0.3321	-0.033
Mof_H 	H 	0.1513	0.2812	0.3127	0.067
Mof_H 	H 	0.0767	0.2238	0.3501	0.018
Mof_C 	C 	0.9527	0.2685	0.2928	-0.123
Mof_H 	H 	0.9467	0.3167	0.2756	0.077
Mof_C 	C 	0.9699	0.2143	0.2479	0.415
Mof_O 	O 	0.3405	0.2589	0.3987	-0.131
Mof_O 	O 	0.4052	0.1499	0.4235	-0.196
Mof_H 	H 	0.323	0.1418	0.426	0.198
Mof_O 	O 	0.7931	0.5452	0.2836	-0.12
Mof_O 	O 	0.6092	0.5759	0.3239	-0.196
Mof_O 	O 	0.8684	0.1751	0.2391	0.166
Mof_H 	H 	0.8852	0.1466	0.2139	0.088
Mof_O 	O 	0.0758	0.2082	0.223	-0.501
Mof_Ag	Ag	0.5	0.07838	-0	0.32
Mof_Ag	Ag	-6.19967e-33	0.57838	0.5	0.322
Mof_Ag	Ag	0.5	0.92162	-0	0.32
Mof_Ag	Ag	4.64056e-33	0.42162	0.5	0.322
_end
