data_functionalizedCrystal
_audit_creation_method	'EQeq! by Chris Wilmer'
_symmetry_space_group_name_H-M	'P1'
_symmetry_Int_Tables_number	1
_symmetry_cell_setting	triclinic
loop_
_symmetry_equiv_pos_as_xyz
  x,y,z
_cell_length_a	34.882
_cell_length_b	34.882
_cell_length_c	12.086
_cell_angle_alpha	90
_cell_angle_beta	90
_cell_angle_gamma	90
loop_
_atom_site_label
_atom_site_type_symbol
_atom_site_fract_x
_atom_site_fract_y
_atom_site_fract_z
_atom_site_charge
Mof_O 	O 	0.39455	0.53941	0.4294	-0.701
Mof_O 	O 	0.39537	0.4788	0.3681	-0.738
Mof_O 	O 	0.07391	0.50773	0.2599	-0.718
Mof_O 	O 	0.0906	0.55443	0.1379	-0.654
Mof_O 	O 	0.4407	0.4897	0.5429	-1.319
Mof_O 	O 	0.48595	0.5352	0.6405	-1.317
Mof_C 	C 	0.37852	0.5101	0.3902	0.715
Mof_C 	C 	0.33588	0.51221	0.3705	-0.596
Mof_C 	C 	0.31775	0.54699	0.3908	0.677
Mof_H 	H 	0.3322	0.5683	0.4161	-0.099
Mof_C 	C 	0.25734	0.5193	0.337	0.748
Mof_C 	C 	0.31474	0.48098	0.3334	0.85
Mof_H 	H 	0.3271	0.4572	0.3195	-0.152
Mof_C 	C 	0.27848	0.55054	0.374	-0.812
Mof_H 	H 	0.2661	0.5743	0.3879	0.821
Mof_C 	C 	0.27547	0.48451	0.3166	-1.111
Mof_C 	C 	0.2569	0.4476	0.276	-1.049
Mof_F 	F 	0.2324	0.4495	0.1897	-0.106
Mof_F 	F 	0.2795	0.4176	0.25	-0.039
Mof_F 	F 	0.2342	0.4328	0.3579	-0.051
Mof_C 	C 	0.09713	0.53319	0.2183	0.544
Mof_C 	C 	0.13833	0.52872	0.2538	-0.197
Mof_C 	C 	0.16734	0.54226	0.1854	0.124
Mof_H 	H 	0.1611	0.5542	0.117	0.026
Mof_C 	C 	0.20547	0.53838	0.2168	-0.048
Mof_H 	H 	0.2253	0.5476	0.1699	0.14
Mof_C 	C 	0.21462	0.52095	0.3168	-0.005
Mof_C 	C 	0.18561	0.50741	0.3853	-0.201
Mof_C 	C 	0.14748	0.5113	0.3538	0.208
Mof_H 	H 	0.1277	0.502	0.4007	0.016
Mof_C 	C 	0.1957	0.4901	0.4847	0.881
Mof_F 	F 	0.167	0.4815	0.5525	-0.455
Mof_F 	F 	0.21	0.4528	0.4653	-0.341
Mof_F 	F 	0.2227	0.5034	0.5503	-0.434
Mof_H 	H 	0.261	0.4632	0.2913	1.353
Mof_C 	C 	0.2622	0.5878	0.3973	-0.38
Mof_F 	F 	0.2516	0.6096	0.3195	-0.184
Mof_F 	F 	0.2299	0.5849	0.4607	-0.208
Mof_F 	F 	0.2823	0.6118	0.4647	-0.169
Mof_O 	O 	0.10545	0.96059	0.4294	-0.702
Mof_O 	O 	0.10463	0.0212	0.3681	-0.74
Mof_O 	O 	0.42609	0.99227	0.2599	-0.719
Mof_O 	O 	0.4094	0.94557	0.1379	-0.655
Mof_O 	O 	0.0593	0.0103	0.5429	-1.321
Mof_O 	O 	0.01405	0.9648	0.6405	-1.318
Mof_C 	C 	0.12148	0.9899	0.3902	0.716
Mof_C 	C 	0.16412	0.98779	0.3705	-0.595
Mof_C 	C 	0.18225	0.95301	0.3908	0.677
Mof_H 	H 	0.1678	0.9317	0.4161	-0.099
Mof_C 	C 	0.24266	0.9807	0.337	0.749
Mof_C 	C 	0.18526	0.01902	0.3334	0.849
Mof_H 	H 	0.1729	0.0428	0.3195	-0.152
Mof_C 	C 	0.22152	0.94946	0.374	-0.812
Mof_H 	H 	0.2339	0.9257	0.3879	0.821
Mof_C 	C 	0.22453	0.01549	0.3166	-1.111
Mof_C 	C 	0.2431	0.0524	0.276	-1.048
Mof_F 	F 	0.2676	0.0505	0.1897	-0.106
Mof_F 	F 	0.2205	0.0824	0.25	-0.039
Mof_F 	F 	0.2658	0.0672	0.3579	-0.051
Mof_C 	C 	0.40287	0.96681	0.2183	0.544
Mof_C 	C 	0.36167	0.97128	0.2538	-0.196
Mof_C 	C 	0.33266	0.95774	0.1854	0.124
Mof_H 	H 	0.3389	0.9458	0.117	0.026
Mof_C 	C 	0.29453	0.96162	0.2168	-0.047
Mof_H 	H 	0.2747	0.9524	0.1699	0.14
Mof_C 	C 	0.28538	0.97905	0.3168	-0.006
Mof_C 	C 	0.31439	0.99259	0.3853	-0.198
Mof_C 	C 	0.35252	0.9887	0.3538	0.206
Mof_H 	H 	0.3723	0.998	0.4007	0.017
Mof_C 	C 	0.3043	0.0099	0.4847	0.879
Mof_F 	F 	0.333	0.0185	0.5525	-0.455
Mof_F 	F 	0.29	0.0472	0.4653	-0.341
Mof_F 	F 	0.2773	0.9966	0.5503	-0.432
Mof_H 	H 	0.239	0.0368	0.2913	1.352
Mof_C 	C 	0.2378	0.9122	0.3973	-0.38
Mof_F 	F 	0.2484	0.8904	0.3195	-0.184
Mof_F 	F 	0.2701	0.9151	0.4607	-0.208
Mof_F 	F 	0.2177	0.8882	0.4647	-0.169
Mof_O 	O 	0.96059	0.39455	0.9294	-0.651
Mof_O 	O 	0.0212	0.39537	0.8681	-0.705
Mof_O 	O 	0.99227	0.07391	0.7599	-0.699
Mof_O 	O 	0.94557	0.0906	0.6379	-0.624
Mof_O 	O 	0.0103	0.4407	0.0429	-1.38
Mof_O 	O 	0.9648	0.48595	0.1405	-1.349
Mof_C 	C 	0.9899	0.37852	0.8902	0.715
Mof_C 	C 	0.98779	0.33588	0.8705	-0.56
Mof_C 	C 	0.95301	0.31775	0.8908	0.669
Mof_H 	H 	0.9317	0.3322	0.9161	-0.072
Mof_C 	C 	0.9807	0.25734	0.837	0.737
Mof_C 	C 	0.01902	0.31474	0.8334	0.841
Mof_H 	H 	0.0428	0.3271	0.8195	-0.134
Mof_C 	C 	0.94946	0.27848	0.874	-0.775
Mof_H 	H 	0.9257	0.2661	0.8879	0.817
Mof_C 	C 	0.01549	0.27547	0.8166	-1.091
Mof_C 	C 	0.0524	0.2569	0.776	-1.067
Mof_F 	F 	0.0505	0.2324	0.6897	-0.079
Mof_F 	F 	0.0824	0.2795	0.75	-0.01
Mof_F 	F 	0.0672	0.2342	0.8579	-0.028
Mof_C 	C 	0.96681	0.09713	0.7183	0.549
Mof_C 	C 	0.97128	0.13833	0.7538	-0.197
Mof_C 	C 	0.95774	0.16734	0.6854	0.148
Mof_H 	H 	0.9458	0.1611	0.617	0.054
Mof_C 	C 	0.96162	0.20547	0.7168	-0.062
Mof_H 	H 	0.9524	0.2253	0.6699	0.168
Mof_C 	C 	0.97905	0.21462	0.8168	0.035
Mof_C 	C 	0.99259	0.18561	0.8853	-0.259
Mof_C 	C 	0.9887	0.14748	0.8538	0.254
Mof_H 	H 	0.998	0.1277	0.9007	0.03
Mof_C 	C 	0.0099	0.1957	0.9847	1.07
Mof_F 	F 	0.0185	0.167	0.0525	-0.557
Mof_F 	F 	0.0472	0.21	0.9653	-0.327
Mof_F 	F 	0.9966	0.2227	0.0503	-0.538
Mof_H 	H 	0.0368	0.261	0.7913	1.361
Mof_C 	C 	0.9122	0.2622	0.8973	-0.385
Mof_F 	F 	0.8904	0.2516	0.8195	-0.159
Mof_F 	F 	0.9151	0.2299	0.9607	-0.171
Mof_F 	F 	0.8882	0.2823	0.9647	-0.13
Mof_O 	O 	0.53941	0.10545	0.9294	-0.651
Mof_O 	O 	0.4788	0.10463	0.8681	-0.703
Mof_O 	O 	0.50773	0.42609	0.7599	-0.7
Mof_O 	O 	0.55443	0.4094	0.6379	-0.625
Mof_O 	O 	0.4897	0.0593	0.0429	-1.38
Mof_O 	O 	0.5352	0.01405	0.1405	-1.349
Mof_C 	C 	0.5101	0.12148	0.8902	0.713
Mof_C 	C 	0.51221	0.16412	0.8705	-0.562
Mof_C 	C 	0.54699	0.18225	0.8908	0.669
Mof_H 	H 	0.5683	0.1678	0.9161	-0.072
Mof_C 	C 	0.5193	0.24266	0.837	0.735
Mof_C 	C 	0.48098	0.18526	0.8334	0.843
Mof_H 	H 	0.4572	0.1729	0.8195	-0.135
Mof_C 	C 	0.55054	0.22152	0.874	-0.774
Mof_H 	H 	0.5743	0.2339	0.8879	0.817
Mof_C 	C 	0.48451	0.22453	0.8166	-1.09
Mof_C 	C 	0.4476	0.2431	0.776	-1.069
Mof_F 	F 	0.4495	0.2676	0.6897	-0.078
Mof_F 	F 	0.4176	0.2205	0.75	-0.009
Mof_F 	F 	0.4328	0.2658	0.8579	-0.027
Mof_C 	C 	0.53319	0.40287	0.7183	0.55
Mof_C 	C 	0.52872	0.36167	0.7538	-0.199
Mof_C 	C 	0.54226	0.33266	0.6854	0.149
Mof_H 	H 	0.5542	0.3389	0.617	0.053
Mof_C 	C 	0.53838	0.29453	0.7168	-0.064
Mof_H 	H 	0.5476	0.2747	0.6699	0.168
Mof_C 	C 	0.52095	0.28538	0.8168	0.038
Mof_C 	C 	0.50741	0.31439	0.8853	-0.264
Mof_C 	C 	0.5113	0.35252	0.8538	0.256
Mof_H 	H 	0.502	0.3723	0.9007	0.028
Mof_C 	C 	0.4901	0.3043	0.9847	1.076
Mof_F 	F 	0.4815	0.333	0.0525	-0.558
Mof_F 	F 	0.4528	0.29	0.9653	-0.327
Mof_F 	F 	0.5034	0.2773	0.0503	-0.54
Mof_H 	H 	0.4632	0.239	0.7913	1.362
Mof_C 	C 	0.5878	0.2378	0.8973	-0.386
Mof_F 	F 	0.6096	0.2484	0.8195	-0.159
Mof_F 	F 	0.5849	0.2701	0.9607	-0.171
Mof_F 	F 	0.6118	0.2177	0.9647	-0.13
Mof_O 	O 	0.60545	0.03941	0.0706	-0.743
Mof_O 	O 	0.60463	0.9788	0.1319	-0.76
Mof_O 	O 	0.92609	0.00773	0.2401	-0.727
Mof_O 	O 	0.9094	0.05443	0.3621	-0.628
Mof_O 	O 	0.5593	0.9897	0.9571	-1.254
Mof_O 	O 	0.51405	0.0352	0.8595	-1.3
Mof_C 	C 	0.62148	0.0101	0.1098	0.717
Mof_C 	C 	0.66412	0.01221	0.1295	-0.615
Mof_C 	C 	0.68225	0.04699	0.1092	0.683
Mof_H 	H 	0.6678	0.0683	0.0839	-0.12
Mof_C 	C 	0.74266	0.0193	0.163	0.76
Mof_C 	C 	0.68526	0.98098	0.1666	0.848
Mof_H 	H 	0.6729	0.9572	0.1805	-0.157
Mof_C 	C 	0.72152	0.05054	0.126	-0.837
Mof_H 	H 	0.7339	0.0743	0.1121	0.822
Mof_C 	C 	0.72453	0.98451	0.1834	-1.116
Mof_C 	C 	0.7431	0.9476	0.224	-1.022
Mof_F 	F 	0.7676	0.9495	0.3103	-0.088
Mof_F 	F 	0.7205	0.9176	0.25	-0.037
Mof_F 	F 	0.7658	0.9328	0.1421	-0.069
Mof_C 	C 	0.90287	0.03319	0.2817	0.526
Mof_C 	C 	0.86167	0.02872	0.2462	-0.162
Mof_C 	C 	0.83266	0.04226	0.3146	0.094
Mof_H 	H 	0.8389	0.0542	0.383	0.067
Mof_C 	C 	0.79453	0.03838	0.2832	-0.008
Mof_H 	H 	0.7747	0.0476	0.3301	0.148
Mof_C 	C 	0.78538	0.02095	0.1832	-0.051
Mof_C 	C 	0.81439	0.00741	0.1147	-0.122
Mof_C 	C 	0.85252	0.0113	0.1462	0.147
Mof_H 	H 	0.8723	0.002	0.0993	0.01
Mof_C 	C 	0.8043	0.9901	0.0153	0.671
Mof_F 	F 	0.833	0.9815	0.9475	-0.342
Mof_F 	F 	0.79	0.9528	0.0347	-0.353
Mof_F 	F 	0.7773	0.0034	0.9497	-0.321
Mof_H 	H 	0.739	0.9632	0.2087	1.336
Mof_C 	C 	0.7378	0.0878	0.1027	-0.374
Mof_F 	F 	0.7484	0.1096	0.1805	-0.181
Mof_F 	F 	0.7701	0.0849	0.0393	-0.245
Mof_F 	F 	0.7177	0.1118	0.0353	-0.206
Mof_O 	O 	0.89455	0.46059	0.0706	-0.744
Mof_O 	O 	0.89537	0.5212	0.1319	-0.76
Mof_O 	O 	0.57391	0.49227	0.2401	-0.728
Mof_O 	O 	0.5906	0.44557	0.3621	-0.628
Mof_O 	O 	0.9407	0.5103	0.9571	-1.255
Mof_O 	O 	0.98595	0.4648	0.8595	-1.298
Mof_C 	C 	0.87852	0.4899	0.1098	0.716
Mof_C 	C 	0.83588	0.48779	0.1295	-0.616
Mof_C 	C 	0.81775	0.45301	0.1092	0.683
Mof_H 	H 	0.8322	0.4317	0.0839	-0.12
Mof_C 	C 	0.75734	0.4807	0.163	0.76
Mof_C 	C 	0.81474	0.51902	0.1666	0.848
Mof_H 	H 	0.8271	0.5428	0.1805	-0.157
Mof_C 	C 	0.77848	0.44946	0.126	-0.837
Mof_H 	H 	0.7661	0.4257	0.1121	0.822
Mof_C 	C 	0.77547	0.51549	0.1834	-1.116
Mof_C 	C 	0.7569	0.5524	0.224	-1.022
Mof_F 	F 	0.7324	0.5505	0.3103	-0.088
Mof_F 	F 	0.7795	0.5824	0.25	-0.037
Mof_F 	F 	0.7342	0.5672	0.1421	-0.069
Mof_C 	C 	0.59713	0.46681	0.2817	0.526
Mof_C 	C 	0.63833	0.47128	0.2462	-0.162
Mof_C 	C 	0.66734	0.45774	0.3146	0.094
Mof_H 	H 	0.6611	0.4458	0.383	0.067
Mof_C 	C 	0.70547	0.46162	0.2832	-0.008
Mof_H 	H 	0.7253	0.4524	0.3301	0.149
Mof_C 	C 	0.71462	0.47905	0.1832	-0.051
Mof_C 	C 	0.68561	0.49259	0.1147	-0.123
Mof_C 	C 	0.64748	0.4887	0.1462	0.147
Mof_H 	H 	0.6277	0.498	0.0993	0.01
Mof_C 	C 	0.6957	0.5099	0.0153	0.672
Mof_F 	F 	0.667	0.5185	0.9475	-0.343
Mof_F 	F 	0.71	0.5472	0.0347	-0.353
Mof_F 	F 	0.7227	0.4966	0.9497	-0.32
Mof_H 	H 	0.761	0.5368	0.2087	1.336
Mof_C 	C 	0.7622	0.4122	0.1027	-0.374
Mof_F 	F 	0.7516	0.3904	0.1805	-0.181
Mof_F 	F 	0.7299	0.4151	0.0393	-0.245
Mof_F 	F 	0.7823	0.3882	0.0353	-0.206
Mof_O 	O 	0.03941	0.89455	0.5706	-0.696
Mof_O 	O 	0.9788	0.89537	0.6319	-0.722
Mof_O 	O 	0.00773	0.57391	0.7401	-0.707
Mof_O 	O 	0.05443	0.5906	0.8621	-0.593
Mof_O 	O 	0.9897	0.9407	0.4571	-1.321
Mof_O 	O 	0.0352	0.98595	0.3595	-1.333
Mof_C 	C 	0.0101	0.87852	0.6098	0.715
Mof_C 	C 	0.01221	0.83588	0.6295	-0.581
Mof_C 	C 	0.04699	0.81775	0.6092	0.675
Mof_H 	H 	0.0683	0.8322	0.5839	-0.093
Mof_C 	C 	0.0193	0.75734	0.663	0.744
Mof_C 	C 	0.98098	0.81474	0.6666	0.843
Mof_H 	H 	0.9572	0.8271	0.6805	-0.138
Mof_C 	C 	0.05054	0.77848	0.626	-0.798
Mof_H 	H 	0.0743	0.7661	0.6121	0.819
Mof_C 	C 	0.98451	0.77547	0.6834	-1.092
Mof_C 	C 	0.9476	0.7569	0.724	-1.044
Mof_F 	F 	0.9495	0.7324	0.8103	-0.058
Mof_F 	F 	0.9176	0.7795	0.75	-0.005
Mof_F 	F 	0.9328	0.7342	0.6421	-0.042
Mof_C 	C 	0.03319	0.59713	0.7817	0.531
Mof_C 	C 	0.02872	0.63833	0.7462	-0.165
Mof_C 	C 	0.04226	0.66734	0.8146	0.121
Mof_H 	H 	0.0542	0.6611	0.883	0.095
Mof_C 	C 	0.03838	0.70547	0.7832	-0.026
Mof_H 	H 	0.0476	0.7253	0.8301	0.177
Mof_C 	C 	0.02095	0.71462	0.6832	-0.005
Mof_C 	C 	0.00741	0.68561	0.6147	-0.192
Mof_C 	C 	0.0113	0.64748	0.6462	0.2
Mof_H 	H 	0.002	0.6277	0.5993	0.022
Mof_C 	C 	0.9901	0.6957	0.5153	0.88
Mof_F 	F 	0.9815	0.667	0.4475	-0.453
Mof_F 	F 	0.9528	0.71	0.5347	-0.337
Mof_F 	F 	0.0034	0.7227	0.4497	-0.433
Mof_H 	H 	0.9632	0.761	0.7087	1.346
Mof_C 	C 	0.0878	0.7622	0.6027	-0.381
Mof_F 	F 	0.1096	0.7516	0.6805	-0.156
Mof_F 	F 	0.0849	0.7299	0.5393	-0.207
Mof_F 	F 	0.1118	0.7823	0.5353	-0.167
Mof_O 	O 	0.46059	0.60545	0.5706	-0.696
Mof_O 	O 	0.5212	0.60463	0.6319	-0.723
Mof_O 	O 	0.49227	0.92609	0.7401	-0.707
Mof_O 	O 	0.44557	0.9094	0.8621	-0.593
Mof_O 	O 	0.5103	0.5593	0.4571	-1.322
Mof_O 	O 	0.4648	0.51405	0.3595	-1.333
Mof_C 	C 	0.4899	0.62148	0.6098	0.716
Mof_C 	C 	0.48779	0.66412	0.6295	-0.581
Mof_C 	C 	0.45301	0.68225	0.6092	0.675
Mof_H 	H 	0.4317	0.6678	0.5839	-0.093
Mof_C 	C 	0.4807	0.74266	0.663	0.746
Mof_C 	C 	0.51902	0.68526	0.6666	0.842
Mof_H 	H 	0.5428	0.6729	0.6805	-0.138
Mof_C 	C 	0.44946	0.72152	0.626	-0.798
Mof_H 	H 	0.4257	0.7339	0.6121	0.819
Mof_C 	C 	0.51549	0.72453	0.6834	-1.093
Mof_C 	C 	0.5524	0.7431	0.724	-1.043
Mof_F 	F 	0.5505	0.7676	0.8103	-0.058
Mof_F 	F 	0.5824	0.7205	0.75	-0.005
Mof_F 	F 	0.5672	0.7658	0.6421	-0.043
Mof_C 	C 	0.46681	0.90287	0.7817	0.531
Mof_C 	C 	0.47128	0.86167	0.7462	-0.164
Mof_C 	C 	0.45774	0.83266	0.8146	0.12
Mof_H 	H 	0.4458	0.8389	0.883	0.096
Mof_C 	C 	0.46162	0.79453	0.7832	-0.025
Mof_H 	H 	0.4524	0.7747	0.8301	0.177
Mof_C 	C 	0.47905	0.78538	0.6832	-0.006
Mof_C 	C 	0.49259	0.81439	0.6147	-0.191
Mof_C 	C 	0.4887	0.85252	0.6462	0.199
Mof_H 	H 	0.498	0.8723	0.5993	0.023
Mof_C 	C 	0.5099	0.8043	0.5153	0.878
Mof_F 	F 	0.5185	0.833	0.4475	-0.453
Mof_F 	F 	0.5472	0.79	0.5347	-0.337
Mof_F 	F 	0.4966	0.7773	0.4497	-0.433
Mof_H 	H 	0.5368	0.739	0.7087	1.345
Mof_C 	C 	0.4122	0.7378	0.6027	-0.381
Mof_F 	F 	0.3904	0.7484	0.6805	-0.156
Mof_F 	F 	0.4151	0.7701	0.5393	-0.207
Mof_F 	F 	0.3882	0.7177	0.5353	-0.167
Mof_O 	O 	0.60545	0.46059	0.5706	-0.696
Mof_O 	O 	0.60463	0.5212	0.6319	-0.723
Mof_O 	O 	0.92609	0.49227	0.7401	-0.707
Mof_O 	O 	0.9094	0.44557	0.8621	-0.593
Mof_O 	O 	0.5593	0.5103	0.4571	-1.322
Mof_O 	O 	0.51405	0.4648	0.3595	-1.333
Mof_C 	C 	0.62148	0.4899	0.6098	0.716
Mof_C 	C 	0.66412	0.48779	0.6295	-0.581
Mof_C 	C 	0.68225	0.45301	0.6092	0.675
Mof_H 	H 	0.6678	0.4317	0.5839	-0.093
Mof_C 	C 	0.74266	0.4807	0.663	0.746
Mof_C 	C 	0.68526	0.51902	0.6666	0.842
Mof_H 	H 	0.6729	0.5428	0.6805	-0.138
Mof_C 	C 	0.72152	0.44946	0.626	-0.798
Mof_H 	H 	0.7339	0.4257	0.6121	0.819
Mof_C 	C 	0.72453	0.51549	0.6834	-1.093
Mof_C 	C 	0.7431	0.5524	0.724	-1.043
Mof_F 	F 	0.7676	0.5505	0.8103	-0.058
Mof_F 	F 	0.7205	0.5824	0.75	-0.005
Mof_F 	F 	0.7658	0.5672	0.6421	-0.043
Mof_C 	C 	0.90287	0.46681	0.7817	0.531
Mof_C 	C 	0.86167	0.47128	0.7462	-0.164
Mof_C 	C 	0.83266	0.45774	0.8146	0.12
Mof_H 	H 	0.8389	0.4458	0.883	0.096
Mof_C 	C 	0.79453	0.46162	0.7832	-0.025
Mof_H 	H 	0.7747	0.4524	0.8301	0.177
Mof_C 	C 	0.78538	0.47905	0.6832	-0.006
Mof_C 	C 	0.81439	0.49259	0.6147	-0.191
Mof_C 	C 	0.85252	0.4887	0.6462	0.199
Mof_H 	H 	0.8723	0.498	0.5993	0.023
Mof_C 	C 	0.8043	0.5099	0.5153	0.878
Mof_F 	F 	0.833	0.5185	0.4475	-0.453
Mof_F 	F 	0.79	0.5472	0.5347	-0.337
Mof_F 	F 	0.7773	0.4966	0.4497	-0.433
Mof_H 	H 	0.739	0.5368	0.7087	1.345
Mof_C 	C 	0.7378	0.4122	0.6027	-0.381
Mof_F 	F 	0.7484	0.3904	0.6805	-0.156
Mof_F 	F 	0.7701	0.4151	0.5393	-0.207
Mof_F 	F 	0.7177	0.3882	0.5353	-0.167
Mof_O 	O 	0.89455	0.03941	0.5706	-0.696
Mof_O 	O 	0.89537	0.9788	0.6319	-0.722
Mof_O 	O 	0.57391	0.00773	0.7401	-0.707
Mof_O 	O 	0.5906	0.05443	0.8621	-0.593
Mof_O 	O 	0.9407	0.9897	0.4571	-1.321
Mof_O 	O 	0.98595	0.0352	0.3595	-1.333
Mof_C 	C 	0.87852	0.0101	0.6098	0.715
Mof_C 	C 	0.83588	0.01221	0.6295	-0.581
Mof_C 	C 	0.81775	0.04699	0.6092	0.675
Mof_H 	H 	0.8322	0.0683	0.5839	-0.093
Mof_C 	C 	0.75734	0.0193	0.663	0.744
Mof_C 	C 	0.81474	0.98098	0.6666	0.843
Mof_H 	H 	0.8271	0.9572	0.6805	-0.138
Mof_C 	C 	0.77848	0.05054	0.626	-0.798
Mof_H 	H 	0.7661	0.0743	0.6121	0.819
Mof_C 	C 	0.77547	0.98451	0.6834	-1.092
Mof_C 	C 	0.7569	0.9476	0.724	-1.044
Mof_F 	F 	0.7324	0.9495	0.8103	-0.058
Mof_F 	F 	0.7795	0.9176	0.75	-0.005
Mof_F 	F 	0.7342	0.9328	0.6421	-0.042
Mof_C 	C 	0.59713	0.03319	0.7817	0.531
Mof_C 	C 	0.63833	0.02872	0.7462	-0.165
Mof_C 	C 	0.66734	0.04226	0.8146	0.121
Mof_H 	H 	0.6611	0.0542	0.883	0.095
Mof_C 	C 	0.70547	0.03838	0.7832	-0.026
Mof_H 	H 	0.7253	0.0476	0.8301	0.177
Mof_C 	C 	0.71462	0.02095	0.6832	-0.005
Mof_C 	C 	0.68561	0.00741	0.6147	-0.192
Mof_C 	C 	0.64748	0.0113	0.6462	0.2
Mof_H 	H 	0.6277	0.002	0.5993	0.022
Mof_C 	C 	0.6957	0.9901	0.5153	0.88
Mof_F 	F 	0.667	0.9815	0.4475	-0.453
Mof_F 	F 	0.71	0.9528	0.5347	-0.337
Mof_F 	F 	0.7227	0.0034	0.4497	-0.433
Mof_H 	H 	0.761	0.9632	0.7087	1.346
Mof_C 	C 	0.7622	0.0878	0.6027	-0.381
Mof_F 	F 	0.7516	0.1096	0.6805	-0.156
Mof_F 	F 	0.7299	0.0849	0.5393	-0.207
Mof_F 	F 	0.7823	0.1118	0.5353	-0.167
Mof_O 	O 	0.03941	0.60545	0.0706	-0.743
Mof_O 	O 	0.9788	0.60463	0.1319	-0.76
Mof_O 	O 	0.00773	0.92609	0.2401	-0.727
Mof_O 	O 	0.05443	0.9094	0.3621	-0.628
Mof_O 	O 	0.9897	0.5593	0.9571	-1.254
Mof_O 	O 	0.0352	0.51405	0.8595	-1.3
Mof_C 	C 	0.0101	0.62148	0.1098	0.717
Mof_C 	C 	0.01221	0.66412	0.1295	-0.615
Mof_C 	C 	0.04699	0.68225	0.1092	0.683
Mof_H 	H 	0.0683	0.6678	0.0839	-0.12
Mof_C 	C 	0.0193	0.74266	0.163	0.76
Mof_C 	C 	0.98098	0.68526	0.1666	0.848
Mof_H 	H 	0.9572	0.6729	0.1805	-0.157
Mof_C 	C 	0.05054	0.72152	0.126	-0.837
Mof_H 	H 	0.0743	0.7339	0.1121	0.822
Mof_C 	C 	0.98451	0.72453	0.1834	-1.116
Mof_C 	C 	0.9476	0.7431	0.224	-1.022
Mof_F 	F 	0.9495	0.7676	0.3103	-0.088
Mof_F 	F 	0.9176	0.7205	0.25	-0.037
Mof_F 	F 	0.9328	0.7658	0.1421	-0.069
Mof_C 	C 	0.03319	0.90287	0.2817	0.526
Mof_C 	C 	0.02872	0.86167	0.2462	-0.162
Mof_C 	C 	0.04226	0.83266	0.3146	0.094
Mof_H 	H 	0.0542	0.8389	0.383	0.067
Mof_C 	C 	0.03838	0.79453	0.2832	-0.008
Mof_H 	H 	0.0476	0.7747	0.3301	0.148
Mof_C 	C 	0.02095	0.78538	0.1832	-0.051
Mof_C 	C 	0.00741	0.81439	0.1147	-0.122
Mof_C 	C 	0.0113	0.85252	0.1462	0.147
Mof_H 	H 	0.002	0.8723	0.0993	0.01
Mof_C 	C 	0.9901	0.8043	0.0153	0.671
Mof_F 	F 	0.9815	0.833	0.9475	-0.342
Mof_F 	F 	0.9528	0.79	0.0347	-0.353
Mof_F 	F 	0.0034	0.7773	0.9497	-0.321
Mof_H 	H 	0.9632	0.739	0.2087	1.336
Mof_C 	C 	0.0878	0.7378	0.1027	-0.374
Mof_F 	F 	0.1096	0.7484	0.1805	-0.181
Mof_F 	F 	0.0849	0.7701	0.0393	-0.245
Mof_F 	F 	0.1118	0.7177	0.0353	-0.206
Mof_O 	O 	0.46059	0.89455	0.0706	-0.744
Mof_O 	O 	0.5212	0.89537	0.1319	-0.76
Mof_O 	O 	0.49227	0.57391	0.2401	-0.728
Mof_O 	O 	0.44557	0.5906	0.3621	-0.628
Mof_O 	O 	0.5103	0.9407	0.9571	-1.255
Mof_O 	O 	0.4648	0.98595	0.8595	-1.298
Mof_C 	C 	0.4899	0.87852	0.1098	0.716
Mof_C 	C 	0.48779	0.83588	0.1295	-0.616
Mof_C 	C 	0.45301	0.81775	0.1092	0.683
Mof_H 	H 	0.4317	0.8322	0.0839	-0.12
Mof_C 	C 	0.4807	0.75734	0.163	0.76
Mof_C 	C 	0.51902	0.81474	0.1666	0.848
Mof_H 	H 	0.5428	0.8271	0.1805	-0.157
Mof_C 	C 	0.44946	0.77848	0.126	-0.837
Mof_H 	H 	0.4257	0.7661	0.1121	0.822
Mof_C 	C 	0.51549	0.77547	0.1834	-1.116
Mof_C 	C 	0.5524	0.7569	0.224	-1.022
Mof_F 	F 	0.5505	0.7324	0.3103	-0.088
Mof_F 	F 	0.5824	0.7795	0.25	-0.037
Mof_F 	F 	0.5672	0.7342	0.1421	-0.069
Mof_C 	C 	0.46681	0.59713	0.2817	0.526
Mof_C 	C 	0.47128	0.63833	0.2462	-0.162
Mof_C 	C 	0.45774	0.66734	0.3146	0.094
Mof_H 	H 	0.4458	0.6611	0.383	0.067
Mof_C 	C 	0.46162	0.70547	0.2832	-0.008
Mof_H 	H 	0.4524	0.7253	0.3301	0.149
Mof_C 	C 	0.47905	0.71462	0.1832	-0.051
Mof_C 	C 	0.49259	0.68561	0.1147	-0.123
Mof_C 	C 	0.4887	0.64748	0.1462	0.147
Mof_H 	H 	0.498	0.6277	0.0993	0.01
Mof_C 	C 	0.5099	0.6957	0.0153	0.672
Mof_F 	F 	0.5185	0.667	0.9475	-0.343
Mof_F 	F 	0.5472	0.71	0.0347	-0.353
Mof_F 	F 	0.4966	0.7227	0.9497	-0.32
Mof_H 	H 	0.5368	0.761	0.2087	1.336
Mof_C 	C 	0.4122	0.7622	0.1027	-0.374
Mof_F 	F 	0.3904	0.7516	0.1805	-0.181
Mof_F 	F 	0.4151	0.7299	0.0393	-0.245
Mof_F 	F 	0.3882	0.7823	0.0353	-0.206
Mof_O 	O 	0.39455	0.96059	0.9294	-0.651
Mof_O 	O 	0.39537	0.0212	0.8681	-0.705
Mof_O 	O 	0.07391	0.99227	0.7599	-0.699
Mof_O 	O 	0.0906	0.94557	0.6379	-0.624
Mof_O 	O 	0.4407	0.0103	0.0429	-1.38
Mof_O 	O 	0.48595	0.9648	0.1405	-1.349
Mof_C 	C 	0.37852	0.9899	0.8902	0.715
Mof_C 	C 	0.33588	0.98779	0.8705	-0.56
Mof_C 	C 	0.31775	0.95301	0.8908	0.669
Mof_H 	H 	0.3322	0.9317	0.9161	-0.072
Mof_C 	C 	0.25734	0.9807	0.837	0.737
Mof_C 	C 	0.31474	0.01902	0.8334	0.841
Mof_H 	H 	0.3271	0.0428	0.8195	-0.134
Mof_C 	C 	0.27848	0.94946	0.874	-0.775
Mof_H 	H 	0.2661	0.9257	0.8879	0.817
Mof_C 	C 	0.27547	0.01549	0.8166	-1.091
Mof_C 	C 	0.2569	0.0524	0.776	-1.067
Mof_F 	F 	0.2324	0.0505	0.6897	-0.079
Mof_F 	F 	0.2795	0.0824	0.75	-0.01
Mof_F 	F 	0.2342	0.0672	0.8579	-0.028
Mof_C 	C 	0.09713	0.96681	0.7183	0.549
Mof_C 	C 	0.13833	0.97128	0.7538	-0.197
Mof_C 	C 	0.16734	0.95774	0.6854	0.148
Mof_H 	H 	0.1611	0.9458	0.617	0.054
Mof_C 	C 	0.20547	0.96162	0.7168	-0.062
Mof_H 	H 	0.2253	0.9524	0.6699	0.168
Mof_C 	C 	0.21462	0.97905	0.8168	0.035
Mof_C 	C 	0.18561	0.99259	0.8853	-0.259
Mof_C 	C 	0.14748	0.9887	0.8538	0.254
Mof_H 	H 	0.1277	0.998	0.9007	0.03
Mof_C 	C 	0.1957	0.0099	0.9847	1.07
Mof_F 	F 	0.167	0.0185	0.0525	-0.557
Mof_F 	F 	0.21	0.0472	0.9653	-0.327
Mof_F 	F 	0.2227	0.9966	0.0503	-0.538
Mof_H 	H 	0.261	0.0368	0.7913	1.361
Mof_C 	C 	0.2622	0.9122	0.8973	-0.385
Mof_F 	F 	0.2516	0.8904	0.8195	-0.159
Mof_F 	F 	0.2299	0.9151	0.9607	-0.171
Mof_F 	F 	0.2823	0.8882	0.9647	-0.13
Mof_O 	O 	0.10545	0.53941	0.9294	-0.651
Mof_O 	O 	0.10463	0.4788	0.8681	-0.703
Mof_O 	O 	0.42609	0.50773	0.7599	-0.7
Mof_O 	O 	0.4094	0.55443	0.6379	-0.625
Mof_O 	O 	0.0593	0.4897	0.0429	-1.38
Mof_O 	O 	0.01405	0.5352	0.1405	-1.349
Mof_C 	C 	0.12148	0.5101	0.8902	0.713
Mof_C 	C 	0.16412	0.51221	0.8705	-0.562
Mof_C 	C 	0.18225	0.54699	0.8908	0.669
Mof_H 	H 	0.1678	0.5683	0.9161	-0.072
Mof_C 	C 	0.24266	0.5193	0.837	0.735
Mof_C 	C 	0.18526	0.48098	0.8334	0.843
Mof_H 	H 	0.1729	0.4572	0.8195	-0.135
Mof_C 	C 	0.22152	0.55054	0.874	-0.774
Mof_H 	H 	0.2339	0.5743	0.8879	0.817
Mof_C 	C 	0.22453	0.48451	0.8166	-1.09
Mof_C 	C 	0.2431	0.4476	0.776	-1.069
Mof_F 	F 	0.2676	0.4495	0.6897	-0.078
Mof_F 	F 	0.2205	0.4176	0.75	-0.009
Mof_F 	F 	0.2658	0.4328	0.8579	-0.027
Mof_C 	C 	0.40287	0.53319	0.7183	0.55
Mof_C 	C 	0.36167	0.52872	0.7538	-0.199
Mof_C 	C 	0.33266	0.54226	0.6854	0.149
Mof_H 	H 	0.3389	0.5542	0.617	0.053
Mof_C 	C 	0.29453	0.53838	0.7168	-0.064
Mof_H 	H 	0.2747	0.5476	0.6699	0.168
Mof_C 	C 	0.28538	0.52095	0.8168	0.038
Mof_C 	C 	0.31439	0.50741	0.8853	-0.264
Mof_C 	C 	0.35252	0.5113	0.8538	0.256
Mof_H 	H 	0.3723	0.502	0.9007	0.028
Mof_C 	C 	0.3043	0.4901	0.9847	1.076
Mof_F 	F 	0.333	0.4815	0.0525	-0.558
Mof_F 	F 	0.29	0.4528	0.9653	-0.327
Mof_F 	F 	0.2773	0.5034	0.0503	-0.54
Mof_H 	H 	0.239	0.4632	0.7913	1.362
Mof_C 	C 	0.2378	0.5878	0.8973	-0.386
Mof_F 	F 	0.2484	0.6096	0.8195	-0.159
Mof_F 	F 	0.2701	0.5849	0.9607	-0.171
Mof_F 	F 	0.2177	0.6118	0.9647	-0.13
Mof_O 	O 	0.96059	0.10545	0.4294	-0.702
Mof_O 	O 	0.0212	0.10463	0.3681	-0.74
Mof_O 	O 	0.99227	0.42609	0.2599	-0.719
Mof_O 	O 	0.94557	0.4094	0.1379	-0.655
Mof_O 	O 	0.0103	0.0593	0.5429	-1.321
Mof_O 	O 	0.9648	0.01405	0.6405	-1.318
Mof_C 	C 	0.9899	0.12148	0.3902	0.716
Mof_C 	C 	0.98779	0.16412	0.3705	-0.595
Mof_C 	C 	0.95301	0.18225	0.3908	0.677
Mof_H 	H 	0.9317	0.1678	0.4161	-0.099
Mof_C 	C 	0.9807	0.24266	0.337	0.749
Mof_C 	C 	0.01902	0.18526	0.3334	0.849
Mof_H 	H 	0.0428	0.1729	0.3195	-0.152
Mof_C 	C 	0.94946	0.22152	0.374	-0.812
Mof_H 	H 	0.9257	0.2339	0.3879	0.821
Mof_C 	C 	0.01549	0.22453	0.3166	-1.111
Mof_C 	C 	0.0524	0.2431	0.276	-1.048
Mof_F 	F 	0.0505	0.2676	0.1897	-0.106
Mof_F 	F 	0.0824	0.2205	0.25	-0.039
Mof_F 	F 	0.0672	0.2658	0.3579	-0.051
Mof_C 	C 	0.96681	0.40287	0.2183	0.544
Mof_C 	C 	0.97128	0.36167	0.2538	-0.196
Mof_C 	C 	0.95774	0.33266	0.1854	0.124
Mof_H 	H 	0.9458	0.3389	0.117	0.026
Mof_C 	C 	0.96162	0.29453	0.2168	-0.047
Mof_H 	H 	0.9524	0.2747	0.1699	0.14
Mof_C 	C 	0.97905	0.28538	0.3168	-0.006
Mof_C 	C 	0.99259	0.31439	0.3853	-0.198
Mof_C 	C 	0.9887	0.35252	0.3538	0.206
Mof_H 	H 	0.998	0.3723	0.4007	0.017
Mof_C 	C 	0.0099	0.3043	0.4847	0.879
Mof_F 	F 	0.0185	0.333	0.5525	-0.455
Mof_F 	F 	0.0472	0.29	0.4653	-0.341
Mof_F 	F 	0.9966	0.2773	0.5503	-0.432
Mof_H 	H 	0.0368	0.239	0.2913	1.352
Mof_C 	C 	0.9122	0.2378	0.3973	-0.38
Mof_F 	F 	0.8904	0.2484	0.3195	-0.184
Mof_F 	F 	0.9151	0.2701	0.4607	-0.208
Mof_F 	F 	0.8882	0.2177	0.4647	-0.169
Mof_O 	O 	0.53941	0.39455	0.4294	-0.702
Mof_O 	O 	0.4788	0.39537	0.3681	-0.739
Mof_O 	O 	0.50773	0.07391	0.2599	-0.719
Mof_O 	O 	0.55443	0.0906	0.1379	-0.655
Mof_O 	O 	0.4897	0.4407	0.5429	-1.32
Mof_O 	O 	0.5352	0.48595	0.6405	-1.318
Mof_C 	C 	0.5101	0.37852	0.3902	0.715
Mof_C 	C 	0.51221	0.33588	0.3705	-0.596
Mof_C 	C 	0.54699	0.31775	0.3908	0.677
Mof_H 	H 	0.5683	0.3322	0.4161	-0.099
Mof_C 	C 	0.5193	0.25734	0.337	0.748
Mof_C 	C 	0.48098	0.31474	0.3334	0.85
Mof_H 	H 	0.4572	0.3271	0.3195	-0.152
Mof_C 	C 	0.55054	0.27848	0.374	-0.812
Mof_H 	H 	0.5743	0.2661	0.3879	0.821
Mof_C 	C 	0.48451	0.27547	0.3166	-1.111
Mof_C 	C 	0.4476	0.2569	0.276	-1.049
Mof_F 	F 	0.4495	0.2324	0.1897	-0.106
Mof_F 	F 	0.4176	0.2795	0.25	-0.039
Mof_F 	F 	0.4328	0.2342	0.3579	-0.051
Mof_C 	C 	0.53319	0.09713	0.2183	0.544
Mof_C 	C 	0.52872	0.13833	0.2538	-0.197
Mof_C 	C 	0.54226	0.16734	0.1854	0.124
Mof_H 	H 	0.5542	0.1611	0.117	0.026
Mof_C 	C 	0.53838	0.20547	0.2168	-0.048
Mof_H 	H 	0.5476	0.2253	0.1699	0.14
Mof_C 	C 	0.52095	0.21462	0.3168	-0.005
Mof_C 	C 	0.50741	0.18561	0.3853	-0.201
Mof_C 	C 	0.5113	0.14748	0.3538	0.208
Mof_H 	H 	0.502	0.1277	0.4007	0.016
Mof_C 	C 	0.4901	0.1957	0.4847	0.881
Mof_F 	F 	0.4815	0.167	0.5525	-0.455
Mof_F 	F 	0.4528	0.21	0.4653	-0.341
Mof_F 	F 	0.5034	0.2227	0.5503	-0.434
Mof_H 	H 	0.4632	0.261	0.2913	1.353
Mof_C 	C 	0.5878	0.2622	0.3973	-0.38
Mof_F 	F 	0.6096	0.2516	0.3195	-0.184
Mof_F 	F 	0.5849	0.2299	0.4607	-0.208
Mof_F 	F 	0.6118	0.2823	0.4647	-0.169
Mof_Zr	Zr	0.45499	0.45499	0.4058	3.181
Mof_Zr	Zr	0.47683	0.47683	0.68375	3.179
Mof_Zr	Zr	0.04501	0.04501	0.4058	3.181
Mof_Zr	Zr	0.02317	0.02317	0.68375	3.179
Mof_Zr	Zr	0.04501	0.45499	0.9058	3.191
Mof_Zr	Zr	0.02317	0.47683	0.18375	3.178
Mof_Zr	Zr	0.45499	0.04501	0.9058	3.191
Mof_Zr	Zr	0.47683	0.02317	0.18375	3.178
Mof_Zr	Zr	0.54501	0.95499	0.0942	3.172
Mof_Zr	Zr	0.52317	0.97683	0.81625	3.178
Mof_Zr	Zr	0.95499	0.54501	0.0942	3.172
Mof_Zr	Zr	0.97683	0.52317	0.81625	3.178
Mof_Zr	Zr	0.95499	0.95499	0.5942	3.183
Mof_Zr	Zr	0.97683	0.97683	0.31625	3.177
Mof_Zr	Zr	0.54501	0.54501	0.5942	3.183
Mof_Zr	Zr	0.52317	0.52317	0.31625	3.177
Mof_Zr	Zr	0.45021	0.54979	0.5	3.215
Mof_Zr	Zr	0.04979	0.95021	0.5	3.216
Mof_Zr	Zr	0.95021	0.45021	-0	3.2
Mof_Zr	Zr	0.54979	0.04979	-0	3.2
Mof_Zr	Zr	0.54979	0.45021	0.5	3.215
Mof_Zr	Zr	0.95021	0.04979	0.5	3.216
Mof_Zr	Zr	0.04979	0.54979	-0	3.2
Mof_Zr	Zr	0.45021	0.95021	-0	3.2
_end
