data_functionalizedCrystal
_audit_creation_method	'EQeq! by Chris Wilmer'
_symmetry_space_group_name_H-M	'P1'
_symmetry_Int_Tables_number	1
_symmetry_cell_setting	triclinic
loop_
_symmetry_equiv_pos_as_xyz
  x,y,z
_cell_length_a	8.712
_cell_length_b	9.859
_cell_length_c	23.176
_cell_angle_alpha	90
_cell_angle_beta	90
_cell_angle_gamma	90
loop_
_atom_site_label
_atom_site_type_symbol
_atom_site_fract_x
_atom_site_fract_y
_atom_site_fract_z
_atom_site_charge
Mof_Gd	Gd	0.04409	0.12998	0.25469	1.944
Mof_P 	P 	0.0176	0.3895	0.36425	0.517
Mof_P 	P 	0.7047	0.3524	0.2232	0.496
Mof_P 	P 	0.7863	0.8901	0.3313	0.541
Mof_O 	O 	0.0713	0.2605	0.3347	-0.482
Mof_O 	O 	0.8671	0.375	0.3965	-0.291
Mof_O 	O 	0.0197	0.5113	0.3252	-0.496
Mof_O 	O 	0.8465	0.2636	0.2282	-0.498
Mof_O 	O 	0.7394	0.5013	0.2324	-0.473
Mof_O 	O 	0.6173	0.3232	0.1673	-0.281
Mof_O 	O 	0.8923	0.0031	0.3127	-0.493
Mof_O 	O 	0.7826	0.7668	0.2927	-0.491
Mof_O 	O 	0.6253	0.9506	0.3433	-0.483
Mof_H 	H 	0.5608	0.9093	0.3245	0.3
Mof_N 	N 	0.3252	0.4101	0.4039	-0.122
Mof_H 	H 	0.3801	0.4402	0.4348	0.091
Mof_N 	N 	0.6046	0.3512	0.3391	-0.122
Mof_H 	H 	0.7084	0.3574	0.3426	0.111
Mof_N 	N 	0.837	0.9274	0.4502	-0.025
Mof_N 	N 	0.099	0.4117	0.0528	-0.053
Mof_C 	C 	0.1592	0.4219	0.4201	-0.22
Mof_H 	H 	0.142	0.5128	0.4347	0.095
Mof_H 	H 	0.1398	0.3595	0.4516	0.095
Mof_C 	C 	0.3692	0.4965	0.3546	-0.055
Mof_H 	H 	0.3365	0.589	0.3616	0.062
Mof_H 	H 	0.3185	0.4645	0.3199	0.052
Mof_C 	C 	0.54	0.4928	0.3461	-0.064
Mof_H 	H 	0.5888	0.5356	0.379	0.056
Mof_H 	H 	0.5657	0.5456	0.3121	0.059
Mof_C 	C 	0.5492	0.2633	0.3867	-0.08
Mof_H 	H 	0.5953	0.2935	0.4226	0.066
Mof_H 	H 	0.5833	0.1711	0.3797	0.079
Mof_C 	C 	0.3744	0.2635	0.3935	-0.05
Mof_H 	H 	0.3261	0.2284	0.3589	0.058
Mof_H 	H 	0.3445	0.2071	0.4259	0.047
Mof_C 	C 	0.5708	0.2955	0.2799	-0.225
Mof_H 	H 	0.4676	0.322	0.269	0.102
Mof_H 	H 	0.5735	0.1972	0.2817	0.107
Mof_C 	C 	0.8534	0.8247	0.4004	-0.227
Mof_H 	H 	0.7957	0.7435	0.4099	0.102
Mof_H 	H 	0.9605	0.7992	0.3968	0.096
Mof_C 	C 	0.8763	0.8562	0.505	-0.082
Mof_H 	H 	0.9858	0.8386	0.5068	0.058
Mof_H 	H 	0.8223	0.7703	0.5073	0.063
Mof_C 	C 	0.826	0.048	0.4443	-0.038
Mof_H 	H 	0.7158	0.037	0.4453	0.068
Mof_H 	H 	0.8528	0.0909	0.4079	0.018
Mof_C 	C 	0.09	0.559	0.0549	-0.01
Mof_H 	H 	0.1255	0.604	0.0896	0.036
Mof_H 	H 	0.9795	0.5471	0.0581	0.036
Mof_Gd	Gd	0.04409	0.87002	0.74531	1.945
Mof_P 	P 	0.0176	0.6105	0.63575	0.518
Mof_P 	P 	0.7047	0.6476	0.7768	0.497
Mof_P 	P 	0.7863	0.1099	0.6687	0.542
Mof_O 	O 	0.0713	0.7395	0.6653	-0.481
Mof_O 	O 	0.8671	0.625	0.6035	-0.29
Mof_O 	O 	0.0197	0.4887	0.6748	-0.495
Mof_O 	O 	0.8465	0.7364	0.7718	-0.497
Mof_O 	O 	0.7394	0.4987	0.7676	-0.472
Mof_O 	O 	0.6173	0.6768	0.8327	-0.28
Mof_O 	O 	0.8923	0.9969	0.6873	-0.493
Mof_O 	O 	0.7826	0.2332	0.7073	-0.491
Mof_O 	O 	0.6253	0.0494	0.6567	-0.483
Mof_H 	H 	0.5608	0.0907	0.6755	0.3
Mof_N 	N 	0.3252	0.5899	0.5961	-0.122
Mof_H 	H 	0.3801	0.5598	0.5652	0.091
Mof_N 	N 	0.6046	0.6488	0.6609	-0.122
Mof_H 	H 	0.7084	0.6426	0.6574	0.111
Mof_N 	N 	0.837	0.0726	0.5498	-0.025
Mof_N 	N 	0.099	0.5883	0.9472	-0.053
Mof_C 	C 	0.1592	0.5781	0.5799	-0.22
Mof_H 	H 	0.142	0.4872	0.5653	0.095
Mof_H 	H 	0.1398	0.6405	0.5484	0.095
Mof_C 	C 	0.3692	0.5035	0.6454	-0.055
Mof_H 	H 	0.3365	0.411	0.6384	0.062
Mof_H 	H 	0.3185	0.5355	0.6801	0.052
Mof_C 	C 	0.54	0.5072	0.6539	-0.064
Mof_H 	H 	0.5888	0.4644	0.621	0.056
Mof_H 	H 	0.5657	0.4544	0.6879	0.059
Mof_C 	C 	0.5492	0.7367	0.6133	-0.08
Mof_H 	H 	0.5953	0.7065	0.5774	0.066
Mof_H 	H 	0.5833	0.8289	0.6203	0.079
Mof_C 	C 	0.3744	0.7365	0.6065	-0.05
Mof_H 	H 	0.3261	0.7716	0.6411	0.058
Mof_H 	H 	0.3445	0.7929	0.5741	0.047
Mof_C 	C 	0.5708	0.7045	0.7201	-0.225
Mof_H 	H 	0.4676	0.678	0.731	0.102
Mof_H 	H 	0.5735	0.8028	0.7183	0.107
Mof_C 	C 	0.8534	0.1753	0.5996	-0.227
Mof_H 	H 	0.7957	0.2565	0.5901	0.102
Mof_H 	H 	0.9605	0.2008	0.6032	0.096
Mof_C 	C 	0.8763	0.1438	0.495	-0.082
Mof_H 	H 	0.9858	0.1614	0.4932	0.058
Mof_H 	H 	0.8223	0.2297	0.4927	0.063
Mof_C 	C 	0.826	0.952	0.5557	-0.038
Mof_H 	H 	0.7158	0.963	0.5547	0.068
Mof_H 	H 	0.8528	0.9091	0.5921	0.018
Mof_C 	C 	0.09	0.441	0.9451	-0.01
Mof_H 	H 	0.1255	0.396	0.9104	0.036
Mof_H 	H 	0.9795	0.4529	0.9419	0.036
Mof_Gd	Gd	0.95591	0.37002	0.75469	1.941
Mof_P 	P 	0.9824	0.1105	0.86425	0.516
Mof_P 	P 	0.2953	0.1476	0.7232	0.496
Mof_P 	P 	0.2137	0.6099	0.8313	0.542
Mof_O 	O 	0.9287	0.2395	0.8347	-0.481
Mof_O 	O 	0.1329	0.125	0.8965	-0.289
Mof_O 	O 	0.9803	0.9887	0.8252	-0.496
Mof_O 	O 	0.1535	0.2364	0.7282	-0.496
Mof_O 	O 	0.2606	0.9987	0.7324	-0.472
Mof_O 	O 	0.3827	0.1768	0.6673	-0.28
Mof_O 	O 	0.1077	0.4969	0.8127	-0.492
Mof_O 	O 	0.2174	0.7332	0.7927	-0.491
Mof_O 	O 	0.3747	0.5494	0.8433	-0.482
Mof_H 	H 	0.4392	0.5907	0.8245	0.3
Mof_N 	N 	0.6748	0.0899	0.9039	-0.122
Mof_H 	H 	0.6199	0.0598	0.9348	0.091
Mof_N 	N 	0.3954	0.1488	0.8391	-0.122
Mof_H 	H 	0.2916	0.1426	0.8426	0.111
Mof_N 	N 	0.163	0.5726	0.9502	-0.026
Mof_N 	N 	0.901	0.0883	0.5528	-0.055
Mof_C 	C 	0.8408	0.0781	0.9201	-0.22
Mof_H 	H 	0.858	0.9872	0.9347	0.095
Mof_H 	H 	0.8602	0.1405	0.9516	0.094
Mof_C 	C 	0.6308	0.0035	0.8546	-0.056
Mof_H 	H 	0.6635	0.911	0.8616	0.062
Mof_H 	H 	0.6815	0.0355	0.8199	0.052
Mof_C 	C 	0.46	0.0072	0.8461	-0.066
Mof_H 	H 	0.4112	0.9644	0.879	0.056
Mof_H 	H 	0.4343	0.9544	0.8121	0.06
Mof_C 	C 	0.4508	0.2367	0.8867	-0.08
Mof_H 	H 	0.4047	0.2065	0.9226	0.065
Mof_H 	H 	0.4167	0.3289	0.8797	0.079
Mof_C 	C 	0.6256	0.2365	0.8935	-0.051
Mof_H 	H 	0.6739	0.2716	0.8589	0.058
Mof_H 	H 	0.6555	0.2929	0.9259	0.047
Mof_C 	C 	0.4292	0.2045	0.7799	-0.225
Mof_H 	H 	0.5324	0.178	0.769	0.102
Mof_H 	H 	0.4265	0.3028	0.7817	0.107
Mof_C 	C 	0.1466	0.6753	0.9004	-0.227
Mof_H 	H 	0.2043	0.7565	0.9099	0.102
Mof_H 	H 	0.0395	0.7008	0.8968	0.097
Mof_C 	C 	0.1237	0.6438	0.005	-0.083
Mof_H 	H 	0.0142	0.6614	0.0068	0.059
Mof_H 	H 	0.1777	0.7297	0.0073	0.064
Mof_C 	C 	0.174	0.452	0.9443	-0.034
Mof_H 	H 	0.2842	0.463	0.9453	0.067
Mof_H 	H 	0.1472	0.4091	0.9079	0.019
Mof_C 	C 	0.91	0.941	0.5549	-0.008
Mof_H 	H 	0.8745	0.896	0.5896	0.037
Mof_H 	H 	0.0205	0.9529	0.5581	0.036
Mof_Gd	Gd	0.95591	0.62998	0.24531	1.941
Mof_P 	P 	0.9824	0.8895	0.13575	0.516
Mof_P 	P 	0.2953	0.8524	0.2768	0.496
Mof_P 	P 	0.2137	0.3901	0.1687	0.542
Mof_O 	O 	0.9287	0.7605	0.1653	-0.481
Mof_O 	O 	0.1329	0.875	0.1035	-0.289
Mof_O 	O 	0.9803	0.0113	0.1748	-0.496
Mof_O 	O 	0.1535	0.7636	0.2718	-0.496
Mof_O 	O 	0.2606	0.0013	0.2676	-0.472
Mof_O 	O 	0.3827	0.8232	0.3327	-0.28
Mof_O 	O 	0.1077	0.5031	0.1873	-0.492
Mof_O 	O 	0.2174	0.2668	0.2073	-0.491
Mof_O 	O 	0.3747	0.4506	0.1567	-0.482
Mof_H 	H 	0.4392	0.4093	0.1755	0.3
Mof_N 	N 	0.6748	0.9101	0.0961	-0.122
Mof_H 	H 	0.6199	0.9402	0.0652	0.091
Mof_N 	N 	0.3954	0.8512	0.1609	-0.122
Mof_H 	H 	0.2916	0.8574	0.1574	0.111
Mof_N 	N 	0.163	0.4274	0.0498	-0.026
Mof_N 	N 	0.901	0.9117	0.4472	-0.055
Mof_C 	C 	0.8408	0.9219	0.0799	-0.22
Mof_H 	H 	0.858	0.0128	0.0653	0.095
Mof_H 	H 	0.8602	0.8595	0.0484	0.094
Mof_C 	C 	0.6308	0.9965	0.1454	-0.056
Mof_H 	H 	0.6635	0.089	0.1384	0.062
Mof_H 	H 	0.6815	0.9645	0.1801	0.052
Mof_C 	C 	0.46	0.9928	0.1539	-0.066
Mof_H 	H 	0.4112	0.0356	0.121	0.056
Mof_H 	H 	0.4343	0.0456	0.1879	0.06
Mof_C 	C 	0.4508	0.7633	0.1133	-0.08
Mof_H 	H 	0.4047	0.7935	0.0774	0.065
Mof_H 	H 	0.4167	0.6711	0.1203	0.079
Mof_C 	C 	0.6256	0.7635	0.1065	-0.051
Mof_H 	H 	0.6739	0.7284	0.1411	0.058
Mof_H 	H 	0.6555	0.7071	0.0741	0.047
Mof_C 	C 	0.4292	0.7955	0.2201	-0.225
Mof_H 	H 	0.5324	0.822	0.231	0.102
Mof_H 	H 	0.4265	0.6972	0.2183	0.107
Mof_C 	C 	0.1466	0.3247	0.0996	-0.227
Mof_H 	H 	0.2043	0.2435	0.0901	0.102
Mof_H 	H 	0.0395	0.2992	0.1032	0.097
Mof_C 	C 	0.1237	0.3562	0.995	-0.083
Mof_H 	H 	0.0142	0.3386	0.9932	0.059
Mof_H 	H 	0.1777	0.2703	0.9927	0.064
Mof_C 	C 	0.174	0.548	0.0557	-0.034
Mof_H 	H 	0.2842	0.537	0.0547	0.067
Mof_H 	H 	0.1472	0.5909	0.0921	0.019
Mof_C 	C 	0.91	0.059	0.4451	-0.008
Mof_H 	H 	0.8745	0.104	0.4104	0.037
Mof_H 	H 	0.0205	0.0471	0.4419	0.036
_end
