data_functionalizedCrystal
_audit_creation_method	'EQeq! by Chris Wilmer'
_symmetry_space_group_name_H-M	'P1'
_symmetry_Int_Tables_number	1
_symmetry_cell_setting	triclinic
loop_
_symmetry_equiv_pos_as_xyz
  x,y,z
_cell_length_a	10.9262
_cell_length_b	10.9262
_cell_length_c	10.9262
_cell_angle_alpha	66.5468
_cell_angle_beta	66.5468
_cell_angle_gamma	66.5468
loop_
_atom_site_label
_atom_site_type_symbol
_atom_site_fract_x
_atom_site_fract_y
_atom_site_fract_z
_atom_site_charge
Mof_Cd	Cd	-0	0	-0	0.292
Mof_H 	H 	0.8285	0.2996	0.4303	0.091
Mof_H 	H 	0.4303	0.8285	0.2996	0.091
Mof_H 	H 	0.2996	0.4303	0.8285	0.09
Mof_H 	H 	0.7004	0.1715	0.5697	0.082
Mof_H 	H 	0.1715	0.5697	0.7004	0.082
Mof_H 	H 	0.5697	0.7004	0.1715	0.082
Mof_H 	H 	0.1715	0.7004	0.5697	0.082
Mof_H 	H 	0.5697	0.1715	0.7004	0.082
Mof_H 	H 	0.7004	0.5697	0.1715	0.082
Mof_H 	H 	0.2996	0.8285	0.4303	0.09
Mof_H 	H 	0.8285	0.4303	0.2996	0.09
Mof_H 	H 	0.4303	0.2996	0.8285	0.09
Mof_H 	H 	0.6676	0.1559	0.1559	0.032
Mof_H 	H 	0.5749	0.30575	0.30575	0.04
Mof_H 	H 	0.1559	0.6676	0.1559	0.032
Mof_H 	H 	0.30575	0.5749	0.30575	0.04
Mof_H 	H 	0.1559	0.1559	0.6676	0.032
Mof_H 	H 	0.30575	0.30575	0.5749	0.04
Mof_H 	H 	0.8441	0.3324	0.8441	0.057
Mof_H 	H 	0.69425	0.4251	0.69425	0.046
Mof_H 	H 	0.3324	0.8441	0.8441	0.057
Mof_H 	H 	0.4251	0.69425	0.69425	0.046
Mof_H 	H 	0.8441	0.8441	0.3324	0.057
Mof_H 	H 	0.69425	0.69425	0.4251	0.046
Mof_H 	H 	0.80035	0.80035	0.0177	0.053
Mof_H 	H 	0.0177	0.80035	0.80035	0.053
Mof_H 	H 	0.80035	0.0177	0.80035	0.053
Mof_H 	H 	0.19965	0.19965	0.9823	0.063
Mof_H 	H 	0.19965	0.9823	0.19965	0.063
Mof_H 	H 	0.9823	0.19965	0.19965	0.063
Mof_C 	C 	0.892	0.20705	0.20705	0.073
Mof_C 	C 	0.7205	0.18345	0.18345	0.008
Mof_C 	C 	0.6685	0.266	0.266	-0.006
Mof_C 	C 	0.7793	0.36135	0.36135	-0.115
Mof_C 	C 	0.63382	0.43337	0.43337	0.014
Mof_C 	C 	0.20705	0.892	0.20705	0.073
Mof_C 	C 	0.18345	0.7205	0.18345	0.008
Mof_C 	C 	0.266	0.6685	0.266	-0.006
Mof_C 	C 	0.36135	0.7793	0.36135	-0.115
Mof_C 	C 	0.43337	0.63382	0.43337	0.014
Mof_C 	C 	0.20705	0.20705	0.892	0.073
Mof_C 	C 	0.18345	0.18345	0.7205	0.008
Mof_C 	C 	0.266	0.266	0.6685	-0.006
Mof_C 	C 	0.36135	0.36135	0.7793	-0.115
Mof_C 	C 	0.43337	0.43337	0.63382	0.014
Mof_C 	C 	0.79295	0.108	0.79295	0.082
Mof_C 	C 	0.81655	0.2795	0.81655	0.018
Mof_C 	C 	0.734	0.3315	0.734	0.003
Mof_C 	C 	0.63865	0.2207	0.63865	-0.104
Mof_C 	C 	0.56663	0.36618	0.56663	0.004
Mof_C 	C 	0.108	0.79295	0.79295	0.082
Mof_C 	C 	0.2795	0.81655	0.81655	0.018
Mof_C 	C 	0.3315	0.734	0.734	0.003
Mof_C 	C 	0.2207	0.63865	0.63865	-0.104
Mof_C 	C 	0.36618	0.56663	0.56663	0.004
Mof_C 	C 	0.79295	0.79295	0.108	0.082
Mof_C 	C 	0.81655	0.81655	0.2795	0.018
Mof_C 	C 	0.734	0.734	0.3315	0.003
Mof_C 	C 	0.63865	0.63865	0.2207	-0.104
Mof_C 	C 	0.56663	0.56663	0.36618	0.004
Mof_N 	N 	0.85452	0.85452	0.13847	-0.12
Mof_N 	N 	0.13847	0.85452	0.85452	-0.12
Mof_N 	N 	0.85452	0.13847	0.85452	-0.12
Mof_N 	N 	0.14548	0.14548	0.86153	-0.134
Mof_N 	N 	0.14548	0.86153	0.14548	-0.134
Mof_N 	N 	0.86153	0.14548	0.14548	-0.134
Mof_N 	N 	0.77914	0.28064	0.28064	-0.1
Mof_N 	N 	0.28064	0.77914	0.28064	-0.1
Mof_N 	N 	0.28064	0.28064	0.77914	-0.1
Mof_N 	N 	0.71936	0.22086	0.71936	-0.103
Mof_N 	N 	0.22086	0.71936	0.71936	-0.103
Mof_N 	N 	0.71936	0.71936	0.22086	-0.103
Mof_F 	F 	0.19503	0.19503	0.19503	-0.409
Mof_F 	F 	0.80497	0.80497	0.80497	-0.35
_end
