data_functionalizedCrystal
_audit_creation_method	'EQeq! by Chris Wilmer'
_symmetry_space_group_name_H-M	'P1'
_symmetry_Int_Tables_number	1
_symmetry_cell_setting	triclinic
loop_
_symmetry_equiv_pos_as_xyz
  x,y,z
_cell_length_a	10.058
_cell_length_b	16.6
_cell_length_c	14.739
_cell_angle_alpha	90
_cell_angle_beta	94.75
_cell_angle_gamma	90
loop_
_atom_site_label
_atom_site_type_symbol
_atom_site_fract_x
_atom_site_fract_y
_atom_site_fract_z
_atom_site_charge
Mof_Zn	Zn	0.22781	0.87867	0.51417	1.167
Mof_Zn	Zn	0.46304	0.82228	0.68425	1.24
Mof_O 	O 	0.5455	0.4415	0.3159	-0.464
Mof_O 	O 	0.6595	0.4754	0.447	-0.5
Mof_C 	C 	0.5767	0.4881	0.3807	0.413
Mof_C 	C 	0.5079	0.5677	0.381	-0.092
Mof_C 	C 	0.44	0.6867	0.458	-0.093
Mof_C 	C 	0.5071	0.6138	0.4582	0.03
Mof_H 	H 	0.5537	0.5954	0.513	0.041
Mof_C 	C 	0.3715	0.6687	0.3027	0.117
Mof_C 	C 	0.4346	0.5934	0.3024	-0.057
Mof_H 	H 	0.4273	0.5606	0.2493	0.088
Mof_C 	C 	0.372	0.7121	0.3803	-0.061
Mof_H 	H 	0.3238	0.7613	0.3802	0.007
Mof_O 	O 	0.1656	0.849	0.6391	-0.53
Mof_O 	O 	0.3054	0.7993	0.7509	-0.454
Mof_C 	C 	0.1921	0.8214	0.7143	0.419
Mof_C 	C 	0.0775	0.8086	0.774	-0.098
Mof_C 	C 	0.8422	0.8051	0.7862	-0.061
Mof_C 	C 	0.9471	0.8165	0.7352	0.026
Mof_H 	H 	0.9313	0.83	0.6726	0.038
Mof_C 	C 	0.8621	0.7859	0.8764	-0.015
Mof_H 	H 	0.7891	0.7773	0.9122	0.082
Mof_C 	C 	0.1002	0.7915	0.8649	-0.007
Mof_H 	H 	0.1888	0.7881	0.8925	0.069
Mof_C 	C 	0.9956	0.77936	0.9147	0.025
Mof_O 	O 	0.6055	0.8014	0.7894	-0.377
Mof_C 	C 	0.4429	0.7353	0.5442	0.339
Mof_O 	O 	0.4039	0.8076	0.5402	-0.559
Mof_O 	O 	0.6872	0.8298	0.6588	-0.349
Mof_C 	C 	0.7024	0.8141	0.7406	0.297
Mof_N 	N 	0.0199	0.75955	0.0057	0.473
Mof_N 	N 	0.9293	0.7197	0.0506	0.002
Mof_N 	N 	0.9843	0.7111	0.1349	-0.108
Mof_C 	C 	0.1073	0.7452	0.1413	0.332
Mof_C 	C 	0.1321	0.7762	0.0597	-1.052
Mof_H 	H 	0.21	0.8034	0.0438	0.313
Mof_C 	C 	0.188	0.7435	0.2278	-0.228
Mof_H 	H 	0.2346	0.7956	0.2381	0.074
Mof_H 	H 	0.1303	0.7347	0.2781	0.09
Mof_O 	O 	0.2832	0.6797	0.2259	-0.177
Mof_O 	O 	0.4812	0.7043	0.6192	-0.381
Mof_N 	N 	0.3248	0.7118	0.2141	0.042
Mof_N 	N 	0.3484	0.6856	0.1315	-0.051
Mof_N 	N 	0.267	0.7264	0.0734	-0.019
Mof_C 	C 	0.192	0.7777	0.1197	0.078
Mof_C 	C 	0.2293	0.7688	0.2112	0.03
Mof_H 	H 	0.1955	0.7966	0.2608	-0.025
Mof_C 	C 	0.0924	0.8322	0.0739	1.114
Mof_H 	H 	0.0549	0.8671	0.1199	-0.309
Mof_H 	H 	0.1366	0.8674	0.0312	-0.282
Mof_O 	O 	0.9876	0.7893	0.0255	-0.618
Mof_Zn	Zn	0.77219	0.37867	0.48583	1.167
Mof_Zn	Zn	0.53696	0.32228	0.31575	1.239
Mof_O 	O 	0.4545	0.9415	0.6841	-0.464
Mof_O 	O 	0.3405	0.9754	0.553	-0.502
Mof_C 	C 	0.4233	0.9881	0.6193	0.396
Mof_C 	C 	0.4921	0.0677	0.619	-0.071
Mof_C 	C 	0.56	0.1867	0.542	-0.084
Mof_C 	C 	0.4929	0.1138	0.5418	0.019
Mof_H 	H 	0.4463	0.0954	0.487	0.048
Mof_C 	C 	0.6285	0.1687	0.6973	0.125
Mof_C 	C 	0.5654	0.0934	0.6976	-0.067
Mof_H 	H 	0.5727	0.0606	0.7507	0.096
Mof_C 	C 	0.628	0.2121	0.6197	-0.068
Mof_H 	H 	0.6762	0.2613	0.6198	0.011
Mof_O 	O 	0.8344	0.349	0.3609	-0.527
Mof_O 	O 	0.6946	0.2993	0.2491	-0.452
Mof_C 	C 	0.8079	0.3214	0.2857	0.418
Mof_C 	C 	0.9225	0.3086	0.226	-0.092
Mof_C 	C 	0.1578	0.3051	0.2138	-0.057
Mof_C 	C 	0.0529	0.3165	0.2648	0.02
Mof_H 	H 	0.0687	0.33	0.3274	0.04
Mof_C 	C 	0.1379	0.2859	0.1236	-0.018
Mof_H 	H 	0.2109	0.2773	0.0878	0.084
Mof_C 	C 	0.8998	0.2915	0.1351	-0.007
Mof_H 	H 	0.8112	0.2881	0.1075	0.07
Mof_C 	C 	0.0044	0.27936	0.0853	0.028
Mof_O 	O 	0.3945	0.3014	0.2106	-0.375
Mof_C 	C 	0.5571	0.2353	0.4558	0.336
Mof_O 	O 	0.5961	0.3076	0.4598	-0.557
Mof_O 	O 	0.3128	0.3298	0.3412	-0.347
Mof_C 	C 	0.2976	0.3141	0.2594	0.296
Mof_N 	N 	0.9801	0.25955	0.9943	0.453
Mof_N 	N 	0.0707	0.2197	0.9494	0.002
Mof_N 	N 	0.0157	0.2111	0.8651	-0.107
Mof_C 	C 	0.8927	0.2452	0.8587	0.323
Mof_C 	C 	0.8679	0.2762	0.9403	-0.985
Mof_H 	H 	0.79	0.3034	0.9562	0.298
Mof_C 	C 	0.812	0.2435	0.7722	-0.219
Mof_H 	H 	0.7654	0.2956	0.7619	0.074
Mof_H 	H 	0.8697	0.2347	0.7219	0.089
Mof_O 	O 	0.7168	0.1797	0.7741	-0.18
Mof_O 	O 	0.5188	0.2043	0.3808	-0.378
Mof_N 	N 	0.6752	0.2118	0.7859	0.043
Mof_N 	N 	0.6516	0.1856	0.8685	-0.049
Mof_N 	N 	0.733	0.2264	0.9266	-0.021
Mof_C 	C 	0.808	0.2777	0.8803	0.067
Mof_C 	C 	0.7707	0.2688	0.7888	0.03
Mof_H 	H 	0.8045	0.2966	0.7392	-0.026
Mof_C 	C 	0.9076	0.3322	0.9261	1.045
Mof_H 	H 	0.9451	0.3671	0.8801	-0.284
Mof_H 	H 	0.8634	0.3674	0.9688	-0.26
Mof_O 	O 	0.0124	0.2893	0.9745	-0.599
_end
