data_functionalizedCrystal
_audit_creation_method	'EQeq! by Chris Wilmer'
_symmetry_space_group_name_H-M	'P1'
_symmetry_Int_Tables_number	1
_symmetry_cell_setting	triclinic
loop_
_symmetry_equiv_pos_as_xyz
  x,y,z
_cell_length_a	13.0533
_cell_length_b	13.1471
_cell_length_c	14.0537
_cell_angle_alpha	90
_cell_angle_beta	104.088
_cell_angle_gamma	90
loop_
_atom_site_label
_atom_site_type_symbol
_atom_site_fract_x
_atom_site_fract_y
_atom_site_fract_z
_atom_site_charge
Mof_Eu	Eu	0.59068	0.05284	0.91193	2.446
Mof_Cl	Cl	0.80191	0.13799	0.92281	-0.431
Mof_O 	O 	0.4632	0.9301	0.8332	-0.54
Mof_O 	O 	0.3499	0.8876	0.9245	-0.533
Mof_O 	O 	0.2033	0.5928	0.4728	-0.475
Mof_O 	O 	0.0688	0.586	0.5418	-0.656
Mof_C 	C 	0.3214	0.8205	0.7643	-0.101
Mof_C 	C 	0.3443	0.8215	0.6728	-0.005
Mof_H 	H 	0.3947	0.8661	0.6603	0.053
Mof_C 	C 	0.2922	0.7564	0.6008	-0.003
Mof_H 	H 	0.3102	0.7551	0.5407	0.061
Mof_C 	C 	0.2131	0.6924	0.6162	-0.113
Mof_C 	C 	0.1877	0.6939	0.7063	0.023
Mof_H 	H 	0.1338	0.6525	0.7171	0.025
Mof_C 	C 	0.2425	0.7572	0.7806	-0.023
Mof_H 	H 	0.2262	0.7571	0.8414	0.074
Mof_C 	C 	0.3843	0.8849	0.8475	0.492
Mof_C 	C 	0.1598	0.6203	0.5394	0.432
Mof_O 	O 	0.5573	0.2475	0.9137	-0.422
Mof_O 	O 	0.7098	0.3293	0.9756	-0.239
Mof_C 	C 	0.5522	0.4159	0.9767	-0.066
Mof_C 	C 	0.6091	0.4918	0.0379	-0.015
Mof_H 	H 	0.6816	0.4857	0.0633	0.055
Mof_C 	C 	0.4442	0.4249	0.9407	-0.015
Mof_H 	H 	0.4072	0.3737	0.9012	0.056
Mof_C 	C 	0.6068	0.3214	0.9518	0.359
Mof_O 	O 	0.6415	0.9866	0.7607	-0.384
Mof_O 	O 	0.5272	0.1113	0.7444	-0.449
Mof_C 	C 	0.5351	0.0203	0.5996	-0.037
Mof_C 	C 	0.5795	0.9443	0.5583	-0.025
Mof_H 	H 	0.6334	0.9056	0.5971	0.088
Mof_C 	C 	0.4549	0.0766	0.5421	-0.023
Mof_H 	H 	0.4235	0.1286	0.5698	0.079
Mof_C 	C 	0.5704	0.0417	0.7081	0.303
Mof_Eu	Eu	0.90932	0.55284	0.58807	2.475
Mof_Cl	Cl	0.69809	0.63799	0.57719	-0.426
Mof_O 	O 	0.0368	0.4301	0.6668	-0.548
Mof_O 	O 	0.1501	0.3876	0.5755	-0.542
Mof_O 	O 	0.2967	0.0928	0.0272	-0.458
Mof_O 	O 	0.4312	0.086	0.9582	-0.651
Mof_C 	C 	0.1786	0.3205	0.7357	-0.108
Mof_C 	C 	0.1557	0.3215	0.8272	0
Mof_H 	H 	0.1053	0.3661	0.8397	0.05
Mof_C 	C 	0.2078	0.2564	0.8992	-0.01
Mof_H 	H 	0.1898	0.2551	0.9593	0.062
Mof_C 	C 	0.2869	0.1924	0.8838	-0.105
Mof_C 	C 	0.3123	0.1939	0.7937	0.015
Mof_H 	H 	0.3662	0.1525	0.7829	0.027
Mof_C 	C 	0.2575	0.2572	0.7194	-0.017
Mof_H 	H 	0.2738	0.2571	0.6586	0.07
Mof_C 	C 	0.1157	0.3849	0.6525	0.496
Mof_C 	C 	0.3402	0.1203	0.9606	0.416
Mof_O 	O 	0.9427	0.7475	0.5863	-0.423
Mof_O 	O 	0.7902	0.8293	0.5244	-0.238
Mof_C 	C 	0.9478	0.9159	0.5233	-0.064
Mof_C 	C 	0.8909	0.9918	0.4621	-0.017
Mof_H 	H 	0.8184	0.9857	0.4367	0.054
Mof_C 	C 	0.0558	0.9249	0.5593	-0.015
Mof_H 	H 	0.0928	0.8737	0.5988	0.056
Mof_C 	C 	0.8932	0.8214	0.5482	0.36
Mof_O 	O 	0.8585	0.4866	0.7393	-0.394
Mof_O 	O 	0.9728	0.6113	0.7556	-0.452
Mof_C 	C 	0.9649	0.5203	0.9004	-0.037
Mof_C 	C 	0.9205	0.4443	0.9417	-0.029
Mof_H 	H 	0.8666	0.4056	0.9029	0.089
Mof_C 	C 	0.0451	0.5766	0.9579	-0.02
Mof_H 	H 	0.0765	0.6286	0.9302	0.079
Mof_C 	C 	0.9296	0.5417	0.7919	0.311
Mof_Eu	Eu	0.40932	0.94716	0.08807	2.447
Mof_Cl	Cl	0.19809	0.86201	0.07719	-0.43
Mof_O 	O 	0.5368	0.0699	0.1668	-0.539
Mof_O 	O 	0.6501	0.1124	0.0755	-0.532
Mof_O 	O 	0.7967	0.4072	0.5272	-0.474
Mof_O 	O 	0.9312	0.414	0.4582	-0.655
Mof_C 	C 	0.6786	0.1795	0.2357	-0.101
Mof_C 	C 	0.6557	0.1785	0.3272	-0.005
Mof_H 	H 	0.6053	0.1339	0.3397	0.053
Mof_C 	C 	0.7078	0.2436	0.3992	-0.003
Mof_H 	H 	0.6898	0.2449	0.4593	0.061
Mof_C 	C 	0.7869	0.3076	0.3838	-0.113
Mof_C 	C 	0.8123	0.3061	0.2937	0.023
Mof_H 	H 	0.8662	0.3475	0.2829	0.025
Mof_C 	C 	0.7575	0.2428	0.2194	-0.023
Mof_H 	H 	0.7738	0.2429	0.1586	0.074
Mof_C 	C 	0.6157	0.1151	0.1525	0.492
Mof_C 	C 	0.8402	0.3797	0.4606	0.432
Mof_O 	O 	0.4427	0.7525	0.0863	-0.422
Mof_O 	O 	0.2902	0.6707	0.0244	-0.239
Mof_C 	C 	0.4478	0.5841	0.0233	-0.066
Mof_C 	C 	0.3909	0.5082	0.9621	-0.015
Mof_H 	H 	0.3184	0.5143	0.9367	0.055
Mof_C 	C 	0.5558	0.5751	0.0593	-0.015
Mof_H 	H 	0.5928	0.6263	0.0988	0.056
Mof_C 	C 	0.3932	0.6786	0.0482	0.359
Mof_O 	O 	0.3585	0.0134	0.2393	-0.384
Mof_O 	O 	0.4728	0.8887	0.2556	-0.449
Mof_C 	C 	0.4649	0.9797	0.4004	-0.037
Mof_C 	C 	0.4205	0.0557	0.4417	-0.025
Mof_H 	H 	0.3666	0.0944	0.4029	0.088
Mof_C 	C 	0.5451	0.9234	0.4579	-0.023
Mof_H 	H 	0.5765	0.8714	0.4302	0.079
Mof_C 	C 	0.4296	0.9583	0.2919	0.303
Mof_Eu	Eu	0.09068	0.44716	0.41193	2.475
Mof_Cl	Cl	0.30191	0.36201	0.42281	-0.426
Mof_O 	O 	0.9632	0.5699	0.3332	-0.548
Mof_O 	O 	0.8499	0.6124	0.4245	-0.542
Mof_O 	O 	0.7033	0.9072	0.9728	-0.458
Mof_O 	O 	0.5688	0.914	0.0418	-0.651
Mof_C 	C 	0.8214	0.6795	0.2643	-0.108
Mof_C 	C 	0.8443	0.6785	0.1728	0
Mof_H 	H 	0.8947	0.6339	0.1603	0.05
Mof_C 	C 	0.7922	0.7436	0.1008	-0.01
Mof_H 	H 	0.8102	0.7449	0.0407	0.062
Mof_C 	C 	0.7131	0.8076	0.1162	-0.105
Mof_C 	C 	0.6877	0.8061	0.2063	0.015
Mof_H 	H 	0.6338	0.8475	0.2171	0.027
Mof_C 	C 	0.7425	0.7428	0.2806	-0.017
Mof_H 	H 	0.7262	0.7429	0.3414	0.07
Mof_C 	C 	0.8843	0.6151	0.3475	0.496
Mof_C 	C 	0.6598	0.8797	0.0394	0.416
Mof_O 	O 	0.0573	0.2525	0.4137	-0.423
Mof_O 	O 	0.2098	0.1707	0.4756	-0.238
Mof_C 	C 	0.0522	0.0841	0.4767	-0.064
Mof_C 	C 	0.1091	0.0082	0.5379	-0.017
Mof_H 	H 	0.1816	0.0143	0.5633	0.054
Mof_C 	C 	0.9442	0.0751	0.4407	-0.015
Mof_H 	H 	0.9072	0.1263	0.4012	0.056
Mof_C 	C 	0.1068	0.1786	0.4518	0.36
Mof_O 	O 	0.1415	0.5134	0.2607	-0.394
Mof_O 	O 	0.0272	0.3887	0.2444	-0.452
Mof_C 	C 	0.0351	0.4797	0.0996	-0.037
Mof_C 	C 	0.0795	0.5557	0.0583	-0.029
Mof_H 	H 	0.1334	0.5944	0.0971	0.089
Mof_C 	C 	0.9549	0.4234	0.0421	-0.02
Mof_H 	H 	0.9235	0.3714	0.0698	0.079
Mof_C 	C 	0.0704	0.4583	0.2081	0.311
_end
