# CIF file generated by openbabel 3.1.0, see https://openbabel.org
data_I
_chemical_name_common 'image0'
_cell_length_a 12.7816
_cell_length_b 12.7816
_cell_length_c 13.062
_cell_angle_alpha 90
_cell_angle_beta 90
_cell_angle_gamma 90
_space_group_name_H-M_alt 'P 1'
_space_group_name_Hall 'P 1'
loop_
    _symmetry_equiv_pos_as_xyz
    x,y,z
loop_
    _atom_site_label
    _atom_site_type_symbol
    _atom_site_fract_x
    _atom_site_fract_y
    _atom_site_fract_z
    _atom_site_occupancy
    N1       N        0.10190    0.58510    0.12040    1.000
    C1       C        0.15740    0.63550    0.07160    1.000
    C2       C        0.22910    0.40050    0.25250    1.000
    C3       C        0.30770    0.32520    0.25170    1.000
    N2       N        0.60190    0.08510    0.62040    1.000
    C4       C        0.65740    0.13550    0.57160    1.000
    C5       C        0.72910    0.90050    0.75250    1.000
    C6       C        0.80770    0.82520    0.75170    1.000
    N3       N        0.39810    0.91490    0.62040    1.000
    C7       C        0.34260    0.86450    0.57160    1.000
    C8       C        0.27090    0.09950    0.75250    1.000
    C9       C        0.19230    0.17480    0.75170    1.000
    N4       N        0.89810    0.41490    0.12040    1.000
    C10      C        0.84260    0.36450    0.07160    1.000
    C11      C        0.77090    0.59950    0.25250    1.000
    C12      C        0.69230    0.67480    0.25170    1.000
    N5       N        0.08510    0.60190    0.37960    1.000
    C13      C        0.13550    0.65740    0.42840    1.000
    C14      C        0.90050    0.72910    0.24750    1.000
    C15      C        0.82520    0.80770    0.24830    1.000
    N6       N        0.58510    0.10190    0.87960    1.000
    C16      C        0.63550    0.15740    0.92840    1.000
    C17      C        0.40050    0.22910    0.74750    1.000
    C18      C        0.32520    0.30770    0.74830    1.000
    N7       N        0.41490    0.89810    0.87960    1.000
    C19      C        0.36450    0.84260    0.92840    1.000
    C20      C        0.59950    0.77090    0.74750    1.000
    C21      C        0.67480    0.69230    0.74830    1.000
    N8       N        0.91490    0.39810    0.37960    1.000
    C22      C        0.86450    0.34260    0.42840    1.000
    C23      C        0.09950    0.27090    0.24750    1.000
    C24      C        0.17480    0.19230    0.24830    1.000
    Cd1      Cd       0.00000    0.50000    0.25000    1.000
    Cd2      Cd       0.50000    0.00000    0.75000    1.000
    N9       N        0.12670    0.37330    0.25000    1.000
    C25      C        0.27960    0.22040    0.25000    1.000
    N10      N        0.37330    0.12670    0.75000    1.000
    C26      C        0.22040    0.27960    0.75000    1.000
    N11      N        0.87330    0.62670    0.25000    1.000
    C27      C        0.72040    0.77960    0.25000    1.000
    N12      N        0.62670    0.87330    0.75000    1.000
    C28      C        0.77960    0.72040    0.75000    1.000
    Ag1      Ag       0.25855    0.74145    0.00000    1.000
    Ag2      Ag       0.75855    0.24145    0.50000    1.000
    Ag3      Ag       0.24145    0.75855    0.50000    1.000
    Ag4      Ag       0.74145    0.25855    0.00000    1.000
    N13      N        0.41490    0.60190    0.37040    1.000
    C29      C        0.36450    0.65740    0.32160    1.000
    C30      C        0.59950    0.72910    0.50250    1.000
    C31      C        0.67480    0.80770    0.50170    1.000
    N14      N        0.91490    0.10190    0.87040    1.000
    C32      C        0.86450    0.15740    0.82160    1.000
    C33      C        0.09950    0.22910    0.00250    1.000
    C34      C        0.17480    0.30770    0.00170    1.000
    N15      N        0.08510    0.89810    0.87040    1.000
    C35      C        0.13550    0.84260    0.82160    1.000
    C36      C        0.90050    0.77090    0.00250    1.000
    C37      C        0.82520    0.69230    0.00170    1.000
    N16      N        0.58510    0.39810    0.37040    1.000
    C38      C        0.63550    0.34260    0.32160    1.000
    C39      C        0.40050    0.27090    0.50250    1.000
    C40      C        0.32520    0.19230    0.50170    1.000
    N17      N        0.39810    0.58510    0.62960    1.000
    C41      C        0.34260    0.63550    0.67840    1.000
    C42      C        0.27090    0.40050    0.49750    1.000
    C43      C        0.19230    0.32520    0.49830    1.000
    N18      N        0.89810    0.08510    0.12960    1.000
    C44      C        0.84260    0.13550    0.17840    1.000
    C45      C        0.77090    0.90050    0.99750    1.000
    C46      C        0.69230    0.82520    0.99830    1.000
    N19      N        0.10190    0.91490    0.12960    1.000
    C47      C        0.15740    0.86450    0.17840    1.000
    C48      C        0.22910    0.09950    0.99750    1.000
    C49      C        0.30770    0.17480    0.99830    1.000
    N20      N        0.60190    0.41490    0.62960    1.000
    C50      C        0.65740    0.36450    0.67840    1.000
    C51      C        0.72910    0.59950    0.49750    1.000
    C52      C        0.80770    0.67480    0.49830    1.000
    Cd3      Cd       0.50000    0.50000    0.50000    1.000
    Cd4      Cd       0.00000    0.00000    0.00000    1.000
    N21      N        0.62670    0.62670    0.50000    1.000
    C53      C        0.77960    0.77960    0.50000    1.000
    N22      N        0.87330    0.87330    0.00000    1.000
    C54      C        0.72040    0.72040    0.00000    1.000
    N23      N        0.37330    0.37330    0.50000    1.000
    C55      C        0.22040    0.22040    0.50000    1.000
    N24      N        0.12670    0.12670    0.00000    1.000
    C56      C        0.27960    0.27960    0.00000    1.000
    Ag5      Ag       0.25855    0.75855    0.25000    1.000
    Ag6      Ag       0.75855    0.25855    0.75000    1.000
    Ag7      Ag       0.24145    0.74145    0.75000    1.000
    Ag8      Ag       0.74145    0.24145    0.25000    1.000
