# CIF file generated by openbabel 3.1.0, see https://openbabel.org
data_I
_chemical_name_common 'image0'
_cell_length_a 24.7139
_cell_length_b 20.7704
_cell_length_c 24.9502
_cell_angle_alpha 90
_cell_angle_beta 99.081
_cell_angle_gamma 90
_space_group_name_H-M_alt 'P 1'
_space_group_name_Hall 'P 1'
loop_
    _symmetry_equiv_pos_as_xyz
    x,y,z
loop_
    _atom_site_label
    _atom_site_type_symbol
    _atom_site_fract_x
    _atom_site_fract_y
    _atom_site_fract_z
    _atom_site_occupancy
    Gd1      Gd       0.78815    0.53497    0.87552    1.000
    O1       O        0.81375    0.56430    0.79120    1.000
    O2       O        0.76546    0.45000    0.81090    1.000
    O3       O        0.86988    0.47900    0.86959    1.000
    O4       O        0.85090    0.62000    0.90340    1.000
    O5       O        0.70850    0.59630    0.83720    1.000
    O6       O        0.74160    0.61180    0.92440    1.000
    O7       O        0.80450    0.47550    0.95670    1.000
    Gd2      Gd       0.91354    0.53312    0.80463    1.000
    Gd3      Gd       0.77177    0.49412    0.72173    1.000
    H1       H        0.80830    0.60390    0.78350    1.000
    Gd4      Gd       0.84192    0.37577    0.83473    1.000
    H2       H        0.73460    0.43290    0.81260    1.000
    H3       H        0.89050    0.47650    0.90020    1.000
    O8       O        0.85669    0.45120    0.76318    1.000
    O9       O        0.96870    0.44240    0.80820    1.000
    O10      O        0.90550    0.63640    0.84140    1.000
    O11      O        0.90590    0.59040    0.72340    1.000
    O12      O        0.70127    0.42500    0.68292    1.000
    O13      O        0.72600    0.53520    0.63538    1.000
    O14      O        0.68238    0.53860    0.73011    1.000
    O15      O        0.81390    0.42290    0.66312    1.000
    O16      O        0.82760    0.56130    0.67320    1.000
    O17      O        0.87550    0.27380    0.88100    1.000
    O18      O        0.91790    0.36220    0.91430    1.000
    O19      O        0.92760    0.34670    0.80180    1.000
    O20      O        0.75980    0.30650    0.81417    1.000
    O21      O        0.81210    0.31690    0.75088    1.000
    O22      O        0.80180    0.37580    0.91931    1.000
    H4       H        0.87220    0.43200    0.73960    1.000
    Gd5      Gd       0.68220    0.45027    0.58335    1.000
    Gd6      Gd       0.61574    0.45181    0.70796    1.000
    H5       H        0.70940    0.38560    0.68890    1.000
    Gd7      Gd       0.65736    0.60991    0.65586    1.000
    H6       H        0.74870    0.55400    0.61840    1.000
    H7       H        0.68120    0.55580    0.76080    1.000
    C1       C        0.80910    0.40140    0.61660    1.000
    C2       C        0.91150    0.30340    0.91480    1.000
    O23      O        0.61796    0.50940    0.62751    1.000
    O24      O        0.67090    0.53600    0.52318    1.000
    O25      O        0.77010    0.41230    0.57900    1.000
    O26      O        0.66440    0.34170    0.60180    1.000
    O27      O        0.60170    0.35250    0.65780    1.000
    O28      O        0.56740    0.53390    0.74490    1.000
    O29      O        0.65190    0.40470    0.79390    1.000
    O30      O        0.56600    0.38310    0.76140    1.000
    O31      O        0.66830    0.63180    0.56370    1.000
    O32      O        0.57153    0.61650    0.68760    1.000
    O33      O        0.67370    0.68230    0.73707    1.000
    O34      O        0.74140    0.66330    0.69140    1.000
    C3       C        0.85560    0.36080    0.60280    1.000
    H8       H        0.93420    0.27880    0.94160    1.000
    H9       H        0.58660    0.51290    0.60810    1.000
    C4       C        0.68120    0.59570    0.52730    1.000
    C5       C        0.61970    0.32740    0.61900    1.000
    C6       C        0.54860    0.58600    0.72160    1.000
    C7       C        0.89550    0.33600    0.64310    1.000
    C8       C        0.86170    0.35110    0.54900    1.000
    C9       C        0.70970    0.62440    0.48370    1.000
    C10      C        0.58520    0.27700    0.58660    1.000
    C11      C        0.49670    0.61160    0.73740    1.000
    H10      H        0.89130    0.34090    0.68010    1.000
    C12      C        0.94150    0.30410    0.63020    1.000
    C13      C        0.90790    0.31970    0.53630    1.000
    H11      H        0.83420    0.36590    0.52070    1.000
    C14      C        0.73160    0.58520    0.44780    1.000
    C15      C        0.71350    0.69040    0.47790    1.000
    C16      C        0.59990    0.25660    0.53800    1.000
    C17      C        0.53660    0.25650    0.60170    1.000
    C18      C        0.46470    0.57320    0.76430    1.000
    C19      C        0.48100    0.67550    0.72720    1.000
    H12      H        0.96810    0.28680    0.65830    1.000
    C20      C        0.94840    0.29760    0.57640    1.000
    H13      H        0.91150    0.31340    0.49930    1.000
    H14      H        0.73070    0.53980    0.45240    1.000
    C21      C        0.75480    0.61010    0.40580    1.000
    C22      C        0.73710    0.71660    0.43580    1.000
    H15      H        0.69990    0.71820    0.50300    1.000
    C23      C        0.56500    0.21740    0.50330    1.000
    H16      H        0.63400    0.26960    0.52840    1.000
    H17      H        0.52760    0.26980    0.63560    1.000
    C24      C        0.50070    0.21660    0.56820    1.000
    H18      H        0.47560    0.52990    0.77210    1.000
    C25      C        0.41660    0.59560    0.78050    1.000
    C26      C        0.43370    0.69980    0.74420    1.000
    H19      H        0.50260    0.70280    0.70850    1.000
    C27      C        0.00070    0.27010    0.56230    1.000
    H20      H        0.76910    0.58200    0.38150    1.000
    C28      C        0.75730    0.67650    0.39880    1.000
    H21      H        0.73950    0.76200    0.43220    1.000
    C29      C        0.57830    0.19850    0.44970    1.000
    C30      C        0.51570    0.19730    0.51850    1.000
    C31      C        0.44810    0.19500    0.58210    1.000
    H22      H        0.39470    0.56750    0.79810    1.000
    C32      C        0.40070    0.65980    0.77070    1.000
    H23      H        0.42400    0.74360    0.73780    1.000
    C33      C        0.03100    0.22390    0.59420    1.000
    C34      C        0.02060    0.29360    0.51670    1.000
    C35      C        0.77670    0.70390    0.35030    1.000
    C36      C        0.63150    0.18180    0.44290    1.000
    C37      C        0.53590    0.19670    0.40490    1.000
    H24      H        0.49180    0.17010    0.49500    1.000
    C38      C        0.44210    0.18060    0.63560    1.000
    C39      C        0.40250    0.18830    0.54060    1.000
    C40      C        0.34890    0.68500    0.78790    1.000
    H25      H        0.01830    0.20780    0.62560    1.000
    C41      C        0.08020    0.20070    0.58040    1.000
    C42      C        0.06940    0.27130    0.50270    1.000
    H26      H        0.00040    0.32550    0.49480    1.000
    C43      C        0.74350    0.74630    0.31640    1.000
    C44      C        0.82810    0.68620    0.33640    1.000
    C45      C        0.64110    0.15920    0.39270    1.000
    H27      H        0.66090    0.18590    0.47220    1.000
    H28      H        0.50020    0.21090    0.40870    1.000
    C46      C        0.54610    0.17440    0.35540    1.000
    H29      H        0.47210    0.18660    0.66410    1.000
    C47      C        0.39220    0.15750    0.64730    1.000
    C48      C        0.35430    0.16390    0.55340    1.000
    H30      H        0.40510    0.20040    0.50430    1.000
    C49      C        0.33290    0.66430    0.83660    1.000
    C50      C        0.31600    0.72770    0.75450    1.000
    C51      C        0.10020    0.22440    0.53530    1.000
    C52      C        0.10950    0.14790    0.61490    1.000
    C53      C        0.08810    0.29950    0.45380    1.000
    H31      H        0.70880    0.75850    0.32500    1.000
    C54      C        0.76080    0.77080    0.26990    1.000
    C55      C        0.84550    0.71120    0.29060    1.000
    H32      H        0.85080    0.65680    0.35880    1.000
    C56      C        0.59860    0.15330    0.34900    1.000
    H33      H        0.67720    0.14770    0.38810    1.000
    H34      H        0.51720    0.17340    0.32530    1.000
    H35      H        0.38800    0.14810    0.68370    1.000
    C57      C        0.34910    0.14850    0.60540    1.000
    H36      H        0.32400    0.15780    0.52530    1.000
    H37      H        0.35540    0.63500    0.85940    1.000
    C58      C        0.28420    0.68650    0.85180    1.000
    C59      C        0.26670    0.75000    0.76960    1.000
    H38      H        0.32670    0.74190    0.72160    1.000
    H39      H        0.13400    0.20930    0.52650    1.000
    C60      C        0.14120    0.32030    0.45420    1.000
    C61      C        0.04980    0.30800    0.40650    1.000
    C62      C        0.81170    0.75380    0.25790    1.000
    C63      C        0.72310    0.81100    0.23120    1.000
    C64      C        0.89680    0.68970    0.27270    1.000
    C65      C        0.60650    0.12110    0.29840    1.000
    C66      C        0.29650    0.11720    0.61560    1.000
    C67      C        0.25220    0.73000    0.81890    1.000
    C68      C        0.26610    0.66250    0.90300    1.000
    C69      C        0.22970    0.79370    0.73220    1.000
    H40      H        0.16830    0.31190    0.48480    1.000
    C70      C        0.15510    0.35360    0.41000    1.000
    C71      C        0.06450    0.34020    0.36250    1.000
    H41      H        0.01370    0.29150    0.40470    1.000
    H42      H        0.82380    0.77160    0.22680    1.000
    C72      C        0.90960    0.62360    0.27410    1.000
    C73      C        0.93090    0.73130    0.25080    1.000
    H43      H        0.21990    0.74650    0.82990    1.000
    C74      C        0.27570    0.59780    0.91940    1.000
    C75      C        0.23780    0.70180    0.93420    1.000
    H44      H        0.19150    0.36880    0.41130    1.000
    C76      C        0.11680    0.36520    0.36400    1.000
    H45      H        0.03830    0.34530    0.33060    1.000
    H46      H        0.88780    0.59430    0.29060    1.000
    C77      C        0.95370    0.60110    0.25180    1.000
    C78      C        0.97610    0.70870    0.22900    1.000
    H47      H        0.92360    0.77620    0.25050    1.000
    H48      H        0.29570    0.57020    0.89930    1.000
    C79      C        0.25580    0.57440    0.96520    1.000
    C80      C        0.21990    0.67740    0.98080    1.000
    H49      H        0.23050    0.74530    0.92390    1.000
    C81      C        0.12980    0.40660    0.31830    1.000
    H50      H        0.96120    0.55620    0.25220    1.000
    C82      C        0.98730    0.64340    0.22880    1.000
    H51      H        0.99910    0.73820    0.21420    1.000
    H52      H        0.26080    0.53020    0.97460    1.000
    C83      C        0.22960    0.61340    0.99640    1.000
    H53      H        0.20100    0.70490    0.00210    1.000
    C84      C        0.03430    0.61720    0.20450    1.000
    C85      C        0.20780    0.58670    0.04640    1.000
    O35      O        0.24000    0.53970    0.06780    1.000
    Gd8      Gd       0.21185    0.03497    0.62448    1.000
    O36      O        0.18625    0.06430    0.70880    1.000
    O37      O        0.23454    0.95000    0.68910    1.000
    O38      O        0.13012    0.97900    0.63041    1.000
    O39      O        0.14910    0.12000    0.59660    1.000
    O40      O        0.29150    0.09630    0.66280    1.000
    O41      O        0.25840    0.11180    0.57560    1.000
    O42      O        0.19550    0.97550    0.54330    1.000
    Gd9      Gd       0.08646    0.03312    0.69537    1.000
    Gd10     Gd       0.22823    0.99412    0.77827    1.000
    H54      H        0.19170    0.10390    0.71650    1.000
    Gd11     Gd       0.15808    0.87577    0.66527    1.000
    H55      H        0.26540    0.93290    0.68740    1.000
    H56      H        0.10950    0.97650    0.59980    1.000
    O43      O        0.14331    0.95120    0.73682    1.000
    O44      O        0.03130    0.94240    0.69180    1.000
    O45      O        0.09450    0.13640    0.65860    1.000
    O46      O        0.09410    0.09040    0.77660    1.000
    O47      O        0.29873    0.92500    0.81708    1.000
    O48      O        0.27400    0.03520    0.86462    1.000
    O49      O        0.31762    0.03860    0.76989    1.000
    O50      O        0.18610    0.92290    0.83688    1.000
    O51      O        0.17240    0.06130    0.82680    1.000
    O52      O        0.12450    0.77380    0.61900    1.000
    O53      O        0.08210    0.86220    0.58570    1.000
    O54      O        0.07240    0.84670    0.69820    1.000
    O55      O        0.24020    0.80650    0.68583    1.000
    O56      O        0.18790    0.81690    0.74912    1.000
    O57      O        0.19820    0.87580    0.58069    1.000
    H57      H        0.12780    0.93200    0.76040    1.000
    Gd12     Gd       0.31780    0.95027    0.91665    1.000
    Gd13     Gd       0.38426    0.95181    0.79204    1.000
    H58      H        0.29060    0.88560    0.81110    1.000
    Gd14     Gd       0.34264    0.10991    0.84414    1.000
    H59      H        0.25130    0.05400    0.88160    1.000
    H60      H        0.31880    0.05580    0.73920    1.000
    C86      C        0.19090    0.90140    0.88340    1.000
    C87      C        0.08850    0.80340    0.58520    1.000
    O58      O        0.38204    0.00940    0.87249    1.000
    O59      O        0.32910    0.03600    0.97682    1.000
    O60      O        0.22990    0.91230    0.92100    1.000
    O61      O        0.33560    0.84170    0.89820    1.000
    O62      O        0.39830    0.85250    0.84220    1.000
    O63      O        0.43260    0.03390    0.75510    1.000
    O64      O        0.34810    0.90470    0.70610    1.000
    O65      O        0.43400    0.88310    0.73860    1.000
    O66      O        0.33170    0.13180    0.93630    1.000
    O67      O        0.42847    0.11650    0.81240    1.000
    O68      O        0.32630    0.18230    0.76293    1.000
    O69      O        0.25860    0.16330    0.80860    1.000
    C88      C        0.14440    0.86080    0.89720    1.000
    H61      H        0.06580    0.77880    0.55840    1.000
    H62      H        0.41340    0.01290    0.89190    1.000
    C89      C        0.31880    0.09570    0.97270    1.000
    C90      C        0.38030    0.82740    0.88100    1.000
    C91      C        0.45140    0.08600    0.77840    1.000
    C92      C        0.10450    0.83600    0.85690    1.000
    C93      C        0.13830    0.85110    0.95100    1.000
    C94      C        0.29030    0.12440    0.01630    1.000
    C95      C        0.41480    0.77700    0.91340    1.000
    C96      C        0.50330    0.11160    0.76260    1.000
    H63      H        0.10870    0.84090    0.81990    1.000
    C97      C        0.05850    0.80410    0.86980    1.000
    C98      C        0.09210    0.81970    0.96370    1.000
    H64      H        0.16580    0.86590    0.97930    1.000
    C99      C        0.26840    0.08520    0.05220    1.000
    C100     C        0.28650    0.19040    0.02210    1.000
    C101     C        0.40010    0.75660    0.96200    1.000
    C102     C        0.46340    0.75650    0.89830    1.000
    C103     C        0.53530    0.07320    0.73570    1.000
    C104     C        0.51900    0.17550    0.77280    1.000
    H65      H        0.03190    0.78680    0.84170    1.000
    C105     C        0.05160    0.79760    0.92360    1.000
    H66      H        0.08850    0.81340    0.00070    1.000
    H67      H        0.26930    0.03980    0.04760    1.000
    C106     C        0.24520    0.11010    0.09420    1.000
    C107     C        0.26290    0.21660    0.06420    1.000
    H68      H        0.30010    0.21820    0.99700    1.000
    C108     C        0.43500    0.71740    0.99670    1.000
    H69      H        0.36600    0.76960    0.97160    1.000
    H70      H        0.47240    0.76980    0.86440    1.000
    C109     C        0.49930    0.71660    0.93180    1.000
    H71      H        0.52440    0.02990    0.72790    1.000
    C110     C        0.58340    0.09560    0.71950    1.000
    C111     C        0.56630    0.19980    0.75580    1.000
    H72      H        0.49740    0.20280    0.79150    1.000
    C112     C        0.99930    0.77010    0.93770    1.000
    H73      H        0.23090    0.08200    0.11850    1.000
    C113     C        0.24270    0.17650    0.10120    1.000
    H74      H        0.26050    0.26200    0.06780    1.000
    C114     C        0.42170    0.69850    0.05030    1.000
    C115     C        0.48430    0.69730    0.98150    1.000
    C116     C        0.55190    0.69500    0.91790    1.000
    H75      H        0.60530    0.06750    0.70190    1.000
    C117     C        0.59930    0.15980    0.72930    1.000
    H76      H        0.57600    0.24360    0.76220    1.000
    C118     C        0.96900    0.72390    0.90580    1.000
    C119     C        0.97940    0.79360    0.98330    1.000
    C120     C        0.22330    0.20390    0.14970    1.000
    C121     C        0.36850    0.68180    0.05710    1.000
    C122     C        0.46410    0.69670    0.09510    1.000
    H77      H        0.50820    0.67010    0.00500    1.000
    C123     C        0.55790    0.68060    0.86440    1.000
    C124     C        0.59750    0.68830    0.95940    1.000
    C125     C        0.65110    0.18500    0.71210    1.000
    H78      H        0.98170    0.70780    0.87440    1.000
    C126     C        0.91980    0.70070    0.91960    1.000
    C127     C        0.93060    0.77130    0.99730    1.000
    H79      H        0.99960    0.82550    0.00520    1.000
    C128     C        0.25650    0.24630    0.18360    1.000
    C129     C        0.17190    0.18620    0.16360    1.000
    C130     C        0.35890    0.65920    0.10730    1.000
    H80      H        0.33910    0.68590    0.02780    1.000
    H81      H        0.49980    0.71090    0.09130    1.000
    C131     C        0.45390    0.67440    0.14460    1.000
    H82      H        0.52790    0.68660    0.83590    1.000
    C132     C        0.60780    0.65750    0.85270    1.000
    C133     C        0.64570    0.66390    0.94660    1.000
    H83      H        0.59490    0.70040    0.99570    1.000
    C134     C        0.66710    0.16430    0.66340    1.000
    C135     C        0.68400    0.22770    0.74550    1.000
    C136     C        0.89980    0.72440    0.96470    1.000
    C137     C        0.89050    0.64790    0.88510    1.000
    C138     C        0.91190    0.79950    0.04620    1.000
    H84      H        0.29120    0.25850    0.17500    1.000
    C139     C        0.23920    0.27080    0.23010    1.000
    C140     C        0.15450    0.21120    0.20940    1.000
    H85      H        0.14920    0.15680    0.14120    1.000
    C141     C        0.40140    0.65330    0.15100    1.000
    H86      H        0.32280    0.64770    0.11190    1.000
    H87      H        0.48280    0.67340    0.17470    1.000
    H88      H        0.61200    0.64810    0.81630    1.000
    C142     C        0.65090    0.64850    0.89460    1.000
    H89      H        0.67600    0.65780    0.97470    1.000
    H90      H        0.64460    0.13500    0.64060    1.000
    C143     C        0.71580    0.18650    0.64820    1.000
    C144     C        0.73330    0.25000    0.73040    1.000
    H91      H        0.67330    0.24190    0.77840    1.000
    H92      H        0.86600    0.70930    0.97350    1.000
    C145     C        0.85880    0.82030    0.04580    1.000
    C146     C        0.95020    0.80800    0.09350    1.000
    C147     C        0.18830    0.25380    0.24210    1.000
    C148     C        0.27690    0.31100    0.26880    1.000
    C149     C        0.10320    0.18970    0.22730    1.000
    C150     C        0.39350    0.62110    0.20160    1.000
    C151     C        0.70350    0.61720    0.88440    1.000
    C152     C        0.74780    0.23000    0.68110    1.000
    C153     C        0.73390    0.16250    0.59700    1.000
    C154     C        0.77030    0.29370    0.76780    1.000
    H93      H        0.83170    0.81190    0.01520    1.000
    C155     C        0.84490    0.85360    0.09000    1.000
    C156     C        0.93550    0.84020    0.13750    1.000
    H94      H        0.98630    0.79150    0.09530    1.000
    H95      H        0.17620    0.27160    0.27320    1.000
    C157     C        0.09040    0.12360    0.22590    1.000
    C158     C        0.06910    0.23130    0.24920    1.000
    H96      H        0.78010    0.24650    0.67010    1.000
    C159     C        0.72430    0.09780    0.58060    1.000
    C160     C        0.76220    0.20180    0.56580    1.000
    H97      H        0.80850    0.86880    0.08870    1.000
    C161     C        0.88320    0.86520    0.13600    1.000
    H98      H        0.96170    0.84530    0.16940    1.000
    H99      H        0.11220    0.09430    0.20940    1.000
    C162     C        0.04630    0.10110    0.24820    1.000
    C163     C        0.02390    0.20870    0.27100    1.000
    H100     H        0.07640    0.27620    0.24950    1.000
    H101     H        0.70430    0.07020    0.60070    1.000
    C164     C        0.74420    0.07440    0.53480    1.000
    C165     C        0.78010    0.17740    0.51920    1.000
    H102     H        0.76950    0.24530    0.57610    1.000
    C166     C        0.87020    0.90660    0.18170    1.000
    H103     H        0.03880    0.05620    0.24780    1.000
    C167     C        0.01270    0.14340    0.27120    1.000
    H104     H        0.00090    0.23820    0.28580    1.000
    H105     H        0.73920    0.03020    0.52540    1.000
    C168     C        0.77040    0.11340    0.50360    1.000
    H106     H        0.79900    0.20490    0.49790    1.000
    C169     C        0.96570    0.11720    0.29550    1.000
    C170     C        0.79220    0.08670    0.45360    1.000
    O70      O        0.76000    0.03970    0.43220    1.000
    Gd15     Gd       0.21185    0.46503    0.12448    1.000
    O71      O        0.18625    0.43570    0.20880    1.000
    O72      O        0.23454    0.55000    0.18910    1.000
    O73      O        0.13012    0.52100    0.13041    1.000
    O74      O        0.14910    0.38000    0.09660    1.000
    O75      O        0.29150    0.40370    0.16280    1.000
    O76      O        0.25840    0.38820    0.07560    1.000
    O77      O        0.19550    0.52450    0.04330    1.000
    Gd16     Gd       0.08646    0.46688    0.19537    1.000
    Gd17     Gd       0.22823    0.50588    0.27827    1.000
    H107     H        0.19170    0.39610    0.21650    1.000
    Gd18     Gd       0.15808    0.62423    0.16527    1.000
    H108     H        0.26540    0.56710    0.18740    1.000
    H109     H        0.10950    0.52350    0.09980    1.000
    O78      O        0.14331    0.54880    0.23682    1.000
    O79      O        0.03130    0.55760    0.19180    1.000
    O80      O        0.09450    0.36360    0.15860    1.000
    O81      O        0.09410    0.40960    0.27660    1.000
    O82      O        0.29873    0.57500    0.31708    1.000
    O83      O        0.27400    0.46480    0.36462    1.000
    O84      O        0.31762    0.46140    0.26989    1.000
    O85      O        0.18610    0.57710    0.33688    1.000
    O86      O        0.17240    0.43870    0.32680    1.000
    O87      O        0.12450    0.72620    0.11900    1.000
    O88      O        0.08210    0.63780    0.08570    1.000
    O89      O        0.07240    0.65330    0.19820    1.000
    O90      O        0.24020    0.69350    0.18583    1.000
    O91      O        0.18790    0.68310    0.24912    1.000
    O92      O        0.19820    0.62420    0.08069    1.000
    H110     H        0.12780    0.56800    0.26040    1.000
    Gd19     Gd       0.31780    0.54973    0.41665    1.000
    Gd20     Gd       0.38426    0.54819    0.29204    1.000
    H111     H        0.29060    0.61440    0.31110    1.000
    Gd21     Gd       0.34264    0.39009    0.34414    1.000
    H112     H        0.25130    0.44600    0.38160    1.000
    H113     H        0.31880    0.44420    0.23920    1.000
    C171     C        0.19090    0.59860    0.38340    1.000
    C172     C        0.08850    0.69660    0.08520    1.000
    O93      O        0.38204    0.49060    0.37249    1.000
    O94      O        0.32910    0.46400    0.47682    1.000
    O95      O        0.22990    0.58770    0.42100    1.000
    O96      O        0.33560    0.65830    0.39820    1.000
    O97      O        0.39830    0.64750    0.34220    1.000
    O98      O        0.43260    0.46610    0.25510    1.000
    O99      O        0.34810    0.59530    0.20610    1.000
    O100     O        0.43400    0.61690    0.23860    1.000
    O101     O        0.33170    0.36820    0.43630    1.000
    O102     O        0.42847    0.38350    0.31240    1.000
    O103     O        0.32630    0.31770    0.26293    1.000
    O104     O        0.25860    0.33670    0.30860    1.000
    C173     C        0.14440    0.63920    0.39720    1.000
    H114     H        0.06580    0.72120    0.05840    1.000
    H115     H        0.41340    0.48710    0.39190    1.000
    C174     C        0.31880    0.40430    0.47270    1.000
    C175     C        0.38030    0.67260    0.38100    1.000
    C176     C        0.45140    0.41400    0.27840    1.000
    C177     C        0.10450    0.66400    0.35690    1.000
    C178     C        0.13830    0.64890    0.45100    1.000
    C179     C        0.29030    0.37560    0.51630    1.000
    C180     C        0.41480    0.72300    0.41340    1.000
    C181     C        0.50330    0.38840    0.26260    1.000
    H116     H        0.10870    0.65910    0.31990    1.000
    C182     C        0.05850    0.69590    0.36980    1.000
    C183     C        0.09210    0.68030    0.46370    1.000
    H117     H        0.16580    0.63410    0.47930    1.000
    C184     C        0.26840    0.41480    0.55220    1.000
    C185     C        0.28650    0.30960    0.52210    1.000
    C186     C        0.40010    0.74340    0.46200    1.000
    C187     C        0.46340    0.74350    0.39830    1.000
    C188     C        0.53530    0.42680    0.23570    1.000
    C189     C        0.51900    0.32450    0.27280    1.000
    H118     H        0.03190    0.71320    0.34170    1.000
    C190     C        0.05160    0.70240    0.42360    1.000
    H119     H        0.08850    0.68660    0.50070    1.000
    H120     H        0.26930    0.46020    0.54760    1.000
    C191     C        0.24520    0.38990    0.59420    1.000
    C192     C        0.26290    0.28340    0.56420    1.000
    H121     H        0.30010    0.28180    0.49700    1.000
    C193     C        0.43500    0.78260    0.49670    1.000
    H122     H        0.36600    0.73040    0.47160    1.000
    H123     H        0.47240    0.73020    0.36440    1.000
    C194     C        0.49930    0.78340    0.43180    1.000
    H124     H        0.52440    0.47010    0.22790    1.000
    C195     C        0.58340    0.40440    0.21950    1.000
    C196     C        0.56630    0.30020    0.25580    1.000
    H125     H        0.49740    0.29720    0.29150    1.000
    C197     C        0.99930    0.72990    0.43770    1.000
    H126     H        0.23090    0.41800    0.61850    1.000
    C198     C        0.24270    0.32350    0.60120    1.000
    H127     H        0.26050    0.23800    0.56780    1.000
    C199     C        0.42170    0.80150    0.55030    1.000
    C200     C        0.48430    0.80270    0.48150    1.000
    C201     C        0.55190    0.80500    0.41790    1.000
    H128     H        0.60530    0.43250    0.20190    1.000
    C202     C        0.59930    0.34020    0.22930    1.000
    H129     H        0.57600    0.25640    0.26220    1.000
    C203     C        0.96900    0.77610    0.40580    1.000
    C204     C        0.97940    0.70640    0.48330    1.000
    C205     C        0.22330    0.29610    0.64970    1.000
    C206     C        0.36850    0.81820    0.55710    1.000
    C207     C        0.46410    0.80330    0.59510    1.000
    H130     H        0.50820    0.82990    0.50500    1.000
    C208     C        0.55790    0.81940    0.36440    1.000
    C209     C        0.59750    0.81170    0.45940    1.000
    C210     C        0.65110    0.31500    0.21210    1.000
    H131     H        0.98170    0.79220    0.37440    1.000
    C211     C        0.91980    0.79930    0.41960    1.000
    C212     C        0.93060    0.72870    0.49730    1.000
    H132     H        0.99960    0.67450    0.50520    1.000
    C213     C        0.25650    0.25370    0.68360    1.000
    C214     C        0.17190    0.31380    0.66360    1.000
    C215     C        0.35890    0.84080    0.60730    1.000
    H133     H        0.33910    0.81410    0.52780    1.000
    H134     H        0.49980    0.78910    0.59130    1.000
    C216     C        0.45390    0.82560    0.64460    1.000
    H135     H        0.52790    0.81340    0.33590    1.000
    C217     C        0.60780    0.84250    0.35270    1.000
    C218     C        0.64570    0.83610    0.44660    1.000
    H136     H        0.59490    0.79960    0.49570    1.000
    C219     C        0.66710    0.33570    0.16340    1.000
    C220     C        0.68400    0.27230    0.24550    1.000
    C221     C        0.89980    0.77560    0.46470    1.000
    C222     C        0.89050    0.85210    0.38510    1.000
    C223     C        0.91190    0.70050    0.54620    1.000
    H137     H        0.29120    0.24150    0.67500    1.000
    C224     C        0.23920    0.22920    0.73010    1.000
    C225     C        0.15450    0.28880    0.70940    1.000
    H138     H        0.14920    0.34320    0.64120    1.000
    C226     C        0.40140    0.84670    0.65100    1.000
    H139     H        0.32280    0.85230    0.61190    1.000
    H140     H        0.48280    0.82660    0.67470    1.000
    H141     H        0.61200    0.85190    0.31630    1.000
    C227     C        0.65090    0.85150    0.39460    1.000
    H142     H        0.67600    0.84220    0.47470    1.000
    H143     H        0.64460    0.36500    0.14060    1.000
    C228     C        0.71580    0.31350    0.14820    1.000
    C229     C        0.73330    0.25000    0.23040    1.000
    H144     H        0.67330    0.25810    0.27840    1.000
    H145     H        0.86600    0.79070    0.47350    1.000
    C230     C        0.85880    0.67970    0.54580    1.000
    C231     C        0.95020    0.69200    0.59350    1.000
    C232     C        0.18830    0.24620    0.74210    1.000
    C233     C        0.27690    0.18900    0.76880    1.000
    C234     C        0.10320    0.31030    0.72730    1.000
    C235     C        0.39350    0.87890    0.70160    1.000
    C236     C        0.70350    0.88280    0.38440    1.000
    C237     C        0.74780    0.27000    0.18110    1.000
    C238     C        0.73390    0.33750    0.09700    1.000
    C239     C        0.77030    0.20630    0.26780    1.000
    H146     H        0.83170    0.68810    0.51520    1.000
    C240     C        0.84490    0.64640    0.59000    1.000
    C241     C        0.93550    0.65980    0.63750    1.000
    H147     H        0.98630    0.70850    0.59530    1.000
    H148     H        0.17620    0.22840    0.77320    1.000
    C242     C        0.09040    0.37640    0.72590    1.000
    C243     C        0.06910    0.26870    0.74920    1.000
    H149     H        0.78010    0.25350    0.17010    1.000
    C244     C        0.72430    0.40220    0.08060    1.000
    C245     C        0.76220    0.29820    0.06580    1.000
    H150     H        0.80850    0.63120    0.58870    1.000
    C246     C        0.88320    0.63480    0.63600    1.000
    H151     H        0.96170    0.65470    0.66940    1.000
    H152     H        0.11220    0.40570    0.70940    1.000
    C247     C        0.04630    0.39890    0.74820    1.000
    C248     C        0.02390    0.29130    0.77100    1.000
    H153     H        0.07640    0.22380    0.74950    1.000
    H154     H        0.70430    0.42980    0.10070    1.000
    C249     C        0.74420    0.42560    0.03480    1.000
    C250     C        0.78010    0.32260    0.01920    1.000
    H155     H        0.76950    0.25470    0.07610    1.000
    C251     C        0.87020    0.59340    0.68170    1.000
    H156     H        0.03880    0.44380    0.74780    1.000
    C252     C        0.01270    0.35660    0.77120    1.000
    H157     H        0.00090    0.26180    0.78580    1.000
    H158     H        0.73920    0.46980    0.02540    1.000
    C253     C        0.77040    0.38660    0.00360    1.000
    H159     H        0.79900    0.29510    0.99790    1.000
    C254     C        0.96570    0.38280    0.79550    1.000
    C255     C        0.79220    0.41330    0.95360    1.000
    O105     O        0.76000    0.46030    0.93220    1.000
    Gd22     Gd       0.78815    0.96503    0.37552    1.000
    O106     O        0.81375    0.93570    0.29120    1.000
    O107     O        0.76546    0.05000    0.31090    1.000
    O108     O        0.86988    0.02100    0.36959    1.000
    O109     O        0.85090    0.88000    0.40340    1.000
    O110     O        0.70850    0.90370    0.33720    1.000
    O111     O        0.74160    0.88820    0.42440    1.000
    O112     O        0.80450    0.02450    0.45670    1.000
    Gd23     Gd       0.91354    0.96688    0.30463    1.000
    Gd24     Gd       0.77177    0.00588    0.22173    1.000
    H160     H        0.80830    0.89610    0.28350    1.000
    Gd25     Gd       0.84192    0.12423    0.33473    1.000
    H161     H        0.73460    0.06710    0.31260    1.000
    H162     H        0.89050    0.02350    0.40020    1.000
    O113     O        0.85669    0.04880    0.26318    1.000
    O114     O        0.96870    0.05760    0.30820    1.000
    O115     O        0.90550    0.86360    0.34140    1.000
    O116     O        0.90590    0.90960    0.22340    1.000
    O117     O        0.70127    0.07500    0.18292    1.000
    O118     O        0.72600    0.96480    0.13538    1.000
    O119     O        0.68238    0.96140    0.23011    1.000
    O120     O        0.81390    0.07710    0.16312    1.000
    O121     O        0.82760    0.93870    0.17320    1.000
    O122     O        0.87550    0.22620    0.38100    1.000
    O123     O        0.91790    0.13780    0.41430    1.000
    O124     O        0.92760    0.15330    0.30180    1.000
    O125     O        0.75980    0.19350    0.31417    1.000
    O126     O        0.81210    0.18310    0.25088    1.000
    O127     O        0.80180    0.12420    0.41931    1.000
    H163     H        0.87220    0.06800    0.23960    1.000
    Gd26     Gd       0.68220    0.04973    0.08335    1.000
    Gd27     Gd       0.61574    0.04819    0.20796    1.000
    H164     H        0.70940    0.11440    0.18890    1.000
    Gd28     Gd       0.65736    0.89009    0.15586    1.000
    H165     H        0.74870    0.94600    0.11840    1.000
    H166     H        0.68120    0.94420    0.26080    1.000
    C256     C        0.80910    0.09860    0.11660    1.000
    C257     C        0.91150    0.19660    0.41480    1.000
    O128     O        0.61796    0.99060    0.12751    1.000
    O129     O        0.67090    0.96400    0.02318    1.000
    O130     O        0.77010    0.08770    0.07900    1.000
    O131     O        0.66440    0.15830    0.10180    1.000
    O132     O        0.60170    0.14750    0.15780    1.000
    O133     O        0.56740    0.96610    0.24490    1.000
    O134     O        0.65190    0.09530    0.29390    1.000
    O135     O        0.56600    0.11690    0.26140    1.000
    O136     O        0.66830    0.86820    0.06370    1.000
    O137     O        0.57153    0.88350    0.18760    1.000
    O138     O        0.67370    0.81770    0.23707    1.000
    O139     O        0.74140    0.83670    0.19140    1.000
    C258     C        0.85560    0.13920    0.10280    1.000
    H167     H        0.93420    0.22120    0.44160    1.000
    H168     H        0.58660    0.98710    0.10810    1.000
    C259     C        0.68120    0.90430    0.02730    1.000
    C260     C        0.61970    0.17260    0.11900    1.000
    C261     C        0.54860    0.91400    0.22160    1.000
    C262     C        0.89550    0.16400    0.14310    1.000
    C263     C        0.86170    0.14890    0.04900    1.000
    C264     C        0.70970    0.87560    0.98370    1.000
    C265     C        0.58520    0.22300    0.08660    1.000
    C266     C        0.49670    0.88840    0.23740    1.000
    H169     H        0.89130    0.15910    0.18010    1.000
    C267     C        0.94150    0.19590    0.13020    1.000
    C268     C        0.90790    0.18030    0.03630    1.000
    H170     H        0.83420    0.13410    0.02070    1.000
    C269     C        0.73160    0.91480    0.94780    1.000
    C270     C        0.71350    0.80960    0.97790    1.000
    C271     C        0.59990    0.24340    0.03800    1.000
    C272     C        0.53660    0.24350    0.10170    1.000
    C273     C        0.46470    0.92680    0.26430    1.000
    C274     C        0.48100    0.82450    0.22720    1.000
    H171     H        0.96810    0.21320    0.15830    1.000
    C275     C        0.94840    0.20240    0.07640    1.000
    H172     H        0.91150    0.18660    0.99930    1.000
    H173     H        0.73070    0.96020    0.95240    1.000
    C276     C        0.75480    0.88990    0.90580    1.000
    C277     C        0.73710    0.78340    0.93580    1.000
    H174     H        0.69990    0.78180    0.00300    1.000
    C278     C        0.56500    0.28260    0.00330    1.000
    H175     H        0.63400    0.23040    0.02840    1.000
    H176     H        0.52760    0.23020    0.13560    1.000
    C279     C        0.50070    0.28340    0.06820    1.000
    H177     H        0.47560    0.97010    0.27210    1.000
    C280     C        0.41660    0.90440    0.28050    1.000
    C281     C        0.43370    0.80020    0.24420    1.000
    H178     H        0.50260    0.79720    0.20850    1.000
    C282     C        0.00070    0.22990    0.06230    1.000
    H179     H        0.76910    0.91800    0.88150    1.000
    C283     C        0.75730    0.82350    0.89880    1.000
    H180     H        0.73950    0.73800    0.93220    1.000
    C284     C        0.57830    0.30150    0.94970    1.000
    C285     C        0.51570    0.30270    0.01850    1.000
    C286     C        0.44810    0.30500    0.08210    1.000
    H181     H        0.39470    0.93250    0.29810    1.000
    C287     C        0.40070    0.84020    0.27070    1.000
    H182     H        0.42400    0.75640    0.23780    1.000
    C288     C        0.03100    0.27610    0.09420    1.000
    C289     C        0.02060    0.20640    0.01670    1.000
    C290     C        0.77670    0.79610    0.85030    1.000
    C291     C        0.63150    0.31820    0.94290    1.000
    C292     C        0.53590    0.30330    0.90490    1.000
    H183     H        0.49180    0.32990    0.99500    1.000
    C293     C        0.44210    0.31940    0.13560    1.000
    C294     C        0.40250    0.31170    0.04060    1.000
    C295     C        0.34890    0.81500    0.28790    1.000
    H184     H        0.01830    0.29220    0.12560    1.000
    C296     C        0.08020    0.29930    0.08040    1.000
    C297     C        0.06940    0.22870    0.00270    1.000
    H185     H        0.00040    0.17450    0.99480    1.000
    C298     C        0.74350    0.75370    0.81640    1.000
    C299     C        0.82810    0.81380    0.83640    1.000
    C300     C        0.64110    0.34080    0.89270    1.000
    H186     H        0.66090    0.31410    0.97220    1.000
    H187     H        0.50020    0.28910    0.90870    1.000
    C301     C        0.54610    0.32560    0.85540    1.000
    H188     H        0.47210    0.31340    0.16410    1.000
    C302     C        0.39220    0.34250    0.14730    1.000
    C303     C        0.35430    0.33610    0.05340    1.000
    H189     H        0.40510    0.29960    0.00430    1.000
    C304     C        0.33290    0.83570    0.33660    1.000
    C305     C        0.31600    0.77230    0.25450    1.000
    C306     C        0.10020    0.27560    0.03530    1.000
    C307     C        0.10950    0.35210    0.11490    1.000
    C308     C        0.08810    0.20050    0.95380    1.000
    H190     H        0.70880    0.74150    0.82500    1.000
    C309     C        0.76080    0.72920    0.76990    1.000
    C310     C        0.84550    0.78880    0.79060    1.000
    H191     H        0.85080    0.84320    0.85880    1.000
    C311     C        0.59860    0.34670    0.84900    1.000
    H192     H        0.67720    0.35230    0.88810    1.000
    H193     H        0.51720    0.32660    0.82530    1.000
    H194     H        0.38800    0.35190    0.18370    1.000
    C312     C        0.34910    0.35150    0.10540    1.000
    H195     H        0.32400    0.34220    0.02530    1.000
    H196     H        0.35540    0.86500    0.35940    1.000
    C313     C        0.28420    0.81350    0.35180    1.000
    C314     C        0.26670    0.75000    0.26960    1.000
    H197     H        0.32670    0.75810    0.22160    1.000
    H198     H        0.13400    0.29070    0.02650    1.000
    C315     C        0.14120    0.17970    0.95420    1.000
    C316     C        0.04980    0.19200    0.90650    1.000
    C317     C        0.81170    0.74620    0.75790    1.000
    C318     C        0.72310    0.68900    0.73120    1.000
    C319     C        0.89680    0.81030    0.77270    1.000
    C320     C        0.60650    0.37890    0.79840    1.000
    C321     C        0.29650    0.38280    0.11560    1.000
    C322     C        0.25220    0.77000    0.31890    1.000
    C323     C        0.26610    0.83750    0.40300    1.000
    C324     C        0.22970    0.70630    0.23220    1.000
    H199     H        0.16830    0.18810    0.98480    1.000
    C325     C        0.15510    0.14640    0.91000    1.000
    C326     C        0.06450    0.15980    0.86250    1.000
    H200     H        0.01370    0.20850    0.90470    1.000
    H201     H        0.82380    0.72840    0.72680    1.000
    C327     C        0.90960    0.87640    0.77410    1.000
    C328     C        0.93090    0.76870    0.75080    1.000
    H202     H        0.21990    0.75350    0.32990    1.000
    C329     C        0.27570    0.90220    0.41940    1.000
    C330     C        0.23780    0.79820    0.43420    1.000
    H203     H        0.19150    0.13120    0.91130    1.000
    C331     C        0.11680    0.13480    0.86400    1.000
    H204     H        0.03830    0.15470    0.83060    1.000
    H205     H        0.88780    0.90570    0.79060    1.000
    C332     C        0.95370    0.89890    0.75180    1.000
    C333     C        0.97610    0.79130    0.72900    1.000
    H206     H        0.92360    0.72380    0.75050    1.000
    H207     H        0.29570    0.92980    0.39930    1.000
    C334     C        0.25580    0.92560    0.46520    1.000
    C335     C        0.21990    0.82260    0.48080    1.000
    H208     H        0.23050    0.75470    0.42390    1.000
    C336     C        0.12980    0.09340    0.81830    1.000
    H209     H        0.96120    0.94380    0.75220    1.000
    C337     C        0.98730    0.85660    0.72880    1.000
    H210     H        0.99910    0.76180    0.71420    1.000
    H211     H        0.26080    0.96980    0.47460    1.000
    C338     C        0.22960    0.88660    0.49640    1.000
    H212     H        0.20100    0.79510    0.50210    1.000
    C339     C        0.03430    0.88280    0.70450    1.000
    C340     C        0.20780    0.91330    0.54640    1.000
    O140     O        0.24000    0.96030    0.56780    1.000
