# CIF file generated by openbabel 3.1.0, see https://openbabel.org
data_I
_chemical_name_common 'image0'
_cell_length_a 27.653
_cell_length_b 27.653
_cell_length_c 22.9284
_cell_angle_alpha 90
_cell_angle_beta 90
_cell_angle_gamma 120
_space_group_name_H-M_alt 'P 1'
_space_group_name_Hall 'P 1'
loop_
    _symmetry_equiv_pos_as_xyz
    x,y,z
loop_
    _atom_site_label
    _atom_site_type_symbol
    _atom_site_fract_x
    _atom_site_fract_y
    _atom_site_fract_z
    _atom_site_occupancy
    Zn1      Zn       0.54781    0.88152    0.29966    1.000
    Zn2      Zn       0.54782    0.66634    0.29966    1.000
    N1       N        0.40590    0.51310    0.32930    1.000
    N2       N        0.48690    0.59450    0.33010    1.000
    C1       C        0.55950    0.66760    0.16650    1.000
    N3       N        0.52880    0.66600    0.21680    1.000
    C2       C        0.47950    0.66530    0.19800    1.000
    H1       H        0.45130    0.66420    0.22260    1.000
    C3       C        0.47980    0.66650    0.13610    1.000
    H2       H        0.45180    0.66630    0.11200    1.000
    N4       N        0.52920    0.66790    0.11660    1.000
    C4       C        0.44390    0.55680    0.30010    1.000
    H3       H        0.44040    0.56090    0.25940    1.000
    N5       N        0.71290    0.72190    0.34290    1.000
    N6       N        0.62050    0.67620    0.32370    1.000
    C5       C        0.63820    0.63790    0.32730    1.000
    C6       C        0.47620    0.57280    0.38580    1.000
    C7       C        0.42630    0.52210    0.38470    1.000
    C8       C        0.69540    0.66580    0.33930    1.000
    C9       C        0.66740    0.72490    0.33350    1.000
    H4       H        0.66790    0.75940    0.33370    1.000
    C10      C        0.40500    0.49090    0.43610    1.000
    H5       H        0.37030    0.45690    0.43650    1.000
    C11      C        0.50830    0.59460    0.43610    1.000
    H6       H        0.54230    0.62930    0.43570    1.000
    C12      C        0.43680    0.51170    0.48620    1.000
    C13      C        0.48850    0.56360    0.48590    1.000
    C14      C        0.49690    0.72390    0.36110    1.000
    N7       N        0.53440    0.72350    0.32290    1.000
    N8       N        0.53460    0.80600    0.32600    1.000
    C15      C        0.49650    0.77450    0.36360    1.000
    C16      C        0.41130    0.48140    0.54740    1.000
    H7       H        0.37450    0.47780    0.55310    1.000
    H8       H        0.43630    0.50370    0.57910    1.000
    H9       H        0.40760    0.44430    0.54730    1.000
    C17      C        0.60720    0.57930    0.32130    1.000
    H10      H        0.56820    0.55990    0.31370    1.000
    C18      C        0.72600    0.63880    0.34580    1.000
    H11      H        0.76480    0.65840    0.35440    1.000
    C19      C        0.63750    0.55180    0.32730    1.000
    C20      C        0.69570    0.58090    0.33890    1.000
    C21      C        0.60970    0.66090    0.16630    1.000
    H12      H        0.64350    0.69760    0.16950    1.000
    H13      H        0.61090    0.64300    0.12990    1.000
    H14      H        0.60780    0.63760    0.19940    1.000
    C22      C        0.54950    0.77460    0.30370    1.000
    C23      C        0.61550    0.49150    0.32340    1.000
    H15      H        0.57500    0.47240    0.31740    1.000
    H16      H        0.62370    0.47820    0.35960    1.000
    H17      H        0.63300    0.48350    0.29050    1.000
    C24      C        0.60380    0.80210    0.25570    1.000
    H18      H        0.63910    0.82270    0.27720    1.000
    H19      H        0.59990    0.82760    0.22900    1.000
    H20      H        0.60390    0.77190    0.23330    1.000
    C25      C        0.57020    0.76020    0.38950    1.000
    C26      C        0.56980    0.81030    0.38950    1.000
    C27      C        0.58650    0.84390    0.43900    1.000
    H21      H        0.58630    0.87810    0.43900    1.000
    C28      C        0.60360    0.82730    0.48840    1.000
    C29      C        0.60390    0.77730    0.48850    1.000
    C30      C        0.58730    0.74370    0.43900    1.000
    H22      H        0.58750    0.70950    0.43900    1.000
    C31      C        0.49010    0.66860    0.16800    1.000
    H23      H        0.45650    0.63160    0.16560    1.000
    H24      H        0.49110    0.69130    0.13470    1.000
    H25      H        0.48950    0.68690    0.20430    1.000
    C32      C        0.53690    0.66280    0.16700    1.000
    N9       N        0.56920    0.66580    0.21650    1.000
    C33      C        0.62190    0.67560    0.19650    1.000
    H26      H        0.65170    0.67940    0.22040    1.000
    C34      C        0.62230    0.67860    0.13470    1.000
    H27      H        0.65240    0.68480    0.10990    1.000
    N10      N        0.56970    0.67070    0.11640    1.000
    N11      N        0.54770    0.73550    0.33450    1.000
    N12      N        0.54730    0.81610    0.33200    1.000
    C35      C        0.71580    0.54230    0.33950    1.000
    H28      H        0.75650    0.56270    0.33530    1.000
    H29      H        0.69900    0.51600    0.30710    1.000
    H30      H        0.70560    0.52180    0.37650    1.000
    O1       O        0.66550    0.83290    0.39730    1.000
    C36      C        0.61800    0.76400    0.53700    1.000
    C37      C        0.61900    0.85000    0.54000    1.000
    C38      C        0.69300    0.84670    0.51600    1.000
    C39      C        0.63190    0.81580    0.42900    1.000
    N13      N        0.63150    0.81610    0.48040    1.000
    C40      C        0.51580    0.58540    0.54770    1.000
    H31      H        0.55340    0.59040    0.54810    1.000
    H32      H        0.49290    0.55820    0.57760    1.000
    H33      H        0.51800    0.62130    0.55580    1.000
    Zn3      Zn       0.21448    0.21485    0.63299    1.000
    Zn4      Zn       0.21449    0.99967    0.63299    1.000
    N14      N        0.07257    0.84643    0.66263    1.000
    N15      N        0.15357    0.92783    0.66343    1.000
    C41      C        0.22617    0.00093    0.49983    1.000
    N16      N        0.19547    0.99933    0.55013    1.000
    C42      C        0.14617    0.99863    0.53133    1.000
    H34      H        0.11797    0.99753    0.55593    1.000
    C43      C        0.14647    0.99983    0.46943    1.000
    H35      H        0.11847    0.99963    0.44533    1.000
    N17      N        0.19587    0.00123    0.44993    1.000
    C44      C        0.11057    0.89013    0.63343    1.000
    H36      H        0.10707    0.89423    0.59273    1.000
    N18      N        0.37957    0.05523    0.67623    1.000
    N19      N        0.28717    0.00953    0.65703    1.000
    C45      C        0.30487    0.97123    0.66063    1.000
    C46      C        0.14287    0.90613    0.71913    1.000
    C47      C        0.09297    0.85543    0.71803    1.000
    C48      C        0.36207    0.99913    0.67263    1.000
    C49      C        0.33407    0.05823    0.66683    1.000
    H37      H        0.33457    0.09273    0.66703    1.000
    C50      C        0.07167    0.82423    0.76943    1.000
    H38      H        0.03697    0.79023    0.76983    1.000
    C51      C        0.17497    0.92793    0.76943    1.000
    H39      H        0.20897    0.96263    0.76903    1.000
    C52      C        0.10347    0.84503    0.81953    1.000
    C53      C        0.15517    0.89693    0.81923    1.000
    C54      C        0.16357    0.05723    0.69443    1.000
    N20      N        0.20107    0.05683    0.65623    1.000
    N21      N        0.20127    0.13933    0.65933    1.000
    C55      C        0.16317    0.10783    0.69693    1.000
    C56      C        0.07797    0.81473    0.88073    1.000
    H40      H        0.04117    0.81113    0.88643    1.000
    H41      H        0.10297    0.83703    0.91243    1.000
    H42      H        0.07427    0.77763    0.88063    1.000
    C57      C        0.27387    0.91263    0.65463    1.000
    H43      H        0.23487    0.89323    0.64703    1.000
    C58      C        0.39267    0.97213    0.67913    1.000
    H44      H        0.43147    0.99173    0.68773    1.000
    C59      C        0.30417    0.88513    0.66063    1.000
    C60      C        0.36237    0.91423    0.67223    1.000
    C61      C        0.27637    0.99423    0.49963    1.000
    H45      H        0.31017    0.03093    0.50283    1.000
    H46      H        0.27757    0.97633    0.46323    1.000
    H47      H        0.27447    0.97093    0.53273    1.000
    C62      C        0.21617    0.10793    0.63703    1.000
    C63      C        0.28217    0.82483    0.65673    1.000
    H48      H        0.24167    0.80573    0.65073    1.000
    H49      H        0.29037    0.81153    0.69293    1.000
    H50      H        0.29967    0.81683    0.62383    1.000
    C64      C        0.27047    0.13543    0.58903    1.000
    H51      H        0.30577    0.15603    0.61053    1.000
    H52      H        0.26657    0.16093    0.56233    1.000
    H53      H        0.27057    0.10523    0.56663    1.000
    C65      C        0.23687    0.09353    0.72283    1.000
    C66      C        0.23647    0.14363    0.72283    1.000
    C67      C        0.25317    0.17723    0.77233    1.000
    H54      H        0.25297    0.21143    0.77233    1.000
    C68      C        0.27027    0.16063    0.82173    1.000
    C69      C        0.27057    0.11063    0.82183    1.000
    C70      C        0.25397    0.07703    0.77233    1.000
    H55      H        0.25417    0.04283    0.77233    1.000
    C71      C        0.15677    0.00193    0.50133    1.000
    H56      H        0.12317    0.96493    0.49893    1.000
    H57      H        0.15777    0.02463    0.46803    1.000
    H58      H        0.15617    0.02023    0.53763    1.000
    C72      C        0.20357    0.99613    0.50033    1.000
    N22      N        0.23587    0.99913    0.54983    1.000
    C73      C        0.28857    0.00893    0.52983    1.000
    H59      H        0.31837    0.01273    0.55373    1.000
    C74      C        0.28897    0.01193    0.46803    1.000
    H60      H        0.31907    0.01813    0.44323    1.000
    N23      N        0.23637    0.00403    0.44973    1.000
    N24      N        0.21437    0.06883    0.66783    1.000
    N25      N        0.21397    0.14943    0.66533    1.000
    C75      C        0.38247    0.87563    0.67283    1.000
    H61      H        0.42317    0.89603    0.66863    1.000
    H62      H        0.36567    0.84933    0.64043    1.000
    H63      H        0.37227    0.85513    0.70983    1.000
    O2       O        0.33217    0.16623    0.73063    1.000
    C76      C        0.28467    0.09733    0.87033    1.000
    C77      C        0.28567    0.18333    0.87333    1.000
    C78      C        0.35967    0.18003    0.84933    1.000
    C79      C        0.29857    0.14913    0.76233    1.000
    N26      N        0.29817    0.14943    0.81373    1.000
    C80      C        0.18247    0.91873    0.88103    1.000
    H64      H        0.22007    0.92373    0.88143    1.000
    H65      H        0.15957    0.89153    0.91093    1.000
    H66      H        0.18467    0.95463    0.88913    1.000
    Zn5      Zn       0.88114    0.54819    0.96633    1.000
    Zn6      Zn       0.88115    0.33301    0.96633    1.000
    N27      N        0.73923    0.17977    0.99597    1.000
    N28      N        0.82023    0.26117    0.99677    1.000
    C81      C        0.89283    0.33427    0.83317    1.000
    N29      N        0.86213    0.33267    0.88347    1.000
    C82      C        0.81283    0.33197    0.86467    1.000
    H67      H        0.78463    0.33087    0.88927    1.000
    C83      C        0.81313    0.33317    0.80277    1.000
    H68      H        0.78513    0.33297    0.77867    1.000
    N30      N        0.86253    0.33457    0.78327    1.000
    C84      C        0.77723    0.22347    0.96677    1.000
    H69      H        0.77373    0.22757    0.92607    1.000
    N31      N        0.04623    0.38857    0.00957    1.000
    N32      N        0.95383    0.34287    0.99037    1.000
    C85      C        0.97153    0.30457    0.99397    1.000
    C86      C        0.80953    0.23947    0.05247    1.000
    C87      C        0.75963    0.18877    0.05137    1.000
    C88      C        0.02873    0.33247    0.00597    1.000
    C89      C        0.00073    0.39157    0.00017    1.000
    H70      H        0.00123    0.42607    0.00037    1.000
    C90      C        0.73833    0.15757    0.10277    1.000
    H71      H        0.70363    0.12357    0.10317    1.000
    C91      C        0.84163    0.26127    0.10277    1.000
    H72      H        0.87563    0.29597    0.10237    1.000
    C92      C        0.77013    0.17837    0.15287    1.000
    C93      C        0.82183    0.23027    0.15257    1.000
    C94      C        0.83023    0.39057    0.02777    1.000
    N33      N        0.86773    0.39017    0.98957    1.000
    N34      N        0.86793    0.47267    0.99267    1.000
    C95      C        0.82983    0.44117    0.03027    1.000
    C96      C        0.74463    0.14807    0.21407    1.000
    H73      H        0.70783    0.14447    0.21977    1.000
    H74      H        0.76963    0.17037    0.24577    1.000
    H75      H        0.74093    0.11097    0.21397    1.000
    C97      C        0.94053    0.24597    0.98797    1.000
    H76      H        0.90153    0.22657    0.98037    1.000
    C98      C        0.05933    0.30547    0.01247    1.000
    H77      H        0.09813    0.32507    0.02107    1.000
    C99      C        0.97083    0.21847    0.99397    1.000
    C100     C        0.02903    0.24757    0.00557    1.000
    C101     C        0.94303    0.32757    0.83297    1.000
    H78      H        0.97683    0.36427    0.83617    1.000
    H79      H        0.94423    0.30967    0.79657    1.000
    H80      H        0.94113    0.30427    0.86607    1.000
    C102     C        0.88283    0.44127    0.97037    1.000
    C103     C        0.94883    0.15817    0.99007    1.000
    H81      H        0.90833    0.13907    0.98407    1.000
    H82      H        0.95703    0.14487    0.02627    1.000
    H83      H        0.96633    0.15017    0.95717    1.000
    C104     C        0.93713    0.46877    0.92237    1.000
    H84      H        0.97243    0.48937    0.94387    1.000
    H85      H        0.93323    0.49427    0.89567    1.000
    H86      H        0.93723    0.43857    0.89997    1.000
    C105     C        0.90353    0.42687    0.05617    1.000
    C106     C        0.90313    0.47697    0.05617    1.000
    C107     C        0.91983    0.51057    0.10567    1.000
    H87      H        0.91963    0.54477    0.10567    1.000
    C108     C        0.93693    0.49397    0.15507    1.000
    C109     C        0.93723    0.44397    0.15517    1.000
    C110     C        0.92063    0.41037    0.10567    1.000
    H88      H        0.92083    0.37617    0.10567    1.000
    C111     C        0.82343    0.33527    0.83467    1.000
    H89      H        0.78983    0.29827    0.83227    1.000
    H90      H        0.82443    0.35797    0.80137    1.000
    H91      H        0.82283    0.35357    0.87097    1.000
    C112     C        0.87023    0.32947    0.83367    1.000
    N35      N        0.90253    0.33247    0.88317    1.000
    C113     C        0.95523    0.34227    0.86317    1.000
    H92      H        0.98503    0.34607    0.88707    1.000
    C114     C        0.95563    0.34527    0.80137    1.000
    H93      H        0.98573    0.35147    0.77657    1.000
    N36      N        0.90303    0.33737    0.78307    1.000
    N37      N        0.88103    0.40217    0.00117    1.000
    N38      N        0.88063    0.48277    0.99867    1.000
    C115     C        0.04913    0.20897    0.00617    1.000
    H94      H        0.08983    0.22937    0.00197    1.000
    H95      H        0.03233    0.18267    0.97377    1.000
    H96      H        0.03893    0.18847    0.04317    1.000
    O3       O        0.99883    0.49957    0.06397    1.000
    C116     C        0.95133    0.43067    0.20367    1.000
    C117     C        0.95233    0.51667    0.20667    1.000
    C118     C        0.02633    0.51337    0.18267    1.000
    C119     C        0.96523    0.48247    0.09567    1.000
    N39      N        0.96483    0.48277    0.14707    1.000
    C120     C        0.84913    0.25207    0.21437    1.000
    H97      H        0.88673    0.25707    0.21477    1.000
    H98      H        0.82623    0.22487    0.24427    1.000
    H99      H        0.85133    0.28797    0.22247    1.000
    Zn7      Zn       0.11848    0.66629    0.29966    1.000
    Zn8      Zn       0.33366    0.88148    0.29966    1.000
    N40      N        0.48690    0.89280    0.32930    1.000
    N41      N        0.40550    0.89240    0.33010    1.000
    C121     C        0.33240    0.89190    0.16650    1.000
    N42      N        0.33400    0.86280    0.21680    1.000
    C122     C        0.33470    0.81420    0.19800    1.000
    H100     H        0.33580    0.78710    0.22260    1.000
    C123     C        0.33350    0.81330    0.13610    1.000
    H101     H        0.33370    0.78550    0.11200    1.000
    N43      N        0.33210    0.86130    0.11660    1.000
    C124     C        0.44320    0.88710    0.30010    1.000
    H102     H        0.43910    0.87950    0.25940    1.000
    N44      N        0.27810    0.99100    0.34290    1.000
    N45      N        0.32380    0.94430    0.32370    1.000
    C125     C        0.36210    0.00030    0.32730    1.000
    C126     C        0.42720    0.90340    0.38580    1.000
    C127     C        0.47790    0.90420    0.38470    1.000
    C128     C        0.33420    0.02960    0.33930    1.000
    C129     C        0.27510    0.94250    0.33350    1.000
    H103     H        0.24060    0.90850    0.33370    1.000
    C130     C        0.50910    0.91410    0.43610    1.000
    H104     H        0.54310    0.91340    0.43650    1.000
    C131     C        0.40540    0.91370    0.43610    1.000
    H105     H        0.37070    0.91300    0.43570    1.000
    C132     C        0.48830    0.92510    0.48620    1.000
    C133     C        0.43640    0.92490    0.48590    1.000
    C134     C        0.27610    0.77300    0.36110    1.000
    N46      N        0.27650    0.81090    0.32290    1.000
    N47      N        0.19400    0.72860    0.32600    1.000
    C135     C        0.22550    0.72200    0.36360    1.000
    C136     C        0.51860    0.92990    0.54740    1.000
    H106     H        0.52220    0.89670    0.55310    1.000
    H107     H        0.49630    0.93260    0.57910    1.000
    H108     H        0.55570    0.96330    0.54730    1.000
    C137     C        0.42070    0.02790    0.32130    1.000
    H109     H        0.44010    0.00830    0.31370    1.000
    C138     C        0.36120    0.08720    0.34580    1.000
    H110     H        0.34160    0.10640    0.35440    1.000
    C139     C        0.44820    0.08570    0.32730    1.000
    C140     C        0.41910    0.11480    0.33890    1.000
    C141     C        0.33910    0.94880    0.16630    1.000
    H111     H        0.30240    0.94590    0.16950    1.000
    H112     H        0.35700    0.96790    0.12990    1.000
    H113     H        0.36240    0.97020    0.19940    1.000
    C142     C        0.22540    0.77490    0.30370    1.000
    C143     C        0.50850    0.12400    0.32340    1.000
    H114     H        0.52760    0.10260    0.31740    1.000
    H115     H        0.52180    0.14550    0.35960    1.000
    H116     H        0.51650    0.14950    0.29050    1.000
    C144     C        0.19790    0.80170    0.25570    1.000
    H117     H        0.17730    0.81640    0.27720    1.000
    H118     H        0.17240    0.77230    0.22900    1.000
    H119     H        0.22810    0.83200    0.23330    1.000
    C145     C        0.23980    0.81000    0.38950    1.000
    C146     C        0.18970    0.75950    0.38950    1.000
    C147     C        0.15610    0.74260    0.43900    1.000
    H120     H        0.12190    0.70820    0.43900    1.000
    C148     C        0.17270    0.77630    0.48840    1.000
    C149     C        0.22270    0.82660    0.48850    1.000
    C150     C        0.25630    0.84360    0.43900    1.000
    H121     H        0.29050    0.87800    0.43900    1.000
    C151     C        0.33140    0.82150    0.16800    1.000
    H122     H        0.36840    0.82490    0.16560    1.000
    H123     H        0.30870    0.79980    0.13470    1.000
    H124     H        0.31310    0.80260    0.20430    1.000
    C152     C        0.33720    0.87410    0.16700    1.000
    N48      N        0.33420    0.90340    0.21650    1.000
    C153     C        0.32440    0.94630    0.19650    1.000
    H125     H        0.32060    0.97230    0.22040    1.000
    C154     C        0.32140    0.94370    0.13470    1.000
    H126     H        0.31520    0.96760    0.10990    1.000
    N49      N        0.32930    0.89900    0.11640    1.000
    N50      N        0.26450    0.81220    0.33450    1.000
    N51      N        0.18390    0.73120    0.33200    1.000
    C155     C        0.45770    0.17350    0.33950    1.000
    H127     H        0.43730    0.19380    0.33530    1.000
    H128     H        0.48400    0.18300    0.30710    1.000
    H129     H        0.47820    0.18380    0.37650    1.000
    O4       O        0.16710    0.83260    0.39730    1.000
    C156     C        0.23600    0.85400    0.53700    1.000
    C157     C        0.15000    0.76900    0.54000    1.000
    C158     C        0.15330    0.84630    0.51600    1.000
    C159     C        0.18420    0.81610    0.42900    1.000
    N52      N        0.18390    0.81540    0.48040    1.000
    C160     C        0.41460    0.93040    0.54770    1.000
    H130     H        0.40960    0.96300    0.54810    1.000
    H131     H        0.44180    0.93470    0.57760    1.000
    H132     H        0.37870    0.89670    0.55580    1.000
    Zn9      Zn       0.78515    0.99962    0.63299    1.000
    Zn10     Zn       0.00033    0.21481    0.63299    1.000
    N53      N        0.15357    0.22613    0.66263    1.000
    N54      N        0.07217    0.22573    0.66343    1.000
    C161     C        0.99907    0.22523    0.49983    1.000
    N55      N        0.00067    0.19613    0.55013    1.000
    C162     C        0.00137    0.14753    0.53133    1.000
    H133     H        0.00247    0.12043    0.55593    1.000
    C163     C        0.00017    0.14663    0.46943    1.000
    H134     H        0.00037    0.11883    0.44533    1.000
    N56      N        0.99877    0.19463    0.44993    1.000
    C164     C        0.10987    0.22043    0.63343    1.000
    H135     H        0.10577    0.21283    0.59273    1.000
    N57      N        0.94477    0.32433    0.67623    1.000
    N58      N        0.99047    0.27763    0.65703    1.000
    C165     C        0.02877    0.33363    0.66063    1.000
    C166     C        0.09387    0.23673    0.71913    1.000
    C167     C        0.14457    0.23753    0.71803    1.000
    C168     C        0.00087    0.36293    0.67263    1.000
    C169     C        0.94177    0.27583    0.66683    1.000
    H136     H        0.90727    0.24183    0.66703    1.000
    C170     C        0.17577    0.24743    0.76943    1.000
    H137     H        0.20977    0.24673    0.76983    1.000
    C171     C        0.07207    0.24703    0.76943    1.000
    H138     H        0.03737    0.24633    0.76903    1.000
    C172     C        0.15497    0.25843    0.81953    1.000
    C173     C        0.10307    0.25823    0.81923    1.000
    C174     C        0.94277    0.10633    0.69443    1.000
    N59      N        0.94317    0.14423    0.65623    1.000
    N60      N        0.86067    0.06193    0.65933    1.000
    C175     C        0.89217    0.05533    0.69693    1.000
    C176     C        0.18527    0.26323    0.88073    1.000
    H139     H        0.18887    0.23003    0.88643    1.000
    H140     H        0.16297    0.26593    0.91243    1.000
    H141     H        0.22237    0.29663    0.88063    1.000
    C177     C        0.08737    0.36123    0.65463    1.000
    H142     H        0.10677    0.34163    0.64703    1.000
    C178     C        0.02787    0.42053    0.67913    1.000
    H143     H        0.00827    0.43973    0.68773    1.000
    C179     C        0.11487    0.41903    0.66063    1.000
    C180     C        0.08577    0.44813    0.67223    1.000
    C181     C        0.00577    0.28213    0.49963    1.000
    H144     H        0.96907    0.27923    0.50283    1.000
    H145     H        0.02367    0.30123    0.46323    1.000
    H146     H        0.02907    0.30353    0.53273    1.000
    C182     C        0.89207    0.10823    0.63703    1.000
    C183     C        0.17517    0.45733    0.65673    1.000
    H147     H        0.19427    0.43593    0.65073    1.000
    H148     H        0.18847    0.47883    0.69293    1.000
    H149     H        0.18317    0.48283    0.62383    1.000
    C184     C        0.86457    0.13503    0.58903    1.000
    H150     H        0.84397    0.14973    0.61053    1.000
    H151     H        0.83907    0.10563    0.56233    1.000
    H152     H        0.89477    0.16533    0.56663    1.000
    C185     C        0.90647    0.14333    0.72283    1.000
    C186     C        0.85637    0.09283    0.72283    1.000
    C187     C        0.82277    0.07593    0.77233    1.000
    H153     H        0.78857    0.04153    0.77233    1.000
    C188     C        0.83937    0.10963    0.82173    1.000
    C189     C        0.88937    0.15993    0.82183    1.000
    C190     C        0.92297    0.17693    0.77233    1.000
    H154     H        0.95717    0.21133    0.77233    1.000
    C191     C        0.99807    0.15483    0.50133    1.000
    H155     H        0.03507    0.15823    0.49893    1.000
    H156     H        0.97537    0.13313    0.46803    1.000
    H157     H        0.97977    0.13593    0.53763    1.000
    C192     C        0.00387    0.20743    0.50033    1.000
    N61      N        0.00087    0.23673    0.54983    1.000
    C193     C        0.99107    0.27963    0.52983    1.000
    H158     H        0.98727    0.30563    0.55373    1.000
    C194     C        0.98807    0.27703    0.46803    1.000
    H159     H        0.98187    0.30093    0.44323    1.000
    N62      N        0.99597    0.23233    0.44973    1.000
    N63      N        0.93117    0.14553    0.66783    1.000
    N64      N        0.85057    0.06453    0.66533    1.000
    C195     C        0.12437    0.50683    0.67283    1.000
    H160     H        0.10397    0.52713    0.66863    1.000
    H161     H        0.15067    0.51633    0.64043    1.000
    H162     H        0.14487    0.51713    0.70983    1.000
    O5       O        0.83377    0.16593    0.73063    1.000
    C196     C        0.90267    0.18733    0.87033    1.000
    C197     C        0.81667    0.10233    0.87333    1.000
    C198     C        0.81997    0.17963    0.84933    1.000
    C199     C        0.85087    0.14943    0.76233    1.000
    N65      N        0.85057    0.14873    0.81373    1.000
    C200     C        0.08127    0.26373    0.88103    1.000
    H163     H        0.07627    0.29633    0.88143    1.000
    H164     H        0.10847    0.26803    0.91093    1.000
    H165     H        0.04537    0.23003    0.88913    1.000
    Zn11     Zn       0.45181    0.33296    0.96633    1.000
    Zn12     Zn       0.66699    0.54815    0.96633    1.000
    N66      N        0.82023    0.55947    0.99597    1.000
    N67      N        0.73883    0.55907    0.99677    1.000
    C201     C        0.66573    0.55857    0.83317    1.000
    N68      N        0.66733    0.52947    0.88347    1.000
    C202     C        0.66803    0.48087    0.86467    1.000
    H166     H        0.66913    0.45377    0.88927    1.000
    C203     C        0.66683    0.47997    0.80277    1.000
    H167     H        0.66703    0.45217    0.77867    1.000
    N69      N        0.66543    0.52797    0.78327    1.000
    C204     C        0.77653    0.55377    0.96677    1.000
    H168     H        0.77243    0.54617    0.92607    1.000
    N70      N        0.61143    0.65767    0.00957    1.000
    N71      N        0.65713    0.61097    0.99037    1.000
    C205     C        0.69543    0.66697    0.99397    1.000
    C206     C        0.76053    0.57007    0.05247    1.000
    C207     C        0.81123    0.57087    0.05137    1.000
    C208     C        0.66753    0.69627    0.00597    1.000
    C209     C        0.60843    0.60917    0.00017    1.000
    H169     H        0.57393    0.57517    0.00037    1.000
    C210     C        0.84243    0.58077    0.10277    1.000
    H170     H        0.87643    0.58007    0.10317    1.000
    C211     C        0.73873    0.58037    0.10277    1.000
    H171     H        0.70403    0.57967    0.10237    1.000
    C212     C        0.82163    0.59177    0.15287    1.000
    C213     C        0.76973    0.59157    0.15257    1.000
    C214     C        0.60943    0.43967    0.02777    1.000
    N72      N        0.60983    0.47757    0.98957    1.000
    N73      N        0.52733    0.39527    0.99267    1.000
    C215     C        0.55883    0.38867    0.03027    1.000
    C216     C        0.85193    0.59657    0.21407    1.000
    H172     H        0.85553    0.56337    0.21977    1.000
    H173     H        0.82963    0.59927    0.24577    1.000
    H174     H        0.88903    0.62997    0.21397    1.000
    C217     C        0.75403    0.69457    0.98797    1.000
    H175     H        0.77343    0.67497    0.98037    1.000
    C218     C        0.69453    0.75387    0.01247    1.000
    H176     H        0.67493    0.77307    0.02107    1.000
    C219     C        0.78153    0.75237    0.99397    1.000
    C220     C        0.75243    0.78147    0.00557    1.000
    C221     C        0.67243    0.61547    0.83297    1.000
    H177     H        0.63573    0.61257    0.83617    1.000
    H178     H        0.69033    0.63457    0.79657    1.000
    H179     H        0.69573    0.63687    0.86607    1.000
    C222     C        0.55873    0.44157    0.97037    1.000
    C223     C        0.84183    0.79067    0.99007    1.000
    H180     H        0.86093    0.76927    0.98407    1.000
    H181     H        0.85513    0.81217    0.02627    1.000
    H182     H        0.84983    0.81617    0.95717    1.000
    C224     C        0.53123    0.46837    0.92237    1.000
    H183     H        0.51063    0.48307    0.94387    1.000
    H184     H        0.50573    0.43897    0.89567    1.000
    H185     H        0.56143    0.49867    0.89997    1.000
    C225     C        0.57313    0.47667    0.05617    1.000
    C226     C        0.52303    0.42617    0.05617    1.000
    C227     C        0.48943    0.40927    0.10567    1.000
    H186     H        0.45523    0.37487    0.10567    1.000
    C228     C        0.50603    0.44297    0.15507    1.000
    C229     C        0.55603    0.49327    0.15517    1.000
    C230     C        0.58963    0.51027    0.10567    1.000
    H187     H        0.62383    0.54467    0.10567    1.000
    C231     C        0.66473    0.48817    0.83467    1.000
    H188     H        0.70173    0.49157    0.83227    1.000
    H189     H        0.64203    0.46647    0.80137    1.000
    H190     H        0.64643    0.46927    0.87097    1.000
    C232     C        0.67053    0.54077    0.83367    1.000
    N74      N        0.66753    0.57007    0.88317    1.000
    C233     C        0.65773    0.61297    0.86317    1.000
    H191     H        0.65393    0.63897    0.88707    1.000
    C234     C        0.65473    0.61037    0.80137    1.000
    H192     H        0.64853    0.63427    0.77657    1.000
    N75      N        0.66263    0.56567    0.78307    1.000
    N76      N        0.59783    0.47887    0.00117    1.000
    N77      N        0.51723    0.39787    0.99867    1.000
    C235     C        0.79103    0.84017    0.00617    1.000
    H193     H        0.77063    0.86047    0.00197    1.000
    H194     H        0.81733    0.84967    0.97377    1.000
    H195     H        0.81153    0.85047    0.04317    1.000
    O6       O        0.50043    0.49927    0.06397    1.000
    C236     C        0.56933    0.52067    0.20367    1.000
    C237     C        0.48333    0.43567    0.20667    1.000
    C238     C        0.48663    0.51297    0.18267    1.000
    C239     C        0.51753    0.48277    0.09567    1.000
    N78      N        0.51723    0.48207    0.14707    1.000
    C240     C        0.74793    0.59707    0.21437    1.000
    H196     H        0.74293    0.62967    0.21477    1.000
    H197     H        0.77513    0.60137    0.24427    1.000
    H198     H        0.71203    0.56337    0.22247    1.000
    Zn13     Zn       0.33371    0.45219    0.29966    1.000
    Zn14     Zn       0.11852    0.45218    0.29966    1.000
    N79      N        0.10720    0.59410    0.32930    1.000
    N80      N        0.10760    0.51310    0.33010    1.000
    C241     C        0.10810    0.44050    0.16650    1.000
    N81      N        0.13720    0.47120    0.21680    1.000
    C242     C        0.18580    0.52050    0.19800    1.000
    H199     H        0.21290    0.54870    0.22260    1.000
    C243     C        0.18670    0.52020    0.13610    1.000
    H200     H        0.21450    0.54820    0.11200    1.000
    N82      N        0.13870    0.47080    0.11660    1.000
    C244     C        0.11290    0.55610    0.30010    1.000
    H201     H        0.12050    0.55960    0.25940    1.000
    N83      N        0.00900    0.28710    0.34290    1.000
    N84      N        0.05570    0.37950    0.32370    1.000
    C245     C        0.99970    0.36180    0.32730    1.000
    C246     C        0.09660    0.52380    0.38580    1.000
    C247     C        0.09580    0.57370    0.38470    1.000
    C248     C        0.97040    0.30460    0.33930    1.000
    C249     C        0.05750    0.33260    0.33350    1.000
    H202     H        0.09150    0.33210    0.33370    1.000
    C250     C        0.08590    0.59500    0.43610    1.000
    H203     H        0.08660    0.62970    0.43650    1.000
    C251     C        0.08630    0.49170    0.43610    1.000
    H204     H        0.08700    0.45770    0.43570    1.000
    C252     C        0.07490    0.56320    0.48620    1.000
    C253     C        0.07510    0.51150    0.48590    1.000
    C254     C        0.22700    0.50310    0.36110    1.000
    N85      N        0.18910    0.46560    0.32290    1.000
    N86      N        0.27140    0.46540    0.32600    1.000
    C255     C        0.27800    0.50350    0.36360    1.000
    C256     C        0.07010    0.58870    0.54740    1.000
    H205     H        0.10330    0.62550    0.55310    1.000
    H206     H        0.06740    0.56370    0.57910    1.000
    H207     H        0.03670    0.59240    0.54730    1.000
    C257     C        0.97210    0.39280    0.32130    1.000
    H208     H        0.99170    0.43180    0.31370    1.000
    C258     C        0.91280    0.27400    0.34580    1.000
    H209     H        0.89360    0.23520    0.35440    1.000
    C259     C        0.91430    0.36250    0.32730    1.000
    C260     C        0.88520    0.30430    0.33890    1.000
    C261     C        0.05120    0.39030    0.16630    1.000
    H210     H        0.05410    0.35650    0.16950    1.000
    H211     H        0.03210    0.38910    0.12990    1.000
    H212     H        0.02980    0.39220    0.19940    1.000
    C262     C        0.22510    0.45050    0.30370    1.000
    C263     C        0.87600    0.38450    0.32340    1.000
    H213     H        0.89740    0.42500    0.31740    1.000
    H214     H        0.85450    0.37630    0.35960    1.000
    H215     H        0.85050    0.36700    0.29050    1.000
    C264     C        0.19830    0.39620    0.25570    1.000
    H216     H        0.18360    0.36090    0.27720    1.000
    H217     H        0.22770    0.40010    0.22900    1.000
    H218     H        0.16800    0.39610    0.23330    1.000
    C265     C        0.19000    0.42980    0.38950    1.000
    C266     C        0.24050    0.43020    0.38950    1.000
    C267     C        0.25740    0.41350    0.43900    1.000
    H219     H        0.29180    0.41370    0.43900    1.000
    C268     C        0.22370    0.39640    0.48840    1.000
    C269     C        0.17340    0.39610    0.48850    1.000
    C270     C        0.15640    0.41270    0.43900    1.000
    H220     H        0.12200    0.41250    0.43900    1.000
    C271     C        0.17850    0.50990    0.16800    1.000
    H221     H        0.17510    0.54350    0.16560    1.000
    H222     H        0.20020    0.50890    0.13470    1.000
    H223     H        0.19740    0.51050    0.20430    1.000
    C272     C        0.12590    0.46310    0.16700    1.000
    N87      N        0.09660    0.43080    0.21650    1.000
    C273     C        0.05370    0.37810    0.19650    1.000
    H224     H        0.02770    0.34830    0.22040    1.000
    C274     C        0.05630    0.37770    0.13470    1.000
    H225     H        0.03240    0.34760    0.10990    1.000
    N88      N        0.10100    0.43030    0.11640    1.000
    N89      N        0.18780    0.45230    0.33450    1.000
    N90      N        0.26880    0.45270    0.33200    1.000
    C275     C        0.82650    0.28420    0.33950    1.000
    H226     H        0.80620    0.24350    0.33530    1.000
    H227     H        0.81700    0.30100    0.30710    1.000
    H228     H        0.81620    0.29440    0.37650    1.000
    O7       O        0.16740    0.33450    0.39730    1.000
    C276     C        0.14600    0.38200    0.53700    1.000
    C277     C        0.23100    0.38100    0.54000    1.000
    C278     C        0.15370    0.30700    0.51600    1.000
    C279     C        0.18390    0.36810    0.42900    1.000
    N91      N        0.18460    0.36850    0.48040    1.000
    C280     C        0.06960    0.48420    0.54770    1.000
    H229     H        0.03700    0.44660    0.54810    1.000
    H230     H        0.06530    0.50710    0.57760    1.000
    H231     H        0.10330    0.48200    0.55580    1.000
    Zn15     Zn       0.00038    0.78552    0.63299    1.000
    Zn16     Zn       0.78519    0.78551    0.63299    1.000
    N92      N        0.77387    0.92743    0.66263    1.000
    N93      N        0.77427    0.84643    0.66343    1.000
    C281     C        0.77477    0.77383    0.49983    1.000
    N94      N        0.80387    0.80453    0.55013    1.000
    C282     C        0.85247    0.85383    0.53133    1.000
    H232     H        0.87957    0.88203    0.55593    1.000
    C283     C        0.85337    0.85353    0.46943    1.000
    H233     H        0.88117    0.88153    0.44533    1.000
    N95      N        0.80537    0.80413    0.44993    1.000
    C284     C        0.77957    0.88943    0.63343    1.000
    H234     H        0.78717    0.89293    0.59273    1.000
    N96      N        0.67567    0.62043    0.67623    1.000
    N97      N        0.72237    0.71283    0.65703    1.000
    C285     C        0.66637    0.69513    0.66063    1.000
    C286     C        0.76327    0.85713    0.71913    1.000
    C287     C        0.76247    0.90703    0.71803    1.000
    C288     C        0.63707    0.63793    0.67263    1.000
    C289     C        0.72417    0.66593    0.66683    1.000
    H235     H        0.75817    0.66543    0.66703    1.000
    C290     C        0.75257    0.92833    0.76943    1.000
    H236     H        0.75327    0.96303    0.76983    1.000
    C291     C        0.75297    0.82503    0.76943    1.000
    H237     H        0.75367    0.79103    0.76903    1.000
    C292     C        0.74157    0.89653    0.81953    1.000
    C293     C        0.74177    0.84483    0.81923    1.000
    C294     C        0.89367    0.83643    0.69443    1.000
    N98      N        0.85577    0.79893    0.65623    1.000
    N99      N        0.93807    0.79873    0.65933    1.000
    C295     C        0.94467    0.83683    0.69693    1.000
    C296     C        0.73677    0.92203    0.88073    1.000
    H238     H        0.76997    0.95883    0.88643    1.000
    H239     H        0.73407    0.89703    0.91243    1.000
    H240     H        0.70337    0.92573    0.88063    1.000
    C297     C        0.63877    0.72613    0.65463    1.000
    H241     H        0.65837    0.76513    0.64703    1.000
    C298     C        0.57947    0.60733    0.67913    1.000
    H242     H        0.56027    0.56853    0.68773    1.000
    C299     C        0.58097    0.69583    0.66063    1.000
    C300     C        0.55187    0.63763    0.67223    1.000
    C301     C        0.71787    0.72363    0.49963    1.000
    H243     H        0.72077    0.68983    0.50283    1.000
    H244     H        0.69877    0.72243    0.46323    1.000
    H245     H        0.69647    0.72553    0.53273    1.000
    C302     C        0.89177    0.78383    0.63703    1.000
    C303     C        0.54267    0.71783    0.65673    1.000
    H246     H        0.56407    0.75833    0.65073    1.000
    H247     H        0.52117    0.70963    0.69293    1.000
    H248     H        0.51717    0.70033    0.62383    1.000
    C304     C        0.86497    0.72953    0.58903    1.000
    H249     H        0.85027    0.69423    0.61053    1.000
    H250     H        0.89437    0.73343    0.56233    1.000
    H251     H        0.83467    0.72943    0.56663    1.000
    C305     C        0.85667    0.76313    0.72283    1.000
    C306     C        0.90717    0.76353    0.72283    1.000
    C307     C        0.92407    0.74683    0.77233    1.000
    H252     H        0.95847    0.74703    0.77233    1.000
    C308     C        0.89037    0.72973    0.82173    1.000
    C309     C        0.84007    0.72943    0.82183    1.000
    C310     C        0.82307    0.74603    0.77233    1.000
    H253     H        0.78867    0.74583    0.77233    1.000
    C311     C        0.84517    0.84323    0.50133    1.000
    H254     H        0.84177    0.87683    0.49893    1.000
    H255     H        0.86687    0.84223    0.46803    1.000
    H256     H        0.86407    0.84383    0.53763    1.000
    C312     C        0.79257    0.79643    0.50033    1.000
    N100     N        0.76327    0.76413    0.54983    1.000
    C313     C        0.72037    0.71143    0.52983    1.000
    H257     H        0.69437    0.68163    0.55373    1.000
    C314     C        0.72297    0.71103    0.46803    1.000
    H258     H        0.69907    0.68093    0.44323    1.000
    N101     N        0.76767    0.76363    0.44973    1.000
    N102     N        0.85447    0.78563    0.66783    1.000
    N103     N        0.93547    0.78603    0.66533    1.000
    C315     C        0.49317    0.61753    0.67283    1.000
    H259     H        0.47287    0.57683    0.66863    1.000
    H260     H        0.48367    0.63433    0.64043    1.000
    H261     H        0.48287    0.62773    0.70983    1.000
    O8       O        0.83407    0.66783    0.73063    1.000
    C316     C        0.81267    0.71533    0.87033    1.000
    C317     C        0.89767    0.71433    0.87333    1.000
    C318     C        0.82037    0.64033    0.84933    1.000
    C319     C        0.85057    0.70143    0.76233    1.000
    N104     N        0.85127    0.70183    0.81373    1.000
    C320     C        0.73627    0.81753    0.88103    1.000
    H262     H        0.70367    0.77993    0.88143    1.000
    H263     H        0.73197    0.84043    0.91093    1.000
    H264     H        0.76997    0.81533    0.88913    1.000
    Zn17     Zn       0.66704    0.11886    0.96633    1.000
    Zn18     Zn       0.45185    0.11885    0.96633    1.000
    N105     N        0.44053    0.26077    0.99597    1.000
    N106     N        0.44093    0.17977    0.99677    1.000
    C321     C        0.44143    0.10717    0.83317    1.000
    N107     N        0.47053    0.13787    0.88347    1.000
    C322     C        0.51913    0.18717    0.86467    1.000
    H265     H        0.54623    0.21537    0.88927    1.000
    C323     C        0.52003    0.18687    0.80277    1.000
    H266     H        0.54783    0.21487    0.77867    1.000
    N108     N        0.47203    0.13747    0.78327    1.000
    C324     C        0.44623    0.22277    0.96677    1.000
    H267     H        0.45383    0.22627    0.92607    1.000
    N109     N        0.34233    0.95377    0.00957    1.000
    N110     N        0.38903    0.04617    0.99037    1.000
    C325     C        0.33303    0.02847    0.99397    1.000
    C326     C        0.42993    0.19047    0.05247    1.000
    C327     C        0.42913    0.24037    0.05137    1.000
    C328     C        0.30373    0.97127    0.00597    1.000
    C329     C        0.39083    0.99927    0.00017    1.000
    H268     H        0.42483    0.99877    0.00037    1.000
    C330     C        0.41923    0.26167    0.10277    1.000
    H269     H        0.41993    0.29637    0.10317    1.000
    C331     C        0.41963    0.15837    0.10277    1.000
    H270     H        0.42033    0.12437    0.10237    1.000
    C332     C        0.40823    0.22987    0.15287    1.000
    C333     C        0.40843    0.17817    0.15257    1.000
    C334     C        0.56033    0.16977    0.02777    1.000
    N111     N        0.52243    0.13227    0.98957    1.000
    N112     N        0.60473    0.13207    0.99267    1.000
    C335     C        0.61133    0.17017    0.03027    1.000
    C336     C        0.40343    0.25537    0.21407    1.000
    H271     H        0.43663    0.29217    0.21977    1.000
    H272     H        0.40073    0.23037    0.24577    1.000
    H273     H        0.37003    0.25907    0.21397    1.000
    C337     C        0.30543    0.05947    0.98797    1.000
    H274     H        0.32503    0.09847    0.98037    1.000
    C338     C        0.24613    0.94067    0.01247    1.000
    H275     H        0.22693    0.90187    0.02107    1.000
    C339     C        0.24763    0.02917    0.99397    1.000
    C340     C        0.21853    0.97097    0.00557    1.000
    C341     C        0.38453    0.05697    0.83297    1.000
    H276     H        0.38743    0.02317    0.83617    1.000
    H277     H        0.36543    0.05577    0.79657    1.000
    H278     H        0.36313    0.05887    0.86607    1.000
    C342     C        0.55843    0.11717    0.97037    1.000
    C343     C        0.20933    0.05117    0.99007    1.000
    H279     H        0.23073    0.09167    0.98407    1.000
    H280     H        0.18783    0.04297    0.02627    1.000
    H281     H        0.18383    0.03367    0.95717    1.000
    C344     C        0.53163    0.06287    0.92237    1.000
    H282     H        0.51693    0.02757    0.94387    1.000
    H283     H        0.56103    0.06677    0.89567    1.000
    H284     H        0.50133    0.06277    0.89997    1.000
    C345     C        0.52333    0.09647    0.05617    1.000
    C346     C        0.57383    0.09687    0.05617    1.000
    C347     C        0.59073    0.08017    0.10567    1.000
    H285     H        0.62513    0.08037    0.10567    1.000
    C348     C        0.55703    0.06307    0.15507    1.000
    C349     C        0.50673    0.06277    0.15517    1.000
    C350     C        0.48973    0.07937    0.10567    1.000
    H286     H        0.45533    0.07917    0.10567    1.000
    C351     C        0.51183    0.17657    0.83467    1.000
    H287     H        0.50843    0.21017    0.83227    1.000
    H288     H        0.53353    0.17557    0.80137    1.000
    H289     H        0.53073    0.17717    0.87097    1.000
    C352     C        0.45923    0.12977    0.83367    1.000
    N113     N        0.42993    0.09747    0.88317    1.000
    C353     C        0.38703    0.04477    0.86317    1.000
    H290     H        0.36103    0.01497    0.88707    1.000
    C354     C        0.38963    0.04437    0.80137    1.000
    H291     H        0.36573    0.01427    0.77657    1.000
    N114     N        0.43433    0.09697    0.78307    1.000
    N115     N        0.52113    0.11897    0.00117    1.000
    N116     N        0.60213    0.11937    0.99867    1.000
    C355     C        0.15983    0.95087    0.00617    1.000
    H292     H        0.13953    0.91017    0.00197    1.000
    H293     H        0.15033    0.96767    0.97377    1.000
    H294     H        0.14953    0.96107    0.04317    1.000
    O9       O        0.50073    0.00117    0.06397    1.000
    C356     C        0.47933    0.04867    0.20367    1.000
    C357     C        0.56433    0.04767    0.20667    1.000
    C358     C        0.48703    0.97367    0.18267    1.000
    C359     C        0.51723    0.03477    0.09567    1.000
    N117     N        0.51793    0.03517    0.14707    1.000
    C360     C        0.40293    0.15087    0.21437    1.000
    H295     H        0.37033    0.11327    0.21477    1.000
    H296     H        0.39863    0.17377    0.24427    1.000
    H297     H        0.43663    0.14867    0.22247    1.000
    Zn19     Zn       0.45219    0.11848    0.70034    1.000
    Zn20     Zn       0.45218    0.33366    0.70034    1.000
    N118     N        0.59410    0.48690    0.67070    1.000
    N119     N        0.51310    0.40550    0.66990    1.000
    C361     C        0.44050    0.33240    0.83350    1.000
    N120     N        0.47120    0.33400    0.78320    1.000
    C362     C        0.52050    0.33470    0.80200    1.000
    H298     H        0.54870    0.33580    0.77740    1.000
    C363     C        0.52020    0.33350    0.86390    1.000
    H299     H        0.54820    0.33370    0.88800    1.000
    N121     N        0.47080    0.33210    0.88340    1.000
    C364     C        0.55610    0.44320    0.69990    1.000
    H300     H        0.55960    0.43910    0.74060    1.000
    N122     N        0.28710    0.27810    0.65710    1.000
    N123     N        0.37950    0.32380    0.67630    1.000
    C365     C        0.36180    0.36210    0.67270    1.000
    C366     C        0.52380    0.42720    0.61420    1.000
    C367     C        0.57370    0.47790    0.61530    1.000
    C368     C        0.30460    0.33420    0.66070    1.000
    C369     C        0.33260    0.27510    0.66650    1.000
    H301     H        0.33210    0.24060    0.66630    1.000
    C370     C        0.59500    0.50910    0.56390    1.000
    H302     H        0.62970    0.54310    0.56350    1.000
    C371     C        0.49170    0.40540    0.56390    1.000
    H303     H        0.45770    0.37070    0.56430    1.000
    C372     C        0.56320    0.48830    0.51380    1.000
    C373     C        0.51150    0.43640    0.51410    1.000
    C374     C        0.50310    0.27610    0.63890    1.000
    N124     N        0.46560    0.27650    0.67710    1.000
    N125     N        0.46540    0.19400    0.67400    1.000
    C375     C        0.50350    0.22550    0.63640    1.000
    C376     C        0.58870    0.51860    0.45260    1.000
    H304     H        0.62550    0.52220    0.44690    1.000
    H305     H        0.56370    0.49630    0.42090    1.000
    H306     H        0.59240    0.55570    0.45270    1.000
    C377     C        0.39280    0.42070    0.67870    1.000
    H307     H        0.43180    0.44010    0.68630    1.000
    C378     C        0.27400    0.36120    0.65420    1.000
    H308     H        0.23520    0.34160    0.64560    1.000
    C379     C        0.36250    0.44820    0.67270    1.000
    C380     C        0.30430    0.41910    0.66110    1.000
    C381     C        0.39030    0.33910    0.83370    1.000
    H309     H        0.35650    0.30240    0.83050    1.000
    H310     H        0.38910    0.35700    0.87010    1.000
    H311     H        0.39220    0.36240    0.80060    1.000
    C382     C        0.45050    0.22540    0.69630    1.000
    C383     C        0.38450    0.50850    0.67660    1.000
    H312     H        0.42500    0.52760    0.68260    1.000
    H313     H        0.37630    0.52180    0.64040    1.000
    H314     H        0.36700    0.51650    0.70950    1.000
    C384     C        0.39620    0.19790    0.74430    1.000
    H315     H        0.36090    0.17730    0.72280    1.000
    H316     H        0.40010    0.17240    0.77100    1.000
    H317     H        0.39610    0.22810    0.76670    1.000
    C385     C        0.42980    0.23980    0.61050    1.000
    C386     C        0.43020    0.18970    0.61050    1.000
    C387     C        0.41350    0.15610    0.56100    1.000
    H318     H        0.41370    0.12190    0.56100    1.000
    C388     C        0.39640    0.17270    0.51160    1.000
    C389     C        0.39610    0.22270    0.51150    1.000
    C390     C        0.41270    0.25630    0.56100    1.000
    H319     H        0.41250    0.29050    0.56100    1.000
    C391     C        0.50990    0.33140    0.83200    1.000
    H320     H        0.54350    0.36840    0.83440    1.000
    H321     H        0.50890    0.30870    0.86530    1.000
    H322     H        0.51050    0.31310    0.79570    1.000
    C392     C        0.46310    0.33720    0.83300    1.000
    N126     N        0.43080    0.33420    0.78350    1.000
    C393     C        0.37810    0.32440    0.80350    1.000
    H323     H        0.34830    0.32060    0.77960    1.000
    C394     C        0.37770    0.32140    0.86530    1.000
    H324     H        0.34760    0.31520    0.89010    1.000
    N127     N        0.43030    0.32930    0.88360    1.000
    N128     N        0.45230    0.26450    0.66550    1.000
    N129     N        0.45270    0.18390    0.66800    1.000
    C395     C        0.28420    0.45770    0.66050    1.000
    H325     H        0.24350    0.43730    0.66470    1.000
    H326     H        0.30100    0.48400    0.69290    1.000
    H327     H        0.29440    0.47820    0.62350    1.000
    O10      O        0.33450    0.16710    0.60270    1.000
    C396     C        0.38200    0.23600    0.46300    1.000
    C397     C        0.38100    0.15000    0.46000    1.000
    C398     C        0.30700    0.15330    0.48400    1.000
    C399     C        0.36810    0.18420    0.57100    1.000
    N130     N        0.36850    0.18390    0.51960    1.000
    C400     C        0.48420    0.41460    0.45230    1.000
    H328     H        0.44660    0.40960    0.45190    1.000
    H329     H        0.50710    0.44180    0.42240    1.000
    H330     H        0.48200    0.37870    0.44420    1.000
    Zn21     Zn       0.11886    0.45181    0.03367    1.000
    Zn22     Zn       0.11885    0.66699    0.03367    1.000
    N131     N        0.26077    0.82023    0.00403    1.000
    N132     N        0.17977    0.73883    0.00323    1.000
    C401     C        0.10717    0.66573    0.16683    1.000
    N133     N        0.13787    0.66733    0.11653    1.000
    C402     C        0.18717    0.66803    0.13533    1.000
    H331     H        0.21537    0.66913    0.11073    1.000
    C403     C        0.18687    0.66683    0.19723    1.000
    H332     H        0.21487    0.66703    0.22133    1.000
    N134     N        0.13747    0.66543    0.21673    1.000
    C404     C        0.22277    0.77653    0.03323    1.000
    H333     H        0.22627    0.77243    0.07393    1.000
    N135     N        0.95377    0.61143    0.99043    1.000
    N136     N        0.04617    0.65713    0.00963    1.000
    C405     C        0.02847    0.69543    0.00603    1.000
    C406     C        0.19047    0.76053    0.94753    1.000
    C407     C        0.24037    0.81123    0.94863    1.000
    C408     C        0.97127    0.66753    0.99403    1.000
    C409     C        0.99927    0.60843    0.99983    1.000
    H334     H        0.99877    0.57393    0.99963    1.000
    C410     C        0.26167    0.84243    0.89723    1.000
    H335     H        0.29637    0.87643    0.89683    1.000
    C411     C        0.15837    0.73873    0.89723    1.000
    H336     H        0.12437    0.70403    0.89763    1.000
    C412     C        0.22987    0.82163    0.84713    1.000
    C413     C        0.17817    0.76973    0.84743    1.000
    C414     C        0.16977    0.60943    0.97223    1.000
    N137     N        0.13227    0.60983    0.01043    1.000
    N138     N        0.13207    0.52733    0.00733    1.000
    C415     C        0.17017    0.55883    0.96973    1.000
    C416     C        0.25537    0.85193    0.78593    1.000
    H337     H        0.29217    0.85553    0.78023    1.000
    H338     H        0.23037    0.82963    0.75423    1.000
    H339     H        0.25907    0.88903    0.78603    1.000
    C417     C        0.05947    0.75403    0.01203    1.000
    H340     H        0.09847    0.77343    0.01963    1.000
    C418     C        0.94067    0.69453    0.98753    1.000
    H341     H        0.90187    0.67493    0.97893    1.000
    C419     C        0.02917    0.78153    0.00603    1.000
    C420     C        0.97097    0.75243    0.99443    1.000
    C421     C        0.05697    0.67243    0.16703    1.000
    H342     H        0.02317    0.63573    0.16383    1.000
    H343     H        0.05577    0.69033    0.20343    1.000
    H344     H        0.05887    0.69573    0.13393    1.000
    C422     C        0.11717    0.55873    0.02963    1.000
    C423     C        0.05117    0.84183    0.00993    1.000
    H345     H        0.09167    0.86093    0.01593    1.000
    H346     H        0.04297    0.85513    0.97373    1.000
    H347     H        0.03367    0.84983    0.04283    1.000
    C424     C        0.06287    0.53123    0.07763    1.000
    H348     H        0.02757    0.51063    0.05613    1.000
    H349     H        0.06677    0.50573    0.10433    1.000
    H350     H        0.06277    0.56143    0.10003    1.000
    C425     C        0.09647    0.57313    0.94383    1.000
    C426     C        0.09687    0.52303    0.94383    1.000
    C427     C        0.08017    0.48943    0.89433    1.000
    H351     H        0.08037    0.45523    0.89433    1.000
    C428     C        0.06307    0.50603    0.84493    1.000
    C429     C        0.06277    0.55603    0.84483    1.000
    C430     C        0.07937    0.58963    0.89433    1.000
    H352     H        0.07917    0.62383    0.89433    1.000
    C431     C        0.17657    0.66473    0.16533    1.000
    H353     H        0.21017    0.70173    0.16773    1.000
    H354     H        0.17557    0.64203    0.19863    1.000
    H355     H        0.17717    0.64643    0.12903    1.000
    C432     C        0.12977    0.67053    0.16633    1.000
    N139     N        0.09747    0.66753    0.11683    1.000
    C433     C        0.04477    0.65773    0.13683    1.000
    H356     H        0.01497    0.65393    0.11293    1.000
    C434     C        0.04437    0.65473    0.19863    1.000
    H357     H        0.01427    0.64853    0.22343    1.000
    N140     N        0.09697    0.66263    0.21693    1.000
    N141     N        0.11897    0.59783    0.99883    1.000
    N142     N        0.11937    0.51723    0.00133    1.000
    C435     C        0.95087    0.79103    0.99383    1.000
    H358     H        0.91017    0.77063    0.99803    1.000
    H359     H        0.96767    0.81733    0.02623    1.000
    H360     H        0.96107    0.81153    0.95683    1.000
    O11      O        0.00117    0.50043    0.93603    1.000
    C436     C        0.04867    0.56933    0.79633    1.000
    C437     C        0.04767    0.48333    0.79333    1.000
    C438     C        0.97367    0.48663    0.81733    1.000
    C439     C        0.03477    0.51753    0.90433    1.000
    N143     N        0.03517    0.51723    0.85293    1.000
    C440     C        0.15087    0.74793    0.78563    1.000
    H361     H        0.11327    0.74293    0.78523    1.000
    H362     H        0.17377    0.77513    0.75573    1.000
    H363     H        0.14867    0.71203    0.77753    1.000
    Zn23     Zn       0.78552    0.78515    0.36701    1.000
    Zn24     Zn       0.78551    0.00033    0.36701    1.000
    N144     N        0.92743    0.15357    0.33737    1.000
    N145     N        0.84643    0.07217    0.33657    1.000
    C441     C        0.77383    0.99907    0.50017    1.000
    N146     N        0.80453    0.00067    0.44987    1.000
    C442     C        0.85383    0.00137    0.46867    1.000
    H364     H        0.88203    0.00247    0.44407    1.000
    C443     C        0.85353    0.00017    0.53057    1.000
    H365     H        0.88153    0.00037    0.55467    1.000
    N147     N        0.80413    0.99877    0.55007    1.000
    C444     C        0.88943    0.10987    0.36657    1.000
    H366     H        0.89293    0.10577    0.40727    1.000
    N148     N        0.62043    0.94477    0.32377    1.000
    N149     N        0.71283    0.99047    0.34297    1.000
    C445     C        0.69513    0.02877    0.33937    1.000
    C446     C        0.85713    0.09387    0.28087    1.000
    C447     C        0.90703    0.14457    0.28197    1.000
    C448     C        0.63793    0.00087    0.32737    1.000
    C449     C        0.66593    0.94177    0.33317    1.000
    H367     H        0.66543    0.90727    0.33297    1.000
    C450     C        0.92833    0.17577    0.23057    1.000
    H368     H        0.96303    0.20977    0.23017    1.000
    C451     C        0.82503    0.07207    0.23057    1.000
    H369     H        0.79103    0.03737    0.23097    1.000
    C452     C        0.89653    0.15497    0.18047    1.000
    C453     C        0.84483    0.10307    0.18077    1.000
    C454     C        0.83643    0.94277    0.30557    1.000
    N150     N        0.79893    0.94317    0.34377    1.000
    N151     N        0.79873    0.86067    0.34067    1.000
    C455     C        0.83683    0.89217    0.30307    1.000
    C456     C        0.92203    0.18527    0.11927    1.000
    H370     H        0.95883    0.18887    0.11357    1.000
    H371     H        0.89703    0.16297    0.08757    1.000
    H372     H        0.92573    0.22237    0.11937    1.000
    C457     C        0.72613    0.08737    0.34537    1.000
    H373     H        0.76513    0.10677    0.35297    1.000
    C458     C        0.60733    0.02787    0.32087    1.000
    H374     H        0.56853    0.00827    0.31227    1.000
    C459     C        0.69583    0.11487    0.33937    1.000
    C460     C        0.63763    0.08577    0.32777    1.000
    C461     C        0.72363    0.00577    0.50037    1.000
    H375     H        0.68983    0.96907    0.49717    1.000
    H376     H        0.72243    0.02367    0.53677    1.000
    H377     H        0.72553    0.02907    0.46727    1.000
    C462     C        0.78383    0.89207    0.36297    1.000
    C463     C        0.71783    0.17517    0.34327    1.000
    H378     H        0.75833    0.19427    0.34927    1.000
    H379     H        0.70963    0.18847    0.30707    1.000
    H380     H        0.70033    0.18317    0.37617    1.000
    C464     C        0.72953    0.86457    0.41097    1.000
    H381     H        0.69423    0.84397    0.38947    1.000
    H382     H        0.73343    0.83907    0.43767    1.000
    H383     H        0.72943    0.89477    0.43337    1.000
    C465     C        0.76313    0.90647    0.27717    1.000
    C466     C        0.76353    0.85637    0.27717    1.000
    C467     C        0.74683    0.82277    0.22767    1.000
    H384     H        0.74703    0.78857    0.22767    1.000
    C468     C        0.72973    0.83937    0.17827    1.000
    C469     C        0.72943    0.88937    0.17817    1.000
    C470     C        0.74603    0.92297    0.22767    1.000
    H385     H        0.74583    0.95717    0.22767    1.000
    C471     C        0.84323    0.99807    0.49867    1.000
    H386     H        0.87683    0.03507    0.50107    1.000
    H387     H        0.84223    0.97537    0.53197    1.000
    H388     H        0.84383    0.97977    0.46237    1.000
    C472     C        0.79643    0.00387    0.49967    1.000
    N152     N        0.76413    0.00087    0.45017    1.000
    C473     C        0.71143    0.99107    0.47017    1.000
    H389     H        0.68163    0.98727    0.44627    1.000
    C474     C        0.71103    0.98807    0.53197    1.000
    H390     H        0.68093    0.98187    0.55677    1.000
    N153     N        0.76363    0.99597    0.55027    1.000
    N154     N        0.78563    0.93117    0.33217    1.000
    N155     N        0.78603    0.85057    0.33467    1.000
    C475     C        0.61753    0.12437    0.32717    1.000
    H391     H        0.57683    0.10397    0.33137    1.000
    H392     H        0.63433    0.15067    0.35957    1.000
    H393     H        0.62773    0.14487    0.29017    1.000
    O12      O        0.66783    0.83377    0.26937    1.000
    C476     C        0.71533    0.90267    0.12967    1.000
    C477     C        0.71433    0.81667    0.12667    1.000
    C478     C        0.64033    0.81997    0.15067    1.000
    C479     C        0.70143    0.85087    0.23767    1.000
    N156     N        0.70183    0.85057    0.18627    1.000
    C480     C        0.81753    0.08127    0.11897    1.000
    H394     H        0.77993    0.07627    0.11857    1.000
    H395     H        0.84043    0.10847    0.08907    1.000
    H396     H        0.81533    0.04537    0.11087    1.000
    Zn25     Zn       0.88152    0.33371    0.70034    1.000
    Zn26     Zn       0.66634    0.11852    0.70034    1.000
    N157     N        0.51310    0.10720    0.67070    1.000
    N158     N        0.59450    0.10760    0.66990    1.000
    C481     C        0.66760    0.10810    0.83350    1.000
    N159     N        0.66600    0.13720    0.78320    1.000
    C482     C        0.66530    0.18580    0.80200    1.000
    H397     H        0.66420    0.21290    0.77740    1.000
    C483     C        0.66650    0.18670    0.86390    1.000
    H398     H        0.66630    0.21450    0.88800    1.000
    N160     N        0.66790    0.13870    0.88340    1.000
    C484     C        0.55680    0.11290    0.69990    1.000
    H399     H        0.56090    0.12050    0.74060    1.000
    N161     N        0.72190    0.00900    0.65710    1.000
    N162     N        0.67620    0.05570    0.67630    1.000
    C485     C        0.63790    0.99970    0.67270    1.000
    C486     C        0.57280    0.09660    0.61420    1.000
    C487     C        0.52210    0.09580    0.61530    1.000
    C488     C        0.66580    0.97040    0.66070    1.000
    C489     C        0.72490    0.05750    0.66650    1.000
    H400     H        0.75940    0.09150    0.66630    1.000
    C490     C        0.49090    0.08590    0.56390    1.000
    H401     H        0.45690    0.08660    0.56350    1.000
    C491     C        0.59460    0.08630    0.56390    1.000
    H402     H        0.62930    0.08700    0.56430    1.000
    C492     C        0.51170    0.07490    0.51380    1.000
    C493     C        0.56360    0.07510    0.51410    1.000
    C494     C        0.72390    0.22700    0.63890    1.000
    N163     N        0.72350    0.18910    0.67710    1.000
    N164     N        0.80600    0.27140    0.67400    1.000
    C495     C        0.77450    0.27800    0.63640    1.000
    C496     C        0.48140    0.07010    0.45260    1.000
    H403     H        0.47780    0.10330    0.44690    1.000
    H404     H        0.50370    0.06740    0.42090    1.000
    H405     H        0.44430    0.03670    0.45270    1.000
    C497     C        0.57930    0.97210    0.67870    1.000
    H406     H        0.55990    0.99170    0.68630    1.000
    C498     C        0.63880    0.91280    0.65420    1.000
    H407     H        0.65840    0.89360    0.64560    1.000
    C499     C        0.55180    0.91430    0.67270    1.000
    C500     C        0.58090    0.88520    0.66110    1.000
    C501     C        0.66090    0.05120    0.83370    1.000
    H408     H        0.69760    0.05410    0.83050    1.000
    H409     H        0.64300    0.03210    0.87010    1.000
    H410     H        0.63760    0.02980    0.80060    1.000
    C502     C        0.77460    0.22510    0.69630    1.000
    C503     C        0.49150    0.87600    0.67660    1.000
    H411     H        0.47240    0.89740    0.68260    1.000
    H412     H        0.47820    0.85450    0.64040    1.000
    H413     H        0.48350    0.85050    0.70950    1.000
    C504     C        0.80210    0.19830    0.74430    1.000
    H414     H        0.82270    0.18360    0.72280    1.000
    H415     H        0.82760    0.22770    0.77100    1.000
    H416     H        0.77190    0.16800    0.76670    1.000
    C505     C        0.76020    0.19000    0.61050    1.000
    C506     C        0.81030    0.24050    0.61050    1.000
    C507     C        0.84390    0.25740    0.56100    1.000
    H417     H        0.87810    0.29180    0.56100    1.000
    C508     C        0.82730    0.22370    0.51160    1.000
    C509     C        0.77730    0.17340    0.51150    1.000
    C510     C        0.74370    0.15640    0.56100    1.000
    H418     H        0.70950    0.12200    0.56100    1.000
    C511     C        0.66860    0.17850    0.83200    1.000
    H419     H        0.63160    0.17510    0.83440    1.000
    H420     H        0.69130    0.20020    0.86530    1.000
    H421     H        0.68690    0.19740    0.79570    1.000
    C512     C        0.66280    0.12590    0.83300    1.000
    N165     N        0.66580    0.09660    0.78350    1.000
    C513     C        0.67560    0.05370    0.80350    1.000
    H422     H        0.67940    0.02770    0.77960    1.000
    C514     C        0.67860    0.05630    0.86530    1.000
    H423     H        0.68480    0.03240    0.89010    1.000
    N166     N        0.67070    0.10100    0.88360    1.000
    N167     N        0.73550    0.18780    0.66550    1.000
    N168     N        0.81610    0.26880    0.66800    1.000
    C515     C        0.54230    0.82650    0.66050    1.000
    H424     H        0.56270    0.80620    0.66470    1.000
    H425     H        0.51600    0.81700    0.69290    1.000
    H426     H        0.52180    0.81620    0.62350    1.000
    O13      O        0.83290    0.16740    0.60270    1.000
    C516     C        0.76400    0.14600    0.46300    1.000
    C517     C        0.85000    0.23100    0.46000    1.000
    C518     C        0.84670    0.15370    0.48400    1.000
    C519     C        0.81580    0.18390    0.57100    1.000
    N169     N        0.81610    0.18460    0.51960    1.000
    C520     C        0.58540    0.06960    0.45230    1.000
    H427     H        0.59040    0.03700    0.45190    1.000
    H428     H        0.55820    0.06530    0.42240    1.000
    H429     H        0.62130    0.10330    0.44420    1.000
    Zn27     Zn       0.54819    0.66704    0.03367    1.000
    Zn28     Zn       0.33301    0.45185    0.03367    1.000
    N170     N        0.17977    0.44053    0.00403    1.000
    N171     N        0.26117    0.44093    0.00323    1.000
    C521     C        0.33427    0.44143    0.16683    1.000
    N172     N        0.33267    0.47053    0.11653    1.000
    C522     C        0.33197    0.51913    0.13533    1.000
    H430     H        0.33087    0.54623    0.11073    1.000
    C523     C        0.33317    0.52003    0.19723    1.000
    H431     H        0.33297    0.54783    0.22133    1.000
    N173     N        0.33457    0.47203    0.21673    1.000
    C524     C        0.22347    0.44623    0.03323    1.000
    H432     H        0.22757    0.45383    0.07393    1.000
    N174     N        0.38857    0.34233    0.99043    1.000
    N175     N        0.34287    0.38903    0.00963    1.000
    C525     C        0.30457    0.33303    0.00603    1.000
    C526     C        0.23947    0.42993    0.94753    1.000
    C527     C        0.18877    0.42913    0.94863    1.000
    C528     C        0.33247    0.30373    0.99403    1.000
    C529     C        0.39157    0.39083    0.99983    1.000
    H433     H        0.42607    0.42483    0.99963    1.000
    C530     C        0.15757    0.41923    0.89723    1.000
    H434     H        0.12357    0.41993    0.89683    1.000
    C531     C        0.26127    0.41963    0.89723    1.000
    H435     H        0.29597    0.42033    0.89763    1.000
    C532     C        0.17837    0.40823    0.84713    1.000
    C533     C        0.23027    0.40843    0.84743    1.000
    C534     C        0.39057    0.56033    0.97223    1.000
    N176     N        0.39017    0.52243    0.01043    1.000
    N177     N        0.47267    0.60473    0.00733    1.000
    C535     C        0.44117    0.61133    0.96973    1.000
    C536     C        0.14807    0.40343    0.78593    1.000
    H436     H        0.14447    0.43663    0.78023    1.000
    H437     H        0.17037    0.40073    0.75423    1.000
    H438     H        0.11097    0.37003    0.78603    1.000
    C537     C        0.24597    0.30543    0.01203    1.000
    H439     H        0.22657    0.32503    0.01963    1.000
    C538     C        0.30547    0.24613    0.98753    1.000
    H440     H        0.32507    0.22693    0.97893    1.000
    C539     C        0.21847    0.24763    0.00603    1.000
    C540     C        0.24757    0.21853    0.99443    1.000
    C541     C        0.32757    0.38453    0.16703    1.000
    H441     H        0.36427    0.38743    0.16383    1.000
    H442     H        0.30967    0.36543    0.20343    1.000
    H443     H        0.30427    0.36313    0.13393    1.000
    C542     C        0.44127    0.55843    0.02963    1.000
    C543     C        0.15817    0.20933    0.00993    1.000
    H444     H        0.13907    0.23073    0.01593    1.000
    H445     H        0.14487    0.18783    0.97373    1.000
    H446     H        0.15017    0.18383    0.04283    1.000
    C544     C        0.46877    0.53163    0.07763    1.000
    H447     H        0.48937    0.51693    0.05613    1.000
    H448     H        0.49427    0.56103    0.10433    1.000
    H449     H        0.43857    0.50133    0.10003    1.000
    C545     C        0.42687    0.52333    0.94383    1.000
    C546     C        0.47697    0.57383    0.94383    1.000
    C547     C        0.51057    0.59073    0.89433    1.000
    H450     H        0.54477    0.62513    0.89433    1.000
    C548     C        0.49397    0.55703    0.84493    1.000
    C549     C        0.44397    0.50673    0.84483    1.000
    C550     C        0.41037    0.48973    0.89433    1.000
    H451     H        0.37617    0.45533    0.89433    1.000
    C551     C        0.33527    0.51183    0.16533    1.000
    H452     H        0.29827    0.50843    0.16773    1.000
    H453     H        0.35797    0.53353    0.19863    1.000
    H454     H        0.35357    0.53073    0.12903    1.000
    C552     C        0.32947    0.45923    0.16633    1.000
    N178     N        0.33247    0.42993    0.11683    1.000
    C553     C        0.34227    0.38703    0.13683    1.000
    H455     H        0.34607    0.36103    0.11293    1.000
    C554     C        0.34527    0.38963    0.19863    1.000
    H456     H        0.35147    0.36573    0.22343    1.000
    N179     N        0.33737    0.43433    0.21693    1.000
    N180     N        0.40217    0.52113    0.99883    1.000
    N181     N        0.48277    0.60213    0.00133    1.000
    C555     C        0.20897    0.15983    0.99383    1.000
    H457     H        0.22937    0.13953    0.99803    1.000
    H458     H        0.18267    0.15033    0.02623    1.000
    H459     H        0.18847    0.14953    0.95683    1.000
    O14      O        0.49957    0.50073    0.93603    1.000
    C556     C        0.43067    0.47933    0.79633    1.000
    C557     C        0.51667    0.56433    0.79333    1.000
    C558     C        0.51337    0.48703    0.81733    1.000
    C559     C        0.48247    0.51723    0.90433    1.000
    N182     N        0.48277    0.51793    0.85293    1.000
    C560     C        0.25207    0.40293    0.78563    1.000
    H460     H        0.25707    0.37033    0.78523    1.000
    H461     H        0.22487    0.39863    0.75573    1.000
    H462     H        0.28797    0.43663    0.77753    1.000
    Zn29     Zn       0.21485    0.00038    0.36701    1.000
    Zn30     Zn       0.99967    0.78519    0.36701    1.000
    N183     N        0.84643    0.77387    0.33737    1.000
    N184     N        0.92783    0.77427    0.33657    1.000
    C561     C        0.00093    0.77477    0.50017    1.000
    N185     N        0.99933    0.80387    0.44987    1.000
    C562     C        0.99863    0.85247    0.46867    1.000
    H463     H        0.99753    0.87957    0.44407    1.000
    C563     C        0.99983    0.85337    0.53057    1.000
    H464     H        0.99963    0.88117    0.55467    1.000
    N186     N        0.00123    0.80537    0.55007    1.000
    C564     C        0.89013    0.77957    0.36657    1.000
    H465     H        0.89423    0.78717    0.40727    1.000
    N187     N        0.05523    0.67567    0.32377    1.000
    N188     N        0.00953    0.72237    0.34297    1.000
    C565     C        0.97123    0.66637    0.33937    1.000
    C566     C        0.90613    0.76327    0.28087    1.000
    C567     C        0.85543    0.76247    0.28197    1.000
    C568     C        0.99913    0.63707    0.32737    1.000
    C569     C        0.05823    0.72417    0.33317    1.000
    H466     H        0.09273    0.75817    0.33297    1.000
    C570     C        0.82423    0.75257    0.23057    1.000
    H467     H        0.79023    0.75327    0.23017    1.000
    C571     C        0.92793    0.75297    0.23057    1.000
    H468     H        0.96263    0.75367    0.23097    1.000
    C572     C        0.84503    0.74157    0.18047    1.000
    C573     C        0.89693    0.74177    0.18077    1.000
    C574     C        0.05723    0.89367    0.30557    1.000
    N189     N        0.05683    0.85577    0.34377    1.000
    N190     N        0.13933    0.93807    0.34067    1.000
    C575     C        0.10783    0.94467    0.30307    1.000
    C576     C        0.81473    0.73677    0.11927    1.000
    H469     H        0.81113    0.76997    0.11357    1.000
    H470     H        0.83703    0.73407    0.08757    1.000
    H471     H        0.77763    0.70337    0.11937    1.000
    C577     C        0.91263    0.63877    0.34537    1.000
    H472     H        0.89323    0.65837    0.35297    1.000
    C578     C        0.97213    0.57947    0.32087    1.000
    H473     H        0.99173    0.56027    0.31227    1.000
    C579     C        0.88513    0.58097    0.33937    1.000
    C580     C        0.91423    0.55187    0.32777    1.000
    C581     C        0.99423    0.71787    0.50037    1.000
    H474     H        0.03093    0.72077    0.49717    1.000
    H475     H        0.97633    0.69877    0.53677    1.000
    H476     H        0.97093    0.69647    0.46727    1.000
    C582     C        0.10793    0.89177    0.36297    1.000
    C583     C        0.82483    0.54267    0.34327    1.000
    H477     H        0.80573    0.56407    0.34927    1.000
    H478     H        0.81153    0.52117    0.30707    1.000
    H479     H        0.81683    0.51717    0.37617    1.000
    C584     C        0.13543    0.86497    0.41097    1.000
    H480     H        0.15603    0.85027    0.38947    1.000
    H481     H        0.16093    0.89437    0.43767    1.000
    H482     H        0.10523    0.83467    0.43337    1.000
    C585     C        0.09353    0.85667    0.27717    1.000
    C586     C        0.14363    0.90717    0.27717    1.000
    C587     C        0.17723    0.92407    0.22767    1.000
    H483     H        0.21143    0.95847    0.22767    1.000
    C588     C        0.16063    0.89037    0.17827    1.000
    C589     C        0.11063    0.84007    0.17817    1.000
    C590     C        0.07703    0.82307    0.22767    1.000
    H484     H        0.04283    0.78867    0.22767    1.000
    C591     C        0.00193    0.84517    0.49867    1.000
    H485     H        0.96493    0.84177    0.50107    1.000
    H486     H        0.02463    0.86687    0.53197    1.000
    H487     H        0.02023    0.86407    0.46237    1.000
    C592     C        0.99613    0.79257    0.49967    1.000
    N191     N        0.99913    0.76327    0.45017    1.000
    C593     C        0.00893    0.72037    0.47017    1.000
    H488     H        0.01273    0.69437    0.44627    1.000
    C594     C        0.01193    0.72297    0.53197    1.000
    H489     H        0.01813    0.69907    0.55677    1.000
    N192     N        0.00403    0.76767    0.55027    1.000
    N193     N        0.06883    0.85447    0.33217    1.000
    N194     N        0.14943    0.93547    0.33467    1.000
    C595     C        0.87563    0.49317    0.32717    1.000
    H490     H        0.89603    0.47287    0.33137    1.000
    H491     H        0.84933    0.48367    0.35957    1.000
    H492     H        0.85513    0.48287    0.29017    1.000
    O15      O        0.16623    0.83407    0.26937    1.000
    C596     C        0.09733    0.81267    0.12967    1.000
    C597     C        0.18333    0.89767    0.12667    1.000
    C598     C        0.18003    0.82037    0.15067    1.000
    C599     C        0.14913    0.85057    0.23767    1.000
    N195     N        0.14943    0.85127    0.18627    1.000
    C600     C        0.91873    0.73627    0.11897    1.000
    H493     H        0.92373    0.70367    0.11857    1.000
    H494     H        0.89153    0.73197    0.08907    1.000
    H495     H        0.95463    0.76997    0.11087    1.000
    Zn31     Zn       0.66629    0.54781    0.70034    1.000
    Zn32     Zn       0.88148    0.54782    0.70034    1.000
    N196     N        0.89280    0.40590    0.67070    1.000
    N197     N        0.89240    0.48690    0.66990    1.000
    C601     C        0.89190    0.55950    0.83350    1.000
    N198     N        0.86280    0.52880    0.78320    1.000
    C602     C        0.81420    0.47950    0.80200    1.000
    H496     H        0.78710    0.45130    0.77740    1.000
    C603     C        0.81330    0.47980    0.86390    1.000
    H497     H        0.78550    0.45180    0.88800    1.000
    N199     N        0.86130    0.52920    0.88340    1.000
    C604     C        0.88710    0.44390    0.69990    1.000
    H498     H        0.87950    0.44040    0.74060    1.000
    N200     N        0.99100    0.71290    0.65710    1.000
    N201     N        0.94430    0.62050    0.67630    1.000
    C605     C        0.00030    0.63820    0.67270    1.000
    C606     C        0.90340    0.47620    0.61420    1.000
    C607     C        0.90420    0.42630    0.61530    1.000
    C608     C        0.02960    0.69540    0.66070    1.000
    C609     C        0.94250    0.66740    0.66650    1.000
    H499     H        0.90850    0.66790    0.66630    1.000
    C610     C        0.91410    0.40500    0.56390    1.000
    H500     H        0.91340    0.37030    0.56350    1.000
    C611     C        0.91370    0.50830    0.56390    1.000
    H501     H        0.91300    0.54230    0.56430    1.000
    C612     C        0.92510    0.43680    0.51380    1.000
    C613     C        0.92490    0.48850    0.51410    1.000
    C614     C        0.77300    0.49690    0.63890    1.000
    N202     N        0.81090    0.53440    0.67710    1.000
    N203     N        0.72860    0.53460    0.67400    1.000
    C615     C        0.72200    0.49650    0.63640    1.000
    C616     C        0.92990    0.41130    0.45260    1.000
    H502     H        0.89670    0.37450    0.44690    1.000
    H503     H        0.93260    0.43630    0.42090    1.000
    H504     H        0.96330    0.40760    0.45270    1.000
    C617     C        0.02790    0.60720    0.67870    1.000
    H505     H        0.00830    0.56820    0.68630    1.000
    C618     C        0.08720    0.72600    0.65420    1.000
    H506     H        0.10640    0.76480    0.64560    1.000
    C619     C        0.08570    0.63750    0.67270    1.000
    C620     C        0.11480    0.69570    0.66110    1.000
    C621     C        0.94880    0.60970    0.83370    1.000
    H507     H        0.94590    0.64350    0.83050    1.000
    H508     H        0.96790    0.61090    0.87010    1.000
    H509     H        0.97020    0.60780    0.80060    1.000
    C622     C        0.77490    0.54950    0.69630    1.000
    C623     C        0.12400    0.61550    0.67660    1.000
    H510     H        0.10260    0.57500    0.68260    1.000
    H511     H        0.14550    0.62370    0.64040    1.000
    H512     H        0.14950    0.63300    0.70950    1.000
    C624     C        0.80170    0.60380    0.74430    1.000
    H513     H        0.81640    0.63910    0.72280    1.000
    H514     H        0.77230    0.59990    0.77100    1.000
    H515     H        0.83200    0.60390    0.76670    1.000
    C625     C        0.81000    0.57020    0.61050    1.000
    C626     C        0.75950    0.56980    0.61050    1.000
    C627     C        0.74260    0.58650    0.56100    1.000
    H516     H        0.70820    0.58630    0.56100    1.000
    C628     C        0.77630    0.60360    0.51160    1.000
    C629     C        0.82660    0.60390    0.51150    1.000
    C630     C        0.84360    0.58730    0.56100    1.000
    H517     H        0.87800    0.58750    0.56100    1.000
    C631     C        0.82150    0.49010    0.83200    1.000
    H518     H        0.82490    0.45650    0.83440    1.000
    H519     H        0.79980    0.49110    0.86530    1.000
    H520     H        0.80260    0.48950    0.79570    1.000
    C632     C        0.87410    0.53690    0.83300    1.000
    N204     N        0.90340    0.56920    0.78350    1.000
    C633     C        0.94630    0.62190    0.80350    1.000
    H521     H        0.97230    0.65170    0.77960    1.000
    C634     C        0.94370    0.62230    0.86530    1.000
    H522     H        0.96760    0.65240    0.89010    1.000
    N205     N        0.89900    0.56970    0.88360    1.000
    N206     N        0.81220    0.54770    0.66550    1.000
    N207     N        0.73120    0.54730    0.66800    1.000
    C635     C        0.17350    0.71580    0.66050    1.000
    H523     H        0.19380    0.75650    0.66470    1.000
    H524     H        0.18300    0.69900    0.69290    1.000
    H525     H        0.18380    0.70560    0.62350    1.000
    O16      O        0.83260    0.66550    0.60270    1.000
    C636     C        0.85400    0.61800    0.46300    1.000
    C637     C        0.76900    0.61900    0.46000    1.000
    C638     C        0.84630    0.69300    0.48400    1.000
    C639     C        0.81610    0.63190    0.57100    1.000
    N208     N        0.81540    0.63150    0.51960    1.000
    C640     C        0.93040    0.51580    0.45230    1.000
    H526     H        0.96300    0.55340    0.45190    1.000
    H527     H        0.93470    0.49290    0.42240    1.000
    H528     H        0.89670    0.51800    0.44420    1.000
    Zn33     Zn       0.33296    0.88114    0.03367    1.000
    Zn34     Zn       0.54815    0.88115    0.03367    1.000
    N209     N        0.55947    0.73923    0.00403    1.000
    N210     N        0.55907    0.82023    0.00323    1.000
    C641     C        0.55857    0.89283    0.16683    1.000
    N211     N        0.52947    0.86213    0.11653    1.000
    C642     C        0.48087    0.81283    0.13533    1.000
    H529     H        0.45377    0.78463    0.11073    1.000
    C643     C        0.47997    0.81313    0.19723    1.000
    H530     H        0.45217    0.78513    0.22133    1.000
    N212     N        0.52797    0.86253    0.21673    1.000
    C644     C        0.55377    0.77723    0.03323    1.000
    H531     H        0.54617    0.77373    0.07393    1.000
    N213     N        0.65767    0.04623    0.99043    1.000
    N214     N        0.61097    0.95383    0.00963    1.000
    C645     C        0.66697    0.97153    0.00603    1.000
    C646     C        0.57007    0.80953    0.94753    1.000
    C647     C        0.57087    0.75963    0.94863    1.000
    C648     C        0.69627    0.02873    0.99403    1.000
    C649     C        0.60917    0.00073    0.99983    1.000
    H532     H        0.57517    0.00123    0.99963    1.000
    C650     C        0.58077    0.73833    0.89723    1.000
    H533     H        0.58007    0.70363    0.89683    1.000
    C651     C        0.58037    0.84163    0.89723    1.000
    H534     H        0.57967    0.87563    0.89763    1.000
    C652     C        0.59177    0.77013    0.84713    1.000
    C653     C        0.59157    0.82183    0.84743    1.000
    C654     C        0.43967    0.83023    0.97223    1.000
    N215     N        0.47757    0.86773    0.01043    1.000
    N216     N        0.39527    0.86793    0.00733    1.000
    C655     C        0.38867    0.82983    0.96973    1.000
    C656     C        0.59657    0.74463    0.78593    1.000
    H535     H        0.56337    0.70783    0.78023    1.000
    H536     H        0.59927    0.76963    0.75423    1.000
    H537     H        0.62997    0.74093    0.78603    1.000
    C657     C        0.69457    0.94053    0.01203    1.000
    H538     H        0.67497    0.90153    0.01963    1.000
    C658     C        0.75387    0.05933    0.98753    1.000
    H539     H        0.77307    0.09813    0.97893    1.000
    C659     C        0.75237    0.97083    0.00603    1.000
    C660     C        0.78147    0.02903    0.99443    1.000
    C661     C        0.61547    0.94303    0.16703    1.000
    H540     H        0.61257    0.97683    0.16383    1.000
    H541     H        0.63457    0.94423    0.20343    1.000
    H542     H        0.63687    0.94113    0.13393    1.000
    C662     C        0.44157    0.88283    0.02963    1.000
    C663     C        0.79067    0.94883    0.00993    1.000
    H543     H        0.76927    0.90833    0.01593    1.000
    H544     H        0.81217    0.95703    0.97373    1.000
    H545     H        0.81617    0.96633    0.04283    1.000
    C664     C        0.46837    0.93713    0.07763    1.000
    H546     H        0.48307    0.97243    0.05613    1.000
    H547     H        0.43897    0.93323    0.10433    1.000
    H548     H        0.49867    0.93723    0.10003    1.000
    C665     C        0.47667    0.90353    0.94383    1.000
    C666     C        0.42617    0.90313    0.94383    1.000
    C667     C        0.40927    0.91983    0.89433    1.000
    H549     H        0.37487    0.91963    0.89433    1.000
    C668     C        0.44297    0.93693    0.84493    1.000
    C669     C        0.49327    0.93723    0.84483    1.000
    C670     C        0.51027    0.92063    0.89433    1.000
    H550     H        0.54467    0.92083    0.89433    1.000
    C671     C        0.48817    0.82343    0.16533    1.000
    H551     H        0.49157    0.78983    0.16773    1.000
    H552     H        0.46647    0.82443    0.19863    1.000
    H553     H        0.46927    0.82283    0.12903    1.000
    C672     C        0.54077    0.87023    0.16633    1.000
    N217     N        0.57007    0.90253    0.11683    1.000
    C673     C        0.61297    0.95523    0.13683    1.000
    H554     H        0.63897    0.98503    0.11293    1.000
    C674     C        0.61037    0.95563    0.19863    1.000
    H555     H        0.63427    0.98573    0.22343    1.000
    N218     N        0.56567    0.90303    0.21693    1.000
    N219     N        0.47887    0.88103    0.99883    1.000
    N220     N        0.39787    0.88063    0.00133    1.000
    C675     C        0.84017    0.04913    0.99383    1.000
    H556     H        0.86047    0.08983    0.99803    1.000
    H557     H        0.84967    0.03233    0.02623    1.000
    H558     H        0.85047    0.03893    0.95683    1.000
    O17      O        0.49927    0.99883    0.93603    1.000
    C676     C        0.52067    0.95133    0.79633    1.000
    C677     C        0.43567    0.95233    0.79333    1.000
    C678     C        0.51297    0.02633    0.81733    1.000
    C679     C        0.48277    0.96523    0.90433    1.000
    N221     N        0.48207    0.96483    0.85293    1.000
    C680     C        0.59707    0.84913    0.78563    1.000
    H559     H        0.62967    0.88673    0.78523    1.000
    H560     H        0.60137    0.82623    0.75573    1.000
    H561     H        0.56337    0.85133    0.77753    1.000
    Zn35     Zn       0.99962    0.21448    0.36701    1.000
    Zn36     Zn       0.21481    0.21449    0.36701    1.000
    N222     N        0.22613    0.07257    0.33737    1.000
    N223     N        0.22573    0.15357    0.33657    1.000
    C681     C        0.22523    0.22617    0.50017    1.000
    N224     N        0.19613    0.19547    0.44987    1.000
    C682     C        0.14753    0.14617    0.46867    1.000
    H562     H        0.12043    0.11797    0.44407    1.000
    C683     C        0.14663    0.14647    0.53057    1.000
    H563     H        0.11883    0.11847    0.55467    1.000
    N225     N        0.19463    0.19587    0.55007    1.000
    C684     C        0.22043    0.11057    0.36657    1.000
    H564     H        0.21283    0.10707    0.40727    1.000
    N226     N        0.32433    0.37957    0.32377    1.000
    N227     N        0.27763    0.28717    0.34297    1.000
    C685     C        0.33363    0.30487    0.33937    1.000
    C686     C        0.23673    0.14287    0.28087    1.000
    C687     C        0.23753    0.09297    0.28197    1.000
    C688     C        0.36293    0.36207    0.32737    1.000
    C689     C        0.27583    0.33407    0.33317    1.000
    H565     H        0.24183    0.33457    0.33297    1.000
    C690     C        0.24743    0.07167    0.23057    1.000
    H566     H        0.24673    0.03697    0.23017    1.000
    C691     C        0.24703    0.17497    0.23057    1.000
    H567     H        0.24633    0.20897    0.23097    1.000
    C692     C        0.25843    0.10347    0.18047    1.000
    C693     C        0.25823    0.15517    0.18077    1.000
    C694     C        0.10633    0.16357    0.30557    1.000
    N228     N        0.14423    0.20107    0.34377    1.000
    N229     N        0.06193    0.20127    0.34067    1.000
    C695     C        0.05533    0.16317    0.30307    1.000
    C696     C        0.26323    0.07797    0.11927    1.000
    H568     H        0.23003    0.04117    0.11357    1.000
    H569     H        0.26593    0.10297    0.08757    1.000
    H570     H        0.29663    0.07427    0.11937    1.000
    C697     C        0.36123    0.27387    0.34537    1.000
    H571     H        0.34163    0.23487    0.35297    1.000
    C698     C        0.42053    0.39267    0.32087    1.000
    H572     H        0.43973    0.43147    0.31227    1.000
    C699     C        0.41903    0.30417    0.33937    1.000
    C700     C        0.44813    0.36237    0.32777    1.000
    C701     C        0.28213    0.27637    0.50037    1.000
    H573     H        0.27923    0.31017    0.49717    1.000
    H574     H        0.30123    0.27757    0.53677    1.000
    H575     H        0.30353    0.27447    0.46727    1.000
    C702     C        0.10823    0.21617    0.36297    1.000
    C703     C        0.45733    0.28217    0.34327    1.000
    H576     H        0.43593    0.24167    0.34927    1.000
    H577     H        0.47883    0.29037    0.30707    1.000
    H578     H        0.48283    0.29967    0.37617    1.000
    C704     C        0.13503    0.27047    0.41097    1.000
    H579     H        0.14973    0.30577    0.38947    1.000
    H580     H        0.10563    0.26657    0.43767    1.000
    H581     H        0.16533    0.27057    0.43337    1.000
    C705     C        0.14333    0.23687    0.27717    1.000
    C706     C        0.09283    0.23647    0.27717    1.000
    C707     C        0.07593    0.25317    0.22767    1.000
    H582     H        0.04153    0.25297    0.22767    1.000
    C708     C        0.10963    0.27027    0.17827    1.000
    C709     C        0.15993    0.27057    0.17817    1.000
    C710     C        0.17693    0.25397    0.22767    1.000
    H583     H        0.21133    0.25417    0.22767    1.000
    C711     C        0.15483    0.15677    0.49867    1.000
    H584     H        0.15823    0.12317    0.50107    1.000
    H585     H        0.13313    0.15777    0.53197    1.000
    H586     H        0.13593    0.15617    0.46237    1.000
    C712     C        0.20743    0.20357    0.49967    1.000
    N230     N        0.23673    0.23587    0.45017    1.000
    C713     C        0.27963    0.28857    0.47017    1.000
    H587     H        0.30563    0.31837    0.44627    1.000
    C714     C        0.27703    0.28897    0.53197    1.000
    H588     H        0.30093    0.31907    0.55677    1.000
    N231     N        0.23233    0.23637    0.55027    1.000
    N232     N        0.14553    0.21437    0.33217    1.000
    N233     N        0.06453    0.21397    0.33467    1.000
    C715     C        0.50683    0.38247    0.32717    1.000
    H589     H        0.52713    0.42317    0.33137    1.000
    H590     H        0.51633    0.36567    0.35957    1.000
    H591     H        0.51713    0.37227    0.29017    1.000
    O18      O        0.16593    0.33217    0.26937    1.000
    C716     C        0.18733    0.28467    0.12967    1.000
    C717     C        0.10233    0.28567    0.12667    1.000
    C718     C        0.17963    0.35967    0.15067    1.000
    C719     C        0.14943    0.29857    0.23767    1.000
    N234     N        0.14873    0.29817    0.18627    1.000
    C720     C        0.26373    0.18247    0.11897    1.000
    H592     H        0.29633    0.22007    0.11857    1.000
    H593     H        0.26803    0.15957    0.08907    1.000
    H594     H        0.23003    0.18467    0.11087    1.000
