data_functionalizedCrystal
_audit_creation_method	'EQeq! by Chris Wilmer'
_symmetry_space_group_name_H-M	'P1'
_symmetry_Int_Tables_number	1
_symmetry_cell_setting	triclinic
loop_
_symmetry_equiv_pos_as_xyz
  x,y,z
_cell_length_a	24.169
_cell_length_b	24.169
_cell_length_c	4.98
_cell_angle_alpha	90
_cell_angle_beta	90
_cell_angle_gamma	90
loop_
_atom_site_label
_atom_site_type_symbol
_atom_site_fract_x
_atom_site_fract_y
_atom_site_fract_z
_atom_site_charge
Mof_O 	O 	0.52246	0.93203	0.8187	-0.388
Mof_N 	N 	0.63824	0.83781	0.7984	-0.058
Mof_C 	C 	0.584	0.8596	0.7274	-0.273
Mof_H 	H 	0.5566	0.8307	0.7509	0.124
Mof_H 	H 	0.5841	0.8701	0.5394	0.145
Mof_C 	C 	0.5677	0.9097	0.8966	0.414
Mof_N 	N 	0.68391	0.8537	0.6629	-0.078
Mof_C 	C 	0.7241	0.8279	0.7902	0.09
Mof_H 	H 	0.7611	0.8313	0.7426	0.022
Mof_C 	C 	0.6518	0.804	0.9952	0.149
Mof_H 	H 	0.6268	0.7882	0.115	-0.026
Mof_O 	O 	0.59541	0.92547	0.0878	-0.309
Mof_N 	N 	0.45428	0.95647	0.2518	-0.222
Mof_O 	O 	0.02246	0.43203	0.3187	-0.424
Mof_N 	N 	0.13824	0.33781	0.2984	-0.055
Mof_C 	C 	0.084	0.3596	0.2274	-0.261
Mof_H 	H 	0.0566	0.3307	0.2509	0.105
Mof_H 	H 	0.0841	0.3701	0.0394	0.134
Mof_C 	C 	0.0677	0.4097	0.3966	0.376
Mof_N 	N 	0.18391	0.3537	0.1629	-0.083
Mof_C 	C 	0.2241	0.3279	0.2902	0.086
Mof_H 	H 	0.2611	0.3313	0.2426	0.015
Mof_C 	C 	0.1518	0.304	0.4952	0.097
Mof_H 	H 	0.1268	0.2882	0.615	0.006
Mof_O 	O 	0.09541	0.42547	0.5878	-0.29
Mof_N 	N 	0.95428	0.45647	0.7518	-0.209
Mof_O 	O 	0.97754	0.06797	0.3187	-0.385
Mof_N 	N 	0.86176	0.16219	0.2984	-0.052
Mof_C 	C 	0.916	0.1404	0.2274	-0.269
Mof_H 	H 	0.9434	0.1693	0.2509	0.127
Mof_H 	H 	0.9159	0.1299	0.0394	0.144
Mof_C 	C 	0.9323	0.0903	0.3966	0.379
Mof_N 	N 	0.81609	0.1463	0.1629	-0.086
Mof_C 	C 	0.7759	0.1721	0.2902	0.085
Mof_H 	H 	0.7389	0.1687	0.2426	0.013
Mof_C 	C 	0.8482	0.196	0.4952	0.096
Mof_H 	H 	0.8732	0.2118	0.615	0.013
Mof_O 	O 	0.90459	0.07453	0.5878	-0.288
Mof_N 	N 	0.04572	0.04353	0.7518	-0.223
Mof_O 	O 	0.47754	0.56797	0.8187	-0.401
Mof_N 	N 	0.36176	0.66219	0.7984	-0.058
Mof_C 	C 	0.416	0.6404	0.7274	-0.275
Mof_H 	H 	0.4434	0.6693	0.7509	0.125
Mof_H 	H 	0.4159	0.6299	0.5394	0.145
Mof_C 	C 	0.4323	0.5903	0.8966	0.415
Mof_N 	N 	0.31609	0.6463	0.6629	-0.08
Mof_C 	C 	0.2759	0.6721	0.7902	0.088
Mof_H 	H 	0.2389	0.6687	0.7426	0.021
Mof_C 	C 	0.3482	0.696	0.9952	0.148
Mof_H 	H 	0.3732	0.7118	0.115	-0.025
Mof_O 	O 	0.40459	0.57453	0.0878	-0.318
Mof_N 	N 	0.54572	0.54353	0.2518	-0.221
Mof_O 	O 	0.81797	0.77246	0.0687	-0.403
Mof_N 	N 	0.91219	0.88824	0.0484	-0.075
Mof_C 	C 	0.8904	0.834	0.9774	-0.174
Mof_H 	H 	0.9193	0.8066	0.0009	0.085
Mof_H 	H 	0.8799	0.8341	0.7894	0.124
Mof_C 	C 	0.8403	0.8177	0.1466	0.341
Mof_N 	N 	0.8963	0.93391	0.9129	-0.063
Mof_C 	C 	0.9221	0.9741	0.0402	0.118
Mof_H 	H 	0.9187	0.0111	0.9926	0
Mof_C 	C 	0.946	0.9018	0.2452	0.107
Mof_H 	H 	0.9618	0.8768	0.365	0.019
Mof_O 	O 	0.82453	0.84541	0.3378	-0.276
Mof_N 	N 	0.79353	0.70428	0.5018	-0.218
Mof_O 	O 	0.31797	0.27246	0.5687	-0.401
Mof_N 	N 	0.41219	0.38824	0.5484	-0.053
Mof_C 	C 	0.3904	0.334	0.4774	-0.262
Mof_H 	H 	0.4193	0.3066	0.5009	0.117
Mof_H 	H 	0.3799	0.3341	0.2894	0.138
Mof_C 	C 	0.3403	0.3177	0.6466	0.377
Mof_N 	N 	0.3963	0.43391	0.4129	-0.083
Mof_C 	C 	0.4221	0.4741	0.5402	0.088
Mof_H 	H 	0.4187	0.5111	0.4926	0.018
Mof_C 	C 	0.446	0.4018	0.7452	0.099
Mof_H 	H 	0.4618	0.3768	0.865	0.017
Mof_O 	O 	0.32453	0.34541	0.8378	-0.28
Mof_N 	N 	0.29353	0.20428	0.0018	-0.217
Mof_O 	O 	0.68203	0.22754	0.5687	-0.401
Mof_N 	N 	0.58781	0.11176	0.5484	-0.053
Mof_C 	C 	0.6096	0.166	0.4774	-0.264
Mof_H 	H 	0.5807	0.1934	0.5009	0.117
Mof_H 	H 	0.6201	0.1659	0.2894	0.137
Mof_C 	C 	0.6597	0.1823	0.6466	0.377
Mof_N 	N 	0.6037	0.06609	0.4129	-0.075
Mof_C 	C 	0.5779	0.0259	0.5402	0.013
Mof_H 	H 	0.5813	0.9889	0.4926	0.069
Mof_C 	C 	0.554	0.0982	0.7452	0.099
Mof_H 	H 	0.5382	0.1232	0.865	0.016
Mof_O 	O 	0.67547	0.15459	0.8378	-0.282
Mof_N 	N 	0.70647	0.29572	0.0018	-0.217
Mof_O 	O 	0.18203	0.72754	0.0687	-0.404
Mof_N 	N 	0.08781	0.61176	0.0484	-0.078
Mof_C 	C 	0.1096	0.666	0.9774	-0.176
Mof_H 	H 	0.0807	0.6934	0.0009	0.073
Mof_H 	H 	0.1201	0.6659	0.7894	0.119
Mof_C 	C 	0.1597	0.6823	0.1466	0.341
Mof_N 	N 	0.1037	0.56609	0.9129	-0.062
Mof_C 	C 	0.0779	0.5259	0.0402	0.042
Mof_H 	H 	0.0813	0.4889	0.9926	0.04
Mof_C 	C 	0.054	0.5982	0.2452	0.096
Mof_H 	H 	0.0382	0.6232	0.365	-0.004
Mof_O 	O 	0.17547	0.65459	0.3378	-0.28
Mof_N 	N 	0.20647	0.79572	0.5018	-0.218
Mof_O 	O 	0.47754	0.06797	0.1813	-0.406
Mof_N 	N 	0.36176	0.16219	0.2016	-0.049
Mof_C 	C 	0.416	0.1404	0.2726	-0.26
Mof_H 	H 	0.4434	0.1693	0.2491	0.113
Mof_H 	H 	0.4159	0.1299	0.4606	0.143
Mof_C 	C 	0.4323	0.0903	0.1034	0.346
Mof_N 	N 	0.31609	0.1463	0.3371	-0.082
Mof_C 	C 	0.2759	0.1721	0.2098	0.084
Mof_H 	H 	0.2389	0.1687	0.2574	0.015
Mof_C 	C 	0.3482	0.196	0.0048	0.055
Mof_H 	H 	0.3732	0.2118	0.885	0.037
Mof_O 	O 	0.40459	0.07453	0.9122	-0.267
Mof_N 	N 	0.54572	0.04353	0.7482	-0.205
Mof_O 	O 	0.97754	0.56797	0.6813	-0.375
Mof_N 	N 	0.86176	0.66219	0.7016	-0.049
Mof_C 	C 	0.916	0.6404	0.7726	-0.275
Mof_H 	H 	0.9434	0.6693	0.7491	0.134
Mof_H 	H 	0.9159	0.6299	0.9606	0.158
Mof_C 	C 	0.9323	0.5903	0.6034	0.383
Mof_N 	N 	0.81609	0.6463	0.8371	-0.075
Mof_C 	C 	0.7759	0.6721	0.7098	0.088
Mof_H 	H 	0.7389	0.6687	0.7574	0.022
Mof_C 	C 	0.8482	0.696	0.5048	0.097
Mof_H 	H 	0.8732	0.7118	0.385	0.011
Mof_O 	O 	0.90459	0.57453	0.4122	-0.287
Mof_N 	N 	0.04572	0.54353	0.2482	-0.22
Mof_O 	O 	0.02246	0.93203	0.6813	-0.405
Mof_N 	N 	0.13824	0.83781	0.7016	-0.052
Mof_C 	C 	0.084	0.8596	0.7726	-0.266
Mof_H 	H 	0.0566	0.8307	0.7491	0.113
Mof_H 	H 	0.0841	0.8701	0.9606	0.148
Mof_C 	C 	0.0677	0.9097	0.6034	0.379
Mof_N 	N 	0.18391	0.8537	0.8371	-0.072
Mof_C 	C 	0.2241	0.8279	0.7098	0.09
Mof_H 	H 	0.2611	0.8313	0.7574	0.024
Mof_C 	C 	0.1518	0.804	0.5048	0.098
Mof_H 	H 	0.1268	0.7882	0.385	0.005
Mof_O 	O 	0.09541	0.92547	0.4122	-0.286
Mof_N 	N 	0.95428	0.95647	0.2482	-0.201
Mof_O 	O 	0.52246	0.43203	0.1813	-0.401
Mof_N 	N 	0.63824	0.33781	0.2016	-0.049
Mof_C 	C 	0.584	0.3596	0.2726	-0.259
Mof_H 	H 	0.5566	0.3307	0.2491	0.113
Mof_H 	H 	0.5841	0.3701	0.4606	0.143
Mof_C 	C 	0.5677	0.4097	0.1034	0.347
Mof_N 	N 	0.68391	0.3537	0.3371	-0.079
Mof_C 	C 	0.7241	0.3279	0.2098	0.086
Mof_H 	H 	0.7611	0.3313	0.2574	0.016
Mof_C 	C 	0.6518	0.304	0.0048	0.057
Mof_H 	H 	0.6268	0.2882	0.885	0.036
Mof_O 	O 	0.59541	0.42547	0.9122	-0.26
Mof_N 	N 	0.45428	0.45647	0.7482	-0.211
Mof_O 	O 	0.18203	0.22754	0.9313	-0.404
Mof_N 	N 	0.08781	0.11176	0.9516	-0.042
Mof_C 	C 	0.1096	0.166	0.0226	-0.311
Mof_H 	H 	0.0807	0.1934	0.9991	0.13
Mof_H 	H 	0.1201	0.1659	0.2106	0.152
Mof_C 	C 	0.1597	0.1823	0.8534	0.398
Mof_N 	N 	0.1037	0.06609	0.0871	-0.09
Mof_C 	C 	0.0779	0.0259	0.9598	0.048
Mof_H 	H 	0.0813	0.9889	0.0074	0.043
Mof_C 	C 	0.054	0.0982	0.7548	0.089
Mof_H 	H 	0.0382	0.1232	0.635	-0.001
Mof_O 	O 	0.17547	0.15459	0.6622	-0.296
Mof_N 	N 	0.20647	0.29572	0.4982	-0.218
Mof_O 	O 	0.68203	0.72754	0.4313	-0.407
Mof_N 	N 	0.58781	0.61176	0.4516	-0.051
Mof_C 	C 	0.6096	0.666	0.5226	-0.273
Mof_H 	H 	0.5807	0.6934	0.4991	0.121
Mof_H 	H 	0.6201	0.6659	0.7106	0.152
Mof_C 	C 	0.6597	0.6823	0.3534	0.383
Mof_N 	N 	0.6037	0.56609	0.5871	-0.076
Mof_C 	C 	0.5779	0.5259	0.4598	0.087
Mof_H 	H 	0.5813	0.4889	0.5074	0.019
Mof_C 	C 	0.554	0.5982	0.2548	0.095
Mof_H 	H 	0.5382	0.6232	0.135	0.001
Mof_O 	O 	0.67547	0.65459	0.1622	-0.3
Mof_N 	N 	0.70647	0.79572	0.9982	-0.217
Mof_O 	O 	0.31797	0.77246	0.4313	-0.406
Mof_N 	N 	0.41219	0.88824	0.4516	-0.051
Mof_C 	C 	0.3904	0.834	0.5226	-0.272
Mof_H 	H 	0.4193	0.8066	0.4991	0.12
Mof_H 	H 	0.3799	0.8341	0.7106	0.153
Mof_C 	C 	0.3403	0.8177	0.3534	0.383
Mof_N 	N 	0.3963	0.93391	0.5871	-0.084
Mof_C 	C 	0.4221	0.9741	0.4598	0.164
Mof_H 	H 	0.4187	0.0111	0.5074	-0.031
Mof_C 	C 	0.446	0.9018	0.2548	0.095
Mof_H 	H 	0.4618	0.8768	0.135	0.002
Mof_O 	O 	0.32453	0.84541	0.1622	-0.297
Mof_N 	N 	0.29353	0.70428	0.9982	-0.217
Mof_O 	O 	0.81797	0.27246	0.9313	-0.402
Mof_N 	N 	0.91219	0.38824	0.9516	-0.039
Mof_C 	C 	0.8904	0.334	0.0226	-0.308
Mof_H 	H 	0.9193	0.3066	0.9991	0.142
Mof_H 	H 	0.8799	0.3341	0.2106	0.157
Mof_C 	C 	0.8403	0.3177	0.8534	0.398
Mof_N 	N 	0.8963	0.43391	0.0871	-0.092
Mof_C 	C 	0.9221	0.4741	0.9598	0.127
Mof_H 	H 	0.9187	0.5111	0.0074	0
Mof_C 	C 	0.946	0.4018	0.7548	0.101
Mof_H 	H 	0.9618	0.3768	0.635	0.022
Mof_O 	O 	0.82453	0.34541	0.6622	-0.292
Mof_N 	N 	0.79353	0.20428	0.4982	-0.217
Mof_Cu	Cu	0.5	0	-0	0.882
Mof_Cu	Cu	4.72512e-33	0.5	0.5	0.892
Mof_Cu	Cu	3.8628e-34	0	0.5	0.875
Mof_Cu	Cu	0.5	0.5	-0	0.9
Mof_Cu	Cu	0.75	0.75	0.25	0.906
Mof_Cu	Cu	0.75	0.25	0.75	0.914
Mof_Cu	Cu	0.25	0.25	0.75	0.914
Mof_Cu	Cu	0.25	0.75	0.25	0.906
_end
