data_functionalizedCrystal
_audit_creation_method	'EQeq! by Chris Wilmer'
_symmetry_space_group_name_H-M	'P1'
_symmetry_Int_Tables_number	1
_symmetry_cell_setting	triclinic
loop_
_symmetry_equiv_pos_as_xyz
  x,y,z
_cell_length_a	18.0488
_cell_length_b	12.7515
_cell_length_c	10.9978
_cell_angle_alpha	90
_cell_angle_beta	103.13
_cell_angle_gamma	90
loop_
_atom_site_label
_atom_site_type_symbol
_atom_site_fract_x
_atom_site_fract_y
_atom_site_fract_z
_atom_site_charge
Mof_N 	N 	0.18565	0.93323	0.61203	-0.201
Mof_Mg	Mg	0.08501	0.0365	0.54126	1.469
Mof_O 	O 	0.07652	0.98555	0.72054	-0.721
Mof_O 	O 	0.13326	0.91067	0.90084	-0.53
Mof_O 	O 	0.35463	0.66607	0.86983	-0.486
Mof_O 	O 	0.41701	0.70971	0.72387	-0.514
Mof_O 	O 	0.9788	0.08679	0.55373	-0.911
Mof_H 	H 	0.9624	0.145	0.528	0.365
Mof_C 	C 	0.19032	0.89409	0.7276	-0.103
Mof_C 	C 	0.24655	0.8259	0.7859	0.034
Mof_H 	H 	0.2445	0.806	0.864	0.045
Mof_C 	C 	0.30175	0.7957	0.7225	-0.101
Mof_C 	C 	0.29836	0.8379	0.6048	-0.019
Mof_H 	H 	0.3362	0.82	0.559	0.044
Mof_C 	C 	0.23999	0.9055	0.5533	0.024
Mof_H 	H 	0.2322	0.934	0.466	0.015
Mof_C 	C 	0.12824	0.93213	0.789	0.45
Mof_C 	C 	0.36325	0.71731	0.7775	0.414
Mof_N 	N 	0.68565	0.43323	0.61203	-0.202
Mof_Mg	Mg	0.58501	0.5365	0.54126	1.473
Mof_O 	O 	0.57652	0.48555	0.72054	-0.676
Mof_O 	O 	0.63326	0.41067	0.90084	-0.513
Mof_O 	O 	0.85463	0.16607	0.86983	-0.467
Mof_O 	O 	0.91701	0.20971	0.72387	-0.467
Mof_O 	O 	0.4788	0.58679	0.55373	-0.992
Mof_H 	H 	0.4624	0.645	0.528	0.36
Mof_C 	C 	0.69032	0.39409	0.7276	-0.091
Mof_C 	C 	0.74655	0.3259	0.7859	0.029
Mof_H 	H 	0.7445	0.306	0.864	0.051
Mof_C 	C 	0.80175	0.2957	0.7225	-0.084
Mof_C 	C 	0.79836	0.3379	0.6048	-0.023
Mof_H 	H 	0.8362	0.32	0.559	0.059
Mof_C 	C 	0.73999	0.4055	0.5533	0.034
Mof_H 	H 	0.7322	0.434	0.466	0.018
Mof_C 	C 	0.62824	0.43213	0.789	0.444
Mof_C 	C 	0.86325	0.21731	0.7775	0.41
Mof_N 	N 	0.81435	0.93323	0.88797	-0.202
Mof_Mg	Mg	0.91499	0.0365	0.95874	1.477
Mof_O 	O 	0.92348	0.98555	0.77946	-0.623
Mof_O 	O 	0.86674	0.91067	0.59916	-0.488
Mof_O 	O 	0.64537	0.66607	0.63017	-0.482
Mof_O 	O 	0.58299	0.70971	0.77613	-0.514
Mof_O 	O 	0.0212	0.08679	0.94627	-1.072
Mof_H 	H 	0.0376	0.145	0.972	0.356
Mof_C 	C 	0.80968	0.89409	0.7724	-0.082
Mof_C 	C 	0.75345	0.8259	0.7141	0.028
Mof_H 	H 	0.7555	0.806	0.636	0.053
Mof_C 	C 	0.69825	0.7957	0.7775	-0.091
Mof_C 	C 	0.70164	0.8379	0.8952	-0.027
Mof_H 	H 	0.6638	0.82	0.941	0.047
Mof_C 	C 	0.76001	0.9055	0.9467	0.038
Mof_H 	H 	0.7678	0.934	0.034	0.006
Mof_C 	C 	0.87176	0.93213	0.711	0.436
Mof_C 	C 	0.63675	0.71731	0.7225	0.412
Mof_N 	N 	0.31435	0.43323	0.88797	-0.201
Mof_Mg	Mg	0.41499	0.5365	0.95874	1.473
Mof_O 	O 	0.42348	0.48555	0.77946	-0.677
Mof_O 	O 	0.36674	0.41067	0.59916	-0.514
Mof_O 	O 	0.14537	0.16607	0.63017	-0.507
Mof_O 	O 	0.08299	0.20971	0.77613	-0.56
Mof_O 	O 	0.5212	0.58679	0.94627	-0.992
Mof_H 	H 	0.5376	0.645	0.972	0.361
Mof_C 	C 	0.30968	0.39409	0.7724	-0.1
Mof_C 	C 	0.25345	0.3259	0.7141	0.036
Mof_H 	H 	0.2555	0.306	0.636	0.042
Mof_C 	C 	0.19825	0.2957	0.7775	-0.113
Mof_C 	C 	0.20164	0.3379	0.8952	-0.018
Mof_H 	H 	0.1638	0.32	0.941	0.03
Mof_C 	C 	0.26001	0.4055	0.9467	0.018
Mof_H 	H 	0.2678	0.434	0.034	0.012
Mof_C 	C 	0.37176	0.43213	0.711	0.445
Mof_C 	C 	0.13675	0.21731	0.7225	0.417
Mof_N 	N 	0.81435	0.06677	0.38797	-0.201
Mof_Mg	Mg	0.91499	0.9635	0.45874	1.478
Mof_O 	O 	0.92348	0.01445	0.27946	-0.621
Mof_O 	O 	0.86674	0.08933	0.09916	-0.482
Mof_O 	O 	0.64537	0.33393	0.13017	-0.481
Mof_O 	O 	0.58299	0.29029	0.27613	-0.514
Mof_O 	O 	0.0212	0.91321	0.44627	-1.071
Mof_H 	H 	0.0376	0.855	0.472	0.356
Mof_C 	C 	0.80968	0.10591	0.2724	-0.081
Mof_C 	C 	0.75345	0.1741	0.2141	0.029
Mof_H 	H 	0.7555	0.194	0.136	0.055
Mof_C 	C 	0.69825	0.2043	0.2775	-0.093
Mof_C 	C 	0.70164	0.1621	0.3952	-0.023
Mof_H 	H 	0.6638	0.18	0.441	0.045
Mof_C 	C 	0.76001	0.0945	0.4467	0.028
Mof_H 	H 	0.7678	0.066	0.534	0.013
Mof_C 	C 	0.87176	0.06787	0.211	0.436
Mof_C 	C 	0.63675	0.28269	0.2225	0.413
Mof_N 	N 	0.31435	0.56677	0.38797	-0.201
Mof_Mg	Mg	0.41499	0.4635	0.45874	1.473
Mof_O 	O 	0.42348	0.51445	0.27946	-0.677
Mof_O 	O 	0.36674	0.58933	0.09916	-0.516
Mof_O 	O 	0.14537	0.83393	0.13017	-0.51
Mof_O 	O 	0.08299	0.79029	0.27613	-0.561
Mof_O 	O 	0.5212	0.41321	0.44627	-0.992
Mof_H 	H 	0.5376	0.355	0.472	0.36
Mof_C 	C 	0.30968	0.60591	0.2724	-0.101
Mof_C 	C 	0.25345	0.6741	0.2141	0.037
Mof_H 	H 	0.2555	0.694	0.136	0.04
Mof_C 	C 	0.19825	0.7043	0.2775	-0.114
Mof_C 	C 	0.20164	0.6621	0.3952	-0.016
Mof_H 	H 	0.1638	0.68	0.441	0.029
Mof_C 	C 	0.26001	0.5945	0.4467	0.016
Mof_H 	H 	0.2678	0.566	0.534	0.012
Mof_C 	C 	0.37176	0.56787	0.211	0.445
Mof_C 	C 	0.13675	0.78269	0.2225	0.419
Mof_N 	N 	0.18565	0.06677	0.11203	-0.203
Mof_Mg	Mg	0.08501	0.9635	0.04126	1.467
Mof_O 	O 	0.07652	0.01445	0.22054	-0.723
Mof_O 	O 	0.13326	0.08933	0.40084	-0.536
Mof_O 	O 	0.35463	0.33393	0.36983	-0.487
Mof_O 	O 	0.41701	0.29029	0.22387	-0.514
Mof_O 	O 	0.9788	0.91321	0.05373	-0.912
Mof_H 	H 	0.9624	0.855	0.028	0.364
Mof_C 	C 	0.19032	0.10591	0.2276	-0.104
Mof_C 	C 	0.24655	0.1741	0.2859	0.033
Mof_H 	H 	0.2445	0.194	0.364	0.043
Mof_C 	C 	0.30175	0.2043	0.2225	-0.099
Mof_C 	C 	0.29836	0.1621	0.1048	-0.024
Mof_H 	H 	0.3362	0.18	0.059	0.047
Mof_C 	C 	0.23999	0.0945	0.0533	0.035
Mof_H 	H 	0.2322	0.066	0.966	0.008
Mof_C 	C 	0.12824	0.06787	0.289	0.45
Mof_C 	C 	0.36325	0.28269	0.2775	0.414
Mof_N 	N 	0.68565	0.56677	0.11203	-0.203
Mof_Mg	Mg	0.58501	0.4635	0.04126	1.473
Mof_O 	O 	0.57652	0.51445	0.22054	-0.676
Mof_O 	O 	0.63326	0.58933	0.40084	-0.511
Mof_O 	O 	0.85463	0.83393	0.36983	-0.463
Mof_O 	O 	0.91701	0.79029	0.22387	-0.465
Mof_O 	O 	0.4788	0.41321	0.05373	-0.992
Mof_H 	H 	0.4624	0.355	0.028	0.361
Mof_C 	C 	0.69032	0.60591	0.2276	-0.09
Mof_C 	C 	0.74655	0.6741	0.2859	0.028
Mof_H 	H 	0.7445	0.694	0.364	0.053
Mof_C 	C 	0.80175	0.7043	0.2225	-0.083
Mof_C 	C 	0.79836	0.6621	0.1048	-0.025
Mof_H 	H 	0.8362	0.68	0.059	0.059
Mof_C 	C 	0.73999	0.5945	0.0533	0.036
Mof_H 	H 	0.7322	0.566	0.966	0.016
Mof_C 	C 	0.62824	0.56787	0.289	0.443
Mof_C 	C 	0.86325	0.78269	0.2775	0.409
Mof_Mg	Mg	-2.30605e-17	0.09826	0.75	1.464
Mof_Mg	Mg	0.5	0.59826	0.75	1.477
Mof_Mg	Mg	-5.76514e-18	0.90174	0.25	1.463
Mof_Mg	Mg	0.5	0.40174	0.25	1.477
_end
