data_functionalizedCrystal
_audit_creation_method	'EQeq! by Chris Wilmer'
_symmetry_space_group_name_H-M	'P1'
_symmetry_Int_Tables_number	1
_symmetry_cell_setting	triclinic
loop_
_symmetry_equiv_pos_as_xyz
  x,y,z
_cell_length_a	7.268
_cell_length_b	7.268
_cell_length_c	8.2104
_cell_angle_alpha	90
_cell_angle_beta	90
_cell_angle_gamma	120
loop_
_atom_site_label
_atom_site_type_symbol
_atom_site_fract_x
_atom_site_fract_y
_atom_site_fract_z
_atom_site_charge
Mof_O 	O 	0.89065	0.31022	0.89405	-0.289
Mof_O 	O 	0.68978	0.58043	0.89405	-0.316
Mof_O 	O 	0.41957	0.10935	0.89405	-0.324
Mof_O 	O 	0.10935	0.68978	0.39405	-0.424
Mof_O 	O 	0.31022	0.41957	0.39405	-0.464
Mof_O 	O 	0.58043	0.89065	0.39405	-0.36
Mof_O 	O 	0.31022	0.89065	0.10595	-0.343
Mof_O 	O 	0.58043	0.68978	0.10595	-0.399
Mof_O 	O 	0.10935	0.41957	0.10595	-0.417
Mof_O 	O 	0.68978	0.10935	0.60595	-0.415
Mof_O 	O 	0.41957	0.31022	0.60595	-0.456
Mof_O 	O 	0.89065	0.58043	0.60595	-0.373
Mof_Mg	Mg	0.66667	0.33333	0.75	1.479
Mof_Mg	Mg	0.33333	0.66667	0.25	1.478
Mof_C 	C 	-0	0.4399	-0	0.281
Mof_H 	H 	-3.78351e-17	0.5679	-0	-0.087
Mof_C 	C 	0.5601	0.5601	-0	0.363
Mof_H 	H 	0.4321	0.4321	-0	-0.109
Mof_C 	C 	0.4399	0	-0	0.239
Mof_H 	H 	0.5679	0	-0	-0.082
Mof_C 	C 	4.43335e-17	0.5601	0.5	0.438
Mof_H 	H 	6.4983e-18	0.4321	0.5	-0.118
Mof_C 	C 	0.4399	0.4399	0.5	0.528
Mof_H 	H 	0.5679	0.5679	0.5	-0.12
Mof_C 	C 	0.5601	8.40109e-33	0.5	0.402
Mof_H 	H 	0.4321	8.40109e-33	0.5	-0.112
_end
