data_functionalizedCrystal
_audit_creation_method	'EQeq! by Chris Wilmer'
_symmetry_space_group_name_H-M	'P1'
_symmetry_Int_Tables_number	1
_symmetry_cell_setting	triclinic
loop_
_symmetry_equiv_pos_as_xyz
  x,y,z
_cell_length_a	30.573
_cell_length_b	30.573
_cell_length_c	13.521
_cell_angle_alpha	90
_cell_angle_beta	90
_cell_angle_gamma	120
loop_
_atom_site_label
_atom_site_type_symbol
_atom_site_fract_x
_atom_site_fract_y
_atom_site_fract_z
_atom_site_charge
Mof_La	La	0.60716	0.0739	0.41988	2.297
Mof_La	La	0.52876	0.04816	0.68654	2.153
Mof_La	La	0.58981	0.04951	0.95333	2.386
Mof_P 	P 	0.6511	0.09907	0.69277	0.49
Mof_O 	O 	0.6206	0.0944	0.5993	-0.592
Mof_O 	O 	0.61263	0.08336	0.7776	-0.612
Mof_O 	O 	0.6784	0.0699	0.6897	-0.245
Mof_N 	N 	0.793	0.3213	0.668	-0.167
Mof_N 	N 	0.8586	0.3976	0.6594	-0.21
Mof_N 	N 	0.8181	0.3981	0.6128	-0.119
Mof_C 	C 	0.6964	0.1653	0.7044	-0.137
Mof_C 	C 	0.7478	0.1842	0.6855	0.068
Mof_H 	H 	0.7602	0.1615	0.6778	0.023
Mof_C 	C 	0.781	0.2359	0.6779	-0.167
Mof_H 	H 	0.816	0.2487	0.6665	0.095
Mof_C 	C 	0.7618	0.2681	0.6871	0.153
Mof_C 	C 	0.711	0.2506	0.7113	-0.174
Mof_H 	H 	0.6989	0.2735	0.721	0.09
Mof_C 	C 	0.6791	0.1988	0.7204	0.083
Mof_H 	H 	0.6448	0.1861	0.7379	-0.009
Mof_C 	C 	0.8428	0.3514	0.6902	0.119
Mof_H 	H 	0.8632	0.3405	0.7231	-0.01
Mof_C 	C 	0.7806	0.3527	0.6203	0.107
Mof_H 	H 	0.7478	0.3423	0.5952	-0.001
Mof_P 	P 	0.47407	0.0468	0.48163	0.502
Mof_O 	O 	0.44989	0.02048	0.5802	-0.622
Mof_O 	O 	0.45131	0.01098	0.3959	-0.521
Mof_O 	O 	0.53092	0.06881	0.4955	-0.628
Mof_N 	N 	0.4267	0.21517	0.4365	-0.168
Mof_N 	N 	0.4343	0.2901	0.4305	-0.182
Mof_N 	N 	0.3842	0.2548	0.4159	-0.084
Mof_C 	C 	0.4603	0.0975	0.4672	-0.134
Mof_C 	C 	0.4969	0.1453	0.4344	0.081
Mof_H 	H 	0.5297	0.1512	0.4191	0.013
Mof_C 	C 	0.4865	0.1845	0.4235	-0.176
Mof_H 	H 	0.5117	0.2168	0.4013	0.102
Mof_C 	C 	0.4384	0.1751	0.4459	0.161
Mof_C 	C 	0.4018	0.1279	0.4797	-0.181
Mof_H 	H 	0.3691	0.1221	0.4961	0.102
Mof_C 	C 	0.4126	0.0898	0.4892	0.084
Mof_H 	H 	0.3871	0.0576	0.5114	0.022
Mof_C 	C 	0.4583	0.2655	0.4438	0.143
Mof_H 	H 	0.4934	0.281	0.457	-0.012
Mof_C 	C 	0.3806	0.211	0.4189	0.113
Mof_H 	H 	0.3501	0.1799	0.4101	0.011
Mof_P 	P 	0.48392	0.07184	0.89937	0.518
Mof_O 	O 	0.4661	0.05625	0.7925	-0.458
Mof_O 	O 	0.5396	0.0881	0.8999	-0.548
Mof_O 	O 	0.4524	0.03267	0.9728	-0.534
Mof_N 	N 	0.4676	0.2585	0.9502	-0.158
Mof_N 	N 	0.4409	0.3114	0.9469	-0.191
Mof_C 	C 	0.4858	0.1318	0.926	-0.089
Mof_C 	C 	0.5353	0.1784	0.9244	0.137
Mof_H 	H 	0.5655	0.177	0.9174	-0.196
Mof_C 	C 	0.5368	0.2236	0.9331	-0.114
Mof_H 	H 	0.568	0.2545	0.9313	0.029
Mof_C 	C 	0.4894	0.2228	0.9453	0.172
Mof_C 	C 	0.4429	0.179	0.9458	-0.149
Mof_H 	H 	0.4118	0.1785	0.9527	0.147
Mof_C 	C 	0.4464	0.1377	0.9359	0.135
Mof_H 	H 	0.4149	0.1071	0.9358	-0.181
Mof_C 	C 	0.4246	0.2607	0.9307	0.087
Mof_H 	H 	0.3922	0.2344	0.9112	0.024
Mof_C 	C 	0.5014	0.3036	0.9731	0.23
Mof_H 	H 	0.5348	0.3121	0.9909	-0.075
Mof_N 	N 	0.486	0.3384	0.9701	-0.194
Mof_P 	P 	0.52645	0.05426	0.18587	0.61
Mof_O 	O 	0.5432	0.04663	0.2878	-0.6
Mof_O 	O 	0.47887	0.00505	0.1623	-0.682
Mof_O 	O 	0.5637	0.0759	0.1108	-0.188
Mof_N 	N 	0.4354	0.1936	0.1824	-0.111
Mof_N 	N 	0.3819	0.2199	0.1636	-0.071
Mof_N 	N 	0.4284	0.2597	0.1848	-0.063
Mof_C 	C 	0.4997	0.0999	0.1933	0.088
Mof_C 	C 	0.4491	0.0806	0.213	-0.378
Mof_H 	H 	0.4285	0.0456	0.227	0.066
Mof_C 	C 	0.4278	0.1115	0.2127	-0.358
Mof_H 	H 	0.3934	0.0983	0.2301	0.162
Mof_C 	C 	0.4571	0.1613	0.1869	-0.244
Mof_C 	C 	0.5126	0.1832	0.1754	0.148
Mof_H 	H 	0.535	0.2185	0.1705	0.061
Mof_C 	C 	0.5295	0.1494	0.1723	0.039
Mof_H 	H 	0.5637	0.1613	0.1547	0.025
Mof_C 	C 	0.3851	0.1774	0.1653	0.067
Mof_H 	H 	0.3585	0.1436	0.1566	0.028
Mof_C 	C 	0.4612	0.2408	0.1932	0.229
Mof_O 	O 	0.6555	0.0586	0.0895	-0.174
Mof_O 	O 	0.6494	0.0232	0.8793	-0.341
Mof_O 	O 	0.6407	0.1274	0.2554	-0.154
Mof_O 	O 	0.6604	0.0371	0.4908	-0.217
Mof_O 	O 	0.6214	0.1647	0.4415	0.168
Mof_N 	N 	0.5	0.2741	0.9578	-0.187
Mof_N 	N 	0.5288	0.3581	0.9833	-0.12
Mof_C 	C 	0.4784	0.1269	0.921	0.007
Mof_C 	C 	0.5179	0.1732	0.9235	-0.223
Mof_H 	H 	0.5505	0.1768	0.918	0.229
Mof_C 	C 	0.5149	0.2191	0.9345	-0.034
Mof_H 	H 	0.5429	0.2524	0.9385	0.074
Mof_C 	C 	0.4639	0.206	0.9381	0.027
Mof_C 	C 	0.4215	0.1621	0.9356	-0.088
Mof_H 	H 	0.3888	0.1587	0.9375	-0.004
Mof_C 	C 	0.4304	0.1183	0.9293	0.102
Mof_H 	H 	0.4028	0.0847	0.9313	0.129
Mof_C 	C 	0.4635	0.2898	0.951	0.204
Mof_H 	H 	0.4287	0.2687	0.9354	-0.054
Mof_C 	C 	0.5408	0.3176	0.9812	0.083
Mof_H 	H 	0.5732	0.3217	0.9945	0.017
Mof_N 	N 	0.5004	0.2317	0.1965	-0.141
Mof_N 	N 	0.4767	0.2876	0.2189	-0.072
Mof_N 	N 	0.5276	0.31	0.2399	-0.074
Mof_C 	C 	0.5268	0.1054	0.185	-0.345
Mof_C 	C 	0.4838	0.1002	0.198	0.154
Mof_H 	H 	0.456	0.0672	0.2083	0.194
Mof_C 	C 	0.4746	0.146	0.199	0.031
Mof_H 	H 	0.4423	0.1386	0.2222	0.37
Mof_C 	C 	0.4993	0.1849	0.177	-0.045
Mof_C 	C 	0.5615	0.198	0.1768	-0.244
Mof_H 	H 	0.589	0.2316	0.1812	0.116
Mof_C 	C 	0.5696	0.155	0.1698	0.097
Mof_H 	H 	0.602	0.1595	0.1557	0.034
Mof_C 	C 	0.5411	0.276	0.2259	0.072
Mof_H 	H 	0.5742	0.2814	0.2349	0.008
Mof_O 	O 	0.5767	0.0632	0.1151	-0.331
Mof_O 	O 	0.6537	0.0932	0.2563	-0.226
Mof_O 	O 	0.6698	0.0349	0.4252	-0.136
Mof_O 	O 	0.6216	0.1611	0.3994	-0.497
Mof_O 	O 	0.635	0.0034	0.8447	0.028
Mof_O 	O 	0.656	0.032	0.0643	-0.114
Mof_La	La	0.9261	0.53326	0.41988	2.298
Mof_La	La	0.95184	0.48061	0.68654	2.154
Mof_La	La	0.95049	0.5403	0.95333	2.389
Mof_P 	P 	0.90093	0.55203	0.69277	0.491
Mof_O 	O 	0.9056	0.5262	0.5993	-0.591
Mof_O 	O 	0.91664	0.52927	0.7776	-0.611
Mof_O 	O 	0.9301	0.6085	0.6897	-0.244
Mof_N 	N 	0.6787	0.4717	0.668	-0.166
Mof_N 	N 	0.6024	0.461	0.6594	-0.209
Mof_N 	N 	0.6019	0.42	0.6128	-0.119
Mof_C 	C 	0.8347	0.5311	0.7044	-0.137
Mof_C 	C 	0.8158	0.5636	0.6855	0.068
Mof_H 	H 	0.8385	0.5987	0.6778	0.023
Mof_C 	C 	0.7641	0.5451	0.6779	-0.167
Mof_H 	H 	0.7513	0.5673	0.6665	0.095
Mof_C 	C 	0.7319	0.4937	0.6871	0.153
Mof_C 	C 	0.7494	0.4604	0.7113	-0.174
Mof_H 	H 	0.7265	0.4254	0.721	0.09
Mof_C 	C 	0.8012	0.4803	0.7204	0.083
Mof_H 	H 	0.8139	0.4587	0.7379	-0.009
Mof_C 	C 	0.6486	0.4914	0.6902	0.119
Mof_H 	H 	0.6595	0.5227	0.7231	-0.01
Mof_C 	C 	0.6473	0.4279	0.6203	0.107
Mof_H 	H 	0.6577	0.4055	0.5952	-0.001
Mof_P 	P 	0.9532	0.42727	0.48163	0.502
Mof_O 	O 	0.97952	0.42941	0.5802	-0.622
Mof_O 	O 	0.98902	0.44033	0.3959	-0.521
Mof_O 	O 	0.93119	0.46211	0.4955	-0.628
Mof_N 	N 	0.78483	0.21153	0.4365	-0.168
Mof_N 	N 	0.7099	0.1442	0.4305	-0.182
Mof_N 	N 	0.7452	0.1294	0.4159	-0.084
Mof_C 	C 	0.9025	0.3628	0.4672	-0.134
Mof_C 	C 	0.8547	0.3516	0.4344	0.081
Mof_H 	H 	0.8488	0.3785	0.4191	0.013
Mof_C 	C 	0.8155	0.302	0.4235	-0.176
Mof_H 	H 	0.7832	0.2949	0.4013	0.102
Mof_C 	C 	0.8249	0.2633	0.4459	0.161
Mof_C 	C 	0.8721	0.2739	0.4797	-0.181
Mof_H 	H 	0.8779	0.247	0.4961	0.102
Mof_C 	C 	0.9102	0.3228	0.4892	0.084
Mof_H 	H 	0.9424	0.3295	0.5114	0.022
Mof_C 	C 	0.7345	0.1928	0.4438	0.143
Mof_H 	H 	0.719	0.2124	0.457	-0.012
Mof_C 	C 	0.789	0.1696	0.4189	0.113
Mof_H 	H 	0.8201	0.1702	0.4101	0.011
Mof_P 	P 	0.92816	0.41208	0.89937	0.518
Mof_O 	O 	0.94375	0.40985	0.7925	-0.458
Mof_O 	O 	0.9119	0.4515	0.8999	-0.549
Mof_O 	O 	0.96733	0.41973	0.9728	-0.534
Mof_N 	N 	0.7415	0.2091	0.9502	-0.158
Mof_N 	N 	0.6886	0.1295	0.9469	-0.191
Mof_C 	C 	0.8682	0.354	0.926	-0.089
Mof_C 	C 	0.8216	0.3569	0.9244	0.137
Mof_H 	H 	0.823	0.3885	0.9174	-0.195
Mof_C 	C 	0.7764	0.3132	0.9331	-0.113
Mof_H 	H 	0.7455	0.3135	0.9313	0.029
Mof_C 	C 	0.7772	0.2666	0.9453	0.171
Mof_C 	C 	0.821	0.2639	0.9458	-0.149
Mof_H 	H 	0.8215	0.2333	0.9527	0.147
Mof_C 	C 	0.8623	0.3087	0.9359	0.135
Mof_H 	H 	0.8929	0.3078	0.9358	-0.181
Mof_C 	C 	0.7393	0.1639	0.9307	0.088
Mof_H 	H 	0.7656	0.1578	0.9112	0.023
Mof_C 	C 	0.6964	0.1978	0.9731	0.231
Mof_H 	H 	0.6879	0.2227	0.9909	-0.075
Mof_N 	N 	0.6616	0.1476	0.9701	-0.194
Mof_P 	P 	0.94574	0.47219	0.18587	0.61
Mof_O 	O 	0.95337	0.49657	0.2878	-0.6
Mof_O 	O 	0.99495	0.47382	0.1623	-0.682
Mof_O 	O 	0.9241	0.4878	0.1108	-0.187
Mof_N 	N 	0.8064	0.2418	0.1824	-0.112
Mof_N 	N 	0.7801	0.162	0.1636	-0.071
Mof_N 	N 	0.7403	0.1687	0.1848	-0.062
Mof_C 	C 	0.9001	0.3998	0.1933	0.088
Mof_C 	C 	0.9194	0.3685	0.213	-0.377
Mof_H 	H 	0.9544	0.3829	0.227	0.066
Mof_C 	C 	0.8885	0.3163	0.2127	-0.357
Mof_H 	H 	0.9017	0.2951	0.2301	0.161
Mof_C 	C 	0.8387	0.2958	0.1869	-0.241
Mof_C 	C 	0.8168	0.3294	0.1754	0.148
Mof_H 	H 	0.7815	0.3165	0.1705	0.061
Mof_C 	C 	0.8506	0.3801	0.1723	0.04
Mof_H 	H 	0.8387	0.4024	0.1547	0.025
Mof_C 	C 	0.8226	0.2077	0.1653	0.067
Mof_H 	H 	0.8564	0.2149	0.1566	0.028
Mof_C 	C 	0.7592	0.2204	0.1932	0.229
Mof_O 	O 	0.9414	0.5969	0.0895	-0.175
Mof_O 	O 	0.9768	0.6262	0.8793	-0.341
Mof_O 	O 	0.8726	0.5133	0.2554	-0.154
Mof_O 	O 	0.9629	0.6233	0.4908	-0.217
Mof_O 	O 	0.8353	0.4567	0.4415	0.168
Mof_N 	N 	0.7259	0.2259	0.9578	-0.187
Mof_N 	N 	0.6419	0.1707	0.9833	-0.12
Mof_C 	C 	0.8731	0.3515	0.921	0.007
Mof_C 	C 	0.8268	0.3447	0.9235	-0.223
Mof_H 	H 	0.8232	0.3737	0.918	0.229
Mof_C 	C 	0.7809	0.2958	0.9345	-0.035
Mof_H 	H 	0.7476	0.2905	0.9385	0.074
Mof_C 	C 	0.794	0.2579	0.9381	0.028
Mof_C 	C 	0.8379	0.2594	0.9356	-0.088
Mof_H 	H 	0.8413	0.2301	0.9375	-0.005
Mof_C 	C 	0.8817	0.3121	0.9293	0.102
Mof_H 	H 	0.9153	0.3181	0.9313	0.129
Mof_C 	C 	0.7102	0.1737	0.951	0.204
Mof_H 	H 	0.7313	0.16	0.9354	-0.054
Mof_C 	C 	0.6824	0.2232	0.9812	0.083
Mof_H 	H 	0.6783	0.2515	0.9945	0.017
Mof_N 	N 	0.7683	0.2687	0.1965	-0.141
Mof_N 	N 	0.7124	0.1891	0.2189	-0.072
Mof_N 	N 	0.69	0.2176	0.2399	-0.074
Mof_C 	C 	0.8946	0.4214	0.185	-0.345
Mof_C 	C 	0.8998	0.3836	0.198	0.154
Mof_H 	H 	0.9328	0.3888	0.2083	0.193
Mof_C 	C 	0.854	0.3286	0.199	0.029
Mof_H 	H 	0.8614	0.3037	0.2222	0.369
Mof_C 	C 	0.8151	0.3144	0.177	-0.044
Mof_C 	C 	0.802	0.3635	0.1768	-0.244
Mof_H 	H 	0.7684	0.3574	0.1812	0.116
Mof_C 	C 	0.845	0.4146	0.1698	0.097
Mof_H 	H 	0.8405	0.4425	0.1557	0.034
Mof_C 	C 	0.724	0.2651	0.2259	0.072
Mof_H 	H 	0.7186	0.2928	0.2349	0.007
Mof_O 	O 	0.9368	0.5135	0.1151	-0.331
Mof_O 	O 	0.9068	0.5605	0.2563	-0.226
Mof_O 	O 	0.9651	0.6349	0.4252	-0.136
Mof_O 	O 	0.8389	0.4605	0.3994	-0.497
Mof_O 	O 	0.9966	0.6316	0.8447	0.028
Mof_O 	O 	0.968	0.624	0.0643	-0.115
Mof_La	La	0.46674	0.39284	0.41988	2.298
Mof_La	La	0.51939	0.47124	0.68654	2.156
Mof_La	La	0.45971	0.41019	0.95333	2.393
Mof_P 	P 	0.44797	0.3489	0.69277	0.491
Mof_O 	O 	0.4738	0.3794	0.5993	-0.591
Mof_O 	O 	0.47073	0.38737	0.7776	-0.611
Mof_O 	O 	0.3915	0.3216	0.6897	-0.243
Mof_N 	N 	0.5283	0.207	0.668	-0.166
Mof_N 	N 	0.539	0.1414	0.6594	-0.209
Mof_N 	N 	0.58	0.1819	0.6128	-0.119
Mof_C 	C 	0.4689	0.3036	0.7044	-0.137
Mof_C 	C 	0.4364	0.2522	0.6855	0.068
Mof_H 	H 	0.4013	0.2398	0.6778	0.023
Mof_C 	C 	0.4549	0.219	0.6779	-0.167
Mof_H 	H 	0.4327	0.184	0.6665	0.095
Mof_C 	C 	0.5063	0.2382	0.6871	0.153
Mof_C 	C 	0.5396	0.289	0.7113	-0.174
Mof_H 	H 	0.5746	0.3011	0.721	0.09
Mof_C 	C 	0.5197	0.3209	0.7204	0.083
Mof_H 	H 	0.5413	0.3552	0.7379	-0.009
Mof_C 	C 	0.5086	0.1572	0.6902	0.119
Mof_H 	H 	0.4773	0.1368	0.7231	-0.01
Mof_C 	C 	0.5721	0.2194	0.6203	0.107
Mof_H 	H 	0.5945	0.2522	0.5952	-0.001
Mof_P 	P 	0.57273	0.52593	0.48163	0.502
Mof_O 	O 	0.57059	0.55011	0.5802	-0.622
Mof_O 	O 	0.55967	0.54869	0.3959	-0.521
Mof_O 	O 	0.53789	0.46908	0.4955	-0.628
Mof_N 	N 	0.78847	0.5733	0.4365	-0.168
Mof_N 	N 	0.8558	0.5657	0.4305	-0.182
Mof_N 	N 	0.8706	0.6158	0.4159	-0.084
Mof_C 	C 	0.6372	0.5397	0.4672	-0.134
Mof_C 	C 	0.6484	0.5031	0.4344	0.081
Mof_H 	H 	0.6215	0.4703	0.4191	0.013
Mof_C 	C 	0.698	0.5135	0.4235	-0.176
Mof_H 	H 	0.7051	0.4883	0.4013	0.102
Mof_C 	C 	0.7367	0.5616	0.4459	0.161
Mof_C 	C 	0.7261	0.5982	0.4797	-0.181
Mof_H 	H 	0.753	0.6309	0.4961	0.102
Mof_C 	C 	0.6772	0.5874	0.4892	0.084
Mof_H 	H 	0.6705	0.6129	0.5114	0.022
Mof_C 	C 	0.8072	0.5417	0.4438	0.143
Mof_H 	H 	0.7876	0.5066	0.457	-0.012
Mof_C 	C 	0.8304	0.6194	0.4189	0.113
Mof_H 	H 	0.8298	0.6499	0.4101	0.011
Mof_P 	P 	0.58792	0.51608	0.89937	0.519
Mof_O 	O 	0.59015	0.5339	0.7925	-0.458
Mof_O 	O 	0.5485	0.4604	0.8999	-0.549
Mof_O 	O 	0.58027	0.5476	0.9728	-0.533
Mof_N 	N 	0.7909	0.5324	0.9502	-0.158
Mof_N 	N 	0.8705	0.5591	0.9469	-0.191
Mof_C 	C 	0.646	0.5142	0.926	-0.089
Mof_C 	C 	0.6431	0.4647	0.9244	0.137
Mof_H 	H 	0.6115	0.4345	0.9174	-0.196
Mof_C 	C 	0.6868	0.4632	0.9331	-0.114
Mof_H 	H 	0.6865	0.432	0.9313	0.029
Mof_C 	C 	0.7334	0.5106	0.9453	0.172
Mof_C 	C 	0.7361	0.5571	0.9458	-0.149
Mof_H 	H 	0.7667	0.5882	0.9527	0.147
Mof_C 	C 	0.6913	0.5536	0.9359	0.136
Mof_H 	H 	0.6922	0.5851	0.9358	-0.182
Mof_C 	C 	0.8361	0.5754	0.9307	0.087
Mof_H 	H 	0.8422	0.6078	0.9112	0.024
Mof_C 	C 	0.8022	0.4986	0.9731	0.23
Mof_H 	H 	0.7773	0.4652	0.9909	-0.075
Mof_N 	N 	0.8524	0.514	0.9701	-0.194
Mof_P 	P 	0.52781	0.47355	0.18587	0.61
Mof_O 	O 	0.50343	0.4568	0.2878	-0.601
Mof_O 	O 	0.52618	0.52113	0.1623	-0.684
Mof_O 	O 	0.5122	0.4363	0.1108	-0.187
Mof_N 	N 	0.7582	0.5646	0.1824	-0.111
Mof_N 	N 	0.838	0.6181	0.1636	-0.071
Mof_N 	N 	0.8313	0.5716	0.1848	-0.062
Mof_C 	C 	0.6002	0.5003	0.1933	0.088
Mof_C 	C 	0.6315	0.5509	0.213	-0.38
Mof_H 	H 	0.6171	0.5715	0.227	0.065
Mof_C 	C 	0.6837	0.5722	0.2127	-0.359
Mof_H 	H 	0.7049	0.6066	0.2301	0.162
Mof_C 	C 	0.7042	0.5429	0.1869	-0.245
Mof_C 	C 	0.6706	0.4874	0.1754	0.149
Mof_H 	H 	0.6835	0.465	0.1705	0.061
Mof_C 	C 	0.6199	0.4705	0.1723	0.039
Mof_H 	H 	0.5976	0.4363	0.1547	0.025
Mof_C 	C 	0.7923	0.6149	0.1653	0.067
Mof_H 	H 	0.7851	0.6415	0.1566	0.028
Mof_C 	C 	0.7796	0.5388	0.1932	0.229
Mof_O 	O 	0.4031	0.3445	0.0895	-0.175
Mof_O 	O 	0.3738	0.3506	0.8793	-0.341
Mof_O 	O 	0.4867	0.3593	0.2554	-0.154
Mof_O 	O 	0.3767	0.3396	0.4908	-0.217
Mof_O 	O 	0.5433	0.3786	0.4415	0.168
Mof_N 	N 	0.7741	0.5	0.9578	-0.187
Mof_N 	N 	0.8293	0.4712	0.9833	-0.12
Mof_C 	C 	0.6485	0.5216	0.921	0.007
Mof_C 	C 	0.6553	0.4821	0.9235	-0.223
Mof_H 	H 	0.6263	0.4495	0.918	0.23
Mof_C 	C 	0.7042	0.4851	0.9345	-0.034
Mof_H 	H 	0.7095	0.4571	0.9385	0.074
Mof_C 	C 	0.7421	0.5361	0.9381	0.027
Mof_C 	C 	0.7406	0.5785	0.9356	-0.088
Mof_H 	H 	0.7699	0.6112	0.9375	-0.004
Mof_C 	C 	0.6879	0.5696	0.9293	0.102
Mof_H 	H 	0.6819	0.5972	0.9313	0.13
Mof_C 	C 	0.8263	0.5365	0.951	0.204
Mof_H 	H 	0.84	0.5713	0.9354	-0.054
Mof_C 	C 	0.7768	0.4592	0.9812	0.083
Mof_H 	H 	0.7485	0.4268	0.9945	0.017
Mof_N 	N 	0.7313	0.4996	0.1965	-0.14
Mof_N 	N 	0.8109	0.5233	0.2189	-0.072
Mof_N 	N 	0.7824	0.4724	0.2399	-0.074
Mof_C 	C 	0.5786	0.4732	0.185	-0.345
Mof_C 	C 	0.6164	0.5162	0.198	0.154
Mof_H 	H 	0.6112	0.544	0.2083	0.195
Mof_C 	C 	0.6714	0.5254	0.199	0.033
Mof_H 	H 	0.6963	0.5577	0.2222	0.371
Mof_C 	C 	0.6856	0.5007	0.177	-0.045
Mof_C 	C 	0.6365	0.4385	0.1768	-0.244
Mof_H 	H 	0.6426	0.411	0.1812	0.116
Mof_C 	C 	0.5854	0.4304	0.1698	0.097
Mof_H 	H 	0.5575	0.398	0.1557	0.033
Mof_C 	C 	0.7349	0.4589	0.2259	0.072
Mof_H 	H 	0.7072	0.4258	0.2349	0.008
Mof_O 	O 	0.4865	0.4233	0.1151	-0.333
Mof_O 	O 	0.4395	0.3463	0.2563	-0.227
Mof_O 	O 	0.3651	0.3302	0.4252	-0.137
Mof_O 	O 	0.5395	0.3784	0.3994	-0.496
Mof_O 	O 	0.3684	0.365	0.8447	0.029
Mof_O 	O 	0.376	0.344	0.0643	-0.116
Mof_La	La	0.39284	0.9261	0.58012	2.298
Mof_La	La	0.47124	0.95184	0.31346	2.154
Mof_La	La	0.41019	0.95049	0.04667	2.387
Mof_P 	P 	0.3489	0.90093	0.30723	0.491
Mof_O 	O 	0.3794	0.9056	0.4007	-0.591
Mof_O 	O 	0.38737	0.91664	0.2224	-0.611
Mof_O 	O 	0.3216	0.9301	0.3103	-0.244
Mof_N 	N 	0.207	0.6787	0.332	-0.166
Mof_N 	N 	0.1414	0.6024	0.3406	-0.209
Mof_N 	N 	0.1819	0.6019	0.3872	-0.119
Mof_C 	C 	0.3036	0.8347	0.2956	-0.137
Mof_C 	C 	0.2522	0.8158	0.3145	0.068
Mof_H 	H 	0.2398	0.8385	0.3222	0.023
Mof_C 	C 	0.219	0.7641	0.3221	-0.167
Mof_H 	H 	0.184	0.7513	0.3335	0.095
Mof_C 	C 	0.2382	0.7319	0.3129	0.153
Mof_C 	C 	0.289	0.7494	0.2887	-0.174
Mof_H 	H 	0.3011	0.7265	0.279	0.09
Mof_C 	C 	0.3209	0.8012	0.2796	0.083
Mof_H 	H 	0.3552	0.8139	0.2621	-0.009
Mof_C 	C 	0.1572	0.6486	0.3098	0.119
Mof_H 	H 	0.1368	0.6595	0.2769	-0.01
Mof_C 	C 	0.2194	0.6473	0.3797	0.107
Mof_H 	H 	0.2522	0.6577	0.4048	-0.001
Mof_P 	P 	0.52593	0.9532	0.51837	0.502
Mof_O 	O 	0.55011	0.97952	0.4198	-0.622
Mof_O 	O 	0.54869	0.98902	0.6041	-0.521
Mof_O 	O 	0.46908	0.93119	0.5045	-0.628
Mof_N 	N 	0.5733	0.78483	0.5635	-0.168
Mof_N 	N 	0.5657	0.7099	0.5695	-0.182
Mof_N 	N 	0.6158	0.7452	0.5841	-0.084
Mof_C 	C 	0.5397	0.9025	0.5328	-0.134
Mof_C 	C 	0.5031	0.8547	0.5656	0.081
Mof_H 	H 	0.4703	0.8488	0.5809	0.013
Mof_C 	C 	0.5135	0.8155	0.5765	-0.176
Mof_H 	H 	0.4883	0.7832	0.5987	0.102
Mof_C 	C 	0.5616	0.8249	0.5541	0.161
Mof_C 	C 	0.5982	0.8721	0.5203	-0.181
Mof_H 	H 	0.6309	0.8779	0.5039	0.102
Mof_C 	C 	0.5874	0.9102	0.5108	0.084
Mof_H 	H 	0.6129	0.9424	0.4886	0.022
Mof_C 	C 	0.5417	0.7345	0.5562	0.143
Mof_H 	H 	0.5066	0.719	0.543	-0.012
Mof_C 	C 	0.6194	0.789	0.5811	0.113
Mof_H 	H 	0.6499	0.8201	0.5899	0.011
Mof_P 	P 	0.51608	0.92816	0.10063	0.518
Mof_O 	O 	0.5339	0.94375	0.2075	-0.458
Mof_O 	O 	0.4604	0.9119	0.1001	-0.548
Mof_O 	O 	0.5476	0.96733	0.0272	-0.534
Mof_N 	N 	0.5324	0.7415	0.0498	-0.158
Mof_N 	N 	0.5591	0.6886	0.0531	-0.191
Mof_C 	C 	0.5142	0.8682	0.074	-0.089
Mof_C 	C 	0.4647	0.8216	0.0756	0.137
Mof_H 	H 	0.4345	0.823	0.0826	-0.196
Mof_C 	C 	0.4632	0.7764	0.0669	-0.114
Mof_H 	H 	0.432	0.7455	0.0687	0.029
Mof_C 	C 	0.5106	0.7772	0.0547	0.172
Mof_C 	C 	0.5571	0.821	0.0542	-0.149
Mof_H 	H 	0.5882	0.8215	0.0473	0.147
Mof_C 	C 	0.5536	0.8623	0.0641	0.135
Mof_H 	H 	0.5851	0.8929	0.0642	-0.181
Mof_C 	C 	0.5754	0.7393	0.0693	0.087
Mof_H 	H 	0.6078	0.7656	0.0888	0.024
Mof_C 	C 	0.4986	0.6964	0.0269	0.23
Mof_H 	H 	0.4652	0.6879	0.0091	-0.075
Mof_N 	N 	0.514	0.6616	0.0299	-0.194
Mof_P 	P 	0.47355	0.94574	0.81413	0.61
Mof_O 	O 	0.4568	0.95337	0.7122	-0.6
Mof_O 	O 	0.52113	0.99495	0.8377	-0.682
Mof_O 	O 	0.4363	0.9241	0.8892	-0.188
Mof_N 	N 	0.5646	0.8064	0.8176	-0.111
Mof_N 	N 	0.6181	0.7801	0.8364	-0.071
Mof_N 	N 	0.5716	0.7403	0.8152	-0.063
Mof_C 	C 	0.5003	0.9001	0.8067	0.088
Mof_C 	C 	0.5509	0.9194	0.787	-0.378
Mof_H 	H 	0.5715	0.9544	0.773	0.066
Mof_C 	C 	0.5722	0.8885	0.7873	-0.358
Mof_H 	H 	0.6066	0.9017	0.7699	0.162
Mof_C 	C 	0.5429	0.8387	0.8131	-0.244
Mof_C 	C 	0.4874	0.8168	0.8246	0.148
Mof_H 	H 	0.465	0.7815	0.8295	0.061
Mof_C 	C 	0.4705	0.8506	0.8277	0.039
Mof_H 	H 	0.4363	0.8387	0.8453	0.025
Mof_C 	C 	0.6149	0.8226	0.8347	0.067
Mof_H 	H 	0.6415	0.8564	0.8434	0.028
Mof_C 	C 	0.5388	0.7592	0.8068	0.229
Mof_O 	O 	0.3445	0.9414	0.9105	-0.174
Mof_O 	O 	0.3506	0.9768	0.1207	-0.341
Mof_O 	O 	0.3593	0.8726	0.7446	-0.154
Mof_O 	O 	0.3396	0.9629	0.5092	-0.217
Mof_O 	O 	0.3786	0.8353	0.5585	0.168
Mof_N 	N 	0.5	0.7259	0.0422	-0.187
Mof_N 	N 	0.4712	0.6419	0.0167	-0.12
Mof_C 	C 	0.5216	0.8731	0.079	0.007
Mof_C 	C 	0.4821	0.8268	0.0765	-0.223
Mof_H 	H 	0.4495	0.8232	0.082	0.229
Mof_C 	C 	0.4851	0.7809	0.0655	-0.034
Mof_H 	H 	0.4571	0.7476	0.0615	0.074
Mof_C 	C 	0.5361	0.794	0.0619	0.027
Mof_C 	C 	0.5785	0.8379	0.0644	-0.088
Mof_H 	H 	0.6112	0.8413	0.0625	-0.004
Mof_C 	C 	0.5696	0.8817	0.0707	0.102
Mof_H 	H 	0.5972	0.9153	0.0687	0.129
Mof_C 	C 	0.5365	0.7102	0.049	0.204
Mof_H 	H 	0.5713	0.7313	0.0646	-0.054
Mof_C 	C 	0.4592	0.6824	0.0188	0.083
Mof_H 	H 	0.4268	0.6783	0.0055	0.017
Mof_N 	N 	0.4996	0.7683	0.8035	-0.141
Mof_N 	N 	0.5233	0.7124	0.7811	-0.072
Mof_N 	N 	0.4724	0.69	0.7601	-0.074
Mof_C 	C 	0.4732	0.8946	0.815	-0.345
Mof_C 	C 	0.5162	0.8998	0.802	0.154
Mof_H 	H 	0.544	0.9328	0.7917	0.194
Mof_C 	C 	0.5254	0.854	0.801	0.031
Mof_H 	H 	0.5577	0.8614	0.7778	0.37
Mof_C 	C 	0.5007	0.8151	0.823	-0.045
Mof_C 	C 	0.4385	0.802	0.8232	-0.244
Mof_H 	H 	0.411	0.7684	0.8188	0.116
Mof_C 	C 	0.4304	0.845	0.8302	0.097
Mof_H 	H 	0.398	0.8405	0.8443	0.034
Mof_C 	C 	0.4589	0.724	0.7741	0.072
Mof_H 	H 	0.4258	0.7186	0.7651	0.008
Mof_O 	O 	0.4233	0.9368	0.8849	-0.331
Mof_O 	O 	0.3463	0.9068	0.7437	-0.226
Mof_O 	O 	0.3302	0.9651	0.5748	-0.136
Mof_O 	O 	0.3784	0.8389	0.6006	-0.497
Mof_O 	O 	0.365	0.9966	0.1553	0.028
Mof_O 	O 	0.344	0.968	0.9357	-0.114
Mof_La	La	0.0739	0.46674	0.58012	2.298
Mof_La	La	0.04816	0.5194	0.31346	2.154
Mof_La	La	0.04951	0.4597	0.04667	2.389
Mof_P 	P 	0.09907	0.44797	0.30723	0.491
Mof_O 	O 	0.0944	0.4738	0.4007	-0.591
Mof_O 	O 	0.08336	0.47073	0.2224	-0.611
Mof_O 	O 	0.0699	0.3915	0.3103	-0.244
Mof_N 	N 	0.3213	0.5283	0.332	-0.166
Mof_N 	N 	0.3976	0.539	0.3406	-0.209
Mof_N 	N 	0.3981	0.58	0.3872	-0.119
Mof_C 	C 	0.1653	0.4689	0.2956	-0.137
Mof_C 	C 	0.1842	0.4364	0.3145	0.068
Mof_H 	H 	0.1615	0.4013	0.3222	0.023
Mof_C 	C 	0.2359	0.4549	0.3221	-0.167
Mof_H 	H 	0.2487	0.4327	0.3335	0.095
Mof_C 	C 	0.2681	0.5063	0.3129	0.153
Mof_C 	C 	0.2506	0.5396	0.2887	-0.174
Mof_H 	H 	0.2735	0.5746	0.279	0.09
Mof_C 	C 	0.1988	0.5197	0.2796	0.083
Mof_H 	H 	0.1861	0.5413	0.2621	-0.009
Mof_C 	C 	0.3514	0.5086	0.3098	0.119
Mof_H 	H 	0.3405	0.4773	0.2769	-0.01
Mof_C 	C 	0.3527	0.5721	0.3797	0.107
Mof_H 	H 	0.3423	0.5945	0.4048	-0.001
Mof_P 	P 	0.0468	0.57273	0.51837	0.502
Mof_O 	O 	0.02048	0.57059	0.4198	-0.622
Mof_O 	O 	0.01098	0.55967	0.6041	-0.521
Mof_O 	O 	0.06881	0.53789	0.5045	-0.628
Mof_N 	N 	0.21517	0.78847	0.5635	-0.168
Mof_N 	N 	0.2901	0.8558	0.5695	-0.182
Mof_N 	N 	0.2548	0.8706	0.5841	-0.084
Mof_C 	C 	0.0975	0.6372	0.5328	-0.134
Mof_C 	C 	0.1453	0.6484	0.5656	0.081
Mof_H 	H 	0.1512	0.6215	0.5809	0.013
Mof_C 	C 	0.1845	0.698	0.5765	-0.176
Mof_H 	H 	0.2168	0.7051	0.5987	0.102
Mof_C 	C 	0.1751	0.7367	0.5541	0.161
Mof_C 	C 	0.1279	0.7261	0.5203	-0.181
Mof_H 	H 	0.1221	0.753	0.5039	0.102
Mof_C 	C 	0.0898	0.6772	0.5108	0.084
Mof_H 	H 	0.0576	0.6705	0.4886	0.022
Mof_C 	C 	0.2655	0.8072	0.5562	0.143
Mof_H 	H 	0.281	0.7876	0.543	-0.012
Mof_C 	C 	0.211	0.8304	0.5811	0.113
Mof_H 	H 	0.1799	0.8298	0.5899	0.011
Mof_P 	P 	0.07184	0.58792	0.10063	0.518
Mof_O 	O 	0.05625	0.59015	0.2075	-0.458
Mof_O 	O 	0.0881	0.5485	0.1001	-0.549
Mof_O 	O 	0.03267	0.58027	0.0272	-0.534
Mof_N 	N 	0.2585	0.7909	0.0498	-0.158
Mof_N 	N 	0.3114	0.8705	0.0531	-0.191
Mof_C 	C 	0.1318	0.646	0.074	-0.089
Mof_C 	C 	0.1784	0.6431	0.0756	0.137
Mof_H 	H 	0.177	0.6115	0.0826	-0.195
Mof_C 	C 	0.2236	0.6868	0.0669	-0.113
Mof_H 	H 	0.2545	0.6865	0.0687	0.029
Mof_C 	C 	0.2228	0.7334	0.0547	0.171
Mof_C 	C 	0.179	0.7361	0.0542	-0.149
Mof_H 	H 	0.1785	0.7667	0.0473	0.147
Mof_C 	C 	0.1377	0.6913	0.0641	0.135
Mof_H 	H 	0.1071	0.6922	0.0642	-0.181
Mof_C 	C 	0.2607	0.8361	0.0693	0.088
Mof_H 	H 	0.2344	0.8422	0.0888	0.023
Mof_C 	C 	0.3036	0.8022	0.0269	0.231
Mof_H 	H 	0.3121	0.7773	0.0091	-0.075
Mof_N 	N 	0.3384	0.8524	0.0299	-0.194
Mof_P 	P 	0.05426	0.52781	0.81413	0.61
Mof_O 	O 	0.04663	0.50343	0.7122	-0.6
Mof_O 	O 	0.00505	0.52618	0.8377	-0.682
Mof_O 	O 	0.0759	0.5122	0.8892	-0.187
Mof_N 	N 	0.1936	0.7582	0.8176	-0.112
Mof_N 	N 	0.2199	0.838	0.8364	-0.071
Mof_N 	N 	0.2597	0.8313	0.8152	-0.062
Mof_C 	C 	0.0999	0.6002	0.8067	0.088
Mof_C 	C 	0.0806	0.6315	0.787	-0.377
Mof_H 	H 	0.0456	0.6171	0.773	0.066
Mof_C 	C 	0.1115	0.6837	0.7873	-0.357
Mof_H 	H 	0.0983	0.7049	0.7699	0.161
Mof_C 	C 	0.1613	0.7042	0.8131	-0.241
Mof_C 	C 	0.1832	0.6706	0.8246	0.148
Mof_H 	H 	0.2185	0.6835	0.8295	0.061
Mof_C 	C 	0.1494	0.6199	0.8277	0.04
Mof_H 	H 	0.1613	0.5976	0.8453	0.025
Mof_C 	C 	0.1774	0.7923	0.8347	0.067
Mof_H 	H 	0.1436	0.7851	0.8434	0.028
Mof_C 	C 	0.2408	0.7796	0.8068	0.229
Mof_O 	O 	0.0586	0.4031	0.9105	-0.175
Mof_O 	O 	0.0232	0.3738	0.1207	-0.341
Mof_O 	O 	0.1274	0.4867	0.7446	-0.154
Mof_O 	O 	0.0371	0.3767	0.5092	-0.217
Mof_O 	O 	0.1647	0.5433	0.5585	0.168
Mof_N 	N 	0.2741	0.7741	0.0422	-0.187
Mof_N 	N 	0.3581	0.8293	0.0167	-0.12
Mof_C 	C 	0.1269	0.6485	0.079	0.007
Mof_C 	C 	0.1732	0.6553	0.0765	-0.223
Mof_H 	H 	0.1768	0.6263	0.082	0.229
Mof_C 	C 	0.2191	0.7042	0.0655	-0.035
Mof_H 	H 	0.2524	0.7095	0.0615	0.074
Mof_C 	C 	0.206	0.7421	0.0619	0.028
Mof_C 	C 	0.1621	0.7406	0.0644	-0.088
Mof_H 	H 	0.1587	0.7699	0.0625	-0.005
Mof_C 	C 	0.1183	0.6879	0.0707	0.102
Mof_H 	H 	0.0847	0.6819	0.0687	0.129
Mof_C 	C 	0.2898	0.8263	0.049	0.204
Mof_H 	H 	0.2687	0.84	0.0646	-0.054
Mof_C 	C 	0.3176	0.7768	0.0188	0.083
Mof_H 	H 	0.3217	0.7485	0.0055	0.017
Mof_N 	N 	0.2317	0.7313	0.8035	-0.141
Mof_N 	N 	0.2876	0.8109	0.7811	-0.072
Mof_N 	N 	0.31	0.7824	0.7601	-0.074
Mof_C 	C 	0.1054	0.5786	0.815	-0.345
Mof_C 	C 	0.1002	0.6164	0.802	0.154
Mof_H 	H 	0.0672	0.6112	0.7917	0.193
Mof_C 	C 	0.146	0.6714	0.801	0.029
Mof_H 	H 	0.1386	0.6963	0.7778	0.369
Mof_C 	C 	0.1849	0.6856	0.823	-0.044
Mof_C 	C 	0.198	0.6365	0.8232	-0.244
Mof_H 	H 	0.2316	0.6426	0.8188	0.116
Mof_C 	C 	0.155	0.5854	0.8302	0.097
Mof_H 	H 	0.1595	0.5575	0.8443	0.034
Mof_C 	C 	0.276	0.7349	0.7741	0.072
Mof_H 	H 	0.2814	0.7072	0.7651	0.007
Mof_O 	O 	0.0632	0.4865	0.8849	-0.331
Mof_O 	O 	0.0932	0.4395	0.7437	-0.226
Mof_O 	O 	0.0349	0.3651	0.5748	-0.136
Mof_O 	O 	0.1611	0.5395	0.6006	-0.497
Mof_O 	O 	0.0034	0.3684	0.1553	0.028
Mof_O 	O 	0.032	0.376	0.9357	-0.115
Mof_La	La	0.53326	0.60716	0.58012	2.298
Mof_La	La	0.48061	0.52876	0.31346	2.156
Mof_La	La	0.5403	0.58981	0.04667	2.393
Mof_P 	P 	0.55203	0.6511	0.30723	0.491
Mof_O 	O 	0.5262	0.6206	0.4007	-0.591
Mof_O 	O 	0.52927	0.61263	0.2224	-0.611
Mof_O 	O 	0.6085	0.6784	0.3103	-0.243
Mof_N 	N 	0.4717	0.793	0.332	-0.166
Mof_N 	N 	0.461	0.8586	0.3406	-0.209
Mof_N 	N 	0.42	0.8181	0.3872	-0.119
Mof_C 	C 	0.5311	0.6964	0.2956	-0.137
Mof_C 	C 	0.5636	0.7478	0.3145	0.068
Mof_H 	H 	0.5987	0.7602	0.3222	0.023
Mof_C 	C 	0.5451	0.781	0.3221	-0.167
Mof_H 	H 	0.5673	0.816	0.3335	0.095
Mof_C 	C 	0.4937	0.7618	0.3129	0.153
Mof_C 	C 	0.4604	0.711	0.2887	-0.174
Mof_H 	H 	0.4254	0.6989	0.279	0.09
Mof_C 	C 	0.4803	0.6791	0.2796	0.083
Mof_H 	H 	0.4587	0.6448	0.2621	-0.009
Mof_C 	C 	0.4914	0.8428	0.3098	0.119
Mof_H 	H 	0.5227	0.8632	0.2769	-0.01
Mof_C 	C 	0.4279	0.7806	0.3797	0.107
Mof_H 	H 	0.4055	0.7478	0.4048	-0.001
Mof_P 	P 	0.42727	0.47407	0.51837	0.502
Mof_O 	O 	0.42941	0.44989	0.4198	-0.622
Mof_O 	O 	0.44033	0.45131	0.6041	-0.521
Mof_O 	O 	0.46211	0.53092	0.5045	-0.628
Mof_N 	N 	0.21153	0.4267	0.5635	-0.168
Mof_N 	N 	0.1442	0.4343	0.5695	-0.182
Mof_N 	N 	0.1294	0.3842	0.5841	-0.084
Mof_C 	C 	0.3628	0.4603	0.5328	-0.134
Mof_C 	C 	0.3516	0.4969	0.5656	0.081
Mof_H 	H 	0.3785	0.5297	0.5809	0.013
Mof_C 	C 	0.302	0.4865	0.5765	-0.176
Mof_H 	H 	0.2949	0.5117	0.5987	0.102
Mof_C 	C 	0.2633	0.4384	0.5541	0.161
Mof_C 	C 	0.2739	0.4018	0.5203	-0.181
Mof_H 	H 	0.247	0.3691	0.5039	0.102
Mof_C 	C 	0.3228	0.4126	0.5108	0.084
Mof_H 	H 	0.3295	0.3871	0.4886	0.022
Mof_C 	C 	0.1928	0.4583	0.5562	0.143
Mof_H 	H 	0.2124	0.4934	0.543	-0.012
Mof_C 	C 	0.1696	0.3806	0.5811	0.113
Mof_H 	H 	0.1702	0.3501	0.5899	0.011
Mof_P 	P 	0.41208	0.48392	0.10063	0.518
Mof_O 	O 	0.40985	0.4661	0.2075	-0.458
Mof_O 	O 	0.4515	0.5396	0.1001	-0.549
Mof_O 	O 	0.41973	0.4524	0.0272	-0.533
Mof_N 	N 	0.2091	0.4676	0.0498	-0.158
Mof_N 	N 	0.1295	0.4409	0.0531	-0.191
Mof_C 	C 	0.354	0.4858	0.074	-0.089
Mof_C 	C 	0.3569	0.5353	0.0756	0.137
Mof_H 	H 	0.3885	0.5655	0.0826	-0.196
Mof_C 	C 	0.3132	0.5368	0.0669	-0.114
Mof_H 	H 	0.3135	0.568	0.0687	0.029
Mof_C 	C 	0.2666	0.4894	0.0547	0.172
Mof_C 	C 	0.2639	0.4429	0.0542	-0.149
Mof_H 	H 	0.2333	0.4118	0.0473	0.147
Mof_C 	C 	0.3087	0.4464	0.0641	0.136
Mof_H 	H 	0.3078	0.4149	0.0642	-0.181
Mof_C 	C 	0.1639	0.4246	0.0693	0.087
Mof_H 	H 	0.1578	0.3922	0.0888	0.024
Mof_C 	C 	0.1978	0.5014	0.0269	0.23
Mof_H 	H 	0.2227	0.5348	0.0091	-0.075
Mof_N 	N 	0.1476	0.486	0.0299	-0.194
Mof_P 	P 	0.47219	0.52645	0.81413	0.61
Mof_O 	O 	0.49657	0.5432	0.7122	-0.601
Mof_O 	O 	0.47382	0.47887	0.8377	-0.684
Mof_O 	O 	0.4878	0.5637	0.8892	-0.187
Mof_N 	N 	0.2418	0.4354	0.8176	-0.111
Mof_N 	N 	0.162	0.3819	0.8364	-0.071
Mof_N 	N 	0.1687	0.4284	0.8152	-0.062
Mof_C 	C 	0.3998	0.4997	0.8067	0.088
Mof_C 	C 	0.3685	0.4491	0.787	-0.38
Mof_H 	H 	0.3829	0.4285	0.773	0.065
Mof_C 	C 	0.3163	0.4278	0.7873	-0.359
Mof_H 	H 	0.2951	0.3934	0.7699	0.162
Mof_C 	C 	0.2958	0.4571	0.8131	-0.246
Mof_C 	C 	0.3294	0.5126	0.8246	0.149
Mof_H 	H 	0.3165	0.535	0.8295	0.061
Mof_C 	C 	0.3801	0.5295	0.8277	0.039
Mof_H 	H 	0.4024	0.5637	0.8453	0.025
Mof_C 	C 	0.2077	0.3851	0.8347	0.067
Mof_H 	H 	0.2149	0.3585	0.8434	0.028
Mof_C 	C 	0.2204	0.4612	0.8068	0.229
Mof_O 	O 	0.5969	0.6555	0.9105	-0.175
Mof_O 	O 	0.6262	0.6494	0.1207	-0.341
Mof_O 	O 	0.5133	0.6407	0.7446	-0.154
Mof_O 	O 	0.6233	0.6604	0.5092	-0.217
Mof_O 	O 	0.4567	0.6214	0.5585	0.168
Mof_N 	N 	0.2259	0.5	0.0422	-0.187
Mof_N 	N 	0.1707	0.5288	0.0167	-0.12
Mof_C 	C 	0.3515	0.4784	0.079	0.007
Mof_C 	C 	0.3447	0.5179	0.0765	-0.223
Mof_H 	H 	0.3737	0.5505	0.082	0.23
Mof_C 	C 	0.2958	0.5149	0.0655	-0.034
Mof_H 	H 	0.2905	0.5429	0.0615	0.074
Mof_C 	C 	0.2579	0.4639	0.0619	0.027
Mof_C 	C 	0.2594	0.4215	0.0644	-0.088
Mof_H 	H 	0.2301	0.3888	0.0625	-0.004
Mof_C 	C 	0.3121	0.4304	0.0707	0.102
Mof_H 	H 	0.3181	0.4028	0.0687	0.13
Mof_C 	C 	0.1737	0.4635	0.049	0.204
Mof_H 	H 	0.16	0.4287	0.0646	-0.054
Mof_C 	C 	0.2232	0.5408	0.0188	0.083
Mof_H 	H 	0.2515	0.5732	0.0055	0.017
Mof_N 	N 	0.2687	0.5004	0.8035	-0.14
Mof_N 	N 	0.1891	0.4767	0.7811	-0.072
Mof_N 	N 	0.2176	0.5276	0.7601	-0.074
Mof_C 	C 	0.4214	0.5268	0.815	-0.345
Mof_C 	C 	0.3836	0.4838	0.802	0.154
Mof_H 	H 	0.3888	0.456	0.7917	0.195
Mof_C 	C 	0.3286	0.4746	0.801	0.033
Mof_H 	H 	0.3037	0.4423	0.7778	0.371
Mof_C 	C 	0.3144	0.4993	0.823	-0.045
Mof_C 	C 	0.3635	0.5615	0.8232	-0.244
Mof_H 	H 	0.3574	0.589	0.8188	0.116
Mof_C 	C 	0.4146	0.5696	0.8302	0.097
Mof_H 	H 	0.4425	0.602	0.8443	0.033
Mof_C 	C 	0.2651	0.5411	0.7741	0.072
Mof_H 	H 	0.2928	0.5742	0.7651	0.008
Mof_O 	O 	0.5135	0.5767	0.8849	-0.333
Mof_O 	O 	0.5605	0.6537	0.7437	-0.227
Mof_O 	O 	0.6349	0.6698	0.5748	-0.137
Mof_O 	O 	0.4605	0.6216	0.6006	-0.496
Mof_O 	O 	0.6316	0.635	0.1553	0.029
Mof_O 	O 	0.624	0.656	0.9357	-0.116
_end
