data_functionalizedCrystal
_audit_creation_method	'EQeq! by Chris Wilmer'
_symmetry_space_group_name_H-M	'P1'
_symmetry_Int_Tables_number	1
_symmetry_cell_setting	triclinic
loop_
_symmetry_equiv_pos_as_xyz
  x,y,z
_cell_length_a	20.0299
_cell_length_b	17.2261
_cell_length_c	15.8221
_cell_angle_alpha	90
_cell_angle_beta	125.919
_cell_angle_gamma	90
loop_
_atom_site_label
_atom_site_type_symbol
_atom_site_fract_x
_atom_site_fract_y
_atom_site_fract_z
_atom_site_charge
Mof_N 	N 	0.4376	0.097	0.59	-0.185
Mof_C 	C 	0.3601	0.8909	0.555	-0.841
Mof_H 	H 	0.3199	0.9268	0.5079	0.29
Mof_C 	C 	0.3358	0.8284	0.5844	0.925
Mof_H 	H 	0.2801	0.8224	0.558	-0.287
Mof_C 	C 	0.3927	0.7746	0.652	-0.124
Mof_C 	C 	0.4692	0.7706	0.6627	-0.028
Mof_H 	H 	0.504	0.727	0.6896	0.001
Mof_C 	C 	0.4865	0.8365	0.6299	0.111
Mof_H 	H 	0.5357	0.8368	0.6349	-0.043
Mof_C 	C 	0.3963	0.5951	0.7846	0.082
Mof_H 	H 	0.436	0.5595	0.8333	-0.024
Mof_C 	C 	0.4209	0.6551	0.7532	-0.188
Mof_H 	H 	0.4767	0.6602	0.7796	0.085
Mof_C 	C 	0.3656	0.7071	0.6847	0.14
Mof_C 	C 	0.2851	0.6968	0.6453	-0.176
Mof_H 	H 	0.2455	0.7329	0.5976	0.092
Mof_C 	C 	0.2615	0.6339	0.675	0.055
Mof_H 	H 	0.2052	0.625	0.6433	0.096
Mof_N 	N 	0.3177	0.5849	0.7484	-0.287
Mof_C 	C 	0.2214	0.35	0.821	5.375
Mof_N 	N 	0.2669	0.4143	0.8826	0.2
Mof_C 	C 	0.1974	0.0906	0.0206	-1.953
Mof_C 	C 	0.2049	0.1543	0.9719	2.228
Mof_C 	C 	0.2129	0.2874	0.8684	-4.868
Mof_H 	H 	0.1788	0.2459	0.8269	1.671
Mof_H 	H 	0.3209	0.347	0.1004	-0.615
Mof_C 	C 	0.2527	0.2842	0.9744	-0.042
Mof_H 	H 	0.1974	0.3495	0.7491	-1.867
Mof_H 	H 	0.3362	0.451	0.0215	0.457
Mof_C 	C 	0.3956	0.0822	0.6384	0.743
Mof_H 	H 	0.3866	0.0313	0.6509	-0.242
Mof_C 	C 	0.3698	0.1441	0.6652	-0.848
Mof_H 	H 	0.3384	0.1371	0.6913	0.314
Mof_C 	C 	0.4424	0.2267	0.624	-0.015
Mof_H 	H 	0.4651	0.2747	0.6248	0.029
Mof_C 	C 	0.464	0.1603	0.5925	-0.092
Mof_H 	H 	0.4999	0.1659	0.573	0.033
Mof_C 	C 	0.3411	0.3857	0.9712	1.721
Mof_H 	H 	0.3928	0.4081	0.9983	-0.616
Mof_C 	C 	0.3306	0.3196	0.0159	-2.048
Mof_H 	H 	0.3776	0.2979	0.0764	0.722
Mof_C 	C 	0.1874	0.3284	0.903	4.699
Mof_H 	H 	0.1354	0.3184	0.8886	-1.557
Mof_C 	C 	0.1965	0.3894	0.851	-5.325
Mof_H 	H 	0.1493	0.4119	0.792	1.753
Mof_N 	N 	0.9376	0.597	0.59	-0.177
Mof_C 	C 	0.8601	0.3909	0.555	-0.81
Mof_H 	H 	0.8199	0.4268	0.5079	0.267
Mof_C 	C 	0.8358	0.3284	0.5844	0.896
Mof_H 	H 	0.7801	0.3224	0.558	-0.279
Mof_C 	C 	0.8927	0.2746	0.652	-0.119
Mof_C 	C 	0.9692	0.2706	0.6627	-0.028
Mof_H 	H 	0.004	0.227	0.6896	-0
Mof_C 	C 	0.9865	0.3365	0.6299	0.112
Mof_H 	H 	0.0357	0.3368	0.6349	-0.047
Mof_C 	C 	0.8963	0.0951	0.7846	0.077
Mof_H 	H 	0.936	0.0595	0.8333	-0.037
Mof_C 	C 	0.9209	0.1551	0.7532	-0.19
Mof_H 	H 	0.9767	0.1602	0.7796	0.082
Mof_C 	C 	0.8656	0.2071	0.6847	0.134
Mof_C 	C 	0.7851	0.1968	0.6453	-0.174
Mof_H 	H 	0.7455	0.2329	0.5976	0.089
Mof_C 	C 	0.7615	0.1339	0.675	0.05
Mof_H 	H 	0.7052	0.125	0.6433	0.097
Mof_N 	N 	0.8177	0.0849	0.7484	-0.293
Mof_C 	C 	0.7214	0.85	0.821	5.651
Mof_N 	N 	0.7669	0.9143	0.8826	0.237
Mof_C 	C 	0.6974	0.5906	0.0206	-1.901
Mof_C 	C 	0.7049	0.6543	0.9719	2.182
Mof_C 	C 	0.7129	0.7874	0.8684	-5.109
Mof_H 	H 	0.6788	0.7459	0.8269	1.755
Mof_H 	H 	0.8209	0.847	0.1004	-0.643
Mof_C 	C 	0.7527	0.7842	0.9744	-0.066
Mof_H 	H 	0.6974	0.8495	0.7491	-1.958
Mof_H 	H 	0.8362	0.951	0.0215	0.502
Mof_C 	C 	0.8956	0.5822	0.6384	0.786
Mof_H 	H 	0.8866	0.5313	0.6509	-0.231
Mof_C 	C 	0.8698	0.6441	0.6652	-0.892
Mof_H 	H 	0.8384	0.6371	0.6913	0.335
Mof_C 	C 	0.9424	0.7267	0.624	-0.014
Mof_H 	H 	0.9651	0.7747	0.6248	0.031
Mof_C 	C 	0.964	0.6603	0.5925	-0.093
Mof_H 	H 	0.9999	0.6659	0.573	0.033
Mof_C 	C 	0.8411	0.8857	0.9712	1.807
Mof_H 	H 	0.8928	0.9081	0.9983	-0.638
Mof_C 	C 	0.8306	0.8196	0.0159	-2.138
Mof_H 	H 	0.8776	0.7979	0.0764	0.753
Mof_C 	C 	0.6874	0.8284	0.903	4.954
Mof_H 	H 	0.6354	0.8184	0.8886	-1.641
Mof_C 	C 	0.6965	0.8894	0.851	-5.608
Mof_H 	H 	0.6493	0.9119	0.792	1.859
Mof_N 	N 	0.5624	0.097	0.41	-0.184
Mof_C 	C 	0.6399	0.8909	0.445	-0.84
Mof_H 	H 	0.6801	0.9268	0.4921	0.291
Mof_C 	C 	0.6642	0.8284	0.4156	0.926
Mof_H 	H 	0.7199	0.8224	0.442	-0.286
Mof_C 	C 	0.6073	0.7746	0.348	-0.123
Mof_C 	C 	0.5308	0.7706	0.3373	-0.028
Mof_H 	H 	0.496	0.727	0.3104	0.001
Mof_C 	C 	0.5135	0.8365	0.3701	0.111
Mof_H 	H 	0.4643	0.8368	0.3651	-0.043
Mof_C 	C 	0.6037	0.5951	0.2154	0.082
Mof_H 	H 	0.564	0.5595	0.1667	-0.024
Mof_C 	C 	0.5791	0.6551	0.2468	-0.188
Mof_H 	H 	0.5233	0.6602	0.2204	0.085
Mof_C 	C 	0.6344	0.7071	0.3153	0.14
Mof_C 	C 	0.7149	0.6968	0.3547	-0.176
Mof_H 	H 	0.7545	0.7329	0.4024	0.092
Mof_C 	C 	0.7385	0.6339	0.325	0.055
Mof_H 	H 	0.7948	0.625	0.3567	0.096
Mof_N 	N 	0.6823	0.5849	0.2516	-0.287
Mof_C 	C 	0.7786	0.35	0.179	5.375
Mof_N 	N 	0.7331	0.4143	0.1174	0.2
Mof_C 	C 	0.8026	0.0906	0.9794	-1.953
Mof_C 	C 	0.7951	0.1543	0.0281	2.228
Mof_C 	C 	0.7871	0.2874	0.1316	-4.868
Mof_H 	H 	0.8212	0.2459	0.1731	1.671
Mof_H 	H 	0.6791	0.347	0.8996	-0.615
Mof_C 	C 	0.7473	0.2842	0.0256	-0.042
Mof_H 	H 	0.8026	0.3495	0.2509	-1.867
Mof_H 	H 	0.6638	0.451	0.9785	0.457
Mof_C 	C 	0.6044	0.0822	0.3616	0.743
Mof_H 	H 	0.6134	0.0313	0.3491	-0.242
Mof_C 	C 	0.6302	0.1441	0.3348	-0.848
Mof_H 	H 	0.6616	0.1371	0.3087	0.314
Mof_C 	C 	0.5576	0.2267	0.376	-0.015
Mof_H 	H 	0.5349	0.2747	0.3752	0.029
Mof_C 	C 	0.536	0.1603	0.4075	-0.092
Mof_H 	H 	0.5001	0.1659	0.427	0.033
Mof_C 	C 	0.6589	0.3857	0.0288	1.721
Mof_H 	H 	0.6072	0.4081	0.0017	-0.616
Mof_C 	C 	0.6694	0.3196	0.9841	-2.048
Mof_H 	H 	0.6224	0.2979	0.9236	0.722
Mof_C 	C 	0.8126	0.3284	0.097	4.699
Mof_H 	H 	0.8646	0.3184	0.1114	-1.557
Mof_C 	C 	0.8035	0.3894	0.149	-5.325
Mof_H 	H 	0.8507	0.4119	0.208	1.753
Mof_N 	N 	0.0624	0.597	0.41	-0.177
Mof_C 	C 	0.1399	0.3909	0.445	-0.81
Mof_H 	H 	0.1801	0.4268	0.4921	0.267
Mof_C 	C 	0.1642	0.3284	0.4156	0.896
Mof_H 	H 	0.2199	0.3224	0.442	-0.279
Mof_C 	C 	0.1073	0.2746	0.348	-0.119
Mof_C 	C 	0.0308	0.2706	0.3373	-0.028
Mof_H 	H 	0.996	0.227	0.3104	-0
Mof_C 	C 	0.0135	0.3365	0.3701	0.112
Mof_H 	H 	0.9643	0.3368	0.3651	-0.047
Mof_C 	C 	0.1037	0.0951	0.2154	0.077
Mof_H 	H 	0.064	0.0595	0.1667	-0.037
Mof_C 	C 	0.0791	0.1551	0.2468	-0.19
Mof_H 	H 	0.0233	0.1602	0.2204	0.082
Mof_C 	C 	0.1344	0.2071	0.3153	0.134
Mof_C 	C 	0.2149	0.1968	0.3547	-0.174
Mof_H 	H 	0.2545	0.2329	0.4024	0.089
Mof_C 	C 	0.2385	0.1339	0.325	0.05
Mof_H 	H 	0.2948	0.125	0.3567	0.097
Mof_N 	N 	0.1823	0.0849	0.2516	-0.293
Mof_C 	C 	0.2786	0.85	0.179	5.651
Mof_N 	N 	0.2331	0.9143	0.1174	0.237
Mof_C 	C 	0.3026	0.5906	0.9794	-1.901
Mof_C 	C 	0.2951	0.6543	0.0281	2.182
Mof_C 	C 	0.2871	0.7874	0.1316	-5.109
Mof_H 	H 	0.3212	0.7459	0.1731	1.755
Mof_H 	H 	0.1791	0.847	0.8996	-0.643
Mof_C 	C 	0.2473	0.7842	0.0256	-0.066
Mof_H 	H 	0.3026	0.8495	0.2509	-1.958
Mof_H 	H 	0.1638	0.951	0.9785	0.502
Mof_C 	C 	0.1044	0.5822	0.3616	0.786
Mof_H 	H 	0.1134	0.5313	0.3491	-0.231
Mof_C 	C 	0.1302	0.6441	0.3348	-0.892
Mof_H 	H 	0.1616	0.6371	0.3087	0.335
Mof_C 	C 	0.0576	0.7267	0.376	-0.014
Mof_H 	H 	0.0349	0.7747	0.3752	0.031
Mof_C 	C 	0.036	0.6603	0.4075	-0.093
Mof_H 	H 	0.0001	0.6659	0.427	0.033
Mof_C 	C 	0.1589	0.8857	0.0288	1.807
Mof_H 	H 	0.1072	0.9081	0.0017	-0.638
Mof_C 	C 	0.1694	0.8196	0.9841	-2.138
Mof_H 	H 	0.1224	0.7979	0.9236	0.753
Mof_C 	C 	0.3126	0.8284	0.097	4.954
Mof_H 	H 	0.3646	0.8184	0.1114	-1.641
Mof_C 	C 	0.3035	0.8894	0.149	-5.608
Mof_H 	H 	0.3507	0.9119	0.208	1.859
Mof_N 	N 	0.5624	0.903	0.41	-0.16
Mof_C 	C 	0.6399	0.1091	0.445	-0.764
Mof_H 	H 	0.6801	0.0732	0.4921	0.243
Mof_C 	C 	0.6642	0.1716	0.4156	0.848
Mof_H 	H 	0.7199	0.1776	0.442	-0.265
Mof_C 	C 	0.6073	0.2254	0.348	-0.11
Mof_C 	C 	0.5308	0.2294	0.3373	-0.028
Mof_H 	H 	0.496	0.273	0.3104	-0.002
Mof_C 	C 	0.5135	0.1635	0.3701	0.113
Mof_H 	H 	0.4643	0.1632	0.3651	-0.051
Mof_C 	C 	0.6037	0.4049	0.2154	0.082
Mof_H 	H 	0.564	0.4405	0.1667	-0.024
Mof_C 	C 	0.5791	0.3449	0.2468	-0.185
Mof_H 	H 	0.5233	0.3398	0.2204	0.084
Mof_C 	C 	0.6344	0.2929	0.3153	0.133
Mof_C 	C 	0.7149	0.3032	0.3547	-0.173
Mof_H 	H 	0.7545	0.2671	0.4024	0.086
Mof_C 	C 	0.7385	0.3661	0.325	0.055
Mof_H 	H 	0.7948	0.375	0.3567	0.084
Mof_N 	N 	0.6823	0.4151	0.2516	-0.279
Mof_C 	C 	0.7786	0.65	0.179	6.168
Mof_N 	N 	0.7331	0.5857	0.1174	0.261
Mof_C 	C 	0.8026	0.9094	0.9794	-1.716
Mof_C 	C 	0.7951	0.8457	0.0281	2.014
Mof_C 	C 	0.7871	0.7126	0.1316	-5.554
Mof_H 	H 	0.8212	0.7541	0.1731	1.909
Mof_H 	H 	0.6791	0.653	0.8996	-0.7
Mof_C 	C 	0.7473	0.7158	0.0256	-0.093
Mof_H 	H 	0.8026	0.6505	0.2509	-2.144
Mof_H 	H 	0.6638	0.549	0.9785	0.538
Mof_C 	C 	0.6044	0.9178	0.3616	0.803
Mof_H 	H 	0.6134	0.9687	0.3491	-0.209
Mof_C 	C 	0.6302	0.8559	0.3348	-0.906
Mof_H 	H 	0.6616	0.8629	0.3087	0.347
Mof_C 	C 	0.5576	0.7733	0.376	-0.01
Mof_H 	H 	0.5349	0.7253	0.3752	0.027
Mof_C 	C 	0.536	0.8397	0.4075	-0.092
Mof_H 	H 	0.5001	0.8341	0.427	0.035
Mof_C 	C 	0.6589	0.6143	0.0288	1.994
Mof_H 	H 	0.6072	0.5919	0.0017	-0.713
Mof_C 	C 	0.6694	0.6804	0.9841	-2.304
Mof_H 	H 	0.6224	0.7021	0.9236	0.806
Mof_C 	C 	0.8126	0.6716	0.097	5.406
Mof_H 	H 	0.8646	0.6816	0.1114	-1.801
Mof_C 	C 	0.8035	0.6106	0.149	-6.13
Mof_H 	H 	0.8507	0.5881	0.208	2.011
Mof_N 	N 	0.0624	0.403	0.41	-0.176
Mof_C 	C 	0.1399	0.6091	0.445	-0.814
Mof_H 	H 	0.1801	0.5732	0.4921	0.269
Mof_C 	C 	0.1642	0.6716	0.4156	0.902
Mof_H 	H 	0.2199	0.6776	0.442	-0.281
Mof_C 	C 	0.1073	0.7254	0.348	-0.116
Mof_C 	C 	0.0308	0.7294	0.3373	-0.028
Mof_H 	H 	0.996	0.773	0.3104	0.001
Mof_C 	C 	0.0135	0.6635	0.3701	0.114
Mof_H 	H 	0.9643	0.6632	0.3651	-0.049
Mof_C 	C 	0.1037	0.9049	0.2154	0.083
Mof_H 	H 	0.064	0.9405	0.1667	-0.008
Mof_C 	C 	0.0791	0.8449	0.2468	-0.18
Mof_H 	H 	0.0233	0.8398	0.2204	0.087
Mof_C 	C 	0.1344	0.7929	0.3153	0.136
Mof_C 	C 	0.2149	0.8032	0.3547	-0.171
Mof_H 	H 	0.2545	0.7671	0.4024	0.088
Mof_C 	C 	0.2385	0.8661	0.325	0.055
Mof_H 	H 	0.2948	0.875	0.3567	0.098
Mof_N 	N 	0.1823	0.9151	0.2516	-0.267
Mof_C 	C 	0.2786	0.15	0.179	6.302
Mof_N 	N 	0.2331	0.0857	0.1174	0.269
Mof_C 	C 	0.3026	0.4094	0.9794	-1.621
Mof_C 	C 	0.2951	0.3457	0.0281	1.91
Mof_C 	C 	0.2871	0.2126	0.1316	-5.666
Mof_H 	H 	0.3212	0.2541	0.1731	1.944
Mof_H 	H 	0.1791	0.153	0.8996	-0.718
Mof_C 	C 	0.2473	0.2158	0.0256	-0.113
Mof_H 	H 	0.3026	0.1505	0.2509	-2.192
Mof_H 	H 	0.1638	0.049	0.9785	0.537
Mof_C 	C 	0.1044	0.4178	0.3616	0.78
Mof_H 	H 	0.1134	0.4687	0.3491	-0.228
Mof_C 	C 	0.1302	0.3559	0.3348	-0.886
Mof_H 	H 	0.1616	0.3629	0.3087	0.333
Mof_C 	C 	0.0576	0.2733	0.376	-0.014
Mof_H 	H 	0.0349	0.2253	0.3752	0.025
Mof_C 	C 	0.036	0.3397	0.4075	-0.091
Mof_H 	H 	0.0001	0.3341	0.427	0.03
Mof_C 	C 	0.1589	0.1143	0.0288	2.042
Mof_H 	H 	0.1072	0.0919	0.0017	-0.738
Mof_C 	C 	0.1694	0.1804	0.9841	-2.342
Mof_H 	H 	0.1224	0.2021	0.9236	0.816
Mof_C 	C 	0.3126	0.1716	0.097	5.527
Mof_H 	H 	0.3646	0.1816	0.1114	-1.846
Mof_C 	C 	0.3035	0.1106	0.149	-6.271
Mof_H 	H 	0.3507	0.0881	0.208	2.051
Mof_N 	N 	0.4376	0.903	0.59	-0.16
Mof_C 	C 	0.3601	0.1091	0.555	-0.764
Mof_H 	H 	0.3199	0.0732	0.5079	0.243
Mof_C 	C 	0.3358	0.1716	0.5844	0.848
Mof_H 	H 	0.2801	0.1776	0.558	-0.265
Mof_C 	C 	0.3927	0.2254	0.652	-0.11
Mof_C 	C 	0.4692	0.2294	0.6627	-0.028
Mof_H 	H 	0.504	0.273	0.6896	-0.002
Mof_C 	C 	0.4865	0.1635	0.6299	0.113
Mof_H 	H 	0.5357	0.1632	0.6349	-0.051
Mof_C 	C 	0.3963	0.4049	0.7846	0.082
Mof_H 	H 	0.436	0.4405	0.8333	-0.024
Mof_C 	C 	0.4209	0.3449	0.7532	-0.185
Mof_H 	H 	0.4767	0.3398	0.7796	0.084
Mof_C 	C 	0.3656	0.2929	0.6847	0.133
Mof_C 	C 	0.2851	0.3032	0.6453	-0.173
Mof_H 	H 	0.2455	0.2671	0.5976	0.086
Mof_C 	C 	0.2615	0.3661	0.675	0.055
Mof_H 	H 	0.2052	0.375	0.6433	0.084
Mof_N 	N 	0.3177	0.4151	0.7484	-0.279
Mof_C 	C 	0.2214	0.65	0.821	6.168
Mof_N 	N 	0.2669	0.5857	0.8826	0.261
Mof_C 	C 	0.1974	0.9094	0.0206	-1.716
Mof_C 	C 	0.2049	0.8457	0.9719	2.014
Mof_C 	C 	0.2129	0.7126	0.8684	-5.554
Mof_H 	H 	0.1788	0.7541	0.8269	1.909
Mof_H 	H 	0.3209	0.653	0.1004	-0.7
Mof_C 	C 	0.2527	0.7158	0.9744	-0.093
Mof_H 	H 	0.1974	0.6505	0.7491	-2.144
Mof_H 	H 	0.3362	0.549	0.0215	0.538
Mof_C 	C 	0.3956	0.9178	0.6384	0.803
Mof_H 	H 	0.3866	0.9687	0.6509	-0.209
Mof_C 	C 	0.3698	0.8559	0.6652	-0.906
Mof_H 	H 	0.3384	0.8629	0.6913	0.347
Mof_C 	C 	0.4424	0.7733	0.624	-0.01
Mof_H 	H 	0.4651	0.7253	0.6248	0.027
Mof_C 	C 	0.464	0.8397	0.5925	-0.092
Mof_H 	H 	0.4999	0.8341	0.573	0.035
Mof_C 	C 	0.3411	0.6143	0.9712	1.994
Mof_H 	H 	0.3928	0.5919	0.9983	-0.713
Mof_C 	C 	0.3306	0.6804	0.0159	-2.304
Mof_H 	H 	0.3776	0.7021	0.0764	0.806
Mof_C 	C 	0.1874	0.6716	0.903	5.406
Mof_H 	H 	0.1354	0.6816	0.8886	-1.801
Mof_C 	C 	0.1965	0.6106	0.851	-6.13
Mof_H 	H 	0.1493	0.5881	0.792	2.011
Mof_N 	N 	0.9376	0.403	0.59	-0.176
Mof_C 	C 	0.8601	0.6091	0.555	-0.814
Mof_H 	H 	0.8199	0.5732	0.5079	0.269
Mof_C 	C 	0.8358	0.6716	0.5844	0.902
Mof_H 	H 	0.7801	0.6776	0.558	-0.281
Mof_C 	C 	0.8927	0.7254	0.652	-0.116
Mof_C 	C 	0.9692	0.7294	0.6627	-0.028
Mof_H 	H 	0.004	0.773	0.6896	0.001
Mof_C 	C 	0.9865	0.6635	0.6299	0.114
Mof_H 	H 	0.0357	0.6632	0.6349	-0.049
Mof_C 	C 	0.8963	0.9049	0.7846	0.083
Mof_H 	H 	0.936	0.9405	0.8333	-0.008
Mof_C 	C 	0.9209	0.8449	0.7532	-0.18
Mof_H 	H 	0.9767	0.8398	0.7796	0.087
Mof_C 	C 	0.8656	0.7929	0.6847	0.136
Mof_C 	C 	0.7851	0.8032	0.6453	-0.171
Mof_H 	H 	0.7455	0.7671	0.5976	0.088
Mof_C 	C 	0.7615	0.8661	0.675	0.055
Mof_H 	H 	0.7052	0.875	0.6433	0.098
Mof_N 	N 	0.8177	0.9151	0.7484	-0.267
Mof_C 	C 	0.7214	0.15	0.821	6.302
Mof_N 	N 	0.7669	0.0857	0.8826	0.269
Mof_C 	C 	0.6974	0.4094	0.0206	-1.621
Mof_C 	C 	0.7049	0.3457	0.9719	1.91
Mof_C 	C 	0.7129	0.2126	0.8684	-5.666
Mof_H 	H 	0.6788	0.2541	0.8269	1.944
Mof_H 	H 	0.8209	0.153	0.1004	-0.718
Mof_C 	C 	0.7527	0.2158	0.9744	-0.113
Mof_H 	H 	0.6974	0.1505	0.7491	-2.192
Mof_H 	H 	0.8362	0.049	0.0215	0.537
Mof_C 	C 	0.8956	0.4178	0.6384	0.78
Mof_H 	H 	0.8866	0.4687	0.6509	-0.228
Mof_C 	C 	0.8698	0.3559	0.6652	-0.886
Mof_H 	H 	0.8384	0.3629	0.6913	0.333
Mof_C 	C 	0.9424	0.2733	0.624	-0.014
Mof_H 	H 	0.9651	0.2253	0.6248	0.025
Mof_C 	C 	0.964	0.3397	0.5925	-0.091
Mof_H 	H 	0.9999	0.3341	0.573	0.03
Mof_C 	C 	0.8411	0.1143	0.9712	2.042
Mof_H 	H 	0.8928	0.0919	0.9983	-0.738
Mof_C 	C 	0.8306	0.1804	0.0159	-2.342
Mof_H 	H 	0.8776	0.2021	0.0764	0.816
Mof_C 	C 	0.6874	0.1716	0.903	5.527
Mof_H 	H 	0.6354	0.1816	0.8886	-1.846
Mof_C 	C 	0.6965	0.1106	0.851	-6.271
Mof_H 	H 	0.6493	0.0881	0.792	2.051
Mof_Cu	Cu	0.47218	-5.70976e-33	0.55202	0.791
Mof_Cl	Cl	0.6257	0	0.6483	-0.809
Mof_Cu	Cu	0.97218	0.5	0.55202	0.805
Mof_Cl	Cl	0.1257	0.5	0.6483	-0.771
Mof_Cu	Cu	0.52782	-5.70976e-33	0.44798	0.791
Mof_Cl	Cl	0.3743	-5.70976e-33	0.3517	-0.809
Mof_Cu	Cu	0.02782	0.5	0.44798	0.805
Mof_Cl	Cl	0.8743	0.5	0.3517	-0.771
Mof_Cu	Cu	0.28147	0.5	0.80462	0.816
Mof_Cu	Cu	0.78147	0	0.80462	0.794
Mof_Cu	Cu	0.71853	0.5	0.19538	0.816
Mof_Cu	Cu	0.21853	-2.85488e-33	0.19538	0.794
_end
