data_functionalizedCrystal
_audit_creation_method	'EQeq! by Chris Wilmer'
_symmetry_space_group_name_H-M	'P1'
_symmetry_Int_Tables_number	1
_symmetry_cell_setting	triclinic
loop_
_symmetry_equiv_pos_as_xyz
  x,y,z
_cell_length_a	11.0227
_cell_length_b	11.6049
_cell_length_c	15.8019
_cell_angle_alpha	97.219
_cell_angle_beta	102.518
_cell_angle_gamma	102.964
loop_
_atom_site_label
_atom_site_type_symbol
_atom_site_fract_x
_atom_site_fract_y
_atom_site_fract_z
_atom_site_charge
Mof_Cu	Cu	0.84526	0.71395	0.13692	0.789
Mof_Cu	Cu	0.57486	0.49321	0.12662	0.786
Mof_Cu	Cu	0.00606	0.32601	0.03643	0.81
Mof_Cu	Cu	0.28943	0.58841	0.05084	0.798
Mof_Cu	Cu	0.62827	0.63318	0.51495	0.787
Mof_N 	N 	0.6799	0.7351	0.0935	-0.251
Mof_N 	N 	0.5722	0.6526	0.0936	-0.227
Mof_N 	N 	0.472	0.6953	0.066	-0.188
Mof_N 	N 	0.5113	0.805	0.047	-0.11
Mof_N 	N 	0.8947	0.1462	0.0296	-0.222
Mof_N 	N 	0.4033	0.3849	0.113	-0.229
Mof_N 	N 	0.2976	0.419	0.0768	-0.209
Mof_N 	N 	0.1943	0.3341	0.0773	-0.198
Mof_N 	N 	0.2297	0.2442	0.1131	-0.113
Mof_N 	N 	0.5769	0.0629	0.2566	-0.22
Mof_H 	H 	0.6231	0.023	0.2854	0.102
Mof_N 	N 	0.0665	0.6584	0.0905	-0.205
Mof_N 	N 	0.0098	0.6879	0.153	-0.208
Mof_N 	N 	0.0847	0.6949	0.2329	-0.122
Mof_N 	N 	0.1817	0.6438	0.1296	-0.221
Mof_N 	N 	0.4723	0.6298	0.4341	-0.291
Mof_N 	N 	0.909	0.3998	0.1169	-0.211
Mof_N 	N 	0.7984	0.4257	0.0794	-0.21
Mof_N 	N 	0.7437	0.4568	0.1423	-0.223
Mof_N 	N 	0.8153	0.4526	0.2215	-0.137
Mof_N 	N 	0.2246	0.3803	0.403	-0.276
Mof_C 	C 	0.3581	0.2769	0.1339	0.083
Mof_C 	C 	0.4356	0.2019	0.1768	0.027
Mof_C 	C 	0.5604	0.21	0.1683	-0.134
Mof_H 	H 	0.5965	0.263	0.1355	0.046
Mof_C 	C 	0.6297	0.1383	0.2092	0.083
Mof_H 	H 	0.7129	0.1423	0.2039	-0.005
Mof_C 	C 	0.4568	0.0481	0.2603	0.09
Mof_H 	H 	0.422	0.991	0.2908	-0.023
Mof_C 	C 	0.3817	0.1151	0.2202	-0.146
Mof_H 	H 	0.296	0.1026	0.2221	0.068
Mof_C 	C 	0.1896	0.6668	0.2168	0.088
Mof_C 	C 	0.2932	0.6591	0.2902	0.009
Mof_C 	C 	0.3127	0.7273	0.3742	-0.114
Mof_H 	H 	0.2654	0.7828	0.383	0.053
Mof_C 	C 	0.4027	0.7105	0.4428	0.04
Mof_H 	H 	0.4165	0.7569	0.4982	-0.035
Mof_C 	C 	0.4532	0.5644	0.3538	0.019
Mof_H 	H 	0.5003	0.5082	0.3473	-0.068
Mof_C 	C 	0.3665	0.5771	0.2805	-0.118
Mof_H 	H 	0.3571	0.5317	0.2255	0.023
Mof_C 	C 	0.9159	0.4176	0.2037	0.092
Mof_C 	C 	0.0207	0.4024	0.2733	0.014
Mof_C 	C 	0.0873	0.3171	0.2579	-0.119
Mof_H 	H 	0.0639	0.2656	0.2036	0.041
Mof_C 	C 	0.188	0.3092	0.3231	0.055
Mof_H 	H 	0.2327	0.2524	0.3117	-0.037
Mof_C 	C 	0.157	0.4593	0.4196	0.059
Mof_H 	H 	0.1797	0.5066	0.4755	-0.038
Mof_C 	C 	0.0548	0.4733	0.357	-0.112
Mof_H 	H 	0.0097	0.529	0.3706	0.052
Mof_C 	C 	0.6398	0.8274	0.0647	0.094
Mof_C 	C 	0.7275	0.9363	0.0519	-0.011
Mof_C 	C 	0.6806	0.0198	0.0069	-0.088
Mof_H 	H 	0.5927	0.0071	0.9831	0.068
Mof_H 	H 	0.8963	0.9031	0.1077	-0.034
Mof_H 	H 	0.0272	0.0764	0.09	-0.006
Mof_C 	C 	0.7668	0.1215	0.9983	0.054
Mof_H 	H 	0.7338	0.1766	0.9687	-0.033
Mof_C 	C 	0.9384	0.0629	0.0691	0.045
Mof_C 	C 	0.8598	0.9586	0.0807	-0.082
Mof_Cu	Cu	0.15474	0.28605	0.86308	0.788
Mof_Cu	Cu	0.42514	0.50679	0.87338	0.785
Mof_Cu	Cu	0.99394	0.67399	0.96357	0.81
Mof_Cu	Cu	0.71057	0.41159	0.94916	0.798
Mof_Cu	Cu	0.37173	0.36682	0.48505	0.787
Mof_N 	N 	0.3201	0.2649	0.9065	-0.251
Mof_N 	N 	0.4278	0.3474	0.9064	-0.227
Mof_N 	N 	0.528	0.3047	0.934	-0.188
Mof_N 	N 	0.4887	0.195	0.953	-0.11
Mof_N 	N 	0.1053	0.8538	0.9704	-0.222
Mof_N 	N 	0.5967	0.6151	0.887	-0.229
Mof_N 	N 	0.7024	0.581	0.9232	-0.209
Mof_N 	N 	0.8057	0.6659	0.9227	-0.198
Mof_N 	N 	0.7703	0.7558	0.8869	-0.113
Mof_N 	N 	0.4231	0.9371	0.7434	-0.22
Mof_H 	H 	0.3769	0.977	0.7146	0.102
Mof_N 	N 	0.9335	0.3416	0.9095	-0.205
Mof_N 	N 	0.9902	0.3121	0.847	-0.208
Mof_N 	N 	0.9153	0.3051	0.7671	-0.122
Mof_N 	N 	0.8183	0.3562	0.8704	-0.221
Mof_N 	N 	0.5277	0.3702	0.5659	-0.291
Mof_N 	N 	0.091	0.6002	0.8831	-0.211
Mof_N 	N 	0.2016	0.5743	0.9206	-0.21
Mof_N 	N 	0.2563	0.5432	0.8577	-0.223
Mof_N 	N 	0.1847	0.5474	0.7785	-0.137
Mof_N 	N 	0.7754	0.6197	0.597	-0.276
Mof_C 	C 	0.6419	0.7231	0.8661	0.083
Mof_C 	C 	0.5644	0.7981	0.8232	0.027
Mof_C 	C 	0.4396	0.79	0.8317	-0.134
Mof_H 	H 	0.4035	0.737	0.8645	0.046
Mof_C 	C 	0.3703	0.8617	0.7908	0.083
Mof_H 	H 	0.2871	0.8577	0.7961	-0.005
Mof_C 	C 	0.5432	0.9519	0.7397	0.09
Mof_H 	H 	0.578	0.009	0.7092	-0.023
Mof_C 	C 	0.6183	0.8849	0.7798	-0.146
Mof_H 	H 	0.704	0.8974	0.7779	0.068
Mof_C 	C 	0.8104	0.3332	0.7832	0.088
Mof_C 	C 	0.7068	0.3409	0.7098	0.009
Mof_C 	C 	0.6873	0.2727	0.6258	-0.114
Mof_H 	H 	0.7346	0.2172	0.617	0.053
Mof_C 	C 	0.5973	0.2895	0.5572	0.04
Mof_H 	H 	0.5835	0.2431	0.5018	-0.035
Mof_C 	C 	0.5468	0.4356	0.6462	0.019
Mof_H 	H 	0.4997	0.4918	0.6527	-0.068
Mof_C 	C 	0.6335	0.4229	0.7195	-0.118
Mof_H 	H 	0.6429	0.4683	0.7745	0.023
Mof_C 	C 	0.0841	0.5824	0.7963	0.092
Mof_C 	C 	0.9793	0.5976	0.7267	0.014
Mof_C 	C 	0.9127	0.6829	0.7421	-0.119
Mof_H 	H 	0.9361	0.7344	0.7964	0.041
Mof_C 	C 	0.812	0.6908	0.6769	0.055
Mof_H 	H 	0.7673	0.7476	0.6883	-0.037
Mof_C 	C 	0.843	0.5407	0.5804	0.059
Mof_H 	H 	0.8203	0.4934	0.5245	-0.038
Mof_C 	C 	0.9452	0.5267	0.643	-0.112
Mof_H 	H 	0.9903	0.471	0.6294	0.052
Mof_C 	C 	0.3602	0.1726	0.9353	0.094
Mof_C 	C 	0.2725	0.0637	0.9481	-0.011
Mof_C 	C 	0.3194	0.9802	0.9931	-0.088
Mof_H 	H 	0.4073	0.9929	0.0169	0.068
Mof_H 	H 	0.1037	0.0969	0.8923	-0.034
Mof_H 	H 	0.9728	0.9236	0.91	-0.006
Mof_C 	C 	0.2332	0.8785	0.0017	0.054
Mof_H 	H 	0.2662	0.8234	0.0313	-0.033
Mof_C 	C 	0.0616	0.9371	0.9309	0.045
Mof_C 	C 	0.1402	0.0414	0.9193	-0.082
_end
