# CIF file generated by openbabel 3.1.0, see https://openbabel.org
data_I
_chemical_name_common 'image0'
_cell_length_a 13.966
_cell_length_b 16.692
_cell_length_c 9.6406
_cell_angle_alpha 90
_cell_angle_beta 90
_cell_angle_gamma 90
_space_group_name_H-M_alt 'P 1'
_space_group_name_Hall 'P 1'
loop_
    _symmetry_equiv_pos_as_xyz
    x,y,z
loop_
    _atom_site_label
    _atom_site_type_symbol
    _atom_site_fract_x
    _atom_site_fract_y
    _atom_site_fract_z
    _atom_site_occupancy
    O1       O        0.09982    0.08558    0.38468    1.000
    C1       C        0.08350    0.03960    0.08030    1.000
    H1       H        0.05680    0.10950    0.11290    1.000
    H2       H        0.08500    0.09500    0.11410    1.000
    H3       H        0.14110    0.01240    0.11410    1.000
    C2       C        0.21970    0.21683    0.37660    1.000
    H4       H        0.19920    0.19470    0.29200    1.000
    O2       O        0.59982    0.58558    0.38468    1.000
    C3       C        0.58350    0.53960    0.08030    1.000
    H5       H        0.55680    0.60950    0.11290    1.000
    H6       H        0.58500    0.59500    0.11410    1.000
    H7       H        0.64110    0.51240    0.11410    1.000
    C4       C        0.71970    0.71683    0.37660    1.000
    H8       H        0.69920    0.69470    0.29200    1.000
    O3       O        0.90018    0.91442    0.38468    1.000
    C5       C        0.91650    0.96040    0.08030    1.000
    H9       H        0.94320    0.89050    0.11290    1.000
    H10      H        0.91500    0.90500    0.11410    1.000
    H11      H        0.85890    0.98760    0.11410    1.000
    C6       C        0.78030    0.78317    0.37660    1.000
    H12      H        0.80080    0.80530    0.29200    1.000
    O4       O        0.40018    0.41442    0.38468    1.000
    C7       C        0.41650    0.46040    0.08030    1.000
    H13      H        0.44320    0.39050    0.11290    1.000
    H14      H        0.41500    0.40500    0.11410    1.000
    H15      H        0.35890    0.48760    0.11410    1.000
    C8       C        0.28030    0.28317    0.37660    1.000
    H16      H        0.30080    0.30530    0.29200    1.000
    O5       O        0.90018    0.08558    0.61532    1.000
    C9       C        0.91650    0.03960    0.91970    1.000
    H17      H        0.94320    0.10950    0.88710    1.000
    H18      H        0.91500    0.09500    0.88590    1.000
    H19      H        0.85890    0.01240    0.88590    1.000
    C10      C        0.78030    0.21683    0.62340    1.000
    H20      H        0.80080    0.19470    0.70800    1.000
    O6       O        0.40018    0.58558    0.61532    1.000
    C11      C        0.41650    0.53960    0.91970    1.000
    H21      H        0.44320    0.60950    0.88710    1.000
    H22      H        0.41500    0.59500    0.88590    1.000
    H23      H        0.35890    0.51240    0.88590    1.000
    C12      C        0.28030    0.71683    0.62340    1.000
    H24      H        0.30080    0.69470    0.70800    1.000
    O7       O        0.09982    0.91442    0.61532    1.000
    C13      C        0.08350    0.96040    0.91970    1.000
    H25      H        0.05680    0.89050    0.88710    1.000
    H26      H        0.08500    0.90500    0.88590    1.000
    H27      H        0.14110    0.98760    0.88590    1.000
    C14      C        0.21970    0.78317    0.62340    1.000
    H28      H        0.19920    0.80530    0.70800    1.000
    O8       O        0.59982    0.41442    0.61532    1.000
    C15      C        0.58350    0.46040    0.91970    1.000
    H29      H        0.55680    0.39050    0.88710    1.000
    H30      H        0.58500    0.40500    0.88590    1.000
    H31      H        0.64110    0.48760    0.88590    1.000
    C16      C        0.71970    0.28317    0.62340    1.000
    H32      H        0.69920    0.30530    0.70800    1.000
    O9       O        0.90018    0.91442    0.61532    1.000
    C17      C        0.91650    0.96040    0.91970    1.000
    H33      H        0.94320    0.89050    0.88710    1.000
    H34      H        0.91500    0.90500    0.88590    1.000
    H35      H        0.85890    0.98760    0.88590    1.000
    C18      C        0.78030    0.78317    0.62340    1.000
    H36      H        0.80080    0.80530    0.70800    1.000
    O10      O        0.40018    0.41442    0.61532    1.000
    C19      C        0.41650    0.46040    0.91970    1.000
    H37      H        0.44320    0.39050    0.88710    1.000
    H38      H        0.41500    0.40500    0.88590    1.000
    H39      H        0.35890    0.48760    0.88590    1.000
    C20      C        0.28030    0.28317    0.62340    1.000
    H40      H        0.30080    0.30530    0.70800    1.000
    O11      O        0.09982    0.08558    0.61532    1.000
    C21      C        0.08350    0.03960    0.91970    1.000
    H41      H        0.05680    0.10950    0.88710    1.000
    H42      H        0.08500    0.09500    0.88590    1.000
    H43      H        0.14110    0.01240    0.88590    1.000
    C22      C        0.21970    0.21683    0.62340    1.000
    H44      H        0.19920    0.19470    0.70800    1.000
    O12      O        0.59982    0.58558    0.61532    1.000
    C23      C        0.58350    0.53960    0.91970    1.000
    H45      H        0.55680    0.60950    0.88710    1.000
    H46      H        0.58500    0.59500    0.88590    1.000
    H47      H        0.64110    0.51240    0.88590    1.000
    C24      C        0.71970    0.71683    0.62340    1.000
    H48      H        0.69920    0.69470    0.70800    1.000
    O13      O        0.09982    0.91442    0.38468    1.000
    C25      C        0.08350    0.96040    0.08030    1.000
    H49      H        0.05680    0.89050    0.11290    1.000
    H50      H        0.08500    0.90500    0.11410    1.000
    H51      H        0.14110    0.98760    0.11410    1.000
    C26      C        0.21970    0.78317    0.37660    1.000
    H52      H        0.19920    0.80530    0.29200    1.000
    O14      O        0.59982    0.41442    0.38468    1.000
    C27      C        0.58350    0.46040    0.08030    1.000
    H53      H        0.55680    0.39050    0.11290    1.000
    H54      H        0.58500    0.40500    0.11410    1.000
    H55      H        0.64110    0.48760    0.11410    1.000
    C28      C        0.71970    0.28317    0.37660    1.000
    H56      H        0.69920    0.30530    0.29200    1.000
    O15      O        0.90018    0.08558    0.38468    1.000
    C29      C        0.91650    0.03960    0.08030    1.000
    H57      H        0.94320    0.10950    0.11290    1.000
    H58      H        0.91500    0.09500    0.11410    1.000
    H59      H        0.85890    0.01240    0.11410    1.000
    C30      C        0.78030    0.21683    0.37660    1.000
    H60      H        0.80080    0.19470    0.29200    1.000
    O16      O        0.40018    0.58558    0.38468    1.000
    C31      C        0.41650    0.53960    0.08030    1.000
    H61      H        0.44320    0.60950    0.11290    1.000
    H62      H        0.41500    0.59500    0.11410    1.000
    H63      H        0.35890    0.51240    0.11410    1.000
    C32      C        0.28030    0.71683    0.37660    1.000
    H64      H        0.30080    0.69470    0.29200    1.000
    Zn1      Zn       0.00000    0.00000    0.34767    1.000
    N1       N        0.00000    0.00000    0.13360    1.000
    Zn2      Zn       0.50000    0.50000    0.34767    1.000
    N2       N        0.50000    0.50000    0.13360    1.000
    Zn3      Zn       0.00000    0.00000    0.65233    1.000
    N3       N        0.00000    0.00000    0.86640    1.000
    Zn4      Zn       0.50000    0.50000    0.65233    1.000
    N4       N        0.50000    0.50000    0.86640    1.000
    C33      C        0.12460    0.11202    0.50000    1.000
    C34      C        0.18964    0.18333    0.50000    1.000
    C35      C        0.62460    0.61202    0.50000    1.000
    C36      C        0.68964    0.68333    0.50000    1.000
    C37      C        0.87540    0.88798    0.50000    1.000
    C38      C        0.81036    0.81667    0.50000    1.000
    C39      C        0.37540    0.38798    0.50000    1.000
    C40      C        0.31036    0.31667    0.50000    1.000
    C41      C        0.87540    0.11202    0.50000    1.000
    C42      C        0.81036    0.18333    0.50000    1.000
    C43      C        0.37540    0.61202    0.50000    1.000
    C44      C        0.31036    0.68333    0.50000    1.000
    C45      C        0.12460    0.88798    0.50000    1.000
    C46      C        0.18964    0.81667    0.50000    1.000
    C47      C        0.62460    0.38798    0.50000    1.000
    C48      C        0.68964    0.31667    0.50000    1.000
    C49      C        0.00000    0.08100    0.07920    1.000
    C50      C        0.50000    0.58100    0.07920    1.000
    C51      C        0.00000    0.91900    0.07920    1.000
    C52      C        0.50000    0.41900    0.07920    1.000
    C53      C        0.00000    0.08100    0.92080    1.000
    C54      C        0.50000    0.58100    0.92080    1.000
    C55      C        0.00000    0.91900    0.92080    1.000
    C56      C        0.50000    0.41900    0.92080    1.000
