data_functionalizedCrystal
_audit_creation_method	'EQeq! by Chris Wilmer'
_symmetry_space_group_name_H-M	'P1'
_symmetry_Int_Tables_number	1
_symmetry_cell_setting	triclinic
loop_
_symmetry_equiv_pos_as_xyz
  x,y,z
_cell_length_a	36.3966
_cell_length_b	36.3966
_cell_length_c	23.9655
_cell_angle_alpha	90
_cell_angle_beta	90
_cell_angle_gamma	120
loop_
_atom_site_label
_atom_site_type_symbol
_atom_site_fract_x
_atom_site_fract_y
_atom_site_fract_z
_atom_site_charge
Mof_In	In	0.13301	0.77356	0.72941	1.403
Mof_Co	Co	0.21551	0.85212	0.8167	0.831
Mof_O 	O 	0.21862	0.7975	0.8029	-0.709
Mof_O 	O 	0.1174	0.75098	0.6379	-0.475
Mof_O 	O 	0.30804	0.06918	0.27154	-0.606
Mof_O 	O 	0.1884	0.76884	0.72092	-0.645
Mof_O 	O 	0.26901	0.064	0.19639	-0.538
Mof_O 	O 	0.9124	0.6947	0.1714	-0.601
Mof_O 	O 	0.14795	0.8175	0.65517	-0.468
Mof_O 	O 	0.15682	0.82846	0.77786	-0.883
Mof_O 	O 	0.9541	0.7277	0.1007	-0.76
Mof_C 	C 	0.0102	0.7647	0.2861	-0.124
Mof_H 	H 	0.0039	0.7647	0.3238	0.071
Mof_C 	C 	0.0887	0.8051	0.3592	-0.103
Mof_H 	H 	0.0668	0.7797	0.3732	0.066
Mof_C 	C 	0.0599	0.7853	0.2095	-0.127
Mof_H 	H 	0.0876	0.7988	0.1961	0.075
Mof_C 	C 	0.1834	0.927	0.2987	0.081
Mof_C 	C 	0.0526	0.7876	0.2648	0.052
Mof_C 	C 	0.1193	0.8543	0.284	-0.094
Mof_H 	H 	0.119	0.8612	0.2467	0.064
Mof_C 	C 	0.1214	0.8317	0.3948	0.036
Mof_C 	C 	0.1533	0.8722	0.375	-0.093
Mof_H 	H 	0.1748	0.8908	0.3987	0.061
Mof_C 	C 	0.0874	0.815	0.3038	0.031
Mof_C 	C 	0.2542	0.9867	0.3022	0.103
Mof_H 	H 	0.2816	0.9995	0.3163	0.008
Mof_C 	C 	0.3008	0.7483	0.7809	-0.191
Mof_H 	H 	0.3257	0.7585	0.8016	0.098
Mof_C 	C 	0.25223	0.701	0.7139	-0.19
Mof_H 	H 	0.2435	0.6782	0.6896	0.101
Mof_C 	C 	0.2241	0.9488	0.3227	-0.164
Mof_H 	H 	0.2304	0.9371	0.3531	0.088
Mof_C 	C 	0.1517	0.8836	0.319	0.021
Mof_C 	C 	0.277	0.7687	0.7856	0.127
Mof_H 	H 	0.2851	0.7909	0.8109	-0.008
Mof_C 	C 	0.2148	0.7764	0.7585	0.526
Mof_C 	C 	0.1744	0.9468	0.2568	-0.159
Mof_H 	H 	0.1472	0.9335	0.2418	0.085
Mof_C 	C 	0.2893	0.6453	0.7447	0.022
Mof_C 	C 	0.27676	0.0503	0.2412	0.491
Mof_C 	C 	0.31121	0.68911	0.7453	-0.065
Mof_C 	C 	0.28892	0.7138	0.747	0.125
Mof_C 	C 	0.20416	0.9858	0.2362	0.096
Mof_H 	H 	0.1975	0.998	0.2067	0.005
Mof_C 	C 	0.24406	0.0066	0.2597	-0.188
Mof_C 	C 	0.22924	0.7217	0.7169	0.128
Mof_H 	H 	0.2052	0.7128	0.695	-0.002
Mof_C 	C 	0.2422	0.7563	0.7533	-0.219
Mof_C 	C 	0.1117	0.7784	0.469	-0.103
Mof_H 	H 	0.1025	0.757	0.4424	0.072
Mof_C 	C 	0.0251	0.7622	0.1715	0.059
Mof_H 	H 	0.0304	0.7617	0.1336	0.028
Mof_C 	C 	0.978	0.7418	0.2457	0.054
Mof_H 	H 	0.9502	0.7262	0.2582	0.008
Mof_C 	C 	0.1129	0.768	0.5244	0.026
Mof_H 	H 	0.1025	0.7399	0.5349	0.036
Mof_C 	C 	0.1238	0.8193	0.4512	0.038
Mof_C 	C 	0.1428	0.8389	0.5504	0.009
Mof_H 	H 	0.1533	0.8592	0.5787	0.042
Mof_C 	C 	0.133	0.787	0.6253	0.389
Mof_C 	C 	0.1413	0.851	0.4905	-0.094
Mof_H 	H 	0.1519	0.8792	0.4804	0.062
Mof_C 	C 	0.9849	0.7412	0.1908	-0.135
Mof_C 	C 	0.1286	0.7981	0.561	-0.082
Mof_C 	C 	0.9471	0.721	0.1489	0.452
Mof_Co	Co	0.2032	0.8232	0.8398	0.896
Mof_In	In	0.1258	0.75455	0.74073	0.854
Mof_In	In	0.79967	0.10689	0.06274	1.404
Mof_Co	Co	0.88218	0.18545	0.15003	0.832
Mof_O 	O 	0.88529	0.13083	0.13623	-0.708
Mof_O 	O 	0.78407	0.08431	0.97123	-0.474
Mof_O 	O 	0.97471	0.40251	0.60487	-0.606
Mof_O 	O 	0.85507	0.10217	0.05425	-0.645
Mof_O 	O 	0.93568	0.39733	0.52972	-0.538
Mof_O 	O 	0.57907	0.02803	0.50473	-0.601
Mof_O 	O 	0.81462	0.15083	0.9885	-0.467
Mof_O 	O 	0.82349	0.16179	0.11119	-0.883
Mof_O 	O 	0.62077	0.06103	0.43403	-0.76
Mof_C 	C 	0.67687	0.09803	0.61943	-0.124
Mof_H 	H 	0.67057	0.09803	0.65713	0.072
Mof_C 	C 	0.75537	0.13843	0.69253	-0.103
Mof_H 	H 	0.73347	0.11303	0.70653	0.066
Mof_C 	C 	0.72657	0.11863	0.54283	-0.127
Mof_H 	H 	0.75427	0.13213	0.52943	0.075
Mof_C 	C 	0.85007	0.26033	0.63203	0.081
Mof_C 	C 	0.71927	0.12093	0.59813	0.052
Mof_C 	C 	0.78597	0.18763	0.61733	-0.094
Mof_H 	H 	0.78567	0.19453	0.58003	0.064
Mof_C 	C 	0.78807	0.16503	0.72813	0.036
Mof_C 	C 	0.81997	0.20553	0.70833	-0.093
Mof_H 	H 	0.84147	0.22413	0.73203	0.061
Mof_C 	C 	0.75407	0.14833	0.63713	0.032
Mof_C 	C 	0.92087	0.32003	0.63553	0.103
Mof_H 	H 	0.94827	0.33283	0.64963	0.009
Mof_C 	C 	0.96747	0.08163	0.11423	-0.192
Mof_H 	H 	0.99237	0.09183	0.13493	0.098
Mof_C 	C 	0.9189	0.03433	0.04723	-0.19
Mof_H 	H 	0.91017	0.01153	0.02293	0.101
Mof_C 	C 	0.89077	0.28213	0.65603	-0.163
Mof_H 	H 	0.89707	0.27043	0.68643	0.087
Mof_C 	C 	0.81837	0.21693	0.65233	0.022
Mof_C 	C 	0.94367	0.10203	0.11893	0.127
Mof_H 	H 	0.95177	0.12423	0.14423	-0.008
Mof_C 	C 	0.88147	0.10973	0.09183	0.526
Mof_C 	C 	0.84107	0.28013	0.59013	-0.159
Mof_H 	H 	0.81387	0.26683	0.57513	0.085
Mof_C 	C 	0.95597	0.97863	0.07803	0.023
Mof_C 	C 	0.94343	0.38363	0.57453	0.49
Mof_C 	C 	0.97788	0.02244	0.07863	-0.067
Mof_C 	C 	0.95559	0.04713	0.08033	0.126
Mof_C 	C 	0.87083	0.31913	0.56953	0.095
Mof_H 	H 	0.86417	0.33133	0.54003	0.005
Mof_C 	C 	0.91073	0.33993	0.59303	-0.187
Mof_C 	C 	0.89591	0.05503	0.05023	0.128
Mof_H 	H 	0.87187	0.04613	0.02833	-0.002
Mof_C 	C 	0.90887	0.08963	0.08663	-0.219
Mof_C 	C 	0.77837	0.11173	0.80233	-0.103
Mof_H 	H 	0.76917	0.09033	0.77573	0.071
Mof_C 	C 	0.69177	0.09553	0.50483	0.059
Mof_H 	H 	0.69707	0.09503	0.46693	0.028
Mof_C 	C 	0.64467	0.07513	0.57903	0.054
Mof_H 	H 	0.61687	0.05953	0.59153	0.008
Mof_C 	C 	0.77957	0.10133	0.85773	0.026
Mof_H 	H 	0.76917	0.07323	0.86823	0.036
Mof_C 	C 	0.79047	0.15263	0.78453	0.038
Mof_C 	C 	0.80947	0.17223	0.88373	0.009
Mof_H 	H 	0.81997	0.19253	0.91203	0.042
Mof_C 	C 	0.79967	0.12033	0.95863	0.389
Mof_C 	C 	0.80797	0.18433	0.82383	-0.094
Mof_H 	H 	0.81857	0.21253	0.81373	0.062
Mof_C 	C 	0.65157	0.07453	0.52413	-0.134
Mof_C 	C 	0.79527	0.13143	0.89433	-0.081
Mof_C 	C 	0.61377	0.05433	0.48223	0.452
Mof_Co	Co	0.86987	0.15653	0.17313	0.896
Mof_In	In	0.79247	0.08788	0.07406	0.853
Mof_In	In	0.46634	0.44023	0.39608	1.404
Mof_Co	Co	0.54884	0.51879	0.48337	0.832
Mof_O 	O 	0.55195	0.46417	0.46957	-0.708
Mof_O 	O 	0.45073	0.41765	0.30457	-0.474
Mof_O 	O 	0.64137	0.73585	0.93821	-0.606
Mof_O 	O 	0.52173	0.43551	0.38759	-0.645
Mof_O 	O 	0.60234	0.73067	0.86306	-0.538
Mof_O 	O 	0.24573	0.36137	0.83807	-0.601
Mof_O 	O 	0.48128	0.48417	0.32184	-0.468
Mof_O 	O 	0.49015	0.49513	0.44453	-0.883
Mof_O 	O 	0.28743	0.39437	0.76737	-0.76
Mof_C 	C 	0.34353	0.43137	0.95277	-0.124
Mof_H 	H 	0.33723	0.43137	0.99047	0.071
Mof_C 	C 	0.42203	0.47177	0.02587	-0.103
Mof_H 	H 	0.40013	0.44637	0.03987	0.066
Mof_C 	C 	0.39323	0.45197	0.87617	-0.127
Mof_H 	H 	0.42093	0.46547	0.86277	0.075
Mof_C 	C 	0.51673	0.59367	0.96537	0.081
Mof_C 	C 	0.38593	0.45427	0.93147	0.052
Mof_C 	C 	0.45263	0.52097	0.95067	-0.094
Mof_H 	H 	0.45233	0.52787	0.91337	0.064
Mof_C 	C 	0.45473	0.49837	0.06147	0.036
Mof_C 	C 	0.48663	0.53887	0.04167	-0.093
Mof_H 	H 	0.50813	0.55747	0.06537	0.061
Mof_C 	C 	0.42073	0.48167	0.97047	0.031
Mof_C 	C 	0.58753	0.65337	0.96887	0.103
Mof_H 	H 	0.61493	0.66617	0.98297	0.009
Mof_C 	C 	0.63413	0.41497	0.44757	-0.191
Mof_H 	H 	0.65903	0.42517	0.46827	0.098
Mof_C 	C 	0.58556	0.36767	0.38057	-0.19
Mof_H 	H 	0.57683	0.34487	0.35627	0.101
Mof_C 	C 	0.55743	0.61547	0.98937	-0.164
Mof_H 	H 	0.56373	0.60377	0.01977	0.087
Mof_C 	C 	0.48503	0.55027	0.98567	0.021
Mof_C 	C 	0.61033	0.43537	0.45227	0.127
Mof_H 	H 	0.61843	0.45757	0.47757	-0.008
Mof_C 	C 	0.54813	0.44307	0.42517	0.526
Mof_C 	C 	0.50773	0.61347	0.92347	-0.159
Mof_H 	H 	0.48053	0.60017	0.90847	0.085
Mof_C 	C 	0.62263	0.31197	0.41137	0.022
Mof_C 	C 	0.61009	0.71697	0.90787	0.491
Mof_C 	C 	0.64454	0.35578	0.41197	-0.065
Mof_C 	C 	0.62225	0.38047	0.41367	0.126
Mof_C 	C 	0.53749	0.65247	0.90287	0.096
Mof_H 	H 	0.53083	0.66467	0.87337	0.005
Mof_C 	C 	0.57739	0.67327	0.92637	-0.188
Mof_C 	C 	0.56257	0.38837	0.38357	0.128
Mof_H 	H 	0.53853	0.37947	0.36167	-0.002
Mof_C 	C 	0.57553	0.42297	0.41997	-0.219
Mof_C 	C 	0.44503	0.44507	0.13567	-0.103
Mof_H 	H 	0.43583	0.42367	0.10907	0.072
Mof_C 	C 	0.35843	0.42887	0.83817	0.059
Mof_H 	H 	0.36373	0.42837	0.80027	0.028
Mof_C 	C 	0.31133	0.40847	0.91237	0.054
Mof_H 	H 	0.28353	0.39287	0.92487	0.008
Mof_C 	C 	0.44623	0.43467	0.19107	0.026
Mof_H 	H 	0.43583	0.40657	0.20157	0.036
Mof_C 	C 	0.45713	0.48597	0.11787	0.038
Mof_C 	C 	0.47613	0.50557	0.21707	0.009
Mof_H 	H 	0.48663	0.52587	0.24537	0.042
Mof_C 	C 	0.46633	0.45367	0.29197	0.389
Mof_C 	C 	0.47463	0.51767	0.15717	-0.094
Mof_H 	H 	0.48523	0.54587	0.14707	0.062
Mof_C 	C 	0.31823	0.40787	0.85747	-0.134
Mof_C 	C 	0.46193	0.46477	0.22767	-0.081
Mof_C 	C 	0.28043	0.38767	0.81557	0.452
Mof_Co	Co	0.53653	0.48987	0.50647	0.896
Mof_In	In	0.45913	0.42122	0.4074	0.854
Mof_In	In	0.22644	0.35945	0.72941	1.404
Mof_Co	Co	0.14788	0.36339	0.8167	0.832
Mof_O 	O 	0.2025	0.42112	0.8029	-0.708
Mof_O 	O 	0.24902	0.36642	0.6379	-0.474
Mof_O 	O 	0.93082	0.23886	0.27154	-0.606
Mof_O 	O 	0.23116	0.41956	0.72092	-0.645
Mof_O 	O 	0.936	0.20501	0.19639	-0.538
Mof_O 	O 	0.3053	0.2177	0.1714	-0.601
Mof_O 	O 	0.1825	0.33045	0.65517	-0.468
Mof_O 	O 	0.17154	0.32836	0.77786	-0.883
Mof_O 	O 	0.2723	0.2264	0.1007	-0.76
Mof_C 	C 	0.2353	0.2455	0.2861	-0.124
Mof_H 	H 	0.2353	0.2392	0.3238	0.072
Mof_C 	C 	0.1949	0.2836	0.3592	-0.103
Mof_H 	H 	0.2203	0.2871	0.3732	0.066
Mof_C 	C 	0.2147	0.2746	0.2095	-0.127
Mof_H 	H 	0.2012	0.2888	0.1961	0.075
Mof_C 	C 	0.073	0.2564	0.2987	0.082
Mof_C 	C 	0.2124	0.265	0.2648	0.052
Mof_C 	C 	0.1457	0.265	0.284	-0.094
Mof_H 	H 	0.1388	0.2578	0.2467	0.064
Mof_C 	C 	0.1683	0.2897	0.3948	0.036
Mof_C 	C 	0.1278	0.2811	0.375	-0.093
Mof_H 	H 	0.1092	0.284	0.3987	0.061
Mof_C 	C 	0.185	0.2724	0.3038	0.031
Mof_C 	C 	0.0133	0.2675	0.3022	0.104
Mof_H 	H 	0.0005	0.2821	0.3163	0.008
Mof_C 	C 	0.2517	0.5525	0.7809	-0.191
Mof_H 	H 	0.2415	0.5672	0.8016	0.098
Mof_C 	C 	0.299	0.55123	0.7139	-0.19
Mof_H 	H 	0.3218	0.5653	0.6896	0.101
Mof_C 	C 	0.0512	0.2753	0.3227	-0.164
Mof_H 	H 	0.0629	0.2933	0.3531	0.088
Mof_C 	C 	0.1164	0.2681	0.319	0.021
Mof_C 	C 	0.2313	0.5083	0.7856	0.127
Mof_H 	H 	0.2091	0.4942	0.8109	-0.008
Mof_C 	C 	0.2236	0.4384	0.7585	0.526
Mof_C 	C 	0.0532	0.2276	0.2568	-0.159
Mof_H 	H 	0.0665	0.2137	0.2418	0.085
Mof_C 	C 	0.3547	0.644	0.7447	0.022
Mof_C 	C 	0.9497	0.22646	0.2412	0.491
Mof_C 	C 	0.31089	0.6221	0.7453	-0.065
Mof_C 	C 	0.2862	0.57512	0.747	0.125
Mof_C 	C 	0.0142	0.21836	0.2362	0.097
Mof_H 	H 	0.002	0.1995	0.2067	0.005
Mof_C 	C 	0.9934	0.23746	0.2597	-0.189
Mof_C 	C 	0.2783	0.50754	0.7169	0.128
Mof_H 	H 	0.2872	0.4924	0.695	-0.002
Mof_C 	C 	0.2437	0.4859	0.7533	-0.219
Mof_C 	C 	0.2216	0.3333	0.469	-0.103
Mof_H 	H 	0.243	0.3455	0.4424	0.072
Mof_C 	C 	0.2378	0.2629	0.1715	0.059
Mof_H 	H 	0.2383	0.2687	0.1336	0.028
Mof_C 	C 	0.2582	0.2362	0.2457	0.054
Mof_H 	H 	0.2738	0.224	0.2582	0.008
Mof_C 	C 	0.232	0.3449	0.5244	0.026
Mof_H 	H 	0.2601	0.3626	0.5349	0.036
Mof_C 	C 	0.1807	0.3045	0.4512	0.038
Mof_C 	C 	0.1611	0.3039	0.5504	0.009
Mof_H 	H 	0.1408	0.2941	0.5787	0.042
Mof_C 	C 	0.213	0.346	0.6253	0.389
Mof_C 	C 	0.149	0.2903	0.4905	-0.094
Mof_H 	H 	0.1208	0.2727	0.4804	0.062
Mof_C 	C 	0.2588	0.2437	0.1908	-0.134
Mof_C 	C 	0.2019	0.3305	0.561	-0.081
Mof_C 	C 	0.279	0.2261	0.1489	0.452
Mof_Co	Co	0.1768	0.38	0.8398	0.896
Mof_In	In	0.24545	0.37125	0.74073	0.854
Mof_In	In	0.89311	0.69278	0.06274	1.404
Mof_Co	Co	0.81455	0.69672	0.15003	0.832
Mof_O 	O 	0.86917	0.75445	0.13623	-0.708
Mof_O 	O 	0.91569	0.69975	0.97123	-0.474
Mof_O 	O 	0.59749	0.57219	0.60487	-0.606
Mof_O 	O 	0.89783	0.75289	0.05425	-0.645
Mof_O 	O 	0.60267	0.53834	0.52972	-0.538
Mof_O 	O 	0.97197	0.55103	0.50473	-0.601
Mof_O 	O 	0.84917	0.66378	0.9885	-0.468
Mof_O 	O 	0.83821	0.66169	0.11119	-0.883
Mof_O 	O 	0.93897	0.55973	0.43403	-0.76
Mof_C 	C 	0.90197	0.57883	0.61943	-0.124
Mof_H 	H 	0.90197	0.57253	0.65713	0.072
Mof_C 	C 	0.86157	0.61693	0.69253	-0.103
Mof_H 	H 	0.88697	0.62043	0.70653	0.066
Mof_C 	C 	0.88137	0.60793	0.54283	-0.127
Mof_H 	H 	0.86787	0.62213	0.52943	0.075
Mof_C 	C 	0.73967	0.58973	0.63203	0.081
Mof_C 	C 	0.87907	0.59833	0.59813	0.052
Mof_C 	C 	0.81237	0.59833	0.61733	-0.094
Mof_H 	H 	0.80547	0.59113	0.58003	0.064
Mof_C 	C 	0.83497	0.62303	0.72813	0.036
Mof_C 	C 	0.79447	0.61443	0.70833	-0.093
Mof_H 	H 	0.77587	0.61733	0.73203	0.061
Mof_C 	C 	0.85167	0.60573	0.63713	0.032
Mof_C 	C 	0.67997	0.60083	0.63553	0.103
Mof_H 	H 	0.66717	0.61543	0.64963	0.009
Mof_C 	C 	0.91837	0.88583	0.11423	-0.192
Mof_H 	H 	0.90817	0.90053	0.13493	0.098
Mof_C 	C 	0.96567	0.88456	0.04723	-0.19
Mof_H 	H 	0.98847	0.89863	0.02293	0.101
Mof_C 	C 	0.71787	0.60863	0.65603	-0.163
Mof_H 	H 	0.72957	0.62663	0.68643	0.087
Mof_C 	C 	0.78307	0.60143	0.65233	0.022
Mof_C 	C 	0.89797	0.84163	0.11893	0.127
Mof_H 	H 	0.87577	0.82753	0.14423	-0.008
Mof_C 	C 	0.89027	0.77173	0.09183	0.526
Mof_C 	C 	0.71987	0.56093	0.59013	-0.159
Mof_H 	H 	0.73317	0.54703	0.57513	0.085
Mof_C 	C 	0.02137	0.97733	0.07803	0.023
Mof_C 	C 	0.61637	0.55979	0.57453	0.49
Mof_C 	C 	0.97756	0.95543	0.07863	-0.067
Mof_C 	C 	0.95287	0.90845	0.08033	0.126
Mof_C 	C 	0.68087	0.55169	0.56953	0.095
Mof_H 	H 	0.66867	0.53283	0.54003	0.005
Mof_C 	C 	0.66007	0.57079	0.59303	-0.187
Mof_C 	C 	0.94497	0.84087	0.05023	0.128
Mof_H 	H 	0.95387	0.82573	0.02833	-0.002
Mof_C 	C 	0.91037	0.81923	0.08663	-0.219
Mof_C 	C 	0.88827	0.66663	0.80233	-0.103
Mof_H 	H 	0.90967	0.67883	0.77573	0.071
Mof_C 	C 	0.90447	0.59623	0.50483	0.059
Mof_H 	H 	0.90497	0.60203	0.46693	0.028
Mof_C 	C 	0.92487	0.56953	0.57903	0.054
Mof_H 	H 	0.94047	0.55733	0.59153	0.008
Mof_C 	C 	0.89867	0.67823	0.85773	0.026
Mof_H 	H 	0.92677	0.69593	0.86823	0.036
Mof_C 	C 	0.84737	0.63783	0.78453	0.038
Mof_C 	C 	0.82777	0.63723	0.88373	0.009
Mof_H 	H 	0.80747	0.62743	0.91203	0.042
Mof_C 	C 	0.87967	0.67933	0.95863	0.389
Mof_C 	C 	0.81567	0.62363	0.82383	-0.094
Mof_H 	H 	0.78747	0.60603	0.81373	0.062
Mof_C 	C 	0.92547	0.57703	0.52413	-0.134
Mof_C 	C 	0.86857	0.66383	0.89433	-0.081
Mof_C 	C 	0.94567	0.55943	0.48223	0.452
Mof_Co	Co	0.84347	0.71333	0.17313	0.896
Mof_In	In	0.91212	0.70458	0.07406	0.853
Mof_In	In	0.55977	0.02611	0.39608	1.404
Mof_Co	Co	0.48121	0.03006	0.48337	0.832
Mof_O 	O 	0.53583	0.08779	0.46957	-0.708
Mof_O 	O 	0.58235	0.03309	0.30457	-0.474
Mof_O 	O 	0.26415	0.90553	0.93821	-0.607
Mof_O 	O 	0.56449	0.08623	0.38759	-0.645
Mof_O 	O 	0.26933	0.87168	0.86306	-0.538
Mof_O 	O 	0.63863	0.88437	0.83807	-0.601
Mof_O 	O 	0.51583	0.99712	0.32184	-0.467
Mof_O 	O 	0.50487	0.99503	0.44453	-0.883
Mof_O 	O 	0.60563	0.89307	0.76737	-0.76
Mof_C 	C 	0.56863	0.91217	0.95277	-0.124
Mof_H 	H 	0.56863	0.90587	0.99047	0.071
Mof_C 	C 	0.52823	0.95027	0.02587	-0.102
Mof_H 	H 	0.55363	0.95377	0.03987	0.066
Mof_C 	C 	0.54803	0.94127	0.87617	-0.127
Mof_H 	H 	0.53453	0.95547	0.86277	0.075
Mof_C 	C 	0.40633	0.92307	0.96537	0.082
Mof_C 	C 	0.54573	0.93167	0.93147	0.052
Mof_C 	C 	0.47903	0.93167	0.95067	-0.093
Mof_H 	H 	0.47213	0.92447	0.91337	0.063
Mof_C 	C 	0.50163	0.95637	0.06147	0.036
Mof_C 	C 	0.46113	0.94777	0.04167	-0.092
Mof_H 	H 	0.44253	0.95067	0.06537	0.061
Mof_C 	C 	0.51833	0.93907	0.97047	0.03
Mof_C 	C 	0.34663	0.93417	0.96887	0.104
Mof_H 	H 	0.33383	0.94877	0.98297	0.008
Mof_C 	C 	0.58503	0.21917	0.44757	-0.191
Mof_H 	H 	0.57483	0.23387	0.46827	0.098
Mof_C 	C 	0.63233	0.2179	0.38057	-0.19
Mof_H 	H 	0.65513	0.23197	0.35627	0.101
Mof_C 	C 	0.38453	0.94197	0.98937	-0.166
Mof_H 	H 	0.39623	0.95997	0.01977	0.089
Mof_C 	C 	0.44973	0.93477	0.98567	0.02
Mof_C 	C 	0.56463	0.17497	0.45227	0.127
Mof_H 	H 	0.54243	0.16087	0.47757	-0.008
Mof_C 	C 	0.55693	0.10507	0.42517	0.526
Mof_C 	C 	0.38653	0.89427	0.92347	-0.16
Mof_H 	H 	0.39983	0.88037	0.90847	0.085
Mof_C 	C 	0.68803	0.31067	0.41137	0.022
Mof_C 	C 	0.28303	0.89313	0.90787	0.491
Mof_C 	C 	0.64422	0.28877	0.41197	-0.065
Mof_C 	C 	0.61953	0.24179	0.41367	0.126
Mof_C 	C 	0.34753	0.88503	0.90287	0.097
Mof_H 	H 	0.33533	0.86617	0.87337	0.005
Mof_C 	C 	0.32673	0.90413	0.92637	-0.189
Mof_C 	C 	0.61163	0.17421	0.38357	0.128
Mof_H 	H 	0.62053	0.15907	0.36167	-0.002
Mof_C 	C 	0.57703	0.15257	0.41997	-0.219
Mof_C 	C 	0.55493	0.99997	0.13567	-0.1
Mof_H 	H 	0.57633	0.01217	0.10907	0.07
Mof_C 	C 	0.57113	0.92957	0.83817	0.059
Mof_H 	H 	0.57163	0.93537	0.80027	0.028
Mof_C 	C 	0.59153	0.90287	0.91237	0.054
Mof_H 	H 	0.60713	0.89067	0.92487	0.007
Mof_C 	C 	0.56533	0.01157	0.19107	0.023
Mof_H 	H 	0.59343	0.02927	0.20157	0.037
Mof_C 	C 	0.51403	0.97117	0.11787	0.036
Mof_C 	C 	0.49443	0.97057	0.21707	0.007
Mof_H 	H 	0.47413	0.96077	0.24537	0.043
Mof_C 	C 	0.54633	0.01267	0.29197	0.388
Mof_C 	C 	0.48233	0.95697	0.15717	-0.092
Mof_H 	H 	0.45413	0.93937	0.14707	0.061
Mof_C 	C 	0.59213	0.91037	0.85747	-0.135
Mof_C 	C 	0.53523	0.99717	0.22767	-0.079
Mof_C 	C 	0.61233	0.89277	0.81557	0.452
Mof_Co	Co	0.51013	0.04667	0.50647	0.896
Mof_In	In	0.57878	0.03792	0.4074	0.854
Mof_In	In	0.64055	0.86699	0.72941	1.404
Mof_Co	Co	0.63661	0.78449	0.8167	0.832
Mof_O 	O 	0.57888	0.78138	0.8029	-0.708
Mof_O 	O 	0.63358	0.8826	0.6379	-0.474
Mof_O 	O 	0.76114	0.69196	0.27154	-0.606
Mof_O 	O 	0.58044	0.8116	0.72092	-0.645
Mof_O 	O 	0.79499	0.73099	0.19639	-0.538
Mof_O 	O 	0.7823	0.0876	0.1714	-0.601
Mof_O 	O 	0.66955	0.85205	0.65517	-0.468
Mof_O 	O 	0.67164	0.84318	0.77786	-0.883
Mof_O 	O 	0.7736	0.0459	0.1007	-0.76
Mof_C 	C 	0.7545	0.9898	0.2861	-0.124
Mof_H 	H 	0.7608	0.9961	0.3238	0.071
Mof_C 	C 	0.7164	0.9113	0.3592	-0.103
Mof_H 	H 	0.7129	0.9332	0.3732	0.066
Mof_C 	C 	0.7254	0.9401	0.2095	-0.127
Mof_H 	H 	0.7112	0.9124	0.1961	0.075
Mof_C 	C 	0.7436	0.8166	0.2987	0.081
Mof_C 	C 	0.735	0.9474	0.2648	0.052
Mof_C 	C 	0.735	0.8807	0.284	-0.094
Mof_H 	H 	0.7422	0.881	0.2467	0.064
Mof_C 	C 	0.7103	0.8786	0.3948	0.036
Mof_C 	C 	0.7189	0.8467	0.375	-0.093
Mof_H 	H 	0.716	0.8252	0.3987	0.061
Mof_C 	C 	0.7276	0.9126	0.3038	0.032
Mof_C 	C 	0.7325	0.7458	0.3022	0.103
Mof_H 	H 	0.7179	0.7184	0.3163	0.009
Mof_C 	C 	0.4475	0.6992	0.7809	-0.191
Mof_H 	H 	0.4328	0.6743	0.8016	0.098
Mof_C 	C 	0.44877	0.74777	0.7139	-0.19
Mof_H 	H 	0.4347	0.7565	0.6896	0.101
Mof_C 	C 	0.7247	0.7759	0.3227	-0.163
Mof_H 	H 	0.7067	0.7696	0.3531	0.087
Mof_C 	C 	0.7319	0.8483	0.319	0.022
Mof_C 	C 	0.4917	0.723	0.7856	0.127
Mof_H 	H 	0.5058	0.7149	0.8109	-0.008
Mof_C 	C 	0.5616	0.7852	0.7585	0.526
Mof_C 	C 	0.7724	0.8256	0.2568	-0.159
Mof_H 	H 	0.7863	0.8528	0.2418	0.085
Mof_C 	C 	0.356	0.7107	0.7447	0.022
Mof_C 	C 	0.77354	0.72324	0.2412	0.49
Mof_C 	C 	0.3779	0.68879	0.7453	-0.065
Mof_C 	C 	0.42488	0.71108	0.747	0.125
Mof_C 	C 	0.78164	0.79584	0.2362	0.095
Mof_H 	H 	0.8005	0.8025	0.2067	0.005
Mof_C 	C 	0.76254	0.75594	0.2597	-0.187
Mof_C 	C 	0.49246	0.77076	0.7169	0.128
Mof_H 	H 	0.5076	0.7948	0.695	-0.002
Mof_C 	C 	0.5141	0.7578	0.7533	-0.219
Mof_C 	C 	0.6667	0.8883	0.469	-0.103
Mof_H 	H 	0.6545	0.8975	0.4424	0.071
Mof_C 	C 	0.7371	0.9749	0.1715	0.059
Mof_H 	H 	0.7313	0.9696	0.1336	0.028
Mof_C 	C 	0.7638	0.022	0.2457	0.054
Mof_H 	H 	0.776	0.0498	0.2582	0.008
Mof_C 	C 	0.6551	0.8871	0.5244	0.026
Mof_H 	H 	0.6374	0.8975	0.5349	0.036
Mof_C 	C 	0.6955	0.8762	0.4512	0.038
Mof_C 	C 	0.6961	0.8572	0.5504	0.009
Mof_H 	H 	0.7059	0.8467	0.5787	0.042
Mof_C 	C 	0.654	0.867	0.6253	0.389
Mof_C 	C 	0.7097	0.8587	0.4905	-0.094
Mof_H 	H 	0.7273	0.8481	0.4804	0.062
Mof_C 	C 	0.7563	0.0151	0.1908	-0.135
Mof_C 	C 	0.6695	0.8714	0.561	-0.081
Mof_C 	C 	0.7739	0.0529	0.1489	0.452
Mof_Co	Co	0.62	0.7968	0.8398	0.896
Mof_In	In	0.62875	0.8742	0.74073	0.854
Mof_In	In	0.30722	0.20033	0.06274	1.404
Mof_Co	Co	0.30328	0.11782	0.15003	0.832
Mof_O 	O 	0.24555	0.11471	0.13623	-0.708
Mof_O 	O 	0.30025	0.21593	0.97123	-0.474
Mof_O 	O 	0.42781	0.02529	0.60487	-0.606
Mof_O 	O 	0.24711	0.14493	0.05425	-0.645
Mof_O 	O 	0.46166	0.06432	0.52972	-0.538
Mof_O 	O 	0.44897	0.42093	0.50473	-0.601
Mof_O 	O 	0.33622	0.18538	0.9885	-0.467
Mof_O 	O 	0.33831	0.17651	0.11119	-0.883
Mof_O 	O 	0.44027	0.37923	0.43403	-0.76
Mof_C 	C 	0.42117	0.32313	0.61943	-0.124
Mof_H 	H 	0.42747	0.32943	0.65713	0.072
Mof_C 	C 	0.38307	0.24463	0.69253	-0.103
Mof_H 	H 	0.37957	0.26653	0.70653	0.066
Mof_C 	C 	0.39207	0.27343	0.54283	-0.127
Mof_H 	H 	0.37787	0.24573	0.52943	0.075
Mof_C 	C 	0.41027	0.14993	0.63203	0.081
Mof_C 	C 	0.40167	0.28073	0.59813	0.052
Mof_C 	C 	0.40167	0.21403	0.61733	-0.094
Mof_H 	H 	0.40887	0.21433	0.58003	0.064
Mof_C 	C 	0.37697	0.21193	0.72813	0.036
Mof_C 	C 	0.38557	0.18003	0.70833	-0.093
Mof_H 	H 	0.38267	0.15853	0.73203	0.061
Mof_C 	C 	0.39427	0.24593	0.63713	0.032
Mof_C 	C 	0.39917	0.07913	0.63553	0.103
Mof_H 	H 	0.38457	0.05173	0.64963	0.009
Mof_C 	C 	0.11417	0.03253	0.11423	-0.192
Mof_H 	H 	0.09947	0.00763	0.13493	0.098
Mof_C 	C 	0.11544	0.0811	0.04723	-0.19
Mof_H 	H 	0.10137	0.08983	0.02293	0.101
Mof_C 	C 	0.39137	0.10923	0.65603	-0.163
Mof_H 	H 	0.37337	0.10293	0.68643	0.087
Mof_C 	C 	0.39857	0.18163	0.65233	0.022
Mof_C 	C 	0.15837	0.05633	0.11893	0.127
Mof_H 	H 	0.17247	0.04823	0.14423	-0.008
Mof_C 	C 	0.22827	0.11853	0.09183	0.526
Mof_C 	C 	0.43907	0.15893	0.59013	-0.159
Mof_H 	H 	0.45297	0.18613	0.57513	0.085
Mof_C 	C 	0.02267	0.04403	0.07803	0.023
Mof_C 	C 	0.44021	0.05657	0.57453	0.49
Mof_C 	C 	0.04457	0.02212	0.07863	-0.067
Mof_C 	C 	0.09155	0.04441	0.08033	0.126
Mof_C 	C 	0.44831	0.12917	0.56953	0.095
Mof_H 	H 	0.46717	0.13583	0.54003	0.005
Mof_C 	C 	0.42921	0.08927	0.59303	-0.187
Mof_C 	C 	0.15913	0.10409	0.05023	0.128
Mof_H 	H 	0.17427	0.12813	0.02833	-0.002
Mof_C 	C 	0.18077	0.09113	0.08663	-0.219
Mof_C 	C 	0.33337	0.22163	0.80233	-0.103
Mof_H 	H 	0.32117	0.23083	0.77573	0.071
Mof_C 	C 	0.40377	0.30823	0.50483	0.059
Mof_H 	H 	0.39797	0.30293	0.46693	0.028
Mof_C 	C 	0.43047	0.35533	0.57903	0.054
Mof_H 	H 	0.44267	0.38313	0.59153	0.008
Mof_C 	C 	0.32177	0.22043	0.85773	0.026
Mof_H 	H 	0.30407	0.23083	0.86823	0.036
Mof_C 	C 	0.36217	0.20953	0.78453	0.038
Mof_C 	C 	0.36277	0.19053	0.88373	0.009
Mof_H 	H 	0.37257	0.18003	0.91203	0.042
Mof_C 	C 	0.32067	0.20033	0.95863	0.389
Mof_C 	C 	0.37637	0.19203	0.82383	-0.094
Mof_H 	H 	0.39397	0.18143	0.81373	0.062
Mof_C 	C 	0.42297	0.34843	0.52413	-0.134
Mof_C 	C 	0.33617	0.20473	0.89433	-0.081
Mof_C 	C 	0.44057	0.38623	0.48223	0.452
Mof_Co	Co	0.28667	0.13013	0.17313	0.896
Mof_In	In	0.29542	0.20753	0.07406	0.854
Mof_In	In	0.97389	0.53366	0.39608	1.405
Mof_Co	Co	0.96994	0.45116	0.48337	0.832
Mof_O 	O 	0.91221	0.44805	0.46957	-0.708
Mof_O 	O 	0.96691	0.54927	0.30457	-0.474
Mof_O 	O 	0.09447	0.35863	0.93821	-0.606
Mof_O 	O 	0.91377	0.47827	0.38759	-0.645
Mof_O 	O 	0.12832	0.39766	0.86306	-0.538
Mof_O 	O 	0.11563	0.75427	0.83807	-0.601
Mof_O 	O 	0.00288	0.51872	0.32184	-0.467
Mof_O 	O 	0.00497	0.50985	0.44453	-0.883
Mof_O 	O 	0.10693	0.71257	0.76737	-0.76
Mof_C 	C 	0.08783	0.65647	0.95277	-0.124
Mof_H 	H 	0.09413	0.66277	0.99047	0.071
Mof_C 	C 	0.04973	0.57797	0.02587	-0.102
Mof_H 	H 	0.04623	0.59987	0.03987	0.066
Mof_C 	C 	0.05873	0.60677	0.87617	-0.127
Mof_H 	H 	0.04453	0.57907	0.86277	0.075
Mof_C 	C 	0.07693	0.48327	0.96537	0.082
Mof_C 	C 	0.06833	0.61407	0.93147	0.053
Mof_C 	C 	0.06833	0.54737	0.95067	-0.093
Mof_H 	H 	0.07553	0.54767	0.91337	0.063
Mof_C 	C 	0.04363	0.54527	0.06147	0.036
Mof_C 	C 	0.05223	0.51337	0.04167	-0.092
Mof_H 	H 	0.04933	0.49187	0.06537	0.061
Mof_C 	C 	0.06093	0.57927	0.97047	0.03
Mof_C 	C 	0.06583	0.41247	0.96887	0.104
Mof_H 	H 	0.05123	0.38507	0.98297	0.008
Mof_C 	C 	0.78083	0.36587	0.44757	-0.191
Mof_H 	H 	0.76613	0.34097	0.46827	0.098
Mof_C 	C 	0.7821	0.41444	0.38057	-0.19
Mof_H 	H 	0.76803	0.42317	0.35627	0.101
Mof_C 	C 	0.05803	0.44257	0.98937	-0.165
Mof_H 	H 	0.04003	0.43627	0.01977	0.088
Mof_C 	C 	0.06523	0.51497	0.98567	0.02
Mof_C 	C 	0.82503	0.38967	0.45227	0.127
Mof_H 	H 	0.83913	0.38157	0.47757	-0.008
Mof_C 	C 	0.89493	0.45187	0.42517	0.526
Mof_C 	C 	0.10573	0.49227	0.92347	-0.16
Mof_H 	H 	0.11963	0.51947	0.90847	0.085
Mof_C 	C 	0.68933	0.37737	0.41137	0.022
Mof_C 	C 	0.10687	0.38991	0.90787	0.491
Mof_C 	C 	0.71123	0.35546	0.41197	-0.065
Mof_C 	C 	0.75821	0.37775	0.41367	0.126
Mof_C 	C 	0.11497	0.46251	0.90287	0.096
Mof_H 	H 	0.13383	0.46917	0.87337	0.005
Mof_C 	C 	0.09587	0.42261	0.92637	-0.188
Mof_C 	C 	0.82579	0.43743	0.38357	0.128
Mof_H 	H 	0.84093	0.46147	0.36167	-0.002
Mof_C 	C 	0.84743	0.42447	0.41997	-0.219
Mof_C 	C 	3e-05	0.55497	0.13567	-0.1
Mof_H 	H 	0.98783	0.56417	0.10907	0.07
Mof_C 	C 	0.07043	0.64157	0.83817	0.059
Mof_H 	H 	0.06463	0.63627	0.80027	0.028
Mof_C 	C 	0.09713	0.68867	0.91237	0.055
Mof_H 	H 	0.10933	0.71647	0.92487	0.007
Mof_C 	C 	0.98843	0.55377	0.19107	0.023
Mof_H 	H 	0.97073	0.56417	0.20157	0.037
Mof_C 	C 	0.02883	0.54287	0.11787	0.037
Mof_C 	C 	0.02943	0.52387	0.21707	0.007
Mof_H 	H 	0.03923	0.51337	0.24537	0.043
Mof_C 	C 	0.98733	0.53367	0.29197	0.388
Mof_C 	C 	0.04303	0.52537	0.15717	-0.093
Mof_H 	H 	0.06063	0.51477	0.14707	0.061
Mof_C 	C 	0.08963	0.68177	0.85747	-0.135
Mof_C 	C 	0.00283	0.53807	0.22767	-0.079
Mof_C 	C 	0.10723	0.71957	0.81557	0.452
Mof_Co	Co	0.95333	0.46347	0.50647	0.896
Mof_In	In	0.96208	0.54087	0.4074	0.853
Mof_In	In	0.86699	0.22644	0.27059	1.404
Mof_Co	Co	0.78449	0.14788	0.1833	0.832
Mof_O 	O 	0.78138	0.2025	0.1971	-0.708
Mof_O 	O 	0.8826	0.24902	0.3621	-0.474
Mof_O 	O 	0.69196	0.93082	0.72846	-0.606
Mof_O 	O 	0.8116	0.23116	0.27908	-0.645
Mof_O 	O 	0.73099	0.936	0.80361	-0.538
Mof_O 	O 	0.0876	0.3053	0.8286	-0.601
Mof_O 	O 	0.85205	0.1825	0.34483	-0.468
Mof_O 	O 	0.84318	0.17154	0.22214	-0.883
Mof_O 	O 	0.0459	0.2723	0.8993	-0.76
Mof_C 	C 	0.9898	0.2353	0.7139	-0.124
Mof_H 	H 	0.9961	0.2353	0.6762	0.071
Mof_C 	C 	0.9113	0.1949	0.6408	-0.103
Mof_H 	H 	0.9332	0.2203	0.6268	0.066
Mof_C 	C 	0.9401	0.2147	0.7905	-0.127
Mof_H 	H 	0.9124	0.2012	0.8039	0.075
Mof_C 	C 	0.8166	0.073	0.7013	0.081
Mof_C 	C 	0.9474	0.2124	0.7352	0.052
Mof_C 	C 	0.8807	0.1457	0.716	-0.094
Mof_H 	H 	0.881	0.1388	0.7533	0.064
Mof_C 	C 	0.8786	0.1683	0.6052	0.036
Mof_C 	C 	0.8467	0.1278	0.625	-0.093
Mof_H 	H 	0.8252	0.1092	0.6013	0.061
Mof_C 	C 	0.9126	0.185	0.6962	0.031
Mof_C 	C 	0.7458	0.0133	0.6978	0.103
Mof_H 	H 	0.7184	0.0005	0.6837	0.008
Mof_C 	C 	0.6992	0.2517	0.2191	-0.191
Mof_H 	H 	0.6743	0.2415	0.1984	0.098
Mof_C 	C 	0.74777	0.299	0.2861	-0.19
Mof_H 	H 	0.7565	0.3218	0.3104	0.101
Mof_C 	C 	0.7759	0.0512	0.6773	-0.164
Mof_H 	H 	0.7696	0.0629	0.6469	0.088
Mof_C 	C 	0.8483	0.1164	0.681	0.021
Mof_C 	C 	0.723	0.2313	0.2144	0.127
Mof_H 	H 	0.7149	0.2091	0.1891	-0.008
Mof_C 	C 	0.7852	0.2236	0.2415	0.526
Mof_C 	C 	0.8256	0.0532	0.7432	-0.159
Mof_H 	H 	0.8528	0.0665	0.7582	0.085
Mof_C 	C 	0.7107	0.3547	0.2553	0.022
Mof_C 	C 	0.72324	0.9497	0.7588	0.491
Mof_C 	C 	0.68879	0.31089	0.2547	-0.065
Mof_C 	C 	0.71108	0.2862	0.253	0.125
Mof_C 	C 	0.79584	0.0142	0.7638	0.096
Mof_H 	H 	0.8025	0.002	0.7933	0.005
Mof_C 	C 	0.75594	0.9934	0.7403	-0.188
Mof_C 	C 	0.77076	0.2783	0.2831	0.128
Mof_H 	H 	0.7948	0.2872	0.305	-0.002
Mof_C 	C 	0.7578	0.2437	0.2467	-0.219
Mof_C 	C 	0.8883	0.2216	0.531	-0.103
Mof_H 	H 	0.8975	0.243	0.5576	0.072
Mof_C 	C 	0.9749	0.2378	0.8285	0.059
Mof_H 	H 	0.9696	0.2383	0.8664	0.028
Mof_C 	C 	0.022	0.2582	0.7543	0.054
Mof_H 	H 	0.0498	0.2738	0.7418	0.008
Mof_C 	C 	0.8871	0.232	0.4756	0.026
Mof_H 	H 	0.8975	0.2601	0.4651	0.036
Mof_C 	C 	0.8762	0.1807	0.5488	0.038
Mof_C 	C 	0.8572	0.1611	0.4496	0.009
Mof_H 	H 	0.8467	0.1408	0.4213	0.042
Mof_C 	C 	0.867	0.213	0.3747	0.389
Mof_C 	C 	0.8587	0.149	0.5095	-0.094
Mof_H 	H 	0.8481	0.1208	0.5196	0.062
Mof_C 	C 	0.0151	0.2588	0.8092	-0.135
Mof_C 	C 	0.8714	0.2019	0.439	-0.082
Mof_C 	C 	0.0529	0.279	0.8511	0.452
Mof_Co	Co	0.7968	0.1768	0.1602	0.896
Mof_In	In	0.8742	0.24545	0.25927	0.854
Mof_In	In	0.53366	0.55977	0.60392	1.404
Mof_Co	Co	0.45116	0.48121	0.51663	0.832
Mof_O 	O 	0.44805	0.53583	0.53043	-0.708
Mof_O 	O 	0.54927	0.58235	0.69543	-0.474
Mof_O 	O 	0.35863	0.26415	0.06179	-0.606
Mof_O 	O 	0.47827	0.56449	0.61241	-0.645
Mof_O 	O 	0.39766	0.26933	0.13694	-0.538
Mof_O 	O 	0.75427	0.63863	0.16193	-0.601
Mof_O 	O 	0.51872	0.51583	0.67816	-0.468
Mof_O 	O 	0.50985	0.50487	0.55547	-0.883
Mof_O 	O 	0.71257	0.60563	0.23263	-0.76
Mof_C 	C 	0.65647	0.56863	0.04723	-0.124
Mof_H 	H 	0.66277	0.56863	0.00953	0.071
Mof_C 	C 	0.57797	0.52823	0.97413	-0.103
Mof_H 	H 	0.59987	0.55363	0.96013	0.066
Mof_C 	C 	0.60677	0.54803	0.12383	-0.127
Mof_H 	H 	0.57907	0.53453	0.13723	0.075
Mof_C 	C 	0.48327	0.40633	0.03463	0.081
Mof_C 	C 	0.61407	0.54573	0.06853	0.052
Mof_C 	C 	0.54737	0.47903	0.04933	-0.094
Mof_H 	H 	0.54767	0.47213	0.08663	0.064
Mof_C 	C 	0.54527	0.50163	0.93853	0.036
Mof_C 	C 	0.51337	0.46113	0.95833	-0.093
Mof_H 	H 	0.49187	0.44253	0.93463	0.061
Mof_C 	C 	0.57927	0.51833	0.02953	0.031
Mof_C 	C 	0.41247	0.34663	0.03113	0.103
Mof_H 	H 	0.38507	0.33383	0.01703	0.009
Mof_C 	C 	0.36587	0.58503	0.55243	-0.191
Mof_H 	H 	0.34097	0.57483	0.53173	0.098
Mof_C 	C 	0.41444	0.63233	0.61943	-0.19
Mof_H 	H 	0.42317	0.65513	0.64373	0.101
Mof_C 	C 	0.44257	0.38453	0.01063	-0.164
Mof_H 	H 	0.43627	0.39623	0.98023	0.087
Mof_C 	C 	0.51497	0.44973	0.01433	0.021
Mof_C 	C 	0.38967	0.56463	0.54773	0.127
Mof_H 	H 	0.38157	0.54243	0.52243	-0.008
Mof_C 	C 	0.45187	0.55693	0.57483	0.526
Mof_C 	C 	0.49227	0.38653	0.07653	-0.159
Mof_H 	H 	0.51947	0.39983	0.09153	0.085
Mof_C 	C 	0.37737	0.68803	0.58863	0.022
Mof_C 	C 	0.38991	0.28303	0.09213	0.491
Mof_C 	C 	0.35546	0.64422	0.58803	-0.065
Mof_C 	C 	0.37775	0.61953	0.58633	0.126
Mof_C 	C 	0.46251	0.34753	0.09713	0.096
Mof_H 	H 	0.46917	0.33533	0.12663	0.005
Mof_C 	C 	0.42261	0.32673	0.07363	-0.188
Mof_C 	C 	0.43743	0.61163	0.61643	0.128
Mof_H 	H 	0.46147	0.62053	0.63833	-0.002
Mof_C 	C 	0.42447	0.57703	0.58003	-0.219
Mof_C 	C 	0.55497	0.55493	0.86433	-0.103
Mof_H 	H 	0.56417	0.57633	0.89093	0.072
Mof_C 	C 	0.64157	0.57113	0.16183	0.059
Mof_H 	H 	0.63627	0.57163	0.19973	0.028
Mof_C 	C 	0.68867	0.59153	0.08763	0.054
Mof_H 	H 	0.71647	0.60713	0.07513	0.008
Mof_C 	C 	0.55377	0.56533	0.80893	0.026
Mof_H 	H 	0.56417	0.59343	0.79843	0.036
Mof_C 	C 	0.54287	0.51403	0.88213	0.038
Mof_C 	C 	0.52387	0.49443	0.78293	0.009
Mof_H 	H 	0.51337	0.47413	0.75463	0.042
Mof_C 	C 	0.53367	0.54633	0.70803	0.389
Mof_C 	C 	0.52537	0.48233	0.84283	-0.094
Mof_H 	H 	0.51477	0.45413	0.85293	0.062
Mof_C 	C 	0.68177	0.59213	0.14253	-0.134
Mof_C 	C 	0.53807	0.53523	0.77233	-0.081
Mof_C 	C 	0.71957	0.61233	0.18443	0.452
Mof_Co	Co	0.46347	0.51013	0.49353	0.896
Mof_In	In	0.54087	0.57878	0.5926	0.854
Mof_In	In	0.20033	0.89311	0.93726	1.404
Mof_Co	Co	0.11782	0.81455	0.84997	0.832
Mof_O 	O 	0.11471	0.86917	0.86377	-0.708
Mof_O 	O 	0.21593	0.91569	0.02877	-0.474
Mof_O 	O 	0.02529	0.59749	0.39513	-0.606
Mof_O 	O 	0.14493	0.89783	0.94575	-0.645
Mof_O 	O 	0.06432	0.60267	0.47028	-0.538
Mof_O 	O 	0.42093	0.97197	0.49527	-0.601
Mof_O 	O 	0.18538	0.84917	0.0115	-0.467
Mof_O 	O 	0.17651	0.83821	0.88881	-0.883
Mof_O 	O 	0.37923	0.93897	0.56597	-0.76
Mof_C 	C 	0.32313	0.90197	0.38057	-0.124
Mof_H 	H 	0.32943	0.90197	0.34287	0.072
Mof_C 	C 	0.24463	0.86157	0.30747	-0.103
Mof_H 	H 	0.26653	0.88697	0.29347	0.066
Mof_C 	C 	0.27343	0.88137	0.45717	-0.127
Mof_H 	H 	0.24573	0.86787	0.47057	0.075
Mof_C 	C 	0.14993	0.73967	0.36797	0.081
Mof_C 	C 	0.28073	0.87907	0.40187	0.052
Mof_C 	C 	0.21403	0.81237	0.38267	-0.094
Mof_H 	H 	0.21433	0.80547	0.41997	0.064
Mof_C 	C 	0.21193	0.83497	0.27187	0.036
Mof_C 	C 	0.18003	0.79447	0.29167	-0.093
Mof_H 	H 	0.15853	0.77587	0.26797	0.061
Mof_C 	C 	0.24593	0.85167	0.36287	0.032
Mof_C 	C 	0.07913	0.67997	0.36447	0.103
Mof_H 	H 	0.05173	0.66717	0.35037	0.009
Mof_C 	C 	0.03253	0.91837	0.88577	-0.192
Mof_H 	H 	0.00763	0.90817	0.86507	0.098
Mof_C 	C 	0.0811	0.96567	0.95277	-0.19
Mof_H 	H 	0.08983	0.98847	0.97707	0.101
Mof_C 	C 	0.10923	0.71787	0.34397	-0.163
Mof_H 	H 	0.10293	0.72957	0.31357	0.087
Mof_C 	C 	0.18163	0.78307	0.34767	0.022
Mof_C 	C 	0.05633	0.89797	0.88107	0.127
Mof_H 	H 	0.04823	0.87577	0.85577	-0.008
Mof_C 	C 	0.11853	0.89027	0.90817	0.526
Mof_C 	C 	0.15893	0.71987	0.40987	-0.159
Mof_H 	H 	0.18613	0.73317	0.42487	0.085
Mof_C 	C 	0.04403	0.02137	0.92197	0.023
Mof_C 	C 	0.05657	0.61637	0.42547	0.49
Mof_C 	C 	0.02212	0.97756	0.92137	-0.067
Mof_C 	C 	0.04441	0.95287	0.91967	0.126
Mof_C 	C 	0.12917	0.68087	0.43047	0.095
Mof_H 	H 	0.13583	0.66867	0.45997	0.005
Mof_C 	C 	0.08927	0.66007	0.40697	-0.187
Mof_C 	C 	0.10409	0.94497	0.94977	0.128
Mof_H 	H 	0.12813	0.95387	0.97167	-0.002
Mof_C 	C 	0.09113	0.91037	0.91337	-0.219
Mof_C 	C 	0.22163	0.88827	0.19767	-0.103
Mof_H 	H 	0.23083	0.90967	0.22427	0.071
Mof_C 	C 	0.30823	0.90447	0.49517	0.059
Mof_H 	H 	0.30293	0.90497	0.53307	0.028
Mof_C 	C 	0.35533	0.92487	0.42097	0.054
Mof_H 	H 	0.38313	0.94047	0.40847	0.008
Mof_C 	C 	0.22043	0.89867	0.14227	0.026
Mof_H 	H 	0.23083	0.92677	0.13177	0.036
Mof_C 	C 	0.20953	0.84737	0.21547	0.038
Mof_C 	C 	0.19053	0.82777	0.11627	0.009
Mof_H 	H 	0.18003	0.80747	0.08797	0.042
Mof_C 	C 	0.20033	0.87967	0.04137	0.389
Mof_C 	C 	0.19203	0.81567	0.17617	-0.094
Mof_H 	H 	0.18143	0.78747	0.18627	0.062
Mof_C 	C 	0.34843	0.92547	0.47587	-0.134
Mof_C 	C 	0.20473	0.86857	0.10567	-0.081
Mof_C 	C 	0.38623	0.94567	0.51777	0.452
Mof_Co	Co	0.13013	0.84347	0.82687	0.896
Mof_In	In	0.20753	0.91212	0.92594	0.853
Mof_In	In	0.77356	0.64055	0.27059	1.404
Mof_Co	Co	0.85212	0.63661	0.1833	0.832
Mof_O 	O 	0.7975	0.57888	0.1971	-0.708
Mof_O 	O 	0.75098	0.63358	0.3621	-0.474
Mof_O 	O 	0.06918	0.76114	0.72846	-0.606
Mof_O 	O 	0.76884	0.58044	0.27908	-0.645
Mof_O 	O 	0.064	0.79499	0.80361	-0.538
Mof_O 	O 	0.6947	0.7823	0.8286	-0.601
Mof_O 	O 	0.8175	0.66955	0.34483	-0.468
Mof_O 	O 	0.82846	0.67164	0.22214	-0.883
Mof_O 	O 	0.7277	0.7736	0.8993	-0.76
Mof_C 	C 	0.7647	0.7545	0.7139	-0.124
Mof_H 	H 	0.7647	0.7608	0.6762	0.072
Mof_C 	C 	0.8051	0.7164	0.6408	-0.103
Mof_H 	H 	0.7797	0.7129	0.6268	0.066
Mof_C 	C 	0.7853	0.7254	0.7905	-0.127
Mof_H 	H 	0.7988	0.7112	0.8039	0.075
Mof_C 	C 	0.927	0.7436	0.7013	0.082
Mof_C 	C 	0.7876	0.735	0.7352	0.052
Mof_C 	C 	0.8543	0.735	0.716	-0.094
Mof_H 	H 	0.8612	0.7422	0.7533	0.064
Mof_C 	C 	0.8317	0.7103	0.6052	0.036
Mof_C 	C 	0.8722	0.7189	0.625	-0.093
Mof_H 	H 	0.8908	0.716	0.6013	0.061
Mof_C 	C 	0.815	0.7276	0.6962	0.031
Mof_C 	C 	0.9867	0.7325	0.6978	0.104
Mof_H 	H 	0.9995	0.7179	0.6837	0.008
Mof_C 	C 	0.7483	0.4475	0.2191	-0.191
Mof_H 	H 	0.7585	0.4328	0.1984	0.098
Mof_C 	C 	0.701	0.44877	0.2861	-0.19
Mof_H 	H 	0.6782	0.4347	0.3104	0.101
Mof_C 	C 	0.9488	0.7247	0.6773	-0.164
Mof_H 	H 	0.9371	0.7067	0.6469	0.088
Mof_C 	C 	0.8836	0.7319	0.681	0.021
Mof_C 	C 	0.7687	0.4917	0.2144	0.127
Mof_H 	H 	0.7909	0.5058	0.1891	-0.008
Mof_C 	C 	0.7764	0.5616	0.2415	0.526
Mof_C 	C 	0.9468	0.7724	0.7432	-0.159
Mof_H 	H 	0.9335	0.7863	0.7582	0.085
Mof_C 	C 	0.6453	0.356	0.2553	0.022
Mof_C 	C 	0.0503	0.77354	0.7588	0.491
Mof_C 	C 	0.68911	0.3779	0.2547	-0.065
Mof_C 	C 	0.7138	0.42488	0.253	0.125
Mof_C 	C 	0.9858	0.78164	0.7638	0.097
Mof_H 	H 	0.998	0.8005	0.7933	0.005
Mof_C 	C 	0.0066	0.76254	0.7403	-0.189
Mof_C 	C 	0.7217	0.49246	0.2831	0.128
Mof_H 	H 	0.7128	0.5076	0.305	-0.002
Mof_C 	C 	0.7563	0.5141	0.2467	-0.219
Mof_C 	C 	0.7784	0.6667	0.531	-0.103
Mof_H 	H 	0.757	0.6545	0.5576	0.072
Mof_C 	C 	0.7622	0.7371	0.8285	0.059
Mof_H 	H 	0.7617	0.7313	0.8664	0.028
Mof_C 	C 	0.7418	0.7638	0.7543	0.054
Mof_H 	H 	0.7262	0.776	0.7418	0.008
Mof_C 	C 	0.768	0.6551	0.4756	0.026
Mof_H 	H 	0.7399	0.6374	0.4651	0.036
Mof_C 	C 	0.8193	0.6955	0.5488	0.038
Mof_C 	C 	0.8389	0.6961	0.4496	0.009
Mof_H 	H 	0.8592	0.7059	0.4213	0.042
Mof_C 	C 	0.787	0.654	0.3747	0.389
Mof_C 	C 	0.851	0.7097	0.5095	-0.094
Mof_H 	H 	0.8792	0.7273	0.5196	0.062
Mof_C 	C 	0.7412	0.7563	0.8092	-0.134
Mof_C 	C 	0.7981	0.6695	0.439	-0.081
Mof_C 	C 	0.721	0.7739	0.8511	0.452
Mof_Co	Co	0.8232	0.62	0.1602	0.896
Mof_In	In	0.75455	0.62875	0.25927	0.854
Mof_In	In	0.44023	0.97389	0.60392	1.404
Mof_Co	Co	0.51879	0.96994	0.51663	0.832
Mof_O 	O 	0.46417	0.91221	0.53043	-0.708
Mof_O 	O 	0.41765	0.96691	0.69543	-0.474
Mof_O 	O 	0.73585	0.09447	0.06179	-0.607
Mof_O 	O 	0.43551	0.91377	0.61241	-0.645
Mof_O 	O 	0.73067	0.12832	0.13694	-0.538
Mof_O 	O 	0.36137	0.11563	0.16193	-0.601
Mof_O 	O 	0.48417	0.00288	0.67816	-0.467
Mof_O 	O 	0.49513	0.00497	0.55547	-0.883
Mof_O 	O 	0.39437	0.10693	0.23263	-0.76
Mof_C 	C 	0.43137	0.08783	0.04723	-0.124
Mof_H 	H 	0.43137	0.09413	0.00953	0.071
Mof_C 	C 	0.47177	0.04973	0.97413	-0.102
Mof_H 	H 	0.44637	0.04623	0.96013	0.066
Mof_C 	C 	0.45197	0.05873	0.12383	-0.127
Mof_H 	H 	0.46547	0.04453	0.13723	0.075
Mof_C 	C 	0.59367	0.07693	0.03463	0.082
Mof_C 	C 	0.45427	0.06833	0.06853	0.052
Mof_C 	C 	0.52097	0.06833	0.04933	-0.093
Mof_H 	H 	0.52787	0.07553	0.08663	0.063
Mof_C 	C 	0.49837	0.04363	0.93853	0.036
Mof_C 	C 	0.53887	0.05223	0.95833	-0.092
Mof_H 	H 	0.55747	0.04933	0.93463	0.061
Mof_C 	C 	0.48167	0.06093	0.02953	0.03
Mof_C 	C 	0.65337	0.06583	0.03113	0.104
Mof_H 	H 	0.66617	0.05123	0.01703	0.008
Mof_C 	C 	0.41497	0.78083	0.55243	-0.191
Mof_H 	H 	0.42517	0.76613	0.53173	0.098
Mof_C 	C 	0.36767	0.7821	0.61943	-0.19
Mof_H 	H 	0.34487	0.76803	0.64373	0.101
Mof_C 	C 	0.61547	0.05803	0.01063	-0.166
Mof_H 	H 	0.60377	0.04003	0.98023	0.089
Mof_C 	C 	0.55027	0.06523	0.01433	0.02
Mof_C 	C 	0.43537	0.82503	0.54773	0.127
Mof_H 	H 	0.45757	0.83913	0.52243	-0.008
Mof_C 	C 	0.44307	0.89493	0.57483	0.526
Mof_C 	C 	0.61347	0.10573	0.07653	-0.16
Mof_H 	H 	0.60017	0.11963	0.09153	0.085
Mof_C 	C 	0.31197	0.68933	0.58863	0.022
Mof_C 	C 	0.71697	0.10687	0.09213	0.491
Mof_C 	C 	0.35578	0.71123	0.58803	-0.065
Mof_C 	C 	0.38047	0.75821	0.58633	0.126
Mof_C 	C 	0.65247	0.11497	0.09713	0.097
Mof_H 	H 	0.66467	0.13383	0.12663	0.005
Mof_C 	C 	0.67327	0.09587	0.07363	-0.189
Mof_C 	C 	0.38837	0.82579	0.61643	0.128
Mof_H 	H 	0.37947	0.84093	0.63833	-0.002
Mof_C 	C 	0.42297	0.84743	0.58003	-0.219
Mof_C 	C 	0.44507	3e-05	0.86433	-0.1
Mof_H 	H 	0.42367	0.98783	0.89093	0.07
Mof_C 	C 	0.42887	0.07043	0.16183	0.059
Mof_H 	H 	0.42837	0.06463	0.19973	0.028
Mof_C 	C 	0.40847	0.09713	0.08763	0.054
Mof_H 	H 	0.39287	0.10933	0.07513	0.007
Mof_C 	C 	0.43467	0.98843	0.80893	0.023
Mof_H 	H 	0.40657	0.97073	0.79843	0.037
Mof_C 	C 	0.48597	0.02883	0.88213	0.036
Mof_C 	C 	0.50557	0.02943	0.78293	0.007
Mof_H 	H 	0.52587	0.03923	0.75463	0.043
Mof_C 	C 	0.45367	0.98733	0.70803	0.388
Mof_C 	C 	0.51767	0.04303	0.84283	-0.092
Mof_H 	H 	0.54587	0.06063	0.85293	0.061
Mof_C 	C 	0.40787	0.08963	0.14253	-0.135
Mof_C 	C 	0.46477	0.00283	0.77233	-0.079
Mof_C 	C 	0.38767	0.10723	0.18443	0.452
Mof_Co	Co	0.48987	0.95333	0.49353	0.896
Mof_In	In	0.42122	0.96208	0.5926	0.854
Mof_In	In	0.10689	0.30722	0.93726	1.404
Mof_Co	Co	0.18545	0.30328	0.84997	0.832
Mof_O 	O 	0.13083	0.24555	0.86377	-0.708
Mof_O 	O 	0.08431	0.30025	0.02877	-0.474
Mof_O 	O 	0.40251	0.42781	0.39513	-0.606
Mof_O 	O 	0.10217	0.24711	0.94575	-0.645
Mof_O 	O 	0.39733	0.46166	0.47028	-0.538
Mof_O 	O 	0.02803	0.44897	0.49527	-0.601
Mof_O 	O 	0.15083	0.33622	0.0115	-0.468
Mof_O 	O 	0.16179	0.33831	0.88881	-0.883
Mof_O 	O 	0.06103	0.44027	0.56597	-0.76
Mof_C 	C 	0.09803	0.42117	0.38057	-0.124
Mof_H 	H 	0.09803	0.42747	0.34287	0.072
Mof_C 	C 	0.13843	0.38307	0.30747	-0.103
Mof_H 	H 	0.11303	0.37957	0.29347	0.066
Mof_C 	C 	0.11863	0.39207	0.45717	-0.127
Mof_H 	H 	0.13213	0.37787	0.47057	0.075
Mof_C 	C 	0.26033	0.41027	0.36797	0.081
Mof_C 	C 	0.12093	0.40167	0.40187	0.052
Mof_C 	C 	0.18763	0.40167	0.38267	-0.094
Mof_H 	H 	0.19453	0.40887	0.41997	0.064
Mof_C 	C 	0.16503	0.37697	0.27187	0.036
Mof_C 	C 	0.20553	0.38557	0.29167	-0.093
Mof_H 	H 	0.22413	0.38267	0.26797	0.061
Mof_C 	C 	0.14833	0.39427	0.36287	0.032
Mof_C 	C 	0.32003	0.39917	0.36447	0.103
Mof_H 	H 	0.33283	0.38457	0.35037	0.009
Mof_C 	C 	0.08163	0.11417	0.88577	-0.192
Mof_H 	H 	0.09183	0.09947	0.86507	0.098
Mof_C 	C 	0.03433	0.11544	0.95277	-0.19
Mof_H 	H 	0.01153	0.10137	0.97707	0.101
Mof_C 	C 	0.28213	0.39137	0.34397	-0.163
Mof_H 	H 	0.27043	0.37337	0.31357	0.087
Mof_C 	C 	0.21693	0.39857	0.34767	0.022
Mof_C 	C 	0.10203	0.15837	0.88107	0.127
Mof_H 	H 	0.12423	0.17247	0.85577	-0.008
Mof_C 	C 	0.10973	0.22827	0.90817	0.526
Mof_C 	C 	0.28013	0.43907	0.40987	-0.159
Mof_H 	H 	0.26683	0.45297	0.42487	0.085
Mof_C 	C 	0.97863	0.02267	0.92197	0.023
Mof_C 	C 	0.38363	0.44021	0.42547	0.49
Mof_C 	C 	0.02244	0.04457	0.92137	-0.067
Mof_C 	C 	0.04713	0.09155	0.91967	0.126
Mof_C 	C 	0.31913	0.44831	0.43047	0.095
Mof_H 	H 	0.33133	0.46717	0.45997	0.005
Mof_C 	C 	0.33993	0.42921	0.40697	-0.187
Mof_C 	C 	0.05503	0.15913	0.94977	0.128
Mof_H 	H 	0.04613	0.17427	0.97167	-0.002
Mof_C 	C 	0.08963	0.18077	0.91337	-0.219
Mof_C 	C 	0.11173	0.33337	0.19767	-0.103
Mof_H 	H 	0.09033	0.32117	0.22427	0.071
Mof_C 	C 	0.09553	0.40377	0.49517	0.059
Mof_H 	H 	0.09503	0.39797	0.53307	0.028
Mof_C 	C 	0.07513	0.43047	0.42097	0.054
Mof_H 	H 	0.05953	0.44267	0.40847	0.008
Mof_C 	C 	0.10133	0.32177	0.14227	0.026
Mof_H 	H 	0.07323	0.30407	0.13177	0.036
Mof_C 	C 	0.15263	0.36217	0.21547	0.038
Mof_C 	C 	0.17223	0.36277	0.11627	0.009
Mof_H 	H 	0.19253	0.37257	0.08797	0.042
Mof_C 	C 	0.12033	0.32067	0.04137	0.389
Mof_C 	C 	0.18433	0.37637	0.17617	-0.094
Mof_H 	H 	0.21253	0.39397	0.18627	0.062
Mof_C 	C 	0.07453	0.42297	0.47587	-0.134
Mof_C 	C 	0.13143	0.33617	0.10567	-0.081
Mof_C 	C 	0.05433	0.44057	0.51777	0.452
Mof_Co	Co	0.15653	0.28667	0.82687	0.896
Mof_In	In	0.08788	0.29542	0.92594	0.853
Mof_In	In	0.35945	0.13301	0.27059	1.404
Mof_Co	Co	0.36339	0.21551	0.1833	0.832
Mof_O 	O 	0.42112	0.21862	0.1971	-0.708
Mof_O 	O 	0.36642	0.1174	0.3621	-0.474
Mof_O 	O 	0.23886	0.30804	0.72846	-0.606
Mof_O 	O 	0.41956	0.1884	0.27908	-0.645
Mof_O 	O 	0.20501	0.26901	0.80361	-0.538
Mof_O 	O 	0.2177	0.9124	0.8286	-0.601
Mof_O 	O 	0.33045	0.14795	0.34483	-0.468
Mof_O 	O 	0.32836	0.15682	0.22214	-0.883
Mof_O 	O 	0.2264	0.9541	0.8993	-0.76
Mof_C 	C 	0.2455	0.0102	0.7139	-0.124
Mof_H 	H 	0.2392	0.0039	0.6762	0.071
Mof_C 	C 	0.2836	0.0887	0.6408	-0.103
Mof_H 	H 	0.2871	0.0668	0.6268	0.066
Mof_C 	C 	0.2746	0.0599	0.7905	-0.127
Mof_H 	H 	0.2888	0.0876	0.8039	0.075
Mof_C 	C 	0.2564	0.1834	0.7013	0.081
Mof_C 	C 	0.265	0.0526	0.7352	0.052
Mof_C 	C 	0.265	0.1193	0.716	-0.094
Mof_H 	H 	0.2578	0.119	0.7533	0.064
Mof_C 	C 	0.2897	0.1214	0.6052	0.036
Mof_C 	C 	0.2811	0.1533	0.625	-0.093
Mof_H 	H 	0.284	0.1748	0.6013	0.061
Mof_C 	C 	0.2724	0.0874	0.6962	0.032
Mof_C 	C 	0.2675	0.2542	0.6978	0.103
Mof_H 	H 	0.2821	0.2816	0.6837	0.009
Mof_C 	C 	0.5525	0.3008	0.2191	-0.191
Mof_H 	H 	0.5672	0.3257	0.1984	0.098
Mof_C 	C 	0.55123	0.25223	0.2861	-0.19
Mof_H 	H 	0.5653	0.2435	0.3104	0.101
Mof_C 	C 	0.2753	0.2241	0.6773	-0.163
Mof_H 	H 	0.2933	0.2304	0.6469	0.087
Mof_C 	C 	0.2681	0.1517	0.681	0.022
Mof_C 	C 	0.5083	0.277	0.2144	0.127
Mof_H 	H 	0.4942	0.2851	0.1891	-0.008
Mof_C 	C 	0.4384	0.2148	0.2415	0.526
Mof_C 	C 	0.2276	0.1744	0.7432	-0.159
Mof_H 	H 	0.2137	0.1472	0.7582	0.085
Mof_C 	C 	0.644	0.2893	0.2553	0.022
Mof_C 	C 	0.22646	0.27676	0.7588	0.49
Mof_C 	C 	0.6221	0.31121	0.2547	-0.065
Mof_C 	C 	0.57512	0.28892	0.253	0.125
Mof_C 	C 	0.21836	0.20416	0.7638	0.095
Mof_H 	H 	0.1995	0.1975	0.7933	0.005
Mof_C 	C 	0.23746	0.24406	0.7403	-0.187
Mof_C 	C 	0.50754	0.22924	0.2831	0.128
Mof_H 	H 	0.4924	0.2052	0.305	-0.002
Mof_C 	C 	0.4859	0.2422	0.2467	-0.219
Mof_C 	C 	0.3333	0.1117	0.531	-0.103
Mof_H 	H 	0.3455	0.1025	0.5576	0.071
Mof_C 	C 	0.2629	0.0251	0.8285	0.059
Mof_H 	H 	0.2687	0.0304	0.8664	0.028
Mof_C 	C 	0.2362	0.978	0.7543	0.054
Mof_H 	H 	0.224	0.9502	0.7418	0.008
Mof_C 	C 	0.3449	0.1129	0.4756	0.026
Mof_H 	H 	0.3626	0.1025	0.4651	0.036
Mof_C 	C 	0.3045	0.1238	0.5488	0.038
Mof_C 	C 	0.3039	0.1428	0.4496	0.009
Mof_H 	H 	0.2941	0.1533	0.4213	0.042
Mof_C 	C 	0.346	0.133	0.3747	0.389
Mof_C 	C 	0.2903	0.1413	0.5095	-0.094
Mof_H 	H 	0.2727	0.1519	0.5196	0.062
Mof_C 	C 	0.2437	0.9849	0.8092	-0.135
Mof_C 	C 	0.3305	0.1286	0.439	-0.081
Mof_C 	C 	0.2261	0.9471	0.8511	0.452
Mof_Co	Co	0.38	0.2032	0.1602	0.896
Mof_In	In	0.37125	0.1258	0.25927	0.854
Mof_In	In	0.02611	0.46634	0.60392	1.405
Mof_Co	Co	0.03006	0.54884	0.51663	0.832
Mof_O 	O 	0.08779	0.55195	0.53043	-0.708
Mof_O 	O 	0.03309	0.45073	0.69543	-0.474
Mof_O 	O 	0.90553	0.64137	0.06179	-0.606
Mof_O 	O 	0.08623	0.52173	0.61241	-0.645
Mof_O 	O 	0.87168	0.60234	0.13694	-0.538
Mof_O 	O 	0.88437	0.24573	0.16193	-0.601
Mof_O 	O 	0.99712	0.48128	0.67816	-0.467
Mof_O 	O 	0.99503	0.49015	0.55547	-0.883
Mof_O 	O 	0.89307	0.28743	0.23263	-0.76
Mof_C 	C 	0.91217	0.34353	0.04723	-0.124
Mof_H 	H 	0.90587	0.33723	0.00953	0.071
Mof_C 	C 	0.95027	0.42203	0.97413	-0.102
Mof_H 	H 	0.95377	0.40013	0.96013	0.066
Mof_C 	C 	0.94127	0.39323	0.12383	-0.127
Mof_H 	H 	0.95547	0.42093	0.13723	0.075
Mof_C 	C 	0.92307	0.51673	0.03463	0.082
Mof_C 	C 	0.93167	0.38593	0.06853	0.053
Mof_C 	C 	0.93167	0.45263	0.04933	-0.093
Mof_H 	H 	0.92447	0.45233	0.08663	0.063
Mof_C 	C 	0.95637	0.45473	0.93853	0.036
Mof_C 	C 	0.94777	0.48663	0.95833	-0.092
Mof_H 	H 	0.95067	0.50813	0.93463	0.061
Mof_C 	C 	0.93907	0.42073	0.02953	0.03
Mof_C 	C 	0.93417	0.58753	0.03113	0.104
Mof_H 	H 	0.94877	0.61493	0.01703	0.008
Mof_C 	C 	0.21917	0.63413	0.55243	-0.191
Mof_H 	H 	0.23387	0.65903	0.53173	0.098
Mof_C 	C 	0.2179	0.58556	0.61943	-0.19
Mof_H 	H 	0.23197	0.57683	0.64373	0.101
Mof_C 	C 	0.94197	0.55743	0.01063	-0.165
Mof_H 	H 	0.95997	0.56373	0.98023	0.088
Mof_C 	C 	0.93477	0.48503	0.01433	0.02
Mof_C 	C 	0.17497	0.61033	0.54773	0.127
Mof_H 	H 	0.16087	0.61843	0.52243	-0.008
Mof_C 	C 	0.10507	0.54813	0.57483	0.526
Mof_C 	C 	0.89427	0.50773	0.07653	-0.16
Mof_H 	H 	0.88037	0.48053	0.09153	0.085
Mof_C 	C 	0.31067	0.62263	0.58863	0.022
Mof_C 	C 	0.89313	0.61009	0.09213	0.491
Mof_C 	C 	0.28877	0.64454	0.58803	-0.065
Mof_C 	C 	0.24179	0.62225	0.58633	0.126
Mof_C 	C 	0.88503	0.53749	0.09713	0.096
Mof_H 	H 	0.86617	0.53083	0.12663	0.005
Mof_C 	C 	0.90413	0.57739	0.07363	-0.188
Mof_C 	C 	0.17421	0.56257	0.61643	0.128
Mof_H 	H 	0.15907	0.53853	0.63833	-0.002
Mof_C 	C 	0.15257	0.57553	0.58003	-0.219
Mof_C 	C 	0.99997	0.44503	0.86433	-0.1
Mof_H 	H 	0.01217	0.43583	0.89093	0.07
Mof_C 	C 	0.92957	0.35843	0.16183	0.059
Mof_H 	H 	0.93537	0.36373	0.19973	0.028
Mof_C 	C 	0.90287	0.31133	0.08763	0.055
Mof_H 	H 	0.89067	0.28353	0.07513	0.007
Mof_C 	C 	0.01157	0.44623	0.80893	0.023
Mof_H 	H 	0.02927	0.43583	0.79843	0.037
Mof_C 	C 	0.97117	0.45713	0.88213	0.037
Mof_C 	C 	0.97057	0.47613	0.78293	0.007
Mof_H 	H 	0.96077	0.48663	0.75463	0.043
Mof_C 	C 	0.01267	0.46633	0.70803	0.388
Mof_C 	C 	0.95697	0.47463	0.84283	-0.093
Mof_H 	H 	0.93937	0.48523	0.85293	0.061
Mof_C 	C 	0.91037	0.31823	0.14253	-0.135
Mof_C 	C 	0.99717	0.46193	0.77233	-0.079
Mof_C 	C 	0.89277	0.28043	0.18443	0.452
Mof_Co	Co	0.04667	0.53653	0.49353	0.896
Mof_In	In	0.03792	0.45913	0.5926	0.853
Mof_In	In	0.69278	0.79967	0.93726	1.404
Mof_Co	Co	0.69672	0.88218	0.84997	0.832
Mof_O 	O 	0.75445	0.88529	0.86377	-0.708
Mof_O 	O 	0.69975	0.78407	0.02877	-0.474
Mof_O 	O 	0.57219	0.97471	0.39513	-0.606
Mof_O 	O 	0.75289	0.85507	0.94575	-0.645
Mof_O 	O 	0.53834	0.93568	0.47028	-0.538
Mof_O 	O 	0.55103	0.57907	0.49527	-0.601
Mof_O 	O 	0.66378	0.81462	0.0115	-0.467
Mof_O 	O 	0.66169	0.82349	0.88881	-0.883
Mof_O 	O 	0.55973	0.62077	0.56597	-0.76
Mof_C 	C 	0.57883	0.67687	0.38057	-0.124
Mof_H 	H 	0.57253	0.67057	0.34287	0.072
Mof_C 	C 	0.61693	0.75537	0.30747	-0.103
Mof_H 	H 	0.62043	0.73347	0.29347	0.066
Mof_C 	C 	0.60793	0.72657	0.45717	-0.127
Mof_H 	H 	0.62213	0.75427	0.47057	0.075
Mof_C 	C 	0.58973	0.85007	0.36797	0.081
Mof_C 	C 	0.59833	0.71927	0.40187	0.052
Mof_C 	C 	0.59833	0.78597	0.38267	-0.094
Mof_H 	H 	0.59113	0.78567	0.41997	0.064
Mof_C 	C 	0.62303	0.78807	0.27187	0.036
Mof_C 	C 	0.61443	0.81997	0.29167	-0.093
Mof_H 	H 	0.61733	0.84147	0.26797	0.061
Mof_C 	C 	0.60573	0.75407	0.36287	0.032
Mof_C 	C 	0.60083	0.92087	0.36447	0.103
Mof_H 	H 	0.61543	0.94827	0.35037	0.009
Mof_C 	C 	0.88583	0.96747	0.88577	-0.192
Mof_H 	H 	0.90053	0.99237	0.86507	0.098
Mof_C 	C 	0.88456	0.9189	0.95277	-0.19
Mof_H 	H 	0.89863	0.91017	0.97707	0.101
Mof_C 	C 	0.60863	0.89077	0.34397	-0.163
Mof_H 	H 	0.62663	0.89707	0.31357	0.087
Mof_C 	C 	0.60143	0.81837	0.34767	0.022
Mof_C 	C 	0.84163	0.94367	0.88107	0.127
Mof_H 	H 	0.82753	0.95177	0.85577	-0.008
Mof_C 	C 	0.77173	0.88147	0.90817	0.526
Mof_C 	C 	0.56093	0.84107	0.40987	-0.159
Mof_H 	H 	0.54703	0.81387	0.42487	0.085
Mof_C 	C 	0.97733	0.95597	0.92197	0.023
Mof_C 	C 	0.55979	0.94343	0.42547	0.49
Mof_C 	C 	0.95543	0.97788	0.92137	-0.067
Mof_C 	C 	0.90845	0.95559	0.91967	0.126
Mof_C 	C 	0.55169	0.87083	0.43047	0.095
Mof_H 	H 	0.53283	0.86417	0.45997	0.005
Mof_C 	C 	0.57079	0.91073	0.40697	-0.187
Mof_C 	C 	0.84087	0.89591	0.94977	0.128
Mof_H 	H 	0.82573	0.87187	0.97167	-0.002
Mof_C 	C 	0.81923	0.90887	0.91337	-0.219
Mof_C 	C 	0.66663	0.77837	0.19767	-0.103
Mof_H 	H 	0.67883	0.76917	0.22427	0.071
Mof_C 	C 	0.59623	0.69177	0.49517	0.059
Mof_H 	H 	0.60203	0.69707	0.53307	0.028
Mof_C 	C 	0.56953	0.64467	0.42097	0.054
Mof_H 	H 	0.55733	0.61687	0.40847	0.008
Mof_C 	C 	0.67823	0.77957	0.14227	0.026
Mof_H 	H 	0.69593	0.76917	0.13177	0.036
Mof_C 	C 	0.63783	0.79047	0.21547	0.038
Mof_C 	C 	0.63723	0.80947	0.11627	0.009
Mof_H 	H 	0.62743	0.81997	0.08797	0.042
Mof_C 	C 	0.67933	0.79967	0.04137	0.389
Mof_C 	C 	0.62363	0.80797	0.17617	-0.094
Mof_H 	H 	0.60603	0.81857	0.18627	0.062
Mof_C 	C 	0.57703	0.65157	0.47587	-0.134
Mof_C 	C 	0.66383	0.79527	0.10567	-0.081
Mof_C 	C 	0.55943	0.61377	0.51777	0.452
Mof_Co	Co	0.71333	0.86987	0.82687	0.896
Mof_In	In	0.70458	0.79247	0.92594	0.854
_end
