data_functionalizedCrystal
_audit_creation_method	'EQeq! by Chris Wilmer'
_symmetry_space_group_name_H-M	'P1'
_symmetry_Int_Tables_number	1
_symmetry_cell_setting	triclinic
loop_
_symmetry_equiv_pos_as_xyz
  x,y,z
_cell_length_a	18.5837
_cell_length_b	18.5837
_cell_length_c	53.135
_cell_angle_alpha	90
_cell_angle_beta	90
_cell_angle_gamma	90
loop_
_atom_site_label
_atom_site_type_symbol
_atom_site_fract_x
_atom_site_fract_y
_atom_site_fract_z
_atom_site_charge
Mof_H 	H 	0.27713	0.59836	0.41303	0.048
Mof_N 	N 	0.2205	0.5545	0.47303	-0.29
Mof_C 	C 	0.2223	0.5421	0.44677	0.09
Mof_C 	C 	0.2127	0.4284	0.39456	-0.061
Mof_C 	C 	0.2115	0.4301	0.36745	-0.033
Mof_C 	C 	0.2178	0.4838	0.32638	-0.03
Mof_C 	C 	0.2256	0.5494	0.31316	0.025
Mof_H 	H 	0.22392	0.60268	0.32378	0.035
Mof_C 	C 	0.2354	0.5505	0.28717	-0.128
Mof_C 	C 	0.2355	0.4871	0.27413	0.068
Mof_H 	H 	0.24634	0.48704	0.25301	0.041
Mof_C 	C 	0.2226	0.4227	0.28619	-0.107
Mof_C 	C 	0.216	0.4211	0.31244	0.018
Mof_H 	H 	0.20903	0.36752	0.3226	0.035
Mof_C 	C 	0.2232	0.3528	0.27255	0.339
Mof_C 	C 	0.245	0.6193	0.27475	0.374
Mof_O 	O 	0.2517	0.35555	0.25007	-0.394
Mof_O 	O 	0.1956	0.2986	0.28269	-0.402
Mof_O 	O 	0.2226	0.6748	0.28524	-0.414
Mof_O 	O 	0.2759	0.6189	0.25311	-0.406
Mof_H 	H 	0.10057	0.371	0.41454	0.047
Mof_H 	H 	0.13259	0.58885	0.40213	0.039
Mof_H 	H 	0.14907	0.59202	0.35497	0.037
Mof_N 	N 	0.1362	0.432	0.4725	-0.268
Mof_C 	C 	0.1849	0.4925	0.4358	-0.128
Mof_C 	C 	0.1471	0.4384	0.4464	0.084
Mof_C 	C 	0.104	0.3786	0.4358	-0.081
Mof_C 	C 	0.0775	0.3451	0.4528	0.002
Mof_C 	C 	0.0863	0.3614	0.4756	0.015
Mof_C 	C 	0.1946	0.4873	0.40681	0.049
Mof_C 	C 	0.1628	0.5434	0.39233	-0.053
Mof_C 	C 	0.2678	0.6158	0.4773	0.024
Mof_C 	C 	0.2924	0.6398	0.4523	0.005
Mof_C 	C 	0.2692	0.5989	0.4343	-0.079
Mof_C 	C 	0.1682	0.5434	0.36621	-0.035
Mof_C 	C 	0.1953	0.4878	0.3538	0.016
Mof_H 	H 	0.229	0.37703	0.40481	0.04
Mof_H 	H 	0.22507	0.37955	0.35626	0.035
Mof_H 	H 	0.72287	0.40164	0.41303	0.049
Mof_N 	N 	0.7795	0.4455	0.47303	-0.289
Mof_C 	C 	0.7777	0.4579	0.44677	0.091
Mof_C 	C 	0.7873	0.5716	0.39456	-0.06
Mof_C 	C 	0.7885	0.5699	0.36745	-0.032
Mof_C 	C 	0.7822	0.5162	0.32638	-0.029
Mof_C 	C 	0.7744	0.4506	0.31316	0.026
Mof_H 	H 	0.77608	0.39732	0.32378	0.036
Mof_C 	C 	0.7646	0.4495	0.28717	-0.127
Mof_C 	C 	0.7645	0.5129	0.27413	0.069
Mof_H 	H 	0.75366	0.51296	0.25301	0.042
Mof_C 	C 	0.7774	0.5773	0.28619	-0.106
Mof_C 	C 	0.784	0.5789	0.31244	0.019
Mof_H 	H 	0.79097	0.63248	0.3226	0.036
Mof_C 	C 	0.7768	0.6472	0.27255	0.34
Mof_C 	C 	0.755	0.3807	0.27475	0.375
Mof_O 	O 	0.7483	0.64445	0.25007	-0.394
Mof_O 	O 	0.8044	0.7014	0.28269	-0.402
Mof_O 	O 	0.7774	0.3252	0.28524	-0.414
Mof_O 	O 	0.7241	0.3811	0.25311	-0.406
Mof_H 	H 	0.89943	0.629	0.41454	0.047
Mof_H 	H 	0.86741	0.41115	0.40213	0.039
Mof_H 	H 	0.85093	0.40798	0.35497	0.037
Mof_N 	N 	0.8638	0.568	0.4725	-0.268
Mof_C 	C 	0.8151	0.5075	0.4358	-0.128
Mof_C 	C 	0.8529	0.5616	0.4464	0.084
Mof_C 	C 	0.896	0.6214	0.4358	-0.081
Mof_C 	C 	0.9225	0.6549	0.4528	0.002
Mof_C 	C 	0.9137	0.6386	0.4756	0.015
Mof_C 	C 	0.8054	0.5127	0.40681	0.049
Mof_C 	C 	0.8372	0.4566	0.39233	-0.053
Mof_C 	C 	0.7322	0.3842	0.4773	0.024
Mof_C 	C 	0.7076	0.3602	0.4523	0.005
Mof_C 	C 	0.7308	0.4011	0.4343	-0.079
Mof_C 	C 	0.8318	0.4566	0.36621	-0.035
Mof_C 	C 	0.8047	0.5122	0.3538	0.016
Mof_H 	H 	0.771	0.62297	0.40481	0.04
Mof_H 	H 	0.77493	0.62045	0.35626	0.035
Mof_H 	H 	0.90164	0.77713	0.91303	0.049
Mof_N 	N 	0.9455	0.7205	0.97303	-0.289
Mof_C 	C 	0.9579	0.7223	0.94677	0.091
Mof_C 	C 	0.0716	0.7127	0.89456	-0.06
Mof_C 	C 	0.0699	0.7115	0.86745	-0.032
Mof_C 	C 	0.0162	0.7178	0.82638	-0.029
Mof_C 	C 	0.9506	0.7256	0.81316	0.026
Mof_H 	H 	0.89732	0.72392	0.82378	0.036
Mof_C 	C 	0.9495	0.7354	0.78717	-0.127
Mof_C 	C 	0.0129	0.7355	0.77413	0.07
Mof_H 	H 	0.01296	0.74634	0.75301	0.042
Mof_C 	C 	0.0773	0.7226	0.78619	-0.106
Mof_C 	C 	0.0789	0.716	0.81244	0.019
Mof_H 	H 	0.13248	0.70903	0.8226	0.036
Mof_C 	C 	0.1472	0.7232	0.77255	0.34
Mof_C 	C 	0.8807	0.745	0.77475	0.375
Mof_O 	O 	0.14445	0.7517	0.75007	-0.394
Mof_O 	O 	0.2014	0.6956	0.78269	-0.402
Mof_O 	O 	0.8252	0.7226	0.78524	-0.414
Mof_O 	O 	0.8811	0.7759	0.75311	-0.406
Mof_H 	H 	0.129	0.60057	0.91454	0.047
Mof_H 	H 	0.91115	0.63259	0.90213	0.039
Mof_H 	H 	0.90798	0.64907	0.85497	0.037
Mof_N 	N 	0.068	0.6362	0.9725	-0.267
Mof_C 	C 	0.0075	0.6849	0.9358	-0.127
Mof_C 	C 	0.0616	0.6471	0.9464	0.084
Mof_C 	C 	0.1214	0.604	0.9358	-0.081
Mof_C 	C 	0.1549	0.5775	0.9528	0.001
Mof_C 	C 	0.1386	0.5863	0.9756	0.017
Mof_C 	C 	0.0127	0.6946	0.90681	0.05
Mof_C 	C 	0.9566	0.6628	0.89233	-0.053
Mof_C 	C 	0.8842	0.7678	0.9773	0.026
Mof_C 	C 	0.8602	0.7924	0.9523	0.005
Mof_C 	C 	0.9011	0.7692	0.9343	-0.079
Mof_C 	C 	0.9566	0.6682	0.86621	-0.035
Mof_C 	C 	0.0122	0.6953	0.8538	0.016
Mof_H 	H 	0.12297	0.729	0.90481	0.04
Mof_H 	H 	0.12045	0.72507	0.85626	0.035
Mof_H 	H 	0.09836	0.22287	0.91303	0.049
Mof_N 	N 	0.0545	0.2795	0.97303	-0.289
Mof_C 	C 	0.0421	0.2777	0.94677	0.091
Mof_C 	C 	0.9284	0.2873	0.89456	-0.06
Mof_C 	C 	0.9301	0.2885	0.86745	-0.032
Mof_C 	C 	0.9838	0.2822	0.82638	-0.029
Mof_C 	C 	0.0494	0.2744	0.81316	0.026
Mof_H 	H 	0.10268	0.27608	0.82378	0.036
Mof_C 	C 	0.0505	0.2646	0.78717	-0.127
Mof_C 	C 	0.9871	0.2645	0.77413	0.07
Mof_H 	H 	0.98704	0.25366	0.75301	0.042
Mof_C 	C 	0.9227	0.2774	0.78619	-0.106
Mof_C 	C 	0.9211	0.284	0.81244	0.019
Mof_H 	H 	0.86752	0.29097	0.8226	0.036
Mof_C 	C 	0.8528	0.2768	0.77255	0.34
Mof_C 	C 	0.1193	0.255	0.77475	0.375
Mof_O 	O 	0.85555	0.2483	0.75007	-0.394
Mof_O 	O 	0.7986	0.3044	0.78269	-0.402
Mof_O 	O 	0.1748	0.2774	0.78524	-0.414
Mof_O 	O 	0.1189	0.2241	0.75311	-0.406
Mof_H 	H 	0.871	0.39943	0.91454	0.047
Mof_H 	H 	0.08885	0.36741	0.90213	0.039
Mof_H 	H 	0.09202	0.35093	0.85497	0.037
Mof_N 	N 	0.932	0.3638	0.9725	-0.267
Mof_C 	C 	0.9925	0.3151	0.9358	-0.127
Mof_C 	C 	0.9384	0.3529	0.9464	0.084
Mof_C 	C 	0.8786	0.396	0.9358	-0.081
Mof_C 	C 	0.8451	0.4225	0.9528	0.001
Mof_C 	C 	0.8614	0.4137	0.9756	0.017
Mof_C 	C 	0.9873	0.3054	0.90681	0.05
Mof_C 	C 	0.0434	0.3372	0.89233	-0.053
Mof_C 	C 	0.1158	0.2322	0.9773	0.026
Mof_C 	C 	0.1398	0.2076	0.9523	0.005
Mof_C 	C 	0.0989	0.2308	0.9343	-0.079
Mof_C 	C 	0.0434	0.3318	0.86621	-0.035
Mof_C 	C 	0.9878	0.3047	0.8538	0.016
Mof_H 	H 	0.87703	0.271	0.90481	0.04
Mof_H 	H 	0.87955	0.27493	0.85626	0.035
Mof_H 	H 	0.22287	0.09836	0.08697	0.049
Mof_N 	N 	0.2795	0.0545	0.02697	-0.289
Mof_C 	C 	0.2777	0.0421	0.05323	0.091
Mof_C 	C 	0.2873	0.9284	0.10544	-0.06
Mof_C 	C 	0.2885	0.9301	0.13255	-0.032
Mof_C 	C 	0.2822	0.9838	0.17362	-0.029
Mof_C 	C 	0.2744	0.0494	0.18684	0.026
Mof_H 	H 	0.27608	0.10268	0.17622	0.036
Mof_C 	C 	0.2646	0.0505	0.21283	-0.127
Mof_C 	C 	0.2645	0.9871	0.22587	0.07
Mof_H 	H 	0.25366	0.98704	0.24699	0.042
Mof_C 	C 	0.2774	0.9227	0.21381	-0.106
Mof_C 	C 	0.284	0.9211	0.18756	0.019
Mof_H 	H 	0.29097	0.86752	0.1774	0.036
Mof_C 	C 	0.2768	0.8528	0.22745	0.34
Mof_C 	C 	0.255	0.1193	0.22525	0.375
Mof_O 	O 	0.2483	0.85555	0.24993	-0.394
Mof_O 	O 	0.3044	0.7986	0.21731	-0.402
Mof_O 	O 	0.2774	0.1748	0.21476	-0.414
Mof_O 	O 	0.2241	0.1189	0.24689	-0.406
Mof_H 	H 	0.39943	0.871	0.08546	0.047
Mof_H 	H 	0.36741	0.08885	0.09787	0.039
Mof_H 	H 	0.35093	0.09202	0.14503	0.037
Mof_N 	N 	0.3638	0.932	0.0275	-0.268
Mof_C 	C 	0.3151	0.9925	0.0642	-0.127
Mof_C 	C 	0.3529	0.9384	0.0536	0.084
Mof_C 	C 	0.396	0.8786	0.0642	-0.081
Mof_C 	C 	0.4225	0.8451	0.0472	0.002
Mof_C 	C 	0.4137	0.8614	0.0244	0.016
Mof_C 	C 	0.3054	0.9873	0.09319	0.05
Mof_C 	C 	0.3372	0.0434	0.10767	-0.053
Mof_C 	C 	0.2322	0.1158	0.0227	0.024
Mof_C 	C 	0.2076	0.1398	0.0477	0.005
Mof_C 	C 	0.2308	0.0989	0.0657	-0.079
Mof_C 	C 	0.3318	0.0434	0.13379	-0.035
Mof_C 	C 	0.3047	0.9878	0.1462	0.016
Mof_H 	H 	0.271	0.87703	0.09519	0.04
Mof_H 	H 	0.27493	0.87955	0.14374	0.035
Mof_H 	H 	0.77713	0.90164	0.08697	0.049
Mof_N 	N 	0.7205	0.9455	0.02697	-0.289
Mof_C 	C 	0.7223	0.9579	0.05323	0.091
Mof_C 	C 	0.7127	0.0716	0.10544	-0.06
Mof_C 	C 	0.7115	0.0699	0.13255	-0.032
Mof_C 	C 	0.7178	0.0162	0.17362	-0.029
Mof_C 	C 	0.7256	0.9506	0.18684	0.026
Mof_H 	H 	0.72392	0.89732	0.17622	0.036
Mof_C 	C 	0.7354	0.9495	0.21283	-0.127
Mof_C 	C 	0.7355	0.0129	0.22587	0.07
Mof_H 	H 	0.74634	0.01296	0.24699	0.042
Mof_C 	C 	0.7226	0.0773	0.21381	-0.106
Mof_C 	C 	0.716	0.0789	0.18756	0.019
Mof_H 	H 	0.70903	0.13248	0.1774	0.036
Mof_C 	C 	0.7232	0.1472	0.22745	0.34
Mof_C 	C 	0.745	0.8807	0.22525	0.375
Mof_O 	O 	0.7517	0.14445	0.24993	-0.394
Mof_O 	O 	0.6956	0.2014	0.21731	-0.402
Mof_O 	O 	0.7226	0.8252	0.21476	-0.414
Mof_O 	O 	0.7759	0.8811	0.24689	-0.406
Mof_H 	H 	0.60057	0.129	0.08546	0.047
Mof_H 	H 	0.63259	0.91115	0.09787	0.039
Mof_H 	H 	0.64907	0.90798	0.14503	0.037
Mof_N 	N 	0.6362	0.068	0.0275	-0.268
Mof_C 	C 	0.6849	0.0075	0.0642	-0.127
Mof_C 	C 	0.6471	0.0616	0.0536	0.084
Mof_C 	C 	0.604	0.1214	0.0642	-0.081
Mof_C 	C 	0.5775	0.1549	0.0472	0.002
Mof_C 	C 	0.5863	0.1386	0.0244	0.016
Mof_C 	C 	0.6946	0.0127	0.09319	0.05
Mof_C 	C 	0.6628	0.9566	0.10767	-0.053
Mof_C 	C 	0.7678	0.8842	0.0227	0.024
Mof_C 	C 	0.7924	0.8602	0.0477	0.005
Mof_C 	C 	0.7692	0.9011	0.0657	-0.079
Mof_C 	C 	0.6682	0.9566	0.13379	-0.035
Mof_C 	C 	0.6953	0.0122	0.1462	0.016
Mof_H 	H 	0.729	0.12297	0.09519	0.04
Mof_H 	H 	0.72507	0.12045	0.14374	0.035
Mof_H 	H 	0.59836	0.27713	0.58697	0.049
Mof_N 	N 	0.5545	0.2205	0.52697	-0.289
Mof_C 	C 	0.5421	0.2223	0.55323	0.091
Mof_C 	C 	0.4284	0.2127	0.60544	-0.06
Mof_C 	C 	0.4301	0.2115	0.63255	-0.032
Mof_C 	C 	0.4838	0.2178	0.67362	-0.029
Mof_C 	C 	0.5494	0.2256	0.68684	0.026
Mof_H 	H 	0.60268	0.22392	0.67622	0.036
Mof_C 	C 	0.5505	0.2354	0.71283	-0.127
Mof_C 	C 	0.4871	0.2355	0.72587	0.069
Mof_H 	H 	0.48704	0.24634	0.74699	0.042
Mof_C 	C 	0.4227	0.2226	0.71381	-0.106
Mof_C 	C 	0.4211	0.216	0.68756	0.019
Mof_H 	H 	0.36752	0.20903	0.6774	0.036
Mof_C 	C 	0.3528	0.2232	0.72745	0.34
Mof_C 	C 	0.6193	0.245	0.72525	0.375
Mof_O 	O 	0.35555	0.2517	0.74993	-0.394
Mof_O 	O 	0.2986	0.1956	0.71731	-0.402
Mof_O 	O 	0.6748	0.2226	0.71476	-0.414
Mof_O 	O 	0.6189	0.2759	0.74689	-0.406
Mof_H 	H 	0.371	0.10057	0.58546	0.047
Mof_H 	H 	0.58885	0.13259	0.59787	0.039
Mof_H 	H 	0.59202	0.14907	0.64503	0.037
Mof_N 	N 	0.432	0.1362	0.5275	-0.268
Mof_C 	C 	0.4925	0.1849	0.5642	-0.128
Mof_C 	C 	0.4384	0.1471	0.5536	0.084
Mof_C 	C 	0.3786	0.104	0.5642	-0.081
Mof_C 	C 	0.3451	0.0775	0.5472	0.002
Mof_C 	C 	0.3614	0.0863	0.5244	0.015
Mof_C 	C 	0.4873	0.1946	0.59319	0.049
Mof_C 	C 	0.5434	0.1628	0.60767	-0.053
Mof_C 	C 	0.6158	0.2678	0.5227	0.024
Mof_C 	C 	0.6398	0.2924	0.5477	0.005
Mof_C 	C 	0.5989	0.2692	0.5657	-0.079
Mof_C 	C 	0.5434	0.1682	0.63379	-0.035
Mof_C 	C 	0.4878	0.1953	0.6462	0.016
Mof_H 	H 	0.37703	0.229	0.59519	0.04
Mof_H 	H 	0.37955	0.22507	0.64374	0.035
Mof_H 	H 	0.40164	0.72287	0.58697	0.049
Mof_N 	N 	0.4455	0.7795	0.52697	-0.289
Mof_C 	C 	0.4579	0.7777	0.55323	0.091
Mof_C 	C 	0.5716	0.7873	0.60544	-0.06
Mof_C 	C 	0.5699	0.7885	0.63255	-0.032
Mof_C 	C 	0.5162	0.7822	0.67362	-0.029
Mof_C 	C 	0.4506	0.7744	0.68684	0.026
Mof_H 	H 	0.39732	0.77608	0.67622	0.036
Mof_C 	C 	0.4495	0.7646	0.71283	-0.127
Mof_C 	C 	0.5129	0.7645	0.72587	0.069
Mof_H 	H 	0.51296	0.75366	0.74699	0.042
Mof_C 	C 	0.5773	0.7774	0.71381	-0.106
Mof_C 	C 	0.5789	0.784	0.68756	0.019
Mof_H 	H 	0.63248	0.79097	0.6774	0.036
Mof_C 	C 	0.6472	0.7768	0.72745	0.34
Mof_C 	C 	0.3807	0.755	0.72525	0.375
Mof_O 	O 	0.64445	0.7483	0.74993	-0.394
Mof_O 	O 	0.7014	0.8044	0.71731	-0.402
Mof_O 	O 	0.3252	0.7774	0.71476	-0.414
Mof_O 	O 	0.3811	0.7241	0.74689	-0.406
Mof_H 	H 	0.629	0.89943	0.58546	0.047
Mof_H 	H 	0.41115	0.86741	0.59787	0.039
Mof_H 	H 	0.40798	0.85093	0.64503	0.037
Mof_N 	N 	0.568	0.8638	0.5275	-0.268
Mof_C 	C 	0.5075	0.8151	0.5642	-0.128
Mof_C 	C 	0.5616	0.8529	0.5536	0.084
Mof_C 	C 	0.6214	0.896	0.5642	-0.081
Mof_C 	C 	0.6549	0.9225	0.5472	0.002
Mof_C 	C 	0.6386	0.9137	0.5244	0.015
Mof_C 	C 	0.5127	0.8054	0.59319	0.049
Mof_C 	C 	0.4566	0.8372	0.60767	-0.053
Mof_C 	C 	0.3842	0.7322	0.5227	0.024
Mof_C 	C 	0.3602	0.7076	0.5477	0.005
Mof_C 	C 	0.4011	0.7308	0.5657	-0.079
Mof_C 	C 	0.4566	0.8318	0.63379	-0.035
Mof_C 	C 	0.5122	0.8047	0.6462	0.016
Mof_H 	H 	0.62297	0.771	0.59519	0.04
Mof_H 	H 	0.62045	0.77493	0.64374	0.035
Mof_H 	H 	0.72287	0.40164	0.58697	0.049
Mof_N 	N 	0.7795	0.4455	0.52697	-0.289
Mof_C 	C 	0.7777	0.4579	0.55323	0.091
Mof_C 	C 	0.7873	0.5716	0.60544	-0.06
Mof_C 	C 	0.7885	0.5699	0.63255	-0.032
Mof_C 	C 	0.7822	0.5162	0.67362	-0.029
Mof_C 	C 	0.7744	0.4506	0.68684	0.026
Mof_H 	H 	0.77608	0.39732	0.67622	0.036
Mof_C 	C 	0.7646	0.4495	0.71283	-0.127
Mof_C 	C 	0.7645	0.5129	0.72587	0.069
Mof_H 	H 	0.75366	0.51296	0.74699	0.042
Mof_C 	C 	0.7774	0.5773	0.71381	-0.106
Mof_C 	C 	0.784	0.5789	0.68756	0.019
Mof_H 	H 	0.79097	0.63248	0.6774	0.036
Mof_C 	C 	0.7768	0.6472	0.72745	0.34
Mof_C 	C 	0.755	0.3807	0.72525	0.375
Mof_O 	O 	0.7483	0.64445	0.74993	-0.394
Mof_O 	O 	0.8044	0.7014	0.71731	-0.402
Mof_O 	O 	0.7774	0.3252	0.71476	-0.414
Mof_O 	O 	0.7241	0.3811	0.74689	-0.406
Mof_H 	H 	0.89943	0.629	0.58546	0.047
Mof_H 	H 	0.86741	0.41115	0.59787	0.039
Mof_H 	H 	0.85093	0.40798	0.64503	0.037
Mof_N 	N 	0.8638	0.568	0.5275	-0.268
Mof_C 	C 	0.8151	0.5075	0.5642	-0.128
Mof_C 	C 	0.8529	0.5616	0.5536	0.084
Mof_C 	C 	0.896	0.6214	0.5642	-0.081
Mof_C 	C 	0.9225	0.6549	0.5472	0.002
Mof_C 	C 	0.9137	0.6386	0.5244	0.015
Mof_C 	C 	0.8054	0.5127	0.59319	0.049
Mof_C 	C 	0.8372	0.4566	0.60767	-0.053
Mof_C 	C 	0.7322	0.3842	0.5227	0.024
Mof_C 	C 	0.7076	0.3602	0.5477	0.005
Mof_C 	C 	0.7308	0.4011	0.5657	-0.079
Mof_C 	C 	0.8318	0.4566	0.63379	-0.035
Mof_C 	C 	0.8047	0.5122	0.6462	0.016
Mof_H 	H 	0.771	0.62297	0.59519	0.04
Mof_H 	H 	0.77493	0.62045	0.64374	0.035
Mof_H 	H 	0.27713	0.59836	0.58697	0.049
Mof_N 	N 	0.2205	0.5545	0.52697	-0.289
Mof_C 	C 	0.2223	0.5421	0.55323	0.091
Mof_C 	C 	0.2127	0.4284	0.60544	-0.06
Mof_C 	C 	0.2115	0.4301	0.63255	-0.032
Mof_C 	C 	0.2178	0.4838	0.67362	-0.029
Mof_C 	C 	0.2256	0.5494	0.68684	0.026
Mof_H 	H 	0.22392	0.60268	0.67622	0.036
Mof_C 	C 	0.2354	0.5505	0.71283	-0.127
Mof_C 	C 	0.2355	0.4871	0.72587	0.069
Mof_H 	H 	0.24634	0.48704	0.74699	0.042
Mof_C 	C 	0.2226	0.4227	0.71381	-0.106
Mof_C 	C 	0.216	0.4211	0.68756	0.019
Mof_H 	H 	0.20903	0.36752	0.6774	0.036
Mof_C 	C 	0.2232	0.3528	0.72745	0.34
Mof_C 	C 	0.245	0.6193	0.72525	0.375
Mof_O 	O 	0.2517	0.35555	0.74993	-0.394
Mof_O 	O 	0.1956	0.2986	0.71731	-0.402
Mof_O 	O 	0.2226	0.6748	0.71476	-0.414
Mof_O 	O 	0.2759	0.6189	0.74689	-0.406
Mof_H 	H 	0.10057	0.371	0.58546	0.047
Mof_H 	H 	0.13259	0.58885	0.59787	0.039
Mof_H 	H 	0.14907	0.59202	0.64503	0.037
Mof_N 	N 	0.1362	0.432	0.5275	-0.268
Mof_C 	C 	0.1849	0.4925	0.5642	-0.128
Mof_C 	C 	0.1471	0.4384	0.5536	0.084
Mof_C 	C 	0.104	0.3786	0.5642	-0.081
Mof_C 	C 	0.0775	0.3451	0.5472	0.002
Mof_C 	C 	0.0863	0.3614	0.5244	0.015
Mof_C 	C 	0.1946	0.4873	0.59319	0.049
Mof_C 	C 	0.1628	0.5434	0.60767	-0.053
Mof_C 	C 	0.2678	0.6158	0.5227	0.024
Mof_C 	C 	0.2924	0.6398	0.5477	0.005
Mof_C 	C 	0.2692	0.5989	0.5657	-0.079
Mof_C 	C 	0.1682	0.5434	0.63379	-0.035
Mof_C 	C 	0.1953	0.4878	0.6462	0.016
Mof_H 	H 	0.229	0.37703	0.59519	0.04
Mof_H 	H 	0.22507	0.37955	0.64374	0.035
Mof_H 	H 	0.09836	0.22287	0.08697	0.049
Mof_N 	N 	0.0545	0.2795	0.02697	-0.289
Mof_C 	C 	0.0421	0.2777	0.05323	0.091
Mof_C 	C 	0.9284	0.2873	0.10544	-0.06
Mof_C 	C 	0.9301	0.2885	0.13255	-0.032
Mof_C 	C 	0.9838	0.2822	0.17362	-0.029
Mof_C 	C 	0.0494	0.2744	0.18684	0.026
Mof_H 	H 	0.10268	0.27608	0.17622	0.036
Mof_C 	C 	0.0505	0.2646	0.21283	-0.127
Mof_C 	C 	0.9871	0.2645	0.22587	0.07
Mof_H 	H 	0.98704	0.25366	0.24699	0.042
Mof_C 	C 	0.9227	0.2774	0.21381	-0.106
Mof_C 	C 	0.9211	0.284	0.18756	0.019
Mof_H 	H 	0.86752	0.29097	0.1774	0.036
Mof_C 	C 	0.8528	0.2768	0.22745	0.34
Mof_C 	C 	0.1193	0.255	0.22525	0.375
Mof_O 	O 	0.85555	0.2483	0.24993	-0.394
Mof_O 	O 	0.7986	0.3044	0.21731	-0.402
Mof_O 	O 	0.1748	0.2774	0.21476	-0.414
Mof_O 	O 	0.1189	0.2241	0.24689	-0.406
Mof_H 	H 	0.871	0.39943	0.08546	0.047
Mof_H 	H 	0.08885	0.36741	0.09787	0.039
Mof_H 	H 	0.09202	0.35093	0.14503	0.037
Mof_N 	N 	0.932	0.3638	0.0275	-0.268
Mof_C 	C 	0.9925	0.3151	0.0642	-0.127
Mof_C 	C 	0.9384	0.3529	0.0536	0.084
Mof_C 	C 	0.8786	0.396	0.0642	-0.081
Mof_C 	C 	0.8451	0.4225	0.0472	0.002
Mof_C 	C 	0.8614	0.4137	0.0244	0.016
Mof_C 	C 	0.9873	0.3054	0.09319	0.05
Mof_C 	C 	0.0434	0.3372	0.10767	-0.053
Mof_C 	C 	0.1158	0.2322	0.0227	0.024
Mof_C 	C 	0.1398	0.2076	0.0477	0.005
Mof_C 	C 	0.0989	0.2308	0.0657	-0.079
Mof_C 	C 	0.0434	0.3318	0.13379	-0.035
Mof_C 	C 	0.9878	0.3047	0.1462	0.016
Mof_H 	H 	0.87703	0.271	0.09519	0.04
Mof_H 	H 	0.87955	0.27493	0.14374	0.035
Mof_H 	H 	0.90164	0.77713	0.08697	0.049
Mof_N 	N 	0.9455	0.7205	0.02697	-0.289
Mof_C 	C 	0.9579	0.7223	0.05323	0.091
Mof_C 	C 	0.0716	0.7127	0.10544	-0.06
Mof_C 	C 	0.0699	0.7115	0.13255	-0.032
Mof_C 	C 	0.0162	0.7178	0.17362	-0.029
Mof_C 	C 	0.9506	0.7256	0.18684	0.026
Mof_H 	H 	0.89732	0.72392	0.17622	0.036
Mof_C 	C 	0.9495	0.7354	0.21283	-0.127
Mof_C 	C 	0.0129	0.7355	0.22587	0.07
Mof_H 	H 	0.01296	0.74634	0.24699	0.042
Mof_C 	C 	0.0773	0.7226	0.21381	-0.106
Mof_C 	C 	0.0789	0.716	0.18756	0.019
Mof_H 	H 	0.13248	0.70903	0.1774	0.036
Mof_C 	C 	0.1472	0.7232	0.22745	0.34
Mof_C 	C 	0.8807	0.745	0.22525	0.375
Mof_O 	O 	0.14445	0.7517	0.24993	-0.394
Mof_O 	O 	0.2014	0.6956	0.21731	-0.402
Mof_O 	O 	0.8252	0.7226	0.21476	-0.414
Mof_O 	O 	0.8811	0.7759	0.24689	-0.406
Mof_H 	H 	0.129	0.60057	0.08546	0.047
Mof_H 	H 	0.91115	0.63259	0.09787	0.039
Mof_H 	H 	0.90798	0.64907	0.14503	0.037
Mof_N 	N 	0.068	0.6362	0.0275	-0.268
Mof_C 	C 	0.0075	0.6849	0.0642	-0.127
Mof_C 	C 	0.0616	0.6471	0.0536	0.084
Mof_C 	C 	0.1214	0.604	0.0642	-0.081
Mof_C 	C 	0.1549	0.5775	0.0472	0.002
Mof_C 	C 	0.1386	0.5863	0.0244	0.016
Mof_C 	C 	0.0127	0.6946	0.09319	0.05
Mof_C 	C 	0.9566	0.6628	0.10767	-0.053
Mof_C 	C 	0.8842	0.7678	0.0227	0.024
Mof_C 	C 	0.8602	0.7924	0.0477	0.005
Mof_C 	C 	0.9011	0.7692	0.0657	-0.079
Mof_C 	C 	0.9566	0.6682	0.13379	-0.035
Mof_C 	C 	0.0122	0.6953	0.1462	0.016
Mof_H 	H 	0.12297	0.729	0.09519	0.04
Mof_H 	H 	0.12045	0.72507	0.14374	0.035
Mof_H 	H 	0.77713	0.90164	0.91303	0.049
Mof_N 	N 	0.7205	0.9455	0.97303	-0.289
Mof_C 	C 	0.7223	0.9579	0.94677	0.091
Mof_C 	C 	0.7127	0.0716	0.89456	-0.06
Mof_C 	C 	0.7115	0.0699	0.86745	-0.032
Mof_C 	C 	0.7178	0.0162	0.82638	-0.029
Mof_C 	C 	0.7256	0.9506	0.81316	0.026
Mof_H 	H 	0.72392	0.89732	0.82378	0.036
Mof_C 	C 	0.7354	0.9495	0.78717	-0.127
Mof_C 	C 	0.7355	0.0129	0.77413	0.07
Mof_H 	H 	0.74634	0.01296	0.75301	0.042
Mof_C 	C 	0.7226	0.0773	0.78619	-0.106
Mof_C 	C 	0.716	0.0789	0.81244	0.019
Mof_H 	H 	0.70903	0.13248	0.8226	0.036
Mof_C 	C 	0.7232	0.1472	0.77255	0.34
Mof_C 	C 	0.745	0.8807	0.77475	0.375
Mof_O 	O 	0.7517	0.14445	0.75007	-0.394
Mof_O 	O 	0.6956	0.2014	0.78269	-0.402
Mof_O 	O 	0.7226	0.8252	0.78524	-0.414
Mof_O 	O 	0.7759	0.8811	0.75311	-0.406
Mof_H 	H 	0.60057	0.129	0.91454	0.047
Mof_H 	H 	0.63259	0.91115	0.90213	0.039
Mof_H 	H 	0.64907	0.90798	0.85497	0.037
Mof_N 	N 	0.6362	0.068	0.9725	-0.267
Mof_C 	C 	0.6849	0.0075	0.9358	-0.127
Mof_C 	C 	0.6471	0.0616	0.9464	0.084
Mof_C 	C 	0.604	0.1214	0.9358	-0.081
Mof_C 	C 	0.5775	0.1549	0.9528	0.001
Mof_C 	C 	0.5863	0.1386	0.9756	0.017
Mof_C 	C 	0.6946	0.0127	0.90681	0.05
Mof_C 	C 	0.6628	0.9566	0.89233	-0.053
Mof_C 	C 	0.7678	0.8842	0.9773	0.026
Mof_C 	C 	0.7924	0.8602	0.9523	0.005
Mof_C 	C 	0.7692	0.9011	0.9343	-0.079
Mof_C 	C 	0.6682	0.9566	0.86621	-0.035
Mof_C 	C 	0.6953	0.0122	0.8538	0.016
Mof_H 	H 	0.729	0.12297	0.90481	0.04
Mof_H 	H 	0.72507	0.12045	0.85626	0.035
Mof_H 	H 	0.22287	0.09836	0.91303	0.049
Mof_N 	N 	0.2795	0.0545	0.97303	-0.289
Mof_C 	C 	0.2777	0.0421	0.94677	0.091
Mof_C 	C 	0.2873	0.9284	0.89456	-0.06
Mof_C 	C 	0.2885	0.9301	0.86745	-0.032
Mof_C 	C 	0.2822	0.9838	0.82638	-0.029
Mof_C 	C 	0.2744	0.0494	0.81316	0.026
Mof_H 	H 	0.27608	0.10268	0.82378	0.036
Mof_C 	C 	0.2646	0.0505	0.78717	-0.127
Mof_C 	C 	0.2645	0.9871	0.77413	0.07
Mof_H 	H 	0.25366	0.98704	0.75301	0.042
Mof_C 	C 	0.2774	0.9227	0.78619	-0.106
Mof_C 	C 	0.284	0.9211	0.81244	0.019
Mof_H 	H 	0.29097	0.86752	0.8226	0.036
Mof_C 	C 	0.2768	0.8528	0.77255	0.34
Mof_C 	C 	0.255	0.1193	0.77475	0.375
Mof_O 	O 	0.2483	0.85555	0.75007	-0.394
Mof_O 	O 	0.3044	0.7986	0.78269	-0.402
Mof_O 	O 	0.2774	0.1748	0.78524	-0.414
Mof_O 	O 	0.2241	0.1189	0.75311	-0.406
Mof_H 	H 	0.39943	0.871	0.91454	0.047
Mof_H 	H 	0.36741	0.08885	0.90213	0.039
Mof_H 	H 	0.35093	0.09202	0.85497	0.037
Mof_N 	N 	0.3638	0.932	0.9725	-0.267
Mof_C 	C 	0.3151	0.9925	0.9358	-0.127
Mof_C 	C 	0.3529	0.9384	0.9464	0.084
Mof_C 	C 	0.396	0.8786	0.9358	-0.081
Mof_C 	C 	0.4225	0.8451	0.9528	0.001
Mof_C 	C 	0.4137	0.8614	0.9756	0.017
Mof_C 	C 	0.3054	0.9873	0.90681	0.05
Mof_C 	C 	0.3372	0.0434	0.89233	-0.053
Mof_C 	C 	0.2322	0.1158	0.9773	0.026
Mof_C 	C 	0.2076	0.1398	0.9523	0.005
Mof_C 	C 	0.2308	0.0989	0.9343	-0.079
Mof_C 	C 	0.3318	0.0434	0.86621	-0.035
Mof_C 	C 	0.3047	0.9878	0.8538	0.016
Mof_H 	H 	0.271	0.87703	0.90481	0.04
Mof_H 	H 	0.27493	0.87955	0.85626	0.035
Mof_H 	H 	0.40164	0.72287	0.41303	0.049
Mof_N 	N 	0.4455	0.7795	0.47303	-0.289
Mof_C 	C 	0.4579	0.7777	0.44677	0.091
Mof_C 	C 	0.5716	0.7873	0.39456	-0.06
Mof_C 	C 	0.5699	0.7885	0.36745	-0.032
Mof_C 	C 	0.5162	0.7822	0.32638	-0.029
Mof_C 	C 	0.4506	0.7744	0.31316	0.026
Mof_H 	H 	0.39732	0.77608	0.32378	0.036
Mof_C 	C 	0.4495	0.7646	0.28717	-0.127
Mof_C 	C 	0.5129	0.7645	0.27413	0.069
Mof_H 	H 	0.51296	0.75366	0.25301	0.042
Mof_C 	C 	0.5773	0.7774	0.28619	-0.106
Mof_C 	C 	0.5789	0.784	0.31244	0.019
Mof_H 	H 	0.63248	0.79097	0.3226	0.036
Mof_C 	C 	0.6472	0.7768	0.27255	0.34
Mof_C 	C 	0.3807	0.755	0.27475	0.375
Mof_O 	O 	0.64445	0.7483	0.25007	-0.394
Mof_O 	O 	0.7014	0.8044	0.28269	-0.402
Mof_O 	O 	0.3252	0.7774	0.28524	-0.414
Mof_O 	O 	0.3811	0.7241	0.25311	-0.406
Mof_H 	H 	0.629	0.89943	0.41454	0.047
Mof_H 	H 	0.41115	0.86741	0.40213	0.039
Mof_H 	H 	0.40798	0.85093	0.35497	0.037
Mof_N 	N 	0.568	0.8638	0.4725	-0.268
Mof_C 	C 	0.5075	0.8151	0.4358	-0.128
Mof_C 	C 	0.5616	0.8529	0.4464	0.084
Mof_C 	C 	0.6214	0.896	0.4358	-0.081
Mof_C 	C 	0.6549	0.9225	0.4528	0.002
Mof_C 	C 	0.6386	0.9137	0.4756	0.015
Mof_C 	C 	0.5127	0.8054	0.40681	0.049
Mof_C 	C 	0.4566	0.8372	0.39233	-0.053
Mof_C 	C 	0.3842	0.7322	0.4773	0.024
Mof_C 	C 	0.3602	0.7076	0.4523	0.005
Mof_C 	C 	0.4011	0.7308	0.4343	-0.079
Mof_C 	C 	0.4566	0.8318	0.36621	-0.035
Mof_C 	C 	0.5122	0.8047	0.3538	0.016
Mof_H 	H 	0.62297	0.771	0.40481	0.04
Mof_H 	H 	0.62045	0.77493	0.35626	0.035
Mof_H 	H 	0.59836	0.27713	0.41303	0.049
Mof_N 	N 	0.5545	0.2205	0.47303	-0.289
Mof_C 	C 	0.5421	0.2223	0.44677	0.091
Mof_C 	C 	0.4284	0.2127	0.39456	-0.06
Mof_C 	C 	0.4301	0.2115	0.36745	-0.032
Mof_C 	C 	0.4838	0.2178	0.32638	-0.029
Mof_C 	C 	0.5494	0.2256	0.31316	0.026
Mof_H 	H 	0.60268	0.22392	0.32378	0.036
Mof_C 	C 	0.5505	0.2354	0.28717	-0.127
Mof_C 	C 	0.4871	0.2355	0.27413	0.069
Mof_H 	H 	0.48704	0.24634	0.25301	0.042
Mof_C 	C 	0.4227	0.2226	0.28619	-0.106
Mof_C 	C 	0.4211	0.216	0.31244	0.019
Mof_H 	H 	0.36752	0.20903	0.3226	0.036
Mof_C 	C 	0.3528	0.2232	0.27255	0.34
Mof_C 	C 	0.6193	0.245	0.27475	0.375
Mof_O 	O 	0.35555	0.2517	0.25007	-0.394
Mof_O 	O 	0.2986	0.1956	0.28269	-0.402
Mof_O 	O 	0.6748	0.2226	0.28524	-0.414
Mof_O 	O 	0.6189	0.2759	0.25311	-0.406
Mof_H 	H 	0.371	0.10057	0.41454	0.047
Mof_H 	H 	0.58885	0.13259	0.40213	0.039
Mof_H 	H 	0.59202	0.14907	0.35497	0.037
Mof_N 	N 	0.432	0.1362	0.4725	-0.268
Mof_C 	C 	0.4925	0.1849	0.4358	-0.128
Mof_C 	C 	0.4384	0.1471	0.4464	0.084
Mof_C 	C 	0.3786	0.104	0.4358	-0.081
Mof_C 	C 	0.3451	0.0775	0.4528	0.002
Mof_C 	C 	0.3614	0.0863	0.4756	0.015
Mof_C 	C 	0.4873	0.1946	0.40681	0.049
Mof_C 	C 	0.5434	0.1628	0.39233	-0.053
Mof_C 	C 	0.6158	0.2678	0.4773	0.024
Mof_C 	C 	0.6398	0.2924	0.4523	0.005
Mof_C 	C 	0.5989	0.2692	0.4343	-0.079
Mof_C 	C 	0.5434	0.1682	0.36621	-0.035
Mof_C 	C 	0.4878	0.1953	0.3538	0.016
Mof_H 	H 	0.37703	0.229	0.40481	0.04
Mof_H 	H 	0.37955	0.22507	0.35626	0.035
Mof_Cu	Cu	0.27029	0.27029	0.22959	0.906
Mof_Cu	Cu	0.20378	0.20378	0.26725	0.906
Mof_Cu	Cu	0.72971	0.72971	0.22959	0.906
Mof_Cu	Cu	0.79622	0.79622	0.26725	0.906
Mof_Cu	Cu	0.22971	0.77029	0.72959	0.906
Mof_Cu	Cu	0.29622	0.70378	0.76725	0.906
Mof_Cu	Cu	0.77029	0.22971	0.72959	0.906
Mof_Cu	Cu	0.70378	0.29622	0.76725	0.906
Mof_Cu	Cu	0.22971	0.77029	0.27041	0.906
Mof_Cu	Cu	0.29622	0.70378	0.23275	0.906
Mof_Cu	Cu	0.77029	0.22971	0.27041	0.906
Mof_Cu	Cu	0.70378	0.29622	0.23275	0.906
Mof_Cu	Cu	0.27029	0.27029	0.77041	0.906
Mof_Cu	Cu	0.20378	0.20378	0.73275	0.906
Mof_Cu	Cu	0.72971	0.72971	0.77041	0.906
Mof_Cu	Cu	0.79622	0.79622	0.73275	0.906
Mof_Zn	Zn	0.17136	0.50213	0.5	1.167
Mof_C 	C 	0.0711	0.3466	0.5	-0.073
Mof_C 	C 	0.2888	0.6438	0.5	-0.054
Mof_Zn	Zn	0.82864	0.49787	0.5	1.167
Mof_C 	C 	0.9289	0.6534	0.5	-0.073
Mof_C 	C 	0.7112	0.3562	0.5	-0.054
Mof_Zn	Zn	0.99787	0.67136	-0	1.167
Mof_C 	C 	0.1534	0.5711	-0	-0.075
Mof_C 	C 	0.8562	0.7888	-0	-0.055
Mof_Zn	Zn	0.00213	0.32864	-0	1.167
Mof_C 	C 	0.8466	0.4289	-0	-0.075
Mof_C 	C 	0.1438	0.2112	-0	-0.055
Mof_Zn	Zn	0.32864	0.00213	-0	1.167
Mof_C 	C 	0.4289	0.8466	-0	-0.075
Mof_C 	C 	0.2112	0.1438	-0	-0.055
Mof_Zn	Zn	0.67136	0.99787	-0	1.167
Mof_C 	C 	0.5711	0.1534	-0	-0.075
Mof_C 	C 	0.7888	0.8562	-0	-0.055
Mof_Zn	Zn	0.50213	0.17136	0.5	1.167
Mof_C 	C 	0.3466	0.0711	0.5	-0.073
Mof_C 	C 	0.6438	0.2888	0.5	-0.054
Mof_Zn	Zn	0.49787	0.82864	0.5	1.167
Mof_C 	C 	0.6534	0.9289	0.5	-0.073
Mof_C 	C 	0.3562	0.7112	0.5	-0.054
_end
