data_functionalizedCrystal
_audit_creation_method	'EQeq! by Chris Wilmer'
_symmetry_space_group_name_H-M	'P1'
_symmetry_Int_Tables_number	1
_symmetry_cell_setting	triclinic
loop_
_symmetry_equiv_pos_as_xyz
  x,y,z
_cell_length_a	34.44
_cell_length_b	14.9178
_cell_length_c	29.894
_cell_angle_alpha	90
_cell_angle_beta	99.307
_cell_angle_gamma	90
loop_
_atom_site_label
_atom_site_type_symbol
_atom_site_fract_x
_atom_site_fract_y
_atom_site_fract_z
_atom_site_charge
Mof_C 	C 	0.3069	0.5774	0.3648	0.068
Mof_H 	H 	0.3128	0.6384	0.3597	-0.011
Mof_C 	C 	0.2781	0.5358	0.336	-0.133
Mof_H 	H 	0.264	0.5684	0.3113	0.097
Mof_C 	C 	0.269	0.4484	0.3417	0.066
Mof_C 	C 	0.2898	0.4028	0.378	-0.13
Mof_H 	H 	0.2843	0.3418	0.3837	0.09
Mof_C 	C 	0.3188	0.4489	0.4056	0.079
Mof_H 	H 	0.3337	0.4171	0.43	-0.038
Mof_C 	C 	0.2379	0.404	0.3098	0.092
Mof_C 	C 	0.1887	0.4149	0.2497	0.095
Mof_C 	C 	0.2026	0.283	0.2843	0.106
Mof_C 	C 	0.2126	0.034	0.3057	0.105
Mof_H 	H 	0.2297	0.9938	0.3241	-0.045
Mof_C 	C 	0.2203	0.1256	0.311	-0.144
Mof_H 	H 	0.2422	0.1462	0.3318	0.088
Mof_C 	C 	0.1956	0.1855	0.2855	0.063
Mof_C 	C 	0.1639	0.1472	0.2556	-0.124
Mof_H 	H 	0.1456	0.1851	0.2373	0.079
Mof_C 	C 	0.1591	0.0563	0.2526	0.07
Mof_H 	H 	0.1376	0.0323	0.2322	-0.025
Mof_C 	C 	0.1481	0.6001	0.1706	0.073
Mof_H 	H 	0.153	0.6617	0.1658	0.007
Mof_C 	C 	0.1711	0.5559	0.2065	-0.133
Mof_H 	H 	0.1905	0.5874	0.2268	0.094
Mof_C 	C 	0.1653	0.4675	0.2118	0.073
Mof_C 	C 	0.1371	0.426	0.1831	-0.133
Mof_H 	H 	0.1319	0.3641	0.187	0.092
Mof_C 	C 	0.1153	0.4735	0.1478	0.085
Mof_H 	H 	0.0966	0.4426	0.1264	-0.008
Mof_N 	N 	0.3274	0.5332	0.4008	-0.341
Mof_N 	N 	0.2182	0.4559	0.2768	-0.138
Mof_N 	N 	0.1793	0.3283	0.2522	-0.136
Mof_N 	N 	0.2313	0.3172	0.3145	-0.133
Mof_N 	N 	0.1842	-6.66214e-33	0.2779	-0.294
Mof_N 	N 	0.1199	0.5596	0.1432	-0.276
Mof_C 	C 	0.4303	0.4676	0.4894	0.085
Mof_H 	H 	0.4194	0.4745	0.5164	-0.019
Mof_C 	C 	0.4634	0.4097	0.4892	-0.146
Mof_H 	H 	0.4745	0.3791	0.5161	0.085
Mof_C 	C 	0.478	0.399	0.4526	0.084
Mof_C 	C 	0.4607	0.4444	0.4151	-0.168
Mof_H 	H 	0.4712	0.4384	0.3878	0.088
Mof_C 	C 	0.4296	0.4967	0.4156	0.104
Mof_H 	H 	0.4178	0.524	0.388	-0.065
Mof_C 	C 	0.5121	0.3409	0.4515	0.072
Mof_C 	C 	0.5454	0.2136	0.4722	0.083
Mof_C 	C 	0.5638	0.3	0.4178	0.117
Mof_C 	C 	0.5328	0.0293	0.5533	0.088
Mof_H 	H 	0.515	0.0135	0.5732	-0.014
Mof_C 	C 	0.5259	0.1062	0.5279	-0.141
Mof_H 	H 	0.5036	0.1423	0.5302	0.08
Mof_C 	C 	0.5508	0.1298	0.4997	0.083
Mof_C 	C 	0.5823	0.0766	0.4982	-0.131
Mof_H 	H 	0.6012	0.0923	0.4796	0.1
Mof_C 	C 	0.5869	0.9987	0.5241	0.093
Mof_H 	H 	0.6085	0.9607	0.5213	-0.026
Mof_C 	C 	0.6438	0.2799	0.3503	0.07
Mof_H 	H 	0.6657	0.2415	0.3491	-0.015
Mof_C 	C 	0.6208	0.2624	0.3844	-0.118
Mof_H 	H 	0.6277	0.2162	0.4062	0.103
Mof_C 	C 	0.5886	0.3144	0.3849	0.072
Mof_C 	C 	0.5857	0.3863	0.3522	-0.148
Mof_H 	H 	0.5653	0.4288	0.353	0.082
Mof_C 	C 	0.6077	0.3985	0.3224	0.097
Mof_H 	H 	0.6024	0.447	0.3017	-0.038
Mof_N 	N 	0.4147	0.512	0.4522	-0.348
Mof_N 	N 	0.5161	0.2686	0.4795	-0.142
Mof_N 	N 	0.5707	0.2246	0.4414	-0.12
Mof_N 	N 	0.5356	0.357	0.4203	-0.135
Mof_N 	N 	0.5639	0.9754	0.5512	-0.286
Mof_N 	N 	0.6377	0.3449	0.3198	-0.298
Mof_Zn	Zn	0.35855	0.5894	0.4637	1.087
Mof_Zn	Zn	0.1716	0.8633	0.2683	0.685
Mof_Zn	Zn	0.08051	0.62977	0.09563	1.16
Mof_I 	I 	0.33247	0.5599	0.5353	1.044
Mof_I 	I 	0.23406	0.7691	0.2889	-0.244
Mof_I 	I 	0.12737	0.84909	0.19295	0.164
Mof_I 	I 	0.11955	0.7389	0.05211	-0.427
Mof_I 	I 	0.02285	0.66358	0.13581	-0.194
Mof_I 	I 	0.3766	0.7422	0.4283	-0.296
Mof_Zn	Zn	0.37422	0.601	0.43833	0.937
Mof_Zn	Zn	0.1781	0.8674	0.2805	0.598
Mof_I 	I 	0.34841	0.6068	0.5122	-1.822
Mof_I 	I 	0.3626	0.7375	0.4536	-0.146
Mof_I 	I 	0.2335	0.7812	0.3074	-0.091
Mof_I 	I 	0.2524	0.7933	0.3317	-0.009
Mof_I 	I 	0.1447	0.832	0.204	-0.285
Mof_I 	I 	0.1686	0.806	0.2151	-0.427
Mof_I 	I 	0.1106	0.7411	0.0652	0.027
Mof_I 	I 	0.0259	0.6635	0.1369	-0.14
Mof_I 	I 	0.39592	0.73756	0.39816	-0.113
Mof_C 	C 	0.8069	0.0774	0.3648	0.059
Mof_H 	H 	0.8128	0.1384	0.3597	-0.009
Mof_C 	C 	0.7781	0.0358	0.336	-0.116
Mof_H 	H 	0.764	0.0684	0.3113	0.091
Mof_C 	C 	0.769	0.9484	0.3417	0.049
Mof_C 	C 	0.7898	0.9028	0.378	-0.119
Mof_H 	H 	0.7843	0.8418	0.3837	0.086
Mof_C 	C 	0.8188	0.9489	0.4056	0.064
Mof_H 	H 	0.8337	0.9171	0.43	-0.035
Mof_C 	C 	0.7379	0.904	0.3098	0.096
Mof_C 	C 	0.6887	0.9149	0.2497	0.098
Mof_C 	C 	0.7026	0.783	0.2843	0.106
Mof_C 	C 	0.7126	0.534	0.3057	0.088
Mof_H 	H 	0.7297	0.4938	0.3241	-0.036
Mof_C 	C 	0.7203	0.6256	0.311	-0.136
Mof_H 	H 	0.7422	0.6462	0.3318	0.084
Mof_C 	C 	0.6956	0.6855	0.2855	0.059
Mof_C 	C 	0.6639	0.6472	0.2556	-0.122
Mof_H 	H 	0.6456	0.6851	0.2373	0.077
Mof_C 	C 	0.6591	0.5563	0.2526	0.067
Mof_H 	H 	0.6376	0.5323	0.2322	-0.027
Mof_C 	C 	0.6481	0.1001	0.1706	0.066
Mof_H 	H 	0.653	0.1617	0.1658	0.009
Mof_C 	C 	0.6711	0.0559	0.2065	-0.115
Mof_H 	H 	0.6905	0.0874	0.2268	0.09
Mof_C 	C 	0.6653	0.9675	0.2118	0.056
Mof_C 	C 	0.6371	0.926	0.1831	-0.121
Mof_H 	H 	0.6319	0.8641	0.187	0.087
Mof_C 	C 	0.6153	0.9735	0.1478	0.07
Mof_H 	H 	0.5966	0.9426	0.1264	-0.005
Mof_N 	N 	0.8274	0.0332	0.4008	-0.334
Mof_N 	N 	0.7182	0.9559	0.2768	-0.142
Mof_N 	N 	0.6793	0.8283	0.2522	-0.137
Mof_N 	N 	0.7313	0.8172	0.3145	-0.135
Mof_N 	N 	0.6842	0.5	0.2779	-0.293
Mof_N 	N 	0.6199	0.0596	0.1432	-0.269
Mof_C 	C 	0.9303	0.9676	0.4894	0.071
Mof_H 	H 	0.9194	0.9745	0.5164	-0.017
Mof_C 	C 	0.9634	0.9097	0.4892	-0.134
Mof_H 	H 	0.9745	0.8791	0.5161	0.079
Mof_C 	C 	0.978	0.899	0.4526	0.07
Mof_C 	C 	0.9607	0.9444	0.4151	-0.147
Mof_H 	H 	0.9712	0.9384	0.3878	0.08
Mof_C 	C 	0.9296	0.9967	0.4156	0.074
Mof_H 	H 	0.9178	0.024	0.388	-0.051
Mof_C 	C 	0.0121	0.8409	0.4515	0.075
Mof_C 	C 	0.0454	0.7136	0.4722	0.082
Mof_C 	C 	0.0638	0.8	0.4178	0.116
Mof_C 	C 	0.0328	0.5293	0.5533	0.082
Mof_H 	H 	0.015	0.5135	0.5732	-0.014
Mof_C 	C 	0.0259	0.6062	0.5279	-0.142
Mof_H 	H 	0.0036	0.6423	0.5302	0.079
Mof_C 	C 	0.0508	0.6298	0.4997	0.087
Mof_C 	C 	0.0823	0.5766	0.4982	-0.143
Mof_H 	H 	0.1012	0.5923	0.4796	0.102
Mof_C 	C 	0.0869	0.4987	0.5241	0.106
Mof_H 	H 	0.1085	0.4607	0.5213	-0.028
Mof_C 	C 	0.1438	0.7799	0.3503	0.07
Mof_H 	H 	0.1657	0.7415	0.3491	-0.016
Mof_C 	C 	0.1208	0.7624	0.3844	-0.118
Mof_H 	H 	0.1277	0.7162	0.4062	0.102
Mof_C 	C 	0.0886	0.8144	0.3849	0.072
Mof_C 	C 	0.0857	0.8863	0.3522	-0.148
Mof_H 	H 	0.0653	0.9288	0.353	0.081
Mof_C 	C 	0.1077	0.8985	0.3224	0.096
Mof_H 	H 	0.1024	0.947	0.3017	-0.04
Mof_N 	N 	0.9147	0.012	0.4522	-0.334
Mof_N 	N 	0.0161	0.7686	0.4795	-0.143
Mof_N 	N 	0.0707	0.7246	0.4414	-0.12
Mof_N 	N 	0.0356	0.857	0.4203	-0.136
Mof_N 	N 	0.0639	0.4754	0.5512	-0.284
Mof_N 	N 	0.1377	0.8449	0.3198	-0.298
Mof_Zn	Zn	0.85855	0.0894	0.4637	1.088
Mof_Zn	Zn	0.6716	0.3633	0.2683	0.686
Mof_Zn	Zn	0.58051	0.12977	0.09563	1.16
Mof_I 	I 	0.83247	0.0599	0.5353	1.051
Mof_I 	I 	0.73406	0.2691	0.2889	-0.243
Mof_I 	I 	0.62737	0.34909	0.19295	0.165
Mof_I 	I 	0.61955	0.2389	0.05211	-0.427
Mof_I 	I 	0.52285	0.16358	0.13581	-0.192
Mof_I 	I 	0.8766	0.2422	0.4283	-0.292
Mof_Zn	Zn	0.87422	0.101	0.43833	0.938
Mof_Zn	Zn	0.6781	0.3674	0.2805	0.599
Mof_I 	I 	0.84841	0.1068	0.5122	-1.824
Mof_I 	I 	0.8626	0.2375	0.4536	-0.147
Mof_I 	I 	0.7335	0.2812	0.3074	-0.09
Mof_I 	I 	0.7524	0.2933	0.3317	-0.008
Mof_I 	I 	0.6447	0.332	0.204	-0.283
Mof_I 	I 	0.6686	0.306	0.2151	-0.428
Mof_I 	I 	0.6106	0.2411	0.0652	0.03
Mof_I 	I 	0.5259	0.1635	0.1369	-0.139
Mof_I 	I 	0.89592	0.23756	0.39816	-0.113
Mof_C 	C 	0.3069	0.4226	0.8648	0.067
Mof_H 	H 	0.3128	0.3616	0.8597	-0.012
Mof_C 	C 	0.2781	0.4642	0.836	-0.134
Mof_H 	H 	0.264	0.4316	0.8113	0.096
Mof_C 	C 	0.269	0.5516	0.8417	0.065
Mof_C 	C 	0.2898	0.5972	0.878	-0.13
Mof_H 	H 	0.2843	0.6582	0.8837	0.09
Mof_C 	C 	0.3188	0.5511	0.9056	0.079
Mof_H 	H 	0.3337	0.5829	0.93	-0.038
Mof_C 	C 	0.2379	0.596	0.8098	0.092
Mof_C 	C 	0.1887	0.5851	0.7497	0.095
Mof_C 	C 	0.2026	0.717	0.7843	0.109
Mof_C 	C 	0.2126	0.966	0.8057	0.062
Mof_H 	H 	0.2297	0.0062	0.8241	-0.023
Mof_C 	C 	0.2203	0.8744	0.811	-0.122
Mof_H 	H 	0.2422	0.8538	0.8318	0.078
Mof_C 	C 	0.1956	0.8145	0.7855	0.05
Mof_C 	C 	0.1639	0.8528	0.7556	-0.113
Mof_H 	H 	0.1456	0.8149	0.7373	0.074
Mof_C 	C 	0.1591	0.9437	0.7526	0.055
Mof_H 	H 	0.1376	0.9677	0.7322	-0.025
Mof_C 	C 	0.1481	0.3999	0.6706	0.073
Mof_H 	H 	0.153	0.3383	0.6658	0.007
Mof_C 	C 	0.1711	0.4441	0.7065	-0.133
Mof_H 	H 	0.1905	0.4126	0.7268	0.094
Mof_C 	C 	0.1653	0.5325	0.7118	0.073
Mof_C 	C 	0.1371	0.574	0.6831	-0.133
Mof_H 	H 	0.1319	0.6359	0.687	0.092
Mof_C 	C 	0.1153	0.5265	0.6478	0.085
Mof_H 	H 	0.0966	0.5574	0.6264	-0.008
Mof_N 	N 	0.3274	0.4668	0.9008	-0.341
Mof_N 	N 	0.2182	0.5441	0.7768	-0.138
Mof_N 	N 	0.1793	0.6717	0.7522	-0.137
Mof_N 	N 	0.2313	0.6828	0.8145	-0.134
Mof_N 	N 	0.1842	1.33243e-32	0.7779	-0.281
Mof_N 	N 	0.1199	0.4404	0.6432	-0.276
Mof_C 	C 	0.4303	0.5324	0.9894	0.085
Mof_H 	H 	0.4194	0.5255	0.0164	-0.019
Mof_C 	C 	0.4634	0.5903	0.9892	-0.146
Mof_H 	H 	0.4745	0.6209	0.0161	0.084
Mof_C 	C 	0.478	0.601	0.9526	0.084
Mof_C 	C 	0.4607	0.5556	0.9151	-0.168
Mof_H 	H 	0.4712	0.5616	0.8878	0.088
Mof_C 	C 	0.4296	0.5033	0.9156	0.104
Mof_H 	H 	0.4178	0.476	0.888	-0.065
Mof_C 	C 	0.5121	0.6591	0.9515	0.072
Mof_C 	C 	0.5454	0.7864	0.9722	0.08
Mof_C 	C 	0.5638	0.7	0.9178	0.117
Mof_C 	C 	0.5328	0.9707	0.0533	0.077
Mof_H 	H 	0.515	0.9865	0.0732	-0.015
Mof_C 	C 	0.5259	0.8938	0.0279	-0.143
Mof_H 	H 	0.5036	0.8577	0.0302	0.079
Mof_C 	C 	0.5508	0.8702	0.9997	0.09
Mof_C 	C 	0.5823	0.9234	0.9982	-0.156
Mof_H 	H 	0.6012	0.9077	0.9796	0.105
Mof_C 	C 	0.5869	0.0013	0.0241	0.118
Mof_H 	H 	0.6085	0.0393	0.0213	-0.031
Mof_C 	C 	0.6438	0.7201	0.8503	0.07
Mof_H 	H 	0.6657	0.7585	0.8491	-0.016
Mof_C 	C 	0.6208	0.7376	0.8844	-0.119
Mof_H 	H 	0.6277	0.7838	0.9062	0.101
Mof_C 	C 	0.5886	0.6856	0.8849	0.072
Mof_C 	C 	0.5857	0.6137	0.8522	-0.148
Mof_H 	H 	0.5653	0.5712	0.853	0.082
Mof_C 	C 	0.6077	0.6015	0.8224	0.096
Mof_H 	H 	0.6024	0.553	0.8017	-0.038
Mof_N 	N 	0.4147	0.488	0.9522	-0.348
Mof_N 	N 	0.5161	0.7314	0.9795	-0.142
Mof_N 	N 	0.5707	0.7754	0.9414	-0.12
Mof_N 	N 	0.5356	0.643	0.9203	-0.135
Mof_N 	N 	0.5639	0.0246	0.0512	-0.283
Mof_N 	N 	0.6377	0.6551	0.8198	-0.298
Mof_Zn	Zn	0.35855	0.4106	0.9637	1.087
Mof_Zn	Zn	0.1716	0.1367	0.7683	0.686
Mof_Zn	Zn	0.08051	0.37023	0.59563	1.16
Mof_I 	I 	0.33247	0.4401	0.0353	1.043
Mof_I 	I 	0.23406	0.2309	0.7889	-0.244
Mof_I 	I 	0.12737	0.15091	0.69295	0.167
Mof_I 	I 	0.11955	0.2611	0.55211	-0.427
Mof_I 	I 	0.02285	0.33642	0.63581	-0.194
Mof_I 	I 	0.3766	0.2578	0.9283	-0.293
Mof_Zn	Zn	0.37422	0.399	0.93833	0.937
Mof_Zn	Zn	0.1781	0.1326	0.7805	0.599
Mof_I 	I 	0.34841	0.3932	0.0122	-1.822
Mof_I 	I 	0.3626	0.2625	0.9536	-0.146
Mof_I 	I 	0.2335	0.2188	0.8074	-0.09
Mof_I 	I 	0.2524	0.2067	0.8317	-0.008
Mof_I 	I 	0.1447	0.168	0.704	-0.281
Mof_I 	I 	0.1686	0.194	0.7151	-0.43
Mof_I 	I 	0.1106	0.2589	0.5652	0.03
Mof_I 	I 	0.0259	0.3365	0.6369	-0.14
Mof_I 	I 	0.39592	0.26244	0.89816	-0.113
Mof_C 	C 	0.8069	0.9226	0.8648	0.075
Mof_H 	H 	0.8128	0.8616	0.8597	-0.015
Mof_C 	C 	0.7781	0.9642	0.836	-0.153
Mof_H 	H 	0.764	0.9316	0.8113	0.1
Mof_C 	C 	0.769	0.0516	0.8417	0.082
Mof_C 	C 	0.7898	0.0972	0.878	-0.142
Mof_H 	H 	0.7843	0.1582	0.8837	0.094
Mof_C 	C 	0.8188	0.0511	0.9056	0.094
Mof_H 	H 	0.8337	0.0829	0.93	-0.041
Mof_C 	C 	0.7379	0.096	0.8098	0.089
Mof_C 	C 	0.6887	0.0851	0.7497	0.091
Mof_C 	C 	0.7026	0.217	0.7843	0.107
Mof_C 	C 	0.7126	0.466	0.8057	0.089
Mof_H 	H 	0.7297	0.5062	0.8241	-0.036
Mof_C 	C 	0.7203	0.3744	0.811	-0.136
Mof_H 	H 	0.7422	0.3538	0.8318	0.084
Mof_C 	C 	0.6956	0.3145	0.7855	0.059
Mof_C 	C 	0.6639	0.3528	0.7556	-0.122
Mof_H 	H 	0.6456	0.3149	0.7373	0.078
Mof_C 	C 	0.6591	0.4437	0.7526	0.067
Mof_H 	H 	0.6376	0.4677	0.7322	-0.026
Mof_C 	C 	0.6481	0.8999	0.6706	0.08
Mof_H 	H 	0.653	0.8383	0.6658	0.004
Mof_C 	C 	0.6711	0.9441	0.7065	-0.152
Mof_H 	H 	0.6905	0.9126	0.7268	0.099
Mof_C 	C 	0.6653	0.0325	0.7118	0.09
Mof_C 	C 	0.6371	0.074	0.6831	-0.146
Mof_H 	H 	0.6319	0.1359	0.687	0.096
Mof_C 	C 	0.6153	0.0265	0.6478	0.099
Mof_H 	H 	0.5966	0.0574	0.6264	-0.011
Mof_N 	N 	0.8274	0.9668	0.9008	-0.349
Mof_N 	N 	0.7182	0.0441	0.7768	-0.135
Mof_N 	N 	0.6793	0.1717	0.7522	-0.135
Mof_N 	N 	0.7313	0.1828	0.8145	-0.133
Mof_N 	N 	0.6842	0.5	0.7779	-0.293
Mof_N 	N 	0.6199	0.9404	0.6432	-0.283
Mof_C 	C 	0.9303	0.0324	0.9894	0.099
Mof_H 	H 	0.9194	0.0255	0.0164	-0.021
Mof_C 	C 	0.9634	0.0903	0.9892	-0.158
Mof_H 	H 	0.9745	0.1209	0.0161	0.089
Mof_C 	C 	0.978	0.101	0.9526	0.098
Mof_C 	C 	0.9607	0.0556	0.9151	-0.189
Mof_H 	H 	0.9712	0.0616	0.8878	0.097
Mof_C 	C 	0.9296	0.0033	0.9156	0.136
Mof_H 	H 	0.9178	0.976	0.888	-0.081
Mof_C 	C 	0.0121	0.1591	0.9515	0.068
Mof_C 	C 	0.0454	0.2864	0.9722	0.082
Mof_C 	C 	0.0638	0.2	0.9178	0.117
Mof_C 	C 	0.0328	0.4707	0.0533	0.083
Mof_H 	H 	0.015	0.4865	0.0732	-0.014
Mof_C 	C 	0.0259	0.3938	0.0279	-0.142
Mof_H 	H 	0.0036	0.3577	0.0302	0.079
Mof_C 	C 	0.0508	0.3702	0.9997	0.087
Mof_C 	C 	0.0823	0.4234	0.9982	-0.143
Mof_H 	H 	0.1012	0.4077	0.9796	0.102
Mof_C 	C 	0.0869	0.5013	0.0241	0.105
Mof_H 	H 	0.1085	0.5393	0.0213	-0.029
Mof_C 	C 	0.1438	0.2201	0.8503	0.07
Mof_H 	H 	0.1657	0.2585	0.8491	-0.016
Mof_C 	C 	0.1208	0.2376	0.8844	-0.118
Mof_H 	H 	0.1277	0.2838	0.9062	0.102
Mof_C 	C 	0.0886	0.1856	0.8849	0.072
Mof_C 	C 	0.0857	0.1137	0.8522	-0.148
Mof_H 	H 	0.0653	0.0712	0.853	0.083
Mof_C 	C 	0.1077	0.1015	0.8224	0.097
Mof_H 	H 	0.1024	0.053	0.8017	-0.037
Mof_N 	N 	0.9147	0.988	0.9522	-0.361
Mof_N 	N 	0.0161	0.2314	0.9795	-0.141
Mof_N 	N 	0.0707	0.2754	0.9414	-0.12
Mof_N 	N 	0.0356	0.143	0.9203	-0.134
Mof_N 	N 	0.0639	0.5246	0.0512	-0.284
Mof_N 	N 	0.1377	0.1551	0.8198	-0.298
Mof_Zn	Zn	0.85855	0.9106	0.9637	1.086
Mof_Zn	Zn	0.6716	0.6367	0.7683	0.686
Mof_Zn	Zn	0.58051	0.87023	0.59563	1.159
Mof_I 	I 	0.83247	0.9401	0.0353	1.037
Mof_I 	I 	0.73406	0.7309	0.7889	-0.245
Mof_I 	I 	0.62737	0.65091	0.69295	0.166
Mof_I 	I 	0.61955	0.7611	0.55211	-0.427
Mof_I 	I 	0.52285	0.83642	0.63581	-0.195
Mof_I 	I 	0.8766	0.7578	0.9283	-0.298
Mof_Zn	Zn	0.87422	0.899	0.93833	0.937
Mof_Zn	Zn	0.6781	0.6326	0.7805	0.599
Mof_I 	I 	0.84841	0.8932	0.0122	-1.819
Mof_I 	I 	0.8626	0.7625	0.9536	-0.145
Mof_I 	I 	0.7335	0.7188	0.8074	-0.092
Mof_I 	I 	0.7524	0.7067	0.8317	-0.008
Mof_I 	I 	0.6447	0.668	0.704	-0.283
Mof_I 	I 	0.6686	0.694	0.7151	-0.429
Mof_I 	I 	0.6106	0.7589	0.5652	0.027
Mof_I 	I 	0.5259	0.8365	0.6369	-0.141
Mof_I 	I 	0.89592	0.76244	0.89816	-0.112
Mof_C 	C 	0.6931	0.5774	0.1352	0.067
Mof_H 	H 	0.6872	0.6384	0.1403	-0.012
Mof_C 	C 	0.7219	0.5358	0.164	-0.134
Mof_H 	H 	0.736	0.5684	0.1887	0.096
Mof_C 	C 	0.731	0.4484	0.1583	0.065
Mof_C 	C 	0.7102	0.4028	0.122	-0.131
Mof_H 	H 	0.7157	0.3418	0.1163	0.09
Mof_C 	C 	0.6812	0.4489	0.0944	0.079
Mof_H 	H 	0.6663	0.4171	0.07	-0.038
Mof_C 	C 	0.7621	0.404	0.1902	0.092
Mof_C 	C 	0.8113	0.4149	0.2503	0.095
Mof_C 	C 	0.7974	0.283	0.2157	0.106
Mof_C 	C 	0.7874	0.034	0.1943	0.104
Mof_H 	H 	0.7703	0.9938	0.1759	-0.045
Mof_C 	C 	0.7797	0.1256	0.189	-0.144
Mof_H 	H 	0.7578	0.1462	0.1682	0.088
Mof_C 	C 	0.8044	0.1855	0.2145	0.063
Mof_C 	C 	0.8361	0.1472	0.2444	-0.124
Mof_H 	H 	0.8544	0.1851	0.2627	0.079
Mof_C 	C 	0.8409	0.0563	0.2474	0.07
Mof_H 	H 	0.8624	0.0323	0.2678	-0.025
Mof_C 	C 	0.8519	0.6001	0.3294	0.073
Mof_H 	H 	0.847	0.6617	0.3342	0.007
Mof_C 	C 	0.8289	0.5559	0.2935	-0.133
Mof_H 	H 	0.8095	0.5874	0.2732	0.094
Mof_C 	C 	0.8347	0.4675	0.2882	0.073
Mof_C 	C 	0.8629	0.426	0.3169	-0.133
Mof_H 	H 	0.8681	0.3641	0.313	0.092
Mof_C 	C 	0.8847	0.4735	0.3522	0.085
Mof_H 	H 	0.9034	0.4426	0.3736	-0.008
Mof_N 	N 	0.6726	0.5332	0.0992	-0.341
Mof_N 	N 	0.7818	0.4559	0.2232	-0.138
Mof_N 	N 	0.8207	0.3283	0.2478	-0.136
Mof_N 	N 	0.7687	0.3172	0.1855	-0.134
Mof_N 	N 	0.8158	-6.66214e-33	0.2221	-0.294
Mof_N 	N 	0.8801	0.5596	0.3568	-0.276
Mof_C 	C 	0.5697	0.4676	0.0106	0.085
Mof_H 	H 	0.5806	0.4745	0.9836	-0.019
Mof_C 	C 	0.5366	0.4097	0.0108	-0.146
Mof_H 	H 	0.5255	0.3791	0.9839	0.085
Mof_C 	C 	0.522	0.399	0.0474	0.084
Mof_C 	C 	0.5393	0.4444	0.0849	-0.168
Mof_H 	H 	0.5288	0.4384	0.1122	0.088
Mof_C 	C 	0.5704	0.4967	0.0844	0.104
Mof_H 	H 	0.5822	0.524	0.112	-0.065
Mof_C 	C 	0.4879	0.3409	0.0485	0.072
Mof_C 	C 	0.4546	0.2136	0.0278	0.083
Mof_C 	C 	0.4362	0.3	0.0822	0.117
Mof_C 	C 	0.4672	0.0293	0.9467	0.088
Mof_H 	H 	0.485	0.0135	0.9268	-0.014
Mof_C 	C 	0.4741	0.1062	0.9721	-0.14
Mof_H 	H 	0.4964	0.1423	0.9698	0.079
Mof_C 	C 	0.4492	0.1298	0.0003	0.082
Mof_C 	C 	0.4177	0.0766	0.0018	-0.131
Mof_H 	H 	0.3988	0.0923	0.0204	0.1
Mof_C 	C 	0.4131	0.9987	0.9759	0.093
Mof_H 	H 	0.3915	0.9607	0.9787	-0.026
Mof_C 	C 	0.3562	0.2799	0.1497	0.07
Mof_H 	H 	0.3343	0.2415	0.1509	-0.015
Mof_C 	C 	0.3792	0.2624	0.1156	-0.118
Mof_H 	H 	0.3723	0.2162	0.0938	0.103
Mof_C 	C 	0.4114	0.3144	0.1151	0.072
Mof_C 	C 	0.4143	0.3863	0.1478	-0.148
Mof_H 	H 	0.4347	0.4288	0.147	0.082
Mof_C 	C 	0.3923	0.3985	0.1776	0.097
Mof_H 	H 	0.3976	0.447	0.1983	-0.038
Mof_N 	N 	0.5853	0.512	0.0478	-0.348
Mof_N 	N 	0.4839	0.2686	0.0205	-0.142
Mof_N 	N 	0.4293	0.2246	0.0586	-0.12
Mof_N 	N 	0.4644	0.357	0.0797	-0.135
Mof_N 	N 	0.4361	0.9754	0.9488	-0.286
Mof_N 	N 	0.3623	0.3449	0.1802	-0.298
Mof_Zn	Zn	0.64145	0.5894	0.0363	1.087
Mof_Zn	Zn	0.8284	0.8633	0.2317	0.685
Mof_Zn	Zn	0.91949	0.62977	0.40437	1.16
Mof_I 	I 	0.66753	0.5599	0.9647	1.045
Mof_I 	I 	0.76594	0.7691	0.2111	-0.244
Mof_I 	I 	0.87263	0.84909	0.30705	0.164
Mof_I 	I 	0.88045	0.7389	0.44789	-0.427
Mof_I 	I 	0.97715	0.66358	0.36419	-0.194
Mof_I 	I 	0.6234	0.7422	0.0717	-0.296
Mof_Zn	Zn	0.62578	0.601	0.06167	0.937
Mof_Zn	Zn	0.8219	0.8674	0.2195	0.598
Mof_I 	I 	0.65159	0.6068	0.9878	-1.823
Mof_I 	I 	0.6374	0.7375	0.0464	-0.146
Mof_I 	I 	0.7665	0.7812	0.1926	-0.091
Mof_I 	I 	0.7476	0.7933	0.1683	-0.009
Mof_I 	I 	0.8553	0.832	0.296	-0.285
Mof_I 	I 	0.8314	0.806	0.2849	-0.427
Mof_I 	I 	0.8894	0.7411	0.4348	0.027
Mof_I 	I 	0.9741	0.6635	0.3631	-0.14
Mof_I 	I 	0.60408	0.73756	0.10184	-0.113
Mof_C 	C 	0.1931	0.0774	0.1352	0.059
Mof_H 	H 	0.1872	0.1384	0.1403	-0.01
Mof_C 	C 	0.2219	0.0358	0.164	-0.116
Mof_H 	H 	0.236	0.0684	0.1887	0.091
Mof_C 	C 	0.231	0.9484	0.1583	0.049
Mof_C 	C 	0.2102	0.9028	0.122	-0.119
Mof_H 	H 	0.2157	0.8418	0.1163	0.086
Mof_C 	C 	0.1812	0.9489	0.0944	0.065
Mof_H 	H 	0.1663	0.9171	0.07	-0.035
Mof_C 	C 	0.2621	0.904	0.1902	0.096
Mof_C 	C 	0.3113	0.9149	0.2503	0.098
Mof_C 	C 	0.2974	0.783	0.2157	0.106
Mof_C 	C 	0.2874	0.534	0.1943	0.088
Mof_H 	H 	0.2703	0.4938	0.1759	-0.036
Mof_C 	C 	0.2797	0.6256	0.189	-0.136
Mof_H 	H 	0.2578	0.6462	0.1682	0.084
Mof_C 	C 	0.3044	0.6855	0.2145	0.059
Mof_C 	C 	0.3361	0.6472	0.2444	-0.122
Mof_H 	H 	0.3544	0.6851	0.2627	0.077
Mof_C 	C 	0.3409	0.5563	0.2474	0.067
Mof_H 	H 	0.3624	0.5323	0.2678	-0.027
Mof_C 	C 	0.3519	0.1001	0.3294	0.066
Mof_H 	H 	0.347	0.1617	0.3342	0.009
Mof_C 	C 	0.3289	0.0559	0.2935	-0.115
Mof_H 	H 	0.3095	0.0874	0.2732	0.09
Mof_C 	C 	0.3347	0.9675	0.2882	0.056
Mof_C 	C 	0.3629	0.926	0.3169	-0.121
Mof_H 	H 	0.3681	0.8641	0.313	0.087
Mof_C 	C 	0.3847	0.9735	0.3522	0.07
Mof_H 	H 	0.4034	0.9426	0.3736	-0.005
Mof_N 	N 	0.1726	0.0332	0.0992	-0.334
Mof_N 	N 	0.2818	0.9559	0.2232	-0.142
Mof_N 	N 	0.3207	0.8283	0.2478	-0.137
Mof_N 	N 	0.2687	0.8172	0.1855	-0.135
Mof_N 	N 	0.3158	0.5	0.2221	-0.293
Mof_N 	N 	0.3801	0.0596	0.3568	-0.269
Mof_C 	C 	0.0697	0.9676	0.0106	0.072
Mof_H 	H 	0.0806	0.9745	0.9836	-0.018
Mof_C 	C 	0.0366	0.9097	0.0108	-0.134
Mof_H 	H 	0.0255	0.8791	0.9839	0.079
Mof_C 	C 	0.022	0.899	0.0474	0.07
Mof_C 	C 	0.0393	0.9444	0.0849	-0.148
Mof_H 	H 	0.0288	0.9384	0.1122	0.08
Mof_C 	C 	0.0704	0.9967	0.0844	0.075
Mof_H 	H 	0.0822	0.024	0.112	-0.051
Mof_C 	C 	0.9879	0.8409	0.0485	0.076
Mof_C 	C 	0.9546	0.7136	0.0278	0.082
Mof_C 	C 	0.9362	0.8	0.0822	0.116
Mof_C 	C 	0.9672	0.5293	0.9467	0.082
Mof_H 	H 	0.985	0.5135	0.9268	-0.014
Mof_C 	C 	0.9741	0.6062	0.9721	-0.142
Mof_H 	H 	0.9964	0.6423	0.9698	0.079
Mof_C 	C 	0.9492	0.6298	0.0003	0.087
Mof_C 	C 	0.9177	0.5766	0.0018	-0.144
Mof_H 	H 	0.8988	0.5923	0.0204	0.102
Mof_C 	C 	0.9131	0.4987	0.9759	0.105
Mof_H 	H 	0.8915	0.4607	0.9787	-0.028
Mof_C 	C 	0.8562	0.7799	0.1497	0.07
Mof_H 	H 	0.8343	0.7415	0.1509	-0.016
Mof_C 	C 	0.8792	0.7624	0.1156	-0.118
Mof_H 	H 	0.8723	0.7162	0.0938	0.102
Mof_C 	C 	0.9114	0.8144	0.1151	0.072
Mof_C 	C 	0.9143	0.8863	0.1478	-0.148
Mof_H 	H 	0.9347	0.9288	0.147	0.081
Mof_C 	C 	0.8923	0.8985	0.1776	0.096
Mof_H 	H 	0.8976	0.947	0.1983	-0.04
Mof_N 	N 	0.0853	0.012	0.0478	-0.335
Mof_N 	N 	0.9839	0.7686	0.0205	-0.143
Mof_N 	N 	0.9293	0.7246	0.0586	-0.12
Mof_N 	N 	0.9644	0.857	0.0797	-0.136
Mof_N 	N 	0.9361	0.4754	0.9488	-0.284
Mof_N 	N 	0.8623	0.8449	0.1802	-0.298
Mof_Zn	Zn	0.14145	0.0894	0.0363	1.088
Mof_Zn	Zn	0.3284	0.3633	0.2317	0.686
Mof_Zn	Zn	0.41949	0.12977	0.40437	1.16
Mof_I 	I 	0.16753	0.0599	0.9647	1.05
Mof_I 	I 	0.26594	0.2691	0.2111	-0.243
Mof_I 	I 	0.37263	0.34909	0.30705	0.165
Mof_I 	I 	0.38045	0.2389	0.44789	-0.427
Mof_I 	I 	0.47715	0.16358	0.36419	-0.192
Mof_I 	I 	0.1234	0.2422	0.0717	-0.293
Mof_Zn	Zn	0.12578	0.101	0.06167	0.938
Mof_Zn	Zn	0.3219	0.3674	0.2195	0.599
Mof_I 	I 	0.15159	0.1068	0.9878	-1.824
Mof_I 	I 	0.1374	0.2375	0.0464	-0.147
Mof_I 	I 	0.2665	0.2812	0.1926	-0.09
Mof_I 	I 	0.2476	0.2933	0.1683	-0.009
Mof_I 	I 	0.3553	0.332	0.296	-0.283
Mof_I 	I 	0.3314	0.306	0.2849	-0.428
Mof_I 	I 	0.3894	0.2411	0.4348	0.03
Mof_I 	I 	0.4741	0.1635	0.3631	-0.139
Mof_I 	I 	0.10408	0.23756	0.10184	-0.113
Mof_C 	C 	0.6931	0.4226	0.6352	0.067
Mof_H 	H 	0.6872	0.3616	0.6403	-0.012
Mof_C 	C 	0.7219	0.4642	0.664	-0.134
Mof_H 	H 	0.736	0.4316	0.6887	0.096
Mof_C 	C 	0.731	0.5516	0.6583	0.065
Mof_C 	C 	0.7102	0.5972	0.622	-0.13
Mof_H 	H 	0.7157	0.6582	0.6163	0.09
Mof_C 	C 	0.6812	0.5511	0.5944	0.079
Mof_H 	H 	0.6663	0.5829	0.57	-0.038
Mof_C 	C 	0.7621	0.596	0.6902	0.092
Mof_C 	C 	0.8113	0.5851	0.7503	0.095
Mof_C 	C 	0.7974	0.717	0.7157	0.109
Mof_C 	C 	0.7874	0.966	0.6943	0.062
Mof_H 	H 	0.7703	0.0062	0.6759	-0.023
Mof_C 	C 	0.7797	0.8744	0.689	-0.122
Mof_H 	H 	0.7578	0.8538	0.6682	0.078
Mof_C 	C 	0.8044	0.8145	0.7145	0.05
Mof_C 	C 	0.8361	0.8528	0.7444	-0.113
Mof_H 	H 	0.8544	0.8149	0.7627	0.074
Mof_C 	C 	0.8409	0.9437	0.7474	0.055
Mof_H 	H 	0.8624	0.9677	0.7678	-0.025
Mof_C 	C 	0.8519	0.3999	0.8294	0.073
Mof_H 	H 	0.847	0.3383	0.8342	0.007
Mof_C 	C 	0.8289	0.4441	0.7935	-0.133
Mof_H 	H 	0.8095	0.4126	0.7732	0.094
Mof_C 	C 	0.8347	0.5325	0.7882	0.073
Mof_C 	C 	0.8629	0.574	0.8169	-0.133
Mof_H 	H 	0.8681	0.6359	0.813	0.092
Mof_C 	C 	0.8847	0.5265	0.8522	0.085
Mof_H 	H 	0.9034	0.5574	0.8736	-0.008
Mof_N 	N 	0.6726	0.4668	0.5992	-0.341
Mof_N 	N 	0.7818	0.5441	0.7232	-0.138
Mof_N 	N 	0.8207	0.6717	0.7478	-0.137
Mof_N 	N 	0.7687	0.6828	0.6855	-0.134
Mof_N 	N 	0.8158	-1.33243e-32	0.7221	-0.281
Mof_N 	N 	0.8801	0.4404	0.8568	-0.276
Mof_C 	C 	0.5697	0.5324	0.5106	0.085
Mof_H 	H 	0.5806	0.5255	0.4836	-0.019
Mof_C 	C 	0.5366	0.5903	0.5108	-0.146
Mof_H 	H 	0.5255	0.6209	0.4839	0.084
Mof_C 	C 	0.522	0.601	0.5474	0.084
Mof_C 	C 	0.5393	0.5556	0.5849	-0.167
Mof_H 	H 	0.5288	0.5616	0.6122	0.088
Mof_C 	C 	0.5704	0.5033	0.5844	0.104
Mof_H 	H 	0.5822	0.476	0.612	-0.065
Mof_C 	C 	0.4879	0.6591	0.5485	0.072
Mof_C 	C 	0.4546	0.7864	0.5278	0.08
Mof_C 	C 	0.4362	0.7	0.5822	0.117
Mof_C 	C 	0.4672	0.9707	0.4467	0.077
Mof_H 	H 	0.485	0.9865	0.4268	-0.015
Mof_C 	C 	0.4741	0.8938	0.4721	-0.143
Mof_H 	H 	0.4964	0.8577	0.4698	0.079
Mof_C 	C 	0.4492	0.8702	0.5003	0.09
Mof_C 	C 	0.4177	0.9234	0.5018	-0.156
Mof_H 	H 	0.3988	0.9077	0.5204	0.105
Mof_C 	C 	0.4131	0.0013	0.4759	0.118
Mof_H 	H 	0.3915	0.0393	0.4787	-0.031
Mof_C 	C 	0.3562	0.7201	0.6497	0.07
Mof_H 	H 	0.3343	0.7585	0.6509	-0.016
Mof_C 	C 	0.3792	0.7376	0.6156	-0.119
Mof_H 	H 	0.3723	0.7838	0.5938	0.101
Mof_C 	C 	0.4114	0.6856	0.6151	0.072
Mof_C 	C 	0.4143	0.6137	0.6478	-0.148
Mof_H 	H 	0.4347	0.5712	0.647	0.082
Mof_C 	C 	0.3923	0.6015	0.6776	0.096
Mof_H 	H 	0.3976	0.553	0.6983	-0.038
Mof_N 	N 	0.5853	0.488	0.5478	-0.348
Mof_N 	N 	0.4839	0.7314	0.5205	-0.142
Mof_N 	N 	0.4293	0.7754	0.5586	-0.12
Mof_N 	N 	0.4644	0.643	0.5797	-0.135
Mof_N 	N 	0.4361	0.0246	0.4488	-0.283
Mof_N 	N 	0.3623	0.6551	0.6802	-0.298
Mof_Zn	Zn	0.64145	0.4106	0.5363	1.087
Mof_Zn	Zn	0.8284	0.1367	0.7317	0.686
Mof_Zn	Zn	0.91949	0.37023	0.90437	1.159
Mof_I 	I 	0.66753	0.4401	0.4647	1.043
Mof_I 	I 	0.76594	0.2309	0.7111	-0.244
Mof_I 	I 	0.87263	0.15091	0.80705	0.167
Mof_I 	I 	0.88045	0.2611	0.94789	-0.427
Mof_I 	I 	0.97715	0.33642	0.86419	-0.194
Mof_I 	I 	0.6234	0.2578	0.5717	-0.293
Mof_Zn	Zn	0.62578	0.399	0.56167	0.937
Mof_Zn	Zn	0.8219	0.1326	0.7195	0.599
Mof_I 	I 	0.65159	0.3932	0.4878	-1.821
Mof_I 	I 	0.6374	0.2625	0.5464	-0.146
Mof_I 	I 	0.7665	0.2188	0.6926	-0.09
Mof_I 	I 	0.7476	0.2067	0.6683	-0.008
Mof_I 	I 	0.8553	0.168	0.796	-0.281
Mof_I 	I 	0.8314	0.194	0.7849	-0.43
Mof_I 	I 	0.8894	0.2589	0.9348	0.03
Mof_I 	I 	0.9741	0.3365	0.8631	-0.14
Mof_I 	I 	0.60408	0.26244	0.60184	-0.113
Mof_C 	C 	0.1931	0.9226	0.6352	0.075
Mof_H 	H 	0.1872	0.8616	0.6403	-0.015
Mof_C 	C 	0.2219	0.9642	0.664	-0.153
Mof_H 	H 	0.236	0.9316	0.6887	0.1
Mof_C 	C 	0.231	0.0516	0.6583	0.082
Mof_C 	C 	0.2102	0.0972	0.622	-0.142
Mof_H 	H 	0.2157	0.1582	0.6163	0.094
Mof_C 	C 	0.1812	0.0511	0.5944	0.093
Mof_H 	H 	0.1663	0.0829	0.57	-0.041
Mof_C 	C 	0.2621	0.096	0.6902	0.089
Mof_C 	C 	0.3113	0.0851	0.7503	0.091
Mof_C 	C 	0.2974	0.217	0.7157	0.107
Mof_C 	C 	0.2874	0.466	0.6943	0.089
Mof_H 	H 	0.2703	0.5062	0.6759	-0.036
Mof_C 	C 	0.2797	0.3744	0.689	-0.136
Mof_H 	H 	0.2578	0.3538	0.6682	0.084
Mof_C 	C 	0.3044	0.3145	0.7145	0.059
Mof_C 	C 	0.3361	0.3528	0.7444	-0.122
Mof_H 	H 	0.3544	0.3149	0.7627	0.078
Mof_C 	C 	0.3409	0.4437	0.7474	0.067
Mof_H 	H 	0.3624	0.4677	0.7678	-0.026
Mof_C 	C 	0.3519	0.8999	0.8294	0.08
Mof_H 	H 	0.347	0.8383	0.8342	0.004
Mof_C 	C 	0.3289	0.9441	0.7935	-0.152
Mof_H 	H 	0.3095	0.9126	0.7732	0.099
Mof_C 	C 	0.3347	0.0325	0.7882	0.09
Mof_C 	C 	0.3629	0.074	0.8169	-0.146
Mof_H 	H 	0.3681	0.1359	0.813	0.096
Mof_C 	C 	0.3847	0.0265	0.8522	0.1
Mof_H 	H 	0.4034	0.0574	0.8736	-0.011
Mof_N 	N 	0.1726	0.9668	0.5992	-0.348
Mof_N 	N 	0.2818	0.0441	0.7232	-0.135
Mof_N 	N 	0.3207	0.1717	0.7478	-0.135
Mof_N 	N 	0.2687	0.1828	0.6855	-0.133
Mof_N 	N 	0.3158	0.5	0.7221	-0.293
Mof_N 	N 	0.3801	0.9404	0.8568	-0.283
Mof_C 	C 	0.0697	0.0324	0.5106	0.099
Mof_H 	H 	0.0806	0.0255	0.4836	-0.021
Mof_C 	C 	0.0366	0.0903	0.5108	-0.158
Mof_H 	H 	0.0255	0.1209	0.4839	0.089
Mof_C 	C 	0.022	0.101	0.5474	0.098
Mof_C 	C 	0.0393	0.0556	0.5849	-0.188
Mof_H 	H 	0.0288	0.0616	0.6122	0.097
Mof_C 	C 	0.0704	0.0033	0.5844	0.135
Mof_H 	H 	0.0822	0.976	0.612	-0.08
Mof_C 	C 	0.9879	0.1591	0.5485	0.068
Mof_C 	C 	0.9546	0.2864	0.5278	0.082
Mof_C 	C 	0.9362	0.2	0.5822	0.117
Mof_C 	C 	0.9672	0.4707	0.4467	0.082
Mof_H 	H 	0.985	0.4865	0.4268	-0.014
Mof_C 	C 	0.9741	0.3938	0.4721	-0.142
Mof_H 	H 	0.9964	0.3577	0.4698	0.079
Mof_C 	C 	0.9492	0.3702	0.5003	0.087
Mof_C 	C 	0.9177	0.4234	0.5018	-0.143
Mof_H 	H 	0.8988	0.4077	0.5204	0.102
Mof_C 	C 	0.9131	0.5013	0.4759	0.106
Mof_H 	H 	0.8915	0.5393	0.4787	-0.029
Mof_C 	C 	0.8562	0.2201	0.6497	0.07
Mof_H 	H 	0.8343	0.2585	0.6509	-0.016
Mof_C 	C 	0.8792	0.2376	0.6156	-0.118
Mof_H 	H 	0.8723	0.2838	0.5938	0.102
Mof_C 	C 	0.9114	0.1856	0.6151	0.072
Mof_C 	C 	0.9143	0.1137	0.6478	-0.148
Mof_H 	H 	0.9347	0.0712	0.647	0.083
Mof_C 	C 	0.8923	0.1015	0.6776	0.097
Mof_H 	H 	0.8976	0.053	0.6983	-0.037
Mof_N 	N 	0.0853	0.988	0.5478	-0.361
Mof_N 	N 	0.9839	0.2314	0.5205	-0.141
Mof_N 	N 	0.9293	0.2754	0.5586	-0.12
Mof_N 	N 	0.9644	0.143	0.5797	-0.134
Mof_N 	N 	0.9361	0.5246	0.4488	-0.284
Mof_N 	N 	0.8623	0.1551	0.6802	-0.298
Mof_Zn	Zn	0.14145	0.9106	0.5363	1.086
Mof_Zn	Zn	0.3284	0.6367	0.7317	0.686
Mof_Zn	Zn	0.41949	0.87023	0.90437	1.159
Mof_I 	I 	0.16753	0.9401	0.4647	1.037
Mof_I 	I 	0.26594	0.7309	0.7111	-0.245
Mof_I 	I 	0.37263	0.65091	0.80705	0.166
Mof_I 	I 	0.38045	0.7611	0.94789	-0.427
Mof_I 	I 	0.47715	0.83642	0.86419	-0.195
Mof_I 	I 	0.1234	0.7578	0.5717	-0.297
Mof_Zn	Zn	0.12578	0.899	0.56167	0.937
Mof_Zn	Zn	0.3219	0.6326	0.7195	0.599
Mof_I 	I 	0.15159	0.8932	0.4878	-1.819
Mof_I 	I 	0.1374	0.7625	0.5464	-0.145
Mof_I 	I 	0.2665	0.7188	0.6926	-0.092
Mof_I 	I 	0.2476	0.7067	0.6683	-0.008
Mof_I 	I 	0.3553	0.668	0.796	-0.283
Mof_I 	I 	0.3314	0.694	0.7849	-0.429
Mof_I 	I 	0.3894	0.7589	0.9348	0.027
Mof_I 	I 	0.4741	0.8365	0.8631	-0.142
Mof_I 	I 	0.10408	0.76244	0.60184	-0.113
_end
