# CIF file generated by openbabel 3.1.0, see https://openbabel.org
data_I
_chemical_name_common 'image0'
_cell_length_a 12.726
_cell_length_b 12.726
_cell_length_c 30.939
_cell_angle_alpha 90
_cell_angle_beta 90
_cell_angle_gamma 120
_space_group_name_H-M_alt 'P 1'
_space_group_name_Hall 'P 1'
loop_
    _symmetry_equiv_pos_as_xyz
    x,y,z
loop_
    _atom_site_label
    _atom_site_type_symbol
    _atom_site_fract_x
    _atom_site_fract_y
    _atom_site_fract_z
    _atom_site_occupancy
    Al1      Al       0.75330    0.75722    0.29540    1.000
    Al2      Al       0.57616    0.90230    0.21646    1.000
    P1       P        0.57783    0.90432    0.11444    1.000
    P2       P        0.75682    0.00127    0.29140    1.000
    O1       O        0.61376    0.93930    0.16168    1.000
    O2       O        0.53414    0.75325    0.22506    1.000
    O3       O        0.79283    0.90717    0.29395    1.000
    O4       O        0.46125    0.92799    0.23103    1.000
    O5       O        0.70143    0.99588    0.24720    1.000
    O6       O        0.87760    0.74202    0.29679    1.000
    O7       O        0.66441    0.68355    0.33993    1.000
    O8       O        0.67590    0.68627    0.24778    1.000
    Al3      Al       0.41997    0.09055    0.62873    1.000
    Al4      Al       0.24283    0.23563    0.54979    1.000
    P3       P        0.24450    0.23765    0.44777    1.000
    P4       P        0.42349    0.33460    0.62473    1.000
    O9       O        0.28043    0.27263    0.49501    1.000
    O10      O        0.20081    0.08658    0.55839    1.000
    O11      O        0.45950    0.24050    0.62728    1.000
    O12      O        0.12792    0.26132    0.56436    1.000
    O13      O        0.36810    0.32921    0.58053    1.000
    O14      O        0.54427    0.07535    0.63012    1.000
    O15      O        0.33108    0.01688    0.67326    1.000
    O16      O        0.34257    0.01960    0.58111    1.000
    Al5      Al       0.08663    0.42389    0.96207    1.000
    Al6      Al       0.90949    0.56897    0.88313    1.000
    P5       P        0.91116    0.57099    0.78111    1.000
    P6       P        0.09015    0.66794    0.95807    1.000
    O17      O        0.94709    0.60597    0.82835    1.000
    O18      O        0.86747    0.41992    0.89173    1.000
    O19      O        0.12616    0.57384    0.96062    1.000
    O20      O        0.79458    0.59466    0.89770    1.000
    O21      O        0.03476    0.66255    0.91387    1.000
    O22      O        0.21093    0.40869    0.96346    1.000
    O23      O        0.99774    0.35022    0.00660    1.000
    O24      O        0.00923    0.35294    0.91445    1.000
    Al7      Al       0.24278    0.99608    0.29540    1.000
    Al8      Al       0.09770    0.67386    0.21646    1.000
    P7       P        0.09568    0.67351    0.11444    1.000
    P8       P        0.99873    0.75555    0.29140    1.000
    O25      O        0.06070    0.67446    0.16168    1.000
    O26      O        0.24675    0.78089    0.22506    1.000
    O27      O        0.09283    0.88566    0.29395    1.000
    O28      O        0.07201    0.53326    0.23103    1.000
    O29      O        0.00412    0.70555    0.24720    1.000
    O30      O        0.25798    0.13558    0.29679    1.000
    O31      O        0.31645    0.98086    0.33993    1.000
    O32      O        0.31373    0.98963    0.24778    1.000
    Al9      Al       0.90945    0.32941    0.62873    1.000
    Al10     Al       0.76437    0.00719    0.54979    1.000
    P9       P        0.76235    0.00684    0.44777    1.000
    P10      P        0.66540    0.08888    0.62473    1.000
    O33      O        0.72737    0.00779    0.49501    1.000
    O34      O        0.91342    0.11422    0.55839    1.000
    O35      O        0.75950    0.21899    0.62728    1.000
    O36      O        0.73868    0.86659    0.56436    1.000
    O37      O        0.67079    0.03888    0.58053    1.000
    O38      O        0.92465    0.46891    0.63012    1.000
    O39      O        0.98312    0.31419    0.67326    1.000
    O40      O        0.98040    0.32296    0.58111    1.000
    Al11     Al       0.57611    0.66275    0.96207    1.000
    Al12     Al       0.43103    0.34053    0.88313    1.000
    P11      P        0.42901    0.34018    0.78111    1.000
    P12      P        0.33206    0.42222    0.95807    1.000
    O41      O        0.39403    0.34113    0.82835    1.000
    O42      O        0.58008    0.44756    0.89173    1.000
    O43      O        0.42616    0.55233    0.96062    1.000
    O44      O        0.40534    0.19993    0.89770    1.000
    O45      O        0.33745    0.37222    0.91387    1.000
    O46      O        0.59131    0.80225    0.96346    1.000
    O47      O        0.64978    0.64753    0.00660    1.000
    O48      O        0.64706    0.65630    0.91445    1.000
    Al13     Al       0.00392    0.24670    0.29540    1.000
    Al14     Al       0.32614    0.42384    0.21646    1.000
    P13      P        0.32649    0.42217    0.11444    1.000
    P14      P        0.24445    0.24318    0.29140    1.000
    O49      O        0.32554    0.38624    0.16168    1.000
    O50      O        0.21911    0.46586    0.22506    1.000
    O51      O        0.11434    0.20717    0.29395    1.000
    O52      O        0.46674    0.53875    0.23103    1.000
    O53      O        0.29445    0.29857    0.24720    1.000
    O54      O        0.86442    0.12240    0.29679    1.000
    O55      O        0.01914    0.33559    0.33993    1.000
    O56      O        0.01037    0.32410    0.24778    1.000
    Al15     Al       0.67059    0.58003    0.62873    1.000
    Al16     Al       0.99281    0.75717    0.54979    1.000
    P15      P        0.99316    0.75550    0.44777    1.000
    P16      P        0.91112    0.57651    0.62473    1.000
    O57      O        0.99221    0.71957    0.49501    1.000
    O58      O        0.88578    0.79919    0.55839    1.000
    O59      O        0.78101    0.54050    0.62728    1.000
    O60      O        0.13341    0.87208    0.56436    1.000
    O61      O        0.96112    0.63190    0.58053    1.000
    O62      O        0.53109    0.45573    0.63012    1.000
    O63      O        0.68581    0.66892    0.67326    1.000
    O64      O        0.67704    0.65743    0.58111    1.000
    Al17     Al       0.33725    0.91337    0.96207    1.000
    Al18     Al       0.65947    0.09051    0.88313    1.000
    P17      P        0.65982    0.08884    0.78111    1.000
    P18      P        0.57778    0.90985    0.95807    1.000
    O65      O        0.65887    0.05291    0.82835    1.000
    O66      O        0.55244    0.13253    0.89173    1.000
    O67      O        0.44767    0.87384    0.96062    1.000
    O68      O        0.80007    0.20542    0.89770    1.000
    O69      O        0.62778    0.96524    0.91387    1.000
    O70      O        0.19775    0.78907    0.96346    1.000
    O71      O        0.35247    0.00226    0.00660    1.000
    O72      O        0.34370    0.99077    0.91445    1.000
    Al19     Al       0.24670    0.24278    0.70460    1.000
    Al20     Al       0.42384    0.09770    0.78354    1.000
    P19      P        0.42217    0.09568    0.88556    1.000
    P20      P        0.24318    0.99873    0.70860    1.000
    O73      O        0.38624    0.06070    0.83832    1.000
    O74      O        0.46586    0.24675    0.77494    1.000
    O75      O        0.20717    0.09283    0.70605    1.000
    O76      O        0.53875    0.07201    0.76897    1.000
    O77      O        0.29857    0.00412    0.75280    1.000
    O78      O        0.12240    0.25798    0.70321    1.000
    O79      O        0.33559    0.31645    0.66007    1.000
    O80      O        0.32410    0.31373    0.75222    1.000
    Al21     Al       0.91337    0.57611    0.03793    1.000
    Al22     Al       0.09051    0.43103    0.11687    1.000
    P21      P        0.08884    0.42901    0.21889    1.000
    P22      P        0.90985    0.33206    0.04193    1.000
    O81      O        0.05291    0.39403    0.17165    1.000
    O82      O        0.13253    0.58008    0.10827    1.000
    O83      O        0.87384    0.42616    0.03938    1.000
    O84      O        0.20542    0.40534    0.10230    1.000
    O85      O        0.96524    0.33745    0.08613    1.000
    O86      O        0.78907    0.59131    0.03654    1.000
    O87      O        0.00226    0.64978    0.99340    1.000
    O88      O        0.99077    0.64706    0.08555    1.000
    Al23     Al       0.58003    0.90945    0.37127    1.000
    Al24     Al       0.75717    0.76437    0.45021    1.000
    P23      P        0.75550    0.76235    0.55223    1.000
    P24      P        0.57651    0.66540    0.37527    1.000
    O89      O        0.71957    0.72737    0.50499    1.000
    O90      O        0.79919    0.91342    0.44161    1.000
    O91      O        0.54050    0.75950    0.37272    1.000
    O92      O        0.87208    0.73868    0.43564    1.000
    O93      O        0.63190    0.67079    0.41947    1.000
    O94      O        0.45573    0.92465    0.36988    1.000
    O95      O        0.66892    0.98312    0.32674    1.000
    O96      O        0.65743    0.98040    0.41889    1.000
    Al25     Al       0.75722    0.00392    0.70460    1.000
    Al26     Al       0.90230    0.32614    0.78354    1.000
    P25      P        0.90432    0.32649    0.88556    1.000
    P26      P        0.00127    0.24445    0.70860    1.000
    O97      O        0.93930    0.32554    0.83832    1.000
    O98      O        0.75325    0.21911    0.77494    1.000
    O99      O        0.90717    0.11434    0.70605    1.000
    O100     O        0.92799    0.46674    0.76897    1.000
    O101     O        0.99588    0.29445    0.75280    1.000
    O102     O        0.74202    0.86442    0.70321    1.000
    O103     O        0.68355    0.01914    0.66007    1.000
    O104     O        0.68627    0.01037    0.75222    1.000
    Al27     Al       0.42389    0.33725    0.03793    1.000
    Al28     Al       0.56897    0.65947    0.11687    1.000
    P27      P        0.57099    0.65982    0.21889    1.000
    P28      P        0.66794    0.57778    0.04193    1.000
    O105     O        0.60597    0.65887    0.17165    1.000
    O106     O        0.41992    0.55244    0.10827    1.000
    O107     O        0.57384    0.44767    0.03938    1.000
    O108     O        0.59466    0.80007    0.10230    1.000
    O109     O        0.66255    0.62778    0.08613    1.000
    O110     O        0.40869    0.19775    0.03654    1.000
    O111     O        0.35022    0.35247    0.99340    1.000
    O112     O        0.35294    0.34370    0.08555    1.000
    Al29     Al       0.09055    0.67059    0.37127    1.000
    Al30     Al       0.23563    0.99281    0.45021    1.000
    P29      P        0.23765    0.99316    0.55223    1.000
    P30      P        0.33460    0.91112    0.37527    1.000
    O113     O        0.27263    0.99221    0.50499    1.000
    O114     O        0.08658    0.88578    0.44161    1.000
    O115     O        0.24050    0.78101    0.37272    1.000
    O116     O        0.26132    0.13341    0.43564    1.000
    O117     O        0.32921    0.96112    0.41947    1.000
    O118     O        0.07535    0.53109    0.36988    1.000
    O119     O        0.01688    0.68581    0.32674    1.000
    O120     O        0.01960    0.67704    0.41889    1.000
    Al31     Al       0.99608    0.75330    0.70460    1.000
    Al32     Al       0.67386    0.57616    0.78354    1.000
    P31      P        0.67351    0.57783    0.88556    1.000
    P32      P        0.75555    0.75682    0.70860    1.000
    O121     O        0.67446    0.61376    0.83832    1.000
    O122     O        0.78089    0.53414    0.77494    1.000
    O123     O        0.88566    0.79283    0.70605    1.000
    O124     O        0.53326    0.46125    0.76897    1.000
    O125     O        0.70555    0.70143    0.75280    1.000
    O126     O        0.13558    0.87760    0.70321    1.000
    O127     O        0.98086    0.66441    0.66007    1.000
    O128     O        0.98963    0.67590    0.75222    1.000
    Al33     Al       0.66275    0.08663    0.03793    1.000
    Al34     Al       0.34053    0.90949    0.11687    1.000
    P33      P        0.34018    0.91116    0.21889    1.000
    P34      P        0.42222    0.09015    0.04193    1.000
    O129     O        0.34113    0.94709    0.17165    1.000
    O130     O        0.44756    0.86747    0.10827    1.000
    O131     O        0.55233    0.12616    0.03938    1.000
    O132     O        0.19993    0.79458    0.10230    1.000
    O133     O        0.37222    0.03476    0.08613    1.000
    O134     O        0.80225    0.21093    0.03654    1.000
    O135     O        0.64753    0.99774    0.99340    1.000
    O136     O        0.65630    0.00923    0.08555    1.000
    Al35     Al       0.32941    0.41997    0.37127    1.000
    Al36     Al       0.00719    0.24283    0.45021    1.000
    P35      P        0.00684    0.24450    0.55223    1.000
    P36      P        0.08888    0.42349    0.37527    1.000
    O137     O        0.00779    0.28043    0.50499    1.000
    O138     O        0.11422    0.20081    0.44161    1.000
    O139     O        0.21899    0.45950    0.37272    1.000
    O140     O        0.86659    0.12792    0.43564    1.000
    O141     O        0.03888    0.36810    0.41947    1.000
    O142     O        0.46891    0.54427    0.36988    1.000
    O143     O        0.31419    0.33108    0.32674    1.000
    O144     O        0.32296    0.34257    0.41889    1.000
