# CIF file generated by openbabel 3.1.0, see https://openbabel.org
data_I
_chemical_name_common 'CATART03_clean'
_cell_length_a 9.2197
_cell_length_b 9.6228
_cell_length_c 10.5649
_cell_angle_alpha 90
_cell_angle_beta 90
_cell_angle_gamma 90
_space_group_name_H-M_alt 'P 1'
_space_group_name_Hall 'P 1'
loop_
    _symmetry_equiv_pos_as_xyz
    x,y,z
loop_
    _atom_site_label
    _atom_site_type_symbol
    _atom_site_fract_x
    _atom_site_fract_y
    _atom_site_fract_z
    _atom_site_occupancy
    Ca1      Ca       0.81393    0.68112    0.32289    1.000
    Ca2      Ca       0.31393    0.81888    0.67711    1.000
    Ca3      Ca       0.68607    0.31888    0.82289    1.000
    Ca4      Ca       0.18607    0.18112    0.17711    1.000
    H1       H        0.68912    0.26255    0.34276    1.000
    H2       H        0.75094    0.17378    0.14285    1.000
    H3       H        0.57131    0.45464    0.33983    1.000
    H4       H        0.87631    0.31303    0.03443    1.000
    H5       H        0.18912    0.23745    0.65724    1.000
    H6       H        0.25094    0.32622    0.85715    1.000
    H7       H        0.07131    0.04536    0.66017    1.000
    H8       H        0.37631    0.18697    0.96557    1.000
    H9       H        0.81088    0.73745    0.84276    1.000
    H10      H        0.74906    0.82622    0.64285    1.000
    H11      H        0.92869    0.54536    0.83983    1.000
    H12      H        0.62369    0.68697    0.53443    1.000
    H13      H        0.31088    0.76255    0.15724    1.000
    H14      H        0.24906    0.67378    0.35715    1.000
    H15      H        0.42869    0.95464    0.16017    1.000
    H16      H        0.12369    0.81303    0.46557    1.000
    C1       C        0.89000    0.35690    0.29590    1.000
    C2       C        0.72630    0.33900    0.27560    1.000
    C3       C        0.70220    0.27360    0.14220    1.000
    C4       C        0.54140    0.26070    0.10620    1.000
    C5       C        0.39000    0.14310    0.70410    1.000
    C6       C        0.22630    0.16100    0.72440    1.000
    C7       C        0.20220    0.22640    0.85780    1.000
    C8       C        0.04140    0.23930    0.89380    1.000
    C9       C        0.61000    0.64310    0.79590    1.000
    C10      C        0.77370    0.66100    0.77560    1.000
    C11      C        0.79780    0.72640    0.64220    1.000
    C12      C        0.95860    0.73930    0.60620    1.000
    C13      C        0.11000    0.85690    0.20410    1.000
    C14      C        0.27370    0.83900    0.22440    1.000
    C15      C        0.29780    0.77360    0.35780    1.000
    C16      C        0.45860    0.76070    0.39380    1.000
    O1       O        0.94201    0.47005    0.32557    1.000
    O2       O        0.96154    0.24580    0.28371    1.000
    O3       O        0.66052    0.47417    0.28152    1.000
    O4       O        0.77303    0.35473    0.04798    1.000
    O5       O        0.45173    0.23519    0.18936    1.000
    O6       O        0.51541    0.26735    0.98667    1.000
    O7       O        0.44201    0.02995    0.67443    1.000
    O8       O        0.46154    0.25420    0.71629    1.000
    O9       O        0.16052    0.02583    0.71848    1.000
    O10      O        0.27303    0.14527    0.95202    1.000
    O11      O        0.95173    0.26481    0.81064    1.000
    O12      O        0.01541    0.23265    0.01333    1.000
    O13      O        0.55799    0.52995    0.82557    1.000
    O14      O        0.53846    0.75420    0.78371    1.000
    O15      O        0.83948    0.52583    0.78152    1.000
    O16      O        0.72697    0.64527    0.54798    1.000
    O17      O        0.04827    0.76481    0.68936    1.000
    O18      O        0.98459    0.73265    0.48667    1.000
    O19      O        0.05799    0.97005    0.17443    1.000
    O20      O        0.03846    0.74580    0.21629    1.000
    O21      O        0.33948    0.97417    0.21848    1.000
    O22      O        0.22697    0.85473    0.45202    1.000
    O23      O        0.54827    0.73519    0.31064    1.000
    O24      O        0.48459    0.76735    0.51333    1.000
