data_functionalizedCrystal
_audit_creation_method	'EQeq! by Chris Wilmer'
_symmetry_space_group_name_H-M	'P1'
_symmetry_Int_Tables_number	1
_symmetry_cell_setting	triclinic
loop_
_symmetry_equiv_pos_as_xyz
  x,y,z
_cell_length_a	14.649
_cell_length_b	13.47
_cell_length_c	24.399
_cell_angle_alpha	90
_cell_angle_beta	106.607
_cell_angle_gamma	90
loop_
_atom_site_label
_atom_site_type_symbol
_atom_site_fract_x
_atom_site_fract_y
_atom_site_fract_z
_atom_site_charge
Mof_C 	C 	0.338	0.9643	0.35446	-0.008
Mof_H 	H 	0.3006	0.9254	0.3711	0.008
Mof_C 	C 	0.3205	0.9874	0.29869	-0.031
Mof_H 	H 	0.2677	0.9661	0.2699	0.006
Mof_C 	C 	0.45059	0.0595	0.34173	0.076
Mof_H 	H 	0.5054	0.0982	0.3494	-0.016
Mof_C 	C 	0.46396	0.0078	0.44241	0.014
Mof_C 	C 	0.5122	0.9234	0.46587	-0.188
Mof_H 	H 	0.5193	0.8719	0.442	0.089
Mof_C 	C 	0.4494	0.0861	0.47524	0.182
Mof_C 	C 	0.3931	0.1761	0.45058	-0.673
Mof_H 	H 	0.4093	0.1963	0.4168	0.218
Mof_H 	H 	0.4076	0.2289	0.4782	0.219
Mof_H 	H 	0.3264	0.1611	0.4409	0.215
Mof_C 	C 	0.29926	0.9611	0.15311	0.004
Mof_H 	H 	0.3559	0.9288	0.1713	0.005
Mof_C 	C 	0.2335	0.9268	0.10641	-0.021
Mof_H 	H 	0.2359	0.8683	0.0867	0.019
Mof_C 	C 	0.18762	0.068	0.13366	0.073
Mof_H 	H 	0.1506	0.1235	0.1351	-0.036
Mof_C 	C 	0.07952	0.999	0.045	0.016
Mof_C 	C 	0.0718	0.0731	0.00508	0.176
Mof_C 	C 	0.1463	0.1512	0.00862	-0.654
Mof_H 	H 	0.1436	0.1991	0.0372	0.207
Mof_H 	H 	0.1348	0.1836	0.9722	0.21
Mof_H 	H 	0.2081	0.1208	0.0187	0.21
Mof_C 	C 	0.0111	0.9281	0.04069	-0.186
Mof_H 	H 	0.02	0.8797	0.0689	0.089
Mof_C 	C 	0.53515	0.0598	0.20479	0.094
Mof_H 	H 	0.5438	0.0163	0.2354	-0.018
Mof_C 	C 	0.5578	0.1382	0.13252	-0.015
Mof_H 	H 	0.5834	0.1601	0.1039	0.019
Mof_C 	C 	0.4789	0.1721	0.14327	-0.006
Mof_H 	H 	0.4398	0.2219	0.1227	-0.012
Mof_C 	C 	0.7496	0.017	0.23009	-0.179
Mof_H 	H 	0.7371	0.0527	0.2598	0.088
Mof_C 	C 	0.68104	0.0113	0.17805	0.022
Mof_C 	C 	0.69354	0.9575	0.13241	0.163
Mof_C 	C 	0.78154	0.9119	0.14115	-0.175
Mof_H 	H 	0.7936	0.8755	0.1116	0.082
Mof_C 	C 	0.85123	0.9192	0.19248	0.021
Mof_C 	C 	0.8372	0.97	0.23882	0.167
Mof_C 	C 	0.9125	0.9759	0.29574	-0.619
Mof_H 	H 	0.928	0.9101	0.3107	0.202
Mof_H 	H 	0.8889	0.0142	0.3219	0.197
Mof_H 	H 	0.9686	0.007	0.2908	0.198
Mof_C 	C 	0.6176	0.9447	0.07591	-0.621
Mof_H 	H 	0.5563	0.9392	0.0826	0.203
Mof_H 	H 	0.6302	0.8857	0.0573	0.195
Mof_H 	H 	0.618	0.0012	0.052	0.197
Mof_C 	C 	0.96934	0.7838	0.22111	0.086
Mof_H 	H 	0.9293	0.7399	0.2325	-0.013
Mof_C 	C 	0.0191	0.9148	0.18734	-0.013
Mof_H 	H 	0.0223	0.977	0.1715	0.029
Mof_C 	C 	0.0903	0.8477	0.20411	-0.014
Mof_H 	H 	0.1518	0.8564	0.2013	-0
Mof_N 	N 	0.05894	0.76547	0.22567	-0.256
Mof_N 	N 	0.94199	0.87281	0.19832	-0.129
Mof_N 	N 	0.59377	0.06539	0.17167	-0.129
Mof_N 	N 	0.46429	0.12272	0.18907	-0.248
Mof_N 	N 	0.39178	0.04695	0.29037	-0.242
Mof_N 	N 	0.4224	0.01022	0.38168	-0.129
Mof_N 	N 	0.27109	0.0497	0.16999	-0.253
Mof_N 	N 	0.16259	0.99606	0.09409	-0.125
Mof_Ni	Ni	0.35576	0.15309	0.22604	1.01
Mof_C 	C 	0.162	0.4643	0.14554	-0.009
Mof_H 	H 	0.1994	0.4254	0.1289	0.007
Mof_C 	C 	0.1795	0.4874	0.20131	-0.032
Mof_H 	H 	0.2323	0.4661	0.2301	0.005
Mof_C 	C 	0.04941	0.5595	0.15827	0.076
Mof_H 	H 	0.9946	0.5982	0.1506	-0.016
Mof_C 	C 	0.03604	0.5078	0.05759	0.015
Mof_C 	C 	0.9878	0.4234	0.03413	-0.189
Mof_H 	H 	0.9807	0.3719	0.058	0.089
Mof_C 	C 	0.0506	0.5861	0.02476	0.182
Mof_C 	C 	0.1069	0.6761	0.04942	-0.673
Mof_H 	H 	0.0907	0.6963	0.0832	0.218
Mof_H 	H 	0.0924	0.7289	0.0218	0.219
Mof_H 	H 	0.1736	0.6611	0.0591	0.215
Mof_C 	C 	0.20074	0.4611	0.34689	0.004
Mof_H 	H 	0.1441	0.4288	0.3287	0.005
Mof_C 	C 	0.2665	0.4268	0.39359	-0.021
Mof_H 	H 	0.2641	0.3683	0.4133	0.019
Mof_C 	C 	0.31238	0.568	0.36634	0.073
Mof_H 	H 	0.3494	0.6235	0.3649	-0.036
Mof_C 	C 	0.42048	0.499	0.455	0.017
Mof_C 	C 	0.4282	0.5731	0.49492	0.174
Mof_C 	C 	0.3537	0.6512	0.49138	-0.65
Mof_H 	H 	0.3564	0.6991	0.4628	0.206
Mof_H 	H 	0.3652	0.6836	0.5278	0.209
Mof_H 	H 	0.2919	0.6208	0.4813	0.209
Mof_C 	C 	0.4889	0.4281	0.45931	-0.184
Mof_H 	H 	0.48	0.3797	0.4311	0.089
Mof_C 	C 	0.96485	0.5598	0.29521	0.094
Mof_H 	H 	0.9562	0.5163	0.2646	-0.018
Mof_C 	C 	0.9422	0.6382	0.36748	-0.014
Mof_H 	H 	0.9166	0.6601	0.3961	0.019
Mof_C 	C 	0.0211	0.6721	0.35673	-0.007
Mof_H 	H 	0.0602	0.7219	0.3773	-0.012
Mof_C 	C 	0.7504	0.517	0.26991	-0.181
Mof_H 	H 	0.7629	0.5527	0.2402	0.089
Mof_C 	C 	0.81896	0.5113	0.32195	0.025
Mof_C 	C 	0.80646	0.4575	0.36759	0.161
Mof_C 	C 	0.71846	0.4119	0.35885	-0.173
Mof_H 	H 	0.7064	0.3755	0.3884	0.081
Mof_C 	C 	0.64877	0.4192	0.30752	0.019
Mof_C 	C 	0.6628	0.47	0.26118	0.172
Mof_C 	C 	0.5875	0.4759	0.20426	-0.639
Mof_H 	H 	0.572	0.4101	0.1893	0.207
Mof_H 	H 	0.6111	0.5142	0.1781	0.204
Mof_H 	H 	0.5314	0.507	0.2092	0.206
Mof_C 	C 	0.8824	0.4447	0.42409	-0.624
Mof_H 	H 	0.9437	0.4392	0.4174	0.204
Mof_H 	H 	0.8698	0.3857	0.4427	0.196
Mof_H 	H 	0.882	0.5012	0.448	0.2
Mof_C 	C 	0.53066	0.2838	0.27889	0.084
Mof_H 	H 	0.5707	0.2399	0.2675	-0.013
Mof_C 	C 	0.4809	0.4148	0.31266	-0.012
Mof_H 	H 	0.4777	0.477	0.3285	0.029
Mof_C 	C 	0.4097	0.3477	0.29589	-0.015
Mof_H 	H 	0.3482	0.3564	0.2987	-0
Mof_N 	N 	0.44106	0.26547	0.27433	-0.255
Mof_N 	N 	0.55801	0.37281	0.30168	-0.129
Mof_N 	N 	0.90623	0.56539	0.32833	-0.13
Mof_N 	N 	0.03571	0.62272	0.31093	-0.248
Mof_N 	N 	0.10822	0.54695	0.20963	-0.242
Mof_N 	N 	0.0776	0.51022	0.11832	-0.129
Mof_N 	N 	0.22891	0.5497	0.33001	-0.253
Mof_N 	N 	0.33741	0.49606	0.40591	-0.125
Mof_Ni	Ni	0.14424	0.65309	0.27395	1.01
Mof_C 	C 	0.662	0.0357	0.64554	-0.009
Mof_H 	H 	0.6994	0.0746	0.6289	0.007
Mof_C 	C 	0.6795	0.0126	0.70131	-0.032
Mof_H 	H 	0.7323	0.0339	0.7301	0.005
Mof_C 	C 	0.54941	0.9405	0.65827	0.076
Mof_H 	H 	0.4946	0.9018	0.6506	-0.016
Mof_C 	C 	0.53604	0.9922	0.55759	0.014
Mof_C 	C 	0.4878	0.0766	0.53413	-0.188
Mof_H 	H 	0.4807	0.1281	0.558	0.089
Mof_C 	C 	0.5506	0.9139	0.52476	0.182
Mof_C 	C 	0.6069	0.8239	0.54942	-0.673
Mof_H 	H 	0.5907	0.8037	0.5832	0.218
Mof_H 	H 	0.5924	0.7711	0.5218	0.219
Mof_H 	H 	0.6736	0.8389	0.5591	0.215
Mof_C 	C 	0.70074	0.0389	0.84689	0.004
Mof_H 	H 	0.6441	0.0712	0.8287	0.005
Mof_C 	C 	0.7665	0.0732	0.89359	-0.021
Mof_H 	H 	0.7641	0.1317	0.9133	0.019
Mof_C 	C 	0.81238	0.932	0.86634	0.073
Mof_H 	H 	0.8494	0.8765	0.8649	-0.036
Mof_C 	C 	0.92048	0.001	0.955	0.016
Mof_C 	C 	0.9282	0.9269	0.99492	0.176
Mof_C 	C 	0.8537	0.8488	0.99138	-0.654
Mof_H 	H 	0.8564	0.8009	0.9628	0.207
Mof_H 	H 	0.8652	0.8164	0.0278	0.21
Mof_H 	H 	0.7919	0.8792	0.9813	0.21
Mof_C 	C 	0.9889	0.0719	0.95931	-0.186
Mof_H 	H 	0.98	0.1203	0.9311	0.089
Mof_C 	C 	0.46485	0.9402	0.79521	0.094
Mof_H 	H 	0.4562	0.9837	0.7646	-0.018
Mof_C 	C 	0.4422	0.8618	0.86748	-0.015
Mof_H 	H 	0.4166	0.8399	0.8961	0.019
Mof_C 	C 	0.5211	0.8279	0.85673	-0.006
Mof_H 	H 	0.5602	0.7781	0.8773	-0.012
Mof_C 	C 	0.2504	0.983	0.76991	-0.179
Mof_H 	H 	0.2629	0.9473	0.7402	0.088
Mof_C 	C 	0.31896	0.9887	0.82195	0.022
Mof_C 	C 	0.30646	0.0425	0.86759	0.163
Mof_C 	C 	0.21846	0.0881	0.85885	-0.175
Mof_H 	H 	0.2064	0.1245	0.8884	0.082
Mof_C 	C 	0.14877	0.0808	0.80752	0.021
Mof_C 	C 	0.1628	0.03	0.76118	0.167
Mof_C 	C 	0.0875	0.0241	0.70426	-0.619
Mof_H 	H 	0.072	0.0899	0.6893	0.202
Mof_H 	H 	0.1111	0.9858	0.6781	0.197
Mof_H 	H 	0.0314	0.993	0.7092	0.198
Mof_C 	C 	0.3824	0.0553	0.92409	-0.621
Mof_H 	H 	0.4437	0.0608	0.9174	0.203
Mof_H 	H 	0.3698	0.1143	0.9427	0.195
Mof_H 	H 	0.382	0.9988	0.948	0.197
Mof_C 	C 	0.03066	0.2162	0.77889	0.086
Mof_H 	H 	0.0707	0.2601	0.7675	-0.013
Mof_C 	C 	0.9809	0.0852	0.81266	-0.013
Mof_H 	H 	0.9777	0.023	0.8285	0.029
Mof_C 	C 	0.9097	0.1523	0.79589	-0.014
Mof_H 	H 	0.8482	0.1436	0.7987	-0
Mof_N 	N 	0.94106	0.23453	0.77433	-0.256
Mof_N 	N 	0.05801	0.12719	0.80168	-0.129
Mof_N 	N 	0.40623	0.93461	0.82833	-0.129
Mof_N 	N 	0.53571	0.87728	0.81093	-0.248
Mof_N 	N 	0.60822	0.95305	0.70963	-0.242
Mof_N 	N 	0.5776	0.98978	0.61832	-0.129
Mof_N 	N 	0.72891	0.9503	0.83001	-0.253
Mof_N 	N 	0.83741	0.00394	0.90591	-0.125
Mof_Ni	Ni	0.64424	0.84691	0.77395	1.01
Mof_C 	C 	0.838	0.5357	0.85446	-0.009
Mof_H 	H 	0.8006	0.5746	0.8711	0.007
Mof_C 	C 	0.8205	0.5126	0.79869	-0.032
Mof_H 	H 	0.7677	0.5339	0.7699	0.005
Mof_C 	C 	0.95059	0.4405	0.84173	0.076
Mof_H 	H 	0.0054	0.4018	0.8494	-0.016
Mof_C 	C 	0.96396	0.4922	0.94241	0.015
Mof_C 	C 	0.0122	0.5766	0.96587	-0.189
Mof_H 	H 	0.0193	0.6281	0.942	0.089
Mof_C 	C 	0.9494	0.4139	0.97524	0.182
Mof_C 	C 	0.8931	0.3239	0.95058	-0.673
Mof_H 	H 	0.9093	0.3037	0.9168	0.218
Mof_H 	H 	0.9076	0.2711	0.9782	0.219
Mof_H 	H 	0.8264	0.3389	0.9409	0.215
Mof_C 	C 	0.79926	0.5389	0.65311	0.004
Mof_H 	H 	0.8559	0.5712	0.6713	0.005
Mof_C 	C 	0.7335	0.5732	0.60641	-0.021
Mof_H 	H 	0.7359	0.6317	0.5867	0.019
Mof_C 	C 	0.68762	0.432	0.63366	0.073
Mof_H 	H 	0.6506	0.3765	0.6351	-0.036
Mof_C 	C 	0.57952	0.501	0.545	0.017
Mof_C 	C 	0.5718	0.4269	0.50508	0.174
Mof_C 	C 	0.6463	0.3488	0.50862	-0.65
Mof_H 	H 	0.6436	0.3009	0.5372	0.206
Mof_H 	H 	0.6348	0.3164	0.4722	0.209
Mof_H 	H 	0.7081	0.3792	0.5187	0.209
Mof_C 	C 	0.5111	0.5719	0.54069	-0.184
Mof_H 	H 	0.52	0.6203	0.5689	0.089
Mof_C 	C 	0.03515	0.4402	0.70479	0.094
Mof_H 	H 	0.0438	0.4837	0.7354	-0.018
Mof_C 	C 	0.0578	0.3618	0.63252	-0.014
Mof_H 	H 	0.0834	0.3399	0.6039	0.019
Mof_C 	C 	0.9789	0.3279	0.64327	-0.007
Mof_H 	H 	0.9398	0.2781	0.6227	-0.012
Mof_C 	C 	0.2496	0.483	0.73009	-0.181
Mof_H 	H 	0.2371	0.4473	0.7598	0.089
Mof_C 	C 	0.18104	0.4887	0.67805	0.025
Mof_C 	C 	0.19354	0.5425	0.63241	0.161
Mof_C 	C 	0.28154	0.5881	0.64115	-0.173
Mof_H 	H 	0.2936	0.6245	0.6116	0.081
Mof_C 	C 	0.35123	0.5808	0.69248	0.019
Mof_C 	C 	0.3372	0.53	0.73882	0.172
Mof_C 	C 	0.4125	0.5241	0.79574	-0.639
Mof_H 	H 	0.428	0.5899	0.8107	0.207
Mof_H 	H 	0.3889	0.4858	0.8219	0.204
Mof_H 	H 	0.4686	0.493	0.7908	0.206
Mof_C 	C 	0.1176	0.5553	0.57591	-0.624
Mof_H 	H 	0.0563	0.5608	0.5826	0.204
Mof_H 	H 	0.1302	0.6143	0.5573	0.196
Mof_H 	H 	0.118	0.4988	0.552	0.2
Mof_C 	C 	0.46934	0.7162	0.72111	0.084
Mof_H 	H 	0.4293	0.7601	0.7325	-0.013
Mof_C 	C 	0.5191	0.5852	0.68734	-0.012
Mof_H 	H 	0.5223	0.523	0.6715	0.029
Mof_C 	C 	0.5903	0.6523	0.70411	-0.015
Mof_H 	H 	0.6518	0.6436	0.7013	-0
Mof_N 	N 	0.55894	0.73453	0.72567	-0.255
Mof_N 	N 	0.44199	0.62719	0.69832	-0.129
Mof_N 	N 	0.09377	0.43461	0.67167	-0.13
Mof_N 	N 	0.96429	0.37728	0.68907	-0.248
Mof_N 	N 	0.89178	0.45305	0.79037	-0.242
Mof_N 	N 	0.9224	0.48978	0.88168	-0.129
Mof_N 	N 	0.77109	0.4503	0.66999	-0.253
Mof_N 	N 	0.66259	0.50394	0.59409	-0.125
Mof_Ni	Ni	0.85576	0.34691	0.72604	1.01
_end
