# CIF file generated by openbabel 3.1.0, see https://openbabel.org
data_I
_chemical_name_common 'image0'
_cell_length_a 10.2511
_cell_length_b 13.8478
_cell_length_c 16.0022
_cell_angle_alpha 90
_cell_angle_beta 95.643
_cell_angle_gamma 90
_space_group_name_H-M_alt 'P 1'
_space_group_name_Hall 'P 1'
loop_
    _symmetry_equiv_pos_as_xyz
    x,y,z
loop_
    _atom_site_label
    _atom_site_type_symbol
    _atom_site_fract_x
    _atom_site_fract_y
    _atom_site_fract_z
    _atom_site_occupancy
    Zn1      Zn       0.87616    0.03214    0.04527    1.000
    Zn2      Zn       0.01921    0.19762    0.93118    1.000
    C1       C        0.61683    0.17629    0.85386    1.000
    C2       C        0.61498    0.24751    0.79254    1.000
    H1       H        0.69500    0.27320    0.77690    1.000
    C3       C        0.49608    0.28110    0.75414    1.000
    C4       C        0.37904    0.24346    0.77705    1.000
    H2       H        0.29780    0.26640    0.75080    1.000
    C5       C        0.38089    0.17224    0.83837    1.000
    C6       C        0.49979    0.13865    0.87677    1.000
    H3       H        0.50110    0.09000    0.91870    1.000
    C7       C        0.74494    0.14424    0.89927    1.000
    C8       C        0.49863    0.35619    0.68508    1.000
    C9       C        0.25572    0.13401    0.86689    1.000
    O1       O        0.84786    0.17211    0.86948    1.000
    O2       O        0.73941    0.09259    0.96397    1.000
    O3       O        0.60716    0.38452    0.66720    1.000
    O4       O        0.38807    0.38505    0.65000    1.000
    O5       O        0.26184    0.05367    0.90390    1.000
    O6       O        0.15456    0.18539    0.85247    1.000
    O7       O        0.04976    0.08707    0.00551    1.000
    I1       I        0.01793    0.35376    0.01078    1.000
    Zn3      Zn       0.62384    0.53214    0.45473    1.000
    Zn4      Zn       0.48079    0.69762    0.56882    1.000
    C10      C        0.88317    0.67629    0.64614    1.000
    C11      C        0.88502    0.74751    0.70746    1.000
    H4       H        0.80500    0.77320    0.72310    1.000
    C12      C        0.00392    0.78110    0.74586    1.000
    C13      C        0.12096    0.74346    0.72295    1.000
    H5       H        0.20220    0.76640    0.74920    1.000
    C14      C        0.11911    0.67224    0.66163    1.000
    C15      C        0.00021    0.63865    0.62323    1.000
    H6       H        0.99890    0.59000    0.58130    1.000
    C16      C        0.75506    0.64424    0.60073    1.000
    C17      C        0.00137    0.85619    0.81492    1.000
    C18      C        0.24428    0.63401    0.63311    1.000
    O8       O        0.65214    0.67211    0.63052    1.000
    O9       O        0.76059    0.59259    0.53603    1.000
    O10      O        0.89284    0.88452    0.83280    1.000
    O11      O        0.11193    0.88505    0.85000    1.000
    O12      O        0.23816    0.55367    0.59610    1.000
    O13      O        0.34544    0.68539    0.64753    1.000
    O14      O        0.45024    0.58707    0.49449    1.000
    I2       I        0.48207    0.85376    0.48922    1.000
    Zn5      Zn       0.12384    0.96786    0.95473    1.000
    Zn6      Zn       0.98079    0.80238    0.06882    1.000
    C19      C        0.38317    0.82371    0.14614    1.000
    C20      C        0.38502    0.75249    0.20746    1.000
    H7       H        0.30500    0.72680    0.22310    1.000
    C21      C        0.50392    0.71890    0.24586    1.000
    C22      C        0.62096    0.75654    0.22295    1.000
    H8       H        0.70220    0.73360    0.24920    1.000
    C23      C        0.61911    0.82776    0.16163    1.000
    C24      C        0.50021    0.86135    0.12323    1.000
    H9       H        0.49890    0.91000    0.08130    1.000
    C25      C        0.25506    0.85576    0.10073    1.000
    C26      C        0.50137    0.64381    0.31492    1.000
    C27      C        0.74428    0.86599    0.13311    1.000
    O15      O        0.15214    0.82789    0.13052    1.000
    O16      O        0.26059    0.90741    0.03603    1.000
    O17      O        0.39284    0.61548    0.33280    1.000
    O18      O        0.61193    0.61495    0.35000    1.000
    O19      O        0.73816    0.94633    0.09610    1.000
    O20      O        0.84544    0.81461    0.14753    1.000
    O21      O        0.95024    0.91293    0.99449    1.000
    I3       I        0.98207    0.64624    0.98922    1.000
    Zn7      Zn       0.37616    0.46786    0.54527    1.000
    Zn8      Zn       0.51921    0.30238    0.43118    1.000
    C28      C        0.11683    0.32371    0.35386    1.000
    C29      C        0.11498    0.25249    0.29254    1.000
    H10      H        0.19500    0.22680    0.27690    1.000
    C30      C        0.99608    0.21890    0.25414    1.000
    C31      C        0.87904    0.25654    0.27705    1.000
    H11      H        0.79780    0.23360    0.25080    1.000
    C32      C        0.88089    0.32776    0.33837    1.000
    C33      C        0.99979    0.36135    0.37677    1.000
    H12      H        0.00110    0.41000    0.41870    1.000
    C34      C        0.24494    0.35576    0.39927    1.000
    C35      C        0.99863    0.14381    0.18508    1.000
    C36      C        0.75572    0.36599    0.36689    1.000
    O22      O        0.34786    0.32789    0.36948    1.000
    O23      O        0.23941    0.40741    0.46397    1.000
    O24      O        0.10716    0.11548    0.16720    1.000
    O25      O        0.88807    0.11495    0.15000    1.000
    O26      O        0.76184    0.44633    0.40390    1.000
    O27      O        0.65456    0.31461    0.35247    1.000
    O28      O        0.54976    0.41293    0.50551    1.000
    I4       I        0.51793    0.14624    0.51078    1.000
