data_functionalizedCrystal
_audit_creation_method	'EQeq! by Chris Wilmer'
_symmetry_space_group_name_H-M	'P1'
_symmetry_Int_Tables_number	1
_symmetry_cell_setting	triclinic
loop_
_symmetry_equiv_pos_as_xyz
  x,y,z
_cell_length_a	10.9434
_cell_length_b	28.6035
_cell_length_c	22.5449
_cell_angle_alpha	90
_cell_angle_beta	99.587
_cell_angle_gamma	90
loop_
_atom_site_label
_atom_site_type_symbol
_atom_site_fract_x
_atom_site_fract_y
_atom_site_fract_z
_atom_site_charge
Mof_C 	C 	0.2974	0.4515	0.4939	0.377
Mof_C 	C 	0.1742	0.4587	0.4575	-0.073
Mof_C 	C 	0.0676	0.442	0.478	0.01
Mof_H 	H 	0.0755	0.4242	0.5139	0.047
Mof_C 	C 	0.9502	0.4517	0.4455	-0.062
Mof_C 	C 	0.8388	0.4358	0.4694	0.372
Mof_C 	C 	0.937	0.4772	0.3922	-0.122
Mof_H 	H 	0.8571	0.4836	0.3701	0.074
Mof_C 	C 	0.0414	0.493	0.3721	0.183
Mof_C 	C 	0.1593	0.4835	0.4033	-0.102
Mof_H 	H 	0.2301	0.494	0.3877	0.071
Mof_O 	O 	0.036	0.5256	0.3269	-0.27
Mof_C 	C 	0.92	0.5348	0.29	0.277
Mof_H 	H 	0.926	0.5624	0.264	-0.063
Mof_H 	H 	0.8553	0.5408	0.3149	0.043
Mof_C 	C 	0.887	0.4879	0.2493	-0.311
Mof_H 	H 	0.8078	0.4921	0.2226	0.109
Mof_H 	H 	0.9526	0.4825	0.2251	0.212
Mof_H 	H 	0.8823	0.461	0.2757	0.285
Mof_C 	C 	0.5144	0.316	0.6017	0.376
Mof_C 	C 	0.4731	0.2663	0.6088	-0.041
Mof_C 	C 	0.5324	0.2305	0.583	-0.04
Mof_H 	H 	0.5994	0.2372	0.5624	0.048
Mof_C 	C 	0.4922	0.1849	0.5878	-0.013
Mof_C 	C 	0.5578	0.1458	0.5601	0.336
Mof_C 	C 	0.3983	0.1743	0.618	-0.183
Mof_H 	H 	0.3748	0.1427	0.6222	0.108
Mof_C 	C 	0.3367	0.2099	0.6429	0.258
Mof_C 	C 	0.3765	0.2561	0.6395	-0.148
Mof_H 	H 	0.3375	0.2805	0.6581	0.094
Mof_C 	C 	0.1836	0.157	0.6682	1.072
Mof_H 	H 	0.243	0.1329	0.6865	-0.318
Mof_H 	H 	0.1583	0.1494	0.625	-0.288
Mof_C 	C 	0.0722	0.1573	0.6989	-2.241
Mof_C 	C 	0.538	0.4897	0.6576	0.378
Mof_C 	C 	0.6213	0.5163	0.7061	-0.083
Mof_C 	C 	0.6992	0.4919	0.7501	0.001
Mof_H 	H 	0.7002	0.4587	0.7491	0.031
Mof_C 	C 	0.7744	0.515	0.795	-0.069
Mof_C 	C 	0.8532	0.4876	0.843	0.338
Mof_C 	C 	0.7732	0.564	0.7984	-0.118
Mof_H 	H 	0.823	0.58	0.8307	0.077
Mof_C 	C 	0.6972	0.5883	0.7534	0.171
Mof_C 	C 	0.6202	0.5647	0.7073	-0.112
Mof_H 	H 	0.5675	0.5818	0.6771	0.076
Mof_C 	C 	0.7535	0.6619	0.7994	0.299
Mof_H 	H 	0.8406	0.6511	0.808	-0.048
Mof_H 	H 	0.7156	0.657	0.8358	-0.076
Mof_C 	C 	0.749	0.7132	0.7829	-0.39
Mof_H 	H 	0.7944	0.7313	0.8164	0.134
Mof_H 	H 	0.7872	0.7178	0.747	0.11
Mof_H 	H 	0.6626	0.7236	0.7747	0.317
Mof_C 	C 	0.9386	0.3138	0.9033	0.354
Mof_C 	C 	0.8958	0.2641	0.8971	-0.051
Mof_C 	C 	0.9794	0.2291	0.9207	-0.022
Mof_H 	H 	0.0616	0.2368	0.9389	0.042
Mof_C 	C 	0.9397	0.1829	0.917	-0.048
Mof_C 	C 	0.0262	0.1452	0.9416	0.338
Mof_C 	C 	0.8197	0.1711	0.8913	-0.136
Mof_H 	H 	0.7942	0.1393	0.8886	0.101
Mof_C 	C 	0.7371	0.2065	0.8694	0.212
Mof_C 	C 	0.7755	0.2533	0.8724	-0.133
Mof_H 	H 	0.7189	0.2774	0.8575	0.087
Mof_C 	C 	0.5753	0.1497	0.8368	0.802
Mof_H 	H 	0.5853	0.1353	0.8773	-0.196
Mof_H 	H 	0.6229	0.1312	0.8114	-0.178
Mof_C 	C 	0.4419	0.152	0.8091	-1.137
Mof_H 	H 	0.4006	0.1763	0.8293	0.267
Mof_H 	H 	0.4026	0.1218	0.8137	0.1
Mof_H 	H 	0.4348	0.1596	0.7663	0.859
Mof_C 	C 	0.7927	0.4538	0.0059	0.365
Mof_C 	C 	0.6927	0.4622	0.0411	-0.069
Mof_C 	C 	0.5737	0.442	0.024	0.006
Mof_H 	H 	0.5604	0.4201	0.9918	0.04
Mof_C 	C 	0.4764	0.4536	0.0538	-0.064
Mof_C 	C 	0.3499	0.4352	0.032	0.37
Mof_C 	C 	0.4953	0.4862	0.1016	-0.137
Mof_H 	H 	0.4289	0.4948	0.1217	0.059
Mof_C 	C 	0.6137	0.5057	0.1189	0.186
Mof_C 	C 	0.7121	0.4937	0.0896	-0.112
Mof_H 	H 	0.7919	0.5068	0.1024	0.064
Mof_C 	C 	0.5416	0.5552	0.1932	0.736
Mof_C 	C 	0.472	0.5814	0.1632	-1.443
Mof_H 	H 	0.4071	0.5911	0.1858	0.425
Mof_H 	H 	0.5176	0.6089	0.1531	0.441
Mof_H 	H 	0.4339	0.5656	0.1261	0.434
Mof_O 	O 	0.3853	0.4781	0.4838	-0.535
Mof_O 	O 	0.6075	0.4241	0.55	-0.696
Mof_H 	H 	0.6584	0.448	0.5755	0.135
Mof_O 	O 	0.3087	0.4213	0.5344	-0.465
Mof_O 	O 	0.0659	0.4249	0.9525	-0.718
Mof_H 	H 	0.0951	0.4493	0.9262	0.143
Mof_O 	O 	0.8533	0.4057	0.5108	-0.461
Mof_O 	O 	0.7379	0.4539	0.446	-0.441
Mof_O 	O 	0.4355	0.3471	0.605	-0.459
Mof_O 	O 	0.6218	0.3223	0.5929	-0.487
Mof_O 	O 	0.6423	0.1561	0.5318	-0.448
Mof_O 	O 	0.5199	0.105	0.5688	-0.431
Mof_O 	O 	0.2421	0.203	0.6745	-0.469
Mof_O 	O 	0.4835	0.5083	0.6132	-0.485
Mof_O 	O 	0.533	0.4456	0.6665	-0.483
Mof_O 	O 	0.8473	0.4429	0.8379	-0.46
Mof_O 	O 	0.9214	0.5067	0.8863	-0.453
Mof_O 	O 	0.6867	0.6361	0.7499	-0.301
Mof_O 	O 	0.8535	0.3445	0.9012	-0.46
Mof_O 	O 	0.0521	0.3215	0.9093	-0.484
Mof_O 	O 	0.1337	0.1565	0.9676	-0.441
Mof_O 	O 	0.9862	0.104	0.9351	-0.435
Mof_O 	O 	0.6177	0.1987	0.8408	-0.357
Mof_O 	O 	0.7729	0.4227	0.9661	-0.467
Mof_O 	O 	0.8902	0.47891	0.0158	-0.524
Mof_O 	O 	0.2649	0.4508	0.0583	-0.447
Mof_O 	O 	0.3364	0.4069	0.9889	-0.469
Mof_O 	O 	0.6405	0.5391	0.163	-0.409
Mof_Co	Co	0.46176	0.41468	0.5912	1.169
Mof_Co	Co	0.72726	0.36808	0.54987	1.127
Mof_Co	Co	0.8961	0.41009	0.91475	1.167
Mof_Co	Co	0.18464	0.36909	0.95126	1.124
Mof_Co	Co	0.06491	0.04387	0.96731	1.189
Mof_Co	Co	0.07992	0.45527	0.03582	1.186
Mof_O 	O 	0.0484	0.5068	0.3103	-0.041
Mof_C 	C 	0.934	0.5154	0.2722	0.082
Mof_H 	H 	0.943	0.5405	0.243	-0.018
Mof_H 	H 	0.8702	0.5253	0.2963	-0.175
Mof_C 	C 	0.892	0.4661	0.2368	-0.319
Mof_H 	H 	0.8128	0.4705	0.2099	0.094
Mof_H 	H 	0.9555	0.4567	0.2132	0.043
Mof_H 	H 	0.883	0.4416	0.2662	-0.077
Mof_C 	C 	0.708	0.7133	0.7892	-0.249
Mof_H 	H 	0.7505	0.733	0.8218	0.051
Mof_H 	H 	0.7266	0.7245	0.7507	0.1
Mof_H 	H 	0.6184	0.7146	0.7888	-0.134
Mof_C 	C 	0.452	0.1506	0.788	-0.601
Mof_H 	H 	0.4431	0.1813	0.7684	-0.232
Mof_H 	H 	0.3801	0.1448	0.8079	0.557
Mof_H 	H 	0.4562	0.1263	0.7578	0.069
Mof_C 	C 	0.5826	0.602	0.2269	-0.499
Mof_H 	H 	0.5161	0.6131	0.2476	0.147
Mof_H 	H 	0.6576	0.5965	0.2565	0.147
Mof_H 	H 	0.5998	0.6255	0.1979	0.111
Mof_H 	H 	0.0324	0.1265	0.6949	0.388
Mof_H 	H 	0.098	0.1646	0.7417	0.372
Mof_H 	H 	0.0134	0.1811	0.6804	0.39
Mof_H 	H 	0.0634	0.1883	0.7164	0.389
Mof_H 	H 	0.9979	0.1502	0.6696	0.394
Mof_H 	H 	0.0825	0.1337	0.7309	0.38
Mof_C 	C 	0.2026	0.9515	0.0061	0.379
Mof_C 	C 	0.3258	0.9587	0.0425	-0.072
Mof_C 	C 	0.4324	0.942	0.022	0.012
Mof_H 	H 	0.4245	0.9242	0.9861	0.047
Mof_C 	C 	0.5498	0.9517	0.0545	-0.062
Mof_C 	C 	0.6612	0.9358	0.0306	0.372
Mof_C 	C 	0.563	0.9772	0.1078	-0.121
Mof_H 	H 	0.6429	0.9836	0.1299	0.074
Mof_C 	C 	0.4586	0.993	0.1279	0.183
Mof_C 	C 	0.3407	0.9835	0.0967	-0.101
Mof_H 	H 	0.2699	0.994	0.1123	0.071
Mof_O 	O 	0.464	0.0256	0.1731	-0.269
Mof_C 	C 	0.58	0.0348	0.21	0.277
Mof_H 	H 	0.574	0.0624	0.236	-0.063
Mof_H 	H 	0.6447	0.0408	0.1851	0.043
Mof_C 	C 	0.613	0.9879	0.2507	-0.311
Mof_H 	H 	0.6922	0.9921	0.2774	0.109
Mof_H 	H 	0.5474	0.9825	0.2749	0.212
Mof_H 	H 	0.6177	0.961	0.2243	0.285
Mof_C 	C 	0.9856	0.816	0.8983	0.382
Mof_C 	C 	0.0269	0.7663	0.8912	-0.05
Mof_C 	C 	0.9676	0.7305	0.917	-0.03
Mof_H 	H 	0.9006	0.7372	0.9376	0.045
Mof_C 	C 	0.0078	0.6849	0.9122	-0.021
Mof_C 	C 	0.9422	0.6458	0.9399	0.339
Mof_C 	C 	0.1017	0.6743	0.882	-0.178
Mof_H 	H 	0.1252	0.6427	0.8778	0.106
Mof_C 	C 	0.1633	0.7099	0.8571	0.254
Mof_C 	C 	0.1235	0.7561	0.8605	-0.143
Mof_H 	H 	0.1625	0.7805	0.8419	0.093
Mof_C 	C 	0.3164	0.657	0.8318	1.071
Mof_H 	H 	0.257	0.6329	0.8135	-0.318
Mof_H 	H 	0.3417	0.6494	0.875	-0.288
Mof_C 	C 	0.4278	0.6573	0.8011	-2.241
Mof_C 	C 	0.962	0.9897	0.8424	0.38
Mof_C 	C 	0.8787	0.0163	0.7939	-0.085
Mof_C 	C 	0.8008	0.9919	0.7499	0.003
Mof_H 	H 	0.7998	0.9587	0.7509	0.031
Mof_C 	C 	0.7256	0.015	0.705	-0.071
Mof_C 	C 	0.6468	0.9876	0.657	0.338
Mof_C 	C 	0.7268	0.064	0.7016	-0.117
Mof_H 	H 	0.677	0.08	0.6693	0.076
Mof_C 	C 	0.8028	0.0883	0.7466	0.17
Mof_C 	C 	0.8798	0.0647	0.7927	-0.111
Mof_H 	H 	0.9325	0.0818	0.8229	0.076
Mof_C 	C 	0.7465	0.1619	0.7006	0.299
Mof_H 	H 	0.6594	0.1511	0.692	-0.048
Mof_H 	H 	0.7844	0.157	0.6642	-0.076
Mof_C 	C 	0.751	0.2132	0.7171	-0.39
Mof_H 	H 	0.7056	0.2313	0.6836	0.133
Mof_H 	H 	0.7128	0.2178	0.753	0.11
Mof_H 	H 	0.8374	0.2236	0.7253	0.317
Mof_C 	C 	0.5614	0.8138	0.5967	0.353
Mof_C 	C 	0.6042	0.7641	0.6029	-0.051
Mof_C 	C 	0.5206	0.7291	0.5793	-0.023
Mof_H 	H 	0.4384	0.7368	0.5611	0.042
Mof_C 	C 	0.5603	0.6829	0.583	-0.047
Mof_C 	C 	0.4738	0.6452	0.5584	0.338
Mof_C 	C 	0.6803	0.6711	0.6087	-0.136
Mof_H 	H 	0.7058	0.6393	0.6114	0.101
Mof_C 	C 	0.7629	0.7065	0.6306	0.212
Mof_C 	C 	0.7245	0.7533	0.6276	-0.133
Mof_H 	H 	0.7811	0.7774	0.6425	0.087
Mof_C 	C 	0.9247	0.6497	0.6632	0.808
Mof_H 	H 	0.9147	0.6353	0.6227	-0.198
Mof_H 	H 	0.8771	0.6312	0.6886	-0.18
Mof_C 	C 	0.0581	0.652	0.6909	-1.144
Mof_H 	H 	0.0994	0.6763	0.6707	0.268
Mof_H 	H 	0.0974	0.6218	0.6863	0.101
Mof_H 	H 	0.0652	0.6596	0.7337	0.864
Mof_C 	C 	0.7073	0.9538	0.4941	0.367
Mof_C 	C 	0.8073	0.9622	0.4589	-0.07
Mof_C 	C 	0.9263	0.942	0.476	0.008
Mof_H 	H 	0.9396	0.9201	0.5082	0.04
Mof_C 	C 	0.0236	0.9536	0.4462	-0.067
Mof_C 	C 	0.1501	0.9352	0.468	0.37
Mof_C 	C 	0.0047	0.9862	0.3984	-0.134
Mof_H 	H 	0.0711	0.9948	0.3783	0.059
Mof_C 	C 	0.8863	0.0057	0.3811	0.183
Mof_C 	C 	0.7879	0.9937	0.4104	-0.109
Mof_H 	H 	0.7081	0.0068	0.3976	0.063
Mof_C 	C 	0.9584	0.0552	0.3068	0.725
Mof_C 	C 	0.028	0.0814	0.3368	-1.418
Mof_H 	H 	0.0929	0.0911	0.3142	0.419
Mof_H 	H 	0.9824	0.1089	0.3469	0.433
Mof_H 	H 	0.0661	0.0656	0.3739	0.428
Mof_O 	O 	0.1147	0.9781	0.0162	-0.535
Mof_O 	O 	0.8925	0.9241	0.95	-0.695
Mof_H 	H 	0.8416	0.948	0.9245	0.135
Mof_O 	O 	0.1913	0.9213	0.9656	-0.466
Mof_O 	O 	0.4341	0.9249	0.5475	-0.717
Mof_H 	H 	0.4049	0.9493	0.5738	0.143
Mof_O 	O 	0.6467	0.9057	0.9892	-0.461
Mof_O 	O 	0.7621	0.9539	0.054	-0.441
Mof_O 	O 	0.0645	0.8471	0.895	-0.462
Mof_O 	O 	0.8782	0.8223	0.9071	-0.488
Mof_O 	O 	0.8577	0.6561	0.9682	-0.449
Mof_O 	O 	0.9801	0.605	0.9312	-0.431
Mof_O 	O 	0.2579	0.703	0.8255	-0.468
Mof_O 	O 	0.0165	0.0083	0.8868	-0.486
Mof_O 	O 	0.967	0.9456	0.8335	-0.483
Mof_O 	O 	0.6527	0.9429	0.6621	-0.459
Mof_O 	O 	0.5786	0.0067	0.6137	-0.453
Mof_O 	O 	0.8133	0.1361	0.7501	-0.301
Mof_O 	O 	0.6465	0.8445	0.5988	-0.46
Mof_O 	O 	0.4479	0.8215	0.5907	-0.484
Mof_O 	O 	0.3663	0.6565	0.5324	-0.441
Mof_O 	O 	0.5138	0.604	0.5649	-0.436
Mof_O 	O 	0.8823	0.6987	0.6592	-0.358
Mof_O 	O 	0.7271	0.9227	0.5339	-0.467
Mof_O 	O 	0.6098	0.97891	0.4842	-0.524
Mof_O 	O 	0.2351	0.9508	0.4417	-0.448
Mof_O 	O 	0.1636	0.9069	0.5111	-0.469
Mof_O 	O 	0.8595	0.0391	0.337	-0.406
Mof_Co	Co	0.03824	0.91468	0.9088	1.168
Mof_Co	Co	0.77274	0.86808	0.95013	1.128
Mof_Co	Co	0.6039	0.91009	0.58525	1.167
Mof_Co	Co	0.31536	0.86909	0.54874	1.124
Mof_Co	Co	0.43509	0.54387	0.53269	1.189
Mof_Co	Co	0.42008	0.95527	0.46418	1.186
Mof_O 	O 	0.4516	0.0068	0.1897	-0.041
Mof_C 	C 	0.566	0.0154	0.2278	0.083
Mof_H 	H 	0.557	0.0405	0.257	-0.018
Mof_H 	H 	0.6298	0.0253	0.2037	-0.176
Mof_C 	C 	0.608	0.9661	0.2632	-0.319
Mof_H 	H 	0.6872	0.9705	0.2901	0.095
Mof_H 	H 	0.5445	0.9567	0.2868	0.044
Mof_H 	H 	0.617	0.9416	0.2338	-0.077
Mof_C 	C 	0.792	0.2133	0.7108	-0.249
Mof_H 	H 	0.7495	0.233	0.6782	0.051
Mof_H 	H 	0.7734	0.2245	0.7493	0.1
Mof_H 	H 	0.8816	0.2146	0.7112	-0.134
Mof_C 	C 	0.048	0.6506	0.712	-0.605
Mof_H 	H 	0.0569	0.6813	0.7316	-0.234
Mof_H 	H 	0.1199	0.6448	0.6921	0.56
Mof_H 	H 	0.0438	0.6263	0.7422	0.069
Mof_C 	C 	0.9174	0.102	0.2731	-0.498
Mof_H 	H 	0.9839	0.1131	0.2524	0.146
Mof_H 	H 	0.8424	0.0965	0.2435	0.147
Mof_H 	H 	0.9002	0.1255	0.3021	0.111
Mof_H 	H 	0.4676	0.6265	0.8051	0.387
Mof_H 	H 	0.402	0.6646	0.7583	0.372
Mof_H 	H 	0.4866	0.6811	0.8196	0.39
Mof_H 	H 	0.4366	0.6883	0.7836	0.389
Mof_H 	H 	0.5021	0.6502	0.8304	0.394
Mof_H 	H 	0.4175	0.6337	0.7691	0.38
Mof_C 	C 	0.7026	0.5485	0.5061	0.378
Mof_C 	C 	0.8258	0.5413	0.5425	-0.072
Mof_C 	C 	0.9324	0.558	0.522	0.011
Mof_H 	H 	0.9245	0.5758	0.4861	0.048
Mof_C 	C 	0.0498	0.5483	0.5545	-0.062
Mof_C 	C 	0.1612	0.5642	0.5306	0.372
Mof_C 	C 	0.063	0.5228	0.6078	-0.122
Mof_H 	H 	0.1429	0.5164	0.6299	0.074
Mof_C 	C 	0.9586	0.507	0.6279	0.183
Mof_C 	C 	0.8407	0.5165	0.5967	-0.102
Mof_H 	H 	0.7699	0.506	0.6123	0.071
Mof_O 	O 	0.964	0.4744	0.6731	-0.27
Mof_C 	C 	0.08	0.4652	0.71	0.277
Mof_H 	H 	0.074	0.4376	0.736	-0.063
Mof_H 	H 	0.1447	0.4592	0.6851	0.043
Mof_C 	C 	0.113	0.5121	0.7507	-0.311
Mof_H 	H 	0.1922	0.5079	0.7774	0.109
Mof_H 	H 	0.0474	0.5175	0.7749	0.212
Mof_H 	H 	0.1177	0.539	0.7243	0.285
Mof_C 	C 	0.4856	0.684	0.3983	0.376
Mof_C 	C 	0.5269	0.7337	0.3912	-0.041
Mof_C 	C 	0.4676	0.7695	0.417	-0.04
Mof_H 	H 	0.4006	0.7628	0.4376	0.048
Mof_C 	C 	0.5078	0.8151	0.4122	-0.013
Mof_C 	C 	0.4422	0.8542	0.4399	0.336
Mof_C 	C 	0.6017	0.8257	0.382	-0.183
Mof_H 	H 	0.6252	0.8573	0.3778	0.108
Mof_C 	C 	0.6633	0.7901	0.3571	0.258
Mof_C 	C 	0.6235	0.7439	0.3605	-0.148
Mof_H 	H 	0.6625	0.7195	0.3419	0.094
Mof_C 	C 	0.8164	0.843	0.3318	1.072
Mof_H 	H 	0.757	0.8671	0.3135	-0.318
Mof_H 	H 	0.8417	0.8506	0.375	-0.288
Mof_C 	C 	0.9278	0.8427	0.3011	-2.241
Mof_C 	C 	0.462	0.5103	0.3424	0.378
Mof_C 	C 	0.3787	0.4837	0.2939	-0.083
Mof_C 	C 	0.3008	0.5081	0.2499	0.001
Mof_H 	H 	0.2998	0.5413	0.2509	0.031
Mof_C 	C 	0.2256	0.485	0.205	-0.069
Mof_C 	C 	0.1468	0.5124	0.157	0.338
Mof_C 	C 	0.2268	0.436	0.2016	-0.118
Mof_H 	H 	0.177	0.42	0.1693	0.077
Mof_C 	C 	0.3028	0.4117	0.2466	0.171
Mof_C 	C 	0.3798	0.4353	0.2927	-0.112
Mof_H 	H 	0.4325	0.4182	0.3229	0.076
Mof_C 	C 	0.2465	0.3381	0.2006	0.299
Mof_H 	H 	0.1594	0.3489	0.192	-0.048
Mof_H 	H 	0.2844	0.343	0.1642	-0.076
Mof_C 	C 	0.251	0.2868	0.2171	-0.39
Mof_H 	H 	0.2056	0.2687	0.1836	0.134
Mof_H 	H 	0.2128	0.2822	0.253	0.11
Mof_H 	H 	0.3374	0.2764	0.2253	0.317
Mof_C 	C 	0.0614	0.6862	0.0967	0.354
Mof_C 	C 	0.1042	0.7359	0.1029	-0.051
Mof_C 	C 	0.0206	0.7709	0.0793	-0.022
Mof_H 	H 	0.9384	0.7632	0.0611	0.042
Mof_C 	C 	0.0603	0.8171	0.083	-0.048
Mof_C 	C 	0.9738	0.8548	0.0584	0.338
Mof_C 	C 	0.1803	0.8289	0.1087	-0.136
Mof_H 	H 	0.2058	0.8607	0.1114	0.101
Mof_C 	C 	0.2629	0.7935	0.1306	0.212
Mof_C 	C 	0.2245	0.7467	0.1276	-0.133
Mof_H 	H 	0.2811	0.7226	0.1425	0.087
Mof_C 	C 	0.4247	0.8503	0.1632	0.802
Mof_H 	H 	0.4147	0.8647	0.1227	-0.196
Mof_H 	H 	0.3771	0.8688	0.1886	-0.178
Mof_C 	C 	0.5581	0.848	0.1909	-1.137
Mof_H 	H 	0.5994	0.8237	0.1707	0.267
Mof_H 	H 	0.5974	0.8782	0.1863	0.1
Mof_H 	H 	0.5652	0.8404	0.2337	0.859
Mof_C 	C 	0.2073	0.5462	0.9941	0.365
Mof_C 	C 	0.3073	0.5378	0.9589	-0.069
Mof_C 	C 	0.4263	0.558	0.976	0.006
Mof_H 	H 	0.4396	0.5799	0.0082	0.04
Mof_C 	C 	0.5236	0.5464	0.9462	-0.064
Mof_C 	C 	0.6501	0.5648	0.968	0.37
Mof_C 	C 	0.5047	0.5138	0.8984	-0.137
Mof_H 	H 	0.5711	0.5052	0.8783	0.059
Mof_C 	C 	0.3863	0.4943	0.8811	0.186
Mof_C 	C 	0.2879	0.5063	0.9104	-0.112
Mof_H 	H 	0.2081	0.4932	0.8976	0.064
Mof_C 	C 	0.4584	0.4448	0.8068	0.736
Mof_C 	C 	0.528	0.4186	0.8368	-1.443
Mof_H 	H 	0.5929	0.4089	0.8142	0.425
Mof_H 	H 	0.4824	0.3911	0.8469	0.441
Mof_H 	H 	0.5661	0.4344	0.8739	0.434
Mof_O 	O 	0.6147	0.5219	0.5162	-0.535
Mof_O 	O 	0.3925	0.5759	0.45	-0.696
Mof_H 	H 	0.3416	0.552	0.4245	0.135
Mof_O 	O 	0.6913	0.5787	0.4656	-0.465
Mof_O 	O 	0.9341	0.5751	0.0475	-0.718
Mof_H 	H 	0.9049	0.5507	0.0738	0.143
Mof_O 	O 	0.1467	0.5943	0.4892	-0.461
Mof_O 	O 	0.2621	0.5461	0.554	-0.441
Mof_O 	O 	0.5645	0.6529	0.395	-0.459
Mof_O 	O 	0.3782	0.6777	0.4071	-0.487
Mof_O 	O 	0.3577	0.8439	0.4682	-0.448
Mof_O 	O 	0.4801	0.895	0.4312	-0.431
Mof_O 	O 	0.7579	0.797	0.3255	-0.469
Mof_O 	O 	0.5165	0.4917	0.3868	-0.485
Mof_O 	O 	0.467	0.5544	0.3335	-0.483
Mof_O 	O 	0.1527	0.5571	0.1621	-0.46
Mof_O 	O 	0.0786	0.4933	0.1137	-0.453
Mof_O 	O 	0.3133	0.3639	0.2501	-0.301
Mof_O 	O 	0.1465	0.6555	0.0988	-0.46
Mof_O 	O 	0.9479	0.6785	0.0907	-0.484
Mof_O 	O 	0.8663	0.8435	0.0324	-0.441
Mof_O 	O 	0.0138	0.896	0.0649	-0.435
Mof_O 	O 	0.3823	0.8013	0.1592	-0.357
Mof_O 	O 	0.2271	0.5773	0.0339	-0.467
Mof_O 	O 	0.1098	0.52109	0.9842	-0.524
Mof_O 	O 	0.7351	0.5492	0.9417	-0.447
Mof_O 	O 	0.6636	0.5931	0.0111	-0.469
Mof_O 	O 	0.3595	0.4609	0.837	-0.409
Mof_Co	Co	0.53824	0.58532	0.4088	1.169
Mof_Co	Co	0.27274	0.63192	0.45013	1.127
Mof_Co	Co	0.1039	0.58991	0.08525	1.167
Mof_Co	Co	0.81536	0.63091	0.04874	1.124
Mof_Co	Co	0.93509	0.95613	0.03269	1.189
Mof_Co	Co	0.92008	0.54473	0.96418	1.186
Mof_O 	O 	0.9516	0.4932	0.6897	-0.041
Mof_C 	C 	0.066	0.4846	0.7278	0.082
Mof_H 	H 	0.057	0.4595	0.757	-0.018
Mof_H 	H 	0.1298	0.4747	0.7037	-0.175
Mof_C 	C 	0.108	0.5339	0.7632	-0.319
Mof_H 	H 	0.1872	0.5295	0.7901	0.094
Mof_H 	H 	0.0445	0.5433	0.7868	0.043
Mof_H 	H 	0.117	0.5584	0.7338	-0.077
Mof_C 	C 	0.292	0.2867	0.2108	-0.249
Mof_H 	H 	0.2495	0.267	0.1782	0.051
Mof_H 	H 	0.2734	0.2755	0.2493	0.1
Mof_H 	H 	0.3816	0.2854	0.2112	-0.134
Mof_C 	C 	0.548	0.8494	0.212	-0.601
Mof_H 	H 	0.5569	0.8187	0.2316	-0.232
Mof_H 	H 	0.6199	0.8552	0.1921	0.557
Mof_H 	H 	0.5438	0.8737	0.2422	0.069
Mof_C 	C 	0.4174	0.398	0.7731	-0.499
Mof_H 	H 	0.4839	0.3869	0.7524	0.147
Mof_H 	H 	0.3424	0.4035	0.7435	0.147
Mof_H 	H 	0.4002	0.3745	0.8021	0.111
Mof_H 	H 	0.9676	0.8735	0.3051	0.388
Mof_H 	H 	0.902	0.8354	0.2583	0.372
Mof_H 	H 	0.9866	0.8189	0.3196	0.39
Mof_H 	H 	0.9366	0.8117	0.2836	0.389
Mof_H 	H 	0.0021	0.8498	0.3304	0.394
Mof_H 	H 	0.9175	0.8663	0.2691	0.38
Mof_C 	C 	0.7974	0.0485	0.9939	0.379
Mof_C 	C 	0.6742	0.0413	0.9575	-0.072
Mof_C 	C 	0.5676	0.058	0.978	0.012
Mof_H 	H 	0.5755	0.0758	0.0139	0.047
Mof_C 	C 	0.4502	0.0483	0.9455	-0.062
Mof_C 	C 	0.3388	0.0642	0.9694	0.372
Mof_C 	C 	0.437	0.0228	0.8922	-0.121
Mof_H 	H 	0.3571	0.0164	0.8701	0.074
Mof_C 	C 	0.5414	0.007	0.8721	0.183
Mof_C 	C 	0.6593	0.0165	0.9033	-0.101
Mof_H 	H 	0.7301	0.006	0.8877	0.071
Mof_O 	O 	0.536	0.9744	0.8269	-0.269
Mof_C 	C 	0.42	0.9652	0.79	0.277
Mof_H 	H 	0.426	0.9376	0.764	-0.063
Mof_H 	H 	0.3553	0.9592	0.8149	0.043
Mof_C 	C 	0.387	0.0121	0.7493	-0.311
Mof_H 	H 	0.3078	0.0079	0.7226	0.109
Mof_H 	H 	0.4526	0.0175	0.7251	0.212
Mof_H 	H 	0.3823	0.039	0.7757	0.285
Mof_C 	C 	0.0144	0.184	0.1017	0.382
Mof_C 	C 	0.9731	0.2337	0.1088	-0.05
Mof_C 	C 	0.0324	0.2695	0.083	-0.03
Mof_H 	H 	0.0994	0.2628	0.0624	0.045
Mof_C 	C 	0.9922	0.3151	0.0878	-0.021
Mof_C 	C 	0.0578	0.3542	0.0601	0.339
Mof_C 	C 	0.8983	0.3257	0.118	-0.178
Mof_H 	H 	0.8748	0.3573	0.1222	0.106
Mof_C 	C 	0.8367	0.2901	0.1429	0.254
Mof_C 	C 	0.8765	0.2439	0.1395	-0.143
Mof_H 	H 	0.8375	0.2195	0.1581	0.093
Mof_C 	C 	0.6836	0.343	0.1682	1.071
Mof_H 	H 	0.743	0.3671	0.1865	-0.318
Mof_H 	H 	0.6583	0.3506	0.125	-0.288
Mof_C 	C 	0.5722	0.3427	0.1989	-2.241
Mof_C 	C 	0.038	0.0103	0.1576	0.38
Mof_C 	C 	0.1213	0.9837	0.2061	-0.085
Mof_C 	C 	0.1992	0.0081	0.2501	0.003
Mof_H 	H 	0.2002	0.0413	0.2491	0.031
Mof_C 	C 	0.2744	0.985	0.295	-0.071
Mof_C 	C 	0.3532	0.0124	0.343	0.338
Mof_C 	C 	0.2732	0.936	0.2984	-0.117
Mof_H 	H 	0.323	0.92	0.3307	0.076
Mof_C 	C 	0.1972	0.9117	0.2534	0.17
Mof_C 	C 	0.1202	0.9353	0.2073	-0.111
Mof_H 	H 	0.0675	0.9182	0.1771	0.076
Mof_C 	C 	0.2535	0.8381	0.2994	0.299
Mof_H 	H 	0.3406	0.8489	0.308	-0.048
Mof_H 	H 	0.2156	0.843	0.3358	-0.076
Mof_C 	C 	0.249	0.7868	0.2829	-0.39
Mof_H 	H 	0.2944	0.7687	0.3164	0.133
Mof_H 	H 	0.2872	0.7822	0.247	0.11
Mof_H 	H 	0.1626	0.7764	0.2747	0.317
Mof_C 	C 	0.4386	0.1862	0.4033	0.353
Mof_C 	C 	0.3958	0.2359	0.3971	-0.051
Mof_C 	C 	0.4794	0.2709	0.4207	-0.023
Mof_H 	H 	0.5616	0.2632	0.4389	0.042
Mof_C 	C 	0.4397	0.3171	0.417	-0.047
Mof_C 	C 	0.5262	0.3548	0.4416	0.338
Mof_C 	C 	0.3197	0.3289	0.3913	-0.136
Mof_H 	H 	0.2942	0.3607	0.3886	0.101
Mof_C 	C 	0.2371	0.2935	0.3694	0.212
Mof_C 	C 	0.2755	0.2467	0.3724	-0.133
Mof_H 	H 	0.2189	0.2226	0.3575	0.087
Mof_C 	C 	0.0753	0.3503	0.3368	0.808
Mof_H 	H 	0.0853	0.3647	0.3773	-0.198
Mof_H 	H 	0.1229	0.3688	0.3114	-0.18
Mof_C 	C 	0.9419	0.348	0.3091	-1.144
Mof_H 	H 	0.9006	0.3237	0.3293	0.268
Mof_H 	H 	0.9026	0.3782	0.3137	0.101
Mof_H 	H 	0.9348	0.3404	0.2663	0.864
Mof_C 	C 	0.2927	0.0462	0.5059	0.367
Mof_C 	C 	0.1927	0.0378	0.5411	-0.07
Mof_C 	C 	0.0737	0.058	0.524	0.008
Mof_H 	H 	0.0604	0.0799	0.4918	0.04
Mof_C 	C 	0.9764	0.0464	0.5538	-0.067
Mof_C 	C 	0.8499	0.0648	0.532	0.37
Mof_C 	C 	0.9953	0.0138	0.6016	-0.134
Mof_H 	H 	0.9289	0.0052	0.6217	0.059
Mof_C 	C 	0.1137	0.9943	0.6189	0.183
Mof_C 	C 	0.2121	0.0063	0.5896	-0.109
Mof_H 	H 	0.2919	0.9932	0.6024	0.063
Mof_C 	C 	0.0416	0.9448	0.6932	0.725
Mof_C 	C 	0.972	0.9186	0.6632	-1.418
Mof_H 	H 	0.9071	0.9089	0.6858	0.419
Mof_H 	H 	0.0176	0.8911	0.6531	0.433
Mof_H 	H 	0.9339	0.9344	0.6261	0.428
Mof_O 	O 	0.8853	0.0219	0.9838	-0.535
Mof_O 	O 	0.1075	0.0759	0.05	-0.695
Mof_H 	H 	0.1584	0.052	0.0755	0.135
Mof_O 	O 	0.8087	0.0787	0.0344	-0.466
Mof_O 	O 	0.5659	0.0751	0.4525	-0.717
Mof_H 	H 	0.5951	0.0507	0.4262	0.143
Mof_O 	O 	0.3533	0.0943	0.0108	-0.461
Mof_O 	O 	0.2379	0.0461	0.946	-0.441
Mof_O 	O 	0.9355	0.1529	0.105	-0.462
Mof_O 	O 	0.1218	0.1777	0.0929	-0.488
Mof_O 	O 	0.1423	0.3439	0.0318	-0.449
Mof_O 	O 	0.0199	0.395	0.0688	-0.431
Mof_O 	O 	0.7421	0.297	0.1745	-0.468
Mof_O 	O 	0.9835	0.9917	0.1132	-0.486
Mof_O 	O 	0.033	0.0544	0.1665	-0.483
Mof_O 	O 	0.3473	0.0571	0.3379	-0.459
Mof_O 	O 	0.4214	0.9933	0.3863	-0.453
Mof_O 	O 	0.1867	0.8639	0.2499	-0.301
Mof_O 	O 	0.3535	0.1555	0.4012	-0.46
Mof_O 	O 	0.5521	0.1785	0.4093	-0.484
Mof_O 	O 	0.6337	0.3435	0.4676	-0.441
Mof_O 	O 	0.4862	0.396	0.4351	-0.436
Mof_O 	O 	0.1177	0.3013	0.3408	-0.358
Mof_O 	O 	0.2729	0.0773	0.4661	-0.467
Mof_O 	O 	0.3902	0.02109	0.5158	-0.524
Mof_O 	O 	0.7649	0.0492	0.5583	-0.448
Mof_O 	O 	0.8364	0.0931	0.4889	-0.469
Mof_O 	O 	0.1405	0.9609	0.663	-0.406
Mof_Co	Co	0.96176	0.08532	0.0912	1.168
Mof_Co	Co	0.22726	0.13192	0.04987	1.128
Mof_Co	Co	0.3961	0.08991	0.41475	1.167
Mof_Co	Co	0.68464	0.13091	0.45126	1.124
Mof_Co	Co	0.56491	0.45613	0.46731	1.189
Mof_Co	Co	0.57992	0.04473	0.53582	1.186
Mof_O 	O 	0.5484	0.9932	0.8103	-0.041
Mof_C 	C 	0.434	0.9846	0.7722	0.083
Mof_H 	H 	0.443	0.9595	0.743	-0.018
Mof_H 	H 	0.3702	0.9747	0.7963	-0.176
Mof_C 	C 	0.392	0.0339	0.7368	-0.319
Mof_H 	H 	0.3128	0.0295	0.7099	0.095
Mof_H 	H 	0.4555	0.0433	0.7132	0.044
Mof_H 	H 	0.383	0.0584	0.7662	-0.077
Mof_C 	C 	0.208	0.7867	0.2892	-0.249
Mof_H 	H 	0.2505	0.767	0.3218	0.051
Mof_H 	H 	0.2266	0.7755	0.2507	0.1
Mof_H 	H 	0.1184	0.7854	0.2888	-0.134
Mof_C 	C 	0.952	0.3494	0.288	-0.605
Mof_H 	H 	0.9431	0.3187	0.2684	-0.234
Mof_H 	H 	0.8801	0.3552	0.3079	0.56
Mof_H 	H 	0.9562	0.3737	0.2578	0.069
Mof_C 	C 	0.0826	0.898	0.7269	-0.498
Mof_H 	H 	0.0161	0.8869	0.7476	0.146
Mof_H 	H 	0.1576	0.9035	0.7565	0.147
Mof_H 	H 	0.0998	0.8745	0.6979	0.111
Mof_H 	H 	0.5324	0.3735	0.1949	0.387
Mof_H 	H 	0.598	0.3354	0.2417	0.372
Mof_H 	H 	0.5134	0.3189	0.1804	0.39
Mof_H 	H 	0.5634	0.3117	0.2164	0.389
Mof_H 	H 	0.4979	0.3498	0.1696	0.394
Mof_H 	H 	0.5825	0.3663	0.2309	0.38
_end
