data_functionalizedCrystal
_audit_creation_method	'EQeq! by Chris Wilmer'
_symmetry_space_group_name_H-M	'P1'
_symmetry_Int_Tables_number	1
_symmetry_cell_setting	triclinic
loop_
_symmetry_equiv_pos_as_xyz
  x,y,z
_cell_length_a	13.1888
_cell_length_b	13.1888
_cell_length_c	18.286
_cell_angle_alpha	92.7321
_cell_angle_beta	92.7321
_cell_angle_gamma	112.781
loop_
_atom_site_label
_atom_site_type_symbol
_atom_site_fract_x
_atom_site_fract_y
_atom_site_fract_z
_atom_site_charge
Mof_Fe	Fe	0.21521	0.29533	0.69598	0.419
Mof_Fe	Fe	0.70467	0.78479	0.80402	0.441
Mof_Fe	Fe	0.78479	0.70467	0.30402	0.436
Mof_Fe	Fe	0.29533	0.21521	0.19598	0.415
Mof_Fe	Fe	0.5	0	-0	0.398
Mof_Fe	Fe	-3.89108e-17	0.5	0.5	0.415
Mof_W 	W 	0.0378	0.45066	0.91031	0.28
Mof_W 	W 	0.91851	0.56731	0.94759	0.333
Mof_W 	W 	0.1274	0.63184	0.00214	0.279
Mof_W 	W 	0.54934	0.9622	0.58969	0.316
Mof_W 	W 	0.43269	0.08149	0.55241	0.278
Mof_W 	W 	0.36816	0.8726	0.49786	0.302
Mof_W 	W 	0.9622	0.54934	0.08969	0.311
Mof_W 	W 	0.08149	0.43269	0.05241	0.262
Mof_W 	W 	0.8726	0.36816	0.99786	0.32
Mof_W 	W 	0.45066	0.0378	0.41031	0.275
Mof_W 	W 	0.56731	0.91851	0.44759	0.319
Mof_W 	W 	0.63184	0.1274	0.50214	0.296
Mof_C 	C 	0.0894	0.3906	0.8115	-0.025
Mof_C 	C 	0.8261	0.6489	0.8922	-0.014
Mof_C 	C 	0.2722	0.7832	0.0047	-0.022
Mof_C 	C 	0.6094	0.9106	0.6885	-0.016
Mof_C 	C 	0.3511	0.1739	0.6078	-0.023
Mof_C 	C 	0.2168	0.7278	0.4953	-0.024
Mof_C 	C 	0.9106	0.6094	0.1885	-0.017
Mof_C 	C 	0.1739	0.3511	0.1078	-0.026
Mof_C 	C 	0.7278	0.2168	0.9953	-0.02
Mof_C 	C 	0.3906	0.0894	0.3115	-0.026
Mof_C 	C 	0.6489	0.8261	0.3922	-0.016
Mof_C 	C 	0.7832	0.2722	0.5047	-0.019
Mof_S 	S 	0.0761	0.6365	0.8714	-0.232
Mof_S 	S 	0.8422	0.396	0.8675	-0.219
Mof_S 	S 	0.2259	0.5151	0.9681	-0.215
Mof_S 	S 	0.00803	0.72757	0.0352	-0.254
Mof_S 	S 	0.3635	0.9239	0.6286	-0.223
Mof_S 	S 	0.604	0.1578	0.6325	-0.228
Mof_S 	S 	0.4849	0.7741	0.5319	-0.239
Mof_S 	S 	0.27243	0.99197	0.4648	-0.216
Mof_S 	S 	0.9239	0.3635	0.1286	-0.231
Mof_S 	S 	0.1578	0.604	0.1325	-0.226
Mof_S 	S 	0.7741	0.4849	0.0319	-0.255
Mof_S 	S 	0.99197	0.27243	0.9648	-0.209
Mof_S 	S 	0.6365	0.0761	0.3714	-0.24
Mof_S 	S 	0.396	0.8422	0.3675	-0.217
Mof_S 	S 	0.5151	0.2259	0.4681	-0.232
Mof_S 	S 	0.72757	0.00803	0.5352	-0.249
Mof_N 	N 	0.1221	0.3577	0.7621	-0.183
Mof_N 	N 	0.7735	0.6897	0.8644	-0.178
Mof_N 	N 	0.3516	0.8628	0.0055	-0.177
Mof_N 	N 	0.6423	0.8779	0.7379	-0.18
Mof_N 	N 	0.3103	0.2265	0.6356	-0.182
Mof_N 	N 	0.1372	0.6484	0.4945	-0.183
Mof_N 	N 	0.8779	0.6423	0.2379	-0.18
Mof_N 	N 	0.2265	0.3103	0.1356	-0.183
Mof_N 	N 	0.6484	0.1372	0.9945	-0.176
Mof_N 	N 	0.3577	0.1221	0.2621	-0.184
Mof_N 	N 	0.6897	0.7735	0.3644	-0.179
Mof_N 	N 	0.8628	0.3516	0.5055	-0.177
_end
