# CIF file generated by openbabel 3.1.0, see https://openbabel.org
data_I
_chemical_name_common 'image0'
_cell_length_a 23.02
_cell_length_b 28.032
_cell_length_c 12.506
_cell_angle_alpha 90
_cell_angle_beta 100.389
_cell_angle_gamma 90
_space_group_name_H-M_alt 'P 1'
_space_group_name_Hall 'P 1'
loop_
    _symmetry_equiv_pos_as_xyz
    x,y,z
loop_
    _atom_site_label
    _atom_site_type_symbol
    _atom_site_fract_x
    _atom_site_fract_y
    _atom_site_fract_z
    _atom_site_occupancy
    Co1      Co       0.11054    0.67143    0.16510    1.000
    C1       C        0.24070    0.63985    0.21480    1.000
    H1       H        0.23150    0.61310    0.25520    1.000
    C2       C        0.23320    0.70230    0.11250    1.000
    H2       H        0.21660    0.72800    0.06750    1.000
    C3       C        0.29180    0.69200    0.13830    1.000
    H3       H        0.32330    0.70870    0.11560    1.000
    C4       C        0.35060    0.62921    0.25710    1.000
    C5       C        0.39960    0.65643    0.29520    1.000
    H4       H        0.39720    0.69020    0.29000    1.000
    C6       C        0.45280    0.63499    0.34120    1.000
    H5       H        0.48660    0.65410    0.36600    1.000
    C7       C        0.45650    0.58534    0.35130    1.000
    C8       C        0.40580    0.55860    0.31450    1.000
    H6       H        0.40730    0.52490    0.32250    1.000
    C9       C        0.35337    0.57988    0.26680    1.000
    H7       H        0.31960    0.56090    0.24070    1.000
    C10      C        0.51429    0.56228    0.39910    1.000
    C11      C        0.56154    0.59012    0.45390    1.000
    H8       H        0.55550    0.62320    0.46400    1.000
    C12      C        0.61691    0.57039    0.49360    1.000
    C13      C        0.62460    0.52095    0.48040    1.000
    H9       H        0.66120    0.50650    0.51070    1.000
    C14      C        0.57896    0.49297    0.42320    1.000
    C15      C        0.52439    0.51375    0.38490    1.000
    H10      H        0.49310    0.49450    0.34800    1.000
    C16      C        0.58998    0.44025    0.40560    1.000
    C17      C        0.64810    0.42400    0.41680    1.000
    H11      H        0.67970    0.44620    0.43130    1.000
    C18      C        0.66040    0.37520    0.40680    1.000
    H12      H        0.70000    0.36410    0.41690    1.000
    C19      C        0.61430    0.34419    0.38240    1.000
    C20      C        0.55560    0.35978    0.37080    1.000
    H13      H        0.52360    0.33790    0.35570    1.000
    C21      C        0.54568    0.40784    0.38200    1.000
    H14      H        0.50600    0.41880    0.37270    1.000
    C22      C        0.60050    0.26617    0.28430    1.000
    H15      H        0.57050    0.27700    0.22700    1.000
    C23      C        0.66890    0.26640    0.43170    1.000
    H16      H        0.69460    0.27640    0.49600    1.000
    C24      C        0.66770    0.22370    0.38530    1.000
    H17      H        0.69320    0.19790    0.41130    1.000
    C25      C        0.66760    0.59926    0.55010    1.000
    C26      C        0.65950    0.64070    0.61030    1.000
    H18      H        0.62070    0.65100    0.61480    1.000
    C27      C        0.70780    0.66620    0.66290    1.000
    H19      H        0.70210    0.69340    0.70520    1.000
    C28      C        0.76480    0.65200    0.65370    1.000
    C29      C        0.77290    0.61330    0.59080    1.000
    H20      H        0.81160    0.60370    0.58340    1.000
    C30      C        0.72360    0.58800    0.53780    1.000
    H21      H        0.72940    0.56210    0.49170    1.000
    C31      C        0.86860    0.67920    0.68100    1.000
    H22      H        0.87670    0.66770    0.61380    1.000
    C32      C        0.82210    0.69740    0.81580    1.000
    H23      H        0.79280    0.70140    0.85970    1.000
    C33      C        0.88010    0.71060    0.84070    1.000
    H24      H        0.89800    0.72530    0.90700    1.000
    N1       N        0.20090    0.66920    0.16260    1.000
    N2       N        0.29585    0.65217    0.20420    1.000
    N3       N        0.62220    0.22209    0.29000    1.000
    N4       N        0.62519    0.29384    0.36800    1.000
    N5       N        0.90840    0.69991    0.75810    1.000
    N6       N        0.81486    0.67696    0.71220    1.000
    S1       S        0.04230    0.74998    0.98940    1.000
    O1       O        0.09270    0.72090    0.03960    1.000
    O2       O        0.01750    0.73220    0.88550    1.000
    O3       O        0.99760    0.75150    0.05770    1.000
    O4       O        0.01360    0.67310    0.16350    1.000
    O5       O        0.06400    0.79820    0.97970    1.000
    S2       S        0.03510    0.71750    0.02400    1.000
    O6       O        0.10080    0.72140    0.04470    1.000
    O7       O        0.01680    0.68980    0.92710    1.000
    O8       O        0.00960    0.76470    0.01540    1.000
    O9       O        0.01880    0.69280    0.11860    1.000
    O10      O        0.98770    0.63680    0.66420    1.000
    Co2      Co       0.61054    0.17143    0.16510    1.000
    C34      C        0.74070    0.13985    0.21480    1.000
    H25      H        0.73150    0.11310    0.25520    1.000
    C35      C        0.73320    0.20230    0.11250    1.000
    H26      H        0.71660    0.22800    0.06750    1.000
    C36      C        0.79180    0.19200    0.13830    1.000
    H27      H        0.82330    0.20870    0.11560    1.000
    C37      C        0.85060    0.12921    0.25710    1.000
    C38      C        0.89960    0.15643    0.29520    1.000
    H28      H        0.89720    0.19020    0.29000    1.000
    C39      C        0.95280    0.13499    0.34120    1.000
    H29      H        0.98660    0.15410    0.36600    1.000
    C40      C        0.95650    0.08534    0.35130    1.000
    C41      C        0.90580    0.05860    0.31450    1.000
    H30      H        0.90730    0.02490    0.32250    1.000
    C42      C        0.85337    0.07988    0.26680    1.000
    H31      H        0.81960    0.06090    0.24070    1.000
    C43      C        0.01429    0.06228    0.39910    1.000
    C44      C        0.06154    0.09012    0.45390    1.000
    H32      H        0.05550    0.12320    0.46400    1.000
    C45      C        0.11691    0.07039    0.49360    1.000
    C46      C        0.12460    0.02095    0.48040    1.000
    H33      H        0.16120    0.00650    0.51070    1.000
    C47      C        0.07896    0.99297    0.42320    1.000
    C48      C        0.02439    0.01375    0.38490    1.000
    H34      H        0.99310    0.99450    0.34800    1.000
    C49      C        0.08998    0.94025    0.40560    1.000
    C50      C        0.14810    0.92400    0.41680    1.000
    H35      H        0.17970    0.94620    0.43130    1.000
    C51      C        0.16040    0.87520    0.40680    1.000
    H36      H        0.20000    0.86410    0.41690    1.000
    C52      C        0.11430    0.84419    0.38240    1.000
    C53      C        0.05560    0.85978    0.37080    1.000
    H37      H        0.02360    0.83790    0.35570    1.000
    C54      C        0.04568    0.90784    0.38200    1.000
    H38      H        0.00600    0.91880    0.37270    1.000
    C55      C        0.10050    0.76617    0.28430    1.000
    H39      H        0.07050    0.77700    0.22700    1.000
    C56      C        0.16890    0.76640    0.43170    1.000
    H40      H        0.19460    0.77640    0.49600    1.000
    C57      C        0.16770    0.72370    0.38530    1.000
    H41      H        0.19320    0.69790    0.41130    1.000
    C58      C        0.16760    0.09926    0.55010    1.000
    C59      C        0.15950    0.14070    0.61030    1.000
    H42      H        0.12070    0.15100    0.61480    1.000
    C60      C        0.20780    0.16620    0.66290    1.000
    H43      H        0.20210    0.19340    0.70520    1.000
    C61      C        0.26480    0.15200    0.65370    1.000
    C62      C        0.27290    0.11330    0.59080    1.000
    H44      H        0.31160    0.10370    0.58340    1.000
    C63      C        0.22360    0.08800    0.53780    1.000
    H45      H        0.22940    0.06210    0.49170    1.000
    C64      C        0.36860    0.17920    0.68100    1.000
    H46      H        0.37670    0.16770    0.61380    1.000
    C65      C        0.32210    0.19740    0.81580    1.000
    H47      H        0.29280    0.20140    0.85970    1.000
    C66      C        0.38010    0.21060    0.84070    1.000
    H48      H        0.39800    0.22530    0.90700    1.000
    N7       N        0.70090    0.16920    0.16260    1.000
    N8       N        0.79585    0.15217    0.20420    1.000
    N9       N        0.12220    0.72209    0.29000    1.000
    N10      N        0.12519    0.79384    0.36800    1.000
    N11      N        0.40840    0.19991    0.75810    1.000
    N12      N        0.31486    0.17696    0.71220    1.000
    S3       S        0.54230    0.24998    0.98940    1.000
    O11      O        0.59270    0.22090    0.03960    1.000
    O12      O        0.51750    0.23220    0.88550    1.000
    O13      O        0.49760    0.25150    0.05770    1.000
    O14      O        0.51360    0.17310    0.16350    1.000
    O15      O        0.56400    0.29820    0.97970    1.000
    S4       S        0.53510    0.21750    0.02400    1.000
    O16      O        0.60080    0.22140    0.04470    1.000
    O17      O        0.51680    0.18980    0.92710    1.000
    O18      O        0.50960    0.26470    0.01540    1.000
    O19      O        0.51880    0.19280    0.11860    1.000
    O20      O        0.48770    0.13680    0.66420    1.000
    Co3      Co       0.88946    0.67143    0.33490    1.000
    C67      C        0.75930    0.63985    0.28520    1.000
    H49      H        0.76850    0.61310    0.24480    1.000
    C68      C        0.76680    0.70230    0.38750    1.000
    H50      H        0.78340    0.72800    0.43250    1.000
    C69      C        0.70820    0.69200    0.36170    1.000
    H51      H        0.67670    0.70870    0.38440    1.000
    C70      C        0.64940    0.62921    0.24290    1.000
    C71      C        0.60040    0.65643    0.20480    1.000
    H52      H        0.60280    0.69020    0.21000    1.000
    C72      C        0.54720    0.63499    0.15880    1.000
    H53      H        0.51340    0.65410    0.13400    1.000
    C73      C        0.54350    0.58534    0.14870    1.000
    C74      C        0.59420    0.55860    0.18550    1.000
    H54      H        0.59270    0.52490    0.17750    1.000
    C75      C        0.64663    0.57988    0.23320    1.000
    H55      H        0.68040    0.56090    0.25930    1.000
    C76      C        0.48571    0.56228    0.10090    1.000
    C77      C        0.43846    0.59012    0.04610    1.000
    H56      H        0.44450    0.62320    0.03600    1.000
    C78      C        0.38309    0.57039    0.00640    1.000
    C79      C        0.37540    0.52095    0.01960    1.000
    H57      H        0.33880    0.50650    0.98930    1.000
    C80      C        0.42104    0.49297    0.07680    1.000
    C81      C        0.47561    0.51375    0.11510    1.000
    H58      H        0.50690    0.49450    0.15200    1.000
    C82      C        0.41002    0.44025    0.09440    1.000
    C83      C        0.35190    0.42400    0.08320    1.000
    H59      H        0.32030    0.44620    0.06870    1.000
    C84      C        0.33960    0.37520    0.09320    1.000
    H60      H        0.30000    0.36410    0.08310    1.000
    C85      C        0.38570    0.34419    0.11760    1.000
    C86      C        0.44440    0.35978    0.12920    1.000
    H61      H        0.47640    0.33790    0.14430    1.000
    C87      C        0.45432    0.40784    0.11800    1.000
    H62      H        0.49400    0.41880    0.12730    1.000
    C88      C        0.39950    0.26617    0.21570    1.000
    H63      H        0.42950    0.27700    0.27300    1.000
    C89      C        0.33110    0.26640    0.06830    1.000
    H64      H        0.30540    0.27640    0.00400    1.000
    C90      C        0.33230    0.22370    0.11470    1.000
    H65      H        0.30680    0.19790    0.08870    1.000
    C91      C        0.33240    0.59926    0.94990    1.000
    C92      C        0.34050    0.64070    0.88970    1.000
    H66      H        0.37930    0.65100    0.88520    1.000
    C93      C        0.29220    0.66620    0.83710    1.000
    H67      H        0.29790    0.69340    0.79480    1.000
    C94      C        0.23520    0.65200    0.84630    1.000
    C95      C        0.22710    0.61330    0.90920    1.000
    H68      H        0.18840    0.60370    0.91660    1.000
    C96      C        0.27640    0.58800    0.96220    1.000
    H69      H        0.27060    0.56210    0.00830    1.000
    C97      C        0.13140    0.67920    0.81900    1.000
    H70      H        0.12330    0.66770    0.88620    1.000
    C98      C        0.17790    0.69740    0.68420    1.000
    H71      H        0.20720    0.70140    0.64030    1.000
    C99      C        0.11990    0.71060    0.65930    1.000
    H72      H        0.10200    0.72530    0.59300    1.000
    N13      N        0.79910    0.66920    0.33740    1.000
    N14      N        0.70415    0.65217    0.29580    1.000
    N15      N        0.37780    0.22209    0.21000    1.000
    N16      N        0.37481    0.29384    0.13200    1.000
    N17      N        0.09160    0.69991    0.74190    1.000
    N18      N        0.18514    0.67696    0.78780    1.000
    S5       S        0.95770    0.74998    0.51060    1.000
    O21      O        0.90730    0.72090    0.46040    1.000
    O22      O        0.98250    0.73220    0.61450    1.000
    O23      O        0.00240    0.75150    0.44230    1.000
    O24      O        0.98640    0.67310    0.33650    1.000
    O25      O        0.93600    0.79820    0.52030    1.000
    S6       S        0.96490    0.71750    0.47600    1.000
    O26      O        0.89920    0.72140    0.45530    1.000
    O27      O        0.98320    0.68980    0.57290    1.000
    O28      O        0.99040    0.76470    0.48460    1.000
    O29      O        0.98120    0.69280    0.38140    1.000
    O30      O        0.01230    0.63680    0.83580    1.000
    Co4      Co       0.38946    0.17143    0.33490    1.000
    C100     C        0.25930    0.13985    0.28520    1.000
    H73      H        0.26850    0.11310    0.24480    1.000
    C101     C        0.26680    0.20230    0.38750    1.000
    H74      H        0.28340    0.22800    0.43250    1.000
    C102     C        0.20820    0.19200    0.36170    1.000
    H75      H        0.17670    0.20870    0.38440    1.000
    C103     C        0.14940    0.12921    0.24290    1.000
    C104     C        0.10040    0.15643    0.20480    1.000
    H76      H        0.10280    0.19020    0.21000    1.000
    C105     C        0.04720    0.13499    0.15880    1.000
    H77      H        0.01340    0.15410    0.13400    1.000
    C106     C        0.04350    0.08534    0.14870    1.000
    C107     C        0.09420    0.05860    0.18550    1.000
    H78      H        0.09270    0.02490    0.17750    1.000
    C108     C        0.14663    0.07988    0.23320    1.000
    H79      H        0.18040    0.06090    0.25930    1.000
    C109     C        0.98571    0.06228    0.10090    1.000
    C110     C        0.93846    0.09012    0.04610    1.000
    H80      H        0.94450    0.12320    0.03600    1.000
    C111     C        0.88309    0.07039    0.00640    1.000
    C112     C        0.87540    0.02095    0.01960    1.000
    H81      H        0.83880    0.00650    0.98930    1.000
    C113     C        0.92104    0.99297    0.07680    1.000
    C114     C        0.97561    0.01375    0.11510    1.000
    H82      H        0.00690    0.99450    0.15200    1.000
    C115     C        0.91002    0.94025    0.09440    1.000
    C116     C        0.85190    0.92400    0.08320    1.000
    H83      H        0.82030    0.94620    0.06870    1.000
    C117     C        0.83960    0.87520    0.09320    1.000
    H84      H        0.80000    0.86410    0.08310    1.000
    C118     C        0.88570    0.84419    0.11760    1.000
    C119     C        0.94440    0.85978    0.12920    1.000
    H85      H        0.97640    0.83790    0.14430    1.000
    C120     C        0.95432    0.90784    0.11800    1.000
    H86      H        0.99400    0.91880    0.12730    1.000
    C121     C        0.89950    0.76617    0.21570    1.000
    H87      H        0.92950    0.77700    0.27300    1.000
    C122     C        0.83110    0.76640    0.06830    1.000
    H88      H        0.80540    0.77640    0.00400    1.000
    C123     C        0.83230    0.72370    0.11470    1.000
    H89      H        0.80680    0.69790    0.08870    1.000
    C124     C        0.83240    0.09926    0.94990    1.000
    C125     C        0.84050    0.14070    0.88970    1.000
    H90      H        0.87930    0.15100    0.88520    1.000
    C126     C        0.79220    0.16620    0.83710    1.000
    H91      H        0.79790    0.19340    0.79480    1.000
    C127     C        0.73520    0.15200    0.84630    1.000
    C128     C        0.72710    0.11330    0.90920    1.000
    H92      H        0.68840    0.10370    0.91660    1.000
    C129     C        0.77640    0.08800    0.96220    1.000
    H93      H        0.77060    0.06210    0.00830    1.000
    C130     C        0.63140    0.17920    0.81900    1.000
    H94      H        0.62330    0.16770    0.88620    1.000
    C131     C        0.67790    0.19740    0.68420    1.000
    H95      H        0.70720    0.20140    0.64030    1.000
    C132     C        0.61990    0.21060    0.65930    1.000
    H96      H        0.60200    0.22530    0.59300    1.000
    N19      N        0.29910    0.16920    0.33740    1.000
    N20      N        0.20415    0.15217    0.29580    1.000
    N21      N        0.87780    0.72209    0.21000    1.000
    N22      N        0.87481    0.79384    0.13200    1.000
    N23      N        0.59160    0.19991    0.74190    1.000
    N24      N        0.68514    0.17696    0.78780    1.000
    S7       S        0.45770    0.24998    0.51060    1.000
    O31      O        0.40730    0.22090    0.46040    1.000
    O32      O        0.48250    0.23220    0.61450    1.000
    O33      O        0.50240    0.25150    0.44230    1.000
    O34      O        0.48640    0.17310    0.33650    1.000
    O35      O        0.43600    0.29820    0.52030    1.000
    S8       S        0.46490    0.21750    0.47600    1.000
    O36      O        0.39920    0.22140    0.45530    1.000
    O37      O        0.48320    0.18980    0.57290    1.000
    O38      O        0.49040    0.26470    0.48460    1.000
    O39      O        0.48120    0.19280    0.38140    1.000
    O40      O        0.51230    0.13680    0.83580    1.000
    Co5      Co       0.00000    0.70088    0.75000    1.000
    O41      O        0.00000    0.61930    0.75000    1.000
    Co6      Co       0.50000    0.20088    0.75000    1.000
    O42      O        0.50000    0.11930    0.75000    1.000
    Co7      Co       0.88946    0.32857    0.83490    1.000
    C133     C        0.75930    0.36015    0.78520    1.000
    H97      H        0.76850    0.38690    0.74480    1.000
    C134     C        0.76680    0.29770    0.88750    1.000
    H98      H        0.78340    0.27200    0.93250    1.000
    C135     C        0.70820    0.30800    0.86170    1.000
    H99      H        0.67670    0.29130    0.88440    1.000
    C136     C        0.64940    0.37079    0.74290    1.000
    C137     C        0.60040    0.34357    0.70480    1.000
    H100     H        0.60280    0.30980    0.71000    1.000
    C138     C        0.54720    0.36501    0.65880    1.000
    H101     H        0.51340    0.34590    0.63400    1.000
    C139     C        0.54350    0.41466    0.64870    1.000
    C140     C        0.59420    0.44140    0.68550    1.000
    H102     H        0.59270    0.47510    0.67750    1.000
    C141     C        0.64663    0.42012    0.73320    1.000
    H103     H        0.68040    0.43910    0.75930    1.000
    C142     C        0.48571    0.43772    0.60090    1.000
    C143     C        0.43846    0.40988    0.54610    1.000
    H104     H        0.44450    0.37680    0.53600    1.000
    C144     C        0.38309    0.42961    0.50640    1.000
    C145     C        0.37540    0.47905    0.51960    1.000
    H105     H        0.33880    0.49350    0.48930    1.000
    C146     C        0.42104    0.50703    0.57680    1.000
    C147     C        0.47561    0.48625    0.61510    1.000
    H106     H        0.50690    0.50550    0.65200    1.000
    C148     C        0.41002    0.55975    0.59440    1.000
    C149     C        0.35190    0.57600    0.58320    1.000
    H107     H        0.32030    0.55380    0.56870    1.000
    C150     C        0.33960    0.62480    0.59320    1.000
    H108     H        0.30000    0.63590    0.58310    1.000
    C151     C        0.38570    0.65581    0.61760    1.000
    C152     C        0.44440    0.64022    0.62920    1.000
    H109     H        0.47640    0.66210    0.64430    1.000
    C153     C        0.45432    0.59216    0.61800    1.000
    H110     H        0.49400    0.58120    0.62730    1.000
    C154     C        0.39950    0.73383    0.71570    1.000
    H111     H        0.42950    0.72300    0.77300    1.000
    C155     C        0.33110    0.73360    0.56830    1.000
    H112     H        0.30540    0.72360    0.50400    1.000
    C156     C        0.33230    0.77630    0.61470    1.000
    H113     H        0.30680    0.80210    0.58870    1.000
    C157     C        0.33240    0.40074    0.44990    1.000
    C158     C        0.34050    0.35930    0.38970    1.000
    H114     H        0.37930    0.34900    0.38520    1.000
    C159     C        0.29220    0.33380    0.33710    1.000
    H115     H        0.29790    0.30660    0.29480    1.000
    C160     C        0.23520    0.34800    0.34630    1.000
    C161     C        0.22710    0.38670    0.40920    1.000
    H116     H        0.18840    0.39630    0.41660    1.000
    C162     C        0.27640    0.41200    0.46220    1.000
    H117     H        0.27060    0.43790    0.50830    1.000
    C163     C        0.13140    0.32080    0.31900    1.000
    H118     H        0.12330    0.33230    0.38620    1.000
    C164     C        0.17790    0.30260    0.18420    1.000
    H119     H        0.20720    0.29860    0.14030    1.000
    C165     C        0.11990    0.28940    0.15930    1.000
    H120     H        0.10200    0.27470    0.09300    1.000
    N25      N        0.79910    0.33080    0.83740    1.000
    N26      N        0.70415    0.34783    0.79580    1.000
    N27      N        0.37780    0.77791    0.71000    1.000
    N28      N        0.37481    0.70616    0.63200    1.000
    N29      N        0.09160    0.30009    0.24190    1.000
    N30      N        0.18514    0.32304    0.28780    1.000
    S9       S        0.95770    0.25002    0.01060    1.000
    O43      O        0.90730    0.27910    0.96040    1.000
    O44      O        0.98250    0.26780    0.11450    1.000
    O45      O        0.00240    0.24850    0.94230    1.000
    O46      O        0.98640    0.32690    0.83650    1.000
    O47      O        0.93600    0.20180    0.02030    1.000
    S10      S        0.96490    0.28250    0.97600    1.000
    O48      O        0.89920    0.27860    0.95530    1.000
    O49      O        0.98320    0.31020    0.07290    1.000
    O50      O        0.99040    0.23530    0.98460    1.000
    O51      O        0.98120    0.30720    0.88140    1.000
    O52      O        0.01230    0.36320    0.33580    1.000
    Co8      Co       0.38946    0.82857    0.83490    1.000
    C166     C        0.25930    0.86015    0.78520    1.000
    H121     H        0.26850    0.88690    0.74480    1.000
    C167     C        0.26680    0.79770    0.88750    1.000
    H122     H        0.28340    0.77200    0.93250    1.000
    C168     C        0.20820    0.80800    0.86170    1.000
    H123     H        0.17670    0.79130    0.88440    1.000
    C169     C        0.14940    0.87079    0.74290    1.000
    C170     C        0.10040    0.84357    0.70480    1.000
    H124     H        0.10280    0.80980    0.71000    1.000
    C171     C        0.04720    0.86501    0.65880    1.000
    H125     H        0.01340    0.84590    0.63400    1.000
    C172     C        0.04350    0.91466    0.64870    1.000
    C173     C        0.09420    0.94140    0.68550    1.000
    H126     H        0.09270    0.97510    0.67750    1.000
    C174     C        0.14663    0.92012    0.73320    1.000
    H127     H        0.18040    0.93910    0.75930    1.000
    C175     C        0.98571    0.93772    0.60090    1.000
    C176     C        0.93846    0.90988    0.54610    1.000
    H128     H        0.94450    0.87680    0.53600    1.000
    C177     C        0.88309    0.92961    0.50640    1.000
    C178     C        0.87540    0.97905    0.51960    1.000
    H129     H        0.83880    0.99350    0.48930    1.000
    C179     C        0.92104    0.00703    0.57680    1.000
    C180     C        0.97561    0.98625    0.61510    1.000
    H130     H        0.00690    0.00550    0.65200    1.000
    C181     C        0.91002    0.05975    0.59440    1.000
    C182     C        0.85190    0.07600    0.58320    1.000
    H131     H        0.82030    0.05380    0.56870    1.000
    C183     C        0.83960    0.12480    0.59320    1.000
    H132     H        0.80000    0.13590    0.58310    1.000
    C184     C        0.88570    0.15581    0.61760    1.000
    C185     C        0.94440    0.14022    0.62920    1.000
    H133     H        0.97640    0.16210    0.64430    1.000
    C186     C        0.95432    0.09216    0.61800    1.000
    H134     H        0.99400    0.08120    0.62730    1.000
    C187     C        0.89950    0.23383    0.71570    1.000
    H135     H        0.92950    0.22300    0.77300    1.000
    C188     C        0.83110    0.23360    0.56830    1.000
    H136     H        0.80540    0.22360    0.50400    1.000
    C189     C        0.83230    0.27630    0.61470    1.000
    H137     H        0.80680    0.30210    0.58870    1.000
    C190     C        0.83240    0.90074    0.44990    1.000
    C191     C        0.84050    0.85930    0.38970    1.000
    H138     H        0.87930    0.84900    0.38520    1.000
    C192     C        0.79220    0.83380    0.33710    1.000
    H139     H        0.79790    0.80660    0.29480    1.000
    C193     C        0.73520    0.84800    0.34630    1.000
    C194     C        0.72710    0.88670    0.40920    1.000
    H140     H        0.68840    0.89630    0.41660    1.000
    C195     C        0.77640    0.91200    0.46220    1.000
    H141     H        0.77060    0.93790    0.50830    1.000
    C196     C        0.63140    0.82080    0.31900    1.000
    H142     H        0.62330    0.83230    0.38620    1.000
    C197     C        0.67790    0.80260    0.18420    1.000
    H143     H        0.70720    0.79860    0.14030    1.000
    C198     C        0.61990    0.78940    0.15930    1.000
    H144     H        0.60200    0.77470    0.09300    1.000
    N31      N        0.29910    0.83080    0.83740    1.000
    N32      N        0.20415    0.84783    0.79580    1.000
    N33      N        0.87780    0.27791    0.71000    1.000
    N34      N        0.87481    0.20616    0.63200    1.000
    N35      N        0.59160    0.80009    0.24190    1.000
    N36      N        0.68514    0.82304    0.28780    1.000
    S11      S        0.45770    0.75002    0.01060    1.000
    O53      O        0.40730    0.77910    0.96040    1.000
    O54      O        0.48250    0.76780    0.11450    1.000
    O55      O        0.50240    0.74850    0.94230    1.000
    O56      O        0.48640    0.82690    0.83650    1.000
    O57      O        0.43600    0.70180    0.02030    1.000
    S12      S        0.46490    0.78250    0.97600    1.000
    O58      O        0.39920    0.77860    0.95530    1.000
    O59      O        0.48320    0.81020    0.07290    1.000
    O60      O        0.49040    0.73530    0.98460    1.000
    O61      O        0.48120    0.80720    0.88140    1.000
    O62      O        0.51230    0.86320    0.33580    1.000
    Co9      Co       0.11054    0.32857    0.66510    1.000
    C199     C        0.24070    0.36015    0.71480    1.000
    H145     H        0.23150    0.38690    0.75520    1.000
    C200     C        0.23320    0.29770    0.61250    1.000
    H146     H        0.21660    0.27200    0.56750    1.000
    C201     C        0.29180    0.30800    0.63830    1.000
    H147     H        0.32330    0.29130    0.61560    1.000
    C202     C        0.35060    0.37079    0.75710    1.000
    C203     C        0.39960    0.34357    0.79520    1.000
    H148     H        0.39720    0.30980    0.79000    1.000
    C204     C        0.45280    0.36501    0.84120    1.000
    H149     H        0.48660    0.34590    0.86600    1.000
    C205     C        0.45650    0.41466    0.85130    1.000
    C206     C        0.40580    0.44140    0.81450    1.000
    H150     H        0.40730    0.47510    0.82250    1.000
    C207     C        0.35337    0.42012    0.76680    1.000
    H151     H        0.31960    0.43910    0.74070    1.000
    C208     C        0.51429    0.43772    0.89910    1.000
    C209     C        0.56154    0.40988    0.95390    1.000
    H152     H        0.55550    0.37680    0.96400    1.000
    C210     C        0.61691    0.42961    0.99360    1.000
    C211     C        0.62460    0.47905    0.98040    1.000
    H153     H        0.66120    0.49350    0.01070    1.000
    C212     C        0.57896    0.50703    0.92320    1.000
    C213     C        0.52439    0.48625    0.88490    1.000
    H154     H        0.49310    0.50550    0.84800    1.000
    C214     C        0.58998    0.55975    0.90560    1.000
    C215     C        0.64810    0.57600    0.91680    1.000
    H155     H        0.67970    0.55380    0.93130    1.000
    C216     C        0.66040    0.62480    0.90680    1.000
    H156     H        0.70000    0.63590    0.91690    1.000
    C217     C        0.61430    0.65581    0.88240    1.000
    C218     C        0.55560    0.64022    0.87080    1.000
    H157     H        0.52360    0.66210    0.85570    1.000
    C219     C        0.54568    0.59216    0.88200    1.000
    H158     H        0.50600    0.58120    0.87270    1.000
    C220     C        0.60050    0.73383    0.78430    1.000
    H159     H        0.57050    0.72300    0.72700    1.000
    C221     C        0.66890    0.73360    0.93170    1.000
    H160     H        0.69460    0.72360    0.99600    1.000
    C222     C        0.66770    0.77630    0.88530    1.000
    H161     H        0.69320    0.80210    0.91130    1.000
    C223     C        0.66760    0.40074    0.05010    1.000
    C224     C        0.65950    0.35930    0.11030    1.000
    H162     H        0.62070    0.34900    0.11480    1.000
    C225     C        0.70780    0.33380    0.16290    1.000
    H163     H        0.70210    0.30660    0.20520    1.000
    C226     C        0.76480    0.34800    0.15370    1.000
    C227     C        0.77290    0.38670    0.09080    1.000
    H164     H        0.81160    0.39630    0.08340    1.000
    C228     C        0.72360    0.41200    0.03780    1.000
    H165     H        0.72940    0.43790    0.99170    1.000
    C229     C        0.86860    0.32080    0.18100    1.000
    H166     H        0.87670    0.33230    0.11380    1.000
    C230     C        0.82210    0.30260    0.31580    1.000
    H167     H        0.79280    0.29860    0.35970    1.000
    C231     C        0.88010    0.28940    0.34070    1.000
    H168     H        0.89800    0.27470    0.40700    1.000
    N37      N        0.20090    0.33080    0.66260    1.000
    N38      N        0.29585    0.34783    0.70420    1.000
    N39      N        0.62220    0.77791    0.79000    1.000
    N40      N        0.62519    0.70616    0.86800    1.000
    N41      N        0.90840    0.30009    0.25810    1.000
    N42      N        0.81486    0.32304    0.21220    1.000
    S13      S        0.04230    0.25002    0.48940    1.000
    O63      O        0.09270    0.27910    0.53960    1.000
    O64      O        0.01750    0.26780    0.38550    1.000
    O65      O        0.99760    0.24850    0.55770    1.000
    O66      O        0.01360    0.32690    0.66350    1.000
    O67      O        0.06400    0.20180    0.47970    1.000
    S14      S        0.03510    0.28250    0.52400    1.000
    O68      O        0.10080    0.27860    0.54470    1.000
    O69      O        0.01680    0.31020    0.42710    1.000
    O70      O        0.00960    0.23530    0.51540    1.000
    O71      O        0.01880    0.30720    0.61860    1.000
    O72      O        0.98770    0.36320    0.16420    1.000
    Co10     Co       0.61054    0.82857    0.66510    1.000
    C232     C        0.74070    0.86015    0.71480    1.000
    H169     H        0.73150    0.88690    0.75520    1.000
    C233     C        0.73320    0.79770    0.61250    1.000
    H170     H        0.71660    0.77200    0.56750    1.000
    C234     C        0.79180    0.80800    0.63830    1.000
    H171     H        0.82330    0.79130    0.61560    1.000
    C235     C        0.85060    0.87079    0.75710    1.000
    C236     C        0.89960    0.84357    0.79520    1.000
    H172     H        0.89720    0.80980    0.79000    1.000
    C237     C        0.95280    0.86501    0.84120    1.000
    H173     H        0.98660    0.84590    0.86600    1.000
    C238     C        0.95650    0.91466    0.85130    1.000
    C239     C        0.90580    0.94140    0.81450    1.000
    H174     H        0.90730    0.97510    0.82250    1.000
    C240     C        0.85337    0.92012    0.76680    1.000
    H175     H        0.81960    0.93910    0.74070    1.000
    C241     C        0.01429    0.93772    0.89910    1.000
    C242     C        0.06154    0.90988    0.95390    1.000
    H176     H        0.05550    0.87680    0.96400    1.000
    C243     C        0.11691    0.92961    0.99360    1.000
    C244     C        0.12460    0.97905    0.98040    1.000
    H177     H        0.16120    0.99350    0.01070    1.000
    C245     C        0.07896    0.00703    0.92320    1.000
    C246     C        0.02439    0.98625    0.88490    1.000
    H178     H        0.99310    0.00550    0.84800    1.000
    C247     C        0.08998    0.05975    0.90560    1.000
    C248     C        0.14810    0.07600    0.91680    1.000
    H179     H        0.17970    0.05380    0.93130    1.000
    C249     C        0.16040    0.12480    0.90680    1.000
    H180     H        0.20000    0.13590    0.91690    1.000
    C250     C        0.11430    0.15581    0.88240    1.000
    C251     C        0.05560    0.14022    0.87080    1.000
    H181     H        0.02360    0.16210    0.85570    1.000
    C252     C        0.04568    0.09216    0.88200    1.000
    H182     H        0.00600    0.08120    0.87270    1.000
    C253     C        0.10050    0.23383    0.78430    1.000
    H183     H        0.07050    0.22300    0.72700    1.000
    C254     C        0.16890    0.23360    0.93170    1.000
    H184     H        0.19460    0.22360    0.99600    1.000
    C255     C        0.16770    0.27630    0.88530    1.000
    H185     H        0.19320    0.30210    0.91130    1.000
    C256     C        0.16760    0.90074    0.05010    1.000
    C257     C        0.15950    0.85930    0.11030    1.000
    H186     H        0.12070    0.84900    0.11480    1.000
    C258     C        0.20780    0.83380    0.16290    1.000
    H187     H        0.20210    0.80660    0.20520    1.000
    C259     C        0.26480    0.84800    0.15370    1.000
    C260     C        0.27290    0.88670    0.09080    1.000
    H188     H        0.31160    0.89630    0.08340    1.000
    C261     C        0.22360    0.91200    0.03780    1.000
    H189     H        0.22940    0.93790    0.99170    1.000
    C262     C        0.36860    0.82080    0.18100    1.000
    H190     H        0.37670    0.83230    0.11380    1.000
    C263     C        0.32210    0.80260    0.31580    1.000
    H191     H        0.29280    0.79860    0.35970    1.000
    C264     C        0.38010    0.78940    0.34070    1.000
    H192     H        0.39800    0.77470    0.40700    1.000
    N43      N        0.70090    0.83080    0.66260    1.000
    N44      N        0.79585    0.84783    0.70420    1.000
    N45      N        0.12220    0.27791    0.79000    1.000
    N46      N        0.12519    0.20616    0.86800    1.000
    N47      N        0.40840    0.80009    0.25810    1.000
    N48      N        0.31486    0.82304    0.21220    1.000
    S15      S        0.54230    0.75002    0.48940    1.000
    O73      O        0.59270    0.77910    0.53960    1.000
    O74      O        0.51750    0.76780    0.38550    1.000
    O75      O        0.49760    0.74850    0.55770    1.000
    O76      O        0.51360    0.82690    0.66350    1.000
    O77      O        0.56400    0.70180    0.47970    1.000
    S16      S        0.53510    0.78250    0.52400    1.000
    O78      O        0.60080    0.77860    0.54470    1.000
    O79      O        0.51680    0.81020    0.42710    1.000
    O80      O        0.50960    0.73530    0.51540    1.000
    O81      O        0.51880    0.80720    0.61860    1.000
    O82      O        0.48770    0.86320    0.16420    1.000
    Co11     Co       0.00000    0.29912    0.25000    1.000
    O83      O        0.00000    0.38070    0.25000    1.000
    Co12     Co       0.50000    0.79912    0.25000    1.000
    O84      O        0.50000    0.88070    0.25000    1.000
