data_functionalizedCrystal
_audit_creation_method	'EQeq! by Chris Wilmer'
_symmetry_space_group_name_H-M	'P1'
_symmetry_Int_Tables_number	1
_symmetry_cell_setting	triclinic
loop_
_symmetry_equiv_pos_as_xyz
  x,y,z
_cell_length_a	15.547
_cell_length_b	20.203
_cell_length_c	20.451
_cell_angle_alpha	118.19
_cell_angle_beta	95.92
_cell_angle_gamma	103.52
loop_
_atom_site_label
_atom_site_type_symbol
_atom_site_fract_x
_atom_site_fract_y
_atom_site_fract_z
_atom_site_charge
Mof_Ca	Ca	0.14348	0.1229	0.75551	1.357
Mof_Ca	Ca	0.90988	0.18249	0.80093	1.212
Mof_Ca	Ca	0.32898	0.17463	0.9104	1.205
Mof_Ca	Ca	0.52844	0.1435	0.84886	1.142
Mof_O 	O 	0.7033	0.6947	0.6346	-0.264
Mof_O 	O 	0.8985	0.0534	0.7272	-0.479
Mof_O 	O 	0.0191	0.0104	0.7146	-0.452
Mof_O 	O 	0.5843	0.3352	0.3337	-0.276
Mof_O 	O 	0.6049	0.1704	0.9836	-0.379
Mof_O 	O 	0.4796	0.203	0.9723	-0.522
Mof_O 	O 	0.4815	0.3856	0.6406	-0.268
Mof_O 	O 	0.2887	0.2244	0.8154	-0.498
Mof_O 	O 	0.4297	0.2177	0.8427	-0.504
Mof_O 	O 	0.0963	0.3648	0.5104	-0.259
Mof_O 	O 	0.9677	0.2269	0.724	-0.487
Mof_O 	O 	0.0896	0.1875	0.7017	-0.486
Mof_O 	O 	0.1035	0.3567	0.2261	-0.263
Mof_O 	O 	0.0601	0.2019	0.8611	-0.518
Mof_O 	O 	0.172	0.1642	0.8942	-0.526
Mof_O 	O 	0.1863	0.6996	0.5306	-0.262
Mof_O 	O 	0.243	0.0572	0.7844	-0.524
Mof_O 	O 	0.3782	0.0511	0.8228	-0.499
Mof_O 	O 	0.8477	0.1411	0.8858	-0.538
Mof_O 	O 	0.6527	0.2526	0.8749	-0.491
Mof_C 	C 	0.6654	0.5494	0.5715	-0.174
Mof_C 	C 	0.6279	0.5063	0.4922	0.236
Mof_C 	C 	0.5687	0.4269	0.458	-0.186
Mof_C 	C 	0.5502	0.3909	0.5007	0.229
Mof_C 	C 	0.5883	0.4353	0.5817	-0.184
Mof_C 	C 	0.6399	0.515	0.6165	0.219
Mof_C 	C 	0.668	0.5664	0.7048	-0.554
Mof_H 	H 	0.7046	0.6205	0.7206	0.197
Mof_H 	H 	0.7041	0.5437	0.7256	0.185
Mof_H 	H 	0.6131	0.5677	0.7244	0.184
Mof_C 	C 	0.6529	0.5459	0.4456	-0.602
Mof_H 	H 	0.622	0.5085	0.3914	0.209
Mof_H 	H 	0.7192	0.5614	0.4518	0.207
Mof_H 	H 	0.6335	0.593	0.4639	0.216
Mof_C 	C 	0.4945	0.3019	0.4614	-0.574
Mof_H 	H 	0.4869	0.2875	0.5005	0.194
Mof_H 	H 	0.527	0.27	0.4271	0.189
Mof_H 	H 	0.4344	0.2917	0.4318	0.202
Mof_C 	C 	0.7413	0.6283	0.6083	0.08
Mof_H 	H 	0.7836	0.6352	0.6524	0.018
Mof_H 	H 	0.7765	0.6287	0.5707	0.015
Mof_C 	C 	0.7631	0.766	0.6512	0.244
Mof_C 	C 	0.7323	0.8301	0.6843	-0.24
Mof_H 	H 	0.6738	0.8229	0.6949	0.103
Mof_C 	C 	0.7858	0.9063	0.7029	0.117
Mof_H 	H 	0.7613	0.9489	0.7217	-0.025
Mof_C 	C 	0.8778	0.9195	0.6934	-0.202
Mof_C 	C 	0.9078	0.8535	0.6623	0.128
Mof_H 	H 	0.9675	0.8603	0.6542	-0.009
Mof_C 	C 	0.8531	0.7778	0.6424	-0.241
Mof_H 	H 	0.8766	0.7347	0.6232	0.115
Mof_C 	C 	0.935	0.0012	0.716	0.43
Mof_C 	C 	0.5269	0.3805	0.3717	0.109
Mof_H 	H 	0.4646	0.3444	0.3597	0.01
Mof_H 	H 	0.5224	0.4176	0.3538	-0.007
Mof_C 	C 	0.5665	0.3	0.2549	0.269
Mof_C 	C 	0.6268	0.2609	0.2195	-0.264
Mof_H 	H 	0.6727	0.2559	0.2497	0.117
Mof_C 	C 	0.6216	0.2298	0.1432	0.15
Mof_H 	H 	0.6648	0.2051	0.1218	-0.019
Mof_C 	C 	0.5544	0.2337	0.096	-0.219
Mof_C 	C 	0.4901	0.2704	0.1319	0.14
Mof_H 	H 	0.4418	0.273	0.1018	-0.052
Mof_C 	C 	0.4976	0.3024	0.2109	-0.275
Mof_H 	H 	0.454	0.3257	0.2334	0.112
Mof_C 	C 	0.542	0.1983	0.0119	0.388
Mof_C 	C 	0.575	0.3964	0.6303	0.105
Mof_H 	H 	0.5852	0.3444	0.6044	-0.014
Mof_H 	H 	0.6197	0.4304	0.6808	-0.012
Mof_C 	C 	0.4597	0.3475	0.6808	0.242
Mof_C 	C 	0.5191	0.3205	0.71	-0.238
Mof_H 	H 	0.5782	0.3246	0.7006	0.093
Mof_C 	C 	0.4896	0.2866	0.7545	0.105
Mof_H 	H 	0.5307	0.2718	0.7784	-0.029
Mof_C 	C 	0.4009	0.2754	0.7626	-0.196
Mof_C 	C 	0.3406	0.2976	0.7297	0.116
Mof_H 	H 	0.28	0.2902	0.7359	-0.015
Mof_C 	C 	0.3706	0.3315	0.6865	-0.239
Mof_H 	H 	0.3282	0.3437	0.6606	0.112
Mof_C 	C 	0.3713	0.2354	0.8098	0.365
Mof_C 	C 	0.076	0.4455	0.4574	-0.175
Mof_C 	C 	0.0488	0.4098	0.3786	0.205
Mof_C 	C 	0.0811	0.452	0.341	-0.166
Mof_C 	C 	0.1462	0.5305	0.3859	0.2
Mof_C 	C 	0.1766	0.5645	0.4648	-0.169
Mof_C 	C 	0.1422	0.5223	0.5016	0.219
Mof_C 	C 	0.9819	0.3236	0.3289	-0.551
Mof_H 	H 	0.9711	0.3078	0.2747	0.194
Mof_H 	H 	0.9238	0.3208	0.3438	0.182
Mof_H 	H 	0.0085	0.2877	0.3368	0.192
Mof_C 	C 	0.176	0.5743	0.3432	-0.523
Mof_H 	H 	0.2198	0.6271	0.3797	0.175
Mof_H 	H 	0.1224	0.5798	0.319	0.168
Mof_H 	H 	0.2047	0.544	0.3038	0.169
Mof_C 	C 	0.1762	0.5617	0.5882	-0.571
Mof_H 	H 	0.2218	0.6138	0.6086	0.201
Mof_H 	H 	0.204	0.5284	0.5998	0.196
Mof_H 	H 	0.1248	0.5681	0.6119	0.189
Mof_C 	C 	0.0341	0.4056	0.4992	0.083
Mof_H 	H 	0.0283	0.4456	0.5492	0.007
Mof_H 	H 	0.9727	0.367	0.4684	0.018
Mof_C 	C 	0.0762	0.3319	0.5565	0.241
Mof_C 	C 	0.006	0.3373	0.5917	-0.255
Mof_H 	H 	0.966	0.3643	0.5859	0.121
Mof_C 	C 	0.9938	0.3021	0.6369	0.135
Mof_H 	H 	0.9467	0.3081	0.6632	-0.026
Mof_C 	C 	0.047	0.2599	0.6445	-0.209
Mof_C 	C 	0.1188	0.2531	0.6056	0.117
Mof_H 	H 	0.1569	0.2241	0.61	-0.016
Mof_C 	C 	0.1337	0.2885	0.5614	-0.232
Mof_H 	H 	0.1811	0.2835	0.5354	0.109
Mof_C 	C 	0.0335	0.221	0.6935	0.445
Mof_C 	C 	0.0519	0.4109	0.2549	0.105
Mof_H 	H 	0.9855	0.3816	0.2361	-0.01
Mof_H 	H 	0.0655	0.45	0.238	-0.011
Mof_C 	C 	0.1	0.3203	0.1481	0.236
Mof_C 	C 	0.1541	0.2699	0.1238	-0.244
Mof_H 	H 	0.1877	0.2626	0.1599	0.109
Mof_C 	C 	0.1587	0.2314	0.0491	0.128
Mof_H 	H 	0.196	0.1983	0.034	-0.049
Mof_C 	C 	0.1058	0.2411	0.9913	-0.229
Mof_C 	C 	0.0543	0.291	0.0164	0.134
Mof_H 	H 	0.0216	0.2999	0.981	-0.052
Mof_C 	C 	0.0487	0.3303	0.0951	-0.244
Mof_H 	H 	0.0105	0.3626	0.1107	0.098
Mof_C 	C 	0.1119	0.2012	0.9101	0.435
Mof_C 	C 	0.2433	0.6475	0.5106	0.094
Mof_H 	H 	0.2815	0.6558	0.5574	0.003
Mof_H 	H 	0.2837	0.6578	0.4798	-0.003
Mof_C 	C 	0.2199	0.7768	0.5917	0.24
Mof_C 	C 	0.1604	0.821	0.6023	-0.245
Mof_H 	H 	0.1024	0.7973	0.5669	0.119
Mof_C 	C 	0.1828	0.8982	0.6625	0.125
Mof_H 	H 	0.14	0.9262	0.6707	-0.025
Mof_C 	C 	0.2722	0.934	0.7116	-0.217
Mof_C 	C 	0.3354	0.8935	0.6998	0.121
Mof_H 	H 	0.3956	0.9193	0.7322	-0.037
Mof_C 	C 	0.3095	0.8132	0.6391	-0.244
Mof_H 	H 	0.3518	0.7847	0.6306	0.103
Mof_C 	C 	0.2992	0.0199	0.7766	0.399
Mof_H 	H 	0.804	0.1373	0.9073	0.231
Mof_H 	H 	0.8519	0.1847	0.8835	0.06
Mof_H 	H 	0.6848	0.3045	0.8999	0.197
Mof_Ca	Ca	0.85652	0.8771	0.24449	1.356
Mof_Ca	Ca	0.09012	0.81751	0.19907	1.211
Mof_Ca	Ca	0.67102	0.82537	0.0896	1.205
Mof_Ca	Ca	0.47156	0.8565	0.15114	1.142
Mof_O 	O 	0.2967	0.3053	0.3654	-0.264
Mof_O 	O 	0.1015	0.9466	0.2728	-0.479
Mof_O 	O 	0.9809	0.9896	0.2854	-0.452
Mof_O 	O 	0.4157	0.6648	0.6663	-0.276
Mof_O 	O 	0.3951	0.8296	0.0164	-0.379
Mof_O 	O 	0.5204	0.797	0.0277	-0.522
Mof_O 	O 	0.5185	0.6144	0.3594	-0.268
Mof_O 	O 	0.7113	0.7756	0.1846	-0.498
Mof_O 	O 	0.5703	0.7823	0.1573	-0.504
Mof_O 	O 	0.9037	0.6352	0.4896	-0.259
Mof_O 	O 	0.0323	0.7731	0.276	-0.487
Mof_O 	O 	0.9104	0.8125	0.2983	-0.486
Mof_O 	O 	0.8965	0.6433	0.7739	-0.263
Mof_O 	O 	0.9399	0.7981	0.1389	-0.518
Mof_O 	O 	0.828	0.8358	0.1058	-0.526
Mof_O 	O 	0.8137	0.3004	0.4694	-0.262
Mof_O 	O 	0.757	0.9428	0.2156	-0.524
Mof_O 	O 	0.6218	0.9489	0.1772	-0.499
Mof_O 	O 	0.1523	0.8589	0.1142	-0.538
Mof_O 	O 	0.3473	0.7474	0.1251	-0.491
Mof_C 	C 	0.3346	0.4506	0.4285	-0.174
Mof_C 	C 	0.3721	0.4937	0.5078	0.236
Mof_C 	C 	0.4313	0.5731	0.542	-0.186
Mof_C 	C 	0.4498	0.6091	0.4993	0.229
Mof_C 	C 	0.4117	0.5647	0.4183	-0.184
Mof_C 	C 	0.3601	0.485	0.3835	0.219
Mof_C 	C 	0.332	0.4336	0.2952	-0.554
Mof_H 	H 	0.2954	0.3795	0.2794	0.197
Mof_H 	H 	0.2959	0.4563	0.2744	0.185
Mof_H 	H 	0.3869	0.4323	0.2756	0.184
Mof_C 	C 	0.3471	0.4541	0.5544	-0.602
Mof_H 	H 	0.378	0.4915	0.6086	0.209
Mof_H 	H 	0.2808	0.4386	0.5482	0.207
Mof_H 	H 	0.3665	0.407	0.5361	0.216
Mof_C 	C 	0.5055	0.6981	0.5386	-0.574
Mof_H 	H 	0.5131	0.7125	0.4995	0.194
Mof_H 	H 	0.473	0.73	0.5729	0.189
Mof_H 	H 	0.5656	0.7083	0.5682	0.202
Mof_C 	C 	0.2587	0.3717	0.3917	0.08
Mof_H 	H 	0.2164	0.3648	0.3476	0.018
Mof_H 	H 	0.2235	0.3713	0.4293	0.015
Mof_C 	C 	0.2369	0.234	0.3488	0.244
Mof_C 	C 	0.2677	0.1699	0.3157	-0.24
Mof_H 	H 	0.3262	0.1771	0.3051	0.103
Mof_C 	C 	0.2142	0.0937	0.2971	0.117
Mof_H 	H 	0.2387	0.0511	0.2783	-0.025
Mof_C 	C 	0.1222	0.0805	0.3066	-0.202
Mof_C 	C 	0.0922	0.1465	0.3377	0.128
Mof_H 	H 	0.0325	0.1397	0.3458	-0.009
Mof_C 	C 	0.1469	0.2222	0.3576	-0.241
Mof_H 	H 	0.1234	0.2653	0.3768	0.115
Mof_C 	C 	0.065	0.9988	0.284	0.43
Mof_C 	C 	0.4731	0.6195	0.6283	0.109
Mof_H 	H 	0.5354	0.6556	0.6403	0.01
Mof_H 	H 	0.4776	0.5824	0.6462	-0.007
Mof_C 	C 	0.4335	0.7	0.7451	0.269
Mof_C 	C 	0.3732	0.7391	0.7805	-0.264
Mof_H 	H 	0.3273	0.7441	0.7503	0.117
Mof_C 	C 	0.3784	0.7702	0.8568	0.15
Mof_H 	H 	0.3352	0.7949	0.8782	-0.019
Mof_C 	C 	0.4456	0.7663	0.904	-0.219
Mof_C 	C 	0.5099	0.7296	0.8681	0.14
Mof_H 	H 	0.5582	0.727	0.8982	-0.052
Mof_C 	C 	0.5024	0.6976	0.7891	-0.275
Mof_H 	H 	0.546	0.6743	0.7666	0.112
Mof_C 	C 	0.458	0.8017	0.9881	0.388
Mof_C 	C 	0.425	0.6036	0.3697	0.105
Mof_H 	H 	0.4148	0.6556	0.3956	-0.014
Mof_H 	H 	0.3803	0.5696	0.3192	-0.012
Mof_C 	C 	0.5403	0.6525	0.3192	0.242
Mof_C 	C 	0.4809	0.6795	0.29	-0.238
Mof_H 	H 	0.4218	0.6754	0.2994	0.093
Mof_C 	C 	0.5104	0.7134	0.2455	0.105
Mof_H 	H 	0.4693	0.7282	0.2216	-0.029
Mof_C 	C 	0.5991	0.7246	0.2374	-0.196
Mof_C 	C 	0.6594	0.7024	0.2703	0.116
Mof_H 	H 	0.72	0.7098	0.2641	-0.015
Mof_C 	C 	0.6294	0.6685	0.3135	-0.239
Mof_H 	H 	0.6718	0.6563	0.3394	0.112
Mof_C 	C 	0.6287	0.7646	0.1902	0.365
Mof_C 	C 	0.924	0.5545	0.5426	-0.175
Mof_C 	C 	0.9512	0.5902	0.6214	0.205
Mof_C 	C 	0.9189	0.548	0.659	-0.166
Mof_C 	C 	0.8538	0.4695	0.6141	0.2
Mof_C 	C 	0.8234	0.4355	0.5352	-0.169
Mof_C 	C 	0.8578	0.4777	0.4984	0.219
Mof_C 	C 	0.0181	0.6764	0.6711	-0.551
Mof_H 	H 	0.0289	0.6922	0.7253	0.194
Mof_H 	H 	0.0762	0.6792	0.6562	0.182
Mof_H 	H 	0.9915	0.7123	0.6632	0.192
Mof_C 	C 	0.824	0.4257	0.6568	-0.523
Mof_H 	H 	0.7802	0.3729	0.6203	0.175
Mof_H 	H 	0.8776	0.4202	0.681	0.168
Mof_H 	H 	0.7953	0.456	0.6962	0.169
Mof_C 	C 	0.8238	0.4383	0.4118	-0.571
Mof_H 	H 	0.7782	0.3862	0.3914	0.201
Mof_H 	H 	0.796	0.4716	0.4002	0.196
Mof_H 	H 	0.8752	0.4319	0.3881	0.189
Mof_C 	C 	0.9659	0.5944	0.5008	0.083
Mof_H 	H 	0.9717	0.5544	0.4508	0.007
Mof_H 	H 	0.0273	0.633	0.5316	0.018
Mof_C 	C 	0.9238	0.6681	0.4435	0.241
Mof_C 	C 	0.994	0.6627	0.4083	-0.255
Mof_H 	H 	0.034	0.6357	0.4141	0.121
Mof_C 	C 	0.0062	0.6979	0.3631	0.135
Mof_H 	H 	0.0533	0.6919	0.3368	-0.026
Mof_C 	C 	0.953	0.7401	0.3555	-0.209
Mof_C 	C 	0.8812	0.7469	0.3944	0.117
Mof_H 	H 	0.8431	0.7759	0.39	-0.016
Mof_C 	C 	0.8663	0.7115	0.4386	-0.232
Mof_H 	H 	0.8189	0.7165	0.4646	0.109
Mof_C 	C 	0.9665	0.779	0.3065	0.445
Mof_C 	C 	0.9481	0.5891	0.7451	0.105
Mof_H 	H 	0.0145	0.6184	0.7639	-0.01
Mof_H 	H 	0.9345	0.55	0.762	-0.011
Mof_C 	C 	0.9	0.6797	0.8519	0.236
Mof_C 	C 	0.8459	0.7301	0.8762	-0.244
Mof_H 	H 	0.8123	0.7374	0.8401	0.109
Mof_C 	C 	0.8413	0.7686	0.9509	0.128
Mof_H 	H 	0.804	0.8017	0.966	-0.049
Mof_C 	C 	0.8942	0.7589	0.0087	-0.229
Mof_C 	C 	0.9457	0.709	0.9836	0.134
Mof_H 	H 	0.9784	0.7001	0.019	-0.052
Mof_C 	C 	0.9513	0.6697	0.9049	-0.244
Mof_H 	H 	0.9895	0.6374	0.8893	0.098
Mof_C 	C 	0.8881	0.7988	0.0899	0.435
Mof_C 	C 	0.7567	0.3525	0.4894	0.094
Mof_H 	H 	0.7185	0.3442	0.4426	0.003
Mof_H 	H 	0.7163	0.3422	0.5202	-0.003
Mof_C 	C 	0.7801	0.2232	0.4083	0.24
Mof_C 	C 	0.8396	0.179	0.3977	-0.245
Mof_H 	H 	0.8976	0.2027	0.4331	0.119
Mof_C 	C 	0.8172	0.1018	0.3375	0.125
Mof_H 	H 	0.86	0.0738	0.3293	-0.025
Mof_C 	C 	0.7278	0.066	0.2884	-0.217
Mof_C 	C 	0.6646	0.1065	0.3002	0.121
Mof_H 	H 	0.6044	0.0807	0.2678	-0.037
Mof_C 	C 	0.6905	0.1868	0.3609	-0.244
Mof_H 	H 	0.6482	0.2153	0.3694	0.103
Mof_C 	C 	0.7008	0.9801	0.2234	0.399
Mof_H 	H 	0.196	0.8627	0.0927	0.231
Mof_H 	H 	0.1481	0.8153	0.1165	0.06
Mof_H 	H 	0.3152	0.6955	0.1001	0.197
_end
