data_functionalizedCrystal
_audit_creation_method	'EQeq! by Chris Wilmer'
_symmetry_space_group_name_H-M	'P1'
_symmetry_Int_Tables_number	1
_symmetry_cell_setting	triclinic
loop_
_symmetry_equiv_pos_as_xyz
  x,y,z
_cell_length_a	15.783
_cell_length_b	8.378
_cell_length_c	15.955
_cell_angle_alpha	90
_cell_angle_beta	111.5
_cell_angle_gamma	90
loop_
_atom_site_label
_atom_site_type_symbol
_atom_site_fract_x
_atom_site_fract_y
_atom_site_fract_z
_atom_site_charge
Mof_Zn	Zn	0.36328	0.63895	0.47452	1.233
Mof_P 	P 	0.15472	0.63362	0.36453	0.458
Mof_P 	P 	0.02115	0.12698	0.40041	0.304
Mof_O 	O 	0.25108	0.5957	0.3734	-0.425
Mof_O 	O 	0.1439	0.6859	0.45038	-0.497
Mof_O 	O 	0.11171	0.7472	0.28635	-0.461
Mof_O 	O 	0.95761	0.218	0.434	-0.341
Mof_O 	O 	0.97507	0.9854	0.34229	-0.385
Mof_O 	O 	0.10937	0.0783	0.47654	-0.429
Mof_H 	H 	0.1104	0.498	0.3416	-0.045
Mof_H 	H 	0.0481	0.225	0.3526	-0.044
Mof_Zn	Zn	0.86328	0.13895	0.47452	1.237
Mof_P 	P 	0.65472	0.13362	0.36453	0.461
Mof_P 	P 	0.52115	0.62698	0.40041	0.441
Mof_O 	O 	0.75108	0.0957	0.3734	-0.419
Mof_O 	O 	0.6439	0.1859	0.45038	-0.483
Mof_O 	O 	0.61171	0.2472	0.28635	-0.442
Mof_O 	O 	0.45761	0.718	0.434	-0.423
Mof_O 	O 	0.47507	0.4854	0.34229	-0.479
Mof_O 	O 	0.60937	0.5783	0.47654	-0.43
Mof_H 	H 	0.6104	0.998	0.3416	-0.028
Mof_H 	H 	0.5481	0.725	0.3526	-0.039
Mof_Zn	Zn	0.63672	0.63895	0.02548	1.236
Mof_P 	P 	0.84528	0.63362	0.13547	0.463
Mof_P 	P 	0.97885	0.12698	0.09959	0.575
Mof_O 	O 	0.74892	0.5957	0.1266	-0.418
Mof_O 	O 	0.8561	0.6859	0.04962	-0.464
Mof_O 	O 	0.88829	0.7472	0.21365	-0.413
Mof_O 	O 	0.04239	0.218	0.066	-0.5
Mof_O 	O 	0.02493	0.9854	0.15771	-0.558
Mof_O 	O 	0.89063	0.0783	0.02346	-0.429
Mof_H 	H 	0.8896	0.498	0.1584	-0.011
Mof_H 	H 	0.9519	0.225	0.1474	-0.033
Mof_Zn	Zn	0.13672	0.13895	0.02548	1.232
Mof_P 	P 	0.34528	0.13362	0.13547	0.46
Mof_P 	P 	0.47885	0.62698	0.09959	0.441
Mof_O 	O 	0.24892	0.0957	0.1266	-0.426
Mof_O 	O 	0.3561	0.1859	0.04962	-0.481
Mof_O 	O 	0.38829	0.2472	0.21365	-0.445
Mof_O 	O 	0.54239	0.718	0.066	-0.419
Mof_O 	O 	0.52493	0.4854	0.15771	-0.477
Mof_O 	O 	0.39063	0.5783	0.02346	-0.429
Mof_H 	H 	0.3896	0.998	0.1584	-0.029
Mof_H 	H 	0.4519	0.725	0.1474	-0.039
Mof_Zn	Zn	0.63672	0.36105	0.52548	1.234
Mof_P 	P 	0.84528	0.36638	0.63547	0.463
Mof_P 	P 	0.97885	0.87302	0.59959	0.576
Mof_O 	O 	0.74892	0.4043	0.6266	-0.42
Mof_O 	O 	0.8561	0.3141	0.54962	-0.469
Mof_O 	O 	0.88829	0.2528	0.71365	-0.414
Mof_O 	O 	0.04239	0.782	0.566	-0.502
Mof_O 	O 	0.02493	0.0146	0.65771	-0.56
Mof_O 	O 	0.89063	0.9217	0.52346	-0.432
Mof_H 	H 	0.8896	0.502	0.6584	-0.012
Mof_H 	H 	0.9519	0.775	0.6474	-0.034
Mof_Zn	Zn	0.13672	0.86105	0.52548	1.23
Mof_P 	P 	0.34528	0.86638	0.63547	0.461
Mof_P 	P 	0.47885	0.37302	0.59959	0.441
Mof_O 	O 	0.24892	0.9043	0.6266	-0.427
Mof_O 	O 	0.3561	0.8141	0.54962	-0.485
Mof_O 	O 	0.38829	0.7528	0.71365	-0.445
Mof_O 	O 	0.54239	0.282	0.566	-0.422
Mof_O 	O 	0.52493	0.5146	0.65771	-0.478
Mof_O 	O 	0.39063	0.4217	0.52346	-0.433
Mof_H 	H 	0.3896	0.002	0.6584	-0.03
Mof_H 	H 	0.4519	0.275	0.6474	-0.04
Mof_Zn	Zn	0.36328	0.36105	0.97452	1.231
Mof_P 	P 	0.15472	0.36638	0.86453	0.458
Mof_P 	P 	0.02115	0.87302	0.90041	0.307
Mof_O 	O 	0.25108	0.4043	0.8734	-0.427
Mof_O 	O 	0.1439	0.3141	0.95038	-0.499
Mof_O 	O 	0.11171	0.2528	0.78635	-0.462
Mof_O 	O 	0.95761	0.782	0.934	-0.346
Mof_O 	O 	0.97507	0.0146	0.84229	-0.387
Mof_O 	O 	0.10937	0.9217	0.97654	-0.433
Mof_H 	H 	0.1104	0.502	0.8416	-0.046
Mof_H 	H 	0.0481	0.775	0.8526	-0.044
Mof_Zn	Zn	0.86328	0.86105	0.97452	1.235
Mof_P 	P 	0.65472	0.86638	0.86453	0.46
Mof_P 	P 	0.52115	0.37302	0.90041	0.441
Mof_O 	O 	0.75108	0.9043	0.8734	-0.421
Mof_O 	O 	0.6439	0.8141	0.95038	-0.487
Mof_O 	O 	0.61171	0.7528	0.78635	-0.443
Mof_O 	O 	0.45761	0.282	0.934	-0.425
Mof_O 	O 	0.47507	0.5146	0.84229	-0.48
Mof_O 	O 	0.60937	0.4217	0.97654	-0.433
Mof_H 	H 	0.6104	0.002	0.8416	-0.029
Mof_H 	H 	0.5481	0.275	0.8526	-0.039
Mof_Zn	Zn	1.29485e-33	0.86908	0.25	1.202
Mof_Zn	Zn	0.5	0.36908	0.25	1.231
Mof_Zn	Zn	3.88455e-33	0.13092	0.75	1.203
Mof_Zn	Zn	0.5	0.63092	0.75	1.231
_end
