data_functionalizedCrystal
_audit_creation_method	'EQeq! by Chris Wilmer'
_symmetry_space_group_name_H-M	'P1'
_symmetry_Int_Tables_number	1
_symmetry_cell_setting	triclinic
loop_
_symmetry_equiv_pos_as_xyz
  x,y,z
_cell_length_a	12.949
_cell_length_b	13.869
_cell_length_c	27.972
_cell_angle_alpha	104.315
_cell_angle_beta	98.301
_cell_angle_gamma	94.349
loop_
_atom_site_label
_atom_site_type_symbol
_atom_site_fract_x
_atom_site_fract_y
_atom_site_fract_z
_atom_site_charge
Mof_Eu	Eu	0.61955	0.0747	0.55395	2.098
Mof_Eu	Eu	0.01589	0.10482	0.08637	1.916
Mof_Eu	Eu	0.53139	0.56414	0.93921	2.128
Mof_Eu	Eu	0.02882	0.45434	0.41526	1.907
Mof_C 	C 	0.571	0.1007	0.43529	0.507
Mof_C 	C 	0.6507	0.6326	0.06363	0.514
Mof_O 	O 	0.0982	0.97367	0.04556	-0.592
Mof_O 	O 	0.4817	0.0507	0.42273	-0.529
Mof_C 	C 	0.1319	0.8992	0.02108	0.552
Mof_C 	C 	0.2	0.8403	0.04819	-0.249
Mof_O 	O 	0.8875	0.95189	0.06672	-0.443
Mof_O 	O 	0.0539	0.7189	0.40336	-0.356
Mof_O 	O 	0.624	0.64881	0.02162	-0.579
Mof_O 	O 	0.6311	0.1112	0.47552	-0.58
Mof_C 	C 	0.3997	0.8265	0.25822	0.083
Mof_H 	H 	0.4633	0.8164	0.2754	0.013
Mof_C 	C 	0.7341	0.2579	0.37465	-0.12
Mof_C 	C 	0.5662	0.1998	0.31981	-0.081
Mof_C 	C 	0.4897	0.2009	0.27527	0.12
Mof_C 	C 	0.9015	0.6261	0.23027	-0.196
Mof_H 	H 	0.8768	0.5749	0.2015	0.092
Mof_C 	C 	0.9008	0.8285	0.16715	0.03
Mof_H 	H 	0.955	0.8716	0.1895	0.026
Mof_O 	O 	0.90507	0.31624	0.42347	-0.435
Mof_O 	O 	0.9949	0.989	0.13915	-0.442
Mof_O 	O 	0.8982	0.5237	0.45727	-0.584
Mof_C 	C 	0.8556	0.7467	0.18048	-0.089
Mof_O 	O 	0.1742	0.1496	0.14169	-0.536
Mof_O 	O 	0.4529	0.534	0.14513	-0.469
Mof_O 	O 	0.7026	0.92526	0.52585	-0.514
Mof_C 	C 	0.643	0.8766	0.48704	0.477
Mof_C 	C 	0.5385	0.1473	0.35398	0.051
Mof_H 	H 	0.4735	0.1088	0.3471	0.022
Mof_O 	O 	0.2787	0.9302	0.36428	-0.453
Mof_O 	O 	0.4137	0.845	0.3613	-0.47
Mof_O 	O 	0.3918	0.647	0.97411	-0.544
Mof_C 	C 	0.6759	0.7818	0.45724	-0.214
Mof_O 	O 	0.6104	0.56215	0.07825	-0.542
Mof_O 	O 	0.5562	0.90492	0.47233	-0.628
Mof_C 	C 	0.5041	0.5964	0.25034	0.088
Mof_H 	H 	0.441	0.6123	0.2354	0.009
Mof_C 	C 	0.3326	0.2147	0.19731	-0.191
Mof_O 	O 	0.8736	0.6194	0.52893	-0.591
Mof_O 	O 	0.8603	0.3758	0.35833	-0.425
Mof_C 	C 	0.6651	0.2558	0.33167	0.021
Mof_H 	H 	0.685	0.2925	0.3101	0.03
Mof_O 	O 	0.0092	0.5592	0.36359	-0.567
Mof_C 	C 	0.3139	0.7108	0.04474	-0.235
Mof_C 	C 	0.9363	0.7985	0.27159	-0.191
Mof_H 	H 	0.9346	0.8653	0.2713	0.095
Mof_C 	C 	0.7841	0.6478	0.45586	-0.236
Mof_C 	C 	0.4182	0.1198	0.24989	-0.189
Mof_H 	H 	0.4214	0.0597	0.2588	0.1
Mof_O 	O 	0.5672	0.4268	0.14168	-0.471
Mof_C 	C 	0.2438	0.2255	0.15945	0.4
Mof_O 	O 	0.4002	0.56478	0.03259	-0.62
Mof_O 	O 	0.1137	0.8685	0.97435	-0.602
Mof_C 	C 	0.0174	0.6506	0.36476	0.432
Mof_C 	C 	0.8574	0.594	0.48235	0.527
Mof_C 	C 	0.9409	0.602	0.27369	0.117
Mof_H 	H 	0.9426	0.5352	0.274	-0.016
Mof_C 	C 	0.6065	0.1519	0.39781	-0.183
Mof_C 	C 	0.5375	0.6348	0.30174	-0.182
Mof_H 	H 	0.4961	0.6755	0.3206	0.094
Mof_O 	O 	0.2398	0.306	0.14755	-0.374
Mof_C 	C 	0.2895	0.8208	0.18029	0.131
Mof_C 	C 	0.2134	0.8577	0.09969	0.106
Mof_H 	H 	0.1806	0.9082	0.1181	-0
Mof_C 	C 	0.8667	0.8468	0.12138	-0.131
Mof_C 	C 	0.6707	0.6551	0.3797	-0.118
Mof_C 	C 	0.3726	0.6342	0.01507	0.529
Mof_C 	C 	0.406	0.2961	0.22181	0.095
Mof_H 	H 	0.4037	0.3555	0.2121	-0.004
Mof_C 	C 	0.3212	0.8605	0.28423	-0.147
Mof_C 	C 	0.8978	0.7242	0.22828	0.135
Mof_C 	C 	0.4827	0.2902	0.26056	-0.183
Mof_H 	H 	0.5304	0.3463	0.2771	0.093
Mof_C 	C 	0.5621	0.536	0.22162	-0.153
Mof_C 	C 	0.3412	0.1263	0.21121	0.104
Mof_H 	H 	0.2944	0.07	0.1942	0.003
Mof_C 	C 	0.2744	0.8014	0.12443	-0.124
Mof_C 	C 	0.6354	0.741	0.40687	0.08
Mof_H 	H 	0.5841	0.7714	0.3911	-0.003
Mof_C 	C 	0.3229	0.7253	0.09646	0.091
Mof_H 	H 	0.361	0.6843	0.1123	-0.003
Mof_C 	C 	0.3842	0.8076	0.20715	-0.178
Mof_H 	H 	0.438	0.7855	0.19	0.097
Mof_C 	C 	0.9771	0.7755	0.31535	0.117
Mof_H 	H 	0.004	0.827	0.3438	-0.004
Mof_C 	C 	0.7039	0.2072	0.40814	0.078
Mof_H 	H 	0.7493	0.2104	0.4376	0.006
Mof_C 	C 	0.7858	0.7836	0.08755	0.084
Mof_H 	H 	0.7639	0.7955	0.0566	-0.004
Mof_C 	C 	0.7502	0.7349	0.48144	0.141
Mof_H 	H 	0.7773	0.7625	0.5152	-0.007
Mof_C 	C 	0.7376	0.7023	0.10025	-0.193
Mof_C 	C 	0.8394	0.3198	0.38589	0.32
Mof_C 	C 	0.6315	0.6133	0.32503	0.131
Mof_C 	C 	0.252	0.7681	0.02084	0.154
Mof_H 	H 	0.2455	0.758	0.9864	-0.021
Mof_C 	C 	0.9784	0.678	0.31733	-0.199
Mof_C 	C 	0.6513	0.5081	0.24461	0.09
Mof_H 	H 	0.6888	0.4626	0.2259	0.005
Mof_C 	C 	0.7724	0.6849	0.14624	0.062
Mof_H 	H 	0.7397	0.6308	0.1547	0.019
Mof_C 	C 	0.6865	0.5472	0.29572	-0.18
Mof_H 	H 	0.7482	0.5285	0.3105	0.1
Mof_C 	C 	0.5259	0.4963	0.16626	0.365
Mof_C 	C 	0.2116	0.8551	0.20686	-0.181
Mof_H 	H 	0.1477	0.8648	0.1898	0.099
Mof_C 	C 	0.7457	0.6099	0.4048	0.094
Mof_H 	H 	0.7707	0.5531	0.3871	0.001
Mof_C 	C 	0.9195	0.9341	0.1085	0.319
Mof_C 	C 	0.2277	0.8753	0.25851	0.086
Mof_H 	H 	0.1748	0.8991	0.2759	0.009
Mof_C 	C 	0.3397	0.8801	0.34034	0.354
Mof_Eu	Eu	0.38045	0.9253	0.44605	2.099
Mof_Eu	Eu	0.98411	0.89518	0.91363	1.917
Mof_Eu	Eu	0.46862	0.43586	0.06079	2.129
Mof_Eu	Eu	0.97118	0.54566	0.58474	1.908
Mof_C 	C 	0.429	0.8993	0.56471	0.508
Mof_C 	C 	0.3493	0.3674	0.93637	0.515
Mof_O 	O 	0.9018	0.02633	0.95444	-0.591
Mof_O 	O 	0.5183	0.9493	0.57727	-0.528
Mof_C 	C 	0.8681	0.1008	0.97892	0.552
Mof_C 	C 	0.8	0.1597	0.95181	-0.249
Mof_O 	O 	0.1125	0.04811	0.93328	-0.443
Mof_O 	O 	0.9461	0.2811	0.59664	-0.356
Mof_O 	O 	0.376	0.35119	0.97838	-0.579
Mof_O 	O 	0.3689	0.8888	0.52448	-0.58
Mof_C 	C 	0.6003	0.1735	0.74178	0.083
Mof_H 	H 	0.5367	0.1836	0.7246	0.013
Mof_C 	C 	0.2659	0.7421	0.62535	-0.12
Mof_C 	C 	0.4338	0.8002	0.68019	-0.081
Mof_C 	C 	0.5103	0.7991	0.72473	0.12
Mof_C 	C 	0.0985	0.3739	0.76973	-0.196
Mof_H 	H 	0.1232	0.4251	0.7985	0.092
Mof_C 	C 	0.0992	0.1715	0.83285	0.03
Mof_H 	H 	0.045	0.1284	0.8105	0.026
Mof_O 	O 	0.09493	0.68376	0.57653	-0.435
Mof_O 	O 	0.0051	0.011	0.86085	-0.442
Mof_O 	O 	0.1018	0.4763	0.54273	-0.584
Mof_C 	C 	0.1444	0.2533	0.81952	-0.089
Mof_O 	O 	0.8258	0.8504	0.85831	-0.536
Mof_O 	O 	0.5471	0.466	0.85487	-0.469
Mof_O 	O 	0.2974	0.07474	0.47415	-0.514
Mof_C 	C 	0.357	0.1234	0.51296	0.477
Mof_C 	C 	0.4615	0.8527	0.64602	0.051
Mof_H 	H 	0.5265	0.8912	0.6529	0.022
Mof_O 	O 	0.7213	0.0698	0.63572	-0.453
Mof_O 	O 	0.5863	0.155	0.6387	-0.47
Mof_O 	O 	0.6082	0.353	0.02589	-0.544
Mof_C 	C 	0.3241	0.2182	0.54276	-0.214
Mof_O 	O 	0.3896	0.43785	0.92175	-0.542
Mof_O 	O 	0.4438	0.09508	0.52767	-0.628
Mof_C 	C 	0.4959	0.4036	0.74966	0.088
Mof_H 	H 	0.559	0.3877	0.7646	0.009
Mof_C 	C 	0.6674	0.7853	0.80269	-0.191
Mof_O 	O 	0.1264	0.3806	0.47107	-0.591
Mof_O 	O 	0.1397	0.6242	0.64167	-0.425
Mof_C 	C 	0.3349	0.7442	0.66833	0.021
Mof_H 	H 	0.315	0.7075	0.6899	0.03
Mof_O 	O 	0.9908	0.4408	0.63641	-0.567
Mof_C 	C 	0.6861	0.2892	0.95526	-0.235
Mof_C 	C 	0.0637	0.2015	0.72841	-0.191
Mof_H 	H 	0.0654	0.1347	0.7287	0.095
Mof_C 	C 	0.2159	0.3522	0.54414	-0.236
Mof_C 	C 	0.5818	0.8802	0.75011	-0.189
Mof_H 	H 	0.5786	0.9403	0.7412	0.1
Mof_O 	O 	0.4328	0.5732	0.85832	-0.471
Mof_C 	C 	0.7562	0.7745	0.84055	0.4
Mof_O 	O 	0.5998	0.43522	0.96741	-0.62
Mof_O 	O 	0.8863	0.1315	0.02565	-0.602
Mof_C 	C 	0.9826	0.3494	0.63524	0.432
Mof_C 	C 	0.1426	0.406	0.51765	0.527
Mof_C 	C 	0.0591	0.398	0.72631	0.117
Mof_H 	H 	0.0574	0.4648	0.726	-0.016
Mof_C 	C 	0.3935	0.8481	0.60219	-0.183
Mof_C 	C 	0.4625	0.3652	0.69826	-0.182
Mof_H 	H 	0.5039	0.3245	0.6794	0.094
Mof_O 	O 	0.7602	0.694	0.85245	-0.374
Mof_C 	C 	0.7105	0.1792	0.81971	0.131
Mof_C 	C 	0.7866	0.1423	0.90031	0.106
Mof_H 	H 	0.8194	0.0918	0.8819	-0
Mof_C 	C 	0.1333	0.1532	0.87862	-0.131
Mof_C 	C 	0.3293	0.3449	0.6203	-0.118
Mof_C 	C 	0.6274	0.3658	0.98493	0.529
Mof_C 	C 	0.594	0.7039	0.77819	0.095
Mof_H 	H 	0.5963	0.6445	0.7879	-0.004
Mof_C 	C 	0.6788	0.1395	0.71577	-0.147
Mof_C 	C 	0.1022	0.2758	0.77172	0.135
Mof_C 	C 	0.5173	0.7098	0.73944	-0.183
Mof_H 	H 	0.4696	0.6537	0.7229	0.093
Mof_C 	C 	0.4379	0.464	0.77838	-0.153
Mof_C 	C 	0.6588	0.8737	0.78879	0.104
Mof_H 	H 	0.7056	0.93	0.8058	0.003
Mof_C 	C 	0.7256	0.1986	0.87557	-0.124
Mof_C 	C 	0.3646	0.259	0.59313	0.08
Mof_H 	H 	0.4159	0.2286	0.6089	-0.003
Mof_C 	C 	0.6771	0.2747	0.90354	0.091
Mof_H 	H 	0.639	0.3157	0.8877	-0.003
Mof_C 	C 	0.6158	0.1924	0.79285	-0.178
Mof_H 	H 	0.562	0.2145	0.81	0.097
Mof_C 	C 	0.0229	0.2245	0.68465	0.117
Mof_H 	H 	0.996	0.173	0.6562	-0.004
Mof_C 	C 	0.2961	0.7928	0.59186	0.078
Mof_H 	H 	0.2507	0.7896	0.5624	0.006
Mof_C 	C 	0.2142	0.2164	0.91245	0.084
Mof_H 	H 	0.2361	0.2045	0.9434	-0.004
Mof_C 	C 	0.2498	0.2651	0.51856	0.141
Mof_H 	H 	0.2227	0.2375	0.4848	-0.007
Mof_C 	C 	0.2624	0.2977	0.89975	-0.193
Mof_C 	C 	0.1606	0.6802	0.61411	0.32
Mof_C 	C 	0.3685	0.3867	0.67497	0.131
Mof_C 	C 	0.748	0.2319	0.97916	0.154
Mof_H 	H 	0.7545	0.242	0.0136	-0.021
Mof_C 	C 	0.0216	0.322	0.68267	-0.199
Mof_C 	C 	0.3487	0.4919	0.75539	0.09
Mof_H 	H 	0.3112	0.5374	0.7741	0.005
Mof_C 	C 	0.2276	0.3151	0.85376	0.062
Mof_H 	H 	0.2603	0.3692	0.8453	0.019
Mof_C 	C 	0.3135	0.4528	0.70428	-0.18
Mof_H 	H 	0.2518	0.4715	0.6895	0.1
Mof_C 	C 	0.4741	0.5037	0.83374	0.365
Mof_C 	C 	0.7884	0.1449	0.79314	-0.181
Mof_H 	H 	0.8523	0.1352	0.8102	0.099
Mof_C 	C 	0.2543	0.3901	0.5952	0.094
Mof_H 	H 	0.2293	0.4469	0.6129	0.001
Mof_C 	C 	0.0805	0.0659	0.8915	0.319
Mof_C 	C 	0.7723	0.1247	0.74149	0.086
Mof_H 	H 	0.8252	0.1009	0.7241	0.009
Mof_C 	C 	0.6603	0.1199	0.65966	0.354
_end
