data_functionalizedCrystal
_audit_creation_method	'EQeq! by Chris Wilmer'
_symmetry_space_group_name_H-M	'P1'
_symmetry_Int_Tables_number	1
_symmetry_cell_setting	triclinic
loop_
_symmetry_equiv_pos_as_xyz
  x,y,z
_cell_length_a	18.794
_cell_length_b	18.794
_cell_length_c	18.794
_cell_angle_alpha	90
_cell_angle_beta	90
_cell_angle_gamma	90
loop_
_atom_site_label
_atom_site_type_symbol
_atom_site_fract_x
_atom_site_fract_y
_atom_site_fract_z
_atom_site_charge
Mof_N 	N 	0.07569	0.42227	0.37154	-0.202
Mof_N 	N 	0.1267	0.4057	0.3301	0.074
Mof_C 	C 	0.1371	0.4181	0.3283	-0.236
Mof_H 	H 	0.1534	0.4495	0.2921	0.069
Mof_N 	N 	0.92431	0.57773	0.37154	-0.155
Mof_N 	N 	0.8733	0.5943	0.3301	0.077
Mof_C 	C 	0.8629	0.5819	0.3283	-0.225
Mof_H 	H 	0.8466	0.5505	0.2921	0.084
Mof_N 	N 	0.92431	0.42227	0.62846	-0.153
Mof_N 	N 	0.8733	0.4057	0.6699	0.077
Mof_C 	C 	0.8629	0.4181	0.6717	-0.222
Mof_H 	H 	0.8466	0.4495	0.7079	0.09
Mof_N 	N 	0.07569	0.57773	0.62846	-0.197
Mof_N 	N 	0.1267	0.5943	0.6699	0.075
Mof_C 	C 	0.1371	0.5819	0.6717	-0.23
Mof_H 	H 	0.1534	0.5505	0.7079	0.076
Mof_N 	N 	0.37154	0.07569	0.42227	-0.202
Mof_N 	N 	0.3301	0.1267	0.4057	0.074
Mof_C 	C 	0.3283	0.1371	0.4181	-0.236
Mof_H 	H 	0.2921	0.1534	0.4495	0.069
Mof_N 	N 	0.37154	0.92431	0.57773	-0.155
Mof_N 	N 	0.3301	0.8733	0.5943	0.077
Mof_C 	C 	0.3283	0.8629	0.5819	-0.225
Mof_H 	H 	0.2921	0.8466	0.5505	0.084
Mof_N 	N 	0.62846	0.92431	0.42227	-0.153
Mof_N 	N 	0.6699	0.8733	0.4057	0.077
Mof_C 	C 	0.6717	0.8629	0.4181	-0.222
Mof_H 	H 	0.7079	0.8466	0.4495	0.09
Mof_N 	N 	0.62846	0.07569	0.57773	-0.197
Mof_N 	N 	0.6699	0.1267	0.5943	0.075
Mof_C 	C 	0.6717	0.1371	0.5819	-0.23
Mof_H 	H 	0.7079	0.1534	0.5505	0.076
Mof_N 	N 	0.42227	0.37154	0.07569	-0.202
Mof_N 	N 	0.4057	0.3301	0.1267	0.074
Mof_C 	C 	0.4181	0.3283	0.1371	-0.236
Mof_H 	H 	0.4495	0.2921	0.1534	0.069
Mof_N 	N 	0.57773	0.37154	0.92431	-0.155
Mof_N 	N 	0.5943	0.3301	0.8733	0.077
Mof_C 	C 	0.5819	0.3283	0.8629	-0.225
Mof_H 	H 	0.5505	0.2921	0.8466	0.084
Mof_N 	N 	0.42227	0.62846	0.92431	-0.153
Mof_N 	N 	0.4057	0.6699	0.8733	0.077
Mof_C 	C 	0.4181	0.6717	0.8629	-0.222
Mof_H 	H 	0.4495	0.7079	0.8466	0.09
Mof_N 	N 	0.57773	0.62846	0.07569	-0.197
Mof_N 	N 	0.5943	0.6699	0.1267	0.075
Mof_C 	C 	0.5819	0.6717	0.1371	-0.23
Mof_H 	H 	0.5505	0.7079	0.1534	0.076
Mof_N 	N 	0.42227	0.07569	0.62846	-0.199
Mof_N 	N 	0.4057	0.1267	0.6699	0.075
Mof_C 	C 	0.4181	0.1371	0.6717	-0.232
Mof_H 	H 	0.4495	0.1534	0.7079	0.076
Mof_N 	N 	0.57773	0.92431	0.62846	-0.152
Mof_N 	N 	0.5943	0.8733	0.6699	0.077
Mof_C 	C 	0.5819	0.8629	0.6717	-0.22
Mof_H 	H 	0.5505	0.8466	0.7079	0.091
Mof_N 	N 	0.42227	0.92431	0.37154	-0.157
Mof_N 	N 	0.4057	0.8733	0.3301	0.077
Mof_C 	C 	0.4181	0.8629	0.3283	-0.227
Mof_H 	H 	0.4495	0.8466	0.2921	0.083
Mof_N 	N 	0.57773	0.07569	0.37154	-0.201
Mof_N 	N 	0.5943	0.1267	0.3301	0.075
Mof_C 	C 	0.5819	0.1371	0.3283	-0.234
Mof_H 	H 	0.5505	0.1534	0.2921	0.069
Mof_N 	N 	0.07569	0.37154	0.57773	-0.201
Mof_N 	N 	0.1267	0.3301	0.5943	0.075
Mof_C 	C 	0.1371	0.3283	0.5819	-0.234
Mof_H 	H 	0.1534	0.2921	0.5505	0.069
Mof_N 	N 	0.92431	0.37154	0.42227	-0.157
Mof_N 	N 	0.8733	0.3301	0.4057	0.077
Mof_C 	C 	0.8629	0.3283	0.4181	-0.227
Mof_H 	H 	0.8466	0.2921	0.4495	0.083
Mof_N 	N 	0.92431	0.62846	0.57773	-0.152
Mof_N 	N 	0.8733	0.6699	0.5943	0.077
Mof_C 	C 	0.8629	0.6717	0.5819	-0.22
Mof_H 	H 	0.8466	0.7079	0.5505	0.091
Mof_N 	N 	0.07569	0.62846	0.42227	-0.199
Mof_N 	N 	0.1267	0.6699	0.4057	0.075
Mof_C 	C 	0.1371	0.6717	0.4181	-0.232
Mof_H 	H 	0.1534	0.7079	0.4495	0.076
Mof_N 	N 	0.37154	0.42227	0.92431	-0.157
Mof_N 	N 	0.3301	0.4057	0.8733	0.077
Mof_C 	C 	0.3283	0.4181	0.8629	-0.227
Mof_H 	H 	0.2921	0.4495	0.8466	0.083
Mof_N 	N 	0.37154	0.57773	0.07569	-0.201
Mof_N 	N 	0.3301	0.5943	0.1267	0.075
Mof_C 	C 	0.3283	0.5819	0.1371	-0.234
Mof_H 	H 	0.2921	0.5505	0.1534	0.069
Mof_N 	N 	0.62846	0.42227	0.07569	-0.199
Mof_N 	N 	0.6699	0.4057	0.1267	0.075
Mof_C 	C 	0.6717	0.4181	0.1371	-0.232
Mof_H 	H 	0.7079	0.4495	0.1534	0.076
Mof_N 	N 	0.62846	0.57773	0.92431	-0.152
Mof_N 	N 	0.6699	0.5943	0.8733	0.077
Mof_C 	C 	0.6717	0.5819	0.8629	-0.22
Mof_H 	H 	0.7079	0.5505	0.8466	0.091
Mof_N 	N 	0.92431	0.57773	0.62846	-0.152
Mof_N 	N 	0.8733	0.5943	0.6699	0.077
Mof_C 	C 	0.8629	0.5819	0.6717	-0.22
Mof_H 	H 	0.8466	0.5505	0.7079	0.091
Mof_N 	N 	0.07569	0.42227	0.62846	-0.199
Mof_N 	N 	0.1267	0.4057	0.6699	0.075
Mof_C 	C 	0.1371	0.4181	0.6717	-0.232
Mof_H 	H 	0.1534	0.4495	0.7079	0.076
Mof_N 	N 	0.07569	0.57773	0.37154	-0.201
Mof_N 	N 	0.1267	0.5943	0.3301	0.075
Mof_C 	C 	0.1371	0.5819	0.3283	-0.234
Mof_H 	H 	0.1534	0.5505	0.2921	0.069
Mof_N 	N 	0.92431	0.42227	0.37154	-0.157
Mof_N 	N 	0.8733	0.4057	0.3301	0.077
Mof_C 	C 	0.8629	0.4181	0.3283	-0.227
Mof_H 	H 	0.8466	0.4495	0.2921	0.083
Mof_N 	N 	0.62846	0.92431	0.57773	-0.152
Mof_N 	N 	0.6699	0.8733	0.5943	0.077
Mof_C 	C 	0.6717	0.8629	0.5819	-0.22
Mof_H 	H 	0.7079	0.8466	0.5505	0.091
Mof_N 	N 	0.62846	0.07569	0.42227	-0.199
Mof_N 	N 	0.6699	0.1267	0.4057	0.075
Mof_C 	C 	0.6717	0.1371	0.4181	-0.232
Mof_H 	H 	0.7079	0.1534	0.4495	0.076
Mof_N 	N 	0.37154	0.07569	0.57773	-0.201
Mof_N 	N 	0.3301	0.1267	0.5943	0.075
Mof_C 	C 	0.3283	0.1371	0.5819	-0.234
Mof_H 	H 	0.2921	0.1534	0.5505	0.069
Mof_N 	N 	0.37154	0.92431	0.42227	-0.157
Mof_N 	N 	0.3301	0.8733	0.4057	0.077
Mof_C 	C 	0.3283	0.8629	0.4181	-0.227
Mof_H 	H 	0.2921	0.8466	0.4495	0.083
Mof_N 	N 	0.57773	0.62846	0.92431	-0.152
Mof_N 	N 	0.5943	0.6699	0.8733	0.077
Mof_C 	C 	0.5819	0.6717	0.8629	-0.22
Mof_H 	H 	0.5505	0.7079	0.8466	0.091
Mof_N 	N 	0.42227	0.62846	0.07569	-0.199
Mof_N 	N 	0.4057	0.6699	0.1267	0.075
Mof_C 	C 	0.4181	0.6717	0.1371	-0.232
Mof_H 	H 	0.4495	0.7079	0.1534	0.076
Mof_N 	N 	0.57773	0.37154	0.07569	-0.201
Mof_N 	N 	0.5943	0.3301	0.1267	0.075
Mof_C 	C 	0.5819	0.3283	0.1371	-0.234
Mof_H 	H 	0.5505	0.2921	0.1534	0.069
Mof_N 	N 	0.42227	0.37154	0.92431	-0.157
Mof_N 	N 	0.4057	0.3301	0.8733	0.077
Mof_C 	C 	0.4181	0.3283	0.8629	-0.227
Mof_H 	H 	0.4495	0.2921	0.8466	0.083
Mof_N 	N 	0.57773	0.92431	0.37154	-0.155
Mof_N 	N 	0.5943	0.8733	0.3301	0.077
Mof_C 	C 	0.5819	0.8629	0.3283	-0.225
Mof_H 	H 	0.5505	0.8466	0.2921	0.084
Mof_N 	N 	0.42227	0.07569	0.37154	-0.202
Mof_N 	N 	0.4057	0.1267	0.3301	0.074
Mof_C 	C 	0.4181	0.1371	0.3283	-0.236
Mof_H 	H 	0.4495	0.1534	0.2921	0.069
Mof_N 	N 	0.57773	0.07569	0.62846	-0.197
Mof_N 	N 	0.5943	0.1267	0.6699	0.075
Mof_C 	C 	0.5819	0.1371	0.6717	-0.23
Mof_H 	H 	0.5505	0.1534	0.7079	0.076
Mof_N 	N 	0.42227	0.92431	0.62846	-0.153
Mof_N 	N 	0.4057	0.8733	0.6699	0.077
Mof_C 	C 	0.4181	0.8629	0.6717	-0.222
Mof_H 	H 	0.4495	0.8466	0.7079	0.09
Mof_N 	N 	0.92431	0.62846	0.42227	-0.153
Mof_N 	N 	0.8733	0.6699	0.4057	0.077
Mof_C 	C 	0.8629	0.6717	0.4181	-0.222
Mof_H 	H 	0.8466	0.7079	0.4495	0.09
Mof_N 	N 	0.07569	0.62846	0.57773	-0.197
Mof_N 	N 	0.1267	0.6699	0.5943	0.075
Mof_C 	C 	0.1371	0.6717	0.5819	-0.23
Mof_H 	H 	0.1534	0.7079	0.5505	0.076
Mof_N 	N 	0.07569	0.37154	0.42227	-0.202
Mof_N 	N 	0.1267	0.3301	0.4057	0.074
Mof_C 	C 	0.1371	0.3283	0.4181	-0.236
Mof_H 	H 	0.1534	0.2921	0.4495	0.069
Mof_N 	N 	0.92431	0.37154	0.57773	-0.155
Mof_N 	N 	0.8733	0.3301	0.5943	0.077
Mof_C 	C 	0.8629	0.3283	0.5819	-0.225
Mof_H 	H 	0.8466	0.2921	0.5505	0.084
Mof_N 	N 	0.62846	0.57773	0.07569	-0.197
Mof_N 	N 	0.6699	0.5943	0.1267	0.075
Mof_C 	C 	0.6717	0.5819	0.1371	-0.23
Mof_H 	H 	0.7079	0.5505	0.1534	0.076
Mof_N 	N 	0.62846	0.42227	0.92431	-0.153
Mof_N 	N 	0.6699	0.4057	0.8733	0.077
Mof_C 	C 	0.6717	0.4181	0.8629	-0.222
Mof_H 	H 	0.7079	0.4495	0.8466	0.09
Mof_N 	N 	0.37154	0.57773	0.92431	-0.155
Mof_N 	N 	0.3301	0.5943	0.8733	0.077
Mof_C 	C 	0.3283	0.5819	0.8629	-0.225
Mof_H 	H 	0.2921	0.5505	0.8466	0.084
Mof_N 	N 	0.37154	0.42227	0.07569	-0.202
Mof_N 	N 	0.3301	0.4057	0.1267	0.074
Mof_C 	C 	0.3283	0.4181	0.1371	-0.236
Mof_H 	H 	0.2921	0.4495	0.1534	0.069
Mof_Co	Co	5.17967e-33	0.5	0.36725	1.068
Mof_Co	Co	1.75833e-32	0.5	0.63275	1.073
Mof_Co	Co	0.36725	3.80271e-33	0.5	1.068
Mof_Co	Co	0.63275	3.80271e-33	0.5	1.073
Mof_Co	Co	0.5	0.36725	-0	1.068
Mof_Co	Co	0.5	0.63275	-0	1.073
Mof_Co	Co	0.5	0	0.63275	1.073
Mof_Co	Co	0.5	0	0.36725	1.068
Mof_Co	Co	1.8747e-33	0.36725	0.5	1.068
Mof_Co	Co	1.70855e-32	0.63275	0.5	1.073
Mof_Co	Co	0.36725	0.5	-0	1.068
Mof_Co	Co	0.63275	0.5	-0	1.073
Mof_Cl	Cl	9.48011e-33	0.5	0.5	-0.918
Mof_Cl	Cl	0.5	3.80271e-33	0.5	-0.918
Mof_Cl	Cl	0.5	0.5	-0	-0.918
Mof_C 	C 	0.26235	0.35264	0.26235	-0.059
Mof_H 	H 	0.2413	0.3935	0.2413	0.032
Mof_C 	C 	0.73765	0.64736	0.26235	-0.054
Mof_H 	H 	0.7587	0.6065	0.2413	0.042
Mof_C 	C 	0.73765	0.35264	0.73765	-0.053
Mof_H 	H 	0.7587	0.3935	0.7587	0.049
Mof_C 	C 	0.26235	0.64736	0.73765	-0.054
Mof_H 	H 	0.2413	0.6065	0.7587	0.042
Mof_C 	C 	0.26235	0.26235	0.35264	-0.059
Mof_H 	H 	0.2413	0.2413	0.3935	0.032
Mof_C 	C 	0.26235	0.73765	0.64736	-0.054
Mof_H 	H 	0.2413	0.7587	0.6065	0.042
Mof_C 	C 	0.73765	0.73765	0.35264	-0.053
Mof_H 	H 	0.7587	0.7587	0.3935	0.049
Mof_C 	C 	0.73765	0.26235	0.64736	-0.054
Mof_H 	H 	0.7587	0.2413	0.6065	0.042
Mof_C 	C 	0.35264	0.26235	0.26235	-0.059
Mof_H 	H 	0.3935	0.2413	0.2413	0.032
Mof_C 	C 	0.64736	0.26235	0.73765	-0.054
Mof_H 	H 	0.6065	0.2413	0.7587	0.042
Mof_C 	C 	0.35264	0.73765	0.73765	-0.053
Mof_H 	H 	0.3935	0.7587	0.7587	0.049
Mof_C 	C 	0.64736	0.73765	0.26235	-0.054
Mof_H 	H 	0.6065	0.7587	0.2413	0.042
Mof_C 	C 	0.35264	0.26235	0.73765	-0.056
Mof_H 	H 	0.3935	0.2413	0.7587	0.04
Mof_C 	C 	0.64736	0.73765	0.73765	-0.051
Mof_H 	H 	0.6065	0.7587	0.7587	0.051
Mof_C 	C 	0.35264	0.73765	0.26235	-0.056
Mof_H 	H 	0.3935	0.7587	0.2413	0.04
Mof_C 	C 	0.64736	0.26235	0.26235	-0.057
Mof_H 	H 	0.6065	0.2413	0.2413	0.034
Mof_C 	C 	0.26235	0.26235	0.64736	-0.057
Mof_H 	H 	0.2413	0.2413	0.6065	0.034
Mof_C 	C 	0.73765	0.26235	0.35264	-0.056
Mof_H 	H 	0.7587	0.2413	0.3935	0.04
Mof_C 	C 	0.73765	0.73765	0.64736	-0.051
Mof_H 	H 	0.7587	0.7587	0.6065	0.051
Mof_C 	C 	0.26235	0.73765	0.35264	-0.056
Mof_H 	H 	0.2413	0.7587	0.3935	0.04
Mof_C 	C 	0.26235	0.35264	0.73765	-0.056
Mof_H 	H 	0.2413	0.3935	0.7587	0.04
Mof_C 	C 	0.26235	0.64736	0.26235	-0.057
Mof_H 	H 	0.2413	0.6065	0.2413	0.034
Mof_C 	C 	0.73765	0.35264	0.26235	-0.056
Mof_H 	H 	0.7587	0.3935	0.2413	0.04
Mof_C 	C 	0.73765	0.64736	0.73765	-0.051
Mof_H 	H 	0.7587	0.6065	0.7587	0.051
Mof_C 	C 	0.23188	0.32315	0.32315	-0.018
Mof_C 	C 	0.16761	0.35387	0.35387	0.09
Mof_C 	C 	0.76812	0.67685	0.32315	-0.004
Mof_C 	C 	0.83239	0.64613	0.35387	0.107
Mof_C 	C 	0.76812	0.32315	0.67685	-0.004
Mof_C 	C 	0.83239	0.35387	0.64613	0.107
Mof_C 	C 	0.23188	0.67685	0.67685	-0.007
Mof_C 	C 	0.16761	0.64613	0.64613	0.099
Mof_C 	C 	0.32315	0.23188	0.32315	-0.018
Mof_C 	C 	0.35387	0.16761	0.35387	0.09
Mof_C 	C 	0.32315	0.76812	0.67685	-0.004
Mof_C 	C 	0.35387	0.83239	0.64613	0.107
Mof_C 	C 	0.67685	0.76812	0.32315	-0.004
Mof_C 	C 	0.64613	0.83239	0.35387	0.107
Mof_C 	C 	0.67685	0.23188	0.67685	-0.007
Mof_C 	C 	0.64613	0.16761	0.64613	0.099
Mof_C 	C 	0.32315	0.32315	0.23188	-0.018
Mof_C 	C 	0.35387	0.35387	0.16761	0.09
Mof_C 	C 	0.67685	0.32315	0.76812	-0.004
Mof_C 	C 	0.64613	0.35387	0.83239	0.107
Mof_C 	C 	0.32315	0.67685	0.76812	-0.004
Mof_C 	C 	0.35387	0.64613	0.83239	0.107
Mof_C 	C 	0.67685	0.67685	0.23188	-0.007
Mof_C 	C 	0.64613	0.64613	0.16761	0.099
Mof_C 	C 	0.32315	0.23188	0.67685	-0.013
Mof_C 	C 	0.35387	0.16761	0.64613	0.095
Mof_C 	C 	0.67685	0.76812	0.67685	0.002
Mof_C 	C 	0.64613	0.83239	0.64613	0.111
Mof_C 	C 	0.32315	0.76812	0.32315	-0.01
Mof_C 	C 	0.35387	0.83239	0.35387	0.103
Mof_C 	C 	0.67685	0.23188	0.32315	-0.013
Mof_C 	C 	0.64613	0.16761	0.35387	0.095
Mof_C 	C 	0.23188	0.32315	0.67685	-0.013
Mof_C 	C 	0.16761	0.35387	0.64613	0.095
Mof_C 	C 	0.76812	0.32315	0.32315	-0.01
Mof_C 	C 	0.83239	0.35387	0.35387	0.103
Mof_C 	C 	0.76812	0.67685	0.67685	0.002
Mof_C 	C 	0.83239	0.64613	0.64613	0.111
Mof_C 	C 	0.23188	0.67685	0.32315	-0.013
Mof_C 	C 	0.16761	0.64613	0.35387	0.095
Mof_C 	C 	0.32315	0.32315	0.76812	-0.01
Mof_C 	C 	0.35387	0.35387	0.83239	0.103
Mof_C 	C 	0.32315	0.67685	0.23188	-0.013
Mof_C 	C 	0.35387	0.64613	0.16761	0.095
Mof_C 	C 	0.67685	0.32315	0.23188	-0.013
Mof_C 	C 	0.64613	0.35387	0.16761	0.095
Mof_C 	C 	0.67685	0.67685	0.76812	0.002
Mof_C 	C 	0.64613	0.64613	0.83239	0.111
_end
