# CIF file generated by openbabel 3.1.0, see https://openbabel.org
data_I
_chemical_name_common 'image0'
_cell_length_a 9.605
_cell_length_b 21.278
_cell_length_c 16.747
_cell_angle_alpha 90
_cell_angle_beta 91.464
_cell_angle_gamma 90
_space_group_name_H-M_alt 'P 1'
_space_group_name_Hall 'P 1'
loop_
    _symmetry_equiv_pos_as_xyz
    x,y,z
loop_
    _atom_site_label
    _atom_site_type_symbol
    _atom_site_fract_x
    _atom_site_fract_y
    _atom_site_fract_z
    _atom_site_occupancy
    U1       U        0.78101    0.24148    0.96260    1.000
    U2       U        0.70895    0.24190    0.51626    1.000
    U3       U        0.24392    0.13977    0.74296    1.000
    P1       P        0.53180    0.34370    0.05641    1.000
    P2       P        0.95750    0.34748    0.42830    1.000
    P3       P        0.50000    0.14147    0.57761    1.000
    P4       P        0.98970    0.13760    0.90717    1.000
    O1       O        0.64760    0.32420    0.00270    1.000
    O2       O        0.41930    0.29270    0.06370    1.000
    O3       O        0.58800    0.36050    0.13920    1.000
    O4       O        0.84130    0.32640    0.48130    1.000
    O5       O        0.06670    0.29600    0.41700    1.000
    O6       O        0.89980    0.36760    0.34720    1.000
    O7       O        0.65650    0.14730    0.58850    1.000
    O8       O        0.45950    0.19530    0.51990    1.000
    O9       O        0.42590    0.14680    0.65620    1.000
    O10      O        0.03130    0.19640    0.95520    1.000
    O11      O        0.83410    0.14540    0.89220    1.000
    O12      O        0.06770    0.13080    0.83040    1.000
    C1       C        0.44690    0.41300    0.01730    1.000
    H1       H        0.40560    0.40300    0.96540    1.000
    H2       H        0.37160    0.42400    0.05230    1.000
    C2       C        0.54040    0.47060    0.00830    1.000
    H3       H        0.59600    0.47610    0.05700    1.000
    H4       H        0.60360    0.46330    0.96500    1.000
    C3       C        0.04440    0.41380    0.47220    1.000
    H5       H        0.08850    0.40040    0.52210    1.000
    H6       H        0.11800    0.42650    0.43700    1.000
    C4       C        0.95600    0.47150    0.48930    1.000
    H7       H        0.89810    0.48110    0.44260    1.000
    H8       H        0.89500    0.46220    0.53300    1.000
    C5       C        0.02840    0.06950    0.96510    1.000
    C6       C        0.98500    0.01060    0.93220    1.000
    C7       C        0.45560    0.06790    0.53310    1.000
    C8       C        0.50700    0.01190    0.57580    1.000
    C9       C        0.52800    0.05570    0.46260    1.000
    C10      C        0.96600    0.05600    0.03390    1.000
    U4       U        0.71899    0.74148    0.53740    1.000
    U5       U        0.79105    0.74190    0.98374    1.000
    U6       U        0.25608    0.63977    0.75704    1.000
    P5       P        0.96820    0.84370    0.44359    1.000
    P6       P        0.54250    0.84748    0.07170    1.000
    P7       P        0.00000    0.64147    0.92239    1.000
    P8       P        0.51030    0.63760    0.59283    1.000
    O13      O        0.85240    0.82420    0.49730    1.000
    O14      O        0.08070    0.79270    0.43630    1.000
    O15      O        0.91200    0.86050    0.36080    1.000
    O16      O        0.65870    0.82640    0.01870    1.000
    O17      O        0.43330    0.79600    0.08300    1.000
    O18      O        0.60020    0.86760    0.15280    1.000
    O19      O        0.84350    0.64730    0.91150    1.000
    O20      O        0.04050    0.69530    0.98010    1.000
    O21      O        0.07410    0.64680    0.84380    1.000
    O22      O        0.46870    0.69640    0.54480    1.000
    O23      O        0.66590    0.64540    0.60780    1.000
    O24      O        0.43230    0.63080    0.66960    1.000
    C11      C        0.05310    0.91300    0.48270    1.000
    H9       H        0.09440    0.90300    0.53460    1.000
    H10      H        0.12840    0.92400    0.44770    1.000
    C12      C        0.95960    0.97060    0.49170    1.000
    H11      H        0.90400    0.97610    0.44300    1.000
    H12      H        0.89640    0.96330    0.53500    1.000
    C13      C        0.45560    0.91380    0.02780    1.000
    H13      H        0.41150    0.90040    0.97790    1.000
    H14      H        0.38200    0.92650    0.06300    1.000
    C14      C        0.54400    0.97150    0.01070    1.000
    H15      H        0.60190    0.98110    0.05740    1.000
    H16      H        0.60500    0.96220    0.96700    1.000
    C15      C        0.47160    0.56950    0.53490    1.000
    C16      C        0.51500    0.51060    0.56780    1.000
    C17      C        0.04440    0.56790    0.96690    1.000
    C18      C        0.99300    0.51190    0.92420    1.000
    C19      C        0.97200    0.55570    0.03740    1.000
    C20      C        0.53400    0.55600    0.46610    1.000
    U7       U        0.21899    0.75852    0.03740    1.000
    U8       U        0.29105    0.75810    0.48374    1.000
    U9       U        0.75608    0.86023    0.25704    1.000
    P9       P        0.46820    0.65630    0.94359    1.000
    P10      P        0.04250    0.65252    0.57170    1.000
    P11      P        0.50000    0.85853    0.42239    1.000
    P12      P        0.01030    0.86240    0.09283    1.000
    O25      O        0.35240    0.67580    0.99730    1.000
    O26      O        0.58070    0.70730    0.93630    1.000
    O27      O        0.41200    0.63950    0.86080    1.000
    O28      O        0.15870    0.67360    0.51870    1.000
    O29      O        0.93330    0.70400    0.58300    1.000
    O30      O        0.10020    0.63240    0.65280    1.000
    O31      O        0.34350    0.85270    0.41150    1.000
    O32      O        0.54050    0.80470    0.48010    1.000
    O33      O        0.57410    0.85320    0.34380    1.000
    O34      O        0.96870    0.80360    0.04480    1.000
    O35      O        0.16590    0.85460    0.10780    1.000
    O36      O        0.93230    0.86920    0.16960    1.000
    C21      C        0.55310    0.58700    0.98270    1.000
    H17      H        0.59440    0.59700    0.03460    1.000
    H18      H        0.62840    0.57600    0.94770    1.000
    C22      C        0.45960    0.52940    0.99170    1.000
    H19      H        0.40400    0.52390    0.94300    1.000
    H20      H        0.39640    0.53670    0.03500    1.000
    C23      C        0.95560    0.58620    0.52780    1.000
    H21      H        0.91150    0.59960    0.47790    1.000
    H22      H        0.88200    0.57350    0.56300    1.000
    C24      C        0.04400    0.52850    0.51070    1.000
    H23      H        0.10190    0.51890    0.55740    1.000
    H24      H        0.10500    0.53780    0.46700    1.000
    C25      C        0.97160    0.93050    0.03490    1.000
    C26      C        0.01500    0.98940    0.06780    1.000
    C27      C        0.54440    0.93210    0.46690    1.000
    C28      C        0.49300    0.98810    0.42420    1.000
    C29      C        0.47200    0.94430    0.53740    1.000
    C30      C        0.03400    0.94400    0.96610    1.000
    U10      U        0.28101    0.25852    0.46260    1.000
    U11      U        0.20895    0.25810    0.01626    1.000
    U12      U        0.74392    0.36023    0.24296    1.000
    P13      P        0.03180    0.15630    0.55641    1.000
    P14      P        0.45750    0.15252    0.92830    1.000
    P15      P        0.00000    0.35853    0.07761    1.000
    P16      P        0.48970    0.36240    0.40717    1.000
    O37      O        0.14760    0.17580    0.50270    1.000
    O38      O        0.91930    0.20730    0.56370    1.000
    O39      O        0.08800    0.13950    0.63920    1.000
    O40      O        0.34130    0.17360    0.98130    1.000
    O41      O        0.56670    0.20400    0.91700    1.000
    O42      O        0.39980    0.13240    0.84720    1.000
    O43      O        0.15650    0.35270    0.08850    1.000
    O44      O        0.95950    0.30470    0.01990    1.000
    O45      O        0.92590    0.35320    0.15620    1.000
    O46      O        0.53130    0.30360    0.45520    1.000
    O47      O        0.33410    0.35460    0.39220    1.000
    O48      O        0.56770    0.36920    0.33040    1.000
    C31      C        0.94690    0.08700    0.51730    1.000
    H25      H        0.90560    0.09700    0.46540    1.000
    H26      H        0.87160    0.07600    0.55230    1.000
    C32      C        0.04040    0.02940    0.50830    1.000
    H27      H        0.09600    0.02390    0.55700    1.000
    H28      H        0.10360    0.03670    0.46500    1.000
    C33      C        0.54440    0.08620    0.97220    1.000
    H29      H        0.58850    0.09960    0.02210    1.000
    H30      H        0.61800    0.07350    0.93700    1.000
    C34      C        0.45600    0.02850    0.98930    1.000
    H31      H        0.39810    0.01890    0.94260    1.000
    H32      H        0.39500    0.03780    0.03300    1.000
    C35      C        0.52840    0.43050    0.46510    1.000
    C36      C        0.48500    0.48940    0.43220    1.000
    C37      C        0.95560    0.43210    0.03310    1.000
    C38      C        0.00700    0.48810    0.07580    1.000
    C39      C        0.02800    0.44430    0.96260    1.000
    C40      C        0.46600    0.44400    0.53390    1.000
