data_functionalizedCrystal
_audit_creation_method	'EQeq! by Chris Wilmer'
_symmetry_space_group_name_H-M	'P1'
_symmetry_Int_Tables_number	1
_symmetry_cell_setting	triclinic
loop_
_symmetry_equiv_pos_as_xyz
  x,y,z
_cell_length_a	13.234
_cell_length_b	13.8249
_cell_length_c	22.7947
_cell_angle_alpha	107.643
_cell_angle_beta	106.875
_cell_angle_gamma	90
loop_
_atom_site_label
_atom_site_type_symbol
_atom_site_fract_x
_atom_site_fract_y
_atom_site_fract_z
_atom_site_charge
Mof_Cd	Cd	0.1516	0.5	-0	0.476
Mof_Cd	Cd	0.16582	0.2343	0.96696	0.495
Mof_Cd	Cd	0.19886	0.7657	0.03304	0.451
Mof_Cd	Cd	0.2074	0	-0	0.313
Mof_H 	H 	0.9237	0.9902	0.7684	0.061
Mof_H 	H 	0.1795	0.8696	0.8574	0.046
Mof_H 	H 	0.5381	0.4304	0.3644	0.098
Mof_H 	H 	0.1127	0.2678	0.6606	0.085
Mof_H 	H 	0.042	0.2657	0.2418	0.053
Mof_H 	H 	0.3057	0.2592	0.3956	0.052
Mof_H 	H 	0.6979	0.6056	0.6482	0.056
Mof_H 	H 	0.4323	0.753	0.2386	0.044
Mof_H 	H 	0.831	0.5174	0.884	0.056
Mof_H 	H 	0.348	0.7836	0.8978	0.049
Mof_H 	H 	0.2421	0.4835	0.8178	0.046
Mof_H 	H 	0.8376	0.5978	0.5136	0.055
Mof_H 	H 	0.1531	0.5748	0.164	0.046
Mof_H 	H 	0.9081	0.4461	0.7352	0.097
Mof_H 	H 	0.7522	0.3882	0.234	0.068
Mof_H 	H 	0.0497	0.3944	0.3518	0.075
Mof_H 	H 	0.3874	0.7812	0.8036	0.073
Mof_H 	H 	0.4243	0.5165	0.1822	0.043
Mof_H 	H 	0.4502	0.2164	0.1022	0.039
Mof_H 	H 	0.3127	0.4441	0.2884	0.059
Mof_H 	H 	0.1553	0.0098	0.2316	0.035
Mof_H 	H 	0.9511	0.7546	0.8472	0.052
Mof_H 	H 	0.5838	0.2188	0.1964	0.068
Mof_H 	H 	0.6801	0.4971	0.7952	0.064
Mof_H 	H 	0.3221	0.1304	0.1426	0.019
Mof_H 	H 	0.1815	0.1667	0.3134	0.07
Mof_H 	H 	0.9832	0.4177	0.4392	0.061
Mof_H 	H 	0.8681	0.8333	0.6866	0.053
Mof_H 	H 	0.1737	0.5696	0.6356	0.102
Mof_H 	H 	0.3493	0.7695	0.4282	0.102
Mof_H 	H 	0.324	0.4022	0.4864	0.063
Mof_H 	H 	0.9891	0.4252	0.836	0.01
Mof_H 	H 	0.8849	0.5029	0.2048	0.054
Mof_H 	H 	0.1729	0.5539	0.2648	0.073
Mof_H 	H 	0.0243	0.5559	0.7116	0.087
Mof_H 	H 	0.947	0.4826	0.116	0.058
Mof_H 	H 	0.544	0.5823	0.5608	0.071
Mof_H 	H 	0.1039	0.2454	0.1528	0.06
Mof_H 	H 	0.1238	0.7127	0.7756	0.054
Mof_H 	H 	0.8002	0.7343	0.7582	0.063
Mof_H 	H 	0.9101	0.7408	0.6044	0.062
Mof_H 	H 	0.9211	0.2305	0.5718	0.088
Mof_H 	H 	0.5182	0.6118	0.766	0.066
Mof_H 	H 	0.3482	0.2873	0.2244	0.073
Mof_H 	H 	0.1937	0.247	0.7614	0.031
Mof_H 	H 	0.4521	0.7322	0.3394	0.069
Mof_H 	H 	0.5578	0.5188	0.2762	0.067
Mof_H 	H 	0.2816	0.4812	0.7238	0.067
Mof_C 	C 	0.2908	0.6659	0.1918	-0.078
Mof_C 	C 	0.1163	0.8622	0.8228	-0.017
Mof_C 	C 	0.9661	0.4057	0.7406	-0.182
Mof_C 	C 	0.9576	0.3862	0.2316	-0.002
Mof_C 	C 	0.7596	0.408	0.3276	0.007
Mof_C 	C 	0.7352	0.5494	0.8058	-0.074
Mof_C 	C 	0.5387	0.5883	0.6024	-0.055
Mof_C 	C 	0.799	0.3942	0.2756	-0.088
Mof_C 	C 	0.3442	0.7029	0.4316	-0.141
Mof_C 	C 	0.9186	0.6742	0.6078	-0.074
Mof_C 	C 	0.9758	0.3979	0.3456	-0.082
Mof_C 	C 	0.3914	0.7002	0.3038	-0.095
Mof_C 	C 	0.3291	0.5081	0.4412	0.037
Mof_C 	C 	0.0595	0.2977	0.1634	-0.028
Mof_C 	C 	0.4247	0.3662	0.1334	-0.073
Mof_C 	C 	0.9983	0.6627	0.9364	0.221
Mof_C 	C 	0.432	0.592	0.6724	-0.002
Mof_C 	C 	0.0226	0.3097	0.2162	-0.042
Mof_C 	C 	0.7886	0.4306	0.4404	-0.05
Mof_C 	C 	0.8448	0.4069	0.5048	-0.028
Mof_C 	C 	0.8961	0.7023	0.8366	-0.009
Mof_C 	C 	0.4721	0.2778	0.1376	0.013
Mof_C 	C 	0.3217	0.4107	0.4462	-0.053
Mof_C 	C 	0.3475	0.6905	0.4902	0.174
Mof_C 	C 	0.5514	0.2792	0.1934	-0.093
Mof_C 	C 	0.2126	0.9549	0.125	0.305
Mof_C 	C 	0.3345	0.7222	0.8624	0.01
Mof_C 	C 	0.9072	0.3891	0.2846	0.04
Mof_C 	C 	0.1945	0.0661	0.2302	0.034
Mof_C 	C 	0.3382	0.631	0.7548	0.038
Mof_C 	C 	0.5234	0.6058	0.7244	-0.073
Mof_C 	C 	0.2673	0.2418	0.2766	0.053
Mof_C 	C 	0.9643	0.9339	0.7698	-0.033
Mof_C 	C 	0.2138	0.6067	0.1996	0.023
Mof_C 	C 	0.1358	0.2874	0.7562	0.056
Mof_C 	C 	0.2414	0.5731	0.6294	-0.158
Mof_C 	C 	0.9363	0.4117	0.3976	-0.036
Mof_C 	C 	0.2255	0.5943	0.2594	-0.096
Mof_C 	C 	0.4566	0.456	0.185	0.009
Mof_C 	C 	0.0619	0.3373	0.0636	0.242
Mof_C 	C 	0.9294	0.4506	0.1942	-0.052
Mof_C 	C 	0.099	0.3341	0.8082	-0.118
Mof_C 	C 	0.2716	0.544	0.815	0.007
Mof_C 	C 	0.3448	0.3693	0.0714	0.272
Mof_C 	C 	0.6302	0.6021	0.6544	-0.046
Mof_C 	C 	0.726	0.6138	0.7684	0.031
Mof_C 	C 	0.612	0.4269	0.3706	-0.156
Mof_C 	C 	0.3482	0.5694	0.5596	-0.051
Mof_C 	C 	0.21	0.1593	0.2788	-0.108
Mof_C 	C 	0.8282	0.4168	0.3886	0.03
Mof_C 	C 	0.1436	0.3079	0.8704	0.323
Mof_C 	C 	0.2732	0.6921	0.1296	0.311
Mof_C 	C 	0.3334	0.618	0.3776	0.022
Mof_C 	C 	0.0832	0.769	0.7742	-0.044
Mof_C 	C 	0.9312	0.8407	0.7212	-0.054
Mof_C 	C 	0.5834	0.369	0.2452	0.039
Mof_C 	C 	0.2362	0.0553	0.1794	-0.106
Mof_C 	C 	0.9741	0.6618	0.6666	0.048
Mof_C 	C 	0.0568	0.9447	0.8206	-0.028
Mof_C 	C 	0.9663	0.4386	0.1416	-0.041
Mof_C 	C 	0.8064	0.6903	0.7838	-0.074
Mof_C 	C 	0.3258	0.5206	0.3824	-0.001
Mof_C 	C 	0.536	0.4574	0.241	-0.093
Mof_C 	C 	0.8755	0.5893	0.5538	-0.03
Mof_C 	C 	0.9434	0.4794	0.6176	0.035
Mof_C 	C 	0.34	0.5931	0.4952	-0.038
Mof_C 	C 	0.295	0.5426	0.759	-0.089
Mof_C 	C 	0.2935	0.1378	0.1772	0.037
Mof_C 	C 	0.6515	0.4131	0.3186	0.025
Mof_C 	C 	0.9558	0.382	0.6224	-0.021
Mof_C 	C 	0.4396	0.5832	0.6114	0.04
Mof_C 	C 	0.8573	0.3095	0.5098	0.161
Mof_C 	C 	0.309	0.231	0.2258	-0.109
Mof_C 	C 	0.0142	0.3933	0.8004	0.105
Mof_C 	C 	0.2491	0.5643	0.5686	0.181
Mof_C 	C 	0.9126	0.2971	0.5684	-0.119
Mof_C 	C 	0.8247	0.5614	0.8584	-0.011
Mof_C 	C 	0.0313	0.3621	0.126	-0.016
Mof_C 	C 	0.3796	0.7126	0.2438	0.018
Mof_C 	C 	0.9907	0.7582	0.7234	-0.005
Mof_C 	C 	0.0029	0.3589	0.6886	0.109
Mof_C 	C 	0.3075	0.3382	0.3334	0.01
Mof_C 	C 	0.8879	0.4919	0.5588	0.013
Mof_C 	C 	0.315	0.4356	0.3286	-0.075
Mof_C 	C 	0.6805	0.4357	0.4314	0.179
Mof_C 	C 	0.2734	0.6307	0.9286	0.269
Mof_C 	C 	0.9053	0.6379	0.874	-0.034
Mof_C 	C 	0.3143	0.6411	0.3114	0.046
Mof_C 	C 	0.0876	0.2998	0.6962	-0.139
Mof_C 	C 	0.9864	0.5644	0.6714	-0.131
Mof_C 	C 	0.2913	0.6338	0.8666	-0.064
Mof_C 	C 	0.6226	0.6109	0.7154	0.021
Mof_C 	C 	0.0876	0.0451	0.875	0.264
Mof_C 	C 	0.3329	0.5869	0.6814	0.03
Mof_C 	C 	0.3108	0.3258	0.3922	-0.045
Mof_C 	C 	0.358	0.7208	0.8066	-0.088
Mof_O 	O 	0.1063	0.3475	0.9152	-0.29
Mof_O 	O 	0.3067	0.7191	0.9722	-0.245
Mof_O 	O 	0.3345	0.2809	0.0278	-0.276
Mof_O 	O 	0.1484	0.8822	0.1198	-0.248
Mof_O 	O 	0.0208	0.5868	0.9596	-0.226
Mof_O 	O 	0.0612	0.4132	0.0404	-0.261
Mof_O 	O 	0.0261	0.7598	0.9488	-0.226
Mof_O 	O 	0.6494	0.433	0.4808	-0.199
Mof_O 	O 	0.3306	0.7618	0.125	-0.248
Mof_O 	O 	0.8431	0.2189	0.4646	-0.189
Mof_O 	O 	0.3785	0.7811	0.5354	-0.184
Mof_O 	O 	0.0773	0.2402	0.0512	-0.264
Mof_O 	O 	0.2621	0.9351	0.083	-0.297
Mof_O 	O 	0.1791	0.0649	0.917	-0.283
Mof_O 	O 	0.2056	0.2382	0.875	-0.247
Mof_O 	O 	0.3031	0.4495	0.0606	-0.263
Mof_O 	O 	0.2425	0.5505	0.9394	-0.243
Mof_O 	O 	0.1686	0.567	0.5192	-0.194
Mof_O 	O 	0.1911	0.6525	0.0848	-0.299
Mof_O 	O 	0.0286	0.1178	0.8802	-0.236
_end
