# CIF file generated by openbabel 3.1.0, see https://openbabel.org
data_I
_chemical_name_common 'image0'
_cell_length_a 11.3594
_cell_length_b 9.8177
_cell_length_c 18.3724
_cell_angle_alpha 90
_cell_angle_beta 126.931
_cell_angle_gamma 90
_space_group_name_H-M_alt 'P 1'
_space_group_name_Hall 'P 1'
loop_
    _symmetry_equiv_pos_as_xyz
    x,y,z
loop_
    _atom_site_label
    _atom_site_type_symbol
    _atom_site_fract_x
    _atom_site_fract_y
    _atom_site_fract_z
    _atom_site_occupancy
    Fe1      Fe       0.37769    0.08495    0.13311    1.000
    Fe2      Fe       0.42585    0.10227    0.68692    1.000
    O1       O        0.43470    0.20720    0.24557    1.000
    O2       O        0.55070    0.07030    0.36766    1.000
    O3       O        0.59210    0.00320    0.22000    1.000
    O4       O        0.67940    0.00300    0.13866    1.000
    O5       O        0.45440    0.26300    0.10685    1.000
    O6       O        0.48130    0.21120    0.99907    1.000
    O7       O        0.34610    0.92130    0.19641    1.000
    O8       O        0.10220    0.89850    0.12094    1.000
    O9       O        0.33730    0.97540    0.02366    1.000
    O10      O        0.11490    0.89020    0.96761    1.000
    O11      O        0.15890    0.15780    0.05939    1.000
    O12      O        0.19960    0.38170    0.09078    1.000
    C1       C        0.49490    0.17980    0.32880    1.000
    H1       H        0.49700    0.25090    0.36460    1.000
    C2       C        0.69520    0.99110    0.21130    1.000
    H2       H        0.79130    0.97140    0.26460    1.000
    C3       C        0.47310    0.29290    0.04680    1.000
    H3       H        0.48140    0.38680    0.03810    1.000
    C4       C        0.23260    0.87430    0.18640    1.000
    H4       H        0.24870    0.81570    0.23270    1.000
    C5       C        0.22510    0.89760    0.97010    1.000
    H5       H        0.22830    0.84130    0.92930    1.000
    C6       C        0.11680    0.28310    0.04950    1.000
    H6       H        0.01440    0.30110    0.00730    1.000
    Fe3      Fe       0.62231    0.58495    0.36689    1.000
    Fe4      Fe       0.57415    0.60227    0.81308    1.000
    O13      O        0.56530    0.70720    0.25443    1.000
    O14      O        0.44930    0.57030    0.13234    1.000
    O15      O        0.40790    0.50320    0.28000    1.000
    O16      O        0.32060    0.50300    0.36134    1.000
    O17      O        0.54560    0.76300    0.39315    1.000
    O18      O        0.51870    0.71120    0.50093    1.000
    O19      O        0.65390    0.42130    0.30359    1.000
    O20      O        0.89780    0.39850    0.37906    1.000
    O21      O        0.66270    0.47540    0.47634    1.000
    O22      O        0.88510    0.39020    0.53239    1.000
    O23      O        0.84110    0.65780    0.44061    1.000
    O24      O        0.80040    0.88170    0.40922    1.000
    C7       C        0.50510    0.67980    0.17120    1.000
    H7       H        0.50300    0.75090    0.13540    1.000
    C8       C        0.30480    0.49110    0.28870    1.000
    H8       H        0.20870    0.47140    0.23540    1.000
    C9       C        0.52690    0.79290    0.45320    1.000
    H9       H        0.51860    0.88680    0.46190    1.000
    C10      C        0.76740    0.37430    0.31360    1.000
    H10      H        0.75130    0.31570    0.26730    1.000
    C11      C        0.77490    0.39760    0.52990    1.000
    H11      H        0.77170    0.34130    0.57070    1.000
    C12      C        0.88320    0.78310    0.45050    1.000
    H12      H        0.98560    0.80110    0.49270    1.000
    Fe5      Fe       0.62231    0.91505    0.86689    1.000
    Fe6      Fe       0.57415    0.89773    0.31308    1.000
    O25      O        0.56530    0.79280    0.75443    1.000
    O26      O        0.44930    0.92970    0.63234    1.000
    O27      O        0.40790    0.99680    0.78000    1.000
    O28      O        0.32060    0.99700    0.86134    1.000
    O29      O        0.54560    0.73700    0.89315    1.000
    O30      O        0.51870    0.78880    0.00093    1.000
    O31      O        0.65390    0.07870    0.80359    1.000
    O32      O        0.89780    0.10150    0.87906    1.000
    O33      O        0.66270    0.02460    0.97634    1.000
    O34      O        0.88510    0.10980    0.03239    1.000
    O35      O        0.84110    0.84220    0.94061    1.000
    O36      O        0.80040    0.61830    0.90922    1.000
    C13      C        0.50510    0.82020    0.67120    1.000
    H13      H        0.50300    0.74910    0.63540    1.000
    C14      C        0.30480    0.00890    0.78870    1.000
    H14      H        0.20870    0.02860    0.73540    1.000
    C15      C        0.52690    0.70710    0.95320    1.000
    H15      H        0.51860    0.61320    0.96190    1.000
    C16      C        0.76740    0.12570    0.81360    1.000
    H16      H        0.75130    0.18430    0.76730    1.000
    C17      C        0.77490    0.10240    0.02990    1.000
    H17      H        0.77170    0.15870    0.07070    1.000
    C18      C        0.88320    0.71690    0.95050    1.000
    H18      H        0.98560    0.69890    0.99270    1.000
    Fe7      Fe       0.37769    0.41505    0.63311    1.000
    Fe8      Fe       0.42585    0.39773    0.18692    1.000
    O37      O        0.43470    0.29280    0.74557    1.000
    O38      O        0.55070    0.42970    0.86766    1.000
    O39      O        0.59210    0.49680    0.72000    1.000
    O40      O        0.67940    0.49700    0.63866    1.000
    O41      O        0.45440    0.23700    0.60685    1.000
    O42      O        0.48130    0.28880    0.49907    1.000
    O43      O        0.34610    0.57870    0.69641    1.000
    O44      O        0.10220    0.60150    0.62094    1.000
    O45      O        0.33730    0.52460    0.52366    1.000
    O46      O        0.11490    0.60980    0.46761    1.000
    O47      O        0.15890    0.34220    0.55939    1.000
    O48      O        0.19960    0.11830    0.59078    1.000
    C19      C        0.49490    0.32020    0.82880    1.000
    H19      H        0.49700    0.24910    0.86460    1.000
    C20      C        0.69520    0.50890    0.71130    1.000
    H20      H        0.79130    0.52860    0.76460    1.000
    C21      C        0.47310    0.20710    0.54680    1.000
    H21      H        0.48140    0.11320    0.53810    1.000
    C22      C        0.23260    0.62570    0.68640    1.000
    H22      H        0.24870    0.68430    0.73270    1.000
    C23      C        0.22510    0.60240    0.47010    1.000
    H23      H        0.22830    0.65870    0.42930    1.000
    C24      C        0.11680    0.21690    0.54950    1.000
    H24      H        0.01440    0.19890    0.50730    1.000
    Fe9      Fe       0.50000    0.00000    0.00000    1.000
    Fe10     Fe       0.50000    0.50000    0.50000    1.000
    Fe11     Fe       0.00000    0.00000    0.00000    1.000
    Fe12     Fe       0.00000    0.50000    0.50000    1.000
