# CIF file generated by openbabel 3.1.0, see https://openbabel.org
data_I
_chemical_name_common 'MEKDUC_clean'
_cell_length_a 10.9825
_cell_length_b 11.6012
_cell_length_c 16.8578
_cell_angle_alpha 90
_cell_angle_beta 90
_cell_angle_gamma 94.758
_space_group_name_H-M_alt 'P 1'
_space_group_name_Hall 'P 1'
loop_
    _symmetry_equiv_pos_as_xyz
    x,y,z
loop_
    _atom_site_label
    _atom_site_type_symbol
    _atom_site_fract_x
    _atom_site_fract_y
    _atom_site_fract_z
    _atom_site_occupancy
    Cd1      Cd       0.83751    0.75514    0.74592    1.000
    Cd2      Cd       0.66249    0.24486    0.24592    1.000
    Cd3      Cd       0.16249    0.24486    0.25408    1.000
    Cd4      Cd       0.33751    0.75514    0.75408    1.000
    H1       H        0.24840    0.03780    0.15630    1.000
    H2       H        0.26050    0.94850    0.03570    1.000
    H3       H        0.04910    0.18100    0.94550    1.000
    H4       H        0.05240    0.26910    0.06730    1.000
    H5       H        0.01190    0.23370    0.42630    1.000
    H6       H        0.99720    0.32910    0.54500    1.000
    H7       H        0.29730    0.52820    0.48530    1.000
    H8       H        0.30200    0.42840    0.36870    1.000
    H9       H        0.25160    0.96220    0.65630    1.000
    H10      H        0.23950    0.05150    0.53570    1.000
    H11      H        0.45090    0.81900    0.44550    1.000
    H12      H        0.44760    0.73090    0.56730    1.000
    H13      H        0.48810    0.76630    0.92630    1.000
    H14      H        0.50280    0.67090    0.04500    1.000
    H15      H        0.20270    0.47180    0.98530    1.000
    H16      H        0.19800    0.57160    0.86870    1.000
    H17      H        0.75160    0.96220    0.84370    1.000
    H18      H        0.73950    0.05150    0.96430    1.000
    H19      H        0.95090    0.81900    0.05450    1.000
    H20      H        0.94760    0.73090    0.93270    1.000
    H21      H        0.98810    0.76630    0.57370    1.000
    H22      H        0.00280    0.67090    0.45500    1.000
    H23      H        0.70270    0.47180    0.51470    1.000
    H24      H        0.69800    0.57160    0.63130    1.000
    H25      H        0.74840    0.03780    0.34370    1.000
    H26      H        0.76050    0.94850    0.46430    1.000
    H27      H        0.54910    0.18100    0.55450    1.000
    H28      H        0.55240    0.26910    0.43270    1.000
    H29      H        0.51190    0.23370    0.07370    1.000
    H30      H        0.49720    0.32910    0.95500    1.000
    H31      H        0.79730    0.52820    0.01470    1.000
    H32      H        0.80200    0.42840    0.13130    1.000
    C1       C        0.21010    0.06840    0.11280    1.000
    C2       C        0.21610    0.01290    0.04094    1.000
    C3       C        0.15530    0.05440    0.97677    1.000
    C4       C        0.09210    0.15130    0.98728    1.000
    C5       C        0.09400    0.20310    0.06088    1.000
    C6       C        0.15670    0.99150    0.90168    1.000
    C7       C        0.09700    0.92980    0.78651    1.000
    C8       C        0.06980    0.29440    0.43830    1.000
    C9       C        0.06000    0.35140    0.50984    1.000
    C10      C        0.14460    0.44150    0.52818    1.000
    C11      C        0.23720    0.46910    0.47440    1.000
    C12      C        0.23960    0.40810    0.40460    1.000
    C13      C        0.14080    0.50880    0.60131    1.000
    C14      C        0.07180    0.57250    0.71098    1.000
    C15      C        0.28990    0.93160    0.61280    1.000
    C16      C        0.28390    0.98710    0.54094    1.000
    C17      C        0.34470    0.94560    0.47677    1.000
    C18      C        0.40790    0.84870    0.48728    1.000
    C19      C        0.40600    0.79690    0.56088    1.000
    C20      C        0.34330    0.00850    0.40168    1.000
    C21      C        0.40300    0.07020    0.28651    1.000
    C22      C        0.43020    0.70560    0.93830    1.000
    C23      C        0.44000    0.64860    0.00984    1.000
    C24      C        0.35540    0.55850    0.02818    1.000
    C25      C        0.26280    0.53090    0.97440    1.000
    C26      C        0.26040    0.59190    0.90460    1.000
    C27      C        0.35920    0.49120    0.10131    1.000
    C28      C        0.42820    0.42750    0.21098    1.000
    C29      C        0.78990    0.93160    0.88720    1.000
    C30      C        0.78390    0.98710    0.95906    1.000
    C31      C        0.84470    0.94560    0.02323    1.000
    C32      C        0.90790    0.84870    0.01272    1.000
    C33      C        0.90600    0.79690    0.93912    1.000
    C34      C        0.84330    0.00850    0.09832    1.000
    C35      C        0.90300    0.07020    0.21349    1.000
    C36      C        0.93020    0.70560    0.56170    1.000
    C37      C        0.94000    0.64860    0.49016    1.000
    C38      C        0.85540    0.55850    0.47182    1.000
    C39      C        0.76280    0.53090    0.52560    1.000
    C40      C        0.76040    0.59190    0.59540    1.000
    C41      C        0.85920    0.49120    0.39869    1.000
    C42      C        0.92820    0.42750    0.28902    1.000
    C43      C        0.71010    0.06840    0.38720    1.000
    C44      C        0.71610    0.01290    0.45906    1.000
    C45      C        0.65530    0.05440    0.52323    1.000
    C46      C        0.59210    0.15130    0.51272    1.000
    C47      C        0.59400    0.20310    0.43912    1.000
    C48      C        0.65670    0.99150    0.59832    1.000
    C49      C        0.59700    0.92980    0.71349    1.000
    C50      C        0.56980    0.29440    0.06170    1.000
    C51      C        0.56000    0.35140    0.99016    1.000
    C52      C        0.64460    0.44150    0.97182    1.000
    C53      C        0.73720    0.46910    0.02560    1.000
    C54      C        0.73960    0.40810    0.09540    1.000
    C55      C        0.64080    0.50880    0.89869    1.000
    C56      C        0.57180    0.57250    0.78902    1.000
    S1       S        0.00862    0.91892    0.70375    1.000
    S2       S        0.97381    0.58048    0.78834    1.000
    S3       S        0.49138    0.08108    0.20375    1.000
    S4       S        0.52619    0.41952    0.28834    1.000
    S5       S        0.99138    0.08108    0.29625    1.000
    S6       S        0.02619    0.41952    0.21166    1.000
    S7       S        0.50862    0.91892    0.79625    1.000
    S8       S        0.47381    0.58048    0.71166    1.000
    N1       N        0.15220    0.16370    0.12331    1.000
    N2       N        0.22970    0.91510    0.88245    1.000
    N3       N        0.19170    0.87530    0.80722    1.000
    N4       N        0.15800    0.32210    0.38564    1.000
    N5       N        0.22220    0.58610    0.62531    1.000
    N6       N        0.17870    0.62740    0.69701    1.000
    N7       N        0.34780    0.83630    0.62331    1.000
    N8       N        0.27030    0.08490    0.38245    1.000
    N9       N        0.30830    0.12470    0.30722    1.000
    N10      N        0.34200    0.67790    0.88564    1.000
    N11      N        0.27780    0.41390    0.12531    1.000
    N12      N        0.32130    0.37260    0.19701    1.000
    N13      N        0.84780    0.83630    0.87669    1.000
    N14      N        0.77030    0.08490    0.11755    1.000
    N15      N        0.80830    0.12470    0.19278    1.000
    N16      N        0.84200    0.67790    0.61436    1.000
    N17      N        0.77780    0.41390    0.37469    1.000
    N18      N        0.82130    0.37260    0.30299    1.000
    N19      N        0.65220    0.16370    0.37669    1.000
    N20      N        0.72970    0.91510    0.61755    1.000
    N21      N        0.69170    0.87530    0.69278    1.000
    N22      N        0.65800    0.32210    0.11436    1.000
    N23      N        0.72220    0.58610    0.87469    1.000
    N24      N        0.67870    0.62740    0.80299    1.000
    O1       O        0.07173    0.00787    0.84508    1.000
    O2       O        0.04341    0.49406    0.65078    1.000
    O3       O        0.42827    0.99213    0.34508    1.000
    O4       O        0.45659    0.50594    0.15078    1.000
    O5       O        0.92827    0.99213    0.15492    1.000
    O6       O        0.95659    0.50594    0.34922    1.000
    O7       O        0.57173    0.00787    0.65492    1.000
    O8       O        0.54341    0.49406    0.84922    1.000
