data_functionalizedCrystal
_audit_creation_method	'EQeq! by Chris Wilmer'
_symmetry_space_group_name_H-M	'P1'
_symmetry_Int_Tables_number	1
_symmetry_cell_setting	triclinic
loop_
_symmetry_equiv_pos_as_xyz
  x,y,z
_cell_length_a	19.576
_cell_length_b	18.535
_cell_length_c	7.8377
_cell_angle_alpha	90
_cell_angle_beta	94.15
_cell_angle_gamma	90
loop_
_atom_site_label
_atom_site_type_symbol
_atom_site_fract_x
_atom_site_fract_y
_atom_site_fract_z
_atom_site_charge
Mof_Zn	Zn	0.3584	0.14483	0.3567	1.206
Mof_Zn	Zn	0.0859	0.97672	0.3657	1.143
Mof_C 	C 	0.9848	0.3217	0.971	0.272
Mof_C 	C 	0.0471	0.2788	0.029	-0.04
Mof_C 	C 	0.0455	0.212	0.076	0.002
Mof_H 	H 	0.0034	0.1888	0.0608	0.033
Mof_C 	C 	0.102	0.1692	0.149	-0.143
Mof_C 	C 	0.0906	0.095	0.217	0.445
Mof_C 	C 	0.1606	0.2056	0.157	-0.035
Mof_C 	C 	0.2277	0.1631	0.219	0.345
Mof_C 	C 	0.1681	0.2802	0.116	-0.014
Mof_H 	H 	0.2105	0.3028	0.1336	0.032
Mof_C 	C 	0.1125	0.3174	0.053	-0.105
Mof_C 	C 	0.1226	0.3966	0.003	0.407
Mof_O 	O 	0.9344	0.2821	0.9245	-0.425
Mof_O 	O 	0.982	0.3905	0.9798	-0.271
Mof_O 	O 	0.1176	0.4117	0.8465	-0.438
Mof_O 	O 	0.1319	0.439	0.1107	-0.303
Mof_O 	O 	0.0776	0.0441	0.1063	-0.692
Mof_O 	O 	0.0895	0.0887	0.363	-0.545
Mof_O 	O 	0.2271	0.1043	0.2035	-0.4
Mof_O 	O 	0.2811	0.2049	0.2816	-0.464
Mof_Zn	Zn	0.8584	0.64483	0.3567	1.205
Mof_Zn	Zn	0.5859	0.47672	0.3657	1.142
Mof_C 	C 	0.4848	0.8217	0.971	0.276
Mof_C 	C 	0.5471	0.7788	0.029	-0.048
Mof_C 	C 	0.5455	0.712	0.076	0.005
Mof_H 	H 	0.5034	0.6888	0.0608	0.029
Mof_C 	C 	0.602	0.6692	0.149	-0.145
Mof_C 	C 	0.5906	0.595	0.217	0.446
Mof_C 	C 	0.6606	0.7056	0.157	-0.034
Mof_C 	C 	0.7277	0.6631	0.219	0.345
Mof_C 	C 	0.6681	0.7802	0.116	-0.016
Mof_H 	H 	0.7105	0.8028	0.1336	0.032
Mof_C 	C 	0.6125	0.8174	0.053	-0.102
Mof_C 	C 	0.6226	0.8966	0.003	0.4
Mof_O 	O 	0.4344	0.7821	0.9245	-0.424
Mof_O 	O 	0.482	0.8905	0.9798	-0.271
Mof_O 	O 	0.6176	0.9117	0.8465	-0.433
Mof_O 	O 	0.6319	0.939	0.1107	-0.303
Mof_O 	O 	0.5776	0.5441	0.1063	-0.694
Mof_O 	O 	0.5895	0.5887	0.363	-0.546
Mof_O 	O 	0.7271	0.6043	0.2035	-0.401
Mof_O 	O 	0.7811	0.7049	0.2816	-0.464
Mof_Zn	Zn	0.6416	0.14483	0.1433	1.205
Mof_Zn	Zn	0.9141	0.97672	0.1343	1.14
Mof_C 	C 	0.0152	0.3217	0.529	0.273
Mof_C 	C 	0.9529	0.2788	0.471	-0.044
Mof_C 	C 	0.9545	0.212	0.424	0.002
Mof_H 	H 	0.9966	0.1888	0.4392	0.03
Mof_C 	C 	0.898	0.1692	0.351	-0.144
Mof_C 	C 	0.9094	0.095	0.283	0.445
Mof_C 	C 	0.8394	0.2056	0.343	-0.034
Mof_C 	C 	0.7723	0.1631	0.281	0.345
Mof_C 	C 	0.8319	0.2802	0.384	-0.015
Mof_H 	H 	0.7895	0.3028	0.3664	0.032
Mof_C 	C 	0.8875	0.3174	0.447	-0.104
Mof_C 	C 	0.8774	0.3966	0.497	0.406
Mof_O 	O 	0.0656	0.2821	0.5755	-0.425
Mof_O 	O 	0.018	0.3905	0.5202	-0.272
Mof_O 	O 	0.8824	0.4117	0.6535	-0.437
Mof_O 	O 	0.8681	0.439	0.3893	-0.303
Mof_O 	O 	0.9224	0.0441	0.3937	-0.693
Mof_O 	O 	0.9105	0.0887	0.137	-0.545
Mof_O 	O 	0.7729	0.1043	0.2965	-0.4
Mof_O 	O 	0.7189	0.2049	0.2184	-0.464
Mof_Zn	Zn	0.1416	0.64483	0.1433	1.205
Mof_Zn	Zn	0.4141	0.47672	0.1343	1.142
Mof_C 	C 	0.5152	0.8217	0.529	0.273
Mof_C 	C 	0.4529	0.7788	0.471	-0.044
Mof_C 	C 	0.4545	0.712	0.424	0.002
Mof_H 	H 	0.4966	0.6888	0.4392	0.031
Mof_C 	C 	0.398	0.6692	0.351	-0.144
Mof_C 	C 	0.4094	0.595	0.283	0.445
Mof_C 	C 	0.3394	0.7056	0.343	-0.035
Mof_C 	C 	0.2723	0.6631	0.281	0.345
Mof_C 	C 	0.3319	0.7802	0.384	-0.015
Mof_H 	H 	0.2895	0.8028	0.3664	0.032
Mof_C 	C 	0.3875	0.8174	0.447	-0.104
Mof_C 	C 	0.3774	0.8966	0.497	0.406
Mof_O 	O 	0.5656	0.7821	0.5755	-0.424
Mof_O 	O 	0.518	0.8905	0.5202	-0.272
Mof_O 	O 	0.3824	0.9117	0.6535	-0.437
Mof_O 	O 	0.3681	0.939	0.3893	-0.304
Mof_O 	O 	0.4224	0.5441	0.3937	-0.694
Mof_O 	O 	0.4105	0.5887	0.137	-0.546
Mof_O 	O 	0.2729	0.6043	0.2965	-0.401
Mof_O 	O 	0.2189	0.7049	0.2184	-0.465
Mof_Zn	Zn	0.6416	0.85517	0.6433	1.205
Mof_Zn	Zn	0.9141	0.02328	0.6343	1.142
Mof_C 	C 	0.0152	0.6783	0.029	0.271
Mof_C 	C 	0.9529	0.7212	0.971	-0.041
Mof_C 	C 	0.9545	0.788	0.924	0.001
Mof_H 	H 	0.9966	0.8112	0.9392	0.032
Mof_C 	C 	0.898	0.8308	0.851	-0.143
Mof_C 	C 	0.9094	0.905	0.783	0.445
Mof_C 	C 	0.8394	0.7944	0.843	-0.035
Mof_C 	C 	0.7723	0.8369	0.781	0.345
Mof_C 	C 	0.8319	0.7198	0.884	-0.014
Mof_H 	H 	0.7895	0.6972	0.8664	0.032
Mof_C 	C 	0.8875	0.6826	0.947	-0.105
Mof_C 	C 	0.8774	0.6034	0.997	0.407
Mof_O 	O 	0.0656	0.7179	0.0755	-0.425
Mof_O 	O 	0.018	0.6095	0.0202	-0.271
Mof_O 	O 	0.8824	0.5883	0.1535	-0.438
Mof_O 	O 	0.8681	0.561	0.8893	-0.303
Mof_O 	O 	0.9224	0.9559	0.8937	-0.692
Mof_O 	O 	0.9105	0.9113	0.637	-0.545
Mof_O 	O 	0.7729	0.8957	0.7965	-0.4
Mof_O 	O 	0.7189	0.7951	0.7184	-0.464
Mof_Zn	Zn	0.1416	0.35517	0.6433	1.205
Mof_Zn	Zn	0.4141	0.52328	0.6343	1.142
Mof_C 	C 	0.5152	0.1783	0.029	0.276
Mof_C 	C 	0.4529	0.2212	0.971	-0.048
Mof_C 	C 	0.4545	0.288	0.924	0.005
Mof_H 	H 	0.4966	0.3112	0.9392	0.029
Mof_C 	C 	0.398	0.3308	0.851	-0.145
Mof_C 	C 	0.4094	0.405	0.783	0.446
Mof_C 	C 	0.3394	0.2944	0.843	-0.034
Mof_C 	C 	0.2723	0.3369	0.781	0.345
Mof_C 	C 	0.3319	0.2198	0.884	-0.016
Mof_H 	H 	0.2895	0.1972	0.8664	0.032
Mof_C 	C 	0.3875	0.1826	0.947	-0.102
Mof_C 	C 	0.3774	0.1034	0.997	0.4
Mof_O 	O 	0.5656	0.2179	0.0755	-0.424
Mof_O 	O 	0.518	0.1095	0.0202	-0.271
Mof_O 	O 	0.3824	0.0883	0.1535	-0.433
Mof_O 	O 	0.3681	0.061	0.8893	-0.303
Mof_O 	O 	0.4224	0.4559	0.8937	-0.694
Mof_O 	O 	0.4105	0.4113	0.637	-0.546
Mof_O 	O 	0.2729	0.3957	0.7965	-0.401
Mof_O 	O 	0.2189	0.2951	0.7184	-0.464
Mof_Zn	Zn	0.3584	0.85517	0.8567	1.205
Mof_Zn	Zn	0.0859	0.02328	0.8657	1.14
Mof_C 	C 	0.9848	0.6783	0.471	0.273
Mof_C 	C 	0.0471	0.7212	0.529	-0.044
Mof_C 	C 	0.0455	0.788	0.576	0.002
Mof_H 	H 	0.0034	0.8112	0.5608	0.03
Mof_C 	C 	0.102	0.8308	0.649	-0.144
Mof_C 	C 	0.0906	0.905	0.717	0.445
Mof_C 	C 	0.1606	0.7944	0.657	-0.034
Mof_C 	C 	0.2277	0.8369	0.719	0.345
Mof_C 	C 	0.1681	0.7198	0.616	-0.015
Mof_H 	H 	0.2105	0.6972	0.6336	0.032
Mof_C 	C 	0.1125	0.6826	0.553	-0.104
Mof_C 	C 	0.1226	0.6034	0.503	0.406
Mof_O 	O 	0.9344	0.7179	0.4245	-0.425
Mof_O 	O 	0.982	0.6095	0.4798	-0.272
Mof_O 	O 	0.1176	0.5883	0.3465	-0.437
Mof_O 	O 	0.1319	0.561	0.6107	-0.303
Mof_O 	O 	0.0776	0.9559	0.6063	-0.693
Mof_O 	O 	0.0895	0.9113	0.863	-0.545
Mof_O 	O 	0.2271	0.8957	0.7035	-0.4
Mof_O 	O 	0.2811	0.7951	0.7816	-0.464
Mof_Zn	Zn	0.8584	0.35517	0.8567	1.205
Mof_Zn	Zn	0.5859	0.52328	0.8657	1.142
Mof_C 	C 	0.4848	0.1783	0.471	0.273
Mof_C 	C 	0.5471	0.2212	0.529	-0.044
Mof_C 	C 	0.5455	0.288	0.576	0.002
Mof_H 	H 	0.5034	0.3112	0.5608	0.031
Mof_C 	C 	0.602	0.3308	0.649	-0.144
Mof_C 	C 	0.5906	0.405	0.717	0.445
Mof_C 	C 	0.6606	0.2944	0.657	-0.035
Mof_C 	C 	0.7277	0.3369	0.719	0.345
Mof_C 	C 	0.6681	0.2198	0.616	-0.015
Mof_H 	H 	0.7105	0.1972	0.6336	0.032
Mof_C 	C 	0.6125	0.1826	0.553	-0.104
Mof_C 	C 	0.6226	0.1034	0.503	0.406
Mof_O 	O 	0.4344	0.2179	0.4245	-0.424
Mof_O 	O 	0.482	0.1095	0.4798	-0.272
Mof_O 	O 	0.6176	0.0883	0.3465	-0.437
Mof_O 	O 	0.6319	0.061	0.6107	-0.304
Mof_O 	O 	0.5776	0.4559	0.6063	-0.694
Mof_O 	O 	0.5895	0.4113	0.863	-0.546
Mof_O 	O 	0.7271	0.3957	0.7035	-0.401
Mof_O 	O 	0.7811	0.2951	0.7816	-0.465
_end
