# CIF file generated by openbabel 3.1.0, see https://openbabel.org
data_I
_chemical_name_common 'image0'
_cell_length_a 16.176
_cell_length_b 7.948
_cell_length_c 27.278
_cell_angle_alpha 90
_cell_angle_beta 93.5
_cell_angle_gamma 90
_space_group_name_H-M_alt 'P 1'
_space_group_name_Hall 'P 1'
loop_
    _symmetry_equiv_pos_as_xyz
    x,y,z
loop_
    _atom_site_label
    _atom_site_type_symbol
    _atom_site_fract_x
    _atom_site_fract_y
    _atom_site_fract_z
    _atom_site_occupancy
    C1       C        0.39230    0.77640    0.80960    1.000
    H1       H        0.33780    0.81680    0.79850    1.000
    H2       H        0.39830    0.66270    0.79740    1.000
    Tb1      Tb       0.72311    0.15649    0.73280    1.000
    O1       O        0.85080    0.12390    0.78765    1.000
    O2       O        0.86690    0.85730    0.81195    1.000
    O3       O        0.28480    0.62530    0.20343    1.000
    N1       N        0.26460    0.85800    0.86892    1.000
    C2       C        0.54840    0.84080    0.86520    1.000
    H3       H        0.60260    0.80450    0.87830    1.000
    H4       H        0.53930    0.95460    0.87650    1.000
    O4       O        0.68320    0.89810    0.78487    1.000
    C3       C        0.54560    0.83850    0.80920    1.000
    H5       H        0.55700    0.72400    0.79800    1.000
    O5       O        0.28920    0.41500    0.15204    1.000
    N2       N        0.21040    0.87130    0.94870    1.000
    N3       N        0.40000    0.77500    0.86340    1.000
    C4       C        0.28510    0.81420    0.96610    1.000
    N4       N        0.13500    0.96430    0.87960    1.000
    O6       O        0.59410    0.10550    0.78052    1.000
    C5       C        0.97430    0.05160    0.83490    1.000
    H6       H        0.98000    0.17400    0.83600    1.000
    C6       C        0.33670    0.80660    0.89170    1.000
    C7       C        0.45840    0.88940    0.78880    1.000
    H7       H        0.44800    0.00550    0.79750    1.000
    H8       H        0.45530    0.88080    0.75330    1.000
    N5       N        0.35070    0.78640    0.94050    1.000
    N6       N        0.29300    0.78390    0.01540    1.000
    C8       C        0.36450    0.62310    0.08210    1.000
    H9       H        0.41850    0.60310    0.09860    1.000
    H10      H        0.34340    0.51610    0.06970    1.000
    C9       C        0.20650    0.89680    0.89990    1.000
    C10      C        0.23400    0.85200    0.04870    1.000
    H11      H        0.18090    0.86940    0.03090    1.000
    H12      H        0.25370    0.96010    0.06110    1.000
    C11      C        0.61060    0.95470    0.79090    1.000
    C12      C        0.04370    0.97870    0.80500    1.000
    H13      H        0.03810    0.85730    0.80310    1.000
    H14      H        0.03880    0.02340    0.77190    1.000
    C13      C        0.98560    0.98350    0.88670    1.000
    H15      H        0.97950    0.86210    0.88600    1.000
    H16      H        0.94290    0.02930    0.90630    1.000
    C14      C        0.29410    0.57090    0.16020    1.000
    C15      C        0.07050    0.02910    0.91030    1.000
    H17      H        0.07540    0.15040    0.91330    1.000
    H18      H        0.07720    0.98050    0.94290    1.000
    C16      C        0.48250    0.72530    0.88360    1.000
    H19      H        0.49370    0.61040    0.87400    1.000
    H20      H        0.48410    0.72960    0.91920    1.000
    C17      C        0.12770    0.02340    0.82890    1.000
    H21      H        0.17070    0.97240    0.81060    1.000
    H22      H        0.13510    0.14440    0.82820    1.000
    C18      C        0.30710    0.69100    0.11860    1.000
    H23      H        0.33100    0.79500    0.13200    1.000
    C19      C        0.37430    0.74290    0.03880    1.000
    H24      H        0.40180    0.84520    0.05040    1.000
    H25      H        0.40840    0.69030    0.01510    1.000
    C20      C        0.22320    0.73190    0.09180    1.000
    H26      H        0.19740    0.62860    0.07970    1.000
    H27      H        0.18710    0.78310    0.11470    1.000
    C21      C        0.89080    0.00710    0.80990    1.000
    C22      C        0.10770    0.27640    0.69040    1.000
    H28      H        0.16220    0.31680    0.70150    1.000
    H29      H        0.10170    0.16270    0.70260    1.000
    Tb2      Tb       0.77689    0.65649    0.76720    1.000
    O7       O        0.64920    0.62390    0.71235    1.000
    O8       O        0.63310    0.35730    0.68805    1.000
    O9       O        0.21520    0.12530    0.29657    1.000
    N7       N        0.23540    0.35800    0.63108    1.000
    C23      C        0.95160    0.34080    0.63480    1.000
    H30      H        0.89740    0.30450    0.62170    1.000
    H31      H        0.96070    0.45460    0.62350    1.000
    O10      O        0.81680    0.39810    0.71513    1.000
    C24      C        0.95440    0.33850    0.69080    1.000
    H32      H        0.94300    0.22400    0.70200    1.000
    O11      O        0.21080    0.91500    0.34796    1.000
    N8       N        0.28960    0.37130    0.55130    1.000
    N9       N        0.10000    0.27500    0.63660    1.000
    C25      C        0.21490    0.31420    0.53390    1.000
    N10      N        0.36500    0.46430    0.62040    1.000
    O12      O        0.90590    0.60550    0.71948    1.000
    C26      C        0.52570    0.55160    0.66510    1.000
    H33      H        0.52000    0.67400    0.66400    1.000
    C27      C        0.16330    0.30660    0.60830    1.000
    C28      C        0.04160    0.38940    0.71120    1.000
    H34      H        0.05200    0.50550    0.70250    1.000
    H35      H        0.04470    0.38080    0.74670    1.000
    N11      N        0.14930    0.28640    0.55950    1.000
    N12      N        0.20700    0.28390    0.48460    1.000
    C29      C        0.13550    0.12310    0.41790    1.000
    H36      H        0.08150    0.10310    0.40140    1.000
    H37      H        0.15660    0.01610    0.43030    1.000
    C30      C        0.29350    0.39680    0.60010    1.000
    C31      C        0.26600    0.35200    0.45130    1.000
    H38      H        0.31910    0.36940    0.46910    1.000
    H39      H        0.24630    0.46010    0.43890    1.000
    C32      C        0.88940    0.45470    0.70910    1.000
    C33      C        0.45630    0.47870    0.69500    1.000
    H40      H        0.46190    0.35730    0.69690    1.000
    H41      H        0.46120    0.52340    0.72810    1.000
    C34      C        0.51440    0.48350    0.61330    1.000
    H42      H        0.52050    0.36210    0.61400    1.000
    H43      H        0.55710    0.52930    0.59370    1.000
    C35      C        0.20590    0.07090    0.33980    1.000
    C36      C        0.42950    0.52910    0.58970    1.000
    H44      H        0.42460    0.65040    0.58670    1.000
    H45      H        0.42280    0.48050    0.55710    1.000
    C37      C        0.01750    0.22530    0.61640    1.000
    H46      H        0.00630    0.11040    0.62600    1.000
    H47      H        0.01590    0.22960    0.58080    1.000
    C38      C        0.37230    0.52340    0.67110    1.000
    H48      H        0.32930    0.47240    0.68940    1.000
    H49      H        0.36490    0.64440    0.67180    1.000
    C39      C        0.19290    0.19100    0.38140    1.000
    H50      H        0.16900    0.29500    0.36800    1.000
    C40      C        0.12570    0.24290    0.46120    1.000
    H51      H        0.09820    0.34520    0.44960    1.000
    H52      H        0.09160    0.19030    0.48490    1.000
    C41      C        0.27680    0.23190    0.40820    1.000
    H53      H        0.30260    0.12860    0.42030    1.000
    H54      H        0.31290    0.28310    0.38530    1.000
    C42      C        0.60920    0.50710    0.69010    1.000
    C43      C        0.60770    0.22360    0.19040    1.000
    H55      H        0.66220    0.18320    0.20150    1.000
    H56      H        0.60170    0.33730    0.20260    1.000
    Tb3      Tb       0.27689    0.84351    0.26720    1.000
    O13      O        0.14920    0.87610    0.21235    1.000
    O14      O        0.13310    0.14270    0.18805    1.000
    O15      O        0.71520    0.37470    0.79657    1.000
    N13      N        0.73540    0.14200    0.13108    1.000
    C44      C        0.45160    0.15920    0.13480    1.000
    H57      H        0.39740    0.19550    0.12170    1.000
    H58      H        0.46070    0.04540    0.12350    1.000
    O16      O        0.31680    0.10190    0.21513    1.000
    C45      C        0.45440    0.16150    0.19080    1.000
    H59      H        0.44300    0.27600    0.20200    1.000
    O17      O        0.71080    0.58500    0.84796    1.000
    N14      N        0.78960    0.12870    0.05130    1.000
    N15      N        0.60000    0.22500    0.13660    1.000
    C46      C        0.71490    0.18580    0.03390    1.000
    N16      N        0.86500    0.03570    0.12040    1.000
    O18      O        0.40590    0.89450    0.21948    1.000
    C47      C        0.02570    0.94840    0.16510    1.000
    H60      H        0.02000    0.82600    0.16400    1.000
    C48      C        0.66330    0.19340    0.10830    1.000
    C49      C        0.54160    0.11060    0.21120    1.000
    H61      H        0.55200    0.99450    0.20250    1.000
    H62      H        0.54470    0.11920    0.24670    1.000
    N17      N        0.64930    0.21360    0.05950    1.000
    N18      N        0.70700    0.21610    0.98460    1.000
    C50      C        0.63550    0.37690    0.91790    1.000
    H63      H        0.58150    0.39690    0.90140    1.000
    H64      H        0.65660    0.48390    0.93030    1.000
    C51      C        0.79350    0.10320    0.10010    1.000
    C52      C        0.76600    0.14800    0.95130    1.000
    H65      H        0.81910    0.13060    0.96910    1.000
    H66      H        0.74630    0.03990    0.93890    1.000
    C53      C        0.38940    0.04530    0.20910    1.000
    C54      C        0.95630    0.02130    0.19500    1.000
    H67      H        0.96190    0.14270    0.19690    1.000
    H68      H        0.96120    0.97660    0.22810    1.000
    C55      C        0.01440    0.01650    0.11330    1.000
    H69      H        0.02050    0.13790    0.11400    1.000
    H70      H        0.05710    0.97070    0.09370    1.000
    C56      C        0.70590    0.42910    0.83980    1.000
    C57      C        0.92950    0.97090    0.08970    1.000
    H71      H        0.92460    0.84960    0.08670    1.000
    H72      H        0.92280    0.01950    0.05710    1.000
    C58      C        0.51750    0.27470    0.11640    1.000
    H73      H        0.50630    0.38960    0.12600    1.000
    H74      H        0.51590    0.27040    0.08080    1.000
    C59      C        0.87230    0.97660    0.17110    1.000
    H75      H        0.82930    0.02760    0.18940    1.000
    H76      H        0.86490    0.85560    0.17180    1.000
    C60      C        0.69290    0.30900    0.88140    1.000
    H77      H        0.66900    0.20500    0.86800    1.000
    C61      C        0.62570    0.25710    0.96120    1.000
    H78      H        0.59820    0.15480    0.94960    1.000
    H79      H        0.59160    0.30970    0.98490    1.000
    C62      C        0.77680    0.26810    0.90820    1.000
    H80      H        0.80260    0.37140    0.92030    1.000
    H81      H        0.81290    0.21690    0.88530    1.000
    C63      C        0.10920    0.99290    0.19010    1.000
    C64      C        0.89230    0.72360    0.30960    1.000
    H82      H        0.83780    0.68320    0.29850    1.000
    H83      H        0.89830    0.83730    0.29740    1.000
    Tb4      Tb       0.22311    0.34351    0.23280    1.000
    O19      O        0.35080    0.37610    0.28765    1.000
    O20      O        0.36690    0.64270    0.31195    1.000
    O21      O        0.78480    0.87470    0.70343    1.000
    N19      N        0.76460    0.64200    0.36892    1.000
    C65      C        0.04840    0.65920    0.36520    1.000
    H84      H        0.10260    0.69550    0.37830    1.000
    H85      H        0.03930    0.54540    0.37650    1.000
    O22      O        0.18320    0.60190    0.28487    1.000
    C66      C        0.04560    0.66150    0.30920    1.000
    H86      H        0.05700    0.77600    0.29800    1.000
    O23      O        0.78920    0.08500    0.65204    1.000
    N20      N        0.71040    0.62870    0.44870    1.000
    N21      N        0.90000    0.72500    0.36340    1.000
    C67      C        0.78510    0.68580    0.46610    1.000
    N22      N        0.63500    0.53570    0.37960    1.000
    O24      O        0.09410    0.39450    0.28052    1.000
    C68      C        0.47430    0.44840    0.33490    1.000
    H87      H        0.48000    0.32600    0.33600    1.000
    C69      C        0.83670    0.69340    0.39170    1.000
    C70      C        0.95840    0.61060    0.28880    1.000
    H88      H        0.94800    0.49450    0.29750    1.000
    H89      H        0.95530    0.61920    0.25330    1.000
    N23      N        0.85070    0.71360    0.44050    1.000
    N24      N        0.79300    0.71610    0.51540    1.000
    C71      C        0.86450    0.87690    0.58210    1.000
    H90      H        0.91850    0.89690    0.59860    1.000
    H91      H        0.84340    0.98390    0.56970    1.000
    C72      C        0.70650    0.60320    0.39990    1.000
    C73      C        0.73400    0.64800    0.54870    1.000
    H92      H        0.68090    0.63060    0.53090    1.000
    H93      H        0.75370    0.53990    0.56110    1.000
    C74      C        0.11060    0.54530    0.29090    1.000
    C75      C        0.54370    0.52130    0.30500    1.000
    H94      H        0.53810    0.64270    0.30310    1.000
    H95      H        0.53880    0.47660    0.27190    1.000
    C76      C        0.48560    0.51650    0.38670    1.000
    H96      H        0.47950    0.63790    0.38600    1.000
    H97      H        0.44290    0.47070    0.40630    1.000
    C77      C        0.79410    0.92910    0.66020    1.000
    C78      C        0.57050    0.47090    0.41030    1.000
    H98      H        0.57540    0.34960    0.41330    1.000
    H99      H        0.57720    0.51950    0.44290    1.000
    C79      C        0.98250    0.77470    0.38360    1.000
    H100     H        0.99370    0.88960    0.37400    1.000
    H101     H        0.98410    0.77040    0.41920    1.000
    C80      C        0.62770    0.47660    0.32890    1.000
    H102     H        0.67070    0.52760    0.31060    1.000
    H103     H        0.63510    0.35560    0.32820    1.000
    C81      C        0.80710    0.80900    0.61860    1.000
    H104     H        0.83100    0.70500    0.63200    1.000
    C82      C        0.87430    0.75710    0.53880    1.000
    H105     H        0.90180    0.65480    0.55040    1.000
    H106     H        0.90840    0.80970    0.51510    1.000
    C83      C        0.72320    0.76810    0.59180    1.000
    H107     H        0.69740    0.87140    0.57970    1.000
    H108     H        0.68710    0.71690    0.61470    1.000
    C84      C        0.39080    0.49290    0.30990    1.000
