data_functionalizedCrystal
_audit_creation_method	'EQeq! by Chris Wilmer'
_symmetry_space_group_name_H-M	'P1'
_symmetry_Int_Tables_number	1
_symmetry_cell_setting	triclinic
loop_
_symmetry_equiv_pos_as_xyz
  x,y,z
_cell_length_a	6.7767
_cell_length_b	15.0999
_cell_length_c	15.0999
_cell_angle_alpha	62.1971
_cell_angle_beta	81.3965
_cell_angle_gamma	98.6035
loop_
_atom_site_label
_atom_site_type_symbol
_atom_site_fract_x
_atom_site_fract_y
_atom_site_fract_z
_atom_site_charge
Mof_Co	Co	0.3925	0.578	0.7205	1.163
Mof_Co	Co	0.8145	0.422	0.2985	1.175
Mof_Co	Co	0.113	0.2985	0.2795	1.149
Mof_Co	Co	0.113	0.7205	0.7015	1.147
Mof_Co	Co	0.8145	0.7015	0.578	1.176
Mof_Co	Co	0.3925	0.2795	0.422	1.164
Mof_H 	H 	0.5365	4.34523e-17	0.5715	-0.027
Mof_H 	H 	0.5365	0.4285	-0	-0.024
Mof_H 	H 	0.24285	0.51955	-0	0.125
Mof_H 	H 	0.108	0.5715	0.4285	-0.037
Mof_H 	H 	0.7233	0.48045	0.51955	0.133
Mof_H 	H 	0.24285	0	0.48045	0.127
Mof_C 	C 	0.5517	0.3548	0.1879	0.402
Mof_C 	C 	0.3166	0.5882	0.5046	-0.324
Mof_C 	C 	0.9405	0.4386	0.0941	0.376
Mof_C 	C 	0.8212	0.5046	0.9072	-0.265
Mof_C 	C 	0.3166	0.4954	0.4118	-0.323
Mof_C 	C 	0.7396	0.1879	0.4573	0.39
Mof_C 	C 	0.675	4.34523e-17	0.5568	0.226
Mof_C 	C 	0.8212	0.0928	0.4954	-0.271
Mof_C 	C 	0.7396	0.5427	0.8121	0.387
Mof_C 	C 	0.2318	0.5568	0.4432	0.224
Mof_C 	C 	0.9405	0.9059	0.5614	0.371
Mof_C 	C 	0.5019	0.5614	0.5327	0.337
Mof_C 	C 	0.675	0.4432	-0	0.207
Mof_C 	C 	0.1969	0.6452	0.5427	0.398
Mof_C 	C 	0.7284	0.4118	0.0928	-0.316
Mof_C 	C 	0.5517	0.8121	0.6452	0.404
Mof_C 	C 	0.0346	0.5327	0.9059	0.289
Mof_C 	C 	0.08235	0.50305	-0	-0.371
Mof_C 	C 	0.7284	0.9072	0.5882	-0.33
Mof_C 	C 	0.0346	0.0941	0.4673	0.293
Mof_C 	C 	0.5019	0.4673	0.4386	0.337
Mof_C 	C 	0.1969	0.4573	0.3548	0.398
Mof_C 	C 	0.08235	4.34523e-17	0.49695	-0.366
Mof_C 	C 	0.5793	0.49695	0.50305	-0.334
Mof_O 	O 	0.548	0.1788	0.4992	-0.448
Mof_O 	O 	0.1784	0.5983	0.8179	-0.543
Mof_O 	O 	0.5944	0.3425	0.2737	-0.577
Mof_O 	O 	0.1784	0.1821	0.4017	-0.542
Mof_O 	O 	0.5944	0.7263	0.6575	-0.578
Mof_O 	O 	0.9963	0.8179	0.5838	-0.527
Mof_O 	O 	0.2519	0.3838	0.3425	-0.586
Mof_O 	O 	0.8681	0.6162	0.7263	-0.552
Mof_O 	O 	0.0472	0.678	0.5008	-0.475
Mof_O 	O 	0.8681	0.2737	0.3838	-0.553
Mof_O 	O 	0.548	0.5008	0.8212	-0.448
Mof_O 	O 	0.3692	0.322	0.1788	-0.457
Mof_O 	O 	0.5801	0.4017	0.4162	-0.538
Mof_O 	O 	0.3692	0.8212	0.678	-0.461
Mof_O 	O 	0.2519	0.6575	0.6162	-0.586
Mof_O 	O 	0.0472	0.4992	0.322	-0.474
Mof_O 	O 	0.9963	0.4162	0.1821	-0.526
Mof_O 	O 	0.5801	0.5838	0.5983	-0.539
_end
