# CIF file generated by openbabel 3.1.0, see https://openbabel.org
data_I
_chemical_name_common 'image0'
_cell_length_a 4.9748
_cell_length_b 37.2189
_cell_length_c 16.0246
_cell_angle_alpha 90
_cell_angle_beta 92.582
_cell_angle_gamma 90
_space_group_name_H-M_alt 'P 1'
_space_group_name_Hall 'P 1'
loop_
    _symmetry_equiv_pos_as_xyz
    x,y,z
loop_
    _atom_site_label
    _atom_site_type_symbol
    _atom_site_fract_x
    _atom_site_fract_y
    _atom_site_fract_z
    _atom_site_occupancy
    Li1      Li       0.79880    0.47669    0.51440    1.000
    C1       C        0.21080    0.30274    0.77723    1.000
    N1       N        0.41620    0.31275    0.82727    1.000
    C2       C        0.54200    0.28546    0.86873    1.000
    N2       N        0.48610    0.25034    0.86144    1.000
    C3       C        0.26930    0.24384    0.81104    1.000
    N3       N        0.11930    0.26849    0.76920    1.000
    N4       N        0.07150    0.32681    0.72844    1.000
    H1       H        0.90660    0.32040    0.71280    1.000
    O1       O        0.17460    0.47757    0.54413    1.000
    O2       O        0.57290    0.47672    0.61208    1.000
    C4       C        0.34390    0.46274    0.59323    1.000
    C5       C        0.27960    0.42714    0.62998    1.000
    C6       C        0.43110    0.41348    0.69733    1.000
    H2       H        0.57970    0.42690    0.71990    1.000
    C7       C        0.36940    0.38042    0.73262    1.000
    H3       H        0.47450    0.37150    0.77910    1.000
    C8       C        0.15340    0.36056    0.69947    1.000
    C9       C        0.00310    0.37404    0.63079    1.000
    H4       H        0.85570    0.36060    0.60760    1.000
    C10      C        0.06690    0.40681    0.59630    1.000
    H5       H        0.96440    0.41550    0.54910    1.000
    N5       N        0.74560    0.29738    0.92128    1.000
    H6       H        0.76350    0.32090    0.92190    1.000
    O3       O        0.70410    0.25683    0.17621    1.000
    H7       H        0.82590    0.24600    0.20410    1.000
    O4       O        0.60240    0.20102    0.13329    1.000
    C11      C        0.55870    0.23341    0.13177    1.000
    C12      C        0.33670    0.24979    0.07956    1.000
    C13      C        0.15440    0.22785    0.03473    1.000
    H8       H        0.16870    0.20250    0.04020    1.000
    C14      C        0.95320    0.24227    0.98250    1.000
    H9       H        0.83080    0.22690    0.95250    1.000
    C15      C        0.93130    0.27955    0.97424    1.000
    C16      C        0.11150    0.30185    0.02055    1.000
    H10      H        0.09590    0.32720    0.01610    1.000
    C17      C        0.31080    0.28695    0.07234    1.000
    H11      H        0.43150    0.30220    0.10340    1.000
    N6       N        0.17880    0.20972    0.79629    1.000
    H12      H        0.03140    0.20890    0.76390    1.000
    O5       O        0.65520    0.06148    0.94496    1.000
    O6       O        0.34980    0.04327    0.84834    1.000
    H13      H        0.39230    0.02290    0.86740    1.000
    C18      C        0.48530    0.06819    0.89053    1.000
    C19      C        0.40990    0.10537    0.86575    1.000
    C20      C        0.21600    0.11215    0.80490    1.000
    H14      H        0.12690    0.09270    0.77700    1.000
    C21      C        0.14780    0.14703    0.78340    1.000
    H15      H        0.01210    0.15110    0.74080    1.000
    C22      C        0.27160    0.17584    0.82194    1.000
    C23      C        0.45850    0.16925    0.88470    1.000
    H16      H        0.54190    0.18870    0.91410    1.000
    C24      C        0.52770    0.13424    0.90590    1.000
    H17      H        0.66020    0.13020    0.94950    1.000
    Li2      Li       0.20120    0.97669    0.98560    1.000
    C25      C        0.78920    0.80274    0.72277    1.000
    N7       N        0.58380    0.81275    0.67273    1.000
    C26      C        0.45800    0.78546    0.63127    1.000
    N8       N        0.51390    0.75034    0.63856    1.000
    C27      C        0.73070    0.74384    0.68896    1.000
    N9       N        0.88070    0.76849    0.73080    1.000
    N10      N        0.92850    0.82681    0.77156    1.000
    H18      H        0.09340    0.82040    0.78720    1.000
    O7       O        0.82540    0.97757    0.95587    1.000
    O8       O        0.42710    0.97672    0.88792    1.000
    C28      C        0.65610    0.96274    0.90677    1.000
    C29      C        0.72040    0.92714    0.87002    1.000
    C30      C        0.56890    0.91348    0.80267    1.000
    H19      H        0.42030    0.92690    0.78010    1.000
    C31      C        0.63060    0.88042    0.76738    1.000
    H20      H        0.52550    0.87150    0.72090    1.000
    C32      C        0.84660    0.86056    0.80053    1.000
    C33      C        0.99690    0.87404    0.86921    1.000
    H21      H        0.14430    0.86060    0.89240    1.000
    C34      C        0.93310    0.90681    0.90370    1.000
    H22      H        0.03560    0.91550    0.95090    1.000
    N11      N        0.25440    0.79738    0.57872    1.000
    H23      H        0.23650    0.82090    0.57810    1.000
    O9       O        0.29590    0.75683    0.32379    1.000
    H24      H        0.17410    0.74600    0.29590    1.000
    O10      O        0.39760    0.70102    0.36671    1.000
    C35      C        0.44130    0.73341    0.36823    1.000
    C36      C        0.66330    0.74979    0.42044    1.000
    C37      C        0.84560    0.72785    0.46527    1.000
    H25      H        0.83130    0.70250    0.45980    1.000
    C38      C        0.04680    0.74227    0.51750    1.000
    H26      H        0.16920    0.72690    0.54750    1.000
    C39      C        0.06870    0.77955    0.52576    1.000
    C40      C        0.88850    0.80185    0.47945    1.000
    H27      H        0.90410    0.82720    0.48390    1.000
    C41      C        0.68920    0.78695    0.42766    1.000
    H28      H        0.56850    0.80220    0.39660    1.000
    N12      N        0.82120    0.70972    0.70371    1.000
    H29      H        0.96860    0.70890    0.73610    1.000
    O11      O        0.34480    0.56148    0.55504    1.000
    O12      O        0.65020    0.54327    0.65166    1.000
    H30      H        0.60770    0.52290    0.63260    1.000
    C42      C        0.51470    0.56819    0.60947    1.000
    C43      C        0.59010    0.60537    0.63425    1.000
    C44      C        0.78400    0.61215    0.69510    1.000
    H31      H        0.87310    0.59270    0.72300    1.000
    C45      C        0.85220    0.64703    0.71660    1.000
    H32      H        0.98790    0.65110    0.75920    1.000
    C46      C        0.72840    0.67584    0.67806    1.000
    C47      C        0.54150    0.66925    0.61530    1.000
    H33      H        0.45810    0.68870    0.58590    1.000
    C48      C        0.47230    0.63424    0.59410    1.000
    H34      H        0.33980    0.63020    0.55050    1.000
    Li3      Li       0.20120    0.52331    0.48560    1.000
    C49      C        0.78920    0.69726    0.22277    1.000
    N13      N        0.58380    0.68725    0.17273    1.000
    C50      C        0.45800    0.71454    0.13127    1.000
    N14      N        0.51390    0.74966    0.13856    1.000
    C51      C        0.73070    0.75616    0.18896    1.000
    N15      N        0.88070    0.73151    0.23080    1.000
    N16      N        0.92850    0.67319    0.27156    1.000
    H35      H        0.09340    0.67960    0.28720    1.000
    O13      O        0.82540    0.52243    0.45587    1.000
    O14      O        0.42710    0.52328    0.38792    1.000
    C52      C        0.65610    0.53726    0.40677    1.000
    C53      C        0.72040    0.57286    0.37002    1.000
    C54      C        0.56890    0.58652    0.30267    1.000
    H36      H        0.42030    0.57310    0.28010    1.000
    C55      C        0.63060    0.61958    0.26738    1.000
    H37      H        0.52550    0.62850    0.22090    1.000
    C56      C        0.84660    0.63944    0.30053    1.000
    C57      C        0.99690    0.62596    0.36921    1.000
    H38      H        0.14430    0.63940    0.39240    1.000
    C58      C        0.93310    0.59319    0.40370    1.000
    H39      H        0.03560    0.58450    0.45090    1.000
    N17      N        0.25440    0.70262    0.07872    1.000
    H40      H        0.23650    0.67910    0.07810    1.000
    O15      O        0.29590    0.74317    0.82379    1.000
    H41      H        0.17410    0.75400    0.79590    1.000
    O16      O        0.39760    0.79898    0.86671    1.000
    C59      C        0.44130    0.76659    0.86823    1.000
    C60      C        0.66330    0.75021    0.92044    1.000
    C61      C        0.84560    0.77215    0.96527    1.000
    H42      H        0.83130    0.79750    0.95980    1.000
    C62      C        0.04680    0.75773    0.01750    1.000
    H43      H        0.16920    0.77310    0.04750    1.000
    C63      C        0.06870    0.72045    0.02576    1.000
    C64      C        0.88850    0.69815    0.97945    1.000
    H44      H        0.90410    0.67280    0.98390    1.000
    C65      C        0.68920    0.71305    0.92766    1.000
    H45      H        0.56850    0.69780    0.89660    1.000
    N18      N        0.82120    0.79028    0.20371    1.000
    H46      H        0.96860    0.79110    0.23610    1.000
    O17      O        0.34480    0.93852    0.05504    1.000
    O18      O        0.65020    0.95673    0.15166    1.000
    H47      H        0.60770    0.97710    0.13260    1.000
    C66      C        0.51470    0.93181    0.10947    1.000
    C67      C        0.59010    0.89463    0.13425    1.000
    C68      C        0.78400    0.88785    0.19510    1.000
    H48      H        0.87310    0.90730    0.22300    1.000
    C69      C        0.85220    0.85297    0.21660    1.000
    H49      H        0.98790    0.84890    0.25920    1.000
    C70      C        0.72840    0.82416    0.17806    1.000
    C71      C        0.54150    0.83075    0.11530    1.000
    H50      H        0.45810    0.81130    0.08590    1.000
    C72      C        0.47230    0.86576    0.09410    1.000
    H51      H        0.33980    0.86980    0.05050    1.000
    Li4      Li       0.79880    0.02331    0.01440    1.000
    C73      C        0.21080    0.19726    0.27723    1.000
    N19      N        0.41620    0.18725    0.32727    1.000
    C74      C        0.54200    0.21454    0.36873    1.000
    N20      N        0.48610    0.24966    0.36144    1.000
    C75      C        0.26930    0.25616    0.31104    1.000
    N21      N        0.11930    0.23151    0.26920    1.000
    N22      N        0.07150    0.17319    0.22844    1.000
    H52      H        0.90660    0.17960    0.21280    1.000
    O19      O        0.17460    0.02243    0.04413    1.000
    O20      O        0.57290    0.02328    0.11208    1.000
    C76      C        0.34390    0.03726    0.09323    1.000
    C77      C        0.27960    0.07286    0.12998    1.000
    C78      C        0.43110    0.08652    0.19733    1.000
    H53      H        0.57970    0.07310    0.21990    1.000
    C79      C        0.36940    0.11958    0.23262    1.000
    H54      H        0.47450    0.12850    0.27910    1.000
    C80      C        0.15340    0.13944    0.19947    1.000
    C81      C        0.00310    0.12596    0.13079    1.000
    H55      H        0.85570    0.13940    0.10760    1.000
    C82      C        0.06690    0.09319    0.09630    1.000
    H56      H        0.96440    0.08450    0.04910    1.000
    N23      N        0.74560    0.20262    0.42128    1.000
    H57      H        0.76350    0.17910    0.42190    1.000
    O21      O        0.70410    0.24317    0.67621    1.000
    H58      H        0.82590    0.25400    0.70410    1.000
    O22      O        0.60240    0.29898    0.63329    1.000
    C83      C        0.55870    0.26659    0.63177    1.000
    C84      C        0.33670    0.25021    0.57956    1.000
    C85      C        0.15440    0.27215    0.53473    1.000
    H59      H        0.16870    0.29750    0.54020    1.000
    C86      C        0.95320    0.25773    0.48250    1.000
    H60      H        0.83080    0.27310    0.45250    1.000
    C87      C        0.93130    0.22045    0.47424    1.000
    C88      C        0.11150    0.19815    0.52055    1.000
    H61      H        0.09590    0.17280    0.51610    1.000
    C89      C        0.31080    0.21305    0.57234    1.000
    H62      H        0.43150    0.19780    0.60340    1.000
    N24      N        0.17880    0.29028    0.29629    1.000
    H63      H        0.03140    0.29110    0.26390    1.000
    O23      O        0.65520    0.43852    0.44496    1.000
    O24      O        0.34980    0.45673    0.34834    1.000
    H64      H        0.39230    0.47710    0.36740    1.000
    C90      C        0.48530    0.43181    0.39053    1.000
    C91      C        0.40990    0.39463    0.36575    1.000
    C92      C        0.21600    0.38785    0.30490    1.000
    H65      H        0.12690    0.40730    0.27700    1.000
    C93      C        0.14780    0.35297    0.28340    1.000
    H66      H        0.01210    0.34890    0.24080    1.000
    C94      C        0.27160    0.32416    0.32194    1.000
    C95      C        0.45850    0.33075    0.38470    1.000
    H67      H        0.54190    0.31130    0.41410    1.000
    C96      C        0.52770    0.36576    0.40590    1.000
    H68      H        0.66020    0.36980    0.44950    1.000
