data_functionalizedCrystal
_audit_creation_method	'EQeq! by Chris Wilmer'
_symmetry_space_group_name_H-M	'P1'
_symmetry_Int_Tables_number	1
_symmetry_cell_setting	triclinic
loop_
_symmetry_equiv_pos_as_xyz
  x,y,z
_cell_length_a	9.914
_cell_length_b	16.143
_cell_length_c	18.407
_cell_angle_alpha	92.009
_cell_angle_beta	103.583
_cell_angle_gamma	91.941
loop_
_atom_site_label
_atom_site_type_symbol
_atom_site_fract_x
_atom_site_fract_y
_atom_site_fract_z
_atom_site_charge
Mof_C 	C 	0.158	0.5612	0.0279	-0.304
Mof_C 	C 	0.5587	0.8087	0.9959	-0.344
Mof_C 	C 	0.5425	0.3906	0.2008	-0.006
Mof_H 	H 	0.6211	0.3964	0.1817	-0.019
Mof_C 	C 	0.5561	0.408	0.2769	-0.007
Mof_H 	H 	0.6415	0.4252	0.3079	0.015
Mof_C 	C 	0.438	0.3989	0.3056	-0.139
Mof_C 	C 	0.3158	0.3686	0.2569	-0.005
Mof_H 	H 	0.2365	0.3587	0.2745	0.031
Mof_C 	C 	0.3123	0.3532	0.1827	-0.008
Mof_H 	H 	0.2296	0.3327	0.151	0.016
Mof_C 	C 	0.4393	0.4259	0.385	0.483
Mof_C 	C 	0.0616	0.5223	0.1938	-0.011
Mof_H 	H 	0.1421	0.5123	0.1778	-0.004
Mof_C 	C 	0.0656	0.5188	0.2691	-0.023
Mof_H 	H 	0.1476	0.5072	0.303	0.017
Mof_C 	C 	0.9466	0.5327	0.2937	-0.13
Mof_C 	C 	0.828	0.5491	0.2404	-0.03
Mof_H 	H 	0.7458	0.5588	0.2547	0.047
Mof_C 	C 	0.8315	0.5511	0.1665	0.021
Mof_H 	H 	0.7501	0.5609	0.1315	-0.028
Mof_C 	C 	0.9444	0.5285	0.3745	0.494
Mof_C 	C 	0.6038	0.7251	0.1942	0.031
Mof_H 	H 	0.6455	0.758	0.1644	-0.011
Mof_C 	C 	0.648	0.7355	0.2702	-0.067
Mof_H 	H 	0.7142	0.7771	0.2914	0.058
Mof_C 	C 	0.5934	0.6839	0.3154	-0.058
Mof_C 	C 	0.4905	0.6258	0.2812	-0.061
Mof_H 	H 	0.4493	0.5909	0.3096	0.043
Mof_C 	C 	0.4504	0.6206	0.205	0.028
Mof_H 	H 	0.3822	0.5805	0.1828	-0.014
Mof_C 	C 	0.6477	0.6897	0.399	0.339
Mof_C 	C 	0.6449	0.9681	0.1991	-0.017
Mof_H 	H 	0.5526	0.9827	0.1862	0.027
Mof_C 	C 	0.7139	0.9758	0.2734	0.012
Mof_H 	H 	0.6689	0.9942	0.3096	0.014
Mof_C 	C 	0.8523	0.9556	0.293	-0.159
Mof_C 	C 	0.9119	0.9285	0.2369	0.032
Mof_H 	H 	0.0048	0.9151	0.2478	-0.001
Mof_C 	C 	0.8331	0.9212	0.1642	-0.03
Mof_H 	H 	0.8748	0.9014	0.1271	-0.021
Mof_C 	C 	0.9344	0.9644	0.3735	0.509
Mof_C 	C 	0.5416	0.8348	0.7941	0.008
Mof_H 	H 	0.4801	0.8046	0.8152	-0.012
Mof_C 	C 	0.4987	0.8569	0.7221	-0.011
Mof_H 	H 	0.4088	0.8429	0.6949	0.024
Mof_C 	C 	0.5912	0.9009	0.6893	-0.128
Mof_C 	C 	0.7259	0.9197	0.7295	-0.008
Mof_H 	H 	0.79	0.9477	0.7085	0.032
Mof_C 	C 	0.7609	0.8947	0.8032	0.002
Mof_H 	H 	0.851	0.9057	0.8316	0.013
Mof_C 	C 	0.5417	0.9308	0.611	0.495
Mof_Cl	Cl	0.8391	0.66975	0.00648	-0.688
Mof_Cl	Cl	0.6419	0.02906	0.95626	-0.881
Mof_Cl	Cl	0.939	0.8808	0.9959	-0.181
Mof_Cu	Cu	0.6111	0.6207	0.9603	0.501
Mof_Cu	Cu	0.9427	0.54754	0.03187	0.801
Mof_Cu	Cu	0.41554	0.66211	0.04563	0.783
Mof_Cu	Cu	0.58875	0.92486	0.03676	0.819
Mof_Cu	Cu	0.7024	0.84875	0.94798	0.903
Mof_Dy	Dy	0.24302	0.97304	0.49045	1.859
Mof_Dy	Dy	0.74869	0.52038	0.49714	1.846
Mof_N 	N 	0.2414	0.6002	0.037	-0.189
Mof_N 	N 	0.5026	0.7488	0.0018	-0.268
Mof_N 	N 	0.4221	0.3662	0.1541	-0.232
Mof_N 	N 	0.947	0.5394	0.1429	-0.218
Mof_N 	N 	0.5026	0.6692	0.1606	-0.235
Mof_N 	N 	0.7019	0.9409	0.1446	-0.218
Mof_N 	N 	0.6673	0.8545	0.8351	-0.195
Mof_O 	O 	0.547	0.4602	0.4241	-0.573
Mof_O 	O 	0.3278	0.4145	0.4058	-0.53
Mof_O 	O 	0.0517	0.5102	0.42	-0.627
Mof_O 	O 	0.8309	0.5431	0.3912	-0.543
Mof_O 	O 	0.7248	0.751	0.4271	-0.303
Mof_O 	O 	0.6133	0.6319	0.4362	-0.438
Mof_O 	O 	0.8742	0.9936	0.4204	-0.579
Mof_O 	O 	0.0577	0.9436	0.3865	-0.578
Mof_O 	O 	0.4168	0.9149	0.5786	-0.572
Mof_O 	O 	0.6261	0.9713	0.5838	-0.554
Mof_O 	O 	0.144	0.1042	0.4542	-0.861
Mof_H 	H 	0.0989	0.0651	0.4291	0.278
Mof_H 	H 	0.0928	0.1372	0.4674	0.368
Mof_C 	C 	0.5194	0.5323	0.9932	-0.282
Mof_Cl	Cl	0.8694	0.8657	0.9599	-0.764
Mof_Cu	Cu	0.5652	0.6383	0.954	0.37
Mof_Cu	Cu	0.8575	0.0215	0.9773	0.705
Mof_C 	C 	0.842	0.4388	0.9721	-0.278
Mof_C 	C 	0.4413	0.1913	0.0041	-0.392
Mof_C 	C 	0.4575	0.6094	0.7992	-0.007
Mof_H 	H 	0.3789	0.6036	0.8183	-0.019
Mof_C 	C 	0.4439	0.592	0.7231	-0.007
Mof_H 	H 	0.3585	0.5748	0.6921	0.015
Mof_C 	C 	0.562	0.6011	0.6944	-0.139
Mof_C 	C 	0.6842	0.6314	0.7431	-0.004
Mof_H 	H 	0.7635	0.6413	0.7255	0.034
Mof_C 	C 	0.6877	0.6468	0.8173	-0.009
Mof_H 	H 	0.7704	0.6673	0.849	0.023
Mof_C 	C 	0.5607	0.5741	0.615	0.482
Mof_C 	C 	0.9384	0.4777	0.8062	0.004
Mof_H 	H 	0.8579	0.4877	0.8222	-0.005
Mof_C 	C 	0.9344	0.4812	0.7309	0.006
Mof_H 	H 	0.8524	0.4928	0.697	0.01
Mof_C 	C 	0.0534	0.4673	0.7063	-0.154
Mof_C 	C 	0.172	0.4509	0.7596	-0.021
Mof_H 	H 	0.2542	0.4412	0.7453	0.044
Mof_C 	C 	0.1685	0.4489	0.8335	0.013
Mof_H 	H 	0.2499	0.4391	0.8685	-0.022
Mof_C 	C 	0.0556	0.4715	0.6255	0.472
Mof_C 	C 	0.3962	0.2749	0.8058	0.03
Mof_H 	H 	0.3545	0.242	0.8356	-0.008
Mof_C 	C 	0.352	0.2645	0.7298	-0.066
Mof_H 	H 	0.2858	0.2229	0.7086	0.056
Mof_C 	C 	0.4066	0.3161	0.6846	-0.059
Mof_C 	C 	0.5095	0.3742	0.7188	-0.06
Mof_H 	H 	0.5507	0.4091	0.6904	0.044
Mof_C 	C 	0.5496	0.3794	0.795	0.028
Mof_H 	H 	0.6178	0.4195	0.8172	-0.012
Mof_C 	C 	0.3523	0.3103	0.601	0.34
Mof_C 	C 	0.3551	0.0319	0.8009	-0.01
Mof_H 	H 	0.4474	0.0173	0.8138	0.018
Mof_C 	C 	0.2861	0.0242	0.7266	-0.009
Mof_H 	H 	0.3311	0.0058	0.6904	0.01
Mof_C 	C 	0.1477	0.0444	0.707	-0.134
Mof_C 	C 	0.0881	0.0715	0.7631	-0.037
Mof_H 	H 	0.9952	0.0849	0.7522	0.035
Mof_C 	C 	0.1669	0.0788	0.8358	-0.004
Mof_H 	H 	0.1252	0.0986	0.8729	-0.031
Mof_C 	C 	0.0656	0.0356	0.6265	0.47
Mof_C 	C 	0.4584	0.1652	0.2059	0.003
Mof_H 	H 	0.5199	0.1954	0.1848	-0.013
Mof_C 	C 	0.5013	0.1431	0.2779	-0.012
Mof_H 	H 	0.5912	0.1571	0.3051	0.021
Mof_C 	C 	0.4088	0.0991	0.3107	-0.136
Mof_C 	C 	0.2741	0.0803	0.2705	-0.009
Mof_H 	H 	0.21	0.0523	0.2915	0.02
Mof_C 	C 	0.2391	0.1053	0.1968	-0.006
Mof_H 	H 	0.149	0.0943	0.1684	0.002
Mof_C 	C 	0.4583	0.0692	0.389	0.496
Mof_Cl	Cl	0.1609	0.33025	0.99352	-0.67
Mof_Cl	Cl	0.3581	0.97094	0.04374	-0.877
Mof_Cl	Cl	0.061	0.1192	0.0041	-0.269
Mof_Cu	Cu	0.3889	0.3793	0.0397	0.499
Mof_Cu	Cu	0.0573	0.45246	0.96813	0.803
Mof_Cu	Cu	0.58446	0.33789	0.95437	0.791
Mof_Cu	Cu	0.41125	0.07514	0.96324	0.826
Mof_Cu	Cu	0.2976	0.15125	0.05202	0.892
Mof_Dy	Dy	0.75698	0.02696	0.50955	1.783
Mof_Dy	Dy	0.25131	0.47962	0.50286	1.836
Mof_N 	N 	0.7586	0.3998	0.963	-0.19
Mof_N 	N 	0.4974	0.2512	0.9982	-0.236
Mof_N 	N 	0.5779	0.6338	0.8459	-0.23
Mof_N 	N 	0.053	0.4606	0.8571	-0.227
Mof_N 	N 	0.4974	0.3308	0.8394	-0.232
Mof_N 	N 	0.2981	0.0591	0.8554	-0.225
Mof_N 	N 	0.3327	0.1455	0.1649	-0.199
Mof_O 	O 	0.453	0.5398	0.5759	-0.573
Mof_O 	O 	0.6722	0.5855	0.5942	-0.529
Mof_O 	O 	0.9483	0.4898	0.58	-0.605
Mof_O 	O 	0.1691	0.4569	0.6088	-0.54
Mof_O 	O 	0.2752	0.249	0.5729	-0.307
Mof_O 	O 	0.3867	0.3681	0.5638	-0.438
Mof_O 	O 	0.1258	0.0064	0.5796	-0.602
Mof_O 	O 	0.9423	0.0564	0.6135	-0.557
Mof_O 	O 	0.5832	0.0851	0.4214	-0.572
Mof_O 	O 	0.3739	0.0287	0.4162	-0.579
Mof_O 	O 	0.856	0.8958	0.5458	-0.861
Mof_H 	H 	0.9011	0.9349	0.5709	0.3
Mof_H 	H 	0.9072	0.8628	0.5326	0.377
Mof_C 	C 	0.4806	0.4677	0.0068	-0.341
Mof_Cl	Cl	0.1306	0.1343	0.0401	-0.719
Mof_Cu	Cu	0.4348	0.3617	0.046	0.366
Mof_Cu	Cu	0.1425	0.9785	0.0227	0.701
Mof_Cu	Cu	-0	0	-0	0.532
_end
