# CIF file generated by openbabel 3.1.0, see https://openbabel.org
data_I
_chemical_name_common 'image0'
_cell_length_a 41.982
_cell_length_b 21.5588
_cell_length_c 43.755
_cell_angle_alpha 90
_cell_angle_beta 92.635
_cell_angle_gamma 90
_space_group_name_H-M_alt 'P 1'
_space_group_name_Hall 'P 1'
loop_
    _symmetry_equiv_pos_as_xyz
    x,y,z
loop_
    _atom_site_label
    _atom_site_type_symbol
    _atom_site_fract_x
    _atom_site_fract_y
    _atom_site_fract_z
    _atom_site_occupancy
    In1      In       0.70749    0.05183    0.50499    1.000
    In2      In       0.46020    0.74095    0.25595    1.000
    O1       O        0.24700    0.43440    0.04420    1.000
    O2       O        0.67130    0.95350    0.03970    1.000
    N1       N        0.46250    0.73040    0.20950    1.000
    O3       O        0.66790    0.06560    0.46610    1.000
    N2       N        0.46000    0.75390    0.30310    1.000
    C1       C        0.66570    0.89470    0.03960    1.000
    N3       N        0.41440    0.70640    0.25580    1.000
    O4       O        0.24610    0.54480    0.47330    1.000
    O5       O        0.68100    0.85780    0.02600    1.000
    C2       C        0.52380    0.78540    0.22900    1.000
    C3       C        0.24900    0.59920    0.46930    1.000
    C4       C        0.55040    0.82270    0.23950    1.000
    H1       H        0.56510    0.84160    0.22650    1.000
    C5       C        0.39680    0.68420    0.23140    1.000
    C6       C        0.48570    0.74450    0.19030    1.000
    C7       C        0.40440    0.68530    0.20060    1.000
    C8       C        0.62410    0.88220    0.41730    1.000
    H2       H        0.62430    0.83830    0.41580    1.000
    C9       C        0.64508    0.91210    0.43798    1.000
    H3       H        0.65960    0.88860    0.45060    1.000
    C10      C        0.64477    0.97640    0.44021    1.000
    C11      C        0.62350    0.01080    0.42180    1.000
    H4       H        0.62330    0.05480    0.42330    1.000
    C12      C        0.60250    0.98100    0.40115    1.000
    H5       H        0.58800    0.00450    0.38860    1.000
    C13      C        0.60280    0.91670    0.39892    1.000
    C14      C        0.43510    0.70590    0.19060    1.000
    C15      C        0.38200    0.65880    0.17723    1.000
    C16      C        0.35260    0.68660    0.17060    1.000
    H6       H        0.34700    0.72380    0.18070    1.000
    C17      C        0.33130    0.66000    0.14910    1.000
    H7       H        0.31120    0.67900    0.14460    1.000
    C18      C        0.33940    0.60570    0.13428    1.000
    C19      C        0.36880    0.57780    0.14090    1.000
    H8       H        0.37430    0.54070    0.13080    1.000
    C20      C        0.39005    0.60440    0.16240    1.000
    H9       H        0.41010    0.58540    0.16690    1.000
    C21      C        0.31580    0.57610    0.11120    1.000
    C22      C        0.29500    0.61380    0.09390    1.000
    H10      H        0.29590    0.65760    0.09630    1.000
    C23      C        0.27290    0.58750    0.07320    1.000
    H11      H        0.25870    0.61320    0.06130    1.000
    C24      C        0.27160    0.52340    0.06970    1.000
    C25      C        0.29230    0.48570    0.08690    1.000
    H12      H        0.29140    0.44190    0.08460    1.000
    C26      C        0.31450    0.51200    0.10770    1.000
    H13      H        0.32870    0.48630    0.11950    1.000
    O6       O        0.68450    0.97560    0.48110    1.000
    O7       O        0.23110    0.63330    0.47960    1.000
    N4       N        0.50590    0.77250    0.25660    1.000
    C27      C        0.36670    0.66770    0.27200    1.000
    H14      H        0.35020    0.65600    0.28500    1.000
    C28      C        0.48370    0.78380    0.31960    1.000
    C29      C        0.66670    0.01120    0.46380    1.000
    C30      C        0.36640    0.66050    0.24110    1.000
    H15      H        0.34970    0.64330    0.22840    1.000
    C31      C        0.47460    0.77720    0.35170    1.000
    H16      H        0.48710    0.79060    0.36910    1.000
    C32      C        0.51320    0.77170    0.20020    1.000
    C33      C        0.43630    0.73670    0.32210    1.000
    C34      C        0.38190    0.69770    0.33420    1.000
    C35      C        0.35570    0.73470    0.34000    1.000
    H17      H        0.35160    0.77100    0.32820    1.000
    C36      C        0.33560    0.71850    0.36310    1.000
    H18      H        0.31770    0.74380    0.36700    1.000
    C37      C        0.34160    0.66540    0.38040    1.000
    C38      C        0.36780    0.62840    0.37460    1.000
    H19      H        0.37190    0.59210    0.38640    1.000
    C39      C        0.38790    0.64450    0.35150    1.000
    H20      H        0.40580    0.61920    0.34750    1.000
    C40      C        0.40760    0.71140    0.31110    1.000
    C41      C        0.52160    0.79720    0.27880    1.000
    C42      C        0.57630    0.82380    0.13050    1.000
    C43      C        0.55060    0.86190    0.13670    1.000
    H21      H        0.54720    0.89930    0.12560    1.000
    C44      C        0.53000    0.84520    0.15920    1.000
    H22      H        0.51240    0.87120    0.16340    1.000
    C45      C        0.53490    0.79040    0.17550    1.000
    C46      C        0.56050    0.75230    0.16930    1.000
    H23      H        0.56390    0.71490    0.18040    1.000
    C47      C        0.58120    0.76910    0.14680    1.000
    H24      H        0.59870    0.74300    0.14250    1.000
    C48      C        0.55170    0.82720    0.27130    1.000
    H25      H        0.56770    0.84500    0.28460    1.000
    C49      C        0.39730    0.69720    0.28180    1.000
    C50      C        0.44540    0.70930    0.15930    1.000
    H26      H        0.43340    0.69590    0.14160    1.000
    C51      C        0.44530    0.74900    0.35270    1.000
    H27      H        0.43370    0.73980    0.37030    1.000
    C52      C        0.57930    0.88310    0.37647    1.000
    C53      C        0.54940    0.90900    0.37040    1.000
    H28      H        0.54350    0.94600    0.38050    1.000
    C54      C        0.52809    0.88100    0.34940    1.000
    H29      H        0.50760    0.89870    0.34530    1.000
    C55      C        0.53670    0.82690    0.33456    1.000
    C56      C        0.56660    0.80100    0.34070    1.000
    H30      H        0.57250    0.76410    0.33050    1.000
    C57      C        0.58795    0.82910    0.36160    1.000
    H31      H        0.60840    0.81130    0.36580    1.000
    C58      C        0.51470    0.79750    0.31050    1.000
    C59      C        0.62720    0.91990    0.08060    1.000
    H32      H        0.63070    0.96280    0.07700    1.000
    C60      C        0.64380    0.87560    0.06480    1.000
    C61      C        0.63870    0.81290    0.07010    1.000
    H33      H        0.65010    0.78260    0.05920    1.000
    C62      C        0.61690    0.79450    0.09120    1.000
    H34      H        0.61340    0.75170    0.09480    1.000
    C63      C        0.60020    0.83890    0.10710    1.000
    C64      C        0.60530    0.90160    0.10180    1.000
    H35      H        0.59390    0.93190    0.11260    1.000
    C65      C        0.29750    0.69700    0.41650    1.000
    H36      H        0.29850    0.73850    0.40950    1.000
    C66      C        0.31750    0.65220    0.40500    1.000
    C67      C        0.31600    0.59130    0.41530    1.000
    H37      H        0.32970    0.56070    0.40750    1.000
    C68      C        0.29440    0.57520    0.43710    1.000
    H38      H        0.29340    0.53360    0.44420    1.000
    C69      C        0.27440    0.62000    0.44860    1.000
    C70      C        0.27590    0.68090    0.43830    1.000
    H39      H        0.26220    0.71150    0.44620    1.000
    C71      C        0.47410    0.73400    0.15970    1.000
    H40      H        0.48540    0.74340    0.14200    1.000
    C72      C        0.24760    0.49460    0.04770    1.000
    O8       O        0.22970    0.53060    0.03230    1.000
    In3      In       0.20749    0.55183    0.50499    1.000
    In4      In       0.96020    0.24095    0.25595    1.000
    O9       O        0.74700    0.93440    0.04420    1.000
    O10      O        0.17130    0.45350    0.03970    1.000
    N5       N        0.96250    0.23040    0.20950    1.000
    O11      O        0.16790    0.56560    0.46610    1.000
    N6       N        0.96000    0.25390    0.30310    1.000
    C73      C        0.16570    0.39470    0.03960    1.000
    N7       N        0.91440    0.20640    0.25580    1.000
    O12      O        0.74610    0.04480    0.47330    1.000
    O13      O        0.18100    0.35780    0.02600    1.000
    C74      C        0.02380    0.28540    0.22900    1.000
    C75      C        0.74900    0.09920    0.46930    1.000
    C76      C        0.05040    0.32270    0.23950    1.000
    H41      H        0.06510    0.34160    0.22650    1.000
    C77      C        0.89680    0.18420    0.23140    1.000
    C78      C        0.98570    0.24450    0.19030    1.000
    C79      C        0.90440    0.18530    0.20060    1.000
    C80      C        0.12410    0.38220    0.41730    1.000
    H42      H        0.12430    0.33830    0.41580    1.000
    C81      C        0.14508    0.41210    0.43798    1.000
    H43      H        0.15960    0.38860    0.45060    1.000
    C82      C        0.14477    0.47640    0.44021    1.000
    C83      C        0.12350    0.51080    0.42180    1.000
    H44      H        0.12330    0.55480    0.42330    1.000
    C84      C        0.10250    0.48100    0.40115    1.000
    H45      H        0.08800    0.50450    0.38860    1.000
    C85      C        0.10280    0.41670    0.39892    1.000
    C86      C        0.93510    0.20590    0.19060    1.000
    C87      C        0.88200    0.15880    0.17723    1.000
    C88      C        0.85260    0.18660    0.17060    1.000
    H46      H        0.84700    0.22380    0.18070    1.000
    C89      C        0.83130    0.16000    0.14910    1.000
    H47      H        0.81120    0.17900    0.14460    1.000
    C90      C        0.83940    0.10570    0.13428    1.000
    C91      C        0.86880    0.07780    0.14090    1.000
    H48      H        0.87430    0.04070    0.13080    1.000
    C92      C        0.89005    0.10440    0.16240    1.000
    H49      H        0.91010    0.08540    0.16690    1.000
    C93      C        0.81580    0.07610    0.11120    1.000
    C94      C        0.79500    0.11380    0.09390    1.000
    H50      H        0.79590    0.15760    0.09630    1.000
    C95      C        0.77290    0.08750    0.07320    1.000
    H51      H        0.75870    0.11320    0.06130    1.000
    C96      C        0.77160    0.02340    0.06970    1.000
    C97      C        0.79230    0.98570    0.08690    1.000
    H52      H        0.79140    0.94190    0.08460    1.000
    C98      C        0.81450    0.01200    0.10770    1.000
    H53      H        0.82870    0.98630    0.11950    1.000
    O14      O        0.18450    0.47560    0.48110    1.000
    O15      O        0.73110    0.13330    0.47960    1.000
    N8       N        0.00590    0.27250    0.25660    1.000
    C99      C        0.86670    0.16770    0.27200    1.000
    H54      H        0.85020    0.15600    0.28500    1.000
    C100     C        0.98370    0.28380    0.31960    1.000
    C101     C        0.16670    0.51120    0.46380    1.000
    C102     C        0.86640    0.16050    0.24110    1.000
    H55      H        0.84970    0.14330    0.22840    1.000
    C103     C        0.97460    0.27720    0.35170    1.000
    H56      H        0.98710    0.29060    0.36910    1.000
    C104     C        0.01320    0.27170    0.20020    1.000
    C105     C        0.93630    0.23670    0.32210    1.000
    C106     C        0.88190    0.19770    0.33420    1.000
    C107     C        0.85570    0.23470    0.34000    1.000
    H57      H        0.85160    0.27100    0.32820    1.000
    C108     C        0.83560    0.21850    0.36310    1.000
    H58      H        0.81770    0.24380    0.36700    1.000
    C109     C        0.84160    0.16540    0.38040    1.000
    C110     C        0.86780    0.12840    0.37460    1.000
    H59      H        0.87190    0.09210    0.38640    1.000
    C111     C        0.88790    0.14450    0.35150    1.000
    H60      H        0.90580    0.11920    0.34750    1.000
    C112     C        0.90760    0.21140    0.31110    1.000
    C113     C        0.02160    0.29720    0.27880    1.000
    C114     C        0.07630    0.32380    0.13050    1.000
    C115     C        0.05060    0.36190    0.13670    1.000
    H61      H        0.04720    0.39930    0.12560    1.000
    C116     C        0.03000    0.34520    0.15920    1.000
    H62      H        0.01240    0.37120    0.16340    1.000
    C117     C        0.03490    0.29040    0.17550    1.000
    C118     C        0.06050    0.25230    0.16930    1.000
    H63      H        0.06390    0.21490    0.18040    1.000
    C119     C        0.08120    0.26910    0.14680    1.000
    H64      H        0.09870    0.24300    0.14250    1.000
    C120     C        0.05170    0.32720    0.27130    1.000
    H65      H        0.06770    0.34500    0.28460    1.000
    C121     C        0.89730    0.19720    0.28180    1.000
    C122     C        0.94540    0.20930    0.15930    1.000
    H66      H        0.93340    0.19590    0.14160    1.000
    C123     C        0.94530    0.24900    0.35270    1.000
    H67      H        0.93370    0.23980    0.37030    1.000
    C124     C        0.07930    0.38310    0.37647    1.000
    C125     C        0.04940    0.40900    0.37040    1.000
    H68      H        0.04350    0.44600    0.38050    1.000
    C126     C        0.02809    0.38100    0.34940    1.000
    H69      H        0.00760    0.39870    0.34530    1.000
    C127     C        0.03670    0.32690    0.33456    1.000
    C128     C        0.06660    0.30100    0.34070    1.000
    H70      H        0.07250    0.26410    0.33050    1.000
    C129     C        0.08795    0.32910    0.36160    1.000
    H71      H        0.10840    0.31130    0.36580    1.000
    C130     C        0.01470    0.29750    0.31050    1.000
    C131     C        0.12720    0.41990    0.08060    1.000
    H72      H        0.13070    0.46280    0.07700    1.000
    C132     C        0.14380    0.37560    0.06480    1.000
    C133     C        0.13870    0.31290    0.07010    1.000
    H73      H        0.15010    0.28260    0.05920    1.000
    C134     C        0.11690    0.29450    0.09120    1.000
    H74      H        0.11340    0.25170    0.09480    1.000
    C135     C        0.10020    0.33890    0.10710    1.000
    C136     C        0.10530    0.40160    0.10180    1.000
    H75      H        0.09390    0.43190    0.11260    1.000
    C137     C        0.79750    0.19700    0.41650    1.000
    H76      H        0.79850    0.23850    0.40950    1.000
    C138     C        0.81750    0.15220    0.40500    1.000
    C139     C        0.81600    0.09130    0.41530    1.000
    H77      H        0.82970    0.06070    0.40750    1.000
    C140     C        0.79440    0.07520    0.43710    1.000
    H78      H        0.79340    0.03360    0.44420    1.000
    C141     C        0.77440    0.12000    0.44860    1.000
    C142     C        0.77590    0.18090    0.43830    1.000
    H79      H        0.76220    0.21150    0.44620    1.000
    C143     C        0.97410    0.23400    0.15970    1.000
    H80      H        0.98540    0.24340    0.14200    1.000
    C144     C        0.74760    0.99460    0.04770    1.000
    O16      O        0.72970    0.03060    0.03230    1.000
    In5      In       0.70749    0.94817    0.00499    1.000
    In6      In       0.46020    0.25905    0.75595    1.000
    O17      O        0.24700    0.56560    0.54420    1.000
    O18      O        0.67130    0.04650    0.53970    1.000
    N9       N        0.46250    0.26960    0.70950    1.000
    O19      O        0.66790    0.93440    0.96610    1.000
    N10      N        0.46000    0.24610    0.80310    1.000
    C145     C        0.66570    0.10530    0.53960    1.000
    N11      N        0.41440    0.29360    0.75580    1.000
    O20      O        0.24610    0.45520    0.97330    1.000
    O21      O        0.68100    0.14220    0.52600    1.000
    C146     C        0.52380    0.21460    0.72900    1.000
    C147     C        0.24900    0.40080    0.96930    1.000
    C148     C        0.55040    0.17730    0.73950    1.000
    H81      H        0.56510    0.15840    0.72650    1.000
    C149     C        0.39680    0.31580    0.73140    1.000
    C150     C        0.48570    0.25550    0.69030    1.000
    C151     C        0.40440    0.31470    0.70060    1.000
    C152     C        0.62410    0.11780    0.91730    1.000
    H82      H        0.62430    0.16170    0.91580    1.000
    C153     C        0.64508    0.08790    0.93798    1.000
    H83      H        0.65960    0.11140    0.95060    1.000
    C154     C        0.64477    0.02360    0.94021    1.000
    C155     C        0.62350    0.98920    0.92180    1.000
    H84      H        0.62330    0.94520    0.92330    1.000
    C156     C        0.60250    0.01900    0.90115    1.000
    H85      H        0.58800    0.99550    0.88860    1.000
    C157     C        0.60280    0.08330    0.89892    1.000
    C158     C        0.43510    0.29410    0.69060    1.000
    C159     C        0.38200    0.34120    0.67723    1.000
    C160     C        0.35260    0.31340    0.67060    1.000
    H86      H        0.34700    0.27620    0.68070    1.000
    C161     C        0.33130    0.34000    0.64910    1.000
    H87      H        0.31120    0.32100    0.64460    1.000
    C162     C        0.33940    0.39430    0.63428    1.000
    C163     C        0.36880    0.42220    0.64090    1.000
    H88      H        0.37430    0.45930    0.63080    1.000
    C164     C        0.39005    0.39560    0.66240    1.000
    H89      H        0.41010    0.41460    0.66690    1.000
    C165     C        0.31580    0.42390    0.61120    1.000
    C166     C        0.29500    0.38620    0.59390    1.000
    H90      H        0.29590    0.34240    0.59630    1.000
    C167     C        0.27290    0.41250    0.57320    1.000
    H91      H        0.25870    0.38680    0.56130    1.000
    C168     C        0.27160    0.47660    0.56970    1.000
    C169     C        0.29230    0.51430    0.58690    1.000
    H92      H        0.29140    0.55810    0.58460    1.000
    C170     C        0.31450    0.48800    0.60770    1.000
    H93      H        0.32870    0.51370    0.61950    1.000
    O22      O        0.68450    0.02440    0.98110    1.000
    O23      O        0.23110    0.36670    0.97960    1.000
    N12      N        0.50590    0.22750    0.75660    1.000
    C171     C        0.36670    0.33230    0.77200    1.000
    H94      H        0.35020    0.34400    0.78500    1.000
    C172     C        0.48370    0.21620    0.81960    1.000
    C173     C        0.66670    0.98880    0.96380    1.000
    C174     C        0.36640    0.33950    0.74110    1.000
    H95      H        0.34970    0.35670    0.72840    1.000
    C175     C        0.47460    0.22280    0.85170    1.000
    H96      H        0.48710    0.20940    0.86910    1.000
    C176     C        0.51320    0.22830    0.70020    1.000
    C177     C        0.43630    0.26330    0.82210    1.000
    C178     C        0.38190    0.30230    0.83420    1.000
    C179     C        0.35570    0.26530    0.84000    1.000
    H97      H        0.35160    0.22900    0.82820    1.000
    C180     C        0.33560    0.28150    0.86310    1.000
    H98      H        0.31770    0.25620    0.86700    1.000
    C181     C        0.34160    0.33460    0.88040    1.000
    C182     C        0.36780    0.37160    0.87460    1.000
    H99      H        0.37190    0.40790    0.88640    1.000
    C183     C        0.38790    0.35550    0.85150    1.000
    H100     H        0.40580    0.38080    0.84750    1.000
    C184     C        0.40760    0.28860    0.81110    1.000
    C185     C        0.52160    0.20280    0.77880    1.000
    C186     C        0.57630    0.17620    0.63050    1.000
    C187     C        0.55060    0.13810    0.63670    1.000
    H101     H        0.54720    0.10070    0.62560    1.000
    C188     C        0.53000    0.15480    0.65920    1.000
    H102     H        0.51240    0.12880    0.66340    1.000
    C189     C        0.53490    0.20960    0.67550    1.000
    C190     C        0.56050    0.24770    0.66930    1.000
    H103     H        0.56390    0.28510    0.68040    1.000
    C191     C        0.58120    0.23090    0.64680    1.000
    H104     H        0.59870    0.25700    0.64250    1.000
    C192     C        0.55170    0.17280    0.77130    1.000
    H105     H        0.56770    0.15500    0.78460    1.000
    C193     C        0.39730    0.30280    0.78180    1.000
    C194     C        0.44540    0.29070    0.65930    1.000
    H106     H        0.43340    0.30410    0.64160    1.000
    C195     C        0.44530    0.25100    0.85270    1.000
    H107     H        0.43370    0.26020    0.87030    1.000
    C196     C        0.57930    0.11690    0.87647    1.000
    C197     C        0.54940    0.09100    0.87040    1.000
    H108     H        0.54350    0.05400    0.88050    1.000
    C198     C        0.52809    0.11900    0.84940    1.000
    H109     H        0.50760    0.10130    0.84530    1.000
    C199     C        0.53670    0.17310    0.83456    1.000
    C200     C        0.56660    0.19900    0.84070    1.000
    H110     H        0.57250    0.23590    0.83050    1.000
    C201     C        0.58795    0.17090    0.86160    1.000
    H111     H        0.60840    0.18870    0.86580    1.000
    C202     C        0.51470    0.20250    0.81050    1.000
    C203     C        0.62720    0.08010    0.58060    1.000
    H112     H        0.63070    0.03720    0.57700    1.000
    C204     C        0.64380    0.12440    0.56480    1.000
    C205     C        0.63870    0.18710    0.57010    1.000
    H113     H        0.65010    0.21740    0.55920    1.000
    C206     C        0.61690    0.20550    0.59120    1.000
    H114     H        0.61340    0.24830    0.59480    1.000
    C207     C        0.60020    0.16110    0.60710    1.000
    C208     C        0.60530    0.09840    0.60180    1.000
    H115     H        0.59390    0.06810    0.61260    1.000
    C209     C        0.29750    0.30300    0.91650    1.000
    H116     H        0.29850    0.26150    0.90950    1.000
    C210     C        0.31750    0.34780    0.90500    1.000
    C211     C        0.31600    0.40870    0.91530    1.000
    H117     H        0.32970    0.43930    0.90750    1.000
    C212     C        0.29440    0.42480    0.93710    1.000
    H118     H        0.29340    0.46640    0.94420    1.000
    C213     C        0.27440    0.38000    0.94860    1.000
    C214     C        0.27590    0.31910    0.93830    1.000
    H119     H        0.26220    0.28850    0.94620    1.000
    C215     C        0.47410    0.26600    0.65970    1.000
    H120     H        0.48540    0.25660    0.64200    1.000
    C216     C        0.24760    0.50540    0.54770    1.000
    O24      O        0.22970    0.46940    0.53230    1.000
    In7      In       0.20749    0.44817    0.00499    1.000
    In8      In       0.96020    0.75905    0.75595    1.000
    O25      O        0.74700    0.06560    0.54420    1.000
    O26      O        0.17130    0.54650    0.53970    1.000
    N13      N        0.96250    0.76960    0.70950    1.000
    O27      O        0.16790    0.43440    0.96610    1.000
    N14      N        0.96000    0.74610    0.80310    1.000
    C217     C        0.16570    0.60530    0.53960    1.000
    N15      N        0.91440    0.79360    0.75580    1.000
    O28      O        0.74610    0.95520    0.97330    1.000
    O29      O        0.18100    0.64220    0.52600    1.000
    C218     C        0.02380    0.71460    0.72900    1.000
    C219     C        0.74900    0.90080    0.96930    1.000
    C220     C        0.05040    0.67730    0.73950    1.000
    H121     H        0.06510    0.65840    0.72650    1.000
    C221     C        0.89680    0.81580    0.73140    1.000
    C222     C        0.98570    0.75550    0.69030    1.000
    C223     C        0.90440    0.81470    0.70060    1.000
    C224     C        0.12410    0.61780    0.91730    1.000
    H122     H        0.12430    0.66170    0.91580    1.000
    C225     C        0.14508    0.58790    0.93798    1.000
    H123     H        0.15960    0.61140    0.95060    1.000
    C226     C        0.14477    0.52360    0.94021    1.000
    C227     C        0.12350    0.48920    0.92180    1.000
    H124     H        0.12330    0.44520    0.92330    1.000
    C228     C        0.10250    0.51900    0.90115    1.000
    H125     H        0.08800    0.49550    0.88860    1.000
    C229     C        0.10280    0.58330    0.89892    1.000
    C230     C        0.93510    0.79410    0.69060    1.000
    C231     C        0.88200    0.84120    0.67723    1.000
    C232     C        0.85260    0.81340    0.67060    1.000
    H126     H        0.84700    0.77620    0.68070    1.000
    C233     C        0.83130    0.84000    0.64910    1.000
    H127     H        0.81120    0.82100    0.64460    1.000
    C234     C        0.83940    0.89430    0.63428    1.000
    C235     C        0.86880    0.92220    0.64090    1.000
    H128     H        0.87430    0.95930    0.63080    1.000
    C236     C        0.89005    0.89560    0.66240    1.000
    H129     H        0.91010    0.91460    0.66690    1.000
    C237     C        0.81580    0.92390    0.61120    1.000
    C238     C        0.79500    0.88620    0.59390    1.000
    H130     H        0.79590    0.84240    0.59630    1.000
    C239     C        0.77290    0.91250    0.57320    1.000
    H131     H        0.75870    0.88680    0.56130    1.000
    C240     C        0.77160    0.97660    0.56970    1.000
    C241     C        0.79230    0.01430    0.58690    1.000
    H132     H        0.79140    0.05810    0.58460    1.000
    C242     C        0.81450    0.98800    0.60770    1.000
    H133     H        0.82870    0.01370    0.61950    1.000
    O30      O        0.18450    0.52440    0.98110    1.000
    O31      O        0.73110    0.86670    0.97960    1.000
    N16      N        0.00590    0.72750    0.75660    1.000
    C243     C        0.86670    0.83230    0.77200    1.000
    H134     H        0.85020    0.84400    0.78500    1.000
    C244     C        0.98370    0.71620    0.81960    1.000
    C245     C        0.16670    0.48880    0.96380    1.000
    C246     C        0.86640    0.83950    0.74110    1.000
    H135     H        0.84970    0.85670    0.72840    1.000
    C247     C        0.97460    0.72280    0.85170    1.000
    H136     H        0.98710    0.70940    0.86910    1.000
    C248     C        0.01320    0.72830    0.70020    1.000
    C249     C        0.93630    0.76330    0.82210    1.000
    C250     C        0.88190    0.80230    0.83420    1.000
    C251     C        0.85570    0.76530    0.84000    1.000
    H137     H        0.85160    0.72900    0.82820    1.000
    C252     C        0.83560    0.78150    0.86310    1.000
    H138     H        0.81770    0.75620    0.86700    1.000
    C253     C        0.84160    0.83460    0.88040    1.000
    C254     C        0.86780    0.87160    0.87460    1.000
    H139     H        0.87190    0.90790    0.88640    1.000
    C255     C        0.88790    0.85550    0.85150    1.000
    H140     H        0.90580    0.88080    0.84750    1.000
    C256     C        0.90760    0.78860    0.81110    1.000
    C257     C        0.02160    0.70280    0.77880    1.000
    C258     C        0.07630    0.67620    0.63050    1.000
    C259     C        0.05060    0.63810    0.63670    1.000
    H141     H        0.04720    0.60070    0.62560    1.000
    C260     C        0.03000    0.65480    0.65920    1.000
    H142     H        0.01240    0.62880    0.66340    1.000
    C261     C        0.03490    0.70960    0.67550    1.000
    C262     C        0.06050    0.74770    0.66930    1.000
    H143     H        0.06390    0.78510    0.68040    1.000
    C263     C        0.08120    0.73090    0.64680    1.000
    H144     H        0.09870    0.75700    0.64250    1.000
    C264     C        0.05170    0.67280    0.77130    1.000
    H145     H        0.06770    0.65500    0.78460    1.000
    C265     C        0.89730    0.80280    0.78180    1.000
    C266     C        0.94540    0.79070    0.65930    1.000
    H146     H        0.93340    0.80410    0.64160    1.000
    C267     C        0.94530    0.75100    0.85270    1.000
    H147     H        0.93370    0.76020    0.87030    1.000
    C268     C        0.07930    0.61690    0.87647    1.000
    C269     C        0.04940    0.59100    0.87040    1.000
    H148     H        0.04350    0.55400    0.88050    1.000
    C270     C        0.02809    0.61900    0.84940    1.000
    H149     H        0.00760    0.60130    0.84530    1.000
    C271     C        0.03670    0.67310    0.83456    1.000
    C272     C        0.06660    0.69900    0.84070    1.000
    H150     H        0.07250    0.73590    0.83050    1.000
    C273     C        0.08795    0.67090    0.86160    1.000
    H151     H        0.10840    0.68870    0.86580    1.000
    C274     C        0.01470    0.70250    0.81050    1.000
    C275     C        0.12720    0.58010    0.58060    1.000
    H152     H        0.13070    0.53720    0.57700    1.000
    C276     C        0.14380    0.62440    0.56480    1.000
    C277     C        0.13870    0.68710    0.57010    1.000
    H153     H        0.15010    0.71740    0.55920    1.000
    C278     C        0.11690    0.70550    0.59120    1.000
    H154     H        0.11340    0.74830    0.59480    1.000
    C279     C        0.10020    0.66110    0.60710    1.000
    C280     C        0.10530    0.59840    0.60180    1.000
    H155     H        0.09390    0.56810    0.61260    1.000
    C281     C        0.79750    0.80300    0.91650    1.000
    H156     H        0.79850    0.76150    0.90950    1.000
    C282     C        0.81750    0.84780    0.90500    1.000
    C283     C        0.81600    0.90870    0.91530    1.000
    H157     H        0.82970    0.93930    0.90750    1.000
    C284     C        0.79440    0.92480    0.93710    1.000
    H158     H        0.79340    0.96640    0.94420    1.000
    C285     C        0.77440    0.88000    0.94860    1.000
    C286     C        0.77590    0.81910    0.93830    1.000
    H159     H        0.76220    0.78850    0.94620    1.000
    C287     C        0.97410    0.76600    0.65970    1.000
    H160     H        0.98540    0.75660    0.64200    1.000
    C288     C        0.74760    0.00540    0.54770    1.000
    O32      O        0.72970    0.96940    0.53230    1.000
    In9      In       0.45741    0.54375    0.63047    1.000
    In10     In       0.20736    0.24726    0.38160    1.000
    O33      O        0.41810    0.55960    0.59130    1.000
    N17      N        0.16100    0.21600    0.38270    1.000
    O34      O        0.99760    0.03040    0.59790    1.000
    O35      O        0.41860    0.47040    0.16230    1.000
    C289     C        0.22690    0.30510    0.44570    1.000
    O36      O        0.97830    0.04400    0.15690    1.000
    O37      O        0.43380    0.46890    0.60380    1.000
    C290     C        0.23000    0.26070    0.31520    1.000
    O38      O        0.98230    0.12370    0.60760    1.000
    C291     C        0.12875    0.21030    0.46121    1.000
    C292     C        0.13888    0.17690    0.48710    1.000
    H161     H        0.16050    0.16430    0.48970    1.000
    C293     C        0.11730    0.16200    0.50909    1.000
    H162     H        0.12430    0.13920    0.52680    1.000
    C294     C        0.08570    0.18030    0.50528    1.000
    C295     C        0.07554    0.21370    0.47940    1.000
    H163     H        0.05390    0.22630    0.47680    1.000
    C296     C        0.09710    0.22860    0.45740    1.000
    H164     H        0.09020    0.25140    0.43970    1.000
    N18      N        0.20550    0.27400    0.42910    1.000
    C297     C        0.18020    0.25760    0.44690    1.000
    N19      N        0.24820    0.29900    0.38060    1.000
    N20      N        0.20540    0.24570    0.33400    1.000
    O39      O        0.99430    0.95170    0.16890    1.000
    O40      O        0.43420    0.37060    0.15900    1.000
    C298     C        0.99530    0.01010    0.17210    1.000
    C299     C        0.15120    0.22670    0.43690    1.000
    C300     C        0.26690    0.32500    0.40510    1.000
    C301     C        0.29390    0.35030    0.36380    1.000
    H165     H        0.30970    0.36450    0.35060    1.000
    C302     C        0.29360    0.35900    0.39450    1.000
    H166     H        0.30820    0.38320    0.40660    1.000
    C303     C        0.14240    0.20220    0.40710    1.000
    C304     C        0.26590    0.31550    0.35490    1.000
    C305     C        0.37350    0.51720    0.54780    1.000
    H167     H        0.37630    0.56080    0.54960    1.000
    C306     C        0.35090    0.49330    0.52680    1.000
    H168     H        0.33830    0.52050    0.51420    1.000
    C307     C        0.34680    0.42950    0.52413    1.000
    C308     C        0.36530    0.38960    0.54260    1.000
    H169     H        0.36250    0.34600    0.54080    1.000
    C309     C        0.38780    0.41350    0.56363    1.000
    H170     H        0.40040    0.38630    0.57620    1.000
    C310     C        0.39193    0.47730    0.56627    1.000
    C311     C        0.11520    0.16040    0.36820    1.000
    H171     H        0.09930    0.14000    0.35570    1.000
    C312     C        0.25620    0.32400    0.43530    1.000
    C313     C        0.14380    0.18820    0.35710    1.000
    C314     C        0.21570    0.31240    0.47670    1.000
    H172     H        0.22680    0.33070    0.49380    1.000
    C315     C        0.18610    0.28730    0.47560    1.000
    H173     H        0.17160    0.28930    0.49160    1.000
    C316     C        0.06450    0.01900    0.23010    1.000
    H174     H        0.08060    0.99340    0.23930    1.000
    C317     C        0.06340    0.08180    0.23720    1.000
    C318     C        0.03970    0.11920    0.22370    1.000
    H175     H        0.03900    0.16210    0.22860    1.000
    C319     C        0.01720    0.09400    0.20310    1.000
    H176     H        0.00110    0.11960    0.19380    1.000
    C320     C        0.01830    0.03120    0.19590    1.000
    C321     C        0.04190    0.99370    0.20940    1.000
    H177     H        0.04270    0.95090    0.20450    1.000
    C322     C        0.06550    0.15640    0.52981    1.000
    C323     C        0.04230    0.19610    0.54040    1.000
    H178     H        0.04120    0.23780    0.53350    1.000
    C324     C        0.02084    0.17470    0.56130    1.000
    H179     H        0.00500    0.20180    0.56850    1.000
    C325     C        0.02250    0.11370    0.57144    1.000
    C326     C        0.04560    0.07400    0.56080    1.000
    H180     H        0.04670    0.03230    0.56780    1.000
    C327     C        0.06710    0.09540    0.54000    1.000
    H181     H        0.08290    0.06830    0.53270    1.000
    C328     C        0.18150    0.21840    0.31530    1.000
    C329     C        0.25840    0.29020    0.32380    1.000
    C330     C        0.32388    0.40290    0.50116    1.000
    C331     C        0.29550    0.43440    0.49434    1.000
    H182     H        0.29150    0.47280    0.50410    1.000
    C332     C        0.27320    0.40970    0.47329    1.000
    H183     H        0.25380    0.43120    0.46860    1.000
    C333     C        0.27919    0.35350    0.45907    1.000
    C334     C        0.30750    0.32200    0.46589    1.000
    H184     H        0.31160    0.28360    0.45620    1.000
    C335     C        0.32987    0.34670    0.48690    1.000
    H185     H        0.34920    0.32520    0.49160    1.000
    C336     C        0.33245    0.29950    0.27870    1.000
    H186     H        0.35310    0.28160    0.27940    1.000
    C337     C        0.31080    0.28340    0.30042    1.000
    H187     H        0.31670    0.25450    0.31600    1.000
    C338     C        0.28050    0.30960    0.29933    1.000
    C339     C        0.27190    0.35200    0.27650    1.000
    H188     H        0.25120    0.36990    0.27570    1.000
    C340     C        0.29350    0.36810    0.25472    1.000
    H189     H        0.28760    0.39710    0.23910    1.000
    C341     C        0.32380    0.34190    0.25580    1.000
    C342     C        0.11420    0.16750    0.39850    1.000
    H190     H        0.09830    0.15290    0.41150    1.000
    C343     C        0.15400    0.18570    0.32560    1.000
    C344     C        0.19060    0.21870    0.28450    1.000
    H191     H        0.17850    0.20400    0.26710    1.000
    C345     C        0.34850    0.36280    0.23507    1.000
    C346     C        0.37330    0.32300    0.22850    1.000
    H192     H        0.37500    0.28360    0.23820    1.000
    C347     C        0.39570    0.34070    0.20780    1.000
    H193     H        0.41270    0.31350    0.20330    1.000
    C348     C        0.39330    0.39830    0.19359    1.000
    C349     C        0.36840    0.43810    0.20010    1.000
    H194     H        0.36680    0.47750    0.19040    1.000
    C350     C        0.34610    0.42040    0.22090    1.000
    H195     H        0.32910    0.44760    0.22530    1.000
    C351     C        0.13060    0.15490    0.30400    1.000
    C352     C        0.12430    0.09170    0.30310    1.000
    H196     H        0.13440    0.06470    0.31770    1.000
    C353     C        0.10310    0.06780    0.28080    1.000
    H197     H        0.09870    0.02450    0.28010    1.000
    C354     C        0.08820    0.10710    0.25938    1.000
    C355     C        0.09460    0.17040    0.26030    1.000
    H198     H        0.08440    0.19730    0.24570    1.000
    C356     C        0.11580    0.19430    0.28260    1.000
    H199     H        0.12010    0.23750    0.28330    1.000
    C357     C        0.22040    0.24430    0.28510    1.000
    H200     H        0.23280    0.25020    0.26770    1.000
    C358     C        0.41700    0.41760    0.16930    1.000
    C359     C        0.41650    0.50310    0.58720    1.000
    C360     C        0.00010    0.08480    0.59430    1.000
    In11     In       0.95741    0.04375    0.63047    1.000
    In12     In       0.70736    0.74726    0.38160    1.000
    O41      O        0.91810    0.05960    0.59130    1.000
    N21      N        0.66100    0.71600    0.38270    1.000
    O42      O        0.49760    0.53040    0.59790    1.000
    O43      O        0.91860    0.97040    0.16230    1.000
    C361     C        0.72690    0.80510    0.44570    1.000
    O44      O        0.47830    0.54400    0.15690    1.000
    O45      O        0.93380    0.96890    0.60380    1.000
    C362     C        0.73000    0.76070    0.31520    1.000
    O46      O        0.48230    0.62370    0.60760    1.000
    C363     C        0.62875    0.71030    0.46121    1.000
    C364     C        0.63888    0.67690    0.48710    1.000
    H201     H        0.66050    0.66430    0.48970    1.000
    C365     C        0.61730    0.66200    0.50909    1.000
    H202     H        0.62430    0.63920    0.52680    1.000
    C366     C        0.58570    0.68030    0.50528    1.000
    C367     C        0.57554    0.71370    0.47940    1.000
    H203     H        0.55390    0.72630    0.47680    1.000
    C368     C        0.59710    0.72860    0.45740    1.000
    H204     H        0.59020    0.75140    0.43970    1.000
    N22      N        0.70550    0.77400    0.42910    1.000
    C369     C        0.68020    0.75760    0.44690    1.000
    N23      N        0.74820    0.79900    0.38060    1.000
    N24      N        0.70540    0.74570    0.33400    1.000
    O47      O        0.49430    0.45170    0.16890    1.000
    O48      O        0.93420    0.87060    0.15900    1.000
    C370     C        0.49530    0.51010    0.17210    1.000
    C371     C        0.65120    0.72670    0.43690    1.000
    C372     C        0.76690    0.82500    0.40510    1.000
    C373     C        0.79390    0.85030    0.36380    1.000
    H205     H        0.80970    0.86450    0.35060    1.000
    C374     C        0.79360    0.85900    0.39450    1.000
    H206     H        0.80820    0.88320    0.40660    1.000
    C375     C        0.64240    0.70220    0.40710    1.000
    C376     C        0.76590    0.81550    0.35490    1.000
    C377     C        0.87350    0.01720    0.54780    1.000
    H207     H        0.87630    0.06080    0.54960    1.000
    C378     C        0.85090    0.99330    0.52680    1.000
    H208     H        0.83830    0.02050    0.51420    1.000
    C379     C        0.84680    0.92950    0.52413    1.000
    C380     C        0.86530    0.88960    0.54260    1.000
    H209     H        0.86250    0.84600    0.54080    1.000
    C381     C        0.88780    0.91350    0.56363    1.000
    H210     H        0.90040    0.88630    0.57620    1.000
    C382     C        0.89193    0.97730    0.56627    1.000
    C383     C        0.61520    0.66040    0.36820    1.000
    H211     H        0.59930    0.64000    0.35570    1.000
    C384     C        0.75620    0.82400    0.43530    1.000
    C385     C        0.64380    0.68820    0.35710    1.000
    C386     C        0.71570    0.81240    0.47670    1.000
    H212     H        0.72680    0.83070    0.49380    1.000
    C387     C        0.68610    0.78730    0.47560    1.000
    H213     H        0.67160    0.78930    0.49160    1.000
    C388     C        0.56450    0.51900    0.23010    1.000
    H214     H        0.58060    0.49340    0.23930    1.000
    C389     C        0.56340    0.58180    0.23720    1.000
    C390     C        0.53970    0.61920    0.22370    1.000
    H215     H        0.53900    0.66210    0.22860    1.000
    C391     C        0.51720    0.59400    0.20310    1.000
    H216     H        0.50110    0.61960    0.19380    1.000
    C392     C        0.51830    0.53120    0.19590    1.000
    C393     C        0.54190    0.49370    0.20940    1.000
    H217     H        0.54270    0.45090    0.20450    1.000
    C394     C        0.56550    0.65640    0.52981    1.000
    C395     C        0.54230    0.69610    0.54040    1.000
    H218     H        0.54120    0.73780    0.53350    1.000
    C396     C        0.52084    0.67470    0.56130    1.000
    H219     H        0.50500    0.70180    0.56850    1.000
    C397     C        0.52250    0.61370    0.57144    1.000
    C398     C        0.54560    0.57400    0.56080    1.000
    H220     H        0.54670    0.53230    0.56780    1.000
    C399     C        0.56710    0.59540    0.54000    1.000
    H221     H        0.58290    0.56830    0.53270    1.000
    C400     C        0.68150    0.71840    0.31530    1.000
    C401     C        0.75840    0.79020    0.32380    1.000
    C402     C        0.82388    0.90290    0.50116    1.000
    C403     C        0.79550    0.93440    0.49434    1.000
    H222     H        0.79150    0.97280    0.50410    1.000
    C404     C        0.77320    0.90970    0.47329    1.000
    H223     H        0.75380    0.93120    0.46860    1.000
    C405     C        0.77919    0.85350    0.45907    1.000
    C406     C        0.80750    0.82200    0.46589    1.000
    H224     H        0.81160    0.78360    0.45620    1.000
    C407     C        0.82987    0.84670    0.48690    1.000
    H225     H        0.84920    0.82520    0.49160    1.000
    C408     C        0.83245    0.79950    0.27870    1.000
    H226     H        0.85310    0.78160    0.27940    1.000
    C409     C        0.81080    0.78340    0.30042    1.000
    H227     H        0.81670    0.75450    0.31600    1.000
    C410     C        0.78050    0.80960    0.29933    1.000
    C411     C        0.77190    0.85200    0.27650    1.000
    H228     H        0.75120    0.86990    0.27570    1.000
    C412     C        0.79350    0.86810    0.25472    1.000
    H229     H        0.78760    0.89710    0.23910    1.000
    C413     C        0.82380    0.84190    0.25580    1.000
    C414     C        0.61420    0.66750    0.39850    1.000
    H230     H        0.59830    0.65290    0.41150    1.000
    C415     C        0.65400    0.68570    0.32560    1.000
    C416     C        0.69060    0.71870    0.28450    1.000
    H231     H        0.67850    0.70400    0.26710    1.000
    C417     C        0.84850    0.86280    0.23507    1.000
    C418     C        0.87330    0.82300    0.22850    1.000
    H232     H        0.87500    0.78360    0.23820    1.000
    C419     C        0.89570    0.84070    0.20780    1.000
    H233     H        0.91270    0.81350    0.20330    1.000
    C420     C        0.89330    0.89830    0.19359    1.000
    C421     C        0.86840    0.93810    0.20010    1.000
    H234     H        0.86680    0.97750    0.19040    1.000
    C422     C        0.84610    0.92040    0.22090    1.000
    H235     H        0.82910    0.94760    0.22530    1.000
    C423     C        0.63060    0.65490    0.30400    1.000
    C424     C        0.62430    0.59170    0.30310    1.000
    H236     H        0.63440    0.56470    0.31770    1.000
    C425     C        0.60310    0.56780    0.28080    1.000
    H237     H        0.59870    0.52450    0.28010    1.000
    C426     C        0.58820    0.60710    0.25938    1.000
    C427     C        0.59460    0.67040    0.26030    1.000
    H238     H        0.58440    0.69730    0.24570    1.000
    C428     C        0.61580    0.69430    0.28260    1.000
    H239     H        0.62010    0.73750    0.28330    1.000
    C429     C        0.72040    0.74430    0.28510    1.000
    H240     H        0.73280    0.75020    0.26770    1.000
    C430     C        0.91700    0.91760    0.16930    1.000
    C431     C        0.91650    0.00310    0.58720    1.000
    C432     C        0.50010    0.58480    0.59430    1.000
    In13     In       0.45741    0.45625    0.13047    1.000
    In14     In       0.20736    0.75274    0.88160    1.000
    O49      O        0.41810    0.44040    0.09130    1.000
    N25      N        0.16100    0.78400    0.88270    1.000
    O50      O        0.99760    0.96960    0.09790    1.000
    O51      O        0.41860    0.52960    0.66230    1.000
    C433     C        0.22690    0.69490    0.94570    1.000
    O52      O        0.97830    0.95600    0.65690    1.000
    O53      O        0.43380    0.53110    0.10380    1.000
    C434     C        0.23000    0.73930    0.81520    1.000
    O54      O        0.98230    0.87630    0.10760    1.000
    C435     C        0.12875    0.78970    0.96121    1.000
    C436     C        0.13888    0.82310    0.98710    1.000
    H241     H        0.16050    0.83570    0.98970    1.000
    C437     C        0.11730    0.83800    0.00909    1.000
    H242     H        0.12430    0.86080    0.02680    1.000
    C438     C        0.08570    0.81970    0.00528    1.000
    C439     C        0.07554    0.78630    0.97940    1.000
    H243     H        0.05390    0.77370    0.97680    1.000
    C440     C        0.09710    0.77140    0.95740    1.000
    H244     H        0.09020    0.74860    0.93970    1.000
    N26      N        0.20550    0.72600    0.92910    1.000
    C441     C        0.18020    0.74240    0.94690    1.000
    N27      N        0.24820    0.70100    0.88060    1.000
    N28      N        0.20540    0.75430    0.83400    1.000
    O55      O        0.99430    0.04830    0.66890    1.000
    O56      O        0.43420    0.62940    0.65900    1.000
    C442     C        0.99530    0.98990    0.67210    1.000
    C443     C        0.15120    0.77330    0.93690    1.000
    C444     C        0.26690    0.67500    0.90510    1.000
    C445     C        0.29390    0.64970    0.86380    1.000
    H245     H        0.30970    0.63550    0.85060    1.000
    C446     C        0.29360    0.64100    0.89450    1.000
    H246     H        0.30820    0.61680    0.90660    1.000
    C447     C        0.14240    0.79780    0.90710    1.000
    C448     C        0.26590    0.68450    0.85490    1.000
    C449     C        0.37350    0.48280    0.04780    1.000
    H247     H        0.37630    0.43920    0.04960    1.000
    C450     C        0.35090    0.50670    0.02680    1.000
    H248     H        0.33830    0.47950    0.01420    1.000
    C451     C        0.34680    0.57050    0.02413    1.000
    C452     C        0.36530    0.61040    0.04260    1.000
    H249     H        0.36250    0.65400    0.04080    1.000
    C453     C        0.38780    0.58650    0.06363    1.000
    H250     H        0.40040    0.61370    0.07620    1.000
    C454     C        0.39193    0.52270    0.06627    1.000
    C455     C        0.11520    0.83960    0.86820    1.000
    H251     H        0.09930    0.86000    0.85570    1.000
    C456     C        0.25620    0.67600    0.93530    1.000
    C457     C        0.14380    0.81180    0.85710    1.000
    C458     C        0.21570    0.68760    0.97670    1.000
    H252     H        0.22680    0.66930    0.99380    1.000
    C459     C        0.18610    0.71270    0.97560    1.000
    H253     H        0.17160    0.71070    0.99160    1.000
    C460     C        0.06450    0.98100    0.73010    1.000
    H254     H        0.08060    0.00660    0.73930    1.000
    C461     C        0.06340    0.91820    0.73720    1.000
    C462     C        0.03970    0.88080    0.72370    1.000
    H255     H        0.03900    0.83790    0.72860    1.000
    C463     C        0.01720    0.90600    0.70310    1.000
    H256     H        0.00110    0.88040    0.69380    1.000
    C464     C        0.01830    0.96880    0.69590    1.000
    C465     C        0.04190    0.00630    0.70940    1.000
    H257     H        0.04270    0.04910    0.70450    1.000
    C466     C        0.06550    0.84360    0.02981    1.000
    C467     C        0.04230    0.80390    0.04040    1.000
    H258     H        0.04120    0.76220    0.03350    1.000
    C468     C        0.02084    0.82530    0.06130    1.000
    H259     H        0.00500    0.79820    0.06850    1.000
    C469     C        0.02250    0.88630    0.07144    1.000
    C470     C        0.04560    0.92600    0.06080    1.000
    H260     H        0.04670    0.96770    0.06780    1.000
    C471     C        0.06710    0.90460    0.04000    1.000
    H261     H        0.08290    0.93170    0.03270    1.000
    C472     C        0.18150    0.78160    0.81530    1.000
    C473     C        0.25840    0.70980    0.82380    1.000
    C474     C        0.32388    0.59710    0.00116    1.000
    C475     C        0.29550    0.56560    0.99434    1.000
    H262     H        0.29150    0.52720    0.00410    1.000
    C476     C        0.27320    0.59030    0.97329    1.000
    H263     H        0.25380    0.56880    0.96860    1.000
    C477     C        0.27919    0.64650    0.95907    1.000
    C478     C        0.30750    0.67800    0.96589    1.000
    H264     H        0.31160    0.71640    0.95620    1.000
    C479     C        0.32987    0.65330    0.98690    1.000
    H265     H        0.34920    0.67480    0.99160    1.000
    C480     C        0.33245    0.70050    0.77870    1.000
    H266     H        0.35310    0.71840    0.77940    1.000
    C481     C        0.31080    0.71660    0.80042    1.000
    H267     H        0.31670    0.74550    0.81600    1.000
    C482     C        0.28050    0.69040    0.79933    1.000
    C483     C        0.27190    0.64800    0.77650    1.000
    H268     H        0.25120    0.63010    0.77570    1.000
    C484     C        0.29350    0.63190    0.75472    1.000
    H269     H        0.28760    0.60290    0.73910    1.000
    C485     C        0.32380    0.65810    0.75580    1.000
    C486     C        0.11420    0.83250    0.89850    1.000
    H270     H        0.09830    0.84710    0.91150    1.000
    C487     C        0.15400    0.81430    0.82560    1.000
    C488     C        0.19060    0.78130    0.78450    1.000
    H271     H        0.17850    0.79600    0.76710    1.000
    C489     C        0.34850    0.63720    0.73507    1.000
    C490     C        0.37330    0.67700    0.72850    1.000
    H272     H        0.37500    0.71640    0.73820    1.000
    C491     C        0.39570    0.65930    0.70780    1.000
    H273     H        0.41270    0.68650    0.70330    1.000
    C492     C        0.39330    0.60170    0.69359    1.000
    C493     C        0.36840    0.56190    0.70010    1.000
    H274     H        0.36680    0.52250    0.69040    1.000
    C494     C        0.34610    0.57960    0.72090    1.000
    H275     H        0.32910    0.55240    0.72530    1.000
    C495     C        0.13060    0.84510    0.80400    1.000
    C496     C        0.12430    0.90830    0.80310    1.000
    H276     H        0.13440    0.93530    0.81770    1.000
    C497     C        0.10310    0.93220    0.78080    1.000
    H277     H        0.09870    0.97550    0.78010    1.000
    C498     C        0.08820    0.89290    0.75938    1.000
    C499     C        0.09460    0.82960    0.76030    1.000
    H278     H        0.08440    0.80270    0.74570    1.000
    C500     C        0.11580    0.80570    0.78260    1.000
    H279     H        0.12010    0.76250    0.78330    1.000
    C501     C        0.22040    0.75570    0.78510    1.000
    H280     H        0.23280    0.74980    0.76770    1.000
    C502     C        0.41700    0.58240    0.66930    1.000
    C503     C        0.41650    0.49690    0.08720    1.000
    C504     C        0.00010    0.91520    0.09430    1.000
    In15     In       0.95741    0.95625    0.13047    1.000
    In16     In       0.70736    0.25274    0.88160    1.000
    O57      O        0.91810    0.94040    0.09130    1.000
    N29      N        0.66100    0.28400    0.88270    1.000
    O58      O        0.49760    0.46960    0.09790    1.000
    O59      O        0.91860    0.02960    0.66230    1.000
    C505     C        0.72690    0.19490    0.94570    1.000
    O60      O        0.47830    0.45600    0.65690    1.000
    O61      O        0.93380    0.03110    0.10380    1.000
    C506     C        0.73000    0.23930    0.81520    1.000
    O62      O        0.48230    0.37630    0.10760    1.000
    C507     C        0.62875    0.28970    0.96121    1.000
    C508     C        0.63888    0.32310    0.98710    1.000
    H281     H        0.66050    0.33570    0.98970    1.000
    C509     C        0.61730    0.33800    0.00909    1.000
    H282     H        0.62430    0.36080    0.02680    1.000
    C510     C        0.58570    0.31970    0.00528    1.000
    C511     C        0.57554    0.28630    0.97940    1.000
    H283     H        0.55390    0.27370    0.97680    1.000
    C512     C        0.59710    0.27140    0.95740    1.000
    H284     H        0.59020    0.24860    0.93970    1.000
    N30      N        0.70550    0.22600    0.92910    1.000
    C513     C        0.68020    0.24240    0.94690    1.000
    N31      N        0.74820    0.20100    0.88060    1.000
    N32      N        0.70540    0.25430    0.83400    1.000
    O63      O        0.49430    0.54830    0.66890    1.000
    O64      O        0.93420    0.12940    0.65900    1.000
    C514     C        0.49530    0.48990    0.67210    1.000
    C515     C        0.65120    0.27330    0.93690    1.000
    C516     C        0.76690    0.17500    0.90510    1.000
    C517     C        0.79390    0.14970    0.86380    1.000
    H285     H        0.80970    0.13550    0.85060    1.000
    C518     C        0.79360    0.14100    0.89450    1.000
    H286     H        0.80820    0.11680    0.90660    1.000
    C519     C        0.64240    0.29780    0.90710    1.000
    C520     C        0.76590    0.18450    0.85490    1.000
    C521     C        0.87350    0.98280    0.04780    1.000
    H287     H        0.87630    0.93920    0.04960    1.000
    C522     C        0.85090    0.00670    0.02680    1.000
    H288     H        0.83830    0.97950    0.01420    1.000
    C523     C        0.84680    0.07050    0.02413    1.000
    C524     C        0.86530    0.11040    0.04260    1.000
    H289     H        0.86250    0.15400    0.04080    1.000
    C525     C        0.88780    0.08650    0.06363    1.000
    H290     H        0.90040    0.11370    0.07620    1.000
    C526     C        0.89193    0.02270    0.06627    1.000
    C527     C        0.61520    0.33960    0.86820    1.000
    H291     H        0.59930    0.36000    0.85570    1.000
    C528     C        0.75620    0.17600    0.93530    1.000
    C529     C        0.64380    0.31180    0.85710    1.000
    C530     C        0.71570    0.18760    0.97670    1.000
    H292     H        0.72680    0.16930    0.99380    1.000
    C531     C        0.68610    0.21270    0.97560    1.000
    H293     H        0.67160    0.21070    0.99160    1.000
    C532     C        0.56450    0.48100    0.73010    1.000
    H294     H        0.58060    0.50660    0.73930    1.000
    C533     C        0.56340    0.41820    0.73720    1.000
    C534     C        0.53970    0.38080    0.72370    1.000
    H295     H        0.53900    0.33790    0.72860    1.000
    C535     C        0.51720    0.40600    0.70310    1.000
    H296     H        0.50110    0.38040    0.69380    1.000
    C536     C        0.51830    0.46880    0.69590    1.000
    C537     C        0.54190    0.50630    0.70940    1.000
    H297     H        0.54270    0.54910    0.70450    1.000
    C538     C        0.56550    0.34360    0.02981    1.000
    C539     C        0.54230    0.30390    0.04040    1.000
    H298     H        0.54120    0.26220    0.03350    1.000
    C540     C        0.52084    0.32530    0.06130    1.000
    H299     H        0.50500    0.29820    0.06850    1.000
    C541     C        0.52250    0.38630    0.07144    1.000
    C542     C        0.54560    0.42600    0.06080    1.000
    H300     H        0.54670    0.46770    0.06780    1.000
    C543     C        0.56710    0.40460    0.04000    1.000
    H301     H        0.58290    0.43170    0.03270    1.000
    C544     C        0.68150    0.28160    0.81530    1.000
    C545     C        0.75840    0.20980    0.82380    1.000
    C546     C        0.82388    0.09710    0.00116    1.000
    C547     C        0.79550    0.06560    0.99434    1.000
    H302     H        0.79150    0.02720    0.00410    1.000
    C548     C        0.77320    0.09030    0.97329    1.000
    H303     H        0.75380    0.06880    0.96860    1.000
    C549     C        0.77919    0.14650    0.95907    1.000
    C550     C        0.80750    0.17800    0.96589    1.000
    H304     H        0.81160    0.21640    0.95620    1.000
    C551     C        0.82987    0.15330    0.98690    1.000
    H305     H        0.84920    0.17480    0.99160    1.000
    C552     C        0.83245    0.20050    0.77870    1.000
    H306     H        0.85310    0.21840    0.77940    1.000
    C553     C        0.81080    0.21660    0.80042    1.000
    H307     H        0.81670    0.24550    0.81600    1.000
    C554     C        0.78050    0.19040    0.79933    1.000
    C555     C        0.77190    0.14800    0.77650    1.000
    H308     H        0.75120    0.13010    0.77570    1.000
    C556     C        0.79350    0.13190    0.75472    1.000
    H309     H        0.78760    0.10290    0.73910    1.000
    C557     C        0.82380    0.15810    0.75580    1.000
    C558     C        0.61420    0.33250    0.89850    1.000
    H310     H        0.59830    0.34710    0.91150    1.000
    C559     C        0.65400    0.31430    0.82560    1.000
    C560     C        0.69060    0.28130    0.78450    1.000
    H311     H        0.67850    0.29600    0.76710    1.000
    C561     C        0.84850    0.13720    0.73507    1.000
    C562     C        0.87330    0.17700    0.72850    1.000
    H312     H        0.87500    0.21640    0.73820    1.000
    C563     C        0.89570    0.15930    0.70780    1.000
    H313     H        0.91270    0.18650    0.70330    1.000
    C564     C        0.89330    0.10170    0.69359    1.000
    C565     C        0.86840    0.06190    0.70010    1.000
    H314     H        0.86680    0.02250    0.69040    1.000
    C566     C        0.84610    0.07960    0.72090    1.000
    H315     H        0.82910    0.05240    0.72530    1.000
    C567     C        0.63060    0.34510    0.80400    1.000
    C568     C        0.62430    0.40830    0.80310    1.000
    H316     H        0.63440    0.43530    0.81770    1.000
    C569     C        0.60310    0.43220    0.78080    1.000
    H317     H        0.59870    0.47550    0.78010    1.000
    C570     C        0.58820    0.39290    0.75938    1.000
    C571     C        0.59460    0.32960    0.76030    1.000
    H318     H        0.58440    0.30270    0.74570    1.000
    C572     C        0.61580    0.30570    0.78260    1.000
    H319     H        0.62010    0.26250    0.78330    1.000
    C573     C        0.72040    0.25570    0.78510    1.000
    H320     H        0.73280    0.24980    0.76770    1.000
    C574     C        0.91700    0.08240    0.66930    1.000
    C575     C        0.91650    0.99690    0.08720    1.000
    C576     C        0.50010    0.41520    0.09430    1.000
    In17     In       0.18052    0.95588    0.06147    1.000
    In18     In       0.93470    0.73104    0.31204    1.000
    C577     C        0.98710    0.76600    0.25410    1.000
    C578     C        0.91310    0.71630    0.37920    1.000
    N33      N        0.93850    0.71410    0.26440    1.000
    O65      O        0.70400    0.53270    0.08810    1.000
    C579     C        0.96100    0.73190    0.24610    1.000
    N34      N        0.93710    0.73580    0.35950    1.000
    O66      O        0.14150    0.96400    0.09560    1.000
    N35      N        0.98040    0.76900    0.31090    1.000
    C580     C        0.13920    0.90620    0.10040    1.000
    O67      O        0.15480    0.87990    0.08160    1.000
    C581     C        0.99810    0.78010    0.28510    1.000
    C582     C        0.91630    0.67570    0.24820    1.000
    C583     C        0.84460    0.64290    0.32840    1.000
    H321     H        0.82830    0.62770    0.34070    1.000
    C584     C        0.84640    0.63880    0.29800    1.000
    H322     H        0.82910    0.62260    0.28580    1.000
    C585     C        0.72400    0.49530    0.09980    1.000
    C586     C        0.02490    0.81530    0.29380    1.000
    H323     H        0.04290    0.82460    0.28220    1.000
    C587     C        0.07130    0.83930    0.16150    1.000
    C588     C        0.06710    0.89750    0.14830    1.000
    H324     H        0.04920    0.92200    0.15300    1.000
    C589     C        0.08920    0.92000    0.12830    1.000
    H325     H        0.08630    0.95980    0.11930    1.000
    C590     C        0.11540    0.88420    0.12150    1.000
    C591     C        0.11970    0.82590    0.13470    1.000
    H326     H        0.13760    0.80150    0.13000    1.000
    C592     C        0.09760    0.80350    0.15470    1.000
    H327     H        0.10050    0.76370    0.16370    1.000
    C593     C        0.99470    0.80010    0.33730    1.000
    C594     C        0.88370    0.68870    0.36800    1.000
    C595     C        0.95980    0.76090    0.37800    1.000
    C596     C        0.86650    0.62850    0.22940    1.000
    C597     C        0.85350    0.66780    0.20690    1.000
    H328     H        0.85990    0.71000    0.20640    1.000
    C598     C        0.83120    0.64520    0.18530    1.000
    H329     H        0.82230    0.67200    0.16990    1.000
    C599     C        0.82190    0.58330    0.18610    1.000
    C600     C        0.83490    0.54410    0.20860    1.000
    H330     H        0.82860    0.50180    0.20910    1.000
    C601     C        0.85720    0.56670    0.23020    1.000
    H331     H        0.86610    0.53990    0.24560    1.000
    C602     C        0.93010    0.67600    0.21870    1.000
    H332     H        0.92010    0.65630    0.20140    1.000
    O68      O        0.72140    0.43640    0.09580    1.000
    C603     C        0.87390    0.65860    0.28480    1.000
    N36      N        0.88900    0.68330    0.31140    1.000
    C604     C        0.95750    0.70540    0.21730    1.000
    H333     H        0.97130    0.70780    0.20080    1.000
    C605     C        0.94700    0.76620    0.40730    1.000
    H334     H        0.95600    0.79180    0.42310    1.000
    C606     C        0.88530    0.65540    0.25570    1.000
    C607     C        0.06280    0.77950    0.21010    1.000
    H335     H        0.08480    0.76910    0.21220    1.000
    C608     C        0.05130    0.81260    0.18470    1.000
    C609     C        0.01910    0.82780    0.18160    1.000
    H336     H        0.01120    0.85050    0.16430    1.000
    C610     C        0.99850    0.80990    0.20400    1.000
    H337     H        0.97650    0.82030    0.20190    1.000
    C611     C        0.01010    0.77670    0.22940    1.000
    C612     C        0.04220    0.76150    0.23240    1.000
    H338     H        0.05010    0.73890    0.24980    1.000
    C613     C        0.92160    0.73220    0.41020    1.000
    H339     H        0.91140    0.72100    0.42830    1.000
    C614     C        0.98450    0.79410    0.36690    1.000
    C615     C        0.86090    0.67000    0.39210    1.000
    C616     C        0.83100    0.69760    0.39210    1.000
    H340     H        0.82510    0.72800    0.37720    1.000
    C617     C        0.80960    0.68060    0.41390    1.000
    H341     H        0.78920    0.69950    0.41400    1.000
    C618     C        0.81820    0.63610    0.43580    1.000
    C619     C        0.84810    0.60850    0.43580    1.000
    H342     H        0.85390    0.57810    0.45070    1.000
    C620     C        0.86940    0.62540    0.41390    1.000
    H343     H        0.88990    0.60660    0.41390    1.000
    C621     C        0.74690    0.57770    0.13500    1.000
    H344     H        0.72960    0.60370    0.12840    1.000
    C622     C        0.77010    0.59980    0.15590    1.000
    H345     H        0.76870    0.64080    0.16360    1.000
    C623     C        0.79540    0.56170    0.16550    1.000
    C624     C        0.79730    0.50160    0.15420    1.000
    H346     H        0.81460    0.47560    0.16080    1.000
    C625     C        0.77410    0.47960    0.13330    1.000
    H347     H        0.77550    0.43850    0.12560    1.000
    C626     C        0.74890    0.51760    0.12370    1.000
    C627     C        0.87280    0.67530    0.33790    1.000
    C628     C        0.05130    0.87680    0.43310    1.000
    C629     C        0.03050    0.91310    0.41510    1.000
    H348     H        0.03080    0.95700    0.41730    1.000
    C630     C        0.00930    0.88530    0.39390    1.000
    H349     H        0.99510    0.91010    0.38160    1.000
    C631     C        0.00890    0.82120    0.39080    1.000
    C632     C        0.02970    0.78480    0.40880    1.000
    H350     H        0.02950    0.74100    0.40660    1.000
    C633     C        0.05090    0.81270    0.42990    1.000
    H351     H        0.06510    0.78780    0.44220    1.000
    C634     C        0.79560    0.61960    0.45960    1.000
    C635     C        0.77390    0.66470    0.46760    1.000
    H352     H        0.77500    0.70520    0.45910    1.000
    C636     C        0.75070    0.65070    0.48820    1.000
    H353     H        0.73590    0.68160    0.49370    1.000
    C637     C        0.74920    0.59160    0.50070    1.000
    C638     C        0.77090    0.54640    0.49260    1.000
    H354     H        0.76980    0.50600    0.50110    1.000
    C639     C        0.79410    0.56040    0.47200    1.000
    H355     H        0.80890    0.52960    0.46650    1.000
    O69      O        0.14470    0.04180    0.52330    1.000
    C640     C        0.13770    0.98780    0.52160    1.000
    O70      O        0.72230    0.51370    0.53060    1.000
    O71      O        0.15080    0.96300    0.54190    1.000
    O72      O        0.70340    0.61030    0.53220    1.000
    C641     C        0.72490    0.57170    0.52300    1.000
    C642     C        0.10380    0.89970    0.50300    1.000
    H356     H        0.11140    0.87490    0.51970    1.000
    C643     C        0.11390    0.96090    0.50060    1.000
    C644     C        0.10290    0.99720    0.47610    1.000
    H357     H        0.10980    0.03890    0.47440    1.000
    C645     C        0.08180    0.97230    0.45400    1.000
    H358     H        0.07420    0.99710    0.43720    1.000
    C646     C        0.07170    0.91120    0.45640    1.000
    C647     C        0.08270    0.87490    0.48090    1.000
    H359     H        0.07580    0.83310    0.48250    1.000
    C648     C        0.01930    0.83270    0.32230    1.000
    H360     H        0.03110    0.86520    0.33210    1.000
    In19     In       0.68052    0.45588    0.06147    1.000
    In20     In       0.43470    0.23104    0.31204    1.000
    C649     C        0.48710    0.26600    0.25410    1.000
    C650     C        0.41310    0.21630    0.37920    1.000
    N37      N        0.43850    0.21410    0.26440    1.000
    O73      O        0.20400    0.03270    0.08810    1.000
    C651     C        0.46100    0.23190    0.24610    1.000
    N38      N        0.43710    0.23580    0.35950    1.000
    O74      O        0.64150    0.46400    0.09560    1.000
    N39      N        0.48040    0.26900    0.31090    1.000
    C652     C        0.63920    0.40620    0.10040    1.000
    O75      O        0.65480    0.37990    0.08160    1.000
    C653     C        0.49810    0.28010    0.28510    1.000
    C654     C        0.41630    0.17570    0.24820    1.000
    C655     C        0.34460    0.14290    0.32840    1.000
    H361     H        0.32830    0.12770    0.34070    1.000
    C656     C        0.34640    0.13880    0.29800    1.000
    H362     H        0.32910    0.12260    0.28580    1.000
    C657     C        0.22400    0.99530    0.09980    1.000
    C658     C        0.52490    0.31530    0.29380    1.000
    H363     H        0.54290    0.32460    0.28220    1.000
    C659     C        0.57130    0.33930    0.16150    1.000
    C660     C        0.56710    0.39750    0.14830    1.000
    H364     H        0.54920    0.42200    0.15300    1.000
    C661     C        0.58920    0.42000    0.12830    1.000
    H365     H        0.58630    0.45980    0.11930    1.000
    C662     C        0.61540    0.38420    0.12150    1.000
    C663     C        0.61970    0.32590    0.13470    1.000
    H366     H        0.63760    0.30150    0.13000    1.000
    C664     C        0.59760    0.30350    0.15470    1.000
    H367     H        0.60050    0.26370    0.16370    1.000
    C665     C        0.49470    0.30010    0.33730    1.000
    C666     C        0.38370    0.18870    0.36800    1.000
    C667     C        0.45980    0.26090    0.37800    1.000
    C668     C        0.36650    0.12850    0.22940    1.000
    C669     C        0.35350    0.16780    0.20690    1.000
    H368     H        0.35990    0.21000    0.20640    1.000
    C670     C        0.33120    0.14520    0.18530    1.000
    H369     H        0.32230    0.17200    0.16990    1.000
    C671     C        0.32190    0.08330    0.18610    1.000
    C672     C        0.33490    0.04410    0.20860    1.000
    H370     H        0.32860    0.00180    0.20910    1.000
    C673     C        0.35720    0.06670    0.23020    1.000
    H371     H        0.36610    0.03990    0.24560    1.000
    C674     C        0.43010    0.17600    0.21870    1.000
    H372     H        0.42010    0.15630    0.20140    1.000
    O76      O        0.22140    0.93640    0.09580    1.000
    C675     C        0.37390    0.15860    0.28480    1.000
    N40      N        0.38900    0.18330    0.31140    1.000
    C676     C        0.45750    0.20540    0.21730    1.000
    H373     H        0.47130    0.20780    0.20080    1.000
    C677     C        0.44700    0.26620    0.40730    1.000
    H374     H        0.45600    0.29180    0.42310    1.000
    C678     C        0.38530    0.15540    0.25570    1.000
    C679     C        0.56280    0.27950    0.21010    1.000
    H375     H        0.58480    0.26910    0.21220    1.000
    C680     C        0.55130    0.31260    0.18470    1.000
    C681     C        0.51910    0.32780    0.18160    1.000
    H376     H        0.51120    0.35050    0.16430    1.000
    C682     C        0.49850    0.30990    0.20400    1.000
    H377     H        0.47650    0.32030    0.20190    1.000
    C683     C        0.51010    0.27670    0.22940    1.000
    C684     C        0.54220    0.26150    0.23240    1.000
    H378     H        0.55010    0.23890    0.24980    1.000
    C685     C        0.42160    0.23220    0.41020    1.000
    H379     H        0.41140    0.22100    0.42830    1.000
    C686     C        0.48450    0.29410    0.36690    1.000
    C687     C        0.36090    0.17000    0.39210    1.000
    C688     C        0.33100    0.19760    0.39210    1.000
    H380     H        0.32510    0.22800    0.37720    1.000
    C689     C        0.30960    0.18060    0.41390    1.000
    H381     H        0.28920    0.19950    0.41400    1.000
    C690     C        0.31820    0.13610    0.43580    1.000
    C691     C        0.34810    0.10850    0.43580    1.000
    H382     H        0.35390    0.07810    0.45070    1.000
    C692     C        0.36940    0.12540    0.41390    1.000
    H383     H        0.38990    0.10660    0.41390    1.000
    C693     C        0.24690    0.07770    0.13500    1.000
    H384     H        0.22960    0.10370    0.12840    1.000
    C694     C        0.27010    0.09980    0.15590    1.000
    H385     H        0.26870    0.14080    0.16360    1.000
    C695     C        0.29540    0.06170    0.16550    1.000
    C696     C        0.29730    0.00160    0.15420    1.000
    H386     H        0.31460    0.97560    0.16080    1.000
    C697     C        0.27410    0.97960    0.13330    1.000
    H387     H        0.27550    0.93850    0.12560    1.000
    C698     C        0.24890    0.01760    0.12370    1.000
    C699     C        0.37280    0.17530    0.33790    1.000
    C700     C        0.55130    0.37680    0.43310    1.000
    C701     C        0.53050    0.41310    0.41510    1.000
    H388     H        0.53080    0.45700    0.41730    1.000
    C702     C        0.50930    0.38530    0.39390    1.000
    H389     H        0.49510    0.41010    0.38160    1.000
    C703     C        0.50890    0.32120    0.39080    1.000
    C704     C        0.52970    0.28480    0.40880    1.000
    H390     H        0.52950    0.24100    0.40660    1.000
    C705     C        0.55090    0.31270    0.42990    1.000
    H391     H        0.56510    0.28780    0.44220    1.000
    C706     C        0.29560    0.11960    0.45960    1.000
    C707     C        0.27390    0.16470    0.46760    1.000
    H392     H        0.27500    0.20520    0.45910    1.000
    C708     C        0.25070    0.15070    0.48820    1.000
    H393     H        0.23590    0.18160    0.49370    1.000
    C709     C        0.24920    0.09160    0.50070    1.000
    C710     C        0.27090    0.04640    0.49260    1.000
    H394     H        0.26980    0.00600    0.50110    1.000
    C711     C        0.29410    0.06040    0.47200    1.000
    H395     H        0.30890    0.02960    0.46650    1.000
    O77      O        0.64470    0.54180    0.52330    1.000
    C712     C        0.63770    0.48780    0.52160    1.000
    O78      O        0.22230    0.01370    0.53060    1.000
    O79      O        0.65080    0.46300    0.54190    1.000
    O80      O        0.20340    0.11030    0.53220    1.000
    C713     C        0.22490    0.07170    0.52300    1.000
    C714     C        0.60380    0.39970    0.50300    1.000
    H396     H        0.61140    0.37490    0.51970    1.000
    C715     C        0.61390    0.46090    0.50060    1.000
    C716     C        0.60290    0.49720    0.47610    1.000
    H397     H        0.60980    0.53890    0.47440    1.000
    C717     C        0.58180    0.47230    0.45400    1.000
    H398     H        0.57420    0.49710    0.43720    1.000
    C718     C        0.57170    0.41120    0.45640    1.000
    C719     C        0.58270    0.37490    0.48090    1.000
    H399     H        0.57580    0.33310    0.48250    1.000
    C720     C        0.51930    0.33270    0.32230    1.000
    H400     H        0.53110    0.36520    0.33210    1.000
    In21     In       0.18052    0.04412    0.56147    1.000
    In22     In       0.93470    0.26896    0.81204    1.000
    C721     C        0.98710    0.23400    0.75410    1.000
    C722     C        0.91310    0.28370    0.87920    1.000
    N41      N        0.93850    0.28590    0.76440    1.000
    O81      O        0.70400    0.46730    0.58810    1.000
    C723     C        0.96100    0.26810    0.74610    1.000
    N42      N        0.93710    0.26420    0.85950    1.000
    O82      O        0.14150    0.03600    0.59560    1.000
    N43      N        0.98040    0.23100    0.81090    1.000
    C724     C        0.13920    0.09380    0.60040    1.000
    O83      O        0.15480    0.12010    0.58160    1.000
    C725     C        0.99810    0.21990    0.78510    1.000
    C726     C        0.91630    0.32430    0.74820    1.000
    C727     C        0.84460    0.35710    0.82840    1.000
    H401     H        0.82830    0.37230    0.84070    1.000
    C728     C        0.84640    0.36120    0.79800    1.000
    H402     H        0.82910    0.37740    0.78580    1.000
    C729     C        0.72400    0.50470    0.59980    1.000
    C730     C        0.02490    0.18470    0.79380    1.000
    H403     H        0.04290    0.17540    0.78220    1.000
    C731     C        0.07130    0.16070    0.66150    1.000
    C732     C        0.06710    0.10250    0.64830    1.000
    H404     H        0.04920    0.07800    0.65300    1.000
    C733     C        0.08920    0.08000    0.62830    1.000
    H405     H        0.08630    0.04020    0.61930    1.000
    C734     C        0.11540    0.11580    0.62150    1.000
    C735     C        0.11970    0.17410    0.63470    1.000
    H406     H        0.13760    0.19850    0.63000    1.000
    C736     C        0.09760    0.19650    0.65470    1.000
    H407     H        0.10050    0.23630    0.66370    1.000
    C737     C        0.99470    0.19990    0.83730    1.000
    C738     C        0.88370    0.31130    0.86800    1.000
    C739     C        0.95980    0.23910    0.87800    1.000
    C740     C        0.86650    0.37150    0.72940    1.000
    C741     C        0.85350    0.33220    0.70690    1.000
    H408     H        0.85990    0.29000    0.70640    1.000
    C742     C        0.83120    0.35480    0.68530    1.000
    H409     H        0.82230    0.32800    0.66990    1.000
    C743     C        0.82190    0.41670    0.68610    1.000
    C744     C        0.83490    0.45590    0.70860    1.000
    H410     H        0.82860    0.49820    0.70910    1.000
    C745     C        0.85720    0.43330    0.73020    1.000
    H411     H        0.86610    0.46010    0.74560    1.000
    C746     C        0.93010    0.32400    0.71870    1.000
    H412     H        0.92010    0.34370    0.70140    1.000
    O84      O        0.72140    0.56360    0.59580    1.000
    C747     C        0.87390    0.34140    0.78480    1.000
    N44      N        0.88900    0.31670    0.81140    1.000
    C748     C        0.95750    0.29460    0.71730    1.000
    H413     H        0.97130    0.29220    0.70080    1.000
    C749     C        0.94700    0.23380    0.90730    1.000
    H414     H        0.95600    0.20820    0.92310    1.000
    C750     C        0.88530    0.34460    0.75570    1.000
    C751     C        0.06280    0.22050    0.71010    1.000
    H415     H        0.08480    0.23090    0.71220    1.000
    C752     C        0.05130    0.18740    0.68470    1.000
    C753     C        0.01910    0.17220    0.68160    1.000
    H416     H        0.01120    0.14950    0.66430    1.000
    C754     C        0.99850    0.19010    0.70400    1.000
    H417     H        0.97650    0.17970    0.70190    1.000
    C755     C        0.01010    0.22330    0.72940    1.000
    C756     C        0.04220    0.23850    0.73240    1.000
    H418     H        0.05010    0.26110    0.74980    1.000
    C757     C        0.92160    0.26780    0.91020    1.000
    H419     H        0.91140    0.27900    0.92830    1.000
    C758     C        0.98450    0.20590    0.86690    1.000
    C759     C        0.86090    0.33000    0.89210    1.000
    C760     C        0.83100    0.30240    0.89210    1.000
    H420     H        0.82510    0.27200    0.87720    1.000
    C761     C        0.80960    0.31940    0.91390    1.000
    H421     H        0.78920    0.30050    0.91400    1.000
    C762     C        0.81820    0.36390    0.93580    1.000
    C763     C        0.84810    0.39150    0.93580    1.000
    H422     H        0.85390    0.42190    0.95070    1.000
    C764     C        0.86940    0.37460    0.91390    1.000
    H423     H        0.88990    0.39340    0.91390    1.000
    C765     C        0.74690    0.42230    0.63500    1.000
    H424     H        0.72960    0.39630    0.62840    1.000
    C766     C        0.77010    0.40020    0.65590    1.000
    H425     H        0.76870    0.35920    0.66360    1.000
    C767     C        0.79540    0.43830    0.66550    1.000
    C768     C        0.79730    0.49840    0.65420    1.000
    H426     H        0.81460    0.52440    0.66080    1.000
    C769     C        0.77410    0.52040    0.63330    1.000
    H427     H        0.77550    0.56150    0.62560    1.000
    C770     C        0.74890    0.48240    0.62370    1.000
    C771     C        0.87280    0.32470    0.83790    1.000
    C772     C        0.05130    0.12320    0.93310    1.000
    C773     C        0.03050    0.08690    0.91510    1.000
    H428     H        0.03080    0.04300    0.91730    1.000
    C774     C        0.00930    0.11470    0.89390    1.000
    H429     H        0.99510    0.08990    0.88160    1.000
    C775     C        0.00890    0.17880    0.89080    1.000
    C776     C        0.02970    0.21520    0.90880    1.000
    H430     H        0.02950    0.25900    0.90660    1.000
    C777     C        0.05090    0.18730    0.92990    1.000
    H431     H        0.06510    0.21220    0.94220    1.000
    C778     C        0.79560    0.38040    0.95960    1.000
    C779     C        0.77390    0.33530    0.96760    1.000
    H432     H        0.77500    0.29480    0.95910    1.000
    C780     C        0.75070    0.34930    0.98820    1.000
    H433     H        0.73590    0.31840    0.99370    1.000
    C781     C        0.74920    0.40840    0.00070    1.000
    C782     C        0.77090    0.45360    0.99260    1.000
    H434     H        0.76980    0.49400    0.00110    1.000
    C783     C        0.79410    0.43960    0.97200    1.000
    H435     H        0.80890    0.47040    0.96650    1.000
    O85      O        0.14470    0.95820    0.02330    1.000
    C784     C        0.13770    0.01220    0.02160    1.000
    O86      O        0.72230    0.48630    0.03060    1.000
    O87      O        0.15080    0.03700    0.04190    1.000
    O88      O        0.70340    0.38970    0.03220    1.000
    C785     C        0.72490    0.42830    0.02300    1.000
    C786     C        0.10380    0.10030    0.00300    1.000
    H436     H        0.11140    0.12510    0.01970    1.000
    C787     C        0.11390    0.03910    0.00060    1.000
    C788     C        0.10290    0.00280    0.97610    1.000
    H437     H        0.10980    0.96110    0.97440    1.000
    C789     C        0.08180    0.02770    0.95400    1.000
    H438     H        0.07420    0.00290    0.93720    1.000
    C790     C        0.07170    0.08880    0.95640    1.000
    C791     C        0.08270    0.12510    0.98090    1.000
    H439     H        0.07580    0.16690    0.98250    1.000
    C792     C        0.01930    0.16730    0.82230    1.000
    H440     H        0.03110    0.13480    0.83210    1.000
    In23     In       0.68052    0.54412    0.56147    1.000
    In24     In       0.43470    0.76896    0.81204    1.000
    C793     C        0.48710    0.73400    0.75410    1.000
    C794     C        0.41310    0.78370    0.87920    1.000
    N45      N        0.43850    0.78590    0.76440    1.000
    O89      O        0.20400    0.96730    0.58810    1.000
    C795     C        0.46100    0.76810    0.74610    1.000
    N46      N        0.43710    0.76420    0.85950    1.000
    O90      O        0.64150    0.53600    0.59560    1.000
    N47      N        0.48040    0.73100    0.81090    1.000
    C796     C        0.63920    0.59380    0.60040    1.000
    O91      O        0.65480    0.62010    0.58160    1.000
    C797     C        0.49810    0.71990    0.78510    1.000
    C798     C        0.41630    0.82430    0.74820    1.000
    C799     C        0.34460    0.85710    0.82840    1.000
    H441     H        0.32830    0.87230    0.84070    1.000
    C800     C        0.34640    0.86120    0.79800    1.000
    H442     H        0.32910    0.87740    0.78580    1.000
    C801     C        0.22400    0.00470    0.59980    1.000
    C802     C        0.52490    0.68470    0.79380    1.000
    H443     H        0.54290    0.67540    0.78220    1.000
    C803     C        0.57130    0.66070    0.66150    1.000
    C804     C        0.56710    0.60250    0.64830    1.000
    H444     H        0.54920    0.57800    0.65300    1.000
    C805     C        0.58920    0.58000    0.62830    1.000
    H445     H        0.58630    0.54020    0.61930    1.000
    C806     C        0.61540    0.61580    0.62150    1.000
    C807     C        0.61970    0.67410    0.63470    1.000
    H446     H        0.63760    0.69850    0.63000    1.000
    C808     C        0.59760    0.69650    0.65470    1.000
    H447     H        0.60050    0.73630    0.66370    1.000
    C809     C        0.49470    0.69990    0.83730    1.000
    C810     C        0.38370    0.81130    0.86800    1.000
    C811     C        0.45980    0.73910    0.87800    1.000
    C812     C        0.36650    0.87150    0.72940    1.000
    C813     C        0.35350    0.83220    0.70690    1.000
    H448     H        0.35990    0.79000    0.70640    1.000
    C814     C        0.33120    0.85480    0.68530    1.000
    H449     H        0.32230    0.82800    0.66990    1.000
    C815     C        0.32190    0.91670    0.68610    1.000
    C816     C        0.33490    0.95590    0.70860    1.000
    H450     H        0.32860    0.99820    0.70910    1.000
    C817     C        0.35720    0.93330    0.73020    1.000
    H451     H        0.36610    0.96010    0.74560    1.000
    C818     C        0.43010    0.82400    0.71870    1.000
    H452     H        0.42010    0.84370    0.70140    1.000
    O92      O        0.22140    0.06360    0.59580    1.000
    C819     C        0.37390    0.84140    0.78480    1.000
    N48      N        0.38900    0.81670    0.81140    1.000
    C820     C        0.45750    0.79460    0.71730    1.000
    H453     H        0.47130    0.79220    0.70080    1.000
    C821     C        0.44700    0.73380    0.90730    1.000
    H454     H        0.45600    0.70820    0.92310    1.000
    C822     C        0.38530    0.84460    0.75570    1.000
    C823     C        0.56280    0.72050    0.71010    1.000
    H455     H        0.58480    0.73090    0.71220    1.000
    C824     C        0.55130    0.68740    0.68470    1.000
    C825     C        0.51910    0.67220    0.68160    1.000
    H456     H        0.51120    0.64950    0.66430    1.000
    C826     C        0.49850    0.69010    0.70400    1.000
    H457     H        0.47650    0.67970    0.70190    1.000
    C827     C        0.51010    0.72330    0.72940    1.000
    C828     C        0.54220    0.73850    0.73240    1.000
    H458     H        0.55010    0.76110    0.74980    1.000
    C829     C        0.42160    0.76780    0.91020    1.000
    H459     H        0.41140    0.77900    0.92830    1.000
    C830     C        0.48450    0.70590    0.86690    1.000
    C831     C        0.36090    0.83000    0.89210    1.000
    C832     C        0.33100    0.80240    0.89210    1.000
    H460     H        0.32510    0.77200    0.87720    1.000
    C833     C        0.30960    0.81940    0.91390    1.000
    H461     H        0.28920    0.80050    0.91400    1.000
    C834     C        0.31820    0.86390    0.93580    1.000
    C835     C        0.34810    0.89150    0.93580    1.000
    H462     H        0.35390    0.92190    0.95070    1.000
    C836     C        0.36940    0.87460    0.91390    1.000
    H463     H        0.38990    0.89340    0.91390    1.000
    C837     C        0.24690    0.92230    0.63500    1.000
    H464     H        0.22960    0.89630    0.62840    1.000
    C838     C        0.27010    0.90020    0.65590    1.000
    H465     H        0.26870    0.85920    0.66360    1.000
    C839     C        0.29540    0.93830    0.66550    1.000
    C840     C        0.29730    0.99840    0.65420    1.000
    H466     H        0.31460    0.02440    0.66080    1.000
    C841     C        0.27410    0.02040    0.63330    1.000
    H467     H        0.27550    0.06150    0.62560    1.000
    C842     C        0.24890    0.98240    0.62370    1.000
    C843     C        0.37280    0.82470    0.83790    1.000
    C844     C        0.55130    0.62320    0.93310    1.000
    C845     C        0.53050    0.58690    0.91510    1.000
    H468     H        0.53080    0.54300    0.91730    1.000
    C846     C        0.50930    0.61470    0.89390    1.000
    H469     H        0.49510    0.58990    0.88160    1.000
    C847     C        0.50890    0.67880    0.89080    1.000
    C848     C        0.52970    0.71520    0.90880    1.000
    H470     H        0.52950    0.75900    0.90660    1.000
    C849     C        0.55090    0.68730    0.92990    1.000
    H471     H        0.56510    0.71220    0.94220    1.000
    C850     C        0.29560    0.88040    0.95960    1.000
    C851     C        0.27390    0.83530    0.96760    1.000
    H472     H        0.27500    0.79480    0.95910    1.000
    C852     C        0.25070    0.84930    0.98820    1.000
    H473     H        0.23590    0.81840    0.99370    1.000
    C853     C        0.24920    0.90840    0.00070    1.000
    C854     C        0.27090    0.95360    0.99260    1.000
    H474     H        0.26980    0.99400    0.00110    1.000
    C855     C        0.29410    0.93960    0.97200    1.000
    H475     H        0.30890    0.97040    0.96650    1.000
    O93      O        0.64470    0.45820    0.02330    1.000
    C856     C        0.63770    0.51220    0.02160    1.000
    O94      O        0.22230    0.98630    0.03060    1.000
    O95      O        0.65080    0.53700    0.04190    1.000
    O96      O        0.20340    0.88970    0.03220    1.000
    C857     C        0.22490    0.92830    0.02300    1.000
    C858     C        0.60380    0.60030    0.00300    1.000
    H476     H        0.61140    0.62510    0.01970    1.000
    C859     C        0.61390    0.53910    0.00060    1.000
    C860     C        0.60290    0.50280    0.97610    1.000
    H477     H        0.60980    0.46110    0.97440    1.000
    C861     C        0.58180    0.52770    0.95400    1.000
    H478     H        0.57420    0.50290    0.93720    1.000
    C862     C        0.57170    0.58880    0.95640    1.000
    C863     C        0.58270    0.62510    0.98090    1.000
    H479     H        0.57580    0.66690    0.98250    1.000
    C864     C        0.51930    0.66730    0.82230    1.000
    H480     H        0.53110    0.63480    0.83210    1.000
    In25     In       0.73933    0.27178    0.15932    1.000
    In26     In       0.99522    0.44839    0.91132    1.000
    O97      O        0.53750    0.94380    0.94720    1.000
    O98      O        0.97060    0.46970    0.38530    1.000
    O99      O        0.51810    0.13780    0.38850    1.000
    N49      N        0.74130    0.25910    0.11250    1.000
    O100     O        0.97310    0.37320    0.94030    1.000
    N50      N        0.78630    0.31030    0.16000    1.000
    O101     O        0.95640    0.47020    0.94450    1.000
    N51      N        0.69470    0.23380    0.15970    1.000
    O102     O        0.51930    0.03740    0.93260    1.000
    C865     C        0.71350    0.27740    0.22460    1.000
    C866     C        0.92761    0.48360    0.34832    1.000
    C867     C        0.92752    0.42020    0.34239    1.000
    H481     H        0.94290    0.39410    0.35240    1.000
    C868     C        0.90490    0.39510    0.32170    1.000
    H482     H        0.90490    0.35180    0.31770    1.000
    C869     C        0.88238    0.43330    0.30702    1.000
    C870     C        0.88250    0.49670    0.31300    1.000
    H483     H        0.86710    0.52280    0.30290    1.000
    C871     C        0.90510    0.52180    0.33360    1.000
    H484     H        0.90510    0.56510    0.33770    1.000
    N52      N        0.73870    0.29070    0.20830    1.000
    C872     C        0.53730    0.00120    0.94890    1.000
    C873     C        0.71880    0.23510    0.09480    1.000
    C874     C        0.83090    0.35870    0.17670    1.000
    H485     H        0.84580    0.38120    0.18940    1.000
    C875     C        0.76520    0.27310    0.09410    1.000
    C876     C        0.76180    0.31140    0.22560    1.000
    C877     C        0.65000    0.18390    0.17460    1.000
    H486     H        0.63490    0.16680    0.18780    1.000
    C878     C        0.60220    0.09270    0.01394    1.000
    C879     C        0.58100    0.12760    0.99560    1.000
    H487     H        0.58070    0.17150    0.99750    1.000
    C880     C        0.56030    0.09830    0.97450    1.000
    H488     H        0.54590    0.12210    0.96200    1.000
    C881     C        0.56080    0.03410    0.97170    1.000
    C882     C        0.58200    0.99920    0.99010    1.000
    H489     H        0.58230    0.95530    0.98820    1.000
    C883     C        0.60260    0.02850    0.01117    1.000
    H490     H        0.61710    0.00470    0.02370    1.000
    C884     C        0.95710    0.41360    0.95200    1.000
    C885     C        0.85882    0.40700    0.28244    1.000
    C886     C        0.86541    0.35210    0.26728    1.000
    H491     H        0.88510    0.33130    0.27150    1.000
    C887     C        0.84320    0.32770    0.24597    1.000
    H492     H        0.84780    0.29020    0.23560    1.000
    C888     C        0.81449    0.35820    0.23981    1.000
    C889     C        0.80789    0.41310    0.25500    1.000
    H493     H        0.78820    0.43390    0.25080    1.000
    C890     C        0.83010    0.43740    0.27628    1.000
    H494     H        0.82560    0.47490    0.28660    1.000
    C891     C        0.93306    0.39620    0.97520    1.000
    C892     C        0.91270    0.43990    0.98710    1.000
    H495     H        0.91380    0.48200    0.98070    1.000
    C893     C        0.89070    0.42220    0.00820    1.000
    H496     H        0.87680    0.45210    0.01630    1.000
    C894     C        0.88911    0.36060    0.01749    1.000
    C895     C        0.90950    0.31690    0.00560    1.000
    H497     H        0.90840    0.27480    0.01190    1.000
    C896     C        0.93140    0.33460    0.98450    1.000
    H498     H        0.94530    0.30470    0.97630    1.000
    C897     C        0.86369    0.33880    0.03818    1.000
    C898     C        0.87048    0.29460    0.06064    1.000
    H499     H        0.89040    0.27380    0.06140    1.000
    C899     C        0.84810    0.28080    0.08204    1.000
    H500     H        0.85270    0.25050    0.09740    1.000
    C900     C        0.81885    0.31120    0.08097    1.000
    C901     C        0.81206    0.35550    0.05850    1.000
    H501     H        0.79210    0.37630    0.05780    1.000
    C902     C        0.83450    0.36930    0.03711    1.000
    H502     H        0.82980    0.39950    0.02180    1.000
    C903     C        0.80230    0.33130    0.18440    1.000
    C904     C        0.67780    0.21830    0.18430    1.000
    C905     C        0.75740    0.25500    0.06250    1.000
    H503     H        0.77120    0.25530    0.04580    1.000
    C906     C        0.83200    0.34520    0.14640    1.000
    H504     H        0.84960    0.35440    0.13430    1.000
    C907     C        0.79080    0.33150    0.21550    1.000
    C908     C        0.72600    0.23730    0.06200    1.000
    H505     H        0.71210    0.22860    0.04470    1.000
    C909     C        0.68720    0.21680    0.10260    1.000
    C910     C        0.80400    0.31630    0.13540    1.000
    C911     C        0.67770    0.20870    0.13460    1.000
    C912     C        0.79550    0.29780    0.10470    1.000
    C913     C        0.72320    0.28750    0.25690    1.000
    H506     H        0.71110    0.27860    0.27420    1.000
    C914     C        0.59880    0.16460    0.30680    1.000
    C915     C        0.59810    0.10230    0.31490    1.000
    H507     H        0.61160    0.07340    0.30540    1.000
    C916     C        0.57750    0.08220    0.33688    1.000
    H508     H        0.57700    0.03960    0.34240    1.000
    C917     C        0.55770    0.12440    0.35070    1.000
    C918     C        0.55850    0.18670    0.34260    1.000
    H509     H        0.54500    0.21560    0.35210    1.000
    C919     C        0.57910    0.20680    0.32070    1.000
    H510     H        0.57960    0.24940    0.31510    1.000
    C920     C        0.75230    0.31160    0.25700    1.000
    H511     H        0.76460    0.32610    0.27430    1.000
    C921     C        0.68470    0.24530    0.21290    1.000
    O103     O        0.95350    0.56530    0.37567    1.000
    C922     C        0.95090    0.51110    0.37020    1.000
    C923     C        0.64850    0.17950    0.14310    1.000
    H512     H        0.63220    0.16160    0.13020    1.000
    O104     O        0.53030    0.04650    0.37530    1.000
    C924     C        0.53410    0.10300    0.37430    1.000
    C925     C        0.66045    0.22650    0.23635    1.000
    C926     C        0.64580    0.26970    0.25460    1.000
    H513     H        0.64900    0.31280    0.25140    1.000
    C927     C        0.62630    0.25000    0.27753    1.000
    H514     H        0.61630    0.27960    0.29000    1.000
    C928     C        0.62150    0.18700    0.28225    1.000
    C929     C        0.63620    0.14370    0.26400    1.000
    H515     H        0.63290    0.10070    0.26720    1.000
    C930     C        0.65570    0.16350    0.24107    1.000
    H516     H        0.66570    0.13390    0.22860    1.000
    C931     C        0.66650    0.18200    0.07795    1.000
    C932     C        0.67578    0.12720    0.06420    1.000
    H517     H        0.69590    0.10920    0.06970    1.000
    C933     C        0.65570    0.09880    0.04220    1.000
    H518     H        0.66200    0.06140    0.03280    1.000
    C934     C        0.62630    0.12520    0.03408    1.000
    C935     C        0.61702    0.18000    0.04790    1.000
    H519     H        0.59690    0.19810    0.04230    1.000
    C936     C        0.63710    0.20840    0.06980    1.000
    H520     H        0.63080    0.24580    0.07920    1.000
    In27     In       0.23933    0.77178    0.15932    1.000
    In28     In       0.49522    0.94839    0.91132    1.000
    O105     O        0.03750    0.44380    0.94720    1.000
    O106     O        0.47060    0.96970    0.38530    1.000
    O107     O        0.01810    0.63780    0.38850    1.000
    N53      N        0.24130    0.75910    0.11250    1.000
    O108     O        0.47310    0.87320    0.94030    1.000
    N54      N        0.28630    0.81030    0.16000    1.000
    O109     O        0.45640    0.97020    0.94450    1.000
    N55      N        0.19470    0.73380    0.15970    1.000
    O110     O        0.01930    0.53740    0.93260    1.000
    C937     C        0.21350    0.77740    0.22460    1.000
    C938     C        0.42761    0.98360    0.34832    1.000
    C939     C        0.42752    0.92020    0.34239    1.000
    H521     H        0.44290    0.89410    0.35240    1.000
    C940     C        0.40490    0.89510    0.32170    1.000
    H522     H        0.40490    0.85180    0.31770    1.000
    C941     C        0.38238    0.93330    0.30702    1.000
    C942     C        0.38250    0.99670    0.31300    1.000
    H523     H        0.36710    0.02280    0.30290    1.000
    C943     C        0.40510    0.02180    0.33360    1.000
    H524     H        0.40510    0.06510    0.33770    1.000
    N56      N        0.23870    0.79070    0.20830    1.000
    C944     C        0.03730    0.50120    0.94890    1.000
    C945     C        0.21880    0.73510    0.09480    1.000
    C946     C        0.33090    0.85870    0.17670    1.000
    H525     H        0.34580    0.88120    0.18940    1.000
    C947     C        0.26520    0.77310    0.09410    1.000
    C948     C        0.26180    0.81140    0.22560    1.000
    C949     C        0.15000    0.68390    0.17460    1.000
    H526     H        0.13490    0.66680    0.18780    1.000
    C950     C        0.10220    0.59270    0.01394    1.000
    C951     C        0.08100    0.62760    0.99560    1.000
    H527     H        0.08070    0.67150    0.99750    1.000
    C952     C        0.06030    0.59830    0.97450    1.000
    H528     H        0.04590    0.62210    0.96200    1.000
    C953     C        0.06080    0.53410    0.97170    1.000
    C954     C        0.08200    0.49920    0.99010    1.000
    H529     H        0.08230    0.45530    0.98820    1.000
    C955     C        0.10260    0.52850    0.01117    1.000
    H530     H        0.11710    0.50470    0.02370    1.000
    C956     C        0.45710    0.91360    0.95200    1.000
    C957     C        0.35882    0.90700    0.28244    1.000
    C958     C        0.36541    0.85210    0.26728    1.000
    H531     H        0.38510    0.83130    0.27150    1.000
    C959     C        0.34320    0.82770    0.24597    1.000
    H532     H        0.34780    0.79020    0.23560    1.000
    C960     C        0.31449    0.85820    0.23981    1.000
    C961     C        0.30789    0.91310    0.25500    1.000
    H533     H        0.28820    0.93390    0.25080    1.000
    C962     C        0.33010    0.93740    0.27628    1.000
    H534     H        0.32560    0.97490    0.28660    1.000
    C963     C        0.43306    0.89620    0.97520    1.000
    C964     C        0.41270    0.93990    0.98710    1.000
    H535     H        0.41380    0.98200    0.98070    1.000
    C965     C        0.39070    0.92220    0.00820    1.000
    H536     H        0.37680    0.95210    0.01630    1.000
    C966     C        0.38911    0.86060    0.01749    1.000
    C967     C        0.40950    0.81690    0.00560    1.000
    H537     H        0.40840    0.77480    0.01190    1.000
    C968     C        0.43140    0.83460    0.98450    1.000
    H538     H        0.44530    0.80470    0.97630    1.000
    C969     C        0.36369    0.83880    0.03818    1.000
    C970     C        0.37048    0.79460    0.06064    1.000
    H539     H        0.39040    0.77380    0.06140    1.000
    C971     C        0.34810    0.78080    0.08204    1.000
    H540     H        0.35270    0.75050    0.09740    1.000
    C972     C        0.31885    0.81120    0.08097    1.000
    C973     C        0.31206    0.85550    0.05850    1.000
    H541     H        0.29210    0.87630    0.05780    1.000
    C974     C        0.33450    0.86930    0.03711    1.000
    H542     H        0.32980    0.89950    0.02180    1.000
    C975     C        0.30230    0.83130    0.18440    1.000
    C976     C        0.17780    0.71830    0.18430    1.000
    C977     C        0.25740    0.75500    0.06250    1.000
    H543     H        0.27120    0.75530    0.04580    1.000
    C978     C        0.33200    0.84520    0.14640    1.000
    H544     H        0.34960    0.85440    0.13430    1.000
    C979     C        0.29080    0.83150    0.21550    1.000
    C980     C        0.22600    0.73730    0.06200    1.000
    H545     H        0.21210    0.72860    0.04470    1.000
    C981     C        0.18720    0.71680    0.10260    1.000
    C982     C        0.30400    0.81630    0.13540    1.000
    C983     C        0.17770    0.70870    0.13460    1.000
    C984     C        0.29550    0.79780    0.10470    1.000
    C985     C        0.22320    0.78750    0.25690    1.000
    H546     H        0.21110    0.77860    0.27420    1.000
    C986     C        0.09880    0.66460    0.30680    1.000
    C987     C        0.09810    0.60230    0.31490    1.000
    H547     H        0.11160    0.57340    0.30540    1.000
    C988     C        0.07750    0.58220    0.33688    1.000
    H548     H        0.07700    0.53960    0.34240    1.000
    C989     C        0.05770    0.62440    0.35070    1.000
    C990     C        0.05850    0.68670    0.34260    1.000
    H549     H        0.04500    0.71560    0.35210    1.000
    C991     C        0.07910    0.70680    0.32070    1.000
    H550     H        0.07960    0.74940    0.31510    1.000
    C992     C        0.25230    0.81160    0.25700    1.000
    H551     H        0.26460    0.82610    0.27430    1.000
    C993     C        0.18470    0.74530    0.21290    1.000
    O111     O        0.45350    0.06530    0.37567    1.000
    C994     C        0.45090    0.01110    0.37020    1.000
    C995     C        0.14850    0.67950    0.14310    1.000
    H552     H        0.13220    0.66160    0.13020    1.000
    O112     O        0.03030    0.54650    0.37530    1.000
    C996     C        0.03410    0.60300    0.37430    1.000
    C997     C        0.16045    0.72650    0.23635    1.000
    C998     C        0.14580    0.76970    0.25460    1.000
    H553     H        0.14900    0.81280    0.25140    1.000
    C999     C        0.12630    0.75000    0.27753    1.000
    H554     H        0.11630    0.77960    0.29000    1.000
    C1000    C        0.12150    0.68700    0.28225    1.000
    C1001    C        0.13620    0.64370    0.26400    1.000
    H555     H        0.13290    0.60070    0.26720    1.000
    C1002    C        0.15570    0.66350    0.24107    1.000
    H556     H        0.16570    0.63390    0.22860    1.000
    C1003    C        0.16650    0.68200    0.07795    1.000
    C1004    C        0.17578    0.62720    0.06420    1.000
    H557     H        0.19590    0.60920    0.06970    1.000
    C1005    C        0.15570    0.59880    0.04220    1.000
    H558     H        0.16200    0.56140    0.03280    1.000
    C1006    C        0.12630    0.62520    0.03408    1.000
    C1007    C        0.11702    0.68000    0.04790    1.000
    H559     H        0.09690    0.69810    0.04230    1.000
    C1008    C        0.13710    0.70840    0.06980    1.000
    H560     H        0.13080    0.74580    0.07920    1.000
    In29     In       0.73933    0.72822    0.65932    1.000
    In30     In       0.99522    0.55161    0.41132    1.000
    O113     O        0.53750    0.05620    0.44720    1.000
    O114     O        0.97060    0.53030    0.88530    1.000
    O115     O        0.51810    0.86220    0.88850    1.000
    N57      N        0.74130    0.74090    0.61250    1.000
    O116     O        0.97310    0.62680    0.44030    1.000
    N58      N        0.78630    0.68970    0.66000    1.000
    O117     O        0.95640    0.52980    0.44450    1.000
    N59      N        0.69470    0.76620    0.65970    1.000
    O118     O        0.51930    0.96260    0.43260    1.000
    C1009    C        0.71350    0.72260    0.72460    1.000
    C1010    C        0.92761    0.51640    0.84832    1.000
    C1011    C        0.92752    0.57980    0.84239    1.000
    H561     H        0.94290    0.60590    0.85240    1.000
    C1012    C        0.90490    0.60490    0.82170    1.000
    H562     H        0.90490    0.64820    0.81770    1.000
    C1013    C        0.88238    0.56670    0.80702    1.000
    C1014    C        0.88250    0.50330    0.81300    1.000
    H563     H        0.86710    0.47720    0.80290    1.000
    C1015    C        0.90510    0.47820    0.83360    1.000
    H564     H        0.90510    0.43490    0.83770    1.000
    N60      N        0.73870    0.70930    0.70830    1.000
    C1016    C        0.53730    0.99880    0.44890    1.000
    C1017    C        0.71880    0.76490    0.59480    1.000
    C1018    C        0.83090    0.64130    0.67670    1.000
    H565     H        0.84580    0.61880    0.68940    1.000
    C1019    C        0.76520    0.72690    0.59410    1.000
    C1020    C        0.76180    0.68860    0.72560    1.000
    C1021    C        0.65000    0.81610    0.67460    1.000
    H566     H        0.63490    0.83320    0.68780    1.000
    C1022    C        0.60220    0.90730    0.51394    1.000
    C1023    C        0.58100    0.87240    0.49560    1.000
    H567     H        0.58070    0.82850    0.49750    1.000
    C1024    C        0.56030    0.90170    0.47450    1.000
    H568     H        0.54590    0.87790    0.46200    1.000
    C1025    C        0.56080    0.96590    0.47170    1.000
    C1026    C        0.58200    0.00080    0.49010    1.000
    H569     H        0.58230    0.04470    0.48820    1.000
    C1027    C        0.60260    0.97150    0.51117    1.000
    H570     H        0.61710    0.99530    0.52370    1.000
    C1028    C        0.95710    0.58640    0.45200    1.000
    C1029    C        0.85882    0.59300    0.78244    1.000
    C1030    C        0.86541    0.64790    0.76728    1.000
    H571     H        0.88510    0.66870    0.77150    1.000
    C1031    C        0.84320    0.67230    0.74597    1.000
    H572     H        0.84780    0.70980    0.73560    1.000
    C1032    C        0.81449    0.64180    0.73981    1.000
    C1033    C        0.80789    0.58690    0.75500    1.000
    H573     H        0.78820    0.56610    0.75080    1.000
    C1034    C        0.83010    0.56260    0.77628    1.000
    H574     H        0.82560    0.52510    0.78660    1.000
    C1035    C        0.93306    0.60380    0.47520    1.000
    C1036    C        0.91270    0.56010    0.48710    1.000
    H575     H        0.91380    0.51800    0.48070    1.000
    C1037    C        0.89070    0.57780    0.50820    1.000
    H576     H        0.87680    0.54790    0.51630    1.000
    C1038    C        0.88911    0.63940    0.51749    1.000
    C1039    C        0.90950    0.68310    0.50560    1.000
    H577     H        0.90840    0.72520    0.51190    1.000
    C1040    C        0.93140    0.66540    0.48450    1.000
    H578     H        0.94530    0.69530    0.47630    1.000
    C1041    C        0.86369    0.66120    0.53818    1.000
    C1042    C        0.87048    0.70540    0.56064    1.000
    H579     H        0.89040    0.72620    0.56140    1.000
    C1043    C        0.84810    0.71920    0.58204    1.000
    H580     H        0.85270    0.74950    0.59740    1.000
    C1044    C        0.81885    0.68880    0.58097    1.000
    C1045    C        0.81206    0.64450    0.55850    1.000
    H581     H        0.79210    0.62370    0.55780    1.000
    C1046    C        0.83450    0.63070    0.53711    1.000
    H582     H        0.82980    0.60050    0.52180    1.000
    C1047    C        0.80230    0.66870    0.68440    1.000
    C1048    C        0.67780    0.78170    0.68430    1.000
    C1049    C        0.75740    0.74500    0.56250    1.000
    H583     H        0.77120    0.74470    0.54580    1.000
    C1050    C        0.83200    0.65480    0.64640    1.000
    H584     H        0.84960    0.64560    0.63430    1.000
    C1051    C        0.79080    0.66850    0.71550    1.000
    C1052    C        0.72600    0.76270    0.56200    1.000
    H585     H        0.71210    0.77140    0.54470    1.000
    C1053    C        0.68720    0.78320    0.60260    1.000
    C1054    C        0.80400    0.68370    0.63540    1.000
    C1055    C        0.67770    0.79130    0.63460    1.000
    C1056    C        0.79550    0.70220    0.60470    1.000
    C1057    C        0.72320    0.71250    0.75690    1.000
    H586     H        0.71110    0.72140    0.77420    1.000
    C1058    C        0.59880    0.83540    0.80680    1.000
    C1059    C        0.59810    0.89770    0.81490    1.000
    H587     H        0.61160    0.92660    0.80540    1.000
    C1060    C        0.57750    0.91780    0.83688    1.000
    H588     H        0.57700    0.96040    0.84240    1.000
    C1061    C        0.55770    0.87560    0.85070    1.000
    C1062    C        0.55850    0.81330    0.84260    1.000
    H589     H        0.54500    0.78440    0.85210    1.000
    C1063    C        0.57910    0.79320    0.82070    1.000
    H590     H        0.57960    0.75060    0.81510    1.000
    C1064    C        0.75230    0.68840    0.75700    1.000
    H591     H        0.76460    0.67390    0.77430    1.000
    C1065    C        0.68470    0.75470    0.71290    1.000
    O119     O        0.95350    0.43470    0.87567    1.000
    C1066    C        0.95090    0.48890    0.87020    1.000
    C1067    C        0.64850    0.82050    0.64310    1.000
    H592     H        0.63220    0.83840    0.63020    1.000
    O120     O        0.53030    0.95350    0.87530    1.000
    C1068    C        0.53410    0.89700    0.87430    1.000
    C1069    C        0.66045    0.77350    0.73635    1.000
    C1070    C        0.64580    0.73030    0.75460    1.000
    H593     H        0.64900    0.68720    0.75140    1.000
    C1071    C        0.62630    0.75000    0.77753    1.000
    H594     H        0.61630    0.72040    0.79000    1.000
    C1072    C        0.62150    0.81300    0.78225    1.000
    C1073    C        0.63620    0.85630    0.76400    1.000
    H595     H        0.63290    0.89930    0.76720    1.000
    C1074    C        0.65570    0.83650    0.74107    1.000
    H596     H        0.66570    0.86610    0.72860    1.000
    C1075    C        0.66650    0.81800    0.57795    1.000
    C1076    C        0.67578    0.87280    0.56420    1.000
    H597     H        0.69590    0.89080    0.56970    1.000
    C1077    C        0.65570    0.90120    0.54220    1.000
    H598     H        0.66200    0.93860    0.53280    1.000
    C1078    C        0.62630    0.87480    0.53408    1.000
    C1079    C        0.61702    0.82000    0.54790    1.000
    H599     H        0.59690    0.80190    0.54230    1.000
    C1080    C        0.63710    0.79160    0.56980    1.000
    H600     H        0.63080    0.75420    0.57920    1.000
    In31     In       0.23933    0.22822    0.65932    1.000
    In32     In       0.49522    0.05161    0.41132    1.000
    O121     O        0.03750    0.55620    0.44720    1.000
    O122     O        0.47060    0.03030    0.88530    1.000
    O123     O        0.01810    0.36220    0.88850    1.000
    N61      N        0.24130    0.24090    0.61250    1.000
    O124     O        0.47310    0.12680    0.44030    1.000
    N62      N        0.28630    0.18970    0.66000    1.000
    O125     O        0.45640    0.02980    0.44450    1.000
    N63      N        0.19470    0.26620    0.65970    1.000
    O126     O        0.01930    0.46260    0.43260    1.000
    C1081    C        0.21350    0.22260    0.72460    1.000
    C1082    C        0.42761    0.01640    0.84832    1.000
    C1083    C        0.42752    0.07980    0.84239    1.000
    H601     H        0.44290    0.10590    0.85240    1.000
    C1084    C        0.40490    0.10490    0.82170    1.000
    H602     H        0.40490    0.14820    0.81770    1.000
    C1085    C        0.38238    0.06670    0.80702    1.000
    C1086    C        0.38250    0.00330    0.81300    1.000
    H603     H        0.36710    0.97720    0.80290    1.000
    C1087    C        0.40510    0.97820    0.83360    1.000
    H604     H        0.40510    0.93490    0.83770    1.000
    N64      N        0.23870    0.20930    0.70830    1.000
    C1088    C        0.03730    0.49880    0.44890    1.000
    C1089    C        0.21880    0.26490    0.59480    1.000
    C1090    C        0.33090    0.14130    0.67670    1.000
    H605     H        0.34580    0.11880    0.68940    1.000
    C1091    C        0.26520    0.22690    0.59410    1.000
    C1092    C        0.26180    0.18860    0.72560    1.000
    C1093    C        0.15000    0.31610    0.67460    1.000
    H606     H        0.13490    0.33320    0.68780    1.000
    C1094    C        0.10220    0.40730    0.51394    1.000
    C1095    C        0.08100    0.37240    0.49560    1.000
    H607     H        0.08070    0.32850    0.49750    1.000
    C1096    C        0.06030    0.40170    0.47450    1.000
    H608     H        0.04590    0.37790    0.46200    1.000
    C1097    C        0.06080    0.46590    0.47170    1.000
    C1098    C        0.08200    0.50080    0.49010    1.000
    H609     H        0.08230    0.54470    0.48820    1.000
    C1099    C        0.10260    0.47150    0.51117    1.000
    H610     H        0.11710    0.49530    0.52370    1.000
    C1100    C        0.45710    0.08640    0.45200    1.000
    C1101    C        0.35882    0.09300    0.78244    1.000
    C1102    C        0.36541    0.14790    0.76728    1.000
    H611     H        0.38510    0.16870    0.77150    1.000
    C1103    C        0.34320    0.17230    0.74597    1.000
    H612     H        0.34780    0.20980    0.73560    1.000
    C1104    C        0.31449    0.14180    0.73981    1.000
    C1105    C        0.30789    0.08690    0.75500    1.000
    H613     H        0.28820    0.06610    0.75080    1.000
    C1106    C        0.33010    0.06260    0.77628    1.000
    H614     H        0.32560    0.02510    0.78660    1.000
    C1107    C        0.43306    0.10380    0.47520    1.000
    C1108    C        0.41270    0.06010    0.48710    1.000
    H615     H        0.41380    0.01800    0.48070    1.000
    C1109    C        0.39070    0.07780    0.50820    1.000
    H616     H        0.37680    0.04790    0.51630    1.000
    C1110    C        0.38911    0.13940    0.51749    1.000
    C1111    C        0.40950    0.18310    0.50560    1.000
    H617     H        0.40840    0.22520    0.51190    1.000
    C1112    C        0.43140    0.16540    0.48450    1.000
    H618     H        0.44530    0.19530    0.47630    1.000
    C1113    C        0.36369    0.16120    0.53818    1.000
    C1114    C        0.37048    0.20540    0.56064    1.000
    H619     H        0.39040    0.22620    0.56140    1.000
    C1115    C        0.34810    0.21920    0.58204    1.000
    H620     H        0.35270    0.24950    0.59740    1.000
    C1116    C        0.31885    0.18880    0.58097    1.000
    C1117    C        0.31206    0.14450    0.55850    1.000
    H621     H        0.29210    0.12370    0.55780    1.000
    C1118    C        0.33450    0.13070    0.53711    1.000
    H622     H        0.32980    0.10050    0.52180    1.000
    C1119    C        0.30230    0.16870    0.68440    1.000
    C1120    C        0.17780    0.28170    0.68430    1.000
    C1121    C        0.25740    0.24500    0.56250    1.000
    H623     H        0.27120    0.24470    0.54580    1.000
    C1122    C        0.33200    0.15480    0.64640    1.000
    H624     H        0.34960    0.14560    0.63430    1.000
    C1123    C        0.29080    0.16850    0.71550    1.000
    C1124    C        0.22600    0.26270    0.56200    1.000
    H625     H        0.21210    0.27140    0.54470    1.000
    C1125    C        0.18720    0.28320    0.60260    1.000
    C1126    C        0.30400    0.18370    0.63540    1.000
    C1127    C        0.17770    0.29130    0.63460    1.000
    C1128    C        0.29550    0.20220    0.60470    1.000
    C1129    C        0.22320    0.21250    0.75690    1.000
    H626     H        0.21110    0.22140    0.77420    1.000
    C1130    C        0.09880    0.33540    0.80680    1.000
    C1131    C        0.09810    0.39770    0.81490    1.000
    H627     H        0.11160    0.42660    0.80540    1.000
    C1132    C        0.07750    0.41780    0.83688    1.000
    H628     H        0.07700    0.46040    0.84240    1.000
    C1133    C        0.05770    0.37560    0.85070    1.000
    C1134    C        0.05850    0.31330    0.84260    1.000
    H629     H        0.04500    0.28440    0.85210    1.000
    C1135    C        0.07910    0.29320    0.82070    1.000
    H630     H        0.07960    0.25060    0.81510    1.000
    C1136    C        0.25230    0.18840    0.75700    1.000
    H631     H        0.26460    0.17390    0.77430    1.000
    C1137    C        0.18470    0.25470    0.71290    1.000
    O127     O        0.45350    0.93470    0.87567    1.000
    C1138    C        0.45090    0.98890    0.87020    1.000
    C1139    C        0.14850    0.32050    0.64310    1.000
    H632     H        0.13220    0.33840    0.63020    1.000
    O128     O        0.03030    0.45350    0.87530    1.000
    C1140    C        0.03410    0.39700    0.87430    1.000
    C1141    C        0.16045    0.27350    0.73635    1.000
    C1142    C        0.14580    0.23030    0.75460    1.000
    H633     H        0.14900    0.18720    0.75140    1.000
    C1143    C        0.12630    0.25000    0.77753    1.000
    H634     H        0.11630    0.22040    0.79000    1.000
    C1144    C        0.12150    0.31300    0.78225    1.000
    C1145    C        0.13620    0.35630    0.76400    1.000
    H635     H        0.13290    0.39930    0.76720    1.000
    C1146    C        0.15570    0.33650    0.74107    1.000
    H636     H        0.16570    0.36610    0.72860    1.000
    C1147    C        0.16650    0.31800    0.57795    1.000
    C1148    C        0.17578    0.37280    0.56420    1.000
    H637     H        0.19590    0.39080    0.56970    1.000
    C1149    C        0.15570    0.40120    0.54220    1.000
    H638     H        0.16200    0.43860    0.53280    1.000
    C1150    C        0.12630    0.37480    0.53408    1.000
    C1151    C        0.11702    0.32000    0.54790    1.000
    H639     H        0.09690    0.30190    0.54230    1.000
    C1152    C        0.13710    0.29160    0.56980    1.000
    H640     H        0.13080    0.25420    0.57920    1.000
