data_functionalizedCrystal
_audit_creation_method	'EQeq! by Chris Wilmer'
_symmetry_space_group_name_H-M	'P1'
_symmetry_Int_Tables_number	1
_symmetry_cell_setting	triclinic
loop_
_symmetry_equiv_pos_as_xyz
  x,y,z
_cell_length_a	21.87
_cell_length_b	7.652
_cell_length_c	19.624
_cell_angle_alpha	90
_cell_angle_beta	90
_cell_angle_gamma	90
loop_
_atom_site_label
_atom_site_type_symbol
_atom_site_fract_x
_atom_site_fract_y
_atom_site_fract_z
_atom_site_charge
Mof_Eu	Eu	0.7807	0.92477	0.94608	2.294
Mof_O 	O 	0.75128	0.1702	0.0194	-0.687
Mof_O 	O 	0.6804	0.3392	0.0613	-0.515
Mof_O 	O 	0.68135	0.4989	0.3276	-0.498
Mof_O 	O 	0.73859	0.3068	0.37827	-0.704
Mof_O 	O 	0.6687	0.9465	0.9457	-0.581
Mof_O 	O 	0.63968	0.2219	0.92698	-0.597
Mof_C 	C 	0.7092	0.2008	0.0636	0.486
Mof_C 	C 	0.6951	0.0633	0.1152	-0.388
Mof_H 	H 	0.7329	0.0321	0.1381	0.135
Mof_H 	H 	0.6808	0.9602	0.0913	0.125
Mof_C 	C 	0.6487	0.1099	0.1685	0.003
Mof_H 	H 	0.6434	0.0065	0.1965	-0.009
Mof_H 	H 	0.6104	0.1278	0.1447	0
Mof_C 	C 	0.6556	0.2607	0.2167	0.163
Mof_H 	H 	0.6158	0.2942	0.2341	-0.044
Mof_H 	H 	0.6727	0.3601	0.1927	-0.04
Mof_C 	C 	0.697	0.2121	0.2756	-0.185
Mof_H 	H 	0.6817	0.1054	0.2961	0.147
Mof_H 	H 	0.7375	0.1877	0.2578	0.074
Mof_C 	C 	0.7024	0.35	0.3302	0.459
Mof_H 	H 	0.63	0.0072	0.1885	0.024
Mof_H 	H 	0.6173	0.1871	0.1509	0.02
Mof_C 	C 	0.6941	0.209	0.2216	-0.16
Mof_H 	H 	0.7317	0.1433	0.2267	0.039
Mof_H 	H 	0.7042	0.3244	0.2045	0.071
Mof_C 	C 	0.6625	0.225	0.2893	-0.129
Mof_H 	H 	0.6599	0.1116	0.3117	-0.055
Mof_H 	H 	0.6215	0.271	0.2838	0.064
Mof_C 	C 	0.6289	0.0617	0.9337	0.584
Mof_C 	C 	0.5629	0.0054	0.9302	-0.462
Mof_H 	H 	0.5605	0.8844	0.9157	0.149
Mof_H 	H 	0.5413	0.0765	0.8972	0.162
Mof_C 	C 	0.5335	0.0254	0.9996	0.029
Mof_H 	H 	0.5373	0.1461	0.0142	0.008
Mof_H 	H 	0.5554	0.9534	0.0322	0.007
Mof_Eu	Eu	0.7193	0.57523	0.44608	2.307
Mof_O 	O 	0.74872	0.3298	0.5194	-0.689
Mof_O 	O 	0.8196	0.1608	0.5613	-0.515
Mof_O 	O 	0.81865	0.0011	0.8276	-0.495
Mof_O 	O 	0.76141	0.1932	0.87827	-0.702
Mof_O 	O 	0.8313	0.5535	0.4457	-0.579
Mof_O 	O 	0.86032	0.2781	0.42698	-0.597
Mof_C 	C 	0.7908	0.2992	0.5636	0.485
Mof_C 	C 	0.8049	0.4367	0.6152	-0.381
Mof_H 	H 	0.7671	0.4679	0.6381	0.134
Mof_H 	H 	0.8192	0.5398	0.5913	0.121
Mof_C 	C 	0.8513	0.3901	0.6685	-0.001
Mof_H 	H 	0.8566	0.4935	0.6965	-0.009
Mof_H 	H 	0.8896	0.3722	0.6447	0.001
Mof_C 	C 	0.8444	0.2393	0.7167	0.162
Mof_H 	H 	0.8842	0.2058	0.7341	-0.044
Mof_H 	H 	0.8273	0.1399	0.6927	-0.04
Mof_C 	C 	0.803	0.2879	0.7756	-0.185
Mof_H 	H 	0.8183	0.3946	0.7961	0.147
Mof_H 	H 	0.7625	0.3123	0.7578	0.074
Mof_C 	C 	0.7976	0.15	0.8302	0.46
Mof_H 	H 	0.87	0.4928	0.6885	0.024
Mof_H 	H 	0.8827	0.3129	0.6509	0.021
Mof_C 	C 	0.8059	0.291	0.7216	-0.157
Mof_H 	H 	0.7683	0.3567	0.7267	0.039
Mof_H 	H 	0.7958	0.1756	0.7045	0.071
Mof_C 	C 	0.8375	0.275	0.7893	-0.131
Mof_H 	H 	0.8401	0.3884	0.8117	-0.054
Mof_H 	H 	0.8785	0.229	0.7838	0.064
Mof_C 	C 	0.8711	0.4383	0.4337	0.581
Mof_C 	C 	0.9371	0.4946	0.4302	-0.466
Mof_H 	H 	0.9395	0.6156	0.4157	0.152
Mof_H 	H 	0.9587	0.4235	0.3972	0.162
Mof_C 	C 	0.9665	0.4746	0.4996	0.027
Mof_H 	H 	0.9627	0.3539	0.5142	0.01
Mof_H 	H 	0.9446	0.5466	0.5322	0.007
Mof_Eu	Eu	0.2193	0.92477	0.55392	2.303
Mof_O 	O 	0.24872	0.1702	0.4806	-0.688
Mof_O 	O 	0.3196	0.3392	0.4387	-0.515
Mof_O 	O 	0.31865	0.4989	0.1724	-0.497
Mof_O 	O 	0.26141	0.3068	0.12173	-0.703
Mof_O 	O 	0.3313	0.9465	0.5543	-0.58
Mof_O 	O 	0.36032	0.2219	0.57302	-0.597
Mof_C 	C 	0.2908	0.2008	0.4364	0.485
Mof_C 	C 	0.3049	0.0633	0.3848	-0.383
Mof_H 	H 	0.2671	0.0321	0.3619	0.134
Mof_H 	H 	0.3192	0.9602	0.4087	0.122
Mof_C 	C 	0.3513	0.1099	0.3315	-0
Mof_H 	H 	0.3566	0.0065	0.3035	-0.009
Mof_H 	H 	0.3896	0.1278	0.3553	0.001
Mof_C 	C 	0.3444	0.2607	0.2833	0.163
Mof_H 	H 	0.3842	0.2942	0.2659	-0.044
Mof_H 	H 	0.3273	0.3601	0.3073	-0.04
Mof_C 	C 	0.303	0.2121	0.2244	-0.185
Mof_H 	H 	0.3183	0.1054	0.2039	0.147
Mof_H 	H 	0.2625	0.1877	0.2422	0.074
Mof_C 	C 	0.2976	0.35	0.1698	0.459
Mof_H 	H 	0.37	0.0072	0.3115	0.024
Mof_H 	H 	0.3827	0.1871	0.3491	0.021
Mof_C 	C 	0.3059	0.209	0.2784	-0.158
Mof_H 	H 	0.2683	0.1433	0.2733	0.039
Mof_H 	H 	0.2958	0.3244	0.2955	0.071
Mof_C 	C 	0.3375	0.225	0.2107	-0.13
Mof_H 	H 	0.3401	0.1116	0.1883	-0.055
Mof_H 	H 	0.3785	0.271	0.2162	0.064
Mof_C 	C 	0.3711	0.0617	0.5663	0.582
Mof_C 	C 	0.4371	0.0054	0.5698	-0.464
Mof_H 	H 	0.4395	0.8844	0.5843	0.151
Mof_H 	H 	0.4587	0.0765	0.6028	0.162
Mof_C 	C 	0.4665	0.0254	0.5004	0.026
Mof_H 	H 	0.4627	0.1461	0.4858	0.01
Mof_H 	H 	0.4446	0.9534	0.4678	0.007
Mof_Eu	Eu	0.2807	0.57523	0.05392	2.304
Mof_O 	O 	0.25128	0.3298	0.9806	-0.685
Mof_O 	O 	0.1804	0.1608	0.9387	-0.512
Mof_O 	O 	0.18135	0.0011	0.6724	-0.496
Mof_O 	O 	0.23859	0.1932	0.62173	-0.703
Mof_O 	O 	0.1687	0.5535	0.0543	-0.578
Mof_O 	O 	0.13968	0.2781	0.07302	-0.596
Mof_C 	C 	0.2092	0.2992	0.9364	0.484
Mof_C 	C 	0.1951	0.4367	0.8848	-0.38
Mof_H 	H 	0.2329	0.4679	0.8619	0.134
Mof_H 	H 	0.1808	0.5398	0.9087	0.121
Mof_C 	C 	0.1487	0.3901	0.8315	-0.002
Mof_H 	H 	0.1434	0.4935	0.8035	-0.008
Mof_H 	H 	0.1104	0.3722	0.8553	0.002
Mof_C 	C 	0.1556	0.2393	0.7833	0.163
Mof_H 	H 	0.1158	0.2058	0.7659	-0.044
Mof_H 	H 	0.1727	0.1399	0.8073	-0.04
Mof_C 	C 	0.197	0.2879	0.7244	-0.185
Mof_H 	H 	0.1817	0.3946	0.7039	0.147
Mof_H 	H 	0.2375	0.3123	0.7422	0.074
Mof_C 	C 	0.2024	0.15	0.6698	0.46
Mof_H 	H 	0.13	0.4928	0.8115	0.024
Mof_H 	H 	0.1173	0.3129	0.8491	0.021
Mof_C 	C 	0.1941	0.291	0.7784	-0.157
Mof_H 	H 	0.2317	0.3567	0.7733	0.039
Mof_H 	H 	0.2042	0.1756	0.7955	0.071
Mof_C 	C 	0.1625	0.275	0.7107	-0.131
Mof_H 	H 	0.1599	0.3884	0.6883	-0.054
Mof_H 	H 	0.1215	0.229	0.7162	0.065
Mof_C 	C 	0.1289	0.4383	0.0663	0.578
Mof_C 	C 	0.0629	0.4946	0.0698	-0.459
Mof_H 	H 	0.0605	0.6156	0.0843	0.149
Mof_H 	H 	0.0413	0.4235	0.1028	0.159
Mof_C 	C 	0.0335	0.4746	0.0004	0.013
Mof_H 	H 	0.0373	0.3539	0.9858	0.018
Mof_H 	H 	0.0554	0.5466	0.9678	0.014
Mof_Eu	Eu	0.2193	0.07523	0.05392	2.294
Mof_O 	O 	0.24872	0.8298	0.9806	-0.687
Mof_O 	O 	0.3196	0.6608	0.9387	-0.515
Mof_O 	O 	0.31865	0.5011	0.6724	-0.498
Mof_O 	O 	0.26141	0.6932	0.62173	-0.704
Mof_O 	O 	0.3313	0.0535	0.0543	-0.581
Mof_O 	O 	0.36032	0.7781	0.07302	-0.597
Mof_C 	C 	0.2908	0.7992	0.9364	0.486
Mof_C 	C 	0.3049	0.9367	0.8848	-0.388
Mof_H 	H 	0.2671	0.9679	0.8619	0.135
Mof_H 	H 	0.3192	0.0398	0.9087	0.125
Mof_C 	C 	0.3513	0.8901	0.8315	0.003
Mof_H 	H 	0.3566	0.9935	0.8035	-0.009
Mof_H 	H 	0.3896	0.8722	0.8553	0
Mof_C 	C 	0.3444	0.7393	0.7833	0.163
Mof_H 	H 	0.3842	0.7058	0.7659	-0.044
Mof_H 	H 	0.3273	0.6399	0.8073	-0.04
Mof_C 	C 	0.303	0.7879	0.7244	-0.185
Mof_H 	H 	0.3183	0.8946	0.7039	0.147
Mof_H 	H 	0.2625	0.8123	0.7422	0.074
Mof_C 	C 	0.2976	0.65	0.6698	0.459
Mof_H 	H 	0.37	0.9928	0.8115	0.024
Mof_H 	H 	0.3827	0.8129	0.8491	0.02
Mof_C 	C 	0.3059	0.791	0.7784	-0.16
Mof_H 	H 	0.2683	0.8567	0.7733	0.039
Mof_H 	H 	0.2958	0.6756	0.7955	0.071
Mof_C 	C 	0.3375	0.775	0.7107	-0.129
Mof_H 	H 	0.3401	0.8884	0.6883	-0.055
Mof_H 	H 	0.3785	0.729	0.7162	0.064
Mof_C 	C 	0.3711	0.9383	0.0663	0.584
Mof_C 	C 	0.4371	0.9946	0.0698	-0.462
Mof_H 	H 	0.4395	0.1156	0.0843	0.149
Mof_H 	H 	0.4587	0.9235	0.1028	0.162
Mof_C 	C 	0.4665	0.9746	0.0004	0.029
Mof_H 	H 	0.4627	0.8539	0.9858	0.008
Mof_H 	H 	0.4446	0.0466	0.9678	0.007
Mof_Eu	Eu	0.2807	0.42477	0.55392	2.307
Mof_O 	O 	0.25128	0.6702	0.4806	-0.689
Mof_O 	O 	0.1804	0.8392	0.4387	-0.515
Mof_O 	O 	0.18135	0.9989	0.1724	-0.495
Mof_O 	O 	0.23859	0.8068	0.12173	-0.702
Mof_O 	O 	0.1687	0.4465	0.5543	-0.579
Mof_O 	O 	0.13968	0.7219	0.57302	-0.597
Mof_C 	C 	0.2092	0.7008	0.4364	0.485
Mof_C 	C 	0.1951	0.5633	0.3848	-0.381
Mof_H 	H 	0.2329	0.5321	0.3619	0.134
Mof_H 	H 	0.1808	0.4602	0.4087	0.121
Mof_C 	C 	0.1487	0.6099	0.3315	-0.001
Mof_H 	H 	0.1434	0.5065	0.3035	-0.009
Mof_H 	H 	0.1104	0.6278	0.3553	0.001
Mof_C 	C 	0.1556	0.7607	0.2833	0.162
Mof_H 	H 	0.1158	0.7942	0.2659	-0.044
Mof_H 	H 	0.1727	0.8601	0.3073	-0.04
Mof_C 	C 	0.197	0.7121	0.2244	-0.185
Mof_H 	H 	0.1817	0.6054	0.2039	0.147
Mof_H 	H 	0.2375	0.6877	0.2422	0.074
Mof_C 	C 	0.2024	0.85	0.1698	0.46
Mof_H 	H 	0.13	0.5072	0.3115	0.024
Mof_H 	H 	0.1173	0.6871	0.3491	0.021
Mof_C 	C 	0.1941	0.709	0.2784	-0.157
Mof_H 	H 	0.2317	0.6433	0.2733	0.039
Mof_H 	H 	0.2042	0.8244	0.2955	0.071
Mof_C 	C 	0.1625	0.725	0.2107	-0.131
Mof_H 	H 	0.1599	0.6116	0.1883	-0.054
Mof_H 	H 	0.1215	0.771	0.2162	0.064
Mof_C 	C 	0.1289	0.5617	0.5663	0.581
Mof_C 	C 	0.0629	0.5054	0.5698	-0.466
Mof_H 	H 	0.0605	0.3844	0.5843	0.152
Mof_H 	H 	0.0413	0.5765	0.6028	0.162
Mof_C 	C 	0.0335	0.5254	0.5004	0.027
Mof_H 	H 	0.0373	0.6461	0.4858	0.01
Mof_H 	H 	0.0554	0.4534	0.4678	0.007
Mof_Eu	Eu	0.7807	0.07523	0.44608	2.303
Mof_O 	O 	0.75128	0.8298	0.5194	-0.688
Mof_O 	O 	0.6804	0.6608	0.5613	-0.515
Mof_O 	O 	0.68135	0.5011	0.8276	-0.497
Mof_O 	O 	0.73859	0.6932	0.87827	-0.703
Mof_O 	O 	0.6687	0.0535	0.4457	-0.58
Mof_O 	O 	0.63968	0.7781	0.42698	-0.597
Mof_C 	C 	0.7092	0.7992	0.5636	0.485
Mof_C 	C 	0.6951	0.9367	0.6152	-0.383
Mof_H 	H 	0.7329	0.9679	0.6381	0.134
Mof_H 	H 	0.6808	0.0398	0.5913	0.122
Mof_C 	C 	0.6487	0.8901	0.6685	-0
Mof_H 	H 	0.6434	0.9935	0.6965	-0.009
Mof_H 	H 	0.6104	0.8722	0.6447	0.001
Mof_C 	C 	0.6556	0.7393	0.7167	0.163
Mof_H 	H 	0.6158	0.7058	0.7341	-0.044
Mof_H 	H 	0.6727	0.6399	0.6927	-0.04
Mof_C 	C 	0.697	0.7879	0.7756	-0.185
Mof_H 	H 	0.6817	0.8946	0.7961	0.147
Mof_H 	H 	0.7375	0.8123	0.7578	0.074
Mof_C 	C 	0.7024	0.65	0.8302	0.459
Mof_H 	H 	0.63	0.9928	0.6885	0.024
Mof_H 	H 	0.6173	0.8129	0.6509	0.021
Mof_C 	C 	0.6941	0.791	0.7216	-0.158
Mof_H 	H 	0.7317	0.8567	0.7267	0.039
Mof_H 	H 	0.7042	0.6756	0.7045	0.071
Mof_C 	C 	0.6625	0.775	0.7893	-0.13
Mof_H 	H 	0.6599	0.8884	0.8117	-0.055
Mof_H 	H 	0.6215	0.729	0.7838	0.064
Mof_C 	C 	0.6289	0.9383	0.4337	0.582
Mof_C 	C 	0.5629	0.9946	0.4302	-0.464
Mof_H 	H 	0.5605	0.1156	0.4157	0.151
Mof_H 	H 	0.5413	0.9235	0.3972	0.162
Mof_C 	C 	0.5335	0.9746	0.4996	0.026
Mof_H 	H 	0.5373	0.8539	0.5142	0.01
Mof_H 	H 	0.5554	0.0466	0.5322	0.007
Mof_Eu	Eu	0.7193	0.42477	0.94608	2.304
Mof_O 	O 	0.74872	0.6702	0.0194	-0.685
Mof_O 	O 	0.8196	0.8392	0.0613	-0.512
Mof_O 	O 	0.81865	0.9989	0.3276	-0.496
Mof_O 	O 	0.76141	0.8068	0.37827	-0.703
Mof_O 	O 	0.8313	0.4465	0.9457	-0.578
Mof_O 	O 	0.86032	0.7219	0.92698	-0.596
Mof_C 	C 	0.7908	0.7008	0.0636	0.484
Mof_C 	C 	0.8049	0.5633	0.1152	-0.38
Mof_H 	H 	0.7671	0.5321	0.1381	0.134
Mof_H 	H 	0.8192	0.4602	0.0913	0.121
Mof_C 	C 	0.8513	0.6099	0.1685	-0.002
Mof_H 	H 	0.8566	0.5065	0.1965	-0.008
Mof_H 	H 	0.8896	0.6278	0.1447	0.002
Mof_C 	C 	0.8444	0.7607	0.2167	0.163
Mof_H 	H 	0.8842	0.7942	0.2341	-0.044
Mof_H 	H 	0.8273	0.8601	0.1927	-0.04
Mof_C 	C 	0.803	0.7121	0.2756	-0.185
Mof_H 	H 	0.8183	0.6054	0.2961	0.147
Mof_H 	H 	0.7625	0.6877	0.2578	0.074
Mof_C 	C 	0.7976	0.85	0.3302	0.46
Mof_H 	H 	0.87	0.5072	0.1885	0.024
Mof_H 	H 	0.8827	0.6871	0.1509	0.021
Mof_C 	C 	0.8059	0.709	0.2216	-0.157
Mof_H 	H 	0.7683	0.6433	0.2267	0.039
Mof_H 	H 	0.7958	0.8244	0.2045	0.071
Mof_C 	C 	0.8375	0.725	0.2893	-0.131
Mof_H 	H 	0.8401	0.6116	0.3117	-0.054
Mof_H 	H 	0.8785	0.771	0.2838	0.065
Mof_C 	C 	0.8711	0.5617	0.9337	0.578
Mof_C 	C 	0.9371	0.5054	0.9302	-0.459
Mof_H 	H 	0.9395	0.3844	0.9157	0.149
Mof_H 	H 	0.9587	0.5765	0.8972	0.159
Mof_C 	C 	0.9665	0.5254	0.9996	0.013
Mof_H 	H 	0.9627	0.6461	0.0142	0.018
Mof_H 	H 	0.9446	0.4534	0.0322	0.014
_end
