data_functionalizedCrystal
_audit_creation_method	'EQeq! by Chris Wilmer'
_symmetry_space_group_name_H-M	'P1'
_symmetry_Int_Tables_number	1
_symmetry_cell_setting	triclinic
loop_
_symmetry_equiv_pos_as_xyz
  x,y,z
_cell_length_a	24.8112
_cell_length_b	13.7461
_cell_length_c	13.6627
_cell_angle_alpha	90
_cell_angle_beta	99.153
_cell_angle_gamma	90
loop_
_atom_site_label
_atom_site_type_symbol
_atom_site_fract_x
_atom_site_fract_y
_atom_site_fract_z
_atom_site_charge
Mof_Sm	Sm	0.17023	0.21548	0.46104	2.034
Mof_C 	C 	0.0753	0.28048	0.53748	0.33
Mof_C 	C 	0.02402	0.31182	0.57474	-0.128
Mof_C 	C 	0.98578	0.2436	0.5932	0.052
Mof_H 	H 	0.9932	0.1776	0.5886	0.011
Mof_C 	C 	0.93629	0.2737	0.6185	-0.148
Mof_H 	H 	0.9107	0.2272	0.6298	0.075
Mof_C 	C 	0.9241	0.37206	0.62747	0.096
Mof_C 	C 	0.96322	0.4398	0.6107	-0.145
Mof_H 	H 	0.9564	0.506	0.6157	0.074
Mof_C 	C 	0.01269	0.408	0.5862	0.054
Mof_H 	H 	0.039	0.4539	0.5774	0.019
Mof_C 	C 	0.86936	0.39993	0.65019	-0.083
Mof_C 	C 	0.84619	0.34657	0.71914	0.053
Mof_H 	H 	0.8668	0.2982	0.755	0.023
Mof_C 	C 	0.79335	0.36301	0.7363	-0.175
Mof_C 	C 	0.76188	0.43346	0.67997	0.096
Mof_H 	H 	0.7254	0.4421	0.6864	0.005
Mof_C 	C 	0.78562	0.49103	0.61371	-0.179
Mof_C 	C 	0.83886	0.47529	0.60036	0.044
Mof_H 	H 	0.8546	0.5153	0.5578	0.012
Mof_C 	C 	0.77129	0.30712	0.81685	0.48
Mof_C 	C 	0.75078	0.5697	0.55873	0.447
Mof_O 	O 	0.10696	0.34308	0.51399	-0.441
Mof_O 	O 	0.08439	0.18995	0.52822	-0.463
Mof_O 	O 	0.77273	0.64462	0.53041	-0.618
Mof_O 	O 	0.69963	0.55892	0.54345	-0.483
Mof_O 	O 	0.72306	0.32743	0.83011	-0.54
Mof_O 	O 	0.80191	0.24671	0.86404	-0.508
Mof_Sm	Sm	0.67023	0.71548	0.46104	2.035
Mof_C 	C 	0.5753	0.78048	0.53748	0.331
Mof_C 	C 	0.52402	0.81182	0.57474	-0.127
Mof_C 	C 	0.48578	0.7436	0.5932	0.053
Mof_H 	H 	0.4932	0.6776	0.5886	0.012
Mof_C 	C 	0.43629	0.7737	0.6185	-0.147
Mof_H 	H 	0.4107	0.7272	0.6298	0.076
Mof_C 	C 	0.4241	0.87206	0.62747	0.097
Mof_C 	C 	0.46322	0.9398	0.6107	-0.146
Mof_H 	H 	0.4564	0.006	0.6157	0.074
Mof_C 	C 	0.51269	0.908	0.5862	0.055
Mof_H 	H 	0.539	0.9539	0.5774	0.018
Mof_C 	C 	0.36936	0.89993	0.65019	-0.084
Mof_C 	C 	0.34619	0.84657	0.71914	0.054
Mof_H 	H 	0.3668	0.7982	0.755	0.023
Mof_C 	C 	0.29335	0.86301	0.7363	-0.176
Mof_C 	C 	0.26188	0.93346	0.67997	0.096
Mof_H 	H 	0.2254	0.9421	0.6864	0.004
Mof_C 	C 	0.28562	0.99103	0.61371	-0.179
Mof_C 	C 	0.33886	0.97529	0.60036	0.044
Mof_H 	H 	0.3546	0.0153	0.5578	0.012
Mof_C 	C 	0.27129	0.80712	0.81685	0.48
Mof_C 	C 	0.25078	0.0697	0.55873	0.447
Mof_O 	O 	0.60696	0.84308	0.51399	-0.441
Mof_O 	O 	0.58439	0.68995	0.52822	-0.463
Mof_O 	O 	0.27273	0.14462	0.53041	-0.618
Mof_O 	O 	0.19963	0.05892	0.54345	-0.483
Mof_O 	O 	0.22306	0.82743	0.83011	-0.54
Mof_O 	O 	0.30191	0.74671	0.86404	-0.509
Mof_Sm	Sm	0.82977	0.21548	0.03896	2.029
Mof_C 	C 	0.9247	0.28048	0.96252	0.33
Mof_C 	C 	0.97598	0.31182	0.92526	-0.125
Mof_C 	C 	0.01422	0.2436	0.9068	0.051
Mof_H 	H 	0.0068	0.1776	0.9114	0.012
Mof_C 	C 	0.06371	0.2737	0.8815	-0.146
Mof_H 	H 	0.0893	0.2272	0.8702	0.076
Mof_C 	C 	0.0759	0.37206	0.87253	0.097
Mof_C 	C 	0.03678	0.4398	0.8893	-0.148
Mof_H 	H 	0.0436	0.506	0.8843	0.074
Mof_C 	C 	0.98731	0.408	0.9138	0.057
Mof_H 	H 	0.961	0.4539	0.9226	0.018
Mof_C 	C 	0.13064	0.39993	0.84981	-0.084
Mof_C 	C 	0.15381	0.34657	0.78086	0.054
Mof_H 	H 	0.1332	0.2982	0.745	0.023
Mof_C 	C 	0.20665	0.36301	0.7637	-0.176
Mof_C 	C 	0.23812	0.43346	0.82003	0.096
Mof_H 	H 	0.2746	0.4421	0.8136	0.004
Mof_C 	C 	0.21438	0.49103	0.88629	-0.179
Mof_C 	C 	0.16114	0.47529	0.89964	0.044
Mof_H 	H 	0.1454	0.5153	0.9422	0.012
Mof_C 	C 	0.22871	0.30712	0.68315	0.48
Mof_C 	C 	0.24922	0.5697	0.94127	0.447
Mof_O 	O 	0.89304	0.34308	0.98601	-0.439
Mof_O 	O 	0.91561	0.18995	0.97178	-0.461
Mof_O 	O 	0.22727	0.64462	0.96959	-0.618
Mof_O 	O 	0.30037	0.55892	0.95655	-0.483
Mof_O 	O 	0.27694	0.32743	0.66989	-0.54
Mof_O 	O 	0.19809	0.24671	0.63596	-0.509
Mof_Sm	Sm	0.32977	0.71548	0.03896	2.038
Mof_C 	C 	0.4247	0.78048	0.96252	0.331
Mof_C 	C 	0.47598	0.81182	0.92526	-0.127
Mof_C 	C 	0.51422	0.7436	0.9068	0.054
Mof_H 	H 	0.5068	0.6776	0.9114	0.012
Mof_C 	C 	0.56371	0.7737	0.8815	-0.147
Mof_H 	H 	0.5893	0.7272	0.8702	0.076
Mof_C 	C 	0.5759	0.87206	0.87253	0.098
Mof_C 	C 	0.53678	0.9398	0.8893	-0.147
Mof_H 	H 	0.5436	0.006	0.8843	0.075
Mof_C 	C 	0.48731	0.908	0.9138	0.056
Mof_H 	H 	0.461	0.9539	0.9226	0.018
Mof_C 	C 	0.63064	0.89993	0.84981	-0.083
Mof_C 	C 	0.65381	0.84657	0.78086	0.054
Mof_H 	H 	0.6332	0.7982	0.745	0.023
Mof_C 	C 	0.70665	0.86301	0.7637	-0.176
Mof_C 	C 	0.73812	0.93346	0.82003	0.096
Mof_H 	H 	0.7746	0.9421	0.8136	0.004
Mof_C 	C 	0.71438	0.99103	0.88629	-0.179
Mof_C 	C 	0.66114	0.97529	0.89964	0.043
Mof_H 	H 	0.6454	0.0153	0.9422	0.013
Mof_C 	C 	0.72871	0.80712	0.68315	0.48
Mof_C 	C 	0.74922	0.0697	0.94127	0.447
Mof_O 	O 	0.39304	0.84308	0.98601	-0.442
Mof_O 	O 	0.41561	0.68995	0.97178	-0.463
Mof_O 	O 	0.72727	0.14462	0.96959	-0.617
Mof_O 	O 	0.80037	0.05892	0.95655	-0.481
Mof_O 	O 	0.77694	0.82743	0.66989	-0.54
Mof_O 	O 	0.69809	0.74671	0.63596	-0.508
Mof_Sm	Sm	0.82977	0.78452	0.53896	2.035
Mof_C 	C 	0.9247	0.71952	0.46252	0.331
Mof_C 	C 	0.97598	0.68818	0.42526	-0.127
Mof_C 	C 	0.01422	0.7564	0.4068	0.053
Mof_H 	H 	0.0068	0.8224	0.4114	0.012
Mof_C 	C 	0.06371	0.7263	0.3815	-0.147
Mof_H 	H 	0.0893	0.7728	0.3702	0.076
Mof_C 	C 	0.0759	0.62794	0.37253	0.097
Mof_C 	C 	0.03678	0.5602	0.3893	-0.145
Mof_H 	H 	0.0436	0.494	0.3843	0.074
Mof_C 	C 	0.98731	0.592	0.4138	0.054
Mof_H 	H 	0.961	0.5461	0.4226	0.019
Mof_C 	C 	0.13064	0.60007	0.34981	-0.083
Mof_C 	C 	0.15381	0.65343	0.28086	0.053
Mof_H 	H 	0.1332	0.7018	0.245	0.023
Mof_C 	C 	0.20665	0.63699	0.2637	-0.175
Mof_C 	C 	0.23812	0.56654	0.32003	0.096
Mof_H 	H 	0.2746	0.5579	0.3136	0.005
Mof_C 	C 	0.21438	0.50897	0.38629	-0.179
Mof_C 	C 	0.16114	0.52471	0.39964	0.044
Mof_H 	H 	0.1454	0.4847	0.4422	0.012
Mof_C 	C 	0.22871	0.69288	0.18315	0.48
Mof_C 	C 	0.24922	0.4303	0.44127	0.447
Mof_O 	O 	0.89304	0.65692	0.48601	-0.441
Mof_O 	O 	0.91561	0.81005	0.47178	-0.463
Mof_O 	O 	0.22727	0.35538	0.46959	-0.618
Mof_O 	O 	0.30037	0.44108	0.45655	-0.483
Mof_O 	O 	0.27694	0.67257	0.16989	-0.54
Mof_O 	O 	0.19809	0.75329	0.13596	-0.508
Mof_Sm	Sm	0.32977	0.28452	0.53896	2.035
Mof_C 	C 	0.4247	0.21952	0.46252	0.331
Mof_C 	C 	0.47598	0.18818	0.42526	-0.127
Mof_C 	C 	0.51422	0.2564	0.4068	0.053
Mof_H 	H 	0.5068	0.3224	0.4114	0.012
Mof_C 	C 	0.56371	0.2263	0.3815	-0.147
Mof_H 	H 	0.5893	0.2728	0.3702	0.076
Mof_C 	C 	0.5759	0.12794	0.37253	0.097
Mof_C 	C 	0.53678	0.0602	0.3893	-0.146
Mof_H 	H 	0.5436	0.994	0.3843	0.074
Mof_C 	C 	0.48731	0.092	0.4138	0.055
Mof_H 	H 	0.461	0.0461	0.4226	0.018
Mof_C 	C 	0.63064	0.10007	0.34981	-0.084
Mof_C 	C 	0.65381	0.15343	0.28086	0.054
Mof_H 	H 	0.6332	0.2018	0.245	0.023
Mof_C 	C 	0.70665	0.13699	0.2637	-0.176
Mof_C 	C 	0.73812	0.06654	0.32003	0.096
Mof_H 	H 	0.7746	0.0579	0.3136	0.004
Mof_C 	C 	0.71438	0.00897	0.38629	-0.179
Mof_C 	C 	0.66114	0.02471	0.39964	0.044
Mof_H 	H 	0.6454	0.9847	0.4422	0.012
Mof_C 	C 	0.72871	0.19288	0.18315	0.48
Mof_C 	C 	0.74922	0.9303	0.44127	0.447
Mof_O 	O 	0.39304	0.15692	0.48601	-0.441
Mof_O 	O 	0.41561	0.31005	0.47178	-0.463
Mof_O 	O 	0.72727	0.85538	0.46959	-0.618
Mof_O 	O 	0.80037	0.94108	0.45655	-0.483
Mof_O 	O 	0.77694	0.17257	0.16989	-0.54
Mof_O 	O 	0.69809	0.25329	0.13596	-0.509
Mof_Sm	Sm	0.17023	0.78452	0.96104	2.029
Mof_C 	C 	0.0753	0.71952	0.03748	0.33
Mof_C 	C 	0.02402	0.68818	0.07474	-0.125
Mof_C 	C 	0.98578	0.7564	0.0932	0.051
Mof_H 	H 	0.9932	0.8224	0.0886	0.012
Mof_C 	C 	0.93629	0.7263	0.1185	-0.146
Mof_H 	H 	0.9107	0.7728	0.1298	0.076
Mof_C 	C 	0.9241	0.62794	0.12747	0.097
Mof_C 	C 	0.96322	0.5602	0.1107	-0.148
Mof_H 	H 	0.9564	0.494	0.1157	0.074
Mof_C 	C 	0.01269	0.592	0.0862	0.057
Mof_H 	H 	0.039	0.5461	0.0774	0.018
Mof_C 	C 	0.86936	0.60007	0.15019	-0.084
Mof_C 	C 	0.84619	0.65343	0.21914	0.054
Mof_H 	H 	0.8668	0.7018	0.255	0.023
Mof_C 	C 	0.79335	0.63699	0.2363	-0.176
Mof_C 	C 	0.76188	0.56654	0.17997	0.096
Mof_H 	H 	0.7254	0.5579	0.1864	0.004
Mof_C 	C 	0.78562	0.50897	0.11371	-0.179
Mof_C 	C 	0.83886	0.52471	0.10036	0.044
Mof_H 	H 	0.8546	0.4847	0.0578	0.012
Mof_C 	C 	0.77129	0.69288	0.31685	0.48
Mof_C 	C 	0.75078	0.4303	0.05873	0.447
Mof_O 	O 	0.10696	0.65692	0.01399	-0.439
Mof_O 	O 	0.08439	0.81005	0.02822	-0.461
Mof_O 	O 	0.77273	0.35538	0.03041	-0.618
Mof_O 	O 	0.69963	0.44108	0.04345	-0.483
Mof_O 	O 	0.72306	0.67257	0.33011	-0.54
Mof_O 	O 	0.80191	0.75329	0.36404	-0.509
Mof_Sm	Sm	0.67023	0.28452	0.96104	2.038
Mof_C 	C 	0.5753	0.21952	0.03748	0.331
Mof_C 	C 	0.52402	0.18818	0.07474	-0.127
Mof_C 	C 	0.48578	0.2564	0.0932	0.054
Mof_H 	H 	0.4932	0.3224	0.0886	0.012
Mof_C 	C 	0.43629	0.2263	0.1185	-0.147
Mof_H 	H 	0.4107	0.2728	0.1298	0.076
Mof_C 	C 	0.4241	0.12794	0.12747	0.098
Mof_C 	C 	0.46322	0.0602	0.1107	-0.147
Mof_H 	H 	0.4564	0.994	0.1157	0.075
Mof_C 	C 	0.51269	0.092	0.0862	0.056
Mof_H 	H 	0.539	0.0461	0.0774	0.018
Mof_C 	C 	0.36936	0.10007	0.15019	-0.083
Mof_C 	C 	0.34619	0.15343	0.21914	0.054
Mof_H 	H 	0.3668	0.2018	0.255	0.023
Mof_C 	C 	0.29335	0.13699	0.2363	-0.176
Mof_C 	C 	0.26188	0.06654	0.17997	0.096
Mof_H 	H 	0.2254	0.0579	0.1864	0.004
Mof_C 	C 	0.28562	0.00897	0.11371	-0.179
Mof_C 	C 	0.33886	0.02471	0.10036	0.043
Mof_H 	H 	0.3546	0.9847	0.0578	0.013
Mof_C 	C 	0.27129	0.19288	0.31685	0.48
Mof_C 	C 	0.25078	0.9303	0.05873	0.447
Mof_O 	O 	0.60696	0.15692	0.01399	-0.442
Mof_O 	O 	0.58439	0.31005	0.02822	-0.463
Mof_O 	O 	0.27273	0.85538	0.03041	-0.617
Mof_O 	O 	0.19963	0.94108	0.04345	-0.481
Mof_O 	O 	0.22306	0.17257	0.33011	-0.54
Mof_O 	O 	0.30191	0.25329	0.36404	-0.508
_end
