data_functionalizedCrystal
_audit_creation_method	'EQeq! by Chris Wilmer'
_symmetry_space_group_name_H-M	'P1'
_symmetry_Int_Tables_number	1
_symmetry_cell_setting	triclinic
loop_
_symmetry_equiv_pos_as_xyz
  x,y,z
_cell_length_a	28.028
_cell_length_b	28.028
_cell_length_c	25.567
_cell_angle_alpha	90
_cell_angle_beta	90
_cell_angle_gamma	120
loop_
_atom_site_label
_atom_site_type_symbol
_atom_site_fract_x
_atom_site_fract_y
_atom_site_fract_z
_atom_site_charge
Mof_Cs	Cs	0.37265	0.05491	0.98078	0.696
Mof_P 	P 	0.38488	0.18762	0.0042	-0.346
Mof_O 	O 	0.3723	0.0365	0.09895	-0.438
Mof_C 	C 	0.3262	0.1917	0.9996	0.626
Mof_P 	P 	0.33022	0.25556	0.99492	-0.376
Mof_O 	O 	0.3402	0.9857	0.19731	-0.399
Mof_C 	C 	0.4348	0.2558	0.0037	-0.137
Mof_P 	P 	0.41497	0.30617	0.00013	-0.059
Mof_C 	C 	0.2671	0.1383	0.9994	-3.303
Mof_C 	C 	0.2431	0.1179	0.9566	2.781
Mof_H 	H 	0.2086	0.0869	0.9615	-1.125
Mof_C 	C 	0.2407	0.1159	0.0532	7.289
Mof_C 	C 	0.1845	0.0673	0.0518	-7.727
Mof_H 	H 	0.1765	0.0485	0.0849	2.186
Mof_H 	H 	0.1824	0.0427	0.0246	2.235
Mof_H 	H 	0.1583	0.079	0.0452	2.177
Mof_C 	C 	0.2325	0.1577	0.0793	-8.928
Mof_H 	H 	0.1961	0.1407	0.0938	2.595
Mof_H 	H 	0.237	0.1852	0.0544	2.608
Mof_H 	H 	0.2592	0.1745	0.1068	2.56
Mof_C 	C 	0.27	0.093	0.0793	-8.907
Mof_H 	H 	0.2509	0.0749	0.1108	2.552
Mof_H 	H 	0.3065	0.122	0.0879	2.517
Mof_H 	H 	0.2724	0.0669	0.0567	2.542
Mof_C 	C 	0.257	0.1317	0.8988	-2.809
Mof_C 	C 	0.2269	0.0801	0.8687	3.022
Mof_H 	H 	0.1881	0.0645	0.8741	-0.997
Mof_H 	H 	0.2381	0.0545	0.8802	-0.997
Mof_H 	H 	0.2351	0.0877	0.8322	-0.927
Mof_C 	C 	0.2433	0.1738	0.8821	3.114
Mof_H 	H 	0.2045	0.1596	0.8861	-1.098
Mof_H 	H 	0.2535	0.1831	0.8461	-0.988
Mof_H 	H 	0.2631	0.2062	0.9034	-1.013
Mof_C 	C 	0.3195	0.1548	0.8832	2.403
Mof_H 	H 	0.3234	0.1592	0.8459	-0.794
Mof_H 	H 	0.3309	0.1293	0.8944	-0.799
Mof_H 	H 	0.342	0.1897	0.8998	-0.731
Mof_C 	C 	0.3714	0.0656	0.1436	0.131
Mof_H 	H 	0.3632	0.0941	0.1333	-0.282
Mof_H 	H 	0.4073	0.0833	0.1602	-0.101
Mof_C 	C 	0.3292	0.0276	0.1811	0.054
Mof_H 	H 	0.3287	0.0482	0.2114	-0.203
Mof_H 	H 	0.2932	0.011	0.1648	-0.086
Mof_C 	C 	0.342	0.9566	0.1522	0.057
Mof_H 	H 	0.306	0.938	0.1356	-0.014
Mof_H 	H 	0.3511	0.9288	0.1626	-0.035
Mof_C 	C 	0.3834	0.9948	0.1144	0.099
Mof_H 	H 	0.4197	0.0114	0.1302	0.016
Mof_H 	H 	0.3835	0.9743	0.0838	-0.043
Mof_C 	C 	0.4711	0.0097	0.9226	-5.351
Mof_H 	H 	0.4747	0.992	0.8919	0.744
Mof_H 	H 	0.4349	0.0054	0.9236	0.513
Mof_H 	H 	0.4766	0.9931	0.9532	1.252
Mof_C 	C 	0.5159	0.1291	0.0364	-0.484
Mof_H 	H 	0.5431	0.1607	0.0551	0.052
Mof_H 	H 	0.5043	0.0966	0.0572	0.143
Mof_H 	H 	0.4847	0.1335	0.029	-0.021
Mof_O 	O 	0.487	0.0739	0.9726	0.384
Mof_C 	C 	0.5144	0.0711	0.9213	-0.033
Mof_H 	H 	0.5105	0.0913	0.8924	-0.237
Mof_H 	H 	0.5521	0.0791	0.9251	0.184
Mof_C 	C 	0.5405	0.1234	0.9852	-0.16
Mof_H 	H 	0.5508	0.1538	0.9613	0.022
Mof_H 	H 	0.5704	0.1158	0.9899	-0.07
Mof_C 	C 	0.515	0.032	0.964	1.701
Mof_C 	C 	0.5379	0.0925	0.019	0.22
Mof_Cs	Cs	0.3463	0.05513	0.97953	1.243
Mof_H 	H 	0.4725	0.981	0.9032	0.814
Mof_H 	H 	0.477	0.039	0.8993	1.6
Mof_H 	H 	0.4357	0.9951	0.9389	0.947
Mof_H 	H 	0.5516	0.0583	0.9513	-0.601
Mof_H 	H 	0.5168	0.003	0.9844	-0.709
Mof_H 	H 	0.5446	0.0739	0.048	-0.175
Mof_H 	H 	0.5698	0.1105	0.9966	0.063
Mof_H 	H 	0.5419	0.1572	0.0593	0.045
Mof_H 	H 	0.4816	0.1075	0.0545	0.055
Mof_H 	H 	0.51	0.1459	0.0062	0.118
Mof_O 	O 	0.4849	0.0567	0.9907	-0.879
Mof_Cs	Cs	0.03932	0.38824	0.31411	0.524
Mof_P 	P 	0.05155	0.52095	0.33753	-0.372
Mof_O 	O 	0.03897	0.36983	0.43228	-0.414
Mof_C 	C 	0.99287	0.52503	0.33293	0.809
Mof_P 	P 	0.99689	0.58889	0.32825	-0.423
Mof_O 	O 	0.00687	0.31903	0.53064	-0.395
Mof_C 	C 	0.10147	0.58913	0.33703	-0.127
Mof_P 	P 	0.08164	0.6395	0.33346	-0.049
Mof_C 	C 	0.93377	0.47163	0.33273	-4.173
Mof_C 	C 	0.90977	0.45123	0.28993	3.675
Mof_H 	H 	0.87527	0.42023	0.29483	-1.492
Mof_C 	C 	0.90737	0.44923	0.38653	9.042
Mof_C 	C 	0.85117	0.40063	0.38513	-9.489
Mof_H 	H 	0.84317	0.38183	0.41823	2.705
Mof_H 	H 	0.84907	0.37603	0.35793	2.731
Mof_H 	H 	0.82497	0.41233	0.37853	2.665
Mof_C 	C 	0.89917	0.49103	0.41263	-11.021
Mof_H 	H 	0.86277	0.47403	0.42713	3.214
Mof_H 	H 	0.90367	0.51853	0.38773	3.231
Mof_H 	H 	0.92587	0.50783	0.44013	3.179
Mof_C 	C 	0.93667	0.42633	0.41263	-11.047
Mof_H 	H 	0.91757	0.40823	0.44413	3.188
Mof_H 	H 	0.97317	0.45533	0.42123	3.148
Mof_H 	H 	0.93907	0.40023	0.39003	3.188
Mof_C 	C 	0.92367	0.46503	0.23213	-3.876
Mof_C 	C 	0.89357	0.41343	0.20203	4.339
Mof_H 	H 	0.85477	0.39783	0.20743	-1.444
Mof_H 	H 	0.90477	0.38783	0.21353	-1.431
Mof_H 	H 	0.90177	0.42103	0.16553	-1.323
Mof_C 	C 	0.90997	0.50713	0.21543	4.417
Mof_H 	H 	0.87117	0.49293	0.21943	-1.543
Mof_H 	H 	0.92017	0.51643	0.17943	-1.376
Mof_H 	H 	0.92977	0.53953	0.23673	-1.425
Mof_C 	C 	0.98617	0.48813	0.21653	3.321
Mof_H 	H 	0.99007	0.49253	0.17923	-1.043
Mof_H 	H 	0.99757	0.46263	0.22773	-1.068
Mof_H 	H 	0.00867	0.52303	0.23313	-0.995
Mof_C 	C 	0.03807	0.39893	0.47693	0.121
Mof_H 	H 	0.02987	0.42743	0.46663	-0.29
Mof_H 	H 	0.07397	0.41663	0.49353	-0.081
Mof_C 	C 	0.99587	0.36093	0.51443	0.056
Mof_H 	H 	0.99537	0.38153	0.54473	-0.192
Mof_H 	H 	0.95987	0.34433	0.49813	-0.075
Mof_C 	C 	0.00867	0.28993	0.48553	0.061
Mof_H 	H 	0.97267	0.27133	0.46893	0.001
Mof_H 	H 	0.01777	0.26213	0.49593	-0.041
Mof_C 	C 	0.05007	0.32813	0.44773	0.067
Mof_H 	H 	0.08637	0.34473	0.46353	0.034
Mof_H 	H 	0.05017	0.30763	0.41713	-0.025
Mof_C 	C 	0.13777	0.34303	0.25593	-6.265
Mof_H 	H 	0.14137	0.32533	0.22523	0.945
Mof_H 	H 	0.10157	0.33873	0.25693	0.568
Mof_H 	H 	0.14327	0.32643	0.28653	1.514
Mof_C 	C 	0.18257	0.46243	0.36973	-0.591
Mof_H 	H 	0.20977	0.49403	0.38843	0.071
Mof_H 	H 	0.17097	0.42993	0.39053	0.167
Mof_H 	H 	0.15137	0.46683	0.36233	0.002
Mof_O 	O 	0.15367	0.40723	0.30593	0.373
Mof_C 	C 	0.18107	0.40443	0.25463	0.09
Mof_H 	H 	0.17717	0.42463	0.22573	-0.314
Mof_H 	H 	0.21877	0.41243	0.25843	0.154
Mof_C 	C 	0.20717	0.45673	0.31853	-0.174
Mof_H 	H 	0.21747	0.48713	0.29463	0.027
Mof_H 	H 	0.23707	0.44913	0.32323	-0.091
Mof_C 	C 	0.18167	0.36533	0.29733	1.873
Mof_C 	C 	0.20457	0.42583	0.35233	0.273
Mof_Cs	Cs	0.01297	0.38846	0.31286	1.212
Mof_H 	H 	0.13917	0.31433	0.23653	0.847
Mof_H 	H 	0.14367	0.37233	0.23263	1.835
Mof_H 	H 	0.10237	0.32843	0.27223	1.157
Mof_H 	H 	0.21827	0.39163	0.28463	-0.653
Mof_H 	H 	0.18347	0.33633	0.31773	-0.775
Mof_H 	H 	0.21127	0.40723	0.38133	-0.214
Mof_H 	H 	0.23647	0.44383	0.32993	0.071
Mof_H 	H 	0.20857	0.49053	0.39263	0.063
Mof_H 	H 	0.14827	0.44083	0.38783	0.079
Mof_H 	H 	0.17667	0.47923	0.33953	0.153
Mof_O 	O 	0.15157	0.39003	0.32403	-0.879
Mof_Cs	Cs	0.70598	0.72157	0.64745	0.501
Mof_P 	P 	0.71821	0.85429	0.67087	-0.39
Mof_O 	O 	0.70563	0.70317	0.76562	-0.416
Mof_C 	C 	0.65953	0.85837	0.66627	0.907
Mof_P 	P 	0.66355	0.92223	0.66159	-0.451
Mof_O 	O 	0.67353	0.65237	0.86398	-0.413
Mof_C 	C 	0.76813	0.92247	0.67037	-0.126
Mof_P 	P 	0.7483	0.97284	0.6668	-0.051
Mof_C 	C 	0.60043	0.80497	0.66607	-4.604
Mof_C 	C 	0.57643	0.78457	0.62327	4.091
Mof_H 	H 	0.54193	0.75357	0.62817	-1.637
Mof_C 	C 	0.57403	0.78257	0.71987	9.999
Mof_C 	C 	0.51783	0.73397	0.71847	-10.48
Mof_H 	H 	0.50983	0.71517	0.75157	2.981
Mof_H 	H 	0.51573	0.70937	0.69127	3.036
Mof_H 	H 	0.49163	0.74567	0.71187	2.956
Mof_C 	C 	0.56583	0.82437	0.74597	-12.157
Mof_H 	H 	0.52943	0.80737	0.76047	3.542
Mof_H 	H 	0.57033	0.85187	0.72107	3.572
Mof_H 	H 	0.59253	0.84117	0.77347	3.512
Mof_C 	C 	0.60333	0.75967	0.74597	-12.216
Mof_H 	H 	0.58423	0.74157	0.77747	3.528
Mof_H 	H 	0.63983	0.78867	0.75457	3.498
Mof_H 	H 	0.60573	0.73357	0.72337	3.543
Mof_C 	C 	0.59033	0.79837	0.56547	-4.303
Mof_C 	C 	0.56023	0.74677	0.53537	4.807
Mof_H 	H 	0.52143	0.73117	0.54077	-1.568
Mof_H 	H 	0.57143	0.72117	0.54687	-1.562
Mof_H 	H 	0.56843	0.75437	0.49887	-1.464
Mof_C 	C 	0.57663	0.84047	0.54877	4.89
Mof_H 	H 	0.53783	0.82627	0.55277	-1.666
Mof_H 	H 	0.58683	0.84977	0.51277	-1.522
Mof_H 	H 	0.59643	0.87287	0.57007	-1.56
Mof_C 	C 	0.65283	0.82147	0.54987	3.768
Mof_H 	H 	0.65673	0.82587	0.51257	-1.208
Mof_H 	H 	0.66423	0.79597	0.56107	-1.197
Mof_H 	H 	0.67533	0.85637	0.56647	-1.138
Mof_C 	C 	0.70473	0.73227	0.81027	0.126
Mof_H 	H 	0.69653	0.76077	0.79997	-0.288
Mof_H 	H 	0.74063	0.74997	0.82687	-0.087
Mof_C 	C 	0.66253	0.69427	0.84777	0.057
Mof_H 	H 	0.66203	0.71487	0.87807	-0.183
Mof_H 	H 	0.62653	0.67767	0.83147	-0.084
Mof_C 	C 	0.67533	0.62327	0.81887	0.056
Mof_H 	H 	0.63933	0.60467	0.80227	0.001
Mof_H 	H 	0.68443	0.59547	0.82927	-0.044
Mof_C 	C 	0.71673	0.66147	0.78107	0.076
Mof_H 	H 	0.75303	0.67807	0.79687	0.014
Mof_H 	H 	0.71683	0.64097	0.75047	-0.028
Mof_C 	C 	0.80443	0.67637	0.58927	-7.109
Mof_H 	H 	0.80803	0.65867	0.55857	1.115
Mof_H 	H 	0.76823	0.67207	0.59027	0.508
Mof_H 	H 	0.80993	0.65977	0.61987	1.575
Mof_C 	C 	0.84923	0.79577	0.70307	-0.459
Mof_H 	H 	0.87643	0.82737	0.72177	0.048
Mof_H 	H 	0.83763	0.76327	0.72387	0.111
Mof_H 	H 	0.81803	0.80017	0.69567	-0.038
Mof_O 	O 	0.82033	0.74057	0.63927	1.243
Mof_C 	C 	0.84773	0.73777	0.58797	-0.503
Mof_H 	H 	0.84383	0.75797	0.55907	-0.19
Mof_H 	H 	0.88543	0.74577	0.59177	0.438
Mof_C 	C 	0.87383	0.79007	0.65187	-0.547
Mof_H 	H 	0.88413	0.82047	0.62797	0.142
Mof_H 	H 	0.90373	0.78247	0.65657	-0.177
Mof_C 	C 	0.84833	0.69867	0.63067	2.674
Mof_C 	C 	0.87123	0.75917	0.68567	0.545
Mof_Cs	Cs	0.67963	0.7218	0.6462	1.124
Mof_H 	H 	0.80583	0.64767	0.56987	0.943
Mof_H 	H 	0.81033	0.70567	0.56597	2.206
Mof_H 	H 	0.76903	0.66177	0.60557	1.458
Mof_H 	H 	0.88493	0.72497	0.61797	-0.98
Mof_H 	H 	0.85013	0.66967	0.65107	-1.068
Mof_H 	H 	0.87793	0.74057	0.71467	-0.299
Mof_H 	H 	0.90313	0.77717	0.66327	0.186
Mof_H 	H 	0.87523	0.82387	0.72597	0.047
Mof_H 	H 	0.81493	0.77417	0.72117	0.081
Mof_H 	H 	0.84333	0.81257	0.67287	0.148
Mof_O 	O 	0.81823	0.72337	0.65737	-1.791
Mof_Cs	Cs	0.94509	0.31774	0.98078	0.729
Mof_P 	P 	0.81238	0.19726	0.0042	-0.324
Mof_O 	O 	0.9635	0.3358	0.09895	-0.434
Mof_C 	C 	0.8083	0.1345	0.9996	0.502
Mof_P 	P 	0.74444	0.07466	0.99492	-0.344
Mof_O 	O 	0.0143	0.3545	0.19731	-0.397
Mof_C 	C 	0.7442	0.179	0.0037	-0.143
Mof_P 	P 	0.69383	0.1088	0.00013	-0.066
Mof_C 	C 	0.8617	0.1288	0.9994	-2.686
Mof_C 	C 	0.8821	0.1252	0.9566	2.216
Mof_H 	H 	0.9131	0.1217	0.9615	-0.919
Mof_C 	C 	0.8841	0.1248	0.0532	5.922
Mof_C 	C 	0.9327	0.1172	0.0518	-6.308
Mof_H 	H 	0.9515	0.128	0.0849	1.787
Mof_H 	H 	0.9573	0.1397	0.0246	1.796
Mof_H 	H 	0.921	0.0793	0.0452	1.758
Mof_C 	C 	0.8423	0.0748	0.0793	-7.294
Mof_H 	H 	0.8593	0.0554	0.0938	2.116
Mof_H 	H 	0.8148	0.0518	0.0544	2.113
Mof_H 	H 	0.8255	0.0847	0.1068	2.083
Mof_C 	C 	0.907	0.177	0.0793	-7.265
Mof_H 	H 	0.9251	0.176	0.1108	2.079
Mof_H 	H 	0.878	0.1845	0.0879	2.036
Mof_H 	H 	0.9331	0.2055	0.0567	2.051
Mof_C 	C 	0.8683	0.1253	0.8988	-2.253
Mof_C 	C 	0.9199	0.1468	0.8687	2.407
Mof_H 	H 	0.9355	0.1236	0.8741	-0.828
Mof_H 	H 	0.9455	0.1836	0.8802	-0.824
Mof_H 	H 	0.9123	0.1474	0.8322	-0.747
Mof_C 	C 	0.8262	0.0695	0.8821	2.471
Mof_H 	H 	0.8404	0.0449	0.8861	-0.9
Mof_H 	H 	0.8169	0.0704	0.8461	-0.797
Mof_H 	H 	0.7938	0.0569	0.9034	-0.818
Mof_C 	C 	0.8452	0.1647	0.8832	1.89
Mof_H 	H 	0.8408	0.1642	0.8459	-0.638
Mof_H 	H 	0.8707	0.2016	0.8944	-0.649
Mof_H 	H 	0.8103	0.1523	0.8998	-0.577
Mof_C 	C 	0.9344	0.3058	0.1436	0.134
Mof_H 	H 	0.9059	0.2691	0.1333	-0.268
Mof_H 	H 	0.9167	0.324	0.1602	-0.105
Mof_C 	C 	0.9724	0.3016	0.1811	0.047
Mof_H 	H 	0.9518	0.2805	0.2114	-0.199
Mof_H 	H 	0.989	0.2822	0.1648	-0.067
Mof_C 	C 	0.0434	0.3854	0.1522	0.052
Mof_H 	H 	0.062	0.368	0.1356	-0.008
Mof_H 	H 	0.0712	0.4223	0.1626	-0.035
Mof_C 	C 	0.0052	0.3886	0.1144	0.101
Mof_H 	H 	0.9886	0.4083	0.1302	0.015
Mof_H 	H 	0.0257	0.4092	0.0838	-0.045
Mof_C 	C 	0.9903	0.4614	0.9226	-5.266
Mof_H 	H 	0.008	0.4827	0.8919	0.723
Mof_H 	H 	0.9946	0.4295	0.9236	0.509
Mof_H 	H 	0.0069	0.4835	0.9532	1.235
Mof_C 	C 	0.8709	0.3868	0.0364	-0.467
Mof_H 	H 	0.8393	0.3824	0.0551	0.05
Mof_H 	H 	0.9034	0.4077	0.0572	0.14
Mof_H 	H 	0.8665	0.3512	0.029	-0.024
Mof_O 	O 	0.9261	0.4131	0.9726	0.341
Mof_C 	C 	0.9289	0.4433	0.9213	-0.011
Mof_H 	H 	0.9087	0.4192	0.8924	-0.24
Mof_H 	H 	0.9209	0.473	0.9251	0.172
Mof_C 	C 	0.8766	0.4171	0.9852	-0.143
Mof_H 	H 	0.8462	0.397	0.9613	0.017
Mof_H 	H 	0.8842	0.4546	0.9899	-0.065
Mof_C 	C 	0.968	0.483	0.964	1.657
Mof_C 	C 	0.9075	0.4454	0.019	0.201
Mof_Cs	Cs	0.94487	0.29117	0.97953	1.266
Mof_H 	H 	0.019	0.4915	0.9032	0.811
Mof_H 	H 	0.961	0.438	0.8993	1.571
Mof_H 	H 	0.0049	0.4406	0.9389	0.924
Mof_H 	H 	0.9417	0.4933	0.9513	-0.584
Mof_H 	H 	0.997	0.5138	0.9844	-0.695
Mof_H 	H 	0.9261	0.4707	0.048	-0.168
Mof_H 	H 	0.8895	0.4593	0.9966	0.057
Mof_H 	H 	0.8428	0.3847	0.0593	0.042
Mof_H 	H 	0.8925	0.3741	0.0545	0.05
Mof_H 	H 	0.8541	0.3641	0.0062	0.111
Mof_O 	O 	0.9433	0.4282	0.9907	-0.836
Mof_Cs	Cs	0.61176	0.65108	0.31411	0.515
Mof_P 	P 	0.47905	0.53059	0.33753	-0.387
Mof_O 	O 	0.63017	0.66913	0.43228	-0.418
Mof_C 	C 	0.47497	0.46783	0.33293	0.862
Mof_P 	P 	0.41111	0.40799	0.32825	-0.433
Mof_O 	O 	0.68097	0.68783	0.53064	-0.396
Mof_C 	C 	0.41087	0.51233	0.33703	-0.129
Mof_P 	P 	0.3605	0.44213	0.33346	-0.052
Mof_C 	C 	0.52837	0.46213	0.33273	-4.401
Mof_C 	C 	0.54877	0.45853	0.28993	3.923
Mof_H 	H 	0.57977	0.45503	0.29483	-1.579
Mof_C 	C 	0.55077	0.45813	0.38653	9.495
Mof_C 	C 	0.59937	0.45053	0.38513	-9.959
Mof_H 	H 	0.61817	0.46133	0.41823	2.836
Mof_H 	H 	0.62397	0.47303	0.35793	2.876
Mof_H 	H 	0.58767	0.41263	0.37853	2.803
Mof_C 	C 	0.50897	0.40813	0.41263	-11.555
Mof_H 	H 	0.52597	0.38873	0.42713	3.369
Mof_H 	H 	0.48147	0.38513	0.38773	3.391
Mof_H 	H 	0.49217	0.41803	0.44013	3.332
Mof_C 	C 	0.57367	0.51033	0.41263	-11.585
Mof_H 	H 	0.59177	0.50933	0.44413	3.34
Mof_H 	H 	0.54467	0.51783	0.42123	3.303
Mof_H 	H 	0.59977	0.53883	0.39003	3.349
Mof_C 	C 	0.53497	0.45863	0.23213	-4.182
Mof_C 	C 	0.58657	0.48013	0.20203	4.685
Mof_H 	H 	0.60217	0.45693	0.20743	-1.542
Mof_H 	H 	0.61217	0.51693	0.21353	-1.531
Mof_H 	H 	0.57897	0.48073	0.16553	-1.43
Mof_C 	C 	0.49287	0.40283	0.21543	4.778
Mof_H 	H 	0.50707	0.37823	0.21943	-1.651
Mof_H 	H 	0.48357	0.40373	0.17943	-1.493
Mof_H 	H 	0.46047	0.39023	0.23673	-1.534
Mof_C 	C 	0.51187	0.49803	0.21653	3.653
Mof_H 	H 	0.50747	0.49753	0.17923	-1.168
Mof_H 	H 	0.53737	0.53493	0.22773	-1.165
Mof_H 	H 	0.47697	0.48563	0.23313	-1.103
Mof_C 	C 	0.60107	0.63913	0.47693	0.125
Mof_H 	H 	0.57257	0.60243	0.46663	-0.303
Mof_H 	H 	0.58337	0.65733	0.49353	-0.088
Mof_C 	C 	0.63907	0.63493	0.51443	0.056
Mof_H 	H 	0.61847	0.61383	0.54473	-0.2
Mof_H 	H 	0.65567	0.61553	0.49813	-0.081
Mof_C 	C 	0.71007	0.71873	0.48553	0.06
Mof_H 	H 	0.72867	0.70133	0.46893	-0
Mof_H 	H 	0.73787	0.75563	0.49593	-0.04
Mof_C 	C 	0.67187	0.72193	0.44773	0.068
Mof_H 	H 	0.65527	0.74163	0.46353	0.034
Mof_H 	H 	0.69237	0.74253	0.41713	-0.026
Mof_C 	C 	0.65697	0.79473	0.25593	-6.282
Mof_H 	H 	0.67467	0.81603	0.22523	0.948
Mof_H 	H 	0.66127	0.76283	0.25693	0.567
Mof_H 	H 	0.67357	0.81683	0.28653	1.515
Mof_C 	C 	0.53757	0.72013	0.36973	-0.582
Mof_H 	H 	0.50597	0.71573	0.38843	0.069
Mof_H 	H 	0.57007	0.74103	0.39053	0.165
Mof_H 	H 	0.53317	0.68453	0.36233	-0.001
Mof_O 	O 	0.59277	0.74643	0.30593	0.391
Mof_C 	C 	0.59557	0.77663	0.25463	0.079
Mof_H 	H 	0.57537	0.75253	0.22573	-0.311
Mof_H 	H 	0.58757	0.80633	0.25843	0.16
Mof_C 	C 	0.54327	0.75043	0.31853	-0.183
Mof_H 	H 	0.51287	0.73033	0.29463	0.03
Mof_H 	H 	0.55087	0.78793	0.32323	-0.092
Mof_C 	C 	0.63467	0.81633	0.29733	1.889
Mof_C 	C 	0.57417	0.77873	0.35233	0.276
Mof_Cs	Cs	0.61154	0.6245	0.31286	1.207
Mof_H 	H 	0.68567	0.82483	0.23653	0.849
Mof_H 	H 	0.62767	0.77133	0.23263	1.843
Mof_H 	H 	0.67157	0.77393	0.27223	1.162
Mof_H 	H 	0.60837	0.82663	0.28463	-0.66
Mof_H 	H 	0.66367	0.84713	0.31773	-0.78
Mof_H 	H 	0.59277	0.80403	0.38133	-0.215
Mof_H 	H 	0.55617	0.79263	0.32993	0.074
Mof_H 	H 	0.50947	0.71803	0.39263	0.061
Mof_H 	H 	0.55917	0.70743	0.38783	0.077
Mof_H 	H 	0.52077	0.69743	0.33953	0.152
Mof_O 	O 	0.60997	0.76153	0.32403	-0.896
Mof_Cs	Cs	0.27843	0.98441	0.64745	0.494
Mof_P 	P 	0.14571	0.86393	0.67087	-0.398
Mof_O 	O 	0.29683	0.00247	0.76562	-0.413
Mof_C 	C 	0.14163	0.80117	0.66627	0.951
Mof_P 	P 	0.07777	0.74133	0.66159	-0.458
Mof_O 	O 	0.34763	0.02117	0.86398	-0.406
Mof_C 	C 	0.07753	0.84567	0.67037	-0.119
Mof_P 	P 	0.02716	0.77547	0.6668	-0.048
Mof_C 	C 	0.19503	0.79547	0.66607	-4.809
Mof_C 	C 	0.21543	0.79187	0.62327	4.276
Mof_H 	H 	0.24643	0.78837	0.62817	-1.704
Mof_C 	C 	0.21743	0.79147	0.71987	10.463
Mof_C 	C 	0.26603	0.78387	0.71847	-10.958
Mof_H 	H 	0.28483	0.79467	0.75157	3.113
Mof_H 	H 	0.29063	0.80637	0.69127	3.182
Mof_H 	H 	0.25433	0.74597	0.71187	3.095
Mof_C 	C 	0.17563	0.74147	0.74597	-12.716
Mof_H 	H 	0.19263	0.72207	0.76047	3.706
Mof_H 	H 	0.14813	0.71847	0.72107	3.74
Mof_H 	H 	0.15883	0.75137	0.77347	3.679
Mof_C 	C 	0.24033	0.84367	0.74597	-12.783
Mof_H 	H 	0.25843	0.84267	0.77747	3.694
Mof_H 	H 	0.21133	0.85117	0.75457	3.67
Mof_H 	H 	0.26643	0.87217	0.72337	3.711
Mof_C 	C 	0.20163	0.79197	0.56547	-4.483
Mof_C 	C 	0.25323	0.81347	0.53537	5.005
Mof_H 	H 	0.26883	0.79027	0.54077	-1.622
Mof_H 	H 	0.27883	0.85027	0.54687	-1.617
Mof_H 	H 	0.24563	0.81407	0.49887	-1.522
Mof_C 	C 	0.15953	0.73617	0.54877	5.096
Mof_H 	H 	0.17373	0.71157	0.55277	-1.729
Mof_H 	H 	0.15023	0.73707	0.51277	-1.583
Mof_H 	H 	0.12713	0.72357	0.57007	-1.622
Mof_C 	C 	0.17853	0.83137	0.54987	3.933
Mof_H 	H 	0.17413	0.83087	0.51257	-1.258
Mof_H 	H 	0.20403	0.86827	0.56107	-1.245
Mof_H 	H 	0.14363	0.81897	0.56647	-1.188
Mof_C 	C 	0.26773	0.97247	0.81027	0.118
Mof_H 	H 	0.23923	0.93577	0.79997	-0.278
Mof_H 	H 	0.25003	0.99067	0.82687	-0.075
Mof_C 	C 	0.30573	0.96827	0.84777	0.055
Mof_H 	H 	0.28513	0.94717	0.87807	-0.171
Mof_H 	H 	0.32233	0.94887	0.83147	-0.087
Mof_C 	C 	0.37673	0.05207	0.81887	0.056
Mof_H 	H 	0.39533	0.03467	0.80227	0.005
Mof_H 	H 	0.40453	0.08897	0.82927	-0.041
Mof_C 	C 	0.33853	0.05527	0.78107	0.075
Mof_H 	H 	0.32193	0.07497	0.79687	0.015
Mof_H 	H 	0.35903	0.07587	0.75047	-0.028
Mof_C 	C 	0.32363	0.12807	0.58927	-7.123
Mof_H 	H 	0.34133	0.14937	0.55857	1.12
Mof_H 	H 	0.32793	0.09617	0.59027	0.51
Mof_H 	H 	0.34023	0.15017	0.61987	1.579
Mof_C 	C 	0.20423	0.05347	0.70307	-0.496
Mof_H 	H 	0.17263	0.04907	0.72177	0.054
Mof_H 	H 	0.23673	0.07437	0.72387	0.119
Mof_H 	H 	0.19983	0.01787	0.69567	-0.031
Mof_O 	O 	0.25943	0.07977	0.63927	1.246
Mof_C 	C 	0.26223	0.10997	0.58797	-0.503
Mof_H 	H 	0.24203	0.08587	0.55907	-0.191
Mof_H 	H 	0.25423	0.13967	0.59177	0.438
Mof_C 	C 	0.20993	0.08377	0.65187	-0.541
Mof_H 	H 	0.17953	0.06367	0.62797	0.14
Mof_H 	H 	0.21753	0.12127	0.65657	-0.18
Mof_C 	C 	0.30133	0.14967	0.63067	2.678
Mof_C 	C 	0.24083	0.11207	0.68567	0.554
Mof_Cs	Cs	0.2782	0.95784	0.6462	1.115
Mof_H 	H 	0.35233	0.15817	0.56987	0.942
Mof_H 	H 	0.29433	0.10467	0.56597	2.21
Mof_H 	H 	0.33823	0.10727	0.60557	1.461
Mof_H 	H 	0.27503	0.15997	0.61797	-0.981
Mof_H 	H 	0.33033	0.18047	0.65107	-1.069
Mof_H 	H 	0.25943	0.13737	0.71467	-0.303
Mof_H 	H 	0.22283	0.12597	0.66327	0.185
Mof_H 	H 	0.17613	0.05137	0.72597	0.052
Mof_H 	H 	0.22583	0.04077	0.72117	0.088
Mof_H 	H 	0.18743	0.03077	0.67287	0.157
Mof_O 	O 	0.27663	0.09487	0.65737	-1.794
Mof_Cs	Cs	0.68226	0.62735	0.98078	0.626
Mof_P 	P 	0.80274	0.61512	0.0042	-0.34
Mof_O 	O 	0.6642	0.6277	0.09895	-0.409
Mof_C 	C 	0.8655	0.6738	0.9996	0.631
Mof_P 	P 	0.92534	0.66978	0.99492	-0.38
Mof_O 	O 	0.6455	0.6598	0.19731	-0.406
Mof_C 	C 	0.821	0.5652	0.0037	-0.14
Mof_P 	P 	0.8912	0.58503	0.00013	-0.061
Mof_C 	C 	0.8712	0.7329	0.9994	-3.327
Mof_C 	C 	0.8748	0.7569	0.9566	2.791
Mof_H 	H 	0.8783	0.7914	0.9615	-1.136
Mof_C 	C 	0.8752	0.7593	0.0532	7.373
Mof_C 	C 	0.8828	0.8155	0.0518	-7.815
Mof_H 	H 	0.872	0.8235	0.0849	2.218
Mof_H 	H 	0.8603	0.8176	0.0246	2.255
Mof_H 	H 	0.9207	0.8417	0.0452	2.204
Mof_C 	C 	0.9252	0.7675	0.0793	-9.023
Mof_H 	H 	0.9446	0.8039	0.0938	2.62
Mof_H 	H 	0.9482	0.763	0.0544	2.638
Mof_H 	H 	0.9153	0.7408	0.1068	2.585
Mof_C 	C 	0.823	0.73	0.0793	-9.028
Mof_H 	H 	0.824	0.7491	0.1108	2.591
Mof_H 	H 	0.8155	0.6935	0.0879	2.554
Mof_H 	H 	0.7945	0.7276	0.0567	2.586
Mof_C 	C 	0.8747	0.743	0.8988	-2.785
Mof_C 	C 	0.8532	0.7731	0.8687	3.011
Mof_H 	H 	0.8764	0.8119	0.8741	-1.005
Mof_H 	H 	0.8164	0.7619	0.8802	-1.005
Mof_H 	H 	0.8526	0.7649	0.8322	-0.925
Mof_C 	C 	0.9305	0.7567	0.8821	3.045
Mof_H 	H 	0.9551	0.7955	0.8861	-1.05
Mof_H 	H 	0.9296	0.7465	0.8461	-0.96
Mof_H 	H 	0.9431	0.7369	0.9034	-0.979
Mof_C 	C 	0.8353	0.6805	0.8832	2.371
Mof_H 	H 	0.8358	0.6766	0.8459	-0.784
Mof_H 	H 	0.7984	0.6691	0.8944	-0.786
Mof_H 	H 	0.8477	0.658	0.8998	-0.72
Mof_C 	C 	0.6942	0.6286	0.1436	0.111
Mof_H 	H 	0.7309	0.6368	0.1333	-0.275
Mof_H 	H 	0.676	0.5927	0.1602	-0.089
Mof_C 	C 	0.6984	0.6708	0.1811	0.07
Mof_H 	H 	0.7195	0.6713	0.2114	-0.205
Mof_H 	H 	0.7178	0.7068	0.1648	-0.083
Mof_C 	C 	0.6146	0.658	0.1522	0.078
Mof_H 	H 	0.632	0.694	0.1356	-0.016
Mof_H 	H 	0.5777	0.6489	0.1626	-0.042
Mof_C 	C 	0.6114	0.6166	0.1144	0.054
Mof_H 	H 	0.5917	0.5803	0.1302	0.038
Mof_H 	H 	0.5908	0.6165	0.0838	-0.024
Mof_C 	C 	0.5386	0.5289	0.9226	-6.926
Mof_H 	H 	0.5173	0.5253	0.8919	1.036
Mof_H 	H 	0.5705	0.5651	0.9236	0.562
Mof_H 	H 	0.5165	0.5234	0.9532	1.594
Mof_C 	C 	0.6132	0.4841	0.0364	-0.45
Mof_H 	H 	0.6176	0.4569	0.0551	0.049
Mof_H 	H 	0.5923	0.4957	0.0572	0.128
Mof_H 	H 	0.6488	0.5153	0.029	-0.035
Mof_O 	O 	0.5869	0.513	0.9726	0.81
Mof_C 	C 	0.5567	0.4856	0.9213	-0.201
Mof_H 	H 	0.5808	0.4895	0.8924	-0.264
Mof_H 	H 	0.527	0.4479	0.9251	0.304
Mof_C 	C 	0.5829	0.4595	0.9852	-0.37
Mof_H 	H 	0.603	0.4492	0.9613	0.087
Mof_H 	H 	0.5454	0.4296	0.9899	-0.127
Mof_C 	C 	0.517	0.485	0.964	2.357
Mof_C 	C 	0.5546	0.4621	0.019	0.384
Mof_Cs	Cs	0.70883	0.6537	0.97953	1.161
Mof_H 	H 	0.5085	0.5275	0.9032	0.971
Mof_H 	H 	0.562	0.523	0.8993	2.096
Mof_H 	H 	0.5594	0.5643	0.9389	1.347
Mof_H 	H 	0.5067	0.4484	0.9513	-0.847
Mof_H 	H 	0.4862	0.4832	0.9844	-0.958
Mof_H 	H 	0.5293	0.4554	0.048	-0.252
Mof_H 	H 	0.5407	0.4302	0.9966	0.13
Mof_H 	H 	0.6153	0.4581	0.0593	0.042
Mof_H 	H 	0.6259	0.5184	0.0545	0.066
Mof_H 	H 	0.6359	0.49	0.0062	0.129
Mof_O 	O 	0.5718	0.5151	0.9907	-1.35
Mof_Cs	Cs	0.34892	0.96068	0.31411	0.543
Mof_P 	P 	0.46941	0.94845	0.33753	-0.373
Mof_O 	O 	0.33087	0.96103	0.43228	-0.418
Mof_C 	C 	0.53217	0.00713	0.33293	0.806
Mof_P 	P 	0.59201	0.00311	0.32825	-0.425
Mof_O 	O 	0.31217	0.99313	0.53064	-0.393
Mof_C 	C 	0.48767	0.89853	0.33703	-0.127
Mof_P 	P 	0.55787	0.91836	0.33346	-0.049
Mof_C 	C 	0.53787	0.06623	0.33273	-4.159
Mof_C 	C 	0.54147	0.09023	0.28993	3.666
Mof_H 	H 	0.54497	0.12473	0.29483	-1.486
Mof_C 	C 	0.54187	0.09263	0.38653	8.998
Mof_C 	C 	0.54947	0.14883	0.38513	-9.445
Mof_H 	H 	0.53867	0.15683	0.41823	2.69
Mof_H 	H 	0.52697	0.15093	0.35793	2.721
Mof_H 	H 	0.58737	0.17503	0.37853	2.652
Mof_C 	C 	0.59187	0.10083	0.41263	-10.967
Mof_H 	H 	0.61127	0.13723	0.42713	3.199
Mof_H 	H 	0.61487	0.09633	0.38773	3.213
Mof_H 	H 	0.58197	0.07413	0.44013	3.163
Mof_C 	C 	0.48967	0.06333	0.41263	-10.99
Mof_H 	H 	0.49067	0.08243	0.44413	3.17
Mof_H 	H 	0.48217	0.02683	0.42123	3.131
Mof_H 	H 	0.46117	0.06093	0.39003	3.17
Mof_C 	C 	0.54137	0.07633	0.23213	-3.879
Mof_C 	C 	0.51987	0.10643	0.20203	4.337
Mof_H 	H 	0.54307	0.14523	0.20743	-1.44
Mof_H 	H 	0.48307	0.09523	0.21353	-1.427
Mof_H 	H 	0.51927	0.09823	0.16553	-1.322
Mof_C 	C 	0.59717	0.09003	0.21543	4.432
Mof_H 	H 	0.62177	0.12883	0.21943	-1.555
Mof_H 	H 	0.59627	0.07983	0.17943	-1.383
Mof_H 	H 	0.60977	0.07023	0.23673	-1.434
Mof_C 	C 	0.50197	0.01383	0.21653	3.329
Mof_H 	H 	0.50247	0.00993	0.17923	-1.047
Mof_H 	H 	0.46507	0.00243	0.22773	-1.071
Mof_H 	H 	0.51437	0.99133	0.23313	-0.998
Mof_C 	C 	0.36087	0.96193	0.47693	0.122
Mof_H 	H 	0.39757	0.97013	0.46663	-0.29
Mof_H 	H 	0.34267	0.92603	0.49353	-0.079
Mof_C 	C 	0.36507	0.00413	0.51443	0.056
Mof_H 	H 	0.38617	0.00463	0.54473	-0.191
Mof_H 	H 	0.38447	0.04013	0.49813	-0.076
Mof_C 	C 	0.28127	0.99133	0.48553	0.062
Mof_H 	H 	0.29867	0.02733	0.46893	-0.001
Mof_H 	H 	0.24437	0.98223	0.49593	-0.04
Mof_C 	C 	0.27807	0.94993	0.44773	0.067
Mof_H 	H 	0.25837	0.91363	0.46353	0.035
Mof_H 	H 	0.25747	0.94983	0.41713	-0.027
Mof_C 	C 	0.20527	0.86223	0.25593	-5.9
Mof_H 	H 	0.18397	0.85863	0.22523	0.877
Mof_H 	H 	0.23717	0.89843	0.25693	0.568
Mof_H 	H 	0.18317	0.85673	0.28653	1.463
Mof_C 	C 	0.27987	0.81743	0.36973	-0.628
Mof_H 	H 	0.28427	0.79023	0.38843	0.077
Mof_H 	H 	0.25897	0.82903	0.39053	0.181
Mof_H 	H 	0.31547	0.84863	0.36233	0.012
Mof_O 	O 	0.25357	0.84633	0.30593	0.128
Mof_C 	C 	0.22337	0.81893	0.25463	0.246
Mof_H 	H 	0.24747	0.82283	0.22573	-0.341
Mof_H 	H 	0.19367	0.78123	0.25843	0.076
Mof_C 	C 	0.24957	0.79283	0.31853	-0.068
Mof_H 	H 	0.26967	0.78253	0.29463	-0.005
Mof_H 	H 	0.21207	0.76293	0.32323	-0.067
Mof_C 	C 	0.18367	0.81833	0.29733	1.616
Mof_C 	C 	0.22127	0.79543	0.35233	0.197
Mof_Cs	Cs	0.3755	0.98703	0.31286	1.236
Mof_H 	H 	0.17517	0.86083	0.23653	0.801
Mof_H 	H 	0.22867	0.85633	0.23263	1.695
Mof_H 	H 	0.22607	0.89763	0.27223	1.05
Mof_H 	H 	0.17337	0.78173	0.28463	-0.551
Mof_H 	H 	0.15287	0.81653	0.31773	-0.68
Mof_H 	H 	0.19597	0.78873	0.38133	-0.189
Mof_H 	H 	0.20737	0.76353	0.32993	0.038
Mof_H 	H 	0.28197	0.79143	0.39263	0.068
Mof_H 	H 	0.29257	0.85173	0.38783	0.078
Mof_H 	H 	0.30257	0.82333	0.33953	0.155
Mof_O 	O 	0.23847	0.84843	0.32403	-0.62
Mof_Cs	Cs	0.01559	0.29402	0.64745	0.511
Mof_P 	P 	0.13607	0.28179	0.67087	-0.391
Mof_O 	O 	0.99753	0.29437	0.76562	-0.414
Mof_C 	C 	0.19883	0.34047	0.66627	0.911
Mof_P 	P 	0.25867	0.33645	0.66159	-0.45
Mof_O 	O 	0.97883	0.32647	0.86398	-0.414
Mof_C 	C 	0.15433	0.23187	0.67037	-0.126
Mof_P 	P 	0.22453	0.2517	0.6668	-0.049
Mof_C 	C 	0.20453	0.39957	0.66607	-4.622
Mof_C 	C 	0.20813	0.42357	0.62327	4.108
Mof_H 	H 	0.21163	0.45807	0.62817	-1.642
Mof_C 	C 	0.20853	0.42597	0.71987	10.037
Mof_C 	C 	0.21613	0.48217	0.71847	-10.519
Mof_H 	H 	0.20533	0.49017	0.75157	2.989
Mof_H 	H 	0.19363	0.48427	0.69127	3.05
Mof_H 	H 	0.25403	0.50837	0.71187	2.966
Mof_C 	C 	0.25853	0.43417	0.74597	-12.206
Mof_H 	H 	0.27793	0.47057	0.76047	3.559
Mof_H 	H 	0.28153	0.42967	0.72107	3.586
Mof_H 	H 	0.24863	0.40747	0.77347	3.527
Mof_C 	C 	0.15633	0.39667	0.74597	-12.26
Mof_H 	H 	0.15733	0.41577	0.77747	3.539
Mof_H 	H 	0.14883	0.36017	0.75457	3.511
Mof_H 	H 	0.12783	0.39427	0.72337	3.556
Mof_C 	C 	0.20803	0.40967	0.56547	-4.326
Mof_C 	C 	0.18653	0.43977	0.53537	4.826
Mof_H 	H 	0.20973	0.47857	0.54077	-1.571
Mof_H 	H 	0.14973	0.42857	0.54687	-1.563
Mof_H 	H 	0.18593	0.43157	0.49887	-1.47
Mof_C 	C 	0.26383	0.42337	0.54877	4.929
Mof_H 	H 	0.28843	0.46217	0.55277	-1.687
Mof_H 	H 	0.26293	0.41317	0.51277	-1.536
Mof_H 	H 	0.27643	0.40357	0.57007	-1.576
Mof_C 	C 	0.16863	0.34717	0.54987	3.787
Mof_H 	H 	0.16913	0.34327	0.51257	-1.213
Mof_H 	H 	0.13173	0.33577	0.56107	-1.202
Mof_H 	H 	0.18103	0.32467	0.56647	-1.144
Mof_C 	C 	0.02753	0.29527	0.81027	0.127
Mof_H 	H 	0.06423	0.30347	0.79997	-0.291
Mof_H 	H 	0.00933	0.25937	0.82687	-0.099
Mof_C 	C 	0.03173	0.33747	0.84777	0.05
Mof_H 	H 	0.05283	0.33797	0.87807	-0.186
Mof_H 	H 	0.05113	0.37347	0.83147	-0.084
Mof_C 	C 	0.94793	0.32467	0.81887	0.055
Mof_H 	H 	0.96533	0.36067	0.80227	0.006
Mof_H 	H 	0.91103	0.31557	0.82927	-0.043
Mof_C 	C 	0.94473	0.28327	0.78107	0.079
Mof_H 	H 	0.92503	0.24697	0.79687	0.006
Mof_H 	H 	0.92413	0.28317	0.75047	-0.03
Mof_C 	C 	0.87193	0.19557	0.58927	-7.172
Mof_H 	H 	0.85063	0.19197	0.55857	1.139
Mof_H 	H 	0.90383	0.23177	0.59027	0.482
Mof_H 	H 	0.84983	0.19007	0.61987	1.56
Mof_C 	C 	0.94653	0.15077	0.70307	-0.42
Mof_H 	H 	0.95093	0.12357	0.72177	0.04
Mof_H 	H 	0.92563	0.16237	0.72387	0.094
Mof_H 	H 	0.98213	0.18197	0.69567	-0.048
Mof_O 	O 	0.92023	0.17967	0.63927	1.422
Mof_C 	C 	0.89003	0.15227	0.58797	-0.633
Mof_H 	H 	0.91413	0.15617	0.55907	-0.158
Mof_H 	H 	0.86033	0.11457	0.59177	0.496
Mof_C 	C 	0.91623	0.12617	0.65187	-0.625
Mof_H 	H 	0.93633	0.11587	0.62797	0.167
Mof_H 	H 	0.87873	0.09627	0.65657	-0.195
Mof_C 	C 	0.85033	0.15167	0.63067	2.81
Mof_C 	C 	0.88793	0.12877	0.68567	0.599
Mof_Cs	Cs	0.04216	0.32037	0.6462	1.101
Mof_H 	H 	0.84183	0.19417	0.56987	0.939
Mof_H 	H 	0.89533	0.18967	0.56597	2.251
Mof_H 	H 	0.89273	0.23097	0.60557	1.502
Mof_H 	H 	0.84003	0.11507	0.61797	-1.038
Mof_H 	H 	0.81953	0.14987	0.65107	-1.117
Mof_H 	H 	0.86263	0.12207	0.71467	-0.315
Mof_H 	H 	0.87403	0.09687	0.66327	0.21
Mof_H 	H 	0.94863	0.12477	0.72597	0.041
Mof_H 	H 	0.95923	0.18507	0.72117	0.079
Mof_H 	H 	0.96923	0.15667	0.67287	0.145
Mof_O 	O 	0.90513	0.18177	0.65737	-1.976
Mof_Cs	Cs	0.62735	0.94509	0.01922	0.695
Mof_P 	P 	0.61512	0.81238	0.9958	-0.347
Mof_O 	O 	0.6277	0.9635	0.90105	-0.439
Mof_C 	C 	0.6738	0.8083	0.0004	0.625
Mof_P 	P 	0.66978	0.74444	0.00508	-0.377
Mof_O 	O 	0.6598	0.0143	0.80269	-0.4
Mof_C 	C 	0.5652	0.7442	0.9963	-0.138
Mof_P 	P 	0.58503	0.69383	0.99987	-0.06
Mof_C 	C 	0.7329	0.8617	0.0006	-3.304
Mof_C 	C 	0.7569	0.8821	0.0434	2.78
Mof_H 	H 	0.7914	0.9131	0.0385	-1.126
Mof_C 	C 	0.7593	0.8841	0.9468	7.288
Mof_C 	C 	0.8155	0.9327	0.9482	-7.727
Mof_H 	H 	0.8235	0.9515	0.9151	2.186
Mof_H 	H 	0.8176	0.9573	0.9754	2.235
Mof_H 	H 	0.8417	0.921	0.9548	2.177
Mof_C 	C 	0.7675	0.8423	0.9207	-8.928
Mof_H 	H 	0.8039	0.8593	0.9062	2.595
Mof_H 	H 	0.763	0.8148	0.9456	2.608
Mof_H 	H 	0.7408	0.8255	0.8932	2.56
Mof_C 	C 	0.73	0.907	0.9207	-8.907
Mof_H 	H 	0.7491	0.9251	0.8892	2.552
Mof_H 	H 	0.6935	0.878	0.9121	2.517
Mof_H 	H 	0.7276	0.9331	0.9433	2.542
Mof_C 	C 	0.743	0.8683	0.1012	-2.809
Mof_C 	C 	0.7731	0.9199	0.1313	3.022
Mof_H 	H 	0.8119	0.9355	0.1259	-0.997
Mof_H 	H 	0.7619	0.9455	0.1198	-0.997
Mof_H 	H 	0.7649	0.9123	0.1678	-0.927
Mof_C 	C 	0.7567	0.8262	0.1179	3.114
Mof_H 	H 	0.7955	0.8404	0.1139	-1.098
Mof_H 	H 	0.7465	0.8169	0.1539	-0.988
Mof_H 	H 	0.7369	0.7938	0.0966	-1.013
Mof_C 	C 	0.6805	0.8452	0.1168	2.403
Mof_H 	H 	0.6766	0.8408	0.1541	-0.794
Mof_H 	H 	0.6691	0.8707	0.1056	-0.799
Mof_H 	H 	0.658	0.8103	0.1002	-0.731
Mof_C 	C 	0.6286	0.9344	0.8564	0.131
Mof_H 	H 	0.6368	0.9059	0.8667	-0.282
Mof_H 	H 	0.5927	0.9167	0.8398	-0.101
Mof_C 	C 	0.6708	0.9724	0.8189	0.054
Mof_H 	H 	0.6713	0.9518	0.7886	-0.203
Mof_H 	H 	0.7068	0.989	0.8352	-0.086
Mof_C 	C 	0.658	0.0434	0.8478	0.057
Mof_H 	H 	0.694	0.062	0.8644	-0.014
Mof_H 	H 	0.6489	0.0712	0.8374	-0.035
Mof_C 	C 	0.6166	0.0052	0.8856	0.099
Mof_H 	H 	0.5803	0.9886	0.8698	0.016
Mof_H 	H 	0.6165	0.0257	0.9162	-0.043
Mof_C 	C 	0.5289	0.9903	0.0774	-5.351
Mof_H 	H 	0.5253	0.008	0.1081	0.744
Mof_H 	H 	0.5651	0.9946	0.0764	0.513
Mof_H 	H 	0.5234	0.0069	0.0468	1.252
Mof_C 	C 	0.4841	0.8709	0.9636	-0.484
Mof_H 	H 	0.4569	0.8393	0.9449	0.052
Mof_H 	H 	0.4957	0.9034	0.9428	0.143
Mof_H 	H 	0.5153	0.8665	0.971	-0.021
Mof_O 	O 	0.513	0.9261	0.0274	0.384
Mof_C 	C 	0.4856	0.9289	0.0787	-0.033
Mof_H 	H 	0.4895	0.9087	0.1076	-0.237
Mof_H 	H 	0.4479	0.9209	0.0749	0.184
Mof_C 	C 	0.4595	0.8766	0.0148	-0.16
Mof_H 	H 	0.4492	0.8462	0.0387	0.022
Mof_H 	H 	0.4296	0.8842	0.0101	-0.07
Mof_C 	C 	0.485	0.968	0.036	1.701
Mof_C 	C 	0.4621	0.9075	0.981	0.22
Mof_Cs	Cs	0.6537	0.94487	0.02047	1.243
Mof_H 	H 	0.5275	0.019	0.0968	0.814
Mof_H 	H 	0.523	0.961	0.1007	1.6
Mof_H 	H 	0.5643	0.0049	0.0611	0.947
Mof_H 	H 	0.4484	0.9417	0.0487	-0.601
Mof_H 	H 	0.4832	0.997	0.0156	-0.709
Mof_H 	H 	0.4554	0.9261	0.952	-0.175
Mof_H 	H 	0.4302	0.8895	0.0034	0.063
Mof_H 	H 	0.4581	0.8428	0.9407	0.045
Mof_H 	H 	0.5184	0.8925	0.9455	0.055
Mof_H 	H 	0.49	0.8541	0.9938	0.118
Mof_O 	O 	0.5151	0.9433	0.0093	-0.879
Mof_Cs	Cs	0.29402	0.27843	0.35255	0.501
Mof_P 	P 	0.28179	0.14571	0.32913	-0.39
Mof_O 	O 	0.29437	0.29683	0.23438	-0.416
Mof_C 	C 	0.34047	0.14163	0.33373	0.907
Mof_P 	P 	0.33645	0.07777	0.33841	-0.451
Mof_O 	O 	0.32647	0.34763	0.13602	-0.413
Mof_C 	C 	0.23187	0.07753	0.32963	-0.126
Mof_P 	P 	0.2517	0.02716	0.3332	-0.051
Mof_C 	C 	0.39957	0.19503	0.33393	-4.604
Mof_C 	C 	0.42357	0.21543	0.37673	4.091
Mof_H 	H 	0.45807	0.24643	0.37183	-1.637
Mof_C 	C 	0.42597	0.21743	0.28013	9.999
Mof_C 	C 	0.48217	0.26603	0.28153	-10.48
Mof_H 	H 	0.49017	0.28483	0.24843	2.981
Mof_H 	H 	0.48427	0.29063	0.30873	3.036
Mof_H 	H 	0.50837	0.25433	0.28813	2.956
Mof_C 	C 	0.43417	0.17563	0.25403	-12.157
Mof_H 	H 	0.47057	0.19263	0.23953	3.542
Mof_H 	H 	0.42967	0.14813	0.27893	3.572
Mof_H 	H 	0.40747	0.15883	0.22653	3.512
Mof_C 	C 	0.39667	0.24033	0.25403	-12.216
Mof_H 	H 	0.41577	0.25843	0.22253	3.528
Mof_H 	H 	0.36017	0.21133	0.24543	3.498
Mof_H 	H 	0.39427	0.26643	0.27663	3.543
Mof_C 	C 	0.40967	0.20163	0.43453	-4.303
Mof_C 	C 	0.43977	0.25323	0.46463	4.807
Mof_H 	H 	0.47857	0.26883	0.45923	-1.568
Mof_H 	H 	0.42857	0.27883	0.45313	-1.562
Mof_H 	H 	0.43157	0.24563	0.50113	-1.464
Mof_C 	C 	0.42337	0.15953	0.45123	4.89
Mof_H 	H 	0.46217	0.17373	0.44723	-1.666
Mof_H 	H 	0.41317	0.15023	0.48723	-1.522
Mof_H 	H 	0.40357	0.12713	0.42993	-1.56
Mof_C 	C 	0.34717	0.17853	0.45013	3.768
Mof_H 	H 	0.34327	0.17413	0.48743	-1.208
Mof_H 	H 	0.33577	0.20403	0.43893	-1.197
Mof_H 	H 	0.32467	0.14363	0.43353	-1.138
Mof_C 	C 	0.29527	0.26773	0.18973	0.126
Mof_H 	H 	0.30347	0.23923	0.20003	-0.288
Mof_H 	H 	0.25937	0.25003	0.17313	-0.087
Mof_C 	C 	0.33747	0.30573	0.15223	0.057
Mof_H 	H 	0.33797	0.28513	0.12193	-0.183
Mof_H 	H 	0.37347	0.32233	0.16853	-0.084
Mof_C 	C 	0.32467	0.37673	0.18113	0.056
Mof_H 	H 	0.36067	0.39533	0.19773	0.001
Mof_H 	H 	0.31557	0.40453	0.17073	-0.044
Mof_C 	C 	0.28327	0.33853	0.21893	0.076
Mof_H 	H 	0.24697	0.32193	0.20313	0.014
Mof_H 	H 	0.28317	0.35903	0.24953	-0.028
Mof_C 	C 	0.19557	0.32363	0.41073	-7.109
Mof_H 	H 	0.19197	0.34133	0.44143	1.115
Mof_H 	H 	0.23177	0.32793	0.40973	0.508
Mof_H 	H 	0.19007	0.34023	0.38013	1.575
Mof_C 	C 	0.15077	0.20423	0.29693	-0.459
Mof_H 	H 	0.12357	0.17263	0.27823	0.048
Mof_H 	H 	0.16237	0.23673	0.27613	0.111
Mof_H 	H 	0.18197	0.19983	0.30433	-0.038
Mof_O 	O 	0.17967	0.25943	0.36073	1.243
Mof_C 	C 	0.15227	0.26223	0.41203	-0.503
Mof_H 	H 	0.15617	0.24203	0.44093	-0.19
Mof_H 	H 	0.11457	0.25423	0.40823	0.438
Mof_C 	C 	0.12617	0.20993	0.34813	-0.547
Mof_H 	H 	0.11587	0.17953	0.37203	0.142
Mof_H 	H 	0.09627	0.21753	0.34343	-0.177
Mof_C 	C 	0.15167	0.30133	0.36933	2.674
Mof_C 	C 	0.12877	0.24083	0.31433	0.545
Mof_Cs	Cs	0.32037	0.2782	0.3538	1.124
Mof_H 	H 	0.19417	0.35233	0.43013	0.943
Mof_H 	H 	0.18967	0.29433	0.43403	2.206
Mof_H 	H 	0.23097	0.33823	0.39443	1.458
Mof_H 	H 	0.11507	0.27503	0.38203	-0.98
Mof_H 	H 	0.14987	0.33033	0.34893	-1.068
Mof_H 	H 	0.12207	0.25943	0.28533	-0.299
Mof_H 	H 	0.09687	0.22283	0.33673	0.186
Mof_H 	H 	0.12477	0.17613	0.27403	0.047
Mof_H 	H 	0.18507	0.22583	0.27883	0.081
Mof_H 	H 	0.15667	0.18743	0.32713	0.148
Mof_O 	O 	0.18177	0.27663	0.34263	-1.791
Mof_Cs	Cs	0.96068	0.61176	0.68589	0.524
Mof_P 	P 	0.94845	0.47905	0.66247	-0.372
Mof_O 	O 	0.96103	0.63017	0.56772	-0.414
Mof_C 	C 	0.00713	0.47497	0.66707	0.809
Mof_P 	P 	0.00311	0.41111	0.67175	-0.423
Mof_O 	O 	0.99313	0.68097	0.46936	-0.395
Mof_C 	C 	0.89853	0.41087	0.66297	-0.127
Mof_P 	P 	0.91836	0.3605	0.66654	-0.049
Mof_C 	C 	0.06623	0.52837	0.66727	-4.173
Mof_C 	C 	0.09023	0.54877	0.71007	3.675
Mof_H 	H 	0.12473	0.57977	0.70517	-1.492
Mof_C 	C 	0.09263	0.55077	0.61347	9.042
Mof_C 	C 	0.14883	0.59937	0.61487	-9.489
Mof_H 	H 	0.15683	0.61817	0.58177	2.705
Mof_H 	H 	0.15093	0.62397	0.64207	2.731
Mof_H 	H 	0.17503	0.58767	0.62147	2.665
Mof_C 	C 	0.10083	0.50897	0.58737	-11.021
Mof_H 	H 	0.13723	0.52597	0.57287	3.214
Mof_H 	H 	0.09633	0.48147	0.61227	3.231
Mof_H 	H 	0.07413	0.49217	0.55987	3.179
Mof_C 	C 	0.06333	0.57367	0.58737	-11.047
Mof_H 	H 	0.08243	0.59177	0.55587	3.188
Mof_H 	H 	0.02683	0.54467	0.57877	3.148
Mof_H 	H 	0.06093	0.59977	0.60997	3.188
Mof_C 	C 	0.07633	0.53497	0.76787	-3.876
Mof_C 	C 	0.10643	0.58657	0.79797	4.339
Mof_H 	H 	0.14523	0.60217	0.79257	-1.444
Mof_H 	H 	0.09523	0.61217	0.78647	-1.431
Mof_H 	H 	0.09823	0.57897	0.83447	-1.323
Mof_C 	C 	0.09003	0.49287	0.78457	4.417
Mof_H 	H 	0.12883	0.50707	0.78057	-1.543
Mof_H 	H 	0.07983	0.48357	0.82057	-1.376
Mof_H 	H 	0.07023	0.46047	0.76327	-1.425
Mof_C 	C 	0.01383	0.51187	0.78347	3.321
Mof_H 	H 	0.00993	0.50747	0.82077	-1.043
Mof_H 	H 	0.00243	0.53737	0.77227	-1.068
Mof_H 	H 	0.99133	0.47697	0.76687	-0.995
Mof_C 	C 	0.96193	0.60107	0.52307	0.121
Mof_H 	H 	0.97013	0.57257	0.53337	-0.29
Mof_H 	H 	0.92603	0.58337	0.50647	-0.081
Mof_C 	C 	0.00413	0.63907	0.48557	0.056
Mof_H 	H 	0.00463	0.61847	0.45527	-0.192
Mof_H 	H 	0.04013	0.65567	0.50187	-0.075
Mof_C 	C 	0.99133	0.71007	0.51447	0.061
Mof_H 	H 	0.02733	0.72867	0.53107	0.001
Mof_H 	H 	0.98223	0.73787	0.50407	-0.041
Mof_C 	C 	0.94993	0.67187	0.55227	0.067
Mof_H 	H 	0.91363	0.65527	0.53647	0.034
Mof_H 	H 	0.94983	0.69237	0.58287	-0.025
Mof_C 	C 	0.86223	0.65697	0.74407	-6.265
Mof_H 	H 	0.85863	0.67467	0.77477	0.945
Mof_H 	H 	0.89843	0.66127	0.74307	0.568
Mof_H 	H 	0.85673	0.67357	0.71347	1.514
Mof_C 	C 	0.81743	0.53757	0.63027	-0.591
Mof_H 	H 	0.79023	0.50597	0.61157	0.071
Mof_H 	H 	0.82903	0.57007	0.60947	0.167
Mof_H 	H 	0.84863	0.53317	0.63767	0.002
Mof_O 	O 	0.84633	0.59277	0.69407	0.373
Mof_C 	C 	0.81893	0.59557	0.74537	0.09
Mof_H 	H 	0.82283	0.57537	0.77427	-0.314
Mof_H 	H 	0.78123	0.58757	0.74157	0.154
Mof_C 	C 	0.79283	0.54327	0.68147	-0.174
Mof_H 	H 	0.78253	0.51287	0.70537	0.027
Mof_H 	H 	0.76293	0.55087	0.67677	-0.091
Mof_C 	C 	0.81833	0.63467	0.70267	1.873
Mof_C 	C 	0.79543	0.57417	0.64767	0.273
Mof_Cs	Cs	0.98703	0.61154	0.68714	1.212
Mof_H 	H 	0.86083	0.68567	0.76347	0.847
Mof_H 	H 	0.85633	0.62767	0.76737	1.835
Mof_H 	H 	0.89763	0.67157	0.72777	1.157
Mof_H 	H 	0.78173	0.60837	0.71537	-0.653
Mof_H 	H 	0.81653	0.66367	0.68227	-0.775
Mof_H 	H 	0.78873	0.59277	0.61867	-0.214
Mof_H 	H 	0.76353	0.55617	0.67007	0.071
Mof_H 	H 	0.79143	0.50947	0.60737	0.063
Mof_H 	H 	0.85173	0.55917	0.61217	0.079
Mof_H 	H 	0.82333	0.52077	0.66047	0.153
Mof_O 	O 	0.84843	0.60997	0.67597	-0.879
Mof_Cs	Cs	0.05491	0.68226	0.01922	0.729
Mof_P 	P 	0.18762	0.80274	0.9958	-0.324
Mof_O 	O 	0.0365	0.6642	0.90105	-0.434
Mof_C 	C 	0.1917	0.8655	0.0004	0.502
Mof_P 	P 	0.25556	0.92534	0.00508	-0.344
Mof_O 	O 	0.9857	0.6455	0.80269	-0.397
Mof_C 	C 	0.2558	0.821	0.9963	-0.143
Mof_P 	P 	0.30617	0.8912	0.99987	-0.066
Mof_C 	C 	0.1383	0.8712	0.0006	-2.686
Mof_C 	C 	0.1179	0.8748	0.0434	2.216
Mof_H 	H 	0.0869	0.8783	0.0385	-0.919
Mof_C 	C 	0.1159	0.8752	0.9468	5.922
Mof_C 	C 	0.0673	0.8828	0.9482	-6.308
Mof_H 	H 	0.0485	0.872	0.9151	1.787
Mof_H 	H 	0.0427	0.8603	0.9754	1.796
Mof_H 	H 	0.079	0.9207	0.9548	1.758
Mof_C 	C 	0.1577	0.9252	0.9207	-7.294
Mof_H 	H 	0.1407	0.9446	0.9062	2.116
Mof_H 	H 	0.1852	0.9482	0.9456	2.113
Mof_H 	H 	0.1745	0.9153	0.8932	2.083
Mof_C 	C 	0.093	0.823	0.9207	-7.265
Mof_H 	H 	0.0749	0.824	0.8892	2.079
Mof_H 	H 	0.122	0.8155	0.9121	2.036
Mof_H 	H 	0.0669	0.7945	0.9433	2.051
Mof_C 	C 	0.1317	0.8747	0.1012	-2.253
Mof_C 	C 	0.0801	0.8532	0.1313	2.407
Mof_H 	H 	0.0645	0.8764	0.1259	-0.828
Mof_H 	H 	0.0545	0.8164	0.1198	-0.824
Mof_H 	H 	0.0877	0.8526	0.1678	-0.747
Mof_C 	C 	0.1738	0.9305	0.1179	2.471
Mof_H 	H 	0.1596	0.9551	0.1139	-0.9
Mof_H 	H 	0.1831	0.9296	0.1539	-0.797
Mof_H 	H 	0.2062	0.9431	0.0966	-0.818
Mof_C 	C 	0.1548	0.8353	0.1168	1.89
Mof_H 	H 	0.1592	0.8358	0.1541	-0.638
Mof_H 	H 	0.1293	0.7984	0.1056	-0.649
Mof_H 	H 	0.1897	0.8477	0.1002	-0.577
Mof_C 	C 	0.0656	0.6942	0.8564	0.134
Mof_H 	H 	0.0941	0.7309	0.8667	-0.268
Mof_H 	H 	0.0833	0.676	0.8398	-0.105
Mof_C 	C 	0.0276	0.6984	0.8189	0.047
Mof_H 	H 	0.0482	0.7195	0.7886	-0.199
Mof_H 	H 	0.011	0.7178	0.8352	-0.067
Mof_C 	C 	0.9566	0.6146	0.8478	0.052
Mof_H 	H 	0.938	0.632	0.8644	-0.008
Mof_H 	H 	0.9288	0.5777	0.8374	-0.035
Mof_C 	C 	0.9948	0.6114	0.8856	0.101
Mof_H 	H 	0.0114	0.5917	0.8698	0.015
Mof_H 	H 	0.9743	0.5908	0.9162	-0.045
Mof_C 	C 	0.0097	0.5386	0.0774	-5.266
Mof_H 	H 	0.992	0.5173	0.1081	0.723
Mof_H 	H 	0.0054	0.5705	0.0764	0.509
Mof_H 	H 	0.9931	0.5165	0.0468	1.235
Mof_C 	C 	0.1291	0.6132	0.9636	-0.467
Mof_H 	H 	0.1607	0.6176	0.9449	0.05
Mof_H 	H 	0.0966	0.5923	0.9428	0.14
Mof_H 	H 	0.1335	0.6488	0.971	-0.024
Mof_O 	O 	0.0739	0.5869	0.0274	0.341
Mof_C 	C 	0.0711	0.5567	0.0787	-0.011
Mof_H 	H 	0.0913	0.5808	0.1076	-0.24
Mof_H 	H 	0.0791	0.527	0.0749	0.172
Mof_C 	C 	0.1234	0.5829	0.0148	-0.143
Mof_H 	H 	0.1538	0.603	0.0387	0.017
Mof_H 	H 	0.1158	0.5454	0.0101	-0.065
Mof_C 	C 	0.032	0.517	0.036	1.657
Mof_C 	C 	0.0925	0.5546	0.981	0.201
Mof_Cs	Cs	0.05513	0.70883	0.02047	1.266
Mof_H 	H 	0.981	0.5085	0.0968	0.811
Mof_H 	H 	0.039	0.562	0.1007	1.571
Mof_H 	H 	0.9951	0.5594	0.0611	0.924
Mof_H 	H 	0.0583	0.5067	0.0487	-0.584
Mof_H 	H 	0.003	0.4862	0.0156	-0.695
Mof_H 	H 	0.0739	0.5293	0.952	-0.168
Mof_H 	H 	0.1105	0.5407	0.0034	0.057
Mof_H 	H 	0.1572	0.6153	0.9407	0.042
Mof_H 	H 	0.1075	0.6259	0.9455	0.05
Mof_H 	H 	0.1459	0.6359	0.9938	0.111
Mof_O 	O 	0.0567	0.5718	0.0093	-0.836
Mof_Cs	Cs	0.72157	0.01559	0.35255	0.494
Mof_P 	P 	0.85429	0.13607	0.32913	-0.398
Mof_O 	O 	0.70317	0.99753	0.23438	-0.413
Mof_C 	C 	0.85837	0.19883	0.33373	0.951
Mof_P 	P 	0.92223	0.25867	0.33841	-0.458
Mof_O 	O 	0.65237	0.97883	0.13602	-0.406
Mof_C 	C 	0.92247	0.15433	0.32963	-0.119
Mof_P 	P 	0.97284	0.22453	0.3332	-0.048
Mof_C 	C 	0.80497	0.20453	0.33393	-4.809
Mof_C 	C 	0.78457	0.20813	0.37673	4.276
Mof_H 	H 	0.75357	0.21163	0.37183	-1.704
Mof_C 	C 	0.78257	0.20853	0.28013	10.463
Mof_C 	C 	0.73397	0.21613	0.28153	-10.958
Mof_H 	H 	0.71517	0.20533	0.24843	3.113
Mof_H 	H 	0.70937	0.19363	0.30873	3.182
Mof_H 	H 	0.74567	0.25403	0.28813	3.095
Mof_C 	C 	0.82437	0.25853	0.25403	-12.716
Mof_H 	H 	0.80737	0.27793	0.23953	3.706
Mof_H 	H 	0.85187	0.28153	0.27893	3.74
Mof_H 	H 	0.84117	0.24863	0.22653	3.679
Mof_C 	C 	0.75967	0.15633	0.25403	-12.783
Mof_H 	H 	0.74157	0.15733	0.22253	3.694
Mof_H 	H 	0.78867	0.14883	0.24543	3.67
Mof_H 	H 	0.73357	0.12783	0.27663	3.711
Mof_C 	C 	0.79837	0.20803	0.43453	-4.483
Mof_C 	C 	0.74677	0.18653	0.46463	5.005
Mof_H 	H 	0.73117	0.20973	0.45923	-1.622
Mof_H 	H 	0.72117	0.14973	0.45313	-1.617
Mof_H 	H 	0.75437	0.18593	0.50113	-1.522
Mof_C 	C 	0.84047	0.26383	0.45123	5.096
Mof_H 	H 	0.82627	0.28843	0.44723	-1.729
Mof_H 	H 	0.84977	0.26293	0.48723	-1.583
Mof_H 	H 	0.87287	0.27643	0.42993	-1.622
Mof_C 	C 	0.82147	0.16863	0.45013	3.933
Mof_H 	H 	0.82587	0.16913	0.48743	-1.258
Mof_H 	H 	0.79597	0.13173	0.43893	-1.245
Mof_H 	H 	0.85637	0.18103	0.43353	-1.188
Mof_C 	C 	0.73227	0.02753	0.18973	0.118
Mof_H 	H 	0.76077	0.06423	0.20003	-0.278
Mof_H 	H 	0.74997	0.00933	0.17313	-0.075
Mof_C 	C 	0.69427	0.03173	0.15223	0.055
Mof_H 	H 	0.71487	0.05283	0.12193	-0.171
Mof_H 	H 	0.67767	0.05113	0.16853	-0.087
Mof_C 	C 	0.62327	0.94793	0.18113	0.056
Mof_H 	H 	0.60467	0.96533	0.19773	0.005
Mof_H 	H 	0.59547	0.91103	0.17073	-0.041
Mof_C 	C 	0.66147	0.94473	0.21893	0.075
Mof_H 	H 	0.67807	0.92503	0.20313	0.015
Mof_H 	H 	0.64097	0.92413	0.24953	-0.028
Mof_C 	C 	0.67637	0.87193	0.41073	-7.123
Mof_H 	H 	0.65867	0.85063	0.44143	1.12
Mof_H 	H 	0.67207	0.90383	0.40973	0.51
Mof_H 	H 	0.65977	0.84983	0.38013	1.579
Mof_C 	C 	0.79577	0.94653	0.29693	-0.496
Mof_H 	H 	0.82737	0.95093	0.27823	0.054
Mof_H 	H 	0.76327	0.92563	0.27613	0.119
Mof_H 	H 	0.80017	0.98213	0.30433	-0.031
Mof_O 	O 	0.74057	0.92023	0.36073	1.246
Mof_C 	C 	0.73777	0.89003	0.41203	-0.503
Mof_H 	H 	0.75797	0.91413	0.44093	-0.191
Mof_H 	H 	0.74577	0.86033	0.40823	0.438
Mof_C 	C 	0.79007	0.91623	0.34813	-0.541
Mof_H 	H 	0.82047	0.93633	0.37203	0.14
Mof_H 	H 	0.78247	0.87873	0.34343	-0.18
Mof_C 	C 	0.69867	0.85033	0.36933	2.678
Mof_C 	C 	0.75917	0.88793	0.31433	0.554
Mof_Cs	Cs	0.7218	0.04216	0.3538	1.115
Mof_H 	H 	0.64767	0.84183	0.43013	0.942
Mof_H 	H 	0.70567	0.89533	0.43403	2.21
Mof_H 	H 	0.66177	0.89273	0.39443	1.461
Mof_H 	H 	0.72497	0.84003	0.38203	-0.981
Mof_H 	H 	0.66967	0.81953	0.34893	-1.069
Mof_H 	H 	0.74057	0.86263	0.28533	-0.303
Mof_H 	H 	0.77717	0.87403	0.33673	0.185
Mof_H 	H 	0.82387	0.94863	0.27403	0.052
Mof_H 	H 	0.77417	0.95923	0.27883	0.088
Mof_H 	H 	0.81257	0.96923	0.32713	0.157
Mof_O 	O 	0.72337	0.90513	0.34263	-1.794
Mof_Cs	Cs	0.38824	0.34892	0.68589	0.515
Mof_P 	P 	0.52095	0.46941	0.66247	-0.387
Mof_O 	O 	0.36983	0.33087	0.56772	-0.418
Mof_C 	C 	0.52503	0.53217	0.66707	0.862
Mof_P 	P 	0.58889	0.59201	0.67175	-0.433
Mof_O 	O 	0.31903	0.31217	0.46936	-0.396
Mof_C 	C 	0.58913	0.48767	0.66297	-0.129
Mof_P 	P 	0.6395	0.55787	0.66654	-0.052
Mof_C 	C 	0.47163	0.53787	0.66727	-4.401
Mof_C 	C 	0.45123	0.54147	0.71007	3.923
Mof_H 	H 	0.42023	0.54497	0.70517	-1.579
Mof_C 	C 	0.44923	0.54187	0.61347	9.495
Mof_C 	C 	0.40063	0.54947	0.61487	-9.959
Mof_H 	H 	0.38183	0.53867	0.58177	2.836
Mof_H 	H 	0.37603	0.52697	0.64207	2.876
Mof_H 	H 	0.41233	0.58737	0.62147	2.803
Mof_C 	C 	0.49103	0.59187	0.58737	-11.555
Mof_H 	H 	0.47403	0.61127	0.57287	3.369
Mof_H 	H 	0.51853	0.61487	0.61227	3.391
Mof_H 	H 	0.50783	0.58197	0.55987	3.332
Mof_C 	C 	0.42633	0.48967	0.58737	-11.585
Mof_H 	H 	0.40823	0.49067	0.55587	3.34
Mof_H 	H 	0.45533	0.48217	0.57877	3.303
Mof_H 	H 	0.40023	0.46117	0.60997	3.349
Mof_C 	C 	0.46503	0.54137	0.76787	-4.182
Mof_C 	C 	0.41343	0.51987	0.79797	4.685
Mof_H 	H 	0.39783	0.54307	0.79257	-1.542
Mof_H 	H 	0.38783	0.48307	0.78647	-1.531
Mof_H 	H 	0.42103	0.51927	0.83447	-1.43
Mof_C 	C 	0.50713	0.59717	0.78457	4.778
Mof_H 	H 	0.49293	0.62177	0.78057	-1.651
Mof_H 	H 	0.51643	0.59627	0.82057	-1.493
Mof_H 	H 	0.53953	0.60977	0.76327	-1.534
Mof_C 	C 	0.48813	0.50197	0.78347	3.653
Mof_H 	H 	0.49253	0.50247	0.82077	-1.168
Mof_H 	H 	0.46263	0.46507	0.77227	-1.165
Mof_H 	H 	0.52303	0.51437	0.76687	-1.103
Mof_C 	C 	0.39893	0.36087	0.52307	0.125
Mof_H 	H 	0.42743	0.39757	0.53337	-0.303
Mof_H 	H 	0.41663	0.34267	0.50647	-0.088
Mof_C 	C 	0.36093	0.36507	0.48557	0.056
Mof_H 	H 	0.38153	0.38617	0.45527	-0.2
Mof_H 	H 	0.34433	0.38447	0.50187	-0.081
Mof_C 	C 	0.28993	0.28127	0.51447	0.06
Mof_H 	H 	0.27133	0.29867	0.53107	-0
Mof_H 	H 	0.26213	0.24437	0.50407	-0.04
Mof_C 	C 	0.32813	0.27807	0.55227	0.068
Mof_H 	H 	0.34473	0.25837	0.53647	0.034
Mof_H 	H 	0.30763	0.25747	0.58287	-0.026
Mof_C 	C 	0.34303	0.20527	0.74407	-6.282
Mof_H 	H 	0.32533	0.18397	0.77477	0.948
Mof_H 	H 	0.33873	0.23717	0.74307	0.567
Mof_H 	H 	0.32643	0.18317	0.71347	1.515
Mof_C 	C 	0.46243	0.27987	0.63027	-0.582
Mof_H 	H 	0.49403	0.28427	0.61157	0.069
Mof_H 	H 	0.42993	0.25897	0.60947	0.165
Mof_H 	H 	0.46683	0.31547	0.63767	-0.001
Mof_O 	O 	0.40723	0.25357	0.69407	0.391
Mof_C 	C 	0.40443	0.22337	0.74537	0.079
Mof_H 	H 	0.42463	0.24747	0.77427	-0.311
Mof_H 	H 	0.41243	0.19367	0.74157	0.16
Mof_C 	C 	0.45673	0.24957	0.68147	-0.183
Mof_H 	H 	0.48713	0.26967	0.70537	0.03
Mof_H 	H 	0.44913	0.21207	0.67677	-0.092
Mof_C 	C 	0.36533	0.18367	0.70267	1.889
Mof_C 	C 	0.42583	0.22127	0.64767	0.276
Mof_Cs	Cs	0.38846	0.3755	0.68714	1.207
Mof_H 	H 	0.31433	0.17517	0.76347	0.849
Mof_H 	H 	0.37233	0.22867	0.76737	1.843
Mof_H 	H 	0.32843	0.22607	0.72777	1.162
Mof_H 	H 	0.39163	0.17337	0.71537	-0.66
Mof_H 	H 	0.33633	0.15287	0.68227	-0.78
Mof_H 	H 	0.40723	0.19597	0.61867	-0.215
Mof_H 	H 	0.44383	0.20737	0.67007	0.074
Mof_H 	H 	0.49053	0.28197	0.60737	0.061
Mof_H 	H 	0.44083	0.29257	0.61217	0.077
Mof_H 	H 	0.47923	0.30257	0.66047	0.152
Mof_O 	O 	0.39003	0.23847	0.67597	-0.896
Mof_Cs	Cs	0.31774	0.37265	0.01922	0.626
Mof_P 	P 	0.19726	0.38488	0.9958	-0.34
Mof_O 	O 	0.3358	0.3723	0.90105	-0.409
Mof_C 	C 	0.1345	0.3262	0.0004	0.631
Mof_P 	P 	0.07466	0.33022	0.00508	-0.38
Mof_O 	O 	0.3545	0.3402	0.80269	-0.406
Mof_C 	C 	0.179	0.4348	0.9963	-0.14
Mof_P 	P 	0.1088	0.41497	0.99987	-0.061
Mof_C 	C 	0.1288	0.2671	0.0006	-3.327
Mof_C 	C 	0.1252	0.2431	0.0434	2.791
Mof_H 	H 	0.1217	0.2086	0.0385	-1.136
Mof_C 	C 	0.1248	0.2407	0.9468	7.373
Mof_C 	C 	0.1172	0.1845	0.9482	-7.815
Mof_H 	H 	0.128	0.1765	0.9151	2.218
Mof_H 	H 	0.1397	0.1824	0.9754	2.255
Mof_H 	H 	0.0793	0.1583	0.9548	2.204
Mof_C 	C 	0.0748	0.2325	0.9207	-9.023
Mof_H 	H 	0.0554	0.1961	0.9062	2.62
Mof_H 	H 	0.0518	0.237	0.9456	2.638
Mof_H 	H 	0.0847	0.2592	0.8932	2.585
Mof_C 	C 	0.177	0.27	0.9207	-9.028
Mof_H 	H 	0.176	0.2509	0.8892	2.591
Mof_H 	H 	0.1845	0.3065	0.9121	2.554
Mof_H 	H 	0.2055	0.2724	0.9433	2.586
Mof_C 	C 	0.1253	0.257	0.1012	-2.785
Mof_C 	C 	0.1468	0.2269	0.1313	3.011
Mof_H 	H 	0.1236	0.1881	0.1259	-1.005
Mof_H 	H 	0.1836	0.2381	0.1198	-1.005
Mof_H 	H 	0.1474	0.2351	0.1678	-0.925
Mof_C 	C 	0.0695	0.2433	0.1179	3.045
Mof_H 	H 	0.0449	0.2045	0.1139	-1.05
Mof_H 	H 	0.0704	0.2535	0.1539	-0.96
Mof_H 	H 	0.0569	0.2631	0.0966	-0.979
Mof_C 	C 	0.1647	0.3195	0.1168	2.371
Mof_H 	H 	0.1642	0.3234	0.1541	-0.784
Mof_H 	H 	0.2016	0.3309	0.1056	-0.786
Mof_H 	H 	0.1523	0.342	0.1002	-0.72
Mof_C 	C 	0.3058	0.3714	0.8564	0.111
Mof_H 	H 	0.2691	0.3632	0.8667	-0.275
Mof_H 	H 	0.324	0.4073	0.8398	-0.089
Mof_C 	C 	0.3016	0.3292	0.8189	0.07
Mof_H 	H 	0.2805	0.3287	0.7886	-0.205
Mof_H 	H 	0.2822	0.2932	0.8352	-0.083
Mof_C 	C 	0.3854	0.342	0.8478	0.078
Mof_H 	H 	0.368	0.306	0.8644	-0.016
Mof_H 	H 	0.4223	0.3511	0.8374	-0.042
Mof_C 	C 	0.3886	0.3834	0.8856	0.054
Mof_H 	H 	0.4083	0.4197	0.8698	0.038
Mof_H 	H 	0.4092	0.3835	0.9162	-0.024
Mof_C 	C 	0.4614	0.4711	0.0774	-6.926
Mof_H 	H 	0.4827	0.4747	0.1081	1.036
Mof_H 	H 	0.4295	0.4349	0.0764	0.562
Mof_H 	H 	0.4835	0.4766	0.0468	1.594
Mof_C 	C 	0.3868	0.5159	0.9636	-0.45
Mof_H 	H 	0.3824	0.5431	0.9449	0.049
Mof_H 	H 	0.4077	0.5043	0.9428	0.128
Mof_H 	H 	0.3512	0.4847	0.971	-0.035
Mof_O 	O 	0.4131	0.487	0.0274	0.81
Mof_C 	C 	0.4433	0.5144	0.0787	-0.201
Mof_H 	H 	0.4192	0.5105	0.1076	-0.264
Mof_H 	H 	0.473	0.5521	0.0749	0.304
Mof_C 	C 	0.4171	0.5405	0.0148	-0.37
Mof_H 	H 	0.397	0.5508	0.0387	0.087
Mof_H 	H 	0.4546	0.5704	0.0101	-0.127
Mof_C 	C 	0.483	0.515	0.036	2.357
Mof_C 	C 	0.4454	0.5379	0.981	0.384
Mof_Cs	Cs	0.29117	0.3463	0.02047	1.161
Mof_H 	H 	0.4915	0.4725	0.0968	0.971
Mof_H 	H 	0.438	0.477	0.1007	2.096
Mof_H 	H 	0.4406	0.4357	0.0611	1.347
Mof_H 	H 	0.4933	0.5516	0.0487	-0.847
Mof_H 	H 	0.5138	0.5168	0.0156	-0.958
Mof_H 	H 	0.4707	0.5446	0.952	-0.252
Mof_H 	H 	0.4593	0.5698	0.0034	0.13
Mof_H 	H 	0.3847	0.5419	0.9407	0.042
Mof_H 	H 	0.3741	0.4816	0.9455	0.066
Mof_H 	H 	0.3641	0.51	0.9938	0.129
Mof_O 	O 	0.4282	0.4849	0.0093	-1.35
Mof_Cs	Cs	0.98441	0.70598	0.35255	0.511
Mof_P 	P 	0.86393	0.71821	0.32913	-0.391
Mof_O 	O 	0.00247	0.70563	0.23438	-0.414
Mof_C 	C 	0.80117	0.65953	0.33373	0.911
Mof_P 	P 	0.74133	0.66355	0.33841	-0.45
Mof_O 	O 	0.02117	0.67353	0.13602	-0.414
Mof_C 	C 	0.84567	0.76813	0.32963	-0.126
Mof_P 	P 	0.77547	0.7483	0.3332	-0.049
Mof_C 	C 	0.79547	0.60043	0.33393	-4.622
Mof_C 	C 	0.79187	0.57643	0.37673	4.108
Mof_H 	H 	0.78837	0.54193	0.37183	-1.642
Mof_C 	C 	0.79147	0.57403	0.28013	10.037
Mof_C 	C 	0.78387	0.51783	0.28153	-10.519
Mof_H 	H 	0.79467	0.50983	0.24843	2.989
Mof_H 	H 	0.80637	0.51573	0.30873	3.05
Mof_H 	H 	0.74597	0.49163	0.28813	2.966
Mof_C 	C 	0.74147	0.56583	0.25403	-12.206
Mof_H 	H 	0.72207	0.52943	0.23953	3.559
Mof_H 	H 	0.71847	0.57033	0.27893	3.586
Mof_H 	H 	0.75137	0.59253	0.22653	3.527
Mof_C 	C 	0.84367	0.60333	0.25403	-12.26
Mof_H 	H 	0.84267	0.58423	0.22253	3.539
Mof_H 	H 	0.85117	0.63983	0.24543	3.511
Mof_H 	H 	0.87217	0.60573	0.27663	3.556
Mof_C 	C 	0.79197	0.59033	0.43453	-4.326
Mof_C 	C 	0.81347	0.56023	0.46463	4.826
Mof_H 	H 	0.79027	0.52143	0.45923	-1.571
Mof_H 	H 	0.85027	0.57143	0.45313	-1.563
Mof_H 	H 	0.81407	0.56843	0.50113	-1.47
Mof_C 	C 	0.73617	0.57663	0.45123	4.929
Mof_H 	H 	0.71157	0.53783	0.44723	-1.687
Mof_H 	H 	0.73707	0.58683	0.48723	-1.536
Mof_H 	H 	0.72357	0.59643	0.42993	-1.576
Mof_C 	C 	0.83137	0.65283	0.45013	3.787
Mof_H 	H 	0.83087	0.65673	0.48743	-1.213
Mof_H 	H 	0.86827	0.66423	0.43893	-1.202
Mof_H 	H 	0.81897	0.67533	0.43353	-1.144
Mof_C 	C 	0.97247	0.70473	0.18973	0.127
Mof_H 	H 	0.93577	0.69653	0.20003	-0.291
Mof_H 	H 	0.99067	0.74063	0.17313	-0.099
Mof_C 	C 	0.96827	0.66253	0.15223	0.05
Mof_H 	H 	0.94717	0.66203	0.12193	-0.186
Mof_H 	H 	0.94887	0.62653	0.16853	-0.084
Mof_C 	C 	0.05207	0.67533	0.18113	0.055
Mof_H 	H 	0.03467	0.63933	0.19773	0.006
Mof_H 	H 	0.08897	0.68443	0.17073	-0.043
Mof_C 	C 	0.05527	0.71673	0.21893	0.079
Mof_H 	H 	0.07497	0.75303	0.20313	0.006
Mof_H 	H 	0.07587	0.71683	0.24953	-0.03
Mof_C 	C 	0.12807	0.80443	0.41073	-7.172
Mof_H 	H 	0.14937	0.80803	0.44143	1.139
Mof_H 	H 	0.09617	0.76823	0.40973	0.482
Mof_H 	H 	0.15017	0.80993	0.38013	1.56
Mof_C 	C 	0.05347	0.84923	0.29693	-0.42
Mof_H 	H 	0.04907	0.87643	0.27823	0.04
Mof_H 	H 	0.07437	0.83763	0.27613	0.094
Mof_H 	H 	0.01787	0.81803	0.30433	-0.048
Mof_O 	O 	0.07977	0.82033	0.36073	1.422
Mof_C 	C 	0.10997	0.84773	0.41203	-0.633
Mof_H 	H 	0.08587	0.84383	0.44093	-0.158
Mof_H 	H 	0.13967	0.88543	0.40823	0.496
Mof_C 	C 	0.08377	0.87383	0.34813	-0.625
Mof_H 	H 	0.06367	0.88413	0.37203	0.167
Mof_H 	H 	0.12127	0.90373	0.34343	-0.195
Mof_C 	C 	0.14967	0.84833	0.36933	2.81
Mof_C 	C 	0.11207	0.87123	0.31433	0.599
Mof_Cs	Cs	0.95784	0.67963	0.3538	1.101
Mof_H 	H 	0.15817	0.80583	0.43013	0.939
Mof_H 	H 	0.10467	0.81033	0.43403	2.251
Mof_H 	H 	0.10727	0.76903	0.39443	1.502
Mof_H 	H 	0.15997	0.88493	0.38203	-1.038
Mof_H 	H 	0.18047	0.85013	0.34893	-1.117
Mof_H 	H 	0.13737	0.87793	0.28533	-0.315
Mof_H 	H 	0.12597	0.90313	0.33673	0.21
Mof_H 	H 	0.05137	0.87523	0.27403	0.041
Mof_H 	H 	0.04077	0.81493	0.27883	0.079
Mof_H 	H 	0.03077	0.84333	0.32713	0.145
Mof_O 	O 	0.09487	0.81823	0.34263	-1.976
Mof_Cs	Cs	0.65108	0.03932	0.68589	0.543
Mof_P 	P 	0.53059	0.05155	0.66247	-0.373
Mof_O 	O 	0.66913	0.03897	0.56772	-0.418
Mof_C 	C 	0.46783	0.99287	0.66707	0.806
Mof_P 	P 	0.40799	0.99689	0.67175	-0.425
Mof_O 	O 	0.68783	0.00687	0.46936	-0.393
Mof_C 	C 	0.51233	0.10147	0.66297	-0.127
Mof_P 	P 	0.44213	0.08164	0.66654	-0.049
Mof_C 	C 	0.46213	0.93377	0.66727	-4.159
Mof_C 	C 	0.45853	0.90977	0.71007	3.666
Mof_H 	H 	0.45503	0.87527	0.70517	-1.486
Mof_C 	C 	0.45813	0.90737	0.61347	8.998
Mof_C 	C 	0.45053	0.85117	0.61487	-9.445
Mof_H 	H 	0.46133	0.84317	0.58177	2.69
Mof_H 	H 	0.47303	0.84907	0.64207	2.721
Mof_H 	H 	0.41263	0.82497	0.62147	2.652
Mof_C 	C 	0.40813	0.89917	0.58737	-10.967
Mof_H 	H 	0.38873	0.86277	0.57287	3.199
Mof_H 	H 	0.38513	0.90367	0.61227	3.213
Mof_H 	H 	0.41803	0.92587	0.55987	3.163
Mof_C 	C 	0.51033	0.93667	0.58737	-10.99
Mof_H 	H 	0.50933	0.91757	0.55587	3.17
Mof_H 	H 	0.51783	0.97317	0.57877	3.131
Mof_H 	H 	0.53883	0.93907	0.60997	3.17
Mof_C 	C 	0.45863	0.92367	0.76787	-3.879
Mof_C 	C 	0.48013	0.89357	0.79797	4.337
Mof_H 	H 	0.45693	0.85477	0.79257	-1.44
Mof_H 	H 	0.51693	0.90477	0.78647	-1.427
Mof_H 	H 	0.48073	0.90177	0.83447	-1.322
Mof_C 	C 	0.40283	0.90997	0.78457	4.432
Mof_H 	H 	0.37823	0.87117	0.78057	-1.555
Mof_H 	H 	0.40373	0.92017	0.82057	-1.383
Mof_H 	H 	0.39023	0.92977	0.76327	-1.434
Mof_C 	C 	0.49803	0.98617	0.78347	3.329
Mof_H 	H 	0.49753	0.99007	0.82077	-1.047
Mof_H 	H 	0.53493	0.99757	0.77227	-1.071
Mof_H 	H 	0.48563	0.00867	0.76687	-0.998
Mof_C 	C 	0.63913	0.03807	0.52307	0.122
Mof_H 	H 	0.60243	0.02987	0.53337	-0.29
Mof_H 	H 	0.65733	0.07397	0.50647	-0.079
Mof_C 	C 	0.63493	0.99587	0.48557	0.056
Mof_H 	H 	0.61383	0.99537	0.45527	-0.191
Mof_H 	H 	0.61553	0.95987	0.50187	-0.076
Mof_C 	C 	0.71873	0.00867	0.51447	0.062
Mof_H 	H 	0.70133	0.97267	0.53107	-0.001
Mof_H 	H 	0.75563	0.01777	0.50407	-0.04
Mof_C 	C 	0.72193	0.05007	0.55227	0.067
Mof_H 	H 	0.74163	0.08637	0.53647	0.035
Mof_H 	H 	0.74253	0.05017	0.58287	-0.027
Mof_C 	C 	0.79473	0.13777	0.74407	-5.9
Mof_H 	H 	0.81603	0.14137	0.77477	0.877
Mof_H 	H 	0.76283	0.10157	0.74307	0.568
Mof_H 	H 	0.81683	0.14327	0.71347	1.463
Mof_C 	C 	0.72013	0.18257	0.63027	-0.628
Mof_H 	H 	0.71573	0.20977	0.61157	0.077
Mof_H 	H 	0.74103	0.17097	0.60947	0.181
Mof_H 	H 	0.68453	0.15137	0.63767	0.012
Mof_O 	O 	0.74643	0.15367	0.69407	0.128
Mof_C 	C 	0.77663	0.18107	0.74537	0.246
Mof_H 	H 	0.75253	0.17717	0.77427	-0.341
Mof_H 	H 	0.80633	0.21877	0.74157	0.076
Mof_C 	C 	0.75043	0.20717	0.68147	-0.068
Mof_H 	H 	0.73033	0.21747	0.70537	-0.005
Mof_H 	H 	0.78793	0.23707	0.67677	-0.067
Mof_C 	C 	0.81633	0.18167	0.70267	1.616
Mof_C 	C 	0.77873	0.20457	0.64767	0.197
Mof_Cs	Cs	0.6245	0.01297	0.68714	1.236
Mof_H 	H 	0.82483	0.13917	0.76347	0.801
Mof_H 	H 	0.77133	0.14367	0.76737	1.695
Mof_H 	H 	0.77393	0.10237	0.72777	1.05
Mof_H 	H 	0.82663	0.21827	0.71537	-0.551
Mof_H 	H 	0.84713	0.18347	0.68227	-0.68
Mof_H 	H 	0.80403	0.21127	0.61867	-0.189
Mof_H 	H 	0.79263	0.23647	0.67007	0.038
Mof_H 	H 	0.71803	0.20857	0.60737	0.068
Mof_H 	H 	0.70743	0.14827	0.61217	0.078
Mof_H 	H 	0.69743	0.17667	0.66047	0.155
Mof_O 	O 	0.76153	0.15157	0.67597	-0.62
_end
