data_functionalizedCrystal
_audit_creation_method	'EQeq! by Chris Wilmer'
_symmetry_space_group_name_H-M	'P1'
_symmetry_Int_Tables_number	1
_symmetry_cell_setting	triclinic
loop_
_symmetry_equiv_pos_as_xyz
  x,y,z
_cell_length_a	31.654
_cell_length_b	9.7728
_cell_length_c	37.31
_cell_angle_alpha	90
_cell_angle_beta	90
_cell_angle_gamma	90
loop_
_atom_site_label
_atom_site_type_symbol
_atom_site_fract_x
_atom_site_fract_y
_atom_site_fract_z
_atom_site_charge
Mof_C 	C 	0.7007	0.1318	0.5662	-0.194
Mof_H 	H 	0.7171	0.0493	0.5728	0.082
Mof_H 	H 	0.6742	0.1002	0.5547	0.083
Mof_Zn	Zn	0.93133	0.8533	0.8218	1.188
Mof_O 	O 	0.7021	0.4607	0.4659	-0.219
Mof_C 	C 	0.798	0.1286	0.5613	-0.196
Mof_H 	H 	0.782	0.0479	0.5699	0.083
Mof_H 	H 	0.8228	0.0948	0.5477	0.083
Mof_Zn	Zn	0.89185	0.5556	0.85674	1.213
Mof_O 	O 	0.8607	0.7834	0.3741	-0.544
Mof_C 	C 	0.754	0.1179	0.6347	-0.192
Mof_H 	H 	0.7559	0.0772	0.6589	0.082
Mof_H 	H 	0.7524	0.0415	0.6173	0.081
Mof_O 	O 	0.8913	0.5874	0.3591	-0.523
Mof_O 	O 	0.9017	0.4417	0.6154	-0.199
Mof_O 	O 	0.9092	0.7564	0.7796	-0.559
Mof_O 	O 	0.9124	0.5574	0.8072	-0.529
Mof_O 	O 	0.6522	0.4261	0.6922	-0.211
Mof_O 	O 	0.4807	0.7613	0.6578	-0.504
Mof_O 	O 	0.4477	0.6064	0.6237	-0.545
Mof_C 	C 	0.7256	0.2109	0.5389	0.079
Mof_C 	C 	0.7702	0.2093	0.5362	0.014
Mof_C 	C 	0.7888	0.288	0.5102	-0.041
Mof_H 	H 	0.8188	0.2854	0.5088	0.039
Mof_C 	C 	0.7681	0.3706	0.4859	-0.09
Mof_C 	C 	0.7241	0.3789	0.4898	0.167
Mof_C 	C 	0.7045	0.3028	0.5165	-0.184
Mof_H 	H 	0.6749	0.3139	0.5197	0.091
Mof_C 	C 	0.6561	0.464	0.4668	-0.104
Mof_H 	H 	0.6457	0.5265	0.4483	0.036
Mof_H 	H 	0.6451	0.3718	0.4623	0.054
Mof_H 	H 	0.6466	0.4956	0.4904	0.052
Mof_C 	C 	0.7905	0.445	0.4559	0.123
Mof_C 	C 	0.8232	0.38	0.4373	-0.189
Mof_H 	H 	0.8302	0.2881	0.4427	0.08
Mof_C 	C 	0.8457	0.449	0.4108	0.102
Mof_H 	H 	0.8662	0.4011	0.3972	-0.011
Mof_C 	C 	0.8388	0.584	0.4042	-0.197
Mof_C 	C 	0.8078	0.652	0.4229	0.086
Mof_H 	H 	0.8034	0.7467	0.419	0
Mof_C 	C 	0.7821	0.581	0.4483	-0.175
Mof_H 	H 	0.7595	0.6266	0.4599	0.101
Mof_C 	C 	0.8662	0.663	0.3785	0.449
Mof_C 	C 	0.8133	0.2084	0.5933	0.082
Mof_C 	C 	0.7941	0.1967	0.6276	0.011
Mof_C 	C 	0.8106	0.2783	0.6558	-0.04
Mof_H 	H 	0.7956	0.2806	0.6778	0.038
Mof_C 	C 	0.8461	0.3527	0.653	-0.083
Mof_C 	C 	0.8646	0.3669	0.6173	0.163
Mof_C 	C 	0.849	0.2904	0.5893	-0.184
Mof_H 	H 	0.8629	0.2936	0.5668	0.09
Mof_C 	C 	0.925	0.437	0.5812	-0.138
Mof_H 	H 	0.9505	0.4929	0.583	0.068
Mof_H 	H 	0.933	0.3418	0.5759	0.07
Mof_H 	H 	0.907	0.4717	0.5619	0.064
Mof_C 	C 	0.8642	0.429	0.6842	0.133
Mof_C 	C 	0.8658	0.36	0.7155	-0.188
Mof_H 	H 	0.8565	0.2674	0.717	0.086
Mof_C 	C 	0.8821	0.43	0.7465	0.105
Mof_H 	H 	0.8846	0.38	0.7682	-0.004
Mof_C 	C 	0.8939	0.561	0.747	-0.201
Mof_C 	C 	0.8921	0.628	0.7139	0.107
Mof_H 	H 	0.9005	0.7212	0.7127	0.01
Mof_C 	C 	0.8789	0.566	0.6836	-0.181
Mof_H 	H 	0.8795	0.6144	0.6616	0.106
Mof_C 	C 	0.9059	0.636	0.7808	0.478
Mof_C 	C 	0.7134	0.1986	0.6324	0.075
Mof_C 	C 	0.689	0.2072	0.6006	0.01
Mof_C 	C 	0.6529	0.289	0.6029	-0.037
Mof_H 	H 	0.6356	0.2935	0.5822	0.039
Mof_C 	C 	0.6406	0.361	0.6307	-0.086
Mof_C 	C 	0.6662	0.353	0.6625	0.175
Mof_C 	C 	0.7012	0.2805	0.6633	-0.193
Mof_H 	H 	0.7185	0.2814	0.6841	0.091
Mof_C 	C 	0.6788	0.406	0.7223	-0.098
Mof_H 	H 	0.6679	0.4592	0.7426	0.05
Mof_H 	H 	0.6794	0.309	0.7285	0.057
Mof_H 	H 	0.7074	0.4373	0.7165	0.047
Mof_C 	C 	0.6001	0.442	0.6307	0.121
Mof_C 	C 	0.564	0.393	0.6141	-0.166
Mof_H 	H 	0.5652	0.3075	0.6018	0.079
Mof_C 	C 	0.5264	0.464	0.6148	0.079
Mof_H 	H 	0.5027	0.4291	0.6021	-0.005
Mof_C 	C 	0.5223	0.591	0.6347	-0.185
Mof_C 	C 	0.5577	0.637	0.6494	0.113
Mof_H 	H 	0.5569	0.7231	0.6612	0.009
Mof_C 	C 	0.5958	0.568	0.6488	-0.17
Mof_H 	H 	0.6195	0.6054	0.6608	0.104
Mof_C 	C 	0.479	0.653	0.6368	0.44
Mof_O 	O 	0.8378	0.485	0.8311	-0.47
Mof_C 	C 	0.7992	0.477	0.8342	0.262
Mof_C 	C 	0.785	0.447	0.8719	-0.439
Mof_H 	H 	0.7544	0.4416	0.8727	0.129
Mof_H 	H 	0.7974	0.3598	0.8797	0.208
Mof_H 	H 	0.795	0.5204	0.8878	0.202
Mof_N 	N 	0.7709	0.491	0.8091	-0.109
Mof_C 	C 	0.784	0.516	0.7719	-0.254
Mof_H 	H 	0.7582	0.5237	0.7569	0.093
Mof_H 	H 	0.7996	0.6016	0.7706	0.109
Mof_H 	H 	0.801	0.4402	0.7634	0.11
Mof_C 	C 	0.7256	0.476	0.8158	-0.201
Mof_H 	H 	0.71	0.4902	0.7934	0.074
Mof_H 	H 	0.7198	0.3838	0.8249	0.079
Mof_H 	H 	0.7165	0.5438	0.8336	0.043
Mof_C 	C 	0.8166	0.397	0.8462	0.186
Mof_C 	C 	0.797	0.45	0.88	-0.362
Mof_H 	H 	0.78	0.3771	0.8912	0.09
Mof_H 	H 	0.8187	0.4805	0.8966	0.04
Mof_H 	H 	0.7781	0.5273	0.8742	0.154
Mof_N 	N 	0.8095	0.269	0.8384	-0.103
Mof_C 	C 	0.828	0.199	0.808	-0.214
Mof_H 	H 	0.8186	0.1037	0.8072	0.082
Mof_H 	H 	0.8199	0.2451	0.7855	0.088
Mof_H 	H 	0.8592	0.2007	0.8099	0.069
Mof_C 	C 	0.776	0.191	0.857	-0.304
Mof_H 	H 	0.7758	0.0974	0.8471	0.109
Mof_H 	H 	0.7819	0.1887	0.8823	0.098
Mof_H 	H 	0.7488	0.2347	0.8522	0.108
Mof_C 	C 	0.7993	0.8682	0.0662	-0.193
Mof_H 	H 	0.7829	0.9507	0.0728	0.083
Mof_H 	H 	0.8258	0.8998	0.0547	0.084
Mof_Zn	Zn	0.56867	0.1467	0.3218	1.189
Mof_O 	O 	0.7979	0.5393	0.9659	-0.218
Mof_C 	C 	0.702	0.8714	0.0613	-0.195
Mof_H 	H 	0.718	0.9521	0.0699	0.084
Mof_H 	H 	0.6772	0.9052	0.0477	0.084
Mof_Zn	Zn	0.60815	0.4444	0.35674	1.214
Mof_O 	O 	0.6393	0.2166	0.8741	-0.543
Mof_C 	C 	0.746	0.8821	0.1347	-0.191
Mof_H 	H 	0.7441	0.9228	0.1589	0.083
Mof_H 	H 	0.7476	0.9585	0.1173	0.082
Mof_O 	O 	0.6087	0.4126	0.8591	-0.522
Mof_O 	O 	0.5983	0.5583	0.1154	-0.198
Mof_O 	O 	0.5908	0.2436	0.2796	-0.558
Mof_O 	O 	0.5876	0.4426	0.3072	-0.528
Mof_O 	O 	0.8478	0.5739	0.1922	-0.21
Mof_O 	O 	0.0193	0.2387	0.1578	-0.504
Mof_O 	O 	0.0523	0.3936	0.1237	-0.544
Mof_C 	C 	0.7744	0.7891	0.0389	0.08
Mof_C 	C 	0.7298	0.7907	0.0362	0.015
Mof_C 	C 	0.7112	0.712	0.0102	-0.04
Mof_H 	H 	0.6812	0.7146	0.0088	0.04
Mof_C 	C 	0.7319	0.6294	0.9859	-0.09
Mof_C 	C 	0.7759	0.6211	0.9898	0.167
Mof_C 	C 	0.7955	0.6972	0.0165	-0.184
Mof_H 	H 	0.8251	0.6861	0.0197	0.091
Mof_C 	C 	0.8439	0.536	0.9668	-0.104
Mof_H 	H 	0.8543	0.4735	0.9483	0.036
Mof_H 	H 	0.8549	0.6282	0.9623	0.054
Mof_H 	H 	0.8534	0.5044	0.9904	0.052
Mof_C 	C 	0.7095	0.555	0.9559	0.123
Mof_C 	C 	0.6768	0.62	0.9373	-0.189
Mof_H 	H 	0.6698	0.7119	0.9427	0.08
Mof_C 	C 	0.6543	0.551	0.9108	0.102
Mof_H 	H 	0.6338	0.5989	0.8972	-0.011
Mof_C 	C 	0.6612	0.416	0.9042	-0.197
Mof_C 	C 	0.6922	0.348	0.9229	0.086
Mof_H 	H 	0.6966	0.2533	0.919	0
Mof_C 	C 	0.7179	0.419	0.9483	-0.175
Mof_H 	H 	0.7405	0.3734	0.9599	0.101
Mof_C 	C 	0.6338	0.337	0.8785	0.449
Mof_C 	C 	0.6867	0.7916	0.0933	0.082
Mof_C 	C 	0.7059	0.8033	0.1276	0.011
Mof_C 	C 	0.6894	0.7217	0.1558	-0.04
Mof_H 	H 	0.7044	0.7194	0.1778	0.038
Mof_C 	C 	0.6539	0.6473	0.153	-0.083
Mof_C 	C 	0.6354	0.6331	0.1173	0.163
Mof_C 	C 	0.651	0.7096	0.0893	-0.184
Mof_H 	H 	0.6371	0.7064	0.0668	0.09
Mof_C 	C 	0.575	0.563	0.0812	-0.138
Mof_H 	H 	0.5495	0.5071	0.083	0.068
Mof_H 	H 	0.567	0.6582	0.0759	0.07
Mof_H 	H 	0.593	0.5283	0.0619	0.064
Mof_C 	C 	0.6358	0.571	0.1842	0.133
Mof_C 	C 	0.6342	0.64	0.2155	-0.188
Mof_H 	H 	0.6435	0.7326	0.217	0.086
Mof_C 	C 	0.6179	0.57	0.2465	0.105
Mof_H 	H 	0.6154	0.62	0.2682	-0.004
Mof_C 	C 	0.6061	0.439	0.247	-0.201
Mof_C 	C 	0.6079	0.372	0.2139	0.107
Mof_H 	H 	0.5995	0.2788	0.2127	0.01
Mof_C 	C 	0.6211	0.434	0.1836	-0.181
Mof_H 	H 	0.6205	0.3856	0.1616	0.106
Mof_C 	C 	0.5941	0.364	0.2808	0.478
Mof_C 	C 	0.7866	0.8014	0.1324	0.075
Mof_C 	C 	0.811	0.7928	0.1006	0.01
Mof_C 	C 	0.8471	0.711	0.1029	-0.037
Mof_H 	H 	0.8644	0.7065	0.0822	0.039
Mof_C 	C 	0.8594	0.639	0.1307	-0.086
Mof_C 	C 	0.8338	0.647	0.1625	0.175
Mof_C 	C 	0.7988	0.7195	0.1633	-0.193
Mof_H 	H 	0.7815	0.7186	0.1841	0.091
Mof_C 	C 	0.8212	0.594	0.2223	-0.098
Mof_H 	H 	0.8321	0.5408	0.2426	0.05
Mof_H 	H 	0.8206	0.691	0.2285	0.056
Mof_H 	H 	0.7926	0.5627	0.2165	0.047
Mof_C 	C 	0.8999	0.558	0.1307	0.121
Mof_C 	C 	0.936	0.607	0.1141	-0.166
Mof_H 	H 	0.9348	0.6925	0.1018	0.079
Mof_C 	C 	0.9736	0.536	0.1148	0.079
Mof_H 	H 	0.9973	0.5709	0.1021	-0.005
Mof_C 	C 	0.9777	0.409	0.1347	-0.185
Mof_C 	C 	0.9423	0.363	0.1494	0.112
Mof_H 	H 	0.9431	0.2769	0.1612	0.01
Mof_C 	C 	0.9042	0.432	0.1488	-0.17
Mof_H 	H 	0.8805	0.3946	0.1608	0.104
Mof_C 	C 	0.021	0.347	0.1368	0.44
Mof_O 	O 	0.6622	0.515	0.3311	-0.47
Mof_C 	C 	0.7008	0.523	0.3342	0.262
Mof_C 	C 	0.715	0.553	0.3719	-0.439
Mof_H 	H 	0.7456	0.5584	0.3727	0.129
Mof_H 	H 	0.7026	0.6402	0.3797	0.208
Mof_H 	H 	0.705	0.4796	0.3878	0.202
Mof_N 	N 	0.7291	0.509	0.3091	-0.109
Mof_C 	C 	0.716	0.484	0.2719	-0.254
Mof_H 	H 	0.7418	0.4763	0.2569	0.093
Mof_H 	H 	0.7004	0.3984	0.2706	0.109
Mof_H 	H 	0.699	0.5598	0.2634	0.11
Mof_C 	C 	0.7744	0.524	0.3158	-0.201
Mof_H 	H 	0.79	0.5098	0.2934	0.074
Mof_H 	H 	0.7802	0.6162	0.3249	0.079
Mof_H 	H 	0.7835	0.4562	0.3336	0.043
Mof_C 	C 	0.6834	0.603	0.3462	0.186
Mof_C 	C 	0.703	0.55	0.38	-0.362
Mof_H 	H 	0.72	0.6229	0.3912	0.09
Mof_H 	H 	0.6813	0.5195	0.3966	0.04
Mof_H 	H 	0.7219	0.4727	0.3742	0.154
Mof_N 	N 	0.6905	0.731	0.3384	-0.103
Mof_C 	C 	0.672	0.801	0.308	-0.214
Mof_H 	H 	0.6814	0.8963	0.3072	0.082
Mof_H 	H 	0.6801	0.7549	0.2855	0.088
Mof_H 	H 	0.6408	0.7993	0.3099	0.069
Mof_C 	C 	0.724	0.809	0.357	-0.304
Mof_H 	H 	0.7242	0.9026	0.3471	0.109
Mof_H 	H 	0.7181	0.8113	0.3823	0.098
Mof_H 	H 	0.7512	0.7653	0.3522	0.108
Mof_C 	C 	0.2993	0.6318	0.9338	-0.192
Mof_H 	H 	0.2829	0.5493	0.9272	0.083
Mof_H 	H 	0.3258	0.6002	0.9453	0.084
Mof_Zn	Zn	0.06867	0.3533	0.6782	1.189
Mof_O 	O 	0.2979	0.9607	0.0341	-0.217
Mof_C 	C 	0.202	0.6286	0.9387	-0.196
Mof_H 	H 	0.218	0.5479	0.9301	0.085
Mof_H 	H 	0.1772	0.5948	0.9523	0.084
Mof_Zn	Zn	0.10815	0.0556	0.64326	1.213
Mof_O 	O 	0.1393	0.2834	0.1259	-0.541
Mof_C 	C 	0.246	0.6179	0.8653	-0.191
Mof_H 	H 	0.2441	0.5772	0.8411	0.084
Mof_H 	H 	0.2476	0.5415	0.8827	0.083
Mof_O 	O 	0.1087	0.0874	0.1409	-0.52
Mof_O 	O 	0.0983	0.9417	0.8846	-0.198
Mof_O 	O 	0.0908	0.2564	0.7204	-0.56
Mof_O 	O 	0.0876	0.0574	0.6928	-0.53
Mof_O 	O 	0.3478	0.9261	0.8078	-0.208
Mof_O 	O 	0.5193	0.2613	0.8422	-0.504
Mof_O 	O 	0.5523	0.1064	0.8763	-0.545
Mof_C 	C 	0.2744	0.7109	0.9611	0.079
Mof_C 	C 	0.2298	0.7093	0.9638	0.016
Mof_C 	C 	0.2112	0.788	0.9898	-0.041
Mof_H 	H 	0.1812	0.7854	0.9912	0.041
Mof_C 	C 	0.2319	0.8706	0.0141	-0.088
Mof_C 	C 	0.2759	0.8789	0.0102	0.165
Mof_C 	C 	0.2955	0.8028	0.9835	-0.183
Mof_H 	H 	0.3251	0.8139	0.9803	0.09
Mof_C 	C 	0.3439	0.964	0.0332	-0.11
Mof_H 	H 	0.3543	0.0265	0.0517	0.039
Mof_H 	H 	0.3549	0.8718	0.0377	0.056
Mof_H 	H 	0.3534	0.9956	0.0096	0.053
Mof_C 	C 	0.2095	0.945	0.0441	0.117
Mof_C 	C 	0.1768	0.88	0.0627	-0.184
Mof_H 	H 	0.1698	0.7881	0.0573	0.078
Mof_C 	C 	0.1543	0.949	0.0892	0.094
Mof_H 	H 	0.1338	0.9011	0.1028	-0.009
Mof_C 	C 	0.1612	0.084	0.0958	-0.19
Mof_C 	C 	0.1922	0.152	0.0771	0.081
Mof_H 	H 	0.1966	0.2467	0.081	0.002
Mof_C 	C 	0.2179	0.081	0.0517	-0.169
Mof_H 	H 	0.2405	0.1266	0.0401	0.099
Mof_C 	C 	0.1338	0.163	0.1215	0.447
Mof_C 	C 	0.1867	0.7084	0.9067	0.083
Mof_C 	C 	0.2059	0.6967	0.8724	0.01
Mof_C 	C 	0.1894	0.7783	0.8442	-0.038
Mof_H 	H 	0.2044	0.7806	0.8222	0.037
Mof_C 	C 	0.1539	0.8527	0.847	-0.087
Mof_C 	C 	0.1354	0.8669	0.8827	0.164
Mof_C 	C 	0.151	0.7904	0.9107	-0.185
Mof_H 	H 	0.1371	0.7936	0.9332	0.091
Mof_C 	C 	0.075	0.937	0.9188	-0.138
Mof_H 	H 	0.0495	0.9929	0.917	0.068
Mof_H 	H 	0.067	0.8418	0.9241	0.07
Mof_H 	H 	0.093	0.9717	0.9381	0.064
Mof_C 	C 	0.1358	0.929	0.8158	0.143
Mof_C 	C 	0.1342	0.86	0.7845	-0.197
Mof_H 	H 	0.1435	0.7674	0.783	0.089
Mof_C 	C 	0.1179	0.93	0.7535	0.117
Mof_H 	H 	0.1154	0.88	0.7318	-0.007
Mof_C 	C 	0.1061	0.061	0.753	-0.213
Mof_C 	C 	0.1079	0.128	0.7861	0.116
Mof_H 	H 	0.0995	0.2212	0.7873	0.007
Mof_C 	C 	0.1211	0.066	0.8164	-0.192
Mof_H 	H 	0.1205	0.1144	0.8384	0.109
Mof_C 	C 	0.0941	0.136	0.7192	0.481
Mof_C 	C 	0.2866	0.6986	0.8676	0.076
Mof_C 	C 	0.311	0.7072	0.8994	0.01
Mof_C 	C 	0.3471	0.789	0.8971	-0.035
Mof_H 	H 	0.3644	0.7935	0.9178	0.038
Mof_C 	C 	0.3594	0.861	0.8693	-0.089
Mof_C 	C 	0.3338	0.853	0.8375	0.176
Mof_C 	C 	0.2988	0.7805	0.8367	-0.194
Mof_H 	H 	0.2815	0.7814	0.8159	0.091
Mof_C 	C 	0.3212	0.906	0.7777	-0.1
Mof_H 	H 	0.3321	0.9592	0.7574	0.052
Mof_H 	H 	0.3206	0.809	0.7715	0.058
Mof_H 	H 	0.2926	0.9373	0.7835	0.048
Mof_C 	C 	0.3999	0.942	0.8693	0.127
Mof_C 	C 	0.436	0.893	0.8859	-0.171
Mof_H 	H 	0.4348	0.8075	0.8982	0.082
Mof_C 	C 	0.4736	0.964	0.8852	0.086
Mof_H 	H 	0.4973	0.9291	0.8979	-0.006
Mof_C 	C 	0.4777	0.091	0.8653	-0.192
Mof_C 	C 	0.4423	0.137	0.8506	0.118
Mof_H 	H 	0.4431	0.2231	0.8388	0.007
Mof_C 	C 	0.4042	0.068	0.8512	-0.178
Mof_H 	H 	0.3805	0.1054	0.8392	0.106
Mof_C 	C 	0.521	0.153	0.8632	0.442
Mof_O 	O 	0.1622	0.985	0.6689	-0.467
Mof_C 	C 	0.2008	0.977	0.6658	0.262
Mof_C 	C 	0.215	0.947	0.6281	-0.429
Mof_H 	H 	0.2456	0.9416	0.6273	0.128
Mof_H 	H 	0.2026	0.8598	0.6203	0.203
Mof_H 	H 	0.205	0.0204	0.6122	0.196
Mof_N 	N 	0.2291	0.991	0.6909	-0.108
Mof_C 	C 	0.216	0.016	0.7281	-0.27
Mof_H 	H 	0.2418	0.0237	0.7431	0.096
Mof_H 	H 	0.2004	0.1016	0.7294	0.112
Mof_H 	H 	0.199	0.9402	0.7366	0.116
Mof_C 	C 	0.2744	0.976	0.6842	-0.187
Mof_H 	H 	0.29	0.9902	0.7066	0.072
Mof_H 	H 	0.2802	0.8838	0.6751	0.075
Mof_H 	H 	0.2835	0.0438	0.6664	0.034
Mof_C 	C 	0.1834	0.897	0.6538	0.182
Mof_C 	C 	0.203	0.95	0.62	-0.355
Mof_H 	H 	0.22	0.8771	0.6088	0.089
Mof_H 	H 	0.1813	0.9805	0.6034	0.041
Mof_H 	H 	0.2219	0.0273	0.6258	0.149
Mof_N 	N 	0.1905	0.769	0.6616	-0.103
Mof_C 	C 	0.172	0.699	0.692	-0.215
Mof_H 	H 	0.1814	0.6037	0.6928	0.083
Mof_H 	H 	0.1801	0.7451	0.7145	0.089
Mof_H 	H 	0.1408	0.7007	0.6901	0.071
Mof_C 	C 	0.224	0.691	0.643	-0.298
Mof_H 	H 	0.2242	0.5974	0.6529	0.104
Mof_H 	H 	0.2181	0.6887	0.6177	0.096
Mof_H 	H 	0.2512	0.7347	0.6478	0.106
Mof_C 	C 	0.2007	0.3682	0.4338	-0.192
Mof_H 	H 	0.2171	0.4507	0.4272	0.083
Mof_H 	H 	0.1742	0.3998	0.4453	0.084
Mof_Zn	Zn	0.43133	0.6467	0.1782	1.189
Mof_O 	O 	0.2021	0.0393	0.5341	-0.217
Mof_C 	C 	0.298	0.3714	0.4387	-0.196
Mof_H 	H 	0.282	0.4521	0.4301	0.085
Mof_H 	H 	0.3228	0.4052	0.4523	0.084
Mof_Zn	Zn	0.39185	0.9444	0.14326	1.213
Mof_O 	O 	0.3607	0.7166	0.6259	-0.541
Mof_C 	C 	0.254	0.3821	0.3653	-0.191
Mof_H 	H 	0.2559	0.4228	0.3411	0.084
Mof_H 	H 	0.2524	0.4585	0.3827	0.083
Mof_O 	O 	0.3913	0.9126	0.6409	-0.52
Mof_O 	O 	0.4017	0.0583	0.3846	-0.198
Mof_O 	O 	0.4092	0.7436	0.2204	-0.56
Mof_O 	O 	0.4124	0.9426	0.1928	-0.53
Mof_O 	O 	0.1522	0.0739	0.3078	-0.209
Mof_O 	O 	0.9807	0.7387	0.3422	-0.504
Mof_O 	O 	0.9477	0.8936	0.3763	-0.545
Mof_C 	C 	0.2256	0.2891	0.4611	0.079
Mof_C 	C 	0.2702	0.2907	0.4638	0.016
Mof_C 	C 	0.2888	0.212	0.4898	-0.042
Mof_H 	H 	0.3188	0.2146	0.4912	0.041
Mof_C 	C 	0.2681	0.1294	0.5141	-0.087
Mof_C 	C 	0.2241	0.1211	0.5102	0.165
Mof_C 	C 	0.2045	0.1972	0.4835	-0.183
Mof_H 	H 	0.1749	0.1861	0.4803	0.09
Mof_C 	C 	0.1561	0.036	0.5332	-0.11
Mof_H 	H 	0.1457	0.9735	0.5517	0.039
Mof_H 	H 	0.1451	0.1282	0.5377	0.056
Mof_H 	H 	0.1466	0.0044	0.5096	0.053
Mof_C 	C 	0.2905	0.055	0.5441	0.117
Mof_C 	C 	0.3232	0.12	0.5627	-0.184
Mof_H 	H 	0.3302	0.2119	0.5573	0.078
Mof_C 	C 	0.3457	0.051	0.5892	0.094
Mof_H 	H 	0.3662	0.0989	0.6028	-0.009
Mof_C 	C 	0.3388	0.916	0.5958	-0.19
Mof_C 	C 	0.3078	0.848	0.5771	0.081
Mof_H 	H 	0.3034	0.7533	0.581	0.002
Mof_C 	C 	0.2821	0.919	0.5517	-0.168
Mof_H 	H 	0.2595	0.8734	0.5401	0.099
Mof_C 	C 	0.3662	0.837	0.6215	0.447
Mof_C 	C 	0.3133	0.2916	0.4067	0.082
Mof_C 	C 	0.2941	0.3033	0.3724	0.01
Mof_C 	C 	0.3106	0.2217	0.3442	-0.038
Mof_H 	H 	0.2956	0.2194	0.3222	0.037
Mof_C 	C 	0.3461	0.1473	0.347	-0.086
Mof_C 	C 	0.3646	0.1331	0.3827	0.164
Mof_C 	C 	0.349	0.2096	0.4107	-0.185
Mof_H 	H 	0.3629	0.2064	0.4332	0.091
Mof_C 	C 	0.425	0.063	0.4188	-0.138
Mof_H 	H 	0.4505	0.0071	0.417	0.068
Mof_H 	H 	0.433	0.1582	0.4241	0.07
Mof_H 	H 	0.407	0.0283	0.4381	0.064
Mof_C 	C 	0.3642	0.071	0.3158	0.142
Mof_C 	C 	0.3658	0.14	0.2845	-0.197
Mof_H 	H 	0.3565	0.2326	0.283	0.089
Mof_C 	C 	0.3821	0.07	0.2535	0.117
Mof_H 	H 	0.3846	0.12	0.2318	-0.007
Mof_C 	C 	0.3939	0.939	0.253	-0.212
Mof_C 	C 	0.3921	0.872	0.2861	0.116
Mof_H 	H 	0.4005	0.7788	0.2873	0.007
Mof_C 	C 	0.3789	0.934	0.3164	-0.192
Mof_H 	H 	0.3795	0.8856	0.3384	0.109
Mof_C 	C 	0.4059	0.864	0.2192	0.481
Mof_C 	C 	0.2134	0.3014	0.3676	0.076
Mof_C 	C 	0.189	0.2928	0.3994	0.01
Mof_C 	C 	0.1529	0.211	0.3971	-0.035
Mof_H 	H 	0.1356	0.2065	0.4178	0.038
Mof_C 	C 	0.1406	0.139	0.3693	-0.088
Mof_C 	C 	0.1662	0.147	0.3375	0.176
Mof_C 	C 	0.2012	0.2195	0.3367	-0.194
Mof_H 	H 	0.2185	0.2186	0.3159	0.091
Mof_C 	C 	0.1788	0.094	0.2777	-0.1
Mof_H 	H 	0.1679	0.0408	0.2574	0.052
Mof_H 	H 	0.1794	0.191	0.2715	0.057
Mof_H 	H 	0.2074	0.0627	0.2835	0.048
Mof_C 	C 	0.1001	0.058	0.3693	0.127
Mof_C 	C 	0.064	0.107	0.3859	-0.17
Mof_H 	H 	0.0652	0.1925	0.3982	0.081
Mof_C 	C 	0.0264	0.036	0.3852	0.085
Mof_H 	H 	0.0027	0.0709	0.3979	-0.006
Mof_C 	C 	0.0223	0.909	0.3653	-0.191
Mof_C 	C 	0.0577	0.863	0.3506	0.118
Mof_H 	H 	0.0569	0.7769	0.3388	0.007
Mof_C 	C 	0.0958	0.932	0.3512	-0.177
Mof_H 	H 	0.1195	0.8946	0.3392	0.106
Mof_C 	C 	0.979	0.847	0.3632	0.442
Mof_O 	O 	0.3378	0.015	0.1689	-0.467
Mof_C 	C 	0.2992	0.023	0.1658	0.262
Mof_C 	C 	0.285	0.053	0.1281	-0.429
Mof_H 	H 	0.2544	0.0584	0.1273	0.128
Mof_H 	H 	0.2974	0.1402	0.1203	0.203
Mof_H 	H 	0.295	0.9796	0.1122	0.196
Mof_N 	N 	0.2709	0.009	0.1909	-0.108
Mof_C 	C 	0.284	0.984	0.2281	-0.269
Mof_H 	H 	0.2582	0.9763	0.2431	0.096
Mof_H 	H 	0.2996	0.8984	0.2294	0.112
Mof_H 	H 	0.301	0.0598	0.2366	0.116
Mof_C 	C 	0.2256	0.024	0.1842	-0.187
Mof_H 	H 	0.21	0.0098	0.2066	0.072
Mof_H 	H 	0.2198	0.1162	0.1751	0.075
Mof_H 	H 	0.2165	0.9562	0.1664	0.034
Mof_C 	C 	0.3166	0.103	0.1538	0.182
Mof_C 	C 	0.297	0.05	0.12	-0.355
Mof_H 	H 	0.28	0.1229	0.1088	0.089
Mof_H 	H 	0.3187	0.0195	0.1034	0.041
Mof_H 	H 	0.2781	0.9727	0.1258	0.149
Mof_N 	N 	0.3095	0.231	0.1616	-0.103
Mof_C 	C 	0.328	0.301	0.192	-0.215
Mof_H 	H 	0.3186	0.3963	0.1928	0.083
Mof_H 	H 	0.3199	0.2549	0.2145	0.089
Mof_H 	H 	0.3592	0.2993	0.1901	0.071
Mof_C 	C 	0.276	0.309	0.143	-0.298
Mof_H 	H 	0.2758	0.4026	0.1529	0.104
Mof_H 	H 	0.2819	0.3113	0.1177	0.096
Mof_H 	H 	0.2488	0.2653	0.1478	0.106
Mof_C 	C 	0.2993	0.8682	0.4338	-0.193
Mof_H 	H 	0.2829	0.9507	0.4272	0.083
Mof_H 	H 	0.3258	0.8998	0.4453	0.084
Mof_Zn	Zn	0.06867	0.1467	0.1782	1.189
Mof_O 	O 	0.2979	0.5393	0.5341	-0.218
Mof_C 	C 	0.202	0.8714	0.4387	-0.195
Mof_H 	H 	0.218	0.9521	0.4301	0.084
Mof_H 	H 	0.1772	0.9052	0.4523	0.084
Mof_Zn	Zn	0.10815	0.4444	0.14326	1.214
Mof_O 	O 	0.1393	0.2166	0.6259	-0.543
Mof_C 	C 	0.246	0.8821	0.3653	-0.191
Mof_H 	H 	0.2441	0.9228	0.3411	0.083
Mof_H 	H 	0.2476	0.9585	0.3827	0.082
Mof_O 	O 	0.1087	0.4126	0.6409	-0.522
Mof_O 	O 	0.0983	0.5583	0.3846	-0.198
Mof_O 	O 	0.0908	0.2436	0.2204	-0.558
Mof_O 	O 	0.0876	0.4426	0.1928	-0.528
Mof_O 	O 	0.3478	0.5739	0.3078	-0.21
Mof_O 	O 	0.5193	0.2387	0.3422	-0.503
Mof_O 	O 	0.5523	0.3936	0.3763	-0.544
Mof_C 	C 	0.2744	0.7891	0.4611	0.08
Mof_C 	C 	0.2298	0.7907	0.4638	0.015
Mof_C 	C 	0.2112	0.712	0.4898	-0.04
Mof_H 	H 	0.1812	0.7146	0.4912	0.04
Mof_C 	C 	0.2319	0.6294	0.5141	-0.09
Mof_C 	C 	0.2759	0.6211	0.5102	0.167
Mof_C 	C 	0.2955	0.6972	0.4835	-0.184
Mof_H 	H 	0.3251	0.6861	0.4803	0.091
Mof_C 	C 	0.3439	0.536	0.5332	-0.104
Mof_H 	H 	0.3543	0.4735	0.5517	0.036
Mof_H 	H 	0.3549	0.6282	0.5377	0.054
Mof_H 	H 	0.3534	0.5044	0.5096	0.052
Mof_C 	C 	0.2095	0.555	0.5441	0.123
Mof_C 	C 	0.1768	0.62	0.5627	-0.189
Mof_H 	H 	0.1698	0.7119	0.5573	0.08
Mof_C 	C 	0.1543	0.551	0.5892	0.102
Mof_H 	H 	0.1338	0.5989	0.6028	-0.011
Mof_C 	C 	0.1612	0.416	0.5958	-0.197
Mof_C 	C 	0.1922	0.348	0.5771	0.086
Mof_H 	H 	0.1966	0.2533	0.581	0
Mof_C 	C 	0.2179	0.419	0.5517	-0.175
Mof_H 	H 	0.2405	0.3734	0.5401	0.101
Mof_C 	C 	0.1338	0.337	0.6215	0.449
Mof_C 	C 	0.1867	0.7916	0.4067	0.082
Mof_C 	C 	0.2059	0.8033	0.3724	0.011
Mof_C 	C 	0.1894	0.7217	0.3442	-0.04
Mof_H 	H 	0.2044	0.7194	0.3222	0.038
Mof_C 	C 	0.1539	0.6473	0.347	-0.083
Mof_C 	C 	0.1354	0.6331	0.3827	0.163
Mof_C 	C 	0.151	0.7096	0.4107	-0.184
Mof_H 	H 	0.1371	0.7064	0.4332	0.09
Mof_C 	C 	0.075	0.563	0.4188	-0.138
Mof_H 	H 	0.0495	0.5071	0.417	0.068
Mof_H 	H 	0.067	0.6582	0.4241	0.07
Mof_H 	H 	0.093	0.5283	0.4381	0.064
Mof_C 	C 	0.1358	0.571	0.3158	0.133
Mof_C 	C 	0.1342	0.64	0.2845	-0.188
Mof_H 	H 	0.1435	0.7326	0.283	0.086
Mof_C 	C 	0.1179	0.57	0.2535	0.105
Mof_H 	H 	0.1154	0.62	0.2318	-0.004
Mof_C 	C 	0.1061	0.439	0.253	-0.201
Mof_C 	C 	0.1079	0.372	0.2861	0.107
Mof_H 	H 	0.0995	0.2788	0.2873	0.01
Mof_C 	C 	0.1211	0.434	0.3164	-0.181
Mof_H 	H 	0.1205	0.3856	0.3384	0.106
Mof_C 	C 	0.0941	0.364	0.2192	0.478
Mof_C 	C 	0.2866	0.8014	0.3676	0.075
Mof_C 	C 	0.311	0.7928	0.3994	0.01
Mof_C 	C 	0.3471	0.711	0.3971	-0.037
Mof_H 	H 	0.3644	0.7065	0.4178	0.039
Mof_C 	C 	0.3594	0.639	0.3693	-0.086
Mof_C 	C 	0.3338	0.647	0.3375	0.175
Mof_C 	C 	0.2988	0.7195	0.3367	-0.193
Mof_H 	H 	0.2815	0.7186	0.3159	0.091
Mof_C 	C 	0.3212	0.594	0.2777	-0.098
Mof_H 	H 	0.3321	0.5408	0.2574	0.05
Mof_H 	H 	0.3206	0.691	0.2715	0.057
Mof_H 	H 	0.2926	0.5627	0.2835	0.047
Mof_C 	C 	0.3999	0.558	0.3693	0.121
Mof_C 	C 	0.436	0.607	0.3859	-0.166
Mof_H 	H 	0.4348	0.6925	0.3982	0.079
Mof_C 	C 	0.4736	0.536	0.3852	0.079
Mof_H 	H 	0.4973	0.5709	0.3979	-0.005
Mof_C 	C 	0.4777	0.409	0.3653	-0.185
Mof_C 	C 	0.4423	0.363	0.3506	0.113
Mof_H 	H 	0.4431	0.2769	0.3388	0.009
Mof_C 	C 	0.4042	0.432	0.3512	-0.17
Mof_H 	H 	0.3805	0.3946	0.3392	0.104
Mof_C 	C 	0.521	0.347	0.3632	0.44
Mof_O 	O 	0.1622	0.515	0.1689	-0.47
Mof_C 	C 	0.2008	0.523	0.1658	0.262
Mof_C 	C 	0.215	0.553	0.1281	-0.439
Mof_H 	H 	0.2456	0.5584	0.1273	0.129
Mof_H 	H 	0.2026	0.6402	0.1203	0.208
Mof_H 	H 	0.205	0.4796	0.1122	0.202
Mof_N 	N 	0.2291	0.509	0.1909	-0.109
Mof_C 	C 	0.216	0.484	0.2281	-0.254
Mof_H 	H 	0.2418	0.4763	0.2431	0.093
Mof_H 	H 	0.2004	0.3984	0.2294	0.109
Mof_H 	H 	0.199	0.5598	0.2366	0.11
Mof_C 	C 	0.2744	0.524	0.1842	-0.201
Mof_H 	H 	0.29	0.5098	0.2066	0.074
Mof_H 	H 	0.2802	0.6162	0.1751	0.079
Mof_H 	H 	0.2835	0.4562	0.1664	0.043
Mof_C 	C 	0.1834	0.603	0.1538	0.186
Mof_C 	C 	0.203	0.55	0.12	-0.362
Mof_H 	H 	0.22	0.6229	0.1088	0.09
Mof_H 	H 	0.1813	0.5195	0.1034	0.04
Mof_H 	H 	0.2219	0.4727	0.1258	0.154
Mof_N 	N 	0.1905	0.731	0.1616	-0.103
Mof_C 	C 	0.172	0.801	0.192	-0.214
Mof_H 	H 	0.1814	0.8963	0.1928	0.082
Mof_H 	H 	0.1801	0.7549	0.2145	0.088
Mof_H 	H 	0.1408	0.7993	0.1901	0.069
Mof_C 	C 	0.224	0.809	0.143	-0.304
Mof_H 	H 	0.2242	0.9026	0.1529	0.109
Mof_H 	H 	0.2181	0.8113	0.1177	0.098
Mof_H 	H 	0.2512	0.7653	0.1478	0.108
Mof_C 	C 	0.2007	0.1318	0.9338	-0.193
Mof_H 	H 	0.2171	0.0493	0.9272	0.083
Mof_H 	H 	0.1742	0.1002	0.9453	0.084
Mof_Zn	Zn	0.43133	0.8533	0.6782	1.189
Mof_O 	O 	0.2021	0.4607	0.0341	-0.218
Mof_C 	C 	0.298	0.1286	0.9387	-0.195
Mof_H 	H 	0.282	0.0479	0.9301	0.084
Mof_H 	H 	0.3228	0.0948	0.9523	0.084
Mof_Zn	Zn	0.39185	0.5556	0.64326	1.214
Mof_O 	O 	0.3607	0.7834	0.1259	-0.543
Mof_C 	C 	0.254	0.1179	0.8653	-0.191
Mof_H 	H 	0.2559	0.0772	0.8411	0.083
Mof_H 	H 	0.2524	0.0415	0.8827	0.082
Mof_O 	O 	0.3913	0.5874	0.1409	-0.522
Mof_O 	O 	0.4017	0.4417	0.8846	-0.198
Mof_O 	O 	0.4092	0.7564	0.7204	-0.558
Mof_O 	O 	0.4124	0.5574	0.6928	-0.528
Mof_O 	O 	0.1522	0.4261	0.8078	-0.21
Mof_O 	O 	0.9807	0.7613	0.8422	-0.504
Mof_O 	O 	0.9477	0.6064	0.8763	-0.544
Mof_C 	C 	0.2256	0.2109	0.9611	0.08
Mof_C 	C 	0.2702	0.2093	0.9638	0.015
Mof_C 	C 	0.2888	0.288	0.9898	-0.04
Mof_H 	H 	0.3188	0.2854	0.9912	0.04
Mof_C 	C 	0.2681	0.3706	0.0141	-0.09
Mof_C 	C 	0.2241	0.3789	0.0102	0.167
Mof_C 	C 	0.2045	0.3028	0.9835	-0.184
Mof_H 	H 	0.1749	0.3139	0.9803	0.091
Mof_C 	C 	0.1561	0.464	0.0332	-0.104
Mof_H 	H 	0.1457	0.5265	0.0517	0.036
Mof_H 	H 	0.1451	0.3718	0.0377	0.054
Mof_H 	H 	0.1466	0.4956	0.0096	0.052
Mof_C 	C 	0.2905	0.445	0.0441	0.123
Mof_C 	C 	0.3232	0.38	0.0627	-0.189
Mof_H 	H 	0.3302	0.2881	0.0573	0.08
Mof_C 	C 	0.3457	0.449	0.0892	0.102
Mof_H 	H 	0.3662	0.4011	0.1028	-0.011
Mof_C 	C 	0.3388	0.584	0.0958	-0.197
Mof_C 	C 	0.3078	0.652	0.0771	0.086
Mof_H 	H 	0.3034	0.7467	0.081	0
Mof_C 	C 	0.2821	0.581	0.0517	-0.175
Mof_H 	H 	0.2595	0.6266	0.0401	0.101
Mof_C 	C 	0.3662	0.663	0.1215	0.449
Mof_C 	C 	0.3133	0.2084	0.9067	0.082
Mof_C 	C 	0.2941	0.1967	0.8724	0.011
Mof_C 	C 	0.3106	0.2783	0.8442	-0.04
Mof_H 	H 	0.2956	0.2806	0.8222	0.038
Mof_C 	C 	0.3461	0.3527	0.847	-0.083
Mof_C 	C 	0.3646	0.3669	0.8827	0.163
Mof_C 	C 	0.349	0.2904	0.9107	-0.184
Mof_H 	H 	0.3629	0.2936	0.9332	0.09
Mof_C 	C 	0.425	0.437	0.9188	-0.138
Mof_H 	H 	0.4505	0.4929	0.917	0.068
Mof_H 	H 	0.433	0.3418	0.9241	0.07
Mof_H 	H 	0.407	0.4717	0.9381	0.064
Mof_C 	C 	0.3642	0.429	0.8158	0.133
Mof_C 	C 	0.3658	0.36	0.7845	-0.188
Mof_H 	H 	0.3565	0.2674	0.783	0.086
Mof_C 	C 	0.3821	0.43	0.7535	0.105
Mof_H 	H 	0.3846	0.38	0.7318	-0.004
Mof_C 	C 	0.3939	0.561	0.753	-0.201
Mof_C 	C 	0.3921	0.628	0.7861	0.107
Mof_H 	H 	0.4005	0.7212	0.7873	0.01
Mof_C 	C 	0.3789	0.566	0.8164	-0.181
Mof_H 	H 	0.3795	0.6144	0.8384	0.106
Mof_C 	C 	0.4059	0.636	0.7192	0.478
Mof_C 	C 	0.2134	0.1986	0.8676	0.075
Mof_C 	C 	0.189	0.2072	0.8994	0.01
Mof_C 	C 	0.1529	0.289	0.8971	-0.037
Mof_H 	H 	0.1356	0.2935	0.9178	0.039
Mof_C 	C 	0.1406	0.361	0.8693	-0.086
Mof_C 	C 	0.1662	0.353	0.8375	0.175
Mof_C 	C 	0.2012	0.2805	0.8367	-0.193
Mof_H 	H 	0.2185	0.2814	0.8159	0.091
Mof_C 	C 	0.1788	0.406	0.7777	-0.098
Mof_H 	H 	0.1679	0.4592	0.7574	0.05
Mof_H 	H 	0.1794	0.309	0.7715	0.056
Mof_H 	H 	0.2074	0.4373	0.7835	0.047
Mof_C 	C 	0.1001	0.442	0.8693	0.121
Mof_C 	C 	0.064	0.393	0.8859	-0.166
Mof_H 	H 	0.0652	0.3075	0.8982	0.079
Mof_C 	C 	0.0264	0.464	0.8852	0.079
Mof_H 	H 	0.0027	0.4291	0.8979	-0.005
Mof_C 	C 	0.0223	0.591	0.8653	-0.185
Mof_C 	C 	0.0577	0.637	0.8506	0.112
Mof_H 	H 	0.0569	0.7231	0.8388	0.01
Mof_C 	C 	0.0958	0.568	0.8512	-0.17
Mof_H 	H 	0.1195	0.6054	0.8392	0.104
Mof_C 	C 	0.979	0.653	0.8632	0.44
Mof_O 	O 	0.3378	0.485	0.6689	-0.47
Mof_C 	C 	0.2992	0.477	0.6658	0.262
Mof_C 	C 	0.285	0.447	0.6281	-0.439
Mof_H 	H 	0.2544	0.4416	0.6273	0.129
Mof_H 	H 	0.2974	0.3598	0.6203	0.208
Mof_H 	H 	0.295	0.5204	0.6122	0.202
Mof_N 	N 	0.2709	0.491	0.6909	-0.109
Mof_C 	C 	0.284	0.516	0.7281	-0.254
Mof_H 	H 	0.2582	0.5237	0.7431	0.093
Mof_H 	H 	0.2996	0.6016	0.7294	0.109
Mof_H 	H 	0.301	0.4402	0.7366	0.11
Mof_C 	C 	0.2256	0.476	0.6842	-0.201
Mof_H 	H 	0.21	0.4902	0.7066	0.074
Mof_H 	H 	0.2198	0.3838	0.6751	0.079
Mof_H 	H 	0.2165	0.5438	0.6664	0.043
Mof_C 	C 	0.3166	0.397	0.6538	0.186
Mof_C 	C 	0.297	0.45	0.62	-0.362
Mof_H 	H 	0.28	0.3771	0.6088	0.09
Mof_H 	H 	0.3187	0.4805	0.6034	0.04
Mof_H 	H 	0.2781	0.5273	0.6258	0.154
Mof_N 	N 	0.3095	0.269	0.6616	-0.103
Mof_C 	C 	0.328	0.199	0.692	-0.214
Mof_H 	H 	0.3186	0.1037	0.6928	0.082
Mof_H 	H 	0.3199	0.2451	0.7145	0.088
Mof_H 	H 	0.3592	0.2007	0.6901	0.069
Mof_C 	C 	0.276	0.191	0.643	-0.304
Mof_H 	H 	0.2758	0.0974	0.6529	0.109
Mof_H 	H 	0.2819	0.1887	0.6177	0.098
Mof_H 	H 	0.2488	0.2347	0.6478	0.108
Mof_C 	C 	0.7007	0.3682	0.0662	-0.192
Mof_H 	H 	0.7171	0.4507	0.0728	0.083
Mof_H 	H 	0.6742	0.3998	0.0547	0.084
Mof_Zn	Zn	0.93133	0.6467	0.3218	1.189
Mof_O 	O 	0.7021	0.0393	0.9659	-0.217
Mof_C 	C 	0.798	0.3714	0.0613	-0.196
Mof_H 	H 	0.782	0.4521	0.0699	0.085
Mof_H 	H 	0.8228	0.4052	0.0477	0.084
Mof_Zn	Zn	0.89185	0.9444	0.35674	1.213
Mof_O 	O 	0.8607	0.7166	0.8741	-0.541
Mof_C 	C 	0.754	0.3821	0.1347	-0.191
Mof_H 	H 	0.7559	0.4228	0.1589	0.084
Mof_H 	H 	0.7524	0.4585	0.1173	0.083
Mof_O 	O 	0.8913	0.9126	0.8591	-0.52
Mof_O 	O 	0.9017	0.0583	0.1154	-0.198
Mof_O 	O 	0.9092	0.7436	0.2796	-0.56
Mof_O 	O 	0.9124	0.9426	0.3072	-0.53
Mof_O 	O 	0.6522	0.0739	0.1922	-0.208
Mof_O 	O 	0.4807	0.7387	0.1578	-0.504
Mof_O 	O 	0.4477	0.8936	0.1237	-0.545
Mof_C 	C 	0.7256	0.2891	0.0389	0.079
Mof_C 	C 	0.7702	0.2907	0.0362	0.016
Mof_C 	C 	0.7888	0.212	0.0102	-0.041
Mof_H 	H 	0.8188	0.2146	0.0088	0.041
Mof_C 	C 	0.7681	0.1294	0.9859	-0.088
Mof_C 	C 	0.7241	0.1211	0.9898	0.165
Mof_C 	C 	0.7045	0.1972	0.0165	-0.183
Mof_H 	H 	0.6749	0.1861	0.0197	0.09
Mof_C 	C 	0.6561	0.036	0.9668	-0.11
Mof_H 	H 	0.6457	0.9735	0.9483	0.039
Mof_H 	H 	0.6451	0.1282	0.9623	0.056
Mof_H 	H 	0.6466	0.0044	0.9904	0.053
Mof_C 	C 	0.7905	0.055	0.9559	0.117
Mof_C 	C 	0.8232	0.12	0.9373	-0.184
Mof_H 	H 	0.8302	0.2119	0.9427	0.078
Mof_C 	C 	0.8457	0.051	0.9108	0.094
Mof_H 	H 	0.8662	0.0989	0.8972	-0.009
Mof_C 	C 	0.8388	0.916	0.9042	-0.19
Mof_C 	C 	0.8078	0.848	0.9229	0.081
Mof_H 	H 	0.8034	0.7533	0.919	0.002
Mof_C 	C 	0.7821	0.919	0.9483	-0.169
Mof_H 	H 	0.7595	0.8734	0.9599	0.099
Mof_C 	C 	0.8662	0.837	0.8785	0.447
Mof_C 	C 	0.8133	0.2916	0.0933	0.083
Mof_C 	C 	0.7941	0.3033	0.1276	0.01
Mof_C 	C 	0.8106	0.2217	0.1558	-0.038
Mof_H 	H 	0.7956	0.2194	0.1778	0.037
Mof_C 	C 	0.8461	0.1473	0.153	-0.087
Mof_C 	C 	0.8646	0.1331	0.1173	0.164
Mof_C 	C 	0.849	0.2096	0.0893	-0.185
Mof_H 	H 	0.8629	0.2064	0.0668	0.091
Mof_C 	C 	0.925	0.063	0.0812	-0.138
Mof_H 	H 	0.9505	0.0071	0.083	0.068
Mof_H 	H 	0.933	0.1582	0.0759	0.07
Mof_H 	H 	0.907	0.0283	0.0619	0.064
Mof_C 	C 	0.8642	0.071	0.1842	0.143
Mof_C 	C 	0.8658	0.14	0.2155	-0.197
Mof_H 	H 	0.8565	0.2326	0.217	0.089
Mof_C 	C 	0.8821	0.07	0.2465	0.117
Mof_H 	H 	0.8846	0.12	0.2682	-0.007
Mof_C 	C 	0.8939	0.939	0.247	-0.213
Mof_C 	C 	0.8921	0.872	0.2139	0.116
Mof_H 	H 	0.9005	0.7788	0.2127	0.007
Mof_C 	C 	0.8789	0.934	0.1836	-0.192
Mof_H 	H 	0.8795	0.8856	0.1616	0.109
Mof_C 	C 	0.9059	0.864	0.2808	0.481
Mof_C 	C 	0.7134	0.3014	0.1324	0.076
Mof_C 	C 	0.689	0.2928	0.1006	0.01
Mof_C 	C 	0.6529	0.211	0.1029	-0.035
Mof_H 	H 	0.6356	0.2065	0.0822	0.038
Mof_C 	C 	0.6406	0.139	0.1307	-0.089
Mof_C 	C 	0.6662	0.147	0.1625	0.176
Mof_C 	C 	0.7012	0.2195	0.1633	-0.194
Mof_H 	H 	0.7185	0.2186	0.1841	0.091
Mof_C 	C 	0.6788	0.094	0.2223	-0.1
Mof_H 	H 	0.6679	0.0408	0.2426	0.052
Mof_H 	H 	0.6794	0.191	0.2285	0.058
Mof_H 	H 	0.7074	0.0627	0.2165	0.048
Mof_C 	C 	0.6001	0.058	0.1307	0.127
Mof_C 	C 	0.564	0.107	0.1141	-0.171
Mof_H 	H 	0.5652	0.1925	0.1018	0.082
Mof_C 	C 	0.5264	0.036	0.1148	0.086
Mof_H 	H 	0.5027	0.0709	0.1021	-0.006
Mof_C 	C 	0.5223	0.909	0.1347	-0.192
Mof_C 	C 	0.5577	0.863	0.1494	0.118
Mof_H 	H 	0.5569	0.7769	0.1612	0.007
Mof_C 	C 	0.5958	0.932	0.1488	-0.178
Mof_H 	H 	0.6195	0.8946	0.1608	0.106
Mof_C 	C 	0.479	0.847	0.1368	0.442
Mof_O 	O 	0.8378	0.015	0.3311	-0.467
Mof_C 	C 	0.7992	0.023	0.3342	0.262
Mof_C 	C 	0.785	0.053	0.3719	-0.429
Mof_H 	H 	0.7544	0.0584	0.3727	0.128
Mof_H 	H 	0.7974	0.1402	0.3797	0.203
Mof_H 	H 	0.795	0.9796	0.3878	0.196
Mof_N 	N 	0.7709	0.009	0.3091	-0.108
Mof_C 	C 	0.784	0.984	0.2719	-0.27
Mof_H 	H 	0.7582	0.9763	0.2569	0.096
Mof_H 	H 	0.7996	0.8984	0.2706	0.112
Mof_H 	H 	0.801	0.0598	0.2634	0.116
Mof_C 	C 	0.7256	0.024	0.3158	-0.187
Mof_H 	H 	0.71	0.0098	0.2934	0.072
Mof_H 	H 	0.7198	0.1162	0.3249	0.075
Mof_H 	H 	0.7165	0.9562	0.3336	0.034
Mof_C 	C 	0.8166	0.103	0.3462	0.182
Mof_C 	C 	0.797	0.05	0.38	-0.355
Mof_H 	H 	0.78	0.1229	0.3912	0.089
Mof_H 	H 	0.8187	0.0195	0.3966	0.041
Mof_H 	H 	0.7781	0.9727	0.3742	0.149
Mof_N 	N 	0.8095	0.231	0.3384	-0.103
Mof_C 	C 	0.828	0.301	0.308	-0.215
Mof_H 	H 	0.8186	0.3963	0.3072	0.083
Mof_H 	H 	0.8199	0.2549	0.2855	0.089
Mof_H 	H 	0.8592	0.2993	0.3099	0.071
Mof_C 	C 	0.776	0.309	0.357	-0.298
Mof_H 	H 	0.7758	0.4026	0.3471	0.104
Mof_H 	H 	0.7819	0.3113	0.3823	0.096
Mof_H 	H 	0.7488	0.2653	0.3522	0.106
Mof_C 	C 	0.7993	0.6318	0.5662	-0.192
Mof_H 	H 	0.7829	0.5493	0.5728	0.083
Mof_H 	H 	0.8258	0.6002	0.5547	0.084
Mof_Zn	Zn	0.56867	0.3533	0.8218	1.189
Mof_O 	O 	0.7979	0.9607	0.4659	-0.217
Mof_C 	C 	0.702	0.6286	0.5613	-0.196
Mof_H 	H 	0.718	0.5479	0.5699	0.085
Mof_H 	H 	0.6772	0.5948	0.5477	0.084
Mof_Zn	Zn	0.60815	0.0556	0.85674	1.213
Mof_O 	O 	0.6393	0.2834	0.3741	-0.541
Mof_C 	C 	0.746	0.6179	0.6347	-0.191
Mof_H 	H 	0.7441	0.5772	0.6589	0.084
Mof_H 	H 	0.7476	0.5415	0.6173	0.083
Mof_O 	O 	0.6087	0.0874	0.3591	-0.52
Mof_O 	O 	0.5983	0.9417	0.6154	-0.198
Mof_O 	O 	0.5908	0.2564	0.7796	-0.56
Mof_O 	O 	0.5876	0.0574	0.8072	-0.53
Mof_O 	O 	0.8478	0.9261	0.6922	-0.209
Mof_O 	O 	0.0193	0.2613	0.6578	-0.504
Mof_O 	O 	0.0523	0.1064	0.6237	-0.545
Mof_C 	C 	0.7744	0.7109	0.5389	0.079
Mof_C 	C 	0.7298	0.7093	0.5362	0.016
Mof_C 	C 	0.7112	0.788	0.5102	-0.042
Mof_H 	H 	0.6812	0.7854	0.5088	0.041
Mof_C 	C 	0.7319	0.8706	0.4859	-0.087
Mof_C 	C 	0.7759	0.8789	0.4898	0.165
Mof_C 	C 	0.7955	0.8028	0.5165	-0.183
Mof_H 	H 	0.8251	0.8139	0.5197	0.09
Mof_C 	C 	0.8439	0.964	0.4668	-0.11
Mof_H 	H 	0.8543	0.0265	0.4483	0.039
Mof_H 	H 	0.8549	0.8718	0.4623	0.056
Mof_H 	H 	0.8534	0.9956	0.4904	0.053
Mof_C 	C 	0.7095	0.945	0.4559	0.117
Mof_C 	C 	0.6768	0.88	0.4373	-0.184
Mof_H 	H 	0.6698	0.7881	0.4427	0.078
Mof_C 	C 	0.6543	0.949	0.4108	0.094
Mof_H 	H 	0.6338	0.9011	0.3972	-0.009
Mof_C 	C 	0.6612	0.084	0.4042	-0.19
Mof_C 	C 	0.6922	0.152	0.4229	0.081
Mof_H 	H 	0.6966	0.2467	0.419	0.002
Mof_C 	C 	0.7179	0.081	0.4483	-0.168
Mof_H 	H 	0.7405	0.1266	0.4599	0.099
Mof_C 	C 	0.6338	0.163	0.3785	0.447
Mof_C 	C 	0.6867	0.7084	0.5933	0.082
Mof_C 	C 	0.7059	0.6967	0.6276	0.01
Mof_C 	C 	0.6894	0.7783	0.6558	-0.038
Mof_H 	H 	0.7044	0.7806	0.6778	0.037
Mof_C 	C 	0.6539	0.8527	0.653	-0.086
Mof_C 	C 	0.6354	0.8669	0.6173	0.164
Mof_C 	C 	0.651	0.7904	0.5893	-0.185
Mof_H 	H 	0.6371	0.7936	0.5668	0.091
Mof_C 	C 	0.575	0.937	0.5812	-0.138
Mof_H 	H 	0.5495	0.9929	0.583	0.068
Mof_H 	H 	0.567	0.8418	0.5759	0.07
Mof_H 	H 	0.593	0.9717	0.5619	0.064
Mof_C 	C 	0.6358	0.929	0.6842	0.142
Mof_C 	C 	0.6342	0.86	0.7155	-0.197
Mof_H 	H 	0.6435	0.7674	0.717	0.089
Mof_C 	C 	0.6179	0.93	0.7465	0.117
Mof_H 	H 	0.6154	0.88	0.7682	-0.007
Mof_C 	C 	0.6061	0.061	0.747	-0.212
Mof_C 	C 	0.6079	0.128	0.7139	0.116
Mof_H 	H 	0.5995	0.2212	0.7127	0.007
Mof_C 	C 	0.6211	0.066	0.6836	-0.192
Mof_H 	H 	0.6205	0.1144	0.6616	0.109
Mof_C 	C 	0.5941	0.136	0.7808	0.481
Mof_C 	C 	0.7866	0.6986	0.6324	0.076
Mof_C 	C 	0.811	0.7072	0.6006	0.01
Mof_C 	C 	0.8471	0.789	0.6029	-0.035
Mof_H 	H 	0.8644	0.7935	0.5822	0.038
Mof_C 	C 	0.8594	0.861	0.6307	-0.088
Mof_C 	C 	0.8338	0.853	0.6625	0.176
Mof_C 	C 	0.7988	0.7805	0.6633	-0.194
Mof_H 	H 	0.7815	0.7814	0.6841	0.091
Mof_C 	C 	0.8212	0.906	0.7223	-0.1
Mof_H 	H 	0.8321	0.9592	0.7426	0.052
Mof_H 	H 	0.8206	0.809	0.7285	0.057
Mof_H 	H 	0.7926	0.9373	0.7165	0.048
Mof_C 	C 	0.8999	0.942	0.6307	0.127
Mof_C 	C 	0.936	0.893	0.6141	-0.17
Mof_H 	H 	0.9348	0.8075	0.6018	0.081
Mof_C 	C 	0.9736	0.964	0.6148	0.085
Mof_H 	H 	0.9973	0.9291	0.6021	-0.006
Mof_C 	C 	0.9777	0.091	0.6347	-0.191
Mof_C 	C 	0.9423	0.137	0.6494	0.118
Mof_H 	H 	0.9431	0.2231	0.6612	0.007
Mof_C 	C 	0.9042	0.068	0.6488	-0.177
Mof_H 	H 	0.8805	0.1054	0.6608	0.106
Mof_C 	C 	0.021	0.153	0.6368	0.442
Mof_O 	O 	0.6622	0.985	0.8311	-0.467
Mof_C 	C 	0.7008	0.977	0.8342	0.262
Mof_C 	C 	0.715	0.947	0.8719	-0.429
Mof_H 	H 	0.7456	0.9416	0.8727	0.128
Mof_H 	H 	0.7026	0.8598	0.8797	0.203
Mof_H 	H 	0.705	0.0204	0.8878	0.196
Mof_N 	N 	0.7291	0.991	0.8091	-0.108
Mof_C 	C 	0.716	0.016	0.7719	-0.269
Mof_H 	H 	0.7418	0.0237	0.7569	0.096
Mof_H 	H 	0.7004	0.1016	0.7706	0.112
Mof_H 	H 	0.699	0.9402	0.7634	0.116
Mof_C 	C 	0.7744	0.976	0.8158	-0.187
Mof_H 	H 	0.79	0.9902	0.7934	0.072
Mof_H 	H 	0.7802	0.8838	0.8249	0.075
Mof_H 	H 	0.7835	0.0438	0.8336	0.034
Mof_C 	C 	0.6834	0.897	0.8462	0.182
Mof_C 	C 	0.703	0.95	0.88	-0.355
Mof_H 	H 	0.72	0.8771	0.8912	0.089
Mof_H 	H 	0.6813	0.9805	0.8966	0.041
Mof_H 	H 	0.7219	0.0273	0.8742	0.149
Mof_N 	N 	0.6905	0.769	0.8384	-0.103
Mof_C 	C 	0.672	0.699	0.808	-0.215
Mof_H 	H 	0.6814	0.6037	0.8072	0.083
Mof_H 	H 	0.6801	0.7451	0.7855	0.089
Mof_H 	H 	0.6408	0.7007	0.8099	0.071
Mof_C 	C 	0.724	0.691	0.857	-0.298
Mof_H 	H 	0.7242	0.5974	0.8471	0.104
Mof_H 	H 	0.7181	0.6887	0.8823	0.096
Mof_H 	H 	0.7512	0.7347	0.8522	0.106
_end
