data_functionalizedCrystal
_audit_creation_method	'EQeq! by Chris Wilmer'
_symmetry_space_group_name_H-M	'P1'
_symmetry_Int_Tables_number	1
_symmetry_cell_setting	triclinic
loop_
_symmetry_equiv_pos_as_xyz
  x,y,z
_cell_length_a	15.9995
_cell_length_b	18.1852
_cell_length_c	24.8199
_cell_angle_alpha	90
_cell_angle_beta	102.917
_cell_angle_gamma	90
loop_
_atom_site_label
_atom_site_type_symbol
_atom_site_fract_x
_atom_site_fract_y
_atom_site_fract_z
_atom_site_charge
Mof_Mn	Mn	0.44614	0.92938	0.52057	1.011
Mof_Mn	Mn	0.5907	0.88112	0.42317	0.981
Mof_Mn	Mn	0.53544	0.75007	0.5148	0.925
Mof_S 	S 	0.09855	0.74178	0.62098	0.263
Mof_S 	S 	0.48144	0.80093	0.8626	0.264
Mof_S 	S 	0.95446	0.00258	0.70564	0.253
Mof_O 	O 	0.46072	0.87809	0.59708	-0.407
Mof_O 	O 	0.85373	0.63772	0.96928	-0.391
Mof_O 	O 	0.53699	0.86308	0.49104	-0.562
Mof_H 	H 	0.5874	0.8775	0.5194	0.152
Mof_O 	O 	0.55362	0.00197	0.55219	-0.48
Mof_O 	O 	0.35313	0.00168	0.54883	-0.421
Mof_O 	O 	0.056	0.7085	0.86898	-0.367
Mof_O 	O 	0.70835	0.8311	0.46863	-0.373
Mof_O 	O 	0.53022	0.06763	0.62384	-0.364
Mof_O 	O 	0.33445	0.05156	0.62591	-0.322
Mof_O 	O 	0.0295	0.7882	0.93148	-0.382
Mof_O 	O 	0.67376	0.76009	0.53476	-0.384
Mof_O 	O 	0.8959	0.75413	0.99045	-0.375
Mof_O 	O 	0.53258	0.77201	0.60128	-0.385
Mof_O 	O 	0.1244	0.68238	0.59034	-0.192
Mof_O 	O 	0.1028	0.7325	0.67983	-0.2
Mof_O 	O 	0.4255	0.7411	0.86884	-0.194
Mof_O 	O 	0.4644	0.8727	0.88122	-0.197
Mof_O 	O 	0.9794	0.0721	0.73271	-0.209
Mof_O 	O 	0.9949	0.9781	0.66206	-0.202
Mof_C 	C 	0.3217	0.0005	0.59112	0.342
Mof_C 	C 	0.2645	0.9365	0.59917	-0.086
Mof_C 	C 	0.2375	0.887	0.55699	0.023
Mof_H 	H 	0.2541	0.8929	0.5237	0.036
Mof_C 	C 	0.1862	0.8288	0.56379	-0.076
Mof_H 	H 	0.1688	0.7952	0.5352	0.074
Mof_C 	C 	0.1606	0.8198	0.61233	0.012
Mof_C 	C 	0.1862	0.8688	0.6547	-0.064
Mof_H 	H 	0.1681	0.8627	0.6875	0.08
Mof_C 	C 	0.2391	0.9281	0.64905	0.018
Mof_H 	H 	0.257	0.9611	0.6779	0.053
Mof_C 	C 	0.9909	0.7623	0.5883	0.01
Mof_C 	C 	0.9685	0.7832	0.5345	-0.061
Mof_H 	H 	0.0105	0.7896	0.5145	0.069
Mof_C 	C 	0.8825	0.7951	0.5092	0.018
Mof_H 	H 	0.8673	0.8116	0.4728	0.059
Mof_C 	C 	0.8193	0.782	0.53883	-0.093
Mof_C 	C 	0.8421	0.7583	0.5919	0.02
Mof_H 	H 	0.7997	0.7474	0.6109	0.041
Mof_C 	C 	0.9287	0.7499	0.61871	-0.071
Mof_H 	H 	0.9441	0.7364	0.6558	0.075
Mof_C 	C 	0.725	0.7921	0.51121	0.375
Mof_C 	C 	0.4959	0.8217	0.62162	0.397
Mof_C 	C 	0.493	0.8168	0.68188	-0.115
Mof_C 	C 	0.4641	0.8757	0.70764	0.04
Mof_H 	H 	0.4467	0.9185	0.6878	0.041
Mof_C 	C 	0.4607	0.8717	0.76337	-0.086
Mof_H 	H 	0.4412	0.9114	0.7808	0.088
Mof_C 	C 	0.4869	0.8075	0.792	0.022
Mof_C 	C 	0.5148	0.7472	0.76686	-0.085
Mof_H 	H 	0.5311	0.7041	0.7867	0.087
Mof_C 	C 	0.5182	0.7519	0.71106	0.041
Mof_H 	H 	0.5372	0.7121	0.6936	0.039
Mof_C 	C 	0.5864	0.7737	0.8954	0.012
Mof_C 	C 	0.6481	0.8277	0.91561	-0.078
Mof_H 	H 	0.6334	0.8772	0.9127	0.08
Mof_C 	C 	0.7309	0.8063	0.93984	0.027
Mof_H 	H 	0.7724	0.8413	0.9541	0.041
Mof_C 	C 	0.7515	0.7309	0.94263	-0.104
Mof_C 	C 	0.6907	0.6785	0.92177	0.025
Mof_H 	H 	0.7056	0.629	0.9229	0.042
Mof_C 	C 	0.6062	0.7004	0.89873	-0.086
Mof_H 	H 	0.5641	0.6655	0.8858	0.084
Mof_C 	C 	0.8422	0.7064	0.96958	0.379
Mof_C 	C 	0.5776	0.0308	0.60033	0.39
Mof_C 	C 	0.671	0.0202	0.62847	-0.126
Mof_C 	C 	0.7069	0.062	0.67484	0.04
Mof_H 	H 	0.6724	0.0938	0.6896	0.036
Mof_C 	C 	0.7935	0.0566	0.69928	-0.092
Mof_H 	H 	0.8179	0.0857	0.7295	0.075
Mof_C 	C 	0.8426	0.007	0.67779	0.016
Mof_C 	C 	0.8065	0.9634	0.63259	-0.097
Mof_H 	H 	0.8402	0.9297	0.6189	0.08
Mof_C 	C 	0.7202	0.9704	0.60792	0.054
Mof_H 	H 	0.6957	0.9414	0.5776	0.012
Mof_C 	C 	0.9713	0.9334	0.75663	0.014
Mof_C 	C 	0.9604	0.9492	0.8093	-0.08
Mof_H 	H 	0.9397	0.9949	0.8171	0.071
Mof_C 	C 	0.9807	0.896	0.85	0.033
Mof_H 	H 	0.9752	0.9067	0.8857	0.034
Mof_C 	C 	0.009	0.8275	0.8384	-0.106
Mof_C 	C 	0.0168	0.812	0.78519	0.025
Mof_H 	H 	0.0353	0.7657	0.7769	0.055
Mof_C 	C 	0.997	0.8655	0.7439	-0.074
Mof_H 	H 	0.0014	0.8549	0.708	0.076
Mof_C 	C 	0.0331	0.7707	0.883	0.381
Mof_Mn	Mn	0.05386	0.42938	0.97943	1.01
Mof_Mn	Mn	0.9093	0.38112	0.07683	0.981
Mof_Mn	Mn	0.96456	0.25007	0.9852	0.924
Mof_S 	S 	0.40145	0.24178	0.87902	0.263
Mof_S 	S 	0.01856	0.30093	0.6374	0.264
Mof_S 	S 	0.54554	0.50258	0.79436	0.256
Mof_O 	O 	0.03928	0.37809	0.90292	-0.407
Mof_O 	O 	0.64627	0.13772	0.53072	-0.392
Mof_O 	O 	0.96301	0.36308	0.00896	-0.562
Mof_H 	H 	0.9126	0.3775	0.9806	0.152
Mof_O 	O 	0.94638	0.50197	0.94781	-0.479
Mof_O 	O 	0.14687	0.50168	0.95117	-0.421
Mof_O 	O 	0.444	0.2085	0.63102	-0.367
Mof_O 	O 	0.79165	0.3311	0.03137	-0.372
Mof_O 	O 	0.96978	0.56763	0.87616	-0.363
Mof_O 	O 	0.16555	0.55156	0.87409	-0.321
Mof_O 	O 	0.4705	0.2882	0.56852	-0.382
Mof_O 	O 	0.82624	0.26009	0.96524	-0.384
Mof_O 	O 	0.6041	0.25413	0.50955	-0.376
Mof_O 	O 	0.96742	0.27201	0.89872	-0.385
Mof_O 	O 	0.3756	0.18238	0.90966	-0.193
Mof_O 	O 	0.3972	0.2325	0.82017	-0.201
Mof_O 	O 	0.0745	0.2411	0.63116	-0.194
Mof_O 	O 	0.0356	0.3727	0.61878	-0.197
Mof_O 	O 	0.5206	0.5721	0.76729	-0.21
Mof_O 	O 	0.5051	0.4781	0.83794	-0.204
Mof_C 	C 	0.1783	0.5005	0.90888	0.342
Mof_C 	C 	0.2355	0.4365	0.90083	-0.086
Mof_C 	C 	0.2625	0.387	0.94301	0.023
Mof_H 	H 	0.2459	0.3929	0.9763	0.036
Mof_C 	C 	0.3138	0.3288	0.93621	-0.076
Mof_H 	H 	0.3312	0.2952	0.9648	0.074
Mof_C 	C 	0.3394	0.3198	0.88767	0.011
Mof_C 	C 	0.3138	0.3688	0.8453	-0.064
Mof_H 	H 	0.3319	0.3627	0.8125	0.08
Mof_C 	C 	0.2609	0.4281	0.85095	0.018
Mof_H 	H 	0.243	0.4611	0.8221	0.054
Mof_C 	C 	0.5091	0.2623	0.9117	0.009
Mof_C 	C 	0.5315	0.2832	0.9655	-0.062
Mof_H 	H 	0.4895	0.2896	0.9855	0.07
Mof_C 	C 	0.6175	0.2951	0.9908	0.017
Mof_H 	H 	0.6327	0.3116	0.0272	0.059
Mof_C 	C 	0.6807	0.282	0.96117	-0.093
Mof_C 	C 	0.6579	0.2583	0.9081	0.019
Mof_H 	H 	0.7003	0.2474	0.8891	0.041
Mof_C 	C 	0.5713	0.2499	0.88129	-0.071
Mof_H 	H 	0.5559	0.2364	0.8442	0.074
Mof_C 	C 	0.775	0.2921	0.98879	0.375
Mof_C 	C 	0.0041	0.3217	0.87838	0.397
Mof_C 	C 	0.007	0.3168	0.81812	-0.114
Mof_C 	C 	0.0359	0.3757	0.79236	0.04
Mof_H 	H 	0.0533	0.4185	0.8122	0.041
Mof_C 	C 	0.0393	0.3717	0.73663	-0.086
Mof_H 	H 	0.0588	0.4114	0.7192	0.088
Mof_C 	C 	0.0131	0.3075	0.708	0.023
Mof_C 	C 	0.9852	0.2472	0.73314	-0.086
Mof_H 	H 	0.9689	0.2041	0.7133	0.087
Mof_C 	C 	0.9818	0.2519	0.78894	0.041
Mof_H 	H 	0.9628	0.2121	0.8064	0.039
Mof_C 	C 	0.9136	0.2737	0.6046	0.012
Mof_C 	C 	0.8519	0.3277	0.58439	-0.078
Mof_H 	H 	0.8666	0.3772	0.5873	0.08
Mof_C 	C 	0.7691	0.3063	0.56016	0.027
Mof_H 	H 	0.7276	0.3413	0.5459	0.04
Mof_C 	C 	0.7485	0.2309	0.55737	-0.105
Mof_C 	C 	0.8093	0.1785	0.57823	0.025
Mof_H 	H 	0.7944	0.129	0.5771	0.042
Mof_C 	C 	0.8938	0.2004	0.60127	-0.086
Mof_H 	H 	0.9359	0.1655	0.6142	0.084
Mof_C 	C 	0.6578	0.2064	0.53042	0.379
Mof_C 	C 	0.9224	0.5308	0.89967	0.389
Mof_C 	C 	0.829	0.5202	0.87153	-0.125
Mof_C 	C 	0.7931	0.562	0.82516	0.04
Mof_H 	H 	0.8276	0.5938	0.8104	0.036
Mof_C 	C 	0.7065	0.5566	0.80072	-0.092
Mof_H 	H 	0.6821	0.5857	0.7705	0.075
Mof_C 	C 	0.6574	0.507	0.82221	0.017
Mof_C 	C 	0.6935	0.4634	0.86741	-0.098
Mof_H 	H 	0.6598	0.4297	0.8811	0.08
Mof_C 	C 	0.7798	0.4704	0.89208	0.053
Mof_H 	H 	0.8043	0.4414	0.9224	0.012
Mof_C 	C 	0.5287	0.4334	0.74337	0.013
Mof_C 	C 	0.5396	0.4492	0.6907	-0.079
Mof_H 	H 	0.5603	0.4949	0.6829	0.07
Mof_C 	C 	0.5193	0.396	0.65	0.032
Mof_H 	H 	0.5248	0.4067	0.6143	0.034
Mof_C 	C 	0.491	0.3275	0.6616	-0.105
Mof_C 	C 	0.4832	0.312	0.71481	0.027
Mof_H 	H 	0.4647	0.2657	0.7231	0.055
Mof_C 	C 	0.503	0.3655	0.7561	-0.077
Mof_H 	H 	0.4986	0.3549	0.792	0.078
Mof_C 	C 	0.4669	0.2707	0.617	0.381
Mof_Mn	Mn	0.55386	0.07062	0.47943	1.011
Mof_Mn	Mn	0.4093	0.11888	0.57683	0.981
Mof_Mn	Mn	0.46456	0.24993	0.4852	0.925
Mof_S 	S 	0.90145	0.25822	0.37902	0.263
Mof_S 	S 	0.51856	0.19907	0.1374	0.264
Mof_S 	S 	0.04554	0.99742	0.29436	0.253
Mof_O 	O 	0.53928	0.12191	0.40292	-0.407
Mof_O 	O 	0.14627	0.36228	0.03072	-0.391
Mof_O 	O 	0.46301	0.13692	0.50896	-0.562
Mof_H 	H 	0.4126	0.1225	0.4806	0.152
Mof_O 	O 	0.44638	0.99803	0.44781	-0.48
Mof_O 	O 	0.64687	0.99832	0.45117	-0.421
Mof_O 	O 	0.944	0.2915	0.13102	-0.367
Mof_O 	O 	0.29165	0.1689	0.53137	-0.373
Mof_O 	O 	0.46978	0.93237	0.37616	-0.364
Mof_O 	O 	0.66555	0.94844	0.37409	-0.322
Mof_O 	O 	0.9705	0.2118	0.06852	-0.382
Mof_O 	O 	0.32624	0.23991	0.46524	-0.384
Mof_O 	O 	0.1041	0.24587	0.00955	-0.375
Mof_O 	O 	0.46742	0.22799	0.39872	-0.385
Mof_O 	O 	0.8756	0.31762	0.40966	-0.192
Mof_O 	O 	0.8972	0.2675	0.32017	-0.2
Mof_O 	O 	0.5745	0.2589	0.13116	-0.194
Mof_O 	O 	0.5356	0.1273	0.11878	-0.197
Mof_O 	O 	0.0206	0.9279	0.26729	-0.209
Mof_O 	O 	0.0051	0.0219	0.33794	-0.202
Mof_C 	C 	0.6783	0.9995	0.40888	0.342
Mof_C 	C 	0.7355	0.0635	0.40083	-0.086
Mof_C 	C 	0.7625	0.113	0.44301	0.023
Mof_H 	H 	0.7459	0.1071	0.4763	0.036
Mof_C 	C 	0.8138	0.1712	0.43621	-0.076
Mof_H 	H 	0.8312	0.2048	0.4648	0.074
Mof_C 	C 	0.8394	0.1802	0.38767	0.012
Mof_C 	C 	0.8138	0.1312	0.3453	-0.064
Mof_H 	H 	0.8319	0.1373	0.3125	0.08
Mof_C 	C 	0.7609	0.0719	0.35095	0.018
Mof_H 	H 	0.743	0.0389	0.3221	0.053
Mof_C 	C 	0.0091	0.2377	0.4117	0.01
Mof_C 	C 	0.0315	0.2168	0.4655	-0.061
Mof_H 	H 	0.9895	0.2104	0.4855	0.069
Mof_C 	C 	0.1175	0.2049	0.4908	0.018
Mof_H 	H 	0.1327	0.1884	0.5272	0.059
Mof_C 	C 	0.1807	0.218	0.46117	-0.093
Mof_C 	C 	0.1579	0.2417	0.4081	0.02
Mof_H 	H 	0.2003	0.2526	0.3891	0.041
Mof_C 	C 	0.0713	0.2501	0.38129	-0.071
Mof_H 	H 	0.0559	0.2636	0.3442	0.075
Mof_C 	C 	0.275	0.2079	0.48879	0.375
Mof_C 	C 	0.5041	0.1783	0.37838	0.397
Mof_C 	C 	0.507	0.1832	0.31812	-0.115
Mof_C 	C 	0.5359	0.1243	0.29236	0.04
Mof_H 	H 	0.5533	0.0815	0.3122	0.041
Mof_C 	C 	0.5393	0.1283	0.23663	-0.086
Mof_H 	H 	0.5588	0.0886	0.2192	0.088
Mof_C 	C 	0.5131	0.1925	0.208	0.022
Mof_C 	C 	0.4852	0.2528	0.23314	-0.085
Mof_H 	H 	0.4689	0.2959	0.2133	0.087
Mof_C 	C 	0.4818	0.2481	0.28894	0.041
Mof_H 	H 	0.4628	0.2879	0.3064	0.039
Mof_C 	C 	0.4136	0.2263	0.1046	0.012
Mof_C 	C 	0.3519	0.1723	0.08439	-0.078
Mof_H 	H 	0.3666	0.1228	0.0873	0.08
Mof_C 	C 	0.2691	0.1937	0.06016	0.027
Mof_H 	H 	0.2276	0.1587	0.0459	0.041
Mof_C 	C 	0.2485	0.2691	0.05737	-0.104
Mof_C 	C 	0.3093	0.3215	0.07823	0.025
Mof_H 	H 	0.2944	0.371	0.0771	0.042
Mof_C 	C 	0.3938	0.2996	0.10127	-0.086
Mof_H 	H 	0.4359	0.3345	0.1142	0.084
Mof_C 	C 	0.1578	0.2936	0.03042	0.379
Mof_C 	C 	0.4224	0.9692	0.39967	0.39
Mof_C 	C 	0.329	0.9798	0.37153	-0.126
Mof_C 	C 	0.2931	0.938	0.32516	0.04
Mof_H 	H 	0.3276	0.9062	0.3104	0.036
Mof_C 	C 	0.2065	0.9434	0.30072	-0.092
Mof_H 	H 	0.1821	0.9143	0.2705	0.075
Mof_C 	C 	0.1574	0.993	0.32221	0.016
Mof_C 	C 	0.1935	0.0366	0.36741	-0.097
Mof_H 	H 	0.1598	0.0703	0.3811	0.08
Mof_C 	C 	0.2798	0.0296	0.39208	0.054
Mof_H 	H 	0.3043	0.0586	0.4224	0.012
Mof_C 	C 	0.0287	0.0666	0.24337	0.014
Mof_C 	C 	0.0396	0.0508	0.1907	-0.08
Mof_H 	H 	0.0603	0.0051	0.1829	0.071
Mof_C 	C 	0.0193	0.104	0.15	0.033
Mof_H 	H 	0.0248	0.0933	0.1143	0.034
Mof_C 	C 	0.991	0.1725	0.1616	-0.106
Mof_C 	C 	0.9832	0.188	0.21481	0.025
Mof_H 	H 	0.9647	0.2343	0.2231	0.055
Mof_C 	C 	0.003	0.1345	0.2561	-0.074
Mof_H 	H 	0.9986	0.1451	0.292	0.076
Mof_C 	C 	0.9669	0.2293	0.117	0.381
Mof_Mn	Mn	0.94614	0.57062	0.02057	1.01
Mof_Mn	Mn	0.0907	0.61888	0.92317	0.981
Mof_Mn	Mn	0.03544	0.74993	0.0148	0.924
Mof_S 	S 	0.59855	0.75822	0.12098	0.263
Mof_S 	S 	0.98144	0.69907	0.3626	0.264
Mof_S 	S 	0.45446	0.49742	0.20564	0.256
Mof_O 	O 	0.96072	0.62191	0.09708	-0.407
Mof_O 	O 	0.35373	0.86228	0.46928	-0.392
Mof_O 	O 	0.03699	0.63692	0.99104	-0.562
Mof_H 	H 	0.0874	0.6225	0.0194	0.152
Mof_O 	O 	0.05362	0.49803	0.05219	-0.479
Mof_O 	O 	0.85313	0.49832	0.04883	-0.421
Mof_O 	O 	0.556	0.7915	0.36898	-0.367
Mof_O 	O 	0.20835	0.6689	0.96863	-0.372
Mof_O 	O 	0.03022	0.43237	0.12384	-0.363
Mof_O 	O 	0.83445	0.44844	0.12591	-0.321
Mof_O 	O 	0.5295	0.7118	0.43148	-0.382
Mof_O 	O 	0.17376	0.73991	0.03476	-0.384
Mof_O 	O 	0.3959	0.74587	0.49045	-0.376
Mof_O 	O 	0.03258	0.72799	0.10128	-0.385
Mof_O 	O 	0.6244	0.81762	0.09034	-0.193
Mof_O 	O 	0.6028	0.7675	0.17983	-0.201
Mof_O 	O 	0.9255	0.7589	0.36884	-0.194
Mof_O 	O 	0.9644	0.6273	0.38122	-0.197
Mof_O 	O 	0.4794	0.4279	0.23271	-0.21
Mof_O 	O 	0.4949	0.5219	0.16206	-0.204
Mof_C 	C 	0.8217	0.4995	0.09112	0.342
Mof_C 	C 	0.7645	0.5635	0.09917	-0.086
Mof_C 	C 	0.7375	0.613	0.05699	0.023
Mof_H 	H 	0.7541	0.6071	0.0237	0.036
Mof_C 	C 	0.6862	0.6712	0.06379	-0.076
Mof_H 	H 	0.6688	0.7048	0.0352	0.074
Mof_C 	C 	0.6606	0.6802	0.11233	0.011
Mof_C 	C 	0.6862	0.6312	0.1547	-0.064
Mof_H 	H 	0.6681	0.6373	0.1875	0.08
Mof_C 	C 	0.7391	0.5719	0.14905	0.018
Mof_H 	H 	0.757	0.5389	0.1779	0.054
Mof_C 	C 	0.4909	0.7377	0.0883	0.009
Mof_C 	C 	0.4685	0.7168	0.0345	-0.062
Mof_H 	H 	0.5105	0.7104	0.0145	0.07
Mof_C 	C 	0.3825	0.7049	0.0092	0.017
Mof_H 	H 	0.3673	0.6884	0.9728	0.059
Mof_C 	C 	0.3193	0.718	0.03883	-0.093
Mof_C 	C 	0.3421	0.7417	0.0919	0.019
Mof_H 	H 	0.2997	0.7526	0.1109	0.041
Mof_C 	C 	0.4287	0.7501	0.11871	-0.071
Mof_H 	H 	0.4441	0.7636	0.1558	0.074
Mof_C 	C 	0.225	0.7079	0.01121	0.375
Mof_C 	C 	0.9959	0.6783	0.12162	0.397
Mof_C 	C 	0.993	0.6832	0.18188	-0.114
Mof_C 	C 	0.9641	0.6243	0.20764	0.04
Mof_H 	H 	0.9467	0.5815	0.1878	0.041
Mof_C 	C 	0.9607	0.6283	0.26337	-0.086
Mof_H 	H 	0.9412	0.5886	0.2808	0.088
Mof_C 	C 	0.9869	0.6925	0.292	0.023
Mof_C 	C 	0.0148	0.7528	0.26686	-0.086
Mof_H 	H 	0.0311	0.7959	0.2867	0.087
Mof_C 	C 	0.0182	0.7481	0.21106	0.041
Mof_H 	H 	0.0372	0.7879	0.1936	0.039
Mof_C 	C 	0.0864	0.7263	0.3954	0.012
Mof_C 	C 	0.1481	0.6723	0.41561	-0.078
Mof_H 	H 	0.1334	0.6228	0.4127	0.08
Mof_C 	C 	0.2309	0.6937	0.43984	0.027
Mof_H 	H 	0.2724	0.6587	0.4541	0.04
Mof_C 	C 	0.2515	0.7691	0.44263	-0.105
Mof_C 	C 	0.1907	0.8215	0.42177	0.025
Mof_H 	H 	0.2056	0.871	0.4229	0.042
Mof_C 	C 	0.1062	0.7996	0.39873	-0.086
Mof_H 	H 	0.0641	0.8345	0.3858	0.084
Mof_C 	C 	0.3422	0.7936	0.46958	0.379
Mof_C 	C 	0.0776	0.4692	0.10033	0.389
Mof_C 	C 	0.171	0.4798	0.12847	-0.125
Mof_C 	C 	0.2069	0.438	0.17484	0.04
Mof_H 	H 	0.1724	0.4062	0.1896	0.036
Mof_C 	C 	0.2935	0.4434	0.19928	-0.092
Mof_H 	H 	0.3179	0.4143	0.2295	0.075
Mof_C 	C 	0.3426	0.493	0.17779	0.017
Mof_C 	C 	0.3065	0.5366	0.13259	-0.098
Mof_H 	H 	0.3402	0.5703	0.1189	0.08
Mof_C 	C 	0.2202	0.5296	0.10792	0.053
Mof_H 	H 	0.1957	0.5586	0.0776	0.012
Mof_C 	C 	0.4713	0.5666	0.25663	0.013
Mof_C 	C 	0.4604	0.5508	0.3093	-0.079
Mof_H 	H 	0.4397	0.5051	0.3171	0.07
Mof_C 	C 	0.4807	0.604	0.35	0.032
Mof_H 	H 	0.4752	0.5933	0.3857	0.034
Mof_C 	C 	0.509	0.6725	0.3384	-0.105
Mof_C 	C 	0.5168	0.688	0.28519	0.027
Mof_H 	H 	0.5353	0.7343	0.2769	0.055
Mof_C 	C 	0.497	0.6345	0.2439	-0.077
Mof_H 	H 	0.5014	0.6451	0.208	0.078
Mof_C 	C 	0.5331	0.7293	0.383	0.381
_end
