data_functionalizedCrystal
_audit_creation_method	'EQeq! by Chris Wilmer'
_symmetry_space_group_name_H-M	'P1'
_symmetry_Int_Tables_number	1
_symmetry_cell_setting	triclinic
loop_
_symmetry_equiv_pos_as_xyz
  x,y,z
_cell_length_a	9.8439
_cell_length_b	17.6747
_cell_length_c	11.8051
_cell_angle_alpha	90
_cell_angle_beta	99.458
_cell_angle_gamma	90
loop_
_atom_site_label
_atom_site_type_symbol
_atom_site_fract_x
_atom_site_fract_y
_atom_site_fract_z
_atom_site_charge
Mof_C 	C 	0.3309	0.08174	0.1864	0.315
Mof_C 	C 	0.8406	0.13421	0.2077	0.308
Mof_C 	C 	0.5852	0.10904	0.199	-0.031
Mof_H 	H 	0.5956	0.062	0.1641	0.073
Mof_C 	C 	0.4564	0.13107	0.2214	-0.032
Mof_C 	C 	0.6981	0.15626	0.22775	-0.023
Mof_C 	C 	0.4408	0.20006	0.2736	-0.108
Mof_H 	H 	0.3548	0.2147	0.2912	0.08
Mof_C 	C 	0.6827	0.22685	0.2771	-0.106
Mof_H 	H 	0.7581	0.2599	0.2949	0.086
Mof_C 	C 	0.5542	0.24704	0.29924	0.112
Mof_C 	C 	0.6341	0.26913	0.5497	-0.825
Mof_H 	H 	0.7307	0.2645	0.5433	0.279
Mof_H 	H 	0.5879	0.2214	0.5293	0.282
Mof_H 	H 	0.6256	0.2822	0.628	0.284
Mof_C 	C 	0.5699	0.32919	0.4709	0.329
Mof_C 	C 	0.4894	0.38535	0.3102	0.096
Mof_C 	C 	0.4412	0.40637	0.1893	0.009
Mof_C 	C 	0.4362	0.3594	0.0941	-0.003
Mof_H 	H 	0.4714	0.31	0.1039	0.039
Mof_C 	C 	0.3344	0.45426	0.9804	-0.002
Mof_H 	H 	0.2915	0.4722	0.9084	0.048
Mof_C 	C 	0.3459	0.50236	0.0747	0.022
Mof_H 	H 	0.315	0.5526	0.0644	0.029
Mof_N 	N 	0.53854	0.31827	0.35518	-0.193
Mof_N 	N 	0.53893	0.39914	0.49532	-0.259
Mof_N 	N 	0.48769	0.43442	0.39303	-0.22
Mof_N 	N 	0.3998	0.47857	0.1786	-0.194
Mof_N 	N 	0.3818	0.38365	0.9886	-0.103
Mof_O 	O 	0.337	0.02745	0.1212	-0.302
Mof_O 	O 	0.2237	0.10246	0.22271	-0.454
Mof_O 	O 	0.86153	0.06497	0.18856	-0.428
Mof_O 	O 	0.9288	0.18473	0.2087	-0.31
Mof_Zn	Zn	0.44664	0.54765	0.34196	1.207
Mof_C 	C 	0.1691	0.58174	0.3136	0.314
Mof_C 	C 	0.6594	0.63421	0.2923	0.307
Mof_C 	C 	0.9148	0.60904	0.301	-0.032
Mof_H 	H 	0.9044	0.562	0.3359	0.072
Mof_C 	C 	0.0436	0.63107	0.2786	-0.033
Mof_C 	C 	0.8019	0.65626	0.27225	-0.024
Mof_C 	C 	0.0592	0.70006	0.2264	-0.108
Mof_H 	H 	0.1452	0.7147	0.2088	0.081
Mof_C 	C 	0.8173	0.72685	0.2229	-0.106
Mof_H 	H 	0.7419	0.7599	0.2051	0.086
Mof_C 	C 	0.9458	0.74704	0.20076	0.112
Mof_C 	C 	0.8659	0.76913	0.9503	-0.833
Mof_H 	H 	0.7693	0.7645	0.9567	0.28
Mof_H 	H 	0.9121	0.7214	0.9707	0.283
Mof_H 	H 	0.8744	0.7822	0.872	0.285
Mof_C 	C 	0.9301	0.82919	0.0291	0.333
Mof_C 	C 	0.0106	0.88535	0.1898	0.098
Mof_C 	C 	0.0588	0.90637	0.3107	0.008
Mof_C 	C 	0.0638	0.8594	0.4059	0
Mof_H 	H 	0.0286	0.81	0.3961	0.038
Mof_C 	C 	0.1656	0.95426	0.5196	0.005
Mof_H 	H 	0.2085	0.9722	0.5916	0.046
Mof_C 	C 	0.1541	0.00236	0.4253	0.011
Mof_H 	H 	0.185	0.0526	0.4356	0.032
Mof_N 	N 	0.96146	0.81827	0.14482	-0.194
Mof_N 	N 	0.96107	0.89914	0.00468	-0.26
Mof_N 	N 	0.01231	0.93442	0.10697	-0.218
Mof_N 	N 	0.1002	0.97857	0.3214	-0.19
Mof_N 	N 	0.1182	0.88365	0.5114	-0.105
Mof_O 	O 	0.163	0.52745	0.3788	-0.3
Mof_O 	O 	0.2763	0.60246	0.27729	-0.452
Mof_O 	O 	0.63847	0.56497	0.31144	-0.43
Mof_O 	O 	0.5712	0.68473	0.2913	-0.313
Mof_Zn	Zn	0.05336	0.04765	0.15804	1.205
Mof_C 	C 	0.6691	0.91826	0.8136	0.314
Mof_C 	C 	0.1594	0.86579	0.7923	0.307
Mof_C 	C 	0.4148	0.89096	0.801	-0.032
Mof_H 	H 	0.4044	0.938	0.8359	0.072
Mof_C 	C 	0.5436	0.86893	0.7786	-0.033
Mof_C 	C 	0.3019	0.84374	0.77225	-0.024
Mof_C 	C 	0.5592	0.79994	0.7264	-0.108
Mof_H 	H 	0.6452	0.7853	0.7088	0.08
Mof_C 	C 	0.3173	0.77315	0.7229	-0.106
Mof_H 	H 	0.2419	0.7401	0.7051	0.086
Mof_C 	C 	0.4458	0.75296	0.70076	0.112
Mof_C 	C 	0.3659	0.73087	0.4503	-0.825
Mof_H 	H 	0.2693	0.7355	0.4567	0.279
Mof_H 	H 	0.4121	0.7786	0.4707	0.282
Mof_H 	H 	0.3744	0.7178	0.372	0.284
Mof_C 	C 	0.4301	0.67081	0.5291	0.329
Mof_C 	C 	0.5106	0.61465	0.6898	0.096
Mof_C 	C 	0.5588	0.59363	0.8107	0.009
Mof_C 	C 	0.5638	0.6406	0.9059	-0.003
Mof_H 	H 	0.5286	0.69	0.8961	0.039
Mof_C 	C 	0.6656	0.54574	0.0196	-0.002
Mof_H 	H 	0.7085	0.5278	0.0916	0.048
Mof_C 	C 	0.6541	0.49764	0.9253	0.022
Mof_H 	H 	0.685	0.4474	0.9356	0.029
Mof_N 	N 	0.46146	0.68173	0.64482	-0.193
Mof_N 	N 	0.46107	0.60086	0.50468	-0.259
Mof_N 	N 	0.51231	0.56558	0.60697	-0.22
Mof_N 	N 	0.6002	0.52143	0.8214	-0.194
Mof_N 	N 	0.6182	0.61635	0.0114	-0.103
Mof_O 	O 	0.663	0.97255	0.8788	-0.302
Mof_O 	O 	0.7763	0.89754	0.77729	-0.454
Mof_O 	O 	0.13847	0.93503	0.81144	-0.428
Mof_O 	O 	0.0712	0.81527	0.7913	-0.31
Mof_Zn	Zn	0.55336	0.45235	0.65804	1.207
Mof_C 	C 	0.8309	0.41826	0.6864	0.314
Mof_C 	C 	0.3406	0.36579	0.7077	0.307
Mof_C 	C 	0.0852	0.39096	0.699	-0.032
Mof_H 	H 	0.0956	0.438	0.6641	0.072
Mof_C 	C 	0.9564	0.36893	0.7214	-0.033
Mof_C 	C 	0.1981	0.34374	0.72775	-0.024
Mof_C 	C 	0.9408	0.29994	0.7736	-0.108
Mof_H 	H 	0.8548	0.2853	0.7912	0.081
Mof_C 	C 	0.1827	0.27315	0.7771	-0.106
Mof_H 	H 	0.2581	0.2401	0.7949	0.086
Mof_C 	C 	0.0542	0.25296	0.79924	0.112
Mof_C 	C 	0.1341	0.23087	0.0497	-0.833
Mof_H 	H 	0.2307	0.2355	0.0433	0.28
Mof_H 	H 	0.0879	0.2786	0.0293	0.283
Mof_H 	H 	0.1256	0.2178	0.128	0.285
Mof_C 	C 	0.0699	0.17081	0.9709	0.333
Mof_C 	C 	0.9894	0.11465	0.8102	0.098
Mof_C 	C 	0.9412	0.09363	0.6893	0.008
Mof_C 	C 	0.9362	0.1406	0.5941	0
Mof_H 	H 	0.9714	0.19	0.6039	0.038
Mof_C 	C 	0.8344	0.04574	0.4804	0.005
Mof_H 	H 	0.7915	0.0278	0.4084	0.046
Mof_C 	C 	0.8459	0.99764	0.5747	0.011
Mof_H 	H 	0.815	0.9474	0.5644	0.032
Mof_N 	N 	0.03854	0.18173	0.85518	-0.194
Mof_N 	N 	0.03893	0.10086	0.99532	-0.26
Mof_N 	N 	0.98769	0.06558	0.89303	-0.218
Mof_N 	N 	0.8998	0.02143	0.6786	-0.19
Mof_N 	N 	0.8818	0.11635	0.4886	-0.105
Mof_O 	O 	0.837	0.47255	0.6212	-0.3
Mof_O 	O 	0.7237	0.39754	0.72271	-0.452
Mof_O 	O 	0.36153	0.43503	0.68856	-0.43
Mof_O 	O 	0.4288	0.31527	0.7087	-0.313
Mof_Zn	Zn	0.94664	0.95235	0.84196	1.205
_end
