data_functionalizedCrystal
_audit_creation_method	'EQeq! by Chris Wilmer'
_symmetry_space_group_name_H-M	'P1'
_symmetry_Int_Tables_number	1
_symmetry_cell_setting	triclinic
loop_
_symmetry_equiv_pos_as_xyz
  x,y,z
_cell_length_a	8.7486
_cell_length_b	10.9823
_cell_length_c	12.307
_cell_angle_alpha	68.658
_cell_angle_beta	86.191
_cell_angle_gamma	79.532
loop_
_atom_site_label
_atom_site_type_symbol
_atom_site_fract_x
_atom_site_fract_y
_atom_site_fract_z
_atom_site_charge
Mof_Tb	Tb	0.71315	0.97896	0.44409	2.214
Mof_Tb	Tb	0.28685	0.02104	0.55591	2.214
Mof_H 	H 	0.2178	0.6267	0.7625	0.016
Mof_H 	H 	0.0026	0.3148	0.84	0.025
Mof_H 	H 	0.8666	0.64	0.5609	0.014
Mof_H 	H 	0.9527	0.228	0.6849	0.078
Mof_H 	H 	0.7803	0.1153	0.6422	-0.036
Mof_H 	H 	0.4354	0.4211	0.6154	0.007
Mof_H 	H 	0.6086	0.5337	0.6551	0.093
Mof_H 	H 	0.0101	0.3306	0.0252	0.098
Mof_H 	H 	0.1219	0.2185	0.2048	-0.025
Mof_H 	H 	0.5334	0.3144	0.0716	-0.014
Mof_H 	H 	0.4201	0.4282	0.8924	0.101
Mof_H 	H 	0.7822	0.3733	0.2375	0.016
Mof_H 	H 	0.9974	0.6852	0.16	0.025
Mof_H 	H 	0.1334	0.36	0.4391	0.014
Mof_H 	H 	0.0473	0.772	0.3151	0.078
Mof_H 	H 	0.2197	0.8847	0.3578	-0.036
Mof_H 	H 	0.5646	0.5789	0.3846	0.007
Mof_H 	H 	0.3914	0.4663	0.3449	0.093
Mof_H 	H 	0.9899	0.6694	0.9748	0.098
Mof_H 	H 	0.8781	0.7815	0.7952	-0.025
Mof_H 	H 	0.4666	0.6856	0.9284	-0.014
Mof_H 	H 	0.5799	0.5718	0.1076	0.101
Mof_C 	C 	0.0567	0.7944	0.5778	0.563
Mof_C 	C 	0.0445	0.6533	0.6506	-0.187
Mof_C 	C 	0.1406	0.5866	0.7479	0.055
Mof_C 	C 	0.1214	0.46	0.8233	-0.072
Mof_C 	C 	0.012	0.4013	0.7932	-0.006
Mof_C 	C 	0.916	0.4647	0.6971	-0.065
Mof_C 	C 	0.9315	0.5942	0.6251	0.063
Mof_C 	C 	0.8002	0.3939	0.6725	0.115
Mof_C 	C 	0.8492	0.2678	0.6695	-0.18
Mof_C 	C 	0.7456	0.1999	0.6436	0.127
Mof_C 	C 	0.5915	0.2574	0.62	-0.202
Mof_C 	C 	0.5398	0.383	0.6273	0.101
Mof_C 	C 	0.6435	0.4498	0.652	-0.175
Mof_C 	C 	0.4846	0.1904	0.5817	0.442
Mof_C 	C 	0.2028	0.3925	0.937	0.129
Mof_C 	C 	0.1156	0.3275	0.0341	-0.206
Mof_C 	C 	0.183	0.2595	0.1419	0.144
Mof_C 	C 	0.3395	0.2509	0.1586	-0.231
Mof_C 	C 	0.4281	0.317	0.0624	0.132
Mof_C 	C 	0.3596	0.3855	0.9549	-0.204
Mof_C 	C 	0.4087	0.174	0.2773	0.521
Mof_C 	C 	0.9433	0.2056	0.4222	0.563
Mof_C 	C 	0.9555	0.3467	0.3494	-0.187
Mof_C 	C 	0.8594	0.4134	0.2521	0.055
Mof_C 	C 	0.8786	0.54	0.1767	-0.072
Mof_C 	C 	0.988	0.5987	0.2068	-0.006
Mof_C 	C 	0.084	0.5353	0.3029	-0.065
Mof_C 	C 	0.0685	0.4058	0.3749	0.063
Mof_C 	C 	0.1998	0.6061	0.3275	0.115
Mof_C 	C 	0.1508	0.7322	0.3305	-0.18
Mof_C 	C 	0.2544	0.8001	0.3564	0.127
Mof_C 	C 	0.4085	0.7426	0.38	-0.202
Mof_C 	C 	0.4602	0.617	0.3727	0.101
Mof_C 	C 	0.3565	0.5502	0.348	-0.175
Mof_C 	C 	0.5154	0.8096	0.4183	0.442
Mof_C 	C 	0.7972	0.6075	0.063	0.129
Mof_C 	C 	0.8844	0.6725	0.9659	-0.206
Mof_C 	C 	0.817	0.7405	0.8581	0.144
Mof_C 	C 	0.6605	0.7491	0.8414	-0.231
Mof_C 	C 	0.5719	0.683	0.9376	0.132
Mof_C 	C 	0.6404	0.6145	0.0451	-0.204
Mof_C 	C 	0.5913	0.826	0.7227	0.521
Mof_O 	O 	0.955	0.8593	0.5015	-0.607
Mof_O 	O 	0.1686	0.8396	0.5973	-0.592
Mof_O 	O 	0.3404	0.2164	0.5919	-0.49
Mof_O 	O 	0.5432	0.0992	0.5413	-0.648
Mof_O 	O 	0.3125	0.1535	0.3605	-0.55
Mof_O 	O 	0.5522	0.1353	0.2863	-0.548
Mof_O 	O 	0.045	0.1407	0.4985	-0.607
Mof_O 	O 	0.8314	0.1604	0.4027	-0.592
Mof_O 	O 	0.6596	0.7836	0.4081	-0.49
Mof_O 	O 	0.4568	0.9008	0.4587	-0.648
Mof_O 	O 	0.6875	0.8465	0.6395	-0.55
Mof_O 	O 	0.4478	0.8647	0.7137	-0.548
_end
