# CIF file generated by openbabel 3.1.0, see https://openbabel.org
data_I
_chemical_name_common 'VEWLAM_clean'
_cell_length_a 20.7308
_cell_length_b 34.3744
_cell_length_c 19.3772
_cell_angle_alpha 90
_cell_angle_beta 115.432
_cell_angle_gamma 90
_space_group_name_H-M_alt 'P 1 21 1'
_space_group_name_Hall 'P 2yb'
loop_
    _symmetry_equiv_pos_as_xyz
    x,y,z
    -x,1/2+y,-z
loop_
    _atom_site_label
    _atom_site_type_symbol
    _atom_site_fract_x
    _atom_site_fract_y
    _atom_site_fract_z
    _atom_site_occupancy
    Co1      Co       0.33956    0.57047    0.71608    1.000
    Co2      Co       0.19140    0.44364    0.85774    1.000
    Co3      Co       0.27923    0.48386    0.75011    1.000
    Co4      Co       0.28715    0.57638    0.52931    1.000
    Co5      Co       0.23564    0.59125    0.35004    1.000
    C6       C        0.82140    0.18430    0.18230    1.000
    C7       C        0.78670    0.20600    0.22000    1.000
    C8       C        0.86200    0.20360    0.15120    1.000
    C9       C        0.00670    0.37800    0.05680    1.000
    C10      C        0.07420    0.39320    0.11100    1.000
    C11      C        0.12040    0.40920    0.07720    1.000
    C12      C        0.04610    0.38340    0.62790    1.000
    C13      C        0.08930    0.41450    0.62070    1.000
    C14      C        0.08880    0.42520    0.55090    1.000
    C15      C        0.99280    0.37980    0.48660    1.000
    C16      C        0.03930    0.40880    0.48450    1.000
    C17      C        0.99670    0.36770    0.55690    1.000
    C18      C        0.14430    0.43270    0.69820    1.000
    C19      C        0.89260    0.30240    0.33400    1.000
    C20      C        0.85890    0.32700    0.26940    1.000
    C21      C        0.94060    0.36140    0.41330    1.000
    C22      C        0.86300    0.36920    0.27880    1.000
    C23      C        0.93350    0.31970    0.40680    1.000
    C24      C        0.90600    0.38490    0.35040    1.000
    C25      C        0.82610    0.30960    0.18920    1.000
    C26      C        0.70470    0.34130    0.17630    1.000
    C27      C        0.74180    0.32270    0.14240    1.000
    C28      C        0.71040    0.30870    0.06910    1.000
    C29      C        0.63350    0.35240    0.13170    1.000
    C30      C        0.39480    0.39210    0.91580    1.000
    C31      C        0.51200    0.36810    0.93350    1.000
    C32      C        0.63690    0.32050    0.02140    1.000
    C33      C        0.40870    0.37730    0.98720    1.000
    C34      C        0.60030    0.34190    0.05720    1.000
    C35      C        0.44390    0.38680    0.88410    1.000
    C36      C        0.47650    0.36020    0.03590    1.000
    C37      C        0.52830    0.35600    0.00730    1.000
    C38      C        0.87020    0.32730    0.15120    1.000
    C39      C        0.99090    0.33900    0.15940    1.000
    C40      C        0.84350    0.35280    0.08360    1.000
    C41      C        0.96170    0.36180    0.09190    1.000
    C42      C        0.94560    0.32350    0.18870    1.000
    C43      C        0.88940    0.36970    0.05440    1.000
    C44      C        0.03260    0.39380    0.94630    1.000
    C45      C        0.10050    0.40720    0.99670    1.000
    C46      C        0.14470    0.42280    0.95050    1.000
    C47      C        0.40240    0.54050    0.84570    1.000
    C48      C        0.65360    0.45270    0.29950    1.000
    C49      C        0.57630    0.48420    0.15290    1.000
    C50      C        0.56320    0.49800    0.21360    1.000
    C51      C        0.60510    0.48360    0.29070    1.000
    C52      C        0.66930    0.44090    0.24390    1.000
    C53      C        0.63160    0.45470    0.16480    1.000
    C54      C        0.77250    0.45440    0.41210    1.000
    C55      C        0.86760    0.49740    0.40380    1.000
    C56      C        0.79830    0.47960    0.37050    1.000
    C57      C        0.91480    0.48690    0.48140    1.000
    C58      C        0.89290    0.46050    0.52840    1.000
    C59      C        0.82230    0.44590    0.49240    1.000
    C60      C        0.69900    0.39450    0.37400    1.000
    C61      C        0.75250    0.32850    0.40140    1.000
    C62      C        0.68990    0.31140    0.35910    1.000
    C63      C        0.63480    0.37580    0.32420    1.000
    C64      C        0.75880    0.36990    0.40970    1.000
    C65      C        0.62860    0.33470    0.32040    1.000
    C66      C        0.69600    0.43760    0.37840    1.000
    C67      C        0.09340    0.52560    0.50600    1.000
    C68      C        0.12380    0.53290    0.58620    1.000
    C69      C        0.09270    0.52720    0.63240    1.000
    C70      C        0.98850    0.50500    0.51780    1.000
    C71      C        0.02420    0.50970    0.47280    1.000
    C72      C        0.02210    0.51190    0.59630    1.000
    C73      C        0.66310    0.44840    0.43410    1.000
    C74      C        0.59770    0.47810    0.52290    1.000
    C75      C        0.64490    0.50100    0.51160    1.000
    C76      C        0.67720    0.48850    0.46610    1.000
    C77      C        0.61910    0.42580    0.45090    1.000
    C78      C        0.58620    0.43790    0.49530    1.000
    C79      C        0.47170    0.52630    0.62810    1.000
    C80      C        0.43760    0.50180    0.57020    1.000
    C81      C        0.55180    0.49380    0.56340    1.000
    C82      C        0.54410    0.53500    0.65710    1.000
    C83      C        0.47750    0.48740    0.53540    1.000
    C84      C        0.59020    0.51830    0.62980    1.000
    C85      C        0.67690    0.18890    0.36050    1.000
    C86      C        0.65060    0.20750    0.28810    1.000
    C87      C        0.68190    0.26860    0.35470    1.000
    C88      C        0.70300    0.20590    0.43000    1.000
    C89      C        0.65140    0.24830    0.28700    1.000
    C90      C        0.45030    0.52490    0.92370    1.000
    C91      C        0.46610    0.48590    0.93700    1.000
    C92      C        0.53280    0.49860    0.07160    1.000
    C93      C        0.51270    0.47500    0.01300    1.000
    C94      C        0.47180    0.55200    0.98440    1.000
    C95      C        0.51300    0.53740    0.06120    1.000
    C96      C        0.42800    0.54650    0.66280    1.000
    C97      C        0.67580    0.14270    0.35990    1.000
    C98      C        0.32740    0.41780    0.86830    1.000
    C99      C        0.78810    0.24610    0.21890    1.000
    C100     C        0.82790    0.26500    0.18770    1.000
    C101     C        0.86430    0.24700    0.15070    1.000
    C102     C        0.80130    0.01630    0.15650    1.000
    C103     C        0.81790    0.14080    0.17790    1.000
    C104     C        0.87200    0.07720    0.17860    1.000
    C105     C        0.88030    0.11920    0.18730    1.000
    C106     C        0.75120    0.08090    0.15870    1.000
    C107     C        0.80910    0.06150    0.16660    1.000
    C108     C        0.20040    0.54980    0.61860    1.000
    C109     C        0.98760    0.37810    0.98050    1.000
    C110     C        0.75460    0.12340    0.16660    1.000
    C111     C        0.70710    0.24840    0.42510    1.000
    C112     C        0.13520    0.62770    0.12850    1.000
    C113     C        0.09000    0.65930    0.12940    1.000
    C114     C        0.14210    0.61490    0.06550    1.000
    C115     C        0.36980    0.60570    0.44440    1.000
    C116     C        0.13890    0.60270    0.40900    1.000
    C117     C        0.98290    0.67810    0.55860    1.000
    C118     C        0.91040    0.67350    0.52430    1.000
    C119     C        0.90900    0.70910    0.63890    1.000
    C120     C        0.02060    0.69870    0.62910    1.000
    C121     C        0.98570    0.71270    0.66580    1.000
    C122     C        0.87540    0.68700    0.56610    1.000
    C123     C        0.02590    0.65660    0.51570    1.000
    C124     C        0.13110    0.64600    0.49880    1.000
    C125     C        0.02670    0.60900    0.41800    1.000
    C126     C        0.09440    0.67020    0.53870    1.000
    C127     C        0.10040    0.62130    0.44790    1.000
    C128     C        0.79180    0.70700    0.65060    1.000
    C129     C        0.67240    0.70660    0.54620    1.000
    C130     C        0.74200    0.72280    0.57810    1.000
    C131     C        0.65350    0.67900    0.58410    1.000
    C132     C        0.69580    0.66790    0.65480    1.000
    C133     C        0.76680    0.68090    0.68630    1.000
    C134     C        0.86990    0.72330    0.68260    1.000
    C135     C        0.57570    0.66430    0.54990    1.000
    C136     C        0.52920    0.67443    0.47550    1.000
    C137     C        0.46270    0.65670    0.44010    1.000
    C138     C        0.44270    0.62870    0.47900    1.000
    C139     C        0.48910    0.61850    0.55330    1.000
    C140     C        0.55560    0.63630    0.58870    1.000
    C141     C        0.83650    0.84830    0.65290    1.000
    C142     C        0.89360    0.79080    0.63780    1.000
    C143     C        0.86480    0.76870    0.67690    1.000
    C144     C        0.87890    0.83300    0.62850    1.000
    C145     C        0.80240    0.82420    0.69170    1.000
    C146     C        0.81780    0.78490    0.70600    1.000
    C147     C        0.79290    0.94860    0.55700    1.000
    C148     C        0.77670    0.97070    0.60910    1.000
    C149     C        0.77930    0.95480    0.67640    1.000
    C150     C        0.81360    0.89060    0.63620    1.000
    C151     C        0.81240    0.90790    0.56960    1.000
    C152     C        0.79770    0.91420    0.68880    1.000
    C153     C        0.91410    0.70950    0.76380    1.000
    C154     C        0.92930    0.67000    0.77440    1.000
    C155     C        0.97090    0.65480    0.85110    1.000
    C156     C        0.99610    0.67940    0.91080    1.000
    C157     C        0.98290    0.71760    0.90180    1.000
    C158     C        0.94060    0.73610    0.82730    1.000
    C159     C        0.04820    0.66440    0.99180    1.000
    C160     C        0.09160    0.63430    0.98910    1.000
    C161     C        0.76140    0.01270    0.59210    1.000
    C162     C        0.99370    0.62980    0.45960    1.000
    C163     C        0.03670    0.68020    0.05260    1.000
    O164     O        0.67170    0.12711    0.30010    1.000
    O165     O        0.24250    0.54128    0.68940    1.000
    O166     O        0.21830    0.57035    0.57710    1.000
    O167     O        0.67730    0.12760    0.42080    1.000
    O168     O        0.39730    0.57480    0.83310    1.000
    O169     O        0.35920    0.54206    0.63050    1.000
    O170     O        0.45490    0.56830    0.71970    1.000
    O171     O        0.28790    0.41850    0.90360    1.000
    O172     O        0.37490    0.51450    0.79280    1.000
    O173     O        0.32660    0.43404    0.81290    1.000
    O174     O        0.74980    0.00180    0.16280    1.000
    O175     O        0.13640    0.42390    0.75050    1.000
    O176     O        0.12780    0.41340    0.89250    1.000
    O177     O        0.18870    0.45400    0.68330    1.000
    O178     O        0.19590    0.44110    0.00050    1.000
    O179     O        0.84630    0.99770    0.14200    1.000
    O180     O        0.74710    0.02302    0.52600    1.000
    O181     O        0.76000    0.03147    0.64540    1.000
    O182     O        0.20640    0.60816    0.43140    1.000
    O183     O        0.35960    0.58252    0.48490    1.000
    O184     O        0.32930    0.61680    0.37870    1.000
    O185     O        0.10610    0.57950    0.35380    1.000
    H186     H        0.75823    0.19009    0.25059    1.000
    H187     H        0.89362    0.18622    0.12601    1.000
    H188     H        0.08853    0.39230    0.17474    1.000
    H189     H        0.17336    0.42358    0.11539    1.000
    H190     H        0.05332    0.37350    0.68693    1.000
    H191     H        0.12915    0.44731    0.54938    1.000
    H192     H        0.03583    0.41881    0.42692    1.000
    H193     H        0.95774    0.34402    0.55572    1.000
    H194     H        0.88669    0.26948    0.32710    1.000
    H195     H        0.83134    0.38885    0.22805    1.000
    H196     H        0.96041    0.30055    0.45955    1.000
    H197     H        0.91223    0.41785    0.35628    1.000
    H198     H        0.73151    0.34769    0.24021    1.000
    H199     H        0.74161    0.28865    0.04756    1.000
    H200     H        0.60359    0.37027    0.15822    1.000
    H201     H        0.55419    0.36299    0.91144    1.000
    H202     H        0.61075    0.31263    0.95812    1.000
    H203     H        0.36577    0.37842    0.00915    1.000
    H204     H        0.42980    0.39683    0.82322    1.000
    H205     H        0.05090    0.33348    0.18921    1.000
    H206     H        0.78404    0.35965    0.05261    1.000
    H207     H        0.96885    0.30693    0.24513    1.000
    H208     H        0.86626    0.38909    0.00161    1.000
    H209     H        0.01493    0.39548    0.88196    1.000
    H210     H        0.51962    0.52058    0.20272    1.000
    H211     H        0.60031    0.49603    0.34285    1.000
    H212     H        0.71407    0.41892    0.25610    1.000
    H213     H        0.64615    0.44255    0.11857    1.000
    H214     H        0.88357    0.51894    0.36914    1.000
    H215     H        0.76318    0.48634    0.30781    1.000
    H216     H        0.93220    0.45319    0.58948    1.000
    H217     H        0.80443    0.42661    0.52882    1.000
    H218     H        0.80248    0.31004    0.43190    1.000
    H219     H        0.58655    0.39389    0.28595    1.000
    H220     H        0.81359    0.38291    0.44608    1.000
    H221     H        0.57436    0.32056    0.28625    1.000
    H222     H        0.12505    0.53263    0.47185    1.000
    H223     H        0.12249    0.53446    0.69575    1.000
    H224     H        0.99766    0.50078    0.41008    1.000
    H225     H        0.99160    0.50497    0.63171    1.000
    H226     H        0.65855    0.53092    0.53956    1.000
    H227     H        0.71420    0.50887    0.45347    1.000
    H228     H        0.60739    0.39480    0.42794    1.000
    H229     H        0.55081    0.41773    0.51085    1.000
    H230     H        0.37915    0.49429    0.55307    1.000
    H231     H        0.56885    0.55681    0.70578    1.000
    H232     H        0.45102    0.46927    0.48114    1.000
    H233     H        0.65056    0.52180    0.65293    1.000
    H234     H        0.62986    0.18932    0.23363    1.000
    H235     H        0.71878    0.18729    0.48350    1.000
    H236     H        0.62693    0.26465    0.23036    1.000
    H237     H        0.44209    0.46411    0.88817    1.000
    H238     H        0.53276    0.44369    0.02143    1.000
    H239     H        0.45667    0.58398    0.97200    1.000
    H240     H        0.52908    0.55752    0.11270    1.000
    H241     H        0.75634    0.26356    0.24380    1.000
    H242     H        0.89272    0.26533    0.12314    1.000
    H243     H        0.91862    0.05842    0.18207    1.000
    H244     H        0.93267    0.13504    0.20083    1.000
    H245     H        0.69942    0.06459    0.14590    1.000
    H246     H        0.93391    0.36547    0.93946    1.000
    H247     H        0.70785    0.14188    0.16375    1.000
    H248     H        0.73188    0.26517    0.48124    1.000
    H249     H        0.16873    0.61132    0.18350    1.000
    H250     H        0.09183    0.66991    0.18595    1.000
    H251     H        0.18299    0.59144    0.07131    1.000
    H252     H        0.88344    0.65938    0.46549    1.000
    H253     H        0.08089    0.70279    0.65290    1.000
    H254     H        0.01559    0.72876    0.72214    1.000
    H255     H        0.81593    0.67995    0.54052    1.000
    H256     H        0.19049    0.65006    0.51528    1.000
    H257     H        0.00521    0.58662    0.37000    1.000
    H258     H        0.11448    0.69546    0.58073    1.000
    H259     H        0.63129    0.71674    0.48781    1.000
    H260     H        0.75610    0.74697    0.54667    1.000
    H261     H        0.67403    0.64850    0.68763    1.000
    H262     H        0.80420    0.66862    0.74448    1.000
    H263     H        0.54565    0.69730    0.44352    1.000
    H264     H        0.42456    0.66510    0.37921    1.000
    H265     H        0.47262    0.59557    0.58513    1.000
    H266     H        0.59375    0.62795    0.64962    1.000
    H267     H        0.92853    0.77651    0.61286    1.000
    H268     H        0.90534    0.85190    0.59960    1.000
    H269     H        0.76248    0.83791    0.71054    1.000
    H270     H        0.79551    0.76571    0.73864    1.000
    H271     H        0.79084    0.96278    0.50291    1.000
    H272     H        0.76723    0.97378    0.71766    1.000
    H273     H        0.82594    0.89127    0.52663    1.000
    H274     H        0.80031    0.89906    0.74228    1.000
    H275     H        0.90925    0.64952    0.72316    1.000
    H276     H        0.98186    0.62226    0.86014    1.000
    H277     H        0.00484    0.73775    0.95352    1.000
    H278     H        0.93138    0.76888    0.82372    1.000
    H279     H        0.09094    0.62373    0.93304    1.000
    H280     H        0.93531    0.62425    0.44626    1.000
    H281     H        0.99843    0.70353    0.05451    1.000
