data_functionalizedCrystal
_audit_creation_method	'EQeq! by Chris Wilmer'
_symmetry_space_group_name_H-M	'P1'
_symmetry_Int_Tables_number	1
_symmetry_cell_setting	triclinic
loop_
_symmetry_equiv_pos_as_xyz
  x,y,z
_cell_length_a	7.2231
_cell_length_b	24.777
_cell_length_c	20.3178
_cell_angle_alpha	90
_cell_angle_beta	90
_cell_angle_gamma	90
loop_
_atom_site_label
_atom_site_type_symbol
_atom_site_fract_x
_atom_site_fract_y
_atom_site_fract_z
_atom_site_charge
Mof_Eu	Eu	0.765	0.96222	0.01426	2.406
Mof_Zn	Zn	0.2198	0.90097	0.07597	1.222
Mof_O 	O 	0.1086	0.94915	0.01075	-0.966
Mof_H 	H 	0.1111	0.9331	0.9738	0.278
Mof_O 	O 	0.3427	0.94242	0.14422	-0.522
Mof_O 	O 	0.0511	0.85071	0.11659	-0.515
Mof_O 	O 	0.7863	0.88822	0.08602	-0.565
Mof_C 	C 	0.7822	0.79826	0.12664	0.1
Mof_C 	C 	0.8786	0.84996	0.10881	0.372
Mof_C 	C 	0.603	0.79806	0.15147	-0.529
Mof_H 	H 	0.5422	0.8306	0.1586	0.195
Mof_H 	H 	0.243	0.7275	0.1705	0.349
Mof_H 	H 	0.2765	0.7862	0.197	0.333
Mof_H 	H 	0.3313	0.7363	0.2402	0.337
Mof_O 	O 	0.3482	0.84628	0.0254	-0.534
Mof_C 	C 	0.4952	0.85012	0.993	0.485
Mof_C 	C 	0.5825	0.79851	0.97204	-0.174
Mof_O 	O 	0.5705	0.8939	0.97744	-0.606
Mof_C 	C 	0.4383	0.98263	0.12872	0.429
Mof_O 	O 	0.48481	0.99284	0.06901	-0.683
Mof_C 	C 	0.4952	0.02012	0.18216	-0.087
Mof_C 	C 	0.4745	0.00559	0.24749	0.027
Mof_H 	H 	0.4259	0.9721	0.2587	0.032
Mof_C 	C 	0.5573	0.07163	0.16601	-0.123
Mof_H 	H 	0.5677	0.0813	0.1219	0.063
Mof_C 	C 	0.7492	0.79797	0.93893	-0.004
Mof_H 	H 	0.8039	0.8305	0.9269	0.015
Mof_C 	C 	0.5279	0.04207	0.29626	-0.09
Mof_C 	C 	0.6039	0.10871	0.2142	0.22
Mof_C 	C 	0.5935	0.09263	0.27897	-0.14
Mof_H 	H 	0.6313	0.1163	0.3119	0.077
Mof_C 	C 	0.6617	0.16504	0.19615	-0.695
Mof_H 	H 	0.5562	0.1885	0.198	0.214
Mof_H 	H 	0.7542	0.1774	0.2265	0.216
Mof_H 	H 	0.7116	0.1652	0.1524	0.217
Mof_C 	C 	0.5137	0.0278	0.36752	0.473
Mof_O 	O 	0.62766	0.05036	0.40586	-0.589
Mof_O 	O 	0.3909	0.99549	0.38555	-0.585
Mof_H 	H 	0.1082	0.7292	0.9163	-0.007
Mof_H 	H 	0.0669	0.7864	0.8867	-0.147
Mof_H 	H 	0.0121	0.7344	0.8474	0.007
Mof_H 	H 	0.0947	0.7303	0.8757	0.043
Mof_H 	H 	0.02	0.7865	0.8523	0.042
Mof_H 	H 	0.932	0.7333	0.8248	-0.015
Mof_H 	H 	0.1233	0.733	0.9498	0.008
Mof_H 	H 	0.1083	0.7865	0.909	0.127
Mof_H 	H 	0.0953	0.7305	0.8734	0.064
Mof_Eu	Eu	0.735	0.03778	0.51426	2.417
Mof_Zn	Zn	0.2802	0.09903	0.57597	1.222
Mof_O 	O 	0.3914	0.05085	0.51075	-0.975
Mof_H 	H 	0.3889	0.0669	0.4738	0.282
Mof_O 	O 	0.1573	0.05758	0.64422	-0.523
Mof_O 	O 	0.4489	0.14929	0.61659	-0.522
Mof_O 	O 	0.7137	0.11178	0.58602	-0.567
Mof_C 	C 	0.7178	0.20174	0.62664	0.102
Mof_C 	C 	0.6214	0.15004	0.60881	0.379
Mof_C 	C 	0.897	0.20194	0.65147	-0.535
Mof_H 	H 	0.9578	0.1694	0.6586	0.199
Mof_H 	H 	0.257	0.2725	0.6705	0.351
Mof_H 	H 	0.2235	0.2138	0.697	0.336
Mof_H 	H 	0.1687	0.2637	0.7402	0.341
Mof_O 	O 	0.1518	0.15372	0.5254	-0.533
Mof_C 	C 	0.0048	0.14988	0.493	0.47
Mof_C 	C 	0.9175	0.20149	0.47204	-0.152
Mof_O 	O 	0.9295	0.1061	0.47744	-0.602
Mof_C 	C 	0.0617	0.01737	0.62872	0.429
Mof_O 	O 	0.01519	0.00716	0.56901	-0.685
Mof_C 	C 	0.0048	0.97988	0.68216	-0.087
Mof_C 	C 	0.0255	0.99441	0.74749	0.029
Mof_H 	H 	0.0741	0.0279	0.7587	0.03
Mof_C 	C 	0.9427	0.92837	0.66601	-0.123
Mof_H 	H 	0.9323	0.9187	0.6219	0.062
Mof_C 	C 	0.7508	0.20203	0.43893	-0.021
Mof_H 	H 	0.6961	0.1695	0.4269	0.02
Mof_C 	C 	0.9721	0.95793	0.79626	-0.093
Mof_C 	C 	0.8961	0.89129	0.7142	0.217
Mof_C 	C 	0.9065	0.90737	0.77897	-0.138
Mof_H 	H 	0.8687	0.8837	0.8119	0.076
Mof_C 	C 	0.8383	0.83496	0.69615	-0.69
Mof_H 	H 	0.9438	0.8115	0.698	0.211
Mof_H 	H 	0.7458	0.8226	0.7265	0.213
Mof_H 	H 	0.7884	0.8348	0.6524	0.214
Mof_C 	C 	0.9863	0.9722	0.86752	0.476
Mof_O 	O 	0.87234	0.94964	0.90586	-0.588
Mof_O 	O 	0.1091	0.00451	0.88555	-0.587
Mof_H 	H 	0.3918	0.2708	0.4163	-0.008
Mof_H 	H 	0.4331	0.2136	0.3867	-0.148
Mof_H 	H 	0.4879	0.2656	0.3474	0.009
Mof_H 	H 	0.4053	0.2697	0.3757	0.043
Mof_H 	H 	0.48	0.2135	0.3523	0.04
Mof_H 	H 	0.568	0.2667	0.3248	-0.013
Mof_H 	H 	0.3767	0.267	0.4498	0.008
Mof_H 	H 	0.3917	0.2135	0.409	0.129
Mof_H 	H 	0.4047	0.2695	0.3734	0.065
Mof_Eu	Eu	0.235	0.46222	0.98574	2.408
Mof_Zn	Zn	0.7802	0.40097	0.92403	1.223
Mof_O 	O 	0.8914	0.44915	0.98925	-0.966
Mof_H 	H 	0.8889	0.4331	0.0262	0.277
Mof_O 	O 	0.6573	0.44242	0.85578	-0.522
Mof_O 	O 	0.9489	0.35071	0.88341	-0.515
Mof_O 	O 	0.2137	0.38822	0.91398	-0.565
Mof_C 	C 	0.2178	0.29826	0.87336	0.1
Mof_C 	C 	0.1214	0.34996	0.89119	0.372
Mof_C 	C 	0.397	0.29806	0.84853	-0.529
Mof_H 	H 	0.4578	0.3306	0.8414	0.195
Mof_H 	H 	0.757	0.2275	0.8295	0.349
Mof_H 	H 	0.7235	0.2862	0.803	0.333
Mof_H 	H 	0.6687	0.2363	0.7598	0.337
Mof_O 	O 	0.6518	0.34628	0.9746	-0.534
Mof_C 	C 	0.5048	0.35012	0.007	0.484
Mof_C 	C 	0.4175	0.29851	0.02796	-0.174
Mof_O 	O 	0.4295	0.3939	0.02256	-0.606
Mof_C 	C 	0.5617	0.48263	0.87128	0.429
Mof_O 	O 	0.51519	0.49284	0.93099	-0.683
Mof_C 	C 	0.5048	0.52012	0.81784	-0.088
Mof_C 	C 	0.5255	0.50559	0.75251	0.026
Mof_H 	H 	0.5741	0.4721	0.7413	0.032
Mof_C 	C 	0.4427	0.57163	0.83399	-0.123
Mof_H 	H 	0.4323	0.5813	0.8781	0.063
Mof_C 	C 	0.2508	0.29797	0.06107	-0.004
Mof_H 	H 	0.1961	0.3305	0.0731	0.015
Mof_C 	C 	0.4721	0.54207	0.70374	-0.09
Mof_C 	C 	0.3961	0.60871	0.7858	0.22
Mof_C 	C 	0.4065	0.59263	0.72103	-0.14
Mof_H 	H 	0.3687	0.6163	0.6881	0.077
Mof_C 	C 	0.3383	0.66504	0.80385	-0.695
Mof_H 	H 	0.4438	0.6885	0.802	0.214
Mof_H 	H 	0.2458	0.6774	0.7735	0.215
Mof_H 	H 	0.2884	0.6652	0.8476	0.217
Mof_C 	C 	0.4863	0.5278	0.63248	0.473
Mof_O 	O 	0.37234	0.55036	0.59414	-0.589
Mof_O 	O 	0.6091	0.49549	0.61445	-0.584
Mof_H 	H 	0.8918	0.2292	0.0837	-0.007
Mof_H 	H 	0.9331	0.2864	0.1133	-0.147
Mof_H 	H 	0.9879	0.2344	0.1526	0.007
Mof_H 	H 	0.9053	0.2303	0.1243	0.042
Mof_H 	H 	0.98	0.2865	0.1477	0.042
Mof_H 	H 	0.068	0.2333	0.1752	-0.015
Mof_H 	H 	0.8767	0.233	0.0502	0.008
Mof_H 	H 	0.8917	0.2865	0.091	0.127
Mof_H 	H 	0.9047	0.2305	0.1266	0.064
Mof_Eu	Eu	0.265	0.53778	0.48574	2.416
Mof_Zn	Zn	0.7198	0.59903	0.42403	1.222
Mof_O 	O 	0.6086	0.55085	0.48925	-0.974
Mof_H 	H 	0.6111	0.5669	0.5262	0.282
Mof_O 	O 	0.8427	0.55758	0.35578	-0.523
Mof_O 	O 	0.5511	0.64929	0.38341	-0.522
Mof_O 	O 	0.2863	0.61178	0.41398	-0.566
Mof_C 	C 	0.2822	0.70174	0.37336	0.102
Mof_C 	C 	0.3786	0.65004	0.39119	0.379
Mof_C 	C 	0.103	0.70194	0.34853	-0.535
Mof_H 	H 	0.0422	0.6694	0.3414	0.198
Mof_H 	H 	0.743	0.7725	0.3295	0.351
Mof_H 	H 	0.7765	0.7138	0.303	0.336
Mof_H 	H 	0.8313	0.7637	0.2598	0.34
Mof_O 	O 	0.8482	0.65372	0.4746	-0.533
Mof_C 	C 	0.9952	0.64988	0.507	0.47
Mof_C 	C 	0.0825	0.70149	0.52796	-0.152
Mof_O 	O 	0.0705	0.6061	0.52256	-0.602
Mof_C 	C 	0.9383	0.51737	0.37128	0.429
Mof_O 	O 	0.98481	0.50716	0.43099	-0.685
Mof_C 	C 	0.9952	0.47988	0.31784	-0.087
Mof_C 	C 	0.9745	0.49441	0.25251	0.027
Mof_H 	H 	0.9259	0.5279	0.2413	0.031
Mof_C 	C 	0.0573	0.42837	0.33399	-0.123
Mof_H 	H 	0.0677	0.4187	0.3781	0.062
Mof_C 	C 	0.2492	0.70203	0.56107	-0.021
Mof_H 	H 	0.3039	0.6695	0.5731	0.02
Mof_C 	C 	0.0279	0.45793	0.20374	-0.091
Mof_C 	C 	0.1039	0.39129	0.2858	0.217
Mof_C 	C 	0.0935	0.40737	0.22103	-0.139
Mof_H 	H 	0.1313	0.3837	0.1881	0.076
Mof_C 	C 	0.1617	0.33496	0.30385	-0.69
Mof_H 	H 	0.0562	0.3115	0.302	0.211
Mof_H 	H 	0.2542	0.3226	0.2735	0.213
Mof_H 	H 	0.2116	0.3348	0.3476	0.215
Mof_C 	C 	0.0137	0.4722	0.13248	0.475
Mof_O 	O 	0.12766	0.44964	0.09414	-0.588
Mof_O 	O 	0.8909	0.50451	0.11445	-0.586
Mof_H 	H 	0.6082	0.7708	0.5837	-0.008
Mof_H 	H 	0.5669	0.7136	0.6133	-0.148
Mof_H 	H 	0.5121	0.7656	0.6526	0.009
Mof_H 	H 	0.5947	0.7697	0.6243	0.043
Mof_H 	H 	0.52	0.7135	0.6477	0.04
Mof_H 	H 	0.432	0.7667	0.6752	-0.013
Mof_H 	H 	0.6233	0.767	0.5502	0.008
Mof_H 	H 	0.6083	0.7135	0.591	0.129
Mof_H 	H 	0.5953	0.7695	0.6266	0.065
Mof_Eu	Eu	0.235	0.03778	0.98574	2.407
Mof_Zn	Zn	0.7802	0.09903	0.92403	1.223
Mof_O 	O 	0.8914	0.05085	0.98925	-0.966
Mof_H 	H 	0.8889	0.0669	0.0262	0.278
Mof_O 	O 	0.6573	0.05758	0.85578	-0.522
Mof_O 	O 	0.9489	0.14929	0.88341	-0.515
Mof_O 	O 	0.2137	0.11178	0.91398	-0.565
Mof_C 	C 	0.2178	0.20174	0.87336	0.1
Mof_C 	C 	0.1214	0.15004	0.89119	0.372
Mof_C 	C 	0.397	0.20194	0.84853	-0.529
Mof_H 	H 	0.4578	0.1694	0.8414	0.195
Mof_H 	H 	0.757	0.2725	0.8295	0.349
Mof_H 	H 	0.7235	0.2138	0.803	0.333
Mof_H 	H 	0.6687	0.2637	0.7598	0.337
Mof_O 	O 	0.6518	0.15372	0.9746	-0.534
Mof_C 	C 	0.5048	0.14988	0.007	0.485
Mof_C 	C 	0.4175	0.20149	0.02796	-0.174
Mof_O 	O 	0.4295	0.1061	0.02256	-0.606
Mof_C 	C 	0.5617	0.01737	0.87128	0.429
Mof_O 	O 	0.51519	0.00716	0.93099	-0.683
Mof_C 	C 	0.5048	0.97988	0.81784	-0.087
Mof_C 	C 	0.5255	0.99441	0.75251	0.027
Mof_H 	H 	0.5741	0.0279	0.7413	0.032
Mof_C 	C 	0.4427	0.92837	0.83399	-0.123
Mof_H 	H 	0.4323	0.9187	0.8781	0.063
Mof_C 	C 	0.2508	0.20203	0.06107	-0.004
Mof_H 	H 	0.1961	0.1695	0.0731	0.015
Mof_C 	C 	0.4721	0.95793	0.70374	-0.09
Mof_C 	C 	0.3961	0.89129	0.7858	0.22
Mof_C 	C 	0.4065	0.90737	0.72103	-0.14
Mof_H 	H 	0.3687	0.8837	0.6881	0.077
Mof_C 	C 	0.3383	0.83496	0.80385	-0.695
Mof_H 	H 	0.4438	0.8115	0.802	0.214
Mof_H 	H 	0.2458	0.8226	0.7735	0.216
Mof_H 	H 	0.2884	0.8348	0.8476	0.217
Mof_C 	C 	0.4863	0.9722	0.63248	0.473
Mof_O 	O 	0.37234	0.94964	0.59414	-0.589
Mof_O 	O 	0.6091	0.00451	0.61445	-0.585
Mof_H 	H 	0.8918	0.2708	0.0837	-0.007
Mof_H 	H 	0.9331	0.2136	0.1133	-0.147
Mof_H 	H 	0.9879	0.2656	0.1526	0.007
Mof_H 	H 	0.9053	0.2697	0.1243	0.043
Mof_H 	H 	0.98	0.2135	0.1477	0.042
Mof_H 	H 	0.068	0.2667	0.1752	-0.015
Mof_H 	H 	0.8767	0.267	0.0502	0.008
Mof_H 	H 	0.8917	0.2135	0.091	0.127
Mof_H 	H 	0.9047	0.2695	0.1266	0.064
Mof_Eu	Eu	0.265	0.96222	0.48574	2.417
Mof_Zn	Zn	0.7198	0.90097	0.42403	1.222
Mof_O 	O 	0.6086	0.94915	0.48925	-0.975
Mof_H 	H 	0.6111	0.9331	0.5262	0.282
Mof_O 	O 	0.8427	0.94242	0.35578	-0.523
Mof_O 	O 	0.5511	0.85071	0.38341	-0.522
Mof_O 	O 	0.2863	0.88822	0.41398	-0.567
Mof_C 	C 	0.2822	0.79826	0.37336	0.102
Mof_C 	C 	0.3786	0.84996	0.39119	0.379
Mof_C 	C 	0.103	0.79806	0.34853	-0.535
Mof_H 	H 	0.0422	0.8306	0.3414	0.199
Mof_H 	H 	0.743	0.7275	0.3295	0.351
Mof_H 	H 	0.7765	0.7862	0.303	0.336
Mof_H 	H 	0.8313	0.7363	0.2598	0.341
Mof_O 	O 	0.8482	0.84628	0.4746	-0.533
Mof_C 	C 	0.9952	0.85012	0.507	0.47
Mof_C 	C 	0.0825	0.79851	0.52796	-0.152
Mof_O 	O 	0.0705	0.8939	0.52256	-0.602
Mof_C 	C 	0.9383	0.98263	0.37128	0.429
Mof_O 	O 	0.98481	0.99284	0.43099	-0.685
Mof_C 	C 	0.9952	0.02012	0.31784	-0.087
Mof_C 	C 	0.9745	0.00559	0.25251	0.029
Mof_H 	H 	0.9259	0.9721	0.2413	0.03
Mof_C 	C 	0.0573	0.07163	0.33399	-0.123
Mof_H 	H 	0.0677	0.0813	0.3781	0.062
Mof_C 	C 	0.2492	0.79797	0.56107	-0.021
Mof_H 	H 	0.3039	0.8305	0.5731	0.02
Mof_C 	C 	0.0279	0.04207	0.20374	-0.093
Mof_C 	C 	0.1039	0.10871	0.2858	0.217
Mof_C 	C 	0.0935	0.09263	0.22103	-0.138
Mof_H 	H 	0.1313	0.1163	0.1881	0.076
Mof_C 	C 	0.1617	0.16504	0.30385	-0.69
Mof_H 	H 	0.0562	0.1885	0.302	0.211
Mof_H 	H 	0.2542	0.1774	0.2735	0.213
Mof_H 	H 	0.2116	0.1652	0.3476	0.214
Mof_C 	C 	0.0137	0.0278	0.13248	0.476
Mof_O 	O 	0.12766	0.05036	0.09414	-0.588
Mof_O 	O 	0.8909	0.99549	0.11445	-0.587
Mof_H 	H 	0.6082	0.7292	0.5837	-0.008
Mof_H 	H 	0.5669	0.7864	0.6133	-0.148
Mof_H 	H 	0.5121	0.7344	0.6526	0.009
Mof_H 	H 	0.5947	0.7303	0.6243	0.043
Mof_H 	H 	0.52	0.7865	0.6477	0.04
Mof_H 	H 	0.432	0.7333	0.6752	-0.013
Mof_H 	H 	0.6233	0.733	0.5502	0.008
Mof_H 	H 	0.6083	0.7865	0.591	0.129
Mof_H 	H 	0.5953	0.7305	0.6266	0.065
Mof_Eu	Eu	0.765	0.53778	0.01426	2.408
Mof_Zn	Zn	0.2198	0.59903	0.07597	1.223
Mof_O 	O 	0.1086	0.55085	0.01075	-0.966
Mof_H 	H 	0.1111	0.5669	0.9738	0.277
Mof_O 	O 	0.3427	0.55758	0.14422	-0.522
Mof_O 	O 	0.0511	0.64929	0.11659	-0.515
Mof_O 	O 	0.7863	0.61178	0.08602	-0.565
Mof_C 	C 	0.7822	0.70174	0.12664	0.1
Mof_C 	C 	0.8786	0.65004	0.10881	0.372
Mof_C 	C 	0.603	0.70194	0.15147	-0.529
Mof_H 	H 	0.5422	0.6694	0.1586	0.195
Mof_H 	H 	0.243	0.7725	0.1705	0.349
Mof_H 	H 	0.2765	0.7138	0.197	0.333
Mof_H 	H 	0.3313	0.7637	0.2402	0.337
Mof_O 	O 	0.3482	0.65372	0.0254	-0.534
Mof_C 	C 	0.4952	0.64988	0.993	0.484
Mof_C 	C 	0.5825	0.70149	0.97204	-0.174
Mof_O 	O 	0.5705	0.6061	0.97744	-0.606
Mof_C 	C 	0.4383	0.51737	0.12872	0.429
Mof_O 	O 	0.48481	0.50716	0.06901	-0.683
Mof_C 	C 	0.4952	0.47988	0.18216	-0.088
Mof_C 	C 	0.4745	0.49441	0.24749	0.026
Mof_H 	H 	0.4259	0.5279	0.2587	0.032
Mof_C 	C 	0.5573	0.42837	0.16601	-0.123
Mof_H 	H 	0.5677	0.4187	0.1219	0.063
Mof_C 	C 	0.7492	0.70203	0.93893	-0.004
Mof_H 	H 	0.8039	0.6695	0.9269	0.015
Mof_C 	C 	0.5279	0.45793	0.29626	-0.09
Mof_C 	C 	0.6039	0.39129	0.2142	0.22
Mof_C 	C 	0.5935	0.40737	0.27897	-0.14
Mof_H 	H 	0.6313	0.3837	0.3119	0.077
Mof_C 	C 	0.6617	0.33496	0.19615	-0.695
Mof_H 	H 	0.5562	0.3115	0.198	0.214
Mof_H 	H 	0.7542	0.3226	0.2265	0.215
Mof_H 	H 	0.7116	0.3348	0.1524	0.217
Mof_C 	C 	0.5137	0.4722	0.36752	0.473
Mof_O 	O 	0.62766	0.44964	0.40586	-0.589
Mof_O 	O 	0.3909	0.50451	0.38555	-0.584
Mof_H 	H 	0.1082	0.7708	0.9163	-0.007
Mof_H 	H 	0.0669	0.7136	0.8867	-0.147
Mof_H 	H 	0.0121	0.7656	0.8474	0.007
Mof_H 	H 	0.0947	0.7697	0.8757	0.042
Mof_H 	H 	0.02	0.7135	0.8523	0.042
Mof_H 	H 	0.932	0.7667	0.8248	-0.015
Mof_H 	H 	0.1233	0.767	0.9498	0.008
Mof_H 	H 	0.1083	0.7135	0.909	0.127
Mof_H 	H 	0.0953	0.7695	0.8734	0.064
Mof_Eu	Eu	0.735	0.46222	0.51426	2.416
Mof_Zn	Zn	0.2802	0.40097	0.57597	1.222
Mof_O 	O 	0.3914	0.44915	0.51075	-0.974
Mof_H 	H 	0.3889	0.4331	0.4738	0.282
Mof_O 	O 	0.1573	0.44242	0.64422	-0.523
Mof_O 	O 	0.4489	0.35071	0.61659	-0.522
Mof_O 	O 	0.7137	0.38822	0.58602	-0.566
Mof_C 	C 	0.7178	0.29826	0.62664	0.102
Mof_C 	C 	0.6214	0.34996	0.60881	0.379
Mof_C 	C 	0.897	0.29806	0.65147	-0.535
Mof_H 	H 	0.9578	0.3306	0.6586	0.198
Mof_H 	H 	0.257	0.2275	0.6705	0.351
Mof_H 	H 	0.2235	0.2862	0.697	0.336
Mof_H 	H 	0.1687	0.2363	0.7402	0.34
Mof_O 	O 	0.1518	0.34628	0.5254	-0.533
Mof_C 	C 	0.0048	0.35012	0.493	0.47
Mof_C 	C 	0.9175	0.29851	0.47204	-0.152
Mof_O 	O 	0.9295	0.3939	0.47744	-0.602
Mof_C 	C 	0.0617	0.48263	0.62872	0.429
Mof_O 	O 	0.01519	0.49284	0.56901	-0.685
Mof_C 	C 	0.0048	0.52012	0.68216	-0.087
Mof_C 	C 	0.0255	0.50559	0.74749	0.027
Mof_H 	H 	0.0741	0.4721	0.7587	0.031
Mof_C 	C 	0.9427	0.57163	0.66601	-0.123
Mof_H 	H 	0.9323	0.5813	0.6219	0.062
Mof_C 	C 	0.7508	0.29797	0.43893	-0.021
Mof_H 	H 	0.6961	0.3305	0.4269	0.02
Mof_C 	C 	0.9721	0.54207	0.79626	-0.091
Mof_C 	C 	0.8961	0.60871	0.7142	0.217
Mof_C 	C 	0.9065	0.59263	0.77897	-0.139
Mof_H 	H 	0.8687	0.6163	0.8119	0.076
Mof_C 	C 	0.8383	0.66504	0.69615	-0.69
Mof_H 	H 	0.9438	0.6885	0.698	0.211
Mof_H 	H 	0.7458	0.6774	0.7265	0.213
Mof_H 	H 	0.7884	0.6652	0.6524	0.215
Mof_C 	C 	0.9863	0.5278	0.86752	0.475
Mof_O 	O 	0.87234	0.55036	0.90586	-0.588
Mof_O 	O 	0.1091	0.49549	0.88555	-0.586
Mof_H 	H 	0.3918	0.2292	0.4163	-0.008
Mof_H 	H 	0.4331	0.2864	0.3867	-0.148
Mof_H 	H 	0.4879	0.2344	0.3474	0.009
Mof_H 	H 	0.4053	0.2303	0.3757	0.043
Mof_H 	H 	0.48	0.2865	0.3523	0.04
Mof_H 	H 	0.568	0.2333	0.3248	-0.013
Mof_H 	H 	0.3767	0.233	0.4498	0.008
Mof_H 	H 	0.3917	0.2865	0.409	0.129
Mof_H 	H 	0.4047	0.2305	0.3734	0.065
Mof_C 	C 	0.8734	0.75	0.11546	-0.206
Mof_H 	H 	0.9951	0.75	0.1005	0.077
Mof_C 	C 	0.5136	0.75	0.16575	0.76
Mof_C 	C 	0.324	0.75	0.19609	-2.028
Mof_C 	C 	0.4996	0.75	0.98886	0.088
Mof_H 	H 	0.3878	0.75	0.0116	0.013
Mof_C 	C 	0.8362	0.75	0.9233	0.029
Mof_C 	C 	0.0227	0.75	0.8904	-0.201
Mof_C 	C 	0.986	0.75	0.8628	0.001
Mof_C 	C 	0.065	0.75	0.9128	-0.076
Mof_C 	C 	0.6266	0.25	0.61546	-0.206
Mof_H 	H 	0.5049	0.25	0.6005	0.08
Mof_C 	C 	0.9864	0.25	0.66575	0.773
Mof_C 	C 	0.176	0.25	0.69609	-2.051
Mof_C 	C 	0.0004	0.25	0.48886	0.059
Mof_H 	H 	0.1122	0.25	0.5116	0.021
Mof_C 	C 	0.6638	0.25	0.4233	0.043
Mof_C 	C 	0.4773	0.25	0.3904	-0.201
Mof_C 	C 	0.514	0.25	0.3628	-0.007
Mof_C 	C 	0.435	0.25	0.4128	-0.077
Mof_C 	C 	0.1266	0.25	0.88454	-0.206
Mof_H 	H 	0.0049	0.25	0.8995	0.077
Mof_C 	C 	0.4864	0.25	0.83425	0.76
Mof_C 	C 	0.676	0.25	0.80391	-2.028
Mof_C 	C 	0.5004	0.25	0.01114	0.088
Mof_H 	H 	0.6122	0.25	0.9884	0.013
Mof_C 	C 	0.1638	0.25	0.0767	0.029
Mof_C 	C 	0.9773	0.25	0.1096	-0.201
Mof_C 	C 	0.014	0.25	0.1372	0.001
Mof_C 	C 	0.935	0.25	0.0872	-0.076
Mof_C 	C 	0.3734	0.75	0.38454	-0.206
Mof_H 	H 	0.4951	0.75	0.3995	0.08
Mof_C 	C 	0.0136	0.75	0.33425	0.773
Mof_C 	C 	0.824	0.75	0.30391	-2.051
Mof_C 	C 	0.9996	0.75	0.51114	0.059
Mof_H 	H 	0.8878	0.75	0.4884	0.021
Mof_C 	C 	0.3362	0.75	0.5767	0.043
Mof_C 	C 	0.5227	0.75	0.6096	-0.201
Mof_C 	C 	0.486	0.75	0.6372	-0.007
Mof_C 	C 	0.565	0.75	0.5872	-0.077
_end
