data_functionalizedCrystal
_audit_creation_method	'EQeq! by Chris Wilmer'
_symmetry_space_group_name_H-M	'P1'
_symmetry_Int_Tables_number	1
_symmetry_cell_setting	triclinic
loop_
_symmetry_equiv_pos_as_xyz
  x,y,z
_cell_length_a	20.1401
_cell_length_b	20.1401
_cell_length_c	20.1401
_cell_angle_alpha	90
_cell_angle_beta	90
_cell_angle_gamma	90
loop_
_atom_site_label
_atom_site_type_symbol
_atom_site_fract_x
_atom_site_fract_y
_atom_site_fract_z
_atom_site_charge
Mof_O 	O 	0.9538	0.5386	0.0942	-0.543
Mof_O 	O 	0.871	0.478	0.1246	-0.505
Mof_C 	C 	0.9051	0.5269	0.1297	0.515
Mof_C 	C 	0.8557	0.5591	0.183	-0.143
Mof_C 	C 	0.8821	0.6164	0.2111	0.088
Mof_H 	H 	0.9212	0.6344	0.1944	-0.045
Mof_C 	C 	0.8501	0.6467	0.2642	-0.03
Mof_C 	C 	0.7916	0.6198	0.2892	0.01
Mof_C 	C 	0.7652	0.5625	0.261	-0.135
Mof_H 	H 	0.7261	0.5445	0.2777	0.097
Mof_C 	C 	0.7972	0.5322	0.2079	0.145
Mof_H 	H 	0.7795	0.494	0.1891	0.001
Mof_C 	C 	0.8963	0.5827	0.1801	-0.189
Mof_C 	C 	0.9398	0.636	0.1844	0.162
Mof_H 	H 	0.9746	0.6399	0.1542	-0.017
Mof_C 	C 	0.9314	0.6836	0.2336	-0.194
Mof_H 	H 	0.9605	0.7193	0.2364	0.049
Mof_C 	C 	0.8794	0.6779	0.2786	0.179
Mof_C 	C 	0.8358	0.6246	0.2744	-0.164
Mof_C 	C 	0.8442	0.5769	0.2251	0.211
Mof_H 	H 	0.8151	0.5412	0.2223	-0.09
Mof_O 	O 	0.5462	0.4614	0.5942	-0.544
Mof_O 	O 	0.629	0.522	0.6246	-0.507
Mof_C 	C 	0.5949	0.4731	0.6297	0.515
Mof_C 	C 	0.6443	0.4409	0.683	-0.139
Mof_C 	C 	0.6179	0.3836	0.7111	0.094
Mof_H 	H 	0.5788	0.3656	0.6944	-0.044
Mof_C 	C 	0.6499	0.3533	0.7642	-0.033
Mof_C 	C 	0.7084	0.3802	0.7892	0.019
Mof_C 	C 	0.7348	0.4375	0.761	-0.14
Mof_H 	H 	0.7739	0.4555	0.7777	0.096
Mof_C 	C 	0.7028	0.4678	0.7079	0.145
Mof_H 	H 	0.7205	0.506	0.6891	0.001
Mof_C 	C 	0.6037	0.4173	0.6801	-0.198
Mof_C 	C 	0.5602	0.364	0.6844	0.158
Mof_H 	H 	0.5254	0.3601	0.6542	-0.017
Mof_C 	C 	0.5686	0.3164	0.7336	-0.2
Mof_H 	H 	0.5395	0.2807	0.7364	0.049
Mof_C 	C 	0.6206	0.3221	0.7786	0.187
Mof_C 	C 	0.6642	0.3754	0.7744	-0.172
Mof_C 	C 	0.6558	0.4231	0.7251	0.209
Mof_H 	H 	0.6849	0.4588	0.7223	-0.09
Mof_O 	O 	0.0462	0.0386	0.4058	-0.544
Mof_O 	O 	0.129	0.978	0.3754	-0.505
Mof_C 	C 	0.0949	0.0269	0.3703	0.514
Mof_C 	C 	0.1443	0.0591	0.317	-0.156
Mof_C 	C 	0.1179	0.1164	0.2889	0.079
Mof_H 	H 	0.0788	0.1344	0.3056	-0.047
Mof_C 	C 	0.1499	0.1467	0.2358	-0.036
Mof_C 	C 	0.2084	0.1198	0.2108	0.014
Mof_C 	C 	0.2348	0.0625	0.239	-0.138
Mof_H 	H 	0.2739	0.0445	0.2223	0.096
Mof_C 	C 	0.2028	0.0322	0.2921	0.137
Mof_H 	H 	0.2205	0.994	0.3109	0.004
Mof_C 	C 	0.1037	0.0827	0.3199	-0.179
Mof_C 	C 	0.0602	0.136	0.3156	0.164
Mof_H 	H 	0.0254	0.1399	0.3458	-0.019
Mof_C 	C 	0.0686	0.1836	0.2664	-0.196
Mof_H 	H 	0.0395	0.2193	0.2636	0.048
Mof_C 	C 	0.1206	0.1779	0.2214	0.183
Mof_C 	C 	0.1642	0.1246	0.2256	-0.164
Mof_C 	C 	0.1558	0.0769	0.2749	0.222
Mof_H 	H 	0.1849	0.0412	0.2777	-0.086
Mof_O 	O 	0.4538	0.9614	0.9058	-0.543
Mof_O 	O 	0.371	0.022	0.8754	-0.503
Mof_C 	C 	0.4051	0.9731	0.8703	0.512
Mof_C 	C 	0.3557	0.9409	0.817	-0.185
Mof_C 	C 	0.3821	0.8836	0.7889	0.054
Mof_H 	H 	0.4212	0.8656	0.8056	-0.053
Mof_C 	C 	0.3501	0.8533	0.7358	-0.044
Mof_C 	C 	0.2916	0.8802	0.7108	0.012
Mof_C 	C 	0.2652	0.9375	0.739	-0.138
Mof_H 	H 	0.2261	0.9555	0.7223	0.097
Mof_C 	C 	0.2972	0.9678	0.7921	0.123
Mof_H 	H 	0.2795	0.006	0.8109	0.009
Mof_C 	C 	0.3963	0.9173	0.8199	-0.148
Mof_C 	C 	0.4398	0.864	0.8156	0.174
Mof_H 	H 	0.4746	0.8601	0.8458	-0.024
Mof_C 	C 	0.4314	0.8164	0.7664	-0.195
Mof_H 	H 	0.4605	0.7807	0.7636	0.048
Mof_C 	C 	0.3794	0.8221	0.7214	0.187
Mof_C 	C 	0.3358	0.8754	0.7256	-0.156
Mof_C 	C 	0.3442	0.9231	0.7749	0.245
Mof_H 	H 	0.3151	0.9588	0.7777	-0.078
Mof_O 	O 	0.0942	0.9538	0.5386	-0.544
Mof_O 	O 	0.1246	0.871	0.478	-0.506
Mof_C 	C 	0.1297	0.9051	0.5269	0.514
Mof_C 	C 	0.183	0.8557	0.5591	-0.144
Mof_C 	C 	0.2111	0.8821	0.6164	0.087
Mof_H 	H 	0.1944	0.9212	0.6344	-0.046
Mof_C 	C 	0.2642	0.8501	0.6467	-0.031
Mof_C 	C 	0.2892	0.7916	0.6198	0.009
Mof_C 	C 	0.261	0.7652	0.5625	-0.136
Mof_H 	H 	0.2777	0.7261	0.5445	0.096
Mof_C 	C 	0.2079	0.7972	0.5322	0.144
Mof_H 	H 	0.1891	0.7795	0.494	-0
Mof_C 	C 	0.1801	0.8963	0.5827	-0.19
Mof_C 	C 	0.1844	0.9398	0.636	0.161
Mof_H 	H 	0.1542	0.9746	0.6399	-0.018
Mof_C 	C 	0.2336	0.9314	0.6836	-0.195
Mof_H 	H 	0.2364	0.9605	0.7193	0.048
Mof_C 	C 	0.2786	0.8794	0.6779	0.178
Mof_C 	C 	0.2744	0.8358	0.6246	-0.164
Mof_C 	C 	0.2251	0.8442	0.5769	0.211
Mof_H 	H 	0.2223	0.8151	0.5412	-0.09
Mof_O 	O 	0.5942	0.5462	0.4614	-0.544
Mof_O 	O 	0.6246	0.629	0.522	-0.507
Mof_C 	C 	0.6297	0.5949	0.4731	0.515
Mof_C 	C 	0.683	0.6443	0.4409	-0.139
Mof_C 	C 	0.7111	0.6179	0.3836	0.094
Mof_H 	H 	0.6944	0.5788	0.3656	-0.044
Mof_C 	C 	0.7642	0.6499	0.3533	-0.033
Mof_C 	C 	0.7892	0.7084	0.3802	0.019
Mof_C 	C 	0.761	0.7348	0.4375	-0.14
Mof_H 	H 	0.7777	0.7739	0.4555	0.096
Mof_C 	C 	0.7079	0.7028	0.4678	0.145
Mof_H 	H 	0.6891	0.7205	0.506	0.001
Mof_C 	C 	0.6801	0.6037	0.4173	-0.198
Mof_C 	C 	0.6844	0.5602	0.364	0.158
Mof_H 	H 	0.6542	0.5254	0.3601	-0.017
Mof_C 	C 	0.7336	0.5686	0.3164	-0.2
Mof_H 	H 	0.7364	0.5395	0.2807	0.049
Mof_C 	C 	0.7786	0.6206	0.3221	0.187
Mof_C 	C 	0.7744	0.6642	0.3754	-0.172
Mof_C 	C 	0.7251	0.6558	0.4231	0.209
Mof_H 	H 	0.7223	0.6849	0.4588	-0.09
Mof_O 	O 	0.4058	0.0462	0.0386	-0.544
Mof_O 	O 	0.3754	0.129	0.978	-0.505
Mof_C 	C 	0.3703	0.0949	0.0269	0.514
Mof_C 	C 	0.317	0.1443	0.0591	-0.156
Mof_C 	C 	0.2889	0.1179	0.1164	0.079
Mof_H 	H 	0.3056	0.0788	0.1344	-0.047
Mof_C 	C 	0.2358	0.1499	0.1467	-0.036
Mof_C 	C 	0.2108	0.2084	0.1198	0.014
Mof_C 	C 	0.239	0.2348	0.0625	-0.138
Mof_H 	H 	0.2223	0.2739	0.0445	0.096
Mof_C 	C 	0.2921	0.2028	0.0322	0.137
Mof_H 	H 	0.3109	0.2205	0.994	0.004
Mof_C 	C 	0.3199	0.1037	0.0827	-0.179
Mof_C 	C 	0.3156	0.0602	0.136	0.164
Mof_H 	H 	0.3458	0.0254	0.1399	-0.019
Mof_C 	C 	0.2664	0.0686	0.1836	-0.196
Mof_H 	H 	0.2636	0.0395	0.2193	0.048
Mof_C 	C 	0.2214	0.1206	0.1779	0.183
Mof_C 	C 	0.2256	0.1642	0.1246	-0.164
Mof_C 	C 	0.2749	0.1558	0.0769	0.222
Mof_H 	H 	0.2777	0.1849	0.0412	-0.086
Mof_O 	O 	0.9058	0.4538	0.9614	-0.543
Mof_O 	O 	0.8754	0.371	0.022	-0.503
Mof_C 	C 	0.8703	0.4051	0.9731	0.512
Mof_C 	C 	0.817	0.3557	0.9409	-0.185
Mof_C 	C 	0.7889	0.3821	0.8836	0.054
Mof_H 	H 	0.8056	0.4212	0.8656	-0.053
Mof_C 	C 	0.7358	0.3501	0.8533	-0.044
Mof_C 	C 	0.7108	0.2916	0.8802	0.012
Mof_C 	C 	0.739	0.2652	0.9375	-0.138
Mof_H 	H 	0.7223	0.2261	0.9555	0.097
Mof_C 	C 	0.7921	0.2972	0.9678	0.123
Mof_H 	H 	0.8109	0.2795	0.006	0.009
Mof_C 	C 	0.8199	0.3963	0.9173	-0.148
Mof_C 	C 	0.8156	0.4398	0.864	0.174
Mof_H 	H 	0.8458	0.4746	0.8601	-0.024
Mof_C 	C 	0.7664	0.4314	0.8164	-0.195
Mof_H 	H 	0.7636	0.4605	0.7807	0.048
Mof_C 	C 	0.7214	0.3794	0.8221	0.187
Mof_C 	C 	0.7256	0.3358	0.8754	-0.156
Mof_C 	C 	0.7749	0.3442	0.9231	0.245
Mof_H 	H 	0.7777	0.3151	0.9588	-0.078
Mof_O 	O 	0.5386	0.0942	0.9538	-0.544
Mof_O 	O 	0.478	0.1246	0.871	-0.506
Mof_C 	C 	0.5269	0.1297	0.9051	0.514
Mof_C 	C 	0.5591	0.183	0.8557	-0.144
Mof_C 	C 	0.6164	0.2111	0.8821	0.087
Mof_H 	H 	0.6344	0.1944	0.9212	-0.046
Mof_C 	C 	0.6467	0.2642	0.8501	-0.031
Mof_C 	C 	0.6198	0.2892	0.7916	0.009
Mof_C 	C 	0.5625	0.261	0.7652	-0.136
Mof_H 	H 	0.5445	0.2777	0.7261	0.096
Mof_C 	C 	0.5322	0.2079	0.7972	0.144
Mof_H 	H 	0.494	0.1891	0.7795	-0
Mof_C 	C 	0.5827	0.1801	0.8963	-0.19
Mof_C 	C 	0.636	0.1844	0.9398	0.161
Mof_H 	H 	0.6399	0.1542	0.9746	-0.018
Mof_C 	C 	0.6836	0.2336	0.9314	-0.195
Mof_H 	H 	0.7193	0.2364	0.9605	0.048
Mof_C 	C 	0.6779	0.2786	0.8794	0.178
Mof_C 	C 	0.6246	0.2744	0.8358	-0.164
Mof_C 	C 	0.5769	0.2251	0.8442	0.211
Mof_H 	H 	0.5412	0.2223	0.8151	-0.09
Mof_O 	O 	0.4614	0.5942	0.5462	-0.544
Mof_O 	O 	0.522	0.6246	0.629	-0.507
Mof_C 	C 	0.4731	0.6297	0.5949	0.515
Mof_C 	C 	0.4409	0.683	0.6443	-0.139
Mof_C 	C 	0.3836	0.7111	0.6179	0.094
Mof_H 	H 	0.3656	0.6944	0.5788	-0.044
Mof_C 	C 	0.3533	0.7642	0.6499	-0.033
Mof_C 	C 	0.3802	0.7892	0.7084	0.019
Mof_C 	C 	0.4375	0.761	0.7348	-0.14
Mof_H 	H 	0.4555	0.7777	0.7739	0.096
Mof_C 	C 	0.4678	0.7079	0.7028	0.145
Mof_H 	H 	0.506	0.6891	0.7205	0.001
Mof_C 	C 	0.4173	0.6801	0.6037	-0.198
Mof_C 	C 	0.364	0.6844	0.5602	0.158
Mof_H 	H 	0.3601	0.6542	0.5254	-0.017
Mof_C 	C 	0.3164	0.7336	0.5686	-0.2
Mof_H 	H 	0.2807	0.7364	0.5395	0.049
Mof_C 	C 	0.3221	0.7786	0.6206	0.187
Mof_C 	C 	0.3754	0.7744	0.6642	-0.172
Mof_C 	C 	0.4231	0.7251	0.6558	0.209
Mof_H 	H 	0.4588	0.7223	0.6849	-0.09
Mof_O 	O 	0.0386	0.4058	0.0462	-0.544
Mof_O 	O 	0.978	0.3754	0.129	-0.505
Mof_C 	C 	0.0269	0.3703	0.0949	0.514
Mof_C 	C 	0.0591	0.317	0.1443	-0.156
Mof_C 	C 	0.1164	0.2889	0.1179	0.079
Mof_H 	H 	0.1344	0.3056	0.0788	-0.047
Mof_C 	C 	0.1467	0.2358	0.1499	-0.036
Mof_C 	C 	0.1198	0.2108	0.2084	0.014
Mof_C 	C 	0.0625	0.239	0.2348	-0.138
Mof_H 	H 	0.0445	0.2223	0.2739	0.096
Mof_C 	C 	0.0322	0.2921	0.2028	0.137
Mof_H 	H 	0.994	0.3109	0.2205	0.004
Mof_C 	C 	0.0827	0.3199	0.1037	-0.179
Mof_C 	C 	0.136	0.3156	0.0602	0.164
Mof_H 	H 	0.1399	0.3458	0.0254	-0.019
Mof_C 	C 	0.1836	0.2664	0.0686	-0.196
Mof_H 	H 	0.2193	0.2636	0.0395	0.048
Mof_C 	C 	0.1779	0.2214	0.1206	0.183
Mof_C 	C 	0.1246	0.2256	0.1642	-0.164
Mof_C 	C 	0.0769	0.2749	0.1558	0.222
Mof_H 	H 	0.0412	0.2777	0.1849	-0.086
Mof_O 	O 	0.9614	0.9058	0.4538	-0.543
Mof_O 	O 	0.022	0.8754	0.371	-0.503
Mof_C 	C 	0.9731	0.8703	0.4051	0.512
Mof_C 	C 	0.9409	0.817	0.3557	-0.185
Mof_C 	C 	0.8836	0.7889	0.3821	0.054
Mof_H 	H 	0.8656	0.8056	0.4212	-0.053
Mof_C 	C 	0.8533	0.7358	0.3501	-0.044
Mof_C 	C 	0.8802	0.7108	0.2916	0.012
Mof_C 	C 	0.9375	0.739	0.2652	-0.138
Mof_H 	H 	0.9555	0.7223	0.2261	0.097
Mof_C 	C 	0.9678	0.7921	0.2972	0.123
Mof_H 	H 	0.006	0.8109	0.2795	0.009
Mof_C 	C 	0.9173	0.8199	0.3963	-0.148
Mof_C 	C 	0.864	0.8156	0.4398	0.174
Mof_H 	H 	0.8601	0.8458	0.4746	-0.024
Mof_C 	C 	0.8164	0.7664	0.4314	-0.195
Mof_H 	H 	0.7807	0.7636	0.4605	0.048
Mof_C 	C 	0.8221	0.7214	0.3794	0.187
Mof_C 	C 	0.8754	0.7256	0.3358	-0.156
Mof_C 	C 	0.9231	0.7749	0.3442	0.245
Mof_H 	H 	0.9588	0.7777	0.3151	-0.078
Mof_O 	O 	0.7886	0.7038	0.6558	-0.544
Mof_O 	O 	0.728	0.621	0.6254	-0.503
Mof_C 	C 	0.7769	0.6551	0.6203	0.511
Mof_C 	C 	0.8091	0.6057	0.567	-0.183
Mof_C 	C 	0.8664	0.6321	0.5389	0.06
Mof_H 	H 	0.8844	0.6712	0.5556	-0.051
Mof_C 	C 	0.8967	0.6001	0.4858	-0.049
Mof_C 	C 	0.8698	0.5416	0.4608	0.023
Mof_C 	C 	0.8125	0.5152	0.489	-0.143
Mof_H 	H 	0.7945	0.4761	0.4723	0.097
Mof_C 	C 	0.7822	0.5472	0.5421	0.123
Mof_H 	H 	0.744	0.5295	0.5609	0.009
Mof_C 	C 	0.8327	0.6463	0.5699	-0.153
Mof_C 	C 	0.886	0.6898	0.5656	0.171
Mof_H 	H 	0.8899	0.7246	0.5958	-0.023
Mof_C 	C 	0.9336	0.6814	0.5164	-0.199
Mof_H 	H 	0.9693	0.7105	0.5136	0.048
Mof_C 	C 	0.9279	0.6294	0.4714	0.196
Mof_C 	C 	0.8746	0.5858	0.4756	-0.162
Mof_C 	C 	0.8269	0.5942	0.5249	0.244
Mof_H 	H 	0.7912	0.5651	0.5277	-0.078
Mof_O 	O 	0.7114	0.2962	0.1558	-0.544
Mof_O 	O 	0.772	0.379	0.1254	-0.511
Mof_C 	C 	0.7231	0.3449	0.1203	0.52
Mof_C 	C 	0.6909	0.3943	0.067	-0.091
Mof_C 	C 	0.6336	0.3679	0.0389	0.131
Mof_H 	H 	0.6156	0.3288	0.0556	-0.035
Mof_C 	C 	0.6033	0.3999	0.9858	-0.017
Mof_C 	C 	0.6302	0.4584	0.9608	0.018
Mof_C 	C 	0.6875	0.4848	0.989	-0.137
Mof_H 	H 	0.7055	0.5239	0.9723	0.096
Mof_C 	C 	0.7178	0.4528	0.0421	0.169
Mof_H 	H 	0.756	0.4705	0.0609	-0.01
Mof_C 	C 	0.6673	0.3537	0.0699	-0.248
Mof_C 	C 	0.614	0.3102	0.0656	0.142
Mof_H 	H 	0.6101	0.2754	0.0958	-0.01
Mof_C 	C 	0.5664	0.3186	0.0164	-0.202
Mof_H 	H 	0.5307	0.2895	0.0136	0.049
Mof_C 	C 	0.5721	0.3706	0.9714	0.178
Mof_C 	C 	0.6254	0.4142	0.9756	-0.182
Mof_C 	C 	0.6731	0.4058	0.0249	0.17
Mof_H 	H 	0.7088	0.4349	0.0277	-0.104
Mof_O 	O 	0.2886	0.7962	0.3442	-0.544
Mof_O 	O 	0.228	0.879	0.3746	-0.501
Mof_C 	C 	0.2769	0.8449	0.3797	0.508
Mof_C 	C 	0.3091	0.8943	0.433	-0.191
Mof_C 	C 	0.3664	0.8679	0.4611	0.046
Mof_H 	H 	0.3844	0.8288	0.4444	-0.055
Mof_C 	C 	0.3967	0.8999	0.5142	-0.042
Mof_C 	C 	0.3698	0.9584	0.5392	0.001
Mof_C 	C 	0.3125	0.9848	0.511	-0.133
Mof_H 	H 	0.2945	0.0239	0.5277	0.096
Mof_C 	C 	0.2822	0.9528	0.4579	0.123
Mof_H 	H 	0.244	0.9705	0.4391	0.009
Mof_C 	C 	0.3327	0.8537	0.4301	-0.138
Mof_C 	C 	0.386	0.8102	0.4344	0.178
Mof_H 	H 	0.3899	0.7754	0.4042	-0.026
Mof_C 	C 	0.4336	0.8186	0.4836	-0.19
Mof_H 	H 	0.4693	0.7895	0.4864	0.047
Mof_C 	C 	0.4279	0.8706	0.5286	0.176
Mof_C 	C 	0.3746	0.9142	0.5244	-0.146
Mof_C 	C 	0.3269	0.9058	0.4751	0.248
Mof_H 	H 	0.2912	0.9349	0.4723	-0.079
Mof_O 	O 	0.2114	0.2038	0.8442	-0.544
Mof_O 	O 	0.272	0.121	0.8746	-0.505
Mof_C 	C 	0.2231	0.1551	0.8797	0.513
Mof_C 	C 	0.1909	0.1057	0.933	-0.151
Mof_C 	C 	0.1336	0.1321	0.9611	0.081
Mof_H 	H 	0.1156	0.1712	0.9444	-0.046
Mof_C 	C 	0.1033	0.1001	0.0142	-0.034
Mof_C 	C 	0.1302	0.0416	0.0392	0.014
Mof_C 	C 	0.1875	0.0152	0.011	-0.135
Mof_H 	H 	0.2055	0.9761	0.0277	0.095
Mof_C 	C 	0.2178	0.0472	0.9579	0.141
Mof_H 	H 	0.256	0.0295	0.9391	0.002
Mof_C 	C 	0.1673	0.1463	0.9301	-0.183
Mof_C 	C 	0.114	0.1898	0.9344	0.163
Mof_H 	H 	0.1101	0.2246	0.9042	-0.019
Mof_C 	C 	0.0664	0.1814	0.9836	-0.199
Mof_H 	H 	0.0307	0.2105	0.9864	0.048
Mof_C 	C 	0.0721	0.1294	0.0286	0.183
Mof_C 	C 	0.1254	0.0858	0.0244	-0.164
Mof_C 	C 	0.1731	0.0942	0.9751	0.218
Mof_H 	H 	0.2088	0.0651	0.9723	-0.089
Mof_O 	O 	0.2038	0.8442	0.2114	-0.544
Mof_O 	O 	0.121	0.8746	0.272	-0.505
Mof_C 	C 	0.1551	0.8797	0.2231	0.513
Mof_C 	C 	0.1057	0.933	0.1909	-0.151
Mof_C 	C 	0.1321	0.9611	0.1336	0.081
Mof_H 	H 	0.1712	0.9444	0.1156	-0.046
Mof_C 	C 	0.1001	0.0142	0.1033	-0.034
Mof_C 	C 	0.0416	0.0392	0.1302	0.014
Mof_C 	C 	0.0152	0.011	0.1875	-0.135
Mof_H 	H 	0.9761	0.0277	0.2055	0.095
Mof_C 	C 	0.0472	0.9579	0.2178	0.141
Mof_H 	H 	0.0295	0.9391	0.256	0.002
Mof_C 	C 	0.1463	0.9301	0.1673	-0.183
Mof_C 	C 	0.1898	0.9344	0.114	0.163
Mof_H 	H 	0.2246	0.9042	0.1101	-0.019
Mof_C 	C 	0.1814	0.9836	0.0664	-0.199
Mof_H 	H 	0.2105	0.9864	0.0307	0.048
Mof_C 	C 	0.1294	0.0286	0.0721	0.183
Mof_C 	C 	0.0858	0.0244	0.1254	-0.164
Mof_C 	C 	0.0942	0.9751	0.1731	0.218
Mof_H 	H 	0.0651	0.9723	0.2088	-0.089
Mof_O 	O 	0.7962	0.3442	0.2886	-0.544
Mof_O 	O 	0.879	0.3746	0.228	-0.501
Mof_C 	C 	0.8449	0.3797	0.2769	0.508
Mof_C 	C 	0.8943	0.433	0.3091	-0.191
Mof_C 	C 	0.8679	0.4611	0.3664	0.046
Mof_H 	H 	0.8288	0.4444	0.3844	-0.055
Mof_C 	C 	0.8999	0.5142	0.3967	-0.042
Mof_C 	C 	0.9584	0.5392	0.3698	0.001
Mof_C 	C 	0.9848	0.511	0.3125	-0.133
Mof_H 	H 	0.0239	0.5277	0.2945	0.096
Mof_C 	C 	0.9528	0.4579	0.2822	0.123
Mof_H 	H 	0.9705	0.4391	0.244	0.009
Mof_C 	C 	0.8537	0.4301	0.3327	-0.138
Mof_C 	C 	0.8102	0.4344	0.386	0.178
Mof_H 	H 	0.7754	0.4042	0.3899	-0.026
Mof_C 	C 	0.8186	0.4836	0.4336	-0.19
Mof_H 	H 	0.7895	0.4864	0.4693	0.047
Mof_C 	C 	0.8706	0.5286	0.4279	0.176
Mof_C 	C 	0.9142	0.5244	0.3746	-0.146
Mof_C 	C 	0.9058	0.4751	0.3269	0.248
Mof_H 	H 	0.9349	0.4723	0.2912	-0.079
Mof_O 	O 	0.2962	0.1558	0.7114	-0.544
Mof_O 	O 	0.379	0.1254	0.772	-0.511
Mof_C 	C 	0.3449	0.1203	0.7231	0.52
Mof_C 	C 	0.3943	0.067	0.6909	-0.091
Mof_C 	C 	0.3679	0.0389	0.6336	0.131
Mof_H 	H 	0.3288	0.0556	0.6156	-0.035
Mof_C 	C 	0.3999	0.9858	0.6033	-0.017
Mof_C 	C 	0.4584	0.9608	0.6302	0.018
Mof_C 	C 	0.4848	0.989	0.6875	-0.137
Mof_H 	H 	0.5239	0.9723	0.7055	0.096
Mof_C 	C 	0.4528	0.0421	0.7178	0.169
Mof_H 	H 	0.4705	0.0609	0.756	-0.01
Mof_C 	C 	0.3537	0.0699	0.6673	-0.248
Mof_C 	C 	0.3102	0.0656	0.614	0.142
Mof_H 	H 	0.2754	0.0958	0.6101	-0.01
Mof_C 	C 	0.3186	0.0164	0.5664	-0.202
Mof_H 	H 	0.2895	0.0136	0.5307	0.049
Mof_C 	C 	0.3706	0.9714	0.5721	0.178
Mof_C 	C 	0.4142	0.9756	0.6254	-0.182
Mof_C 	C 	0.4058	0.0249	0.6731	0.17
Mof_H 	H 	0.4349	0.0277	0.7088	-0.104
Mof_O 	O 	0.7038	0.6558	0.7886	-0.544
Mof_O 	O 	0.621	0.6254	0.728	-0.503
Mof_C 	C 	0.6551	0.6203	0.7769	0.511
Mof_C 	C 	0.6057	0.567	0.8091	-0.183
Mof_C 	C 	0.6321	0.5389	0.8664	0.06
Mof_H 	H 	0.6712	0.5556	0.8844	-0.051
Mof_C 	C 	0.6001	0.4858	0.8967	-0.049
Mof_C 	C 	0.5416	0.4608	0.8698	0.023
Mof_C 	C 	0.5152	0.489	0.8125	-0.143
Mof_H 	H 	0.4761	0.4723	0.7945	0.097
Mof_C 	C 	0.5472	0.5421	0.7822	0.123
Mof_H 	H 	0.5295	0.5609	0.744	0.009
Mof_C 	C 	0.6463	0.5699	0.8327	-0.153
Mof_C 	C 	0.6898	0.5656	0.886	0.171
Mof_H 	H 	0.7246	0.5958	0.8899	-0.023
Mof_C 	C 	0.6814	0.5164	0.9336	-0.199
Mof_H 	H 	0.7105	0.5136	0.9693	0.048
Mof_C 	C 	0.6294	0.4714	0.9279	0.196
Mof_C 	C 	0.5858	0.4756	0.8746	-0.162
Mof_C 	C 	0.5942	0.5249	0.8269	0.244
Mof_H 	H 	0.5651	0.5277	0.7912	-0.078
Mof_O 	O 	0.3442	0.2886	0.7962	-0.544
Mof_O 	O 	0.3746	0.228	0.879	-0.501
Mof_C 	C 	0.3797	0.2769	0.8449	0.508
Mof_C 	C 	0.433	0.3091	0.8943	-0.191
Mof_C 	C 	0.4611	0.3664	0.8679	0.046
Mof_H 	H 	0.4444	0.3844	0.8288	-0.055
Mof_C 	C 	0.5142	0.3967	0.8999	-0.042
Mof_C 	C 	0.5392	0.3698	0.9584	0.001
Mof_C 	C 	0.511	0.3125	0.9848	-0.133
Mof_H 	H 	0.5277	0.2945	0.0239	0.096
Mof_C 	C 	0.4579	0.2822	0.9528	0.123
Mof_H 	H 	0.4391	0.244	0.9705	0.009
Mof_C 	C 	0.4301	0.3327	0.8537	-0.138
Mof_C 	C 	0.4344	0.386	0.8102	0.178
Mof_H 	H 	0.4042	0.3899	0.7754	-0.026
Mof_C 	C 	0.4836	0.4336	0.8186	-0.19
Mof_H 	H 	0.4864	0.4693	0.7895	0.047
Mof_C 	C 	0.5286	0.4279	0.8706	0.176
Mof_C 	C 	0.5244	0.3746	0.9142	-0.146
Mof_C 	C 	0.4751	0.3269	0.9058	0.248
Mof_H 	H 	0.4723	0.2912	0.9349	-0.079
Mof_O 	O 	0.8442	0.2114	0.2038	-0.544
Mof_O 	O 	0.8746	0.272	0.121	-0.505
Mof_C 	C 	0.8797	0.2231	0.1551	0.513
Mof_C 	C 	0.933	0.1909	0.1057	-0.151
Mof_C 	C 	0.9611	0.1336	0.1321	0.081
Mof_H 	H 	0.9444	0.1156	0.1712	-0.046
Mof_C 	C 	0.0142	0.1033	0.1001	-0.034
Mof_C 	C 	0.0392	0.1302	0.0416	0.014
Mof_C 	C 	0.011	0.1875	0.0152	-0.135
Mof_H 	H 	0.0277	0.2055	0.9761	0.095
Mof_C 	C 	0.9579	0.2178	0.0472	0.141
Mof_H 	H 	0.9391	0.256	0.0295	0.002
Mof_C 	C 	0.9301	0.1673	0.1463	-0.183
Mof_C 	C 	0.9344	0.114	0.1898	0.163
Mof_H 	H 	0.9042	0.1101	0.2246	-0.019
Mof_C 	C 	0.9836	0.0664	0.1814	-0.199
Mof_H 	H 	0.9864	0.0307	0.2105	0.048
Mof_C 	C 	0.0286	0.0721	0.1294	0.183
Mof_C 	C 	0.0244	0.1254	0.0858	-0.164
Mof_C 	C 	0.9751	0.1731	0.0942	0.218
Mof_H 	H 	0.9723	0.2088	0.0651	-0.089
Mof_O 	O 	0.6558	0.7886	0.7038	-0.544
Mof_O 	O 	0.6254	0.728	0.621	-0.503
Mof_C 	C 	0.6203	0.7769	0.6551	0.511
Mof_C 	C 	0.567	0.8091	0.6057	-0.183
Mof_C 	C 	0.5389	0.8664	0.6321	0.06
Mof_H 	H 	0.5556	0.8844	0.6712	-0.051
Mof_C 	C 	0.4858	0.8967	0.6001	-0.049
Mof_C 	C 	0.4608	0.8698	0.5416	0.023
Mof_C 	C 	0.489	0.8125	0.5152	-0.143
Mof_H 	H 	0.4723	0.7945	0.4761	0.097
Mof_C 	C 	0.5421	0.7822	0.5472	0.123
Mof_H 	H 	0.5609	0.744	0.5295	0.009
Mof_C 	C 	0.5699	0.8327	0.6463	-0.153
Mof_C 	C 	0.5656	0.886	0.6898	0.171
Mof_H 	H 	0.5958	0.8899	0.7246	-0.023
Mof_C 	C 	0.5164	0.9336	0.6814	-0.199
Mof_H 	H 	0.5136	0.9693	0.7105	0.048
Mof_C 	C 	0.4714	0.9279	0.6294	0.196
Mof_C 	C 	0.4756	0.8746	0.5858	-0.162
Mof_C 	C 	0.5249	0.8269	0.5942	0.244
Mof_H 	H 	0.5277	0.7912	0.5651	-0.078
Mof_O 	O 	0.1558	0.7114	0.2962	-0.544
Mof_O 	O 	0.1254	0.772	0.379	-0.511
Mof_C 	C 	0.1203	0.7231	0.3449	0.52
Mof_C 	C 	0.067	0.6909	0.3943	-0.091
Mof_C 	C 	0.0389	0.6336	0.3679	0.131
Mof_H 	H 	0.0556	0.6156	0.3288	-0.035
Mof_C 	C 	0.9858	0.6033	0.3999	-0.017
Mof_C 	C 	0.9608	0.6302	0.4584	0.018
Mof_C 	C 	0.989	0.6875	0.4848	-0.137
Mof_H 	H 	0.9723	0.7055	0.5239	0.096
Mof_C 	C 	0.0421	0.7178	0.4528	0.169
Mof_H 	H 	0.0609	0.756	0.4705	-0.01
Mof_C 	C 	0.0699	0.6673	0.3537	-0.248
Mof_C 	C 	0.0656	0.614	0.3102	0.142
Mof_H 	H 	0.0958	0.6101	0.2754	-0.01
Mof_C 	C 	0.0164	0.5664	0.3186	-0.202
Mof_H 	H 	0.0136	0.5307	0.2895	0.049
Mof_C 	C 	0.9714	0.5721	0.3706	0.178
Mof_C 	C 	0.9756	0.6254	0.4142	-0.182
Mof_C 	C 	0.0249	0.6731	0.4058	0.17
Mof_H 	H 	0.0277	0.7088	0.4349	-0.104
Mof_Zn	Zn	0.875	0.375	0.125	1.255
Mof_Zn	Zn	0.625	0.625	0.625	1.255
Mof_Zn	Zn	0.125	0.875	0.375	1.255
Mof_Zn	Zn	0.375	0.125	0.875	1.255
Mof_Zn	Zn	0.97477	0.47477	0.02523	1.204
Mof_Zn	Zn	0.52523	0.52523	0.52523	1.204
Mof_Zn	Zn	0.02523	0.97477	0.47477	1.204
Mof_Zn	Zn	0.47477	0.02523	0.97477	1.204
Mof_Zn	Zn	0.72477	0.72477	0.72477	1.204
Mof_Zn	Zn	0.77523	0.27523	0.22477	1.204
Mof_Zn	Zn	0.22477	0.77523	0.27523	1.204
Mof_Zn	Zn	0.27523	0.22477	0.77523	1.204
_end
