data_functionalizedCrystal
_audit_creation_method	'EQeq! by Chris Wilmer'
_symmetry_space_group_name_H-M	'P1'
_symmetry_Int_Tables_number	1
_symmetry_cell_setting	triclinic
loop_
_symmetry_equiv_pos_as_xyz
  x,y,z
_cell_length_a	29.9342
_cell_length_b	21.16
_cell_length_c	19.5148
_cell_angle_alpha	90
_cell_angle_beta	93.935
_cell_angle_gamma	90
loop_
_atom_site_label
_atom_site_type_symbol
_atom_site_fract_x
_atom_site_fract_y
_atom_site_fract_z
_atom_site_charge
Mof_Tb	Tb	0.22368	0.17422	0.4418	2.166
Mof_Tb	Tb	0.31885	0.83086	0.53757	2.317
Mof_O 	O 	0.22008	0.0679	0.4869	-0.455
Mof_O 	O 	0.15986	0.1007	0.4279	-0.452
Mof_O 	O 	0.24251	0.8389	0.5321	-0.67
Mof_O 	O 	0.18995	0.7711	0.4982	-0.625
Mof_O 	O 	0.87258	0.723	0.1198	-0.434
Mof_O 	O 	0.80436	0.7079	0.1496	-0.491
Mof_O 	O 	0.81163	0.8093	0.4551	-0.519
Mof_O 	O 	0.76859	0.7454	0.3871	-0.556
Mof_O 	O 	0.346	0.9109	0.6143	-0.544
Mof_O 	O 	0.3129	0.9448	0.522	-2.984
Mof_O 	O 	0.28407	0.1858	0.5201	-0.586
Mof_O 	O 	0.32892	0.2448	0.5875	-0.53
Mof_O 	O 	0.3867	0.8416	0.4886	0.067
Mof_O 	O 	0.2814	0.1086	0.4005	-0.481
Mof_C 	C 	0.1824	0.0572	0.4566	0.342
Mof_C 	C 	0.1657	0.9908	0.4538	-0.151
Mof_C 	C 	0.1234	0.9778	0.4231	0.023
Mof_H 	H 	0.1056	0.0107	0.4053	0.036
Mof_C 	C 	0.1076	0.9166	0.4189	-0.05
Mof_C 	C 	0.1344	0.8672	0.4463	0.079
Mof_H 	H 	0.1237	0.8259	0.444	0.014
Mof_C 	C 	0.1764	0.8791	0.4765	-0.261
Mof_C 	C 	0.1921	0.9413	0.481	0.145
Mof_H 	H 	0.2202	0.9498	0.5022	-0.062
Mof_C 	C 	0.205	0.8259	0.5042	0.61
Mof_C 	C 	0.0638	0.9017	0.3881	0.003
Mof_C 	C 	0.0279	0.8845	0.3642	-0.021
Mof_C 	C 	0.9864	0.8637	0.3413	-0.004
Mof_C 	C 	0.95	0.8432	0.3232	-0.02
Mof_C 	C 	0.9071	0.8148	0.3067	-0.005
Mof_C 	C 	0.896	0.7871	0.2441	-0.018
Mof_H 	H 	0.9163	0.7882	0.2101	0.053
Mof_C 	C 	0.8553	0.758	0.231	-0.102
Mof_C 	C 	0.8251	0.7559	0.2814	0.055
Mof_H 	H 	0.7976	0.736	0.2725	0.016
Mof_C 	C 	0.8354	0.7833	0.3454	-0.156
Mof_C 	C 	0.8761	0.8124	0.3589	0.007
Mof_H 	H 	0.8833	0.8305	0.4017	0.04
Mof_C 	C 	0.8432	0.7274	0.1627	0.334
Mof_C 	C 	0.8029	0.7793	0.3999	0.488
Mof_C 	C 	0.3367	0.9564	0.5753	0.156
Mof_C 	C 	0.3516	0.0215	0.5935	-0.054
Mof_C 	C 	0.3905	0.0297	0.6357	-0.044
Mof_H 	H 	0.4063	0.9946	0.6531	0.051
Mof_C 	C 	0.4059	0.0908	0.6521	0.001
Mof_C 	C 	0.3817	0.1429	0.6275	-0.011
Mof_H 	H 	0.3918	0.1835	0.6386	0.041
Mof_C 	C 	0.3427	0.1349	0.5868	-0.139
Mof_C 	C 	0.3276	0.0743	0.5695	0.02
Mof_H 	H 	0.3014	0.0691	0.5417	0.02
Mof_C 	C 	0.3168	0.1922	0.563	0.482
Mof_C 	C 	0.4457	0.0972	0.6966	-0.035
Mof_C 	C 	0.4802	0.0993	0.7304	-0.024
Mof_C 	C 	0.4243	0.8187	0.5073	0.218
Mof_H 	H 	0.4278	0.8021	0.5515	-0.043
Mof_C 	C 	0.4524	0.8381	0.3984	-0.265
Mof_H 	H 	0.4344	0.8756	0.3975	0.124
Mof_H 	H 	0.4372	0.8058	0.3712	0.074
Mof_H 	H 	0.4807	0.8472	0.38	0.096
Mof_C 	C 	0.4998	0.7827	0.494	-0.457
Mof_H 	H 	0.4982	0.7732	0.5419	0.165
Mof_H 	H 	0.5256	0.8085	0.488	0.111
Mof_H 	H 	0.5022	0.744	0.4687	0.164
Mof_C 	C 	0.2975	0.1004	0.344	0.529
Mof_H 	H 	0.2913	0.1292	0.3086	-0.251
Mof_C 	C 	0.3541	0.0644	0.2769	-0.051
Mof_H 	H 	0.3368	0.065	0.2337	-0.31
Mof_H 	H 	0.377	0.0327	0.2758	-0.002
Mof_H 	H 	0.3677	0.105	0.2852	-0.004
Mof_C 	C 	0.3564	0.0504	0.3974	-0.072
Mof_H 	H 	0.3405	0.0401	0.437	0.082
Mof_H 	H 	0.3693	0.0918	0.403	0.054
Mof_H 	H 	0.3797	0.0199	0.3925	0.079
Mof_N 	N 	0.46	0.816	0.4691	-0.055
Mof_N 	N 	0.3241	0.0494	0.3335	0.005
Mof_O 	O 	0.3656	0.9128	0.593	0.054
Mof_O 	O 	0.3016	0.947	0.543	2.58
Mof_O 	O 	0.3818	0.8167	0.4775	-0.499
Mof_O 	O 	0.2749	0.1105	0.3823	-0.029
Mof_C 	C 	0.3384	0.9557	0.5751	0.04
Mof_C 	C 	0.4083	0.8627	0.4885	-0.065
Mof_H 	H 	0.4029	0.8962	0.5176	0.046
Mof_C 	C 	0.4401	0.7951	0.4165	0.013
Mof_H 	H 	0.4627	0.79	0.3843	0.037
Mof_H 	H 	0.411	0.7937	0.3926	0.022
Mof_H 	H 	0.4427	0.7616	0.4498	0.04
Mof_C 	C 	0.485	0.8771	0.4644	-0.345
Mof_H 	H 	0.485	0.9114	0.4966	0.122
Mof_H 	H 	0.4967	0.8915	0.4225	0.119
Mof_H 	H 	0.5035	0.8435	0.4835	0.177
Mof_C 	C 	0.3051	0.0708	0.3894	-0.086
Mof_H 	H 	0.3038	0.0412	0.4245	0.112
Mof_C 	C 	0.3236	0.0808	0.2762	-0.849
Mof_H 	H 	0.3114	0.1227	0.273	0.327
Mof_H 	H 	0.3007	0.0507	0.2623	0.294
Mof_H 	H 	0.3479	0.0773	0.2467	0.618
Mof_C 	C 	0.3613	0.0039	0.3529	-0.368
Mof_H 	H 	0.3731	0.9965	0.3992	0.106
Mof_H 	H 	0.3851	0.0017	0.3224	0.134
Mof_H 	H 	0.3392	0.9725	0.3402	0.151
Mof_N 	N 	0.4463	0.8576	0.4523	-0.002
Mof_N 	N 	0.3403	0.0679	0.3482	-0.035
Mof_Tb	Tb	0.72368	0.67422	0.4418	2.167
Mof_Tb	Tb	0.81885	0.33086	0.53757	2.318
Mof_O 	O 	0.72008	0.5679	0.4869	-0.454
Mof_O 	O 	0.65986	0.6007	0.4279	-0.451
Mof_O 	O 	0.74251	0.3389	0.5321	-0.669
Mof_O 	O 	0.68995	0.2711	0.4982	-0.624
Mof_O 	O 	0.37258	0.223	0.1198	-0.433
Mof_O 	O 	0.30436	0.2079	0.1496	-0.49
Mof_O 	O 	0.31163	0.3093	0.4551	-0.518
Mof_O 	O 	0.26859	0.2454	0.3871	-0.555
Mof_O 	O 	0.846	0.4109	0.6143	-0.543
Mof_O 	O 	0.8129	0.4448	0.522	-2.985
Mof_O 	O 	0.78407	0.6858	0.5201	-0.585
Mof_O 	O 	0.82892	0.7448	0.5875	-0.529
Mof_O 	O 	0.8867	0.3416	0.4886	0.068
Mof_O 	O 	0.7814	0.6086	0.4005	-0.481
Mof_C 	C 	0.6824	0.5572	0.4566	0.343
Mof_C 	C 	0.6657	0.4908	0.4538	-0.15
Mof_C 	C 	0.6234	0.4778	0.4231	0.023
Mof_H 	H 	0.6056	0.5107	0.4053	0.036
Mof_C 	C 	0.6076	0.4166	0.4189	-0.05
Mof_C 	C 	0.6344	0.3672	0.4463	0.079
Mof_H 	H 	0.6237	0.3259	0.444	0.014
Mof_C 	C 	0.6764	0.3791	0.4765	-0.261
Mof_C 	C 	0.6921	0.4413	0.481	0.145
Mof_H 	H 	0.7202	0.4498	0.5022	-0.062
Mof_C 	C 	0.705	0.3259	0.5042	0.61
Mof_C 	C 	0.5638	0.4017	0.3881	0.004
Mof_C 	C 	0.5279	0.3845	0.3642	-0.021
Mof_C 	C 	0.4864	0.3637	0.3413	-0.004
Mof_C 	C 	0.45	0.3432	0.3232	-0.021
Mof_C 	C 	0.4071	0.3148	0.3067	-0.005
Mof_C 	C 	0.396	0.2871	0.2441	-0.018
Mof_H 	H 	0.4163	0.2882	0.2101	0.053
Mof_C 	C 	0.3553	0.258	0.231	-0.101
Mof_C 	C 	0.3251	0.2559	0.2814	0.055
Mof_H 	H 	0.2976	0.236	0.2725	0.016
Mof_C 	C 	0.3354	0.2833	0.3454	-0.156
Mof_C 	C 	0.3761	0.3124	0.3589	0.007
Mof_H 	H 	0.3833	0.3305	0.4017	0.04
Mof_C 	C 	0.3432	0.2274	0.1627	0.334
Mof_C 	C 	0.3029	0.2793	0.3999	0.488
Mof_C 	C 	0.8367	0.4564	0.5753	0.156
Mof_C 	C 	0.8516	0.5215	0.5935	-0.054
Mof_C 	C 	0.8905	0.5297	0.6357	-0.045
Mof_H 	H 	0.9063	0.4946	0.6531	0.051
Mof_C 	C 	0.9059	0.5908	0.6521	0.001
Mof_C 	C 	0.8817	0.6429	0.6275	-0.012
Mof_H 	H 	0.8918	0.6835	0.6386	0.041
Mof_C 	C 	0.8427	0.6349	0.5868	-0.139
Mof_C 	C 	0.8276	0.5743	0.5695	0.02
Mof_H 	H 	0.8014	0.5691	0.5417	0.02
Mof_C 	C 	0.8168	0.6922	0.563	0.482
Mof_C 	C 	0.9457	0.5972	0.6966	-0.036
Mof_C 	C 	0.9802	0.5993	0.7304	-0.023
Mof_C 	C 	0.9243	0.3187	0.5073	0.217
Mof_H 	H 	0.9278	0.3021	0.5515	-0.043
Mof_C 	C 	0.9524	0.3381	0.3984	-0.265
Mof_H 	H 	0.9344	0.3756	0.3975	0.124
Mof_H 	H 	0.9372	0.3058	0.3712	0.074
Mof_H 	H 	0.9807	0.3472	0.38	0.096
Mof_C 	C 	0.9998	0.2827	0.494	-0.457
Mof_H 	H 	0.9982	0.2732	0.5419	0.165
Mof_H 	H 	0.0256	0.3085	0.488	0.112
Mof_H 	H 	0.0022	0.244	0.4687	0.164
Mof_C 	C 	0.7975	0.6004	0.344	0.531
Mof_H 	H 	0.7913	0.6292	0.3086	-0.252
Mof_C 	C 	0.8541	0.5644	0.2769	-0.051
Mof_H 	H 	0.8368	0.565	0.2337	-0.311
Mof_H 	H 	0.877	0.5327	0.2758	-0.002
Mof_H 	H 	0.8677	0.605	0.2852	-0.004
Mof_C 	C 	0.8564	0.5504	0.3974	-0.069
Mof_H 	H 	0.8405	0.5401	0.437	0.081
Mof_H 	H 	0.8693	0.5918	0.403	0.053
Mof_H 	H 	0.8797	0.5199	0.3925	0.078
Mof_N 	N 	0.96	0.316	0.4691	-0.055
Mof_N 	N 	0.8241	0.5494	0.3335	0.006
Mof_O 	O 	0.8656	0.4128	0.593	0.054
Mof_O 	O 	0.8016	0.447	0.543	2.582
Mof_O 	O 	0.8818	0.3167	0.4775	-0.499
Mof_O 	O 	0.7749	0.6105	0.3823	-0.028
Mof_C 	C 	0.8384	0.4557	0.5751	0.04
Mof_C 	C 	0.9083	0.3627	0.4885	-0.065
Mof_H 	H 	0.9029	0.3962	0.5176	0.046
Mof_C 	C 	0.9401	0.2951	0.4165	0.013
Mof_H 	H 	0.9627	0.29	0.3843	0.037
Mof_H 	H 	0.911	0.2937	0.3926	0.021
Mof_H 	H 	0.9427	0.2616	0.4498	0.04
Mof_C 	C 	0.985	0.3771	0.4644	-0.345
Mof_H 	H 	0.985	0.4114	0.4966	0.122
Mof_H 	H 	0.9967	0.3915	0.4225	0.119
Mof_H 	H 	0.0035	0.3435	0.4835	0.177
Mof_C 	C 	0.8051	0.5708	0.3894	-0.088
Mof_H 	H 	0.8038	0.5412	0.4245	0.113
Mof_C 	C 	0.8236	0.5808	0.2762	-0.85
Mof_H 	H 	0.8114	0.6227	0.273	0.328
Mof_H 	H 	0.8007	0.5507	0.2623	0.295
Mof_H 	H 	0.8479	0.5773	0.2467	0.619
Mof_C 	C 	0.8613	0.5039	0.3529	-0.368
Mof_H 	H 	0.8731	0.4965	0.3992	0.106
Mof_H 	H 	0.8851	0.5017	0.3224	0.134
Mof_H 	H 	0.8392	0.4725	0.3402	0.15
Mof_N 	N 	0.9463	0.3576	0.4523	-0.002
Mof_N 	N 	0.8403	0.5679	0.3482	-0.036
Mof_Tb	Tb	0.77632	0.17422	0.0582	2.165
Mof_Tb	Tb	0.68115	0.83086	0.96243	2.317
Mof_O 	O 	0.77992	0.0679	0.0131	-0.454
Mof_O 	O 	0.84014	0.1007	0.0721	-0.451
Mof_O 	O 	0.75749	0.8389	0.9679	-0.669
Mof_O 	O 	0.81005	0.7711	0.0018	-0.624
Mof_O 	O 	0.12742	0.723	0.3802	-0.432
Mof_O 	O 	0.19564	0.7079	0.3504	-0.49
Mof_O 	O 	0.18837	0.8093	0.0449	-0.517
Mof_O 	O 	0.23141	0.7454	0.1129	-0.555
Mof_O 	O 	0.654	0.9109	0.8857	-0.543
Mof_O 	O 	0.6871	0.9448	0.978	-2.989
Mof_O 	O 	0.71593	0.1858	0.9799	-0.584
Mof_O 	O 	0.67108	0.2448	0.9125	-0.529
Mof_O 	O 	0.6133	0.8416	0.0114	0.071
Mof_O 	O 	0.7186	0.1086	0.0995	-0.479
Mof_C 	C 	0.8176	0.0572	0.0434	0.343
Mof_C 	C 	0.8343	0.9908	0.0462	-0.151
Mof_C 	C 	0.8766	0.9778	0.0769	0.025
Mof_H 	H 	0.8944	0.0107	0.0947	0.034
Mof_C 	C 	0.8924	0.9166	0.0811	-0.052
Mof_C 	C 	0.8656	0.8672	0.0537	0.08
Mof_H 	H 	0.8763	0.8259	0.056	0.014
Mof_C 	C 	0.8236	0.8791	0.0235	-0.262
Mof_C 	C 	0.8079	0.9413	0.019	0.147
Mof_H 	H 	0.7798	0.9498	0.9978	-0.063
Mof_C 	C 	0.795	0.8259	0.9958	0.61
Mof_C 	C 	0.9362	0.9017	0.1119	0.005
Mof_C 	C 	0.9721	0.8845	0.1358	-0.023
Mof_C 	C 	0.0136	0.8637	0.1587	-0.002
Mof_C 	C 	0.05	0.8432	0.1768	-0.021
Mof_C 	C 	0.0929	0.8148	0.1933	-0.004
Mof_C 	C 	0.104	0.7871	0.2559	-0.019
Mof_H 	H 	0.0837	0.7882	0.2899	0.053
Mof_C 	C 	0.1447	0.758	0.269	-0.101
Mof_C 	C 	0.1749	0.7559	0.2186	0.055
Mof_H 	H 	0.2024	0.736	0.2275	0.016
Mof_C 	C 	0.1646	0.7833	0.1546	-0.156
Mof_C 	C 	0.1239	0.8124	0.1411	0.006
Mof_H 	H 	0.1167	0.8305	0.0983	0.041
Mof_C 	C 	0.1568	0.7274	0.3373	0.333
Mof_C 	C 	0.1971	0.7793	0.1001	0.488
Mof_C 	C 	0.6633	0.9564	0.9247	0.156
Mof_C 	C 	0.6484	0.0215	0.9065	-0.054
Mof_C 	C 	0.6095	0.0297	0.8643	-0.043
Mof_H 	H 	0.5937	0.9946	0.8469	0.05
Mof_C 	C 	0.5941	0.0908	0.8479	0.001
Mof_C 	C 	0.6183	0.1429	0.8725	-0.011
Mof_H 	H 	0.6082	0.1835	0.8614	0.041
Mof_C 	C 	0.6573	0.1349	0.9132	-0.139
Mof_C 	C 	0.6724	0.0743	0.9305	0.02
Mof_H 	H 	0.6986	0.0691	0.9583	0.02
Mof_C 	C 	0.6832	0.1922	0.937	0.482
Mof_C 	C 	0.5543	0.0972	0.8034	-0.035
Mof_C 	C 	0.5198	0.0993	0.7696	-0.024
Mof_C 	C 	0.5757	0.8187	0.9927	0.215
Mof_H 	H 	0.5722	0.8021	0.9485	-0.042
Mof_C 	C 	0.5476	0.8381	0.1016	-0.265
Mof_H 	H 	0.5656	0.8756	0.1025	0.124
Mof_H 	H 	0.5628	0.8058	0.1288	0.074
Mof_H 	H 	0.5193	0.8472	0.12	0.096
Mof_C 	C 	0.5002	0.7827	0.006	-0.455
Mof_H 	H 	0.5018	0.7732	0.9581	0.164
Mof_H 	H 	0.4744	0.8085	0.012	0.111
Mof_H 	H 	0.4978	0.744	0.0313	0.164
Mof_C 	C 	0.7025	0.1004	0.156	0.527
Mof_H 	H 	0.7087	0.1292	0.1914	-0.25
Mof_C 	C 	0.6459	0.0644	0.2231	-0.05
Mof_H 	H 	0.6632	0.065	0.2663	-0.309
Mof_H 	H 	0.623	0.0327	0.2242	-0.002
Mof_H 	H 	0.6323	0.105	0.2148	-0.004
Mof_C 	C 	0.6436	0.0504	0.1026	-0.079
Mof_H 	H 	0.6595	0.0401	0.063	0.084
Mof_H 	H 	0.6307	0.0918	0.097	0.056
Mof_H 	H 	0.6203	0.0199	0.1075	0.081
Mof_N 	N 	0.54	0.816	0.0309	-0.055
Mof_N 	N 	0.6759	0.0494	0.1665	0.003
Mof_O 	O 	0.6344	0.9128	0.907	0.054
Mof_O 	O 	0.6984	0.947	0.957	2.586
Mof_O 	O 	0.6182	0.8167	0.0225	-0.502
Mof_O 	O 	0.7251	0.1105	0.1177	-0.031
Mof_C 	C 	0.6616	0.9557	0.9249	0.039
Mof_C 	C 	0.5917	0.8627	0.0115	-0.065
Mof_H 	H 	0.5971	0.8962	0.9824	0.045
Mof_C 	C 	0.5599	0.7951	0.0835	0.013
Mof_H 	H 	0.5373	0.79	0.1157	0.037
Mof_H 	H 	0.589	0.7937	0.1074	0.022
Mof_H 	H 	0.5573	0.7616	0.0502	0.04
Mof_C 	C 	0.515	0.8771	0.0356	-0.346
Mof_H 	H 	0.515	0.9114	0.0034	0.123
Mof_H 	H 	0.5033	0.8915	0.0775	0.119
Mof_H 	H 	0.4965	0.8435	0.0165	0.178
Mof_C 	C 	0.6949	0.0708	0.1106	-0.083
Mof_H 	H 	0.6962	0.0412	0.0755	0.111
Mof_C 	C 	0.6764	0.0808	0.2238	-0.848
Mof_H 	H 	0.6886	0.1227	0.227	0.327
Mof_H 	H 	0.6993	0.0507	0.2377	0.294
Mof_H 	H 	0.6521	0.0773	0.2533	0.616
Mof_C 	C 	0.6387	0.0039	0.1471	-0.366
Mof_H 	H 	0.6269	0.9965	0.1008	0.106
Mof_H 	H 	0.6149	0.0017	0.1776	0.133
Mof_H 	H 	0.6608	0.9725	0.1598	0.151
Mof_N 	N 	0.5537	0.8576	0.0477	-0.002
Mof_N 	N 	0.6597	0.0679	0.1518	-0.032
Mof_Tb	Tb	0.27632	0.67422	0.0582	2.168
Mof_Tb	Tb	0.18115	0.33086	0.96243	2.318
Mof_O 	O 	0.27992	0.5679	0.0131	-0.454
Mof_O 	O 	0.34014	0.6007	0.0721	-0.451
Mof_O 	O 	0.25749	0.3389	0.9679	-0.669
Mof_O 	O 	0.31005	0.2711	0.0018	-0.624
Mof_O 	O 	0.62742	0.223	0.3802	-0.433
Mof_O 	O 	0.69564	0.2079	0.3504	-0.49
Mof_O 	O 	0.68837	0.3093	0.0449	-0.519
Mof_O 	O 	0.73141	0.2454	0.1129	-0.555
Mof_O 	O 	0.154	0.4109	0.8857	-0.544
Mof_O 	O 	0.1871	0.4448	0.978	-2.992
Mof_O 	O 	0.21593	0.6858	0.9799	-0.586
Mof_O 	O 	0.17108	0.7448	0.9125	-0.529
Mof_O 	O 	0.1133	0.3416	0.0114	0.071
Mof_O 	O 	0.2186	0.6086	0.0995	-0.481
Mof_C 	C 	0.3176	0.5572	0.0434	0.343
Mof_C 	C 	0.3343	0.4908	0.0462	-0.151
Mof_C 	C 	0.3766	0.4778	0.0769	0.023
Mof_H 	H 	0.3944	0.5107	0.0947	0.036
Mof_C 	C 	0.3924	0.4166	0.0811	-0.05
Mof_C 	C 	0.3656	0.3672	0.0537	0.079
Mof_H 	H 	0.3763	0.3259	0.056	0.014
Mof_C 	C 	0.3236	0.3791	0.0235	-0.262
Mof_C 	C 	0.3079	0.4413	0.019	0.146
Mof_H 	H 	0.2798	0.4498	0.9978	-0.063
Mof_C 	C 	0.295	0.3259	0.9958	0.61
Mof_C 	C 	0.4362	0.4017	0.1119	0.004
Mof_C 	C 	0.4721	0.3845	0.1358	-0.021
Mof_C 	C 	0.5136	0.3637	0.1587	-0.004
Mof_C 	C 	0.55	0.3432	0.1768	-0.021
Mof_C 	C 	0.5929	0.3148	0.1933	-0.005
Mof_C 	C 	0.604	0.2871	0.2559	-0.018
Mof_H 	H 	0.5837	0.2882	0.2899	0.053
Mof_C 	C 	0.6447	0.258	0.269	-0.101
Mof_C 	C 	0.6749	0.2559	0.2186	0.055
Mof_H 	H 	0.7024	0.236	0.2275	0.016
Mof_C 	C 	0.6646	0.2833	0.1546	-0.156
Mof_C 	C 	0.6239	0.3124	0.1411	0.007
Mof_H 	H 	0.6167	0.3305	0.0983	0.04
Mof_C 	C 	0.6568	0.2274	0.3373	0.334
Mof_C 	C 	0.6971	0.2793	0.1001	0.488
Mof_C 	C 	0.1633	0.4564	0.9247	0.156
Mof_C 	C 	0.1484	0.5215	0.9065	-0.055
Mof_C 	C 	0.1095	0.5297	0.8643	-0.045
Mof_H 	H 	0.0937	0.4946	0.8469	0.051
Mof_C 	C 	0.0941	0.5908	0.8479	0.001
Mof_C 	C 	0.1183	0.6429	0.8725	-0.011
Mof_H 	H 	0.1082	0.6835	0.8614	0.04
Mof_C 	C 	0.1573	0.6349	0.9132	-0.14
Mof_C 	C 	0.1724	0.5743	0.9305	0.02
Mof_H 	H 	0.1986	0.5691	0.9583	0.02
Mof_C 	C 	0.1832	0.6922	0.937	0.483
Mof_C 	C 	0.0543	0.5972	0.8034	-0.035
Mof_C 	C 	0.0198	0.5993	0.7696	-0.025
Mof_C 	C 	0.0757	0.3187	0.9927	0.217
Mof_H 	H 	0.0722	0.3021	0.9485	-0.043
Mof_C 	C 	0.0476	0.3381	0.1016	-0.262
Mof_H 	H 	0.0656	0.3756	0.1025	0.123
Mof_H 	H 	0.0628	0.3058	0.1288	0.073
Mof_H 	H 	0.0193	0.3472	0.12	0.095
Mof_C 	C 	0.0002	0.2827	0.006	-0.444
Mof_H 	H 	0.0018	0.2732	0.9581	0.16
Mof_H 	H 	0.9744	0.3085	0.012	0.108
Mof_H 	H 	0.9978	0.244	0.0313	0.159
Mof_C 	C 	0.2025	0.6004	0.156	0.531
Mof_H 	H 	0.2087	0.6292	0.1914	-0.252
Mof_C 	C 	0.1459	0.5644	0.2231	-0.051
Mof_H 	H 	0.1632	0.565	0.2663	-0.311
Mof_H 	H 	0.123	0.5327	0.2242	-0.002
Mof_H 	H 	0.1323	0.605	0.2148	-0.003
Mof_C 	C 	0.1436	0.5504	0.1026	-0.068
Mof_H 	H 	0.1595	0.5401	0.063	0.081
Mof_H 	H 	0.1307	0.5918	0.097	0.053
Mof_H 	H 	0.1203	0.5199	0.1075	0.078
Mof_N 	N 	0.04	0.316	0.0309	-0.057
Mof_N 	N 	0.1759	0.5494	0.1665	0.006
Mof_O 	O 	0.1344	0.4128	0.907	0.054
Mof_O 	O 	0.1984	0.447	0.957	2.589
Mof_O 	O 	0.1182	0.3167	0.0225	-0.502
Mof_O 	O 	0.2251	0.6105	0.1177	-0.028
Mof_C 	C 	0.1616	0.4557	0.9249	0.039
Mof_C 	C 	0.0917	0.3627	0.0115	-0.065
Mof_H 	H 	0.0971	0.3962	0.9824	0.045
Mof_C 	C 	0.0599	0.2951	0.0835	0.011
Mof_H 	H 	0.0373	0.29	0.1157	0.037
Mof_H 	H 	0.089	0.2937	0.1074	0.022
Mof_H 	H 	0.0573	0.2616	0.0502	0.041
Mof_C 	C 	0.015	0.3771	0.0356	-0.338
Mof_H 	H 	0.015	0.4114	0.0034	0.121
Mof_H 	H 	0.0033	0.3915	0.0775	0.117
Mof_H 	H 	0.9965	0.3435	0.0165	0.174
Mof_C 	C 	0.1949	0.5708	0.1106	-0.088
Mof_H 	H 	0.1962	0.5412	0.0755	0.113
Mof_C 	C 	0.1764	0.5808	0.2238	-0.85
Mof_H 	H 	0.1886	0.6227	0.227	0.328
Mof_H 	H 	0.1993	0.5507	0.2377	0.295
Mof_H 	H 	0.1521	0.5773	0.2533	0.619
Mof_C 	C 	0.1387	0.5039	0.1471	-0.368
Mof_H 	H 	0.1269	0.4965	0.1008	0.107
Mof_H 	H 	0.1149	0.5017	0.1776	0.135
Mof_H 	H 	0.1608	0.4725	0.1598	0.151
Mof_N 	N 	0.0537	0.3576	0.0477	-0.003
Mof_N 	N 	0.1597	0.5679	0.1518	-0.036
Mof_Tb	Tb	0.77632	0.82578	0.5582	2.167
Mof_Tb	Tb	0.68115	0.16914	0.46243	2.318
Mof_O 	O 	0.77992	0.9321	0.5131	-0.454
Mof_O 	O 	0.84014	0.8993	0.5721	-0.451
Mof_O 	O 	0.75749	0.1611	0.4679	-0.669
Mof_O 	O 	0.81005	0.2289	0.5018	-0.624
Mof_O 	O 	0.12742	0.277	0.8802	-0.433
Mof_O 	O 	0.19564	0.2921	0.8504	-0.49
Mof_O 	O 	0.18837	0.1907	0.5449	-0.518
Mof_O 	O 	0.23141	0.2546	0.6129	-0.555
Mof_O 	O 	0.654	0.0891	0.3857	-0.543
Mof_O 	O 	0.6871	0.0552	0.478	-2.983
Mof_O 	O 	0.71593	0.8142	0.4799	-0.585
Mof_O 	O 	0.67108	0.7552	0.4125	-0.529
Mof_O 	O 	0.6133	0.1584	0.5114	0.068
Mof_O 	O 	0.7186	0.8914	0.5995	-0.48
Mof_C 	C 	0.8176	0.9428	0.5434	0.343
Mof_C 	C 	0.8343	0.0092	0.5462	-0.15
Mof_C 	C 	0.8766	0.0222	0.5769	0.023
Mof_H 	H 	0.8944	0.9893	0.5947	0.036
Mof_C 	C 	0.8924	0.0834	0.5811	-0.05
Mof_C 	C 	0.8656	0.1328	0.5537	0.079
Mof_H 	H 	0.8763	0.1741	0.556	0.014
Mof_C 	C 	0.8236	0.1209	0.5235	-0.261
Mof_C 	C 	0.8079	0.0587	0.519	0.145
Mof_H 	H 	0.7798	0.0502	0.4978	-0.062
Mof_C 	C 	0.795	0.1741	0.4958	0.61
Mof_C 	C 	0.9362	0.0983	0.6119	0.003
Mof_C 	C 	0.9721	0.1155	0.6358	-0.021
Mof_C 	C 	0.0136	0.1363	0.6587	-0.004
Mof_C 	C 	0.05	0.1568	0.6768	-0.02
Mof_C 	C 	0.0929	0.1852	0.6933	-0.005
Mof_C 	C 	0.104	0.2129	0.7559	-0.018
Mof_H 	H 	0.0837	0.2118	0.7899	0.053
Mof_C 	C 	0.1447	0.242	0.769	-0.102
Mof_C 	C 	0.1749	0.2441	0.7186	0.055
Mof_H 	H 	0.2024	0.264	0.7275	0.016
Mof_C 	C 	0.1646	0.2167	0.6546	-0.156
Mof_C 	C 	0.1239	0.1876	0.6411	0.007
Mof_H 	H 	0.1167	0.1695	0.5983	0.04
Mof_C 	C 	0.1568	0.2726	0.8373	0.334
Mof_C 	C 	0.1971	0.2207	0.6001	0.488
Mof_C 	C 	0.6633	0.0436	0.4247	0.156
Mof_C 	C 	0.6484	0.9785	0.4065	-0.054
Mof_C 	C 	0.6095	0.9703	0.3643	-0.044
Mof_H 	H 	0.5937	0.0054	0.3469	0.051
Mof_C 	C 	0.5941	0.9092	0.3479	0.001
Mof_C 	C 	0.6183	0.8571	0.3725	-0.011
Mof_H 	H 	0.6082	0.8165	0.3614	0.041
Mof_C 	C 	0.6573	0.8651	0.4132	-0.139
Mof_C 	C 	0.6724	0.9257	0.4305	0.02
Mof_H 	H 	0.6986	0.9309	0.4583	0.02
Mof_C 	C 	0.6832	0.8078	0.437	0.482
Mof_C 	C 	0.5543	0.9028	0.3034	-0.035
Mof_C 	C 	0.5198	0.9007	0.2696	-0.024
Mof_C 	C 	0.5757	0.1813	0.4927	0.218
Mof_H 	H 	0.5722	0.1979	0.4485	-0.043
Mof_C 	C 	0.5476	0.1619	0.6016	-0.265
Mof_H 	H 	0.5656	0.1244	0.6025	0.124
Mof_H 	H 	0.5628	0.1942	0.6288	0.074
Mof_H 	H 	0.5193	0.1528	0.62	0.096
Mof_C 	C 	0.5002	0.2173	0.506	-0.457
Mof_H 	H 	0.5018	0.2268	0.4581	0.165
Mof_H 	H 	0.4744	0.1915	0.512	0.111
Mof_H 	H 	0.4978	0.256	0.5313	0.164
Mof_C 	C 	0.7025	0.8996	0.656	0.529
Mof_H 	H 	0.7087	0.8708	0.6914	-0.251
Mof_C 	C 	0.6459	0.9356	0.7231	-0.051
Mof_H 	H 	0.6632	0.935	0.7663	-0.31
Mof_H 	H 	0.623	0.9673	0.7242	-0.002
Mof_H 	H 	0.6323	0.895	0.7148	-0.004
Mof_C 	C 	0.6436	0.9496	0.6026	-0.072
Mof_H 	H 	0.6595	0.9599	0.563	0.082
Mof_H 	H 	0.6307	0.9082	0.597	0.054
Mof_H 	H 	0.6203	0.9801	0.6075	0.079
Mof_N 	N 	0.54	0.184	0.5309	-0.055
Mof_N 	N 	0.6759	0.9506	0.6665	0.005
Mof_O 	O 	0.6344	0.0872	0.407	0.054
Mof_O 	O 	0.6984	0.053	0.457	2.58
Mof_O 	O 	0.6182	0.1833	0.5225	-0.499
Mof_O 	O 	0.7251	0.8895	0.6177	-0.029
Mof_C 	C 	0.6616	0.0443	0.4249	0.04
Mof_C 	C 	0.5917	0.1373	0.5115	-0.065
Mof_H 	H 	0.5971	0.1038	0.4824	0.046
Mof_C 	C 	0.5599	0.2049	0.5835	0.013
Mof_H 	H 	0.5373	0.21	0.6157	0.037
Mof_H 	H 	0.589	0.2063	0.6074	0.022
Mof_H 	H 	0.5573	0.2384	0.5502	0.04
Mof_C 	C 	0.515	0.1229	0.5356	-0.345
Mof_H 	H 	0.515	0.0886	0.5034	0.122
Mof_H 	H 	0.5033	0.1085	0.5775	0.119
Mof_H 	H 	0.4965	0.1565	0.5165	0.177
Mof_C 	C 	0.6949	0.9292	0.6106	-0.086
Mof_H 	H 	0.6962	0.9588	0.5755	0.112
Mof_C 	C 	0.6764	0.9192	0.7238	-0.849
Mof_H 	H 	0.6886	0.8773	0.727	0.327
Mof_H 	H 	0.6993	0.9493	0.7377	0.294
Mof_H 	H 	0.6521	0.9227	0.7533	0.618
Mof_C 	C 	0.6387	0.9961	0.6471	-0.368
Mof_H 	H 	0.6269	0.0035	0.6008	0.106
Mof_H 	H 	0.6149	0.9983	0.6776	0.134
Mof_H 	H 	0.6608	0.0275	0.6598	0.151
Mof_N 	N 	0.5537	0.1424	0.5477	-0.002
Mof_N 	N 	0.6597	0.9321	0.6518	-0.035
Mof_Tb	Tb	0.27632	0.32578	0.5582	2.167
Mof_Tb	Tb	0.18115	0.66914	0.46243	2.318
Mof_O 	O 	0.27992	0.4321	0.5131	-0.454
Mof_O 	O 	0.34014	0.3993	0.5721	-0.451
Mof_O 	O 	0.25749	0.6611	0.4679	-0.669
Mof_O 	O 	0.31005	0.7289	0.5018	-0.624
Mof_O 	O 	0.62742	0.777	0.8802	-0.433
Mof_O 	O 	0.69564	0.7921	0.8504	-0.49
Mof_O 	O 	0.68837	0.6907	0.5449	-0.518
Mof_O 	O 	0.73141	0.7546	0.6129	-0.555
Mof_O 	O 	0.154	0.5891	0.3857	-0.543
Mof_O 	O 	0.1871	0.5552	0.478	-2.985
Mof_O 	O 	0.21593	0.3142	0.4799	-0.585
Mof_O 	O 	0.17108	0.2552	0.4125	-0.529
Mof_O 	O 	0.1133	0.6584	0.5114	0.068
Mof_O 	O 	0.2186	0.3914	0.5995	-0.481
Mof_C 	C 	0.3176	0.4428	0.5434	0.343
Mof_C 	C 	0.3343	0.5092	0.5462	-0.15
Mof_C 	C 	0.3766	0.5222	0.5769	0.023
Mof_H 	H 	0.3944	0.4893	0.5947	0.036
Mof_C 	C 	0.3924	0.5834	0.5811	-0.05
Mof_C 	C 	0.3656	0.6328	0.5537	0.079
Mof_H 	H 	0.3763	0.6741	0.556	0.014
Mof_C 	C 	0.3236	0.6209	0.5235	-0.261
Mof_C 	C 	0.3079	0.5587	0.519	0.145
Mof_H 	H 	0.2798	0.5502	0.4978	-0.062
Mof_C 	C 	0.295	0.6741	0.4958	0.61
Mof_C 	C 	0.4362	0.5983	0.6119	0.004
Mof_C 	C 	0.4721	0.6155	0.6358	-0.021
Mof_C 	C 	0.5136	0.6363	0.6587	-0.004
Mof_C 	C 	0.55	0.6568	0.6768	-0.021
Mof_C 	C 	0.5929	0.6852	0.6933	-0.005
Mof_C 	C 	0.604	0.7129	0.7559	-0.018
Mof_H 	H 	0.5837	0.7118	0.7899	0.053
Mof_C 	C 	0.6447	0.742	0.769	-0.101
Mof_C 	C 	0.6749	0.7441	0.7186	0.055
Mof_H 	H 	0.7024	0.764	0.7275	0.016
Mof_C 	C 	0.6646	0.7167	0.6546	-0.156
Mof_C 	C 	0.6239	0.6876	0.6411	0.007
Mof_H 	H 	0.6167	0.6695	0.5983	0.04
Mof_C 	C 	0.6568	0.7726	0.8373	0.334
Mof_C 	C 	0.6971	0.7207	0.6001	0.488
Mof_C 	C 	0.1633	0.5436	0.4247	0.156
Mof_C 	C 	0.1484	0.4785	0.4065	-0.054
Mof_C 	C 	0.1095	0.4703	0.3643	-0.045
Mof_H 	H 	0.0937	0.5054	0.3469	0.051
Mof_C 	C 	0.0941	0.4092	0.3479	0.001
Mof_C 	C 	0.1183	0.3571	0.3725	-0.012
Mof_H 	H 	0.1082	0.3165	0.3614	0.041
Mof_C 	C 	0.1573	0.3651	0.4132	-0.139
Mof_C 	C 	0.1724	0.4257	0.4305	0.02
Mof_H 	H 	0.1986	0.4309	0.4583	0.02
Mof_C 	C 	0.1832	0.3078	0.437	0.482
Mof_C 	C 	0.0543	0.4028	0.3034	-0.036
Mof_C 	C 	0.0198	0.4007	0.2696	-0.023
Mof_C 	C 	0.0757	0.6813	0.4927	0.217
Mof_H 	H 	0.0722	0.6979	0.4485	-0.043
Mof_C 	C 	0.0476	0.6619	0.6016	-0.265
Mof_H 	H 	0.0656	0.6244	0.6025	0.124
Mof_H 	H 	0.0628	0.6942	0.6288	0.074
Mof_H 	H 	0.0193	0.6528	0.62	0.096
Mof_C 	C 	0.0002	0.7173	0.506	-0.457
Mof_H 	H 	0.0018	0.7268	0.4581	0.165
Mof_H 	H 	0.9744	0.6915	0.512	0.112
Mof_H 	H 	0.9978	0.756	0.5313	0.164
Mof_C 	C 	0.2025	0.3996	0.656	0.531
Mof_H 	H 	0.2087	0.3708	0.6914	-0.252
Mof_C 	C 	0.1459	0.4356	0.7231	-0.051
Mof_H 	H 	0.1632	0.435	0.7663	-0.311
Mof_H 	H 	0.123	0.4673	0.7242	-0.002
Mof_H 	H 	0.1323	0.395	0.7148	-0.004
Mof_C 	C 	0.1436	0.4496	0.6026	-0.069
Mof_H 	H 	0.1595	0.4599	0.563	0.081
Mof_H 	H 	0.1307	0.4082	0.597	0.053
Mof_H 	H 	0.1203	0.4801	0.6075	0.078
Mof_N 	N 	0.04	0.684	0.5309	-0.055
Mof_N 	N 	0.1759	0.4506	0.6665	0.006
Mof_O 	O 	0.1344	0.5872	0.407	0.054
Mof_O 	O 	0.1984	0.553	0.457	2.582
Mof_O 	O 	0.1182	0.6833	0.5225	-0.499
Mof_O 	O 	0.2251	0.3895	0.6177	-0.028
Mof_C 	C 	0.1616	0.5443	0.4249	0.04
Mof_C 	C 	0.0917	0.6373	0.5115	-0.065
Mof_H 	H 	0.0971	0.6038	0.4824	0.046
Mof_C 	C 	0.0599	0.7049	0.5835	0.013
Mof_H 	H 	0.0373	0.71	0.6157	0.037
Mof_H 	H 	0.089	0.7063	0.6074	0.021
Mof_H 	H 	0.0573	0.7384	0.5502	0.04
Mof_C 	C 	0.015	0.6229	0.5356	-0.345
Mof_H 	H 	0.015	0.5886	0.5034	0.122
Mof_H 	H 	0.0033	0.6085	0.5775	0.119
Mof_H 	H 	0.9965	0.6565	0.5165	0.177
Mof_C 	C 	0.1949	0.4292	0.6106	-0.088
Mof_H 	H 	0.1962	0.4588	0.5755	0.113
Mof_C 	C 	0.1764	0.4192	0.7238	-0.85
Mof_H 	H 	0.1886	0.3773	0.727	0.328
Mof_H 	H 	0.1993	0.4493	0.7377	0.295
Mof_H 	H 	0.1521	0.4227	0.7533	0.619
Mof_C 	C 	0.1387	0.4961	0.6471	-0.368
Mof_H 	H 	0.1269	0.5035	0.6008	0.106
Mof_H 	H 	0.1149	0.4983	0.6776	0.134
Mof_H 	H 	0.1608	0.5275	0.6598	0.15
Mof_N 	N 	0.0537	0.6424	0.5477	-0.002
Mof_N 	N 	0.1597	0.4321	0.6518	-0.036
Mof_Tb	Tb	0.22368	0.82578	0.9418	2.165
Mof_Tb	Tb	0.31885	0.16914	0.03757	2.317
Mof_O 	O 	0.22008	0.9321	0.9869	-0.454
Mof_O 	O 	0.15986	0.8993	0.9279	-0.451
Mof_O 	O 	0.24251	0.1611	0.0321	-0.669
Mof_O 	O 	0.18995	0.2289	0.9982	-0.624
Mof_O 	O 	0.87258	0.277	0.6198	-0.432
Mof_O 	O 	0.80436	0.2921	0.6496	-0.49
Mof_O 	O 	0.81163	0.1907	0.9551	-0.517
Mof_O 	O 	0.76859	0.2546	0.8871	-0.555
Mof_O 	O 	0.346	0.0891	0.1143	-0.543
Mof_O 	O 	0.3129	0.0552	0.022	-2.989
Mof_O 	O 	0.28407	0.8142	0.0201	-0.584
Mof_O 	O 	0.32892	0.7552	0.0875	-0.529
Mof_O 	O 	0.3867	0.1584	0.9886	0.071
Mof_O 	O 	0.2814	0.8914	0.9005	-0.479
Mof_C 	C 	0.1824	0.9428	0.9566	0.343
Mof_C 	C 	0.1657	0.0092	0.9538	-0.151
Mof_C 	C 	0.1234	0.0222	0.9231	0.025
Mof_H 	H 	0.1056	0.9893	0.9053	0.034
Mof_C 	C 	0.1076	0.0834	0.9189	-0.052
Mof_C 	C 	0.1344	0.1328	0.9463	0.08
Mof_H 	H 	0.1237	0.1741	0.944	0.014
Mof_C 	C 	0.1764	0.1209	0.9765	-0.262
Mof_C 	C 	0.1921	0.0587	0.981	0.147
Mof_H 	H 	0.2202	0.0502	0.0022	-0.063
Mof_C 	C 	0.205	0.1741	0.0042	0.61
Mof_C 	C 	0.0638	0.0983	0.8881	0.005
Mof_C 	C 	0.0279	0.1155	0.8642	-0.023
Mof_C 	C 	0.9864	0.1363	0.8413	-0.002
Mof_C 	C 	0.95	0.1568	0.8232	-0.021
Mof_C 	C 	0.9071	0.1852	0.8067	-0.004
Mof_C 	C 	0.896	0.2129	0.7441	-0.019
Mof_H 	H 	0.9163	0.2118	0.7101	0.053
Mof_C 	C 	0.8553	0.242	0.731	-0.101
Mof_C 	C 	0.8251	0.2441	0.7814	0.055
Mof_H 	H 	0.7976	0.264	0.7725	0.016
Mof_C 	C 	0.8354	0.2167	0.8454	-0.156
Mof_C 	C 	0.8761	0.1876	0.8589	0.006
Mof_H 	H 	0.8833	0.1695	0.9017	0.041
Mof_C 	C 	0.8432	0.2726	0.6627	0.333
Mof_C 	C 	0.8029	0.2207	0.8999	0.488
Mof_C 	C 	0.3367	0.0436	0.0753	0.156
Mof_C 	C 	0.3516	0.9785	0.0935	-0.054
Mof_C 	C 	0.3905	0.9703	0.1357	-0.043
Mof_H 	H 	0.4063	0.0054	0.1531	0.05
Mof_C 	C 	0.4059	0.9092	0.1521	0.001
Mof_C 	C 	0.3817	0.8571	0.1275	-0.011
Mof_H 	H 	0.3918	0.8165	0.1386	0.041
Mof_C 	C 	0.3427	0.8651	0.0868	-0.139
Mof_C 	C 	0.3276	0.9257	0.0695	0.02
Mof_H 	H 	0.3014	0.9309	0.0417	0.02
Mof_C 	C 	0.3168	0.8078	0.063	0.482
Mof_C 	C 	0.4457	0.9028	0.1966	-0.035
Mof_C 	C 	0.4802	0.9007	0.2304	-0.024
Mof_C 	C 	0.4243	0.1813	0.0073	0.215
Mof_H 	H 	0.4278	0.1979	0.0515	-0.042
Mof_C 	C 	0.4524	0.1619	0.8984	-0.265
Mof_H 	H 	0.4344	0.1244	0.8975	0.124
Mof_H 	H 	0.4372	0.1942	0.8712	0.074
Mof_H 	H 	0.4807	0.1528	0.88	0.096
Mof_C 	C 	0.4998	0.2173	0.994	-0.455
Mof_H 	H 	0.4982	0.2268	0.0419	0.164
Mof_H 	H 	0.5256	0.1915	0.988	0.111
Mof_H 	H 	0.5022	0.256	0.9687	0.164
Mof_C 	C 	0.2975	0.8996	0.844	0.527
Mof_H 	H 	0.2913	0.8708	0.8086	-0.25
Mof_C 	C 	0.3541	0.9356	0.7769	-0.05
Mof_H 	H 	0.3368	0.935	0.7337	-0.309
Mof_H 	H 	0.377	0.9673	0.7758	-0.002
Mof_H 	H 	0.3677	0.895	0.7852	-0.004
Mof_C 	C 	0.3564	0.9496	0.8974	-0.079
Mof_H 	H 	0.3405	0.9599	0.937	0.084
Mof_H 	H 	0.3693	0.9082	0.903	0.056
Mof_H 	H 	0.3797	0.9801	0.8925	0.081
Mof_N 	N 	0.46	0.184	0.9691	-0.055
Mof_N 	N 	0.3241	0.9506	0.8335	0.003
Mof_O 	O 	0.3656	0.0872	0.093	0.054
Mof_O 	O 	0.3016	0.053	0.043	2.586
Mof_O 	O 	0.3818	0.1833	0.9775	-0.502
Mof_O 	O 	0.2749	0.8895	0.8823	-0.031
Mof_C 	C 	0.3384	0.0443	0.0751	0.039
Mof_C 	C 	0.4083	0.1373	0.9885	-0.065
Mof_H 	H 	0.4029	0.1038	0.0176	0.045
Mof_C 	C 	0.4401	0.2049	0.9165	0.013
Mof_H 	H 	0.4627	0.21	0.8843	0.037
Mof_H 	H 	0.411	0.2063	0.8926	0.022
Mof_H 	H 	0.4427	0.2384	0.9498	0.04
Mof_C 	C 	0.485	0.1229	0.9644	-0.346
Mof_H 	H 	0.485	0.0886	0.9966	0.123
Mof_H 	H 	0.4967	0.1085	0.9225	0.119
Mof_H 	H 	0.5035	0.1565	0.9835	0.178
Mof_C 	C 	0.3051	0.9292	0.8894	-0.083
Mof_H 	H 	0.3038	0.9588	0.9245	0.111
Mof_C 	C 	0.3236	0.9192	0.7762	-0.848
Mof_H 	H 	0.3114	0.8773	0.773	0.327
Mof_H 	H 	0.3007	0.9493	0.7623	0.294
Mof_H 	H 	0.3479	0.9227	0.7467	0.616
Mof_C 	C 	0.3613	0.9961	0.8529	-0.366
Mof_H 	H 	0.3731	0.0035	0.8992	0.106
Mof_H 	H 	0.3851	0.9983	0.8224	0.133
Mof_H 	H 	0.3392	0.0275	0.8402	0.151
Mof_N 	N 	0.4463	0.1424	0.9523	-0.002
Mof_N 	N 	0.3403	0.9321	0.8482	-0.032
Mof_Tb	Tb	0.72368	0.32578	0.9418	2.168
Mof_Tb	Tb	0.81885	0.66914	0.03757	2.318
Mof_O 	O 	0.72008	0.4321	0.9869	-0.454
Mof_O 	O 	0.65986	0.3993	0.9279	-0.451
Mof_O 	O 	0.74251	0.6611	0.0321	-0.669
Mof_O 	O 	0.68995	0.7289	0.9982	-0.624
Mof_O 	O 	0.37258	0.777	0.6198	-0.433
Mof_O 	O 	0.30436	0.7921	0.6496	-0.49
Mof_O 	O 	0.31163	0.6907	0.9551	-0.519
Mof_O 	O 	0.26859	0.7546	0.8871	-0.555
Mof_O 	O 	0.846	0.5891	0.1143	-0.544
Mof_O 	O 	0.8129	0.5552	0.022	-2.992
Mof_O 	O 	0.78407	0.3142	0.0201	-0.586
Mof_O 	O 	0.82892	0.2552	0.0875	-0.529
Mof_O 	O 	0.8867	0.6584	0.9886	0.071
Mof_O 	O 	0.7814	0.3914	0.9005	-0.481
Mof_C 	C 	0.6824	0.4428	0.9566	0.343
Mof_C 	C 	0.6657	0.5092	0.9538	-0.151
Mof_C 	C 	0.6234	0.5222	0.9231	0.023
Mof_H 	H 	0.6056	0.4893	0.9053	0.036
Mof_C 	C 	0.6076	0.5834	0.9189	-0.05
Mof_C 	C 	0.6344	0.6328	0.9463	0.079
Mof_H 	H 	0.6237	0.6741	0.944	0.014
Mof_C 	C 	0.6764	0.6209	0.9765	-0.262
Mof_C 	C 	0.6921	0.5587	0.981	0.146
Mof_H 	H 	0.7202	0.5502	0.0022	-0.063
Mof_C 	C 	0.705	0.6741	0.0042	0.61
Mof_C 	C 	0.5638	0.5983	0.8881	0.004
Mof_C 	C 	0.5279	0.6155	0.8642	-0.021
Mof_C 	C 	0.4864	0.6363	0.8413	-0.004
Mof_C 	C 	0.45	0.6568	0.8232	-0.021
Mof_C 	C 	0.4071	0.6852	0.8067	-0.005
Mof_C 	C 	0.396	0.7129	0.7441	-0.018
Mof_H 	H 	0.4163	0.7118	0.7101	0.053
Mof_C 	C 	0.3553	0.742	0.731	-0.101
Mof_C 	C 	0.3251	0.7441	0.7814	0.055
Mof_H 	H 	0.2976	0.764	0.7725	0.016
Mof_C 	C 	0.3354	0.7167	0.8454	-0.156
Mof_C 	C 	0.3761	0.6876	0.8589	0.007
Mof_H 	H 	0.3833	0.6695	0.9017	0.04
Mof_C 	C 	0.3432	0.7726	0.6627	0.334
Mof_C 	C 	0.3029	0.7207	0.8999	0.488
Mof_C 	C 	0.8367	0.5436	0.0753	0.156
Mof_C 	C 	0.8516	0.4785	0.0935	-0.055
Mof_C 	C 	0.8905	0.4703	0.1357	-0.045
Mof_H 	H 	0.9063	0.5054	0.1531	0.051
Mof_C 	C 	0.9059	0.4092	0.1521	0.001
Mof_C 	C 	0.8817	0.3571	0.1275	-0.011
Mof_H 	H 	0.8918	0.3165	0.1386	0.04
Mof_C 	C 	0.8427	0.3651	0.0868	-0.14
Mof_C 	C 	0.8276	0.4257	0.0695	0.02
Mof_H 	H 	0.8014	0.4309	0.0417	0.02
Mof_C 	C 	0.8168	0.3078	0.063	0.483
Mof_C 	C 	0.9457	0.4028	0.1966	-0.035
Mof_C 	C 	0.9802	0.4007	0.2304	-0.025
Mof_C 	C 	0.9243	0.6813	0.0073	0.217
Mof_H 	H 	0.9278	0.6979	0.0515	-0.043
Mof_C 	C 	0.9524	0.6619	0.8984	-0.262
Mof_H 	H 	0.9344	0.6244	0.8975	0.123
Mof_H 	H 	0.9372	0.6942	0.8712	0.073
Mof_H 	H 	0.9807	0.6528	0.88	0.095
Mof_C 	C 	0.9998	0.7173	0.994	-0.444
Mof_H 	H 	0.9982	0.7268	0.0419	0.16
Mof_H 	H 	0.0256	0.6915	0.988	0.108
Mof_H 	H 	0.0022	0.756	0.9687	0.159
Mof_C 	C 	0.7975	0.3996	0.844	0.531
Mof_H 	H 	0.7913	0.3708	0.8086	-0.252
Mof_C 	C 	0.8541	0.4356	0.7769	-0.051
Mof_H 	H 	0.8368	0.435	0.7337	-0.311
Mof_H 	H 	0.877	0.4673	0.7758	-0.002
Mof_H 	H 	0.8677	0.395	0.7852	-0.003
Mof_C 	C 	0.8564	0.4496	0.8974	-0.068
Mof_H 	H 	0.8405	0.4599	0.937	0.081
Mof_H 	H 	0.8693	0.4082	0.903	0.053
Mof_H 	H 	0.8797	0.4801	0.8925	0.078
Mof_N 	N 	0.96	0.684	0.9691	-0.057
Mof_N 	N 	0.8241	0.4506	0.8335	0.006
Mof_O 	O 	0.8656	0.5872	0.093	0.054
Mof_O 	O 	0.8016	0.553	0.043	2.589
Mof_O 	O 	0.8818	0.6833	0.9775	-0.502
Mof_O 	O 	0.7749	0.3895	0.8823	-0.028
Mof_C 	C 	0.8384	0.5443	0.0751	0.039
Mof_C 	C 	0.9083	0.6373	0.9885	-0.065
Mof_H 	H 	0.9029	0.6038	0.0176	0.045
Mof_C 	C 	0.9401	0.7049	0.9165	0.011
Mof_H 	H 	0.9627	0.71	0.8843	0.037
Mof_H 	H 	0.911	0.7063	0.8926	0.022
Mof_H 	H 	0.9427	0.7384	0.9498	0.041
Mof_C 	C 	0.985	0.6229	0.9644	-0.338
Mof_H 	H 	0.985	0.5886	0.9966	0.121
Mof_H 	H 	0.9967	0.6085	0.9225	0.117
Mof_H 	H 	0.0035	0.6565	0.9835	0.174
Mof_C 	C 	0.8051	0.4292	0.8894	-0.088
Mof_H 	H 	0.8038	0.4588	0.9245	0.113
Mof_C 	C 	0.8236	0.4192	0.7762	-0.85
Mof_H 	H 	0.8114	0.3773	0.773	0.328
Mof_H 	H 	0.8007	0.4493	0.7623	0.295
Mof_H 	H 	0.8479	0.4227	0.7467	0.619
Mof_C 	C 	0.8613	0.4961	0.8529	-0.368
Mof_H 	H 	0.8731	0.5035	0.8992	0.107
Mof_H 	H 	0.8851	0.4983	0.8224	0.135
Mof_H 	H 	0.8392	0.5275	0.8402	0.151
Mof_N 	N 	0.9463	0.6424	0.9523	-0.003
Mof_N 	N 	0.8403	0.4321	0.8482	-0.036
_end
