data_functionalizedCrystal
_audit_creation_method	'EQeq! by Chris Wilmer'
_symmetry_space_group_name_H-M	'P1'
_symmetry_Int_Tables_number	1
_symmetry_cell_setting	triclinic
loop_
_symmetry_equiv_pos_as_xyz
  x,y,z
_cell_length_a	28.1991
_cell_length_b	28.1991
_cell_length_c	28.1991
_cell_angle_alpha	90
_cell_angle_beta	90
_cell_angle_gamma	90
loop_
_atom_site_label
_atom_site_type_symbol
_atom_site_fract_x
_atom_site_fract_y
_atom_site_fract_z
_atom_site_charge
Mof_H 	H 	0.2674	0.2221	0.1041	0.53
Mof_H 	H 	0.2461	0.2712	0.1191	0.514
Mof_H 	H 	0.2174	0.2376	0.0854	0.507
Mof_H 	H 	0.7326	0.7779	0.1041	0.541
Mof_H 	H 	0.7539	0.7288	0.1191	0.525
Mof_H 	H 	0.7826	0.7624	0.0854	0.518
Mof_H 	H 	0.7326	0.2221	0.8959	0.551
Mof_H 	H 	0.7539	0.2712	0.8809	0.534
Mof_H 	H 	0.7826	0.2376	0.9146	0.529
Mof_H 	H 	0.2674	0.7779	0.8959	0.551
Mof_H 	H 	0.2461	0.7288	0.8809	0.534
Mof_H 	H 	0.2174	0.7624	0.9146	0.529
Mof_H 	H 	0.1041	0.2674	0.2221	0.531
Mof_H 	H 	0.1191	0.2461	0.2712	0.515
Mof_H 	H 	0.0854	0.2174	0.2376	0.508
Mof_H 	H 	0.1041	0.7326	0.7779	0.542
Mof_H 	H 	0.1191	0.7539	0.7288	0.526
Mof_H 	H 	0.0854	0.7826	0.7624	0.519
Mof_H 	H 	0.8959	0.7326	0.2221	0.552
Mof_H 	H 	0.8809	0.7539	0.2712	0.535
Mof_H 	H 	0.9146	0.7826	0.2376	0.53
Mof_H 	H 	0.8959	0.2674	0.7779	0.552
Mof_H 	H 	0.8809	0.2461	0.7288	0.535
Mof_H 	H 	0.9146	0.2174	0.7624	0.53
Mof_H 	H 	0.2221	0.1041	0.2674	0.531
Mof_H 	H 	0.2712	0.1191	0.2461	0.515
Mof_H 	H 	0.2376	0.0854	0.2174	0.508
Mof_H 	H 	0.7779	0.1041	0.7326	0.542
Mof_H 	H 	0.7288	0.1191	0.7539	0.526
Mof_H 	H 	0.7624	0.0854	0.7826	0.519
Mof_H 	H 	0.2221	0.8959	0.7326	0.552
Mof_H 	H 	0.2712	0.8809	0.7539	0.535
Mof_H 	H 	0.2376	0.9146	0.7826	0.53
Mof_H 	H 	0.7779	0.8959	0.2674	0.552
Mof_H 	H 	0.7288	0.8809	0.2461	0.535
Mof_H 	H 	0.7624	0.9146	0.2174	0.53
Mof_H 	H 	0.2221	0.2674	0.8959	0.548
Mof_H 	H 	0.2712	0.2461	0.8809	0.531
Mof_H 	H 	0.2376	0.2174	0.9146	0.526
Mof_H 	H 	0.7779	0.7326	0.8959	0.555
Mof_H 	H 	0.7288	0.7539	0.8809	0.539
Mof_H 	H 	0.7624	0.7826	0.9146	0.533
Mof_H 	H 	0.2221	0.7326	0.1041	0.537
Mof_H 	H 	0.2712	0.7539	0.1191	0.521
Mof_H 	H 	0.2376	0.7826	0.0854	0.514
Mof_H 	H 	0.7779	0.2674	0.1041	0.537
Mof_H 	H 	0.7288	0.2461	0.1191	0.521
Mof_H 	H 	0.7624	0.2174	0.0854	0.514
Mof_H 	H 	0.2674	0.1041	0.7779	0.537
Mof_H 	H 	0.2461	0.1191	0.7288	0.521
Mof_H 	H 	0.2174	0.0854	0.7624	0.514
Mof_H 	H 	0.7326	0.1041	0.2221	0.537
Mof_H 	H 	0.7539	0.1191	0.2712	0.521
Mof_H 	H 	0.7826	0.0854	0.2376	0.514
Mof_H 	H 	0.7326	0.8959	0.7779	0.555
Mof_H 	H 	0.7539	0.8809	0.7288	0.539
Mof_H 	H 	0.7826	0.9146	0.7624	0.533
Mof_H 	H 	0.2674	0.8959	0.2221	0.548
Mof_H 	H 	0.2461	0.8809	0.2712	0.531
Mof_H 	H 	0.2174	0.9146	0.2376	0.526
Mof_H 	H 	0.1041	0.2221	0.7326	0.537
Mof_H 	H 	0.1191	0.2712	0.7539	0.521
Mof_H 	H 	0.0854	0.2376	0.7826	0.514
Mof_H 	H 	0.1041	0.7779	0.2674	0.537
Mof_H 	H 	0.1191	0.7288	0.2461	0.521
Mof_H 	H 	0.0854	0.7624	0.2174	0.514
Mof_H 	H 	0.8959	0.2221	0.2674	0.548
Mof_H 	H 	0.8809	0.2712	0.2461	0.531
Mof_H 	H 	0.9146	0.2376	0.2174	0.526
Mof_H 	H 	0.8959	0.7779	0.7326	0.555
Mof_H 	H 	0.8809	0.7288	0.7539	0.539
Mof_H 	H 	0.9146	0.7624	0.7826	0.533
Mof_H 	H 	0.7326	0.7779	0.8959	0.555
Mof_H 	H 	0.7539	0.7288	0.8809	0.539
Mof_H 	H 	0.7826	0.7624	0.9146	0.533
Mof_H 	H 	0.2674	0.2221	0.8959	0.548
Mof_H 	H 	0.2461	0.2712	0.8809	0.531
Mof_H 	H 	0.2174	0.2376	0.9146	0.526
Mof_H 	H 	0.2674	0.7779	0.1041	0.537
Mof_H 	H 	0.2461	0.7288	0.1191	0.521
Mof_H 	H 	0.2174	0.7624	0.0854	0.514
Mof_H 	H 	0.7326	0.2221	0.1041	0.537
Mof_H 	H 	0.7539	0.2712	0.1191	0.521
Mof_H 	H 	0.7826	0.2376	0.0854	0.514
Mof_H 	H 	0.8959	0.7326	0.7779	0.555
Mof_H 	H 	0.8809	0.7539	0.7288	0.539
Mof_H 	H 	0.9146	0.7826	0.7624	0.533
Mof_H 	H 	0.8959	0.2674	0.2221	0.548
Mof_H 	H 	0.8809	0.2461	0.2712	0.531
Mof_H 	H 	0.9146	0.2174	0.2376	0.526
Mof_H 	H 	0.1041	0.2674	0.7779	0.537
Mof_H 	H 	0.1191	0.2461	0.7288	0.521
Mof_H 	H 	0.0854	0.2174	0.7624	0.514
Mof_H 	H 	0.1041	0.7326	0.2221	0.537
Mof_H 	H 	0.1191	0.7539	0.2712	0.521
Mof_H 	H 	0.0854	0.7826	0.2376	0.514
Mof_H 	H 	0.7779	0.8959	0.7326	0.555
Mof_H 	H 	0.7288	0.8809	0.7539	0.539
Mof_H 	H 	0.7624	0.9146	0.7826	0.533
Mof_H 	H 	0.2221	0.8959	0.2674	0.548
Mof_H 	H 	0.2712	0.8809	0.2461	0.531
Mof_H 	H 	0.2376	0.9146	0.2174	0.526
Mof_H 	H 	0.7779	0.1041	0.2674	0.537
Mof_H 	H 	0.7288	0.1191	0.2461	0.521
Mof_H 	H 	0.7624	0.0854	0.2174	0.514
Mof_H 	H 	0.2221	0.1041	0.7326	0.537
Mof_H 	H 	0.2712	0.1191	0.7539	0.521
Mof_H 	H 	0.2376	0.0854	0.7826	0.514
Mof_H 	H 	0.7779	0.7326	0.1041	0.542
Mof_H 	H 	0.7288	0.7539	0.1191	0.526
Mof_H 	H 	0.7624	0.7826	0.0854	0.519
Mof_H 	H 	0.2221	0.2674	0.1041	0.531
Mof_H 	H 	0.2712	0.2461	0.1191	0.515
Mof_H 	H 	0.2376	0.2174	0.0854	0.508
Mof_H 	H 	0.7779	0.2674	0.8959	0.552
Mof_H 	H 	0.7288	0.2461	0.8809	0.535
Mof_H 	H 	0.7624	0.2174	0.9146	0.53
Mof_H 	H 	0.2221	0.7326	0.8959	0.552
Mof_H 	H 	0.2712	0.7539	0.8809	0.535
Mof_H 	H 	0.2376	0.7826	0.9146	0.53
Mof_H 	H 	0.7326	0.8959	0.2221	0.552
Mof_H 	H 	0.7539	0.8809	0.2712	0.535
Mof_H 	H 	0.7826	0.9146	0.2376	0.53
Mof_H 	H 	0.2674	0.8959	0.7779	0.552
Mof_H 	H 	0.2461	0.8809	0.7288	0.535
Mof_H 	H 	0.2174	0.9146	0.7624	0.53
Mof_H 	H 	0.2674	0.1041	0.2221	0.531
Mof_H 	H 	0.2461	0.1191	0.2712	0.515
Mof_H 	H 	0.2174	0.0854	0.2376	0.508
Mof_H 	H 	0.7326	0.1041	0.7779	0.542
Mof_H 	H 	0.7539	0.1191	0.7288	0.526
Mof_H 	H 	0.7826	0.0854	0.7624	0.519
Mof_H 	H 	0.8959	0.7779	0.2674	0.552
Mof_H 	H 	0.8809	0.7288	0.2461	0.535
Mof_H 	H 	0.9146	0.7624	0.2174	0.53
Mof_H 	H 	0.8959	0.2221	0.7326	0.552
Mof_H 	H 	0.8809	0.2712	0.7539	0.535
Mof_H 	H 	0.9146	0.2376	0.7826	0.53
Mof_H 	H 	0.1041	0.7779	0.7326	0.542
Mof_H 	H 	0.1191	0.7288	0.7539	0.526
Mof_H 	H 	0.0854	0.7624	0.7826	0.519
Mof_H 	H 	0.1041	0.2221	0.2674	0.531
Mof_H 	H 	0.1191	0.2712	0.2461	0.515
Mof_H 	H 	0.0854	0.2376	0.2174	0.508
Mof_Zr	Zr	0.41264	0	-0	3.213
Mof_Zr	Zr	0.58736	0	-0	3.213
Mof_Zr	Zr	-0	0.41264	-0	3.213
Mof_Zr	Zr	4.50303e-33	0.58736	-0	3.213
Mof_Zr	Zr	1.54715e-33	4.50303e-33	0.41264	3.213
Mof_Zr	Zr	6.70528e-33	4.50303e-33	0.58736	3.213
Mof_Zr	Zr	0.5	0.06254	0.06254	3.181
Mof_Zr	Zr	0.5	0.93746	0.06254	3.183
Mof_Zr	Zr	0.5	0.06254	0.93746	3.183
Mof_Zr	Zr	0.5	0.93746	0.93746	3.184
Mof_Zr	Zr	0.06254	0.5	0.06254	3.181
Mof_Zr	Zr	0.06254	0.5	0.93746	3.183
Mof_Zr	Zr	0.93746	0.5	0.06254	3.183
Mof_Zr	Zr	0.93746	0.5	0.93746	3.184
Mof_Zr	Zr	0.06254	0.06254	0.5	3.181
Mof_Zr	Zr	0.93746	0.06254	0.5	3.183
Mof_Zr	Zr	0.06254	0.93746	0.5	3.183
Mof_Zr	Zr	0.93746	0.93746	0.5	3.184
Mof_O 	O 	0.3733	0.04834	0.04834	-0.747
Mof_O 	O 	0.42854	0.08755	0.08755	-0.87
Mof_C 	C 	0.3852	0.0788	0.0788	0.822
Mof_C 	C 	0.3511	0.1008	0.1008	-0.679
Mof_C 	C 	0.3029	0.0946	0.0946	0.529
Mof_H 	H 	0.2933	0.0723	0.0723	-0.169
Mof_C 	C 	0.267	0.1192	0.1192	-0.777
Mof_H 	H 	0.2355	0.1124	0.1124	0.244
Mof_C 	C 	0.277	0.1522	0.1522	0.709
Mof_C 	C 	0.3247	0.1624	0.1624	-0.719
Mof_H 	H 	0.3331	0.1849	0.1849	0.218
Mof_C 	C 	0.3593	0.1368	0.1368	0.447
Mof_H 	H 	0.3908	0.1438	0.1438	-0.179
Mof_C 	C 	0.2376	0.1765	0.1765	-1.224
Mof_O 	O 	0.6267	0.95166	0.04834	-0.736
Mof_O 	O 	0.57146	0.91245	0.08755	-0.866
Mof_C 	C 	0.6148	0.9212	0.0788	0.822
Mof_C 	C 	0.6489	0.8992	0.1008	-0.679
Mof_C 	C 	0.6971	0.9054	0.0946	0.536
Mof_H 	H 	0.7067	0.9277	0.0723	-0.165
Mof_C 	C 	0.733	0.8808	0.1192	-0.787
Mof_H 	H 	0.7645	0.8876	0.1124	0.251
Mof_C 	C 	0.723	0.8478	0.1522	0.724
Mof_C 	C 	0.6753	0.8376	0.1624	-0.73
Mof_H 	H 	0.6669	0.8151	0.1849	0.222
Mof_C 	C 	0.6407	0.8632	0.1368	0.452
Mof_H 	H 	0.6092	0.8562	0.1438	-0.18
Mof_C 	C 	0.7624	0.8235	0.1765	-1.256
Mof_O 	O 	0.6267	0.04834	0.95166	-0.736
Mof_O 	O 	0.57146	0.08755	0.91245	-0.866
Mof_C 	C 	0.6148	0.0788	0.9212	0.822
Mof_C 	C 	0.6489	0.1008	0.8992	-0.679
Mof_C 	C 	0.6971	0.0946	0.9054	0.536
Mof_H 	H 	0.7067	0.0723	0.9277	-0.165
Mof_C 	C 	0.733	0.1192	0.8808	-0.787
Mof_H 	H 	0.7645	0.1124	0.8876	0.251
Mof_C 	C 	0.723	0.1522	0.8478	0.724
Mof_C 	C 	0.6753	0.1624	0.8376	-0.73
Mof_H 	H 	0.6669	0.1849	0.8151	0.222
Mof_C 	C 	0.6407	0.1368	0.8632	0.452
Mof_H 	H 	0.6092	0.1438	0.8562	-0.18
Mof_C 	C 	0.7624	0.1765	0.8235	-1.256
Mof_O 	O 	0.3733	0.95166	0.95166	-0.728
Mof_O 	O 	0.42854	0.91245	0.91245	-0.862
Mof_C 	C 	0.3852	0.9212	0.9212	0.82
Mof_C 	C 	0.3511	0.8992	0.8992	-0.676
Mof_C 	C 	0.3029	0.9054	0.9054	0.536
Mof_H 	H 	0.2933	0.9277	0.9277	-0.161
Mof_C 	C 	0.267	0.8808	0.8808	-0.786
Mof_H 	H 	0.2355	0.8876	0.8876	0.252
Mof_C 	C 	0.277	0.8478	0.8478	0.726
Mof_C 	C 	0.3247	0.8376	0.8376	-0.729
Mof_H 	H 	0.3331	0.8151	0.8151	0.222
Mof_C 	C 	0.3593	0.8632	0.8632	0.452
Mof_H 	H 	0.3908	0.8562	0.8562	-0.179
Mof_C 	C 	0.2376	0.8235	0.8235	-1.261
Mof_O 	O 	0.04834	0.3733	0.04834	-0.747
Mof_O 	O 	0.08755	0.42854	0.08755	-0.87
Mof_C 	C 	0.0788	0.3852	0.0788	0.822
Mof_C 	C 	0.1008	0.3511	0.1008	-0.679
Mof_C 	C 	0.0946	0.3029	0.0946	0.529
Mof_H 	H 	0.0723	0.2933	0.0723	-0.169
Mof_C 	C 	0.1192	0.267	0.1192	-0.777
Mof_H 	H 	0.1124	0.2355	0.1124	0.244
Mof_C 	C 	0.1522	0.277	0.1522	0.709
Mof_C 	C 	0.1624	0.3247	0.1624	-0.719
Mof_H 	H 	0.1849	0.3331	0.1849	0.218
Mof_C 	C 	0.1368	0.3593	0.1368	0.447
Mof_H 	H 	0.1438	0.3908	0.1438	-0.179
Mof_C 	C 	0.1765	0.2376	0.1765	-1.224
Mof_O 	O 	0.04834	0.6267	0.95166	-0.736
Mof_O 	O 	0.08755	0.57146	0.91245	-0.866
Mof_C 	C 	0.0788	0.6148	0.9212	0.822
Mof_C 	C 	0.1008	0.6489	0.8992	-0.679
Mof_C 	C 	0.0946	0.6971	0.9054	0.536
Mof_H 	H 	0.0723	0.7067	0.9277	-0.165
Mof_C 	C 	0.1192	0.733	0.8808	-0.787
Mof_H 	H 	0.1124	0.7645	0.8876	0.251
Mof_C 	C 	0.1522	0.723	0.8478	0.724
Mof_C 	C 	0.1624	0.6753	0.8376	-0.73
Mof_H 	H 	0.1849	0.6669	0.8151	0.222
Mof_C 	C 	0.1368	0.6407	0.8632	0.452
Mof_H 	H 	0.1438	0.6092	0.8562	-0.18
Mof_C 	C 	0.1765	0.7624	0.8235	-1.256
Mof_O 	O 	0.95166	0.6267	0.04834	-0.736
Mof_O 	O 	0.91245	0.57146	0.08755	-0.866
Mof_C 	C 	0.9212	0.6148	0.0788	0.822
Mof_C 	C 	0.8992	0.6489	0.1008	-0.679
Mof_C 	C 	0.9054	0.6971	0.0946	0.536
Mof_H 	H 	0.9277	0.7067	0.0723	-0.165
Mof_C 	C 	0.8808	0.733	0.1192	-0.787
Mof_H 	H 	0.8876	0.7645	0.1124	0.251
Mof_C 	C 	0.8478	0.723	0.1522	0.724
Mof_C 	C 	0.8376	0.6753	0.1624	-0.73
Mof_H 	H 	0.8151	0.6669	0.1849	0.222
Mof_C 	C 	0.8632	0.6407	0.1368	0.452
Mof_H 	H 	0.8562	0.6092	0.1438	-0.18
Mof_C 	C 	0.8235	0.7624	0.1765	-1.256
Mof_O 	O 	0.95166	0.3733	0.95166	-0.728
Mof_O 	O 	0.91245	0.42854	0.91245	-0.862
Mof_C 	C 	0.9212	0.3852	0.9212	0.82
Mof_C 	C 	0.8992	0.3511	0.8992	-0.676
Mof_C 	C 	0.9054	0.3029	0.9054	0.536
Mof_H 	H 	0.9277	0.2933	0.9277	-0.161
Mof_C 	C 	0.8808	0.267	0.8808	-0.786
Mof_H 	H 	0.8876	0.2355	0.8876	0.252
Mof_C 	C 	0.8478	0.277	0.8478	0.726
Mof_C 	C 	0.8376	0.3247	0.8376	-0.729
Mof_H 	H 	0.8151	0.3331	0.8151	0.222
Mof_C 	C 	0.8632	0.3593	0.8632	0.452
Mof_H 	H 	0.8562	0.3908	0.8562	-0.179
Mof_C 	C 	0.8235	0.2376	0.8235	-1.261
Mof_O 	O 	0.04834	0.04834	0.3733	-0.747
Mof_O 	O 	0.08755	0.08755	0.42854	-0.87
Mof_C 	C 	0.0788	0.0788	0.3852	0.822
Mof_C 	C 	0.1008	0.1008	0.3511	-0.679
Mof_C 	C 	0.0946	0.0946	0.3029	0.529
Mof_H 	H 	0.0723	0.0723	0.2933	-0.169
Mof_C 	C 	0.1192	0.1192	0.267	-0.777
Mof_H 	H 	0.1124	0.1124	0.2355	0.244
Mof_C 	C 	0.1522	0.1522	0.277	0.709
Mof_C 	C 	0.1624	0.1624	0.3247	-0.719
Mof_H 	H 	0.1849	0.1849	0.3331	0.218
Mof_C 	C 	0.1368	0.1368	0.3593	0.447
Mof_H 	H 	0.1438	0.1438	0.3908	-0.179
Mof_C 	C 	0.1765	0.1765	0.2376	-1.224
Mof_O 	O 	0.95166	0.04834	0.6267	-0.736
Mof_O 	O 	0.91245	0.08755	0.57146	-0.866
Mof_C 	C 	0.9212	0.0788	0.6148	0.822
Mof_C 	C 	0.8992	0.1008	0.6489	-0.679
Mof_C 	C 	0.9054	0.0946	0.6971	0.536
Mof_H 	H 	0.9277	0.0723	0.7067	-0.165
Mof_C 	C 	0.8808	0.1192	0.733	-0.787
Mof_H 	H 	0.8876	0.1124	0.7645	0.251
Mof_C 	C 	0.8478	0.1522	0.723	0.724
Mof_C 	C 	0.8376	0.1624	0.6753	-0.73
Mof_H 	H 	0.8151	0.1849	0.6669	0.222
Mof_C 	C 	0.8632	0.1368	0.6407	0.452
Mof_H 	H 	0.8562	0.1438	0.6092	-0.18
Mof_C 	C 	0.8235	0.1765	0.7624	-1.256
Mof_O 	O 	0.04834	0.95166	0.6267	-0.736
Mof_O 	O 	0.08755	0.91245	0.57146	-0.866
Mof_C 	C 	0.0788	0.9212	0.6148	0.822
Mof_C 	C 	0.1008	0.8992	0.6489	-0.679
Mof_C 	C 	0.0946	0.9054	0.6971	0.536
Mof_H 	H 	0.0723	0.9277	0.7067	-0.165
Mof_C 	C 	0.1192	0.8808	0.733	-0.787
Mof_H 	H 	0.1124	0.8876	0.7645	0.251
Mof_C 	C 	0.1522	0.8478	0.723	0.724
Mof_C 	C 	0.1624	0.8376	0.6753	-0.73
Mof_H 	H 	0.1849	0.8151	0.6669	0.222
Mof_C 	C 	0.1368	0.8632	0.6407	0.452
Mof_H 	H 	0.1438	0.8562	0.6092	-0.18
Mof_C 	C 	0.1765	0.8235	0.7624	-1.256
Mof_O 	O 	0.95166	0.95166	0.3733	-0.728
Mof_O 	O 	0.91245	0.91245	0.42854	-0.862
Mof_C 	C 	0.9212	0.9212	0.3852	0.82
Mof_C 	C 	0.8992	0.8992	0.3511	-0.676
Mof_C 	C 	0.9054	0.9054	0.3029	0.536
Mof_H 	H 	0.9277	0.9277	0.2933	-0.161
Mof_C 	C 	0.8808	0.8808	0.267	-0.786
Mof_H 	H 	0.8876	0.8876	0.2355	0.252
Mof_C 	C 	0.8478	0.8478	0.277	0.726
Mof_C 	C 	0.8376	0.8376	0.3247	-0.729
Mof_H 	H 	0.8151	0.8151	0.3331	0.222
Mof_C 	C 	0.8632	0.8632	0.3593	0.452
Mof_H 	H 	0.8562	0.8562	0.3908	-0.179
Mof_C 	C 	0.8235	0.8235	0.2376	-1.261
Mof_O 	O 	0.04834	0.3733	0.95166	-0.736
Mof_O 	O 	0.08755	0.42854	0.91245	-0.865
Mof_C 	C 	0.0788	0.3852	0.9212	0.821
Mof_C 	C 	0.1008	0.3511	0.8992	-0.677
Mof_C 	C 	0.0946	0.3029	0.9054	0.533
Mof_H 	H 	0.0723	0.2933	0.9277	-0.165
Mof_C 	C 	0.1192	0.267	0.8808	-0.782
Mof_H 	H 	0.1124	0.2355	0.8876	0.248
Mof_C 	C 	0.1522	0.277	0.8478	0.718
Mof_C 	C 	0.1624	0.3247	0.8376	-0.725
Mof_H 	H 	0.1849	0.3331	0.8151	0.22
Mof_C 	C 	0.1368	0.3593	0.8632	0.45
Mof_H 	H 	0.1438	0.3908	0.8562	-0.179
Mof_C 	C 	0.1765	0.2376	0.8235	-1.244
Mof_O 	O 	0.95166	0.6267	0.95166	-0.728
Mof_O 	O 	0.91245	0.57146	0.91245	-0.862
Mof_C 	C 	0.9212	0.6148	0.9212	0.821
Mof_C 	C 	0.8992	0.6489	0.8992	-0.678
Mof_C 	C 	0.9054	0.6971	0.9054	0.538
Mof_H 	H 	0.9277	0.7067	0.9277	-0.162
Mof_C 	C 	0.8808	0.733	0.8808	-0.791
Mof_H 	H 	0.8876	0.7645	0.8876	0.254
Mof_C 	C 	0.8478	0.723	0.8478	0.73
Mof_C 	C 	0.8376	0.6753	0.8376	-0.733
Mof_H 	H 	0.8151	0.6669	0.8151	0.224
Mof_C 	C 	0.8632	0.6407	0.8632	0.455
Mof_H 	H 	0.8562	0.6092	0.8562	-0.179
Mof_C 	C 	0.8235	0.7624	0.8235	-1.27
Mof_O 	O 	0.04834	0.6267	0.04834	-0.747
Mof_O 	O 	0.08755	0.57146	0.08755	-0.871
Mof_C 	C 	0.0788	0.6148	0.0788	0.823
Mof_C 	C 	0.1008	0.6489	0.1008	-0.682
Mof_C 	C 	0.0946	0.6971	0.0946	0.533
Mof_H 	H 	0.0723	0.7067	0.0723	-0.169
Mof_C 	C 	0.1192	0.733	0.1192	-0.783
Mof_H 	H 	0.1124	0.7645	0.1124	0.247
Mof_C 	C 	0.1522	0.723	0.1522	0.717
Mof_C 	C 	0.1624	0.6753	0.1624	-0.725
Mof_H 	H 	0.1849	0.6669	0.1849	0.22
Mof_C 	C 	0.1368	0.6407	0.1368	0.45
Mof_H 	H 	0.1438	0.6092	0.1438	-0.181
Mof_C 	C 	0.1765	0.7624	0.1765	-1.239
Mof_O 	O 	0.95166	0.3733	0.04834	-0.736
Mof_O 	O 	0.91245	0.42854	0.08755	-0.865
Mof_C 	C 	0.9212	0.3852	0.0788	0.821
Mof_C 	C 	0.8992	0.3511	0.1008	-0.677
Mof_C 	C 	0.9054	0.3029	0.0946	0.533
Mof_H 	H 	0.9277	0.2933	0.0723	-0.165
Mof_C 	C 	0.8808	0.267	0.1192	-0.782
Mof_H 	H 	0.8876	0.2355	0.1124	0.248
Mof_C 	C 	0.8478	0.277	0.1522	0.718
Mof_C 	C 	0.8376	0.3247	0.1624	-0.725
Mof_H 	H 	0.8151	0.3331	0.1849	0.22
Mof_C 	C 	0.8632	0.3593	0.1368	0.45
Mof_H 	H 	0.8562	0.3908	0.1438	-0.179
Mof_C 	C 	0.8235	0.2376	0.1765	-1.244
Mof_O 	O 	0.3733	0.04834	0.95166	-0.736
Mof_O 	O 	0.42854	0.08755	0.91245	-0.865
Mof_C 	C 	0.3852	0.0788	0.9212	0.821
Mof_C 	C 	0.3511	0.1008	0.8992	-0.677
Mof_C 	C 	0.3029	0.0946	0.9054	0.533
Mof_H 	H 	0.2933	0.0723	0.9277	-0.165
Mof_C 	C 	0.267	0.1192	0.8808	-0.782
Mof_H 	H 	0.2355	0.1124	0.8876	0.248
Mof_C 	C 	0.277	0.1522	0.8478	0.718
Mof_C 	C 	0.3247	0.1624	0.8376	-0.725
Mof_H 	H 	0.3331	0.1849	0.8151	0.22
Mof_C 	C 	0.3593	0.1368	0.8632	0.45
Mof_H 	H 	0.3908	0.1438	0.8562	-0.179
Mof_C 	C 	0.2376	0.1765	0.8235	-1.244
Mof_O 	O 	0.6267	0.04834	0.04834	-0.747
Mof_O 	O 	0.57146	0.08755	0.08755	-0.871
Mof_C 	C 	0.6148	0.0788	0.0788	0.823
Mof_C 	C 	0.6489	0.1008	0.1008	-0.682
Mof_C 	C 	0.6971	0.0946	0.0946	0.533
Mof_H 	H 	0.7067	0.0723	0.0723	-0.169
Mof_C 	C 	0.733	0.1192	0.1192	-0.783
Mof_H 	H 	0.7645	0.1124	0.1124	0.247
Mof_C 	C 	0.723	0.1522	0.1522	0.717
Mof_C 	C 	0.6753	0.1624	0.1624	-0.725
Mof_H 	H 	0.6669	0.1849	0.1849	0.22
Mof_C 	C 	0.6407	0.1368	0.1368	0.45
Mof_H 	H 	0.6092	0.1438	0.1438	-0.181
Mof_C 	C 	0.7624	0.1765	0.1765	-1.239
Mof_O 	O 	0.6267	0.95166	0.95166	-0.728
Mof_O 	O 	0.57146	0.91245	0.91245	-0.862
Mof_C 	C 	0.6148	0.9212	0.9212	0.821
Mof_C 	C 	0.6489	0.8992	0.8992	-0.678
Mof_C 	C 	0.6971	0.9054	0.9054	0.538
Mof_H 	H 	0.7067	0.9277	0.9277	-0.162
Mof_C 	C 	0.733	0.8808	0.8808	-0.791
Mof_H 	H 	0.7645	0.8876	0.8876	0.254
Mof_C 	C 	0.723	0.8478	0.8478	0.73
Mof_C 	C 	0.6753	0.8376	0.8376	-0.733
Mof_H 	H 	0.6669	0.8151	0.8151	0.224
Mof_C 	C 	0.6407	0.8632	0.8632	0.455
Mof_H 	H 	0.6092	0.8562	0.8562	-0.179
Mof_C 	C 	0.7624	0.8235	0.8235	-1.27
Mof_O 	O 	0.3733	0.95166	0.04834	-0.736
Mof_O 	O 	0.42854	0.91245	0.08755	-0.865
Mof_C 	C 	0.3852	0.9212	0.0788	0.821
Mof_C 	C 	0.3511	0.8992	0.1008	-0.677
Mof_C 	C 	0.3029	0.9054	0.0946	0.533
Mof_H 	H 	0.2933	0.9277	0.0723	-0.165
Mof_C 	C 	0.267	0.8808	0.1192	-0.782
Mof_H 	H 	0.2355	0.8876	0.1124	0.248
Mof_C 	C 	0.277	0.8478	0.1522	0.718
Mof_C 	C 	0.3247	0.8376	0.1624	-0.725
Mof_H 	H 	0.3331	0.8151	0.1849	0.22
Mof_C 	C 	0.3593	0.8632	0.1368	0.45
Mof_H 	H 	0.3908	0.8562	0.1438	-0.179
Mof_C 	C 	0.2376	0.8235	0.1765	-1.244
Mof_O 	O 	0.04834	0.04834	0.6267	-0.747
Mof_O 	O 	0.08755	0.08755	0.57146	-0.871
Mof_C 	C 	0.0788	0.0788	0.6148	0.823
Mof_C 	C 	0.1008	0.1008	0.6489	-0.682
Mof_C 	C 	0.0946	0.0946	0.6971	0.533
Mof_H 	H 	0.0723	0.0723	0.7067	-0.169
Mof_C 	C 	0.1192	0.1192	0.733	-0.783
Mof_H 	H 	0.1124	0.1124	0.7645	0.247
Mof_C 	C 	0.1522	0.1522	0.723	0.717
Mof_C 	C 	0.1624	0.1624	0.6753	-0.725
Mof_H 	H 	0.1849	0.1849	0.6669	0.22
Mof_C 	C 	0.1368	0.1368	0.6407	0.45
Mof_H 	H 	0.1438	0.1438	0.6092	-0.181
Mof_C 	C 	0.1765	0.1765	0.7624	-1.239
Mof_O 	O 	0.04834	0.95166	0.3733	-0.736
Mof_O 	O 	0.08755	0.91245	0.42854	-0.865
Mof_C 	C 	0.0788	0.9212	0.3852	0.821
Mof_C 	C 	0.1008	0.8992	0.3511	-0.677
Mof_C 	C 	0.0946	0.9054	0.3029	0.533
Mof_H 	H 	0.0723	0.9277	0.2933	-0.165
Mof_C 	C 	0.1192	0.8808	0.267	-0.782
Mof_H 	H 	0.1124	0.8876	0.2355	0.248
Mof_C 	C 	0.1522	0.8478	0.277	0.718
Mof_C 	C 	0.1624	0.8376	0.3247	-0.725
Mof_H 	H 	0.1849	0.8151	0.3331	0.22
Mof_C 	C 	0.1368	0.8632	0.3593	0.45
Mof_H 	H 	0.1438	0.8562	0.3908	-0.179
Mof_C 	C 	0.1765	0.8235	0.2376	-1.244
Mof_O 	O 	0.95166	0.04834	0.3733	-0.736
Mof_O 	O 	0.91245	0.08755	0.42854	-0.865
Mof_C 	C 	0.9212	0.0788	0.3852	0.821
Mof_C 	C 	0.8992	0.1008	0.3511	-0.677
Mof_C 	C 	0.9054	0.0946	0.3029	0.533
Mof_H 	H 	0.9277	0.0723	0.2933	-0.165
Mof_C 	C 	0.8808	0.1192	0.267	-0.782
Mof_H 	H 	0.8876	0.1124	0.2355	0.248
Mof_C 	C 	0.8478	0.1522	0.277	0.718
Mof_C 	C 	0.8376	0.1624	0.3247	-0.725
Mof_H 	H 	0.8151	0.1849	0.3331	0.22
Mof_C 	C 	0.8632	0.1368	0.3593	0.45
Mof_H 	H 	0.8562	0.1438	0.3908	-0.179
Mof_C 	C 	0.8235	0.1765	0.2376	-1.244
Mof_O 	O 	0.95166	0.95166	0.6267	-0.728
Mof_O 	O 	0.91245	0.91245	0.57146	-0.862
Mof_C 	C 	0.9212	0.9212	0.6148	0.821
Mof_C 	C 	0.8992	0.8992	0.6489	-0.678
Mof_C 	C 	0.9054	0.9054	0.6971	0.538
Mof_H 	H 	0.9277	0.9277	0.7067	-0.162
Mof_C 	C 	0.8808	0.8808	0.733	-0.791
Mof_H 	H 	0.8876	0.8876	0.7645	0.254
Mof_C 	C 	0.8478	0.8478	0.723	0.73
Mof_C 	C 	0.8376	0.8376	0.6753	-0.733
Mof_H 	H 	0.8151	0.8151	0.6669	0.224
Mof_C 	C 	0.8632	0.8632	0.6407	0.455
Mof_H 	H 	0.8562	0.8562	0.6092	-0.179
Mof_C 	C 	0.8235	0.8235	0.7624	-1.27
Mof_O 	O 	0.4582	1.12576e-33	0.062	-1.351
Mof_O 	O 	0.5418	1.12576e-33	0.062	-1.35
Mof_O 	O 	0.5418	0	0.938	-1.343
Mof_O 	O 	0.4582	0	0.938	-1.343
Mof_O 	O 	0.062	0.4582	-0	-1.351
Mof_O 	O 	0.062	0.5418	-0	-1.35
Mof_O 	O 	0.938	0.5418	-0	-1.343
Mof_O 	O 	0.938	0.4582	-0	-1.343
Mof_O 	O 	-2.78505e-33	0.062	0.4582	-1.351
Mof_O 	O 	2.03142e-33	0.062	0.5418	-1.35
Mof_O 	O 	-2.4716e-33	0.938	0.5418	-1.343
Mof_O 	O 	1.71797e-33	0.938	0.4582	-1.343
Mof_O 	O 	-5.48912e-33	0.4582	0.938	-1.343
Mof_O 	O 	-5.48912e-33	0.5418	0.938	-1.343
Mof_O 	O 	3.60973e-33	0.5418	0.062	-1.35
Mof_O 	O 	-8.93294e-34	0.4582	0.062	-1.351
Mof_O 	O 	0.4582	0.062	-0	-1.351
Mof_O 	O 	0.5418	0.062	-0	-1.35
Mof_O 	O 	0.5418	0.938	-0	-1.343
Mof_O 	O 	0.4582	0.938	-0	-1.343
Mof_O 	O 	0.062	4.50303e-33	0.5418	-1.35
Mof_O 	O 	0.062	0	0.4582	-1.351
Mof_O 	O 	0.938	0	0.4582	-1.343
Mof_O 	O 	0.938	4.50303e-33	0.5418	-1.343
Mof_C 	C 	0.2154	0.2154	0.1549	1.383
Mof_C 	C 	0.2388	0.2388	0.1119	-3.188
Mof_C 	C 	0.7846	0.7846	0.1549	1.418
Mof_C 	C 	0.7612	0.7612	0.1119	-3.254
Mof_C 	C 	0.7846	0.2154	0.8451	1.431
Mof_C 	C 	0.7612	0.2388	0.8881	-3.304
Mof_C 	C 	0.2154	0.7846	0.8451	1.431
Mof_C 	C 	0.2388	0.7612	0.8881	-3.304
Mof_C 	C 	0.1549	0.2154	0.2154	1.383
Mof_C 	C 	0.1119	0.2388	0.2388	-3.188
Mof_C 	C 	0.1549	0.7846	0.7846	1.418
Mof_C 	C 	0.1119	0.7612	0.7612	-3.254
Mof_C 	C 	0.8451	0.7846	0.2154	1.431
Mof_C 	C 	0.8881	0.7612	0.2388	-3.304
Mof_C 	C 	0.8451	0.2154	0.7846	1.431
Mof_C 	C 	0.8881	0.2388	0.7612	-3.304
Mof_C 	C 	0.2154	0.1549	0.2154	1.383
Mof_C 	C 	0.2388	0.1119	0.2388	-3.188
Mof_C 	C 	0.7846	0.1549	0.7846	1.418
Mof_C 	C 	0.7612	0.1119	0.7612	-3.254
Mof_C 	C 	0.2154	0.8451	0.7846	1.431
Mof_C 	C 	0.2388	0.8881	0.7612	-3.304
Mof_C 	C 	0.7846	0.8451	0.2154	1.431
Mof_C 	C 	0.7612	0.8881	0.2388	-3.304
Mof_C 	C 	0.2154	0.2154	0.8451	1.416
Mof_C 	C 	0.2388	0.2388	0.8881	-3.278
Mof_C 	C 	0.7846	0.7846	0.8451	1.443
Mof_C 	C 	0.7612	0.7612	0.8881	-3.324
Mof_C 	C 	0.2154	0.7846	0.1549	1.402
Mof_C 	C 	0.2388	0.7612	0.1119	-3.224
Mof_C 	C 	0.7846	0.2154	0.1549	1.402
Mof_C 	C 	0.7612	0.2388	0.1119	-3.224
Mof_C 	C 	0.2154	0.1549	0.7846	1.402
Mof_C 	C 	0.2388	0.1119	0.7612	-3.224
Mof_C 	C 	0.7846	0.1549	0.2154	1.402
Mof_C 	C 	0.7612	0.1119	0.2388	-3.224
Mof_C 	C 	0.7846	0.8451	0.7846	1.443
Mof_C 	C 	0.7612	0.8881	0.7612	-3.324
Mof_C 	C 	0.2154	0.8451	0.2154	1.416
Mof_C 	C 	0.2388	0.8881	0.2388	-3.278
Mof_C 	C 	0.1549	0.2154	0.7846	1.402
Mof_C 	C 	0.1119	0.2388	0.7612	-3.224
Mof_C 	C 	0.1549	0.7846	0.2154	1.402
Mof_C 	C 	0.1119	0.7612	0.2388	-3.224
Mof_C 	C 	0.8451	0.2154	0.2154	1.416
Mof_C 	C 	0.8881	0.2388	0.2388	-3.278
Mof_C 	C 	0.8451	0.7846	0.7846	1.443
Mof_C 	C 	0.8881	0.7612	0.7612	-3.324
_end
