data_functionalizedCrystal
_audit_creation_method	'EQeq! by Chris Wilmer'
_symmetry_space_group_name_H-M	'P1'
_symmetry_Int_Tables_number	1
_symmetry_cell_setting	triclinic
loop_
_symmetry_equiv_pos_as_xyz
  x,y,z
_cell_length_a	13.2544
_cell_length_b	13.2544
_cell_length_c	15.6722
_cell_angle_alpha	90
_cell_angle_beta	90
_cell_angle_gamma	120
loop_
_atom_site_label
_atom_site_type_symbol
_atom_site_fract_x
_atom_site_fract_y
_atom_site_fract_z
_atom_site_charge
Mof_Al	Al	0.59749	0.54365	0.55814	5.709
Mof_P 	P 	0.47091	0.28372	0.50486	0.303
Mof_F 	F 	0.43859	0.49316	0.55746	-1.841
Mof_O 	O 	0.6055	0.5698	0.6719	-1.355
Mof_O 	O 	0.4158	0.1646	0.54346	-1.379
Mof_O 	O 	0.3782	0.3092	0.4708	-1.243
Mof_O 	O 	0.5522	0.378	0.57102	-1.264
Mof_O 	O 	0.3426	0.26	0.6282	-0.244
Mof_P 	P 	0.4234	0.2793	0.5517	0.857
Mof_Al	Al	0.45635	0.05384	0.55814	5.695
Mof_P 	P 	0.71628	0.18719	0.50486	0.304
Mof_F 	F 	0.50684	0.94543	0.55746	-1.834
Mof_O 	O 	0.4302	0.0357	0.6719	-1.353
Mof_O 	O 	0.8354	0.2512	0.54346	-1.377
Mof_O 	O 	0.6908	0.069	0.4708	-1.236
Mof_O 	O 	0.622	0.1742	0.57102	-1.261
Mof_O 	O 	0.74	0.0826	0.6282	-0.247
Mof_P 	P 	0.7207	0.1441	0.5517	0.856
Mof_Al	Al	0.94616	0.40251	0.55814	5.695
Mof_P 	P 	0.81281	0.52909	0.50486	0.304
Mof_F 	F 	0.05457	0.56141	0.55746	-1.833
Mof_O 	O 	0.9643	0.3945	0.6719	-1.354
Mof_O 	O 	0.7488	0.5842	0.54346	-1.38
Mof_O 	O 	0.931	0.6218	0.4708	-1.237
Mof_O 	O 	0.8258	0.4478	0.57102	-1.26
Mof_O 	O 	0.9174	0.6574	0.6282	-0.245
Mof_P 	P 	0.8559	0.5766	0.5517	0.858
Mof_Al	Al	0.40251	0.45635	0.05814	5.688
Mof_P 	P 	0.52909	0.71628	0.00486	0.291
Mof_F 	F 	0.56141	0.50684	0.05746	-1.83
Mof_O 	O 	0.3945	0.4302	0.1719	-1.349
Mof_O 	O 	0.5842	0.8354	0.04346	-1.347
Mof_O 	O 	0.6218	0.6908	0.9708	-1.227
Mof_O 	O 	0.4478	0.622	0.07102	-1.256
Mof_O 	O 	0.6574	0.74	0.1282	-0.242
Mof_P 	P 	0.5766	0.7207	0.0517	0.854
Mof_Al	Al	0.54365	0.94616	0.05814	5.506
Mof_P 	P 	0.28372	0.81281	0.00486	0.259
Mof_F 	F 	0.49316	0.05457	0.05746	-1.765
Mof_O 	O 	0.5698	0.9643	0.1719	-1.324
Mof_O 	O 	0.1646	0.7488	0.04346	-1.346
Mof_O 	O 	0.3092	0.931	0.9708	-1.152
Mof_O 	O 	0.378	0.8258	0.07102	-1.229
Mof_O 	O 	0.26	0.9174	0.1282	-0.256
Mof_P 	P 	0.2793	0.8559	0.0517	0.836
Mof_Al	Al	0.05384	0.59749	0.05814	5.496
Mof_P 	P 	0.18719	0.47091	0.00486	0.277
Mof_F 	F 	0.94543	0.43859	0.05746	-1.758
Mof_O 	O 	0.0357	0.6055	0.1719	-1.324
Mof_O 	O 	0.2512	0.4158	0.04346	-1.372
Mof_O 	O 	0.069	0.3782	0.9708	-1.174
Mof_O 	O 	0.1742	0.5522	0.07102	-1.232
Mof_O 	O 	0.0826	0.3426	0.1282	-0.248
Mof_P 	P 	0.1441	0.4234	0.0517	0.848
Mof_Al	Al	0.40251	0.45635	0.44186	5.71
Mof_P 	P 	0.52909	0.71628	0.49514	0.304
Mof_F 	F 	0.56141	0.50684	0.44254	-1.84
Mof_O 	O 	0.3945	0.4302	0.3281	-1.354
Mof_O 	O 	0.5842	0.8354	0.45654	-1.378
Mof_O 	O 	0.6218	0.6908	0.5292	-1.242
Mof_O 	O 	0.4478	0.622	0.42898	-1.263
Mof_O 	O 	0.6574	0.74	0.3718	-0.243
Mof_P 	P 	0.5766	0.7207	0.4483	0.858
Mof_Al	Al	0.54365	0.94616	0.44186	5.696
Mof_P 	P 	0.28372	0.81281	0.49514	0.305
Mof_F 	F 	0.49316	0.05457	0.44254	-1.833
Mof_O 	O 	0.5698	0.9643	0.3281	-1.353
Mof_O 	O 	0.1646	0.7488	0.45654	-1.377
Mof_O 	O 	0.3092	0.931	0.5292	-1.236
Mof_O 	O 	0.378	0.8258	0.42898	-1.261
Mof_O 	O 	0.26	0.9174	0.3718	-0.247
Mof_P 	P 	0.2793	0.8559	0.4483	0.856
Mof_Al	Al	0.05384	0.59749	0.44186	5.695
Mof_P 	P 	0.18719	0.47091	0.49514	0.304
Mof_F 	F 	0.94543	0.43859	0.44254	-1.833
Mof_O 	O 	0.0357	0.6055	0.3281	-1.354
Mof_O 	O 	0.2512	0.4158	0.45654	-1.38
Mof_O 	O 	0.069	0.3782	0.5292	-1.237
Mof_O 	O 	0.1742	0.5522	0.42898	-1.26
Mof_O 	O 	0.0826	0.3426	0.3718	-0.245
Mof_P 	P 	0.1441	0.4234	0.4483	0.858
Mof_Al	Al	0.59749	0.54365	0.94186	5.688
Mof_P 	P 	0.47091	0.28372	0.99514	0.291
Mof_F 	F 	0.43859	0.49316	0.94254	-1.83
Mof_O 	O 	0.6055	0.5698	0.8281	-1.349
Mof_O 	O 	0.4158	0.1646	0.95654	-1.347
Mof_O 	O 	0.3782	0.3092	0.0292	-1.227
Mof_O 	O 	0.5522	0.378	0.92898	-1.256
Mof_O 	O 	0.3426	0.26	0.8718	-0.242
Mof_P 	P 	0.4234	0.2793	0.9483	0.854
Mof_Al	Al	0.45635	0.05384	0.94186	5.506
Mof_P 	P 	0.71628	0.18719	0.99514	0.259
Mof_F 	F 	0.50684	0.94543	0.94254	-1.765
Mof_O 	O 	0.4302	0.0357	0.8281	-1.324
Mof_O 	O 	0.8354	0.2512	0.95654	-1.346
Mof_O 	O 	0.6908	0.069	0.0292	-1.152
Mof_O 	O 	0.622	0.1742	0.92898	-1.229
Mof_O 	O 	0.74	0.0826	0.8718	-0.256
Mof_P 	P 	0.7207	0.1441	0.9483	0.836
Mof_Al	Al	0.94616	0.40251	0.94186	5.496
Mof_P 	P 	0.81281	0.52909	0.99514	0.277
Mof_F 	F 	0.05457	0.56141	0.94254	-1.758
Mof_O 	O 	0.9643	0.3945	0.8281	-1.324
Mof_O 	O 	0.7488	0.5842	0.95654	-1.372
Mof_O 	O 	0.931	0.6218	0.0292	-1.174
Mof_O 	O 	0.8258	0.4478	0.92898	-1.232
Mof_O 	O 	0.9174	0.6574	0.8718	-0.248
Mof_P 	P 	0.8559	0.5766	0.9483	0.848
Mof_Mn	Mn	0.66667	0.33333	0.65227	1.039
Mof_Mn	Mn	0.33333	0.66667	0.15227	1.037
Mof_Mn	Mn	0.33333	0.66667	0.34773	1.039
Mof_Mn	Mn	0.66667	0.33333	0.84773	1.037
Mof_P 	P 	0.6691	0.5656	0.75	0.878
Mof_O 	O 	0.6913	0.4646	0.75	-0.621
Mof_O 	O 	0.7881	0.6774	0.75	-0.244
Mof_P 	P 	0.5968	0.5038	0.75	0.213
Mof_P 	P 	0.4344	0.1035	0.75	0.877
Mof_O 	O 	0.5354	0.2267	0.75	-0.618
Mof_O 	O 	0.3226	0.1107	0.75	-0.246
Mof_P 	P 	0.4962	0.093	0.75	0.205
Mof_P 	P 	0.8965	0.3309	0.75	0.877
Mof_O 	O 	0.7733	0.3087	0.75	-0.618
Mof_O 	O 	0.8893	0.2119	0.75	-0.252
Mof_P 	P 	0.907	0.4032	0.75	0.205
Mof_P 	P 	0.3309	0.4344	0.25	0.878
Mof_O 	O 	0.3087	0.5354	0.25	-0.621
Mof_O 	O 	0.2119	0.3226	0.25	-0.244
Mof_P 	P 	0.4032	0.4962	0.25	0.213
Mof_P 	P 	0.5656	0.8965	0.25	0.877
Mof_O 	O 	0.4646	0.7733	0.25	-0.618
Mof_O 	O 	0.6774	0.8893	0.25	-0.246
Mof_P 	P 	0.5038	0.907	0.25	0.205
Mof_P 	P 	0.1035	0.6691	0.25	0.877
Mof_O 	O 	0.2267	0.6913	0.25	-0.618
Mof_O 	O 	0.1107	0.7881	0.25	-0.252
Mof_P 	P 	0.093	0.5968	0.25	0.205
_end
