data_functionalizedCrystal
_audit_creation_method	'EQeq! by Chris Wilmer'
_symmetry_space_group_name_H-M	'P1'
_symmetry_Int_Tables_number	1
_symmetry_cell_setting	triclinic
loop_
_symmetry_equiv_pos_as_xyz
  x,y,z
_cell_length_a	21.753
_cell_length_b	21.753
_cell_length_c	21.753
_cell_angle_alpha	90
_cell_angle_beta	90
_cell_angle_gamma	90
loop_
_atom_site_label
_atom_site_type_symbol
_atom_site_fract_x
_atom_site_fract_y
_atom_site_fract_z
_atom_site_charge
Mof_H 	H 	0.0368	0.1246	0.3892	0.058
Mof_C 	C 	0.945	0.291	0.4592	0.034
Mof_H 	H 	0.9074	0.3122	0.4655	0.024
Mof_C 	C 	0.944	0.2296	0.4423	-0.114
Mof_H 	H 	0.9062	0.2083	0.437	0.058
Mof_O 	O 	0.9483	0.4135	0.487	-0.183
Mof_C 	C 	0.0437	0.0933	0.519	-0.116
Mof_H 	H 	0.1196	0.0494	0.5472	0.093
Mof_H 	H 	0.129	0.087	0.4848	-0.014
Mof_H 	H 	0.0244	0.0768	0.5567	-0.006
Mof_H 	H 	0.0537	0.137	0.5266	-0.008
Mof_C 	C 	0.1003	0.06	0.5074	0.059
Mof_H 	H 	0.9632	0.8754	0.3892	0.076
Mof_C 	C 	0.055	0.709	0.4592	0.022
Mof_H 	H 	0.0926	0.6878	0.4655	0.027
Mof_C 	C 	0.056	0.7704	0.4423	-0.132
Mof_H 	H 	0.0938	0.7917	0.437	0.064
Mof_O 	O 	0.0517	0.5865	0.487	-0.192
Mof_C 	C 	0.9563	0.9067	0.519	-0.117
Mof_H 	H 	0.8804	0.9506	0.5472	0.088
Mof_H 	H 	0.871	0.913	0.4848	-0.016
Mof_H 	H 	0.9756	0.9232	0.5567	0.018
Mof_H 	H 	0.9463	0.863	0.5266	0.002
Mof_C 	C 	0.8997	0.94	0.5074	0.063
Mof_H 	H 	0.9632	0.1246	0.6108	0.075
Mof_C 	C 	0.055	0.291	0.5408	0.022
Mof_H 	H 	0.0926	0.3122	0.5345	0.027
Mof_C 	C 	0.056	0.2296	0.5577	-0.131
Mof_H 	H 	0.0938	0.2083	0.563	0.063
Mof_O 	O 	0.0517	0.4135	0.513	-0.188
Mof_C 	C 	0.9563	0.0933	0.481	-0.118
Mof_H 	H 	0.8804	0.0494	0.4528	0.093
Mof_H 	H 	0.871	0.087	0.5152	-0.013
Mof_H 	H 	0.9756	0.0768	0.4433	0.017
Mof_H 	H 	0.9463	0.137	0.4734	0.003
Mof_C 	C 	0.8997	0.06	0.4926	0.06
Mof_H 	H 	0.0368	0.8754	0.6108	0.063
Mof_C 	C 	0.945	0.709	0.5408	0.036
Mof_H 	H 	0.9074	0.6878	0.5345	0.025
Mof_C 	C 	0.944	0.7704	0.5577	-0.117
Mof_H 	H 	0.9062	0.7917	0.563	0.061
Mof_O 	O 	0.9483	0.5865	0.513	-0.183
Mof_C 	C 	0.0437	0.9067	0.481	-0.116
Mof_H 	H 	0.1196	0.9506	0.4528	0.088
Mof_H 	H 	0.129	0.913	0.5152	-0.016
Mof_H 	H 	0.0244	0.9232	0.4433	-0.003
Mof_H 	H 	0.0537	0.863	0.4734	-0.006
Mof_C 	C 	0.1003	0.94	0.4926	0.064
Mof_H 	H 	0.3892	0.0368	0.1246	0.059
Mof_C 	C 	0.4592	0.945	0.291	0.035
Mof_H 	H 	0.4655	0.9074	0.3122	0.025
Mof_C 	C 	0.4423	0.944	0.2296	-0.113
Mof_H 	H 	0.437	0.9062	0.2083	0.059
Mof_O 	O 	0.487	0.9483	0.4135	-0.182
Mof_C 	C 	0.519	0.0437	0.0933	-0.115
Mof_H 	H 	0.5472	0.1196	0.0494	0.094
Mof_H 	H 	0.4848	0.129	0.087	-0.013
Mof_H 	H 	0.5567	0.0244	0.0768	-0.005
Mof_H 	H 	0.5266	0.0537	0.137	-0.007
Mof_C 	C 	0.5074	0.1003	0.06	0.06
Mof_H 	H 	0.3892	0.9632	0.8754	0.076
Mof_C 	C 	0.4592	0.055	0.709	0.022
Mof_H 	H 	0.4655	0.0926	0.6878	0.027
Mof_C 	C 	0.4423	0.056	0.7704	-0.132
Mof_H 	H 	0.437	0.0938	0.7917	0.064
Mof_O 	O 	0.487	0.0517	0.5865	-0.192
Mof_C 	C 	0.519	0.9563	0.9067	-0.117
Mof_H 	H 	0.5472	0.8804	0.9506	0.088
Mof_H 	H 	0.4848	0.871	0.913	-0.016
Mof_H 	H 	0.5567	0.9756	0.9232	0.018
Mof_H 	H 	0.5266	0.9463	0.863	0.002
Mof_C 	C 	0.5074	0.8997	0.94	0.063
Mof_H 	H 	0.6108	0.9632	0.1246	0.075
Mof_C 	C 	0.5408	0.055	0.291	0.022
Mof_H 	H 	0.5345	0.0926	0.3122	0.027
Mof_C 	C 	0.5577	0.056	0.2296	-0.131
Mof_H 	H 	0.563	0.0938	0.2083	0.063
Mof_O 	O 	0.513	0.0517	0.4135	-0.188
Mof_C 	C 	0.481	0.9563	0.0933	-0.118
Mof_H 	H 	0.4528	0.8804	0.0494	0.093
Mof_H 	H 	0.5152	0.871	0.087	-0.013
Mof_H 	H 	0.4433	0.9756	0.0768	0.017
Mof_H 	H 	0.4734	0.9463	0.137	0.003
Mof_C 	C 	0.4926	0.8997	0.06	0.06
Mof_H 	H 	0.6108	0.0368	0.8754	0.063
Mof_C 	C 	0.5408	0.945	0.709	0.036
Mof_H 	H 	0.5345	0.9074	0.6878	0.025
Mof_C 	C 	0.5577	0.944	0.7704	-0.117
Mof_H 	H 	0.563	0.9062	0.7917	0.061
Mof_O 	O 	0.513	0.9483	0.5865	-0.183
Mof_C 	C 	0.481	0.0437	0.9067	-0.116
Mof_H 	H 	0.4528	0.1196	0.9506	0.088
Mof_H 	H 	0.5152	0.129	0.913	-0.016
Mof_H 	H 	0.4433	0.0244	0.9232	-0.003
Mof_H 	H 	0.4734	0.0537	0.863	-0.006
Mof_C 	C 	0.4926	0.1003	0.94	0.064
Mof_H 	H 	0.1246	0.3892	0.0368	0.059
Mof_C 	C 	0.291	0.4592	0.945	0.035
Mof_H 	H 	0.3122	0.4655	0.9074	0.025
Mof_C 	C 	0.2296	0.4423	0.944	-0.113
Mof_H 	H 	0.2083	0.437	0.9062	0.059
Mof_O 	O 	0.4135	0.487	0.9483	-0.182
Mof_C 	C 	0.0933	0.519	0.0437	-0.115
Mof_H 	H 	0.0494	0.5472	0.1196	0.094
Mof_H 	H 	0.087	0.4848	0.129	-0.013
Mof_H 	H 	0.0768	0.5567	0.0244	-0.005
Mof_H 	H 	0.137	0.5266	0.0537	-0.007
Mof_C 	C 	0.06	0.5074	0.1003	0.06
Mof_H 	H 	0.8754	0.3892	0.9632	0.076
Mof_C 	C 	0.709	0.4592	0.055	0.022
Mof_H 	H 	0.6878	0.4655	0.0926	0.027
Mof_C 	C 	0.7704	0.4423	0.056	-0.132
Mof_H 	H 	0.7917	0.437	0.0938	0.064
Mof_O 	O 	0.5865	0.487	0.0517	-0.192
Mof_C 	C 	0.9067	0.519	0.9563	-0.117
Mof_H 	H 	0.9506	0.5472	0.8804	0.088
Mof_H 	H 	0.913	0.4848	0.871	-0.016
Mof_H 	H 	0.9232	0.5567	0.9756	0.018
Mof_H 	H 	0.863	0.5266	0.9463	0.002
Mof_C 	C 	0.94	0.5074	0.8997	0.063
Mof_H 	H 	0.1246	0.6108	0.9632	0.075
Mof_C 	C 	0.291	0.5408	0.055	0.022
Mof_H 	H 	0.3122	0.5345	0.0926	0.027
Mof_C 	C 	0.2296	0.5577	0.056	-0.131
Mof_H 	H 	0.2083	0.563	0.0938	0.063
Mof_O 	O 	0.4135	0.513	0.0517	-0.188
Mof_C 	C 	0.0933	0.481	0.9563	-0.118
Mof_H 	H 	0.0494	0.4528	0.8804	0.093
Mof_H 	H 	0.087	0.5152	0.871	-0.013
Mof_H 	H 	0.0768	0.4433	0.9756	0.017
Mof_H 	H 	0.137	0.4734	0.9463	0.003
Mof_C 	C 	0.06	0.4926	0.8997	0.06
Mof_H 	H 	0.8754	0.6108	0.0368	0.063
Mof_C 	C 	0.709	0.5408	0.945	0.036
Mof_H 	H 	0.6878	0.5345	0.9074	0.025
Mof_C 	C 	0.7704	0.5577	0.944	-0.117
Mof_H 	H 	0.7917	0.563	0.9062	0.061
Mof_O 	O 	0.5865	0.513	0.9483	-0.183
Mof_C 	C 	0.9067	0.481	0.0437	-0.116
Mof_H 	H 	0.9506	0.4528	0.1196	0.088
Mof_H 	H 	0.913	0.5152	0.129	-0.016
Mof_H 	H 	0.9232	0.4433	0.0244	-0.003
Mof_H 	H 	0.863	0.4734	0.0537	-0.006
Mof_C 	C 	0.94	0.4926	0.1003	0.064
Mof_H 	H 	0.1246	0.0368	0.6108	0.06
Mof_C 	C 	0.291	0.945	0.5408	0.036
Mof_H 	H 	0.3122	0.9074	0.5345	0.025
Mof_C 	C 	0.2296	0.944	0.5577	-0.114
Mof_H 	H 	0.2083	0.9062	0.563	0.06
Mof_O 	O 	0.4135	0.9483	0.513	-0.183
Mof_C 	C 	0.0933	0.0437	0.481	-0.116
Mof_H 	H 	0.0494	0.1196	0.4528	0.094
Mof_H 	H 	0.087	0.129	0.5152	-0.013
Mof_H 	H 	0.0768	0.0244	0.4433	-0.006
Mof_H 	H 	0.137	0.0537	0.4734	-0.007
Mof_C 	C 	0.06	0.1003	0.4926	0.06
Mof_H 	H 	0.8754	0.9632	0.6108	0.076
Mof_C 	C 	0.709	0.055	0.5408	0.023
Mof_H 	H 	0.6878	0.0926	0.5345	0.027
Mof_C 	C 	0.7704	0.056	0.5577	-0.132
Mof_H 	H 	0.7917	0.0938	0.563	0.064
Mof_O 	O 	0.5865	0.0517	0.513	-0.188
Mof_C 	C 	0.9067	0.9563	0.481	-0.117
Mof_H 	H 	0.9506	0.8804	0.4528	0.088
Mof_H 	H 	0.913	0.871	0.5152	-0.016
Mof_H 	H 	0.9232	0.9756	0.4433	0.018
Mof_H 	H 	0.863	0.9463	0.4734	0.003
Mof_C 	C 	0.94	0.8997	0.4926	0.063
Mof_H 	H 	0.1246	0.9632	0.3892	0.074
Mof_C 	C 	0.291	0.055	0.4592	0.021
Mof_H 	H 	0.3122	0.0926	0.4655	0.027
Mof_C 	C 	0.2296	0.056	0.4423	-0.13
Mof_H 	H 	0.2083	0.0938	0.437	0.062
Mof_O 	O 	0.4135	0.0517	0.487	-0.192
Mof_C 	C 	0.0933	0.9563	0.519	-0.117
Mof_H 	H 	0.0494	0.8804	0.5472	0.093
Mof_H 	H 	0.087	0.871	0.4848	-0.013
Mof_H 	H 	0.0768	0.9756	0.5567	0.017
Mof_H 	H 	0.137	0.9463	0.5266	0.003
Mof_C 	C 	0.06	0.8997	0.5074	0.06
Mof_H 	H 	0.8754	0.0368	0.3892	0.062
Mof_C 	C 	0.709	0.945	0.4592	0.035
Mof_H 	H 	0.6878	0.9074	0.4655	0.025
Mof_C 	C 	0.7704	0.944	0.4423	-0.116
Mof_H 	H 	0.7917	0.9062	0.437	0.06
Mof_O 	O 	0.5865	0.9483	0.487	-0.182
Mof_C 	C 	0.9067	0.0437	0.519	-0.115
Mof_H 	H 	0.9506	0.1196	0.5472	0.089
Mof_H 	H 	0.913	0.129	0.4848	-0.017
Mof_H 	H 	0.9232	0.0244	0.5567	-0.003
Mof_H 	H 	0.863	0.0537	0.5266	-0.006
Mof_C 	C 	0.94	0.1003	0.5074	0.064
Mof_H 	H 	0.0368	0.3892	0.8754	0.062
Mof_C 	C 	0.945	0.4592	0.709	0.035
Mof_H 	H 	0.9074	0.4655	0.6878	0.025
Mof_C 	C 	0.944	0.4423	0.7704	-0.116
Mof_H 	H 	0.9062	0.437	0.7917	0.06
Mof_O 	O 	0.9483	0.487	0.5865	-0.182
Mof_C 	C 	0.0437	0.519	0.9067	-0.115
Mof_H 	H 	0.1196	0.5472	0.9506	0.089
Mof_H 	H 	0.129	0.4848	0.913	-0.017
Mof_H 	H 	0.0244	0.5567	0.9232	-0.003
Mof_H 	H 	0.0537	0.5266	0.863	-0.006
Mof_C 	C 	0.1003	0.5074	0.94	0.064
Mof_H 	H 	0.9632	0.3892	0.1246	0.074
Mof_C 	C 	0.055	0.4592	0.291	0.021
Mof_H 	H 	0.0926	0.4655	0.3122	0.027
Mof_C 	C 	0.056	0.4423	0.2296	-0.13
Mof_H 	H 	0.0938	0.437	0.2083	0.062
Mof_O 	O 	0.0517	0.487	0.4135	-0.192
Mof_C 	C 	0.9563	0.519	0.0933	-0.117
Mof_H 	H 	0.8804	0.5472	0.0494	0.093
Mof_H 	H 	0.871	0.4848	0.087	-0.013
Mof_H 	H 	0.9756	0.5567	0.0768	0.017
Mof_H 	H 	0.9463	0.5266	0.137	0.003
Mof_C 	C 	0.8997	0.5074	0.06	0.06
Mof_H 	H 	0.9632	0.6108	0.8754	0.076
Mof_C 	C 	0.055	0.5408	0.709	0.023
Mof_H 	H 	0.0926	0.5345	0.6878	0.027
Mof_C 	C 	0.056	0.5577	0.7704	-0.132
Mof_H 	H 	0.0938	0.563	0.7917	0.064
Mof_O 	O 	0.0517	0.513	0.5865	-0.188
Mof_C 	C 	0.9563	0.481	0.9067	-0.117
Mof_H 	H 	0.8804	0.4528	0.9506	0.088
Mof_H 	H 	0.871	0.5152	0.913	-0.016
Mof_H 	H 	0.9756	0.4433	0.9232	0.018
Mof_H 	H 	0.9463	0.4734	0.863	0.003
Mof_C 	C 	0.8997	0.4926	0.94	0.063
Mof_H 	H 	0.0368	0.6108	0.1246	0.06
Mof_C 	C 	0.945	0.5408	0.291	0.036
Mof_H 	H 	0.9074	0.5345	0.3122	0.025
Mof_C 	C 	0.944	0.5577	0.2296	-0.114
Mof_H 	H 	0.9062	0.563	0.2083	0.06
Mof_O 	O 	0.9483	0.513	0.4135	-0.183
Mof_C 	C 	0.0437	0.481	0.0933	-0.116
Mof_H 	H 	0.1196	0.4528	0.0494	0.094
Mof_H 	H 	0.129	0.5152	0.087	-0.013
Mof_H 	H 	0.0244	0.4433	0.0768	-0.006
Mof_H 	H 	0.0537	0.4734	0.137	-0.007
Mof_C 	C 	0.1003	0.4926	0.06	0.06
Mof_H 	H 	0.3892	0.1246	0.9632	0.074
Mof_C 	C 	0.4592	0.291	0.055	0.021
Mof_H 	H 	0.4655	0.3122	0.0926	0.027
Mof_C 	C 	0.4423	0.2296	0.056	-0.13
Mof_H 	H 	0.437	0.2083	0.0938	0.062
Mof_O 	O 	0.487	0.4135	0.0517	-0.192
Mof_C 	C 	0.519	0.0933	0.9563	-0.117
Mof_H 	H 	0.5472	0.0494	0.8804	0.093
Mof_H 	H 	0.4848	0.087	0.871	-0.013
Mof_H 	H 	0.5567	0.0768	0.9756	0.017
Mof_H 	H 	0.5266	0.137	0.9463	0.003
Mof_C 	C 	0.5074	0.06	0.8997	0.06
Mof_H 	H 	0.3892	0.8754	0.0368	0.062
Mof_C 	C 	0.4592	0.709	0.945	0.035
Mof_H 	H 	0.4655	0.6878	0.9074	0.025
Mof_C 	C 	0.4423	0.7704	0.944	-0.116
Mof_H 	H 	0.437	0.7917	0.9062	0.06
Mof_O 	O 	0.487	0.5865	0.9483	-0.182
Mof_C 	C 	0.519	0.9067	0.0437	-0.115
Mof_H 	H 	0.5472	0.9506	0.1196	0.089
Mof_H 	H 	0.4848	0.913	0.129	-0.017
Mof_H 	H 	0.5567	0.9232	0.0244	-0.003
Mof_H 	H 	0.5266	0.863	0.0537	-0.006
Mof_C 	C 	0.5074	0.94	0.1003	0.064
Mof_H 	H 	0.6108	0.1246	0.0368	0.06
Mof_C 	C 	0.5408	0.291	0.945	0.036
Mof_H 	H 	0.5345	0.3122	0.9074	0.025
Mof_C 	C 	0.5577	0.2296	0.944	-0.114
Mof_H 	H 	0.563	0.2083	0.9062	0.06
Mof_O 	O 	0.513	0.4135	0.9483	-0.183
Mof_C 	C 	0.481	0.0933	0.0437	-0.116
Mof_H 	H 	0.4528	0.0494	0.1196	0.094
Mof_H 	H 	0.5152	0.087	0.129	-0.013
Mof_H 	H 	0.4433	0.0768	0.0244	-0.006
Mof_H 	H 	0.4734	0.137	0.0537	-0.007
Mof_C 	C 	0.4926	0.06	0.1003	0.06
Mof_H 	H 	0.6108	0.8754	0.9632	0.076
Mof_C 	C 	0.5408	0.709	0.055	0.023
Mof_H 	H 	0.5345	0.6878	0.0926	0.027
Mof_C 	C 	0.5577	0.7704	0.056	-0.132
Mof_H 	H 	0.563	0.7917	0.0938	0.064
Mof_O 	O 	0.513	0.5865	0.0517	-0.188
Mof_C 	C 	0.481	0.9067	0.9563	-0.117
Mof_H 	H 	0.4528	0.9506	0.8804	0.088
Mof_H 	H 	0.5152	0.913	0.871	-0.016
Mof_H 	H 	0.4433	0.9232	0.9756	0.018
Mof_H 	H 	0.4734	0.863	0.9463	0.003
Mof_C 	C 	0.4926	0.94	0.8997	0.063
Mof_H 	H 	0.9632	0.8754	0.6108	0.076
Mof_C 	C 	0.055	0.709	0.5408	0.023
Mof_H 	H 	0.0926	0.6878	0.5345	0.027
Mof_C 	C 	0.056	0.7704	0.5577	-0.132
Mof_H 	H 	0.0938	0.7917	0.563	0.064
Mof_O 	O 	0.0517	0.5865	0.513	-0.188
Mof_C 	C 	0.9563	0.9067	0.481	-0.117
Mof_H 	H 	0.8804	0.9506	0.4528	0.088
Mof_H 	H 	0.871	0.913	0.5152	-0.016
Mof_H 	H 	0.9756	0.9232	0.4433	0.018
Mof_H 	H 	0.9463	0.863	0.4734	0.003
Mof_C 	C 	0.8997	0.94	0.4926	0.063
Mof_H 	H 	0.0368	0.1246	0.6108	0.06
Mof_C 	C 	0.945	0.291	0.5408	0.036
Mof_H 	H 	0.9074	0.3122	0.5345	0.025
Mof_C 	C 	0.944	0.2296	0.5577	-0.114
Mof_H 	H 	0.9062	0.2083	0.563	0.06
Mof_O 	O 	0.9483	0.4135	0.513	-0.183
Mof_C 	C 	0.0437	0.0933	0.481	-0.116
Mof_H 	H 	0.1196	0.0494	0.4528	0.094
Mof_H 	H 	0.129	0.087	0.5152	-0.013
Mof_H 	H 	0.0244	0.0768	0.4433	-0.006
Mof_H 	H 	0.0537	0.137	0.4734	-0.007
Mof_C 	C 	0.1003	0.06	0.4926	0.06
Mof_H 	H 	0.0368	0.8754	0.3892	0.062
Mof_C 	C 	0.945	0.709	0.4592	0.035
Mof_H 	H 	0.9074	0.6878	0.4655	0.025
Mof_C 	C 	0.944	0.7704	0.4423	-0.116
Mof_H 	H 	0.9062	0.7917	0.437	0.06
Mof_O 	O 	0.9483	0.5865	0.487	-0.182
Mof_C 	C 	0.0437	0.9067	0.519	-0.115
Mof_H 	H 	0.1196	0.9506	0.5472	0.089
Mof_H 	H 	0.129	0.913	0.4848	-0.017
Mof_H 	H 	0.0244	0.9232	0.5567	-0.003
Mof_H 	H 	0.0537	0.863	0.5266	-0.006
Mof_C 	C 	0.1003	0.94	0.5074	0.064
Mof_H 	H 	0.9632	0.1246	0.3892	0.074
Mof_C 	C 	0.055	0.291	0.4592	0.021
Mof_H 	H 	0.0926	0.3122	0.4655	0.027
Mof_C 	C 	0.056	0.2296	0.4423	-0.13
Mof_H 	H 	0.0938	0.2083	0.437	0.062
Mof_O 	O 	0.0517	0.4135	0.487	-0.192
Mof_C 	C 	0.9563	0.0933	0.519	-0.117
Mof_H 	H 	0.8804	0.0494	0.5472	0.093
Mof_H 	H 	0.871	0.087	0.4848	-0.013
Mof_H 	H 	0.9756	0.0768	0.5567	0.017
Mof_H 	H 	0.9463	0.137	0.5266	0.003
Mof_C 	C 	0.8997	0.06	0.5074	0.06
Mof_H 	H 	0.6108	0.9632	0.8754	0.076
Mof_C 	C 	0.5408	0.055	0.709	0.023
Mof_H 	H 	0.5345	0.0926	0.6878	0.027
Mof_C 	C 	0.5577	0.056	0.7704	-0.132
Mof_H 	H 	0.563	0.0938	0.7917	0.064
Mof_O 	O 	0.513	0.0517	0.5865	-0.188
Mof_C 	C 	0.481	0.9563	0.9067	-0.117
Mof_H 	H 	0.4528	0.8804	0.9506	0.088
Mof_H 	H 	0.5152	0.871	0.913	-0.016
Mof_H 	H 	0.4433	0.9756	0.9232	0.018
Mof_H 	H 	0.4734	0.9463	0.863	0.003
Mof_C 	C 	0.4926	0.8997	0.94	0.063
Mof_H 	H 	0.6108	0.0368	0.1246	0.06
Mof_C 	C 	0.5408	0.945	0.291	0.036
Mof_H 	H 	0.5345	0.9074	0.3122	0.025
Mof_C 	C 	0.5577	0.944	0.2296	-0.114
Mof_H 	H 	0.563	0.9062	0.2083	0.06
Mof_O 	O 	0.513	0.9483	0.4135	-0.183
Mof_C 	C 	0.481	0.0437	0.0933	-0.116
Mof_H 	H 	0.4528	0.1196	0.0494	0.094
Mof_H 	H 	0.5152	0.129	0.087	-0.013
Mof_H 	H 	0.4433	0.0244	0.0768	-0.006
Mof_H 	H 	0.4734	0.0537	0.137	-0.007
Mof_C 	C 	0.4926	0.1003	0.06	0.06
Mof_H 	H 	0.3892	0.0368	0.8754	0.062
Mof_C 	C 	0.4592	0.945	0.709	0.035
Mof_H 	H 	0.4655	0.9074	0.6878	0.025
Mof_C 	C 	0.4423	0.944	0.7704	-0.116
Mof_H 	H 	0.437	0.9062	0.7917	0.06
Mof_O 	O 	0.487	0.9483	0.5865	-0.182
Mof_C 	C 	0.519	0.0437	0.9067	-0.115
Mof_H 	H 	0.5472	0.1196	0.9506	0.089
Mof_H 	H 	0.4848	0.129	0.913	-0.017
Mof_H 	H 	0.5567	0.0244	0.9232	-0.003
Mof_H 	H 	0.5266	0.0537	0.863	-0.006
Mof_C 	C 	0.5074	0.1003	0.94	0.064
Mof_H 	H 	0.3892	0.9632	0.1246	0.074
Mof_C 	C 	0.4592	0.055	0.291	0.021
Mof_H 	H 	0.4655	0.0926	0.3122	0.027
Mof_C 	C 	0.4423	0.056	0.2296	-0.13
Mof_H 	H 	0.437	0.0938	0.2083	0.062
Mof_O 	O 	0.487	0.0517	0.4135	-0.192
Mof_C 	C 	0.519	0.9563	0.0933	-0.117
Mof_H 	H 	0.5472	0.8804	0.0494	0.093
Mof_H 	H 	0.4848	0.871	0.087	-0.013
Mof_H 	H 	0.5567	0.9756	0.0768	0.017
Mof_H 	H 	0.5266	0.9463	0.137	0.003
Mof_C 	C 	0.5074	0.8997	0.06	0.06
Mof_H 	H 	0.8754	0.6108	0.9632	0.076
Mof_C 	C 	0.709	0.5408	0.055	0.023
Mof_H 	H 	0.6878	0.5345	0.0926	0.027
Mof_C 	C 	0.7704	0.5577	0.056	-0.132
Mof_H 	H 	0.7917	0.563	0.0938	0.064
Mof_O 	O 	0.5865	0.513	0.0517	-0.188
Mof_C 	C 	0.9067	0.481	0.9563	-0.117
Mof_H 	H 	0.9506	0.4528	0.8804	0.088
Mof_H 	H 	0.913	0.5152	0.871	-0.016
Mof_H 	H 	0.9232	0.4433	0.9756	0.018
Mof_H 	H 	0.863	0.4734	0.9463	0.003
Mof_C 	C 	0.94	0.4926	0.8997	0.063
Mof_H 	H 	0.1246	0.6108	0.0368	0.06
Mof_C 	C 	0.291	0.5408	0.945	0.036
Mof_H 	H 	0.3122	0.5345	0.9074	0.025
Mof_C 	C 	0.2296	0.5577	0.944	-0.114
Mof_H 	H 	0.2083	0.563	0.9062	0.06
Mof_O 	O 	0.4135	0.513	0.9483	-0.183
Mof_C 	C 	0.0933	0.481	0.0437	-0.116
Mof_H 	H 	0.0494	0.4528	0.1196	0.094
Mof_H 	H 	0.087	0.5152	0.129	-0.013
Mof_H 	H 	0.0768	0.4433	0.0244	-0.006
Mof_H 	H 	0.137	0.4734	0.0537	-0.007
Mof_C 	C 	0.06	0.4926	0.1003	0.06
Mof_H 	H 	0.8754	0.3892	0.0368	0.062
Mof_C 	C 	0.709	0.4592	0.945	0.035
Mof_H 	H 	0.6878	0.4655	0.9074	0.025
Mof_C 	C 	0.7704	0.4423	0.944	-0.116
Mof_H 	H 	0.7917	0.437	0.9062	0.06
Mof_O 	O 	0.5865	0.487	0.9483	-0.182
Mof_C 	C 	0.9067	0.519	0.0437	-0.115
Mof_H 	H 	0.9506	0.5472	0.1196	0.089
Mof_H 	H 	0.913	0.4848	0.129	-0.017
Mof_H 	H 	0.9232	0.5567	0.0244	-0.003
Mof_H 	H 	0.863	0.5266	0.0537	-0.006
Mof_C 	C 	0.94	0.5074	0.1003	0.064
Mof_H 	H 	0.1246	0.3892	0.9632	0.074
Mof_C 	C 	0.291	0.4592	0.055	0.021
Mof_H 	H 	0.3122	0.4655	0.0926	0.027
Mof_C 	C 	0.2296	0.4423	0.056	-0.13
Mof_H 	H 	0.2083	0.437	0.0938	0.062
Mof_O 	O 	0.4135	0.487	0.0517	-0.192
Mof_C 	C 	0.0933	0.519	0.9563	-0.117
Mof_H 	H 	0.0494	0.5472	0.8804	0.093
Mof_H 	H 	0.087	0.4848	0.871	-0.013
Mof_H 	H 	0.0768	0.5567	0.9756	0.017
Mof_H 	H 	0.137	0.5266	0.9463	0.003
Mof_C 	C 	0.06	0.5074	0.8997	0.06
Mof_H 	H 	0.8754	0.9632	0.3892	0.076
Mof_C 	C 	0.709	0.055	0.4592	0.022
Mof_H 	H 	0.6878	0.0926	0.4655	0.027
Mof_C 	C 	0.7704	0.056	0.4423	-0.132
Mof_H 	H 	0.7917	0.0938	0.437	0.064
Mof_O 	O 	0.5865	0.0517	0.487	-0.192
Mof_C 	C 	0.9067	0.9563	0.519	-0.117
Mof_H 	H 	0.9506	0.8804	0.5472	0.088
Mof_H 	H 	0.913	0.871	0.4848	-0.016
Mof_H 	H 	0.9232	0.9756	0.5567	0.018
Mof_H 	H 	0.863	0.9463	0.5266	0.002
Mof_C 	C 	0.94	0.8997	0.5074	0.063
Mof_H 	H 	0.1246	0.0368	0.3892	0.059
Mof_C 	C 	0.291	0.945	0.4592	0.035
Mof_H 	H 	0.3122	0.9074	0.4655	0.025
Mof_C 	C 	0.2296	0.944	0.4423	-0.113
Mof_H 	H 	0.2083	0.9062	0.437	0.059
Mof_O 	O 	0.4135	0.9483	0.487	-0.182
Mof_C 	C 	0.0933	0.0437	0.519	-0.115
Mof_H 	H 	0.0494	0.1196	0.5472	0.094
Mof_H 	H 	0.087	0.129	0.4848	-0.013
Mof_H 	H 	0.0768	0.0244	0.5567	-0.005
Mof_H 	H 	0.137	0.0537	0.5266	-0.007
Mof_C 	C 	0.06	0.1003	0.5074	0.06
Mof_H 	H 	0.8754	0.0368	0.6108	0.063
Mof_C 	C 	0.709	0.945	0.5408	0.036
Mof_H 	H 	0.6878	0.9074	0.5345	0.025
Mof_C 	C 	0.7704	0.944	0.5577	-0.117
Mof_H 	H 	0.7917	0.9062	0.563	0.061
Mof_O 	O 	0.5865	0.9483	0.513	-0.183
Mof_C 	C 	0.9067	0.0437	0.481	-0.116
Mof_H 	H 	0.9506	0.1196	0.4528	0.088
Mof_H 	H 	0.913	0.129	0.5152	-0.016
Mof_H 	H 	0.9232	0.0244	0.4433	-0.003
Mof_H 	H 	0.863	0.0537	0.4734	-0.006
Mof_C 	C 	0.94	0.1003	0.4926	0.064
Mof_H 	H 	0.1246	0.9632	0.6108	0.075
Mof_C 	C 	0.291	0.055	0.5408	0.022
Mof_H 	H 	0.3122	0.0926	0.5345	0.027
Mof_C 	C 	0.2296	0.056	0.5577	-0.131
Mof_H 	H 	0.2083	0.0938	0.563	0.063
Mof_O 	O 	0.4135	0.0517	0.513	-0.188
Mof_C 	C 	0.0933	0.9563	0.481	-0.118
Mof_H 	H 	0.0494	0.8804	0.4528	0.093
Mof_H 	H 	0.087	0.871	0.5152	-0.013
Mof_H 	H 	0.0768	0.9756	0.4433	0.017
Mof_H 	H 	0.137	0.9463	0.4734	0.003
Mof_C 	C 	0.06	0.8997	0.4926	0.06
Mof_H 	H 	0.9632	0.6108	0.1246	0.075
Mof_C 	C 	0.055	0.5408	0.291	0.022
Mof_H 	H 	0.0926	0.5345	0.3122	0.027
Mof_C 	C 	0.056	0.5577	0.2296	-0.131
Mof_H 	H 	0.0938	0.563	0.2083	0.063
Mof_O 	O 	0.0517	0.513	0.4135	-0.188
Mof_C 	C 	0.9563	0.481	0.0933	-0.118
Mof_H 	H 	0.8804	0.4528	0.0494	0.093
Mof_H 	H 	0.871	0.5152	0.087	-0.013
Mof_H 	H 	0.9756	0.4433	0.0768	0.017
Mof_H 	H 	0.9463	0.4734	0.137	0.003
Mof_C 	C 	0.8997	0.4926	0.06	0.06
Mof_H 	H 	0.0368	0.6108	0.8754	0.063
Mof_C 	C 	0.945	0.5408	0.709	0.036
Mof_H 	H 	0.9074	0.5345	0.6878	0.025
Mof_C 	C 	0.944	0.5577	0.7704	-0.117
Mof_H 	H 	0.9062	0.563	0.7917	0.061
Mof_O 	O 	0.9483	0.513	0.5865	-0.183
Mof_C 	C 	0.0437	0.481	0.9067	-0.116
Mof_H 	H 	0.1196	0.4528	0.9506	0.088
Mof_H 	H 	0.129	0.5152	0.913	-0.016
Mof_H 	H 	0.0244	0.4433	0.9232	-0.003
Mof_H 	H 	0.0537	0.4734	0.863	-0.006
Mof_C 	C 	0.1003	0.4926	0.94	0.064
Mof_H 	H 	0.0368	0.3892	0.1246	0.059
Mof_C 	C 	0.945	0.4592	0.291	0.035
Mof_H 	H 	0.9074	0.4655	0.3122	0.025
Mof_C 	C 	0.944	0.4423	0.2296	-0.113
Mof_H 	H 	0.9062	0.437	0.2083	0.059
Mof_O 	O 	0.9483	0.487	0.4135	-0.182
Mof_C 	C 	0.0437	0.519	0.0933	-0.115
Mof_H 	H 	0.1196	0.5472	0.0494	0.094
Mof_H 	H 	0.129	0.4848	0.087	-0.013
Mof_H 	H 	0.0244	0.5567	0.0768	-0.005
Mof_H 	H 	0.0537	0.5266	0.137	-0.007
Mof_C 	C 	0.1003	0.5074	0.06	0.06
Mof_H 	H 	0.9632	0.3892	0.8754	0.076
Mof_C 	C 	0.055	0.4592	0.709	0.022
Mof_H 	H 	0.0926	0.4655	0.6878	0.027
Mof_C 	C 	0.056	0.4423	0.7704	-0.132
Mof_H 	H 	0.0938	0.437	0.7917	0.064
Mof_O 	O 	0.0517	0.487	0.5865	-0.192
Mof_C 	C 	0.9563	0.519	0.9067	-0.117
Mof_H 	H 	0.8804	0.5472	0.9506	0.088
Mof_H 	H 	0.871	0.4848	0.913	-0.016
Mof_H 	H 	0.9756	0.5567	0.9232	0.018
Mof_H 	H 	0.9463	0.5266	0.863	0.002
Mof_C 	C 	0.8997	0.5074	0.94	0.063
Mof_H 	H 	0.6108	0.8754	0.0368	0.063
Mof_C 	C 	0.5408	0.709	0.945	0.036
Mof_H 	H 	0.5345	0.6878	0.9074	0.025
Mof_C 	C 	0.5577	0.7704	0.944	-0.117
Mof_H 	H 	0.563	0.7917	0.9062	0.061
Mof_O 	O 	0.513	0.5865	0.9483	-0.183
Mof_C 	C 	0.481	0.9067	0.0437	-0.116
Mof_H 	H 	0.4528	0.9506	0.1196	0.088
Mof_H 	H 	0.5152	0.913	0.129	-0.016
Mof_H 	H 	0.4433	0.9232	0.0244	-0.003
Mof_H 	H 	0.4734	0.863	0.0537	-0.006
Mof_C 	C 	0.4926	0.94	0.1003	0.064
Mof_H 	H 	0.6108	0.1246	0.9632	0.075
Mof_C 	C 	0.5408	0.291	0.055	0.022
Mof_H 	H 	0.5345	0.3122	0.0926	0.027
Mof_C 	C 	0.5577	0.2296	0.056	-0.131
Mof_H 	H 	0.563	0.2083	0.0938	0.063
Mof_O 	O 	0.513	0.4135	0.0517	-0.188
Mof_C 	C 	0.481	0.0933	0.9563	-0.118
Mof_H 	H 	0.4528	0.0494	0.8804	0.093
Mof_H 	H 	0.5152	0.087	0.871	-0.013
Mof_H 	H 	0.4433	0.0768	0.9756	0.017
Mof_H 	H 	0.4734	0.137	0.9463	0.003
Mof_C 	C 	0.4926	0.06	0.8997	0.06
Mof_H 	H 	0.3892	0.8754	0.9632	0.076
Mof_C 	C 	0.4592	0.709	0.055	0.022
Mof_H 	H 	0.4655	0.6878	0.0926	0.027
Mof_C 	C 	0.4423	0.7704	0.056	-0.132
Mof_H 	H 	0.437	0.7917	0.0938	0.064
Mof_O 	O 	0.487	0.5865	0.0517	-0.192
Mof_C 	C 	0.519	0.9067	0.9563	-0.117
Mof_H 	H 	0.5472	0.9506	0.8804	0.088
Mof_H 	H 	0.4848	0.913	0.871	-0.016
Mof_H 	H 	0.5567	0.9232	0.9756	0.018
Mof_H 	H 	0.5266	0.863	0.9463	0.002
Mof_C 	C 	0.5074	0.94	0.8997	0.063
Mof_H 	H 	0.3892	0.1246	0.0368	0.059
Mof_C 	C 	0.4592	0.291	0.945	0.035
Mof_H 	H 	0.4655	0.3122	0.9074	0.025
Mof_C 	C 	0.4423	0.2296	0.944	-0.113
Mof_H 	H 	0.437	0.2083	0.9062	0.059
Mof_O 	O 	0.487	0.4135	0.9483	-0.182
Mof_C 	C 	0.519	0.0933	0.0437	-0.115
Mof_H 	H 	0.5472	0.0494	0.1196	0.094
Mof_H 	H 	0.4848	0.087	0.129	-0.013
Mof_H 	H 	0.5567	0.0768	0.0244	-0.005
Mof_H 	H 	0.5266	0.137	0.0537	-0.007
Mof_C 	C 	0.5074	0.06	0.1003	0.06
Mof_Cu	Cu	0.93888	0.5	0.5	0.908
Mof_Cu	Cu	0.06112	0.5	0.5	0.904
Mof_Cu	Cu	0.5	0.93888	0.5	0.908
Mof_Cu	Cu	0.5	0.06112	0.5	0.904
Mof_Cu	Cu	0.5	0.5	0.93888	0.908
Mof_Cu	Cu	0.5	0.5	0.06112	0.904
Mof_C 	C 	6.72328e-33	0.3874	0.485	0.129
Mof_N 	N 	1.76072e-33	0.09	0.4696	-0.132
Mof_C 	C 	1.55488e-33	0.133	0.4147	-0.269
Mof_C 	C 	1.62424e-33	0.2	0.4332	0.101
Mof_C 	C 	1.1561e-32	0.3219	0.4671	-0.059
Mof_C 	C 	1.81846e-33	0.6126	0.485	0.129
Mof_N 	N 	1.64752e-32	0.91	0.4696	-0.131
Mof_C 	C 	1.13645e-32	0.867	0.4147	-0.269
Mof_C 	C 	1.14339e-32	0.8	0.4332	0.104
Mof_C 	C 	1.1561e-32	0.6781	0.4671	-0.059
Mof_C 	C 	1.17406e-32	0.3874	0.515	0.129
Mof_N 	N 	6.8935e-33	0.09	0.5304	-0.132
Mof_C 	C 	1.20042e-32	0.133	0.5853	-0.27
Mof_C 	C 	1.19348e-32	0.2	0.5668	0.103
Mof_C 	C 	-2.90676e-33	0.3219	0.5329	-0.059
Mof_C 	C 	6.83576e-33	0.6126	0.515	0.129
Mof_N 	N 	1.17983e-32	0.91	0.5304	-0.131
Mof_C 	C 	2.19452e-33	0.867	0.5853	-0.269
Mof_C 	C 	2.17444e-32	0.8	0.5668	0.106
Mof_C 	C 	1.67125e-32	0.6781	0.5329	-0.059
Mof_C 	C 	0.485	0	0.3874	0.129
Mof_N 	N 	0.4696	-6.13102e-34	0.09	-0.132
Mof_C 	C 	0.4147	0	0.133	-0.269
Mof_C 	C 	0.4332	0	0.2	0.101
Mof_C 	C 	0.4671	-2.45241e-33	0.3219	-0.059
Mof_C 	C 	0.485	0	0.6126	0.129
Mof_N 	N 	0.4696	0	0.91	-0.131
Mof_C 	C 	0.4147	0	0.867	-0.269
Mof_C 	C 	0.4332	0	0.8	0.104
Mof_C 	C 	0.4671	0	0.6781	-0.059
Mof_C 	C 	0.515	0	0.3874	0.129
Mof_N 	N 	0.5304	-6.13102e-34	0.09	-0.132
Mof_C 	C 	0.5853	0	0.133	-0.27
Mof_C 	C 	0.5668	0	0.2	0.103
Mof_C 	C 	0.5329	-2.45241e-33	0.3219	-0.059
Mof_C 	C 	0.515	0	0.6126	0.129
Mof_N 	N 	0.5304	0	0.91	-0.131
Mof_C 	C 	0.5853	0	0.867	-0.269
Mof_C 	C 	0.5668	0	0.8	0.106
Mof_C 	C 	0.5329	0	0.6781	-0.059
Mof_C 	C 	0.3874	0.485	-0	0.129
Mof_N 	N 	0.09	0.4696	-0	-0.132
Mof_C 	C 	0.133	0.4147	-0	-0.269
Mof_C 	C 	0.2	0.4332	-0	0.101
Mof_C 	C 	0.3219	0.4671	-0	-0.059
Mof_C 	C 	0.6126	0.485	-0	0.129
Mof_N 	N 	0.91	0.4696	-0	-0.131
Mof_C 	C 	0.867	0.4147	-0	-0.269
Mof_C 	C 	0.8	0.4332	-0	0.104
Mof_C 	C 	0.6781	0.4671	-0	-0.059
Mof_C 	C 	0.3874	0.515	-0	0.129
Mof_N 	N 	0.09	0.5304	-0	-0.132
Mof_C 	C 	0.133	0.5853	-0	-0.27
Mof_C 	C 	0.2	0.5668	-0	0.103
Mof_C 	C 	0.3219	0.5329	-0	-0.059
Mof_C 	C 	0.6126	0.515	-0	0.129
Mof_N 	N 	0.91	0.5304	-0	-0.131
Mof_C 	C 	0.867	0.5853	-0	-0.269
Mof_C 	C 	0.8	0.5668	-0	0.106
Mof_C 	C 	0.6781	0.5329	-0	-0.059
Mof_C 	C 	0.3874	0	0.515	0.129
Mof_N 	N 	0.09	0	0.5304	-0.132
Mof_C 	C 	0.133	0	0.5853	-0.27
Mof_C 	C 	0.2	0	0.5668	0.103
Mof_C 	C 	0.3219	-4.90482e-33	0.5329	-0.059
Mof_C 	C 	0.6126	0	0.515	0.129
Mof_N 	N 	0.91	0	0.5304	-0.131
Mof_C 	C 	0.867	0	0.5853	-0.269
Mof_C 	C 	0.8	0	0.5668	0.106
Mof_C 	C 	0.6781	-4.90482e-33	0.5329	-0.059
Mof_C 	C 	0.3874	-4.90482e-33	0.485	0.129
Mof_N 	N 	0.09	0	0.4696	-0.132
Mof_C 	C 	0.133	0	0.4147	-0.269
Mof_C 	C 	0.2	0	0.4332	0.101
Mof_C 	C 	0.3219	0	0.4671	-0.059
Mof_C 	C 	0.6126	-4.90482e-33	0.485	0.129
Mof_N 	N 	0.91	0	0.4696	-0.131
Mof_C 	C 	0.867	0	0.4147	-0.269
Mof_C 	C 	0.8	0	0.4332	0.104
Mof_C 	C 	0.6781	0	0.4671	-0.059
Mof_C 	C 	2.29688e-33	0.485	0.6126	0.129
Mof_N 	N 	1.32216e-32	0.4696	0.91	-0.131
Mof_C 	C 	1.30604e-32	0.4147	0.867	-0.269
Mof_C 	C 	1.28092e-32	0.4332	0.8	0.104
Mof_C 	C 	7.44729e-33	0.4671	0.6781	-0.059
Mof_C 	C 	6.35734e-33	0.485	0.3874	0.129
Mof_N 	N 	1.56365e-33	0.4696	0.09	-0.132
Mof_C 	C 	4.9867e-34	0.4147	0.133	-0.269
Mof_C 	C 	3.20229e-33	0.4332	0.2	0.101
Mof_C 	C 	1.3469e-32	0.4671	0.3219	-0.059
Mof_C 	C 	7.2017e-33	0.515	0.6126	0.129
Mof_N 	N 	3.41195e-33	0.5304	0.91	-0.131
Mof_C 	C 	-6.55891e-33	0.5853	0.867	-0.269
Mof_C 	C 	1.28092e-32	0.5668	0.8	0.106
Mof_C 	C 	1.23521e-32	0.5329	0.6781	-0.059
Mof_C 	C 	1.12622e-32	0.515	0.3874	0.129
Mof_N 	N 	6.46847e-33	0.5304	0.09	-0.132
Mof_C 	C 	1.03083e-32	0.5853	0.133	-0.27
Mof_C 	C 	1.30119e-32	0.5668	0.2	0.103
Mof_C 	C 	-1.24548e-33	0.5329	0.3219	-0.059
Mof_C 	C 	0.485	0.3874	-0	0.129
Mof_N 	N 	0.4696	0.09	-0	-0.132
Mof_C 	C 	0.4147	0.133	-0	-0.269
Mof_C 	C 	0.4332	0.2	-0	0.101
Mof_C 	C 	0.4671	0.3219	-0	-0.059
Mof_C 	C 	0.485	0.6126	-0	0.129
Mof_N 	N 	0.4696	0.91	-0	-0.131
Mof_C 	C 	0.4147	0.867	-0	-0.269
Mof_C 	C 	0.4332	0.8	-0	0.104
Mof_C 	C 	0.4671	0.6781	-0	-0.059
Mof_C 	C 	0.515	0.3874	-0	0.129
Mof_N 	N 	0.5304	0.09	-0	-0.132
Mof_C 	C 	0.5853	0.133	-0	-0.27
Mof_C 	C 	0.5668	0.2	-0	0.103
Mof_C 	C 	0.5329	0.3219	-0	-0.059
Mof_C 	C 	0.515	0.6126	-0	0.129
Mof_N 	N 	0.5304	0.91	-0	-0.131
Mof_C 	C 	0.5853	0.867	-0	-0.269
Mof_C 	C 	0.5668	0.8	-0	0.106
Mof_C 	C 	0.5329	0.6781	-0	-0.059
Mof_Cu	Cu	6.57105e-33	0	0.4444	0.793
Mof_Cu	Cu	6.98798e-33	0	0.5556	0.793
Mof_Cu	Cu	0.4444	0	-0	0.793
Mof_Cu	Cu	0.5556	0	-0	0.793
Mof_Cu	Cu	4.90482e-33	0.4444	-0	0.793
Mof_Cu	Cu	4.90482e-33	0.5556	-0	0.793
_end
