data_functionalizedCrystal
_audit_creation_method	'EQeq! by Chris Wilmer'
_symmetry_space_group_name_H-M	'P1'
_symmetry_Int_Tables_number	1
_symmetry_cell_setting	triclinic
loop_
_symmetry_equiv_pos_as_xyz
  x,y,z
_cell_length_a	19.895
_cell_length_b	16.077
_cell_length_c	21.851
_cell_angle_alpha	90
_cell_angle_beta	90
_cell_angle_gamma	90
loop_
_atom_site_label
_atom_site_type_symbol
_atom_site_fract_x
_atom_site_fract_y
_atom_site_fract_z
_atom_site_charge
Mof_Zn	Zn	0.1092	0.66156	0.73249	1.218
Mof_O 	O 	0.0398	0.67027	0.80041	-0.47
Mof_O 	O 	0.03778	0.80306	0.82775	-0.455
Mof_O 	O 	0.68105	0.67184	0.2016	-0.489
Mof_O 	O 	0.67974	0.80255	0.17075	-0.464
Mof_C 	C 	0.0203	0.7283	0.8332	0.385
Mof_C 	C 	0.9714	0.7083	0.8835	-0.06
Mof_C 	C 	0.9396	0.7696	0.9151	-0.079
Mof_C 	C 	0.9624	0.6242	0.8988	-0.013
Mof_H 	H 	0.9471	0.8253	0.906	0.073
Mof_C 	C 	0.8959	0.747	0.961	0.093
Mof_C 	C 	0.9195	0.6029	0.9448	-0.056
Mof_H 	H 	0.9856	0.5831	0.8775	0.051
Mof_C 	C 	0.8847	0.6652	0.9767	-0.018
Mof_N 	N 	0.85683	0.7966	0.99816	-0.215
Mof_H 	H 	0.9133	0.5473	0.955	0.052
Mof_C 	C 	0.8389	0.6637	0.0273	-0.001
Mof_C 	C 	0.8218	0.7471	0.0385	0.077
Mof_H 	H 	0.8547	0.85	0.9964	0.124
Mof_C 	C 	0.809	0.6025	0.0631	-0.079
Mof_C 	C 	0.776	0.7693	0.08325	-0.067
Mof_C 	C 	0.7645	0.6252	0.107	0.011
Mof_H 	H 	0.8194	0.5467	0.057	0.059
Mof_H 	H 	0.7647	0.8247	0.0897	0.066
Mof_C 	C 	0.7479	0.7078	0.11774	-0.086
Mof_H 	H 	0.7445	0.584	0.1308	0.035
Mof_C 	C 	0.69894	0.729	0.16699	0.395
Mof_N 	N 	0.1102	0.538	0.7282	-0.073
Mof_C 	C 	0.147	0.4962	0.7012	-0.29
Mof_C 	C 	0.0732	0.4934	0.7555	0.964
Mof_H 	H 	0.1791	0.5244	0.6783	0.104
Mof_C 	C 	0.1504	0.4088	0.698	0.38
Mof_C 	C 	0.0723	0.4058	0.7582	-0.844
Mof_H 	H 	0.0401	0.5201	0.7782	-0.287
Mof_H 	H 	0.1818	0.3846	0.672	-0.093
Mof_C 	C 	0.1142	0.364	0.7278	-0.06
Mof_H 	H 	0.0408	0.3789	0.7826	0.314
Mof_C 	C 	0.0957	0.2694	0.7178	0.344
Mof_N 	N 	0.1094	0.9634	0.7755	-0.195
Mof_C 	C 	0.0505	0.0048	0.7911	-0.854
Mof_H 	H 	0.012	0.9747	0.8008	0.331
Mof_C 	C 	0.0491	0.0912	0.7923	0.582
Mof_H 	H 	0.0096	0.1189	0.8027	-0.186
Mof_C 	C 	0.1065	0.1363	0.7778	0.201
Mof_C 	C 	0.1654	0.0949	0.7622	-0.504
Mof_H 	H 	0.2039	0.1251	0.7525	0.208
Mof_C 	C 	0.1669	0.0085	0.761	0.296
Mof_H 	H 	0.2063	0.9808	0.7506	-0.081
Mof_H 	H 	0.048	0.2429	0.7799	-0.1
Mof_H 	H 	0.1124	0.2507	0.8212	0.126
Mof_H 	H 	0.1792	0.2668	0.738	0.116
Mof_H 	H 	0.1196	0.2459	0.6937	-0.159
Mof_C 	C 	0.1312	0.2728	0.732	-0.317
Mof_Zn	Zn	0.1092	0.83844	0.76751	1.217
Mof_O 	O 	0.0398	0.82973	0.69959	-0.471
Mof_O 	O 	0.03778	0.69694	0.67225	-0.456
Mof_O 	O 	0.68105	0.82816	0.2984	-0.49
Mof_O 	O 	0.67974	0.69745	0.32925	-0.465
Mof_C 	C 	0.0203	0.7717	0.6668	0.384
Mof_C 	C 	0.9714	0.7917	0.6165	-0.061
Mof_C 	C 	0.9396	0.7304	0.5849	-0.08
Mof_C 	C 	0.9624	0.8758	0.6012	-0.014
Mof_H 	H 	0.9471	0.6747	0.594	0.072
Mof_C 	C 	0.8959	0.753	0.539	0.092
Mof_C 	C 	0.9195	0.8971	0.5552	-0.057
Mof_H 	H 	0.9856	0.9169	0.6225	0.051
Mof_C 	C 	0.8847	0.8348	0.5233	-0.018
Mof_N 	N 	0.85683	0.7034	0.50184	-0.215
Mof_H 	H 	0.9133	0.9527	0.545	0.052
Mof_C 	C 	0.8389	0.8363	0.4727	-0.001
Mof_C 	C 	0.8218	0.7529	0.4615	0.077
Mof_H 	H 	0.8547	0.65	0.5036	0.124
Mof_C 	C 	0.809	0.8975	0.4369	-0.079
Mof_C 	C 	0.776	0.7307	0.41675	-0.067
Mof_C 	C 	0.7645	0.8748	0.393	0.011
Mof_H 	H 	0.8194	0.9533	0.443	0.059
Mof_H 	H 	0.7647	0.6753	0.4103	0.066
Mof_C 	C 	0.7479	0.7922	0.38226	-0.086
Mof_H 	H 	0.7445	0.916	0.3692	0.035
Mof_C 	C 	0.69894	0.771	0.33301	0.395
Mof_N 	N 	0.1102	0.962	0.7718	-0.073
Mof_C 	C 	0.147	0.0038	0.7988	-0.29
Mof_C 	C 	0.0732	0.0066	0.7445	0.964
Mof_H 	H 	0.1791	0.9756	0.8217	0.104
Mof_C 	C 	0.1504	0.0912	0.802	0.38
Mof_C 	C 	0.0723	0.0942	0.7418	-0.844
Mof_H 	H 	0.0401	0.9799	0.7218	-0.287
Mof_H 	H 	0.1818	0.1154	0.828	-0.093
Mof_C 	C 	0.1142	0.136	0.7722	-0.06
Mof_H 	H 	0.0408	0.1211	0.7174	0.314
Mof_C 	C 	0.0957	0.2306	0.7822	0.344
Mof_N 	N 	0.1094	0.5366	0.7245	-0.195
Mof_C 	C 	0.0505	0.4952	0.7089	-0.854
Mof_H 	H 	0.012	0.5253	0.6992	0.331
Mof_C 	C 	0.0491	0.4088	0.7077	0.582
Mof_H 	H 	0.0096	0.3811	0.6973	-0.186
Mof_C 	C 	0.1065	0.3637	0.7222	0.201
Mof_C 	C 	0.1654	0.4051	0.7378	-0.504
Mof_H 	H 	0.2039	0.3749	0.7475	0.208
Mof_C 	C 	0.1669	0.4915	0.739	0.296
Mof_H 	H 	0.2063	0.5192	0.7494	-0.081
Mof_H 	H 	0.048	0.2571	0.7201	-0.1
Mof_H 	H 	0.1124	0.2493	0.6788	0.126
Mof_H 	H 	0.1792	0.2332	0.762	0.116
Mof_H 	H 	0.1196	0.2541	0.8063	-0.159
Mof_C 	C 	0.1312	0.2272	0.768	-0.317
Mof_Zn	Zn	0.6092	0.66156	0.26751	1.217
Mof_O 	O 	0.5398	0.67027	0.19959	-0.471
Mof_O 	O 	0.53778	0.80306	0.17225	-0.456
Mof_O 	O 	0.18105	0.67184	0.7984	-0.49
Mof_O 	O 	0.17974	0.80255	0.82925	-0.465
Mof_C 	C 	0.5203	0.7283	0.1668	0.384
Mof_C 	C 	0.4714	0.7083	0.1165	-0.061
Mof_C 	C 	0.4396	0.7696	0.0849	-0.08
Mof_C 	C 	0.4624	0.6242	0.1012	-0.014
Mof_H 	H 	0.4471	0.8253	0.094	0.072
Mof_C 	C 	0.3959	0.747	0.039	0.092
Mof_C 	C 	0.4195	0.6029	0.0552	-0.057
Mof_H 	H 	0.4856	0.5831	0.1225	0.051
Mof_C 	C 	0.3847	0.6652	0.0233	-0.018
Mof_N 	N 	0.35683	0.7966	0.00184	-0.215
Mof_H 	H 	0.4133	0.5473	0.045	0.052
Mof_C 	C 	0.3389	0.6637	0.9727	-0.001
Mof_C 	C 	0.3218	0.7471	0.9615	0.077
Mof_H 	H 	0.3547	0.85	0.0036	0.124
Mof_C 	C 	0.309	0.6025	0.9369	-0.079
Mof_C 	C 	0.276	0.7693	0.91675	-0.067
Mof_C 	C 	0.2645	0.6252	0.893	0.011
Mof_H 	H 	0.3194	0.5467	0.943	0.059
Mof_H 	H 	0.2647	0.8247	0.9103	0.066
Mof_C 	C 	0.2479	0.7078	0.88226	-0.086
Mof_H 	H 	0.2445	0.584	0.8692	0.035
Mof_C 	C 	0.19894	0.729	0.83301	0.395
Mof_N 	N 	0.6102	0.538	0.2718	-0.073
Mof_C 	C 	0.647	0.4962	0.2988	-0.29
Mof_C 	C 	0.5732	0.4934	0.2445	0.964
Mof_H 	H 	0.6791	0.5244	0.3217	0.104
Mof_C 	C 	0.6504	0.4088	0.302	0.38
Mof_C 	C 	0.5723	0.4058	0.2418	-0.844
Mof_H 	H 	0.5401	0.5201	0.2218	-0.286
Mof_H 	H 	0.6818	0.3846	0.328	-0.093
Mof_C 	C 	0.6142	0.364	0.2722	-0.06
Mof_H 	H 	0.5408	0.3789	0.2174	0.314
Mof_C 	C 	0.5957	0.2694	0.2822	0.344
Mof_N 	N 	0.6094	0.9634	0.2245	-0.195
Mof_C 	C 	0.5505	0.0048	0.2089	-0.854
Mof_H 	H 	0.512	0.9747	0.1992	0.331
Mof_C 	C 	0.5491	0.0912	0.2077	0.582
Mof_H 	H 	0.5096	0.1189	0.1973	-0.186
Mof_C 	C 	0.6065	0.1363	0.2222	0.201
Mof_C 	C 	0.6654	0.0949	0.2378	-0.504
Mof_H 	H 	0.7039	0.1251	0.2475	0.208
Mof_C 	C 	0.6669	0.0085	0.239	0.296
Mof_H 	H 	0.7063	0.9808	0.2494	-0.081
Mof_H 	H 	0.548	0.2429	0.2201	-0.1
Mof_H 	H 	0.6124	0.2507	0.1788	0.126
Mof_H 	H 	0.6792	0.2668	0.262	0.116
Mof_H 	H 	0.6196	0.2459	0.3063	-0.159
Mof_C 	C 	0.6312	0.2728	0.268	-0.317
Mof_Zn	Zn	0.6092	0.83844	0.23249	1.217
Mof_O 	O 	0.5398	0.82973	0.30041	-0.471
Mof_O 	O 	0.53778	0.69694	0.32775	-0.456
Mof_O 	O 	0.18105	0.82816	0.7016	-0.49
Mof_O 	O 	0.17974	0.69745	0.67075	-0.465
Mof_C 	C 	0.5203	0.7717	0.3332	0.384
Mof_C 	C 	0.4714	0.7917	0.3835	-0.061
Mof_C 	C 	0.4396	0.7304	0.4151	-0.08
Mof_C 	C 	0.4624	0.8758	0.3988	-0.014
Mof_H 	H 	0.4471	0.6747	0.406	0.072
Mof_C 	C 	0.3959	0.753	0.461	0.092
Mof_C 	C 	0.4195	0.8971	0.4448	-0.057
Mof_H 	H 	0.4856	0.9169	0.3775	0.051
Mof_C 	C 	0.3847	0.8348	0.4767	-0.018
Mof_N 	N 	0.35683	0.7034	0.49816	-0.215
Mof_H 	H 	0.4133	0.9527	0.455	0.052
Mof_C 	C 	0.3389	0.8363	0.5273	-0.001
Mof_C 	C 	0.3218	0.7529	0.5385	0.077
Mof_H 	H 	0.3547	0.65	0.4964	0.124
Mof_C 	C 	0.309	0.8975	0.5631	-0.079
Mof_C 	C 	0.276	0.7307	0.58325	-0.067
Mof_C 	C 	0.2645	0.8748	0.607	0.011
Mof_H 	H 	0.3194	0.9533	0.557	0.059
Mof_H 	H 	0.2647	0.6753	0.5897	0.066
Mof_C 	C 	0.2479	0.7922	0.61774	-0.086
Mof_H 	H 	0.2445	0.916	0.6308	0.035
Mof_C 	C 	0.19894	0.771	0.66699	0.395
Mof_N 	N 	0.6102	0.962	0.2282	-0.073
Mof_C 	C 	0.647	0.0038	0.2012	-0.29
Mof_C 	C 	0.5732	0.0066	0.2555	0.964
Mof_H 	H 	0.6791	0.9756	0.1783	0.104
Mof_C 	C 	0.6504	0.0912	0.198	0.38
Mof_C 	C 	0.5723	0.0942	0.2582	-0.844
Mof_H 	H 	0.5401	0.9799	0.2782	-0.286
Mof_H 	H 	0.6818	0.1154	0.172	-0.093
Mof_C 	C 	0.6142	0.136	0.2278	-0.06
Mof_H 	H 	0.5408	0.1211	0.2826	0.314
Mof_C 	C 	0.5957	0.2306	0.2178	0.344
Mof_N 	N 	0.6094	0.5366	0.2755	-0.195
Mof_C 	C 	0.5505	0.4952	0.2911	-0.854
Mof_H 	H 	0.512	0.5253	0.3008	0.331
Mof_C 	C 	0.5491	0.4088	0.2923	0.582
Mof_H 	H 	0.5096	0.3811	0.3027	-0.186
Mof_C 	C 	0.6065	0.3637	0.2778	0.201
Mof_C 	C 	0.6654	0.4051	0.2622	-0.504
Mof_H 	H 	0.7039	0.3749	0.2525	0.208
Mof_C 	C 	0.6669	0.4915	0.261	0.296
Mof_H 	H 	0.7063	0.5192	0.2506	-0.081
Mof_H 	H 	0.548	0.2571	0.2799	-0.1
Mof_H 	H 	0.6124	0.2493	0.3212	0.126
Mof_H 	H 	0.6792	0.2332	0.238	0.116
Mof_H 	H 	0.6196	0.2541	0.1937	-0.159
Mof_C 	C 	0.6312	0.2272	0.232	-0.317
Mof_Zn	Zn	0.3908	0.33844	0.73249	1.217
Mof_O 	O 	0.4602	0.32973	0.80041	-0.471
Mof_O 	O 	0.46222	0.19694	0.82775	-0.456
Mof_O 	O 	0.81895	0.32816	0.2016	-0.49
Mof_O 	O 	0.82026	0.19745	0.17075	-0.465
Mof_C 	C 	0.4797	0.2717	0.8332	0.384
Mof_C 	C 	0.5286	0.2917	0.8835	-0.061
Mof_C 	C 	0.5604	0.2304	0.9151	-0.08
Mof_C 	C 	0.5376	0.3758	0.8988	-0.014
Mof_H 	H 	0.5529	0.1747	0.906	0.072
Mof_C 	C 	0.6041	0.253	0.961	0.092
Mof_C 	C 	0.5805	0.3971	0.9448	-0.057
Mof_H 	H 	0.5144	0.4169	0.8775	0.051
Mof_C 	C 	0.6153	0.3348	0.9767	-0.018
Mof_N 	N 	0.64317	0.2034	0.99816	-0.215
Mof_H 	H 	0.5867	0.4527	0.955	0.052
Mof_C 	C 	0.6611	0.3363	0.0273	-0.001
Mof_C 	C 	0.6782	0.2529	0.0385	0.077
Mof_H 	H 	0.6453	0.15	0.9964	0.124
Mof_C 	C 	0.691	0.3975	0.0631	-0.079
Mof_C 	C 	0.724	0.2307	0.08325	-0.067
Mof_C 	C 	0.7355	0.3748	0.107	0.011
Mof_H 	H 	0.6806	0.4533	0.057	0.059
Mof_H 	H 	0.7353	0.1753	0.0897	0.066
Mof_C 	C 	0.7521	0.2922	0.11774	-0.086
Mof_H 	H 	0.7555	0.416	0.1308	0.035
Mof_C 	C 	0.80106	0.271	0.16699	0.395
Mof_N 	N 	0.3898	0.462	0.7282	-0.073
Mof_C 	C 	0.353	0.5038	0.7012	-0.29
Mof_C 	C 	0.4268	0.5066	0.7555	0.964
Mof_H 	H 	0.3209	0.4756	0.6783	0.104
Mof_C 	C 	0.3496	0.5912	0.698	0.38
Mof_C 	C 	0.4277	0.5942	0.7582	-0.844
Mof_H 	H 	0.4599	0.4799	0.7782	-0.286
Mof_H 	H 	0.3182	0.6154	0.672	-0.093
Mof_C 	C 	0.3858	0.636	0.7278	-0.06
Mof_H 	H 	0.4592	0.6211	0.7826	0.314
Mof_C 	C 	0.4043	0.7306	0.7178	0.344
Mof_N 	N 	0.3906	0.0366	0.7755	-0.195
Mof_C 	C 	0.4495	0.9952	0.7911	-0.854
Mof_H 	H 	0.488	0.0253	0.8008	0.331
Mof_C 	C 	0.4509	0.9088	0.7923	0.582
Mof_H 	H 	0.4904	0.8811	0.8027	-0.186
Mof_C 	C 	0.3935	0.8637	0.7778	0.201
Mof_C 	C 	0.3346	0.9051	0.7622	-0.504
Mof_H 	H 	0.2961	0.8749	0.7525	0.208
Mof_C 	C 	0.3331	0.9915	0.761	0.296
Mof_H 	H 	0.2937	0.0192	0.7506	-0.081
Mof_H 	H 	0.452	0.7571	0.7799	-0.1
Mof_H 	H 	0.3876	0.7493	0.8212	0.126
Mof_H 	H 	0.3208	0.7332	0.738	0.116
Mof_H 	H 	0.3804	0.7541	0.6937	-0.159
Mof_C 	C 	0.3688	0.7272	0.732	-0.317
Mof_Zn	Zn	0.3908	0.16156	0.76751	1.217
Mof_O 	O 	0.4602	0.17027	0.69959	-0.471
Mof_O 	O 	0.46222	0.30306	0.67225	-0.456
Mof_O 	O 	0.81895	0.17184	0.2984	-0.49
Mof_O 	O 	0.82026	0.30255	0.32925	-0.465
Mof_C 	C 	0.4797	0.2283	0.6668	0.384
Mof_C 	C 	0.5286	0.2083	0.6165	-0.061
Mof_C 	C 	0.5604	0.2696	0.5849	-0.08
Mof_C 	C 	0.5376	0.1242	0.6012	-0.014
Mof_H 	H 	0.5529	0.3253	0.594	0.072
Mof_C 	C 	0.6041	0.247	0.539	0.092
Mof_C 	C 	0.5805	0.1029	0.5552	-0.057
Mof_H 	H 	0.5144	0.0831	0.6225	0.051
Mof_C 	C 	0.6153	0.1652	0.5233	-0.018
Mof_N 	N 	0.64317	0.2966	0.50184	-0.215
Mof_H 	H 	0.5867	0.0473	0.545	0.052
Mof_C 	C 	0.6611	0.1637	0.4727	-0.001
Mof_C 	C 	0.6782	0.2471	0.4615	0.077
Mof_H 	H 	0.6453	0.35	0.5036	0.124
Mof_C 	C 	0.691	0.1025	0.4369	-0.079
Mof_C 	C 	0.724	0.2693	0.41675	-0.067
Mof_C 	C 	0.7355	0.1252	0.393	0.011
Mof_H 	H 	0.6806	0.0467	0.443	0.059
Mof_H 	H 	0.7353	0.3247	0.4103	0.066
Mof_C 	C 	0.7521	0.2078	0.38226	-0.086
Mof_H 	H 	0.7555	0.084	0.3692	0.035
Mof_C 	C 	0.80106	0.229	0.33301	0.395
Mof_N 	N 	0.3898	0.038	0.7718	-0.073
Mof_C 	C 	0.353	0.9962	0.7988	-0.29
Mof_C 	C 	0.4268	0.9934	0.7445	0.964
Mof_H 	H 	0.3209	0.0244	0.8217	0.104
Mof_C 	C 	0.3496	0.9088	0.802	0.38
Mof_C 	C 	0.4277	0.9058	0.7418	-0.844
Mof_H 	H 	0.4599	0.0201	0.7218	-0.286
Mof_H 	H 	0.3182	0.8846	0.828	-0.093
Mof_C 	C 	0.3858	0.864	0.7722	-0.06
Mof_H 	H 	0.4592	0.8789	0.7174	0.314
Mof_C 	C 	0.4043	0.7694	0.7822	0.344
Mof_N 	N 	0.3906	0.4634	0.7245	-0.195
Mof_C 	C 	0.4495	0.5048	0.7089	-0.854
Mof_H 	H 	0.488	0.4747	0.6992	0.331
Mof_C 	C 	0.4509	0.5912	0.7077	0.582
Mof_H 	H 	0.4904	0.6189	0.6973	-0.186
Mof_C 	C 	0.3935	0.6363	0.7222	0.201
Mof_C 	C 	0.3346	0.5949	0.7378	-0.504
Mof_H 	H 	0.2961	0.6251	0.7475	0.208
Mof_C 	C 	0.3331	0.5085	0.739	0.296
Mof_H 	H 	0.2937	0.4808	0.7494	-0.081
Mof_H 	H 	0.452	0.7429	0.7201	-0.1
Mof_H 	H 	0.3876	0.7507	0.6788	0.126
Mof_H 	H 	0.3208	0.7668	0.762	0.116
Mof_H 	H 	0.3804	0.7459	0.8063	-0.159
Mof_C 	C 	0.3688	0.7728	0.768	-0.317
Mof_Zn	Zn	0.8908	0.33844	0.26751	1.217
Mof_O 	O 	0.9602	0.32973	0.19959	-0.471
Mof_O 	O 	0.96222	0.19694	0.17225	-0.456
Mof_O 	O 	0.31895	0.32816	0.7984	-0.49
Mof_O 	O 	0.32026	0.19745	0.82925	-0.465
Mof_C 	C 	0.9797	0.2717	0.1668	0.384
Mof_C 	C 	0.0286	0.2917	0.1165	-0.061
Mof_C 	C 	0.0604	0.2304	0.0849	-0.08
Mof_C 	C 	0.0376	0.3758	0.1012	-0.014
Mof_H 	H 	0.0529	0.1747	0.094	0.072
Mof_C 	C 	0.1041	0.253	0.039	0.092
Mof_C 	C 	0.0805	0.3971	0.0552	-0.057
Mof_H 	H 	0.0144	0.4169	0.1225	0.051
Mof_C 	C 	0.1153	0.3348	0.0233	-0.018
Mof_N 	N 	0.14317	0.2034	0.00184	-0.215
Mof_H 	H 	0.0867	0.4527	0.045	0.052
Mof_C 	C 	0.1611	0.3363	0.9727	-0.001
Mof_C 	C 	0.1782	0.2529	0.9615	0.077
Mof_H 	H 	0.1453	0.15	0.0036	0.124
Mof_C 	C 	0.191	0.3975	0.9369	-0.079
Mof_C 	C 	0.224	0.2307	0.91675	-0.067
Mof_C 	C 	0.2355	0.3748	0.893	0.011
Mof_H 	H 	0.1806	0.4533	0.943	0.059
Mof_H 	H 	0.2353	0.1753	0.9103	0.066
Mof_C 	C 	0.2521	0.2922	0.88226	-0.086
Mof_H 	H 	0.2555	0.416	0.8692	0.035
Mof_C 	C 	0.30106	0.271	0.83301	0.395
Mof_N 	N 	0.8898	0.462	0.2718	-0.073
Mof_C 	C 	0.853	0.5038	0.2988	-0.29
Mof_C 	C 	0.9268	0.5066	0.2445	0.964
Mof_H 	H 	0.8209	0.4756	0.3217	0.104
Mof_C 	C 	0.8496	0.5912	0.302	0.38
Mof_C 	C 	0.9277	0.5942	0.2418	-0.844
Mof_H 	H 	0.9599	0.4799	0.2218	-0.287
Mof_H 	H 	0.8182	0.6154	0.328	-0.093
Mof_C 	C 	0.8858	0.636	0.2722	-0.06
Mof_H 	H 	0.9592	0.6211	0.2174	0.314
Mof_C 	C 	0.9043	0.7306	0.2822	0.344
Mof_N 	N 	0.8906	0.0366	0.2245	-0.195
Mof_C 	C 	0.9495	0.9952	0.2089	-0.854
Mof_H 	H 	0.988	0.0253	0.1992	0.331
Mof_C 	C 	0.9509	0.9088	0.2077	0.582
Mof_H 	H 	0.9904	0.8811	0.1973	-0.186
Mof_C 	C 	0.8935	0.8637	0.2222	0.201
Mof_C 	C 	0.8346	0.9051	0.2378	-0.504
Mof_H 	H 	0.7961	0.8749	0.2475	0.208
Mof_C 	C 	0.8331	0.9915	0.239	0.296
Mof_H 	H 	0.7937	0.0192	0.2494	-0.081
Mof_H 	H 	0.952	0.7571	0.2201	-0.1
Mof_H 	H 	0.8876	0.7493	0.1788	0.126
Mof_H 	H 	0.8208	0.7332	0.262	0.116
Mof_H 	H 	0.8804	0.7541	0.3063	-0.159
Mof_C 	C 	0.8688	0.7272	0.268	-0.317
Mof_Zn	Zn	0.8908	0.16156	0.23249	1.217
Mof_O 	O 	0.9602	0.17027	0.30041	-0.471
Mof_O 	O 	0.96222	0.30306	0.32775	-0.456
Mof_O 	O 	0.31895	0.17184	0.7016	-0.49
Mof_O 	O 	0.32026	0.30255	0.67075	-0.465
Mof_C 	C 	0.9797	0.2283	0.3332	0.384
Mof_C 	C 	0.0286	0.2083	0.3835	-0.061
Mof_C 	C 	0.0604	0.2696	0.4151	-0.08
Mof_C 	C 	0.0376	0.1242	0.3988	-0.014
Mof_H 	H 	0.0529	0.3253	0.406	0.072
Mof_C 	C 	0.1041	0.247	0.461	0.092
Mof_C 	C 	0.0805	0.1029	0.4448	-0.057
Mof_H 	H 	0.0144	0.0831	0.3775	0.051
Mof_C 	C 	0.1153	0.1652	0.4767	-0.018
Mof_N 	N 	0.14317	0.2966	0.49816	-0.215
Mof_H 	H 	0.0867	0.0473	0.455	0.052
Mof_C 	C 	0.1611	0.1637	0.5273	-0.001
Mof_C 	C 	0.1782	0.2471	0.5385	0.077
Mof_H 	H 	0.1453	0.35	0.4964	0.124
Mof_C 	C 	0.191	0.1025	0.5631	-0.079
Mof_C 	C 	0.224	0.2693	0.58325	-0.067
Mof_C 	C 	0.2355	0.1252	0.607	0.011
Mof_H 	H 	0.1806	0.0467	0.557	0.059
Mof_H 	H 	0.2353	0.3247	0.5897	0.066
Mof_C 	C 	0.2521	0.2078	0.61774	-0.086
Mof_H 	H 	0.2555	0.084	0.6308	0.035
Mof_C 	C 	0.30106	0.229	0.66699	0.395
Mof_N 	N 	0.8898	0.038	0.2282	-0.073
Mof_C 	C 	0.853	0.9962	0.2012	-0.29
Mof_C 	C 	0.9268	0.9934	0.2555	0.964
Mof_H 	H 	0.8209	0.0244	0.1783	0.104
Mof_C 	C 	0.8496	0.9088	0.198	0.38
Mof_C 	C 	0.9277	0.9058	0.2582	-0.844
Mof_H 	H 	0.9599	0.0201	0.2782	-0.287
Mof_H 	H 	0.8182	0.8846	0.172	-0.093
Mof_C 	C 	0.8858	0.864	0.2278	-0.06
Mof_H 	H 	0.9592	0.8789	0.2826	0.314
Mof_C 	C 	0.9043	0.7694	0.2178	0.344
Mof_N 	N 	0.8906	0.4634	0.2755	-0.195
Mof_C 	C 	0.9495	0.5048	0.2911	-0.854
Mof_H 	H 	0.988	0.4747	0.3008	0.331
Mof_C 	C 	0.9509	0.5912	0.2923	0.582
Mof_H 	H 	0.9904	0.6189	0.3027	-0.186
Mof_C 	C 	0.8935	0.6363	0.2778	0.201
Mof_C 	C 	0.8346	0.5949	0.2622	-0.504
Mof_H 	H 	0.7961	0.6251	0.2525	0.208
Mof_C 	C 	0.8331	0.5085	0.261	0.296
Mof_H 	H 	0.7937	0.4808	0.2506	-0.081
Mof_H 	H 	0.952	0.7429	0.2799	-0.1
Mof_H 	H 	0.8876	0.7507	0.3212	0.126
Mof_H 	H 	0.8208	0.7668	0.238	0.116
Mof_H 	H 	0.8804	0.7459	0.1937	-0.159
Mof_C 	C 	0.8688	0.7728	0.232	-0.317
_end
