data_functionalizedCrystal
_audit_creation_method	'EQeq! by Chris Wilmer'
_symmetry_space_group_name_H-M	'P1'
_symmetry_Int_Tables_number	1
_symmetry_cell_setting	triclinic
loop_
_symmetry_equiv_pos_as_xyz
  x,y,z
_cell_length_a	17.784
_cell_length_b	17.784
_cell_length_c	53.14
_cell_angle_alpha	90
_cell_angle_beta	90
_cell_angle_gamma	120
loop_
_atom_site_label
_atom_site_type_symbol
_atom_site_fract_x
_atom_site_fract_y
_atom_site_fract_z
_atom_site_charge
Mof_O 	O 	0.7565	0.4366	0.3547	-0.281
Mof_C 	C 	0.758	0.4873	0.3695	0.208
Mof_O 	O 	0.9111	0.9015	0.3615	-0.286
Mof_C 	C 	0.912	0.8512	0.3436	0.223
Mof_O 	O 	0.42317	0.76993	0.68803	-0.289
Mof_C 	C 	0.42467	0.82063	0.70283	0.224
Mof_O 	O 	0.57777	0.23483	0.69483	-0.318
Mof_C 	C 	0.57867	0.18453	0.67693	0.215
Mof_O 	O 	0.08983	0.10327	0.02137	-0.301
Mof_C 	C 	0.09133	0.15397	0.03617	0.212
Mof_O 	O 	0.24443	0.56817	0.02817	-0.323
Mof_C 	C 	0.24533	0.51787	0.01027	0.23
Mof_O 	O 	0.5634	0.3199	0.3547	-0.285
Mof_C 	C 	0.5127	0.2707	0.3695	0.205
Mof_O 	O 	0.0985	0.0096	0.3615	-0.363
Mof_C 	C 	0.1488	0.0608	0.3436	0.239
Mof_O 	O 	0.23007	0.65323	0.68803	-0.283
Mof_C 	C 	0.17937	0.60403	0.70283	0.197
Mof_O 	O 	0.76517	0.34293	0.69483	-0.32
Mof_C 	C 	0.81547	0.39413	0.67693	0.241
Mof_O 	O 	0.89673	0.98657	0.02137	-0.235
Mof_C 	C 	0.84603	0.93737	0.03617	0.196
Mof_O 	O 	0.43183	0.67627	0.02817	-0.319
Mof_C 	C 	0.48213	0.72747	0.01027	0.232
Mof_O 	O 	0.6801	0.2435	0.3547	-0.295
Mof_C 	C 	0.7293	0.242	0.3695	0.219
Mof_O 	O 	0.9904	0.0889	0.3615	-0.284
Mof_C 	C 	0.9392	0.088	0.3436	0.211
Mof_O 	O 	0.34677	0.57683	0.68803	-0.289
Mof_C 	C 	0.39597	0.57533	0.70283	0.212
Mof_O 	O 	0.65707	0.42223	0.69483	-0.314
Mof_C 	C 	0.60587	0.42133	0.67693	0.223
Mof_O 	O 	0.01343	0.91017	0.02137	-0.312
Mof_C 	C 	0.06263	0.90867	0.03617	0.216
Mof_O 	O 	0.32373	0.75557	0.02817	-0.311
Mof_C 	C 	0.27253	0.75467	0.01027	0.218
Mof_O 	O 	0.4366	0.7565	0.6453	-0.282
Mof_C 	C 	0.4873	0.758	0.6305	0.207
Mof_O 	O 	0.9015	0.9111	0.6385	-0.287
Mof_C 	C 	0.8512	0.912	0.6564	0.222
Mof_O 	O 	0.10327	0.08983	0.97863	-0.301
Mof_C 	C 	0.15397	0.09133	0.96383	0.212
Mof_O 	O 	0.56817	0.24443	0.97183	-0.323
Mof_C 	C 	0.51787	0.24533	0.98973	0.23
Mof_O 	O 	0.76993	0.42317	0.31197	-0.29
Mof_C 	C 	0.82063	0.42467	0.29717	0.223
Mof_O 	O 	0.23483	0.57777	0.30517	-0.319
Mof_C 	C 	0.18453	0.57867	0.32307	0.215
Mof_O 	O 	0.3199	0.5634	0.6453	-0.285
Mof_C 	C 	0.2707	0.5127	0.6305	0.205
Mof_O 	O 	0.0096	0.0985	0.6385	-0.363
Mof_C 	C 	0.0608	0.1488	0.6564	0.239
Mof_O 	O 	0.98657	0.89673	0.97863	-0.235
Mof_C 	C 	0.93737	0.84603	0.96383	0.196
Mof_O 	O 	0.67627	0.43183	0.97183	-0.319
Mof_C 	C 	0.72747	0.48213	0.98973	0.232
Mof_O 	O 	0.65323	0.23007	0.31197	-0.283
Mof_C 	C 	0.60403	0.17937	0.29717	0.197
Mof_O 	O 	0.34293	0.76517	0.30517	-0.32
Mof_C 	C 	0.39413	0.81547	0.32307	0.241
Mof_O 	O 	0.2435	0.6801	0.6453	-0.295
Mof_C 	C 	0.242	0.7293	0.6305	0.219
Mof_O 	O 	0.0889	0.9904	0.6385	-0.284
Mof_C 	C 	0.088	0.9392	0.6564	0.211
Mof_O 	O 	0.91017	0.01343	0.97863	-0.311
Mof_C 	C 	0.90867	0.06263	0.96383	0.216
Mof_O 	O 	0.75557	0.32373	0.97183	-0.311
Mof_C 	C 	0.75467	0.27253	0.98973	0.218
Mof_O 	O 	0.57683	0.34677	0.31197	-0.289
Mof_C 	C 	0.57533	0.39597	0.29717	0.212
Mof_O 	O 	0.42223	0.65707	0.30517	-0.314
Mof_C 	C 	0.42133	0.60587	0.32307	0.223
Mof_O 	O 	0.2435	0.5634	0.6453	-0.293
Mof_C 	C 	0.242	0.5127	0.6305	0.213
Mof_O 	O 	0.0889	0.0985	0.6385	-0.34
Mof_C 	C 	0.088	0.1488	0.6564	0.226
Mof_O 	O 	0.91017	0.89673	0.97863	-0.265
Mof_C 	C 	0.90867	0.84603	0.96383	0.204
Mof_O 	O 	0.75557	0.43183	0.97183	-0.313
Mof_C 	C 	0.75467	0.48213	0.98973	0.223
Mof_O 	O 	0.57683	0.23007	0.31197	-0.285
Mof_C 	C 	0.57533	0.17937	0.29717	0.199
Mof_O 	O 	0.42223	0.76517	0.30517	-0.317
Mof_C 	C 	0.42133	0.81547	0.32307	0.238
Mof_O 	O 	0.4366	0.6801	0.6453	-0.29
Mof_C 	C 	0.4873	0.7293	0.6305	0.215
Mof_O 	O 	0.9015	0.9904	0.6385	-0.261
Mof_C 	C 	0.8512	0.9392	0.6564	0.21
Mof_O 	O 	0.10327	0.01343	0.97863	-0.332
Mof_C 	C 	0.15397	0.06263	0.96383	0.221
Mof_O 	O 	0.56817	0.32373	0.97183	-0.316
Mof_C 	C 	0.51787	0.27253	0.98973	0.222
Mof_O 	O 	0.76993	0.34677	0.31197	-0.292
Mof_C 	C 	0.82063	0.39597	0.29717	0.224
Mof_O 	O 	0.23483	0.65707	0.30517	-0.315
Mof_C 	C 	0.18453	0.60587	0.32307	0.211
Mof_O 	O 	0.3199	0.7565	0.6453	-0.28
Mof_C 	C 	0.2707	0.758	0.6305	0.202
Mof_O 	O 	0.0096	0.9111	0.6385	-0.334
Mof_C 	C 	0.0608	0.912	0.6564	0.236
Mof_O 	O 	0.98657	0.08983	0.97863	-0.249
Mof_C 	C 	0.93737	0.09133	0.96383	0.199
Mof_O 	O 	0.67627	0.24443	0.97183	-0.324
Mof_C 	C 	0.72747	0.24533	0.98973	0.236
Mof_O 	O 	0.65323	0.42317	0.31197	-0.286
Mof_C 	C 	0.60403	0.42467	0.29717	0.208
Mof_O 	O 	0.34293	0.57777	0.30517	-0.322
Mof_C 	C 	0.39413	0.57867	0.32307	0.23
Mof_O 	O 	0.5634	0.2435	0.3547	-0.293
Mof_C 	C 	0.5127	0.242	0.3695	0.213
Mof_O 	O 	0.0985	0.0889	0.3615	-0.34
Mof_C 	C 	0.1488	0.088	0.3436	0.226
Mof_O 	O 	0.23007	0.57683	0.68803	-0.285
Mof_C 	C 	0.17937	0.57533	0.70283	0.199
Mof_O 	O 	0.76517	0.42223	0.69483	-0.317
Mof_C 	C 	0.81547	0.42133	0.67693	0.238
Mof_O 	O 	0.89673	0.91017	0.02137	-0.265
Mof_C 	C 	0.84603	0.90867	0.03617	0.204
Mof_O 	O 	0.43183	0.75557	0.02817	-0.313
Mof_C 	C 	0.48213	0.75467	0.01027	0.223
Mof_O 	O 	0.6801	0.4366	0.3547	-0.29
Mof_C 	C 	0.7293	0.4873	0.3695	0.215
Mof_O 	O 	0.9904	0.9015	0.3615	-0.261
Mof_C 	C 	0.9392	0.8512	0.3436	0.21
Mof_O 	O 	0.34677	0.76993	0.68803	-0.292
Mof_C 	C 	0.39597	0.82063	0.70283	0.224
Mof_O 	O 	0.65707	0.23483	0.69483	-0.315
Mof_C 	C 	0.60587	0.18453	0.67693	0.211
Mof_O 	O 	0.01343	0.10327	0.02137	-0.332
Mof_C 	C 	0.06263	0.15397	0.03617	0.22
Mof_O 	O 	0.32373	0.56817	0.02817	-0.316
Mof_C 	C 	0.27253	0.51787	0.01027	0.222
Mof_O 	O 	0.7565	0.3199	0.3547	-0.28
Mof_C 	C 	0.758	0.2707	0.3695	0.202
Mof_O 	O 	0.9111	0.0096	0.3615	-0.334
Mof_C 	C 	0.912	0.0608	0.3436	0.236
Mof_O 	O 	0.42317	0.65323	0.68803	-0.286
Mof_C 	C 	0.42467	0.60403	0.70283	0.208
Mof_O 	O 	0.57777	0.34293	0.69483	-0.322
Mof_C 	C 	0.57867	0.39413	0.67693	0.23
Mof_O 	O 	0.08983	0.98657	0.02137	-0.249
Mof_C 	C 	0.09133	0.93737	0.03617	0.199
Mof_O 	O 	0.24443	0.67627	0.02817	-0.324
Mof_C 	C 	0.24533	0.72747	0.01027	0.235
Mof_Zn	Zn	0.66667	0.33333	0.33333	1.31
Mof_Zn	Zn	0.33333	0.66667	0.66667	1.31
Mof_Zn	Zn	-0	0	-0	1.276
Mof_Zn	Zn	0.66667	0.33333	0.39947	1.23
Mof_Zn	Zn	0.33333	0.66667	0.7328	1.23
Mof_Zn	Zn	-1.73436e-33	0	0.06614	1.201
Mof_Zn	Zn	0.33333	0.66667	0.60053	1.23
Mof_Zn	Zn	2.77498e-32	0	0.93386	1.201
Mof_Zn	Zn	0.66667	0.33333	0.2672	1.23
Mof_Zn	Zn	6.93744e-33	1.38749e-32	0.31763	1.226
Mof_N 	N 	-3.46872e-33	0	0.1049	-0.304
Mof_C 	C 	3.46872e-33	6.93744e-33	0.1588	-0.232
Mof_C 	C 	6.93744e-33	1.38749e-32	0.2281	-0.186
Mof_N 	N 	-0	0	0.281	-0.318
Mof_Zn	Zn	-1.38749e-32	0	0.38364	1.179
Mof_Zn	Zn	0.66667	0.33333	0.65096	1.256
Mof_N 	N 	0.66667	0.33333	0.43823	-0.248
Mof_C 	C 	0.66667	0.33333	0.49213	0.022
Mof_C 	C 	0.66667	0.33333	0.56143	0.019
Mof_N 	N 	0.66667	0.33333	0.61433	-0.258
Mof_Zn	Zn	0.66667	0.33333	0.71697	1.212
Mof_Zn	Zn	0.33333	0.66667	0.9843	1.256
Mof_N 	N 	0.33333	0.66667	0.77157	-0.248
Mof_C 	C 	0.33333	0.66667	0.82547	0.023
Mof_C 	C 	0.33333	0.66667	0.89477	0.019
Mof_N 	N 	0.33333	0.66667	0.94767	-0.258
Mof_Zn	Zn	0.33333	0.66667	0.05031	1.212
Mof_Zn	Zn	-2.77498e-32	0	0.68237	1.226
Mof_N 	N 	-5.54995e-32	0	0.8951	-0.304
Mof_C 	C 	2.77498e-32	0	0.8412	-0.232
Mof_C 	C 	2.77498e-32	0	0.7719	-0.186
Mof_N 	N 	-2.77498e-32	5.54995e-32	0.719	-0.318
Mof_Zn	Zn	-1.38749e-32	0	0.61636	1.179
Mof_Zn	Zn	0.66667	0.33333	0.0157	1.256
Mof_N 	N 	0.66667	0.33333	0.22843	-0.248
Mof_C 	C 	0.66667	0.33333	0.17453	0.023
Mof_C 	C 	0.66667	0.33333	0.10523	0.019
Mof_N 	N 	0.66667	0.33333	0.05233	-0.258
Mof_Zn	Zn	0.66667	0.33333	0.94969	1.212
Mof_Zn	Zn	0.33333	0.66667	0.34904	1.256
Mof_N 	N 	0.33333	0.66667	0.56177	-0.248
Mof_C 	C 	0.33333	0.66667	0.50787	0.022
Mof_C 	C 	0.33333	0.66667	0.43857	0.019
Mof_N 	N 	0.33333	0.66667	0.38567	-0.258
Mof_Zn	Zn	0.33333	0.66667	0.28303	1.212
Mof_O 	O 	0.93965	0.8793	0.3239	-0.429
Mof_O 	O 	0.72945	0.4589	0.3919	-0.411
Mof_C 	C 	0.87835	0.7567	0.3506	-0.088
Mof_C 	C 	0.8678	0.7356	0.3758	-0.063
Mof_H 	H 	0.8896	0.7792	0.3879	0.077
Mof_C 	C 	0.8247	0.6494	0.3831	0.167
Mof_C 	C 	0.79225	0.5845	0.3662	-0.075
Mof_C 	C 	0.8016	0.6032	0.3405	-0.095
Mof_H 	H 	0.77945	0.5589	0.3286	0.124
Mof_C 	C 	0.8446	0.6892	0.3333	0.179
Mof_O 	O 	0.81155	0.6231	0.4082	-0.158
Mof_O 	O 	0.857	0.714	0.3076	-0.15
Mof_O 	O 	0.60632	0.21263	0.65723	-0.469
Mof_O 	O 	0.39612	0.79223	0.72523	-0.418
Mof_C 	C 	0.54502	0.09003	0.68393	-0.032
Mof_C 	C 	0.53447	0.06893	0.70913	-0.204
Mof_H 	H 	0.55627	0.11253	0.72123	0.1
Mof_C 	C 	0.49137	0.98273	0.71643	0.281
Mof_C 	C 	0.45892	0.91783	0.69953	-0.153
Mof_C 	C 	0.46827	0.93653	0.67383	0.042
Mof_H 	H 	0.44612	0.89223	0.66193	0.084
Mof_C 	C 	0.51127	0.02253	0.66663	0.061
Mof_O 	O 	0.47822	0.95643	0.74153	-0.175
Mof_O 	O 	0.52367	0.04733	0.64093	-0.158
Mof_O 	O 	0.27298	0.54597	0.99057	-0.476
Mof_O 	O 	0.06278	0.12557	0.05857	-0.438
Mof_C 	C 	0.21168	0.42337	0.01727	-0.109
Mof_C 	C 	0.20113	0.40227	0.04247	-0.063
Mof_H 	H 	0.22293	0.44587	0.05457	0.06
Mof_C 	C 	0.15803	0.31607	0.04977	0.158
Mof_C 	C 	0.12558	0.25117	0.03287	-0.088
Mof_C 	C 	0.13493	0.26987	0.00717	-0.102
Mof_H 	H 	0.11278	0.22557	0.99527	0.115
Mof_C 	C 	0.17793	0.35587	0.99997	0.176
Mof_O 	O 	0.14488	0.28977	0.07487	-0.181
Mof_O 	O 	0.19033	0.38067	0.97427	-0.168
Mof_O 	O 	0.1207	0.06035	0.3239	-0.5
Mof_O 	O 	0.5411	0.27055	0.3919	-0.418
Mof_C 	C 	0.2433	0.12165	0.3506	-0.123
Mof_C 	C 	0.2644	0.1322	0.3758	-0.053
Mof_H 	H 	0.2208	0.1104	0.3879	0.049
Mof_C 	C 	0.3506	0.1753	0.3831	0.148
Mof_C 	C 	0.4155	0.20775	0.3662	-0.075
Mof_C 	C 	0.3968	0.1984	0.3405	-0.111
Mof_H 	H 	0.4411	0.22055	0.3286	0.124
Mof_C 	C 	0.3108	0.1554	0.3333	0.183
Mof_O 	O 	0.3769	0.18845	0.4082	-0.179
Mof_O 	O 	0.286	0.143	0.3076	-0.172
Mof_O 	O 	0.78737	0.39368	0.65723	-0.479
Mof_O 	O 	0.20777	0.60388	0.72523	-0.412
Mof_C 	C 	0.90997	0.45498	0.68393	-0.179
Mof_C 	C 	0.93107	0.46553	0.70913	0.082
Mof_H 	H 	0.88747	0.44373	0.72123	0.025
Mof_C 	C 	0.01727	0.50863	0.71643	0.04
Mof_C 	C 	0.08217	0.54108	0.69953	-0
Mof_C 	C 	0.06347	0.53173	0.67383	-0.24
Mof_H 	H 	0.10777	0.55388	0.66193	0.163
Mof_C 	C 	0.97747	0.48873	0.66663	0.296
Mof_O 	O 	0.04357	0.52178	0.74153	-0.163
Mof_O 	O 	0.95267	0.47633	0.64093	-0.162
Mof_O 	O 	0.45403	0.72702	0.99057	-0.471
Mof_O 	O 	0.87443	0.93722	0.05857	-0.373
Mof_C 	C 	0.57663	0.78832	0.01727	-0.109
Mof_C 	C 	0.59773	0.79887	0.04247	-0.049
Mof_H 	H 	0.55413	0.77707	0.05457	0.062
Mof_C 	C 	0.68393	0.84197	0.04977	0.153
Mof_C 	C 	0.74883	0.87442	0.03287	-0.057
Mof_C 	C 	0.73013	0.86507	0.00717	-0.111
Mof_H 	H 	0.77443	0.88722	0.99527	0.135
Mof_C 	C 	0.64413	0.82207	0.99997	0.191
Mof_O 	O 	0.71023	0.85512	0.07487	-0.158
Mof_O 	O 	0.61933	0.80967	0.97427	-0.154
Mof_O 	O 	0.93965	0.06035	0.3239	-0.461
Mof_O 	O 	0.72945	0.27055	0.3919	-0.414
Mof_C 	C 	0.87835	0.12165	0.3506	-0.104
Mof_C 	C 	0.8678	0.1322	0.3758	-0.059
Mof_H 	H 	0.8896	0.1104	0.3879	0.064
Mof_C 	C 	0.8247	0.1753	0.3831	0.159
Mof_C 	C 	0.79225	0.20775	0.3662	-0.075
Mof_C 	C 	0.8016	0.1984	0.3405	-0.102
Mof_H 	H 	0.77945	0.22055	0.3286	0.124
Mof_C 	C 	0.8446	0.1554	0.3333	0.181
Mof_O 	O 	0.81155	0.18845	0.4082	-0.168
Mof_O 	O 	0.857	0.143	0.3076	-0.16
Mof_O 	O 	0.60632	0.39368	0.65723	-0.474
Mof_O 	O 	0.39612	0.60388	0.72523	-0.415
Mof_C 	C 	0.54502	0.45498	0.68393	-0.108
Mof_C 	C 	0.53447	0.46553	0.70913	-0.057
Mof_H 	H 	0.55627	0.44373	0.72123	0.061
Mof_C 	C 	0.49137	0.50863	0.71643	0.157
Mof_C 	C 	0.45892	0.54108	0.69953	-0.075
Mof_C 	C 	0.46827	0.53173	0.67383	-0.104
Mof_H 	H 	0.44612	0.55388	0.66193	0.124
Mof_C 	C 	0.51127	0.48873	0.66663	0.182
Mof_O 	O 	0.47822	0.52178	0.74153	-0.169
Mof_O 	O 	0.52367	0.47633	0.64093	-0.16
Mof_O 	O 	0.27298	0.72702	0.99057	-0.474
Mof_O 	O 	0.06278	0.93722	0.05857	-0.404
Mof_C 	C 	0.21168	0.78832	0.01727	-0.109
Mof_C 	C 	0.20113	0.79887	0.04247	-0.055
Mof_H 	H 	0.22293	0.77707	0.05457	0.061
Mof_C 	C 	0.15803	0.84197	0.04977	0.155
Mof_C 	C 	0.12558	0.87442	0.03287	-0.071
Mof_C 	C 	0.13493	0.86507	0.00717	-0.107
Mof_H 	H 	0.11278	0.88722	0.99527	0.127
Mof_C 	C 	0.17793	0.82207	0.99997	0.184
Mof_O 	O 	0.14488	0.85512	0.07487	-0.168
Mof_O 	O 	0.19033	0.80967	0.97427	-0.16
Mof_O 	O 	0.8793	0.93965	0.6761	-0.429
Mof_O 	O 	0.4589	0.72945	0.6081	-0.411
Mof_C 	C 	0.7567	0.87835	0.6494	-0.088
Mof_C 	C 	0.7356	0.8678	0.6242	-0.063
Mof_H 	H 	0.7792	0.8896	0.6121	0.077
Mof_C 	C 	0.6494	0.8247	0.6169	0.167
Mof_C 	C 	0.5845	0.79225	0.6338	-0.075
Mof_C 	C 	0.6032	0.8016	0.6595	-0.095
Mof_H 	H 	0.5589	0.77945	0.6714	0.124
Mof_C 	C 	0.6892	0.8446	0.6667	0.179
Mof_O 	O 	0.6231	0.81155	0.5918	-0.158
Mof_O 	O 	0.714	0.857	0.6924	-0.15
Mof_O 	O 	0.54597	0.27298	0.00943	-0.477
Mof_O 	O 	0.12557	0.06278	0.94143	-0.439
Mof_C 	C 	0.42337	0.21168	0.98273	-0.107
Mof_C 	C 	0.40227	0.20113	0.95753	-0.064
Mof_H 	H 	0.44587	0.22293	0.94543	0.06
Mof_C 	C 	0.31607	0.15803	0.95023	0.159
Mof_C 	C 	0.25117	0.12558	0.96713	-0.09
Mof_C 	C 	0.26987	0.13493	0.99283	-0.098
Mof_H 	H 	0.22557	0.11278	0.00473	0.113
Mof_C 	C 	0.35587	0.17793	3e-05	0.173
Mof_O 	O 	0.28977	0.14488	0.92513	-0.181
Mof_O 	O 	0.38067	0.19033	0.02573	-0.168
Mof_O 	O 	0.21263	0.60632	0.34277	-0.469
Mof_O 	O 	0.79223	0.39612	0.27477	-0.418
Mof_C 	C 	0.09003	0.54502	0.31607	-0.032
Mof_C 	C 	0.06893	0.53447	0.29087	-0.204
Mof_H 	H 	0.11253	0.55627	0.27877	0.1
Mof_C 	C 	0.98273	0.49137	0.28357	0.281
Mof_C 	C 	0.91783	0.45892	0.30047	-0.153
Mof_C 	C 	0.93653	0.46827	0.32617	0.042
Mof_H 	H 	0.89223	0.44612	0.33807	0.084
Mof_C 	C 	0.02253	0.51127	0.33337	0.061
Mof_O 	O 	0.95643	0.47822	0.25847	-0.175
Mof_O 	O 	0.04733	0.52367	0.35907	-0.158
Mof_O 	O 	0.06035	0.1207	0.6761	-0.5
Mof_O 	O 	0.27055	0.5411	0.6081	-0.418
Mof_C 	C 	0.12165	0.2433	0.6494	-0.123
Mof_C 	C 	0.1322	0.2644	0.6242	-0.053
Mof_H 	H 	0.1104	0.2208	0.6121	0.049
Mof_C 	C 	0.1753	0.3506	0.6169	0.148
Mof_C 	C 	0.20775	0.4155	0.6338	-0.075
Mof_C 	C 	0.1984	0.3968	0.6595	-0.111
Mof_H 	H 	0.22055	0.4411	0.6714	0.124
Mof_C 	C 	0.1554	0.3108	0.6667	0.183
Mof_O 	O 	0.18845	0.3769	0.5918	-0.179
Mof_O 	O 	0.143	0.286	0.6924	-0.172
Mof_O 	O 	0.72702	0.45403	0.00943	-0.472
Mof_O 	O 	0.93722	0.87443	0.94143	-0.374
Mof_C 	C 	0.78832	0.57663	0.98273	-0.107
Mof_C 	C 	0.79887	0.59773	0.95753	-0.05
Mof_H 	H 	0.77707	0.55413	0.94543	0.062
Mof_C 	C 	0.84197	0.68393	0.95023	0.154
Mof_C 	C 	0.87442	0.74883	0.96713	-0.058
Mof_C 	C 	0.86507	0.73013	0.99283	-0.107
Mof_H 	H 	0.88722	0.77443	0.00473	0.134
Mof_C 	C 	0.82207	0.64413	3e-05	0.188
Mof_O 	O 	0.85512	0.71023	0.92513	-0.158
Mof_O 	O 	0.80967	0.61933	0.02573	-0.153
Mof_O 	O 	0.39368	0.78737	0.34277	-0.479
Mof_O 	O 	0.60388	0.20777	0.27477	-0.412
Mof_C 	C 	0.45498	0.90997	0.31607	-0.179
Mof_C 	C 	0.46553	0.93107	0.29087	0.082
Mof_H 	H 	0.44373	0.88747	0.27877	0.025
Mof_C 	C 	0.50863	0.01727	0.28357	0.04
Mof_C 	C 	0.54108	0.08217	0.30047	-0
Mof_C 	C 	0.53173	0.06347	0.32617	-0.24
Mof_H 	H 	0.55388	0.10777	0.33807	0.163
Mof_C 	C 	0.48873	0.97747	0.33337	0.296
Mof_O 	O 	0.52178	0.04357	0.25847	-0.163
Mof_O 	O 	0.47633	0.95267	0.35907	-0.162
Mof_O 	O 	0.06035	0.93965	0.6761	-0.461
Mof_O 	O 	0.27055	0.72945	0.6081	-0.414
Mof_C 	C 	0.12165	0.87835	0.6494	-0.104
Mof_C 	C 	0.1322	0.8678	0.6242	-0.059
Mof_H 	H 	0.1104	0.8896	0.6121	0.064
Mof_C 	C 	0.1753	0.8247	0.6169	0.159
Mof_C 	C 	0.20775	0.79225	0.6338	-0.075
Mof_C 	C 	0.1984	0.8016	0.6595	-0.102
Mof_H 	H 	0.22055	0.77945	0.6714	0.124
Mof_C 	C 	0.1554	0.8446	0.6667	0.181
Mof_O 	O 	0.18845	0.81155	0.5918	-0.168
Mof_O 	O 	0.143	0.857	0.6924	-0.16
Mof_O 	O 	0.72702	0.27298	0.00943	-0.474
Mof_O 	O 	0.93722	0.06278	0.94143	-0.404
Mof_C 	C 	0.78832	0.21168	0.98273	-0.107
Mof_C 	C 	0.79887	0.20113	0.95753	-0.056
Mof_H 	H 	0.77707	0.22293	0.94543	0.061
Mof_C 	C 	0.84197	0.15803	0.95023	0.156
Mof_C 	C 	0.87442	0.12558	0.96713	-0.072
Mof_C 	C 	0.86507	0.13493	0.99283	-0.103
Mof_H 	H 	0.88722	0.11278	0.00473	0.125
Mof_C 	C 	0.82207	0.17793	3e-05	0.182
Mof_O 	O 	0.85512	0.14488	0.92513	-0.169
Mof_O 	O 	0.80967	0.19033	0.02573	-0.16
Mof_O 	O 	0.39368	0.60632	0.34277	-0.474
Mof_O 	O 	0.60388	0.39612	0.27477	-0.415
Mof_C 	C 	0.45498	0.54502	0.31607	-0.108
Mof_C 	C 	0.46553	0.53447	0.29087	-0.057
Mof_H 	H 	0.44373	0.55627	0.27877	0.061
Mof_C 	C 	0.50863	0.49137	0.28357	0.157
Mof_C 	C 	0.54108	0.45892	0.30047	-0.075
Mof_C 	C 	0.53173	0.46827	0.32617	-0.104
Mof_H 	H 	0.55388	0.44612	0.33807	0.124
Mof_C 	C 	0.48873	0.51127	0.33337	0.182
Mof_O 	O 	0.52178	0.47822	0.25847	-0.169
Mof_O 	O 	0.47633	0.52367	0.35907	-0.16
Mof_C 	C 	0.0364	0.9636	0.1191	0.016
Mof_C 	C 	0.0366	0.9634	0.1446	0.045
Mof_C 	C 	0.9635	0.0365	0.1191	0.047
Mof_C 	C 	0.9638	0.0362	0.1447	0.039
Mof_C 	C 	0.70307	0.29693	0.45243	0.027
Mof_C 	C 	0.70327	0.29673	0.47793	0.005
Mof_C 	C 	0.63017	0.36983	0.45243	0.021
Mof_C 	C 	0.63047	0.36953	0.47803	-0.02
Mof_C 	C 	0.36973	0.63027	0.78577	0.027
Mof_C 	C 	0.36993	0.63007	0.81127	0.004
Mof_C 	C 	0.29683	0.70317	0.78577	0.021
Mof_C 	C 	0.29713	0.70287	0.81137	-0.021
Mof_C 	C 	0.0364	0.0728	0.1191	-0.022
Mof_C 	C 	0.0366	0.0732	0.1446	0.001
Mof_C 	C 	0.9635	0.927	0.1191	0.088
Mof_C 	C 	0.9638	0.9276	0.1447	0.013
Mof_C 	C 	0.70307	0.40613	0.45243	0.028
Mof_C 	C 	0.70327	0.40653	0.47793	0.009
Mof_C 	C 	0.63017	0.26033	0.45243	0.016
Mof_C 	C 	0.63047	0.26093	0.47803	-0.023
Mof_C 	C 	0.36973	0.73947	0.78577	0.03
Mof_C 	C 	0.36993	0.73987	0.81127	0.009
Mof_C 	C 	0.29683	0.59367	0.78577	0.018
Mof_C 	C 	0.29713	0.59427	0.81137	-0.022
Mof_C 	C 	0.9272	0.9636	0.1191	0.032
Mof_C 	C 	0.9268	0.9634	0.1446	0.064
Mof_C 	C 	0.073	0.0365	0.1191	-0.018
Mof_C 	C 	0.0724	0.0362	0.1447	0.035
Mof_C 	C 	0.59387	0.29693	0.45243	0.025
Mof_C 	C 	0.59347	0.29673	0.47793	0.001
Mof_C 	C 	0.73967	0.36983	0.45243	0.027
Mof_C 	C 	0.73907	0.36953	0.47803	-0.018
Mof_C 	C 	0.26053	0.63027	0.78577	0.024
Mof_C 	C 	0.26013	0.63007	0.81127	-0
Mof_C 	C 	0.40633	0.70317	0.78577	0.024
Mof_C 	C 	0.40573	0.70287	0.81137	-0.02
Mof_C 	C 	0.9636	0.0364	0.8809	0.016
Mof_C 	C 	0.9634	0.0366	0.8554	0.045
Mof_C 	C 	0.0365	0.9635	0.8809	0.047
Mof_C 	C 	0.0362	0.9638	0.8553	0.039
Mof_C 	C 	0.63027	0.36973	0.21423	0.027
Mof_C 	C 	0.63007	0.36993	0.18873	0.004
Mof_C 	C 	0.70317	0.29683	0.21423	0.021
Mof_C 	C 	0.70287	0.29713	0.18863	-0.021
Mof_C 	C 	0.29693	0.70307	0.54757	0.027
Mof_C 	C 	0.29673	0.70327	0.52207	0.005
Mof_C 	C 	0.36983	0.63017	0.54757	0.021
Mof_C 	C 	0.36953	0.63047	0.52197	-0.02
Mof_C 	C 	0.0728	0.0364	0.8809	-0.022
Mof_C 	C 	0.0732	0.0366	0.8554	0.001
Mof_C 	C 	0.927	0.9635	0.8809	0.088
Mof_C 	C 	0.9276	0.9638	0.8553	0.013
Mof_C 	C 	0.73947	0.36973	0.21423	0.03
Mof_C 	C 	0.73987	0.36993	0.18873	0.009
Mof_C 	C 	0.59367	0.29683	0.21423	0.018
Mof_C 	C 	0.59427	0.29713	0.18863	-0.022
Mof_C 	C 	0.40613	0.70307	0.54757	0.028
Mof_C 	C 	0.40653	0.70327	0.52207	0.009
Mof_C 	C 	0.26033	0.63017	0.54757	0.016
Mof_C 	C 	0.26093	0.63047	0.52197	-0.023
Mof_C 	C 	0.9636	0.9272	0.8809	0.032
Mof_C 	C 	0.9634	0.9268	0.8554	0.064
Mof_C 	C 	0.0365	0.073	0.8809	-0.018
Mof_C 	C 	0.0362	0.0724	0.8553	0.035
Mof_C 	C 	0.63027	0.26053	0.21423	0.024
Mof_C 	C 	0.63007	0.26013	0.18873	-0
Mof_C 	C 	0.70317	0.40633	0.21423	0.024
Mof_C 	C 	0.70287	0.40573	0.18863	-0.02
Mof_C 	C 	0.29693	0.59387	0.54757	0.025
Mof_C 	C 	0.29673	0.59347	0.52207	0.001
Mof_C 	C 	0.36983	0.73967	0.54757	0.027
Mof_C 	C 	0.36953	0.73907	0.52197	-0.018
Mof_C 	C 	0.038	0.019	0.1828	-0.362
Mof_C 	C 	0.9763	0.98815	0.2018	-0.197
Mof_C 	C 	0.0756	0.0378	0.2415	0.011
Mof_C 	C 	0.0741	0.03705	0.2673	0.012
Mof_C 	C 	0.926	0.963	0.2675	0.043
Mof_C 	C 	0.9244	0.9622	0.2419	0.044
Mof_C 	C 	0.70467	0.35233	0.51613	0.011
Mof_C 	C 	0.64297	0.32148	0.53513	-0.001
Mof_C 	C 	0.74227	0.37113	0.57483	0.011
Mof_C 	C 	0.74077	0.37038	0.60063	0.033
Mof_C 	C 	0.59267	0.29633	0.60083	0.023
Mof_C 	C 	0.59107	0.29553	0.57523	-0.023
Mof_C 	C 	0.37133	0.68567	0.84947	0.008
Mof_C 	C 	0.30963	0.65482	0.86847	0.001
Mof_C 	C 	0.40893	0.70447	0.90817	0.008
Mof_C 	C 	0.40743	0.70372	0.93397	0.031
Mof_C 	C 	0.25933	0.62967	0.93417	0.021
Mof_C 	C 	0.25773	0.62887	0.90857	-0.024
Mof_C 	C 	0.981	0.019	0.1828	0.024
Mof_C 	C 	0.01185	0.98815	0.2018	-0.036
Mof_C 	C 	0.9622	0.0378	0.2415	0.053
Mof_C 	C 	0.96295	0.03705	0.2673	0.058
Mof_C 	C 	0.037	0.963	0.2675	0.02
Mof_C 	C 	0.0378	0.9622	0.2419	0.017
Mof_C 	C 	0.64767	0.35233	0.51613	-0.001
Mof_C 	C 	0.67852	0.32148	0.53513	0
Mof_C 	C 	0.62887	0.37113	0.57483	0.006
Mof_C 	C 	0.62962	0.37038	0.60063	0.03
Mof_C 	C 	0.70367	0.29633	0.60083	0.027
Mof_C 	C 	0.70447	0.29553	0.57523	-0.02
Mof_C 	C 	0.31433	0.68567	0.84947	-0.001
Mof_C 	C 	0.34518	0.65482	0.86847	0
Mof_C 	C 	0.29553	0.70447	0.90817	0.006
Mof_C 	C 	0.29628	0.70372	0.93397	0.03
Mof_C 	C 	0.37033	0.62967	0.93417	0.026
Mof_C 	C 	0.37113	0.62887	0.90857	-0.02
Mof_C 	C 	0.981	0.962	0.1828	0.439
Mof_C 	C 	0.01185	0.0237	0.2018	0.259
Mof_C 	C 	0.9622	0.9244	0.2415	0.076
Mof_C 	C 	0.96295	0.9259	0.2673	0.076
Mof_C 	C 	0.037	0.074	0.2675	-0.024
Mof_C 	C 	0.0378	0.0756	0.2419	-0.035
Mof_C 	C 	0.64767	0.29533	0.51613	-0.012
Mof_C 	C 	0.67852	0.35703	0.53513	0.001
Mof_C 	C 	0.62887	0.25773	0.57483	0.001
Mof_C 	C 	0.62962	0.25923	0.60063	0.026
Mof_C 	C 	0.70367	0.40733	0.60083	0.029
Mof_C 	C 	0.70447	0.40893	0.57523	-0.016
Mof_C 	C 	0.31433	0.62867	0.84947	-0.011
Mof_C 	C 	0.34518	0.69037	0.86847	-0
Mof_C 	C 	0.29553	0.59107	0.90817	0.003
Mof_C 	C 	0.29628	0.59257	0.93397	0.029
Mof_C 	C 	0.37033	0.74067	0.93417	0.031
Mof_C 	C 	0.37113	0.74227	0.90857	-0.015
Mof_C 	C 	0.019	0.038	0.8172	-0.362
Mof_C 	C 	0.98815	0.9763	0.7982	-0.197
Mof_C 	C 	0.0378	0.0756	0.7585	0.011
Mof_C 	C 	0.03705	0.0741	0.7327	0.012
Mof_C 	C 	0.963	0.926	0.7325	0.043
Mof_C 	C 	0.9622	0.9244	0.7581	0.044
Mof_C 	C 	0.68567	0.37133	0.15053	0.008
Mof_C 	C 	0.65482	0.30963	0.13153	0.001
Mof_C 	C 	0.70447	0.40893	0.09183	0.008
Mof_C 	C 	0.70372	0.40743	0.06603	0.031
Mof_C 	C 	0.62967	0.25933	0.06583	0.021
Mof_C 	C 	0.62887	0.25773	0.09143	-0.024
Mof_C 	C 	0.35233	0.70467	0.48387	0.011
Mof_C 	C 	0.32148	0.64297	0.46487	-0.001
Mof_C 	C 	0.37113	0.74227	0.42517	0.011
Mof_C 	C 	0.37038	0.74077	0.39937	0.033
Mof_C 	C 	0.29633	0.59267	0.39917	0.023
Mof_C 	C 	0.29553	0.59107	0.42477	-0.023
Mof_C 	C 	0.019	0.981	0.8172	0.024
Mof_C 	C 	0.98815	0.01185	0.7982	-0.036
Mof_C 	C 	0.0378	0.9622	0.7585	0.054
Mof_C 	C 	0.03705	0.96295	0.7327	0.058
Mof_C 	C 	0.963	0.037	0.7325	0.02
Mof_C 	C 	0.9622	0.0378	0.7581	0.017
Mof_C 	C 	0.68567	0.31433	0.15053	-0.001
Mof_C 	C 	0.65482	0.34518	0.13153	0
Mof_C 	C 	0.70447	0.29553	0.09183	0.006
Mof_C 	C 	0.70372	0.29628	0.06603	0.03
Mof_C 	C 	0.62967	0.37033	0.06583	0.026
Mof_C 	C 	0.62887	0.37113	0.09143	-0.02
Mof_C 	C 	0.35233	0.64767	0.48387	-0.001
Mof_C 	C 	0.32148	0.67852	0.46487	0
Mof_C 	C 	0.37113	0.62887	0.42517	0.006
Mof_C 	C 	0.37038	0.62962	0.39937	0.03
Mof_C 	C 	0.29633	0.70367	0.39917	0.027
Mof_C 	C 	0.29553	0.70447	0.42477	-0.02
Mof_C 	C 	0.962	0.981	0.8172	0.439
Mof_C 	C 	0.0237	0.01185	0.7982	0.259
Mof_C 	C 	0.9244	0.9622	0.7585	0.076
Mof_C 	C 	0.9259	0.96295	0.7327	0.076
Mof_C 	C 	0.074	0.037	0.7325	-0.024
Mof_C 	C 	0.0756	0.0378	0.7581	-0.035
Mof_C 	C 	0.62867	0.31433	0.15053	-0.011
Mof_C 	C 	0.69037	0.34518	0.13153	-0
Mof_C 	C 	0.59107	0.29553	0.09183	0.003
Mof_C 	C 	0.59257	0.29628	0.06603	0.029
Mof_C 	C 	0.74067	0.37033	0.06583	0.031
Mof_C 	C 	0.74227	0.37113	0.09143	-0.015
Mof_C 	C 	0.29533	0.64767	0.48387	-0.012
Mof_C 	C 	0.35703	0.67852	0.46487	0.001
Mof_C 	C 	0.25773	0.62887	0.42517	0.001
Mof_C 	C 	0.25923	0.62962	0.39937	0.026
Mof_C 	C 	0.40733	0.70367	0.39917	0.029
Mof_C 	C 	0.40893	0.70447	0.42477	-0.016
_end
