data_functionalizedCrystal
_audit_creation_method	'EQeq! by Chris Wilmer'
_symmetry_space_group_name_H-M	'P1'
_symmetry_Int_Tables_number	1
_symmetry_cell_setting	triclinic
loop_
_symmetry_equiv_pos_as_xyz
  x,y,z
_cell_length_a	12.662
_cell_length_b	14.662
_cell_length_c	15.434
_cell_angle_alpha	90
_cell_angle_beta	90
_cell_angle_gamma	90
loop_
_atom_site_label
_atom_site_type_symbol
_atom_site_fract_x
_atom_site_fract_y
_atom_site_fract_z
_atom_site_charge
Mof_Zn	Zn	0.48863	0.97589	0.04708	1.185
Mof_Zn	Zn	0.29826	0.831	0.15983	1.148
Mof_Zn	Zn	0.01137	0.02411	0.54708	1.186
Mof_Zn	Zn	0.20174	0.169	0.65983	1.149
Mof_Zn	Zn	0.51137	0.47589	0.45292	1.187
Mof_Zn	Zn	0.70174	0.331	0.34017	1.149
Mof_Zn	Zn	0.98863	0.52411	0.95292	1.186
Mof_Zn	Zn	0.79826	0.669	0.84017	1.149
Mof_H 	H 	0.5403	0.6886	0.2629	-0.023
Mof_H 	H 	0.7701	0.5191	0.1764	-0.026
Mof_H 	H 	0.6928	0.7458	0.0382	-0.038
Mof_H 	H 	0.9597	0.3114	0.7629	-0.023
Mof_H 	H 	0.7299	0.4809	0.6764	-0.027
Mof_H 	H 	0.8072	0.2542	0.5382	-0.038
Mof_H 	H 	0.4597	0.1886	0.2371	-0.023
Mof_H 	H 	0.2299	0.0191	0.3236	-0.027
Mof_H 	H 	0.3072	0.2458	0.4618	-0.038
Mof_H 	H 	0.0403	0.8114	0.7371	-0.023
Mof_H 	H 	0.2701	0.9809	0.8236	-0.027
Mof_H 	H 	0.1928	0.7542	0.9618	-0.038
Mof_C 	C 	0.6069	0.7297	0.1496	-0.226
Mof_C 	C 	0.5921	0.6733	0.2208	0.129
Mof_C 	C 	0.6519	0.5948	0.2315	-0.229
Mof_C 	C 	0.7282	0.5724	0.1693	0.128
Mof_C 	C 	0.743	0.628	0.0969	-0.227
Mof_C 	C 	0.6825	0.7074	0.087	0.124
Mof_C 	C 	0.5403	0.8136	0.1391	0.425
Mof_C 	C 	0.6351	0.5325	0.3072	0.448
Mof_C 	C 	0.8239	0.6048	0.0307	0.401
Mof_C 	C 	0.8931	0.2703	0.6496	-0.226
Mof_C 	C 	0.9079	0.3267	0.7208	0.13
Mof_C 	C 	0.8481	0.4052	0.7315	-0.23
Mof_C 	C 	0.7718	0.4276	0.6693	0.127
Mof_C 	C 	0.757	0.372	0.5969	-0.227
Mof_C 	C 	0.8175	0.2926	0.587	0.124
Mof_C 	C 	0.9597	0.1864	0.6391	0.426
Mof_C 	C 	0.8649	0.4675	0.8072	0.449
Mof_C 	C 	0.6761	0.3952	0.5307	0.399
Mof_C 	C 	0.3931	0.2297	0.3504	-0.226
Mof_C 	C 	0.4079	0.1733	0.2792	0.13
Mof_C 	C 	0.3481	0.0948	0.2685	-0.23
Mof_C 	C 	0.2718	0.0724	0.3307	0.128
Mof_C 	C 	0.257	0.128	0.4031	-0.227
Mof_C 	C 	0.3175	0.2074	0.413	0.124
Mof_C 	C 	0.4597	0.3136	0.3609	0.424
Mof_C 	C 	0.3649	0.0325	0.1928	0.45
Mof_C 	C 	0.1761	0.1048	0.4693	0.399
Mof_C 	C 	0.1069	0.7703	0.8504	-0.227
Mof_C 	C 	0.0921	0.8267	0.7792	0.13
Mof_C 	C 	0.1519	0.9052	0.7685	-0.23
Mof_C 	C 	0.2282	0.9276	0.8307	0.128
Mof_C 	C 	0.243	0.872	0.9031	-0.227
Mof_C 	C 	0.1825	0.7926	0.913	0.125
Mof_C 	C 	0.0403	0.6864	0.8609	0.427
Mof_C 	C 	0.1351	0.9675	0.6928	0.451
Mof_C 	C 	0.3239	0.8952	0.9693	0.402
Mof_O 	O 	0.57084	0.8703	0.08211	-0.541
Mof_O 	O 	0.46136	0.82292	0.18711	-0.521
Mof_O 	O 	0.55447	0.55002	0.3537	-0.539
Mof_O 	O 	0.69942	0.47075	0.31993	-0.546
Mof_O 	O 	0.87521	0.5309	0.04004	-0.526
Mof_O 	O 	0.84081	0.66027	0.97045	-0.548
Mof_O 	O 	0.92916	0.1297	0.58211	-0.539
Mof_O 	O 	0.03864	0.17708	0.68711	-0.521
Mof_O 	O 	0.94553	0.44998	0.8537	-0.539
Mof_O 	O 	0.80058	0.52925	0.81993	-0.547
Mof_O 	O 	0.62479	0.4691	0.54004	-0.527
Mof_O 	O 	0.65919	0.33973	0.47045	-0.546
Mof_O 	O 	0.42916	0.3703	0.41789	-0.54
Mof_O 	O 	0.53864	0.32292	0.31289	-0.52
Mof_O 	O 	0.44553	0.05002	0.1463	-0.538
Mof_O 	O 	0.30058	0.97075	0.18007	-0.548
Mof_O 	O 	0.12479	0.0309	0.45996	-0.527
Mof_O 	O 	0.15919	0.16027	0.52955	-0.547
Mof_O 	O 	0.07084	0.6297	0.91789	-0.54
Mof_O 	O 	0.96136	0.67708	0.81289	-0.522
Mof_O 	O 	0.05447	0.94998	0.6463	-0.539
Mof_O 	O 	0.19942	0.02925	0.68007	-0.549
Mof_O 	O 	0.37521	0.9691	0.95996	-0.526
Mof_O 	O 	0.34081	0.83973	0.02955	-0.548
_end
