data_functionalizedCrystal
_audit_creation_method	'EQeq! by Chris Wilmer'
_symmetry_space_group_name_H-M	'P1'
_symmetry_Int_Tables_number	1
_symmetry_cell_setting	triclinic
loop_
_symmetry_equiv_pos_as_xyz
  x,y,z
_cell_length_a	17.1728
_cell_length_b	17.1728
_cell_length_c	17.1728
_cell_angle_alpha	90
_cell_angle_beta	90
_cell_angle_gamma	90
loop_
_atom_site_label
_atom_site_type_symbol
_atom_site_fract_x
_atom_site_fract_y
_atom_site_fract_z
_atom_site_charge
Mof_H 	H 	0.0108	0.8373	0.2266	0.422
Mof_C 	C 	0.1388	0.7948	0.3064	-5.82
Mof_H 	H 	0.1072	0.8294	0.3368	1.649
Mof_H 	H 	0.1666	0.7602	0.3404	1.755
Mof_H 	H 	0.9895	0.7734	0.163	0.502
Mof_H 	H 	0.9195	0.8318	0.1664	0.207
Mof_C 	C 	0.861	0.6944	0.2054	-5.42
Mof_H 	H 	0.8923	0.6636	0.1708	1.525
Mof_H 	H 	0.8328	0.6607	0.2399	1.637
Mof_H 	H 	0.9892	0.1627	0.2266	0.422
Mof_C 	C 	0.8612	0.2052	0.3064	-5.82
Mof_H 	H 	0.8928	0.1706	0.3368	1.649
Mof_H 	H 	0.8334	0.2398	0.3404	1.755
Mof_H 	H 	0.0105	0.2266	0.163	0.502
Mof_H 	H 	0.0805	0.1682	0.1664	0.207
Mof_C 	C 	0.139	0.3056	0.2054	-5.42
Mof_H 	H 	0.1077	0.3364	0.1708	1.525
Mof_H 	H 	0.1672	0.3393	0.2399	1.637
Mof_H 	H 	0.9892	0.8373	0.7734	0.422
Mof_C 	C 	0.8612	0.7948	0.6936	-5.82
Mof_H 	H 	0.8928	0.8294	0.6632	1.649
Mof_H 	H 	0.8334	0.7602	0.6596	1.755
Mof_H 	H 	0.0105	0.7734	0.837	0.502
Mof_H 	H 	0.0805	0.8318	0.8336	0.207
Mof_C 	C 	0.139	0.6944	0.7946	-5.42
Mof_H 	H 	0.1077	0.6636	0.8292	1.525
Mof_H 	H 	0.1672	0.6607	0.7601	1.637
Mof_H 	H 	0.0108	0.1627	0.7734	0.422
Mof_C 	C 	0.1388	0.2052	0.6936	-5.82
Mof_H 	H 	0.1072	0.1706	0.6632	1.649
Mof_H 	H 	0.1666	0.2398	0.6596	1.755
Mof_H 	H 	0.9895	0.2266	0.837	0.502
Mof_H 	H 	0.9195	0.1682	0.8336	0.207
Mof_C 	C 	0.861	0.3056	0.7946	-5.42
Mof_H 	H 	0.8923	0.3364	0.8292	1.524
Mof_H 	H 	0.8328	0.3393	0.7601	1.636
Mof_H 	H 	0.2266	0.0108	0.8373	0.421
Mof_C 	C 	0.3064	0.1388	0.7948	-5.821
Mof_H 	H 	0.3368	0.1072	0.8294	1.648
Mof_H 	H 	0.3404	0.1666	0.7602	1.754
Mof_H 	H 	0.163	0.9895	0.7734	0.501
Mof_H 	H 	0.1664	0.9195	0.8318	0.206
Mof_C 	C 	0.2054	0.861	0.6944	-5.421
Mof_H 	H 	0.1708	0.8923	0.6636	1.524
Mof_H 	H 	0.2399	0.8328	0.6607	1.636
Mof_H 	H 	0.2266	0.9892	0.1627	0.421
Mof_C 	C 	0.3064	0.8612	0.2052	-5.821
Mof_H 	H 	0.3368	0.8928	0.1706	1.648
Mof_H 	H 	0.3404	0.8334	0.2398	1.754
Mof_H 	H 	0.163	0.0105	0.2266	0.501
Mof_H 	H 	0.1664	0.0805	0.1682	0.206
Mof_C 	C 	0.2054	0.139	0.3056	-5.421
Mof_H 	H 	0.1708	0.1077	0.3364	1.524
Mof_H 	H 	0.2399	0.1672	0.3393	1.636
Mof_H 	H 	0.7734	0.9892	0.8373	0.421
Mof_C 	C 	0.6936	0.8612	0.7948	-5.821
Mof_H 	H 	0.6632	0.8928	0.8294	1.648
Mof_H 	H 	0.6596	0.8334	0.7602	1.754
Mof_H 	H 	0.837	0.0105	0.7734	0.501
Mof_H 	H 	0.8336	0.0805	0.8318	0.206
Mof_C 	C 	0.7946	0.139	0.6944	-5.421
Mof_H 	H 	0.8292	0.1077	0.6636	1.524
Mof_H 	H 	0.7601	0.1672	0.6607	1.636
Mof_H 	H 	0.7734	0.0108	0.1627	0.421
Mof_C 	C 	0.6936	0.1388	0.2052	-5.821
Mof_H 	H 	0.6632	0.1072	0.1706	1.648
Mof_H 	H 	0.6596	0.1666	0.2398	1.754
Mof_H 	H 	0.837	0.9895	0.2266	0.501
Mof_H 	H 	0.8336	0.9195	0.1682	0.206
Mof_C 	C 	0.7946	0.861	0.3056	-5.421
Mof_H 	H 	0.8292	0.8923	0.3364	1.524
Mof_H 	H 	0.7601	0.8328	0.3393	1.636
Mof_H 	H 	0.8373	0.2266	0.0108	0.421
Mof_C 	C 	0.7948	0.3064	0.1388	-5.821
Mof_H 	H 	0.8294	0.3368	0.1072	1.648
Mof_H 	H 	0.7602	0.3404	0.1666	1.754
Mof_H 	H 	0.7734	0.163	0.9895	0.501
Mof_H 	H 	0.8318	0.1664	0.9195	0.206
Mof_C 	C 	0.6944	0.2054	0.861	-5.421
Mof_H 	H 	0.6636	0.1708	0.8923	1.524
Mof_H 	H 	0.6607	0.2399	0.8328	1.636
Mof_H 	H 	0.1627	0.2266	0.9892	0.421
Mof_C 	C 	0.2052	0.3064	0.8612	-5.821
Mof_H 	H 	0.1706	0.3368	0.8928	1.648
Mof_H 	H 	0.2398	0.3404	0.8334	1.754
Mof_H 	H 	0.2266	0.163	0.0105	0.501
Mof_H 	H 	0.1682	0.1664	0.0805	0.206
Mof_C 	C 	0.3056	0.2054	0.139	-5.421
Mof_H 	H 	0.3364	0.1708	0.1077	1.524
Mof_H 	H 	0.3393	0.2399	0.1672	1.636
Mof_H 	H 	0.8373	0.7734	0.9892	0.421
Mof_C 	C 	0.7948	0.6936	0.8612	-5.821
Mof_H 	H 	0.8294	0.6632	0.8928	1.648
Mof_H 	H 	0.7602	0.6596	0.8334	1.754
Mof_H 	H 	0.7734	0.837	0.0105	0.501
Mof_H 	H 	0.8318	0.8336	0.0805	0.206
Mof_C 	C 	0.6944	0.7946	0.139	-5.421
Mof_H 	H 	0.6636	0.8292	0.1077	1.524
Mof_H 	H 	0.6607	0.7601	0.1672	1.636
Mof_H 	H 	0.1627	0.7734	0.0108	0.421
Mof_C 	C 	0.2052	0.6936	0.1388	-5.821
Mof_H 	H 	0.1706	0.6632	0.1072	1.648
Mof_H 	H 	0.2398	0.6596	0.1666	1.754
Mof_H 	H 	0.2266	0.837	0.9895	0.501
Mof_H 	H 	0.1682	0.8336	0.9195	0.206
Mof_C 	C 	0.3056	0.7946	0.861	-5.421
Mof_H 	H 	0.3364	0.8292	0.8923	1.524
Mof_H 	H 	0.3393	0.7601	0.8328	1.636
Mof_H 	H 	0.8373	0.0108	0.2266	0.421
Mof_C 	C 	0.7948	0.1388	0.3064	-5.821
Mof_H 	H 	0.8294	0.1072	0.3368	1.648
Mof_H 	H 	0.7602	0.1666	0.3404	1.754
Mof_H 	H 	0.7734	0.9895	0.163	0.501
Mof_H 	H 	0.8318	0.9195	0.1664	0.206
Mof_C 	C 	0.6944	0.861	0.2054	-5.421
Mof_H 	H 	0.6636	0.8923	0.1708	1.524
Mof_H 	H 	0.6607	0.8328	0.2399	1.636
Mof_H 	H 	0.1627	0.9892	0.2266	0.421
Mof_C 	C 	0.2052	0.8612	0.3064	-5.821
Mof_H 	H 	0.1706	0.8928	0.3368	1.648
Mof_H 	H 	0.2398	0.8334	0.3404	1.754
Mof_H 	H 	0.2266	0.0105	0.163	0.501
Mof_H 	H 	0.1682	0.0805	0.1664	0.206
Mof_C 	C 	0.3056	0.139	0.2054	-5.421
Mof_H 	H 	0.3364	0.1077	0.1708	1.524
Mof_H 	H 	0.3393	0.1672	0.2399	1.636
Mof_H 	H 	0.8373	0.9892	0.7734	0.421
Mof_C 	C 	0.7948	0.8612	0.6936	-5.821
Mof_H 	H 	0.8294	0.8928	0.6632	1.648
Mof_H 	H 	0.7602	0.8334	0.6596	1.754
Mof_H 	H 	0.7734	0.0105	0.837	0.501
Mof_H 	H 	0.8318	0.0805	0.8336	0.206
Mof_C 	C 	0.6944	0.139	0.7946	-5.421
Mof_H 	H 	0.6636	0.1077	0.8292	1.524
Mof_H 	H 	0.6607	0.1672	0.7601	1.636
Mof_H 	H 	0.1627	0.0108	0.7734	0.421
Mof_C 	C 	0.2052	0.1388	0.6936	-5.821
Mof_H 	H 	0.1706	0.1072	0.6632	1.648
Mof_H 	H 	0.2398	0.1666	0.6596	1.754
Mof_H 	H 	0.2266	0.9895	0.837	0.501
Mof_H 	H 	0.1682	0.9195	0.8336	0.206
Mof_C 	C 	0.3056	0.861	0.7946	-5.421
Mof_H 	H 	0.3364	0.8923	0.8292	1.524
Mof_H 	H 	0.3393	0.8328	0.7601	1.636
Mof_H 	H 	0.0108	0.2266	0.8373	0.421
Mof_C 	C 	0.1388	0.3064	0.7948	-5.821
Mof_H 	H 	0.1072	0.3368	0.8294	1.648
Mof_H 	H 	0.1666	0.3404	0.7602	1.754
Mof_H 	H 	0.9895	0.163	0.7734	0.501
Mof_H 	H 	0.9195	0.1664	0.8318	0.206
Mof_C 	C 	0.861	0.2054	0.6944	-5.421
Mof_H 	H 	0.8923	0.1708	0.6636	1.524
Mof_H 	H 	0.8328	0.2399	0.6607	1.636
Mof_H 	H 	0.9892	0.2266	0.1627	0.421
Mof_C 	C 	0.8612	0.3064	0.2052	-5.821
Mof_H 	H 	0.8928	0.3368	0.1706	1.648
Mof_H 	H 	0.8334	0.3404	0.2398	1.754
Mof_H 	H 	0.0105	0.163	0.2266	0.501
Mof_H 	H 	0.0805	0.1664	0.1682	0.206
Mof_C 	C 	0.139	0.2054	0.3056	-5.421
Mof_H 	H 	0.1077	0.1708	0.3364	1.524
Mof_H 	H 	0.1672	0.2399	0.3393	1.636
Mof_H 	H 	0.9892	0.7734	0.8373	0.421
Mof_C 	C 	0.8612	0.6936	0.7948	-5.821
Mof_H 	H 	0.8928	0.6632	0.8294	1.648
Mof_H 	H 	0.8334	0.6596	0.7602	1.754
Mof_H 	H 	0.0105	0.837	0.7734	0.501
Mof_H 	H 	0.0805	0.8336	0.8318	0.206
Mof_C 	C 	0.139	0.7946	0.6944	-5.421
Mof_H 	H 	0.1077	0.8292	0.6636	1.524
Mof_H 	H 	0.1672	0.7601	0.6607	1.636
Mof_H 	H 	0.0108	0.7734	0.1627	0.421
Mof_C 	C 	0.1388	0.6936	0.2052	-5.821
Mof_H 	H 	0.1072	0.6632	0.1706	1.648
Mof_H 	H 	0.1666	0.6596	0.2398	1.754
Mof_H 	H 	0.9895	0.837	0.2266	0.501
Mof_H 	H 	0.9195	0.8336	0.1682	0.206
Mof_C 	C 	0.861	0.7946	0.3056	-5.421
Mof_H 	H 	0.8923	0.8292	0.3364	1.524
Mof_H 	H 	0.8328	0.7601	0.3393	1.636
Mof_H 	H 	0.2266	0.8373	0.0108	0.421
Mof_C 	C 	0.3064	0.7948	0.1388	-5.821
Mof_H 	H 	0.3368	0.8294	0.1072	1.648
Mof_H 	H 	0.3404	0.7602	0.1666	1.754
Mof_H 	H 	0.163	0.7734	0.9895	0.501
Mof_H 	H 	0.1664	0.8318	0.9195	0.206
Mof_C 	C 	0.2054	0.6944	0.861	-5.421
Mof_H 	H 	0.1708	0.6636	0.8923	1.524
Mof_H 	H 	0.2399	0.6607	0.8328	1.636
Mof_H 	H 	0.2266	0.1627	0.9892	0.421
Mof_C 	C 	0.3064	0.2052	0.8612	-5.821
Mof_H 	H 	0.3368	0.1706	0.8928	1.648
Mof_H 	H 	0.3404	0.2398	0.8334	1.754
Mof_H 	H 	0.163	0.2266	0.0105	0.501
Mof_H 	H 	0.1664	0.1682	0.0805	0.206
Mof_C 	C 	0.2054	0.3056	0.139	-5.421
Mof_H 	H 	0.1708	0.3364	0.1077	1.524
Mof_H 	H 	0.2399	0.3393	0.1672	1.636
Mof_H 	H 	0.7734	0.8373	0.9892	0.421
Mof_C 	C 	0.6936	0.7948	0.8612	-5.821
Mof_H 	H 	0.6632	0.8294	0.8928	1.648
Mof_H 	H 	0.6596	0.7602	0.8334	1.754
Mof_H 	H 	0.837	0.7734	0.0105	0.501
Mof_H 	H 	0.8336	0.8318	0.0805	0.206
Mof_C 	C 	0.7946	0.6944	0.139	-5.421
Mof_H 	H 	0.8292	0.6636	0.1077	1.524
Mof_H 	H 	0.7601	0.6607	0.1672	1.636
Mof_H 	H 	0.7734	0.1627	0.0108	0.421
Mof_C 	C 	0.6936	0.2052	0.1388	-5.821
Mof_H 	H 	0.6632	0.1706	0.1072	1.648
Mof_H 	H 	0.6596	0.2398	0.1666	1.754
Mof_H 	H 	0.837	0.2266	0.9895	0.501
Mof_H 	H 	0.8336	0.1682	0.9195	0.206
Mof_C 	C 	0.7946	0.3056	0.861	-5.421
Mof_H 	H 	0.8292	0.3364	0.8923	1.524
Mof_H 	H 	0.7601	0.3393	0.8328	1.636
Mof_O 	O 	0.5	0.5	0.5	-1.588
Mof_C 	C 	0.2926	0.5	0.5	0.956
Mof_C 	C 	0.204	0.5	0.5	-0.15
Mof_C 	C 	0.0426	0.5	0.5	-0.167
Mof_C 	C 	0.7074	0.5	0.5	0.956
Mof_C 	C 	0.796	0.5	0.5	-0.15
Mof_C 	C 	0.9574	0.5	0.5	-0.167
Mof_C 	C 	0.5	0.2926	0.5	0.956
Mof_C 	C 	0.5	0.204	0.5	-0.15
Mof_C 	C 	0.5	0.0426	0.5	-0.167
Mof_C 	C 	0.5	0.7074	0.5	0.956
Mof_C 	C 	0.5	0.796	0.5	-0.15
Mof_C 	C 	0.5	0.9574	0.5	-0.167
Mof_C 	C 	0.5	0.5	0.2926	0.956
Mof_C 	C 	0.5	0.5	0.204	-0.15
Mof_C 	C 	0.5	0.5	0.0426	-0.167
Mof_C 	C 	0.5	0.5	0.7074	0.956
Mof_C 	C 	0.5	0.5	0.796	-0.15
Mof_C 	C 	0.5	0.5	0.9574	-0.167
Mof_Zn	Zn	0.43504	0.43504	0.56496	1.13
Mof_Zn	Zn	0.56496	0.56496	0.56496	1.13
Mof_Zn	Zn	0.56496	0.43504	0.43504	1.13
Mof_Zn	Zn	0.43504	0.56496	0.43504	1.13
Mof_O 	O 	0.3257	0.4524	0.5476	-0.557
Mof_C 	C 	0.164	0.5494	0.4506	-0.095
Mof_H 	H 	0.1912	0.5825	0.4175	0.061
Mof_C 	C 	0.0832	0.5496	0.4504	0.191
Mof_N 	N 	0.0461	0.6005	0.3995	0.435
Mof_H 	H 	0.996	0.5996	0.4004	-0.037
Mof_C 	C 	0.0799	0.6539	0.3461	0.231
Mof_C 	C 	0.0871	0.74765	0.25235	3.046
Mof_C 	C 	0.0435	0.8031	0.1969	-2.138
Mof_H 	H 	0.0805	0.8327	0.1673	0.501
Mof_O 	O 	0.0329	0.7041	0.2959	-0.699
Mof_O 	O 	0.1511	0.6568	0.3432	-0.586
Mof_N 	N 	0.9539	0.6	0.4	0.412
Mof_H 	H 	0.004	0.599	0.401	-0.047
Mof_C 	C 	0.9201	0.6539	0.3461	0.224
Mof_C 	C 	0.9129	0.7476	0.2524	2.881
Mof_C 	C 	0.9565	0.8031	0.1969	-2.014
Mof_O 	O 	0.9671	0.7041	0.2959	-0.652
Mof_O 	O 	0.8489	0.6568	0.3432	-0.566
Mof_H 	H 	0.0535	0.5885	0.4115	-0.492
Mof_C 	C 	0.8362	0.4503	0.5497	-0.082
Mof_C 	C 	0.9173	0.4503	0.5497	0.17
Mof_H 	H 	0.8091	0.4172	0.5828	0.056
Mof_O 	O 	0.669	0.456	0.544	-0.618
Mof_O 	O 	0.6743	0.5476	0.5476	-0.557
Mof_C 	C 	0.836	0.4506	0.4506	-0.095
Mof_H 	H 	0.8088	0.4175	0.4175	0.061
Mof_C 	C 	0.9168	0.4504	0.4504	0.191
Mof_N 	N 	0.9539	0.3995	0.3995	0.435
Mof_H 	H 	0.004	0.4004	0.4004	-0.037
Mof_C 	C 	0.9201	0.3461	0.3461	0.231
Mof_C 	C 	0.9129	0.25235	0.25235	3.046
Mof_C 	C 	0.9565	0.1969	0.1969	-2.138
Mof_H 	H 	0.9195	0.1673	0.1673	0.501
Mof_O 	O 	0.9671	0.2959	0.2959	-0.699
Mof_O 	O 	0.8489	0.3432	0.3432	-0.586
Mof_N 	N 	0.0461	0.4	0.4	0.412
Mof_H 	H 	0.996	0.401	0.401	-0.047
Mof_C 	C 	0.0799	0.3461	0.3461	0.224
Mof_C 	C 	0.0871	0.2524	0.2524	2.881
Mof_C 	C 	0.0435	0.1969	0.1969	-2.014
Mof_O 	O 	0.0329	0.2959	0.2959	-0.652
Mof_O 	O 	0.1511	0.3432	0.3432	-0.566
Mof_H 	H 	0.9465	0.4115	0.4115	-0.492
Mof_C 	C 	0.1638	0.5497	0.5497	-0.082
Mof_C 	C 	0.0827	0.5497	0.5497	0.17
Mof_H 	H 	0.1909	0.5828	0.5828	0.056
Mof_O 	O 	0.331	0.544	0.544	-0.618
Mof_O 	O 	0.6743	0.4524	0.4524	-0.557
Mof_C 	C 	0.836	0.5494	0.5494	-0.095
Mof_H 	H 	0.8088	0.5825	0.5825	0.061
Mof_C 	C 	0.9168	0.5496	0.5496	0.191
Mof_N 	N 	0.9539	0.6005	0.6005	0.435
Mof_H 	H 	0.004	0.5996	0.5996	-0.037
Mof_C 	C 	0.9201	0.6539	0.6539	0.231
Mof_C 	C 	0.9129	0.74765	0.74765	3.046
Mof_C 	C 	0.9565	0.8031	0.8031	-2.138
Mof_H 	H 	0.9195	0.8327	0.8327	0.501
Mof_O 	O 	0.9671	0.7041	0.7041	-0.699
Mof_O 	O 	0.8489	0.6568	0.6568	-0.586
Mof_N 	N 	0.0461	0.6	0.6	0.412
Mof_H 	H 	0.996	0.599	0.599	-0.047
Mof_C 	C 	0.0799	0.6539	0.6539	0.224
Mof_C 	C 	0.0871	0.7476	0.7476	2.881
Mof_C 	C 	0.0435	0.8031	0.8031	-2.014
Mof_O 	O 	0.0329	0.7041	0.7041	-0.652
Mof_O 	O 	0.1511	0.6568	0.6568	-0.566
Mof_H 	H 	0.9465	0.5885	0.5885	-0.492
Mof_C 	C 	0.1638	0.4503	0.4503	-0.082
Mof_C 	C 	0.0827	0.4503	0.4503	0.17
Mof_H 	H 	0.1909	0.4172	0.4172	0.056
Mof_O 	O 	0.331	0.456	0.456	-0.618
Mof_O 	O 	0.3257	0.5476	0.4524	-0.557
Mof_C 	C 	0.164	0.4506	0.5494	-0.095
Mof_H 	H 	0.1912	0.4175	0.5825	0.061
Mof_C 	C 	0.0832	0.4504	0.5496	0.191
Mof_N 	N 	0.0461	0.3995	0.6005	0.435
Mof_H 	H 	0.996	0.4004	0.5996	-0.037
Mof_C 	C 	0.0799	0.3461	0.6539	0.231
Mof_C 	C 	0.0871	0.25235	0.74765	3.046
Mof_C 	C 	0.0435	0.1969	0.8031	-2.138
Mof_H 	H 	0.0805	0.1673	0.8327	0.501
Mof_O 	O 	0.0329	0.2959	0.7041	-0.699
Mof_O 	O 	0.1511	0.3432	0.6568	-0.586
Mof_N 	N 	0.9539	0.4	0.6	0.412
Mof_H 	H 	0.004	0.401	0.599	-0.047
Mof_C 	C 	0.9201	0.3461	0.6539	0.224
Mof_C 	C 	0.9129	0.2524	0.7476	2.881
Mof_C 	C 	0.9565	0.1969	0.8031	-2.014
Mof_O 	O 	0.9671	0.2959	0.7041	-0.652
Mof_O 	O 	0.8489	0.3432	0.6568	-0.566
Mof_H 	H 	0.0535	0.4115	0.5885	-0.492
Mof_C 	C 	0.8362	0.5497	0.4503	-0.082
Mof_C 	C 	0.9173	0.5497	0.4503	0.17
Mof_H 	H 	0.8091	0.5828	0.4172	0.056
Mof_O 	O 	0.669	0.544	0.456	-0.618
Mof_O 	O 	0.5476	0.3257	0.4524	-0.557
Mof_C 	C 	0.4506	0.164	0.5494	-0.095
Mof_H 	H 	0.4175	0.1912	0.5825	0.061
Mof_C 	C 	0.4504	0.0832	0.5496	0.191
Mof_N 	N 	0.3995	0.0461	0.6005	0.435
Mof_H 	H 	0.4004	0.996	0.5996	-0.037
Mof_C 	C 	0.3461	0.0799	0.6539	0.231
Mof_C 	C 	0.25235	0.0871	0.74765	3.046
Mof_C 	C 	0.1969	0.0435	0.8031	-2.138
Mof_H 	H 	0.1673	0.0805	0.8327	0.501
Mof_O 	O 	0.2959	0.0329	0.7041	-0.699
Mof_O 	O 	0.3432	0.1511	0.6568	-0.586
Mof_N 	N 	0.4	0.9539	0.6	0.412
Mof_H 	H 	0.401	0.004	0.599	-0.047
Mof_C 	C 	0.3461	0.9201	0.6539	0.224
Mof_C 	C 	0.2524	0.9129	0.7476	2.881
Mof_C 	C 	0.1969	0.9565	0.8031	-2.014
Mof_O 	O 	0.2959	0.9671	0.7041	-0.652
Mof_O 	O 	0.3432	0.8489	0.6568	-0.566
Mof_H 	H 	0.4115	0.0535	0.5885	-0.492
Mof_C 	C 	0.5497	0.8362	0.4503	-0.082
Mof_C 	C 	0.5497	0.9173	0.4503	0.17
Mof_H 	H 	0.5828	0.8091	0.4172	0.056
Mof_O 	O 	0.544	0.669	0.456	-0.618
Mof_O 	O 	0.5476	0.6743	0.5476	-0.557
Mof_C 	C 	0.4506	0.836	0.4506	-0.095
Mof_H 	H 	0.4175	0.8088	0.4175	0.061
Mof_C 	C 	0.4504	0.9168	0.4504	0.191
Mof_N 	N 	0.3995	0.9539	0.3995	0.435
Mof_H 	H 	0.4004	0.004	0.4004	-0.037
Mof_C 	C 	0.3461	0.9201	0.3461	0.231
Mof_C 	C 	0.25235	0.9129	0.25235	3.046
Mof_C 	C 	0.1969	0.9565	0.1969	-2.138
Mof_H 	H 	0.1673	0.9195	0.1673	0.501
Mof_O 	O 	0.2959	0.9671	0.2959	-0.699
Mof_O 	O 	0.3432	0.8489	0.3432	-0.586
Mof_N 	N 	0.4	0.0461	0.4	0.412
Mof_H 	H 	0.401	0.996	0.401	-0.047
Mof_C 	C 	0.3461	0.0799	0.3461	0.224
Mof_C 	C 	0.2524	0.0871	0.2524	2.881
Mof_C 	C 	0.1969	0.0435	0.1969	-2.014
Mof_O 	O 	0.2959	0.0329	0.2959	-0.652
Mof_O 	O 	0.3432	0.1511	0.3432	-0.566
Mof_H 	H 	0.4115	0.9465	0.4115	-0.492
Mof_C 	C 	0.5497	0.1638	0.5497	-0.082
Mof_C 	C 	0.5497	0.0827	0.5497	0.17
Mof_H 	H 	0.5828	0.1909	0.5828	0.056
Mof_O 	O 	0.544	0.331	0.544	-0.618
Mof_O 	O 	0.4524	0.6743	0.4524	-0.557
Mof_C 	C 	0.5494	0.836	0.5494	-0.095
Mof_H 	H 	0.5825	0.8088	0.5825	0.061
Mof_C 	C 	0.5496	0.9168	0.5496	0.191
Mof_N 	N 	0.6005	0.9539	0.6005	0.435
Mof_H 	H 	0.5996	0.004	0.5996	-0.037
Mof_C 	C 	0.6539	0.9201	0.6539	0.231
Mof_C 	C 	0.74765	0.9129	0.74765	3.046
Mof_C 	C 	0.8031	0.9565	0.8031	-2.138
Mof_H 	H 	0.8327	0.9195	0.8327	0.501
Mof_O 	O 	0.7041	0.9671	0.7041	-0.699
Mof_O 	O 	0.6568	0.8489	0.6568	-0.586
Mof_N 	N 	0.6	0.0461	0.6	0.412
Mof_H 	H 	0.599	0.996	0.599	-0.047
Mof_C 	C 	0.6539	0.0799	0.6539	0.224
Mof_C 	C 	0.7476	0.0871	0.7476	2.881
Mof_C 	C 	0.8031	0.0435	0.8031	-2.014
Mof_O 	O 	0.7041	0.0329	0.7041	-0.652
Mof_O 	O 	0.6568	0.1511	0.6568	-0.566
Mof_H 	H 	0.5885	0.9465	0.5885	-0.492
Mof_C 	C 	0.4503	0.1638	0.4503	-0.082
Mof_C 	C 	0.4503	0.0827	0.4503	0.17
Mof_H 	H 	0.4172	0.1909	0.4172	0.056
Mof_O 	O 	0.456	0.331	0.456	-0.618
Mof_O 	O 	0.4524	0.3257	0.5476	-0.557
Mof_C 	C 	0.5494	0.164	0.4506	-0.095
Mof_H 	H 	0.5825	0.1912	0.4175	0.061
Mof_C 	C 	0.5496	0.0832	0.4504	0.191
Mof_N 	N 	0.6005	0.0461	0.3995	0.435
Mof_H 	H 	0.5996	0.996	0.4004	-0.037
Mof_C 	C 	0.6539	0.0799	0.3461	0.231
Mof_C 	C 	0.74765	0.0871	0.25235	3.046
Mof_C 	C 	0.8031	0.0435	0.1969	-2.138
Mof_H 	H 	0.8327	0.0805	0.1673	0.501
Mof_O 	O 	0.7041	0.0329	0.2959	-0.699
Mof_O 	O 	0.6568	0.1511	0.3432	-0.586
Mof_N 	N 	0.6	0.9539	0.4	0.412
Mof_H 	H 	0.599	0.004	0.401	-0.047
Mof_C 	C 	0.6539	0.9201	0.3461	0.224
Mof_C 	C 	0.7476	0.9129	0.2524	2.881
Mof_C 	C 	0.8031	0.9565	0.1969	-2.014
Mof_O 	O 	0.7041	0.9671	0.2959	-0.652
Mof_O 	O 	0.6568	0.8489	0.3432	-0.566
Mof_H 	H 	0.5885	0.0535	0.4115	-0.492
Mof_C 	C 	0.4503	0.8362	0.5497	-0.082
Mof_C 	C 	0.4503	0.9173	0.5497	0.17
Mof_H 	H 	0.4172	0.8091	0.5828	0.056
Mof_O 	O 	0.456	0.669	0.544	-0.618
Mof_O 	O 	0.4524	0.5476	0.3257	-0.557
Mof_C 	C 	0.5494	0.4506	0.164	-0.095
Mof_H 	H 	0.5825	0.4175	0.1912	0.061
Mof_C 	C 	0.5496	0.4504	0.0832	0.191
Mof_N 	N 	0.6005	0.3995	0.0461	0.435
Mof_H 	H 	0.5996	0.4004	0.996	-0.037
Mof_C 	C 	0.6539	0.3461	0.0799	0.231
Mof_C 	C 	0.74765	0.25235	0.0871	3.046
Mof_C 	C 	0.8031	0.1969	0.0435	-2.138
Mof_H 	H 	0.8327	0.1673	0.0805	0.501
Mof_O 	O 	0.7041	0.2959	0.0329	-0.699
Mof_O 	O 	0.6568	0.3432	0.1511	-0.586
Mof_N 	N 	0.6	0.4	0.9539	0.412
Mof_H 	H 	0.599	0.401	0.004	-0.047
Mof_C 	C 	0.6539	0.3461	0.9201	0.224
Mof_C 	C 	0.7476	0.2524	0.9129	2.881
Mof_C 	C 	0.8031	0.1969	0.9565	-2.014
Mof_O 	O 	0.7041	0.2959	0.9671	-0.652
Mof_O 	O 	0.6568	0.3432	0.8489	-0.566
Mof_H 	H 	0.5885	0.4115	0.0535	-0.492
Mof_C 	C 	0.4503	0.5497	0.8362	-0.082
Mof_C 	C 	0.4503	0.5497	0.9173	0.17
Mof_H 	H 	0.4172	0.5828	0.8091	0.056
Mof_O 	O 	0.456	0.544	0.669	-0.618
Mof_O 	O 	0.5476	0.5476	0.6743	-0.557
Mof_C 	C 	0.4506	0.4506	0.836	-0.095
Mof_H 	H 	0.4175	0.4175	0.8088	0.061
Mof_C 	C 	0.4504	0.4504	0.9168	0.191
Mof_N 	N 	0.3995	0.3995	0.9539	0.435
Mof_H 	H 	0.4004	0.4004	0.004	-0.037
Mof_C 	C 	0.3461	0.3461	0.9201	0.231
Mof_C 	C 	0.25235	0.25235	0.9129	3.046
Mof_C 	C 	0.1969	0.1969	0.9565	-2.138
Mof_H 	H 	0.1673	0.1673	0.9195	0.501
Mof_O 	O 	0.2959	0.2959	0.9671	-0.699
Mof_O 	O 	0.3432	0.3432	0.8489	-0.586
Mof_N 	N 	0.4	0.4	0.0461	0.412
Mof_H 	H 	0.401	0.401	0.996	-0.047
Mof_C 	C 	0.3461	0.3461	0.0799	0.224
Mof_C 	C 	0.2524	0.2524	0.0871	2.881
Mof_C 	C 	0.1969	0.1969	0.0435	-2.014
Mof_O 	O 	0.2959	0.2959	0.0329	-0.652
Mof_O 	O 	0.3432	0.3432	0.1511	-0.566
Mof_H 	H 	0.4115	0.4115	0.9465	-0.492
Mof_C 	C 	0.5497	0.5497	0.1638	-0.082
Mof_C 	C 	0.5497	0.5497	0.0827	0.17
Mof_H 	H 	0.5828	0.5828	0.1909	0.056
Mof_O 	O 	0.544	0.544	0.331	-0.618
Mof_O 	O 	0.4524	0.4524	0.6743	-0.557
Mof_C 	C 	0.5494	0.5494	0.836	-0.095
Mof_H 	H 	0.5825	0.5825	0.8088	0.061
Mof_C 	C 	0.5496	0.5496	0.9168	0.191
Mof_N 	N 	0.6005	0.6005	0.9539	0.435
Mof_H 	H 	0.5996	0.5996	0.004	-0.037
Mof_C 	C 	0.6539	0.6539	0.9201	0.231
Mof_C 	C 	0.74765	0.74765	0.9129	3.046
Mof_C 	C 	0.8031	0.8031	0.9565	-2.138
Mof_H 	H 	0.8327	0.8327	0.9195	0.501
Mof_O 	O 	0.7041	0.7041	0.9671	-0.699
Mof_O 	O 	0.6568	0.6568	0.8489	-0.586
Mof_N 	N 	0.6	0.6	0.0461	0.412
Mof_H 	H 	0.599	0.599	0.996	-0.047
Mof_C 	C 	0.6539	0.6539	0.0799	0.224
Mof_C 	C 	0.7476	0.7476	0.0871	2.881
Mof_C 	C 	0.8031	0.8031	0.0435	-2.014
Mof_O 	O 	0.7041	0.7041	0.0329	-0.652
Mof_O 	O 	0.6568	0.6568	0.1511	-0.566
Mof_H 	H 	0.5885	0.5885	0.9465	-0.492
Mof_C 	C 	0.4503	0.4503	0.1638	-0.082
Mof_C 	C 	0.4503	0.4503	0.0827	0.17
Mof_H 	H 	0.4172	0.4172	0.1909	0.056
Mof_O 	O 	0.456	0.456	0.331	-0.618
Mof_O 	O 	0.5476	0.4524	0.3257	-0.557
Mof_C 	C 	0.4506	0.5494	0.164	-0.095
Mof_H 	H 	0.4175	0.5825	0.1912	0.061
Mof_C 	C 	0.4504	0.5496	0.0832	0.191
Mof_N 	N 	0.3995	0.6005	0.0461	0.435
Mof_H 	H 	0.4004	0.5996	0.996	-0.037
Mof_C 	C 	0.3461	0.6539	0.0799	0.231
Mof_C 	C 	0.25235	0.74765	0.0871	3.046
Mof_C 	C 	0.1969	0.8031	0.0435	-2.138
Mof_H 	H 	0.1673	0.8327	0.0805	0.501
Mof_O 	O 	0.2959	0.7041	0.0329	-0.699
Mof_O 	O 	0.3432	0.6568	0.1511	-0.586
Mof_N 	N 	0.4	0.6	0.9539	0.412
Mof_H 	H 	0.401	0.599	0.004	-0.047
Mof_C 	C 	0.3461	0.6539	0.9201	0.224
Mof_C 	C 	0.2524	0.7476	0.9129	2.881
Mof_C 	C 	0.1969	0.8031	0.9565	-2.014
Mof_O 	O 	0.2959	0.7041	0.9671	-0.652
Mof_O 	O 	0.3432	0.6568	0.8489	-0.566
Mof_H 	H 	0.4115	0.5885	0.0535	-0.492
Mof_C 	C 	0.5497	0.4503	0.8362	-0.082
Mof_C 	C 	0.5497	0.4503	0.9173	0.17
Mof_H 	H 	0.5828	0.4172	0.8091	0.056
Mof_O 	O 	0.544	0.456	0.669	-0.618
Mof_H 	H 	0.17535	0.82465	0.2761	3.632
Mof_H 	H 	0.82465	0.17535	0.2761	3.632
Mof_H 	H 	0.82465	0.82465	0.7239	3.632
Mof_H 	H 	0.17535	0.17535	0.7239	3.632
Mof_H 	H 	0.2761	0.17535	0.82465	3.632
Mof_H 	H 	0.2761	0.82465	0.17535	3.632
Mof_H 	H 	0.7239	0.82465	0.82465	3.632
Mof_H 	H 	0.7239	0.17535	0.17535	3.632
Mof_H 	H 	0.82465	0.2761	0.17535	3.632
Mof_H 	H 	0.17535	0.2761	0.82465	3.632
Mof_H 	H 	0.82465	0.7239	0.82465	3.632
Mof_H 	H 	0.17535	0.7239	0.17535	3.632
Mof_H 	H 	0.0535	0.4115	0.4115	-0.467
Mof_H 	H 	0.9465	0.5885	0.4115	-0.467
Mof_H 	H 	0.9465	0.4115	0.5885	-0.467
Mof_H 	H 	0.0535	0.5885	0.5885	-0.467
Mof_H 	H 	0.4115	0.0535	0.4115	-0.467
Mof_H 	H 	0.4115	0.9465	0.5885	-0.467
Mof_H 	H 	0.5885	0.9465	0.4115	-0.467
Mof_H 	H 	0.5885	0.0535	0.5885	-0.467
Mof_H 	H 	0.4115	0.4115	0.0535	-0.467
Mof_H 	H 	0.5885	0.4115	0.9465	-0.467
Mof_H 	H 	0.4115	0.5885	0.9465	-0.467
Mof_H 	H 	0.5885	0.5885	0.0535	-0.467
Mof_H 	H 	0.8247	0.725	0.1753	3.368
Mof_H 	H 	0.1753	0.275	0.1753	3.368
Mof_H 	H 	0.1753	0.725	0.8247	3.368
Mof_H 	H 	0.8247	0.275	0.8247	3.368
Mof_H 	H 	0.1753	0.8247	0.725	3.368
Mof_H 	H 	0.1753	0.1753	0.275	3.368
Mof_H 	H 	0.8247	0.1753	0.725	3.368
Mof_H 	H 	0.8247	0.8247	0.275	3.368
Mof_H 	H 	0.725	0.1753	0.8247	3.368
Mof_H 	H 	0.275	0.1753	0.1753	3.368
Mof_H 	H 	0.725	0.8247	0.1753	3.368
Mof_H 	H 	0.275	0.8247	0.8247	3.368
Mof_Zn	Zn	0.4366	0.4366	0.4366	1.138
Mof_Zn	Zn	0.5634	0.5634	0.4366	1.138
Mof_Zn	Zn	0.5634	0.4366	0.5634	1.138
Mof_Zn	Zn	0.4366	0.5634	0.5634	1.138
_end
