data_functionalizedCrystal
_audit_creation_method	'EQeq! by Chris Wilmer'
_symmetry_space_group_name_H-M	'P1'
_symmetry_Int_Tables_number	1
_symmetry_cell_setting	triclinic
loop_
_symmetry_equiv_pos_as_xyz
  x,y,z
_cell_length_a	18.5696
_cell_length_b	18.5696
_cell_length_c	12.0128
_cell_angle_alpha	90
_cell_angle_beta	90
_cell_angle_gamma	120
loop_
_atom_site_label
_atom_site_type_symbol
_atom_site_fract_x
_atom_site_fract_y
_atom_site_fract_z
_atom_site_charge
Mof_C 	C 	0.0634	0.9865	0.3865	0.158
Mof_H 	H 	0.1066	0.0341	0.4226	-0.002
Mof_C 	C 	0.0643	0.9118	0.3874	-0.208
Mof_C 	C 	0.1293	0.9035	0.4484	0.47
Mof_C 	C 	0.1137	0.3986	0.3577	0.371
Mof_C 	C 	0.0745	0.4326	0.4346	0.067
Mof_C 	C 	0.1107	0.5199	0.432	-0.109
Mof_H 	H 	0.1561	0.5525	0.3838	0.125
Mof_C 	C 	0.0795	0.5572	0.5	0.606
Mof_C 	C 	0.1188	0.65	0.5035	-0.072
Mof_C 	C 	0.0118	0.5113	0.567	-0.162
Mof_H 	H 	0.9903	0.5386	0.6116	-0.45
Mof_C 	C 	0.9744	0.4245	0.571	0.109
Mof_C 	C 	0.8995	0.3748	0.6411	0.238
Mof_C 	C 	0.0087	0.3873	0.503	-0.015
Mof_H 	H 	0.985	0.3286	0.5057	-0.037
Mof_O 	O 	0.1793	0.6927	0.436	0.063
Mof_O 	O 	0.0953	0.6856	0.5689	8.635
Mof_O 	O 	0.8715	0.4122	0.7012	-0.07
Mof_O 	O 	0.8628	0.2958	0.636	-0.081
Mof_C 	C 	0.0835	0.4394	0.4399	-0.024
Mof_C 	C 	0.1159	0.5259	0.447	-0.144
Mof_H 	H 	0.1597	0.5624	0.3994	0.062
Mof_C 	C 	0.084	0.5578	0.524	0.065
Mof_C 	C 	0.1201	0.6504	0.535	-1.658
Mof_C 	C 	0.0188	0.5056	0.593	-0.098
Mof_H 	H 	0.9964	0.5285	0.6439	0.779
Mof_C 	C 	0.9855	0.4196	0.588	0.001
Mof_C 	C 	0.9149	0.3627	0.6611	-0.045
Mof_C 	C 	0.021	0.3883	0.51	-0.089
Mof_H 	H 	0.0007	0.3301	0.5077	0.102
Mof_O 	O 	0.176	0.6949	0.46	-0.192
Mof_O 	O 	0.1036	0.6824	0.612	-7.899
Mof_O 	O 	0.899	0.3931	0.7459	0.004
Mof_O 	O 	0.8755	0.2848	0.641	-0.218
Mof_Co	Co	0.21128	0.80887	0.48647	1.097
Mof_O 	O 	0.9342	0.073	0.3089	-0.295
Mof_O 	O 	0.0917	0.3226	0.3669	-0.382
Mof_O 	O 	0.1621	0.4447	0.285	-0.297
Mof_O 	O 	0.1233	0.8328	0.4444	-0.664
Mof_O 	O 	0.1864	0.9662	0.4961	-0.411
Mof_C 	C 	0.0135	0.0769	0.05317	-0.002
Mof_H 	H 	0.9659	0.0725	0.08927	0.099
Mof_C 	C 	0.0882	0.1525	0.05407	-0.151
Mof_C 	C 	0.0965	0.2258	0.11507	0.446
Mof_C 	C 	0.6014	0.7151	0.02437	0.317
Mof_C 	C 	0.5674	0.6419	0.10127	0.069
Mof_C 	C 	0.4801	0.5908	0.09867	-0.103
Mof_H 	H 	0.4475	0.6036	0.05047	0.126
Mof_C 	C 	0.4428	0.5223	0.16667	0.597
Mof_C 	C 	0.35	0.4688	0.17017	-0.072
Mof_C 	C 	0.4887	0.5005	0.23367	-0.117
Mof_H 	H 	0.4614	0.4517	0.27827	-0.515
Mof_C 	C 	0.5755	0.5499	0.23767	0.07
Mof_C 	C 	0.6252	0.5247	0.30777	0.242
Mof_C 	C 	0.6127	0.6214	0.16967	0.026
Mof_H 	H 	0.6714	0.6564	0.17237	0.079
Mof_O 	O 	0.3073	0.4866	0.10267	0.066
Mof_O 	O 	0.3144	0.4097	0.23557	8.778
Mof_O 	O 	0.5878	0.4593	0.36787	-0.075
Mof_O 	O 	0.7042	0.567	0.30267	-0.087
Mof_C 	C 	0.5606	0.6441	0.10657	-0.027
Mof_C 	C 	0.4741	0.59	0.11367	-0.145
Mof_H 	H 	0.4376	0.5973	0.06607	0.052
Mof_C 	C 	0.4422	0.5262	0.19067	0.059
Mof_C 	C 	0.3496	0.4697	0.20167	-1.681
Mof_C 	C 	0.4944	0.5132	0.25967	-0.053
Mof_H 	H 	0.4715	0.4679	0.31057	0.79
Mof_C 	C 	0.5804	0.5659	0.25467	-0.047
Mof_C 	C 	0.6373	0.5522	0.32777	-0.035
Mof_C 	C 	0.6117	0.6327	0.17667	-0.071
Mof_H 	H 	0.6699	0.6706	0.17437	-0.035
Mof_O 	O 	0.3051	0.4811	0.12667	-0.201
Mof_O 	O 	0.3176	0.4212	0.27867	-8.027
Mof_O 	O 	0.6069	0.5059	0.41257	-0.012
Mof_O 	O 	0.7152	0.5907	0.30767	-0.222
Mof_Co	Co	0.19113	0.40241	0.15314	1.09
Mof_O 	O 	0.927	0.8612	0.97557	-0.273
Mof_O 	O 	0.6774	0.7691	0.03357	-0.371
Mof_O 	O 	0.5553	0.7174	0.95167	-0.23
Mof_O 	O 	0.1672	0.2905	0.11107	-0.668
Mof_O 	O 	0.0338	0.2202	0.16277	-0.443
Mof_C 	C 	0.9231	0.9366	0.71983	0.124
Mof_H 	H 	0.9275	0.8934	0.75593	0.054
Mof_C 	C 	0.8475	0.9357	0.72073	-0.159
Mof_C 	C 	0.7742	0.8707	0.78173	0.469
Mof_C 	C 	0.2849	0.8863	0.69103	0.394
Mof_C 	C 	0.3581	0.9255	0.76793	0.063
Mof_C 	C 	0.4092	0.8893	0.76533	-0.1
Mof_H 	H 	0.3964	0.8439	0.71713	0.126
Mof_C 	C 	0.4777	0.9205	0.83333	0.612
Mof_C 	C 	0.5312	0.8812	0.83683	-0.087
Mof_C 	C 	0.4995	0.9882	0.90033	-0.062
Mof_H 	H 	0.5483	0.0097	0.94493	-0.602
Mof_C 	C 	0.4501	0.0256	0.90433	0.018
Mof_C 	C 	0.4753	0.1005	0.97443	0.257
Mof_C 	C 	0.3786	0.9913	0.83633	0.079
Mof_H 	H 	0.3436	0.015	0.83903	0.214
Mof_O 	O 	0.5134	0.8207	0.76933	0.085
Mof_O 	O 	0.5903	0.9047	0.90223	9.377
Mof_O 	O 	0.5407	0.1285	0.03453	-0.094
Mof_O 	O 	0.433	0.1372	0.96933	-0.091
Mof_C 	C 	0.3559	0.9165	0.77323	-0.036
Mof_C 	C 	0.41	0.8841	0.78033	-0.133
Mof_H 	H 	0.4027	0.8403	0.73273	0.064
Mof_C 	C 	0.4738	0.916	0.85733	0.067
Mof_C 	C 	0.5303	0.8799	0.86833	-1.782
Mof_C 	C 	0.4868	0.9812	0.92633	0.01
Mof_H 	H 	0.5321	0.0036	0.97723	0.837
Mof_C 	C 	0.4341	0.0145	0.92133	-0.096
Mof_C 	C 	0.4478	0.0851	0.99443	0.015
Mof_C 	C 	0.3673	0.979	0.84333	-0.033
Mof_H 	H 	0.3294	0.9993	0.84103	-0.192
Mof_O 	O 	0.5189	0.824	0.79333	-0.193
Mof_O 	O 	0.5788	0.8964	0.94533	-8.534
Mof_O 	O 	0.4941	0.101	0.07923	-0.057
Mof_O 	O 	0.4093	0.1245	0.97433	-0.231
Mof_Co	Co	0.59759	0.78872	0.8198	1.091
Mof_O 	O 	0.1388	0.0658	0.64223	-0.321
Mof_O 	O 	0.2309	0.9083	0.70023	-0.357
Mof_O 	O 	0.2826	0.8379	0.61833	-0.292
Mof_O 	O 	0.7095	0.8767	0.77773	-0.661
Mof_O 	O 	0.7798	0.8136	0.82943	-0.414
Mof_C 	C 	0.9865	0.0634	0.6135	0.159
Mof_H 	H 	0.0341	0.1066	0.5774	0.003
Mof_C 	C 	0.9118	0.0643	0.6126	-0.203
Mof_C 	C 	0.9035	0.1293	0.5516	0.471
Mof_C 	C 	0.3986	0.1137	0.6423	0.369
Mof_C 	C 	0.4326	0.0745	0.5654	0.065
Mof_C 	C 	0.5199	0.1107	0.568	-0.108
Mof_H 	H 	0.5525	0.1561	0.6162	0.123
Mof_C 	C 	0.5572	0.0795	0.5	0.589
Mof_C 	C 	0.65	0.1188	0.4965	-0.068
Mof_C 	C 	0.5113	0.0118	0.433	-0.162
Mof_H 	H 	0.5386	0.9903	0.3884	-0.43
Mof_C 	C 	0.4245	0.9744	0.429	0.104
Mof_C 	C 	0.3748	0.8995	0.3589	0.231
Mof_C 	C 	0.3873	0.0087	0.497	-0.02
Mof_H 	H 	0.3286	0.985	0.4943	-0.047
Mof_O 	O 	0.6927	0.1793	0.564	0.053
Mof_O 	O 	0.6856	0.0953	0.4311	8.388
Mof_O 	O 	0.4122	0.8715	0.2988	-0.062
Mof_O 	O 	0.2958	0.8628	0.364	-0.091
Mof_C 	C 	0.4394	0.0835	0.5601	-0.025
Mof_C 	C 	0.5259	0.1159	0.553	-0.142
Mof_H 	H 	0.5624	0.1597	0.6006	0.061
Mof_C 	C 	0.5578	0.084	0.476	0.061
Mof_C 	C 	0.6504	0.1201	0.465	-1.612
Mof_C 	C 	0.5056	0.0188	0.407	-0.1
Mof_H 	H 	0.5285	0.9964	0.3561	0.755
Mof_C 	C 	0.4196	0.9855	0.412	0.005
Mof_C 	C 	0.3627	0.9149	0.3389	-0.038
Mof_C 	C 	0.3883	0.021	0.49	-0.089
Mof_H 	H 	0.3301	0.0007	0.4923	0.111
Mof_O 	O 	0.6949	0.176	0.54	-0.189
Mof_O 	O 	0.6824	0.1036	0.388	-7.685
Mof_O 	O 	0.3931	0.899	0.2541	-0.013
Mof_O 	O 	0.2848	0.8755	0.359	-0.214
Mof_Co	Co	0.80887	0.21128	0.51353	1.099
Mof_O 	O 	0.073	0.9342	0.6911	-0.288
Mof_O 	O 	0.3226	0.0917	0.6331	-0.386
Mof_O 	O 	0.4447	0.1621	0.715	-0.303
Mof_O 	O 	0.8328	0.1233	0.5556	-0.658
Mof_O 	O 	0.9662	0.1864	0.5039	-0.409
Mof_C 	C 	0.0769	0.0135	0.94683	0.028
Mof_H 	H 	0.0725	0.9659	0.91073	0.104
Mof_C 	C 	0.1525	0.0882	0.94593	-0.11
Mof_C 	C 	0.2258	0.0965	0.88493	0.439
Mof_C 	C 	0.7151	0.6014	0.97563	0.441
Mof_C 	C 	0.6419	0.5674	0.89873	0.056
Mof_C 	C 	0.5908	0.4801	0.90133	-0.099
Mof_H 	H 	0.6036	0.4475	0.94953	0.118
Mof_C 	C 	0.5223	0.4428	0.83333	0.565
Mof_C 	C 	0.4688	0.35	0.82983	-0.069
Mof_C 	C 	0.5005	0.4887	0.76633	-0.111
Mof_H 	H 	0.4517	0.4614	0.72173	-0.467
Mof_C 	C 	0.5499	0.5755	0.76233	0.061
Mof_C 	C 	0.5247	0.6252	0.69223	0.237
Mof_C 	C 	0.6214	0.6127	0.83033	0.025
Mof_H 	H 	0.6564	0.6714	0.82763	0.073
Mof_O 	O 	0.4866	0.3073	0.89733	0.049
Mof_O 	O 	0.4097	0.3144	0.76443	8.367
Mof_O 	O 	0.4593	0.5878	0.63213	-0.061
Mof_O 	O 	0.567	0.7042	0.69733	-0.092
Mof_C 	C 	0.6441	0.5606	0.89343	-0.032
Mof_C 	C 	0.59	0.4741	0.88633	-0.122
Mof_H 	H 	0.5973	0.4376	0.93393	0.071
Mof_C 	C 	0.5262	0.4422	0.80933	0.064
Mof_C 	C 	0.4697	0.3496	0.79833	-1.593
Mof_C 	C 	0.5132	0.4944	0.74033	-0.048
Mof_H 	H 	0.4679	0.4715	0.68943	0.74
Mof_C 	C 	0.5659	0.5804	0.74533	-0.036
Mof_C 	C 	0.5522	0.6373	0.67223	-0.025
Mof_C 	C 	0.6327	0.6117	0.82333	-0.055
Mof_H 	H 	0.6706	0.6699	0.82563	-0.028
Mof_O 	O 	0.4811	0.3051	0.87333	-0.176
Mof_O 	O 	0.4212	0.3176	0.72133	-7.657
Mof_O 	O 	0.5059	0.6069	0.58743	-0.016
Mof_O 	O 	0.5907	0.7152	0.69233	-0.219
Mof_Co	Co	0.40241	0.19113	0.84686	1.098
Mof_O 	O 	0.8612	0.927	0.02443	-0.33
Mof_O 	O 	0.7691	0.6774	0.96643	-0.366
Mof_O 	O 	0.7174	0.5553	0.04833	-0.356
Mof_O 	O 	0.2905	0.1672	0.88893	-0.639
Mof_O 	O 	0.2202	0.0338	0.83723	-0.434
Mof_C 	C 	0.9366	0.9231	0.28017	0.113
Mof_H 	H 	0.8934	0.9275	0.24407	0.053
Mof_C 	C 	0.9357	0.8475	0.27927	-0.162
Mof_C 	C 	0.8707	0.7742	0.21827	0.454
Mof_C 	C 	0.8863	0.2849	0.30897	0.392
Mof_C 	C 	0.9255	0.3581	0.23207	0.05
Mof_C 	C 	0.8893	0.4092	0.23467	-0.087
Mof_H 	H 	0.8439	0.3964	0.28287	0.113
Mof_C 	C 	0.9205	0.4777	0.16667	0.52
Mof_C 	C 	0.8812	0.5312	0.16317	-0.06
Mof_C 	C 	0.9882	0.4995	0.09967	-0.055
Mof_H 	H 	0.0097	0.5483	0.05507	-0.489
Mof_C 	C 	0.0256	0.4501	0.09567	0.018
Mof_C 	C 	0.1005	0.4753	0.02557	0.225
Mof_C 	C 	0.9913	0.3786	0.16367	0.065
Mof_H 	H 	0.015	0.3436	0.16097	0.192
Mof_O 	O 	0.8207	0.5134	0.23067	0.033
Mof_O 	O 	0.9047	0.5903	0.09777	8.018
Mof_O 	O 	0.1285	0.5407	0.96547	-0.034
Mof_O 	O 	0.1372	0.433	0.03067	-0.11
Mof_C 	C 	0.9165	0.3559	0.22677	-0.037
Mof_C 	C 	0.8841	0.41	0.21967	-0.115
Mof_H 	H 	0.8403	0.4027	0.26727	0.061
Mof_C 	C 	0.916	0.4738	0.14267	0.054
Mof_C 	C 	0.8799	0.5303	0.13167	-1.518
Mof_C 	C 	0.9812	0.4868	0.07367	-0.004
Mof_H 	H 	0.0036	0.5321	0.02277	0.687
Mof_C 	C 	0.0145	0.4341	0.07867	-0.082
Mof_C 	C 	0.0851	0.4478	0.00557	-0.05
Mof_C 	C 	0.979	0.3673	0.15667	-0.032
Mof_H 	H 	0.9993	0.3294	0.15897	-0.171
Mof_O 	O 	0.824	0.5189	0.20667	-0.176
Mof_O 	O 	0.8964	0.5788	0.05467	-7.355
Mof_O 	O 	0.101	0.4941	0.92077	0.003
Mof_O 	O 	0.1245	0.4093	0.02567	-0.216
Mof_Co	Co	0.78872	0.59759	0.1802	1.1
Mof_O 	O 	0.0658	0.1388	0.35777	-0.323
Mof_O 	O 	0.9083	0.2309	0.29977	-0.366
Mof_O 	O 	0.8379	0.2826	0.38167	-0.3
Mof_O 	O 	0.8767	0.7095	0.22227	-0.64
Mof_O 	O 	0.8136	0.7798	0.17057	-0.429
Mof_C 	C 	5.2831e-18	0.0721	0.33333	0.216
Mof_C 	C 	-8.97886e-17	0.9917	0.33333	-0.115
Mof_C 	C 	-2.64075e-17	0.8424	0.33333	0.107
Mof_H 	H 	-2.64075e-17	0.7913	0.33333	-0.061
Mof_Co	Co	-1.05622e-17	0.20515	0.33333	1.184
Mof_C 	C 	0.9279	0.9279	-0	0.28
Mof_C 	C 	0.0083	0.0083	-0	-0.154
Mof_C 	C 	0.1576	0.1576	-0	0.047
Mof_H 	H 	0.2087	0.2087	-0	-0.05
Mof_Co	Co	0.79485	0.79485	-0	1.181
Mof_C 	C 	0.0721	0	0.66667	0.214
Mof_C 	C 	0.9917	0	0.66667	-0.117
Mof_C 	C 	0.8424	0	0.66667	0.108
Mof_H 	H 	0.7913	0	0.66667	-0.065
Mof_Co	Co	0.20515	0	0.66667	1.183
_end
