data_functionalizedCrystal
_audit_creation_method	'EQeq! by Chris Wilmer'
_symmetry_space_group_name_H-M	'P1'
_symmetry_Int_Tables_number	1
_symmetry_cell_setting	triclinic
loop_
_symmetry_equiv_pos_as_xyz
  x,y,z
_cell_length_a	12.413
_cell_length_b	12.413
_cell_length_c	23.03
_cell_angle_alpha	90
_cell_angle_beta	90
_cell_angle_gamma	90
loop_
_atom_site_label
_atom_site_type_symbol
_atom_site_fract_x
_atom_site_fract_y
_atom_site_fract_z
_atom_site_charge
Mof_C 	C 	0.085	0.9729	0.8737	0.048
Mof_C 	C 	0.0873	0.9723	0.814	-0.074
Mof_H 	H 	0.1487	0.9529	0.8939	0.014
Mof_H 	H 	0.1517	0.9516	0.7947	0.051
Mof_C 	C 	0.585	0.4729	0.3737	0.044
Mof_C 	C 	0.5873	0.4723	0.314	-0.088
Mof_H 	H 	0.6487	0.4529	0.3939	0.009
Mof_H 	H 	0.6517	0.4516	0.2947	0.052
Mof_C 	C 	0.915	0.0271	0.8737	0.047
Mof_C 	C 	0.9127	0.0277	0.814	-0.075
Mof_H 	H 	0.8513	0.0471	0.8939	0.01
Mof_H 	H 	0.8483	0.0484	0.7947	0.047
Mof_C 	C 	0.415	0.5271	0.3737	0.044
Mof_C 	C 	0.4127	0.5277	0.314	-0.088
Mof_H 	H 	0.3513	0.5471	0.3939	0.009
Mof_H 	H 	0.3483	0.5484	0.2947	0.051
Mof_C 	C 	0.0271	0.085	0.8737	0.031
Mof_C 	C 	0.0277	0.0873	0.814	-0.087
Mof_H 	H 	0.0471	0.1487	0.8939	0.013
Mof_H 	H 	0.0484	0.1517	0.7947	0.049
Mof_C 	C 	0.5271	0.585	0.3737	0.044
Mof_C 	C 	0.5277	0.5873	0.314	-0.088
Mof_H 	H 	0.5471	0.6487	0.3939	0.01
Mof_H 	H 	0.5484	0.6517	0.2947	0.052
Mof_C 	C 	0.9729	0.915	0.8737	0.055
Mof_C 	C 	0.9723	0.9127	0.814	-0.064
Mof_H 	H 	0.9529	0.8513	0.8939	0.013
Mof_H 	H 	0.9516	0.8483	0.7947	0.049
Mof_C 	C 	0.4729	0.415	0.3737	0.044
Mof_C 	C 	0.4723	0.4127	0.314	-0.088
Mof_H 	H 	0.4529	0.3513	0.3939	0.009
Mof_H 	H 	0.4516	0.3483	0.2947	0.051
Mof_C 	C 	0.915	0.9729	0.6263	0.056
Mof_C 	C 	0.9127	0.9723	0.686	-0.065
Mof_H 	H 	0.8513	0.9529	0.6061	0.01
Mof_H 	H 	0.8483	0.9516	0.7053	0.049
Mof_C 	C 	0.415	0.4729	0.1263	0.044
Mof_C 	C 	0.4127	0.4723	0.186	-0.088
Mof_H 	H 	0.3513	0.4529	0.1061	0.009
Mof_H 	H 	0.3483	0.4516	0.2053	0.05
Mof_C 	C 	0.085	0.0271	0.6263	0.031
Mof_C 	C 	0.0873	0.0277	0.686	-0.088
Mof_H 	H 	0.1487	0.0471	0.6061	0.011
Mof_H 	H 	0.1517	0.0484	0.7053	0.049
Mof_C 	C 	0.585	0.5271	0.1263	0.044
Mof_C 	C 	0.5873	0.5277	0.186	-0.088
Mof_H 	H 	0.6487	0.5471	0.1061	0.01
Mof_H 	H 	0.6517	0.5484	0.2053	0.052
Mof_C 	C 	0.9729	0.085	0.6263	0.048
Mof_C 	C 	0.9723	0.0873	0.686	-0.075
Mof_H 	H 	0.9529	0.1487	0.6061	0.011
Mof_H 	H 	0.9516	0.1517	0.7053	0.051
Mof_C 	C 	0.4729	0.585	0.1263	0.044
Mof_C 	C 	0.4723	0.5873	0.186	-0.088
Mof_H 	H 	0.4529	0.6487	0.1061	0.01
Mof_H 	H 	0.4516	0.6517	0.2053	0.052
Mof_C 	C 	0.0271	0.915	0.6263	0.048
Mof_C 	C 	0.0277	0.9127	0.686	-0.076
Mof_H 	H 	0.0471	0.8513	0.6061	0.008
Mof_H 	H 	0.0484	0.8483	0.7053	0.047
Mof_C 	C 	0.5271	0.415	0.1263	0.044
Mof_C 	C 	0.5277	0.4127	0.186	-0.088
Mof_H 	H 	0.5471	0.3513	0.1061	0.009
Mof_H 	H 	0.5484	0.3483	0.2053	0.051
Mof_C 	C 	0.915	0.0271	0.1263	0.048
Mof_C 	C 	0.9127	0.0277	0.186	-0.075
Mof_H 	H 	0.8513	0.0471	0.1061	0.008
Mof_H 	H 	0.8483	0.0484	0.2053	0.047
Mof_C 	C 	0.415	0.5271	0.6263	0.044
Mof_C 	C 	0.4127	0.5277	0.686	-0.088
Mof_H 	H 	0.3513	0.5471	0.6061	0.009
Mof_H 	H 	0.3483	0.5484	0.7053	0.051
Mof_C 	C 	0.085	0.9729	0.1263	0.048
Mof_C 	C 	0.0873	0.9723	0.186	-0.073
Mof_H 	H 	0.1487	0.9529	0.1061	0.011
Mof_H 	H 	0.1517	0.9516	0.2053	0.051
Mof_C 	C 	0.585	0.4729	0.6263	0.044
Mof_C 	C 	0.5873	0.4723	0.686	-0.088
Mof_H 	H 	0.6487	0.4529	0.6061	0.009
Mof_H 	H 	0.6517	0.4516	0.7053	0.052
Mof_C 	C 	0.9729	0.915	0.1263	0.056
Mof_C 	C 	0.9723	0.9127	0.186	-0.064
Mof_H 	H 	0.9529	0.8513	0.1061	0.011
Mof_H 	H 	0.9516	0.8483	0.2053	0.049
Mof_C 	C 	0.4729	0.415	0.6263	0.044
Mof_C 	C 	0.4723	0.4127	0.686	-0.088
Mof_H 	H 	0.4529	0.3513	0.6061	0.009
Mof_H 	H 	0.4516	0.3483	0.7053	0.051
Mof_C 	C 	0.0271	0.085	0.1263	0.03
Mof_C 	C 	0.0277	0.0873	0.186	-0.087
Mof_H 	H 	0.0471	0.1487	0.1061	0.011
Mof_H 	H 	0.0484	0.1517	0.2053	0.048
Mof_C 	C 	0.5271	0.585	0.6263	0.045
Mof_C 	C 	0.5277	0.5873	0.686	-0.088
Mof_H 	H 	0.5471	0.6487	0.6061	0.01
Mof_H 	H 	0.5484	0.6517	0.7053	0.053
Mof_C 	C 	0.085	0.0271	0.3737	0.03
Mof_C 	C 	0.0873	0.0277	0.314	-0.087
Mof_H 	H 	0.1487	0.0471	0.3939	0.011
Mof_H 	H 	0.1517	0.0484	0.2947	0.048
Mof_C 	C 	0.585	0.5271	0.8737	0.044
Mof_C 	C 	0.5873	0.5277	0.814	-0.087
Mof_H 	H 	0.6487	0.5471	0.8939	0.012
Mof_H 	H 	0.6517	0.5484	0.7947	0.053
Mof_C 	C 	0.915	0.9729	0.3737	0.056
Mof_C 	C 	0.9127	0.9723	0.314	-0.064
Mof_H 	H 	0.8513	0.9529	0.3939	0.01
Mof_H 	H 	0.8483	0.9516	0.2947	0.049
Mof_C 	C 	0.415	0.4729	0.8737	0.044
Mof_C 	C 	0.4127	0.4723	0.814	-0.087
Mof_H 	H 	0.3513	0.4529	0.8939	0.011
Mof_H 	H 	0.3483	0.4516	0.7947	0.051
Mof_C 	C 	0.0271	0.915	0.3737	0.048
Mof_C 	C 	0.0277	0.9127	0.314	-0.075
Mof_H 	H 	0.0471	0.8513	0.3939	0.008
Mof_H 	H 	0.0484	0.8483	0.2947	0.047
Mof_C 	C 	0.5271	0.415	0.8737	0.044
Mof_C 	C 	0.5277	0.4127	0.814	-0.087
Mof_H 	H 	0.5471	0.3513	0.8939	0.012
Mof_H 	H 	0.5484	0.3483	0.7947	0.051
Mof_C 	C 	0.9729	0.085	0.3737	0.048
Mof_C 	C 	0.9723	0.0873	0.314	-0.074
Mof_H 	H 	0.9529	0.1487	0.3939	0.011
Mof_H 	H 	0.9516	0.1517	0.2947	0.051
Mof_C 	C 	0.4729	0.585	0.8737	0.044
Mof_C 	C 	0.4723	0.5873	0.814	-0.087
Mof_H 	H 	0.4529	0.6487	0.8939	0.012
Mof_H 	H 	0.4516	0.6517	0.7947	0.052
Mof_Fe	Fe	-0	0	-0	0.624
Mof_Fe	Fe	0.5	0.5	0.5	0.656
Mof_Fe	Fe	1.0592e-32	7.11382e-33	0.5	0.63
Mof_Fe	Fe	0.5	0.5	-0	0.652
Mof_N 	N 	0.10029	0.86004	-0	-0.196
Mof_C 	C 	0.1353	0.7733	-0	0.104
Mof_C 	C 	0.9723	0.6052	-0	-0.021
Mof_H 	H 	0.9508	0.6787	-0	0.041
Mof_N 	N 	0.60029	0.36004	0.5	-0.2
Mof_C 	C 	0.6353	0.2733	0.5	0.108
Mof_C 	C 	0.4723	0.1052	0.5	-0.034
Mof_H 	H 	0.4508	0.1787	0.5	0.042
Mof_N 	N 	0.89971	0.13996	-0	-0.198
Mof_C 	C 	0.8647	0.2267	-0	0.12
Mof_C 	C 	0.0277	0.3948	-0	-0.121
Mof_H 	H 	0.0492	0.3213	-0	0.067
Mof_N 	N 	0.39971	0.63996	0.5	-0.203
Mof_C 	C 	0.3647	0.7267	0.5	0.119
Mof_C 	C 	0.5277	0.8948	0.5	-0.106
Mof_H 	H 	0.5492	0.8213	0.5	0.067
Mof_N 	N 	0.13996	0.10029	-0	-0.201
Mof_C 	C 	0.2267	0.1353	-0	0.102
Mof_C 	C 	0.3948	0.9723	-0	-0.02
Mof_H 	H 	0.3213	0.9508	-0	0.041
Mof_N 	N 	0.63996	0.60029	0.5	-0.203
Mof_C 	C 	0.7267	0.6353	0.5	0.119
Mof_C 	C 	0.8948	0.4723	0.5	-0.107
Mof_H 	H 	0.8213	0.4508	0.5	0.067
Mof_N 	N 	0.86004	0.89971	-0	-0.194
Mof_C 	C 	0.7733	0.8647	-0	0.12
Mof_C 	C 	0.6052	0.0277	-0	-0.121
Mof_H 	H 	0.6787	0.0492	-0	0.068
Mof_N 	N 	0.36004	0.39971	0.5	-0.2
Mof_C 	C 	0.2733	0.3647	0.5	0.108
Mof_C 	C 	0.1052	0.5277	0.5	-0.034
Mof_H 	H 	0.1787	0.5492	0.5	0.042
Mof_N 	N 	0.89971	0.86004	0.5	-0.194
Mof_C 	C 	0.8647	0.7733	0.5	0.121
Mof_C 	C 	0.0277	0.6052	0.5	-0.118
Mof_H 	H 	0.0492	0.6787	0.5	0.068
Mof_N 	N 	0.39971	0.36004	-0	-0.2
Mof_C 	C 	0.3647	0.2733	-0	0.106
Mof_C 	C 	0.5277	0.1052	-0	-0.032
Mof_H 	H 	0.5492	0.1787	-0	0.041
Mof_N 	N 	0.10029	0.13996	0.5	-0.2
Mof_C 	C 	0.1353	0.2267	0.5	0.104
Mof_C 	C 	0.9723	0.3948	0.5	-0.022
Mof_H 	H 	0.9508	0.3213	0.5	0.042
Mof_N 	N 	0.60029	0.63996	-0	-0.204
Mof_C 	C 	0.6353	0.7267	-0	0.118
Mof_C 	C 	0.4723	0.8948	-0	-0.109
Mof_H 	H 	0.4508	0.8213	-0	0.067
Mof_N 	N 	0.86004	0.10029	0.5	-0.196
Mof_C 	C 	0.7733	0.1353	0.5	0.105
Mof_C 	C 	0.6052	0.9723	0.5	-0.023
Mof_H 	H 	0.6787	0.9508	0.5	0.042
Mof_N 	N 	0.36004	0.60029	-0	-0.2
Mof_C 	C 	0.2733	0.6353	-0	0.107
Mof_C 	C 	0.1052	0.4723	-0	-0.033
Mof_H 	H 	0.1787	0.4508	-0	0.041
Mof_N 	N 	0.13996	0.89971	0.5	-0.198
Mof_C 	C 	0.2267	0.8647	0.5	0.121
Mof_C 	C 	0.3948	0.0277	0.5	-0.118
Mof_H 	H 	0.3213	0.0492	0.5	0.067
Mof_N 	N 	0.63996	0.39971	-0	-0.203
Mof_C 	C 	0.7267	0.3647	-0	0.118
Mof_C 	C 	0.8948	0.5277	-0	-0.108
Mof_H 	H 	0.8213	0.5492	-0	0.067
Mof_N 	N 	6.28809e-33	0	0.90394	-0.204
Mof_C 	C 	1.96689e-32	1.42276e-32	0.7822	0.038
Mof_N 	N 	0.5	0.5	0.40394	-0.194
Mof_C 	C 	0.5	0.5	0.2822	0.07
Mof_N 	N 	4.14638e-33	0	0.59606	-0.207
Mof_C 	C 	4.99324e-33	0	0.7178	0.039
Mof_N 	N 	0.5	0.5	0.09606	-0.194
Mof_C 	C 	0.5	0.5	0.2178	0.07
Mof_N 	N 	2.44668e-33	1.77846e-33	0.09606	-0.207
Mof_C 	C 	5.07199e-33	3.55691e-33	0.2178	0.037
Mof_N 	N 	0.5	0.5	0.59606	-0.194
Mof_C 	C 	0.5	0.5	0.7178	0.071
Mof_N 	N 	9.92375e-33	7.11382e-33	0.40394	-0.207
Mof_C 	C 	-5.15075e-33	-7.11382e-33	0.2822	0.037
Mof_N 	N 	0.5	0.5	0.90394	-0.192
Mof_C 	C 	0.5	0.5	0.7822	0.069
Mof_C 	C 	0.164	0.664	-0	-0.113
Mof_C 	C 	0.0807	0.5807	-0	0.021
Mof_C 	C 	0.836	0.336	-0	-0.142
Mof_C 	C 	0.9193	0.4193	-0	0.106
Mof_C 	C 	0.336	0.164	-0	-0.113
Mof_C 	C 	0.4193	0.0807	-0	0.02
Mof_C 	C 	0.664	0.836	-0	-0.142
Mof_C 	C 	0.5807	0.9193	-0	0.106
Mof_C 	C 	0.836	0.664	0.5	-0.141
Mof_C 	C 	0.9193	0.5807	0.5	0.105
Mof_C 	C 	0.164	0.336	0.5	-0.114
Mof_C 	C 	0.0807	0.4193	0.5	0.023
Mof_C 	C 	0.664	0.164	0.5	-0.114
Mof_C 	C 	0.5807	0.0807	0.5	0.024
Mof_C 	C 	0.336	0.836	0.5	-0.141
Mof_C 	C 	0.4193	0.9193	0.5	0.105
_end
