data_functionalizedCrystal
_audit_creation_method	'EQeq! by Chris Wilmer'
_symmetry_space_group_name_H-M	'P1'
_symmetry_Int_Tables_number	1
_symmetry_cell_setting	triclinic
loop_
_symmetry_equiv_pos_as_xyz
  x,y,z
_cell_length_a	18.8285
_cell_length_b	18.8285
_cell_length_c	18.8285
_cell_angle_alpha	90
_cell_angle_beta	90
_cell_angle_gamma	90
loop_
_atom_site_label
_atom_site_type_symbol
_atom_site_fract_x
_atom_site_fract_y
_atom_site_fract_z
_atom_site_charge
Mof_N 	N 	0.0788	0.3702	0.4188	-0.369
Mof_N 	N 	0.1339	0.3263	0.4089	-0.327
Mof_N 	N 	0.9212	0.6298	0.4188	-0.323
Mof_N 	N 	0.8661	0.6737	0.4089	-0.308
Mof_N 	N 	0.9212	0.3702	0.5812	-0.324
Mof_N 	N 	0.8661	0.3263	0.5911	-0.311
Mof_N 	N 	0.0788	0.6298	0.5812	-0.365
Mof_N 	N 	0.1339	0.6737	0.5911	-0.32
Mof_N 	N 	0.4188	0.0788	0.3702	-0.369
Mof_N 	N 	0.4089	0.1339	0.3263	-0.327
Mof_N 	N 	0.4188	0.9212	0.6298	-0.323
Mof_N 	N 	0.4089	0.8661	0.6737	-0.308
Mof_N 	N 	0.5812	0.9212	0.3702	-0.324
Mof_N 	N 	0.5911	0.8661	0.3263	-0.311
Mof_N 	N 	0.5812	0.0788	0.6298	-0.365
Mof_N 	N 	0.5911	0.1339	0.6737	-0.32
Mof_N 	N 	0.3702	0.4188	0.0788	-0.369
Mof_N 	N 	0.3263	0.4089	0.1339	-0.327
Mof_N 	N 	0.6298	0.4188	0.9212	-0.323
Mof_N 	N 	0.6737	0.4089	0.8661	-0.308
Mof_N 	N 	0.3702	0.5812	0.9212	-0.324
Mof_N 	N 	0.3263	0.5911	0.8661	-0.311
Mof_N 	N 	0.6298	0.5812	0.0788	-0.365
Mof_N 	N 	0.6737	0.5911	0.1339	-0.32
Mof_N 	N 	0.3702	0.0788	0.5812	-0.368
Mof_N 	N 	0.3263	0.1339	0.5911	-0.325
Mof_N 	N 	0.6298	0.9212	0.5812	-0.322
Mof_N 	N 	0.6737	0.8661	0.5911	-0.306
Mof_N 	N 	0.3702	0.9212	0.4188	-0.326
Mof_N 	N 	0.3263	0.8661	0.4089	-0.313
Mof_N 	N 	0.6298	0.0788	0.4188	-0.367
Mof_N 	N 	0.6737	0.1339	0.4089	-0.322
Mof_N 	N 	0.0788	0.4188	0.6298	-0.367
Mof_N 	N 	0.1339	0.4089	0.6737	-0.322
Mof_N 	N 	0.9212	0.4188	0.3702	-0.326
Mof_N 	N 	0.8661	0.4089	0.3263	-0.313
Mof_N 	N 	0.9212	0.5812	0.6298	-0.322
Mof_N 	N 	0.8661	0.5911	0.6737	-0.306
Mof_N 	N 	0.0788	0.5812	0.3702	-0.368
Mof_N 	N 	0.1339	0.5911	0.3263	-0.325
Mof_N 	N 	0.4188	0.3702	0.9212	-0.326
Mof_N 	N 	0.4089	0.3263	0.8661	-0.313
Mof_N 	N 	0.4188	0.6298	0.0788	-0.367
Mof_N 	N 	0.4089	0.6737	0.1339	-0.322
Mof_N 	N 	0.5812	0.3702	0.0788	-0.368
Mof_N 	N 	0.5911	0.3263	0.1339	-0.325
Mof_N 	N 	0.5812	0.6298	0.9212	-0.322
Mof_N 	N 	0.5911	0.6737	0.8661	-0.306
Mof_N 	N 	0.9212	0.6298	0.5812	-0.322
Mof_N 	N 	0.8661	0.6737	0.5911	-0.306
Mof_N 	N 	0.0788	0.3702	0.5812	-0.368
Mof_N 	N 	0.1339	0.3263	0.5911	-0.325
Mof_N 	N 	0.0788	0.6298	0.4188	-0.367
Mof_N 	N 	0.1339	0.6737	0.4089	-0.322
Mof_N 	N 	0.9212	0.3702	0.4188	-0.326
Mof_N 	N 	0.8661	0.3263	0.4089	-0.313
Mof_N 	N 	0.5812	0.9212	0.6298	-0.322
Mof_N 	N 	0.5911	0.8661	0.6737	-0.306
Mof_N 	N 	0.5812	0.0788	0.3702	-0.368
Mof_N 	N 	0.5911	0.1339	0.3263	-0.325
Mof_N 	N 	0.4188	0.0788	0.6298	-0.367
Mof_N 	N 	0.4089	0.1339	0.6737	-0.322
Mof_N 	N 	0.4188	0.9212	0.3702	-0.326
Mof_N 	N 	0.4089	0.8661	0.3263	-0.313
Mof_N 	N 	0.6298	0.5812	0.9212	-0.322
Mof_N 	N 	0.6737	0.5911	0.8661	-0.306
Mof_N 	N 	0.3702	0.5812	0.0788	-0.368
Mof_N 	N 	0.3263	0.5911	0.1339	-0.325
Mof_N 	N 	0.6298	0.4188	0.0788	-0.367
Mof_N 	N 	0.6737	0.4089	0.1339	-0.322
Mof_N 	N 	0.3702	0.4188	0.9212	-0.326
Mof_N 	N 	0.3263	0.4089	0.8661	-0.313
Mof_N 	N 	0.6298	0.9212	0.4188	-0.323
Mof_N 	N 	0.6737	0.8661	0.4089	-0.308
Mof_N 	N 	0.3702	0.0788	0.4188	-0.369
Mof_N 	N 	0.3263	0.1339	0.4089	-0.327
Mof_N 	N 	0.6298	0.0788	0.5812	-0.365
Mof_N 	N 	0.6737	0.1339	0.5911	-0.32
Mof_N 	N 	0.3702	0.9212	0.5812	-0.324
Mof_N 	N 	0.3263	0.8661	0.5911	-0.311
Mof_N 	N 	0.9212	0.5812	0.3702	-0.324
Mof_N 	N 	0.8661	0.5911	0.3263	-0.311
Mof_N 	N 	0.0788	0.5812	0.6298	-0.365
Mof_N 	N 	0.1339	0.5911	0.6737	-0.32
Mof_N 	N 	0.0788	0.4188	0.3702	-0.369
Mof_N 	N 	0.1339	0.4089	0.3263	-0.327
Mof_N 	N 	0.9212	0.4188	0.6298	-0.323
Mof_N 	N 	0.8661	0.4089	0.6737	-0.308
Mof_N 	N 	0.5812	0.6298	0.0788	-0.365
Mof_N 	N 	0.5911	0.6737	0.1339	-0.32
Mof_N 	N 	0.5812	0.3702	0.9212	-0.324
Mof_N 	N 	0.5911	0.3263	0.8661	-0.311
Mof_N 	N 	0.4188	0.6298	0.9212	-0.323
Mof_N 	N 	0.4089	0.6737	0.8661	-0.308
Mof_N 	N 	0.4188	0.3702	0.0788	-0.369
Mof_N 	N 	0.4089	0.3263	0.1339	-0.327
Mof_Zn	Zn	1.8747e-33	0.359	0.5	-0.929
Mof_O 	O 	-5.68898e-33	0.2484	0.5	-1.007
Mof_Mn	Mn	-1.32527e-32	0.358	0.5	3.132
Mof_Zn	Zn	1.8747e-33	0.641	0.5	-0.926
Mof_O 	O 	-5.68898e-33	0.7516	0.5	-0.978
Mof_Mn	Mn	1.8747e-33	0.642	0.5	3.129
Mof_Zn	Zn	0.5	0	0.359	-0.929
Mof_O 	O 	0.5	0	0.2484	-1.007
Mof_Mn	Mn	0.5	0	0.358	3.132
Mof_Zn	Zn	0.5	0	0.641	-0.926
Mof_O 	O 	0.5	-7.56368e-33	0.7516	-0.978
Mof_Mn	Mn	0.5	0	0.642	3.129
Mof_Zn	Zn	0.359	0.5	-0	-0.929
Mof_O 	O 	0.2484	0.5	-0	-1.007
Mof_Mn	Mn	0.358	0.5	-0	3.132
Mof_Zn	Zn	0.641	0.5	-0	-0.926
Mof_O 	O 	0.7516	0.5	-0	-0.978
Mof_Mn	Mn	0.642	0.5	-0	3.129
Mof_Zn	Zn	0.359	-3.78184e-33	0.5	-0.929
Mof_O 	O 	0.2484	-3.78184e-33	0.5	-1.007
Mof_Mn	Mn	0.358	-3.78184e-33	0.5	3.132
Mof_Zn	Zn	0.641	-3.78184e-33	0.5	-0.926
Mof_O 	O 	0.7516	-3.78184e-33	0.5	-0.978
Mof_Mn	Mn	0.642	-3.78184e-33	0.5	3.129
Mof_Zn	Zn	2.40337e-33	0.5	0.641	-0.926
Mof_O 	O 	-4.74563e-33	0.5	0.7516	-0.978
Mof_Mn	Mn	2.40711e-33	0.5	0.642	3.129
Mof_Zn	Zn	5.12788e-33	0.5	0.359	-0.929
Mof_O 	O 	-2.85049e-33	0.5	0.2484	-1.007
Mof_Mn	Mn	-1.00032e-32	0.5	0.358	3.132
Mof_Zn	Zn	0.5	0.359	-0	-0.929
Mof_O 	O 	0.5	0.2484	-0	-1.007
Mof_Mn	Mn	0.5	0.358	-0	3.132
Mof_Zn	Zn	0.5	0.641	-0	-0.926
Mof_O 	O 	0.5	0.7516	-0	-0.978
Mof_Mn	Mn	0.5	0.642	-0	3.129
Mof_Cl	Cl	-5.68898e-33	0.5	0.5	-1.428
Mof_Cl	Cl	0.5	-3.78184e-33	0.5	-1.428
Mof_Cl	Cl	0.5	0.5	-0	-1.428
Mof_C 	C 	0.1666	0.3511	0.3511	0.139
Mof_C 	C 	0.2302	0.3206	0.3206	-0.282
Mof_C 	C 	0.8334	0.6489	0.3511	0.157
Mof_C 	C 	0.7698	0.6794	0.3206	-0.264
Mof_C 	C 	0.8334	0.3511	0.6489	0.157
Mof_C 	C 	0.7698	0.3206	0.6794	-0.264
Mof_C 	C 	0.1666	0.6489	0.6489	0.148
Mof_C 	C 	0.2302	0.6794	0.6794	-0.268
Mof_C 	C 	0.3511	0.1666	0.3511	0.139
Mof_C 	C 	0.3206	0.2302	0.3206	-0.282
Mof_C 	C 	0.3511	0.8334	0.6489	0.157
Mof_C 	C 	0.3206	0.7698	0.6794	-0.264
Mof_C 	C 	0.6489	0.8334	0.3511	0.157
Mof_C 	C 	0.6794	0.7698	0.3206	-0.264
Mof_C 	C 	0.6489	0.1666	0.6489	0.148
Mof_C 	C 	0.6794	0.2302	0.6794	-0.268
Mof_C 	C 	0.3511	0.3511	0.1666	0.139
Mof_C 	C 	0.3206	0.3206	0.2302	-0.282
Mof_C 	C 	0.6489	0.3511	0.8334	0.157
Mof_C 	C 	0.6794	0.3206	0.7698	-0.264
Mof_C 	C 	0.3511	0.6489	0.8334	0.157
Mof_C 	C 	0.3206	0.6794	0.7698	-0.264
Mof_C 	C 	0.6489	0.6489	0.1666	0.148
Mof_C 	C 	0.6794	0.6794	0.2302	-0.268
Mof_C 	C 	0.3511	0.1666	0.6489	0.143
Mof_C 	C 	0.3206	0.2302	0.6794	-0.275
Mof_C 	C 	0.6489	0.8334	0.6489	0.161
Mof_C 	C 	0.6794	0.7698	0.6794	-0.257
Mof_C 	C 	0.3511	0.8334	0.3511	0.152
Mof_C 	C 	0.3206	0.7698	0.3206	-0.271
Mof_C 	C 	0.6489	0.1666	0.3511	0.143
Mof_C 	C 	0.6794	0.2302	0.3206	-0.275
Mof_C 	C 	0.1666	0.3511	0.6489	0.143
Mof_C 	C 	0.2302	0.3206	0.6794	-0.275
Mof_C 	C 	0.8334	0.3511	0.3511	0.152
Mof_C 	C 	0.7698	0.3206	0.3206	-0.271
Mof_C 	C 	0.8334	0.6489	0.6489	0.161
Mof_C 	C 	0.7698	0.6794	0.6794	-0.257
Mof_C 	C 	0.1666	0.6489	0.3511	0.143
Mof_C 	C 	0.2302	0.6794	0.3206	-0.275
Mof_C 	C 	0.3511	0.3511	0.8334	0.152
Mof_C 	C 	0.3206	0.3206	0.7698	-0.271
Mof_C 	C 	0.3511	0.6489	0.1666	0.143
Mof_C 	C 	0.3206	0.6794	0.2302	-0.275
Mof_C 	C 	0.6489	0.3511	0.1666	0.143
Mof_C 	C 	0.6794	0.3206	0.2302	-0.275
Mof_C 	C 	0.6489	0.6489	0.8334	0.161
Mof_C 	C 	0.6794	0.6794	0.7698	-0.257
Mof_C 	C 	0.2605	0.35	0.2605	0.147
Mof_H 	H 	0.2401	0.3901	0.2401	-0.186
Mof_C 	C 	0.7395	0.65	0.2605	0.15
Mof_H 	H 	0.7599	0.6099	0.2401	-0.174
Mof_C 	C 	0.7395	0.35	0.7395	0.15
Mof_H 	H 	0.7599	0.3901	0.7599	-0.166
Mof_C 	C 	0.2605	0.65	0.7395	0.15
Mof_H 	H 	0.2401	0.6099	0.7599	-0.174
Mof_C 	C 	0.2605	0.2605	0.35	0.147
Mof_H 	H 	0.2401	0.2401	0.3901	-0.186
Mof_C 	C 	0.2605	0.7395	0.65	0.15
Mof_H 	H 	0.2401	0.7599	0.6099	-0.174
Mof_C 	C 	0.7395	0.7395	0.35	0.15
Mof_H 	H 	0.7599	0.7599	0.3901	-0.166
Mof_C 	C 	0.7395	0.2605	0.65	0.15
Mof_H 	H 	0.7599	0.2401	0.6099	-0.174
Mof_C 	C 	0.35	0.2605	0.2605	0.147
Mof_H 	H 	0.3901	0.2401	0.2401	-0.186
Mof_C 	C 	0.65	0.2605	0.7395	0.15
Mof_H 	H 	0.6099	0.2401	0.7599	-0.174
Mof_C 	C 	0.35	0.7395	0.7395	0.15
Mof_H 	H 	0.3901	0.7599	0.7599	-0.166
Mof_C 	C 	0.65	0.7395	0.2605	0.15
Mof_H 	H 	0.6099	0.7599	0.2401	-0.174
Mof_C 	C 	0.35	0.2605	0.7395	0.149
Mof_H 	H 	0.3901	0.2401	0.7599	-0.176
Mof_C 	C 	0.65	0.7395	0.7395	0.151
Mof_H 	H 	0.6099	0.7599	0.7599	-0.164
Mof_C 	C 	0.35	0.7395	0.2605	0.149
Mof_H 	H 	0.3901	0.7599	0.2401	-0.176
Mof_C 	C 	0.65	0.2605	0.2605	0.148
Mof_H 	H 	0.6099	0.2401	0.2401	-0.184
Mof_C 	C 	0.2605	0.2605	0.65	0.148
Mof_H 	H 	0.2401	0.2401	0.6099	-0.184
Mof_C 	C 	0.7395	0.2605	0.35	0.149
Mof_H 	H 	0.7599	0.2401	0.3901	-0.176
Mof_C 	C 	0.7395	0.7395	0.65	0.151
Mof_H 	H 	0.7599	0.7599	0.6099	-0.164
Mof_C 	C 	0.2605	0.7395	0.35	0.149
Mof_H 	H 	0.2401	0.7599	0.3901	-0.176
Mof_C 	C 	0.2605	0.35	0.7395	0.149
Mof_H 	H 	0.2401	0.3901	0.7599	-0.176
Mof_C 	C 	0.2605	0.65	0.2605	0.148
Mof_H 	H 	0.2401	0.6099	0.2401	-0.184
Mof_C 	C 	0.7395	0.35	0.2605	0.149
Mof_H 	H 	0.7599	0.3901	0.2401	-0.176
Mof_C 	C 	0.7395	0.65	0.7395	0.151
Mof_H 	H 	0.7599	0.6099	0.7599	-0.164
Mof_Zn	Zn	0.1272	0.2624	0.5	1.027
Mof_Zn	Zn	0.8728	0.7376	0.5	1.058
Mof_Zn	Zn	0.8728	0.2624	0.5	1.05
Mof_Zn	Zn	0.1272	0.7376	0.5	1.035
Mof_Zn	Zn	0.5	0.1272	0.2624	1.027
Mof_Zn	Zn	0.5	0.8728	0.7376	1.058
Mof_Zn	Zn	0.5	0.8728	0.2624	1.05
Mof_Zn	Zn	0.5	0.1272	0.7376	1.035
Mof_Zn	Zn	0.2624	0.5	0.1272	1.027
Mof_Zn	Zn	0.7376	0.5	0.8728	1.058
Mof_Zn	Zn	0.2624	0.5	0.8728	1.05
Mof_Zn	Zn	0.7376	0.5	0.1272	1.035
Mof_Zn	Zn	0.2624	0.1272	0.5	1.027
Mof_Zn	Zn	0.7376	0.8728	0.5	1.058
Mof_Zn	Zn	0.2624	0.8728	0.5	1.05
Mof_Zn	Zn	0.7376	0.1272	0.5	1.035
Mof_Zn	Zn	0.1272	0.5	0.7376	1.035
Mof_Zn	Zn	0.8728	0.5	0.2624	1.05
Mof_Zn	Zn	0.8728	0.5	0.7376	1.058
Mof_Zn	Zn	0.1272	0.5	0.2624	1.027
Mof_Zn	Zn	0.5	0.2624	0.8728	1.05
Mof_Zn	Zn	0.5	0.7376	0.1272	1.035
Mof_Zn	Zn	0.5	0.2624	0.1272	1.027
Mof_Zn	Zn	0.5	0.7376	0.8728	1.058
_end
