data_functionalizedCrystal
_audit_creation_method	'EQeq! by Chris Wilmer'
_symmetry_space_group_name_H-M	'P1'
_symmetry_Int_Tables_number	1
_symmetry_cell_setting	triclinic
loop_
_symmetry_equiv_pos_as_xyz
  x,y,z
_cell_length_a	40.633
_cell_length_b	40.633
_cell_length_c	18.232
_cell_angle_alpha	90
_cell_angle_beta	90
_cell_angle_gamma	120
loop_
_atom_site_label
_atom_site_type_symbol
_atom_site_fract_x
_atom_site_fract_y
_atom_site_fract_z
_atom_site_charge
Mof_Zn	Zn	0.39718	0.02268	0.33504	1.212
Mof_O 	O 	0.38413	0.04678	0.41119	-0.506
Mof_O 	O 	0.4148	0.10431	0.3591	-0.525
Mof_C 	C 	0.39797	0.08209	0.4109	0.39
Mof_C 	C 	0.39317	0.09832	0.4834	-0.124
Mof_C 	C 	0.37406	0.07523	0.5427	0.041
Mof_H 	H 	0.3633	0.0487	0.539	0.029
Mof_C 	C 	0.37098	0.09138	0.6072	-0.109
Mof_H 	H 	0.3577	0.0754	0.6468	0.064
Mof_C 	C 	0.3872	0.13098	0.6155	0.042
Mof_C 	C 	0.4073	0.15469	0.555	-0.108
Mof_H 	H 	0.4197	0.1813	0.5587	0.064
Mof_C 	C 	0.4081	0.13664	0.489	0.037
Mof_H 	H 	0.4194	0.1517	0.4473	0.024
Mof_C 	C 	0.38504	0.14822	0.6843	0.024
Mof_C 	C 	0.38281	0.1813	0.6846	-0.074
Mof_H 	H 	0.3815	0.1919	0.6396	0.049
Mof_C 	C 	0.3799	0.2513	0.6901	-0.201
Mof_H 	H 	0.3791	0.2396	0.6451	0.093
Mof_C 	C 	0.3795	0.28528	0.6879	0.133
Mof_H 	H 	0.3802	0.2968	0.6428	-0.004
Mof_O 	O 	0.37691	0.35221	0.68836	-0.512
Mof_O 	O 	0.43066	0.00983	0.38754	-0.507
Mof_O 	O 	0.48693	0.04279	0.33408	-0.505
Mof_C 	C 	0.4659	0.02256	0.3841	0.412
Mof_C 	C 	0.4834	0.0092	0.4428	-0.121
Mof_C 	C 	0.461	0.9844	0.4924	0.036
Mof_C 	C 	0.5216	0.0245	0.4468	0.034
Mof_C 	C 	0.57457	0.19002	0.28137	0.007
Mof_H 	H 	0.5772	0.1696	0.2984	0.036
Mof_C 	C 	0.60474	0.22702	0.2875	-0.064
Mof_H 	H 	0.6277	0.2316	0.3087	0.051
Mof_C 	C 	0.60089	0.2572	0.2623	0.023
Mof_C 	C 	0.56687	0.2504	0.2309	-0.05
Mof_H 	H 	0.5643	0.2708	0.2139	0.043
Mof_C 	C 	0.5367	0.2134	0.22479	0.003
Mof_H 	H 	0.5137	0.2088	0.2036	0.031
Mof_C 	C 	0.63703	0.29883	0.2486	-0.006
Mof_C 	C 	0.62975	0.32811	0.2294	-0.01
Mof_Zn	Zn	0.97732	0.3745	0.33504	1.213
Mof_O 	O 	0.95322	0.33735	0.41119	-0.505
Mof_O 	O 	0.89569	0.31049	0.3591	-0.524
Mof_C 	C 	0.91791	0.31588	0.4109	0.391
Mof_C 	C 	0.90168	0.29485	0.4834	-0.123
Mof_C 	C 	0.92477	0.29883	0.5427	0.042
Mof_H 	H 	0.9513	0.3146	0.539	0.03
Mof_C 	C 	0.90862	0.2796	0.6072	-0.108
Mof_H 	H 	0.9246	0.2823	0.6468	0.065
Mof_C 	C 	0.86902	0.25622	0.6155	0.043
Mof_C 	C 	0.84531	0.25261	0.555	-0.107
Mof_H 	H 	0.8187	0.2384	0.5587	0.065
Mof_C 	C 	0.86336	0.27146	0.489	0.038
Mof_H 	H 	0.8483	0.2677	0.4473	0.025
Mof_C 	C 	0.85178	0.23682	0.6843	0.025
Mof_C 	C 	0.8187	0.20151	0.6846	-0.073
Mof_H 	H 	0.8081	0.1896	0.6396	0.05
Mof_C 	C 	0.7487	0.1286	0.6901	-0.199
Mof_H 	H 	0.7604	0.1395	0.6451	0.094
Mof_C 	C 	0.71472	0.09422	0.6879	0.134
Mof_H 	H 	0.7032	0.0834	0.6428	-0.003
Mof_O 	O 	0.64779	0.0247	0.68836	-0.511
Mof_O 	O 	0.99017	0.42083	0.38754	-0.506
Mof_O 	O 	0.95721	0.44414	0.33408	-0.504
Mof_C 	C 	0.97744	0.44334	0.3841	0.413
Mof_C 	C 	0.9908	0.4742	0.4428	-0.12
Mof_C 	C 	0.0156	0.4766	0.4924	0.037
Mof_C 	C 	0.9755	0.4971	0.4468	0.035
Mof_C 	C 	0.80998	0.38455	0.28137	0.007
Mof_H 	H 	0.8304	0.4076	0.2984	0.036
Mof_C 	C 	0.77298	0.37772	0.2875	-0.064
Mof_H 	H 	0.7684	0.3961	0.3087	0.051
Mof_C 	C 	0.7428	0.34369	0.2623	0.023
Mof_C 	C 	0.7496	0.31647	0.2309	-0.05
Mof_H 	H 	0.7292	0.2935	0.2139	0.043
Mof_C 	C 	0.7866	0.3233	0.22479	0.003
Mof_H 	H 	0.7912	0.3049	0.2036	0.031
Mof_C 	C 	0.70117	0.3382	0.2486	-0.006
Mof_C 	C 	0.67189	0.30164	0.2294	-0.01
Mof_Zn	Zn	0.6255	0.60282	0.33504	1.213
Mof_O 	O 	0.66265	0.61587	0.41119	-0.505
Mof_O 	O 	0.68951	0.5852	0.3591	-0.524
Mof_C 	C 	0.68412	0.60203	0.4109	0.391
Mof_C 	C 	0.70515	0.60683	0.4834	-0.123
Mof_C 	C 	0.70117	0.62594	0.5427	0.042
Mof_H 	H 	0.6854	0.6367	0.539	0.03
Mof_C 	C 	0.7204	0.62902	0.6072	-0.108
Mof_H 	H 	0.7177	0.6423	0.6468	0.065
Mof_C 	C 	0.74378	0.6128	0.6155	0.043
Mof_C 	C 	0.74739	0.5927	0.555	-0.107
Mof_H 	H 	0.7616	0.5803	0.5587	0.065
Mof_C 	C 	0.72854	0.5919	0.489	0.038
Mof_H 	H 	0.7323	0.5806	0.4473	0.025
Mof_C 	C 	0.76318	0.61496	0.6843	0.025
Mof_C 	C 	0.79849	0.61719	0.6846	-0.073
Mof_H 	H 	0.8104	0.6185	0.6396	0.05
Mof_C 	C 	0.8714	0.6201	0.6901	-0.199
Mof_H 	H 	0.8605	0.6209	0.6451	0.094
Mof_C 	C 	0.90578	0.6205	0.6879	0.134
Mof_H 	H 	0.9166	0.6198	0.6428	-0.003
Mof_O 	O 	0.9753	0.62309	0.68836	-0.511
Mof_O 	O 	0.57917	0.56934	0.38754	-0.506
Mof_O 	O 	0.55586	0.51307	0.33408	-0.504
Mof_C 	C 	0.55666	0.5341	0.3841	0.413
Mof_C 	C 	0.5258	0.5166	0.4428	-0.12
Mof_C 	C 	0.5234	0.539	0.4924	0.037
Mof_C 	C 	0.5029	0.4784	0.4468	0.035
Mof_C 	C 	0.61545	0.42543	0.28137	0.007
Mof_H 	H 	0.5924	0.4228	0.2984	0.036
Mof_C 	C 	0.62228	0.39526	0.2875	-0.064
Mof_H 	H 	0.6039	0.3723	0.3087	0.051
Mof_C 	C 	0.65631	0.39911	0.2623	0.023
Mof_C 	C 	0.68353	0.43313	0.2309	-0.05
Mof_H 	H 	0.7065	0.4357	0.2139	0.043
Mof_C 	C 	0.6767	0.4633	0.22479	0.003
Mof_H 	H 	0.6951	0.4863	0.2036	0.031
Mof_C 	C 	0.6618	0.36297	0.2486	-0.006
Mof_C 	C 	0.69836	0.37025	0.2294	-0.01
Mof_Zn	Zn	0.60282	0.97732	0.83504	1.213
Mof_O 	O 	0.61587	0.95322	0.91119	-0.505
Mof_O 	O 	0.5852	0.89569	0.8591	-0.524
Mof_C 	C 	0.60203	0.91791	0.9109	0.391
Mof_C 	C 	0.60683	0.90168	0.9834	-0.123
Mof_C 	C 	0.62594	0.92477	0.0427	0.042
Mof_H 	H 	0.6367	0.9513	0.039	0.03
Mof_C 	C 	0.62902	0.90862	0.1072	-0.108
Mof_H 	H 	0.6423	0.9246	0.1468	0.065
Mof_C 	C 	0.6128	0.86902	0.1155	0.043
Mof_C 	C 	0.5927	0.84531	0.055	-0.107
Mof_H 	H 	0.5803	0.8187	0.0587	0.065
Mof_C 	C 	0.5919	0.86336	0.989	0.037
Mof_H 	H 	0.5806	0.8483	0.9473	0.025
Mof_C 	C 	0.61496	0.85178	0.1843	0.025
Mof_C 	C 	0.61719	0.8187	0.1846	-0.073
Mof_H 	H 	0.6185	0.8081	0.1396	0.05
Mof_C 	C 	0.6201	0.7487	0.1901	-0.2
Mof_H 	H 	0.6209	0.7604	0.1451	0.094
Mof_C 	C 	0.6205	0.71472	0.1879	0.134
Mof_H 	H 	0.6198	0.7032	0.1428	-0.003
Mof_O 	O 	0.62309	0.64779	0.18836	-0.511
Mof_O 	O 	0.56934	0.99017	0.88754	-0.506
Mof_O 	O 	0.51307	0.95721	0.83408	-0.504
Mof_C 	C 	0.5341	0.97744	0.8841	0.413
Mof_C 	C 	0.5166	0.9908	0.9428	-0.12
Mof_C 	C 	0.539	0.0156	0.9924	0.037
Mof_C 	C 	0.4784	0.9755	0.9468	0.035
Mof_C 	C 	0.42543	0.80998	0.78137	0.007
Mof_H 	H 	0.4228	0.8304	0.7984	0.036
Mof_C 	C 	0.39526	0.77298	0.7875	-0.064
Mof_H 	H 	0.3723	0.7684	0.8087	0.051
Mof_C 	C 	0.39911	0.7428	0.7623	0.023
Mof_C 	C 	0.43313	0.7496	0.7309	-0.05
Mof_H 	H 	0.4357	0.7292	0.7139	0.043
Mof_C 	C 	0.4633	0.7866	0.72479	0.003
Mof_H 	H 	0.4863	0.7912	0.7036	0.031
Mof_C 	C 	0.36297	0.70117	0.7486	-0.006
Mof_C 	C 	0.37025	0.67189	0.7294	-0.01
Mof_Zn	Zn	0.02268	0.6255	0.83504	1.213
Mof_O 	O 	0.04678	0.66265	0.91119	-0.505
Mof_O 	O 	0.10431	0.68951	0.8591	-0.524
Mof_C 	C 	0.08209	0.68412	0.9109	0.391
Mof_C 	C 	0.09832	0.70515	0.9834	-0.124
Mof_C 	C 	0.07523	0.70117	0.0427	0.042
Mof_H 	H 	0.0487	0.6854	0.039	0.03
Mof_C 	C 	0.09138	0.7204	0.1072	-0.108
Mof_H 	H 	0.0754	0.7177	0.1468	0.065
Mof_C 	C 	0.13098	0.74378	0.1155	0.043
Mof_C 	C 	0.15469	0.74739	0.055	-0.107
Mof_H 	H 	0.1813	0.7616	0.0587	0.065
Mof_C 	C 	0.13664	0.72854	0.989	0.037
Mof_H 	H 	0.1517	0.7323	0.9473	0.025
Mof_C 	C 	0.14822	0.76318	0.1843	0.025
Mof_C 	C 	0.1813	0.79849	0.1846	-0.073
Mof_H 	H 	0.1919	0.8104	0.1396	0.05
Mof_C 	C 	0.2513	0.8714	0.1901	-0.199
Mof_H 	H 	0.2396	0.8605	0.1451	0.094
Mof_C 	C 	0.28528	0.90578	0.1879	0.134
Mof_H 	H 	0.2968	0.9166	0.1428	-0.003
Mof_O 	O 	0.35221	0.9753	0.18836	-0.511
Mof_O 	O 	0.00983	0.57917	0.88754	-0.506
Mof_O 	O 	0.04279	0.55586	0.83408	-0.504
Mof_C 	C 	0.02256	0.55666	0.8841	0.413
Mof_C 	C 	0.0092	0.5258	0.9428	-0.12
Mof_C 	C 	0.9844	0.5234	0.9924	0.037
Mof_C 	C 	0.0245	0.5029	0.9468	0.035
Mof_C 	C 	0.19002	0.61545	0.78137	0.007
Mof_H 	H 	0.1696	0.5924	0.7984	0.036
Mof_C 	C 	0.22702	0.62228	0.7875	-0.064
Mof_H 	H 	0.2316	0.6039	0.8087	0.051
Mof_C 	C 	0.2572	0.65631	0.7623	0.023
Mof_C 	C 	0.2504	0.68353	0.7309	-0.05
Mof_H 	H 	0.2708	0.7065	0.7139	0.043
Mof_C 	C 	0.2134	0.6767	0.72479	0.003
Mof_H 	H 	0.2088	0.6951	0.7036	0.031
Mof_C 	C 	0.29883	0.6618	0.7486	-0.006
Mof_C 	C 	0.32811	0.69836	0.7294	-0.01
Mof_Zn	Zn	0.3745	0.39718	0.83504	1.213
Mof_O 	O 	0.33735	0.38413	0.91119	-0.505
Mof_O 	O 	0.31049	0.4148	0.8591	-0.524
Mof_C 	C 	0.31588	0.39797	0.9109	0.391
Mof_C 	C 	0.29485	0.39317	0.9834	-0.123
Mof_C 	C 	0.29883	0.37406	0.0427	0.042
Mof_H 	H 	0.3146	0.3633	0.039	0.03
Mof_C 	C 	0.2796	0.37098	0.1072	-0.108
Mof_H 	H 	0.2823	0.3577	0.1468	0.065
Mof_C 	C 	0.25622	0.3872	0.1155	0.043
Mof_C 	C 	0.25261	0.4073	0.055	-0.107
Mof_H 	H 	0.2384	0.4197	0.0587	0.065
Mof_C 	C 	0.27146	0.4081	0.989	0.037
Mof_H 	H 	0.2677	0.4194	0.9473	0.025
Mof_C 	C 	0.23682	0.38504	0.1843	0.025
Mof_C 	C 	0.20151	0.38281	0.1846	-0.073
Mof_H 	H 	0.1896	0.3815	0.1396	0.05
Mof_C 	C 	0.1286	0.3799	0.1901	-0.199
Mof_H 	H 	0.1395	0.3791	0.1451	0.094
Mof_C 	C 	0.09422	0.3795	0.1879	0.134
Mof_H 	H 	0.0834	0.3802	0.1428	-0.003
Mof_O 	O 	0.0247	0.37691	0.18836	-0.511
Mof_O 	O 	0.42083	0.43066	0.88754	-0.506
Mof_O 	O 	0.44414	0.48693	0.83408	-0.504
Mof_C 	C 	0.44334	0.4659	0.8841	0.413
Mof_C 	C 	0.4742	0.4834	0.9428	-0.12
Mof_C 	C 	0.4766	0.461	0.9924	0.036
Mof_C 	C 	0.4971	0.5216	0.9468	0.035
Mof_C 	C 	0.38455	0.57457	0.78137	0.007
Mof_H 	H 	0.4076	0.5772	0.7984	0.036
Mof_C 	C 	0.37772	0.60474	0.7875	-0.064
Mof_H 	H 	0.3961	0.6277	0.8087	0.051
Mof_C 	C 	0.34369	0.60089	0.7623	0.023
Mof_C 	C 	0.31647	0.56687	0.7309	-0.05
Mof_H 	H 	0.2935	0.5643	0.7139	0.043
Mof_C 	C 	0.3233	0.5367	0.72479	0.003
Mof_H 	H 	0.3049	0.5137	0.7036	0.031
Mof_C 	C 	0.3382	0.63703	0.7486	-0.006
Mof_C 	C 	0.30164	0.62975	0.7294	-0.01
Mof_Zn	Zn	0.60282	0.97732	0.66496	1.213
Mof_O 	O 	0.61587	0.95322	0.58881	-0.505
Mof_O 	O 	0.5852	0.89569	0.6409	-0.524
Mof_C 	C 	0.60203	0.91791	0.5891	0.391
Mof_C 	C 	0.60683	0.90168	0.5166	-0.123
Mof_C 	C 	0.62594	0.92477	0.4573	0.042
Mof_H 	H 	0.6367	0.9513	0.461	0.03
Mof_C 	C 	0.62902	0.90862	0.3928	-0.108
Mof_H 	H 	0.6423	0.9246	0.3532	0.065
Mof_C 	C 	0.6128	0.86902	0.3845	0.043
Mof_C 	C 	0.5927	0.84531	0.445	-0.107
Mof_H 	H 	0.5803	0.8187	0.4413	0.065
Mof_C 	C 	0.5919	0.86336	0.511	0.038
Mof_H 	H 	0.5806	0.8483	0.5527	0.025
Mof_C 	C 	0.61496	0.85178	0.3157	0.025
Mof_C 	C 	0.61719	0.8187	0.3154	-0.073
Mof_H 	H 	0.6185	0.8081	0.3604	0.05
Mof_C 	C 	0.6201	0.7487	0.3099	-0.2
Mof_H 	H 	0.6209	0.7604	0.3549	0.094
Mof_C 	C 	0.6205	0.71472	0.3121	0.134
Mof_H 	H 	0.6198	0.7032	0.3572	-0.003
Mof_O 	O 	0.62309	0.64779	0.31164	-0.511
Mof_O 	O 	0.56934	0.99017	0.61246	-0.506
Mof_O 	O 	0.51307	0.95721	0.66592	-0.504
Mof_C 	C 	0.5341	0.97744	0.6159	0.413
Mof_C 	C 	0.5166	0.9908	0.5572	-0.12
Mof_C 	C 	0.539	0.0156	0.5076	0.037
Mof_C 	C 	0.4784	0.9755	0.5532	0.035
Mof_C 	C 	0.42543	0.80998	0.71863	0.007
Mof_H 	H 	0.4228	0.8304	0.7016	0.036
Mof_C 	C 	0.39526	0.77298	0.7125	-0.064
Mof_H 	H 	0.3723	0.7684	0.6913	0.051
Mof_C 	C 	0.39911	0.7428	0.7377	0.023
Mof_C 	C 	0.43313	0.7496	0.7691	-0.05
Mof_H 	H 	0.4357	0.7292	0.7861	0.043
Mof_C 	C 	0.4633	0.7866	0.77521	0.003
Mof_H 	H 	0.4863	0.7912	0.7964	0.031
Mof_C 	C 	0.36297	0.70117	0.7514	-0.006
Mof_C 	C 	0.37025	0.67189	0.7706	-0.01
Mof_Zn	Zn	0.02268	0.6255	0.66496	1.213
Mof_O 	O 	0.04678	0.66265	0.58881	-0.505
Mof_O 	O 	0.10431	0.68951	0.6409	-0.524
Mof_C 	C 	0.08209	0.68412	0.5891	0.391
Mof_C 	C 	0.09832	0.70515	0.5166	-0.123
Mof_C 	C 	0.07523	0.70117	0.4573	0.042
Mof_H 	H 	0.0487	0.6854	0.461	0.03
Mof_C 	C 	0.09138	0.7204	0.3928	-0.108
Mof_H 	H 	0.0754	0.7177	0.3532	0.065
Mof_C 	C 	0.13098	0.74378	0.3845	0.043
Mof_C 	C 	0.15469	0.74739	0.445	-0.107
Mof_H 	H 	0.1813	0.7616	0.4413	0.065
Mof_C 	C 	0.13664	0.72854	0.511	0.038
Mof_H 	H 	0.1517	0.7323	0.5527	0.025
Mof_C 	C 	0.14822	0.76318	0.3157	0.025
Mof_C 	C 	0.1813	0.79849	0.3154	-0.073
Mof_H 	H 	0.1919	0.8104	0.3604	0.05
Mof_C 	C 	0.2513	0.8714	0.3099	-0.199
Mof_H 	H 	0.2396	0.8605	0.3549	0.094
Mof_C 	C 	0.28528	0.90578	0.3121	0.134
Mof_H 	H 	0.2968	0.9166	0.3572	-0.003
Mof_O 	O 	0.35221	0.9753	0.31164	-0.511
Mof_O 	O 	0.00983	0.57917	0.61246	-0.506
Mof_O 	O 	0.04279	0.55586	0.66592	-0.504
Mof_C 	C 	0.02256	0.55666	0.6159	0.413
Mof_C 	C 	0.0092	0.5258	0.5572	-0.12
Mof_C 	C 	0.9844	0.5234	0.5076	0.037
Mof_C 	C 	0.0245	0.5029	0.5532	0.035
Mof_C 	C 	0.19002	0.61545	0.71863	0.007
Mof_H 	H 	0.1696	0.5924	0.7016	0.036
Mof_C 	C 	0.22702	0.62228	0.7125	-0.064
Mof_H 	H 	0.2316	0.6039	0.6913	0.051
Mof_C 	C 	0.2572	0.65631	0.7377	0.023
Mof_C 	C 	0.2504	0.68353	0.7691	-0.05
Mof_H 	H 	0.2708	0.7065	0.7861	0.043
Mof_C 	C 	0.2134	0.6767	0.77521	0.003
Mof_H 	H 	0.2088	0.6951	0.7964	0.031
Mof_C 	C 	0.29883	0.6618	0.7514	-0.006
Mof_C 	C 	0.32811	0.69836	0.7706	-0.01
Mof_Zn	Zn	0.3745	0.39718	0.66496	1.213
Mof_O 	O 	0.33735	0.38413	0.58881	-0.505
Mof_O 	O 	0.31049	0.4148	0.6409	-0.524
Mof_C 	C 	0.31588	0.39797	0.5891	0.391
Mof_C 	C 	0.29485	0.39317	0.5166	-0.123
Mof_C 	C 	0.29883	0.37406	0.4573	0.042
Mof_H 	H 	0.3146	0.3633	0.461	0.03
Mof_C 	C 	0.2796	0.37098	0.3928	-0.108
Mof_H 	H 	0.2823	0.3577	0.3532	0.065
Mof_C 	C 	0.25622	0.3872	0.3845	0.043
Mof_C 	C 	0.25261	0.4073	0.445	-0.107
Mof_H 	H 	0.2384	0.4197	0.4413	0.065
Mof_C 	C 	0.27146	0.4081	0.511	0.038
Mof_H 	H 	0.2677	0.4194	0.5527	0.025
Mof_C 	C 	0.23682	0.38504	0.3157	0.025
Mof_C 	C 	0.20151	0.38281	0.3154	-0.073
Mof_H 	H 	0.1896	0.3815	0.3604	0.05
Mof_C 	C 	0.1286	0.3799	0.3099	-0.199
Mof_H 	H 	0.1395	0.3791	0.3549	0.094
Mof_C 	C 	0.09422	0.3795	0.3121	0.134
Mof_H 	H 	0.0834	0.3802	0.3572	-0.003
Mof_O 	O 	0.0247	0.37691	0.31164	-0.511
Mof_O 	O 	0.42083	0.43066	0.61246	-0.506
Mof_O 	O 	0.44414	0.48693	0.66592	-0.504
Mof_C 	C 	0.44334	0.4659	0.6159	0.413
Mof_C 	C 	0.4742	0.4834	0.5572	-0.12
Mof_C 	C 	0.4766	0.461	0.5076	0.037
Mof_C 	C 	0.4971	0.5216	0.5532	0.035
Mof_C 	C 	0.38455	0.57457	0.71863	0.007
Mof_H 	H 	0.4076	0.5772	0.7016	0.036
Mof_C 	C 	0.37772	0.60474	0.7125	-0.064
Mof_H 	H 	0.3961	0.6277	0.6913	0.051
Mof_C 	C 	0.34369	0.60089	0.7377	0.023
Mof_C 	C 	0.31647	0.56687	0.7691	-0.05
Mof_H 	H 	0.2935	0.5643	0.7861	0.043
Mof_C 	C 	0.3233	0.5367	0.77521	0.003
Mof_H 	H 	0.3049	0.5137	0.7964	0.031
Mof_C 	C 	0.3382	0.63703	0.7514	-0.006
Mof_C 	C 	0.30164	0.62975	0.7706	-0.01
Mof_Zn	Zn	0.39718	0.02268	0.16496	1.213
Mof_O 	O 	0.38413	0.04678	0.08881	-0.505
Mof_O 	O 	0.4148	0.10431	0.1409	-0.524
Mof_C 	C 	0.39797	0.08209	0.0891	0.391
Mof_C 	C 	0.39317	0.09832	0.0166	-0.123
Mof_C 	C 	0.37406	0.07523	0.9573	0.042
Mof_H 	H 	0.3633	0.0487	0.961	0.03
Mof_C 	C 	0.37098	0.09138	0.8928	-0.108
Mof_H 	H 	0.3577	0.0754	0.8532	0.065
Mof_C 	C 	0.3872	0.13098	0.8845	0.043
Mof_C 	C 	0.4073	0.15469	0.945	-0.107
Mof_H 	H 	0.4197	0.1813	0.9413	0.065
Mof_C 	C 	0.4081	0.13664	0.011	0.037
Mof_H 	H 	0.4194	0.1517	0.0527	0.025
Mof_C 	C 	0.38504	0.14822	0.8157	0.025
Mof_C 	C 	0.38281	0.1813	0.8154	-0.073
Mof_H 	H 	0.3815	0.1919	0.8604	0.05
Mof_C 	C 	0.3799	0.2513	0.8099	-0.2
Mof_H 	H 	0.3791	0.2396	0.8549	0.094
Mof_C 	C 	0.3795	0.28528	0.8121	0.134
Mof_H 	H 	0.3802	0.2968	0.8572	-0.003
Mof_O 	O 	0.37691	0.35221	0.81164	-0.511
Mof_O 	O 	0.43066	0.00983	0.11246	-0.506
Mof_O 	O 	0.48693	0.04279	0.16592	-0.504
Mof_C 	C 	0.4659	0.02256	0.1159	0.413
Mof_C 	C 	0.4834	0.0092	0.0572	-0.12
Mof_C 	C 	0.461	0.9844	0.0076	0.037
Mof_C 	C 	0.5216	0.0245	0.0532	0.035
Mof_C 	C 	0.57457	0.19002	0.21863	0.007
Mof_H 	H 	0.5772	0.1696	0.2016	0.036
Mof_C 	C 	0.60474	0.22702	0.2125	-0.064
Mof_H 	H 	0.6277	0.2316	0.1913	0.051
Mof_C 	C 	0.60089	0.2572	0.2377	0.023
Mof_C 	C 	0.56687	0.2504	0.2691	-0.05
Mof_H 	H 	0.5643	0.2708	0.2861	0.043
Mof_C 	C 	0.5367	0.2134	0.27521	0.003
Mof_H 	H 	0.5137	0.2088	0.2964	0.031
Mof_C 	C 	0.63703	0.29883	0.2514	-0.006
Mof_C 	C 	0.62975	0.32811	0.2706	-0.01
Mof_Zn	Zn	0.97732	0.3745	0.16496	1.213
Mof_O 	O 	0.95322	0.33735	0.08881	-0.505
Mof_O 	O 	0.89569	0.31049	0.1409	-0.524
Mof_C 	C 	0.91791	0.31588	0.0891	0.391
Mof_C 	C 	0.90168	0.29485	0.0166	-0.124
Mof_C 	C 	0.92477	0.29883	0.9573	0.042
Mof_H 	H 	0.9513	0.3146	0.961	0.03
Mof_C 	C 	0.90862	0.2796	0.8928	-0.108
Mof_H 	H 	0.9246	0.2823	0.8532	0.065
Mof_C 	C 	0.86902	0.25622	0.8845	0.043
Mof_C 	C 	0.84531	0.25261	0.945	-0.107
Mof_H 	H 	0.8187	0.2384	0.9413	0.065
Mof_C 	C 	0.86336	0.27146	0.011	0.037
Mof_H 	H 	0.8483	0.2677	0.0527	0.025
Mof_C 	C 	0.85178	0.23682	0.8157	0.025
Mof_C 	C 	0.8187	0.20151	0.8154	-0.073
Mof_H 	H 	0.8081	0.1896	0.8604	0.05
Mof_C 	C 	0.7487	0.1286	0.8099	-0.199
Mof_H 	H 	0.7604	0.1395	0.8549	0.094
Mof_C 	C 	0.71472	0.09422	0.8121	0.134
Mof_H 	H 	0.7032	0.0834	0.8572	-0.003
Mof_O 	O 	0.64779	0.0247	0.81164	-0.511
Mof_O 	O 	0.99017	0.42083	0.11246	-0.506
Mof_O 	O 	0.95721	0.44414	0.16592	-0.504
Mof_C 	C 	0.97744	0.44334	0.1159	0.413
Mof_C 	C 	0.9908	0.4742	0.0572	-0.12
Mof_C 	C 	0.0156	0.4766	0.0076	0.037
Mof_C 	C 	0.9755	0.4971	0.0532	0.035
Mof_C 	C 	0.80998	0.38455	0.21863	0.007
Mof_H 	H 	0.8304	0.4076	0.2016	0.036
Mof_C 	C 	0.77298	0.37772	0.2125	-0.064
Mof_H 	H 	0.7684	0.3961	0.1913	0.051
Mof_C 	C 	0.7428	0.34369	0.2377	0.023
Mof_C 	C 	0.7496	0.31647	0.2691	-0.05
Mof_H 	H 	0.7292	0.2935	0.2861	0.043
Mof_C 	C 	0.7866	0.3233	0.27521	0.003
Mof_H 	H 	0.7912	0.3049	0.2964	0.031
Mof_C 	C 	0.70117	0.3382	0.2514	-0.006
Mof_C 	C 	0.67189	0.30164	0.2706	-0.01
Mof_Zn	Zn	0.6255	0.60282	0.16496	1.213
Mof_O 	O 	0.66265	0.61587	0.08881	-0.505
Mof_O 	O 	0.68951	0.5852	0.1409	-0.524
Mof_C 	C 	0.68412	0.60203	0.0891	0.391
Mof_C 	C 	0.70515	0.60683	0.0166	-0.123
Mof_C 	C 	0.70117	0.62594	0.9573	0.042
Mof_H 	H 	0.6854	0.6367	0.961	0.03
Mof_C 	C 	0.7204	0.62902	0.8928	-0.108
Mof_H 	H 	0.7177	0.6423	0.8532	0.065
Mof_C 	C 	0.74378	0.6128	0.8845	0.043
Mof_C 	C 	0.74739	0.5927	0.945	-0.107
Mof_H 	H 	0.7616	0.5803	0.9413	0.065
Mof_C 	C 	0.72854	0.5919	0.011	0.037
Mof_H 	H 	0.7323	0.5806	0.0527	0.025
Mof_C 	C 	0.76318	0.61496	0.8157	0.025
Mof_C 	C 	0.79849	0.61719	0.8154	-0.073
Mof_H 	H 	0.8104	0.6185	0.8604	0.05
Mof_C 	C 	0.8714	0.6201	0.8099	-0.199
Mof_H 	H 	0.8605	0.6209	0.8549	0.094
Mof_C 	C 	0.90578	0.6205	0.8121	0.134
Mof_H 	H 	0.9166	0.6198	0.8572	-0.003
Mof_O 	O 	0.9753	0.62309	0.81164	-0.511
Mof_O 	O 	0.57917	0.56934	0.11246	-0.506
Mof_O 	O 	0.55586	0.51307	0.16592	-0.504
Mof_C 	C 	0.55666	0.5341	0.1159	0.413
Mof_C 	C 	0.5258	0.5166	0.0572	-0.12
Mof_C 	C 	0.5234	0.539	0.0076	0.036
Mof_C 	C 	0.5029	0.4784	0.0532	0.035
Mof_C 	C 	0.61545	0.42543	0.21863	0.007
Mof_H 	H 	0.5924	0.4228	0.2016	0.036
Mof_C 	C 	0.62228	0.39526	0.2125	-0.064
Mof_H 	H 	0.6039	0.3723	0.1913	0.051
Mof_C 	C 	0.65631	0.39911	0.2377	0.023
Mof_C 	C 	0.68353	0.43313	0.2691	-0.05
Mof_H 	H 	0.7065	0.4357	0.2861	0.043
Mof_C 	C 	0.6767	0.4633	0.27521	0.003
Mof_H 	H 	0.6951	0.4863	0.2964	0.031
Mof_C 	C 	0.6618	0.36297	0.2514	-0.006
Mof_C 	C 	0.69836	0.37025	0.2706	-0.01
Mof_Zn	Zn	0.47461	0.06364	0.25	1.222
Mof_Zn	Zn	0.41861	0.09928	0.25	1.193
Mof_O 	O 	0.42315	0.05261	0.25	-0.96
Mof_O 	O 	0.5128	0.11677	0.25	-0.499
Mof_O 	O 	0.47349	0.14009	0.25	-0.502
Mof_C 	C 	0.5051	0.14281	0.25	0.409
Mof_C 	C 	0.54055	0.18322	0.25	-0.106
Mof_Zn	Zn	0.93636	0.41097	0.25	1.222
Mof_Zn	Zn	0.90072	0.31933	0.25	1.193
Mof_O 	O 	0.94739	0.37054	0.25	-0.96
Mof_O 	O 	0.88323	0.39603	0.25	-0.499
Mof_O 	O 	0.85991	0.3334	0.25	-0.502
Mof_C 	C 	0.85719	0.36229	0.25	0.409
Mof_C 	C 	0.81678	0.35733	0.25	-0.106
Mof_Zn	Zn	0.58903	0.52539	0.25	1.222
Mof_Zn	Zn	0.68067	0.58139	0.25	1.193
Mof_O 	O 	0.62946	0.57685	0.25	-0.96
Mof_O 	O 	0.60397	0.4872	0.25	-0.499
Mof_O 	O 	0.6666	0.52651	0.25	-0.502
Mof_C 	C 	0.63771	0.4949	0.25	0.409
Mof_C 	C 	0.64267	0.45945	0.25	-0.106
Mof_Zn	Zn	0.52539	0.93636	0.75	1.222
Mof_Zn	Zn	0.58139	0.90072	0.75	1.193
Mof_O 	O 	0.57685	0.94739	0.75	-0.96
Mof_O 	O 	0.4872	0.88323	0.75	-0.499
Mof_O 	O 	0.52651	0.85991	0.75	-0.502
Mof_C 	C 	0.4949	0.85719	0.75	0.409
Mof_C 	C 	0.45945	0.81678	0.75	-0.106
Mof_Zn	Zn	0.06364	0.58903	0.75	1.222
Mof_Zn	Zn	0.09928	0.68067	0.75	1.193
Mof_O 	O 	0.05261	0.62946	0.75	-0.96
Mof_O 	O 	0.11677	0.60397	0.75	-0.499
Mof_O 	O 	0.14009	0.6666	0.75	-0.502
Mof_C 	C 	0.14281	0.63771	0.75	0.409
Mof_C 	C 	0.18322	0.64267	0.75	-0.106
Mof_Zn	Zn	0.41097	0.47461	0.75	1.222
Mof_Zn	Zn	0.31933	0.41861	0.75	1.193
Mof_O 	O 	0.37054	0.42315	0.75	-0.96
Mof_O 	O 	0.39603	0.5128	0.75	-0.499
Mof_O 	O 	0.3334	0.47349	0.75	-0.502
Mof_C 	C 	0.36229	0.5051	0.75	0.409
Mof_C 	C 	0.35733	0.54055	0.75	-0.106
Mof_C 	C 	0.3858	0.1312	0.75	-0.092
Mof_H 	H 	0.3869	0.1086	0.75	0.062
Mof_C 	C 	0.3825	0.1993	0.75	-0.014
Mof_C 	C 	0.3815	0.2346	0.75	0.137
Mof_C 	C 	0.378	0.301	0.75	-0.208
Mof_C 	C 	0.378	0.3377	0.75	0.403
Mof_C 	C 	0.8688	0.2546	0.75	-0.092
Mof_H 	H 	0.8914	0.2783	0.75	0.062
Mof_C 	C 	0.8007	0.1832	0.75	-0.014
Mof_C 	C 	0.7654	0.1469	0.75	0.137
Mof_C 	C 	0.699	0.077	0.75	-0.208
Mof_C 	C 	0.6623	0.0403	0.75	0.403
Mof_C 	C 	0.7454	0.6142	0.75	-0.092
Mof_H 	H 	0.7217	0.6131	0.75	0.062
Mof_C 	C 	0.8168	0.6175	0.75	-0.014
Mof_C 	C 	0.8531	0.6185	0.75	0.137
Mof_C 	C 	0.923	0.622	0.75	-0.208
Mof_C 	C 	0.9597	0.622	0.75	0.403
Mof_C 	C 	0.6142	0.8688	0.25	-0.092
Mof_H 	H 	0.6131	0.8914	0.25	0.062
Mof_C 	C 	0.6175	0.8007	0.25	-0.014
Mof_C 	C 	0.6185	0.7654	0.25	0.137
Mof_C 	C 	0.622	0.699	0.25	-0.208
Mof_C 	C 	0.622	0.6623	0.25	0.403
Mof_C 	C 	0.1312	0.7454	0.25	-0.092
Mof_H 	H 	0.1086	0.7217	0.25	0.062
Mof_C 	C 	0.1993	0.8168	0.25	-0.014
Mof_C 	C 	0.2346	0.8531	0.25	0.137
Mof_C 	C 	0.301	0.923	0.25	-0.208
Mof_C 	C 	0.3377	0.9597	0.25	0.403
Mof_C 	C 	0.2546	0.3858	0.25	-0.092
Mof_H 	H 	0.2783	0.3869	0.25	0.062
Mof_C 	C 	0.1832	0.3825	0.25	-0.014
Mof_C 	C 	0.1469	0.3815	0.25	0.137
Mof_C 	C 	0.077	0.378	0.25	-0.208
Mof_C 	C 	0.0403	0.378	0.25	0.403
_end
