data_functionalizedCrystal
_audit_creation_method	'EQeq! by Chris Wilmer'
_symmetry_space_group_name_H-M	'P1'
_symmetry_Int_Tables_number	1
_symmetry_cell_setting	triclinic
loop_
_symmetry_equiv_pos_as_xyz
  x,y,z
_cell_length_a	25.3688
_cell_length_b	25.3688
_cell_length_c	25.3688
_cell_angle_alpha	90
_cell_angle_beta	90
_cell_angle_gamma	90
loop_
_atom_site_label
_atom_site_type_symbol
_atom_site_fract_x
_atom_site_fract_y
_atom_site_fract_z
_atom_site_charge
Mof_C 	C 	0.3115	0.5358	0.9231	-0.158
Mof_H 	H 	0.3301	0.5444	0.8917	0.098
Mof_C 	C 	0.2574	0.5429	0.9253	-0.02
Mof_H 	H 	0.2392	0.5585	0.8966	0.043
Mof_C 	C 	0.3973	0.5108	0.9634	0.367
Mof_C 	C 	0.3386	0.5162	0.9666	0.259
Mof_C 	C 	0.3091	0.4995	0.01	-0.155
Mof_H 	H 	0.3275	0.484	0.0387	0.105
Mof_C 	C 	0.2541	0.5042	0.0139	-0.011
Mof_H 	H 	0.2348	0.4928	0.0439	0.042
Mof_C 	C 	0.2302	0.527	0.9699	0.075
Mof_C 	C 	0.1711	0.5338	0.9713	0.268
Mof_C 	C 	0.548	0.4289	0.7406	-0.008
Mof_H 	H 	0.5737	0.4062	0.7557	0.021
Mof_C 	C 	0.5395	0.4267	0.6858	-0.024
Mof_H 	H 	0.5612	0.4062	0.6632	0.019
Mof_C 	C 	0.5301	0.4692	0.8329	0.392
Mof_C 	C 	0.5185	0.4652	0.776	-0.032
Mof_C 	C 	0.4788	0.4931	0.7516	-0.014
Mof_H 	H 	0.4582	0.5159	0.773	-0.013
Mof_C 	C 	0.4665	0.4907	0.6989	-0.008
Mof_H 	H 	0.4386	0.5113	0.6847	0.029
Mof_C 	C 	0.4968	0.4567	0.6664	-0.025
Mof_C 	C 	0.4878	0.4503	0.6082	0.225
Mof_O 	O 	0.1494	0.5627	0.932	-0.454
Mof_O 	O 	0.4222	0.5368	0.9304	-0.97
Mof_O 	O 	0.4175	0.4809	0.0008	-0.282
Mof_O 	O 	0.1483	0.511	0.01	-0.354
Mof_O 	O 	0.5584	0.4343	0.8516	-0.511
Mof_O 	O 	0.5118	0.5097	0.8549	-0.532
Mof_O 	O 	0.5167	0.4222	0.5793	-0.01
Mof_O 	O 	0.4478	0.4755	0.5901	-0.428
Mof_Zn	Zn	0.47656	0.42563	0.00148	1.221
Mof_Zn	Zn	0.52292	0.42609	0.5028	1.225
Mof_C 	C 	0.3915	0.4834	0.9584	-0.349
Mof_C 	C 	0.335	0.4954	0.9541	-0.167
Mof_C 	C 	0.2985	0.4574	0.9677	0.071
Mof_H 	H 	0.3115	0.4238	0.978	0.03
Mof_C 	C 	0.245	0.4642	0.9677	-0.028
Mof_H 	H 	0.2212	0.4373	0.9783	0.056
Mof_C 	C 	0.2282	0.5131	0.951	-0.141
Mof_C 	C 	0.1707	0.5214	0.9492	0.09
Mof_H 	H 	0.5715	0.404	0.7556	0.021
Mof_H 	H 	0.5552	0.4003	0.6643	0.024
Mof_C 	C 	0.5242	0.4651	0.7744	-0.045
Mof_C 	C 	0.4904	0.5022	0.7517	0.001
Mof_H 	H 	0.4727	0.5269	0.7737	0.064
Mof_C 	C 	0.4821	0.5038	0.6974	-0.02
Mof_H 	H 	0.4603	0.5304	0.6826	0.029
Mof_C 	C 	0.5061	0.4662	0.6645	-0.039
Mof_C 	C 	0.4913	0.473	0.6073	0.174
Mof_O 	O 	0.4198	0.5161	0.9363	0.564
Mof_O 	O 	0.4042	0.4401	0.9836	-0.169
Mof_O 	O 	0.1402	0.4892	0.9708	-0.283
Mof_O 	O 	0.5212	0.447	0.5769	-0.489
Mof_O 	O 	0.4539	0.5013	0.5931	-0.084
Mof_C 	C 	0.3157	0.5446	0.9404	0.001
Mof_H 	H 	0.3397	0.5726	0.9338	0.056
Mof_C 	C 	0.2621	0.5536	0.9363	0.043
Mof_H 	H 	0.2489	0.5863	0.9239	0.014
Mof_C 	C 	0.1885	0.4642	0.4231	-0.155
Mof_H 	H 	0.1699	0.4556	0.3917	0.098
Mof_C 	C 	0.2426	0.4571	0.4253	-0.019
Mof_H 	H 	0.2608	0.4415	0.3966	0.044
Mof_C 	C 	0.1027	0.4892	0.4634	0.358
Mof_C 	C 	0.1614	0.4838	0.4666	0.255
Mof_C 	C 	0.1909	0.5005	0.51	-0.15
Mof_H 	H 	0.1725	0.516	0.5387	0.105
Mof_C 	C 	0.2459	0.4958	0.5139	-0.012
Mof_H 	H 	0.2652	0.5072	0.5439	0.043
Mof_C 	C 	0.2698	0.473	0.4699	0.076
Mof_C 	C 	0.3289	0.4662	0.4713	0.271
Mof_C 	C 	0.952	0.5711	0.2406	-0.007
Mof_H 	H 	0.9263	0.5938	0.2557	0.021
Mof_C 	C 	0.9605	0.5733	0.1858	-0.024
Mof_H 	H 	0.9388	0.5938	0.1632	0.019
Mof_C 	C 	0.9699	0.5308	0.3329	0.392
Mof_C 	C 	0.9815	0.5348	0.276	-0.032
Mof_C 	C 	0.0212	0.5069	0.2516	-0.014
Mof_H 	H 	0.0418	0.4841	0.273	-0.014
Mof_C 	C 	0.0335	0.5093	0.1989	-0.007
Mof_H 	H 	0.0614	0.4887	0.1847	0.029
Mof_C 	C 	0.0032	0.5433	0.1664	-0.023
Mof_C 	C 	0.0122	0.5497	0.1082	0.226
Mof_O 	O 	0.3506	0.4373	0.432	-0.454
Mof_O 	O 	0.0778	0.4632	0.4304	-0.964
Mof_O 	O 	0.0825	0.5191	0.5008	-0.281
Mof_O 	O 	0.3517	0.489	0.51	-0.354
Mof_O 	O 	0.9416	0.5657	0.3516	-0.511
Mof_O 	O 	0.9882	0.4903	0.3549	-0.532
Mof_O 	O 	0.9833	0.5778	0.0793	-0.01
Mof_O 	O 	0.0522	0.5245	0.0901	-0.428
Mof_Zn	Zn	0.02344	0.57437	0.50148	1.221
Mof_Zn	Zn	0.97708	0.57391	0.0028	1.225
Mof_C 	C 	0.1085	0.5166	0.4584	-0.338
Mof_C 	C 	0.165	0.5046	0.4541	-0.162
Mof_C 	C 	0.2015	0.5426	0.4677	0.066
Mof_H 	H 	0.1885	0.5762	0.478	0.031
Mof_C 	C 	0.255	0.5358	0.4677	-0.026
Mof_H 	H 	0.2788	0.5627	0.4783	0.055
Mof_C 	C 	0.2718	0.4869	0.451	-0.141
Mof_C 	C 	0.3293	0.4786	0.4492	0.088
Mof_H 	H 	0.9285	0.596	0.2556	0.021
Mof_H 	H 	0.9448	0.5997	0.1643	0.024
Mof_C 	C 	0.9758	0.5349	0.2744	-0.044
Mof_C 	C 	0.0096	0.4978	0.2517	0.001
Mof_H 	H 	0.0273	0.4731	0.2737	0.064
Mof_C 	C 	0.0179	0.4962	0.1974	-0.02
Mof_H 	H 	0.0397	0.4696	0.1826	0.029
Mof_C 	C 	0.9939	0.5338	0.1645	-0.041
Mof_C 	C 	0.0087	0.527	0.1073	0.173
Mof_O 	O 	0.0802	0.4839	0.4363	0.559
Mof_O 	O 	0.0958	0.5599	0.4836	-0.173
Mof_O 	O 	0.3598	0.5108	0.4708	-0.283
Mof_O 	O 	0.9788	0.553	0.0769	-0.488
Mof_O 	O 	0.0461	0.4987	0.0931	-0.083
Mof_C 	C 	0.1843	0.4554	0.4404	0
Mof_H 	H 	0.1603	0.4274	0.4338	0.057
Mof_C 	C 	0.2379	0.4464	0.4363	0.042
Mof_H 	H 	0.2511	0.4137	0.4239	0.014
Mof_C 	C 	0.6885	0.0358	0.5769	-0.145
Mof_H 	H 	0.6699	0.0444	0.6083	0.094
Mof_C 	C 	0.7426	0.0429	0.5747	-0.014
Mof_H 	H 	0.7608	0.0585	0.6034	0.041
Mof_C 	C 	0.6027	0.0108	0.5366	0.332
Mof_C 	C 	0.6614	0.0162	0.5334	0.237
Mof_C 	C 	0.6909	0.9995	0.49	-0.145
Mof_H 	H 	0.6725	0.984	0.4613	0.104
Mof_C 	C 	0.7459	0.0042	0.4861	-0.004
Mof_H 	H 	0.7652	0.9928	0.4561	0.042
Mof_C 	C 	0.7698	0.027	0.5301	0.052
Mof_C 	C 	0.8289	0.0338	0.5287	0.242
Mof_C 	C 	0.452	0.9289	0.7594	-0.007
Mof_H 	H 	0.4263	0.9062	0.7443	0.021
Mof_C 	C 	0.4605	0.9267	0.8142	-0.024
Mof_H 	H 	0.4388	0.9062	0.8368	0.019
Mof_C 	C 	0.4699	0.9692	0.6671	0.393
Mof_C 	C 	0.4815	0.9652	0.724	-0.032
Mof_C 	C 	0.5212	0.9931	0.7484	-0.017
Mof_H 	H 	0.5418	0.0159	0.727	-0.01
Mof_C 	C 	0.5335	0.9907	0.8011	-0.012
Mof_H 	H 	0.5614	0.0113	0.8153	0.03
Mof_C 	C 	0.5032	0.9567	0.8336	-0.025
Mof_C 	C 	0.5122	0.9503	0.8918	0.228
Mof_O 	O 	0.8506	0.0627	0.568	-0.456
Mof_O 	O 	0.5778	0.0368	0.5696	-0.954
Mof_O 	O 	0.5825	0.9809	0.4992	-0.278
Mof_O 	O 	0.8517	0.011	0.49	-0.346
Mof_O 	O 	0.4416	0.9343	0.6484	-0.512
Mof_O 	O 	0.4882	0.0097	0.6451	-0.534
Mof_O 	O 	0.4833	0.9222	0.9207	-0.013
Mof_O 	O 	0.5522	0.9755	0.9099	-0.424
Mof_Zn	Zn	0.52344	0.92563	0.49852	1.221
Mof_Zn	Zn	0.47708	0.92609	0.9972	1.226
Mof_C 	C 	0.6085	0.9834	0.5416	-0.311
Mof_C 	C 	0.665	0.9954	0.5459	-0.145
Mof_C 	C 	0.7015	0.9574	0.5323	0.059
Mof_H 	H 	0.6885	0.9238	0.522	0.033
Mof_C 	C 	0.755	0.9642	0.5323	-0.032
Mof_H 	H 	0.7788	0.9373	0.5217	0.056
Mof_C 	C 	0.7718	0.0131	0.549	-0.117
Mof_C 	C 	0.8293	0.0214	0.5508	0.116
Mof_H 	H 	0.4285	0.904	0.7444	0.021
Mof_H 	H 	0.4448	0.9003	0.8357	0.024
Mof_C 	C 	0.4758	0.9651	0.7256	-0.045
Mof_C 	C 	0.5096	0.0022	0.7483	0.004
Mof_H 	H 	0.5273	0.0269	0.7263	0.061
Mof_C 	C 	0.5179	0.0038	0.8026	-0.015
Mof_H 	H 	0.5397	0.0304	0.8174	0.028
Mof_C 	C 	0.4939	0.9662	0.8355	-0.038
Mof_C 	C 	0.5087	0.973	0.8927	0.171
Mof_O 	O 	0.5802	0.0161	0.5637	0.555
Mof_O 	O 	0.5958	0.9401	0.5164	-0.18
Mof_O 	O 	0.8598	0.9892	0.5292	-0.288
Mof_O 	O 	0.4788	0.947	0.9231	-0.486
Mof_O 	O 	0.5461	0.0013	0.9069	-0.087
Mof_C 	C 	0.6843	0.0446	0.5596	-0.006
Mof_H 	H 	0.6603	0.0726	0.5662	0.059
Mof_C 	C 	0.7379	0.0536	0.5637	0.033
Mof_H 	H 	0.7511	0.0863	0.5761	0.018
Mof_C 	C 	0.8115	0.9642	0.0769	-0.159
Mof_H 	H 	0.8301	0.9556	0.1083	0.1
Mof_C 	C 	0.7574	0.9571	0.0747	-0.025
Mof_H 	H 	0.7392	0.9415	0.1034	0.047
Mof_C 	C 	0.8973	0.9892	0.0366	0.357
Mof_C 	C 	0.8386	0.9838	0.0334	0.259
Mof_C 	C 	0.8091	0.0005	0.99	-0.148
Mof_H 	H 	0.8275	0.016	0.9613	0.104
Mof_C 	C 	0.7541	0.9958	0.9861	-0.019
Mof_H 	H 	0.7348	0.0072	0.9561	0.045
Mof_C 	C 	0.7302	0.973	0.0301	0.099
Mof_C 	C 	0.6711	0.9662	0.0287	0.302
Mof_C 	C 	0.048	0.0711	0.2594	-0.007
Mof_H 	H 	0.0737	0.0938	0.2443	0.021
Mof_C 	C 	0.0395	0.0733	0.3142	-0.024
Mof_H 	H 	0.0612	0.0938	0.3368	0.019
Mof_C 	C 	0.0301	0.0308	0.1671	0.392
Mof_C 	C 	0.0185	0.0348	0.224	-0.032
Mof_C 	C 	0.9788	0.0069	0.2484	-0.011
Mof_H 	H 	0.9582	0.9841	0.227	-0.018
Mof_C 	C 	0.9665	0.0093	0.3011	-0.003
Mof_H 	H 	0.9386	0.9887	0.3153	0.028
Mof_C 	C 	0.9968	0.0433	0.3336	-0.027
Mof_C 	C 	0.9878	0.0497	0.3918	0.223
Mof_O 	O 	0.6494	0.9373	0.068	-0.452
Mof_O 	O 	0.9222	0.9632	0.0696	-0.961
Mof_O 	O 	0.9175	0.0191	0.9992	-0.28
Mof_O 	O 	0.6483	0.989	0.99	-0.361
Mof_O 	O 	0.0584	0.0657	0.1484	-0.511
Mof_O 	O 	0.0118	0.9903	0.1451	-0.532
Mof_O 	O 	0.0167	0.0778	0.4207	-0.007
Mof_O 	O 	0.9478	0.0245	0.4099	-0.433
Mof_Zn	Zn	0.97656	0.07437	0.99852	1.222
Mof_Zn	Zn	0.02292	0.07391	0.4972	1.225
Mof_C 	C 	0.8915	0.0166	0.0416	-0.336
Mof_C 	C 	0.835	0.0046	0.0459	-0.167
Mof_C 	C 	0.7985	0.0426	0.0323	0.063
Mof_H 	H 	0.8115	0.0762	0.022	0.032
Mof_C 	C 	0.745	0.0358	0.0323	-0.016
Mof_H 	H 	0.7212	0.0627	0.0217	0.051
Mof_C 	C 	0.7282	0.9869	0.049	-0.165
Mof_C 	C 	0.6707	0.9786	0.0508	0.056
Mof_H 	H 	0.0715	0.096	0.2444	0.021
Mof_H 	H 	0.0552	0.0997	0.3357	0.024
Mof_C 	C 	0.0242	0.0349	0.2256	-0.045
Mof_C 	C 	0.9904	0.9978	0.2483	-0.001
Mof_H 	H 	0.9727	0.9731	0.2263	0.069
Mof_C 	C 	0.9821	0.9962	0.3026	-0.025
Mof_H 	H 	0.9603	0.9696	0.3174	0.031
Mof_C 	C 	0.0061	0.0338	0.3355	-0.038
Mof_C 	C 	0.9913	0.027	0.3927	0.177
Mof_O 	O 	0.9198	0.9839	0.0637	0.557
Mof_O 	O 	0.9042	0.0599	0.0164	-0.174
Mof_O 	O 	0.6402	0.0108	0.0292	-0.277
Mof_O 	O 	0.0212	0.053	0.4231	-0.492
Mof_O 	O 	0.9539	0.9987	0.4069	-0.08
Mof_C 	C 	0.8157	0.9554	0.0596	0.003
Mof_H 	H 	0.8397	0.9274	0.0662	0.056
Mof_C 	C 	0.7621	0.9464	0.0637	0.05
Mof_H 	H 	0.7489	0.9137	0.0761	0.011
Mof_C 	C 	0.9231	0.3115	0.5358	-0.157
Mof_H 	H 	0.8917	0.3301	0.5444	0.099
Mof_C 	C 	0.9253	0.2574	0.5429	-0.019
Mof_H 	H 	0.8966	0.2392	0.5585	0.044
Mof_C 	C 	0.9634	0.3973	0.5108	0.368
Mof_C 	C 	0.9666	0.3386	0.5162	0.26
Mof_C 	C 	0.01	0.3091	0.4995	-0.154
Mof_H 	H 	0.0387	0.3275	0.484	0.106
Mof_C 	C 	0.0139	0.2541	0.5042	-0.01
Mof_H 	H 	0.0439	0.2348	0.4928	0.043
Mof_C 	C 	0.9699	0.2302	0.527	0.076
Mof_C 	C 	0.9713	0.1711	0.5338	0.269
Mof_C 	C 	0.7406	0.548	0.4289	-0.007
Mof_H 	H 	0.7557	0.5737	0.4062	0.021
Mof_C 	C 	0.6858	0.5395	0.4267	-0.024
Mof_H 	H 	0.6632	0.5612	0.4062	0.019
Mof_C 	C 	0.8329	0.5301	0.4692	0.392
Mof_C 	C 	0.776	0.5185	0.4652	-0.032
Mof_C 	C 	0.7516	0.4788	0.4931	-0.014
Mof_H 	H 	0.773	0.4582	0.5159	-0.013
Mof_C 	C 	0.6989	0.4665	0.4907	-0.008
Mof_H 	H 	0.6847	0.4386	0.5113	0.029
Mof_C 	C 	0.6664	0.4968	0.4567	-0.025
Mof_C 	C 	0.6082	0.4878	0.4503	0.225
Mof_O 	O 	0.932	0.1494	0.5627	-0.454
Mof_O 	O 	0.9304	0.4222	0.5368	-0.97
Mof_O 	O 	0.0008	0.4175	0.4809	-0.282
Mof_O 	O 	0.01	0.1483	0.511	-0.354
Mof_O 	O 	0.8516	0.5584	0.4343	-0.511
Mof_O 	O 	0.8549	0.5118	0.5097	-0.532
Mof_O 	O 	0.5793	0.5167	0.4222	-0.01
Mof_O 	O 	0.5901	0.4478	0.4755	-0.428
Mof_Zn	Zn	0.00148	0.47656	0.42563	1.221
Mof_Zn	Zn	0.5028	0.52292	0.42609	1.225
Mof_C 	C 	0.9584	0.3915	0.4834	-0.349
Mof_C 	C 	0.9541	0.335	0.4954	-0.167
Mof_C 	C 	0.9677	0.2985	0.4574	0.071
Mof_H 	H 	0.978	0.3115	0.4238	0.03
Mof_C 	C 	0.9677	0.245	0.4642	-0.028
Mof_H 	H 	0.9783	0.2212	0.4373	0.056
Mof_C 	C 	0.951	0.2282	0.5131	-0.141
Mof_C 	C 	0.9492	0.1707	0.5214	0.09
Mof_H 	H 	0.7556	0.5715	0.404	0.021
Mof_H 	H 	0.6643	0.5552	0.4003	0.024
Mof_C 	C 	0.7744	0.5242	0.4651	-0.045
Mof_C 	C 	0.7517	0.4904	0.5022	0.001
Mof_H 	H 	0.7737	0.4727	0.5269	0.064
Mof_C 	C 	0.6974	0.4821	0.5038	-0.02
Mof_H 	H 	0.6826	0.4603	0.5304	0.029
Mof_C 	C 	0.6645	0.5061	0.4662	-0.039
Mof_C 	C 	0.6073	0.4913	0.473	0.174
Mof_O 	O 	0.9363	0.4198	0.5161	0.564
Mof_O 	O 	0.9836	0.4042	0.4401	-0.169
Mof_O 	O 	0.9708	0.1402	0.4892	-0.283
Mof_O 	O 	0.5769	0.5212	0.447	-0.489
Mof_O 	O 	0.5931	0.4539	0.5013	-0.084
Mof_C 	C 	0.9404	0.3157	0.5446	0.001
Mof_H 	H 	0.9338	0.3397	0.5726	0.056
Mof_C 	C 	0.9363	0.2621	0.5536	0.043
Mof_H 	H 	0.9239	0.2489	0.5863	0.014
Mof_C 	C 	0.4231	0.1885	0.4642	-0.155
Mof_H 	H 	0.3917	0.1699	0.4556	0.098
Mof_C 	C 	0.4253	0.2426	0.4571	-0.019
Mof_H 	H 	0.3966	0.2608	0.4415	0.044
Mof_C 	C 	0.4634	0.1027	0.4892	0.358
Mof_C 	C 	0.4666	0.1614	0.4838	0.255
Mof_C 	C 	0.51	0.1909	0.5005	-0.15
Mof_H 	H 	0.5387	0.1725	0.516	0.105
Mof_C 	C 	0.5139	0.2459	0.4958	-0.012
Mof_H 	H 	0.5439	0.2652	0.5072	0.043
Mof_C 	C 	0.4699	0.2698	0.473	0.076
Mof_C 	C 	0.4713	0.3289	0.4662	0.271
Mof_C 	C 	0.2406	0.952	0.5711	-0.007
Mof_H 	H 	0.2557	0.9263	0.5938	0.021
Mof_C 	C 	0.1858	0.9605	0.5733	-0.024
Mof_H 	H 	0.1632	0.9388	0.5938	0.019
Mof_C 	C 	0.3329	0.9699	0.5308	0.392
Mof_C 	C 	0.276	0.9815	0.5348	-0.032
Mof_C 	C 	0.2516	0.0212	0.5069	-0.014
Mof_H 	H 	0.273	0.0418	0.4841	-0.014
Mof_C 	C 	0.1989	0.0335	0.5093	-0.007
Mof_H 	H 	0.1847	0.0614	0.4887	0.029
Mof_C 	C 	0.1664	0.0032	0.5433	-0.023
Mof_C 	C 	0.1082	0.0122	0.5497	0.226
Mof_O 	O 	0.432	0.3506	0.4373	-0.454
Mof_O 	O 	0.4304	0.0778	0.4632	-0.964
Mof_O 	O 	0.5008	0.0825	0.5191	-0.281
Mof_O 	O 	0.51	0.3517	0.489	-0.354
Mof_O 	O 	0.3516	0.9416	0.5657	-0.511
Mof_O 	O 	0.3549	0.9882	0.4903	-0.532
Mof_O 	O 	0.0793	0.9833	0.5778	-0.01
Mof_O 	O 	0.0901	0.0522	0.5245	-0.428
Mof_Zn	Zn	0.50148	0.02344	0.57437	1.221
Mof_Zn	Zn	0.0028	0.97708	0.57391	1.225
Mof_C 	C 	0.4584	0.1085	0.5166	-0.338
Mof_C 	C 	0.4541	0.165	0.5046	-0.162
Mof_C 	C 	0.4677	0.2015	0.5426	0.066
Mof_H 	H 	0.478	0.1885	0.5762	0.031
Mof_C 	C 	0.4677	0.255	0.5358	-0.026
Mof_H 	H 	0.4783	0.2788	0.5627	0.055
Mof_C 	C 	0.451	0.2718	0.4869	-0.141
Mof_C 	C 	0.4492	0.3293	0.4786	0.088
Mof_H 	H 	0.2556	0.9285	0.596	0.021
Mof_H 	H 	0.1643	0.9448	0.5997	0.024
Mof_C 	C 	0.2744	0.9758	0.5349	-0.044
Mof_C 	C 	0.2517	0.0096	0.4978	0.001
Mof_H 	H 	0.2737	0.0273	0.4731	0.064
Mof_C 	C 	0.1974	0.0179	0.4962	-0.02
Mof_H 	H 	0.1826	0.0397	0.4696	0.029
Mof_C 	C 	0.1645	0.9939	0.5338	-0.041
Mof_C 	C 	0.1073	0.0087	0.527	0.173
Mof_O 	O 	0.4363	0.0802	0.4839	0.559
Mof_O 	O 	0.4836	0.0958	0.5599	-0.173
Mof_O 	O 	0.4708	0.3598	0.5108	-0.283
Mof_O 	O 	0.0769	0.9788	0.553	-0.488
Mof_O 	O 	0.0931	0.0461	0.4987	-0.083
Mof_C 	C 	0.4404	0.1843	0.4554	0
Mof_H 	H 	0.4338	0.1603	0.4274	0.057
Mof_C 	C 	0.4363	0.2379	0.4464	0.042
Mof_H 	H 	0.4239	0.2511	0.4137	0.014
Mof_C 	C 	0.5769	0.6885	0.0358	-0.145
Mof_H 	H 	0.6083	0.6699	0.0444	0.094
Mof_C 	C 	0.5747	0.7426	0.0429	-0.014
Mof_H 	H 	0.6034	0.7608	0.0585	0.041
Mof_C 	C 	0.5366	0.6027	0.0108	0.332
Mof_C 	C 	0.5334	0.6614	0.0162	0.237
Mof_C 	C 	0.49	0.6909	0.9995	-0.145
Mof_H 	H 	0.4613	0.6725	0.984	0.104
Mof_C 	C 	0.4861	0.7459	0.0042	-0.004
Mof_H 	H 	0.4561	0.7652	0.9928	0.042
Mof_C 	C 	0.5301	0.7698	0.027	0.052
Mof_C 	C 	0.5287	0.8289	0.0338	0.242
Mof_C 	C 	0.7594	0.452	0.9289	-0.007
Mof_H 	H 	0.7443	0.4263	0.9062	0.021
Mof_C 	C 	0.8142	0.4605	0.9267	-0.024
Mof_H 	H 	0.8368	0.4388	0.9062	0.019
Mof_C 	C 	0.6671	0.4699	0.9692	0.393
Mof_C 	C 	0.724	0.4815	0.9652	-0.032
Mof_C 	C 	0.7484	0.5212	0.9931	-0.017
Mof_H 	H 	0.727	0.5418	0.0159	-0.01
Mof_C 	C 	0.8011	0.5335	0.9907	-0.012
Mof_H 	H 	0.8153	0.5614	0.0113	0.03
Mof_C 	C 	0.8336	0.5032	0.9567	-0.025
Mof_C 	C 	0.8918	0.5122	0.9503	0.228
Mof_O 	O 	0.568	0.8506	0.0627	-0.456
Mof_O 	O 	0.5696	0.5778	0.0368	-0.954
Mof_O 	O 	0.4992	0.5825	0.9809	-0.278
Mof_O 	O 	0.49	0.8517	0.011	-0.346
Mof_O 	O 	0.6484	0.4416	0.9343	-0.512
Mof_O 	O 	0.6451	0.4882	0.0097	-0.534
Mof_O 	O 	0.9207	0.4833	0.9222	-0.013
Mof_O 	O 	0.9099	0.5522	0.9755	-0.424
Mof_Zn	Zn	0.49852	0.52344	0.92563	1.221
Mof_Zn	Zn	0.9972	0.47708	0.92609	1.226
Mof_C 	C 	0.5416	0.6085	0.9834	-0.311
Mof_C 	C 	0.5459	0.665	0.9954	-0.145
Mof_C 	C 	0.5323	0.7015	0.9574	0.059
Mof_H 	H 	0.522	0.6885	0.9238	0.033
Mof_C 	C 	0.5323	0.755	0.9642	-0.032
Mof_H 	H 	0.5217	0.7788	0.9373	0.056
Mof_C 	C 	0.549	0.7718	0.0131	-0.117
Mof_C 	C 	0.5508	0.8293	0.0214	0.116
Mof_H 	H 	0.7444	0.4285	0.904	0.021
Mof_H 	H 	0.8357	0.4448	0.9003	0.024
Mof_C 	C 	0.7256	0.4758	0.9651	-0.045
Mof_C 	C 	0.7483	0.5096	0.0022	0.004
Mof_H 	H 	0.7263	0.5273	0.0269	0.061
Mof_C 	C 	0.8026	0.5179	0.0038	-0.015
Mof_H 	H 	0.8174	0.5397	0.0304	0.028
Mof_C 	C 	0.8355	0.4939	0.9662	-0.038
Mof_C 	C 	0.8927	0.5087	0.973	0.171
Mof_O 	O 	0.5637	0.5802	0.0161	0.555
Mof_O 	O 	0.5164	0.5958	0.9401	-0.18
Mof_O 	O 	0.5292	0.8598	0.9892	-0.288
Mof_O 	O 	0.9231	0.4788	0.947	-0.486
Mof_O 	O 	0.9069	0.5461	0.0013	-0.087
Mof_C 	C 	0.5596	0.6843	0.0446	-0.006
Mof_H 	H 	0.5662	0.6603	0.0726	0.059
Mof_C 	C 	0.5637	0.7379	0.0536	0.033
Mof_H 	H 	0.5761	0.7511	0.0863	0.018
Mof_C 	C 	0.0769	0.8115	0.9642	-0.159
Mof_H 	H 	0.1083	0.8301	0.9556	0.1
Mof_C 	C 	0.0747	0.7574	0.9571	-0.025
Mof_H 	H 	0.1034	0.7392	0.9415	0.047
Mof_C 	C 	0.0366	0.8973	0.9892	0.357
Mof_C 	C 	0.0334	0.8386	0.9838	0.259
Mof_C 	C 	0.99	0.8091	0.0005	-0.148
Mof_H 	H 	0.9613	0.8275	0.016	0.104
Mof_C 	C 	0.9861	0.7541	0.9958	-0.019
Mof_H 	H 	0.9561	0.7348	0.0072	0.045
Mof_C 	C 	0.0301	0.7302	0.973	0.099
Mof_C 	C 	0.0287	0.6711	0.9662	0.302
Mof_C 	C 	0.2594	0.048	0.0711	-0.007
Mof_H 	H 	0.2443	0.0737	0.0938	0.021
Mof_C 	C 	0.3142	0.0395	0.0733	-0.024
Mof_H 	H 	0.3368	0.0612	0.0938	0.019
Mof_C 	C 	0.1671	0.0301	0.0308	0.392
Mof_C 	C 	0.224	0.0185	0.0348	-0.032
Mof_C 	C 	0.2484	0.9788	0.0069	-0.011
Mof_H 	H 	0.227	0.9582	0.9841	-0.018
Mof_C 	C 	0.3011	0.9665	0.0093	-0.003
Mof_H 	H 	0.3153	0.9386	0.9887	0.028
Mof_C 	C 	0.3336	0.9968	0.0433	-0.027
Mof_C 	C 	0.3918	0.9878	0.0497	0.223
Mof_O 	O 	0.068	0.6494	0.9373	-0.452
Mof_O 	O 	0.0696	0.9222	0.9632	-0.961
Mof_O 	O 	0.9992	0.9175	0.0191	-0.28
Mof_O 	O 	0.99	0.6483	0.989	-0.361
Mof_O 	O 	0.1484	0.0584	0.0657	-0.511
Mof_O 	O 	0.1451	0.0118	0.9903	-0.532
Mof_O 	O 	0.4207	0.0167	0.0778	-0.007
Mof_O 	O 	0.4099	0.9478	0.0245	-0.433
Mof_Zn	Zn	0.99852	0.97656	0.07437	1.222
Mof_Zn	Zn	0.4972	0.02292	0.07391	1.225
Mof_C 	C 	0.0416	0.8915	0.0166	-0.336
Mof_C 	C 	0.0459	0.835	0.0046	-0.167
Mof_C 	C 	0.0323	0.7985	0.0426	0.063
Mof_H 	H 	0.022	0.8115	0.0762	0.032
Mof_C 	C 	0.0323	0.745	0.0358	-0.016
Mof_H 	H 	0.0217	0.7212	0.0627	0.051
Mof_C 	C 	0.049	0.7282	0.9869	-0.165
Mof_C 	C 	0.0508	0.6707	0.9786	0.056
Mof_H 	H 	0.2444	0.0715	0.096	0.021
Mof_H 	H 	0.3357	0.0552	0.0997	0.024
Mof_C 	C 	0.2256	0.0242	0.0349	-0.045
Mof_C 	C 	0.2483	0.9904	0.9978	-0.001
Mof_H 	H 	0.2263	0.9727	0.9731	0.069
Mof_C 	C 	0.3026	0.9821	0.9962	-0.025
Mof_H 	H 	0.3174	0.9603	0.9696	0.031
Mof_C 	C 	0.3355	0.0061	0.0338	-0.038
Mof_C 	C 	0.3927	0.9913	0.027	0.177
Mof_O 	O 	0.0637	0.9198	0.9839	0.557
Mof_O 	O 	0.0164	0.9042	0.0599	-0.174
Mof_O 	O 	0.0292	0.6402	0.0108	-0.277
Mof_O 	O 	0.4231	0.0212	0.053	-0.492
Mof_O 	O 	0.4069	0.9539	0.9987	-0.08
Mof_C 	C 	0.0596	0.8157	0.9554	0.003
Mof_H 	H 	0.0662	0.8397	0.9274	0.056
Mof_C 	C 	0.0637	0.7621	0.9464	0.05
Mof_H 	H 	0.0761	0.7489	0.9137	0.011
Mof_C 	C 	0.5358	0.9231	0.3115	-0.157
Mof_H 	H 	0.5444	0.8917	0.3301	0.099
Mof_C 	C 	0.5429	0.9253	0.2574	-0.019
Mof_H 	H 	0.5585	0.8966	0.2392	0.044
Mof_C 	C 	0.5108	0.9634	0.3973	0.368
Mof_C 	C 	0.5162	0.9666	0.3386	0.26
Mof_C 	C 	0.4995	0.01	0.3091	-0.154
Mof_H 	H 	0.484	0.0387	0.3275	0.106
Mof_C 	C 	0.5042	0.0139	0.2541	-0.01
Mof_H 	H 	0.4928	0.0439	0.2348	0.043
Mof_C 	C 	0.527	0.9699	0.2302	0.076
Mof_C 	C 	0.5338	0.9713	0.1711	0.269
Mof_C 	C 	0.4289	0.7406	0.548	-0.007
Mof_H 	H 	0.4062	0.7557	0.5737	0.021
Mof_C 	C 	0.4267	0.6858	0.5395	-0.024
Mof_H 	H 	0.4062	0.6632	0.5612	0.019
Mof_C 	C 	0.4692	0.8329	0.5301	0.392
Mof_C 	C 	0.4652	0.776	0.5185	-0.032
Mof_C 	C 	0.4931	0.7516	0.4788	-0.014
Mof_H 	H 	0.5159	0.773	0.4582	-0.013
Mof_C 	C 	0.4907	0.6989	0.4665	-0.008
Mof_H 	H 	0.5113	0.6847	0.4386	0.029
Mof_C 	C 	0.4567	0.6664	0.4968	-0.025
Mof_C 	C 	0.4503	0.6082	0.4878	0.225
Mof_O 	O 	0.5627	0.932	0.1494	-0.454
Mof_O 	O 	0.5368	0.9304	0.4222	-0.97
Mof_O 	O 	0.4809	0.0008	0.4175	-0.282
Mof_O 	O 	0.511	0.01	0.1483	-0.354
Mof_O 	O 	0.4343	0.8516	0.5584	-0.511
Mof_O 	O 	0.5097	0.8549	0.5118	-0.532
Mof_O 	O 	0.4222	0.5793	0.5167	-0.01
Mof_O 	O 	0.4755	0.5901	0.4478	-0.428
Mof_Zn	Zn	0.42563	0.00148	0.47656	1.221
Mof_Zn	Zn	0.42609	0.5028	0.52292	1.225
Mof_C 	C 	0.4834	0.9584	0.3915	-0.349
Mof_C 	C 	0.4954	0.9541	0.335	-0.167
Mof_C 	C 	0.4574	0.9677	0.2985	0.071
Mof_H 	H 	0.4238	0.978	0.3115	0.03
Mof_C 	C 	0.4642	0.9677	0.245	-0.028
Mof_H 	H 	0.4373	0.9783	0.2212	0.056
Mof_C 	C 	0.5131	0.951	0.2282	-0.141
Mof_C 	C 	0.5214	0.9492	0.1707	0.09
Mof_H 	H 	0.404	0.7556	0.5715	0.021
Mof_H 	H 	0.4003	0.6643	0.5552	0.024
Mof_C 	C 	0.4651	0.7744	0.5242	-0.045
Mof_C 	C 	0.5022	0.7517	0.4904	0.001
Mof_H 	H 	0.5269	0.7737	0.4727	0.064
Mof_C 	C 	0.5038	0.6974	0.4821	-0.02
Mof_H 	H 	0.5304	0.6826	0.4603	0.029
Mof_C 	C 	0.4662	0.6645	0.5061	-0.039
Mof_C 	C 	0.473	0.6073	0.4913	0.174
Mof_O 	O 	0.5161	0.9363	0.4198	0.564
Mof_O 	O 	0.4401	0.9836	0.4042	-0.169
Mof_O 	O 	0.4892	0.9708	0.1402	-0.283
Mof_O 	O 	0.447	0.5769	0.5212	-0.489
Mof_O 	O 	0.5013	0.5931	0.4539	-0.084
Mof_C 	C 	0.5446	0.9404	0.3157	0.001
Mof_H 	H 	0.5726	0.9338	0.3397	0.056
Mof_C 	C 	0.5536	0.9363	0.2621	0.043
Mof_H 	H 	0.5863	0.9239	0.2489	0.014
Mof_C 	C 	0.4642	0.4231	0.1885	-0.155
Mof_H 	H 	0.4556	0.3917	0.1699	0.098
Mof_C 	C 	0.4571	0.4253	0.2426	-0.019
Mof_H 	H 	0.4415	0.3966	0.2608	0.044
Mof_C 	C 	0.4892	0.4634	0.1027	0.358
Mof_C 	C 	0.4838	0.4666	0.1614	0.255
Mof_C 	C 	0.5005	0.51	0.1909	-0.15
Mof_H 	H 	0.516	0.5387	0.1725	0.105
Mof_C 	C 	0.4958	0.5139	0.2459	-0.012
Mof_H 	H 	0.5072	0.5439	0.2652	0.043
Mof_C 	C 	0.473	0.4699	0.2698	0.076
Mof_C 	C 	0.4662	0.4713	0.3289	0.271
Mof_C 	C 	0.5711	0.2406	0.952	-0.007
Mof_H 	H 	0.5938	0.2557	0.9263	0.021
Mof_C 	C 	0.5733	0.1858	0.9605	-0.024
Mof_H 	H 	0.5938	0.1632	0.9388	0.019
Mof_C 	C 	0.5308	0.3329	0.9699	0.392
Mof_C 	C 	0.5348	0.276	0.9815	-0.032
Mof_C 	C 	0.5069	0.2516	0.0212	-0.014
Mof_H 	H 	0.4841	0.273	0.0418	-0.014
Mof_C 	C 	0.5093	0.1989	0.0335	-0.007
Mof_H 	H 	0.4887	0.1847	0.0614	0.029
Mof_C 	C 	0.5433	0.1664	0.0032	-0.023
Mof_C 	C 	0.5497	0.1082	0.0122	0.226
Mof_O 	O 	0.4373	0.432	0.3506	-0.454
Mof_O 	O 	0.4632	0.4304	0.0778	-0.964
Mof_O 	O 	0.5191	0.5008	0.0825	-0.281
Mof_O 	O 	0.489	0.51	0.3517	-0.354
Mof_O 	O 	0.5657	0.3516	0.9416	-0.511
Mof_O 	O 	0.4903	0.3549	0.9882	-0.532
Mof_O 	O 	0.5778	0.0793	0.9833	-0.01
Mof_O 	O 	0.5245	0.0901	0.0522	-0.428
Mof_Zn	Zn	0.57437	0.50148	0.02344	1.221
Mof_Zn	Zn	0.57391	0.0028	0.97708	1.225
Mof_C 	C 	0.5166	0.4584	0.1085	-0.338
Mof_C 	C 	0.5046	0.4541	0.165	-0.162
Mof_C 	C 	0.5426	0.4677	0.2015	0.066
Mof_H 	H 	0.5762	0.478	0.1885	0.031
Mof_C 	C 	0.5358	0.4677	0.255	-0.026
Mof_H 	H 	0.5627	0.4783	0.2788	0.055
Mof_C 	C 	0.4869	0.451	0.2718	-0.141
Mof_C 	C 	0.4786	0.4492	0.3293	0.088
Mof_H 	H 	0.596	0.2556	0.9285	0.021
Mof_H 	H 	0.5997	0.1643	0.9448	0.024
Mof_C 	C 	0.5349	0.2744	0.9758	-0.044
Mof_C 	C 	0.4978	0.2517	0.0096	0.001
Mof_H 	H 	0.4731	0.2737	0.0273	0.064
Mof_C 	C 	0.4962	0.1974	0.0179	-0.02
Mof_H 	H 	0.4696	0.1826	0.0397	0.029
Mof_C 	C 	0.5338	0.1645	0.9939	-0.041
Mof_C 	C 	0.527	0.1073	0.0087	0.173
Mof_O 	O 	0.4839	0.4363	0.0802	0.559
Mof_O 	O 	0.5599	0.4836	0.0958	-0.173
Mof_O 	O 	0.5108	0.4708	0.3598	-0.283
Mof_O 	O 	0.553	0.0769	0.9788	-0.488
Mof_O 	O 	0.4987	0.0931	0.0461	-0.083
Mof_C 	C 	0.4554	0.4404	0.1843	0
Mof_H 	H 	0.4274	0.4338	0.1603	0.057
Mof_C 	C 	0.4464	0.4363	0.2379	0.042
Mof_H 	H 	0.4137	0.4239	0.2511	0.014
Mof_C 	C 	0.0358	0.5769	0.6885	-0.145
Mof_H 	H 	0.0444	0.6083	0.6699	0.094
Mof_C 	C 	0.0429	0.5747	0.7426	-0.014
Mof_H 	H 	0.0585	0.6034	0.7608	0.041
Mof_C 	C 	0.0108	0.5366	0.6027	0.332
Mof_C 	C 	0.0162	0.5334	0.6614	0.237
Mof_C 	C 	0.9995	0.49	0.6909	-0.145
Mof_H 	H 	0.984	0.4613	0.6725	0.104
Mof_C 	C 	0.0042	0.4861	0.7459	-0.004
Mof_H 	H 	0.9928	0.4561	0.7652	0.042
Mof_C 	C 	0.027	0.5301	0.7698	0.052
Mof_C 	C 	0.0338	0.5287	0.8289	0.242
Mof_C 	C 	0.9289	0.7594	0.452	-0.007
Mof_H 	H 	0.9062	0.7443	0.4263	0.021
Mof_C 	C 	0.9267	0.8142	0.4605	-0.024
Mof_H 	H 	0.9062	0.8368	0.4388	0.019
Mof_C 	C 	0.9692	0.6671	0.4699	0.393
Mof_C 	C 	0.9652	0.724	0.4815	-0.032
Mof_C 	C 	0.9931	0.7484	0.5212	-0.017
Mof_H 	H 	0.0159	0.727	0.5418	-0.01
Mof_C 	C 	0.9907	0.8011	0.5335	-0.012
Mof_H 	H 	0.0113	0.8153	0.5614	0.03
Mof_C 	C 	0.9567	0.8336	0.5032	-0.025
Mof_C 	C 	0.9503	0.8918	0.5122	0.228
Mof_O 	O 	0.0627	0.568	0.8506	-0.456
Mof_O 	O 	0.0368	0.5696	0.5778	-0.954
Mof_O 	O 	0.9809	0.4992	0.5825	-0.278
Mof_O 	O 	0.011	0.49	0.8517	-0.346
Mof_O 	O 	0.9343	0.6484	0.4416	-0.512
Mof_O 	O 	0.0097	0.6451	0.4882	-0.534
Mof_O 	O 	0.9222	0.9207	0.4833	-0.013
Mof_O 	O 	0.9755	0.9099	0.5522	-0.424
Mof_Zn	Zn	0.92563	0.49852	0.52344	1.221
Mof_Zn	Zn	0.92609	0.9972	0.47708	1.226
Mof_C 	C 	0.9834	0.5416	0.6085	-0.311
Mof_C 	C 	0.9954	0.5459	0.665	-0.145
Mof_C 	C 	0.9574	0.5323	0.7015	0.059
Mof_H 	H 	0.9238	0.522	0.6885	0.033
Mof_C 	C 	0.9642	0.5323	0.755	-0.032
Mof_H 	H 	0.9373	0.5217	0.7788	0.056
Mof_C 	C 	0.0131	0.549	0.7718	-0.117
Mof_C 	C 	0.0214	0.5508	0.8293	0.116
Mof_H 	H 	0.904	0.7444	0.4285	0.021
Mof_H 	H 	0.9003	0.8357	0.4448	0.024
Mof_C 	C 	0.9651	0.7256	0.4758	-0.045
Mof_C 	C 	0.0022	0.7483	0.5096	0.004
Mof_H 	H 	0.0269	0.7263	0.5273	0.061
Mof_C 	C 	0.0038	0.8026	0.5179	-0.015
Mof_H 	H 	0.0304	0.8174	0.5397	0.028
Mof_C 	C 	0.9662	0.8355	0.4939	-0.038
Mof_C 	C 	0.973	0.8927	0.5087	0.171
Mof_O 	O 	0.0161	0.5637	0.5802	0.555
Mof_O 	O 	0.9401	0.5164	0.5958	-0.18
Mof_O 	O 	0.9892	0.5292	0.8598	-0.288
Mof_O 	O 	0.947	0.9231	0.4788	-0.486
Mof_O 	O 	0.0013	0.9069	0.5461	-0.087
Mof_C 	C 	0.0446	0.5596	0.6843	-0.006
Mof_H 	H 	0.0726	0.5662	0.6603	0.059
Mof_C 	C 	0.0536	0.5637	0.7379	0.033
Mof_H 	H 	0.0863	0.5761	0.7511	0.018
Mof_C 	C 	0.9642	0.0769	0.8115	-0.159
Mof_H 	H 	0.9556	0.1083	0.8301	0.1
Mof_C 	C 	0.9571	0.0747	0.7574	-0.025
Mof_H 	H 	0.9415	0.1034	0.7392	0.047
Mof_C 	C 	0.9892	0.0366	0.8973	0.357
Mof_C 	C 	0.9838	0.0334	0.8386	0.259
Mof_C 	C 	0.0005	0.99	0.8091	-0.148
Mof_H 	H 	0.016	0.9613	0.8275	0.104
Mof_C 	C 	0.9958	0.9861	0.7541	-0.019
Mof_H 	H 	0.0072	0.9561	0.7348	0.045
Mof_C 	C 	0.973	0.0301	0.7302	0.099
Mof_C 	C 	0.9662	0.0287	0.6711	0.302
Mof_C 	C 	0.0711	0.2594	0.048	-0.007
Mof_H 	H 	0.0938	0.2443	0.0737	0.021
Mof_C 	C 	0.0733	0.3142	0.0395	-0.024
Mof_H 	H 	0.0938	0.3368	0.0612	0.019
Mof_C 	C 	0.0308	0.1671	0.0301	0.392
Mof_C 	C 	0.0348	0.224	0.0185	-0.032
Mof_C 	C 	0.0069	0.2484	0.9788	-0.011
Mof_H 	H 	0.9841	0.227	0.9582	-0.018
Mof_C 	C 	0.0093	0.3011	0.9665	-0.003
Mof_H 	H 	0.9887	0.3153	0.9386	0.028
Mof_C 	C 	0.0433	0.3336	0.9968	-0.027
Mof_C 	C 	0.0497	0.3918	0.9878	0.223
Mof_O 	O 	0.9373	0.068	0.6494	-0.452
Mof_O 	O 	0.9632	0.0696	0.9222	-0.961
Mof_O 	O 	0.0191	0.9992	0.9175	-0.28
Mof_O 	O 	0.989	0.99	0.6483	-0.361
Mof_O 	O 	0.0657	0.1484	0.0584	-0.511
Mof_O 	O 	0.9903	0.1451	0.0118	-0.532
Mof_O 	O 	0.0778	0.4207	0.0167	-0.007
Mof_O 	O 	0.0245	0.4099	0.9478	-0.433
Mof_Zn	Zn	0.07437	0.99852	0.97656	1.222
Mof_Zn	Zn	0.07391	0.4972	0.02292	1.225
Mof_C 	C 	0.0166	0.0416	0.8915	-0.336
Mof_C 	C 	0.0046	0.0459	0.835	-0.167
Mof_C 	C 	0.0426	0.0323	0.7985	0.063
Mof_H 	H 	0.0762	0.022	0.8115	0.032
Mof_C 	C 	0.0358	0.0323	0.745	-0.016
Mof_H 	H 	0.0627	0.0217	0.7212	0.051
Mof_C 	C 	0.9869	0.049	0.7282	-0.165
Mof_C 	C 	0.9786	0.0508	0.6707	0.056
Mof_H 	H 	0.096	0.2444	0.0715	0.021
Mof_H 	H 	0.0997	0.3357	0.0552	0.024
Mof_C 	C 	0.0349	0.2256	0.0242	-0.045
Mof_C 	C 	0.9978	0.2483	0.9904	-0.001
Mof_H 	H 	0.9731	0.2263	0.9727	0.069
Mof_C 	C 	0.9962	0.3026	0.9821	-0.025
Mof_H 	H 	0.9696	0.3174	0.9603	0.031
Mof_C 	C 	0.0338	0.3355	0.0061	-0.038
Mof_C 	C 	0.027	0.3927	0.9913	0.177
Mof_O 	O 	0.9839	0.0637	0.9198	0.557
Mof_O 	O 	0.0599	0.0164	0.9042	-0.174
Mof_O 	O 	0.0108	0.0292	0.6402	-0.277
Mof_O 	O 	0.053	0.4231	0.0212	-0.492
Mof_O 	O 	0.9987	0.4069	0.9539	-0.08
Mof_C 	C 	0.9554	0.0596	0.8157	0.003
Mof_H 	H 	0.9274	0.0662	0.8397	0.056
Mof_C 	C 	0.9464	0.0637	0.7621	0.05
Mof_H 	H 	0.9137	0.0761	0.7489	0.011
Mof_O 	O 	0.5311	0.4689	0.9689	-0.961
Mof_Zn	Zn	0.5746	0.4254	0.9254	1.215
Mof_O 	O 	0.9689	0.5311	0.4689	-0.961
Mof_Zn	Zn	0.9254	0.5746	0.4254	1.215
Mof_O 	O 	0.4689	0.9689	0.5311	-0.961
Mof_Zn	Zn	0.4254	0.9254	0.5746	1.215
Mof_O 	O 	0.0311	0.0311	0.0311	-0.962
Mof_Zn	Zn	0.0746	0.0746	0.0746	1.215
Mof_O 	O 	0.4693	0.4693	0.4693	-0.923
Mof_O 	O 	0.0307	0.5307	0.9693	-0.923
Mof_O 	O 	0.5307	0.9693	0.0307	-0.923
Mof_O 	O 	0.9693	0.0307	0.5307	-0.923
Mof_Zn	Zn	0.07443	0.57443	0.92557	1.22
Mof_Zn	Zn	0.42557	0.42557	0.42557	1.22
Mof_Zn	Zn	0.92557	0.07443	0.57443	1.22
Mof_Zn	Zn	0.57443	0.92557	0.07443	1.22
_end
