data_functionalizedCrystal
_audit_creation_method	'EQeq! by Chris Wilmer'
_symmetry_space_group_name_H-M	'P1'
_symmetry_Int_Tables_number	1
_symmetry_cell_setting	triclinic
loop_
_symmetry_equiv_pos_as_xyz
  x,y,z
_cell_length_a	14.9235
_cell_length_b	14.9235
_cell_length_c	19.1457
_cell_angle_alpha	90
_cell_angle_beta	90
_cell_angle_gamma	90
loop_
_atom_site_label
_atom_site_type_symbol
_atom_site_fract_x
_atom_site_fract_y
_atom_site_fract_z
_atom_site_charge
Mof_O 	O 	0.21519	0.12061	0.29458	-0.392
Mof_O 	O 	0.18166	0.13409	0.18096	-0.39
Mof_C 	C 	0.3058	0.1743	0.0287	-0.012
Mof_H 	H 	0.368	0.1807	0.0459	0.021
Mof_H 	H 	0.2816	0.1168	0.0463	0.02
Mof_C 	C 	0.3055	0.1739	0.949	-0.015
Mof_H 	H 	0.2808	0.1163	0.932	-0.004
Mof_H 	H 	0.3677	0.1794	0.9316	-0.004
Mof_C 	C 	0.335	0.213	0.9477	-0.022
Mof_H 	H 	0.3429	0.1511	0.9303	0.018
Mof_H 	H 	0.2496	0.1143	0.9304	0.02
Mof_C 	C 	0.2875	0.3356	0.0272	-0.022
Mof_H 	H 	0.2487	0.1134	0.0443	0.004
Mof_H 	H 	0.3435	0.1504	0.0441	0.004
Mof_C 	C 	0.1572	0.2388	0.0285	-0.018
Mof_H 	H 	0.3182	0.1319	0.0462	0.014
Mof_H 	H 	0.3808	0.2115	0.0456	0.015
Mof_C 	C 	0.262	0.1567	0.9488	-0.014
Mof_H 	H 	0.3821	0.2131	0.9315	0.025
Mof_H 	H 	0.3195	0.1318	0.932	0.02
Mof_C 	C 	0.1758	0.0965	0.23948	0.345
Mof_C 	C 	0.1133	0.018	0.24459	-0.068
Mof_C 	C 	0.0773	0.9797	0.18435	-0.019
Mof_H 	H 	0.097	0.9989	0.1396	0.047
Mof_C 	C 	0.0862	0.9872	0.30993	-0.019
Mof_H 	H 	0.1133	0.0108	0.3509	0.046
Mof_O 	O 	0.28481	0.37939	0.29458	-0.392
Mof_O 	O 	0.31834	0.36591	0.18096	-0.39
Mof_C 	C 	0.1942	0.3257	0.0287	-0.012
Mof_H 	H 	0.132	0.3193	0.0459	0.021
Mof_H 	H 	0.2184	0.3832	0.0463	0.02
Mof_C 	C 	0.1945	0.3261	0.949	-0.015
Mof_H 	H 	0.2192	0.3837	0.932	-0.004
Mof_H 	H 	0.1323	0.3206	0.9316	-0.004
Mof_C 	C 	0.165	0.287	0.9477	-0.022
Mof_H 	H 	0.1571	0.3489	0.9303	0.018
Mof_H 	H 	0.2504	0.3857	0.9304	0.02
Mof_C 	C 	0.2125	0.1644	0.0272	-0.022
Mof_H 	H 	0.2513	0.3866	0.0443	0.004
Mof_H 	H 	0.1565	0.3496	0.0441	0.004
Mof_C 	C 	0.3428	0.2612	0.0285	-0.018
Mof_H 	H 	0.1818	0.3681	0.0462	0.014
Mof_H 	H 	0.1192	0.2885	0.0456	0.015
Mof_C 	C 	0.238	0.3433	0.9488	-0.014
Mof_H 	H 	0.1179	0.2869	0.9315	0.025
Mof_H 	H 	0.1805	0.3682	0.932	0.02
Mof_C 	C 	0.3242	0.4035	0.23948	0.346
Mof_C 	C 	0.3867	0.482	0.24459	-0.069
Mof_C 	C 	0.4227	0.5203	0.18435	-0.018
Mof_H 	H 	0.403	0.5011	0.1396	0.047
Mof_C 	C 	0.4138	0.5128	0.30993	-0.018
Mof_H 	H 	0.3867	0.4892	0.3509	0.046
Mof_O 	O 	0.37939	0.21519	0.29458	-0.391
Mof_O 	O 	0.36591	0.18166	0.18096	-0.389
Mof_C 	C 	0.3257	0.3058	0.0287	-0.011
Mof_H 	H 	0.3193	0.368	0.0459	0.022
Mof_H 	H 	0.3832	0.2816	0.0463	0.021
Mof_C 	C 	0.3261	0.3055	0.949	-0.014
Mof_H 	H 	0.3837	0.2808	0.932	-0.003
Mof_H 	H 	0.3206	0.3677	0.9316	-0.003
Mof_C 	C 	0.287	0.335	0.9477	-0.021
Mof_H 	H 	0.3489	0.3429	0.9303	0.019
Mof_H 	H 	0.3857	0.2496	0.9304	0.021
Mof_C 	C 	0.1644	0.2875	0.0272	-0.021
Mof_H 	H 	0.3866	0.2487	0.0443	0.005
Mof_H 	H 	0.3496	0.3435	0.0441	0.005
Mof_C 	C 	0.2612	0.1572	0.0285	-0.017
Mof_H 	H 	0.3681	0.3182	0.0462	0.015
Mof_H 	H 	0.2885	0.3808	0.0456	0.016
Mof_C 	C 	0.3433	0.262	0.9488	-0.013
Mof_H 	H 	0.2869	0.3821	0.9315	0.026
Mof_H 	H 	0.3682	0.3195	0.932	0.021
Mof_C 	C 	0.4035	0.1758	0.23948	0.347
Mof_C 	C 	0.482	0.1133	0.24459	-0.068
Mof_C 	C 	0.5203	0.0773	0.18435	-0.017
Mof_H 	H 	0.5011	0.097	0.1396	0.048
Mof_C 	C 	0.5128	0.0862	0.30993	-0.017
Mof_H 	H 	0.4892	0.1133	0.3509	0.047
Mof_O 	O 	0.12061	0.28481	0.29458	-0.391
Mof_O 	O 	0.13409	0.31834	0.18096	-0.389
Mof_C 	C 	0.1743	0.1942	0.0287	-0.011
Mof_H 	H 	0.1807	0.132	0.0459	0.022
Mof_H 	H 	0.1168	0.2184	0.0463	0.021
Mof_C 	C 	0.1739	0.1945	0.949	-0.014
Mof_H 	H 	0.1163	0.2192	0.932	-0.003
Mof_H 	H 	0.1794	0.1323	0.9316	-0.003
Mof_C 	C 	0.213	0.165	0.9477	-0.021
Mof_H 	H 	0.1511	0.1571	0.9303	0.019
Mof_H 	H 	0.1143	0.2504	0.9304	0.021
Mof_C 	C 	0.3356	0.2125	0.0272	-0.021
Mof_H 	H 	0.1134	0.2513	0.0443	0.005
Mof_H 	H 	0.1504	0.1565	0.0441	0.005
Mof_C 	C 	0.2388	0.3428	0.0285	-0.017
Mof_H 	H 	0.1319	0.1818	0.0462	0.015
Mof_H 	H 	0.2115	0.1192	0.0456	0.016
Mof_C 	C 	0.1567	0.238	0.9488	-0.013
Mof_H 	H 	0.2131	0.1179	0.9315	0.026
Mof_H 	H 	0.1318	0.1805	0.932	0.021
Mof_C 	C 	0.0965	0.3242	0.23948	0.347
Mof_C 	C 	0.018	0.3867	0.24459	-0.067
Mof_C 	C 	0.9797	0.4227	0.18435	-0.017
Mof_H 	H 	0.9989	0.403	0.1396	0.048
Mof_C 	C 	0.9872	0.4138	0.30993	-0.017
Mof_H 	H 	0.0108	0.3867	0.3509	0.047
Mof_O 	O 	0.78481	0.62061	0.20542	-0.391
Mof_O 	O 	0.81834	0.63409	0.31904	-0.389
Mof_C 	C 	0.6942	0.6743	0.4713	-0.011
Mof_H 	H 	0.632	0.6807	0.4541	0.022
Mof_H 	H 	0.7184	0.6168	0.4537	0.021
Mof_C 	C 	0.6945	0.6739	0.551	-0.014
Mof_H 	H 	0.7192	0.6163	0.568	-0.003
Mof_H 	H 	0.6323	0.6794	0.5684	-0.003
Mof_C 	C 	0.665	0.713	0.5523	-0.021
Mof_H 	H 	0.6571	0.6511	0.5697	0.019
Mof_H 	H 	0.7504	0.6143	0.5696	0.021
Mof_C 	C 	0.7125	0.8356	0.4728	-0.021
Mof_H 	H 	0.7513	0.6134	0.4557	0.005
Mof_H 	H 	0.6565	0.6504	0.4559	0.005
Mof_C 	C 	0.8428	0.7388	0.4715	-0.017
Mof_H 	H 	0.6818	0.6319	0.4538	0.015
Mof_H 	H 	0.6192	0.7115	0.4544	0.016
Mof_C 	C 	0.738	0.6567	0.5512	-0.013
Mof_H 	H 	0.6179	0.7131	0.5685	0.026
Mof_H 	H 	0.6805	0.6318	0.568	0.021
Mof_C 	C 	0.8242	0.5965	0.26052	0.347
Mof_C 	C 	0.8867	0.518	0.25541	-0.068
Mof_C 	C 	0.9227	0.4797	0.31565	-0.016
Mof_H 	H 	0.903	0.4989	0.3604	0.048
Mof_C 	C 	0.9138	0.4872	0.19007	-0.016
Mof_H 	H 	0.8867	0.5108	0.1491	0.046
Mof_O 	O 	0.71519	0.87939	0.20542	-0.391
Mof_O 	O 	0.68166	0.86591	0.31904	-0.389
Mof_C 	C 	0.8058	0.8257	0.4713	-0.011
Mof_H 	H 	0.868	0.8193	0.4541	0.022
Mof_H 	H 	0.7816	0.8832	0.4537	0.021
Mof_C 	C 	0.8055	0.8261	0.551	-0.014
Mof_H 	H 	0.7808	0.8837	0.568	-0.003
Mof_H 	H 	0.8677	0.8206	0.5684	-0.003
Mof_C 	C 	0.835	0.787	0.5523	-0.021
Mof_H 	H 	0.8429	0.8489	0.5697	0.019
Mof_H 	H 	0.7496	0.8857	0.5696	0.021
Mof_C 	C 	0.7875	0.6644	0.4728	-0.021
Mof_H 	H 	0.7487	0.8866	0.4557	0.005
Mof_H 	H 	0.8435	0.8496	0.4559	0.005
Mof_C 	C 	0.6572	0.7612	0.4715	-0.017
Mof_H 	H 	0.8182	0.8681	0.4538	0.015
Mof_H 	H 	0.8808	0.7885	0.4544	0.016
Mof_C 	C 	0.762	0.8433	0.5512	-0.013
Mof_H 	H 	0.8821	0.7869	0.5685	0.026
Mof_H 	H 	0.8195	0.8682	0.568	0.021
Mof_C 	C 	0.6758	0.9035	0.26052	0.347
Mof_C 	C 	0.6133	0.982	0.25541	-0.068
Mof_C 	C 	0.5773	0.0203	0.31565	-0.017
Mof_H 	H 	0.597	0.0011	0.3604	0.048
Mof_C 	C 	0.5862	0.0128	0.19007	-0.017
Mof_H 	H 	0.6133	0.9892	0.1491	0.046
Mof_O 	O 	0.62061	0.71519	0.20542	-0.391
Mof_O 	O 	0.63409	0.68166	0.31904	-0.389
Mof_C 	C 	0.6743	0.8058	0.4713	-0.011
Mof_H 	H 	0.6807	0.868	0.4541	0.022
Mof_H 	H 	0.6168	0.7816	0.4537	0.021
Mof_C 	C 	0.6739	0.8055	0.551	-0.014
Mof_H 	H 	0.6163	0.7808	0.568	-0.003
Mof_H 	H 	0.6794	0.8677	0.5684	-0.003
Mof_C 	C 	0.713	0.835	0.5523	-0.021
Mof_H 	H 	0.6511	0.8429	0.5697	0.019
Mof_H 	H 	0.6143	0.7496	0.5696	0.021
Mof_C 	C 	0.8356	0.7875	0.4728	-0.021
Mof_H 	H 	0.6134	0.7487	0.4557	0.005
Mof_H 	H 	0.6504	0.8435	0.4559	0.005
Mof_C 	C 	0.7388	0.6572	0.4715	-0.017
Mof_H 	H 	0.6319	0.8182	0.4538	0.015
Mof_H 	H 	0.7115	0.8808	0.4544	0.016
Mof_C 	C 	0.6567	0.762	0.5512	-0.013
Mof_H 	H 	0.7131	0.8821	0.5685	0.026
Mof_H 	H 	0.6318	0.8195	0.568	0.021
Mof_C 	C 	0.5965	0.6758	0.26052	0.347
Mof_C 	C 	0.518	0.6133	0.25541	-0.068
Mof_C 	C 	0.4797	0.5773	0.31565	-0.017
Mof_H 	H 	0.4989	0.597	0.3604	0.048
Mof_C 	C 	0.4872	0.5862	0.19007	-0.017
Mof_H 	H 	0.5108	0.6133	0.1491	0.047
Mof_O 	O 	0.87939	0.78481	0.20542	-0.391
Mof_O 	O 	0.86591	0.81834	0.31904	-0.389
Mof_C 	C 	0.8257	0.6942	0.4713	-0.011
Mof_H 	H 	0.8193	0.632	0.4541	0.022
Mof_H 	H 	0.8832	0.7184	0.4537	0.021
Mof_C 	C 	0.8261	0.6945	0.551	-0.014
Mof_H 	H 	0.8837	0.7192	0.568	-0.003
Mof_H 	H 	0.8206	0.6323	0.5684	-0.003
Mof_C 	C 	0.787	0.665	0.5523	-0.021
Mof_H 	H 	0.8489	0.6571	0.5697	0.019
Mof_H 	H 	0.8857	0.7504	0.5696	0.021
Mof_C 	C 	0.6644	0.7125	0.4728	-0.021
Mof_H 	H 	0.8866	0.7513	0.4557	0.005
Mof_H 	H 	0.8496	0.6565	0.4559	0.005
Mof_C 	C 	0.7612	0.8428	0.4715	-0.017
Mof_H 	H 	0.8681	0.6818	0.4538	0.015
Mof_H 	H 	0.7885	0.6192	0.4544	0.016
Mof_C 	C 	0.8433	0.738	0.5512	-0.013
Mof_H 	H 	0.7869	0.6179	0.5685	0.026
Mof_H 	H 	0.8682	0.6805	0.568	0.021
Mof_C 	C 	0.9035	0.8242	0.26052	0.347
Mof_C 	C 	0.982	0.8867	0.25541	-0.068
Mof_C 	C 	0.0203	0.9227	0.31565	-0.016
Mof_H 	H 	0.0011	0.903	0.3604	0.048
Mof_C 	C 	0.0128	0.9138	0.19007	-0.017
Mof_H 	H 	0.9892	0.8867	0.1491	0.047
Mof_O 	O 	0.78481	0.87939	0.70542	-0.391
Mof_O 	O 	0.81834	0.86591	0.81904	-0.389
Mof_C 	C 	0.6942	0.8257	0.9713	-0.011
Mof_H 	H 	0.632	0.8193	0.9541	0.022
Mof_H 	H 	0.7184	0.8832	0.9537	0.021
Mof_C 	C 	0.6945	0.8261	0.051	-0.014
Mof_H 	H 	0.7192	0.8837	0.068	-0.003
Mof_H 	H 	0.6323	0.8206	0.0684	-0.003
Mof_C 	C 	0.665	0.787	0.0523	-0.021
Mof_H 	H 	0.6571	0.8489	0.0697	0.019
Mof_H 	H 	0.7504	0.8857	0.0696	0.021
Mof_C 	C 	0.7125	0.6644	0.9728	-0.021
Mof_H 	H 	0.7513	0.8866	0.9557	0.005
Mof_H 	H 	0.6565	0.8496	0.9559	0.005
Mof_C 	C 	0.8428	0.7612	0.9715	-0.017
Mof_H 	H 	0.6818	0.8681	0.9538	0.015
Mof_H 	H 	0.6192	0.7885	0.9544	0.016
Mof_C 	C 	0.738	0.8433	0.0512	-0.013
Mof_H 	H 	0.6179	0.7869	0.0685	0.026
Mof_H 	H 	0.6805	0.8682	0.068	0.021
Mof_C 	C 	0.8242	0.9035	0.76052	0.346
Mof_C 	C 	0.8867	0.982	0.75541	-0.067
Mof_C 	C 	0.9227	0.0203	0.81565	-0.018
Mof_H 	H 	0.903	0.0011	0.8604	0.048
Mof_C 	C 	0.9138	0.0128	0.69007	-0.018
Mof_H 	H 	0.8867	0.9892	0.6491	0.047
Mof_O 	O 	0.71519	0.62061	0.70542	-0.391
Mof_O 	O 	0.68166	0.63409	0.81904	-0.389
Mof_C 	C 	0.8058	0.6743	0.9713	-0.011
Mof_H 	H 	0.868	0.6807	0.9541	0.022
Mof_H 	H 	0.7816	0.6168	0.9537	0.021
Mof_C 	C 	0.8055	0.6739	0.051	-0.014
Mof_H 	H 	0.7808	0.6163	0.068	-0.003
Mof_H 	H 	0.8677	0.6794	0.0684	-0.003
Mof_C 	C 	0.835	0.713	0.0523	-0.021
Mof_H 	H 	0.8429	0.6511	0.0697	0.019
Mof_H 	H 	0.7496	0.6143	0.0696	0.021
Mof_C 	C 	0.7875	0.8356	0.9728	-0.021
Mof_H 	H 	0.7487	0.6134	0.9557	0.005
Mof_H 	H 	0.8435	0.6504	0.9559	0.005
Mof_C 	C 	0.6572	0.7388	0.9715	-0.017
Mof_H 	H 	0.8182	0.6319	0.9538	0.015
Mof_H 	H 	0.8808	0.7115	0.9544	0.016
Mof_C 	C 	0.762	0.6567	0.0512	-0.013
Mof_H 	H 	0.8821	0.7131	0.0685	0.026
Mof_H 	H 	0.8195	0.6318	0.068	0.021
Mof_C 	C 	0.6758	0.5965	0.76052	0.347
Mof_C 	C 	0.6133	0.518	0.75541	-0.068
Mof_C 	C 	0.5773	0.4797	0.81565	-0.017
Mof_H 	H 	0.597	0.4989	0.8604	0.048
Mof_C 	C 	0.5862	0.4872	0.69007	-0.017
Mof_H 	H 	0.6133	0.5108	0.6491	0.047
Mof_O 	O 	0.62061	0.78481	0.70542	-0.391
Mof_O 	O 	0.63409	0.81834	0.81904	-0.389
Mof_C 	C 	0.6743	0.6942	0.9713	-0.011
Mof_H 	H 	0.6807	0.632	0.9541	0.022
Mof_H 	H 	0.6168	0.7184	0.9537	0.021
Mof_C 	C 	0.6739	0.6945	0.051	-0.014
Mof_H 	H 	0.6163	0.7192	0.068	-0.003
Mof_H 	H 	0.6794	0.6323	0.0684	-0.003
Mof_C 	C 	0.713	0.665	0.0523	-0.021
Mof_H 	H 	0.6511	0.6571	0.0697	0.019
Mof_H 	H 	0.6143	0.7504	0.0696	0.021
Mof_C 	C 	0.8356	0.7125	0.9728	-0.021
Mof_H 	H 	0.6134	0.7513	0.9557	0.005
Mof_H 	H 	0.6504	0.6565	0.9559	0.005
Mof_C 	C 	0.7388	0.8428	0.9715	-0.017
Mof_H 	H 	0.6319	0.6818	0.9538	0.015
Mof_H 	H 	0.7115	0.6192	0.9544	0.016
Mof_C 	C 	0.6567	0.738	0.0512	-0.013
Mof_H 	H 	0.7131	0.6179	0.0685	0.026
Mof_H 	H 	0.6318	0.6805	0.068	0.021
Mof_C 	C 	0.5965	0.8242	0.76052	0.347
Mof_C 	C 	0.518	0.8867	0.75541	-0.068
Mof_C 	C 	0.4797	0.9227	0.81565	-0.017
Mof_H 	H 	0.4989	0.903	0.8604	0.048
Mof_C 	C 	0.4872	0.9138	0.69007	-0.017
Mof_H 	H 	0.5108	0.8867	0.6491	0.047
Mof_O 	O 	0.87939	0.71519	0.70542	-0.391
Mof_O 	O 	0.86591	0.68166	0.81904	-0.389
Mof_C 	C 	0.8257	0.8058	0.9713	-0.011
Mof_H 	H 	0.8193	0.868	0.9541	0.022
Mof_H 	H 	0.8832	0.7816	0.9537	0.021
Mof_C 	C 	0.8261	0.8055	0.051	-0.014
Mof_H 	H 	0.8837	0.7808	0.068	-0.003
Mof_H 	H 	0.8206	0.8677	0.0684	-0.003
Mof_C 	C 	0.787	0.835	0.0523	-0.021
Mof_H 	H 	0.8489	0.8429	0.0697	0.019
Mof_H 	H 	0.8857	0.7496	0.0696	0.021
Mof_C 	C 	0.6644	0.7875	0.9728	-0.021
Mof_H 	H 	0.8866	0.7487	0.9557	0.005
Mof_H 	H 	0.8496	0.8435	0.9559	0.005
Mof_C 	C 	0.7612	0.6572	0.9715	-0.017
Mof_H 	H 	0.8681	0.8182	0.9538	0.015
Mof_H 	H 	0.7885	0.8808	0.9544	0.016
Mof_C 	C 	0.8433	0.762	0.0512	-0.013
Mof_H 	H 	0.7869	0.8821	0.0685	0.026
Mof_H 	H 	0.8682	0.8195	0.068	0.021
Mof_C 	C 	0.9035	0.6758	0.76052	0.347
Mof_C 	C 	0.982	0.6133	0.75541	-0.067
Mof_C 	C 	0.0203	0.5773	0.81565	-0.017
Mof_H 	H 	0.0011	0.597	0.8604	0.048
Mof_C 	C 	0.0128	0.5862	0.69007	-0.017
Mof_H 	H 	0.9892	0.6133	0.6491	0.047
Mof_O 	O 	0.21519	0.37939	0.79458	-0.391
Mof_O 	O 	0.18166	0.36591	0.68096	-0.389
Mof_C 	C 	0.3058	0.3257	0.5287	-0.011
Mof_H 	H 	0.368	0.3193	0.5459	0.022
Mof_H 	H 	0.2816	0.3832	0.5463	0.021
Mof_C 	C 	0.3055	0.3261	0.449	-0.014
Mof_H 	H 	0.2808	0.3837	0.432	-0.003
Mof_H 	H 	0.3677	0.3206	0.4316	-0.003
Mof_C 	C 	0.335	0.287	0.4477	-0.021
Mof_H 	H 	0.3429	0.3489	0.4303	0.019
Mof_H 	H 	0.2496	0.3857	0.4304	0.021
Mof_C 	C 	0.2875	0.1644	0.5272	-0.021
Mof_H 	H 	0.2487	0.3866	0.5443	0.005
Mof_H 	H 	0.3435	0.3496	0.5441	0.005
Mof_C 	C 	0.1572	0.2612	0.5285	-0.017
Mof_H 	H 	0.3182	0.3681	0.5462	0.015
Mof_H 	H 	0.3808	0.2885	0.5456	0.016
Mof_C 	C 	0.262	0.3433	0.4488	-0.013
Mof_H 	H 	0.3821	0.2869	0.4315	0.026
Mof_H 	H 	0.3195	0.3682	0.432	0.021
Mof_C 	C 	0.1758	0.4035	0.73948	0.347
Mof_C 	C 	0.1133	0.482	0.74459	-0.068
Mof_C 	C 	0.0773	0.5203	0.68435	-0.016
Mof_H 	H 	0.097	0.5011	0.6396	0.048
Mof_C 	C 	0.0862	0.5128	0.80993	-0.016
Mof_H 	H 	0.1133	0.4892	0.8509	0.046
Mof_O 	O 	0.28481	0.12061	0.79458	-0.391
Mof_O 	O 	0.31834	0.13409	0.68096	-0.389
Mof_C 	C 	0.1942	0.1743	0.5287	-0.011
Mof_H 	H 	0.132	0.1807	0.5459	0.022
Mof_H 	H 	0.2184	0.1168	0.5463	0.021
Mof_C 	C 	0.1945	0.1739	0.449	-0.014
Mof_H 	H 	0.2192	0.1163	0.432	-0.003
Mof_H 	H 	0.1323	0.1794	0.4316	-0.003
Mof_C 	C 	0.165	0.213	0.4477	-0.021
Mof_H 	H 	0.1571	0.1511	0.4303	0.019
Mof_H 	H 	0.2504	0.1143	0.4304	0.021
Mof_C 	C 	0.2125	0.3356	0.5272	-0.021
Mof_H 	H 	0.2513	0.1134	0.5443	0.005
Mof_H 	H 	0.1565	0.1504	0.5441	0.005
Mof_C 	C 	0.3428	0.2388	0.5285	-0.017
Mof_H 	H 	0.1818	0.1319	0.5462	0.015
Mof_H 	H 	0.1192	0.2115	0.5456	0.016
Mof_C 	C 	0.238	0.1567	0.4488	-0.013
Mof_H 	H 	0.1179	0.2131	0.4315	0.026
Mof_H 	H 	0.1805	0.1318	0.432	0.021
Mof_C 	C 	0.3242	0.0965	0.73948	0.347
Mof_C 	C 	0.3867	0.018	0.74459	-0.068
Mof_C 	C 	0.4227	0.9797	0.68435	-0.017
Mof_H 	H 	0.403	0.9989	0.6396	0.048
Mof_C 	C 	0.4138	0.9872	0.80993	-0.017
Mof_H 	H 	0.3867	0.0108	0.8509	0.046
Mof_O 	O 	0.37939	0.28481	0.79458	-0.391
Mof_O 	O 	0.36591	0.31834	0.68096	-0.389
Mof_C 	C 	0.3257	0.1942	0.5287	-0.011
Mof_H 	H 	0.3193	0.132	0.5459	0.022
Mof_H 	H 	0.3832	0.2184	0.5463	0.021
Mof_C 	C 	0.3261	0.1945	0.449	-0.014
Mof_H 	H 	0.3837	0.2192	0.432	-0.003
Mof_H 	H 	0.3206	0.1323	0.4316	-0.003
Mof_C 	C 	0.287	0.165	0.4477	-0.021
Mof_H 	H 	0.3489	0.1571	0.4303	0.019
Mof_H 	H 	0.3857	0.2504	0.4304	0.021
Mof_C 	C 	0.1644	0.2125	0.5272	-0.021
Mof_H 	H 	0.3866	0.2513	0.5443	0.005
Mof_H 	H 	0.3496	0.1565	0.5441	0.005
Mof_C 	C 	0.2612	0.3428	0.5285	-0.017
Mof_H 	H 	0.3681	0.1818	0.5462	0.015
Mof_H 	H 	0.2885	0.1192	0.5456	0.016
Mof_C 	C 	0.3433	0.238	0.4488	-0.013
Mof_H 	H 	0.2869	0.1179	0.4315	0.026
Mof_H 	H 	0.3682	0.1805	0.432	0.021
Mof_C 	C 	0.4035	0.3242	0.73948	0.347
Mof_C 	C 	0.482	0.3867	0.74459	-0.068
Mof_C 	C 	0.5203	0.4227	0.68435	-0.017
Mof_H 	H 	0.5011	0.403	0.6396	0.048
Mof_C 	C 	0.5128	0.4138	0.80993	-0.017
Mof_H 	H 	0.4892	0.3867	0.8509	0.047
Mof_O 	O 	0.12061	0.21519	0.79458	-0.391
Mof_O 	O 	0.13409	0.18166	0.68096	-0.389
Mof_C 	C 	0.1743	0.3058	0.5287	-0.011
Mof_H 	H 	0.1807	0.368	0.5459	0.022
Mof_H 	H 	0.1168	0.2816	0.5463	0.021
Mof_C 	C 	0.1739	0.3055	0.449	-0.014
Mof_H 	H 	0.1163	0.2808	0.432	-0.003
Mof_H 	H 	0.1794	0.3677	0.4316	-0.003
Mof_C 	C 	0.213	0.335	0.4477	-0.021
Mof_H 	H 	0.1511	0.3429	0.4303	0.019
Mof_H 	H 	0.1143	0.2496	0.4304	0.021
Mof_C 	C 	0.3356	0.2875	0.5272	-0.021
Mof_H 	H 	0.1134	0.2487	0.5443	0.005
Mof_H 	H 	0.1504	0.3435	0.5441	0.005
Mof_C 	C 	0.2388	0.1572	0.5285	-0.017
Mof_H 	H 	0.1319	0.3182	0.5462	0.015
Mof_H 	H 	0.2115	0.3808	0.5456	0.016
Mof_C 	C 	0.1567	0.262	0.4488	-0.013
Mof_H 	H 	0.2131	0.3821	0.4315	0.026
Mof_H 	H 	0.1318	0.3195	0.432	0.021
Mof_C 	C 	0.0965	0.1758	0.73948	0.347
Mof_C 	C 	0.018	0.1133	0.74459	-0.068
Mof_C 	C 	0.9797	0.0773	0.68435	-0.016
Mof_H 	H 	0.9989	0.097	0.6396	0.048
Mof_C 	C 	0.9872	0.0862	0.80993	-0.017
Mof_H 	H 	0.0108	0.1133	0.8509	0.047
Mof_Cu	Cu	0.25	0.25	0.16183	0.911
Mof_Cu	Cu	0.25	0.25	0.31476	0.91
Mof_N 	N 	0.25	0.25	0.0554	-0.159
Mof_N 	N 	0.25	0.25	0.9207	-0.161
Mof_Cu	Cu	0.75	0.75	0.33817	0.911
Mof_Cu	Cu	0.75	0.75	0.18524	0.91
Mof_N 	N 	0.75	0.75	0.4446	-0.159
Mof_N 	N 	0.75	0.75	0.5793	-0.161
Mof_Cu	Cu	0.75	0.75	0.83817	0.911
Mof_Cu	Cu	0.75	0.75	0.68524	0.91
Mof_N 	N 	0.75	0.75	0.9446	-0.159
Mof_N 	N 	0.75	0.75	0.0793	-0.161
Mof_Cu	Cu	0.25	0.25	0.66183	0.911
Mof_Cu	Cu	0.25	0.25	0.81476	0.91
Mof_N 	N 	0.25	0.25	0.5554	-0.159
Mof_N 	N 	0.25	0.25	0.4207	-0.161
_end
