data_functionalizedCrystal
_audit_creation_method	'EQeq! by Chris Wilmer'
_symmetry_space_group_name_H-M	'P1'
_symmetry_Int_Tables_number	1
_symmetry_cell_setting	triclinic
loop_
_symmetry_equiv_pos_as_xyz
  x,y,z
_cell_length_a	18.248
_cell_length_b	18.248
_cell_length_c	47.113
_cell_angle_alpha	90
_cell_angle_beta	90
_cell_angle_gamma	120
loop_
_atom_site_label
_atom_site_type_symbol
_atom_site_fract_x
_atom_site_fract_y
_atom_site_fract_z
_atom_site_charge
Mof_Cu	Cu	0.5252	0.0509	0.4773	0.937
Mof_O 	O 	0.4167	0.9796	0.463	-0.372
Mof_O 	O 	0.6263	0.1087	0.4958	-0.38
Mof_O 	O 	0.4795	0.104	0.4968	-0.382
Mof_O 	O 	0.5639	0.9842	0.4629	-0.376
Mof_C 	C 	0.3613	0.9108	0.4778	0.276
Mof_C 	C 	0.2831	0.8466	0.4609	-0.08
Mof_C 	C 	0.2248	0.779	0.4747	0.024
Mof_C 	C 	0.2737	0.8566	0.4336	0.051
Mof_H 	H 	0.2326	0.7716	0.4937	0.056
Mof_C 	C 	0.1553	0.7217	0.4613	-0.073
Mof_C 	C 	0.205	0.7978	0.42	-0.137
Mof_H 	H 	0.3144	0.9041	0.424	0.023
Mof_C 	C 	0.1475	0.7284	0.4336	0.043
Mof_C 	C 	0.0891	0.6364	0.4758	0.267
Mof_C 	C 	0.1984	0.7988	0.3899	0.236
Mof_H 	H 	0.1025	0.6852	0.4237	0.035
Mof_C 	C 	0.1996	0.7924	0.3636	-0.759
Mof_B 	B 	0.2023	0.7869	0.3308	0.238
Mof_B 	B 	0.2827	0.8712	0.3115	2.648
Mof_B 	B 	0.1794	0.8547	0.3107	-4.738
Mof_B 	B 	0.1075	0.7454	0.311	-1.265
Mof_B 	B 	0.1694	0.6988	0.31	-5.727
Mof_B 	B 	0.2763	0.772	0.3121	-1.161
Mof_H 	H 	0.3354	0.9262	0.3219	-0.54
Mof_B 	B 	0.2947	0.8279	0.2804	-5.225
Mof_B 	B 	0.2398	0.8839	0.2802	0.62
Mof_H 	H 	0.163	0.899	0.3208	0.299
Mof_B 	B 	0.1326	0.802	0.2796	-2.628
Mof_C 	C 	0.1285	0.7148	0.2827	2.793
Mof_H 	H 	0.045	0.717	0.3212	-1.323
Mof_C 	C 	0.2291	0.7336	0.2839	5.753
Mof_H 	H 	0.1452	0.6345	0.3184	1.273
Mof_H 	H 	0.3232	0.7603	0.3228	0.679
Mof_H 	H 	0.3564	0.8519	0.2699	1.468
Mof_H 	H 	0.2643	0.9477	0.2713	-4.78
Mof_H 	H 	0.0832	0.8093	0.2687	5.852
Mof_H 	H 	0.0737	0.6586	0.2737	-0.799
Mof_H 	H 	0.2484	0.6898	0.2752	-1.1
Mof_C 	C 	0.1884	0.8151	0.363	0.248
Mof_C 	C 	0.0872	0.7714	0.28442	0.651
Mof_H 	H 	0.0264	0.7193	0.2768	-0.466
Mof_C 	C 	0.1897	0.7915	0.28323	1.695
Mof_H 	H 	0.2092	0.75	0.2728	-3.263
Mof_B 	B 	0.1764	0.832	0.3312	0.942
Mof_B 	B 	0.2533	0.9172	0.3116	-7.424
Mof_H 	H 	0.3077	0.9701	0.3222	2.114
Mof_B 	B 	0.1541	0.9035	0.3151	0.684
Mof_H 	H 	0.1441	0.9477	0.3281	-0.396
Mof_B 	B 	0.0794	0.7999	0.3145	13.949
Mof_H 	H 	0.0209	0.7742	0.327	-3.935
Mof_B 	B 	0.1335	0.7461	0.3075	-4.795
Mof_H 	H 	0.1075	0.6789	0.3128	3.163
Mof_B 	B 	0.2461	0.8176	0.308	7.758
Mof_H 	H 	0.2936	0.8012	0.3151	-1.741
Mof_B 	B 	0.2604	0.881	0.27895	-3.152
Mof_H 	H 	0.321	0.908	0.2675	1.78
Mof_B 	B 	0.2045	0.9331	0.28075	19.69
Mof_H 	H 	0.2283	0.9962	0.2714	-5.265
Mof_B 	B 	0.0971	0.8608	0.28242	-20.35
Mof_H 	H 	0.0503	0.8759	0.2737	5.305
Mof_Cu	Cu	0.9491	0.4743	0.4773	0.936
Mof_O 	O 	0.0204	0.4371	0.463	-0.373
Mof_O 	O 	0.8913	0.5176	0.4958	-0.381
Mof_O 	O 	0.896	0.3755	0.4968	-0.383
Mof_O 	O 	0.0158	0.5797	0.4629	-0.377
Mof_C 	C 	0.0892	0.4505	0.4778	0.275
Mof_C 	C 	0.1534	0.4365	0.4609	-0.08
Mof_C 	C 	0.221	0.4458	0.4747	0.024
Mof_C 	C 	0.1434	0.4171	0.4336	0.051
Mof_H 	H 	0.2284	0.461	0.4937	0.056
Mof_C 	C 	0.2783	0.4336	0.4613	-0.073
Mof_C 	C 	0.2022	0.4072	0.42	-0.137
Mof_H 	H 	0.0959	0.4103	0.424	0.023
Mof_C 	C 	0.2716	0.4191	0.4336	0.043
Mof_C 	C 	0.3636	0.4527	0.4758	0.267
Mof_C 	C 	0.2012	0.3996	0.3899	0.236
Mof_H 	H 	0.3148	0.4173	0.4237	0.035
Mof_C 	C 	0.2076	0.4072	0.3636	-0.759
Mof_B 	B 	0.2131	0.4154	0.3308	0.238
Mof_B 	B 	0.1288	0.4115	0.3115	2.648
Mof_B 	B 	0.1453	0.3247	0.3107	-4.738
Mof_B 	B 	0.2546	0.3621	0.311	-1.265
Mof_B 	B 	0.3012	0.4706	0.31	-5.727
Mof_B 	B 	0.228	0.5043	0.3121	-1.161
Mof_H 	H 	0.0738	0.4092	0.3219	-0.54
Mof_B 	B 	0.1721	0.4668	0.2804	-5.225
Mof_B 	B 	0.1161	0.3559	0.2802	0.62
Mof_H 	H 	0.101	0.264	0.3208	0.299
Mof_B 	B 	0.198	0.3306	0.2796	-2.628
Mof_C 	C 	0.2852	0.4137	0.2827	2.793
Mof_H 	H 	0.283	0.328	0.3212	-1.323
Mof_C 	C 	0.2664	0.4955	0.2839	5.753
Mof_H 	H 	0.3655	0.5107	0.3184	1.273
Mof_H 	H 	0.2397	0.5629	0.3228	0.679
Mof_H 	H 	0.1481	0.5045	0.2699	1.468
Mof_H 	H 	0.0523	0.3166	0.2713	-4.78
Mof_H 	H 	0.1907	0.2739	0.2687	5.852
Mof_H 	H 	0.3414	0.4151	0.2737	-0.799
Mof_H 	H 	0.3102	0.5586	0.2752	-1.101
Mof_C 	C 	0.1849	0.3733	0.363	0.249
Mof_C 	C 	0.2286	0.3158	0.28442	0.651
Mof_H 	H 	0.2807	0.3071	0.2768	-0.466
Mof_C 	C 	0.2085	0.3982	0.28323	1.696
Mof_H 	H 	0.25	0.4592	0.2728	-3.263
Mof_B 	B 	0.168	0.3444	0.3312	0.942
Mof_B 	B 	0.0828	0.3361	0.3116	-7.424
Mof_H 	H 	0.0299	0.3376	0.3222	2.114
Mof_B 	B 	0.0965	0.2506	0.3151	0.684
Mof_H 	H 	0.0523	0.1964	0.3281	-0.396
Mof_B 	B 	0.2001	0.2795	0.3145	13.949
Mof_H 	H 	0.2258	0.2467	0.327	-3.936
Mof_B 	B 	0.2539	0.3874	0.3075	-4.795
Mof_H 	H 	0.3211	0.4286	0.3128	3.163
Mof_B 	B 	0.1824	0.4285	0.308	7.758
Mof_H 	H 	0.1988	0.4924	0.3151	-1.741
Mof_B 	B 	0.119	0.3794	0.27895	-3.152
Mof_H 	H 	0.092	0.413	0.2675	1.78
Mof_B 	B 	0.0669	0.2714	0.28075	19.691
Mof_H 	H 	0.0038	0.2321	0.2714	-5.265
Mof_B 	B 	0.1392	0.2363	0.28242	-20.35
Mof_H 	H 	0.1241	0.1744	0.2737	5.305
Mof_Cu	Cu	0.5257	0.4748	0.4773	0.936
Mof_O 	O 	0.5629	0.5833	0.463	-0.373
Mof_O 	O 	0.4824	0.3737	0.4958	-0.381
Mof_O 	O 	0.6245	0.5205	0.4968	-0.383
Mof_O 	O 	0.4203	0.4361	0.4629	-0.377
Mof_C 	C 	0.5495	0.6387	0.4778	0.275
Mof_C 	C 	0.5635	0.7169	0.4609	-0.08
Mof_C 	C 	0.5542	0.7752	0.4747	0.024
Mof_C 	C 	0.5829	0.7263	0.4336	0.051
Mof_H 	H 	0.539	0.7674	0.4937	0.056
Mof_C 	C 	0.5664	0.8447	0.4613	-0.073
Mof_C 	C 	0.5928	0.795	0.42	-0.137
Mof_H 	H 	0.5897	0.6856	0.424	0.023
Mof_C 	C 	0.5809	0.8525	0.4336	0.043
Mof_C 	C 	0.5473	0.9109	0.4758	0.267
Mof_C 	C 	0.6004	0.8016	0.3899	0.236
Mof_H 	H 	0.5827	0.8975	0.4237	0.035
Mof_C 	C 	0.5928	0.8004	0.3636	-0.759
Mof_B 	B 	0.5846	0.7977	0.3308	0.238
Mof_B 	B 	0.5885	0.7173	0.3115	2.648
Mof_B 	B 	0.6753	0.8206	0.3107	-4.738
Mof_B 	B 	0.6379	0.8925	0.311	-1.265
Mof_B 	B 	0.5294	0.8306	0.31	-5.726
Mof_B 	B 	0.4957	0.7237	0.3121	-1.161
Mof_H 	H 	0.5908	0.6646	0.3219	-0.54
Mof_B 	B 	0.5332	0.7053	0.2804	-5.225
Mof_B 	B 	0.6441	0.7602	0.2802	0.62
Mof_H 	H 	0.736	0.837	0.3208	0.299
Mof_B 	B 	0.6694	0.8674	0.2796	-2.628
Mof_C 	C 	0.5863	0.8715	0.2827	2.793
Mof_H 	H 	0.672	0.955	0.3212	-1.323
Mof_C 	C 	0.5045	0.7709	0.2839	5.753
Mof_H 	H 	0.4893	0.8548	0.3184	1.273
Mof_H 	H 	0.4371	0.6768	0.3228	0.679
Mof_H 	H 	0.4955	0.6436	0.2699	1.467
Mof_H 	H 	0.6834	0.7357	0.2713	-4.78
Mof_H 	H 	0.7261	0.9168	0.2687	5.851
Mof_H 	H 	0.5849	0.9263	0.2737	-0.799
Mof_H 	H 	0.4414	0.7516	0.2752	-1.1
Mof_C 	C 	0.6267	0.8116	0.363	0.248
Mof_C 	C 	0.6842	0.9128	0.28442	0.651
Mof_H 	H 	0.6929	0.9736	0.2768	-0.466
Mof_C 	C 	0.6018	0.8103	0.28323	1.696
Mof_H 	H 	0.5408	0.7908	0.2728	-3.263
Mof_B 	B 	0.6556	0.8236	0.3312	0.942
Mof_B 	B 	0.6639	0.7467	0.3116	-7.424
Mof_H 	H 	0.6624	0.6923	0.3222	2.113
Mof_B 	B 	0.7494	0.8459	0.3151	0.684
Mof_H 	H 	0.8036	0.8559	0.3281	-0.396
Mof_B 	B 	0.7205	0.9206	0.3145	13.949
Mof_H 	H 	0.7533	0.9791	0.327	-3.935
Mof_B 	B 	0.6126	0.8665	0.3075	-4.795
Mof_H 	H 	0.5714	0.8925	0.3128	3.163
Mof_B 	B 	0.5715	0.7539	0.308	7.757
Mof_H 	H 	0.5076	0.7064	0.3151	-1.741
Mof_B 	B 	0.6206	0.7396	0.27895	-3.152
Mof_H 	H 	0.587	0.679	0.2675	1.78
Mof_B 	B 	0.7286	0.7955	0.28075	19.69
Mof_H 	H 	0.7679	0.7717	0.2714	-5.265
Mof_B 	B 	0.7637	0.9029	0.28242	-20.35
Mof_H 	H 	0.8256	0.9497	0.2737	5.305
Mof_Cu	Cu	0.9491	0.4748	0.0227	0.936
Mof_O 	O 	0.0204	0.5833	0.037	-0.373
Mof_O 	O 	0.8913	0.3737	0.0042	-0.381
Mof_O 	O 	0.896	0.5205	0.0032	-0.383
Mof_O 	O 	0.0158	0.4361	0.0371	-0.377
Mof_C 	C 	0.0892	0.6387	0.0222	0.275
Mof_C 	C 	0.1534	0.7169	0.0391	-0.08
Mof_C 	C 	0.221	0.7752	0.0253	0.024
Mof_C 	C 	0.1434	0.7263	0.0664	0.051
Mof_H 	H 	0.2284	0.7674	0.0063	0.056
Mof_C 	C 	0.2783	0.8447	0.0387	-0.073
Mof_C 	C 	0.2022	0.795	0.08	-0.137
Mof_H 	H 	0.0959	0.6856	0.076	0.023
Mof_C 	C 	0.2716	0.8525	0.0664	0.043
Mof_C 	C 	0.3636	0.9109	0.0242	0.267
Mof_C 	C 	0.2012	0.8016	0.1101	0.236
Mof_H 	H 	0.3148	0.8975	0.0763	0.035
Mof_C 	C 	0.2076	0.8004	0.1364	-0.759
Mof_B 	B 	0.2131	0.7977	0.1692	0.238
Mof_B 	B 	0.1288	0.7173	0.1885	2.648
Mof_B 	B 	0.1453	0.8206	0.1893	-4.738
Mof_B 	B 	0.2546	0.8925	0.189	-1.265
Mof_B 	B 	0.3012	0.8306	0.19	-5.727
Mof_B 	B 	0.228	0.7237	0.1879	-1.161
Mof_H 	H 	0.0738	0.6646	0.1781	-0.54
Mof_B 	B 	0.1721	0.7053	0.2196	-5.225
Mof_B 	B 	0.1161	0.7602	0.2198	0.62
Mof_H 	H 	0.101	0.837	0.1792	0.299
Mof_B 	B 	0.198	0.8674	0.2204	-2.628
Mof_C 	C 	0.2852	0.8715	0.2173	2.793
Mof_H 	H 	0.283	0.955	0.1788	-1.323
Mof_C 	C 	0.2664	0.7709	0.2161	5.753
Mof_H 	H 	0.3655	0.8548	0.1816	1.273
Mof_H 	H 	0.2397	0.6768	0.1772	0.679
Mof_H 	H 	0.1481	0.6436	0.2301	1.468
Mof_H 	H 	0.0523	0.7357	0.2287	-4.78
Mof_H 	H 	0.1907	0.9168	0.2313	5.852
Mof_H 	H 	0.3414	0.9263	0.2263	-0.799
Mof_H 	H 	0.3102	0.7516	0.2248	-1.1
Mof_C 	C 	0.1849	0.8116	0.137	0.248
Mof_C 	C 	0.2286	0.9128	0.21558	0.651
Mof_H 	H 	0.2807	0.9736	0.2232	-0.466
Mof_C 	C 	0.2085	0.8103	0.21677	1.695
Mof_H 	H 	0.25	0.7908	0.2272	-3.263
Mof_B 	B 	0.168	0.8236	0.1688	0.942
Mof_B 	B 	0.0828	0.7467	0.1884	-7.424
Mof_H 	H 	0.0299	0.6923	0.1778	2.114
Mof_B 	B 	0.0965	0.8459	0.1849	0.684
Mof_H 	H 	0.0523	0.8559	0.1719	-0.396
Mof_B 	B 	0.2001	0.9206	0.1855	13.949
Mof_H 	H 	0.2258	0.9791	0.173	-3.935
Mof_B 	B 	0.2539	0.8665	0.1925	-4.795
Mof_H 	H 	0.3211	0.8925	0.1872	3.163
Mof_B 	B 	0.1824	0.7539	0.192	7.758
Mof_H 	H 	0.1988	0.7064	0.1849	-1.741
Mof_B 	B 	0.119	0.7396	0.22105	-3.152
Mof_H 	H 	0.092	0.679	0.2325	1.78
Mof_B 	B 	0.0669	0.7955	0.21925	19.69
Mof_H 	H 	0.0038	0.7717	0.2286	-5.265
Mof_B 	B 	0.1392	0.9029	0.21758	-20.35
Mof_H 	H 	0.1241	0.9497	0.2263	5.305
Mof_Cu	Cu	0.5257	0.0509	0.0227	0.936
Mof_O 	O 	0.5629	0.9796	0.037	-0.373
Mof_O 	O 	0.4824	0.1087	0.0042	-0.381
Mof_O 	O 	0.6245	0.104	0.0032	-0.383
Mof_O 	O 	0.4203	0.9842	0.0371	-0.377
Mof_C 	C 	0.5495	0.9108	0.0222	0.275
Mof_C 	C 	0.5635	0.8466	0.0391	-0.08
Mof_C 	C 	0.5542	0.779	0.0253	0.024
Mof_C 	C 	0.5829	0.8566	0.0664	0.051
Mof_H 	H 	0.539	0.7716	0.0063	0.056
Mof_C 	C 	0.5664	0.7217	0.0387	-0.073
Mof_C 	C 	0.5928	0.7978	0.08	-0.137
Mof_H 	H 	0.5897	0.9041	0.076	0.023
Mof_C 	C 	0.5809	0.7284	0.0664	0.043
Mof_C 	C 	0.5473	0.6364	0.0242	0.267
Mof_C 	C 	0.6004	0.7988	0.1101	0.236
Mof_H 	H 	0.5827	0.6852	0.0763	0.035
Mof_C 	C 	0.5928	0.7924	0.1364	-0.759
Mof_B 	B 	0.5846	0.7869	0.1692	0.238
Mof_B 	B 	0.5885	0.8712	0.1885	2.648
Mof_B 	B 	0.6753	0.8547	0.1893	-4.738
Mof_B 	B 	0.6379	0.7454	0.189	-1.265
Mof_B 	B 	0.5294	0.6988	0.19	-5.727
Mof_B 	B 	0.4957	0.772	0.1879	-1.161
Mof_H 	H 	0.5908	0.9262	0.1781	-0.54
Mof_B 	B 	0.5332	0.8279	0.2196	-5.225
Mof_B 	B 	0.6441	0.8839	0.2198	0.62
Mof_H 	H 	0.736	0.899	0.1792	0.299
Mof_B 	B 	0.6694	0.802	0.2204	-2.628
Mof_C 	C 	0.5863	0.7148	0.2173	2.793
Mof_H 	H 	0.672	0.717	0.1788	-1.323
Mof_C 	C 	0.5045	0.7336	0.2161	5.753
Mof_H 	H 	0.4893	0.6345	0.1816	1.273
Mof_H 	H 	0.4371	0.7603	0.1772	0.679
Mof_H 	H 	0.4955	0.8519	0.2301	1.468
Mof_H 	H 	0.6834	0.9477	0.2287	-4.78
Mof_H 	H 	0.7261	0.8093	0.2313	5.852
Mof_H 	H 	0.5849	0.6586	0.2263	-0.799
Mof_H 	H 	0.4414	0.6898	0.2248	-1.101
Mof_C 	C 	0.6267	0.8151	0.137	0.249
Mof_C 	C 	0.6842	0.7714	0.21558	0.651
Mof_H 	H 	0.6929	0.7193	0.2232	-0.466
Mof_C 	C 	0.6018	0.7915	0.21677	1.696
Mof_H 	H 	0.5408	0.75	0.2272	-3.263
Mof_B 	B 	0.6556	0.832	0.1688	0.942
Mof_B 	B 	0.6639	0.9172	0.1884	-7.424
Mof_H 	H 	0.6624	0.9701	0.1778	2.114
Mof_B 	B 	0.7494	0.9035	0.1849	0.684
Mof_H 	H 	0.8036	0.9477	0.1719	-0.396
Mof_B 	B 	0.7205	0.7999	0.1855	13.949
Mof_H 	H 	0.7533	0.7742	0.173	-3.936
Mof_B 	B 	0.6126	0.7461	0.1925	-4.795
Mof_H 	H 	0.5714	0.6789	0.1872	3.163
Mof_B 	B 	0.5715	0.8176	0.192	7.758
Mof_H 	H 	0.5076	0.8012	0.1849	-1.741
Mof_B 	B 	0.6206	0.881	0.22105	-3.152
Mof_H 	H 	0.587	0.908	0.2325	1.78
Mof_B 	B 	0.7286	0.9331	0.21925	19.691
Mof_H 	H 	0.7679	0.9962	0.2286	-5.265
Mof_B 	B 	0.7637	0.8608	0.21758	-20.35
Mof_H 	H 	0.8256	0.8759	0.2263	5.305
Mof_Cu	Cu	0.5252	0.4743	0.0227	0.936
Mof_O 	O 	0.4167	0.4371	0.037	-0.373
Mof_O 	O 	0.6263	0.5176	0.0042	-0.381
Mof_O 	O 	0.4795	0.3755	0.0032	-0.383
Mof_O 	O 	0.5639	0.5797	0.0371	-0.377
Mof_C 	C 	0.3613	0.4505	0.0222	0.275
Mof_C 	C 	0.2831	0.4365	0.0391	-0.081
Mof_C 	C 	0.2248	0.4458	0.0253	0.024
Mof_C 	C 	0.2737	0.4171	0.0664	0.051
Mof_H 	H 	0.2326	0.461	0.0063	0.056
Mof_C 	C 	0.1553	0.4336	0.0387	-0.073
Mof_C 	C 	0.205	0.4072	0.08	-0.137
Mof_H 	H 	0.3144	0.4103	0.076	0.023
Mof_C 	C 	0.1475	0.4191	0.0664	0.043
Mof_C 	C 	0.0891	0.4527	0.0242	0.267
Mof_C 	C 	0.1984	0.3996	0.1101	0.236
Mof_H 	H 	0.1025	0.4173	0.0763	0.035
Mof_C 	C 	0.1996	0.4072	0.1364	-0.759
Mof_B 	B 	0.2023	0.4154	0.1692	0.238
Mof_B 	B 	0.2827	0.4115	0.1885	2.648
Mof_B 	B 	0.1794	0.3247	0.1893	-4.738
Mof_B 	B 	0.1075	0.3621	0.189	-1.265
Mof_B 	B 	0.1694	0.4706	0.19	-5.726
Mof_B 	B 	0.2763	0.5043	0.1879	-1.161
Mof_H 	H 	0.3354	0.4092	0.1781	-0.54
Mof_B 	B 	0.2947	0.4668	0.2196	-5.225
Mof_B 	B 	0.2398	0.3559	0.2198	0.62
Mof_H 	H 	0.163	0.264	0.1792	0.299
Mof_B 	B 	0.1326	0.3306	0.2204	-2.628
Mof_C 	C 	0.1285	0.4137	0.2173	2.793
Mof_H 	H 	0.045	0.328	0.1788	-1.323
Mof_C 	C 	0.2291	0.4955	0.2161	5.753
Mof_H 	H 	0.1452	0.5107	0.1816	1.273
Mof_H 	H 	0.3232	0.5629	0.1772	0.679
Mof_H 	H 	0.3564	0.5045	0.2301	1.467
Mof_H 	H 	0.2643	0.3166	0.2287	-4.78
Mof_H 	H 	0.0832	0.2739	0.2313	5.851
Mof_H 	H 	0.0737	0.4151	0.2263	-0.799
Mof_H 	H 	0.2484	0.5586	0.2248	-1.1
Mof_C 	C 	0.1884	0.3733	0.137	0.248
Mof_C 	C 	0.0872	0.3158	0.21558	0.651
Mof_H 	H 	0.0264	0.3071	0.2232	-0.466
Mof_C 	C 	0.1897	0.3982	0.21677	1.696
Mof_H 	H 	0.2092	0.4592	0.2272	-3.263
Mof_B 	B 	0.1764	0.3444	0.1688	0.942
Mof_B 	B 	0.2533	0.3361	0.1884	-7.424
Mof_H 	H 	0.3077	0.3376	0.1778	2.113
Mof_B 	B 	0.1541	0.2506	0.1849	0.684
Mof_H 	H 	0.1441	0.1964	0.1719	-0.396
Mof_B 	B 	0.0794	0.2795	0.1855	13.949
Mof_H 	H 	0.0209	0.2467	0.173	-3.935
Mof_B 	B 	0.1335	0.3874	0.1925	-4.795
Mof_H 	H 	0.1075	0.4286	0.1872	3.163
Mof_B 	B 	0.2461	0.4285	0.192	7.757
Mof_H 	H 	0.2936	0.4924	0.1849	-1.741
Mof_B 	B 	0.2604	0.3794	0.22105	-3.152
Mof_H 	H 	0.321	0.413	0.2325	1.78
Mof_B 	B 	0.2045	0.2714	0.21925	19.69
Mof_H 	H 	0.2283	0.2321	0.2286	-5.265
Mof_B 	B 	0.0971	0.2363	0.21758	-20.35
Mof_H 	H 	0.0503	0.1744	0.2263	5.305
Mof_Cu	Cu	0.4748	0.9491	0.5227	0.936
Mof_O 	O 	0.5833	0.0204	0.537	-0.373
Mof_O 	O 	0.3737	0.8913	0.5042	-0.381
Mof_O 	O 	0.5205	0.896	0.5032	-0.383
Mof_O 	O 	0.4361	0.0158	0.5371	-0.377
Mof_C 	C 	0.6387	0.0892	0.5222	0.275
Mof_C 	C 	0.7169	0.1534	0.5391	-0.08
Mof_C 	C 	0.7752	0.221	0.5253	0.024
Mof_C 	C 	0.7263	0.1434	0.5664	0.051
Mof_H 	H 	0.7674	0.2284	0.5063	0.056
Mof_C 	C 	0.8447	0.2783	0.5387	-0.073
Mof_C 	C 	0.795	0.2022	0.58	-0.137
Mof_H 	H 	0.6856	0.0959	0.576	0.023
Mof_C 	C 	0.8525	0.2716	0.5664	0.043
Mof_C 	C 	0.9109	0.3636	0.5242	0.267
Mof_C 	C 	0.8016	0.2012	0.6101	0.236
Mof_H 	H 	0.8975	0.3148	0.5763	0.035
Mof_C 	C 	0.8004	0.2076	0.6364	-0.759
Mof_B 	B 	0.7977	0.2131	0.6692	0.238
Mof_B 	B 	0.7173	0.1288	0.6885	2.648
Mof_B 	B 	0.8206	0.1453	0.6893	-4.738
Mof_B 	B 	0.8925	0.2546	0.689	-1.265
Mof_B 	B 	0.8306	0.3012	0.69	-5.727
Mof_B 	B 	0.7237	0.228	0.6879	-1.161
Mof_H 	H 	0.6646	0.0738	0.6781	-0.54
Mof_B 	B 	0.7053	0.1721	0.7196	-5.225
Mof_B 	B 	0.7602	0.1161	0.7198	0.62
Mof_H 	H 	0.837	0.101	0.6792	0.299
Mof_B 	B 	0.8674	0.198	0.7204	-2.628
Mof_C 	C 	0.8715	0.2852	0.7173	2.793
Mof_H 	H 	0.955	0.283	0.6788	-1.323
Mof_C 	C 	0.7709	0.2664	0.7161	5.753
Mof_H 	H 	0.8548	0.3655	0.6816	1.273
Mof_H 	H 	0.6768	0.2397	0.6772	0.679
Mof_H 	H 	0.6436	0.1481	0.7301	1.468
Mof_H 	H 	0.7357	0.0523	0.7287	-4.78
Mof_H 	H 	0.9168	0.1907	0.7313	5.852
Mof_H 	H 	0.9263	0.3414	0.7263	-0.799
Mof_H 	H 	0.7516	0.3102	0.7248	-1.1
Mof_C 	C 	0.8116	0.1849	0.637	0.248
Mof_C 	C 	0.9128	0.2286	0.71558	0.651
Mof_H 	H 	0.9736	0.2807	0.7232	-0.466
Mof_C 	C 	0.8103	0.2085	0.71677	1.695
Mof_H 	H 	0.7908	0.25	0.7272	-3.263
Mof_B 	B 	0.8236	0.168	0.6688	0.942
Mof_B 	B 	0.7467	0.0828	0.6884	-7.424
Mof_H 	H 	0.6923	0.0299	0.6778	2.114
Mof_B 	B 	0.8459	0.0965	0.6849	0.684
Mof_H 	H 	0.8559	0.0523	0.6719	-0.396
Mof_B 	B 	0.9206	0.2001	0.6855	13.949
Mof_H 	H 	0.9791	0.2258	0.673	-3.935
Mof_B 	B 	0.8665	0.2539	0.6925	-4.795
Mof_H 	H 	0.8925	0.3211	0.6872	3.163
Mof_B 	B 	0.7539	0.1824	0.692	7.758
Mof_H 	H 	0.7064	0.1988	0.6849	-1.741
Mof_B 	B 	0.7396	0.119	0.72105	-3.152
Mof_H 	H 	0.679	0.092	0.7325	1.78
Mof_B 	B 	0.7955	0.0669	0.71925	19.69
Mof_H 	H 	0.7717	0.0038	0.7286	-5.265
Mof_B 	B 	0.9029	0.1392	0.71758	-20.35
Mof_H 	H 	0.9497	0.1241	0.7263	5.305
Mof_Cu	Cu	0.0509	0.5257	0.5227	0.936
Mof_O 	O 	0.9796	0.5629	0.537	-0.373
Mof_O 	O 	0.1087	0.4824	0.5042	-0.381
Mof_O 	O 	0.104	0.6245	0.5032	-0.383
Mof_O 	O 	0.9842	0.4203	0.5371	-0.377
Mof_C 	C 	0.9108	0.5495	0.5222	0.275
Mof_C 	C 	0.8466	0.5635	0.5391	-0.08
Mof_C 	C 	0.779	0.5542	0.5253	0.024
Mof_C 	C 	0.8566	0.5829	0.5664	0.051
Mof_H 	H 	0.7716	0.539	0.5063	0.056
Mof_C 	C 	0.7217	0.5664	0.5387	-0.073
Mof_C 	C 	0.7978	0.5928	0.58	-0.137
Mof_H 	H 	0.9041	0.5897	0.576	0.023
Mof_C 	C 	0.7284	0.5809	0.5664	0.043
Mof_C 	C 	0.6364	0.5473	0.5242	0.267
Mof_C 	C 	0.7988	0.6004	0.6101	0.236
Mof_H 	H 	0.6852	0.5827	0.5763	0.035
Mof_C 	C 	0.7924	0.5928	0.6364	-0.759
Mof_B 	B 	0.7869	0.5846	0.6692	0.238
Mof_B 	B 	0.8712	0.5885	0.6885	2.648
Mof_B 	B 	0.8547	0.6753	0.6893	-4.738
Mof_B 	B 	0.7454	0.6379	0.689	-1.265
Mof_B 	B 	0.6988	0.5294	0.69	-5.727
Mof_B 	B 	0.772	0.4957	0.6879	-1.161
Mof_H 	H 	0.9262	0.5908	0.6781	-0.54
Mof_B 	B 	0.8279	0.5332	0.7196	-5.225
Mof_B 	B 	0.8839	0.6441	0.7198	0.62
Mof_H 	H 	0.899	0.736	0.6792	0.299
Mof_B 	B 	0.802	0.6694	0.7204	-2.628
Mof_C 	C 	0.7148	0.5863	0.7173	2.793
Mof_H 	H 	0.717	0.672	0.6788	-1.323
Mof_C 	C 	0.7336	0.5045	0.7161	5.753
Mof_H 	H 	0.6345	0.4893	0.6816	1.273
Mof_H 	H 	0.7603	0.4371	0.6772	0.679
Mof_H 	H 	0.8519	0.4955	0.7301	1.468
Mof_H 	H 	0.9477	0.6834	0.7287	-4.78
Mof_H 	H 	0.8093	0.7261	0.7313	5.852
Mof_H 	H 	0.6586	0.5849	0.7263	-0.799
Mof_H 	H 	0.6898	0.4414	0.7248	-1.101
Mof_C 	C 	0.8151	0.6267	0.637	0.249
Mof_C 	C 	0.7714	0.6842	0.71558	0.651
Mof_H 	H 	0.7193	0.6929	0.7232	-0.466
Mof_C 	C 	0.7915	0.6018	0.71677	1.696
Mof_H 	H 	0.75	0.5408	0.7272	-3.263
Mof_B 	B 	0.832	0.6556	0.6688	0.942
Mof_B 	B 	0.9172	0.6639	0.6884	-7.424
Mof_H 	H 	0.9701	0.6624	0.6778	2.114
Mof_B 	B 	0.9035	0.7494	0.6849	0.684
Mof_H 	H 	0.9477	0.8036	0.6719	-0.396
Mof_B 	B 	0.7999	0.7205	0.6855	13.949
Mof_H 	H 	0.7742	0.7533	0.673	-3.936
Mof_B 	B 	0.7461	0.6126	0.6925	-4.795
Mof_H 	H 	0.6789	0.5714	0.6872	3.163
Mof_B 	B 	0.8176	0.5715	0.692	7.758
Mof_H 	H 	0.8012	0.5076	0.6849	-1.741
Mof_B 	B 	0.881	0.6206	0.72105	-3.152
Mof_H 	H 	0.908	0.587	0.7325	1.78
Mof_B 	B 	0.9331	0.7286	0.71925	19.691
Mof_H 	H 	0.9962	0.7679	0.7286	-5.265
Mof_B 	B 	0.8608	0.7637	0.71758	-20.35
Mof_H 	H 	0.8759	0.8256	0.7263	5.305
Mof_Cu	Cu	0.4743	0.5252	0.5227	0.936
Mof_O 	O 	0.4371	0.4167	0.537	-0.373
Mof_O 	O 	0.5176	0.6263	0.5042	-0.381
Mof_O 	O 	0.3755	0.4795	0.5032	-0.383
Mof_O 	O 	0.5797	0.5639	0.5371	-0.377
Mof_C 	C 	0.4505	0.3613	0.5222	0.275
Mof_C 	C 	0.4365	0.2831	0.5391	-0.08
Mof_C 	C 	0.4458	0.2248	0.5253	0.024
Mof_C 	C 	0.4171	0.2737	0.5664	0.051
Mof_H 	H 	0.461	0.2326	0.5063	0.056
Mof_C 	C 	0.4336	0.1553	0.5387	-0.073
Mof_C 	C 	0.4072	0.205	0.58	-0.137
Mof_H 	H 	0.4103	0.3144	0.576	0.023
Mof_C 	C 	0.4191	0.1475	0.5664	0.043
Mof_C 	C 	0.4527	0.0891	0.5242	0.267
Mof_C 	C 	0.3996	0.1984	0.6101	0.236
Mof_H 	H 	0.4173	0.1025	0.5763	0.035
Mof_C 	C 	0.4072	0.1996	0.6364	-0.759
Mof_B 	B 	0.4154	0.2023	0.6692	0.238
Mof_B 	B 	0.4115	0.2827	0.6885	2.648
Mof_B 	B 	0.3247	0.1794	0.6893	-4.738
Mof_B 	B 	0.3621	0.1075	0.689	-1.265
Mof_B 	B 	0.4706	0.1694	0.69	-5.726
Mof_B 	B 	0.5043	0.2763	0.6879	-1.161
Mof_H 	H 	0.4092	0.3354	0.6781	-0.54
Mof_B 	B 	0.4668	0.2947	0.7196	-5.225
Mof_B 	B 	0.3559	0.2398	0.7198	0.62
Mof_H 	H 	0.264	0.163	0.6792	0.299
Mof_B 	B 	0.3306	0.1326	0.7204	-2.628
Mof_C 	C 	0.4137	0.1285	0.7173	2.793
Mof_H 	H 	0.328	0.045	0.6788	-1.323
Mof_C 	C 	0.4955	0.2291	0.7161	5.753
Mof_H 	H 	0.5107	0.1452	0.6816	1.273
Mof_H 	H 	0.5629	0.3232	0.6772	0.679
Mof_H 	H 	0.5045	0.3564	0.7301	1.467
Mof_H 	H 	0.3166	0.2643	0.7287	-4.78
Mof_H 	H 	0.2739	0.0832	0.7313	5.851
Mof_H 	H 	0.4151	0.0737	0.7263	-0.799
Mof_H 	H 	0.5586	0.2484	0.7248	-1.1
Mof_C 	C 	0.3733	0.1884	0.637	0.248
Mof_C 	C 	0.3158	0.0872	0.71558	0.651
Mof_H 	H 	0.3071	0.0264	0.7232	-0.466
Mof_C 	C 	0.3982	0.1897	0.71677	1.696
Mof_H 	H 	0.4592	0.2092	0.7272	-3.263
Mof_B 	B 	0.3444	0.1764	0.6688	0.942
Mof_B 	B 	0.3361	0.2533	0.6884	-7.424
Mof_H 	H 	0.3376	0.3077	0.6778	2.113
Mof_B 	B 	0.2506	0.1541	0.6849	0.684
Mof_H 	H 	0.1964	0.1441	0.6719	-0.396
Mof_B 	B 	0.2795	0.0794	0.6855	13.949
Mof_H 	H 	0.2467	0.0209	0.673	-3.935
Mof_B 	B 	0.3874	0.1335	0.6925	-4.795
Mof_H 	H 	0.4286	0.1075	0.6872	3.163
Mof_B 	B 	0.4285	0.2461	0.692	7.757
Mof_H 	H 	0.4924	0.2936	0.6849	-1.741
Mof_B 	B 	0.3794	0.2604	0.72105	-3.152
Mof_H 	H 	0.413	0.321	0.7325	1.78
Mof_B 	B 	0.2714	0.2045	0.71925	19.69
Mof_H 	H 	0.2321	0.2283	0.7286	-5.265
Mof_B 	B 	0.2363	0.0971	0.71758	-20.35
Mof_H 	H 	0.1744	0.0503	0.7263	5.305
Mof_Cu	Cu	0.0509	0.5252	0.9773	0.936
Mof_O 	O 	0.9796	0.4167	0.963	-0.373
Mof_O 	O 	0.1087	0.6263	0.9958	-0.381
Mof_O 	O 	0.104	0.4795	0.9968	-0.383
Mof_O 	O 	0.9842	0.5639	0.9629	-0.377
Mof_C 	C 	0.9108	0.3613	0.9778	0.275
Mof_C 	C 	0.8466	0.2831	0.9609	-0.08
Mof_C 	C 	0.779	0.2248	0.9747	0.024
Mof_C 	C 	0.8566	0.2737	0.9336	0.051
Mof_H 	H 	0.7716	0.2326	0.9937	0.056
Mof_C 	C 	0.7217	0.1553	0.9613	-0.073
Mof_C 	C 	0.7978	0.205	0.92	-0.137
Mof_H 	H 	0.9041	0.3144	0.924	0.023
Mof_C 	C 	0.7284	0.1475	0.9336	0.043
Mof_C 	C 	0.6364	0.0891	0.9758	0.267
Mof_C 	C 	0.7988	0.1984	0.8899	0.236
Mof_H 	H 	0.6852	0.1025	0.9237	0.035
Mof_C 	C 	0.7924	0.1996	0.8636	-0.759
Mof_B 	B 	0.7869	0.2023	0.8308	0.238
Mof_B 	B 	0.8712	0.2827	0.8115	2.648
Mof_B 	B 	0.8547	0.1794	0.8107	-4.738
Mof_B 	B 	0.7454	0.1075	0.811	-1.265
Mof_B 	B 	0.6988	0.1694	0.81	-5.727
Mof_B 	B 	0.772	0.2763	0.8121	-1.161
Mof_H 	H 	0.9262	0.3354	0.8219	-0.54
Mof_B 	B 	0.8279	0.2947	0.7804	-5.225
Mof_B 	B 	0.8839	0.2398	0.7802	0.62
Mof_H 	H 	0.899	0.163	0.8208	0.299
Mof_B 	B 	0.802	0.1326	0.7796	-2.628
Mof_C 	C 	0.7148	0.1285	0.7827	2.793
Mof_H 	H 	0.717	0.045	0.8212	-1.323
Mof_C 	C 	0.7336	0.2291	0.7839	5.753
Mof_H 	H 	0.6345	0.1452	0.8184	1.273
Mof_H 	H 	0.7603	0.3232	0.8228	0.679
Mof_H 	H 	0.8519	0.3564	0.7699	1.468
Mof_H 	H 	0.9477	0.2643	0.7713	-4.78
Mof_H 	H 	0.8093	0.0832	0.7687	5.852
Mof_H 	H 	0.6586	0.0737	0.7737	-0.799
Mof_H 	H 	0.6898	0.2484	0.7752	-1.1
Mof_C 	C 	0.8151	0.1884	0.863	0.248
Mof_C 	C 	0.7714	0.0872	0.78442	0.651
Mof_H 	H 	0.7193	0.0264	0.7768	-0.466
Mof_C 	C 	0.7915	0.1897	0.78323	1.695
Mof_H 	H 	0.75	0.2092	0.7728	-3.263
Mof_B 	B 	0.832	0.1764	0.8312	0.942
Mof_B 	B 	0.9172	0.2533	0.8116	-7.424
Mof_H 	H 	0.9701	0.3077	0.8222	2.114
Mof_B 	B 	0.9035	0.1541	0.8151	0.684
Mof_H 	H 	0.9477	0.1441	0.8281	-0.396
Mof_B 	B 	0.7999	0.0794	0.8145	13.949
Mof_H 	H 	0.7742	0.0209	0.827	-3.935
Mof_B 	B 	0.7461	0.1335	0.8075	-4.795
Mof_H 	H 	0.6789	0.1075	0.8128	3.163
Mof_B 	B 	0.8176	0.2461	0.808	7.758
Mof_H 	H 	0.8012	0.2936	0.8151	-1.741
Mof_B 	B 	0.881	0.2604	0.77895	-3.152
Mof_H 	H 	0.908	0.321	0.7675	1.78
Mof_B 	B 	0.9331	0.2045	0.78075	19.69
Mof_H 	H 	0.9962	0.2283	0.7714	-5.265
Mof_B 	B 	0.8608	0.0971	0.78242	-20.35
Mof_H 	H 	0.8759	0.0503	0.7737	5.305
Mof_Cu	Cu	0.4743	0.9491	0.9773	0.936
Mof_O 	O 	0.4371	0.0204	0.963	-0.373
Mof_O 	O 	0.5176	0.8913	0.9958	-0.381
Mof_O 	O 	0.3755	0.896	0.9968	-0.383
Mof_O 	O 	0.5797	0.0158	0.9629	-0.377
Mof_C 	C 	0.4505	0.0892	0.9778	0.275
Mof_C 	C 	0.4365	0.1534	0.9609	-0.08
Mof_C 	C 	0.4458	0.221	0.9747	0.024
Mof_C 	C 	0.4171	0.1434	0.9336	0.051
Mof_H 	H 	0.461	0.2284	0.9937	0.056
Mof_C 	C 	0.4336	0.2783	0.9613	-0.073
Mof_C 	C 	0.4072	0.2022	0.92	-0.137
Mof_H 	H 	0.4103	0.0959	0.924	0.023
Mof_C 	C 	0.4191	0.2716	0.9336	0.043
Mof_C 	C 	0.4527	0.3636	0.9758	0.267
Mof_C 	C 	0.3996	0.2012	0.8899	0.236
Mof_H 	H 	0.4173	0.3148	0.9237	0.035
Mof_C 	C 	0.4072	0.2076	0.8636	-0.759
Mof_B 	B 	0.4154	0.2131	0.8308	0.238
Mof_B 	B 	0.4115	0.1288	0.8115	2.648
Mof_B 	B 	0.3247	0.1453	0.8107	-4.738
Mof_B 	B 	0.3621	0.2546	0.811	-1.265
Mof_B 	B 	0.4706	0.3012	0.81	-5.727
Mof_B 	B 	0.5043	0.228	0.8121	-1.161
Mof_H 	H 	0.4092	0.0738	0.8219	-0.54
Mof_B 	B 	0.4668	0.1721	0.7804	-5.225
Mof_B 	B 	0.3559	0.1161	0.7802	0.62
Mof_H 	H 	0.264	0.101	0.8208	0.299
Mof_B 	B 	0.3306	0.198	0.7796	-2.628
Mof_C 	C 	0.4137	0.2852	0.7827	2.793
Mof_H 	H 	0.328	0.283	0.8212	-1.323
Mof_C 	C 	0.4955	0.2664	0.7839	5.753
Mof_H 	H 	0.5107	0.3655	0.8184	1.273
Mof_H 	H 	0.5629	0.2397	0.8228	0.679
Mof_H 	H 	0.5045	0.1481	0.7699	1.468
Mof_H 	H 	0.3166	0.0523	0.7713	-4.78
Mof_H 	H 	0.2739	0.1907	0.7687	5.852
Mof_H 	H 	0.4151	0.3414	0.7737	-0.799
Mof_H 	H 	0.5586	0.3102	0.7752	-1.101
Mof_C 	C 	0.3733	0.1849	0.863	0.249
Mof_C 	C 	0.3158	0.2286	0.78442	0.651
Mof_H 	H 	0.3071	0.2807	0.7768	-0.466
Mof_C 	C 	0.3982	0.2085	0.78323	1.696
Mof_H 	H 	0.4592	0.25	0.7728	-3.263
Mof_B 	B 	0.3444	0.168	0.8312	0.942
Mof_B 	B 	0.3361	0.0828	0.8116	-7.424
Mof_H 	H 	0.3376	0.0299	0.8222	2.114
Mof_B 	B 	0.2506	0.0965	0.8151	0.684
Mof_H 	H 	0.1964	0.0523	0.8281	-0.396
Mof_B 	B 	0.2795	0.2001	0.8145	13.949
Mof_H 	H 	0.2467	0.2258	0.827	-3.936
Mof_B 	B 	0.3874	0.2539	0.8075	-4.795
Mof_H 	H 	0.4286	0.3211	0.8128	3.163
Mof_B 	B 	0.4285	0.1824	0.808	7.758
Mof_H 	H 	0.4924	0.1988	0.8151	-1.741
Mof_B 	B 	0.3794	0.119	0.77895	-3.152
Mof_H 	H 	0.413	0.092	0.7675	1.78
Mof_B 	B 	0.2714	0.0669	0.78075	19.691
Mof_H 	H 	0.2321	0.0038	0.7714	-5.265
Mof_B 	B 	0.2363	0.1392	0.78242	-20.35
Mof_H 	H 	0.1744	0.1241	0.7737	5.305
Mof_Cu	Cu	0.4748	0.5257	0.9773	0.936
Mof_O 	O 	0.5833	0.5629	0.963	-0.373
Mof_O 	O 	0.3737	0.4824	0.9958	-0.381
Mof_O 	O 	0.5205	0.6245	0.9968	-0.383
Mof_O 	O 	0.4361	0.4203	0.9629	-0.377
Mof_C 	C 	0.6387	0.5495	0.9778	0.275
Mof_C 	C 	0.7169	0.5635	0.9609	-0.081
Mof_C 	C 	0.7752	0.5542	0.9747	0.024
Mof_C 	C 	0.7263	0.5829	0.9336	0.051
Mof_H 	H 	0.7674	0.539	0.9937	0.056
Mof_C 	C 	0.8447	0.5664	0.9613	-0.073
Mof_C 	C 	0.795	0.5928	0.92	-0.137
Mof_H 	H 	0.6856	0.5897	0.924	0.023
Mof_C 	C 	0.8525	0.5809	0.9336	0.043
Mof_C 	C 	0.9109	0.5473	0.9758	0.267
Mof_C 	C 	0.8016	0.6004	0.8899	0.236
Mof_H 	H 	0.8975	0.5827	0.9237	0.035
Mof_C 	C 	0.8004	0.5928	0.8636	-0.759
Mof_B 	B 	0.7977	0.5846	0.8308	0.238
Mof_B 	B 	0.7173	0.5885	0.8115	2.648
Mof_B 	B 	0.8206	0.6753	0.8107	-4.738
Mof_B 	B 	0.8925	0.6379	0.811	-1.265
Mof_B 	B 	0.8306	0.5294	0.81	-5.726
Mof_B 	B 	0.7237	0.4957	0.8121	-1.161
Mof_H 	H 	0.6646	0.5908	0.8219	-0.54
Mof_B 	B 	0.7053	0.5332	0.7804	-5.225
Mof_B 	B 	0.7602	0.6441	0.7802	0.62
Mof_H 	H 	0.837	0.736	0.8208	0.299
Mof_B 	B 	0.8674	0.6694	0.7796	-2.628
Mof_C 	C 	0.8715	0.5863	0.7827	2.793
Mof_H 	H 	0.955	0.672	0.8212	-1.323
Mof_C 	C 	0.7709	0.5045	0.7839	5.753
Mof_H 	H 	0.8548	0.4893	0.8184	1.273
Mof_H 	H 	0.6768	0.4371	0.8228	0.679
Mof_H 	H 	0.6436	0.4955	0.7699	1.467
Mof_H 	H 	0.7357	0.6834	0.7713	-4.78
Mof_H 	H 	0.9168	0.7261	0.7687	5.851
Mof_H 	H 	0.9263	0.5849	0.7737	-0.799
Mof_H 	H 	0.7516	0.4414	0.7752	-1.1
Mof_C 	C 	0.8116	0.6267	0.863	0.248
Mof_C 	C 	0.9128	0.6842	0.78442	0.651
Mof_H 	H 	0.9736	0.6929	0.7768	-0.466
Mof_C 	C 	0.8103	0.6018	0.78323	1.696
Mof_H 	H 	0.7908	0.5408	0.7728	-3.263
Mof_B 	B 	0.8236	0.6556	0.8312	0.942
Mof_B 	B 	0.7467	0.6639	0.8116	-7.424
Mof_H 	H 	0.6923	0.6624	0.8222	2.113
Mof_B 	B 	0.8459	0.7494	0.8151	0.684
Mof_H 	H 	0.8559	0.8036	0.8281	-0.396
Mof_B 	B 	0.9206	0.7205	0.8145	13.949
Mof_H 	H 	0.9791	0.7533	0.827	-3.935
Mof_B 	B 	0.8665	0.6126	0.8075	-4.795
Mof_H 	H 	0.8925	0.5714	0.8128	3.163
Mof_B 	B 	0.7539	0.5715	0.808	7.757
Mof_H 	H 	0.7064	0.5076	0.8151	-1.741
Mof_B 	B 	0.7396	0.6206	0.77895	-3.152
Mof_H 	H 	0.679	0.587	0.7675	1.78
Mof_B 	B 	0.7955	0.7286	0.78075	19.69
Mof_H 	H 	0.7717	0.7679	0.7714	-5.265
Mof_B 	B 	0.9029	0.7637	0.78242	-20.35
Mof_H 	H 	0.9497	0.8256	0.7737	5.305
Mof_Co	Co	0.2057	0.7943	0.25	1.815
Mof_Co	Co	0.157	0.843	0.25	0.361
Mof_Co	Co	0.2057	0.4114	0.25	1.815
Mof_Co	Co	0.157	0.314	0.25	0.361
Mof_Co	Co	0.5886	0.7943	0.25	1.815
Mof_Co	Co	0.686	0.843	0.25	0.361
Mof_Co	Co	0.7943	0.2057	0.75	1.815
Mof_Co	Co	0.843	0.157	0.75	0.361
Mof_Co	Co	0.7943	0.5886	0.75	1.815
Mof_Co	Co	0.843	0.686	0.75	0.361
Mof_Co	Co	0.4114	0.2057	0.75	1.815
Mof_Co	Co	0.314	0.157	0.75	0.361
_end
