data_functionalizedCrystal
_audit_creation_method	'EQeq! by Chris Wilmer'
_symmetry_space_group_name_H-M	'P1'
_symmetry_Int_Tables_number	1
_symmetry_cell_setting	triclinic
loop_
_symmetry_equiv_pos_as_xyz
  x,y,z
_cell_length_a	23.1853
_cell_length_b	23.1853
_cell_length_c	23.1853
_cell_angle_alpha	90
_cell_angle_beta	90
_cell_angle_gamma	90
loop_
_atom_site_label
_atom_site_type_symbol
_atom_site_fract_x
_atom_site_fract_y
_atom_site_fract_z
_atom_site_charge
Mof_Ni	Ni	0.06388	0.06388	0.06388	1.078
Mof_Ni	Ni	0.06388	0.56388	0.56388	1.078
Mof_Ni	Ni	0.56388	0.06388	0.56388	1.078
Mof_Ni	Ni	0.56388	0.56388	0.06388	1.078
Mof_Ni	Ni	0.93612	0.93612	0.06388	1.078
Mof_Ni	Ni	0.93612	0.43612	0.56388	1.078
Mof_Ni	Ni	0.43612	0.93612	0.56388	1.078
Mof_Ni	Ni	0.43612	0.43612	0.06388	1.078
Mof_Ni	Ni	0.93612	0.06388	0.93612	1.078
Mof_Ni	Ni	0.93612	0.56388	0.43612	1.078
Mof_Ni	Ni	0.43612	0.06388	0.43612	1.078
Mof_Ni	Ni	0.43612	0.56388	0.93612	1.077
Mof_Ni	Ni	0.06388	0.93612	0.93612	1.077
Mof_Ni	Ni	0.06388	0.43612	0.43612	1.077
Mof_Ni	Ni	0.56388	0.93612	0.43612	1.077
Mof_Ni	Ni	0.56388	0.43612	0.93612	1.077
Mof_Ni	Ni	0.06388	0.06388	0.93612	1.077
Mof_Ni	Ni	0.06388	0.56388	0.43612	1.077
Mof_Ni	Ni	0.56388	0.06388	0.43612	1.077
Mof_Ni	Ni	0.56388	0.56388	0.93612	1.077
Mof_Ni	Ni	0.93612	0.93612	0.93612	1.078
Mof_Ni	Ni	0.93612	0.43612	0.43612	1.077
Mof_Ni	Ni	0.43612	0.93612	0.43612	1.077
Mof_Ni	Ni	0.43612	0.43612	0.93612	1.077
Mof_Ni	Ni	0.06388	0.93612	0.06388	1.077
Mof_Ni	Ni	0.06388	0.43612	0.56388	1.077
Mof_Ni	Ni	0.56388	0.93612	0.56388	1.077
Mof_Ni	Ni	0.56388	0.43612	0.06388	1.077
Mof_Ni	Ni	0.93612	0.06388	0.06388	1.077
Mof_Ni	Ni	0.93612	0.56388	0.56388	1.077
Mof_Ni	Ni	0.43612	0.06388	0.56388	1.077
Mof_Ni	Ni	0.43612	0.56388	0.06388	1.077
Mof_O 	O 	0.0929	0	-0	-0.817
Mof_H 	H 	0.13	0	-0	0.258
Mof_O 	O 	0.0929	0.5	0.5	-0.816
Mof_H 	H 	0.13	0.5	0.5	0.259
Mof_O 	O 	0.5929	-4.05081e-33	0.5	-0.817
Mof_H 	H 	0.63	-4.05081e-33	0.5	0.258
Mof_O 	O 	0.5929	0.5	-0	-0.817
Mof_H 	H 	0.63	0.5	-0	0.258
Mof_O 	O 	0.9071	0	-0	-0.817
Mof_H 	H 	0.87	0	-0	0.258
Mof_O 	O 	0.9071	0.5	0.5	-0.815
Mof_H 	H 	0.87	0.5	0.5	0.258
Mof_O 	O 	0.4071	-4.05081e-33	0.5	-0.817
Mof_H 	H 	0.37	-4.05081e-33	0.5	0.258
Mof_O 	O 	0.4071	0.5	-0	-0.817
Mof_H 	H 	0.37	0.5	-0	0.258
Mof_O 	O 	-0	0.0929	-0	-0.817
Mof_H 	H 	-0	0.13	-0	0.258
Mof_O 	O 	-2.17611e-33	0.5929	0.5	-0.817
Mof_H 	H 	-6.22693e-33	0.63	0.5	0.258
Mof_O 	O 	0.5	0.0929	0.5	-0.816
Mof_H 	H 	0.5	0.13	0.5	0.259
Mof_O 	O 	0.5	0.5929	-0	-0.817
Mof_H 	H 	0.5	0.63	-0	0.258
Mof_O 	O 	-0	0.9071	-0	-0.817
Mof_H 	H 	-0	0.87	-0	0.258
Mof_O 	O 	-2.17611e-33	0.4071	0.5	-0.817
Mof_H 	H 	-2.17611e-33	0.37	0.5	0.258
Mof_O 	O 	0.5	0.9071	0.5	-0.815
Mof_H 	H 	0.5	0.87	0.5	0.258
Mof_O 	O 	0.5	0.4071	-0	-0.817
Mof_H 	H 	0.5	0.37	-0	0.258
Mof_O 	O 	3.48319e-34	0	0.0929	-0.817
Mof_H 	H 	4.87422e-34	0	0.13	0.258
Mof_O 	O 	-1.82779e-33	0.5	0.5929	-0.817
Mof_H 	H 	-1.38411e-32	0.5	0.63	0.258
Mof_O 	O 	0.5	0	0.5929	-0.817
Mof_H 	H 	0.5	0	0.63	0.258
Mof_O 	O 	0.5	0.5	0.0929	-0.816
Mof_H 	H 	0.5	0.5	0.13	0.259
Mof_O 	O 	3.40108e-33	0	0.9071	-0.817
Mof_H 	H 	3.26198e-33	0	0.87	0.258
Mof_O 	O 	-2.52443e-33	0.5	0.4071	-0.817
Mof_H 	H 	-2.66354e-33	0.5	0.37	0.258
Mof_O 	O 	0.5	-4.05081e-33	0.4071	-0.817
Mof_H 	H 	0.5	-4.05081e-33	0.37	0.258
Mof_O 	O 	0.5	0.5	0.9071	-0.815
Mof_H 	H 	0.5	0.5	0.87	0.258
Mof_C 	C 	0.26712	0.26712	-0	0.157
Mof_C 	C 	0.18234	0.18234	-0	0.137
Mof_C 	C 	0.13811	0.13811	-0	0.474
Mof_C 	C 	0.31134	0.31134	-0	-0.189
Mof_C 	C 	0.26712	0.76712	0.5	0.159
Mof_C 	C 	0.18234	0.68234	0.5	0.138
Mof_C 	C 	0.13811	0.63811	0.5	0.474
Mof_C 	C 	0.31134	0.81134	0.5	-0.187
Mof_C 	C 	0.76712	0.26712	0.5	0.159
Mof_C 	C 	0.68234	0.18234	0.5	0.138
Mof_C 	C 	0.63811	0.13811	0.5	0.474
Mof_C 	C 	0.81134	0.31134	0.5	-0.187
Mof_C 	C 	0.76712	0.76712	-0	0.156
Mof_C 	C 	0.68234	0.68234	-0	0.136
Mof_C 	C 	0.63811	0.63811	-0	0.473
Mof_C 	C 	0.81134	0.81134	-0	-0.19
Mof_C 	C 	0.73288	0.73288	-0	0.156
Mof_C 	C 	0.81766	0.81766	-0	0.136
Mof_C 	C 	0.86189	0.86189	-0	0.474
Mof_C 	C 	0.68866	0.68866	-0	-0.19
Mof_C 	C 	0.73288	0.23288	0.5	0.159
Mof_C 	C 	0.81766	0.31766	0.5	0.138
Mof_C 	C 	0.86189	0.36189	0.5	0.474
Mof_C 	C 	0.68866	0.18866	0.5	-0.187
Mof_C 	C 	0.23288	0.73288	0.5	0.159
Mof_C 	C 	0.31766	0.81766	0.5	0.138
Mof_C 	C 	0.36189	0.86189	0.5	0.474
Mof_C 	C 	0.18866	0.68866	0.5	-0.187
Mof_C 	C 	0.23288	0.23288	-0	0.158
Mof_C 	C 	0.31766	0.31766	-0	0.137
Mof_C 	C 	0.36189	0.36189	-0	0.474
Mof_C 	C 	0.18866	0.18866	-0	-0.189
Mof_C 	C 	0.73288	0.26712	-0	0.156
Mof_C 	C 	0.81766	0.18234	-0	0.136
Mof_C 	C 	0.86189	0.13811	-0	0.474
Mof_C 	C 	0.68866	0.31134	-0	-0.189
Mof_C 	C 	0.73288	0.76712	0.5	0.159
Mof_C 	C 	0.81766	0.68234	0.5	0.138
Mof_C 	C 	0.86189	0.63811	0.5	0.474
Mof_C 	C 	0.68866	0.81134	0.5	-0.187
Mof_C 	C 	0.23288	0.26712	0.5	0.159
Mof_C 	C 	0.31766	0.18234	0.5	0.138
Mof_C 	C 	0.36189	0.13811	0.5	0.474
Mof_C 	C 	0.18866	0.31134	0.5	-0.187
Mof_C 	C 	0.23288	0.76712	-0	0.157
Mof_C 	C 	0.31766	0.68234	-0	0.136
Mof_C 	C 	0.36189	0.63811	-0	0.473
Mof_C 	C 	0.18866	0.81134	-0	-0.189
Mof_C 	C 	0.26712	0.73288	-0	0.156
Mof_C 	C 	0.18234	0.81766	-0	0.136
Mof_C 	C 	0.13811	0.86189	-0	0.474
Mof_C 	C 	0.31134	0.68866	-0	-0.189
Mof_C 	C 	0.26712	0.23288	0.5	0.159
Mof_C 	C 	0.18234	0.31766	0.5	0.138
Mof_C 	C 	0.13811	0.36189	0.5	0.474
Mof_C 	C 	0.31134	0.18866	0.5	-0.187
Mof_C 	C 	0.76712	0.73288	0.5	0.159
Mof_C 	C 	0.68234	0.81766	0.5	0.138
Mof_C 	C 	0.63811	0.86189	0.5	0.474
Mof_C 	C 	0.81134	0.68866	0.5	-0.187
Mof_C 	C 	0.76712	0.23288	-0	0.157
Mof_C 	C 	0.68234	0.31766	-0	0.136
Mof_C 	C 	0.63811	0.36189	-0	0.473
Mof_C 	C 	0.81134	0.18866	-0	-0.189
Mof_C 	C 	-3.04927e-33	0.26712	0.26712	0.157
Mof_C 	C 	6.83665e-34	0.18234	0.18234	0.137
Mof_C 	C 	-1.50758e-33	0.13811	0.13811	0.474
Mof_C 	C 	1.16734e-33	0.31134	0.31134	-0.189
Mof_C 	C 	2.87624e-33	0.76712	0.76712	0.156
Mof_C 	C 	-5.54326e-33	0.68234	0.68234	0.136
Mof_C 	C 	-1.38107e-32	0.63811	0.63811	0.473
Mof_C 	C 	3.04204e-33	0.81134	0.81134	-0.19
Mof_C 	C 	0.5	0.26712	0.76712	0.159
Mof_C 	C 	0.5	0.18234	0.68234	0.138
Mof_C 	C 	0.5	0.13811	0.63811	0.474
Mof_C 	C 	0.5	0.31134	0.81134	-0.187
Mof_C 	C 	0.5	0.76712	0.26712	0.159
Mof_C 	C 	0.5	0.68234	0.18234	0.138
Mof_C 	C 	0.5	0.63811	0.13811	0.474
Mof_C 	C 	0.5	0.81134	0.31134	-0.187
Mof_C 	C 	2.74786e-33	0.73288	0.73288	0.156
Mof_C 	C 	-1.31375e-32	0.81766	0.81766	0.136
Mof_C 	C 	3.23157e-33	0.86189	0.86189	0.474
Mof_C 	C 	2.58206e-33	0.68866	0.68866	-0.19
Mof_C 	C 	8.7316e-34	0.23288	0.23288	0.158
Mof_C 	C 	-6.91059e-33	0.31766	0.31766	0.137
Mof_C 	C 	1.35687e-33	0.36189	0.36189	0.474
Mof_C 	C 	7.07362e-34	0.18866	0.18866	-0.189
Mof_C 	C 	0.5	0.73288	0.23288	0.159
Mof_C 	C 	0.5	0.81766	0.31766	0.138
Mof_C 	C 	0.5	0.86189	0.36189	0.474
Mof_C 	C 	0.5	0.68866	0.18866	-0.187
Mof_C 	C 	0.5	0.23288	0.73288	0.159
Mof_C 	C 	0.5	0.31766	0.81766	0.138
Mof_C 	C 	0.5	0.36189	0.86189	0.474
Mof_C 	C 	0.5	0.18866	0.68866	-0.187
Mof_C 	C 	-7.10009e-33	0.73288	0.26712	0.156
Mof_C 	C 	-1.14688e-32	0.81766	0.18234	0.136
Mof_C 	C 	-4.94874e-34	0.86189	0.13811	0.474
Mof_C 	C 	1.16734e-33	0.68866	0.31134	-0.189
Mof_C 	C 	-5.22539e-33	0.23288	0.76712	0.157
Mof_C 	C 	2.55837e-33	0.31766	0.68234	0.136
Mof_C 	C 	-1.38107e-32	0.36189	0.63811	0.473
Mof_C 	C 	-5.05959e-33	0.18866	0.81134	-0.189
Mof_C 	C 	0.5	0.73288	0.76712	0.159
Mof_C 	C 	0.5	0.81766	0.68234	0.138
Mof_C 	C 	0.5	0.86189	0.63811	0.474
Mof_C 	C 	0.5	0.68866	0.81134	-0.187
Mof_C 	C 	0.5	0.23288	0.26712	0.159
Mof_C 	C 	0.5	0.31766	0.18234	0.138
Mof_C 	C 	0.5	0.36189	0.13811	0.474
Mof_C 	C 	0.5	0.18866	0.31134	-0.187
Mof_C 	C 	-5.35377e-33	0.26712	0.73288	0.156
Mof_C 	C 	-1.31375e-32	0.18234	0.81766	0.136
Mof_C 	C 	3.23157e-33	0.13811	0.86189	0.474
Mof_C 	C 	-5.51957e-33	0.31134	0.68866	-0.189
Mof_C 	C 	-1.15225e-33	0.76712	0.23288	0.157
Mof_C 	C 	-2.85978e-33	0.68234	0.31766	0.136
Mof_C 	C 	-1.07956e-32	0.63811	0.36189	0.473
Mof_C 	C 	-5.36886e-33	0.81134	0.18866	-0.189
Mof_C 	C 	0.5	0.26712	0.23288	0.159
Mof_C 	C 	0.5	0.18234	0.31766	0.138
Mof_C 	C 	0.5	0.13811	0.36189	0.474
Mof_C 	C 	0.5	0.31134	0.18866	-0.187
Mof_C 	C 	0.5	0.76712	0.73288	0.159
Mof_C 	C 	0.5	0.68234	0.81766	0.138
Mof_C 	C 	0.5	0.63811	0.86189	0.474
Mof_C 	C 	0.5	0.81134	0.68866	-0.187
Mof_C 	C 	0.26712	-2.02541e-33	0.26712	0.157
Mof_C 	C 	0.18234	0	0.18234	0.137
Mof_C 	C 	0.13811	-1.0127e-33	0.13811	0.474
Mof_C 	C 	0.31134	0	0.31134	-0.189
Mof_C 	C 	0.26712	0.5	0.76712	0.159
Mof_C 	C 	0.18234	0.5	0.68234	0.138
Mof_C 	C 	0.13811	0.5	0.63811	0.474
Mof_C 	C 	0.31134	0.5	0.81134	-0.187
Mof_C 	C 	0.76712	0	0.76712	0.156
Mof_C 	C 	0.68234	0	0.68234	0.136
Mof_C 	C 	0.63811	-8.10163e-33	0.63811	0.473
Mof_C 	C 	0.81134	0	0.81134	-0.19
Mof_C 	C 	0.76712	0.5	0.26712	0.159
Mof_C 	C 	0.68234	0.5	0.18234	0.138
Mof_C 	C 	0.63811	0.5	0.13811	0.474
Mof_C 	C 	0.81134	0.5	0.31134	-0.187
Mof_C 	C 	0.73288	0	0.73288	0.156
Mof_C 	C 	0.81766	-8.10163e-33	0.81766	0.136
Mof_C 	C 	0.86189	0	0.86189	0.474
Mof_C 	C 	0.68866	0	0.68866	-0.19
Mof_C 	C 	0.73288	0.5	0.23288	0.159
Mof_C 	C 	0.81766	0.5	0.31766	0.138
Mof_C 	C 	0.86189	0.5	0.36189	0.474
Mof_C 	C 	0.68866	0.5	0.18866	-0.187
Mof_C 	C 	0.23288	0	0.23288	0.158
Mof_C 	C 	0.31766	-4.05081e-33	0.31766	0.137
Mof_C 	C 	0.36189	0	0.36189	0.474
Mof_C 	C 	0.18866	0	0.18866	-0.189
Mof_C 	C 	0.23288	0.5	0.73288	0.159
Mof_C 	C 	0.31766	0.5	0.81766	0.138
Mof_C 	C 	0.36189	0.5	0.86189	0.474
Mof_C 	C 	0.18866	0.5	0.68866	-0.187
Mof_C 	C 	0.26712	0	0.73288	0.156
Mof_C 	C 	0.18234	-8.10163e-33	0.81766	0.136
Mof_C 	C 	0.13811	0	0.86189	0.474
Mof_C 	C 	0.31134	0	0.68866	-0.189
Mof_C 	C 	0.26712	0.5	0.23288	0.159
Mof_C 	C 	0.18234	0.5	0.31766	0.138
Mof_C 	C 	0.13811	0.5	0.36189	0.474
Mof_C 	C 	0.31134	0.5	0.18866	-0.187
Mof_C 	C 	0.76712	0	0.23288	0.157
Mof_C 	C 	0.68234	-4.05081e-33	0.31766	0.136
Mof_C 	C 	0.63811	0	0.36189	0.473
Mof_C 	C 	0.81134	0	0.18866	-0.189
Mof_C 	C 	0.76712	0.5	0.73288	0.159
Mof_C 	C 	0.68234	0.5	0.81766	0.138
Mof_C 	C 	0.63811	0.5	0.86189	0.474
Mof_C 	C 	0.81134	0.5	0.68866	-0.187
Mof_C 	C 	0.73288	-2.02541e-33	0.26712	0.156
Mof_C 	C 	0.81766	0	0.18234	0.136
Mof_C 	C 	0.86189	-1.0127e-33	0.13811	0.474
Mof_C 	C 	0.68866	0	0.31134	-0.189
Mof_C 	C 	0.73288	0.5	0.76712	0.159
Mof_C 	C 	0.81766	0.5	0.68234	0.138
Mof_C 	C 	0.86189	0.5	0.63811	0.474
Mof_C 	C 	0.68866	0.5	0.81134	-0.187
Mof_C 	C 	0.23288	0	0.76712	0.157
Mof_C 	C 	0.31766	0	0.68234	0.136
Mof_C 	C 	0.36189	-8.10163e-33	0.63811	0.473
Mof_C 	C 	0.18866	0	0.81134	-0.189
Mof_C 	C 	0.23288	0.5	0.26712	0.159
Mof_C 	C 	0.31766	0.5	0.18234	0.138
Mof_C 	C 	0.36189	0.5	0.13811	0.474
Mof_C 	C 	0.18866	0.5	0.31134	-0.187
Mof_C 	C 	0.24592	0.24592	0.94808	0.02
Mof_H 	H 	0.26041	0.26041	0.9126	0.02
Mof_C 	C 	0.20353	0.20353	0.94808	-0.457
Mof_H 	H 	0.18904	0.18904	0.9126	0.593
Mof_O 	O 	0.11905	0.11905	0.95331	-0.165
Mof_C 	C 	0.33572	0.33572	0.95255	0.301
Mof_H 	H 	0.32677	0.32677	0.91358	-0.507
Mof_N 	N 	0.37517	0.37517	0.97067	-0.312
Mof_C 	C 	0.24592	0.74592	0.44808	0.019
Mof_H 	H 	0.26041	0.76041	0.4126	0.021
Mof_C 	C 	0.20353	0.70353	0.44808	-0.459
Mof_H 	H 	0.18904	0.68904	0.4126	0.594
Mof_O 	O 	0.11905	0.61905	0.45331	-0.168
Mof_C 	C 	0.33572	0.83572	0.45255	0.299
Mof_H 	H 	0.32677	0.82677	0.41358	-0.507
Mof_N 	N 	0.37517	0.87517	0.47067	-0.31
Mof_C 	C 	0.74592	0.24592	0.44808	0.019
Mof_H 	H 	0.76041	0.26041	0.4126	0.021
Mof_C 	C 	0.70353	0.20353	0.44808	-0.459
Mof_H 	H 	0.68904	0.18904	0.4126	0.594
Mof_O 	O 	0.61905	0.11905	0.45331	-0.168
Mof_C 	C 	0.83572	0.33572	0.45255	0.299
Mof_H 	H 	0.82677	0.32677	0.41358	-0.507
Mof_N 	N 	0.87517	0.37517	0.47067	-0.31
Mof_C 	C 	0.74592	0.74592	0.94808	0.02
Mof_H 	H 	0.76041	0.76041	0.9126	0.02
Mof_C 	C 	0.70353	0.70353	0.94808	-0.455
Mof_H 	H 	0.68904	0.68904	0.9126	0.592
Mof_O 	O 	0.61905	0.61905	0.95331	-0.162
Mof_C 	C 	0.83572	0.83572	0.95255	0.302
Mof_H 	H 	0.82677	0.82677	0.91358	-0.506
Mof_N 	N 	0.87517	0.87517	0.97067	-0.314
Mof_C 	C 	0.75408	0.75408	0.94808	0.02
Mof_H 	H 	0.73959	0.73959	0.9126	0.02
Mof_C 	C 	0.79647	0.79647	0.94808	-0.453
Mof_H 	H 	0.81096	0.81096	0.9126	0.591
Mof_O 	O 	0.88095	0.88095	0.95331	-0.161
Mof_C 	C 	0.66428	0.66428	0.95255	0.302
Mof_H 	H 	0.67323	0.67323	0.91358	-0.507
Mof_N 	N 	0.62483	0.62483	0.97067	-0.313
Mof_C 	C 	0.75408	0.25408	0.44808	0.019
Mof_H 	H 	0.73959	0.23959	0.4126	0.021
Mof_C 	C 	0.79647	0.29647	0.44808	-0.459
Mof_H 	H 	0.81096	0.31096	0.4126	0.593
Mof_O 	O 	0.88095	0.38095	0.45331	-0.168
Mof_C 	C 	0.66428	0.16428	0.45255	0.299
Mof_H 	H 	0.67323	0.17323	0.41358	-0.507
Mof_N 	N 	0.62483	0.12483	0.47067	-0.31
Mof_C 	C 	0.25408	0.75408	0.44808	0.019
Mof_H 	H 	0.23959	0.73959	0.4126	0.021
Mof_C 	C 	0.29647	0.79647	0.44808	-0.459
Mof_H 	H 	0.31096	0.81096	0.4126	0.593
Mof_O 	O 	0.38095	0.88095	0.45331	-0.168
Mof_C 	C 	0.16428	0.66428	0.45255	0.299
Mof_H 	H 	0.17323	0.67323	0.41358	-0.507
Mof_N 	N 	0.12483	0.62483	0.47067	-0.31
Mof_C 	C 	0.25408	0.25408	0.94808	0.02
Mof_H 	H 	0.23959	0.23959	0.9126	0.02
Mof_C 	C 	0.29647	0.29647	0.94808	-0.456
Mof_H 	H 	0.31096	0.31096	0.9126	0.592
Mof_O 	O 	0.38095	0.38095	0.95331	-0.164
Mof_C 	C 	0.16428	0.16428	0.95255	0.3
Mof_H 	H 	0.17323	0.17323	0.91358	-0.507
Mof_N 	N 	0.12483	0.12483	0.97067	-0.312
Mof_C 	C 	0.75408	0.24592	0.05192	0.019
Mof_H 	H 	0.73959	0.26041	0.0874	0.02
Mof_C 	C 	0.79647	0.20353	0.05192	-0.458
Mof_H 	H 	0.81096	0.18904	0.0874	0.594
Mof_O 	O 	0.88095	0.11905	0.04669	-0.167
Mof_C 	C 	0.66428	0.33572	0.04745	0.3
Mof_H 	H 	0.67323	0.32677	0.08642	-0.508
Mof_N 	N 	0.62483	0.37517	0.02933	-0.311
Mof_C 	C 	0.75408	0.74592	0.55192	0.019
Mof_H 	H 	0.73959	0.76041	0.5874	0.021
Mof_C 	C 	0.79647	0.70353	0.55192	-0.459
Mof_H 	H 	0.81096	0.68904	0.5874	0.593
Mof_O 	O 	0.88095	0.61905	0.54669	-0.168
Mof_C 	C 	0.66428	0.83572	0.54745	0.299
Mof_H 	H 	0.67323	0.82677	0.58642	-0.507
Mof_N 	N 	0.62483	0.87517	0.52933	-0.31
Mof_C 	C 	0.25408	0.24592	0.55192	0.019
Mof_H 	H 	0.23959	0.26041	0.5874	0.021
Mof_C 	C 	0.29647	0.20353	0.55192	-0.459
Mof_H 	H 	0.31096	0.18904	0.5874	0.594
Mof_O 	O 	0.38095	0.11905	0.54669	-0.168
Mof_C 	C 	0.16428	0.33572	0.54745	0.299
Mof_H 	H 	0.17323	0.32677	0.58642	-0.507
Mof_N 	N 	0.12483	0.37517	0.52933	-0.31
Mof_C 	C 	0.25408	0.74592	0.05192	0.019
Mof_H 	H 	0.23959	0.76041	0.0874	0.02
Mof_C 	C 	0.29647	0.70353	0.05192	-0.458
Mof_H 	H 	0.31096	0.68904	0.0874	0.593
Mof_O 	O 	0.38095	0.61905	0.04669	-0.166
Mof_C 	C 	0.16428	0.83572	0.04745	0.3
Mof_H 	H 	0.17323	0.82677	0.08642	-0.508
Mof_N 	N 	0.12483	0.87517	0.02933	-0.311
Mof_C 	C 	0.24592	0.75408	0.05192	0.019
Mof_H 	H 	0.26041	0.73959	0.0874	0.02
Mof_C 	C 	0.20353	0.79647	0.05192	-0.458
Mof_H 	H 	0.18904	0.81096	0.0874	0.594
Mof_O 	O 	0.11905	0.88095	0.04669	-0.167
Mof_C 	C 	0.33572	0.66428	0.04745	0.3
Mof_H 	H 	0.32677	0.67323	0.08642	-0.508
Mof_N 	N 	0.37517	0.62483	0.02933	-0.311
Mof_C 	C 	0.24592	0.25408	0.55192	0.019
Mof_H 	H 	0.26041	0.23959	0.5874	0.021
Mof_C 	C 	0.20353	0.29647	0.55192	-0.459
Mof_H 	H 	0.18904	0.31096	0.5874	0.594
Mof_O 	O 	0.11905	0.38095	0.54669	-0.168
Mof_C 	C 	0.33572	0.16428	0.54745	0.299
Mof_H 	H 	0.32677	0.17323	0.58642	-0.507
Mof_N 	N 	0.37517	0.12483	0.52933	-0.31
Mof_C 	C 	0.74592	0.75408	0.55192	0.019
Mof_H 	H 	0.76041	0.73959	0.5874	0.021
Mof_C 	C 	0.70353	0.79647	0.55192	-0.459
Mof_H 	H 	0.68904	0.81096	0.5874	0.593
Mof_O 	O 	0.61905	0.88095	0.54669	-0.168
Mof_C 	C 	0.83572	0.66428	0.54745	0.299
Mof_H 	H 	0.82677	0.67323	0.58642	-0.507
Mof_N 	N 	0.87517	0.62483	0.52933	-0.31
Mof_C 	C 	0.74592	0.25408	0.05192	0.019
Mof_H 	H 	0.76041	0.23959	0.0874	0.02
Mof_C 	C 	0.70353	0.29647	0.05192	-0.458
Mof_H 	H 	0.68904	0.31096	0.0874	0.593
Mof_O 	O 	0.61905	0.38095	0.04669	-0.166
Mof_C 	C 	0.83572	0.16428	0.04745	0.3
Mof_H 	H 	0.82677	0.17323	0.08642	-0.508
Mof_N 	N 	0.87517	0.12483	0.02933	-0.311
Mof_C 	C 	0.94808	0.24592	0.24592	0.02
Mof_H 	H 	0.9126	0.26041	0.26041	0.02
Mof_C 	C 	0.94808	0.20353	0.20353	-0.457
Mof_H 	H 	0.9126	0.18904	0.18904	0.593
Mof_O 	O 	0.95331	0.11905	0.11905	-0.165
Mof_C 	C 	0.95255	0.33572	0.33572	0.301
Mof_H 	H 	0.91358	0.32677	0.32677	-0.507
Mof_N 	N 	0.97067	0.37517	0.37517	-0.312
Mof_C 	C 	0.94808	0.74592	0.74592	0.02
Mof_H 	H 	0.9126	0.76041	0.76041	0.02
Mof_C 	C 	0.94808	0.70353	0.70353	-0.455
Mof_H 	H 	0.9126	0.68904	0.68904	0.592
Mof_O 	O 	0.95331	0.61905	0.61905	-0.162
Mof_C 	C 	0.95255	0.83572	0.83572	0.302
Mof_H 	H 	0.91358	0.82677	0.82677	-0.506
Mof_N 	N 	0.97067	0.87517	0.87517	-0.314
Mof_C 	C 	0.44808	0.24592	0.74592	0.019
Mof_H 	H 	0.4126	0.26041	0.76041	0.021
Mof_C 	C 	0.44808	0.20353	0.70353	-0.459
Mof_H 	H 	0.4126	0.18904	0.68904	0.594
Mof_O 	O 	0.45331	0.11905	0.61905	-0.168
Mof_C 	C 	0.45255	0.33572	0.83572	0.299
Mof_H 	H 	0.41358	0.32677	0.82677	-0.507
Mof_N 	N 	0.47067	0.37517	0.87517	-0.31
Mof_C 	C 	0.44808	0.74592	0.24592	0.019
Mof_H 	H 	0.4126	0.76041	0.26041	0.021
Mof_C 	C 	0.44808	0.70353	0.20353	-0.459
Mof_H 	H 	0.4126	0.68904	0.18904	0.594
Mof_O 	O 	0.45331	0.61905	0.11905	-0.168
Mof_C 	C 	0.45255	0.83572	0.33572	0.299
Mof_H 	H 	0.41358	0.82677	0.32677	-0.507
Mof_N 	N 	0.47067	0.87517	0.37517	-0.31
Mof_C 	C 	0.94808	0.75408	0.75408	0.02
Mof_H 	H 	0.9126	0.73959	0.73959	0.02
Mof_C 	C 	0.94808	0.79647	0.79647	-0.453
Mof_H 	H 	0.9126	0.81096	0.81096	0.591
Mof_O 	O 	0.95331	0.88095	0.88095	-0.161
Mof_C 	C 	0.95255	0.66428	0.66428	0.302
Mof_H 	H 	0.91358	0.67323	0.67323	-0.507
Mof_N 	N 	0.97067	0.62483	0.62483	-0.313
Mof_C 	C 	0.94808	0.25408	0.25408	0.02
Mof_H 	H 	0.9126	0.23959	0.23959	0.02
Mof_C 	C 	0.94808	0.29647	0.29647	-0.456
Mof_H 	H 	0.9126	0.31096	0.31096	0.592
Mof_O 	O 	0.95331	0.38095	0.38095	-0.164
Mof_C 	C 	0.95255	0.16428	0.16428	0.3
Mof_H 	H 	0.91358	0.17323	0.17323	-0.507
Mof_N 	N 	0.97067	0.12483	0.12483	-0.312
Mof_C 	C 	0.44808	0.75408	0.25408	0.019
Mof_H 	H 	0.4126	0.73959	0.23959	0.021
Mof_C 	C 	0.44808	0.79647	0.29647	-0.459
Mof_H 	H 	0.4126	0.81096	0.31096	0.593
Mof_O 	O 	0.45331	0.88095	0.38095	-0.168
Mof_C 	C 	0.45255	0.66428	0.16428	0.299
Mof_H 	H 	0.41358	0.67323	0.17323	-0.507
Mof_N 	N 	0.47067	0.62483	0.12483	-0.31
Mof_C 	C 	0.44808	0.25408	0.75408	0.019
Mof_H 	H 	0.4126	0.23959	0.73959	0.021
Mof_C 	C 	0.44808	0.29647	0.79647	-0.459
Mof_H 	H 	0.4126	0.31096	0.81096	0.593
Mof_O 	O 	0.45331	0.38095	0.88095	-0.168
Mof_C 	C 	0.45255	0.16428	0.66428	0.299
Mof_H 	H 	0.41358	0.17323	0.67323	-0.507
Mof_N 	N 	0.47067	0.12483	0.62483	-0.31
Mof_C 	C 	0.05192	0.75408	0.24592	0.019
Mof_H 	H 	0.0874	0.73959	0.26041	0.02
Mof_C 	C 	0.05192	0.79647	0.20353	-0.458
Mof_H 	H 	0.0874	0.81096	0.18904	0.594
Mof_O 	O 	0.04669	0.88095	0.11905	-0.167
Mof_C 	C 	0.04745	0.66428	0.33572	0.3
Mof_H 	H 	0.08642	0.67323	0.32677	-0.508
Mof_N 	N 	0.02933	0.62483	0.37517	-0.311
Mof_C 	C 	0.05192	0.25408	0.74592	0.019
Mof_H 	H 	0.0874	0.23959	0.76041	0.02
Mof_C 	C 	0.05192	0.29647	0.70353	-0.458
Mof_H 	H 	0.0874	0.31096	0.68904	0.593
Mof_O 	O 	0.04669	0.38095	0.61905	-0.166
Mof_C 	C 	0.04745	0.16428	0.83572	0.3
Mof_H 	H 	0.08642	0.17323	0.82677	-0.508
Mof_N 	N 	0.02933	0.12483	0.87517	-0.311
Mof_C 	C 	0.55192	0.75408	0.74592	0.019
Mof_H 	H 	0.5874	0.73959	0.76041	0.021
Mof_C 	C 	0.55192	0.79647	0.70353	-0.459
Mof_H 	H 	0.5874	0.81096	0.68904	0.593
Mof_O 	O 	0.54669	0.88095	0.61905	-0.168
Mof_C 	C 	0.54745	0.66428	0.83572	0.299
Mof_H 	H 	0.58642	0.67323	0.82677	-0.507
Mof_N 	N 	0.52933	0.62483	0.87517	-0.31
Mof_C 	C 	0.55192	0.25408	0.24592	0.019
Mof_H 	H 	0.5874	0.23959	0.26041	0.021
Mof_C 	C 	0.55192	0.29647	0.20353	-0.459
Mof_H 	H 	0.5874	0.31096	0.18904	0.594
Mof_O 	O 	0.54669	0.38095	0.11905	-0.168
Mof_C 	C 	0.54745	0.16428	0.33572	0.299
Mof_H 	H 	0.58642	0.17323	0.32677	-0.507
Mof_N 	N 	0.52933	0.12483	0.37517	-0.31
Mof_C 	C 	0.05192	0.24592	0.75408	0.019
Mof_H 	H 	0.0874	0.26041	0.73959	0.02
Mof_C 	C 	0.05192	0.20353	0.79647	-0.458
Mof_H 	H 	0.0874	0.18904	0.81096	0.594
Mof_O 	O 	0.04669	0.11905	0.88095	-0.167
Mof_C 	C 	0.04745	0.33572	0.66428	0.3
Mof_H 	H 	0.08642	0.32677	0.67323	-0.508
Mof_N 	N 	0.02933	0.37517	0.62483	-0.311
Mof_C 	C 	0.05192	0.74592	0.25408	0.019
Mof_H 	H 	0.0874	0.76041	0.23959	0.02
Mof_C 	C 	0.05192	0.70353	0.29647	-0.458
Mof_H 	H 	0.0874	0.68904	0.31096	0.593
Mof_O 	O 	0.04669	0.61905	0.38095	-0.166
Mof_C 	C 	0.04745	0.83572	0.16428	0.3
Mof_H 	H 	0.08642	0.82677	0.17323	-0.508
Mof_N 	N 	0.02933	0.87517	0.12483	-0.311
Mof_C 	C 	0.55192	0.24592	0.25408	0.019
Mof_H 	H 	0.5874	0.26041	0.23959	0.021
Mof_C 	C 	0.55192	0.20353	0.29647	-0.459
Mof_H 	H 	0.5874	0.18904	0.31096	0.594
Mof_O 	O 	0.54669	0.11905	0.38095	-0.168
Mof_C 	C 	0.54745	0.33572	0.16428	0.299
Mof_H 	H 	0.58642	0.32677	0.17323	-0.507
Mof_N 	N 	0.52933	0.37517	0.12483	-0.31
Mof_C 	C 	0.55192	0.74592	0.75408	0.019
Mof_H 	H 	0.5874	0.76041	0.73959	0.021
Mof_C 	C 	0.55192	0.70353	0.79647	-0.459
Mof_H 	H 	0.5874	0.68904	0.81096	0.593
Mof_O 	O 	0.54669	0.61905	0.88095	-0.168
Mof_C 	C 	0.54745	0.83572	0.66428	0.299
Mof_H 	H 	0.58642	0.82677	0.67323	-0.507
Mof_N 	N 	0.52933	0.87517	0.62483	-0.31
Mof_C 	C 	0.24592	0.94808	0.24592	0.02
Mof_H 	H 	0.26041	0.9126	0.26041	0.02
Mof_C 	C 	0.20353	0.94808	0.20353	-0.457
Mof_H 	H 	0.18904	0.9126	0.18904	0.593
Mof_O 	O 	0.11905	0.95331	0.11905	-0.165
Mof_C 	C 	0.33572	0.95255	0.33572	0.301
Mof_H 	H 	0.32677	0.91358	0.32677	-0.507
Mof_N 	N 	0.37517	0.97067	0.37517	-0.312
Mof_C 	C 	0.24592	0.44808	0.74592	0.019
Mof_H 	H 	0.26041	0.4126	0.76041	0.021
Mof_C 	C 	0.20353	0.44808	0.70353	-0.459
Mof_H 	H 	0.18904	0.4126	0.68904	0.594
Mof_O 	O 	0.11905	0.45331	0.61905	-0.168
Mof_C 	C 	0.33572	0.45255	0.83572	0.299
Mof_H 	H 	0.32677	0.41358	0.82677	-0.507
Mof_N 	N 	0.37517	0.47067	0.87517	-0.31
Mof_C 	C 	0.74592	0.94808	0.74592	0.02
Mof_H 	H 	0.76041	0.9126	0.76041	0.02
Mof_C 	C 	0.70353	0.94808	0.70353	-0.455
Mof_H 	H 	0.68904	0.9126	0.68904	0.592
Mof_O 	O 	0.61905	0.95331	0.61905	-0.162
Mof_C 	C 	0.83572	0.95255	0.83572	0.302
Mof_H 	H 	0.82677	0.91358	0.82677	-0.506
Mof_N 	N 	0.87517	0.97067	0.87517	-0.314
Mof_C 	C 	0.74592	0.44808	0.24592	0.019
Mof_H 	H 	0.76041	0.4126	0.26041	0.021
Mof_C 	C 	0.70353	0.44808	0.20353	-0.459
Mof_H 	H 	0.68904	0.4126	0.18904	0.594
Mof_O 	O 	0.61905	0.45331	0.11905	-0.168
Mof_C 	C 	0.83572	0.45255	0.33572	0.299
Mof_H 	H 	0.82677	0.41358	0.32677	-0.507
Mof_N 	N 	0.87517	0.47067	0.37517	-0.31
Mof_C 	C 	0.75408	0.94808	0.75408	0.02
Mof_H 	H 	0.73959	0.9126	0.73959	0.02
Mof_C 	C 	0.79647	0.94808	0.79647	-0.453
Mof_H 	H 	0.81096	0.9126	0.81096	0.591
Mof_O 	O 	0.88095	0.95331	0.88095	-0.161
Mof_C 	C 	0.66428	0.95255	0.66428	0.302
Mof_H 	H 	0.67323	0.91358	0.67323	-0.507
Mof_N 	N 	0.62483	0.97067	0.62483	-0.313
Mof_C 	C 	0.75408	0.44808	0.25408	0.019
Mof_H 	H 	0.73959	0.4126	0.23959	0.021
Mof_C 	C 	0.79647	0.44808	0.29647	-0.459
Mof_H 	H 	0.81096	0.4126	0.31096	0.593
Mof_O 	O 	0.88095	0.45331	0.38095	-0.168
Mof_C 	C 	0.66428	0.45255	0.16428	0.299
Mof_H 	H 	0.67323	0.41358	0.17323	-0.507
Mof_N 	N 	0.62483	0.47067	0.12483	-0.31
Mof_C 	C 	0.25408	0.94808	0.25408	0.02
Mof_H 	H 	0.23959	0.9126	0.23959	0.02
Mof_C 	C 	0.29647	0.94808	0.29647	-0.456
Mof_H 	H 	0.31096	0.9126	0.31096	0.592
Mof_O 	O 	0.38095	0.95331	0.38095	-0.164
Mof_C 	C 	0.16428	0.95255	0.16428	0.3
Mof_H 	H 	0.17323	0.91358	0.17323	-0.507
Mof_N 	N 	0.12483	0.97067	0.12483	-0.312
Mof_C 	C 	0.25408	0.44808	0.75408	0.019
Mof_H 	H 	0.23959	0.4126	0.73959	0.021
Mof_C 	C 	0.29647	0.44808	0.79647	-0.459
Mof_H 	H 	0.31096	0.4126	0.81096	0.593
Mof_O 	O 	0.38095	0.45331	0.88095	-0.168
Mof_C 	C 	0.16428	0.45255	0.66428	0.299
Mof_H 	H 	0.17323	0.41358	0.67323	-0.507
Mof_N 	N 	0.12483	0.47067	0.62483	-0.31
Mof_C 	C 	0.24592	0.05192	0.75408	0.019
Mof_H 	H 	0.26041	0.0874	0.73959	0.02
Mof_C 	C 	0.20353	0.05192	0.79647	-0.458
Mof_H 	H 	0.18904	0.0874	0.81096	0.594
Mof_O 	O 	0.11905	0.04669	0.88095	-0.167
Mof_C 	C 	0.33572	0.04745	0.66428	0.3
Mof_H 	H 	0.32677	0.08642	0.67323	-0.508
Mof_N 	N 	0.37517	0.02933	0.62483	-0.311
Mof_C 	C 	0.24592	0.55192	0.25408	0.019
Mof_H 	H 	0.26041	0.5874	0.23959	0.021
Mof_C 	C 	0.20353	0.55192	0.29647	-0.459
Mof_H 	H 	0.18904	0.5874	0.31096	0.594
Mof_O 	O 	0.11905	0.54669	0.38095	-0.168
Mof_C 	C 	0.33572	0.54745	0.16428	0.299
Mof_H 	H 	0.32677	0.58642	0.17323	-0.507
Mof_N 	N 	0.37517	0.52933	0.12483	-0.31
Mof_C 	C 	0.74592	0.05192	0.25408	0.019
Mof_H 	H 	0.76041	0.0874	0.23959	0.02
Mof_C 	C 	0.70353	0.05192	0.29647	-0.458
Mof_H 	H 	0.68904	0.0874	0.31096	0.593
Mof_O 	O 	0.61905	0.04669	0.38095	-0.166
Mof_C 	C 	0.83572	0.04745	0.16428	0.3
Mof_H 	H 	0.82677	0.08642	0.17323	-0.508
Mof_N 	N 	0.87517	0.02933	0.12483	-0.311
Mof_C 	C 	0.74592	0.55192	0.75408	0.019
Mof_H 	H 	0.76041	0.5874	0.73959	0.021
Mof_C 	C 	0.70353	0.55192	0.79647	-0.459
Mof_H 	H 	0.68904	0.5874	0.81096	0.593
Mof_O 	O 	0.61905	0.54669	0.88095	-0.168
Mof_C 	C 	0.83572	0.54745	0.66428	0.299
Mof_H 	H 	0.82677	0.58642	0.67323	-0.507
Mof_N 	N 	0.87517	0.52933	0.62483	-0.31
Mof_C 	C 	0.75408	0.05192	0.24592	0.019
Mof_H 	H 	0.73959	0.0874	0.26041	0.02
Mof_C 	C 	0.79647	0.05192	0.20353	-0.458
Mof_H 	H 	0.81096	0.0874	0.18904	0.594
Mof_O 	O 	0.88095	0.04669	0.11905	-0.167
Mof_C 	C 	0.66428	0.04745	0.33572	0.3
Mof_H 	H 	0.67323	0.08642	0.32677	-0.508
Mof_N 	N 	0.62483	0.02933	0.37517	-0.311
Mof_C 	C 	0.75408	0.55192	0.74592	0.019
Mof_H 	H 	0.73959	0.5874	0.76041	0.021
Mof_C 	C 	0.79647	0.55192	0.70353	-0.459
Mof_H 	H 	0.81096	0.5874	0.68904	0.593
Mof_O 	O 	0.88095	0.54669	0.61905	-0.168
Mof_C 	C 	0.66428	0.54745	0.83572	0.299
Mof_H 	H 	0.67323	0.58642	0.82677	-0.507
Mof_N 	N 	0.62483	0.52933	0.87517	-0.31
Mof_C 	C 	0.25408	0.05192	0.74592	0.019
Mof_H 	H 	0.23959	0.0874	0.76041	0.02
Mof_C 	C 	0.29647	0.05192	0.70353	-0.458
Mof_H 	H 	0.31096	0.0874	0.68904	0.593
Mof_O 	O 	0.38095	0.04669	0.61905	-0.166
Mof_C 	C 	0.16428	0.04745	0.83572	0.3
Mof_H 	H 	0.17323	0.08642	0.82677	-0.508
Mof_N 	N 	0.12483	0.02933	0.87517	-0.311
Mof_C 	C 	0.25408	0.55192	0.24592	0.019
Mof_H 	H 	0.23959	0.5874	0.26041	0.021
Mof_C 	C 	0.29647	0.55192	0.20353	-0.459
Mof_H 	H 	0.31096	0.5874	0.18904	0.594
Mof_O 	O 	0.38095	0.54669	0.11905	-0.168
Mof_C 	C 	0.16428	0.54745	0.33572	0.299
Mof_H 	H 	0.17323	0.58642	0.32677	-0.507
Mof_N 	N 	0.12483	0.52933	0.37517	-0.31
Mof_C 	C 	0.24592	0.24592	0.05192	0.019
Mof_H 	H 	0.26041	0.26041	0.0874	0.02
Mof_C 	C 	0.20353	0.20353	0.05192	-0.459
Mof_H 	H 	0.18904	0.18904	0.0874	0.593
Mof_O 	O 	0.11905	0.11905	0.04669	-0.167
Mof_C 	C 	0.33572	0.33572	0.04745	0.3
Mof_H 	H 	0.32677	0.32677	0.08642	-0.508
Mof_N 	N 	0.37517	0.37517	0.02933	-0.311
Mof_C 	C 	0.24592	0.74592	0.55192	0.019
Mof_H 	H 	0.26041	0.76041	0.5874	0.021
Mof_C 	C 	0.20353	0.70353	0.55192	-0.459
Mof_H 	H 	0.18904	0.68904	0.5874	0.594
Mof_O 	O 	0.11905	0.61905	0.54669	-0.168
Mof_C 	C 	0.33572	0.83572	0.54745	0.299
Mof_H 	H 	0.32677	0.82677	0.58642	-0.507
Mof_N 	N 	0.37517	0.87517	0.52933	-0.31
Mof_C 	C 	0.74592	0.24592	0.55192	0.019
Mof_H 	H 	0.76041	0.26041	0.5874	0.021
Mof_C 	C 	0.70353	0.20353	0.55192	-0.459
Mof_H 	H 	0.68904	0.18904	0.5874	0.594
Mof_O 	O 	0.61905	0.11905	0.54669	-0.168
Mof_C 	C 	0.83572	0.33572	0.54745	0.299
Mof_H 	H 	0.82677	0.32677	0.58642	-0.507
Mof_N 	N 	0.87517	0.37517	0.52933	-0.31
Mof_C 	C 	0.74592	0.74592	0.05192	0.02
Mof_H 	H 	0.76041	0.76041	0.0874	0.02
Mof_C 	C 	0.70353	0.70353	0.05192	-0.458
Mof_H 	H 	0.68904	0.68904	0.0874	0.593
Mof_O 	O 	0.61905	0.61905	0.04669	-0.166
Mof_C 	C 	0.83572	0.83572	0.04745	0.301
Mof_H 	H 	0.82677	0.82677	0.08642	-0.508
Mof_N 	N 	0.87517	0.87517	0.02933	-0.312
Mof_C 	C 	0.75408	0.75408	0.05192	0.019
Mof_H 	H 	0.73959	0.73959	0.0874	0.02
Mof_C 	C 	0.79647	0.79647	0.05192	-0.458
Mof_H 	H 	0.81096	0.81096	0.0874	0.594
Mof_O 	O 	0.88095	0.88095	0.04669	-0.166
Mof_C 	C 	0.66428	0.66428	0.04745	0.3
Mof_H 	H 	0.67323	0.67323	0.08642	-0.507
Mof_N 	N 	0.62483	0.62483	0.02933	-0.312
Mof_C 	C 	0.75408	0.25408	0.55192	0.019
Mof_H 	H 	0.73959	0.23959	0.5874	0.021
Mof_C 	C 	0.79647	0.29647	0.55192	-0.459
Mof_H 	H 	0.81096	0.31096	0.5874	0.593
Mof_O 	O 	0.88095	0.38095	0.54669	-0.168
Mof_C 	C 	0.66428	0.16428	0.54745	0.299
Mof_H 	H 	0.67323	0.17323	0.58642	-0.507
Mof_N 	N 	0.62483	0.12483	0.52933	-0.31
Mof_C 	C 	0.25408	0.75408	0.55192	0.019
Mof_H 	H 	0.23959	0.73959	0.5874	0.021
Mof_C 	C 	0.29647	0.79647	0.55192	-0.459
Mof_H 	H 	0.31096	0.81096	0.5874	0.593
Mof_O 	O 	0.38095	0.88095	0.54669	-0.168
Mof_C 	C 	0.16428	0.66428	0.54745	0.299
Mof_H 	H 	0.17323	0.67323	0.58642	-0.507
Mof_N 	N 	0.12483	0.62483	0.52933	-0.31
Mof_C 	C 	0.25408	0.25408	0.05192	0.019
Mof_H 	H 	0.23959	0.23959	0.0874	0.021
Mof_C 	C 	0.29647	0.29647	0.05192	-0.459
Mof_H 	H 	0.31096	0.31096	0.0874	0.593
Mof_O 	O 	0.38095	0.38095	0.04669	-0.167
Mof_C 	C 	0.16428	0.16428	0.04745	0.3
Mof_H 	H 	0.17323	0.17323	0.08642	-0.507
Mof_N 	N 	0.12483	0.12483	0.02933	-0.311
Mof_C 	C 	0.24592	0.75408	0.94808	0.02
Mof_H 	H 	0.26041	0.73959	0.9126	0.02
Mof_C 	C 	0.20353	0.79647	0.94808	-0.456
Mof_H 	H 	0.18904	0.81096	0.9126	0.592
Mof_O 	O 	0.11905	0.88095	0.95331	-0.163
Mof_C 	C 	0.33572	0.66428	0.95255	0.301
Mof_H 	H 	0.32677	0.67323	0.91358	-0.507
Mof_N 	N 	0.37517	0.62483	0.97067	-0.313
Mof_C 	C 	0.24592	0.25408	0.44808	0.019
Mof_H 	H 	0.26041	0.23959	0.4126	0.021
Mof_C 	C 	0.20353	0.29647	0.44808	-0.459
Mof_H 	H 	0.18904	0.31096	0.4126	0.594
Mof_O 	O 	0.11905	0.38095	0.45331	-0.168
Mof_C 	C 	0.33572	0.16428	0.45255	0.299
Mof_H 	H 	0.32677	0.17323	0.41358	-0.507
Mof_N 	N 	0.37517	0.12483	0.47067	-0.31
Mof_C 	C 	0.74592	0.75408	0.44808	0.019
Mof_H 	H 	0.76041	0.73959	0.4126	0.021
Mof_C 	C 	0.70353	0.79647	0.44808	-0.459
Mof_H 	H 	0.68904	0.81096	0.4126	0.593
Mof_O 	O 	0.61905	0.88095	0.45331	-0.168
Mof_C 	C 	0.83572	0.66428	0.45255	0.299
Mof_H 	H 	0.82677	0.67323	0.41358	-0.507
Mof_N 	N 	0.87517	0.62483	0.47067	-0.31
Mof_C 	C 	0.74592	0.25408	0.94808	0.02
Mof_H 	H 	0.76041	0.23959	0.9126	0.02
Mof_C 	C 	0.70353	0.29647	0.94808	-0.456
Mof_H 	H 	0.68904	0.31096	0.9126	0.592
Mof_O 	O 	0.61905	0.38095	0.95331	-0.163
Mof_C 	C 	0.83572	0.16428	0.95255	0.301
Mof_H 	H 	0.82677	0.17323	0.91358	-0.507
Mof_N 	N 	0.87517	0.12483	0.97067	-0.313
Mof_C 	C 	0.75408	0.24592	0.94808	0.02
Mof_H 	H 	0.73959	0.26041	0.9126	0.02
Mof_C 	C 	0.79647	0.20353	0.94808	-0.456
Mof_H 	H 	0.81096	0.18904	0.9126	0.592
Mof_O 	O 	0.88095	0.11905	0.95331	-0.163
Mof_C 	C 	0.66428	0.33572	0.95255	0.301
Mof_H 	H 	0.67323	0.32677	0.91358	-0.507
Mof_N 	N 	0.62483	0.37517	0.97067	-0.313
Mof_C 	C 	0.75408	0.74592	0.44808	0.019
Mof_H 	H 	0.73959	0.76041	0.4126	0.021
Mof_C 	C 	0.79647	0.70353	0.44808	-0.459
Mof_H 	H 	0.81096	0.68904	0.4126	0.593
Mof_O 	O 	0.88095	0.61905	0.45331	-0.168
Mof_C 	C 	0.66428	0.83572	0.45255	0.299
Mof_H 	H 	0.67323	0.82677	0.41358	-0.507
Mof_N 	N 	0.62483	0.87517	0.47067	-0.31
Mof_C 	C 	0.25408	0.24592	0.44808	0.019
Mof_H 	H 	0.23959	0.26041	0.4126	0.021
Mof_C 	C 	0.29647	0.20353	0.44808	-0.459
Mof_H 	H 	0.31096	0.18904	0.4126	0.594
Mof_O 	O 	0.38095	0.11905	0.45331	-0.168
Mof_C 	C 	0.16428	0.33572	0.45255	0.299
Mof_H 	H 	0.17323	0.32677	0.41358	-0.507
Mof_N 	N 	0.12483	0.37517	0.47067	-0.31
Mof_C 	C 	0.25408	0.74592	0.94808	0.02
Mof_H 	H 	0.23959	0.76041	0.9126	0.02
Mof_C 	C 	0.29647	0.70353	0.94808	-0.456
Mof_H 	H 	0.31096	0.68904	0.9126	0.592
Mof_O 	O 	0.38095	0.61905	0.95331	-0.163
Mof_C 	C 	0.16428	0.83572	0.95255	0.301
Mof_H 	H 	0.17323	0.82677	0.91358	-0.507
Mof_N 	N 	0.12483	0.87517	0.97067	-0.313
Mof_C 	C 	0.24592	0.94808	0.75408	0.02
Mof_H 	H 	0.26041	0.9126	0.73959	0.02
Mof_C 	C 	0.20353	0.94808	0.79647	-0.456
Mof_H 	H 	0.18904	0.9126	0.81096	0.592
Mof_O 	O 	0.11905	0.95331	0.88095	-0.163
Mof_C 	C 	0.33572	0.95255	0.66428	0.301
Mof_H 	H 	0.32677	0.91358	0.67323	-0.507
Mof_N 	N 	0.37517	0.97067	0.62483	-0.313
Mof_C 	C 	0.24592	0.44808	0.25408	0.019
Mof_H 	H 	0.26041	0.4126	0.23959	0.021
Mof_C 	C 	0.20353	0.44808	0.29647	-0.459
Mof_H 	H 	0.18904	0.4126	0.31096	0.594
Mof_O 	O 	0.11905	0.45331	0.38095	-0.168
Mof_C 	C 	0.33572	0.45255	0.16428	0.299
Mof_H 	H 	0.32677	0.41358	0.17323	-0.507
Mof_N 	N 	0.37517	0.47067	0.12483	-0.31
Mof_C 	C 	0.74592	0.94808	0.25408	0.02
Mof_H 	H 	0.76041	0.9126	0.23959	0.02
Mof_C 	C 	0.70353	0.94808	0.29647	-0.456
Mof_H 	H 	0.68904	0.9126	0.31096	0.592
Mof_O 	O 	0.61905	0.95331	0.38095	-0.163
Mof_C 	C 	0.83572	0.95255	0.16428	0.301
Mof_H 	H 	0.82677	0.91358	0.17323	-0.507
Mof_N 	N 	0.87517	0.97067	0.12483	-0.313
Mof_C 	C 	0.74592	0.44808	0.75408	0.019
Mof_H 	H 	0.76041	0.4126	0.73959	0.021
Mof_C 	C 	0.70353	0.44808	0.79647	-0.459
Mof_H 	H 	0.68904	0.4126	0.81096	0.593
Mof_O 	O 	0.61905	0.45331	0.88095	-0.168
Mof_C 	C 	0.83572	0.45255	0.66428	0.299
Mof_H 	H 	0.82677	0.41358	0.67323	-0.507
Mof_N 	N 	0.87517	0.47067	0.62483	-0.31
Mof_C 	C 	0.75408	0.94808	0.24592	0.02
Mof_H 	H 	0.73959	0.9126	0.26041	0.02
Mof_C 	C 	0.79647	0.94808	0.20353	-0.456
Mof_H 	H 	0.81096	0.9126	0.18904	0.592
Mof_O 	O 	0.88095	0.95331	0.11905	-0.163
Mof_C 	C 	0.66428	0.95255	0.33572	0.301
Mof_H 	H 	0.67323	0.91358	0.32677	-0.507
Mof_N 	N 	0.62483	0.97067	0.37517	-0.313
Mof_C 	C 	0.75408	0.44808	0.74592	0.019
Mof_H 	H 	0.73959	0.4126	0.76041	0.021
Mof_C 	C 	0.79647	0.44808	0.70353	-0.459
Mof_H 	H 	0.81096	0.4126	0.68904	0.593
Mof_O 	O 	0.88095	0.45331	0.61905	-0.168
Mof_C 	C 	0.66428	0.45255	0.83572	0.299
Mof_H 	H 	0.67323	0.41358	0.82677	-0.507
Mof_N 	N 	0.62483	0.47067	0.87517	-0.31
Mof_C 	C 	0.25408	0.94808	0.74592	0.02
Mof_H 	H 	0.23959	0.9126	0.76041	0.02
Mof_C 	C 	0.29647	0.94808	0.70353	-0.456
Mof_H 	H 	0.31096	0.9126	0.68904	0.592
Mof_O 	O 	0.38095	0.95331	0.61905	-0.163
Mof_C 	C 	0.16428	0.95255	0.83572	0.301
Mof_H 	H 	0.17323	0.91358	0.82677	-0.507
Mof_N 	N 	0.12483	0.97067	0.87517	-0.313
Mof_C 	C 	0.25408	0.44808	0.24592	0.019
Mof_H 	H 	0.23959	0.4126	0.26041	0.021
Mof_C 	C 	0.29647	0.44808	0.20353	-0.459
Mof_H 	H 	0.31096	0.4126	0.18904	0.594
Mof_O 	O 	0.38095	0.45331	0.11905	-0.168
Mof_C 	C 	0.16428	0.45255	0.33572	0.299
Mof_H 	H 	0.17323	0.41358	0.32677	-0.507
Mof_N 	N 	0.12483	0.47067	0.37517	-0.31
Mof_C 	C 	0.75408	0.05192	0.75408	0.019
Mof_H 	H 	0.73959	0.0874	0.73959	0.02
Mof_C 	C 	0.79647	0.05192	0.79647	-0.458
Mof_H 	H 	0.81096	0.0874	0.81096	0.594
Mof_O 	O 	0.88095	0.04669	0.88095	-0.166
Mof_C 	C 	0.66428	0.04745	0.66428	0.3
Mof_H 	H 	0.67323	0.08642	0.67323	-0.507
Mof_N 	N 	0.62483	0.02933	0.62483	-0.312
Mof_C 	C 	0.75408	0.55192	0.25408	0.019
Mof_H 	H 	0.73959	0.5874	0.23959	0.021
Mof_C 	C 	0.79647	0.55192	0.29647	-0.459
Mof_H 	H 	0.81096	0.5874	0.31096	0.593
Mof_O 	O 	0.88095	0.54669	0.38095	-0.168
Mof_C 	C 	0.66428	0.54745	0.16428	0.299
Mof_H 	H 	0.67323	0.58642	0.17323	-0.507
Mof_N 	N 	0.62483	0.52933	0.12483	-0.31
Mof_C 	C 	0.25408	0.05192	0.25408	0.019
Mof_H 	H 	0.23959	0.0874	0.23959	0.021
Mof_C 	C 	0.29647	0.05192	0.29647	-0.459
Mof_H 	H 	0.31096	0.0874	0.31096	0.593
Mof_O 	O 	0.38095	0.04669	0.38095	-0.167
Mof_C 	C 	0.16428	0.04745	0.16428	0.3
Mof_H 	H 	0.17323	0.08642	0.17323	-0.507
Mof_N 	N 	0.12483	0.02933	0.12483	-0.311
Mof_C 	C 	0.25408	0.55192	0.75408	0.019
Mof_H 	H 	0.23959	0.5874	0.73959	0.021
Mof_C 	C 	0.29647	0.55192	0.79647	-0.459
Mof_H 	H 	0.31096	0.5874	0.81096	0.593
Mof_O 	O 	0.38095	0.54669	0.88095	-0.168
Mof_C 	C 	0.16428	0.54745	0.66428	0.299
Mof_H 	H 	0.17323	0.58642	0.67323	-0.507
Mof_N 	N 	0.12483	0.52933	0.62483	-0.31
Mof_C 	C 	0.24592	0.05192	0.24592	0.019
Mof_H 	H 	0.26041	0.0874	0.26041	0.02
Mof_C 	C 	0.20353	0.05192	0.20353	-0.459
Mof_H 	H 	0.18904	0.0874	0.18904	0.593
Mof_O 	O 	0.11905	0.04669	0.11905	-0.167
Mof_C 	C 	0.33572	0.04745	0.33572	0.3
Mof_H 	H 	0.32677	0.08642	0.32677	-0.508
Mof_N 	N 	0.37517	0.02933	0.37517	-0.311
Mof_C 	C 	0.24592	0.55192	0.74592	0.019
Mof_H 	H 	0.26041	0.5874	0.76041	0.021
Mof_C 	C 	0.20353	0.55192	0.70353	-0.459
Mof_H 	H 	0.18904	0.5874	0.68904	0.594
Mof_O 	O 	0.11905	0.54669	0.61905	-0.168
Mof_C 	C 	0.33572	0.54745	0.83572	0.299
Mof_H 	H 	0.32677	0.58642	0.82677	-0.507
Mof_N 	N 	0.37517	0.52933	0.87517	-0.31
Mof_C 	C 	0.74592	0.05192	0.74592	0.02
Mof_H 	H 	0.76041	0.0874	0.76041	0.02
Mof_C 	C 	0.70353	0.05192	0.70353	-0.458
Mof_H 	H 	0.68904	0.0874	0.68904	0.593
Mof_O 	O 	0.61905	0.04669	0.61905	-0.166
Mof_C 	C 	0.83572	0.04745	0.83572	0.301
Mof_H 	H 	0.82677	0.08642	0.82677	-0.508
Mof_N 	N 	0.87517	0.02933	0.87517	-0.312
Mof_C 	C 	0.74592	0.55192	0.24592	0.019
Mof_H 	H 	0.76041	0.5874	0.26041	0.021
Mof_C 	C 	0.70353	0.55192	0.20353	-0.459
Mof_H 	H 	0.68904	0.5874	0.18904	0.594
Mof_O 	O 	0.61905	0.54669	0.11905	-0.168
Mof_C 	C 	0.83572	0.54745	0.33572	0.299
Mof_H 	H 	0.82677	0.58642	0.32677	-0.507
Mof_N 	N 	0.87517	0.52933	0.37517	-0.31
Mof_C 	C 	0.94808	0.24592	0.75408	0.02
Mof_H 	H 	0.9126	0.26041	0.73959	0.02
Mof_C 	C 	0.94808	0.20353	0.79647	-0.456
Mof_H 	H 	0.9126	0.18904	0.81096	0.592
Mof_O 	O 	0.95331	0.11905	0.88095	-0.163
Mof_C 	C 	0.95255	0.33572	0.66428	0.301
Mof_H 	H 	0.91358	0.32677	0.67323	-0.507
Mof_N 	N 	0.97067	0.37517	0.62483	-0.313
Mof_C 	C 	0.94808	0.74592	0.25408	0.02
Mof_H 	H 	0.9126	0.76041	0.23959	0.02
Mof_C 	C 	0.94808	0.70353	0.29647	-0.456
Mof_H 	H 	0.9126	0.68904	0.31096	0.592
Mof_O 	O 	0.95331	0.61905	0.38095	-0.163
Mof_C 	C 	0.95255	0.83572	0.16428	0.301
Mof_H 	H 	0.91358	0.82677	0.17323	-0.507
Mof_N 	N 	0.97067	0.87517	0.12483	-0.313
Mof_C 	C 	0.44808	0.24592	0.25408	0.019
Mof_H 	H 	0.4126	0.26041	0.23959	0.021
Mof_C 	C 	0.44808	0.20353	0.29647	-0.459
Mof_H 	H 	0.4126	0.18904	0.31096	0.594
Mof_O 	O 	0.45331	0.11905	0.38095	-0.168
Mof_C 	C 	0.45255	0.33572	0.16428	0.299
Mof_H 	H 	0.41358	0.32677	0.17323	-0.507
Mof_N 	N 	0.47067	0.37517	0.12483	-0.31
Mof_C 	C 	0.44808	0.74592	0.75408	0.019
Mof_H 	H 	0.4126	0.76041	0.73959	0.021
Mof_C 	C 	0.44808	0.70353	0.79647	-0.459
Mof_H 	H 	0.4126	0.68904	0.81096	0.593
Mof_O 	O 	0.45331	0.61905	0.88095	-0.168
Mof_C 	C 	0.45255	0.83572	0.66428	0.299
Mof_H 	H 	0.41358	0.82677	0.67323	-0.507
Mof_N 	N 	0.47067	0.87517	0.62483	-0.31
Mof_C 	C 	0.94808	0.75408	0.24592	0.02
Mof_H 	H 	0.9126	0.73959	0.26041	0.02
Mof_C 	C 	0.94808	0.79647	0.20353	-0.456
Mof_H 	H 	0.9126	0.81096	0.18904	0.592
Mof_O 	O 	0.95331	0.88095	0.11905	-0.163
Mof_C 	C 	0.95255	0.66428	0.33572	0.301
Mof_H 	H 	0.91358	0.67323	0.32677	-0.507
Mof_N 	N 	0.97067	0.62483	0.37517	-0.313
Mof_C 	C 	0.94808	0.25408	0.74592	0.02
Mof_H 	H 	0.9126	0.23959	0.76041	0.02
Mof_C 	C 	0.94808	0.29647	0.70353	-0.456
Mof_H 	H 	0.9126	0.31096	0.68904	0.592
Mof_O 	O 	0.95331	0.38095	0.61905	-0.163
Mof_C 	C 	0.95255	0.16428	0.83572	0.301
Mof_H 	H 	0.91358	0.17323	0.82677	-0.507
Mof_N 	N 	0.97067	0.12483	0.87517	-0.313
Mof_C 	C 	0.44808	0.75408	0.74592	0.019
Mof_H 	H 	0.4126	0.73959	0.76041	0.021
Mof_C 	C 	0.44808	0.79647	0.70353	-0.459
Mof_H 	H 	0.4126	0.81096	0.68904	0.593
Mof_O 	O 	0.45331	0.88095	0.61905	-0.168
Mof_C 	C 	0.45255	0.66428	0.83572	0.299
Mof_H 	H 	0.41358	0.67323	0.82677	-0.507
Mof_N 	N 	0.47067	0.62483	0.87517	-0.31
Mof_C 	C 	0.44808	0.25408	0.24592	0.019
Mof_H 	H 	0.4126	0.23959	0.26041	0.021
Mof_C 	C 	0.44808	0.29647	0.20353	-0.459
Mof_H 	H 	0.4126	0.31096	0.18904	0.594
Mof_O 	O 	0.45331	0.38095	0.11905	-0.168
Mof_C 	C 	0.45255	0.16428	0.33572	0.299
Mof_H 	H 	0.41358	0.17323	0.32677	-0.507
Mof_N 	N 	0.47067	0.12483	0.37517	-0.31
Mof_C 	C 	0.05192	0.24592	0.24592	0.019
Mof_H 	H 	0.0874	0.26041	0.26041	0.02
Mof_C 	C 	0.05192	0.20353	0.20353	-0.459
Mof_H 	H 	0.0874	0.18904	0.18904	0.593
Mof_O 	O 	0.04669	0.11905	0.11905	-0.167
Mof_C 	C 	0.04745	0.33572	0.33572	0.3
Mof_H 	H 	0.08642	0.32677	0.32677	-0.508
Mof_N 	N 	0.02933	0.37517	0.37517	-0.311
Mof_C 	C 	0.05192	0.74592	0.74592	0.02
Mof_H 	H 	0.0874	0.76041	0.76041	0.02
Mof_C 	C 	0.05192	0.70353	0.70353	-0.458
Mof_H 	H 	0.0874	0.68904	0.68904	0.593
Mof_O 	O 	0.04669	0.61905	0.61905	-0.166
Mof_C 	C 	0.04745	0.83572	0.83572	0.301
Mof_H 	H 	0.08642	0.82677	0.82677	-0.508
Mof_N 	N 	0.02933	0.87517	0.87517	-0.312
Mof_C 	C 	0.55192	0.24592	0.74592	0.019
Mof_H 	H 	0.5874	0.26041	0.76041	0.021
Mof_C 	C 	0.55192	0.20353	0.70353	-0.459
Mof_H 	H 	0.5874	0.18904	0.68904	0.594
Mof_O 	O 	0.54669	0.11905	0.61905	-0.168
Mof_C 	C 	0.54745	0.33572	0.83572	0.299
Mof_H 	H 	0.58642	0.32677	0.82677	-0.507
Mof_N 	N 	0.52933	0.37517	0.87517	-0.31
Mof_C 	C 	0.55192	0.74592	0.24592	0.019
Mof_H 	H 	0.5874	0.76041	0.26041	0.021
Mof_C 	C 	0.55192	0.70353	0.20353	-0.459
Mof_H 	H 	0.5874	0.68904	0.18904	0.594
Mof_O 	O 	0.54669	0.61905	0.11905	-0.168
Mof_C 	C 	0.54745	0.83572	0.33572	0.299
Mof_H 	H 	0.58642	0.82677	0.32677	-0.507
Mof_N 	N 	0.52933	0.87517	0.37517	-0.31
Mof_C 	C 	0.05192	0.75408	0.75408	0.019
Mof_H 	H 	0.0874	0.73959	0.73959	0.02
Mof_C 	C 	0.05192	0.79647	0.79647	-0.458
Mof_H 	H 	0.0874	0.81096	0.81096	0.594
Mof_O 	O 	0.04669	0.88095	0.88095	-0.166
Mof_C 	C 	0.04745	0.66428	0.66428	0.3
Mof_H 	H 	0.08642	0.67323	0.67323	-0.507
Mof_N 	N 	0.02933	0.62483	0.62483	-0.312
Mof_C 	C 	0.05192	0.25408	0.25408	0.019
Mof_H 	H 	0.0874	0.23959	0.23959	0.021
Mof_C 	C 	0.05192	0.29647	0.29647	-0.459
Mof_H 	H 	0.0874	0.31096	0.31096	0.593
Mof_O 	O 	0.04669	0.38095	0.38095	-0.167
Mof_C 	C 	0.04745	0.16428	0.16428	0.3
Mof_H 	H 	0.08642	0.17323	0.17323	-0.507
Mof_N 	N 	0.02933	0.12483	0.12483	-0.311
Mof_C 	C 	0.55192	0.75408	0.25408	0.019
Mof_H 	H 	0.5874	0.73959	0.23959	0.021
Mof_C 	C 	0.55192	0.79647	0.29647	-0.459
Mof_H 	H 	0.5874	0.81096	0.31096	0.593
Mof_O 	O 	0.54669	0.88095	0.38095	-0.168
Mof_C 	C 	0.54745	0.66428	0.16428	0.299
Mof_H 	H 	0.58642	0.67323	0.17323	-0.507
Mof_N 	N 	0.52933	0.62483	0.12483	-0.31
Mof_C 	C 	0.55192	0.25408	0.75408	0.019
Mof_H 	H 	0.5874	0.23959	0.73959	0.021
Mof_C 	C 	0.55192	0.29647	0.79647	-0.459
Mof_H 	H 	0.5874	0.31096	0.81096	0.593
Mof_O 	O 	0.54669	0.38095	0.88095	-0.168
Mof_C 	C 	0.54745	0.16428	0.66428	0.299
Mof_H 	H 	0.58642	0.17323	0.67323	-0.507
Mof_N 	N 	0.52933	0.12483	0.62483	-0.31
_end
