data_functionalizedCrystal
_audit_creation_method	'EQeq! by Chris Wilmer'
_symmetry_space_group_name_H-M	'P1'
_symmetry_Int_Tables_number	1
_symmetry_cell_setting	triclinic
loop_
_symmetry_equiv_pos_as_xyz
  x,y,z
_cell_length_a	11.519
_cell_length_b	33.385
_cell_length_c	38.702
_cell_angle_alpha	90
_cell_angle_beta	90
_cell_angle_gamma	90
loop_
_atom_site_label
_atom_site_type_symbol
_atom_site_fract_x
_atom_site_fract_y
_atom_site_fract_z
_atom_site_charge
Mof_O 	O 	0.6569	0.33622	0.21238	-0.497
Mof_O 	O 	0.6214	0.40208	0.21209	-0.516
Mof_O 	O 	0.6056	0.56552	0.78657	-0.519
Mof_C 	C 	0.0581	0.43995	0.9522	0.065
Mof_C 	C 	0.1268	0.4146	0.9793	-0.089
Mof_C 	C 	0.7145	0.40895	0.14665	0.082
Mof_H 	H 	0.6621	0.4293	0.1539	0.02
Mof_C 	C 	0.9428	0.44937	0.95522	-0.101
Mof_H 	H 	0.9011	0.4418	0.9754	0.064
Mof_C 	C 	0.0585	0.4717	0.896	-0.013
Mof_H 	H 	0.0991	0.4786	0.8755	0.051
Mof_C 	C 	0.6646	0.37109	0.19971	0.491
Mof_C 	C 	0.9439	0.42981	0.06065	-0.012
Mof_H 	H 	0.9167	0.4519	0.0738	0.033
Mof_C 	C 	0.9431	0.48226	0.89919	-0.035
Mof_O 	O 	0.4629	0.21483	0.78804	-0.536
Mof_C 	C 	0.1165	0.45131	0.92197	-0.093
Mof_H 	H 	0.1964	0.445	0.9193	0.071
Mof_C 	C 	0.7312	0.37559	0.16692	-0.176
Mof_C 	C 	0.886	0.47021	0.92866	-0.01
Mof_H 	H 	0.8057	0.4762	0.9311	0.035
Mof_C 	C 	0.2281	0.43884	0.99561	0.057
Mof_C 	C 	0.1689	0.37788	0.95934	0.073
Mof_C 	C 	0.3892	0.4827	0.03633	-0.017
Mof_C 	C 	0.0491	0.40421	0.01072	0.066
Mof_C 	C 	0.332	0.49986	0.00787	-0.024
Mof_H 	H 	0.3488	0.5268	0.0018	0.036
Mof_C 	C 	0.3631	0.21178	0.79953	0.529
Mof_C 	C 	0.7636	0.55127	0.82239	-0.201
Mof_C 	C 	0.8807	0.50481	0.87195	0.101
Mof_C 	C 	0.2369	0.31747	0.91194	-0.041
Mof_C 	C 	0.2523	0.47877	0.98847	-0.089
Mof_H 	H 	0.2133	0.4917	0.9699	0.06
Mof_C 	C 	0.7647	0.49912	0.86499	-0.155
Mof_H 	H 	0.7233	0.4791	0.8774	0.091
Mof_C 	C 	0.0078	0.43684	0.0307	-0.097
Mof_H 	H 	0.0238	0.4635	0.0237	0.066
Mof_O 	O 	0.2864	0.18926	0.78807	-0.533
Mof_O 	O 	0.7549	0.60695	0.78593	-0.53
Mof_C 	C 	0.3304	0.23747	0.83008	-0.2
Mof_C 	C 	0.8534	0.38423	0.104	0.084
Mof_C 	C 	0.2712	0.28843	0.88498	0.108
Mof_C 	C 	0.9187	0.39054	0.07192	-0.037
Mof_C 	C 	0.4597	0.50608	0.06061	0.039
Mof_C 	C 	0.4391	0.54813	0.06569	-0.091
Mof_H 	H 	0.3862	0.5619	0.0511	0.057
Mof_C 	C 	0.7064	0.52184	0.84032	0.108
Mof_H 	H 	0.6266	0.5169	0.8359	0.017
Mof_C 	C 	0.9393	0.5347	0.85291	-0.152
Mof_H 	H 	0.0199	0.5389	0.8565	0.089
Mof_C 	C 	0.7741	0.41303	0.11556	-0.142
Mof_H 	H 	0.7605	0.4361	0.1017	0.073
Mof_C 	C 	0.8808	0.55775	0.82921	0.106
Mof_H 	H 	0.9209	0.5784	0.8173	0.02
Mof_C 	C 	0.2844	0.37055	0.95205	-0.106
Mof_H 	H 	0.3426	0.3859	0.9633	0.068
Mof_C 	C 	0.0288	0.36684	0.02277	-0.104
Mof_H 	H 	0.0592	0.3448	0.0102	0.064
Mof_C 	C 	0.7031	0.57664	0.79663	0.521
Mof_C 	C 	0.9655	0.3591	0.05262	-0.008
Mof_H 	H 	0.9541	0.3322	0.0599	0.03
Mof_C 	C 	0.089	0.35309	0.94435	-0.103
Mof_H 	H 	0.0094	0.3565	0.9501	0.067
Mof_C 	C 	0.3701	0.44198	0.0418	-0.024
Mof_H 	H 	0.412	0.4288	0.0596	0.039
Mof_C 	C 	0.1192	0.3229	0.92098	-0
Mof_H 	H 	0.061	0.3062	0.9113	0.033
Mof_C 	C 	0.2923	0.42015	0.02224	-0.085
Mof_H 	H 	0.2818	0.3924	0.0267	0.062
Mof_C 	C 	0.87	0.35047	0.12469	-0.137
Mof_H 	H 	0.9236	0.3303	0.1178	0.079
Mof_C 	C 	0.4952	0.56826	0.0914	0.004
Mof_H 	H 	0.4785	0.5958	0.095	0.041
Mof_C 	C 	0.5459	0.48824	0.08206	-0.088
Mof_H 	H 	0.567	0.4611	0.0784	0.057
Mof_C 	C 	0.5986	0.50936	0.1077	0.003
Mof_H 	H 	0.6519	0.4962	0.1226	0.042
Mof_C 	C 	0.3174	0.34095	0.92838	0.003
Mof_H 	H 	0.3974	0.337	0.9236	0.031
Mof_C 	C 	0.6378	0.5725	0.14132	0.255
Mof_C 	C 	0.4019	0.26825	0.83925	0.107
Mof_H 	H 	0.4719	0.2725	0.8268	0.023
Mof_C 	C 	0.2289	0.2319	0.848	0.112
Mof_H 	H 	0.1783	0.2106	0.8418	0.013
Mof_O 	O 	0.7165	0.5543	0.15811	-0.206
Mof_C 	C 	0.5758	0.54951	0.11234	-0.058
Mof_C 	C 	0.808	0.34626	0.15545	0.084
Mof_H 	H 	0.8185	0.3228	0.1689	0.027
Mof_O 	O 	0.5919	0.60803	0.14865	-0.203
Mof_C 	C 	0.1999	0.25716	0.87497	-0.16
Mof_H 	H 	0.129	0.2529	0.887	0.085
Mof_C 	C 	0.3732	0.29397	0.86703	-0.152
Mof_H 	H 	0.4244	0.3151	0.8733	0.1
Mof_O 	O 	0.3431	0.66378	0.71238	-0.496
Mof_O 	O 	0.3786	0.59792	0.71209	-0.515
Mof_O 	O 	0.3944	0.43448	0.28657	-0.518
Mof_C 	C 	0.9419	0.56005	0.4522	0.066
Mof_C 	C 	0.8732	0.5854	0.4793	-0.088
Mof_C 	C 	0.2855	0.59105	0.64665	0.083
Mof_H 	H 	0.3379	0.5707	0.6539	0.021
Mof_C 	C 	0.0572	0.55063	0.45522	-0.1
Mof_H 	H 	0.0989	0.5582	0.4754	0.065
Mof_C 	C 	0.9415	0.5283	0.396	-0.012
Mof_H 	H 	0.9009	0.5214	0.3755	0.052
Mof_C 	C 	0.3354	0.62891	0.69971	0.492
Mof_C 	C 	0.0561	0.57019	0.56065	-0.011
Mof_H 	H 	0.0833	0.5481	0.5738	0.034
Mof_C 	C 	0.0569	0.51774	0.39919	-0.034
Mof_O 	O 	0.5371	0.78517	0.28804	-0.535
Mof_C 	C 	0.8835	0.54869	0.42197	-0.092
Mof_H 	H 	0.8036	0.555	0.4193	0.072
Mof_C 	C 	0.2688	0.62441	0.66692	-0.175
Mof_C 	C 	0.114	0.52979	0.42866	-0.009
Mof_H 	H 	0.1943	0.5238	0.4311	0.036
Mof_C 	C 	0.7719	0.56116	0.49561	0.058
Mof_C 	C 	0.8311	0.62212	0.45934	0.074
Mof_C 	C 	0.6108	0.5173	0.53633	-0.016
Mof_C 	C 	0.9509	0.59579	0.51072	0.067
Mof_C 	C 	0.668	0.50014	0.50787	-0.023
Mof_H 	H 	0.6512	0.4732	0.5018	0.037
Mof_C 	C 	0.6369	0.78822	0.29953	0.53
Mof_C 	C 	0.2364	0.44873	0.32239	-0.2
Mof_C 	C 	0.1193	0.49519	0.37195	0.102
Mof_C 	C 	0.7631	0.68253	0.41194	-0.04
Mof_C 	C 	0.7477	0.52123	0.48847	-0.088
Mof_H 	H 	0.7867	0.5083	0.4699	0.061
Mof_C 	C 	0.2353	0.50088	0.36499	-0.154
Mof_H 	H 	0.2767	0.5209	0.3774	0.092
Mof_C 	C 	0.9922	0.56316	0.5307	-0.096
Mof_H 	H 	0.9762	0.5365	0.5237	0.067
Mof_O 	O 	0.7136	0.81074	0.28807	-0.532
Mof_O 	O 	0.2451	0.39305	0.28593	-0.529
Mof_C 	C 	0.6696	0.76253	0.33008	-0.199
Mof_C 	C 	0.1466	0.61577	0.604	0.085
Mof_C 	C 	0.7288	0.71157	0.38498	0.109
Mof_C 	C 	0.0813	0.60946	0.57192	-0.036
Mof_C 	C 	0.5403	0.49392	0.56061	0.04
Mof_C 	C 	0.5609	0.45187	0.56569	-0.09
Mof_H 	H 	0.6138	0.4381	0.5511	0.058
Mof_C 	C 	0.2936	0.47816	0.34032	0.109
Mof_H 	H 	0.3734	0.4831	0.3359	0.018
Mof_C 	C 	0.0607	0.4653	0.35291	-0.151
Mof_H 	H 	0.9801	0.4611	0.3565	0.09
Mof_C 	C 	0.2259	0.58697	0.61556	-0.141
Mof_H 	H 	0.2395	0.5639	0.6017	0.074
Mof_C 	C 	0.1192	0.44225	0.32921	0.107
Mof_H 	H 	0.0791	0.4216	0.3173	0.021
Mof_C 	C 	0.7156	0.62945	0.45205	-0.105
Mof_H 	H 	0.6574	0.6141	0.4633	0.069
Mof_C 	C 	0.9712	0.63316	0.52277	-0.103
Mof_H 	H 	0.9408	0.6552	0.5102	0.065
Mof_C 	C 	0.2969	0.42336	0.29663	0.522
Mof_C 	C 	0.0345	0.6409	0.55262	-0.007
Mof_H 	H 	0.0459	0.6678	0.5599	0.031
Mof_C 	C 	0.911	0.64691	0.44435	-0.102
Mof_H 	H 	0.9906	0.6435	0.4501	0.068
Mof_C 	C 	0.6299	0.55802	0.5418	-0.023
Mof_H 	H 	0.588	0.5712	0.5596	0.039
Mof_C 	C 	0.8808	0.6771	0.42098	-0
Mof_H 	H 	0.939	0.6938	0.4113	0.033
Mof_C 	C 	0.7077	0.57985	0.52224	-0.085
Mof_H 	H 	0.7182	0.6076	0.5267	0.062
Mof_C 	C 	0.13	0.64953	0.62469	-0.137
Mof_H 	H 	0.0764	0.6697	0.6178	0.079
Mof_C 	C 	0.5048	0.43174	0.5914	0.004
Mof_H 	H 	0.5215	0.4042	0.595	0.041
Mof_C 	C 	0.4541	0.51176	0.58206	-0.088
Mof_H 	H 	0.433	0.5389	0.5784	0.057
Mof_C 	C 	0.4014	0.49064	0.6077	0.003
Mof_H 	H 	0.3481	0.5038	0.6226	0.042
Mof_C 	C 	0.6826	0.65905	0.42838	0.003
Mof_H 	H 	0.6026	0.663	0.4236	0.031
Mof_C 	C 	0.3622	0.4275	0.64132	0.255
Mof_C 	C 	0.5981	0.73175	0.33925	0.107
Mof_H 	H 	0.5281	0.7275	0.3268	0.023
Mof_C 	C 	0.7711	0.7681	0.348	0.112
Mof_H 	H 	0.8217	0.7894	0.3418	0.013
Mof_O 	O 	0.2835	0.4457	0.65811	-0.206
Mof_C 	C 	0.4242	0.45049	0.61234	-0.058
Mof_C 	C 	0.192	0.65374	0.65545	0.084
Mof_H 	H 	0.1815	0.6772	0.6689	0.027
Mof_O 	O 	0.4081	0.39197	0.64865	-0.203
Mof_C 	C 	0.8001	0.74284	0.37497	-0.16
Mof_H 	H 	0.871	0.7471	0.387	0.085
Mof_C 	C 	0.6268	0.70603	0.36703	-0.152
Mof_H 	H 	0.5756	0.6849	0.3733	0.1
Mof_O 	O 	0.3431	0.83622	0.28762	-0.496
Mof_O 	O 	0.3786	0.90208	0.28791	-0.515
Mof_O 	O 	0.3944	0.06552	0.71343	-0.518
Mof_C 	C 	0.9419	0.93995	0.5478	0.066
Mof_C 	C 	0.8732	0.9146	0.5207	-0.088
Mof_C 	C 	0.2855	0.90895	0.35335	0.083
Mof_H 	H 	0.3379	0.9293	0.3461	0.021
Mof_C 	C 	0.0572	0.94937	0.54478	-0.1
Mof_H 	H 	0.0989	0.9418	0.5246	0.065
Mof_C 	C 	0.9415	0.9717	0.604	-0.012
Mof_H 	H 	0.9009	0.9786	0.6245	0.052
Mof_C 	C 	0.3354	0.87109	0.30029	0.492
Mof_C 	C 	0.0561	0.92981	0.43935	-0.011
Mof_H 	H 	0.0833	0.9519	0.4262	0.034
Mof_C 	C 	0.0569	0.98226	0.60081	-0.034
Mof_O 	O 	0.5371	0.71483	0.71196	-0.535
Mof_C 	C 	0.8835	0.95131	0.57803	-0.092
Mof_H 	H 	0.8036	0.945	0.5807	0.072
Mof_C 	C 	0.2688	0.87559	0.33308	-0.175
Mof_C 	C 	0.114	0.97021	0.57134	-0.009
Mof_H 	H 	0.1943	0.9762	0.5689	0.036
Mof_C 	C 	0.7719	0.93884	0.50439	0.058
Mof_C 	C 	0.8311	0.87788	0.54066	0.074
Mof_C 	C 	0.6108	0.9827	0.46367	-0.016
Mof_C 	C 	0.9509	0.90421	0.48928	0.067
Mof_C 	C 	0.668	0.99986	0.49213	-0.023
Mof_H 	H 	0.6512	0.0268	0.4982	0.037
Mof_C 	C 	0.6369	0.71178	0.70047	0.53
Mof_C 	C 	0.2364	0.05127	0.67761	-0.2
Mof_C 	C 	0.1193	0.00481	0.62805	0.102
Mof_C 	C 	0.7631	0.81747	0.58806	-0.04
Mof_C 	C 	0.7477	0.97877	0.51153	-0.088
Mof_H 	H 	0.7867	0.9917	0.5301	0.06
Mof_C 	C 	0.2353	0.99912	0.63501	-0.154
Mof_H 	H 	0.2767	0.9791	0.6226	0.092
Mof_C 	C 	0.9922	0.93684	0.4693	-0.096
Mof_H 	H 	0.9762	0.9635	0.4763	0.067
Mof_O 	O 	0.7136	0.68926	0.71193	-0.532
Mof_O 	O 	0.2451	0.10695	0.71407	-0.529
Mof_C 	C 	0.6696	0.73747	0.66992	-0.199
Mof_C 	C 	0.1466	0.88423	0.396	0.085
Mof_C 	C 	0.7288	0.78843	0.61502	0.109
Mof_C 	C 	0.0813	0.89054	0.42808	-0.036
Mof_C 	C 	0.5403	0.00608	0.43939	0.04
Mof_C 	C 	0.5609	0.04813	0.43431	-0.09
Mof_H 	H 	0.6138	0.0619	0.4489	0.058
Mof_C 	C 	0.2936	0.02184	0.65968	0.11
Mof_H 	H 	0.3734	0.0169	0.6641	0.018
Mof_C 	C 	0.0607	0.0347	0.64709	-0.151
Mof_H 	H 	0.9801	0.0389	0.6435	0.09
Mof_C 	C 	0.2259	0.91303	0.38444	-0.141
Mof_H 	H 	0.2395	0.9361	0.3983	0.074
Mof_C 	C 	0.1192	0.05775	0.67079	0.107
Mof_H 	H 	0.0791	0.0784	0.6827	0.021
Mof_C 	C 	0.7156	0.87055	0.54795	-0.105
Mof_H 	H 	0.6574	0.8859	0.5367	0.069
Mof_C 	C 	0.9712	0.86684	0.47723	-0.103
Mof_H 	H 	0.9408	0.8448	0.4898	0.065
Mof_C 	C 	0.2969	0.07664	0.70337	0.522
Mof_C 	C 	0.0345	0.8591	0.44738	-0.007
Mof_H 	H 	0.0459	0.8322	0.4401	0.031
Mof_C 	C 	0.911	0.85309	0.55565	-0.102
Mof_H 	H 	0.9906	0.8565	0.5499	0.068
Mof_C 	C 	0.6299	0.94198	0.4582	-0.023
Mof_H 	H 	0.588	0.9288	0.4404	0.039
Mof_C 	C 	0.8808	0.8229	0.57902	-0
Mof_H 	H 	0.939	0.8062	0.5887	0.033
Mof_C 	C 	0.7077	0.92015	0.47776	-0.085
Mof_H 	H 	0.7182	0.8924	0.4733	0.062
Mof_C 	C 	0.13	0.85047	0.37531	-0.137
Mof_H 	H 	0.0764	0.8303	0.3822	0.079
Mof_C 	C 	0.5048	0.06826	0.4086	0.004
Mof_H 	H 	0.5215	0.0958	0.405	0.041
Mof_C 	C 	0.4541	0.98824	0.41794	-0.088
Mof_H 	H 	0.433	0.9611	0.4216	0.057
Mof_C 	C 	0.4014	0.00936	0.3923	0.003
Mof_H 	H 	0.3481	0.9962	0.3774	0.042
Mof_C 	C 	0.6826	0.84095	0.57162	0.003
Mof_H 	H 	0.6026	0.837	0.5764	0.031
Mof_C 	C 	0.3622	0.0725	0.35868	0.255
Mof_C 	C 	0.5981	0.76825	0.66075	0.107
Mof_H 	H 	0.5281	0.7725	0.6732	0.023
Mof_C 	C 	0.7711	0.7319	0.652	0.112
Mof_H 	H 	0.8217	0.7106	0.6582	0.013
Mof_O 	O 	0.2835	0.0543	0.34189	-0.206
Mof_C 	C 	0.4242	0.04951	0.38766	-0.058
Mof_C 	C 	0.192	0.84626	0.34455	0.084
Mof_H 	H 	0.1815	0.8228	0.3311	0.027
Mof_O 	O 	0.4081	0.10803	0.35135	-0.203
Mof_C 	C 	0.8001	0.75716	0.62503	-0.16
Mof_H 	H 	0.871	0.7529	0.613	0.085
Mof_C 	C 	0.6268	0.79397	0.63297	-0.152
Mof_H 	H 	0.5756	0.8151	0.6267	0.1
Mof_O 	O 	0.6569	0.16378	0.78762	-0.496
Mof_O 	O 	0.6214	0.09792	0.78791	-0.515
Mof_O 	O 	0.6056	0.93448	0.21343	-0.518
Mof_C 	C 	0.0581	0.06005	0.0478	0.066
Mof_C 	C 	0.1268	0.0854	0.0207	-0.088
Mof_C 	C 	0.7145	0.09105	0.85335	0.083
Mof_H 	H 	0.6621	0.0707	0.8461	0.021
Mof_C 	C 	0.9428	0.05063	0.04478	-0.1
Mof_H 	H 	0.9011	0.0582	0.0246	0.065
Mof_C 	C 	0.0585	0.0283	0.104	-0.012
Mof_H 	H 	0.0991	0.0214	0.1245	0.052
Mof_C 	C 	0.6646	0.12891	0.80029	0.492
Mof_C 	C 	0.9439	0.07019	0.93935	-0.011
Mof_H 	H 	0.9167	0.0481	0.9262	0.034
Mof_C 	C 	0.9431	0.01774	0.10081	-0.034
Mof_O 	O 	0.4629	0.28517	0.21196	-0.535
Mof_C 	C 	0.1165	0.04869	0.07803	-0.092
Mof_H 	H 	0.1964	0.055	0.0807	0.072
Mof_C 	C 	0.7312	0.12441	0.83308	-0.175
Mof_C 	C 	0.886	0.02979	0.07134	-0.009
Mof_H 	H 	0.8057	0.0238	0.0689	0.036
Mof_C 	C 	0.2281	0.06116	0.00439	0.058
Mof_C 	C 	0.1689	0.12212	0.04066	0.074
Mof_C 	C 	0.3892	0.0173	0.96367	-0.016
Mof_C 	C 	0.0491	0.09579	0.98928	0.067
Mof_C 	C 	0.332	0.00014	0.99213	-0.023
Mof_H 	H 	0.3488	0.9732	0.9982	0.037
Mof_C 	C 	0.3631	0.28822	0.20047	0.53
Mof_C 	C 	0.7636	0.94873	0.17761	-0.2
Mof_C 	C 	0.8807	0.99519	0.12805	0.102
Mof_C 	C 	0.2369	0.18253	0.08806	-0.04
Mof_C 	C 	0.2523	0.02123	0.01153	-0.088
Mof_H 	H 	0.2133	0.0083	0.0301	0.06
Mof_C 	C 	0.7647	0.00088	0.13501	-0.154
Mof_H 	H 	0.7233	0.0209	0.1226	0.092
Mof_C 	C 	0.0078	0.06316	0.9693	-0.096
Mof_H 	H 	0.0238	0.0365	0.9763	0.067
Mof_O 	O 	0.2864	0.31074	0.21193	-0.532
Mof_O 	O 	0.7549	0.89305	0.21407	-0.529
Mof_C 	C 	0.3304	0.26253	0.16992	-0.199
Mof_C 	C 	0.8534	0.11577	0.896	0.085
Mof_C 	C 	0.2712	0.21157	0.11502	0.109
Mof_C 	C 	0.9187	0.10946	0.92808	-0.036
Mof_C 	C 	0.4597	0.99392	0.93939	0.04
Mof_C 	C 	0.4391	0.95187	0.93431	-0.09
Mof_H 	H 	0.3862	0.9381	0.9489	0.058
Mof_C 	C 	0.7064	0.97816	0.15968	0.11
Mof_H 	H 	0.6266	0.9831	0.1641	0.018
Mof_C 	C 	0.9393	0.9653	0.14709	-0.151
Mof_H 	H 	0.0199	0.9611	0.1435	0.09
Mof_C 	C 	0.7741	0.08697	0.88444	-0.141
Mof_H 	H 	0.7605	0.0639	0.8983	0.074
Mof_C 	C 	0.8808	0.94225	0.17079	0.107
Mof_H 	H 	0.9209	0.9216	0.1827	0.021
Mof_C 	C 	0.2844	0.12945	0.04795	-0.105
Mof_H 	H 	0.3426	0.1141	0.0367	0.069
Mof_C 	C 	0.0288	0.13316	0.97723	-0.103
Mof_H 	H 	0.0592	0.1552	0.9898	0.065
Mof_C 	C 	0.7031	0.92336	0.20337	0.522
Mof_C 	C 	0.9655	0.1409	0.94738	-0.007
Mof_H 	H 	0.9541	0.1678	0.9401	0.031
Mof_C 	C 	0.089	0.14691	0.05565	-0.102
Mof_H 	H 	0.0094	0.1435	0.0499	0.068
Mof_C 	C 	0.3701	0.05802	0.9582	-0.023
Mof_H 	H 	0.412	0.0712	0.9404	0.039
Mof_C 	C 	0.1192	0.1771	0.07902	-0
Mof_H 	H 	0.061	0.1938	0.0887	0.033
Mof_C 	C 	0.2923	0.07985	0.97776	-0.085
Mof_H 	H 	0.2818	0.1076	0.9733	0.062
Mof_C 	C 	0.87	0.14953	0.87531	-0.137
Mof_H 	H 	0.9236	0.1697	0.8822	0.079
Mof_C 	C 	0.4952	0.93174	0.9086	0.004
Mof_H 	H 	0.4785	0.9042	0.905	0.041
Mof_C 	C 	0.5459	0.01176	0.91794	-0.088
Mof_H 	H 	0.567	0.0389	0.9216	0.057
Mof_C 	C 	0.5986	0.99064	0.8923	0.003
Mof_H 	H 	0.6519	0.0038	0.8774	0.042
Mof_C 	C 	0.3174	0.15905	0.07162	0.003
Mof_H 	H 	0.3974	0.163	0.0764	0.031
Mof_C 	C 	0.6378	0.9275	0.85868	0.255
Mof_C 	C 	0.4019	0.23175	0.16075	0.107
Mof_H 	H 	0.4719	0.2275	0.1732	0.023
Mof_C 	C 	0.2289	0.2681	0.152	0.112
Mof_H 	H 	0.1783	0.2894	0.1582	0.013
Mof_O 	O 	0.7165	0.9457	0.84189	-0.206
Mof_C 	C 	0.5758	0.95049	0.88766	-0.058
Mof_C 	C 	0.808	0.15374	0.84455	0.084
Mof_H 	H 	0.8185	0.1772	0.8311	0.027
Mof_O 	O 	0.5919	0.89197	0.85135	-0.203
Mof_C 	C 	0.1999	0.24284	0.12503	-0.16
Mof_H 	H 	0.129	0.2471	0.113	0.085
Mof_C 	C 	0.3732	0.20603	0.13297	-0.152
Mof_H 	H 	0.4244	0.1849	0.1267	0.1
Mof_O 	O 	0.3431	0.66378	0.78762	-0.496
Mof_O 	O 	0.3786	0.59792	0.78791	-0.515
Mof_O 	O 	0.3944	0.43448	0.21343	-0.518
Mof_C 	C 	0.9419	0.56005	0.0478	0.066
Mof_C 	C 	0.8732	0.5854	0.0207	-0.088
Mof_C 	C 	0.2855	0.59105	0.85335	0.083
Mof_H 	H 	0.3379	0.5707	0.8461	0.021
Mof_C 	C 	0.0572	0.55063	0.04478	-0.1
Mof_H 	H 	0.0989	0.5582	0.0246	0.065
Mof_C 	C 	0.9415	0.5283	0.104	-0.012
Mof_H 	H 	0.9009	0.5214	0.1245	0.052
Mof_C 	C 	0.3354	0.62891	0.80029	0.492
Mof_C 	C 	0.0561	0.57019	0.93935	-0.011
Mof_H 	H 	0.0833	0.5481	0.9262	0.034
Mof_C 	C 	0.0569	0.51774	0.10081	-0.034
Mof_O 	O 	0.5371	0.78517	0.21196	-0.535
Mof_C 	C 	0.8835	0.54869	0.07803	-0.092
Mof_H 	H 	0.8036	0.555	0.0807	0.072
Mof_C 	C 	0.2688	0.62441	0.83308	-0.175
Mof_C 	C 	0.114	0.52979	0.07134	-0.009
Mof_H 	H 	0.1943	0.5238	0.0689	0.036
Mof_C 	C 	0.7719	0.56116	0.00439	0.058
Mof_C 	C 	0.8311	0.62212	0.04066	0.074
Mof_C 	C 	0.6108	0.5173	0.96367	-0.016
Mof_C 	C 	0.9509	0.59579	0.98928	0.067
Mof_C 	C 	0.668	0.50014	0.99213	-0.023
Mof_H 	H 	0.6512	0.4732	0.9982	0.037
Mof_C 	C 	0.6369	0.78822	0.20047	0.53
Mof_C 	C 	0.2364	0.44873	0.17761	-0.2
Mof_C 	C 	0.1193	0.49519	0.12805	0.102
Mof_C 	C 	0.7631	0.68253	0.08806	-0.04
Mof_C 	C 	0.7477	0.52123	0.01153	-0.088
Mof_H 	H 	0.7867	0.5083	0.0301	0.061
Mof_C 	C 	0.2353	0.50088	0.13501	-0.154
Mof_H 	H 	0.2767	0.5209	0.1226	0.092
Mof_C 	C 	0.9922	0.56316	0.9693	-0.096
Mof_H 	H 	0.9762	0.5365	0.9763	0.067
Mof_O 	O 	0.7136	0.81074	0.21193	-0.532
Mof_O 	O 	0.2451	0.39305	0.21407	-0.529
Mof_C 	C 	0.6696	0.76253	0.16992	-0.199
Mof_C 	C 	0.1466	0.61577	0.896	0.085
Mof_C 	C 	0.7288	0.71157	0.11502	0.109
Mof_C 	C 	0.0813	0.60946	0.92808	-0.036
Mof_C 	C 	0.5403	0.49392	0.93939	0.04
Mof_C 	C 	0.5609	0.45187	0.93431	-0.09
Mof_H 	H 	0.6138	0.4381	0.9489	0.058
Mof_C 	C 	0.2936	0.47816	0.15968	0.109
Mof_H 	H 	0.3734	0.4831	0.1641	0.018
Mof_C 	C 	0.0607	0.4653	0.14709	-0.151
Mof_H 	H 	0.9801	0.4611	0.1435	0.09
Mof_C 	C 	0.2259	0.58697	0.88444	-0.141
Mof_H 	H 	0.2395	0.5639	0.8983	0.074
Mof_C 	C 	0.1192	0.44225	0.17079	0.107
Mof_H 	H 	0.0791	0.4216	0.1827	0.021
Mof_C 	C 	0.7156	0.62945	0.04795	-0.105
Mof_H 	H 	0.6574	0.6141	0.0367	0.069
Mof_C 	C 	0.9712	0.63316	0.97723	-0.103
Mof_H 	H 	0.9408	0.6552	0.9898	0.065
Mof_C 	C 	0.2969	0.42336	0.20337	0.522
Mof_C 	C 	0.0345	0.6409	0.94738	-0.007
Mof_H 	H 	0.0459	0.6678	0.9401	0.031
Mof_C 	C 	0.911	0.64691	0.05565	-0.102
Mof_H 	H 	0.9906	0.6435	0.0499	0.068
Mof_C 	C 	0.6299	0.55802	0.9582	-0.023
Mof_H 	H 	0.588	0.5712	0.9404	0.039
Mof_C 	C 	0.8808	0.6771	0.07902	-0
Mof_H 	H 	0.939	0.6938	0.0887	0.033
Mof_C 	C 	0.7077	0.57985	0.97776	-0.085
Mof_H 	H 	0.7182	0.6076	0.9733	0.062
Mof_C 	C 	0.13	0.64953	0.87531	-0.137
Mof_H 	H 	0.0764	0.6697	0.8822	0.079
Mof_C 	C 	0.5048	0.43174	0.9086	0.004
Mof_H 	H 	0.5215	0.4042	0.905	0.041
Mof_C 	C 	0.4541	0.51176	0.91794	-0.088
Mof_H 	H 	0.433	0.5389	0.9216	0.057
Mof_C 	C 	0.4014	0.49064	0.8923	0.003
Mof_H 	H 	0.3481	0.5038	0.8774	0.042
Mof_C 	C 	0.6826	0.65905	0.07162	0.003
Mof_H 	H 	0.6026	0.663	0.0764	0.031
Mof_C 	C 	0.3622	0.4275	0.85868	0.255
Mof_C 	C 	0.5981	0.73175	0.16075	0.107
Mof_H 	H 	0.5281	0.7275	0.1732	0.023
Mof_C 	C 	0.7711	0.7681	0.152	0.112
Mof_H 	H 	0.8217	0.7894	0.1582	0.013
Mof_O 	O 	0.2835	0.4457	0.84189	-0.206
Mof_C 	C 	0.4242	0.45049	0.88766	-0.058
Mof_C 	C 	0.192	0.65374	0.84455	0.084
Mof_H 	H 	0.1815	0.6772	0.8311	0.027
Mof_O 	O 	0.4081	0.39197	0.85135	-0.203
Mof_C 	C 	0.8001	0.74284	0.12503	-0.16
Mof_H 	H 	0.871	0.7471	0.113	0.085
Mof_C 	C 	0.6268	0.70603	0.13297	-0.152
Mof_H 	H 	0.5756	0.6849	0.1267	0.1
Mof_O 	O 	0.6569	0.33622	0.28762	-0.496
Mof_O 	O 	0.6214	0.40208	0.28791	-0.515
Mof_O 	O 	0.6056	0.56552	0.71343	-0.518
Mof_C 	C 	0.0581	0.43995	0.5478	0.066
Mof_C 	C 	0.1268	0.4146	0.5207	-0.088
Mof_C 	C 	0.7145	0.40895	0.35335	0.083
Mof_H 	H 	0.6621	0.4293	0.3461	0.021
Mof_C 	C 	0.9428	0.44937	0.54478	-0.1
Mof_H 	H 	0.9011	0.4418	0.5246	0.065
Mof_C 	C 	0.0585	0.4717	0.604	-0.012
Mof_H 	H 	0.0991	0.4786	0.6245	0.052
Mof_C 	C 	0.6646	0.37109	0.30029	0.492
Mof_C 	C 	0.9439	0.42981	0.43935	-0.011
Mof_H 	H 	0.9167	0.4519	0.4262	0.034
Mof_C 	C 	0.9431	0.48226	0.60081	-0.034
Mof_O 	O 	0.4629	0.21483	0.71196	-0.535
Mof_C 	C 	0.1165	0.45131	0.57803	-0.092
Mof_H 	H 	0.1964	0.445	0.5807	0.072
Mof_C 	C 	0.7312	0.37559	0.33308	-0.175
Mof_C 	C 	0.886	0.47021	0.57134	-0.009
Mof_H 	H 	0.8057	0.4762	0.5689	0.036
Mof_C 	C 	0.2281	0.43884	0.50439	0.058
Mof_C 	C 	0.1689	0.37788	0.54066	0.074
Mof_C 	C 	0.3892	0.4827	0.46367	-0.016
Mof_C 	C 	0.0491	0.40421	0.48928	0.067
Mof_C 	C 	0.332	0.49986	0.49213	-0.023
Mof_H 	H 	0.3488	0.5268	0.4982	0.037
Mof_C 	C 	0.3631	0.21178	0.70047	0.53
Mof_C 	C 	0.7636	0.55127	0.67761	-0.2
Mof_C 	C 	0.8807	0.50481	0.62805	0.102
Mof_C 	C 	0.2369	0.31747	0.58806	-0.04
Mof_C 	C 	0.2523	0.47877	0.51153	-0.088
Mof_H 	H 	0.2133	0.4917	0.5301	0.061
Mof_C 	C 	0.7647	0.49912	0.63501	-0.154
Mof_H 	H 	0.7233	0.4791	0.6226	0.092
Mof_C 	C 	0.0078	0.43684	0.4693	-0.096
Mof_H 	H 	0.0238	0.4635	0.4763	0.067
Mof_O 	O 	0.2864	0.18926	0.71193	-0.532
Mof_O 	O 	0.7549	0.60695	0.71407	-0.529
Mof_C 	C 	0.3304	0.23747	0.66992	-0.199
Mof_C 	C 	0.8534	0.38423	0.396	0.085
Mof_C 	C 	0.2712	0.28843	0.61502	0.109
Mof_C 	C 	0.9187	0.39054	0.42808	-0.036
Mof_C 	C 	0.4597	0.50608	0.43939	0.04
Mof_C 	C 	0.4391	0.54813	0.43431	-0.09
Mof_H 	H 	0.3862	0.5619	0.4489	0.058
Mof_C 	C 	0.7064	0.52184	0.65968	0.109
Mof_H 	H 	0.6266	0.5169	0.6641	0.018
Mof_C 	C 	0.9393	0.5347	0.64709	-0.151
Mof_H 	H 	0.0199	0.5389	0.6435	0.09
Mof_C 	C 	0.7741	0.41303	0.38444	-0.141
Mof_H 	H 	0.7605	0.4361	0.3983	0.074
Mof_C 	C 	0.8808	0.55775	0.67079	0.107
Mof_H 	H 	0.9209	0.5784	0.6827	0.021
Mof_C 	C 	0.2844	0.37055	0.54795	-0.105
Mof_H 	H 	0.3426	0.3859	0.5367	0.069
Mof_C 	C 	0.0288	0.36684	0.47723	-0.103
Mof_H 	H 	0.0592	0.3448	0.4898	0.065
Mof_C 	C 	0.7031	0.57664	0.70337	0.522
Mof_C 	C 	0.9655	0.3591	0.44738	-0.007
Mof_H 	H 	0.9541	0.3322	0.4401	0.031
Mof_C 	C 	0.089	0.35309	0.55565	-0.102
Mof_H 	H 	0.0094	0.3565	0.5499	0.068
Mof_C 	C 	0.3701	0.44198	0.4582	-0.023
Mof_H 	H 	0.412	0.4288	0.4404	0.039
Mof_C 	C 	0.1192	0.3229	0.57902	-0
Mof_H 	H 	0.061	0.3062	0.5887	0.033
Mof_C 	C 	0.2923	0.42015	0.47776	-0.085
Mof_H 	H 	0.2818	0.3924	0.4733	0.062
Mof_C 	C 	0.87	0.35047	0.37531	-0.137
Mof_H 	H 	0.9236	0.3303	0.3822	0.079
Mof_C 	C 	0.4952	0.56826	0.4086	0.004
Mof_H 	H 	0.4785	0.5958	0.405	0.041
Mof_C 	C 	0.5459	0.48824	0.41794	-0.088
Mof_H 	H 	0.567	0.4611	0.4216	0.057
Mof_C 	C 	0.5986	0.50936	0.3923	0.003
Mof_H 	H 	0.6519	0.4962	0.3774	0.042
Mof_C 	C 	0.3174	0.34095	0.57162	0.003
Mof_H 	H 	0.3974	0.337	0.5764	0.031
Mof_C 	C 	0.6378	0.5725	0.35868	0.255
Mof_C 	C 	0.4019	0.26825	0.66075	0.107
Mof_H 	H 	0.4719	0.2725	0.6732	0.023
Mof_C 	C 	0.2289	0.2319	0.652	0.112
Mof_H 	H 	0.1783	0.2106	0.6582	0.013
Mof_O 	O 	0.7165	0.5543	0.34189	-0.206
Mof_C 	C 	0.5758	0.54951	0.38766	-0.058
Mof_C 	C 	0.808	0.34626	0.34455	0.084
Mof_H 	H 	0.8185	0.3228	0.3311	0.027
Mof_O 	O 	0.5919	0.60803	0.35135	-0.203
Mof_C 	C 	0.1999	0.25716	0.62503	-0.16
Mof_H 	H 	0.129	0.2529	0.613	0.085
Mof_C 	C 	0.3732	0.29397	0.63297	-0.152
Mof_H 	H 	0.4244	0.3151	0.6267	0.1
Mof_O 	O 	0.6569	0.16378	0.71238	-0.496
Mof_O 	O 	0.6214	0.09792	0.71209	-0.515
Mof_O 	O 	0.6056	0.93448	0.28657	-0.518
Mof_C 	C 	0.0581	0.06005	0.4522	0.066
Mof_C 	C 	0.1268	0.0854	0.4793	-0.088
Mof_C 	C 	0.7145	0.09105	0.64665	0.083
Mof_H 	H 	0.6621	0.0707	0.6539	0.021
Mof_C 	C 	0.9428	0.05063	0.45522	-0.1
Mof_H 	H 	0.9011	0.0582	0.4754	0.065
Mof_C 	C 	0.0585	0.0283	0.396	-0.012
Mof_H 	H 	0.0991	0.0214	0.3755	0.052
Mof_C 	C 	0.6646	0.12891	0.69971	0.492
Mof_C 	C 	0.9439	0.07019	0.56065	-0.011
Mof_H 	H 	0.9167	0.0481	0.5738	0.034
Mof_C 	C 	0.9431	0.01774	0.39919	-0.034
Mof_O 	O 	0.4629	0.28517	0.28804	-0.535
Mof_C 	C 	0.1165	0.04869	0.42197	-0.092
Mof_H 	H 	0.1964	0.055	0.4193	0.072
Mof_C 	C 	0.7312	0.12441	0.66692	-0.175
Mof_C 	C 	0.886	0.02979	0.42866	-0.009
Mof_H 	H 	0.8057	0.0238	0.4311	0.036
Mof_C 	C 	0.2281	0.06116	0.49561	0.058
Mof_C 	C 	0.1689	0.12212	0.45934	0.074
Mof_C 	C 	0.3892	0.0173	0.53633	-0.016
Mof_C 	C 	0.0491	0.09579	0.51072	0.067
Mof_C 	C 	0.332	0.00014	0.50787	-0.023
Mof_H 	H 	0.3488	0.9732	0.5018	0.037
Mof_C 	C 	0.3631	0.28822	0.29953	0.53
Mof_C 	C 	0.7636	0.94873	0.32239	-0.2
Mof_C 	C 	0.8807	0.99519	0.37195	0.102
Mof_C 	C 	0.2369	0.18253	0.41194	-0.04
Mof_C 	C 	0.2523	0.02123	0.48847	-0.088
Mof_H 	H 	0.2133	0.0083	0.4699	0.06
Mof_C 	C 	0.7647	0.00088	0.36499	-0.154
Mof_H 	H 	0.7233	0.0209	0.3774	0.092
Mof_C 	C 	0.0078	0.06316	0.5307	-0.096
Mof_H 	H 	0.0238	0.0365	0.5237	0.067
Mof_O 	O 	0.2864	0.31074	0.28807	-0.532
Mof_O 	O 	0.7549	0.89305	0.28593	-0.529
Mof_C 	C 	0.3304	0.26253	0.33008	-0.199
Mof_C 	C 	0.8534	0.11577	0.604	0.085
Mof_C 	C 	0.2712	0.21157	0.38498	0.109
Mof_C 	C 	0.9187	0.10946	0.57192	-0.036
Mof_C 	C 	0.4597	0.99392	0.56061	0.04
Mof_C 	C 	0.4391	0.95187	0.56569	-0.09
Mof_H 	H 	0.3862	0.9381	0.5511	0.058
Mof_C 	C 	0.7064	0.97816	0.34032	0.11
Mof_H 	H 	0.6266	0.9831	0.3359	0.018
Mof_C 	C 	0.9393	0.9653	0.35291	-0.151
Mof_H 	H 	0.0199	0.9611	0.3565	0.09
Mof_C 	C 	0.7741	0.08697	0.61556	-0.141
Mof_H 	H 	0.7605	0.0639	0.6017	0.074
Mof_C 	C 	0.8808	0.94225	0.32921	0.107
Mof_H 	H 	0.9209	0.9216	0.3173	0.021
Mof_C 	C 	0.2844	0.12945	0.45205	-0.105
Mof_H 	H 	0.3426	0.1141	0.4633	0.069
Mof_C 	C 	0.0288	0.13316	0.52277	-0.103
Mof_H 	H 	0.0592	0.1552	0.5102	0.065
Mof_C 	C 	0.7031	0.92336	0.29663	0.522
Mof_C 	C 	0.9655	0.1409	0.55262	-0.007
Mof_H 	H 	0.9541	0.1678	0.5599	0.031
Mof_C 	C 	0.089	0.14691	0.44435	-0.102
Mof_H 	H 	0.0094	0.1435	0.4501	0.068
Mof_C 	C 	0.3701	0.05802	0.5418	-0.023
Mof_H 	H 	0.412	0.0712	0.5596	0.039
Mof_C 	C 	0.1192	0.1771	0.42098	-0
Mof_H 	H 	0.061	0.1938	0.4113	0.033
Mof_C 	C 	0.2923	0.07985	0.52224	-0.085
Mof_H 	H 	0.2818	0.1076	0.5267	0.062
Mof_C 	C 	0.87	0.14953	0.62469	-0.137
Mof_H 	H 	0.9236	0.1697	0.6178	0.079
Mof_C 	C 	0.4952	0.93174	0.5914	0.004
Mof_H 	H 	0.4785	0.9042	0.595	0.041
Mof_C 	C 	0.5459	0.01176	0.58206	-0.088
Mof_H 	H 	0.567	0.0389	0.5784	0.057
Mof_C 	C 	0.5986	0.99064	0.6077	0.003
Mof_H 	H 	0.6519	0.0038	0.6226	0.042
Mof_C 	C 	0.3174	0.15905	0.42838	0.003
Mof_H 	H 	0.3974	0.163	0.4236	0.031
Mof_C 	C 	0.6378	0.9275	0.64132	0.255
Mof_C 	C 	0.4019	0.23175	0.33925	0.107
Mof_H 	H 	0.4719	0.2275	0.3268	0.023
Mof_C 	C 	0.2289	0.2681	0.348	0.112
Mof_H 	H 	0.1783	0.2894	0.3418	0.013
Mof_O 	O 	0.7165	0.9457	0.65811	-0.206
Mof_C 	C 	0.5758	0.95049	0.61234	-0.058
Mof_C 	C 	0.808	0.15374	0.65545	0.084
Mof_H 	H 	0.8185	0.1772	0.6689	0.027
Mof_O 	O 	0.5919	0.89197	0.64865	-0.203
Mof_C 	C 	0.1999	0.24284	0.37497	-0.16
Mof_H 	H 	0.129	0.2471	0.387	0.085
Mof_C 	C 	0.3732	0.20603	0.36703	-0.152
Mof_H 	H 	0.4244	0.1849	0.3733	0.1
Mof_O 	O 	0.3431	0.83622	0.21238	-0.496
Mof_O 	O 	0.3786	0.90208	0.21209	-0.515
Mof_O 	O 	0.3944	0.06552	0.78657	-0.518
Mof_C 	C 	0.9419	0.93995	0.9522	0.066
Mof_C 	C 	0.8732	0.9146	0.9793	-0.088
Mof_C 	C 	0.2855	0.90895	0.14665	0.083
Mof_H 	H 	0.3379	0.9293	0.1539	0.021
Mof_C 	C 	0.0572	0.94937	0.95522	-0.1
Mof_H 	H 	0.0989	0.9418	0.9754	0.065
Mof_C 	C 	0.9415	0.9717	0.896	-0.012
Mof_H 	H 	0.9009	0.9786	0.8755	0.052
Mof_C 	C 	0.3354	0.87109	0.19971	0.492
Mof_C 	C 	0.0561	0.92981	0.06065	-0.011
Mof_H 	H 	0.0833	0.9519	0.0738	0.034
Mof_C 	C 	0.0569	0.98226	0.89919	-0.034
Mof_O 	O 	0.5371	0.71483	0.78804	-0.535
Mof_C 	C 	0.8835	0.95131	0.92197	-0.092
Mof_H 	H 	0.8036	0.945	0.9193	0.072
Mof_C 	C 	0.2688	0.87559	0.16692	-0.175
Mof_C 	C 	0.114	0.97021	0.92866	-0.009
Mof_H 	H 	0.1943	0.9762	0.9311	0.036
Mof_C 	C 	0.7719	0.93884	0.99561	0.058
Mof_C 	C 	0.8311	0.87788	0.95934	0.074
Mof_C 	C 	0.6108	0.9827	0.03633	-0.016
Mof_C 	C 	0.9509	0.90421	0.01072	0.067
Mof_C 	C 	0.668	0.99986	0.00787	-0.023
Mof_H 	H 	0.6512	0.0268	0.0018	0.037
Mof_C 	C 	0.6369	0.71178	0.79953	0.53
Mof_C 	C 	0.2364	0.05127	0.82239	-0.2
Mof_C 	C 	0.1193	0.00481	0.87195	0.102
Mof_C 	C 	0.7631	0.81747	0.91194	-0.04
Mof_C 	C 	0.7477	0.97877	0.98847	-0.088
Mof_H 	H 	0.7867	0.9917	0.9699	0.06
Mof_C 	C 	0.2353	0.99912	0.86499	-0.154
Mof_H 	H 	0.2767	0.9791	0.8774	0.092
Mof_C 	C 	0.9922	0.93684	0.0307	-0.096
Mof_H 	H 	0.9762	0.9635	0.0237	0.067
Mof_O 	O 	0.7136	0.68926	0.78807	-0.532
Mof_O 	O 	0.2451	0.10695	0.78593	-0.529
Mof_C 	C 	0.6696	0.73747	0.83008	-0.199
Mof_C 	C 	0.1466	0.88423	0.104	0.085
Mof_C 	C 	0.7288	0.78843	0.88498	0.109
Mof_C 	C 	0.0813	0.89054	0.07192	-0.036
Mof_C 	C 	0.5403	0.00608	0.06061	0.04
Mof_C 	C 	0.5609	0.04813	0.06569	-0.09
Mof_H 	H 	0.6138	0.0619	0.0511	0.058
Mof_C 	C 	0.2936	0.02184	0.84032	0.11
Mof_H 	H 	0.3734	0.0169	0.8359	0.018
Mof_C 	C 	0.0607	0.0347	0.85291	-0.151
Mof_H 	H 	0.9801	0.0389	0.8565	0.09
Mof_C 	C 	0.2259	0.91303	0.11556	-0.141
Mof_H 	H 	0.2395	0.9361	0.1017	0.074
Mof_C 	C 	0.1192	0.05775	0.82921	0.107
Mof_H 	H 	0.0791	0.0784	0.8173	0.021
Mof_C 	C 	0.7156	0.87055	0.95205	-0.105
Mof_H 	H 	0.6574	0.8859	0.9633	0.069
Mof_C 	C 	0.9712	0.86684	0.02277	-0.103
Mof_H 	H 	0.9408	0.8448	0.0102	0.065
Mof_C 	C 	0.2969	0.07664	0.79663	0.522
Mof_C 	C 	0.0345	0.8591	0.05262	-0.007
Mof_H 	H 	0.0459	0.8322	0.0599	0.031
Mof_C 	C 	0.911	0.85309	0.94435	-0.102
Mof_H 	H 	0.9906	0.8565	0.9501	0.068
Mof_C 	C 	0.6299	0.94198	0.0418	-0.023
Mof_H 	H 	0.588	0.9288	0.0596	0.039
Mof_C 	C 	0.8808	0.8229	0.92098	-0
Mof_H 	H 	0.939	0.8062	0.9113	0.033
Mof_C 	C 	0.7077	0.92015	0.02224	-0.085
Mof_H 	H 	0.7182	0.8924	0.0267	0.062
Mof_C 	C 	0.13	0.85047	0.12469	-0.137
Mof_H 	H 	0.0764	0.8303	0.1178	0.079
Mof_C 	C 	0.5048	0.06826	0.0914	0.004
Mof_H 	H 	0.5215	0.0958	0.095	0.041
Mof_C 	C 	0.4541	0.98824	0.08206	-0.088
Mof_H 	H 	0.433	0.9611	0.0784	0.057
Mof_C 	C 	0.4014	0.00936	0.1077	0.003
Mof_H 	H 	0.3481	0.9962	0.1226	0.042
Mof_C 	C 	0.6826	0.84095	0.92838	0.003
Mof_H 	H 	0.6026	0.837	0.9236	0.031
Mof_C 	C 	0.3622	0.0725	0.14132	0.255
Mof_C 	C 	0.5981	0.76825	0.83925	0.107
Mof_H 	H 	0.5281	0.7725	0.8268	0.023
Mof_C 	C 	0.7711	0.7319	0.848	0.112
Mof_H 	H 	0.8217	0.7106	0.8418	0.013
Mof_O 	O 	0.2835	0.0543	0.15811	-0.206
Mof_C 	C 	0.4242	0.04951	0.11234	-0.058
Mof_C 	C 	0.192	0.84626	0.15545	0.084
Mof_H 	H 	0.1815	0.8228	0.1689	0.027
Mof_O 	O 	0.4081	0.10803	0.14865	-0.203
Mof_C 	C 	0.8001	0.75716	0.87497	-0.16
Mof_H 	H 	0.871	0.7529	0.887	0.085
Mof_C 	C 	0.6268	0.79397	0.86703	-0.152
Mof_H 	H 	0.5756	0.8151	0.8733	0.1
Mof_Fe	Fe	0.5494	0.31412	0.25	2.045
Mof_Fe	Fe	0.5048	0.41253	0.25	2.026
Mof_Fe	Fe	0.2833	0.3517	0.25	2.021
Mof_O 	O 	0.4475	0.36013	0.25	-0.914
Mof_O 	O 	0.6567	0.26337	0.25	-0.276
Mof_O 	O 	0.5713	0.47142	0.25	-0.262
Mof_O 	O 	0.1037	0.33982	0.25	-0.269
Mof_Ni	Ni	0.2843	0.35117	0.25	-0.353
Mof_Ni	Ni	0.5525	0.315	0.25	-0.377
Mof_Ni	Ni	0.5067	0.41185	0.25	-0.357
Mof_Fe	Fe	0.4506	0.68588	0.75	2.045
Mof_Fe	Fe	0.4952	0.58747	0.75	2.026
Mof_Fe	Fe	0.7167	0.6483	0.75	2.021
Mof_O 	O 	0.5525	0.63987	0.75	-0.914
Mof_O 	O 	0.3433	0.73663	0.75	-0.276
Mof_O 	O 	0.4287	0.52858	0.75	-0.262
Mof_O 	O 	0.8963	0.66018	0.75	-0.269
Mof_Ni	Ni	0.7157	0.64883	0.75	-0.353
Mof_Ni	Ni	0.4475	0.685	0.75	-0.377
Mof_Ni	Ni	0.4933	0.58815	0.75	-0.357
Mof_Fe	Fe	0.4506	0.81412	0.25	2.045
Mof_Fe	Fe	0.4952	0.91253	0.25	2.026
Mof_Fe	Fe	0.7167	0.8517	0.25	2.021
Mof_O 	O 	0.5525	0.86013	0.25	-0.914
Mof_O 	O 	0.3433	0.76337	0.25	-0.276
Mof_O 	O 	0.4287	0.97142	0.25	-0.262
Mof_O 	O 	0.8963	0.83982	0.25	-0.269
Mof_Ni	Ni	0.7157	0.85117	0.25	-0.353
Mof_Ni	Ni	0.4475	0.815	0.25	-0.377
Mof_Ni	Ni	0.4933	0.91185	0.25	-0.357
Mof_Fe	Fe	0.5494	0.18588	0.75	2.045
Mof_Fe	Fe	0.5048	0.08747	0.75	2.026
Mof_Fe	Fe	0.2833	0.1483	0.75	2.021
Mof_O 	O 	0.4475	0.13987	0.75	-0.914
Mof_O 	O 	0.6567	0.23663	0.75	-0.276
Mof_O 	O 	0.5713	0.02858	0.75	-0.262
Mof_O 	O 	0.1037	0.16018	0.75	-0.269
Mof_Ni	Ni	0.2843	0.14883	0.75	-0.353
Mof_Ni	Ni	0.5525	0.185	0.75	-0.377
Mof_Ni	Ni	0.5067	0.08815	0.75	-0.357
_end
