data_functionalizedCrystal
_audit_creation_method	'EQeq! by Chris Wilmer'
_symmetry_space_group_name_H-M	'P1'
_symmetry_Int_Tables_number	1
_symmetry_cell_setting	triclinic
loop_
_symmetry_equiv_pos_as_xyz
  x,y,z
_cell_length_a	14.8999
_cell_length_b	14.8999
_cell_length_c	19.1362
_cell_angle_alpha	90
_cell_angle_beta	90
_cell_angle_gamma	90
loop_
_atom_site_label
_atom_site_type_symbol
_atom_site_fract_x
_atom_site_fract_y
_atom_site_fract_z
_atom_site_charge
Mof_O 	O 	0.37996	0.28327	0.70598	-0.461
Mof_O 	O 	0.36626	0.3178	0.81939	-0.459
Mof_C 	C 	0.48272	0.38576	0.7556	-0.078
Mof_C 	C 	0.52107	0.42198	0.81554	-0.014
Mof_H 	H 	0.5019	0.4023	0.8603	0.047
Mof_C 	C 	0.5132	0.41274	0.69019	-0.015
Mof_H 	H 	0.4894	0.3856	0.6492	0.045
Mof_C 	C 	0.404	0.32355	0.76085	0.373
Mof_C 	C 	0.2866	0.3366	0.9716	-0.011
Mof_H 	H 	0.2493	0.3868	0.9543	0.071
Mof_H 	H 	0.3485	0.345	0.954	0.067
Mof_C 	C 	0.2869	0.3364	0.0509	-0.012
Mof_H 	H 	0.3491	0.3448	0.068	-0.132
Mof_H 	H 	0.2503	0.3872	0.0683	-0.123
Mof_C 	C 	0.3081	0.1766	0.973	-0.017
Mof_H 	H 	0.3146	0.3704	0.9564	-0.055
Mof_H 	H 	0.2135	0.3819	0.9551	-0.055
Mof_C 	C 	0.3243	0.3068	0.0523	-0.018
Mof_H 	H 	0.2172	0.3824	0.069	0.074
Mof_H 	H 	0.3176	0.3687	0.0703	0.063
Mof_C 	C 	0.1579	0.2376	0.9726	-0.02
Mof_H 	H 	0.366	0.3208	0.9564	0.016
Mof_H 	H 	0.2856	0.3815	0.9542	0.024
Mof_C 	C 	0.2402	0.3427	0.0514	-0.016
Mof_H 	H 	0.2912	0.3799	0.0675	0.08
Mof_H 	H 	0.3697	0.3158	0.0697	0.1
Mof_O 	O 	0.12004	0.21673	0.70598	-0.46
Mof_O 	O 	0.13374	0.1822	0.81939	-0.458
Mof_C 	C 	0.01728	0.11424	0.7556	-0.075
Mof_C 	C 	0.97893	0.07802	0.81554	-0.014
Mof_H 	H 	0.9981	0.0977	0.8603	0.048
Mof_C 	C 	0.9868	0.08726	0.69019	-0.015
Mof_H 	H 	0.0106	0.1144	0.6492	0.047
Mof_C 	C 	0.096	0.17645	0.76085	0.374
Mof_C 	C 	0.2134	0.1634	0.9716	-0.01
Mof_H 	H 	0.2507	0.1132	0.9543	0.072
Mof_H 	H 	0.1515	0.155	0.954	0.068
Mof_C 	C 	0.2131	0.1636	0.0509	-0.011
Mof_H 	H 	0.1509	0.1552	0.068	-0.131
Mof_H 	H 	0.2497	0.1128	0.0683	-0.122
Mof_C 	C 	0.1919	0.3234	0.973	-0.016
Mof_H 	H 	0.1854	0.1296	0.9564	-0.054
Mof_H 	H 	0.2865	0.1181	0.9551	-0.054
Mof_C 	C 	0.1757	0.1932	0.0523	-0.017
Mof_H 	H 	0.2828	0.1176	0.069	0.075
Mof_H 	H 	0.1824	0.1313	0.0703	0.064
Mof_C 	C 	0.3421	0.2624	0.9726	-0.02
Mof_H 	H 	0.134	0.1792	0.9564	0.016
Mof_H 	H 	0.2144	0.1185	0.9542	0.024
Mof_C 	C 	0.2598	0.1573	0.0514	-0.016
Mof_H 	H 	0.2088	0.1201	0.0675	0.08
Mof_H 	H 	0.1303	0.1842	0.0697	0.1
Mof_O 	O 	0.21673	0.37996	0.70598	-0.46
Mof_O 	O 	0.1822	0.36626	0.81939	-0.458
Mof_C 	C 	0.11424	0.48272	0.7556	-0.077
Mof_C 	C 	0.07802	0.52107	0.81554	-0.013
Mof_H 	H 	0.0977	0.5019	0.8603	0.048
Mof_C 	C 	0.08726	0.5132	0.69019	-0.014
Mof_H 	H 	0.1144	0.4894	0.6492	0.046
Mof_C 	C 	0.17645	0.404	0.76085	0.374
Mof_C 	C 	0.1634	0.2866	0.9716	-0.01
Mof_H 	H 	0.1132	0.2493	0.9543	0.072
Mof_H 	H 	0.155	0.3485	0.954	0.068
Mof_C 	C 	0.1636	0.2869	0.0509	-0.011
Mof_H 	H 	0.1552	0.3491	0.068	-0.131
Mof_H 	H 	0.1128	0.2503	0.0683	-0.122
Mof_C 	C 	0.3234	0.3081	0.973	-0.016
Mof_H 	H 	0.1296	0.3146	0.9564	-0.054
Mof_H 	H 	0.1181	0.2135	0.9551	-0.054
Mof_C 	C 	0.1932	0.3243	0.0523	-0.017
Mof_H 	H 	0.1176	0.2172	0.069	0.075
Mof_H 	H 	0.1313	0.3176	0.0703	0.064
Mof_C 	C 	0.2624	0.1579	0.9726	-0.02
Mof_H 	H 	0.1792	0.366	0.9564	0.016
Mof_H 	H 	0.1185	0.2856	0.9542	0.024
Mof_C 	C 	0.1573	0.2402	0.0514	-0.016
Mof_H 	H 	0.1201	0.2912	0.0675	0.08
Mof_H 	H 	0.1842	0.3697	0.0697	0.1
Mof_O 	O 	0.28327	0.12004	0.70598	-0.46
Mof_O 	O 	0.3178	0.13374	0.81939	-0.458
Mof_C 	C 	0.38576	0.01728	0.7556	-0.076
Mof_C 	C 	0.42198	0.97893	0.81554	-0.014
Mof_H 	H 	0.4023	0.9981	0.8603	0.048
Mof_C 	C 	0.41274	0.9868	0.69019	-0.015
Mof_H 	H 	0.3856	0.0106	0.6492	0.046
Mof_C 	C 	0.32355	0.096	0.76085	0.374
Mof_C 	C 	0.3366	0.2134	0.9716	-0.01
Mof_H 	H 	0.3868	0.2507	0.9543	0.072
Mof_H 	H 	0.345	0.1515	0.954	0.068
Mof_C 	C 	0.3364	0.2131	0.0509	-0.011
Mof_H 	H 	0.3448	0.1509	0.068	-0.131
Mof_H 	H 	0.3872	0.2497	0.0683	-0.122
Mof_C 	C 	0.1766	0.1919	0.973	-0.016
Mof_H 	H 	0.3704	0.1854	0.9564	-0.054
Mof_H 	H 	0.3819	0.2865	0.9551	-0.054
Mof_C 	C 	0.3068	0.1757	0.0523	-0.017
Mof_H 	H 	0.3824	0.2828	0.069	0.075
Mof_H 	H 	0.3687	0.1824	0.0703	0.064
Mof_C 	C 	0.2376	0.3421	0.9726	-0.02
Mof_H 	H 	0.3208	0.134	0.9564	0.016
Mof_H 	H 	0.3815	0.2144	0.9542	0.024
Mof_C 	C 	0.3427	0.2598	0.0514	-0.016
Mof_H 	H 	0.3799	0.2088	0.0675	0.08
Mof_H 	H 	0.3158	0.1303	0.0697	0.1
Mof_O 	O 	0.62004	0.78327	0.79402	-0.46
Mof_O 	O 	0.63374	0.8178	0.68061	-0.458
Mof_C 	C 	0.51728	0.88576	0.7444	-0.077
Mof_C 	C 	0.47893	0.92198	0.68446	-0.013
Mof_H 	H 	0.4981	0.9023	0.6397	0.047
Mof_C 	C 	0.4868	0.91274	0.80981	-0.013
Mof_H 	H 	0.5106	0.8856	0.8508	0.046
Mof_C 	C 	0.596	0.82355	0.73915	0.374
Mof_C 	C 	0.7134	0.8366	0.5284	-0.01
Mof_H 	H 	0.7507	0.8868	0.5457	0.072
Mof_H 	H 	0.6515	0.845	0.546	0.068
Mof_C 	C 	0.7131	0.8364	0.4491	-0.011
Mof_H 	H 	0.6509	0.8448	0.432	-0.131
Mof_H 	H 	0.7497	0.8872	0.4317	-0.122
Mof_C 	C 	0.6919	0.6766	0.527	-0.016
Mof_H 	H 	0.6854	0.8704	0.5436	-0.054
Mof_H 	H 	0.7865	0.8819	0.5449	-0.054
Mof_C 	C 	0.6757	0.8068	0.4477	-0.017
Mof_H 	H 	0.7828	0.8824	0.431	0.075
Mof_H 	H 	0.6824	0.8687	0.4297	0.064
Mof_C 	C 	0.8421	0.7376	0.5274	-0.02
Mof_H 	H 	0.634	0.8208	0.5436	0.016
Mof_H 	H 	0.7144	0.8815	0.5458	0.024
Mof_C 	C 	0.7598	0.8427	0.4486	-0.016
Mof_H 	H 	0.7088	0.8799	0.4325	0.08
Mof_H 	H 	0.6303	0.8158	0.4303	0.1
Mof_O 	O 	0.87996	0.71673	0.79402	-0.46
Mof_O 	O 	0.86626	0.6822	0.68061	-0.458
Mof_C 	C 	0.98272	0.61424	0.7444	-0.077
Mof_C 	C 	0.02107	0.57802	0.68446	-0.013
Mof_H 	H 	0.0019	0.5977	0.6397	0.048
Mof_C 	C 	0.0132	0.58726	0.80981	-0.014
Mof_H 	H 	0.9894	0.6144	0.8508	0.046
Mof_C 	C 	0.904	0.67645	0.73915	0.374
Mof_C 	C 	0.7866	0.6634	0.5284	-0.01
Mof_H 	H 	0.7493	0.6132	0.5457	0.072
Mof_H 	H 	0.8485	0.655	0.546	0.068
Mof_C 	C 	0.7869	0.6636	0.4491	-0.01
Mof_H 	H 	0.8491	0.6552	0.432	-0.131
Mof_H 	H 	0.7503	0.6128	0.4317	-0.122
Mof_C 	C 	0.8081	0.8234	0.527	-0.016
Mof_H 	H 	0.8146	0.6296	0.5436	-0.054
Mof_H 	H 	0.7135	0.6181	0.5449	-0.054
Mof_C 	C 	0.8243	0.6932	0.4477	-0.017
Mof_H 	H 	0.7172	0.6176	0.431	0.075
Mof_H 	H 	0.8176	0.6313	0.4297	0.064
Mof_C 	C 	0.6579	0.7624	0.5274	-0.02
Mof_H 	H 	0.866	0.6792	0.5436	0.016
Mof_H 	H 	0.7856	0.6185	0.5458	0.024
Mof_C 	C 	0.7402	0.6573	0.4486	-0.016
Mof_H 	H 	0.7912	0.6201	0.4325	0.08
Mof_H 	H 	0.8697	0.6842	0.4303	0.1
Mof_O 	O 	0.78327	0.87996	0.79402	-0.46
Mof_O 	O 	0.8178	0.86626	0.68061	-0.458
Mof_C 	C 	0.88576	0.98272	0.7444	-0.076
Mof_C 	C 	0.92198	0.02107	0.68446	-0.013
Mof_H 	H 	0.9023	0.0019	0.6397	0.047
Mof_C 	C 	0.91274	0.0132	0.80981	-0.014
Mof_H 	H 	0.8856	0.9894	0.8508	0.046
Mof_C 	C 	0.82355	0.904	0.73915	0.374
Mof_C 	C 	0.8366	0.7866	0.5284	-0.01
Mof_H 	H 	0.8868	0.7493	0.5457	0.072
Mof_H 	H 	0.845	0.8485	0.546	0.068
Mof_C 	C 	0.8364	0.7869	0.4491	-0.011
Mof_H 	H 	0.8448	0.8491	0.432	-0.131
Mof_H 	H 	0.8872	0.7503	0.4317	-0.122
Mof_C 	C 	0.6766	0.8081	0.527	-0.016
Mof_H 	H 	0.8704	0.8146	0.5436	-0.054
Mof_H 	H 	0.8819	0.7135	0.5449	-0.054
Mof_C 	C 	0.8068	0.8243	0.4477	-0.017
Mof_H 	H 	0.8824	0.7172	0.431	0.075
Mof_H 	H 	0.8687	0.8176	0.4297	0.064
Mof_C 	C 	0.7376	0.6579	0.5274	-0.02
Mof_H 	H 	0.8208	0.866	0.5436	0.016
Mof_H 	H 	0.8815	0.7856	0.5458	0.024
Mof_C 	C 	0.8427	0.7402	0.4486	-0.016
Mof_H 	H 	0.8799	0.7912	0.4325	0.08
Mof_H 	H 	0.8158	0.8697	0.4303	0.1
Mof_O 	O 	0.71673	0.62004	0.79402	-0.46
Mof_O 	O 	0.6822	0.63374	0.68061	-0.458
Mof_C 	C 	0.61424	0.51728	0.7444	-0.077
Mof_C 	C 	0.57802	0.47893	0.68446	-0.013
Mof_H 	H 	0.5977	0.4981	0.6397	0.048
Mof_C 	C 	0.58726	0.4868	0.80981	-0.014
Mof_H 	H 	0.6144	0.5106	0.8508	0.046
Mof_C 	C 	0.67645	0.596	0.73915	0.374
Mof_C 	C 	0.6634	0.7134	0.5284	-0.01
Mof_H 	H 	0.6132	0.7507	0.5457	0.072
Mof_H 	H 	0.655	0.6515	0.546	0.068
Mof_C 	C 	0.6636	0.7131	0.4491	-0.01
Mof_H 	H 	0.6552	0.6509	0.432	-0.131
Mof_H 	H 	0.6128	0.7497	0.4317	-0.122
Mof_C 	C 	0.8234	0.6919	0.527	-0.016
Mof_H 	H 	0.6296	0.6854	0.5436	-0.054
Mof_H 	H 	0.6181	0.7865	0.5449	-0.054
Mof_C 	C 	0.6932	0.6757	0.4477	-0.017
Mof_H 	H 	0.6176	0.7828	0.431	0.075
Mof_H 	H 	0.6313	0.6824	0.4297	0.064
Mof_C 	C 	0.7624	0.8421	0.5274	-0.02
Mof_H 	H 	0.6792	0.634	0.5436	0.016
Mof_H 	H 	0.6185	0.7144	0.5458	0.024
Mof_C 	C 	0.6573	0.7598	0.4486	-0.016
Mof_H 	H 	0.6201	0.7088	0.4325	0.08
Mof_H 	H 	0.6842	0.6303	0.4303	0.1
Mof_O 	O 	0.62004	0.71673	0.29402	-0.46
Mof_O 	O 	0.63374	0.6822	0.18061	-0.458
Mof_C 	C 	0.51728	0.61424	0.2444	-0.077
Mof_C 	C 	0.47893	0.57802	0.18446	-0.013
Mof_H 	H 	0.4981	0.5977	0.1397	0.048
Mof_C 	C 	0.4868	0.58726	0.30981	-0.014
Mof_H 	H 	0.5106	0.6144	0.3508	0.046
Mof_C 	C 	0.596	0.67645	0.23915	0.374
Mof_C 	C 	0.7134	0.6634	0.0284	-0.01
Mof_H 	H 	0.7507	0.6132	0.0457	0.072
Mof_H 	H 	0.6515	0.655	0.046	0.068
Mof_C 	C 	0.7131	0.6636	0.9491	-0.011
Mof_H 	H 	0.6509	0.6552	0.932	-0.131
Mof_H 	H 	0.7497	0.6128	0.9317	-0.122
Mof_C 	C 	0.6919	0.8234	0.027	-0.016
Mof_H 	H 	0.6854	0.6296	0.0436	-0.054
Mof_H 	H 	0.7865	0.6181	0.0449	-0.054
Mof_C 	C 	0.6757	0.6932	0.9477	-0.017
Mof_H 	H 	0.7828	0.6176	0.931	0.075
Mof_H 	H 	0.6824	0.6313	0.9297	0.064
Mof_C 	C 	0.8421	0.7624	0.0274	-0.02
Mof_H 	H 	0.634	0.6792	0.0436	0.016
Mof_H 	H 	0.7144	0.6185	0.0458	0.024
Mof_C 	C 	0.7598	0.6573	0.9486	-0.016
Mof_H 	H 	0.7088	0.6201	0.9325	0.08
Mof_H 	H 	0.6303	0.6842	0.9303	0.1
Mof_O 	O 	0.87996	0.78327	0.29402	-0.46
Mof_O 	O 	0.86626	0.8178	0.18061	-0.458
Mof_C 	C 	0.98272	0.88576	0.2444	-0.075
Mof_C 	C 	0.02107	0.92198	0.18446	-0.014
Mof_H 	H 	0.0019	0.9023	0.1397	0.048
Mof_C 	C 	0.0132	0.91274	0.30981	-0.015
Mof_H 	H 	0.9894	0.8856	0.3508	0.047
Mof_C 	C 	0.904	0.82355	0.23915	0.374
Mof_C 	C 	0.7866	0.8366	0.0284	-0.01
Mof_H 	H 	0.7493	0.8868	0.0457	0.072
Mof_H 	H 	0.8485	0.845	0.046	0.068
Mof_C 	C 	0.7869	0.8364	0.9491	-0.011
Mof_H 	H 	0.8491	0.8448	0.932	-0.131
Mof_H 	H 	0.7503	0.8872	0.9317	-0.122
Mof_C 	C 	0.8081	0.6766	0.027	-0.016
Mof_H 	H 	0.8146	0.8704	0.0436	-0.054
Mof_H 	H 	0.7135	0.8819	0.0449	-0.054
Mof_C 	C 	0.8243	0.8068	0.9477	-0.017
Mof_H 	H 	0.7172	0.8824	0.931	0.075
Mof_H 	H 	0.8176	0.8687	0.9297	0.064
Mof_C 	C 	0.6579	0.7376	0.0274	-0.02
Mof_H 	H 	0.866	0.8208	0.0436	0.016
Mof_H 	H 	0.7856	0.8815	0.0458	0.024
Mof_C 	C 	0.7402	0.8427	0.9486	-0.016
Mof_H 	H 	0.7912	0.8799	0.9325	0.08
Mof_H 	H 	0.8697	0.8158	0.9303	0.1
Mof_O 	O 	0.78327	0.62004	0.29402	-0.46
Mof_O 	O 	0.8178	0.63374	0.18061	-0.458
Mof_C 	C 	0.88576	0.51728	0.2444	-0.077
Mof_C 	C 	0.92198	0.47893	0.18446	-0.013
Mof_H 	H 	0.9023	0.4981	0.1397	0.048
Mof_C 	C 	0.91274	0.4868	0.30981	-0.014
Mof_H 	H 	0.8856	0.5106	0.3508	0.046
Mof_C 	C 	0.82355	0.596	0.23915	0.374
Mof_C 	C 	0.8366	0.7134	0.0284	-0.01
Mof_H 	H 	0.8868	0.7507	0.0457	0.072
Mof_H 	H 	0.845	0.6515	0.046	0.068
Mof_C 	C 	0.8364	0.7131	0.9491	-0.011
Mof_H 	H 	0.8448	0.6509	0.932	-0.131
Mof_H 	H 	0.8872	0.7497	0.9317	-0.122
Mof_C 	C 	0.6766	0.6919	0.027	-0.016
Mof_H 	H 	0.8704	0.6854	0.0436	-0.054
Mof_H 	H 	0.8819	0.7865	0.0449	-0.054
Mof_C 	C 	0.8068	0.6757	0.9477	-0.017
Mof_H 	H 	0.8824	0.7828	0.931	0.075
Mof_H 	H 	0.8687	0.6824	0.9297	0.064
Mof_C 	C 	0.7376	0.8421	0.0274	-0.02
Mof_H 	H 	0.8208	0.634	0.0436	0.016
Mof_H 	H 	0.8815	0.7144	0.0458	0.024
Mof_C 	C 	0.8427	0.7598	0.9486	-0.016
Mof_H 	H 	0.8799	0.7088	0.9325	0.08
Mof_H 	H 	0.8158	0.6303	0.9303	0.1
Mof_O 	O 	0.71673	0.87996	0.29402	-0.46
Mof_O 	O 	0.6822	0.86626	0.18061	-0.458
Mof_C 	C 	0.61424	0.98272	0.2444	-0.076
Mof_C 	C 	0.57802	0.02107	0.18446	-0.014
Mof_H 	H 	0.5977	0.0019	0.1397	0.048
Mof_C 	C 	0.58726	0.0132	0.30981	-0.015
Mof_H 	H 	0.6144	0.9894	0.3508	0.046
Mof_C 	C 	0.67645	0.904	0.23915	0.374
Mof_C 	C 	0.6634	0.7866	0.0284	-0.01
Mof_H 	H 	0.6132	0.7493	0.0457	0.072
Mof_H 	H 	0.655	0.8485	0.046	0.068
Mof_C 	C 	0.6636	0.7869	0.9491	-0.011
Mof_H 	H 	0.6552	0.8491	0.932	-0.131
Mof_H 	H 	0.6128	0.7503	0.9317	-0.122
Mof_C 	C 	0.8234	0.8081	0.027	-0.016
Mof_H 	H 	0.6296	0.8146	0.0436	-0.054
Mof_H 	H 	0.6181	0.7135	0.0449	-0.054
Mof_C 	C 	0.6932	0.8243	0.9477	-0.017
Mof_H 	H 	0.6176	0.7172	0.931	0.075
Mof_H 	H 	0.6313	0.8176	0.9297	0.064
Mof_C 	C 	0.7624	0.6579	0.0274	-0.02
Mof_H 	H 	0.6792	0.866	0.0436	0.016
Mof_H 	H 	0.6185	0.7856	0.0458	0.024
Mof_C 	C 	0.6573	0.7402	0.9486	-0.016
Mof_H 	H 	0.6201	0.7912	0.9325	0.08
Mof_H 	H 	0.6842	0.8697	0.9303	0.1
Mof_O 	O 	0.37996	0.21673	0.20598	-0.46
Mof_O 	O 	0.36626	0.1822	0.31939	-0.458
Mof_C 	C 	0.48272	0.11424	0.2556	-0.077
Mof_C 	C 	0.52107	0.07802	0.31554	-0.013
Mof_H 	H 	0.5019	0.0977	0.3603	0.047
Mof_C 	C 	0.5132	0.08726	0.19019	-0.013
Mof_H 	H 	0.4894	0.1144	0.1492	0.046
Mof_C 	C 	0.404	0.17645	0.26085	0.374
Mof_C 	C 	0.2866	0.1634	0.4716	-0.01
Mof_H 	H 	0.2493	0.1132	0.4543	0.072
Mof_H 	H 	0.3485	0.155	0.454	0.068
Mof_C 	C 	0.2869	0.1636	0.5509	-0.011
Mof_H 	H 	0.3491	0.1552	0.568	-0.131
Mof_H 	H 	0.2503	0.1128	0.5683	-0.122
Mof_C 	C 	0.3081	0.3234	0.473	-0.016
Mof_H 	H 	0.3146	0.1296	0.4564	-0.054
Mof_H 	H 	0.2135	0.1181	0.4551	-0.054
Mof_C 	C 	0.3243	0.1932	0.5523	-0.017
Mof_H 	H 	0.2172	0.1176	0.569	0.075
Mof_H 	H 	0.3176	0.1313	0.5703	0.064
Mof_C 	C 	0.1579	0.2624	0.4726	-0.02
Mof_H 	H 	0.366	0.1792	0.4564	0.016
Mof_H 	H 	0.2856	0.1185	0.4542	0.024
Mof_C 	C 	0.2402	0.1573	0.5514	-0.016
Mof_H 	H 	0.2912	0.1201	0.5675	0.08
Mof_H 	H 	0.3697	0.1842	0.5697	0.1
Mof_O 	O 	0.12004	0.28327	0.20598	-0.46
Mof_O 	O 	0.13374	0.3178	0.31939	-0.458
Mof_C 	C 	0.01728	0.38576	0.2556	-0.077
Mof_C 	C 	0.97893	0.42198	0.31554	-0.013
Mof_H 	H 	0.9981	0.4023	0.3603	0.048
Mof_C 	C 	0.9868	0.41274	0.19019	-0.014
Mof_H 	H 	0.0106	0.3856	0.1492	0.046
Mof_C 	C 	0.096	0.32355	0.26085	0.374
Mof_C 	C 	0.2134	0.3366	0.4716	-0.01
Mof_H 	H 	0.2507	0.3868	0.4543	0.072
Mof_H 	H 	0.1515	0.345	0.454	0.068
Mof_C 	C 	0.2131	0.3364	0.5509	-0.01
Mof_H 	H 	0.1509	0.3448	0.568	-0.131
Mof_H 	H 	0.2497	0.3872	0.5683	-0.122
Mof_C 	C 	0.1919	0.1766	0.473	-0.016
Mof_H 	H 	0.1854	0.3704	0.4564	-0.054
Mof_H 	H 	0.2865	0.3819	0.4551	-0.054
Mof_C 	C 	0.1757	0.3068	0.5523	-0.017
Mof_H 	H 	0.2828	0.3824	0.569	0.075
Mof_H 	H 	0.1824	0.3687	0.5703	0.064
Mof_C 	C 	0.3421	0.2376	0.4726	-0.02
Mof_H 	H 	0.134	0.3208	0.4564	0.016
Mof_H 	H 	0.2144	0.3815	0.4542	0.024
Mof_C 	C 	0.2598	0.3427	0.5514	-0.016
Mof_H 	H 	0.2088	0.3799	0.5675	0.08
Mof_H 	H 	0.1303	0.3158	0.5697	0.1
Mof_O 	O 	0.21673	0.12004	0.20598	-0.46
Mof_O 	O 	0.1822	0.13374	0.31939	-0.458
Mof_C 	C 	0.11424	0.01728	0.2556	-0.076
Mof_C 	C 	0.07802	0.97893	0.31554	-0.013
Mof_H 	H 	0.0977	0.9981	0.3603	0.047
Mof_C 	C 	0.08726	0.9868	0.19019	-0.014
Mof_H 	H 	0.1144	0.0106	0.1492	0.046
Mof_C 	C 	0.17645	0.096	0.26085	0.374
Mof_C 	C 	0.1634	0.2134	0.4716	-0.01
Mof_H 	H 	0.1132	0.2507	0.4543	0.072
Mof_H 	H 	0.155	0.1515	0.454	0.068
Mof_C 	C 	0.1636	0.2131	0.5509	-0.011
Mof_H 	H 	0.1552	0.1509	0.568	-0.131
Mof_H 	H 	0.1128	0.2497	0.5683	-0.122
Mof_C 	C 	0.3234	0.1919	0.473	-0.016
Mof_H 	H 	0.1296	0.1854	0.4564	-0.054
Mof_H 	H 	0.1181	0.2865	0.4551	-0.054
Mof_C 	C 	0.1932	0.1757	0.5523	-0.017
Mof_H 	H 	0.1176	0.2828	0.569	0.075
Mof_H 	H 	0.1313	0.1824	0.5703	0.064
Mof_C 	C 	0.2624	0.3421	0.4726	-0.02
Mof_H 	H 	0.1792	0.134	0.4564	0.016
Mof_H 	H 	0.1185	0.2144	0.4542	0.024
Mof_C 	C 	0.1573	0.2598	0.5514	-0.016
Mof_H 	H 	0.1201	0.2088	0.5675	0.08
Mof_H 	H 	0.1842	0.1303	0.5697	0.1
Mof_O 	O 	0.28327	0.37996	0.20598	-0.46
Mof_O 	O 	0.3178	0.36626	0.31939	-0.458
Mof_C 	C 	0.38576	0.48272	0.2556	-0.077
Mof_C 	C 	0.42198	0.52107	0.31554	-0.013
Mof_H 	H 	0.4023	0.5019	0.3603	0.048
Mof_C 	C 	0.41274	0.5132	0.19019	-0.014
Mof_H 	H 	0.3856	0.4894	0.1492	0.046
Mof_C 	C 	0.32355	0.404	0.26085	0.374
Mof_C 	C 	0.3366	0.2866	0.4716	-0.01
Mof_H 	H 	0.3868	0.2493	0.4543	0.072
Mof_H 	H 	0.345	0.3485	0.454	0.068
Mof_C 	C 	0.3364	0.2869	0.5509	-0.01
Mof_H 	H 	0.3448	0.3491	0.568	-0.131
Mof_H 	H 	0.3872	0.2503	0.5683	-0.122
Mof_C 	C 	0.1766	0.3081	0.473	-0.016
Mof_H 	H 	0.3704	0.3146	0.4564	-0.054
Mof_H 	H 	0.3819	0.2135	0.4551	-0.054
Mof_C 	C 	0.3068	0.3243	0.5523	-0.017
Mof_H 	H 	0.3824	0.2172	0.569	0.075
Mof_H 	H 	0.3687	0.3176	0.5703	0.064
Mof_C 	C 	0.2376	0.1579	0.4726	-0.02
Mof_H 	H 	0.3208	0.366	0.4564	0.016
Mof_H 	H 	0.3815	0.2856	0.4542	0.024
Mof_C 	C 	0.3427	0.2402	0.5514	-0.016
Mof_H 	H 	0.3799	0.2912	0.5675	0.08
Mof_H 	H 	0.3158	0.3697	0.5697	0.1
Mof_Zn	Zn	0.25	0.25	0.83865	1.213
Mof_Zn	Zn	0.25	0.25	0.68555	1.211
Mof_N 	N 	0.25	0.25	0.9455	-0.196
Mof_N 	N 	0.25	0.25	0.0791	-0.2
Mof_Zn	Zn	0.75	0.75	0.66135	1.213
Mof_Zn	Zn	0.75	0.75	0.81445	1.211
Mof_N 	N 	0.75	0.75	0.5545	-0.196
Mof_N 	N 	0.75	0.75	0.4209	-0.2
Mof_Zn	Zn	0.75	0.75	0.16135	1.213
Mof_Zn	Zn	0.75	0.75	0.31445	1.211
Mof_N 	N 	0.75	0.75	0.0545	-0.196
Mof_N 	N 	0.75	0.75	0.9209	-0.2
Mof_Zn	Zn	0.25	0.25	0.33865	1.213
Mof_Zn	Zn	0.25	0.25	0.18555	1.211
Mof_N 	N 	0.25	0.25	0.4455	-0.196
Mof_N 	N 	0.25	0.25	0.5791	-0.2
_end
