data_functionalizedCrystal
_audit_creation_method	'EQeq! by Chris Wilmer'
_symmetry_space_group_name_H-M	'P1'
_symmetry_Int_Tables_number	1
_symmetry_cell_setting	triclinic
loop_
_symmetry_equiv_pos_as_xyz
  x,y,z
_cell_length_a	11.318
_cell_length_b	9.601
_cell_length_c	13.965
_cell_angle_alpha	90
_cell_angle_beta	92.063
_cell_angle_gamma	90
loop_
_atom_site_label
_atom_site_type_symbol
_atom_site_fract_x
_atom_site_fract_y
_atom_site_fract_z
_atom_site_charge
Mof_Zn	Zn	0.25444	0.26543	0.34577	1.24
Mof_S 	S 	0.2113	0.58173	0.32689	1.048
Mof_O 	O 	0.2621	0.4525	0.2819	-0.377
Mof_O 	O 	0.2357	0.5835	0.4269	-0.217
Mof_O 	O 	0.0876	0.5805	0.3005	-0.403
Mof_O 	O 	0.2774	0.7001	0.2794	-0.33
Mof_N 	N 	0.1374	0.2218	0.4451	-0.264
Mof_N 	N 	0.041	0.2556	0.5788	-0.219
Mof_H 	H 	0.0159	0.2976	0.6303	0.174
Mof_N 	N 	0.4123	0.2305	0.4058	-0.266
Mof_N 	N 	0.5756	0.2693	0.4913	-0.231
Mof_H 	H 	0.6363	0.3144	0.5174	0.194
Mof_C 	C 	0.3928	0.9739	0.4417	-0.154
Mof_H 	H 	0.3234	0.9564	0.4032	0.103
Mof_C 	C 	0.4455	0.1052	0.448	0.061
Mof_C 	C 	0.5509	0.1286	0.5043	0.119
Mof_C 	C 	0.4928	0.3243	0.4335	0.148
Mof_H 	H 	0.4912	0.4192	0.4141	0.001
Mof_C 	C 	0.0725	0.1004	0.4631	0.067
Mof_C 	C 	0.01	0.1217	0.5488	0.111
Mof_C 	C 	0.115	0.3096	0.5164	0.127
Mof_H 	H 	0.1481	0.4003	0.5221	0.011
Mof_C 	C 	0.9368	0.0239	0.5883	-0.152
Mof_H 	H 	0.8962	0.0399	0.6456	0.113
Mof_O 	O 	0.2669	0.4643	0.3877	-0.354
Mof_O 	O 	0.2187	0.7055	0.3961	-0.228
Mof_O 	O 	0.2814	0.6042	0.2485	-0.316
Mof_Zn	Zn	0.24556	0.76543	0.15423	1.239
Mof_S 	S 	0.2887	0.08173	0.17311	1.042
Mof_O 	O 	0.2379	0.9525	0.2181	-0.376
Mof_O 	O 	0.2643	0.0835	0.0731	-0.22
Mof_O 	O 	0.4124	0.0805	0.1995	-0.404
Mof_O 	O 	0.2226	0.2001	0.2206	-0.33
Mof_N 	N 	0.3626	0.7218	0.0549	-0.263
Mof_N 	N 	0.459	0.7556	0.9212	-0.219
Mof_H 	H 	0.4841	0.7976	0.8697	0.174
Mof_N 	N 	0.0877	0.7305	0.0942	-0.266
Mof_N 	N 	0.9244	0.7693	0.0087	-0.226
Mof_H 	H 	0.8637	0.8144	0.9826	0.19
Mof_C 	C 	0.1072	0.4739	0.0583	-0.154
Mof_H 	H 	0.1766	0.4564	0.0968	0.102
Mof_C 	C 	0.0545	0.6052	0.052	0.063
Mof_C 	C 	0.9491	0.6286	0.9957	0.114
Mof_C 	C 	0.0072	0.8243	0.0665	0.147
Mof_H 	H 	0.0088	0.9192	0.0859	0.002
Mof_C 	C 	0.4275	0.6004	0.0369	0.071
Mof_C 	C 	0.49	0.6217	0.9512	0.113
Mof_C 	C 	0.385	0.8096	0.9836	0.126
Mof_H 	H 	0.3519	0.9003	0.9779	0.011
Mof_C 	C 	0.5632	0.5239	0.9117	-0.158
Mof_H 	H 	0.6038	0.5399	0.8544	0.114
Mof_O 	O 	0.2331	0.9643	0.1123	-0.35
Mof_O 	O 	0.2813	0.2055	0.1039	-0.228
Mof_O 	O 	0.2186	0.1042	0.2515	-0.317
Mof_Zn	Zn	0.74556	0.73457	0.65423	1.239
Mof_S 	S 	0.7887	0.41827	0.67311	1.047
Mof_O 	O 	0.7379	0.5475	0.7181	-0.378
Mof_O 	O 	0.7643	0.4165	0.5731	-0.218
Mof_O 	O 	0.9124	0.4195	0.6995	-0.404
Mof_O 	O 	0.7226	0.2999	0.7206	-0.331
Mof_N 	N 	0.8626	0.7782	0.5549	-0.264
Mof_N 	N 	0.959	0.7444	0.4212	-0.219
Mof_H 	H 	0.9841	0.7024	0.3697	0.174
Mof_N 	N 	0.5877	0.7695	0.5942	-0.266
Mof_N 	N 	0.4244	0.7307	0.5087	-0.231
Mof_H 	H 	0.3637	0.6856	0.4826	0.194
Mof_C 	C 	0.6072	0.0261	0.5583	-0.154
Mof_H 	H 	0.6766	0.0436	0.5968	0.103
Mof_C 	C 	0.5545	0.8948	0.552	0.061
Mof_C 	C 	0.4491	0.8714	0.4957	0.119
Mof_C 	C 	0.5072	0.6757	0.5665	0.148
Mof_H 	H 	0.5088	0.5808	0.5859	0.001
Mof_C 	C 	0.9275	0.8996	0.5369	0.067
Mof_C 	C 	0.99	0.8783	0.4512	0.111
Mof_C 	C 	0.885	0.6904	0.4836	0.127
Mof_H 	H 	0.8519	0.5997	0.4779	0.011
Mof_C 	C 	0.0632	0.9761	0.4117	-0.152
Mof_H 	H 	0.1038	0.9601	0.3544	0.113
Mof_O 	O 	0.7331	0.5357	0.6123	-0.354
Mof_O 	O 	0.7813	0.2945	0.6039	-0.228
Mof_O 	O 	0.7186	0.3958	0.7515	-0.316
Mof_Zn	Zn	0.75444	0.23457	0.84577	1.239
Mof_S 	S 	0.7113	0.91827	0.82689	1.042
Mof_O 	O 	0.7621	0.0475	0.7819	-0.376
Mof_O 	O 	0.7357	0.9165	0.9269	-0.22
Mof_O 	O 	0.5876	0.9195	0.8005	-0.404
Mof_O 	O 	0.7774	0.7999	0.7794	-0.33
Mof_N 	N 	0.6374	0.2782	0.9451	-0.263
Mof_N 	N 	0.541	0.2444	0.0788	-0.219
Mof_H 	H 	0.5159	0.2024	0.1303	0.174
Mof_N 	N 	0.9123	0.2695	0.9058	-0.266
Mof_N 	N 	0.0756	0.2307	0.9913	-0.226
Mof_H 	H 	0.1363	0.1856	0.0174	0.19
Mof_C 	C 	0.8928	0.5261	0.9417	-0.154
Mof_H 	H 	0.8234	0.5436	0.9032	0.102
Mof_C 	C 	0.9455	0.3948	0.948	0.063
Mof_C 	C 	0.0509	0.3714	0.0043	0.114
Mof_C 	C 	0.9928	0.1757	0.9335	0.147
Mof_H 	H 	0.9912	0.0808	0.9141	0.002
Mof_C 	C 	0.5725	0.3996	0.9631	0.071
Mof_C 	C 	0.51	0.3783	0.0488	0.113
Mof_C 	C 	0.615	0.1904	0.0164	0.126
Mof_H 	H 	0.6481	0.0997	0.0221	0.011
Mof_C 	C 	0.4368	0.4761	0.0883	-0.158
Mof_H 	H 	0.3962	0.4601	0.1456	0.114
Mof_O 	O 	0.7669	0.0357	0.8877	-0.35
Mof_O 	O 	0.7187	0.7945	0.8961	-0.228
Mof_O 	O 	0.7814	0.8958	0.7485	-0.317
_end
