data_functionalizedCrystal
_audit_creation_method	'EQeq! by Chris Wilmer'
_symmetry_space_group_name_H-M	'P1'
_symmetry_Int_Tables_number	1
_symmetry_cell_setting	triclinic
loop_
_symmetry_equiv_pos_as_xyz
  x,y,z
_cell_length_a	9.0061
_cell_length_b	31.498
_cell_length_c	15.78
_cell_angle_alpha	90
_cell_angle_beta	90.584
_cell_angle_gamma	90
loop_
_atom_site_label
_atom_site_type_symbol
_atom_site_fract_x
_atom_site_fract_y
_atom_site_fract_z
_atom_site_charge
Mof_Ni	Ni	0.29599	0.83636	0.4797	1.095
Mof_N 	N 	0.1097	0.8018	0.5191	-0.091
Mof_C 	C 	0.9593	0.8145	0.5097	0.227
Mof_H 	H 	0.9251	0.8427	0.5006	-0.051
Mof_C 	C 	0.8688	0.7778	0.5161	0.201
Mof_H 	H 	0.7635	0.7771	0.5121	-0.034
Mof_N 	N 	0.9634	0.7423	0.5296	-0.051
Mof_C 	C 	0.1123	0.7571	0.5315	-0.004
Mof_H 	H 	0.1984	0.7401	0.5395	0.014
Mof_C 	C 	0.9106	0.70088	0.5301	0.04
Mof_C 	C 	0.9621	0.67329	0.5925	-0.027
Mof_H 	H 	0.0272	0.6833	0.6358	0.047
Mof_C 	C 	0.9182	0.63097	0.5916	-0.033
Mof_H 	H 	0.9534	0.6121	0.6343	0.043
Mof_C 	C 	0.823	0.61625	0.5283	-0.006
Mof_C 	C 	0.7715	0.64385	0.4659	0.008
Mof_H 	H 	0.7064	0.6338	0.4226	0.02
Mof_C 	C 	0.8153	0.68616	0.4667	-0.035
Mof_H 	H 	0.7802	0.705	0.4241	0.045
Mof_C 	C 	0.7821	0.57052	0.528	0.08
Mof_C 	C 	0.7107	0.55296	0.5983	-0.158
Mof_H 	H 	0.6898	0.5703	0.646	0.09
Mof_C 	C 	0.6702	0.51015	0.5989	0.098
Mof_C 	C 	0.7025	0.48526	0.5287	-0.158
Mof_H 	H 	0.6769	0.456	0.5291	0.082
Mof_C 	C 	0.7713	0.50222	0.458	0.101
Mof_C 	C 	0.8102	0.54485	0.4581	-0.154
Mof_H 	H 	0.8568	0.5567	0.4098	0.085
Mof_C 	C 	0.5998	0.49127	0.6755	-0.052
Mof_C 	C 	0.6161	0.50966	0.755	0.011
Mof_H 	H 	0.6687	0.5357	0.7602	0.035
Mof_C 	C 	0.5578	0.49099	0.8267	-0.124
Mof_H 	H 	0.5708	0.5042	0.8804	0.076
Mof_C 	C 	0.4803	0.453	0.8202	0.125
Mof_C 	C 	0.4562	0.43501	0.7417	-0.131
Mof_H 	H 	0.3993	0.4097	0.7364	0.077
Mof_C 	C 	0.5159	0.45412	0.6704	0.016
Mof_H 	H 	0.499	0.4415	0.6164	0.023
Mof_C 	C 	0.4033	0.41487	0.0286	-0.003
Mof_H 	H 	0.4133	0.4138	0.0885	0.037
Mof_C 	C 	0.4794	0.44093	0.9771	0.004
Mof_H 	H 	0.5528	0.461	0.9937	0.029
Mof_C 	C 	0.3286	0.40161	0.9015	0.095
Mof_H 	H 	0.2774	0.3895	0.8545	-0
Mof_C 	C 	0.8024	0.47552	0.3825	-0.057
Mof_C 	C 	0.9327	0.48161	0.3361	0.016
Mof_H 	H 	0.003	0.5022	0.3546	0.029
Mof_C 	C 	0.9602	0.45827	0.2641	-0.134
Mof_H 	H 	0.0473	0.4635	0.2323	0.08
Mof_C 	C 	0.8614	0.42731	0.2382	0.127
Mof_C 	C 	0.732	0.42003	0.2834	-0.138
Mof_H 	H 	0.6638	0.3988	0.2655	0.085
Mof_C 	C 	0.704	0.44424	0.3548	0.018
Mof_H 	H 	0.6156	0.4394	0.3857	0.021
Mof_C 	C 	0.8742	0.36509	0.0487	0.013
Mof_H 	H 	0.8349	0.3512	-0	0.027
Mof_C 	C 	0.7933	0.38591	0.1065	0.002
Mof_H 	H 	0.6883	0.3888	0.107	0.034
Mof_C 	C 	0.0294	0.3897	0.141	0.091
Mof_H 	H 	0.1186	0.3964	0.1707	0.008
Mof_C 	C 	0.1488	0.84471	0.2958	0.153
Mof_C 	C 	0.0931	0.81147	0.2349	0.447
Mof_C 	C 	0.0367	0.82262	0.1562	-0.716
Mof_H 	H 	0.0311	0.8518	0.1414	0.272
Mof_C 	C 	0.9879	0.79238	0.0982	0.962
Mof_C 	C 	0.9964	0.74879	0.1211	-0.62
Mof_C 	C 	0.0534	0.73794	0.1998	0.608
Mof_H 	H 	0.0594	0.7088	0.2151	-0.138
Mof_C 	C 	0.1021	0.76839	0.2571	-0.799
Mof_H 	H 	0.1423	0.7603	0.3113	0.751
Mof_C 	C 	0.9404	0.71495	0.0633	0.479
Mof_N 	N 	0.3091	0.39	0.98093	-0.232
Mof_N 	N 	0.4302	0.43282	0.89544	-0.143
Mof_N 	N 	0.0231	0.36696	0.07055	-0.221
Mof_N 	N 	0.893	0.40224	0.16523	-0.14
Mof_N 	N 	0.9263	0.80625	0.0194	0.673
Mof_O 	O 	0.2092	0.83011	0.36242	-0.365
Mof_O 	O 	0.1334	0.88292	0.27788	-0.237
Mof_O 	O 	0.9113	0.67835	0.09336	-0.415
Mof_O 	O 	0.9161	0.72294	0.98559	-0.412
Mof_C 	C 	0.932	0.6999	0.5239	0.037
Mof_C 	C 	0.0306	0.668	0.5482	-0.064
Mof_H 	H 	0.1297	0.675	0.564	0.04
Mof_C 	C 	0.9841	0.626	0.5495	-0.013
Mof_H 	H 	0.0513	0.6042	0.5661	0.032
Mof_C 	C 	0.8391	0.6157	0.5264	-0.01
Mof_C 	C 	0.7407	0.6476	0.502	-0.042
Mof_H 	H 	0.6416	0.6406	0.4862	0.024
Mof_C 	C 	0.7872	0.6896	0.5008	-0.052
Mof_H 	H 	0.72	0.7114	0.4841	0.045
Mof_N 	N 	0.1157	0.8002	0.5171	-0.074
Mof_C 	C 	0.9804	0.8148	0.5522	-0.23
Mof_H 	H 	0.9585	0.8432	0.5678	0.094
Mof_C 	C 	0.8834	0.7795	0.5596	-0.223
Mof_H 	H 	0.7854	0.7801	0.5812	0.1
Mof_N 	N 	0.9588	0.743	0.5292	-0.051
Mof_C 	C 	0.1024	0.7558	0.5029	0.04
Mof_H 	H 	0.1765	0.7379	0.4799	0.04
Mof_H 	H 	0.9491	0.8006	0.0437	-0.954
Mof_N 	N 	0.133	0.7476	0.344	-0.558
Mof_Ni	Ni	0.20401	0.33636	0.0203	1.096
Mof_N 	N 	0.3903	0.3018	0.9809	-0.091
Mof_C 	C 	0.5407	0.3145	0.9903	0.204
Mof_H 	H 	0.5749	0.3427	0.9994	-0.044
Mof_C 	C 	0.6312	0.2778	0.9839	0.179
Mof_H 	H 	0.7365	0.2771	0.9879	-0.027
Mof_N 	N 	0.5366	0.2423	0.9704	-0.05
Mof_C 	C 	0.3877	0.2571	0.9685	-0.003
Mof_H 	H 	0.3016	0.2401	0.9605	0.013
Mof_C 	C 	0.5894	0.20088	0.9699	0.041
Mof_C 	C 	0.5379	0.17329	0.9075	-0.033
Mof_H 	H 	0.4728	0.1833	0.8642	0.048
Mof_C 	C 	0.5818	0.13097	0.9084	-0.03
Mof_H 	H 	0.5466	0.1121	0.8657	0.042
Mof_C 	C 	0.677	0.11625	0.9717	-0.005
Mof_C 	C 	0.7285	0.14385	0.0341	-0.01
Mof_H 	H 	0.7936	0.1338	0.0774	0.026
Mof_C 	C 	0.6847	0.18616	0.0333	-0.052
Mof_H 	H 	0.7198	0.205	0.0759	0.051
Mof_C 	C 	0.7179	0.07052	0.972	0.08
Mof_C 	C 	0.7893	0.05296	0.9017	-0.158
Mof_H 	H 	0.8102	0.0703	0.854	0.09
Mof_C 	C 	0.8298	0.01015	0.9011	0.098
Mof_C 	C 	0.7975	0.98526	0.9713	-0.159
Mof_H 	H 	0.8231	0.956	0.9709	0.081
Mof_C 	C 	0.7287	0.00222	0.042	0.102
Mof_C 	C 	0.6898	0.04485	0.0419	-0.152
Mof_H 	H 	0.6432	0.0567	0.0902	0.085
Mof_C 	C 	0.9002	0.99127	0.8245	-0.052
Mof_C 	C 	0.8839	0.00966	0.745	0.01
Mof_H 	H 	0.8313	0.0357	0.7398	0.035
Mof_C 	C 	0.9422	0.99099	0.6733	-0.123
Mof_H 	H 	0.9292	0.0042	0.6196	0.075
Mof_C 	C 	0.0197	0.953	0.6798	0.125
Mof_C 	C 	0.0438	0.93501	0.7583	-0.13
Mof_H 	H 	0.1007	0.9097	0.7636	0.077
Mof_C 	C 	0.9841	0.95412	0.8296	0.016
Mof_H 	H 	0.001	0.9415	0.8836	0.023
Mof_C 	C 	0.0967	0.91487	0.4714	-0.007
Mof_H 	H 	0.0867	0.9138	0.4115	0.038
Mof_C 	C 	0.0206	0.94093	0.5229	0.007
Mof_H 	H 	0.9472	0.961	0.5063	0.028
Mof_C 	C 	0.1714	0.90161	0.5985	0.096
Mof_H 	H 	0.2226	0.8895	0.6455	-0
Mof_C 	C 	0.6976	0.97552	0.1175	-0.057
Mof_C 	C 	0.5673	0.98161	0.1639	0.017
Mof_H 	H 	0.497	0.0022	0.1454	0.029
Mof_C 	C 	0.5398	0.95827	0.2359	-0.134
Mof_H 	H 	0.4527	0.9635	0.2677	0.08
Mof_C 	C 	0.6386	0.92731	0.2618	0.127
Mof_C 	C 	0.768	0.92003	0.2166	-0.138
Mof_H 	H 	0.8362	0.8988	0.2345	0.084
Mof_C 	C 	0.796	0.94424	0.1452	0.018
Mof_H 	H 	0.8844	0.9394	0.1143	0.021
Mof_C 	C 	0.6258	0.86509	0.4513	0.013
Mof_H 	H 	0.6651	0.8512	0.5	0.026
Mof_C 	C 	0.7067	0.88591	0.3935	0.001
Mof_H 	H 	0.8117	0.8888	0.393	0.033
Mof_C 	C 	0.4706	0.8897	0.359	0.092
Mof_H 	H 	0.3814	0.8964	0.3293	0.008
Mof_C 	C 	0.3512	0.34471	0.2042	0.153
Mof_C 	C 	0.4069	0.31147	0.2651	0.447
Mof_C 	C 	0.4633	0.32262	0.3438	-0.718
Mof_H 	H 	0.4689	0.3518	0.3586	0.272
Mof_C 	C 	0.5121	0.29238	0.4018	0.963
Mof_C 	C 	0.5036	0.24879	0.3789	-0.618
Mof_C 	C 	0.4466	0.23794	0.3002	0.606
Mof_H 	H 	0.4406	0.2088	0.2849	-0.138
Mof_C 	C 	0.3979	0.26839	0.2429	-0.798
Mof_H 	H 	0.3577	0.2603	0.1887	0.75
Mof_C 	C 	0.5596	0.21495	0.4367	0.477
Mof_N 	N 	0.1909	0.89	0.51907	-0.231
Mof_N 	N 	0.0698	0.93282	0.60456	-0.143
Mof_N 	N 	0.4769	0.86696	0.42945	-0.221
Mof_N 	N 	0.607	0.90224	0.33477	-0.14
Mof_N 	N 	0.5737	0.30625	0.4806	0.673
Mof_O 	O 	0.2908	0.33011	0.13758	-0.365
Mof_O 	O 	0.3666	0.38292	0.22212	-0.237
Mof_O 	O 	0.5887	0.17835	0.40664	-0.415
Mof_O 	O 	0.5839	0.22294	0.51441	-0.411
Mof_C 	C 	0.568	0.1999	0.9761	0.036
Mof_C 	C 	0.4694	0.168	0.9518	-0.059
Mof_H 	H 	0.3703	0.175	0.936	0.038
Mof_C 	C 	0.5159	0.126	0.9505	-0.015
Mof_H 	H 	0.4487	0.1042	0.9339	0.032
Mof_C 	C 	0.6609	0.1157	0.9736	-0.012
Mof_C 	C 	0.7593	0.1476	0.998	-0.024
Mof_H 	H 	0.8584	0.1406	0.0138	0.02
Mof_C 	C 	0.7128	0.1896	0.9992	-0.037
Mof_H 	H 	0.78	0.2114	0.0159	0.041
Mof_N 	N 	0.3843	0.3002	0.9829	-0.075
Mof_C 	C 	0.5196	0.3148	0.9478	-0.207
Mof_H 	H 	0.5415	0.3432	0.9322	0.087
Mof_C 	C 	0.6166	0.2795	0.9404	-0.2
Mof_H 	H 	0.7146	0.2801	0.9188	0.092
Mof_N 	N 	0.5412	0.243	0.9708	-0.05
Mof_C 	C 	0.3976	0.2558	0.9971	0.038
Mof_H 	H 	0.3235	0.2379	0.0201	0.042
Mof_H 	H 	0.5509	0.3006	0.4563	-0.956
Mof_N 	N 	0.367	0.2476	0.156	-0.557
Mof_Ni	Ni	0.70401	0.16364	0.5203	1.095
Mof_N 	N 	0.8903	0.1982	0.4809	-0.091
Mof_C 	C 	0.0407	0.1855	0.4903	0.219
Mof_H 	H 	0.0749	0.1573	0.4994	-0.048
Mof_C 	C 	0.1312	0.2222	0.4839	0.194
Mof_H 	H 	0.2365	0.2229	0.4879	-0.032
Mof_N 	N 	0.0366	0.2577	0.4704	-0.051
Mof_C 	C 	0.8877	0.2429	0.4685	-0.003
Mof_H 	H 	0.8016	0.2599	0.4605	0.014
Mof_C 	C 	0.0894	0.29912	0.4699	0.04
Mof_C 	C 	0.0379	0.32671	0.4075	-0.027
Mof_H 	H 	0.9728	0.3167	0.3642	0.047
Mof_C 	C 	0.0818	0.36903	0.4084	-0.033
Mof_H 	H 	0.0466	0.3879	0.3657	0.043
Mof_C 	C 	0.177	0.38375	0.4717	-0.006
Mof_C 	C 	0.2285	0.35615	0.5341	0.008
Mof_H 	H 	0.2936	0.3662	0.5774	0.02
Mof_C 	C 	0.1847	0.31384	0.5333	-0.035
Mof_H 	H 	0.2198	0.295	0.5759	0.045
Mof_C 	C 	0.2179	0.42948	0.472	0.08
Mof_C 	C 	0.2893	0.44704	0.4017	-0.158
Mof_H 	H 	0.3102	0.4297	0.354	0.09
Mof_C 	C 	0.3298	0.48985	0.4011	0.098
Mof_C 	C 	0.2975	0.51474	0.4713	-0.158
Mof_H 	H 	0.3231	0.544	0.4709	0.082
Mof_C 	C 	0.2287	0.49778	0.542	0.101
Mof_C 	C 	0.1898	0.45515	0.5419	-0.154
Mof_H 	H 	0.1432	0.4433	0.5902	0.085
Mof_C 	C 	0.4002	0.50873	0.3245	-0.053
Mof_C 	C 	0.3839	0.49034	0.245	0.011
Mof_H 	H 	0.3313	0.4643	0.2398	0.035
Mof_C 	C 	0.4422	0.50901	0.1733	-0.124
Mof_H 	H 	0.4292	0.4958	0.1196	0.076
Mof_C 	C 	0.5197	0.547	0.1798	0.126
Mof_C 	C 	0.5438	0.56499	0.2583	-0.131
Mof_H 	H 	0.6007	0.5903	0.2636	0.078
Mof_C 	C 	0.4841	0.54588	0.3296	0.016
Mof_H 	H 	0.501	0.5585	0.3836	0.023
Mof_C 	C 	0.5967	0.58513	0.9714	-0.011
Mof_H 	H 	0.5867	0.5862	0.9115	0.039
Mof_C 	C 	0.5206	0.55907	0.0229	0.01
Mof_H 	H 	0.4472	0.539	0.0063	0.028
Mof_C 	C 	0.6714	0.59839	0.0985	0.096
Mof_H 	H 	0.7226	0.6105	0.1455	0
Mof_C 	C 	0.1976	0.52448	0.6175	-0.057
Mof_C 	C 	0.0673	0.51839	0.6639	0.016
Mof_H 	H 	0.997	0.4978	0.6454	0.029
Mof_C 	C 	0.0398	0.54173	0.7359	-0.134
Mof_H 	H 	0.9527	0.5365	0.7677	0.08
Mof_C 	C 	0.1386	0.57269	0.7618	0.127
Mof_C 	C 	0.268	0.57997	0.7166	-0.138
Mof_H 	H 	0.3362	0.6012	0.7345	0.084
Mof_C 	C 	0.296	0.55576	0.6452	0.018
Mof_H 	H 	0.3844	0.5606	0.6143	0.021
Mof_C 	C 	0.1258	0.63491	0.9513	0.009
Mof_H 	H 	0.1651	0.6488	-0	0.029
Mof_C 	C 	0.2067	0.61409	0.8935	0.003
Mof_H 	H 	0.3117	0.6112	0.893	0.033
Mof_C 	C 	0.9706	0.6103	0.859	0.091
Mof_H 	H 	0.8814	0.6036	0.8293	0.008
Mof_C 	C 	0.8512	0.15529	0.7042	0.153
Mof_C 	C 	0.9069	0.18853	0.7651	0.448
Mof_C 	C 	0.9633	0.17738	0.8438	-0.718
Mof_H 	H 	0.9689	0.1482	0.8586	0.272
Mof_C 	C 	0.0121	0.20762	0.9018	0.964
Mof_C 	C 	0.0036	0.25121	0.8789	-0.621
Mof_C 	C 	0.9466	0.26206	0.8002	0.608
Mof_H 	H 	0.9406	0.2912	0.7849	-0.138
Mof_C 	C 	0.8979	0.23161	0.7429	-0.801
Mof_H 	H 	0.8577	0.2397	0.6887	0.752
Mof_C 	C 	0.0596	0.28505	0.9367	0.476
Mof_N 	N 	0.6909	0.61	0.01907	-0.229
Mof_N 	N 	0.5698	0.56718	0.10456	-0.144
Mof_N 	N 	0.9769	0.63304	0.92945	-0.22
Mof_N 	N 	0.107	0.59776	0.83477	-0.141
Mof_N 	N 	0.0737	0.19375	0.9806	0.675
Mof_O 	O 	0.7908	0.16989	0.63758	-0.365
Mof_O 	O 	0.8666	0.11708	0.72212	-0.237
Mof_O 	O 	0.0887	0.32165	0.90664	-0.416
Mof_O 	O 	0.0839	0.27706	0.01441	-0.409
Mof_C 	C 	0.068	0.3001	0.4761	0.037
Mof_C 	C 	0.9694	0.332	0.4518	-0.064
Mof_H 	H 	0.8703	0.325	0.436	0.04
Mof_C 	C 	0.0159	0.374	0.4505	-0.013
Mof_H 	H 	0.9487	0.3958	0.4339	0.032
Mof_C 	C 	0.1609	0.3843	0.4736	-0.011
Mof_C 	C 	0.2593	0.3524	0.498	-0.042
Mof_H 	H 	0.3584	0.3594	0.5138	0.024
Mof_C 	C 	0.2128	0.3104	0.4992	-0.052
Mof_H 	H 	0.28	0.2886	0.5159	0.045
Mof_N 	N 	0.8843	0.1998	0.4829	-0.074
Mof_C 	C 	0.0196	0.1852	0.4478	-0.222
Mof_H 	H 	0.0415	0.1568	0.4322	0.092
Mof_C 	C 	0.1166	0.2205	0.4404	-0.216
Mof_H 	H 	0.2146	0.2199	0.4188	0.097
Mof_N 	N 	0.0412	0.257	0.4708	-0.051
Mof_C 	C 	0.8976	0.2442	0.4971	0.04
Mof_H 	H 	0.8235	0.2621	0.5201	0.04
Mof_H 	H 	0.0509	0.1994	0.9563	-0.959
Mof_N 	N 	0.867	0.2524	0.656	-0.558
Mof_Ni	Ni	0.79599	0.66364	0.9797	1.095
Mof_N 	N 	0.6097	0.6982	0.0191	-0.091
Mof_C 	C 	0.4593	0.6855	0.0097	0.265
Mof_H 	H 	0.4251	0.6573	0.0006	-0.062
Mof_C 	C 	0.3688	0.7222	0.0161	0.238
Mof_H 	H 	0.2635	0.7229	0.0121	-0.045
Mof_N 	N 	0.4634	0.7577	0.0296	-0.051
Mof_C 	C 	0.6123	0.7429	0.0315	-0.006
Mof_H 	H 	0.6984	0.7599	0.0395	0.016
Mof_C 	C 	0.4106	0.79912	0.0301	0.039
Mof_C 	C 	0.4621	0.82671	0.0925	-0.026
Mof_H 	H 	0.5272	0.8167	0.1358	0.047
Mof_C 	C 	0.4182	0.86903	0.0916	-0.023
Mof_H 	H 	0.4534	0.8879	0.1343	0.04
Mof_C 	C 	0.323	0.88375	0.0283	-0.006
Mof_C 	C 	0.2715	0.85615	0.9659	0.034
Mof_H 	H 	0.2064	0.8662	0.9226	0.011
Mof_C 	C 	0.3153	0.81384	0.9667	-0.011
Mof_H 	H 	0.2802	0.795	0.9241	0.037
Mof_C 	C 	0.2821	0.92948	0.028	0.082
Mof_C 	C 	0.2107	0.94704	0.0983	-0.158
Mof_H 	H 	0.1898	0.9297	0.146	0.09
Mof_C 	C 	0.1702	0.98985	0.0989	0.098
Mof_C 	C 	0.2025	0.01474	0.0287	-0.156
Mof_H 	H 	0.1769	0.044	0.0291	0.081
Mof_C 	C 	0.2713	0.99778	0.958	0.1
Mof_C 	C 	0.3102	0.95515	0.9581	-0.155
Mof_H 	H 	0.3568	0.9433	0.9098	0.085
Mof_C 	C 	0.0998	0.00873	0.1755	-0.052
Mof_C 	C 	0.1161	0.99034	0.255	0.01
Mof_H 	H 	0.1687	0.9643	0.2602	0.035
Mof_C 	C 	0.0578	0.00901	0.3267	-0.123
Mof_H 	H 	0.0708	0.9958	0.3804	0.076
Mof_C 	C 	0.9803	0.047	0.3202	0.125
Mof_C 	C 	0.9562	0.06499	0.2417	-0.13
Mof_H 	H 	0.8993	0.0903	0.2364	0.078
Mof_C 	C 	0.0159	0.04588	0.1704	0.016
Mof_H 	H 	0.999	0.0585	0.1164	0.023
Mof_C 	C 	0.9033	0.08513	0.5286	-0.007
Mof_H 	H 	0.9133	0.0862	0.5885	0.038
Mof_C 	C 	0.9794	0.05907	0.4771	0.007
Mof_H 	H 	0.0528	0.039	0.4937	0.028
Mof_C 	C 	0.8286	0.09839	0.4015	0.096
Mof_H 	H 	0.7774	0.1105	0.3545	-0
Mof_C 	C 	0.3024	0.02448	0.8825	-0.057
Mof_C 	C 	0.4327	0.01839	0.8361	0.016
Mof_H 	H 	0.503	0.9978	0.8546	0.029
Mof_C 	C 	0.4602	0.04173	0.7641	-0.134
Mof_H 	H 	0.5473	0.0365	0.7323	0.08
Mof_C 	C 	0.3614	0.07269	0.7382	0.127
Mof_C 	C 	0.232	0.07997	0.7834	-0.138
Mof_H 	H 	0.1638	0.1012	0.7655	0.084
Mof_C 	C 	0.204	0.05576	0.8548	0.017
Mof_H 	H 	0.1156	0.0606	0.8857	0.021
Mof_C 	C 	0.3742	0.13491	0.5487	0.013
Mof_H 	H 	0.3349	0.1488	0.5	0.026
Mof_C 	C 	0.2933	0.11409	0.6065	0.001
Mof_H 	H 	0.1883	0.1112	0.607	0.033
Mof_C 	C 	0.5294	0.1103	0.641	0.091
Mof_H 	H 	0.6186	0.1036	0.6707	0.008
Mof_C 	C 	0.6488	0.65529	0.7958	0.153
Mof_C 	C 	0.5931	0.68853	0.7349	0.447
Mof_C 	C 	0.5367	0.67738	0.6562	-0.718
Mof_H 	H 	0.5311	0.6482	0.6414	0.272
Mof_C 	C 	0.4879	0.70762	0.5982	0.962
Mof_C 	C 	0.4964	0.75121	0.6211	-0.619
Mof_C 	C 	0.5534	0.76206	0.6998	0.607
Mof_H 	H 	0.5594	0.7912	0.7151	-0.138
Mof_C 	C 	0.6021	0.73161	0.7571	-0.801
Mof_H 	H 	0.6423	0.7397	0.8113	0.753
Mof_C 	C 	0.4404	0.78505	0.5633	0.477
Mof_N 	N 	0.8091	0.11	0.48093	-0.231
Mof_N 	N 	0.9302	0.06718	0.39544	-0.143
Mof_N 	N 	0.5231	0.13304	0.57055	-0.221
Mof_N 	N 	0.393	0.09776	0.66523	-0.14
Mof_N 	N 	0.4263	0.69375	0.5194	0.673
Mof_O 	O 	0.7092	0.66989	0.86242	-0.366
Mof_O 	O 	0.6334	0.61708	0.77788	-0.237
Mof_O 	O 	0.4113	0.82165	0.59336	-0.415
Mof_O 	O 	0.4161	0.77706	0.48559	-0.41
Mof_C 	C 	0.432	0.8001	0.0239	0.041
Mof_C 	C 	0.5306	0.832	0.0482	-0.065
Mof_H 	H 	0.6297	0.825	0.064	0.041
Mof_C 	C 	0.4841	0.874	0.0495	-0.022
Mof_H 	H 	0.5513	0.8958	0.0661	0.035
Mof_C 	C 	0.3391	0.8843	0.0264	-0.009
Mof_C 	C 	0.2407	0.8524	0.002	-0.068
Mof_H 	H 	0.1416	0.8594	0.9862	0.03
Mof_C 	C 	0.2872	0.8104	0.0008	-0.075
Mof_H 	H 	0.22	0.7886	0.9841	0.05
Mof_N 	N 	0.6157	0.6998	0.0171	-0.073
Mof_C 	C 	0.4804	0.6852	0.0522	-0.265
Mof_H 	H 	0.4585	0.6568	0.0678	0.106
Mof_C 	C 	0.3834	0.7205	0.0596	-0.262
Mof_H 	H 	0.2854	0.7199	0.0812	0.112
Mof_N 	N 	0.4588	0.757	0.0292	-0.051
Mof_C 	C 	0.6024	0.7442	0.0029	0.044
Mof_H 	H 	0.6765	0.7621	0.9799	0.037
Mof_H 	H 	0.4491	0.6994	0.5437	-0.955
Mof_N 	N 	0.633	0.7524	0.844	-0.56
_end
