data_functionalizedCrystal
_audit_creation_method	'EQeq! by Chris Wilmer'
_symmetry_space_group_name_H-M	'P1'
_symmetry_Int_Tables_number	1
_symmetry_cell_setting	triclinic
loop_
_symmetry_equiv_pos_as_xyz
  x,y,z
_cell_length_a	42.712
_cell_length_b	42.712
_cell_length_c	42.712
_cell_angle_alpha	90
_cell_angle_beta	90
_cell_angle_gamma	90
loop_
_atom_site_label
_atom_site_type_symbol
_atom_site_fract_x
_atom_site_fract_y
_atom_site_fract_z
_atom_site_charge
Mof_O 	O 	0.15726	0.38792	0.53216	-0.414
Mof_O 	O 	0.1946	0.351	0.53201	-0.414
Mof_C 	C 	0.18197	0.37578	0.54135	0.364
Mof_C 	C 	0.19908	0.39256	0.56756	-0.076
Mof_C 	C 	0.22831	0.38305	0.57719	-0.025
Mof_H 	H 	0.238	0.3657	0.5672	0.052
Mof_H 	H 	0.3336	0.4114	0.697	0.159
Mof_H 	H 	0.2999	0.3988	0.6866	0.04
Mof_H 	H 	0.3191	0.4216	0.6639	-0.056
Mof_H 	H 	0.3125	0.4209	0.657	-0.044
Mof_H 	H 	0.3302	0.431	0.6538	0.006
Mof_H 	H 	0.3236	0.4099	0.691	-0.166
Mof_O 	O 	0.15726	0.88792	0.03216	-0.415
Mof_O 	O 	0.1946	0.851	0.03201	-0.416
Mof_C 	C 	0.18197	0.87578	0.04135	0.364
Mof_C 	C 	0.19908	0.89256	0.06756	-0.075
Mof_C 	C 	0.22831	0.88305	0.07719	-0.024
Mof_H 	H 	0.238	0.8657	0.0672	0.053
Mof_H 	H 	0.3336	0.9114	0.197	0.16
Mof_H 	H 	0.2999	0.8988	0.1866	0.041
Mof_H 	H 	0.3191	0.9216	0.1639	-0.055
Mof_H 	H 	0.3125	0.9209	0.157	-0.043
Mof_H 	H 	0.3302	0.931	0.1538	0.008
Mof_H 	H 	0.3236	0.9099	0.191	-0.165
Mof_O 	O 	0.65726	0.38792	0.03216	-0.415
Mof_O 	O 	0.6946	0.351	0.03201	-0.415
Mof_C 	C 	0.68197	0.37578	0.04135	0.365
Mof_C 	C 	0.69908	0.39256	0.06756	-0.076
Mof_C 	C 	0.72831	0.38305	0.07719	-0.024
Mof_H 	H 	0.738	0.3657	0.0672	0.053
Mof_H 	H 	0.8336	0.4114	0.197	0.159
Mof_H 	H 	0.7999	0.3988	0.1866	0.041
Mof_H 	H 	0.8191	0.4216	0.1639	-0.055
Mof_H 	H 	0.8125	0.4209	0.157	-0.043
Mof_H 	H 	0.8302	0.431	0.1538	0.007
Mof_H 	H 	0.8236	0.4099	0.191	-0.164
Mof_O 	O 	0.65726	0.88792	0.53216	-0.412
Mof_O 	O 	0.6946	0.851	0.53201	-0.413
Mof_C 	C 	0.68197	0.87578	0.54135	0.364
Mof_C 	C 	0.69908	0.89256	0.56756	-0.074
Mof_C 	C 	0.72831	0.88305	0.57719	-0.024
Mof_H 	H 	0.738	0.8657	0.5672	0.053
Mof_H 	H 	0.8336	0.9114	0.697	0.161
Mof_H 	H 	0.7999	0.8988	0.6866	0.041
Mof_H 	H 	0.8191	0.9216	0.6639	-0.055
Mof_H 	H 	0.8125	0.9209	0.657	-0.043
Mof_H 	H 	0.8302	0.931	0.6538	0.008
Mof_H 	H 	0.8236	0.9099	0.691	-0.165
Mof_O 	O 	0.84274	0.61208	0.53216	-0.413
Mof_O 	O 	0.8054	0.649	0.53201	-0.413
Mof_C 	C 	0.81803	0.62422	0.54135	0.364
Mof_C 	C 	0.80092	0.60744	0.56756	-0.075
Mof_C 	C 	0.77169	0.61695	0.57719	-0.024
Mof_H 	H 	0.762	0.6343	0.5672	0.053
Mof_H 	H 	0.6664	0.5886	0.697	0.16
Mof_H 	H 	0.7001	0.6012	0.6866	0.041
Mof_H 	H 	0.6809	0.5784	0.6639	-0.055
Mof_H 	H 	0.6875	0.5791	0.657	-0.043
Mof_H 	H 	0.6698	0.569	0.6538	0.007
Mof_H 	H 	0.6764	0.5901	0.691	-0.165
Mof_O 	O 	0.84274	0.11208	0.03216	-0.415
Mof_O 	O 	0.8054	0.149	0.03201	-0.415
Mof_C 	C 	0.81803	0.12422	0.04135	0.365
Mof_C 	C 	0.80092	0.10744	0.06756	-0.076
Mof_C 	C 	0.77169	0.11695	0.07719	-0.024
Mof_H 	H 	0.762	0.1343	0.0672	0.052
Mof_H 	H 	0.6664	0.0886	0.197	0.158
Mof_H 	H 	0.7001	0.1012	0.1866	0.041
Mof_H 	H 	0.6809	0.0784	0.1639	-0.055
Mof_H 	H 	0.6875	0.0791	0.157	-0.043
Mof_H 	H 	0.6698	0.069	0.1538	0.006
Mof_H 	H 	0.6764	0.0901	0.191	-0.164
Mof_O 	O 	0.34274	0.61208	0.03216	-0.415
Mof_O 	O 	0.3054	0.649	0.03201	-0.415
Mof_C 	C 	0.31803	0.62422	0.04135	0.365
Mof_C 	C 	0.30092	0.60744	0.06756	-0.076
Mof_C 	C 	0.27169	0.61695	0.07719	-0.024
Mof_H 	H 	0.262	0.6343	0.0672	0.053
Mof_H 	H 	0.1664	0.5886	0.197	0.159
Mof_H 	H 	0.2001	0.6012	0.1866	0.041
Mof_H 	H 	0.1809	0.5784	0.1639	-0.055
Mof_H 	H 	0.1875	0.5791	0.157	-0.042
Mof_H 	H 	0.1698	0.569	0.1538	0.007
Mof_H 	H 	0.1764	0.5901	0.191	-0.164
Mof_O 	O 	0.34274	0.11208	0.53216	-0.413
Mof_O 	O 	0.3054	0.149	0.53201	-0.413
Mof_C 	C 	0.31803	0.12422	0.54135	0.365
Mof_C 	C 	0.30092	0.10744	0.56756	-0.075
Mof_C 	C 	0.27169	0.11695	0.57719	-0.024
Mof_H 	H 	0.262	0.1343	0.5672	0.053
Mof_H 	H 	0.1664	0.0886	0.697	0.159
Mof_H 	H 	0.2001	0.1012	0.6866	0.041
Mof_H 	H 	0.1809	0.0784	0.6639	-0.055
Mof_H 	H 	0.1875	0.0791	0.657	-0.043
Mof_H 	H 	0.1698	0.069	0.6538	0.006
Mof_H 	H 	0.1764	0.0901	0.691	-0.164
Mof_O 	O 	0.84274	0.38792	0.46784	-0.413
Mof_O 	O 	0.8054	0.351	0.46799	-0.413
Mof_C 	C 	0.81803	0.37578	0.45865	0.364
Mof_C 	C 	0.80092	0.39256	0.43244	-0.075
Mof_C 	C 	0.77169	0.38305	0.42281	-0.024
Mof_H 	H 	0.762	0.3657	0.4328	0.053
Mof_H 	H 	0.6664	0.4114	0.303	0.16
Mof_H 	H 	0.7001	0.3988	0.3134	0.041
Mof_H 	H 	0.6809	0.4216	0.3361	-0.055
Mof_H 	H 	0.6875	0.4209	0.343	-0.043
Mof_H 	H 	0.6698	0.431	0.3462	0.007
Mof_H 	H 	0.6764	0.4099	0.309	-0.165
Mof_O 	O 	0.84274	0.88792	0.96784	-0.409
Mof_O 	O 	0.8054	0.851	0.96799	-0.41
Mof_C 	C 	0.81803	0.87578	0.95865	0.364
Mof_C 	C 	0.80092	0.89256	0.93244	-0.073
Mof_C 	C 	0.77169	0.88305	0.92281	-0.025
Mof_H 	H 	0.762	0.8657	0.9328	0.054
Mof_H 	H 	0.6664	0.9114	0.803	0.161
Mof_H 	H 	0.7001	0.8988	0.8134	0.041
Mof_H 	H 	0.6809	0.9216	0.8361	-0.054
Mof_H 	H 	0.6875	0.9209	0.843	-0.044
Mof_H 	H 	0.6698	0.931	0.8462	0.008
Mof_H 	H 	0.6764	0.9099	0.809	-0.166
Mof_O 	O 	0.34274	0.38792	0.96784	-0.41
Mof_O 	O 	0.3054	0.351	0.96799	-0.41
Mof_C 	C 	0.31803	0.37578	0.95865	0.364
Mof_C 	C 	0.30092	0.39256	0.93244	-0.074
Mof_C 	C 	0.27169	0.38305	0.92281	-0.024
Mof_H 	H 	0.262	0.3657	0.9328	0.054
Mof_H 	H 	0.1664	0.4114	0.803	0.16
Mof_H 	H 	0.2001	0.3988	0.8134	0.041
Mof_H 	H 	0.1809	0.4216	0.8361	-0.054
Mof_H 	H 	0.1875	0.4209	0.843	-0.043
Mof_H 	H 	0.1698	0.431	0.8462	0.007
Mof_H 	H 	0.1764	0.4099	0.809	-0.165
Mof_O 	O 	0.34274	0.88792	0.46784	-0.412
Mof_O 	O 	0.3054	0.851	0.46799	-0.413
Mof_C 	C 	0.31803	0.87578	0.45865	0.364
Mof_C 	C 	0.30092	0.89256	0.43244	-0.074
Mof_C 	C 	0.27169	0.88305	0.42281	-0.024
Mof_H 	H 	0.262	0.8657	0.4328	0.053
Mof_H 	H 	0.1664	0.9114	0.303	0.16
Mof_H 	H 	0.2001	0.8988	0.3134	0.041
Mof_H 	H 	0.1809	0.9216	0.3361	-0.055
Mof_H 	H 	0.1875	0.9209	0.343	-0.043
Mof_H 	H 	0.1698	0.931	0.3462	0.008
Mof_H 	H 	0.1764	0.9099	0.309	-0.165
Mof_O 	O 	0.15726	0.61208	0.46784	-0.413
Mof_O 	O 	0.1946	0.649	0.46799	-0.413
Mof_C 	C 	0.18197	0.62422	0.45865	0.365
Mof_C 	C 	0.19908	0.60744	0.43244	-0.075
Mof_C 	C 	0.22831	0.61695	0.42281	-0.024
Mof_H 	H 	0.238	0.6343	0.4328	0.053
Mof_H 	H 	0.3336	0.5886	0.303	0.16
Mof_H 	H 	0.2999	0.6012	0.3134	0.041
Mof_H 	H 	0.3191	0.5784	0.3361	-0.055
Mof_H 	H 	0.3125	0.5791	0.343	-0.043
Mof_H 	H 	0.3302	0.569	0.3462	0.007
Mof_H 	H 	0.3236	0.5901	0.309	-0.165
Mof_O 	O 	0.15726	0.11208	0.96784	-0.41
Mof_O 	O 	0.1946	0.149	0.96799	-0.41
Mof_C 	C 	0.18197	0.12422	0.95865	0.364
Mof_C 	C 	0.19908	0.10744	0.93244	-0.074
Mof_C 	C 	0.22831	0.11695	0.92281	-0.024
Mof_H 	H 	0.238	0.1343	0.9328	0.054
Mof_H 	H 	0.3336	0.0886	0.803	0.159
Mof_H 	H 	0.2999	0.1012	0.8134	0.041
Mof_H 	H 	0.3191	0.0784	0.8361	-0.054
Mof_H 	H 	0.3125	0.0791	0.843	-0.043
Mof_H 	H 	0.3302	0.069	0.8462	0.006
Mof_H 	H 	0.3236	0.0901	0.809	-0.165
Mof_O 	O 	0.65726	0.61208	0.96784	-0.41
Mof_O 	O 	0.6946	0.649	0.96799	-0.41
Mof_C 	C 	0.68197	0.62422	0.95865	0.364
Mof_C 	C 	0.69908	0.60744	0.93244	-0.074
Mof_C 	C 	0.72831	0.61695	0.92281	-0.024
Mof_H 	H 	0.738	0.6343	0.9328	0.054
Mof_H 	H 	0.8336	0.5886	0.803	0.16
Mof_H 	H 	0.7999	0.6012	0.8134	0.041
Mof_H 	H 	0.8191	0.5784	0.8361	-0.055
Mof_H 	H 	0.8125	0.5791	0.843	-0.044
Mof_H 	H 	0.8302	0.569	0.8462	0.007
Mof_H 	H 	0.8236	0.5901	0.809	-0.165
Mof_O 	O 	0.65726	0.11208	0.46784	-0.413
Mof_O 	O 	0.6946	0.149	0.46799	-0.413
Mof_C 	C 	0.68197	0.12422	0.45865	0.365
Mof_C 	C 	0.69908	0.10744	0.43244	-0.075
Mof_C 	C 	0.72831	0.11695	0.42281	-0.024
Mof_H 	H 	0.738	0.1343	0.4328	0.053
Mof_H 	H 	0.8336	0.0886	0.303	0.159
Mof_H 	H 	0.7999	0.1012	0.3134	0.041
Mof_H 	H 	0.8191	0.0784	0.3361	-0.055
Mof_H 	H 	0.8125	0.0791	0.343	-0.043
Mof_H 	H 	0.8302	0.069	0.3462	0.006
Mof_H 	H 	0.8236	0.0901	0.309	-0.164
Mof_O 	O 	0.53216	0.15726	0.38792	-0.413
Mof_O 	O 	0.53201	0.1946	0.351	-0.413
Mof_C 	C 	0.54135	0.18197	0.37578	0.365
Mof_C 	C 	0.56756	0.19908	0.39256	-0.075
Mof_C 	C 	0.57719	0.22831	0.38305	-0.024
Mof_H 	H 	0.5672	0.238	0.3657	0.053
Mof_H 	H 	0.697	0.3336	0.4114	0.16
Mof_H 	H 	0.6866	0.2999	0.3988	0.041
Mof_H 	H 	0.6639	0.3191	0.4216	-0.055
Mof_H 	H 	0.657	0.3125	0.4209	-0.043
Mof_H 	H 	0.6538	0.3302	0.431	0.007
Mof_H 	H 	0.691	0.3236	0.4099	-0.165
Mof_O 	O 	0.53216	0.65726	0.88792	-0.412
Mof_O 	O 	0.53201	0.6946	0.851	-0.413
Mof_C 	C 	0.54135	0.68197	0.87578	0.364
Mof_C 	C 	0.56756	0.69908	0.89256	-0.074
Mof_C 	C 	0.57719	0.72831	0.88305	-0.024
Mof_H 	H 	0.5672	0.738	0.8657	0.053
Mof_H 	H 	0.697	0.8336	0.9114	0.161
Mof_H 	H 	0.6866	0.7999	0.8988	0.041
Mof_H 	H 	0.6639	0.8191	0.9216	-0.055
Mof_H 	H 	0.657	0.8125	0.9209	-0.043
Mof_H 	H 	0.6538	0.8302	0.931	0.008
Mof_H 	H 	0.691	0.8236	0.9099	-0.165
Mof_O 	O 	0.03216	0.15726	0.88792	-0.414
Mof_O 	O 	0.03201	0.1946	0.851	-0.415
Mof_C 	C 	0.04135	0.18197	0.87578	0.365
Mof_C 	C 	0.06756	0.19908	0.89256	-0.075
Mof_C 	C 	0.07719	0.22831	0.88305	-0.024
Mof_H 	H 	0.0672	0.238	0.8657	0.053
Mof_H 	H 	0.197	0.3336	0.9114	0.16
Mof_H 	H 	0.1866	0.2999	0.8988	0.041
Mof_H 	H 	0.1639	0.3191	0.9216	-0.055
Mof_H 	H 	0.157	0.3125	0.9209	-0.043
Mof_H 	H 	0.1538	0.3302	0.931	0.008
Mof_H 	H 	0.191	0.3236	0.9099	-0.165
Mof_O 	O 	0.03216	0.65726	0.38792	-0.415
Mof_O 	O 	0.03201	0.6946	0.351	-0.415
Mof_C 	C 	0.04135	0.68197	0.37578	0.365
Mof_C 	C 	0.06756	0.69908	0.39256	-0.076
Mof_C 	C 	0.07719	0.72831	0.38305	-0.024
Mof_H 	H 	0.0672	0.738	0.3657	0.053
Mof_H 	H 	0.197	0.8336	0.4114	0.159
Mof_H 	H 	0.1866	0.7999	0.3988	0.041
Mof_H 	H 	0.1639	0.8191	0.4216	-0.055
Mof_H 	H 	0.157	0.8125	0.4209	-0.043
Mof_H 	H 	0.1538	0.8302	0.431	0.007
Mof_H 	H 	0.191	0.8236	0.4099	-0.164
Mof_O 	O 	0.53216	0.84274	0.61208	-0.413
Mof_O 	O 	0.53201	0.8054	0.649	-0.413
Mof_C 	C 	0.54135	0.81803	0.62422	0.364
Mof_C 	C 	0.56756	0.80092	0.60744	-0.075
Mof_C 	C 	0.57719	0.77169	0.61695	-0.024
Mof_H 	H 	0.5672	0.762	0.6343	0.053
Mof_H 	H 	0.697	0.6664	0.5886	0.16
Mof_H 	H 	0.6866	0.7001	0.6012	0.041
Mof_H 	H 	0.6639	0.6809	0.5784	-0.055
Mof_H 	H 	0.657	0.6875	0.5791	-0.043
Mof_H 	H 	0.6538	0.6698	0.569	0.007
Mof_H 	H 	0.691	0.6764	0.5901	-0.165
Mof_O 	O 	0.53216	0.34274	0.11208	-0.413
Mof_O 	O 	0.53201	0.3054	0.149	-0.413
Mof_C 	C 	0.54135	0.31803	0.12422	0.365
Mof_C 	C 	0.56756	0.30092	0.10744	-0.075
Mof_C 	C 	0.57719	0.27169	0.11695	-0.024
Mof_H 	H 	0.5672	0.262	0.1343	0.053
Mof_H 	H 	0.697	0.1664	0.0886	0.159
Mof_H 	H 	0.6866	0.2001	0.1012	0.041
Mof_H 	H 	0.6639	0.1809	0.0784	-0.055
Mof_H 	H 	0.657	0.1875	0.0791	-0.043
Mof_H 	H 	0.6538	0.1698	0.069	0.006
Mof_H 	H 	0.691	0.1764	0.0901	-0.164
Mof_O 	O 	0.03216	0.84274	0.11208	-0.415
Mof_O 	O 	0.03201	0.8054	0.149	-0.415
Mof_C 	C 	0.04135	0.81803	0.12422	0.365
Mof_C 	C 	0.06756	0.80092	0.10744	-0.076
Mof_C 	C 	0.07719	0.77169	0.11695	-0.024
Mof_H 	H 	0.0672	0.762	0.1343	0.052
Mof_H 	H 	0.197	0.6664	0.0886	0.158
Mof_H 	H 	0.1866	0.7001	0.1012	0.041
Mof_H 	H 	0.1639	0.6809	0.0784	-0.055
Mof_H 	H 	0.157	0.6875	0.0791	-0.043
Mof_H 	H 	0.1538	0.6698	0.069	0.006
Mof_H 	H 	0.191	0.6764	0.0901	-0.164
Mof_O 	O 	0.03216	0.34274	0.61208	-0.415
Mof_O 	O 	0.03201	0.3054	0.649	-0.415
Mof_C 	C 	0.04135	0.31803	0.62422	0.365
Mof_C 	C 	0.06756	0.30092	0.60744	-0.076
Mof_C 	C 	0.07719	0.27169	0.61695	-0.024
Mof_H 	H 	0.0672	0.262	0.6343	0.053
Mof_H 	H 	0.197	0.1664	0.5886	0.159
Mof_H 	H 	0.1866	0.2001	0.6012	0.041
Mof_H 	H 	0.1639	0.1809	0.5784	-0.055
Mof_H 	H 	0.157	0.1875	0.5791	-0.042
Mof_H 	H 	0.1538	0.1698	0.569	0.007
Mof_H 	H 	0.191	0.1764	0.5901	-0.164
Mof_O 	O 	0.46784	0.84274	0.38792	-0.413
Mof_O 	O 	0.46799	0.8054	0.351	-0.413
Mof_C 	C 	0.45865	0.81803	0.37578	0.364
Mof_C 	C 	0.43244	0.80092	0.39256	-0.075
Mof_C 	C 	0.42281	0.77169	0.38305	-0.024
Mof_H 	H 	0.4328	0.762	0.3657	0.053
Mof_H 	H 	0.303	0.6664	0.4114	0.16
Mof_H 	H 	0.3134	0.7001	0.3988	0.041
Mof_H 	H 	0.3361	0.6809	0.4216	-0.055
Mof_H 	H 	0.343	0.6875	0.4209	-0.043
Mof_H 	H 	0.3462	0.6698	0.431	0.007
Mof_H 	H 	0.309	0.6764	0.4099	-0.165
Mof_O 	O 	0.46784	0.34274	0.88792	-0.412
Mof_O 	O 	0.46799	0.3054	0.851	-0.413
Mof_C 	C 	0.45865	0.31803	0.87578	0.364
Mof_C 	C 	0.43244	0.30092	0.89256	-0.074
Mof_C 	C 	0.42281	0.27169	0.88305	-0.024
Mof_H 	H 	0.4328	0.262	0.8657	0.053
Mof_H 	H 	0.303	0.1664	0.9114	0.16
Mof_H 	H 	0.3134	0.2001	0.8988	0.041
Mof_H 	H 	0.3361	0.1809	0.9216	-0.055
Mof_H 	H 	0.343	0.1875	0.9209	-0.043
Mof_H 	H 	0.3462	0.1698	0.931	0.008
Mof_H 	H 	0.309	0.1764	0.9099	-0.165
Mof_O 	O 	0.96784	0.84274	0.88792	-0.409
Mof_O 	O 	0.96799	0.8054	0.851	-0.41
Mof_C 	C 	0.95865	0.81803	0.87578	0.364
Mof_C 	C 	0.93244	0.80092	0.89256	-0.073
Mof_C 	C 	0.92281	0.77169	0.88305	-0.025
Mof_H 	H 	0.9328	0.762	0.8657	0.054
Mof_H 	H 	0.803	0.6664	0.9114	0.161
Mof_H 	H 	0.8134	0.7001	0.8988	0.041
Mof_H 	H 	0.8361	0.6809	0.9216	-0.054
Mof_H 	H 	0.843	0.6875	0.9209	-0.044
Mof_H 	H 	0.8462	0.6698	0.931	0.008
Mof_H 	H 	0.809	0.6764	0.9099	-0.166
Mof_O 	O 	0.96784	0.34274	0.38792	-0.41
Mof_O 	O 	0.96799	0.3054	0.351	-0.41
Mof_C 	C 	0.95865	0.31803	0.37578	0.364
Mof_C 	C 	0.93244	0.30092	0.39256	-0.074
Mof_C 	C 	0.92281	0.27169	0.38305	-0.024
Mof_H 	H 	0.9328	0.262	0.3657	0.054
Mof_H 	H 	0.803	0.1664	0.4114	0.16
Mof_H 	H 	0.8134	0.2001	0.3988	0.041
Mof_H 	H 	0.8361	0.1809	0.4216	-0.054
Mof_H 	H 	0.843	0.1875	0.4209	-0.043
Mof_H 	H 	0.8462	0.1698	0.431	0.007
Mof_H 	H 	0.809	0.1764	0.4099	-0.165
Mof_O 	O 	0.46784	0.15726	0.61208	-0.413
Mof_O 	O 	0.46799	0.1946	0.649	-0.413
Mof_C 	C 	0.45865	0.18197	0.62422	0.365
Mof_C 	C 	0.43244	0.19908	0.60744	-0.075
Mof_C 	C 	0.42281	0.22831	0.61695	-0.024
Mof_H 	H 	0.4328	0.238	0.6343	0.053
Mof_H 	H 	0.303	0.3336	0.5886	0.16
Mof_H 	H 	0.3134	0.2999	0.6012	0.041
Mof_H 	H 	0.3361	0.3191	0.5784	-0.055
Mof_H 	H 	0.343	0.3125	0.5791	-0.043
Mof_H 	H 	0.3462	0.3302	0.569	0.007
Mof_H 	H 	0.309	0.3236	0.5901	-0.165
Mof_O 	O 	0.46784	0.65726	0.11208	-0.413
Mof_O 	O 	0.46799	0.6946	0.149	-0.413
Mof_C 	C 	0.45865	0.68197	0.12422	0.365
Mof_C 	C 	0.43244	0.69908	0.10744	-0.075
Mof_C 	C 	0.42281	0.72831	0.11695	-0.024
Mof_H 	H 	0.4328	0.738	0.1343	0.053
Mof_H 	H 	0.303	0.8336	0.0886	0.159
Mof_H 	H 	0.3134	0.7999	0.1012	0.041
Mof_H 	H 	0.3361	0.8191	0.0784	-0.055
Mof_H 	H 	0.343	0.8125	0.0791	-0.043
Mof_H 	H 	0.3462	0.8302	0.069	0.006
Mof_H 	H 	0.309	0.8236	0.0901	-0.164
Mof_O 	O 	0.96784	0.15726	0.11208	-0.41
Mof_O 	O 	0.96799	0.1946	0.149	-0.41
Mof_C 	C 	0.95865	0.18197	0.12422	0.364
Mof_C 	C 	0.93244	0.19908	0.10744	-0.074
Mof_C 	C 	0.92281	0.22831	0.11695	-0.024
Mof_H 	H 	0.9328	0.238	0.1343	0.054
Mof_H 	H 	0.803	0.3336	0.0886	0.159
Mof_H 	H 	0.8134	0.2999	0.1012	0.041
Mof_H 	H 	0.8361	0.3191	0.0784	-0.054
Mof_H 	H 	0.843	0.3125	0.0791	-0.043
Mof_H 	H 	0.8462	0.3302	0.069	0.006
Mof_H 	H 	0.809	0.3236	0.0901	-0.165
Mof_O 	O 	0.96784	0.65726	0.61208	-0.41
Mof_O 	O 	0.96799	0.6946	0.649	-0.41
Mof_C 	C 	0.95865	0.68197	0.62422	0.364
Mof_C 	C 	0.93244	0.69908	0.60744	-0.074
Mof_C 	C 	0.92281	0.72831	0.61695	-0.024
Mof_H 	H 	0.9328	0.738	0.6343	0.054
Mof_H 	H 	0.803	0.8336	0.5886	0.16
Mof_H 	H 	0.8134	0.7999	0.6012	0.041
Mof_H 	H 	0.8361	0.8191	0.5784	-0.055
Mof_H 	H 	0.843	0.8125	0.5791	-0.044
Mof_H 	H 	0.8462	0.8302	0.569	0.007
Mof_H 	H 	0.809	0.8236	0.5901	-0.165
Mof_O 	O 	0.38792	0.53216	0.15726	-0.413
Mof_O 	O 	0.351	0.53201	0.1946	-0.413
Mof_C 	C 	0.37578	0.54135	0.18197	0.365
Mof_C 	C 	0.39256	0.56756	0.19908	-0.075
Mof_C 	C 	0.38305	0.57719	0.22831	-0.024
Mof_H 	H 	0.3657	0.5672	0.238	0.053
Mof_H 	H 	0.4114	0.697	0.3336	0.16
Mof_H 	H 	0.3988	0.6866	0.2999	0.041
Mof_H 	H 	0.4216	0.6639	0.3191	-0.055
Mof_H 	H 	0.4209	0.657	0.3125	-0.043
Mof_H 	H 	0.431	0.6538	0.3302	0.007
Mof_H 	H 	0.4099	0.691	0.3236	-0.165
Mof_O 	O 	0.38792	0.03216	0.65726	-0.415
Mof_O 	O 	0.351	0.03201	0.6946	-0.415
Mof_C 	C 	0.37578	0.04135	0.68197	0.365
Mof_C 	C 	0.39256	0.06756	0.69908	-0.076
Mof_C 	C 	0.38305	0.07719	0.72831	-0.024
Mof_H 	H 	0.3657	0.0672	0.738	0.053
Mof_H 	H 	0.4114	0.197	0.8336	0.159
Mof_H 	H 	0.3988	0.1866	0.7999	0.041
Mof_H 	H 	0.4216	0.1639	0.8191	-0.055
Mof_H 	H 	0.4209	0.157	0.8125	-0.043
Mof_H 	H 	0.431	0.1538	0.8302	0.007
Mof_H 	H 	0.4099	0.191	0.8236	-0.164
Mof_O 	O 	0.88792	0.53216	0.65726	-0.412
Mof_O 	O 	0.851	0.53201	0.6946	-0.413
Mof_C 	C 	0.87578	0.54135	0.68197	0.364
Mof_C 	C 	0.89256	0.56756	0.69908	-0.074
Mof_C 	C 	0.88305	0.57719	0.72831	-0.024
Mof_H 	H 	0.8657	0.5672	0.738	0.053
Mof_H 	H 	0.9114	0.697	0.8336	0.161
Mof_H 	H 	0.8988	0.6866	0.7999	0.041
Mof_H 	H 	0.9216	0.6639	0.8191	-0.055
Mof_H 	H 	0.9209	0.657	0.8125	-0.043
Mof_H 	H 	0.931	0.6538	0.8302	0.008
Mof_H 	H 	0.9099	0.691	0.8236	-0.165
Mof_O 	O 	0.88792	0.03216	0.15726	-0.414
Mof_O 	O 	0.851	0.03201	0.1946	-0.415
Mof_C 	C 	0.87578	0.04135	0.18197	0.365
Mof_C 	C 	0.89256	0.06756	0.19908	-0.075
Mof_C 	C 	0.88305	0.07719	0.22831	-0.024
Mof_H 	H 	0.8657	0.0672	0.238	0.053
Mof_H 	H 	0.9114	0.197	0.3336	0.16
Mof_H 	H 	0.8988	0.1866	0.2999	0.041
Mof_H 	H 	0.9216	0.1639	0.3191	-0.055
Mof_H 	H 	0.9209	0.157	0.3125	-0.043
Mof_H 	H 	0.931	0.1538	0.3302	0.008
Mof_H 	H 	0.9099	0.191	0.3236	-0.165
Mof_O 	O 	0.61208	0.53216	0.84274	-0.413
Mof_O 	O 	0.649	0.53201	0.8054	-0.413
Mof_C 	C 	0.62422	0.54135	0.81803	0.364
Mof_C 	C 	0.60744	0.56756	0.80092	-0.075
Mof_C 	C 	0.61695	0.57719	0.77169	-0.024
Mof_H 	H 	0.6343	0.5672	0.762	0.053
Mof_H 	H 	0.5886	0.697	0.6664	0.16
Mof_H 	H 	0.6012	0.6866	0.7001	0.041
Mof_H 	H 	0.5784	0.6639	0.6809	-0.055
Mof_H 	H 	0.5791	0.657	0.6875	-0.043
Mof_H 	H 	0.569	0.6538	0.6698	0.007
Mof_H 	H 	0.5901	0.691	0.6764	-0.165
Mof_O 	O 	0.61208	0.03216	0.34274	-0.415
Mof_O 	O 	0.649	0.03201	0.3054	-0.415
Mof_C 	C 	0.62422	0.04135	0.31803	0.365
Mof_C 	C 	0.60744	0.06756	0.30092	-0.076
Mof_C 	C 	0.61695	0.07719	0.27169	-0.024
Mof_H 	H 	0.6343	0.0672	0.262	0.053
Mof_H 	H 	0.5886	0.197	0.1664	0.159
Mof_H 	H 	0.6012	0.1866	0.2001	0.041
Mof_H 	H 	0.5784	0.1639	0.1809	-0.055
Mof_H 	H 	0.5791	0.157	0.1875	-0.042
Mof_H 	H 	0.569	0.1538	0.1698	0.007
Mof_H 	H 	0.5901	0.191	0.1764	-0.164
Mof_O 	O 	0.11208	0.53216	0.34274	-0.413
Mof_O 	O 	0.149	0.53201	0.3054	-0.413
Mof_C 	C 	0.12422	0.54135	0.31803	0.365
Mof_C 	C 	0.10744	0.56756	0.30092	-0.075
Mof_C 	C 	0.11695	0.57719	0.27169	-0.024
Mof_H 	H 	0.1343	0.5672	0.262	0.053
Mof_H 	H 	0.0886	0.697	0.1664	0.159
Mof_H 	H 	0.1012	0.6866	0.2001	0.041
Mof_H 	H 	0.0784	0.6639	0.1809	-0.055
Mof_H 	H 	0.0791	0.657	0.1875	-0.043
Mof_H 	H 	0.069	0.6538	0.1698	0.006
Mof_H 	H 	0.0901	0.691	0.1764	-0.164
Mof_O 	O 	0.11208	0.03216	0.84274	-0.415
Mof_O 	O 	0.149	0.03201	0.8054	-0.415
Mof_C 	C 	0.12422	0.04135	0.81803	0.365
Mof_C 	C 	0.10744	0.06756	0.80092	-0.076
Mof_C 	C 	0.11695	0.07719	0.77169	-0.024
Mof_H 	H 	0.1343	0.0672	0.762	0.052
Mof_H 	H 	0.0886	0.197	0.6664	0.158
Mof_H 	H 	0.1012	0.1866	0.7001	0.041
Mof_H 	H 	0.0784	0.1639	0.6809	-0.055
Mof_H 	H 	0.0791	0.157	0.6875	-0.043
Mof_H 	H 	0.069	0.1538	0.6698	0.006
Mof_H 	H 	0.0901	0.191	0.6764	-0.164
Mof_O 	O 	0.38792	0.46784	0.84274	-0.413
Mof_O 	O 	0.351	0.46799	0.8054	-0.413
Mof_C 	C 	0.37578	0.45865	0.81803	0.364
Mof_C 	C 	0.39256	0.43244	0.80092	-0.075
Mof_C 	C 	0.38305	0.42281	0.77169	-0.024
Mof_H 	H 	0.3657	0.4328	0.762	0.053
Mof_H 	H 	0.4114	0.303	0.6664	0.16
Mof_H 	H 	0.3988	0.3134	0.7001	0.041
Mof_H 	H 	0.4216	0.3361	0.6809	-0.055
Mof_H 	H 	0.4209	0.343	0.6875	-0.043
Mof_H 	H 	0.431	0.3462	0.6698	0.007
Mof_H 	H 	0.4099	0.309	0.6764	-0.165
Mof_O 	O 	0.38792	0.96784	0.34274	-0.41
Mof_O 	O 	0.351	0.96799	0.3054	-0.41
Mof_C 	C 	0.37578	0.95865	0.31803	0.364
Mof_C 	C 	0.39256	0.93244	0.30092	-0.074
Mof_C 	C 	0.38305	0.92281	0.27169	-0.024
Mof_H 	H 	0.3657	0.9328	0.262	0.054
Mof_H 	H 	0.4114	0.803	0.1664	0.16
Mof_H 	H 	0.3988	0.8134	0.2001	0.041
Mof_H 	H 	0.4216	0.8361	0.1809	-0.054
Mof_H 	H 	0.4209	0.843	0.1875	-0.043
Mof_H 	H 	0.431	0.8462	0.1698	0.007
Mof_H 	H 	0.4099	0.809	0.1764	-0.165
Mof_O 	O 	0.88792	0.46784	0.34274	-0.412
Mof_O 	O 	0.851	0.46799	0.3054	-0.413
Mof_C 	C 	0.87578	0.45865	0.31803	0.364
Mof_C 	C 	0.89256	0.43244	0.30092	-0.074
Mof_C 	C 	0.88305	0.42281	0.27169	-0.024
Mof_H 	H 	0.8657	0.4328	0.262	0.053
Mof_H 	H 	0.9114	0.303	0.1664	0.16
Mof_H 	H 	0.8988	0.3134	0.2001	0.041
Mof_H 	H 	0.9216	0.3361	0.1809	-0.055
Mof_H 	H 	0.9209	0.343	0.1875	-0.043
Mof_H 	H 	0.931	0.3462	0.1698	0.008
Mof_H 	H 	0.9099	0.309	0.1764	-0.165
Mof_O 	O 	0.88792	0.96784	0.84274	-0.409
Mof_O 	O 	0.851	0.96799	0.8054	-0.41
Mof_C 	C 	0.87578	0.95865	0.81803	0.364
Mof_C 	C 	0.89256	0.93244	0.80092	-0.073
Mof_C 	C 	0.88305	0.92281	0.77169	-0.025
Mof_H 	H 	0.8657	0.9328	0.762	0.054
Mof_H 	H 	0.9114	0.803	0.6664	0.161
Mof_H 	H 	0.8988	0.8134	0.7001	0.041
Mof_H 	H 	0.9216	0.8361	0.6809	-0.054
Mof_H 	H 	0.9209	0.843	0.6875	-0.044
Mof_H 	H 	0.931	0.8462	0.6698	0.008
Mof_H 	H 	0.9099	0.809	0.6764	-0.166
Mof_O 	O 	0.61208	0.46784	0.15726	-0.413
Mof_O 	O 	0.649	0.46799	0.1946	-0.413
Mof_C 	C 	0.62422	0.45865	0.18197	0.365
Mof_C 	C 	0.60744	0.43244	0.19908	-0.075
Mof_C 	C 	0.61695	0.42281	0.22831	-0.024
Mof_H 	H 	0.6343	0.4328	0.238	0.053
Mof_H 	H 	0.5886	0.303	0.3336	0.16
Mof_H 	H 	0.6012	0.3134	0.2999	0.041
Mof_H 	H 	0.5784	0.3361	0.3191	-0.055
Mof_H 	H 	0.5791	0.343	0.3125	-0.043
Mof_H 	H 	0.569	0.3462	0.3302	0.007
Mof_H 	H 	0.5901	0.309	0.3236	-0.165
Mof_O 	O 	0.61208	0.96784	0.65726	-0.41
Mof_O 	O 	0.649	0.96799	0.6946	-0.41
Mof_C 	C 	0.62422	0.95865	0.68197	0.364
Mof_C 	C 	0.60744	0.93244	0.69908	-0.074
Mof_C 	C 	0.61695	0.92281	0.72831	-0.024
Mof_H 	H 	0.6343	0.9328	0.738	0.054
Mof_H 	H 	0.5886	0.803	0.8336	0.16
Mof_H 	H 	0.6012	0.8134	0.7999	0.041
Mof_H 	H 	0.5784	0.8361	0.8191	-0.055
Mof_H 	H 	0.5791	0.843	0.8125	-0.044
Mof_H 	H 	0.569	0.8462	0.8302	0.007
Mof_H 	H 	0.5901	0.809	0.8236	-0.165
Mof_O 	O 	0.11208	0.46784	0.65726	-0.413
Mof_O 	O 	0.149	0.46799	0.6946	-0.413
Mof_C 	C 	0.12422	0.45865	0.68197	0.365
Mof_C 	C 	0.10744	0.43244	0.69908	-0.075
Mof_C 	C 	0.11695	0.42281	0.72831	-0.024
Mof_H 	H 	0.1343	0.4328	0.738	0.053
Mof_H 	H 	0.0886	0.303	0.8336	0.159
Mof_H 	H 	0.1012	0.3134	0.7999	0.041
Mof_H 	H 	0.0784	0.3361	0.8191	-0.055
Mof_H 	H 	0.0791	0.343	0.8125	-0.043
Mof_H 	H 	0.069	0.3462	0.8302	0.006
Mof_H 	H 	0.0901	0.309	0.8236	-0.164
Mof_O 	O 	0.11208	0.96784	0.15726	-0.41
Mof_O 	O 	0.149	0.96799	0.1946	-0.41
Mof_C 	C 	0.12422	0.95865	0.18197	0.364
Mof_C 	C 	0.10744	0.93244	0.19908	-0.074
Mof_C 	C 	0.11695	0.92281	0.22831	-0.024
Mof_H 	H 	0.1343	0.9328	0.238	0.054
Mof_H 	H 	0.0886	0.803	0.3336	0.159
Mof_H 	H 	0.1012	0.8134	0.2999	0.041
Mof_H 	H 	0.0784	0.8361	0.3191	-0.054
Mof_H 	H 	0.0791	0.843	0.3125	-0.043
Mof_H 	H 	0.069	0.8462	0.3302	0.006
Mof_H 	H 	0.0901	0.809	0.3236	-0.165
Mof_O 	O 	0.38792	0.15726	0.46784	-0.413
Mof_O 	O 	0.351	0.1946	0.46799	-0.413
Mof_C 	C 	0.37578	0.18197	0.45865	0.365
Mof_C 	C 	0.39256	0.19908	0.43244	-0.075
Mof_C 	C 	0.38305	0.22831	0.42281	-0.024
Mof_H 	H 	0.3657	0.238	0.4328	0.053
Mof_H 	H 	0.4114	0.3336	0.303	0.16
Mof_H 	H 	0.3988	0.2999	0.3134	0.041
Mof_H 	H 	0.4216	0.3191	0.3361	-0.055
Mof_H 	H 	0.4209	0.3125	0.343	-0.043
Mof_H 	H 	0.431	0.3302	0.3462	0.007
Mof_H 	H 	0.4099	0.3236	0.309	-0.165
Mof_O 	O 	0.38792	0.65726	0.96784	-0.41
Mof_O 	O 	0.351	0.6946	0.96799	-0.41
Mof_C 	C 	0.37578	0.68197	0.95865	0.364
Mof_C 	C 	0.39256	0.69908	0.93244	-0.074
Mof_C 	C 	0.38305	0.72831	0.92281	-0.024
Mof_H 	H 	0.3657	0.738	0.9328	0.054
Mof_H 	H 	0.4114	0.8336	0.803	0.16
Mof_H 	H 	0.3988	0.7999	0.8134	0.041
Mof_H 	H 	0.4216	0.8191	0.8361	-0.055
Mof_H 	H 	0.4209	0.8125	0.843	-0.044
Mof_H 	H 	0.431	0.8302	0.8462	0.007
Mof_H 	H 	0.4099	0.8236	0.809	-0.165
Mof_O 	O 	0.88792	0.15726	0.96784	-0.41
Mof_O 	O 	0.851	0.1946	0.96799	-0.41
Mof_C 	C 	0.87578	0.18197	0.95865	0.364
Mof_C 	C 	0.89256	0.19908	0.93244	-0.073
Mof_C 	C 	0.88305	0.22831	0.92281	-0.024
Mof_H 	H 	0.8657	0.238	0.9328	0.054
Mof_H 	H 	0.9114	0.3336	0.803	0.161
Mof_H 	H 	0.8988	0.2999	0.8134	0.041
Mof_H 	H 	0.9216	0.3191	0.8361	-0.054
Mof_H 	H 	0.9209	0.3125	0.843	-0.044
Mof_H 	H 	0.931	0.3302	0.8462	0.008
Mof_H 	H 	0.9099	0.3236	0.809	-0.166
Mof_O 	O 	0.88792	0.65726	0.46784	-0.412
Mof_O 	O 	0.851	0.6946	0.46799	-0.413
Mof_C 	C 	0.87578	0.68197	0.45865	0.364
Mof_C 	C 	0.89256	0.69908	0.43244	-0.074
Mof_C 	C 	0.88305	0.72831	0.42281	-0.024
Mof_H 	H 	0.8657	0.738	0.4328	0.053
Mof_H 	H 	0.9114	0.8336	0.303	0.161
Mof_H 	H 	0.8988	0.7999	0.3134	0.042
Mof_H 	H 	0.9216	0.8191	0.3361	-0.055
Mof_H 	H 	0.9209	0.8125	0.343	-0.043
Mof_H 	H 	0.931	0.8302	0.3462	0.008
Mof_H 	H 	0.9099	0.8236	0.309	-0.165
Mof_O 	O 	0.61208	0.84274	0.46784	-0.413
Mof_O 	O 	0.649	0.8054	0.46799	-0.413
Mof_C 	C 	0.62422	0.81803	0.45865	0.364
Mof_C 	C 	0.60744	0.80092	0.43244	-0.075
Mof_C 	C 	0.61695	0.77169	0.42281	-0.024
Mof_H 	H 	0.6343	0.762	0.4328	0.053
Mof_H 	H 	0.5886	0.6664	0.303	0.16
Mof_H 	H 	0.6012	0.7001	0.3134	0.041
Mof_H 	H 	0.5784	0.6809	0.3361	-0.055
Mof_H 	H 	0.5791	0.6875	0.343	-0.043
Mof_H 	H 	0.569	0.6698	0.3462	0.007
Mof_H 	H 	0.5901	0.6764	0.309	-0.165
Mof_O 	O 	0.61208	0.34274	0.96784	-0.41
Mof_O 	O 	0.649	0.3054	0.96799	-0.41
Mof_C 	C 	0.62422	0.31803	0.95865	0.364
Mof_C 	C 	0.60744	0.30092	0.93244	-0.074
Mof_C 	C 	0.61695	0.27169	0.92281	-0.024
Mof_H 	H 	0.6343	0.262	0.9328	0.054
Mof_H 	H 	0.5886	0.1664	0.803	0.16
Mof_H 	H 	0.6012	0.2001	0.8134	0.041
Mof_H 	H 	0.5784	0.1809	0.8361	-0.054
Mof_H 	H 	0.5791	0.1875	0.843	-0.043
Mof_H 	H 	0.569	0.1698	0.8462	0.007
Mof_H 	H 	0.5901	0.1764	0.809	-0.165
Mof_O 	O 	0.11208	0.84274	0.96784	-0.41
Mof_O 	O 	0.149	0.8054	0.96799	-0.41
Mof_C 	C 	0.12422	0.81803	0.95865	0.364
Mof_C 	C 	0.10744	0.80092	0.93244	-0.074
Mof_C 	C 	0.11695	0.77169	0.92281	-0.024
Mof_H 	H 	0.1343	0.762	0.9328	0.054
Mof_H 	H 	0.0886	0.6664	0.803	0.159
Mof_H 	H 	0.1012	0.7001	0.8134	0.041
Mof_H 	H 	0.0784	0.6809	0.8361	-0.054
Mof_H 	H 	0.0791	0.6875	0.843	-0.043
Mof_H 	H 	0.069	0.6698	0.8462	0.006
Mof_H 	H 	0.0901	0.6764	0.809	-0.165
Mof_O 	O 	0.11208	0.34274	0.46784	-0.413
Mof_O 	O 	0.149	0.3054	0.46799	-0.413
Mof_C 	C 	0.12422	0.31803	0.45865	0.365
Mof_C 	C 	0.10744	0.30092	0.43244	-0.075
Mof_C 	C 	0.11695	0.27169	0.42281	-0.024
Mof_H 	H 	0.1343	0.262	0.4328	0.053
Mof_H 	H 	0.0886	0.1664	0.303	0.159
Mof_H 	H 	0.1012	0.2001	0.3134	0.041
Mof_H 	H 	0.0784	0.1809	0.3361	-0.055
Mof_H 	H 	0.0791	0.1875	0.343	-0.043
Mof_H 	H 	0.069	0.1698	0.3462	0.006
Mof_H 	H 	0.0901	0.1764	0.309	-0.164
Mof_O 	O 	0.38792	0.84274	0.53216	-0.413
Mof_O 	O 	0.351	0.8054	0.53201	-0.413
Mof_C 	C 	0.37578	0.81803	0.54135	0.364
Mof_C 	C 	0.39256	0.80092	0.56756	-0.075
Mof_C 	C 	0.38305	0.77169	0.57719	-0.024
Mof_H 	H 	0.3657	0.762	0.5672	0.053
Mof_H 	H 	0.4114	0.6664	0.697	0.16
Mof_H 	H 	0.3988	0.7001	0.6866	0.041
Mof_H 	H 	0.4216	0.6809	0.6639	-0.055
Mof_H 	H 	0.4209	0.6875	0.657	-0.043
Mof_H 	H 	0.431	0.6698	0.6538	0.007
Mof_H 	H 	0.4099	0.6764	0.691	-0.165
Mof_O 	O 	0.38792	0.34274	0.03216	-0.415
Mof_O 	O 	0.351	0.3054	0.03201	-0.415
Mof_C 	C 	0.37578	0.31803	0.04135	0.365
Mof_C 	C 	0.39256	0.30092	0.06756	-0.076
Mof_C 	C 	0.38305	0.27169	0.07719	-0.024
Mof_H 	H 	0.3657	0.262	0.0672	0.053
Mof_H 	H 	0.4114	0.1664	0.197	0.159
Mof_H 	H 	0.3988	0.2001	0.1866	0.041
Mof_H 	H 	0.4216	0.1809	0.1639	-0.055
Mof_H 	H 	0.4209	0.1875	0.157	-0.042
Mof_H 	H 	0.431	0.1698	0.1538	0.007
Mof_H 	H 	0.4099	0.1764	0.191	-0.164
Mof_O 	O 	0.88792	0.84274	0.03216	-0.414
Mof_O 	O 	0.851	0.8054	0.03201	-0.415
Mof_C 	C 	0.87578	0.81803	0.04135	0.364
Mof_C 	C 	0.89256	0.80092	0.06756	-0.075
Mof_C 	C 	0.88305	0.77169	0.07719	-0.024
Mof_H 	H 	0.8657	0.762	0.0672	0.053
Mof_H 	H 	0.9114	0.6664	0.197	0.16
Mof_H 	H 	0.8988	0.7001	0.1866	0.041
Mof_H 	H 	0.9216	0.6809	0.1639	-0.055
Mof_H 	H 	0.9209	0.6875	0.157	-0.043
Mof_H 	H 	0.931	0.6698	0.1538	0.008
Mof_H 	H 	0.9099	0.6764	0.191	-0.165
Mof_O 	O 	0.88792	0.34274	0.53216	-0.412
Mof_O 	O 	0.851	0.3054	0.53201	-0.413
Mof_C 	C 	0.87578	0.31803	0.54135	0.364
Mof_C 	C 	0.89256	0.30092	0.56756	-0.074
Mof_C 	C 	0.88305	0.27169	0.57719	-0.024
Mof_H 	H 	0.8657	0.262	0.5672	0.053
Mof_H 	H 	0.9114	0.1664	0.697	0.16
Mof_H 	H 	0.8988	0.2001	0.6866	0.041
Mof_H 	H 	0.9216	0.1809	0.6639	-0.055
Mof_H 	H 	0.9209	0.1875	0.657	-0.043
Mof_H 	H 	0.931	0.1698	0.6538	0.008
Mof_H 	H 	0.9099	0.1764	0.691	-0.165
Mof_O 	O 	0.61208	0.15726	0.53216	-0.413
Mof_O 	O 	0.649	0.1946	0.53201	-0.413
Mof_C 	C 	0.62422	0.18197	0.54135	0.365
Mof_C 	C 	0.60744	0.19908	0.56756	-0.075
Mof_C 	C 	0.61695	0.22831	0.57719	-0.024
Mof_H 	H 	0.6343	0.238	0.5672	0.053
Mof_H 	H 	0.5886	0.3336	0.697	0.16
Mof_H 	H 	0.6012	0.2999	0.6866	0.041
Mof_H 	H 	0.5784	0.3191	0.6639	-0.055
Mof_H 	H 	0.5791	0.3125	0.657	-0.043
Mof_H 	H 	0.569	0.3302	0.6538	0.007
Mof_H 	H 	0.5901	0.3236	0.691	-0.165
Mof_O 	O 	0.61208	0.65726	0.03216	-0.415
Mof_O 	O 	0.649	0.6946	0.03201	-0.415
Mof_C 	C 	0.62422	0.68197	0.04135	0.365
Mof_C 	C 	0.60744	0.69908	0.06756	-0.076
Mof_C 	C 	0.61695	0.72831	0.07719	-0.024
Mof_H 	H 	0.6343	0.738	0.0672	0.053
Mof_H 	H 	0.5886	0.8336	0.197	0.159
Mof_H 	H 	0.6012	0.7999	0.1866	0.041
Mof_H 	H 	0.5784	0.8191	0.1639	-0.055
Mof_H 	H 	0.5791	0.8125	0.157	-0.043
Mof_H 	H 	0.569	0.8302	0.1538	0.007
Mof_H 	H 	0.5901	0.8236	0.191	-0.164
Mof_O 	O 	0.11208	0.15726	0.03216	-0.415
Mof_O 	O 	0.149	0.1946	0.03201	-0.415
Mof_C 	C 	0.12422	0.18197	0.04135	0.365
Mof_C 	C 	0.10744	0.19908	0.06756	-0.076
Mof_C 	C 	0.11695	0.22831	0.07719	-0.023
Mof_H 	H 	0.1343	0.238	0.0672	0.052
Mof_H 	H 	0.0886	0.3336	0.197	0.158
Mof_H 	H 	0.1012	0.2999	0.1866	0.041
Mof_H 	H 	0.0784	0.3191	0.1639	-0.055
Mof_H 	H 	0.0791	0.3125	0.157	-0.043
Mof_H 	H 	0.069	0.3302	0.1538	0.006
Mof_H 	H 	0.0901	0.3236	0.191	-0.164
Mof_O 	O 	0.11208	0.65726	0.53216	-0.413
Mof_O 	O 	0.149	0.6946	0.53201	-0.413
Mof_C 	C 	0.12422	0.68197	0.54135	0.365
Mof_C 	C 	0.10744	0.69908	0.56756	-0.075
Mof_C 	C 	0.11695	0.72831	0.57719	-0.024
Mof_H 	H 	0.1343	0.738	0.5672	0.053
Mof_H 	H 	0.0886	0.8336	0.697	0.159
Mof_H 	H 	0.1012	0.7999	0.6866	0.041
Mof_H 	H 	0.0784	0.8191	0.6639	-0.055
Mof_H 	H 	0.0791	0.8125	0.657	-0.043
Mof_H 	H 	0.069	0.8302	0.6538	0.006
Mof_H 	H 	0.0901	0.8236	0.691	-0.164
Mof_O 	O 	0.15726	0.53216	0.61208	-0.413
Mof_O 	O 	0.1946	0.53201	0.649	-0.413
Mof_C 	C 	0.18197	0.54135	0.62422	0.365
Mof_C 	C 	0.19908	0.56756	0.60744	-0.075
Mof_C 	C 	0.22831	0.57719	0.61695	-0.024
Mof_H 	H 	0.238	0.5672	0.6343	0.053
Mof_H 	H 	0.3336	0.697	0.5886	0.16
Mof_H 	H 	0.2999	0.6866	0.6012	0.041
Mof_H 	H 	0.3191	0.6639	0.5784	-0.055
Mof_H 	H 	0.3125	0.657	0.5791	-0.043
Mof_H 	H 	0.3302	0.6538	0.569	0.007
Mof_H 	H 	0.3236	0.691	0.5901	-0.165
Mof_O 	O 	0.15726	0.03216	0.11208	-0.415
Mof_O 	O 	0.1946	0.03201	0.149	-0.415
Mof_C 	C 	0.18197	0.04135	0.12422	0.365
Mof_C 	C 	0.19908	0.06756	0.10744	-0.076
Mof_C 	C 	0.22831	0.07719	0.11695	-0.023
Mof_H 	H 	0.238	0.0672	0.1343	0.052
Mof_H 	H 	0.3336	0.197	0.0886	0.158
Mof_H 	H 	0.2999	0.1866	0.1012	0.041
Mof_H 	H 	0.3191	0.1639	0.0784	-0.055
Mof_H 	H 	0.3125	0.157	0.0791	-0.043
Mof_H 	H 	0.3302	0.1538	0.069	0.006
Mof_H 	H 	0.3236	0.191	0.0901	-0.164
Mof_O 	O 	0.65726	0.53216	0.11208	-0.413
Mof_O 	O 	0.6946	0.53201	0.149	-0.413
Mof_C 	C 	0.68197	0.54135	0.12422	0.365
Mof_C 	C 	0.69908	0.56756	0.10744	-0.075
Mof_C 	C 	0.72831	0.57719	0.11695	-0.024
Mof_H 	H 	0.738	0.5672	0.1343	0.053
Mof_H 	H 	0.8336	0.697	0.0886	0.159
Mof_H 	H 	0.7999	0.6866	0.1012	0.041
Mof_H 	H 	0.8191	0.6639	0.0784	-0.055
Mof_H 	H 	0.8125	0.657	0.0791	-0.043
Mof_H 	H 	0.8302	0.6538	0.069	0.006
Mof_H 	H 	0.8236	0.691	0.0901	-0.164
Mof_O 	O 	0.65726	0.03216	0.61208	-0.415
Mof_O 	O 	0.6946	0.03201	0.649	-0.415
Mof_C 	C 	0.68197	0.04135	0.62422	0.365
Mof_C 	C 	0.69908	0.06756	0.60744	-0.076
Mof_C 	C 	0.72831	0.07719	0.61695	-0.024
Mof_H 	H 	0.738	0.0672	0.6343	0.053
Mof_H 	H 	0.8336	0.197	0.5886	0.159
Mof_H 	H 	0.7999	0.1866	0.6012	0.041
Mof_H 	H 	0.8191	0.1639	0.5784	-0.055
Mof_H 	H 	0.8125	0.157	0.5791	-0.043
Mof_H 	H 	0.8302	0.1538	0.569	0.007
Mof_H 	H 	0.8236	0.191	0.5901	-0.164
Mof_O 	O 	0.84274	0.53216	0.38792	-0.413
Mof_O 	O 	0.8054	0.53201	0.351	-0.413
Mof_C 	C 	0.81803	0.54135	0.37578	0.364
Mof_C 	C 	0.80092	0.56756	0.39256	-0.075
Mof_C 	C 	0.77169	0.57719	0.38305	-0.024
Mof_H 	H 	0.762	0.5672	0.3657	0.053
Mof_H 	H 	0.6664	0.697	0.4114	0.16
Mof_H 	H 	0.7001	0.6866	0.3988	0.041
Mof_H 	H 	0.6809	0.6639	0.4216	-0.055
Mof_H 	H 	0.6875	0.657	0.4209	-0.043
Mof_H 	H 	0.6698	0.6538	0.431	0.007
Mof_H 	H 	0.6764	0.691	0.4099	-0.165
Mof_O 	O 	0.84274	0.03216	0.88792	-0.414
Mof_O 	O 	0.8054	0.03201	0.851	-0.415
Mof_C 	C 	0.81803	0.04135	0.87578	0.364
Mof_C 	C 	0.80092	0.06756	0.89256	-0.075
Mof_C 	C 	0.77169	0.07719	0.88305	-0.024
Mof_H 	H 	0.762	0.0672	0.8657	0.053
Mof_H 	H 	0.6664	0.197	0.9114	0.16
Mof_H 	H 	0.7001	0.1866	0.8988	0.041
Mof_H 	H 	0.6809	0.1639	0.9216	-0.055
Mof_H 	H 	0.6875	0.157	0.9209	-0.043
Mof_H 	H 	0.6698	0.1538	0.931	0.008
Mof_H 	H 	0.6764	0.191	0.9099	-0.165
Mof_O 	O 	0.34274	0.53216	0.88792	-0.412
Mof_O 	O 	0.3054	0.53201	0.851	-0.413
Mof_C 	C 	0.31803	0.54135	0.87578	0.364
Mof_C 	C 	0.30092	0.56756	0.89256	-0.074
Mof_C 	C 	0.27169	0.57719	0.88305	-0.024
Mof_H 	H 	0.262	0.5672	0.8657	0.053
Mof_H 	H 	0.1664	0.697	0.9114	0.16
Mof_H 	H 	0.2001	0.6866	0.8988	0.041
Mof_H 	H 	0.1809	0.6639	0.9216	-0.055
Mof_H 	H 	0.1875	0.657	0.9209	-0.043
Mof_H 	H 	0.1698	0.6538	0.931	0.008
Mof_H 	H 	0.1764	0.691	0.9099	-0.165
Mof_O 	O 	0.34274	0.03216	0.38792	-0.415
Mof_O 	O 	0.3054	0.03201	0.351	-0.415
Mof_C 	C 	0.31803	0.04135	0.37578	0.365
Mof_C 	C 	0.30092	0.06756	0.39256	-0.076
Mof_C 	C 	0.27169	0.07719	0.38305	-0.024
Mof_H 	H 	0.262	0.0672	0.3657	0.053
Mof_H 	H 	0.1664	0.197	0.4114	0.159
Mof_H 	H 	0.2001	0.1866	0.3988	0.041
Mof_H 	H 	0.1809	0.1639	0.4216	-0.055
Mof_H 	H 	0.1875	0.157	0.4209	-0.042
Mof_H 	H 	0.1698	0.1538	0.431	0.007
Mof_H 	H 	0.1764	0.191	0.4099	-0.164
Mof_O 	O 	0.84274	0.46784	0.61208	-0.413
Mof_O 	O 	0.8054	0.46799	0.649	-0.413
Mof_C 	C 	0.81803	0.45865	0.62422	0.364
Mof_C 	C 	0.80092	0.43244	0.60744	-0.075
Mof_C 	C 	0.77169	0.42281	0.61695	-0.024
Mof_H 	H 	0.762	0.4328	0.6343	0.053
Mof_H 	H 	0.6664	0.303	0.5886	0.16
Mof_H 	H 	0.7001	0.3134	0.6012	0.041
Mof_H 	H 	0.6809	0.3361	0.5784	-0.055
Mof_H 	H 	0.6875	0.343	0.5791	-0.043
Mof_H 	H 	0.6698	0.3462	0.569	0.007
Mof_H 	H 	0.6764	0.309	0.5901	-0.165
Mof_O 	O 	0.84274	0.96784	0.11208	-0.41
Mof_O 	O 	0.8054	0.96799	0.149	-0.41
Mof_C 	C 	0.81803	0.95865	0.12422	0.364
Mof_C 	C 	0.80092	0.93244	0.10744	-0.074
Mof_C 	C 	0.77169	0.92281	0.11695	-0.024
Mof_H 	H 	0.762	0.9328	0.1343	0.054
Mof_H 	H 	0.6664	0.803	0.0886	0.159
Mof_H 	H 	0.7001	0.8134	0.1012	0.041
Mof_H 	H 	0.6809	0.8361	0.0784	-0.054
Mof_H 	H 	0.6875	0.843	0.0791	-0.043
Mof_H 	H 	0.6698	0.8462	0.069	0.006
Mof_H 	H 	0.6764	0.809	0.0901	-0.165
Mof_O 	O 	0.34274	0.46784	0.11208	-0.413
Mof_O 	O 	0.3054	0.46799	0.149	-0.413
Mof_C 	C 	0.31803	0.45865	0.12422	0.365
Mof_C 	C 	0.30092	0.43244	0.10744	-0.075
Mof_C 	C 	0.27169	0.42281	0.11695	-0.024
Mof_H 	H 	0.262	0.4328	0.1343	0.053
Mof_H 	H 	0.1664	0.303	0.0886	0.159
Mof_H 	H 	0.2001	0.3134	0.1012	0.041
Mof_H 	H 	0.1809	0.3361	0.0784	-0.055
Mof_H 	H 	0.1875	0.343	0.0791	-0.043
Mof_H 	H 	0.1698	0.3462	0.069	0.006
Mof_H 	H 	0.1764	0.309	0.0901	-0.164
Mof_O 	O 	0.34274	0.96784	0.61208	-0.41
Mof_O 	O 	0.3054	0.96799	0.649	-0.41
Mof_C 	C 	0.31803	0.95865	0.62422	0.364
Mof_C 	C 	0.30092	0.93244	0.60744	-0.074
Mof_C 	C 	0.27169	0.92281	0.61695	-0.024
Mof_H 	H 	0.262	0.9328	0.6343	0.054
Mof_H 	H 	0.1664	0.803	0.5886	0.16
Mof_H 	H 	0.2001	0.8134	0.6012	0.041
Mof_H 	H 	0.1809	0.8361	0.5784	-0.054
Mof_H 	H 	0.1875	0.843	0.5791	-0.043
Mof_H 	H 	0.1698	0.8462	0.569	0.007
Mof_H 	H 	0.1764	0.809	0.5901	-0.165
Mof_O 	O 	0.15726	0.46784	0.38792	-0.413
Mof_O 	O 	0.1946	0.46799	0.351	-0.413
Mof_C 	C 	0.18197	0.45865	0.37578	0.365
Mof_C 	C 	0.19908	0.43244	0.39256	-0.075
Mof_C 	C 	0.22831	0.42281	0.38305	-0.024
Mof_H 	H 	0.238	0.4328	0.3657	0.053
Mof_H 	H 	0.3336	0.303	0.4114	0.16
Mof_H 	H 	0.2999	0.3134	0.3988	0.041
Mof_H 	H 	0.3191	0.3361	0.4216	-0.055
Mof_H 	H 	0.3125	0.343	0.4209	-0.043
Mof_H 	H 	0.3302	0.3462	0.431	0.007
Mof_H 	H 	0.3236	0.309	0.4099	-0.165
Mof_O 	O 	0.15726	0.96784	0.88792	-0.41
Mof_O 	O 	0.1946	0.96799	0.851	-0.41
Mof_C 	C 	0.18197	0.95865	0.87578	0.364
Mof_C 	C 	0.19908	0.93244	0.89256	-0.073
Mof_C 	C 	0.22831	0.92281	0.88305	-0.024
Mof_H 	H 	0.238	0.9328	0.8657	0.054
Mof_H 	H 	0.3336	0.803	0.9114	0.161
Mof_H 	H 	0.2999	0.8134	0.8988	0.041
Mof_H 	H 	0.3191	0.8361	0.9216	-0.054
Mof_H 	H 	0.3125	0.843	0.9209	-0.044
Mof_H 	H 	0.3302	0.8462	0.931	0.008
Mof_H 	H 	0.3236	0.809	0.9099	-0.166
Mof_O 	O 	0.65726	0.46784	0.88792	-0.412
Mof_O 	O 	0.6946	0.46799	0.851	-0.413
Mof_C 	C 	0.68197	0.45865	0.87578	0.364
Mof_C 	C 	0.69908	0.43244	0.89256	-0.074
Mof_C 	C 	0.72831	0.42281	0.88305	-0.024
Mof_H 	H 	0.738	0.4328	0.8657	0.053
Mof_H 	H 	0.8336	0.303	0.9114	0.161
Mof_H 	H 	0.7999	0.3134	0.8988	0.042
Mof_H 	H 	0.8191	0.3361	0.9216	-0.055
Mof_H 	H 	0.8125	0.343	0.9209	-0.043
Mof_H 	H 	0.8302	0.3462	0.931	0.008
Mof_H 	H 	0.8236	0.309	0.9099	-0.165
Mof_O 	O 	0.65726	0.96784	0.38792	-0.41
Mof_O 	O 	0.6946	0.96799	0.351	-0.41
Mof_C 	C 	0.68197	0.95865	0.37578	0.364
Mof_C 	C 	0.69908	0.93244	0.39256	-0.074
Mof_C 	C 	0.72831	0.92281	0.38305	-0.024
Mof_H 	H 	0.738	0.9328	0.3657	0.054
Mof_H 	H 	0.8336	0.803	0.4114	0.16
Mof_H 	H 	0.7999	0.8134	0.3988	0.041
Mof_H 	H 	0.8191	0.8361	0.4216	-0.055
Mof_H 	H 	0.8125	0.843	0.4209	-0.044
Mof_H 	H 	0.8302	0.8462	0.431	0.007
Mof_H 	H 	0.8236	0.809	0.4099	-0.165
Mof_O 	O 	0.53216	0.38792	0.84274	-0.413
Mof_O 	O 	0.53201	0.351	0.8054	-0.413
Mof_C 	C 	0.54135	0.37578	0.81803	0.364
Mof_C 	C 	0.56756	0.39256	0.80092	-0.075
Mof_C 	C 	0.57719	0.38305	0.77169	-0.024
Mof_H 	H 	0.5672	0.3657	0.762	0.053
Mof_H 	H 	0.697	0.4114	0.6664	0.16
Mof_H 	H 	0.6866	0.3988	0.7001	0.041
Mof_H 	H 	0.6639	0.4216	0.6809	-0.055
Mof_H 	H 	0.657	0.4209	0.6875	-0.043
Mof_H 	H 	0.6538	0.431	0.6698	0.007
Mof_H 	H 	0.691	0.4099	0.6764	-0.165
Mof_O 	O 	0.53216	0.88792	0.34274	-0.412
Mof_O 	O 	0.53201	0.851	0.3054	-0.413
Mof_C 	C 	0.54135	0.87578	0.31803	0.364
Mof_C 	C 	0.56756	0.89256	0.30092	-0.074
Mof_C 	C 	0.57719	0.88305	0.27169	-0.024
Mof_H 	H 	0.5672	0.8657	0.262	0.053
Mof_H 	H 	0.697	0.9114	0.1664	0.16
Mof_H 	H 	0.6866	0.8988	0.2001	0.041
Mof_H 	H 	0.6639	0.9216	0.1809	-0.055
Mof_H 	H 	0.657	0.9209	0.1875	-0.043
Mof_H 	H 	0.6538	0.931	0.1698	0.008
Mof_H 	H 	0.691	0.9099	0.1764	-0.165
Mof_O 	O 	0.03216	0.38792	0.34274	-0.415
Mof_O 	O 	0.03201	0.351	0.3054	-0.415
Mof_C 	C 	0.04135	0.37578	0.31803	0.365
Mof_C 	C 	0.06756	0.39256	0.30092	-0.076
Mof_C 	C 	0.07719	0.38305	0.27169	-0.024
Mof_H 	H 	0.0672	0.3657	0.262	0.053
Mof_H 	H 	0.197	0.4114	0.1664	0.159
Mof_H 	H 	0.1866	0.3988	0.2001	0.041
Mof_H 	H 	0.1639	0.4216	0.1809	-0.055
Mof_H 	H 	0.157	0.4209	0.1875	-0.042
Mof_H 	H 	0.1538	0.431	0.1698	0.007
Mof_H 	H 	0.191	0.4099	0.1764	-0.164
Mof_O 	O 	0.03216	0.88792	0.84274	-0.414
Mof_O 	O 	0.03201	0.851	0.8054	-0.415
Mof_C 	C 	0.04135	0.87578	0.81803	0.364
Mof_C 	C 	0.06756	0.89256	0.80092	-0.075
Mof_C 	C 	0.07719	0.88305	0.77169	-0.024
Mof_H 	H 	0.0672	0.8657	0.762	0.053
Mof_H 	H 	0.197	0.9114	0.6664	0.16
Mof_H 	H 	0.1866	0.8988	0.7001	0.041
Mof_H 	H 	0.1639	0.9216	0.6809	-0.055
Mof_H 	H 	0.157	0.9209	0.6875	-0.043
Mof_H 	H 	0.1538	0.931	0.6698	0.008
Mof_H 	H 	0.191	0.9099	0.6764	-0.165
Mof_O 	O 	0.53216	0.61208	0.15726	-0.413
Mof_O 	O 	0.53201	0.649	0.1946	-0.413
Mof_C 	C 	0.54135	0.62422	0.18197	0.365
Mof_C 	C 	0.56756	0.60744	0.19908	-0.075
Mof_C 	C 	0.57719	0.61695	0.22831	-0.024
Mof_H 	H 	0.5672	0.6343	0.238	0.053
Mof_H 	H 	0.697	0.5886	0.3336	0.16
Mof_H 	H 	0.6866	0.6012	0.2999	0.041
Mof_H 	H 	0.6639	0.5784	0.3191	-0.055
Mof_H 	H 	0.657	0.5791	0.3125	-0.043
Mof_H 	H 	0.6538	0.569	0.3302	0.007
Mof_H 	H 	0.691	0.5901	0.3236	-0.165
Mof_O 	O 	0.53216	0.11208	0.65726	-0.413
Mof_O 	O 	0.53201	0.149	0.6946	-0.413
Mof_C 	C 	0.54135	0.12422	0.68197	0.365
Mof_C 	C 	0.56756	0.10744	0.69908	-0.075
Mof_C 	C 	0.57719	0.11695	0.72831	-0.024
Mof_H 	H 	0.5672	0.1343	0.738	0.053
Mof_H 	H 	0.697	0.0886	0.8336	0.159
Mof_H 	H 	0.6866	0.1012	0.7999	0.041
Mof_H 	H 	0.6639	0.0784	0.8191	-0.055
Mof_H 	H 	0.657	0.0791	0.8125	-0.043
Mof_H 	H 	0.6538	0.069	0.8302	0.006
Mof_H 	H 	0.691	0.0901	0.8236	-0.164
Mof_O 	O 	0.03216	0.61208	0.65726	-0.415
Mof_O 	O 	0.03201	0.649	0.6946	-0.415
Mof_C 	C 	0.04135	0.62422	0.68197	0.365
Mof_C 	C 	0.06756	0.60744	0.69908	-0.076
Mof_C 	C 	0.07719	0.61695	0.72831	-0.024
Mof_H 	H 	0.0672	0.6343	0.738	0.053
Mof_H 	H 	0.197	0.5886	0.8336	0.159
Mof_H 	H 	0.1866	0.6012	0.7999	0.041
Mof_H 	H 	0.1639	0.5784	0.8191	-0.055
Mof_H 	H 	0.157	0.5791	0.8125	-0.043
Mof_H 	H 	0.1538	0.569	0.8302	0.007
Mof_H 	H 	0.191	0.5901	0.8236	-0.164
Mof_O 	O 	0.03216	0.11208	0.15726	-0.415
Mof_O 	O 	0.03201	0.149	0.1946	-0.415
Mof_C 	C 	0.04135	0.12422	0.18197	0.365
Mof_C 	C 	0.06756	0.10744	0.19908	-0.076
Mof_C 	C 	0.07719	0.11695	0.22831	-0.023
Mof_H 	H 	0.0672	0.1343	0.238	0.052
Mof_H 	H 	0.197	0.0886	0.3336	0.158
Mof_H 	H 	0.1866	0.1012	0.2999	0.041
Mof_H 	H 	0.1639	0.0784	0.3191	-0.055
Mof_H 	H 	0.157	0.0791	0.3125	-0.043
Mof_H 	H 	0.1538	0.069	0.3302	0.006
Mof_H 	H 	0.191	0.0901	0.3236	-0.164
Mof_O 	O 	0.46784	0.38792	0.15726	-0.413
Mof_O 	O 	0.46799	0.351	0.1946	-0.413
Mof_C 	C 	0.45865	0.37578	0.18197	0.365
Mof_C 	C 	0.43244	0.39256	0.19908	-0.075
Mof_C 	C 	0.42281	0.38305	0.22831	-0.024
Mof_H 	H 	0.4328	0.3657	0.238	0.053
Mof_H 	H 	0.303	0.4114	0.3336	0.16
Mof_H 	H 	0.3134	0.3988	0.2999	0.041
Mof_H 	H 	0.3361	0.4216	0.3191	-0.055
Mof_H 	H 	0.343	0.4209	0.3125	-0.043
Mof_H 	H 	0.3462	0.431	0.3302	0.007
Mof_H 	H 	0.309	0.4099	0.3236	-0.165
Mof_O 	O 	0.46784	0.88792	0.65726	-0.412
Mof_O 	O 	0.46799	0.851	0.6946	-0.413
Mof_C 	C 	0.45865	0.87578	0.68197	0.364
Mof_C 	C 	0.43244	0.89256	0.69908	-0.074
Mof_C 	C 	0.42281	0.88305	0.72831	-0.024
Mof_H 	H 	0.4328	0.8657	0.738	0.053
Mof_H 	H 	0.303	0.9114	0.8336	0.161
Mof_H 	H 	0.3134	0.8988	0.7999	0.042
Mof_H 	H 	0.3361	0.9216	0.8191	-0.055
Mof_H 	H 	0.343	0.9209	0.8125	-0.043
Mof_H 	H 	0.3462	0.931	0.8302	0.008
Mof_H 	H 	0.309	0.9099	0.8236	-0.165
Mof_O 	O 	0.96784	0.38792	0.65726	-0.41
Mof_O 	O 	0.96799	0.351	0.6946	-0.41
Mof_C 	C 	0.95865	0.37578	0.68197	0.364
Mof_C 	C 	0.93244	0.39256	0.69908	-0.074
Mof_C 	C 	0.92281	0.38305	0.72831	-0.024
Mof_H 	H 	0.9328	0.3657	0.738	0.054
Mof_H 	H 	0.803	0.4114	0.8336	0.16
Mof_H 	H 	0.8134	0.3988	0.7999	0.041
Mof_H 	H 	0.8361	0.4216	0.8191	-0.055
Mof_H 	H 	0.843	0.4209	0.8125	-0.044
Mof_H 	H 	0.8462	0.431	0.8302	0.007
Mof_H 	H 	0.809	0.4099	0.8236	-0.165
Mof_O 	O 	0.96784	0.88792	0.15726	-0.41
Mof_O 	O 	0.96799	0.851	0.1946	-0.41
Mof_C 	C 	0.95865	0.87578	0.18197	0.364
Mof_C 	C 	0.93244	0.89256	0.19908	-0.073
Mof_C 	C 	0.92281	0.88305	0.22831	-0.024
Mof_H 	H 	0.9328	0.8657	0.238	0.054
Mof_H 	H 	0.803	0.9114	0.3336	0.161
Mof_H 	H 	0.8134	0.8988	0.2999	0.041
Mof_H 	H 	0.8361	0.9216	0.3191	-0.054
Mof_H 	H 	0.843	0.9209	0.3125	-0.044
Mof_H 	H 	0.8462	0.931	0.3302	0.008
Mof_H 	H 	0.809	0.9099	0.3236	-0.166
Mof_O 	O 	0.46784	0.61208	0.84274	-0.413
Mof_O 	O 	0.46799	0.649	0.8054	-0.413
Mof_C 	C 	0.45865	0.62422	0.81803	0.364
Mof_C 	C 	0.43244	0.60744	0.80092	-0.075
Mof_C 	C 	0.42281	0.61695	0.77169	-0.024
Mof_H 	H 	0.4328	0.6343	0.762	0.053
Mof_H 	H 	0.303	0.5886	0.6664	0.16
Mof_H 	H 	0.3134	0.6012	0.7001	0.041
Mof_H 	H 	0.3361	0.5784	0.6809	-0.055
Mof_H 	H 	0.343	0.5791	0.6875	-0.043
Mof_H 	H 	0.3462	0.569	0.6698	0.007
Mof_H 	H 	0.309	0.5901	0.6764	-0.165
Mof_O 	O 	0.46784	0.11208	0.34274	-0.413
Mof_O 	O 	0.46799	0.149	0.3054	-0.413
Mof_C 	C 	0.45865	0.12422	0.31803	0.365
Mof_C 	C 	0.43244	0.10744	0.30092	-0.075
Mof_C 	C 	0.42281	0.11695	0.27169	-0.024
Mof_H 	H 	0.4328	0.1343	0.262	0.053
Mof_H 	H 	0.303	0.0886	0.1664	0.159
Mof_H 	H 	0.3134	0.1012	0.2001	0.041
Mof_H 	H 	0.3361	0.0784	0.1809	-0.055
Mof_H 	H 	0.343	0.0791	0.1875	-0.043
Mof_H 	H 	0.3462	0.069	0.1698	0.006
Mof_H 	H 	0.309	0.0901	0.1764	-0.164
Mof_O 	O 	0.96784	0.61208	0.34274	-0.41
Mof_O 	O 	0.96799	0.649	0.3054	-0.41
Mof_C 	C 	0.95865	0.62422	0.31803	0.364
Mof_C 	C 	0.93244	0.60744	0.30092	-0.074
Mof_C 	C 	0.92281	0.61695	0.27169	-0.024
Mof_H 	H 	0.9328	0.6343	0.262	0.054
Mof_H 	H 	0.803	0.5886	0.1664	0.16
Mof_H 	H 	0.8134	0.6012	0.2001	0.041
Mof_H 	H 	0.8361	0.5784	0.1809	-0.054
Mof_H 	H 	0.843	0.5791	0.1875	-0.043
Mof_H 	H 	0.8462	0.569	0.1698	0.007
Mof_H 	H 	0.809	0.5901	0.1764	-0.165
Mof_O 	O 	0.96784	0.11208	0.84274	-0.41
Mof_O 	O 	0.96799	0.149	0.8054	-0.41
Mof_C 	C 	0.95865	0.12422	0.81803	0.364
Mof_C 	C 	0.93244	0.10744	0.80092	-0.074
Mof_C 	C 	0.92281	0.11695	0.77169	-0.024
Mof_H 	H 	0.9328	0.1343	0.762	0.054
Mof_H 	H 	0.803	0.0886	0.6664	0.159
Mof_H 	H 	0.8134	0.1012	0.7001	0.041
Mof_H 	H 	0.8361	0.0784	0.6809	-0.054
Mof_H 	H 	0.843	0.0791	0.6875	-0.043
Mof_H 	H 	0.8462	0.069	0.6698	0.006
Mof_H 	H 	0.809	0.0901	0.6764	-0.165
Mof_O 	O 	0.84274	0.61208	0.46784	-0.413
Mof_O 	O 	0.8054	0.649	0.46799	-0.413
Mof_C 	C 	0.81803	0.62422	0.45865	0.364
Mof_C 	C 	0.80092	0.60744	0.43244	-0.075
Mof_C 	C 	0.77169	0.61695	0.42281	-0.024
Mof_H 	H 	0.762	0.6343	0.4328	0.053
Mof_H 	H 	0.6664	0.5886	0.303	0.16
Mof_H 	H 	0.7001	0.6012	0.3134	0.041
Mof_H 	H 	0.6809	0.5784	0.3361	-0.055
Mof_H 	H 	0.6875	0.5791	0.343	-0.043
Mof_H 	H 	0.6698	0.569	0.3462	0.007
Mof_H 	H 	0.6764	0.5901	0.309	-0.165
Mof_O 	O 	0.84274	0.11208	0.96784	-0.41
Mof_O 	O 	0.8054	0.149	0.96799	-0.41
Mof_C 	C 	0.81803	0.12422	0.95865	0.364
Mof_C 	C 	0.80092	0.10744	0.93244	-0.074
Mof_C 	C 	0.77169	0.11695	0.92281	-0.024
Mof_H 	H 	0.762	0.1343	0.9328	0.054
Mof_H 	H 	0.6664	0.0886	0.803	0.159
Mof_H 	H 	0.7001	0.1012	0.8134	0.041
Mof_H 	H 	0.6809	0.0784	0.8361	-0.054
Mof_H 	H 	0.6875	0.0791	0.843	-0.043
Mof_H 	H 	0.6698	0.069	0.8462	0.006
Mof_H 	H 	0.6764	0.0901	0.809	-0.165
Mof_O 	O 	0.34274	0.61208	0.96784	-0.41
Mof_O 	O 	0.3054	0.649	0.96799	-0.41
Mof_C 	C 	0.31803	0.62422	0.95865	0.364
Mof_C 	C 	0.30092	0.60744	0.93244	-0.074
Mof_C 	C 	0.27169	0.61695	0.92281	-0.024
Mof_H 	H 	0.262	0.6343	0.9328	0.054
Mof_H 	H 	0.1664	0.5886	0.803	0.16
Mof_H 	H 	0.2001	0.6012	0.8134	0.041
Mof_H 	H 	0.1809	0.5784	0.8361	-0.054
Mof_H 	H 	0.1875	0.5791	0.843	-0.043
Mof_H 	H 	0.1698	0.569	0.8462	0.007
Mof_H 	H 	0.1764	0.5901	0.809	-0.165
Mof_O 	O 	0.34274	0.11208	0.46784	-0.413
Mof_O 	O 	0.3054	0.149	0.46799	-0.413
Mof_C 	C 	0.31803	0.12422	0.45865	0.365
Mof_C 	C 	0.30092	0.10744	0.43244	-0.075
Mof_C 	C 	0.27169	0.11695	0.42281	-0.024
Mof_H 	H 	0.262	0.1343	0.4328	0.053
Mof_H 	H 	0.1664	0.0886	0.303	0.159
Mof_H 	H 	0.2001	0.1012	0.3134	0.041
Mof_H 	H 	0.1809	0.0784	0.3361	-0.055
Mof_H 	H 	0.1875	0.0791	0.343	-0.043
Mof_H 	H 	0.1698	0.069	0.3462	0.006
Mof_H 	H 	0.1764	0.0901	0.309	-0.164
Mof_O 	O 	0.15726	0.38792	0.46784	-0.413
Mof_O 	O 	0.1946	0.351	0.46799	-0.413
Mof_C 	C 	0.18197	0.37578	0.45865	0.365
Mof_C 	C 	0.19908	0.39256	0.43244	-0.075
Mof_C 	C 	0.22831	0.38305	0.42281	-0.024
Mof_H 	H 	0.238	0.3657	0.4328	0.053
Mof_H 	H 	0.3336	0.4114	0.303	0.16
Mof_H 	H 	0.2999	0.3988	0.3134	0.041
Mof_H 	H 	0.3191	0.4216	0.3361	-0.055
Mof_H 	H 	0.3125	0.4209	0.343	-0.043
Mof_H 	H 	0.3302	0.431	0.3462	0.007
Mof_H 	H 	0.3236	0.4099	0.309	-0.165
Mof_O 	O 	0.15726	0.88792	0.96784	-0.41
Mof_O 	O 	0.1946	0.851	0.96799	-0.41
Mof_C 	C 	0.18197	0.87578	0.95865	0.364
Mof_C 	C 	0.19908	0.89256	0.93244	-0.073
Mof_C 	C 	0.22831	0.88305	0.92281	-0.024
Mof_H 	H 	0.238	0.8657	0.9328	0.054
Mof_H 	H 	0.3336	0.9114	0.803	0.161
Mof_H 	H 	0.2999	0.8988	0.8134	0.041
Mof_H 	H 	0.3191	0.9216	0.8361	-0.054
Mof_H 	H 	0.3125	0.9209	0.843	-0.044
Mof_H 	H 	0.3302	0.931	0.8462	0.008
Mof_H 	H 	0.3236	0.9099	0.809	-0.166
Mof_O 	O 	0.65726	0.38792	0.96784	-0.41
Mof_O 	O 	0.6946	0.351	0.96799	-0.41
Mof_C 	C 	0.68197	0.37578	0.95865	0.364
Mof_C 	C 	0.69908	0.39256	0.93244	-0.074
Mof_C 	C 	0.72831	0.38305	0.92281	-0.024
Mof_H 	H 	0.738	0.3657	0.9328	0.054
Mof_H 	H 	0.8336	0.4114	0.803	0.16
Mof_H 	H 	0.7999	0.3988	0.8134	0.041
Mof_H 	H 	0.8191	0.4216	0.8361	-0.055
Mof_H 	H 	0.8125	0.4209	0.843	-0.044
Mof_H 	H 	0.8302	0.431	0.8462	0.007
Mof_H 	H 	0.8236	0.4099	0.809	-0.165
Mof_O 	O 	0.65726	0.88792	0.46784	-0.412
Mof_O 	O 	0.6946	0.851	0.46799	-0.413
Mof_C 	C 	0.68197	0.87578	0.45865	0.364
Mof_C 	C 	0.69908	0.89256	0.43244	-0.074
Mof_C 	C 	0.72831	0.88305	0.42281	-0.024
Mof_H 	H 	0.738	0.8657	0.4328	0.053
Mof_H 	H 	0.8336	0.9114	0.303	0.161
Mof_H 	H 	0.7999	0.8988	0.3134	0.042
Mof_H 	H 	0.8191	0.9216	0.3361	-0.055
Mof_H 	H 	0.8125	0.9209	0.343	-0.043
Mof_H 	H 	0.8302	0.931	0.3462	0.008
Mof_H 	H 	0.8236	0.9099	0.309	-0.165
Mof_O 	O 	0.15726	0.61208	0.53216	-0.413
Mof_O 	O 	0.1946	0.649	0.53201	-0.413
Mof_C 	C 	0.18197	0.62422	0.54135	0.365
Mof_C 	C 	0.19908	0.60744	0.56756	-0.075
Mof_C 	C 	0.22831	0.61695	0.57719	-0.024
Mof_H 	H 	0.238	0.6343	0.5672	0.053
Mof_H 	H 	0.3336	0.5886	0.697	0.16
Mof_H 	H 	0.2999	0.6012	0.6866	0.041
Mof_H 	H 	0.3191	0.5784	0.6639	-0.055
Mof_H 	H 	0.3125	0.5791	0.657	-0.043
Mof_H 	H 	0.3302	0.569	0.6538	0.007
Mof_H 	H 	0.3236	0.5901	0.691	-0.165
Mof_O 	O 	0.15726	0.11208	0.03216	-0.415
Mof_O 	O 	0.1946	0.149	0.03201	-0.415
Mof_C 	C 	0.18197	0.12422	0.04135	0.365
Mof_C 	C 	0.19908	0.10744	0.06756	-0.076
Mof_C 	C 	0.22831	0.11695	0.07719	-0.023
Mof_H 	H 	0.238	0.1343	0.0672	0.052
Mof_H 	H 	0.3336	0.0886	0.197	0.158
Mof_H 	H 	0.2999	0.1012	0.1866	0.041
Mof_H 	H 	0.3191	0.0784	0.1639	-0.055
Mof_H 	H 	0.3125	0.0791	0.157	-0.043
Mof_H 	H 	0.3302	0.069	0.1538	0.006
Mof_H 	H 	0.3236	0.0901	0.191	-0.164
Mof_O 	O 	0.65726	0.61208	0.03216	-0.415
Mof_O 	O 	0.6946	0.649	0.03201	-0.415
Mof_C 	C 	0.68197	0.62422	0.04135	0.365
Mof_C 	C 	0.69908	0.60744	0.06756	-0.076
Mof_C 	C 	0.72831	0.61695	0.07719	-0.024
Mof_H 	H 	0.738	0.6343	0.0672	0.053
Mof_H 	H 	0.8336	0.5886	0.197	0.159
Mof_H 	H 	0.7999	0.6012	0.1866	0.041
Mof_H 	H 	0.8191	0.5784	0.1639	-0.055
Mof_H 	H 	0.8125	0.5791	0.157	-0.043
Mof_H 	H 	0.8302	0.569	0.1538	0.007
Mof_H 	H 	0.8236	0.5901	0.191	-0.164
Mof_O 	O 	0.65726	0.11208	0.53216	-0.413
Mof_O 	O 	0.6946	0.149	0.53201	-0.413
Mof_C 	C 	0.68197	0.12422	0.54135	0.365
Mof_C 	C 	0.69908	0.10744	0.56756	-0.075
Mof_C 	C 	0.72831	0.11695	0.57719	-0.024
Mof_H 	H 	0.738	0.1343	0.5672	0.053
Mof_H 	H 	0.8336	0.0886	0.697	0.159
Mof_H 	H 	0.7999	0.1012	0.6866	0.041
Mof_H 	H 	0.8191	0.0784	0.6639	-0.055
Mof_H 	H 	0.8125	0.0791	0.657	-0.043
Mof_H 	H 	0.8302	0.069	0.6538	0.006
Mof_H 	H 	0.8236	0.0901	0.691	-0.164
Mof_O 	O 	0.84274	0.38792	0.53216	-0.413
Mof_O 	O 	0.8054	0.351	0.53201	-0.413
Mof_C 	C 	0.81803	0.37578	0.54135	0.364
Mof_C 	C 	0.80092	0.39256	0.56756	-0.075
Mof_C 	C 	0.77169	0.38305	0.57719	-0.024
Mof_H 	H 	0.762	0.3657	0.5672	0.053
Mof_H 	H 	0.6664	0.4114	0.697	0.16
Mof_H 	H 	0.7001	0.3988	0.6866	0.041
Mof_H 	H 	0.6809	0.4216	0.6639	-0.055
Mof_H 	H 	0.6875	0.4209	0.657	-0.043
Mof_H 	H 	0.6698	0.431	0.6538	0.007
Mof_H 	H 	0.6764	0.4099	0.691	-0.165
Mof_O 	O 	0.84274	0.88792	0.03216	-0.414
Mof_O 	O 	0.8054	0.851	0.03201	-0.415
Mof_C 	C 	0.81803	0.87578	0.04135	0.364
Mof_C 	C 	0.80092	0.89256	0.06756	-0.075
Mof_C 	C 	0.77169	0.88305	0.07719	-0.024
Mof_H 	H 	0.762	0.8657	0.0672	0.053
Mof_H 	H 	0.6664	0.9114	0.197	0.16
Mof_H 	H 	0.7001	0.8988	0.1866	0.041
Mof_H 	H 	0.6809	0.9216	0.1639	-0.055
Mof_H 	H 	0.6875	0.9209	0.157	-0.043
Mof_H 	H 	0.6698	0.931	0.1538	0.008
Mof_H 	H 	0.6764	0.9099	0.191	-0.165
Mof_O 	O 	0.34274	0.38792	0.03216	-0.415
Mof_O 	O 	0.3054	0.351	0.03201	-0.415
Mof_C 	C 	0.31803	0.37578	0.04135	0.365
Mof_C 	C 	0.30092	0.39256	0.06756	-0.076
Mof_C 	C 	0.27169	0.38305	0.07719	-0.024
Mof_H 	H 	0.262	0.3657	0.0672	0.053
Mof_H 	H 	0.1664	0.4114	0.197	0.159
Mof_H 	H 	0.2001	0.3988	0.1866	0.041
Mof_H 	H 	0.1809	0.4216	0.1639	-0.055
Mof_H 	H 	0.1875	0.4209	0.157	-0.042
Mof_H 	H 	0.1698	0.431	0.1538	0.007
Mof_H 	H 	0.1764	0.4099	0.191	-0.164
Mof_O 	O 	0.34274	0.88792	0.53216	-0.412
Mof_O 	O 	0.3054	0.851	0.53201	-0.413
Mof_C 	C 	0.31803	0.87578	0.54135	0.364
Mof_C 	C 	0.30092	0.89256	0.56756	-0.074
Mof_C 	C 	0.27169	0.88305	0.57719	-0.024
Mof_H 	H 	0.262	0.8657	0.5672	0.053
Mof_H 	H 	0.1664	0.9114	0.697	0.16
Mof_H 	H 	0.2001	0.8988	0.6866	0.041
Mof_H 	H 	0.1809	0.9216	0.6639	-0.055
Mof_H 	H 	0.1875	0.9209	0.657	-0.043
Mof_H 	H 	0.1698	0.931	0.6538	0.008
Mof_H 	H 	0.1764	0.9099	0.691	-0.165
Mof_O 	O 	0.46784	0.84274	0.61208	-0.413
Mof_O 	O 	0.46799	0.8054	0.649	-0.413
Mof_C 	C 	0.45865	0.81803	0.62422	0.364
Mof_C 	C 	0.43244	0.80092	0.60744	-0.075
Mof_C 	C 	0.42281	0.77169	0.61695	-0.024
Mof_H 	H 	0.4328	0.762	0.6343	0.053
Mof_H 	H 	0.303	0.6664	0.5886	0.16
Mof_H 	H 	0.3134	0.7001	0.6012	0.041
Mof_H 	H 	0.3361	0.6809	0.5784	-0.055
Mof_H 	H 	0.343	0.6875	0.5791	-0.043
Mof_H 	H 	0.3462	0.6698	0.569	0.007
Mof_H 	H 	0.309	0.6764	0.5901	-0.165
Mof_O 	O 	0.46784	0.34274	0.11208	-0.413
Mof_O 	O 	0.46799	0.3054	0.149	-0.413
Mof_C 	C 	0.45865	0.31803	0.12422	0.365
Mof_C 	C 	0.43244	0.30092	0.10744	-0.075
Mof_C 	C 	0.42281	0.27169	0.11695	-0.024
Mof_H 	H 	0.4328	0.262	0.1343	0.053
Mof_H 	H 	0.303	0.1664	0.0886	0.159
Mof_H 	H 	0.3134	0.2001	0.1012	0.041
Mof_H 	H 	0.3361	0.1809	0.0784	-0.055
Mof_H 	H 	0.343	0.1875	0.0791	-0.043
Mof_H 	H 	0.3462	0.1698	0.069	0.006
Mof_H 	H 	0.309	0.1764	0.0901	-0.164
Mof_O 	O 	0.96784	0.84274	0.11208	-0.41
Mof_O 	O 	0.96799	0.8054	0.149	-0.41
Mof_C 	C 	0.95865	0.81803	0.12422	0.364
Mof_C 	C 	0.93244	0.80092	0.10744	-0.074
Mof_C 	C 	0.92281	0.77169	0.11695	-0.024
Mof_H 	H 	0.9328	0.762	0.1343	0.054
Mof_H 	H 	0.803	0.6664	0.0886	0.159
Mof_H 	H 	0.8134	0.7001	0.1012	0.041
Mof_H 	H 	0.8361	0.6809	0.0784	-0.054
Mof_H 	H 	0.843	0.6875	0.0791	-0.043
Mof_H 	H 	0.8462	0.6698	0.069	0.006
Mof_H 	H 	0.809	0.6764	0.0901	-0.165
Mof_O 	O 	0.96784	0.34274	0.61208	-0.41
Mof_O 	O 	0.96799	0.3054	0.649	-0.41
Mof_C 	C 	0.95865	0.31803	0.62422	0.364
Mof_C 	C 	0.93244	0.30092	0.60744	-0.074
Mof_C 	C 	0.92281	0.27169	0.61695	-0.024
Mof_H 	H 	0.9328	0.262	0.6343	0.054
Mof_H 	H 	0.803	0.1664	0.5886	0.16
Mof_H 	H 	0.8134	0.2001	0.6012	0.041
Mof_H 	H 	0.8361	0.1809	0.5784	-0.054
Mof_H 	H 	0.843	0.1875	0.5791	-0.043
Mof_H 	H 	0.8462	0.1698	0.569	0.007
Mof_H 	H 	0.809	0.1764	0.5901	-0.165
Mof_O 	O 	0.46784	0.15726	0.38792	-0.413
Mof_O 	O 	0.46799	0.1946	0.351	-0.413
Mof_C 	C 	0.45865	0.18197	0.37578	0.365
Mof_C 	C 	0.43244	0.19908	0.39256	-0.075
Mof_C 	C 	0.42281	0.22831	0.38305	-0.024
Mof_H 	H 	0.4328	0.238	0.3657	0.053
Mof_H 	H 	0.303	0.3336	0.4114	0.16
Mof_H 	H 	0.3134	0.2999	0.3988	0.041
Mof_H 	H 	0.3361	0.3191	0.4216	-0.055
Mof_H 	H 	0.343	0.3125	0.4209	-0.043
Mof_H 	H 	0.3462	0.3302	0.431	0.007
Mof_H 	H 	0.309	0.3236	0.4099	-0.165
Mof_O 	O 	0.46784	0.65726	0.88792	-0.412
Mof_O 	O 	0.46799	0.6946	0.851	-0.413
Mof_C 	C 	0.45865	0.68197	0.87578	0.364
Mof_C 	C 	0.43244	0.69908	0.89256	-0.074
Mof_C 	C 	0.42281	0.72831	0.88305	-0.024
Mof_H 	H 	0.4328	0.738	0.8657	0.053
Mof_H 	H 	0.303	0.8336	0.9114	0.161
Mof_H 	H 	0.3134	0.7999	0.8988	0.042
Mof_H 	H 	0.3361	0.8191	0.9216	-0.055
Mof_H 	H 	0.343	0.8125	0.9209	-0.043
Mof_H 	H 	0.3462	0.8302	0.931	0.008
Mof_H 	H 	0.309	0.8236	0.9099	-0.165
Mof_O 	O 	0.96784	0.15726	0.88792	-0.41
Mof_O 	O 	0.96799	0.1946	0.851	-0.41
Mof_C 	C 	0.95865	0.18197	0.87578	0.364
Mof_C 	C 	0.93244	0.19908	0.89256	-0.073
Mof_C 	C 	0.92281	0.22831	0.88305	-0.024
Mof_H 	H 	0.9328	0.238	0.8657	0.054
Mof_H 	H 	0.803	0.3336	0.9114	0.161
Mof_H 	H 	0.8134	0.2999	0.8988	0.041
Mof_H 	H 	0.8361	0.3191	0.9216	-0.054
Mof_H 	H 	0.843	0.3125	0.9209	-0.044
Mof_H 	H 	0.8462	0.3302	0.931	0.008
Mof_H 	H 	0.809	0.3236	0.9099	-0.166
Mof_O 	O 	0.96784	0.65726	0.38792	-0.41
Mof_O 	O 	0.96799	0.6946	0.351	-0.41
Mof_C 	C 	0.95865	0.68197	0.37578	0.364
Mof_C 	C 	0.93244	0.69908	0.39256	-0.074
Mof_C 	C 	0.92281	0.72831	0.38305	-0.024
Mof_H 	H 	0.9328	0.738	0.3657	0.054
Mof_H 	H 	0.803	0.8336	0.4114	0.16
Mof_H 	H 	0.8134	0.7999	0.3988	0.041
Mof_H 	H 	0.8361	0.8191	0.4216	-0.055
Mof_H 	H 	0.843	0.8125	0.4209	-0.044
Mof_H 	H 	0.8462	0.8302	0.431	0.007
Mof_H 	H 	0.809	0.8236	0.4099	-0.165
Mof_O 	O 	0.53216	0.15726	0.61208	-0.413
Mof_O 	O 	0.53201	0.1946	0.649	-0.413
Mof_C 	C 	0.54135	0.18197	0.62422	0.365
Mof_C 	C 	0.56756	0.19908	0.60744	-0.075
Mof_C 	C 	0.57719	0.22831	0.61695	-0.024
Mof_H 	H 	0.5672	0.238	0.6343	0.053
Mof_H 	H 	0.697	0.3336	0.5886	0.16
Mof_H 	H 	0.6866	0.2999	0.6012	0.041
Mof_H 	H 	0.6639	0.3191	0.5784	-0.055
Mof_H 	H 	0.657	0.3125	0.5791	-0.043
Mof_H 	H 	0.6538	0.3302	0.569	0.007
Mof_H 	H 	0.691	0.3236	0.5901	-0.165
Mof_O 	O 	0.53216	0.65726	0.11208	-0.413
Mof_O 	O 	0.53201	0.6946	0.149	-0.413
Mof_C 	C 	0.54135	0.68197	0.12422	0.365
Mof_C 	C 	0.56756	0.69908	0.10744	-0.075
Mof_C 	C 	0.57719	0.72831	0.11695	-0.024
Mof_H 	H 	0.5672	0.738	0.1343	0.053
Mof_H 	H 	0.697	0.8336	0.0886	0.159
Mof_H 	H 	0.6866	0.7999	0.1012	0.041
Mof_H 	H 	0.6639	0.8191	0.0784	-0.055
Mof_H 	H 	0.657	0.8125	0.0791	-0.043
Mof_H 	H 	0.6538	0.8302	0.069	0.006
Mof_H 	H 	0.691	0.8236	0.0901	-0.164
Mof_O 	O 	0.03216	0.15726	0.11208	-0.415
Mof_O 	O 	0.03201	0.1946	0.149	-0.415
Mof_C 	C 	0.04135	0.18197	0.12422	0.365
Mof_C 	C 	0.06756	0.19908	0.10744	-0.076
Mof_C 	C 	0.07719	0.22831	0.11695	-0.023
Mof_H 	H 	0.0672	0.238	0.1343	0.052
Mof_H 	H 	0.197	0.3336	0.0886	0.158
Mof_H 	H 	0.1866	0.2999	0.1012	0.041
Mof_H 	H 	0.1639	0.3191	0.0784	-0.055
Mof_H 	H 	0.157	0.3125	0.0791	-0.043
Mof_H 	H 	0.1538	0.3302	0.069	0.006
Mof_H 	H 	0.191	0.3236	0.0901	-0.164
Mof_O 	O 	0.03216	0.65726	0.61208	-0.415
Mof_O 	O 	0.03201	0.6946	0.649	-0.415
Mof_C 	C 	0.04135	0.68197	0.62422	0.365
Mof_C 	C 	0.06756	0.69908	0.60744	-0.076
Mof_C 	C 	0.07719	0.72831	0.61695	-0.024
Mof_H 	H 	0.0672	0.738	0.6343	0.053
Mof_H 	H 	0.197	0.8336	0.5886	0.159
Mof_H 	H 	0.1866	0.7999	0.6012	0.041
Mof_H 	H 	0.1639	0.8191	0.5784	-0.055
Mof_H 	H 	0.157	0.8125	0.5791	-0.043
Mof_H 	H 	0.1538	0.8302	0.569	0.007
Mof_H 	H 	0.191	0.8236	0.5901	-0.164
Mof_O 	O 	0.53216	0.84274	0.38792	-0.413
Mof_O 	O 	0.53201	0.8054	0.351	-0.413
Mof_C 	C 	0.54135	0.81803	0.37578	0.364
Mof_C 	C 	0.56756	0.80092	0.39256	-0.075
Mof_C 	C 	0.57719	0.77169	0.38305	-0.024
Mof_H 	H 	0.5672	0.762	0.3657	0.053
Mof_H 	H 	0.697	0.6664	0.4114	0.16
Mof_H 	H 	0.6866	0.7001	0.3988	0.041
Mof_H 	H 	0.6639	0.6809	0.4216	-0.055
Mof_H 	H 	0.657	0.6875	0.4209	-0.043
Mof_H 	H 	0.6538	0.6698	0.431	0.007
Mof_H 	H 	0.691	0.6764	0.4099	-0.165
Mof_O 	O 	0.53216	0.34274	0.88792	-0.412
Mof_O 	O 	0.53201	0.3054	0.851	-0.413
Mof_C 	C 	0.54135	0.31803	0.87578	0.364
Mof_C 	C 	0.56756	0.30092	0.89256	-0.074
Mof_C 	C 	0.57719	0.27169	0.88305	-0.024
Mof_H 	H 	0.5672	0.262	0.8657	0.053
Mof_H 	H 	0.697	0.1664	0.9114	0.16
Mof_H 	H 	0.6866	0.2001	0.8988	0.041
Mof_H 	H 	0.6639	0.1809	0.9216	-0.055
Mof_H 	H 	0.657	0.1875	0.9209	-0.043
Mof_H 	H 	0.6538	0.1698	0.931	0.008
Mof_H 	H 	0.691	0.1764	0.9099	-0.165
Mof_O 	O 	0.03216	0.84274	0.88792	-0.414
Mof_O 	O 	0.03201	0.8054	0.851	-0.415
Mof_C 	C 	0.04135	0.81803	0.87578	0.364
Mof_C 	C 	0.06756	0.80092	0.89256	-0.075
Mof_C 	C 	0.07719	0.77169	0.88305	-0.024
Mof_H 	H 	0.0672	0.762	0.8657	0.053
Mof_H 	H 	0.197	0.6664	0.9114	0.16
Mof_H 	H 	0.1866	0.7001	0.8988	0.041
Mof_H 	H 	0.1639	0.6809	0.9216	-0.055
Mof_H 	H 	0.157	0.6875	0.9209	-0.043
Mof_H 	H 	0.1538	0.6698	0.931	0.008
Mof_H 	H 	0.191	0.6764	0.9099	-0.165
Mof_O 	O 	0.03216	0.34274	0.38792	-0.415
Mof_O 	O 	0.03201	0.3054	0.351	-0.415
Mof_C 	C 	0.04135	0.31803	0.37578	0.365
Mof_C 	C 	0.06756	0.30092	0.39256	-0.076
Mof_C 	C 	0.07719	0.27169	0.38305	-0.024
Mof_H 	H 	0.0672	0.262	0.3657	0.053
Mof_H 	H 	0.197	0.1664	0.4114	0.159
Mof_H 	H 	0.1866	0.2001	0.3988	0.041
Mof_H 	H 	0.1639	0.1809	0.4216	-0.055
Mof_H 	H 	0.157	0.1875	0.4209	-0.042
Mof_H 	H 	0.1538	0.1698	0.431	0.007
Mof_H 	H 	0.191	0.1764	0.4099	-0.164
Mof_O 	O 	0.61208	0.46784	0.84274	-0.413
Mof_O 	O 	0.649	0.46799	0.8054	-0.413
Mof_C 	C 	0.62422	0.45865	0.81803	0.364
Mof_C 	C 	0.60744	0.43244	0.80092	-0.075
Mof_C 	C 	0.61695	0.42281	0.77169	-0.024
Mof_H 	H 	0.6343	0.4328	0.762	0.053
Mof_H 	H 	0.5886	0.303	0.6664	0.16
Mof_H 	H 	0.6012	0.3134	0.7001	0.041
Mof_H 	H 	0.5784	0.3361	0.6809	-0.055
Mof_H 	H 	0.5791	0.343	0.6875	-0.043
Mof_H 	H 	0.569	0.3462	0.6698	0.007
Mof_H 	H 	0.5901	0.309	0.6764	-0.165
Mof_O 	O 	0.61208	0.96784	0.34274	-0.41
Mof_O 	O 	0.649	0.96799	0.3054	-0.41
Mof_C 	C 	0.62422	0.95865	0.31803	0.364
Mof_C 	C 	0.60744	0.93244	0.30092	-0.074
Mof_C 	C 	0.61695	0.92281	0.27169	-0.024
Mof_H 	H 	0.6343	0.9328	0.262	0.054
Mof_H 	H 	0.5886	0.803	0.1664	0.16
Mof_H 	H 	0.6012	0.8134	0.2001	0.041
Mof_H 	H 	0.5784	0.8361	0.1809	-0.054
Mof_H 	H 	0.5791	0.843	0.1875	-0.043
Mof_H 	H 	0.569	0.8462	0.1698	0.007
Mof_H 	H 	0.5901	0.809	0.1764	-0.165
Mof_O 	O 	0.11208	0.46784	0.34274	-0.413
Mof_O 	O 	0.149	0.46799	0.3054	-0.413
Mof_C 	C 	0.12422	0.45865	0.31803	0.365
Mof_C 	C 	0.10744	0.43244	0.30092	-0.075
Mof_C 	C 	0.11695	0.42281	0.27169	-0.024
Mof_H 	H 	0.1343	0.4328	0.262	0.053
Mof_H 	H 	0.0886	0.303	0.1664	0.159
Mof_H 	H 	0.1012	0.3134	0.2001	0.041
Mof_H 	H 	0.0784	0.3361	0.1809	-0.055
Mof_H 	H 	0.0791	0.343	0.1875	-0.043
Mof_H 	H 	0.069	0.3462	0.1698	0.006
Mof_H 	H 	0.0901	0.309	0.1764	-0.164
Mof_O 	O 	0.11208	0.96784	0.84274	-0.41
Mof_O 	O 	0.149	0.96799	0.8054	-0.41
Mof_C 	C 	0.12422	0.95865	0.81803	0.364
Mof_C 	C 	0.10744	0.93244	0.80092	-0.074
Mof_C 	C 	0.11695	0.92281	0.77169	-0.024
Mof_H 	H 	0.1343	0.9328	0.762	0.054
Mof_H 	H 	0.0886	0.803	0.6664	0.159
Mof_H 	H 	0.1012	0.8134	0.7001	0.041
Mof_H 	H 	0.0784	0.8361	0.6809	-0.054
Mof_H 	H 	0.0791	0.843	0.6875	-0.043
Mof_H 	H 	0.069	0.8462	0.6698	0.006
Mof_H 	H 	0.0901	0.809	0.6764	-0.165
Mof_O 	O 	0.38792	0.46784	0.15726	-0.413
Mof_O 	O 	0.351	0.46799	0.1946	-0.413
Mof_C 	C 	0.37578	0.45865	0.18197	0.365
Mof_C 	C 	0.39256	0.43244	0.19908	-0.075
Mof_C 	C 	0.38305	0.42281	0.22831	-0.024
Mof_H 	H 	0.3657	0.4328	0.238	0.053
Mof_H 	H 	0.4114	0.303	0.3336	0.16
Mof_H 	H 	0.3988	0.3134	0.2999	0.041
Mof_H 	H 	0.4216	0.3361	0.3191	-0.055
Mof_H 	H 	0.4209	0.343	0.3125	-0.043
Mof_H 	H 	0.431	0.3462	0.3302	0.007
Mof_H 	H 	0.4099	0.309	0.3236	-0.165
Mof_O 	O 	0.38792	0.96784	0.65726	-0.41
Mof_O 	O 	0.351	0.96799	0.6946	-0.41
Mof_C 	C 	0.37578	0.95865	0.68197	0.364
Mof_C 	C 	0.39256	0.93244	0.69908	-0.074
Mof_C 	C 	0.38305	0.92281	0.72831	-0.024
Mof_H 	H 	0.3657	0.9328	0.738	0.054
Mof_H 	H 	0.4114	0.803	0.8336	0.16
Mof_H 	H 	0.3988	0.8134	0.7999	0.041
Mof_H 	H 	0.4216	0.8361	0.8191	-0.055
Mof_H 	H 	0.4209	0.843	0.8125	-0.044
Mof_H 	H 	0.431	0.8462	0.8302	0.007
Mof_H 	H 	0.4099	0.809	0.8236	-0.165
Mof_O 	O 	0.88792	0.46784	0.65726	-0.412
Mof_O 	O 	0.851	0.46799	0.6946	-0.413
Mof_C 	C 	0.87578	0.45865	0.68197	0.364
Mof_C 	C 	0.89256	0.43244	0.69908	-0.074
Mof_C 	C 	0.88305	0.42281	0.72831	-0.024
Mof_H 	H 	0.8657	0.4328	0.738	0.053
Mof_H 	H 	0.9114	0.303	0.8336	0.161
Mof_H 	H 	0.8988	0.3134	0.7999	0.042
Mof_H 	H 	0.9216	0.3361	0.8191	-0.055
Mof_H 	H 	0.9209	0.343	0.8125	-0.043
Mof_H 	H 	0.931	0.3462	0.8302	0.008
Mof_H 	H 	0.9099	0.309	0.8236	-0.165
Mof_O 	O 	0.88792	0.96784	0.15726	-0.41
Mof_O 	O 	0.851	0.96799	0.1946	-0.41
Mof_C 	C 	0.87578	0.95865	0.18197	0.364
Mof_C 	C 	0.89256	0.93244	0.19908	-0.073
Mof_C 	C 	0.88305	0.92281	0.22831	-0.024
Mof_H 	H 	0.8657	0.9328	0.238	0.054
Mof_H 	H 	0.9114	0.803	0.3336	0.161
Mof_H 	H 	0.8988	0.8134	0.2999	0.041
Mof_H 	H 	0.9216	0.8361	0.3191	-0.054
Mof_H 	H 	0.9209	0.843	0.3125	-0.044
Mof_H 	H 	0.931	0.8462	0.3302	0.008
Mof_H 	H 	0.9099	0.809	0.3236	-0.166
Mof_O 	O 	0.61208	0.53216	0.15726	-0.413
Mof_O 	O 	0.649	0.53201	0.1946	-0.413
Mof_C 	C 	0.62422	0.54135	0.18197	0.365
Mof_C 	C 	0.60744	0.56756	0.19908	-0.075
Mof_C 	C 	0.61695	0.57719	0.22831	-0.024
Mof_H 	H 	0.6343	0.5672	0.238	0.053
Mof_H 	H 	0.5886	0.697	0.3336	0.16
Mof_H 	H 	0.6012	0.6866	0.2999	0.041
Mof_H 	H 	0.5784	0.6639	0.3191	-0.055
Mof_H 	H 	0.5791	0.657	0.3125	-0.043
Mof_H 	H 	0.569	0.6538	0.3302	0.007
Mof_H 	H 	0.5901	0.691	0.3236	-0.165
Mof_O 	O 	0.61208	0.03216	0.65726	-0.415
Mof_O 	O 	0.649	0.03201	0.6946	-0.415
Mof_C 	C 	0.62422	0.04135	0.68197	0.365
Mof_C 	C 	0.60744	0.06756	0.69908	-0.076
Mof_C 	C 	0.61695	0.07719	0.72831	-0.024
Mof_H 	H 	0.6343	0.0672	0.738	0.053
Mof_H 	H 	0.5886	0.197	0.8336	0.159
Mof_H 	H 	0.6012	0.1866	0.7999	0.041
Mof_H 	H 	0.5784	0.1639	0.8191	-0.055
Mof_H 	H 	0.5791	0.157	0.8125	-0.043
Mof_H 	H 	0.569	0.1538	0.8302	0.007
Mof_H 	H 	0.5901	0.191	0.8236	-0.164
Mof_O 	O 	0.11208	0.53216	0.65726	-0.413
Mof_O 	O 	0.149	0.53201	0.6946	-0.413
Mof_C 	C 	0.12422	0.54135	0.68197	0.365
Mof_C 	C 	0.10744	0.56756	0.69908	-0.075
Mof_C 	C 	0.11695	0.57719	0.72831	-0.024
Mof_H 	H 	0.1343	0.5672	0.738	0.053
Mof_H 	H 	0.0886	0.697	0.8336	0.159
Mof_H 	H 	0.1012	0.6866	0.7999	0.041
Mof_H 	H 	0.0784	0.6639	0.8191	-0.055
Mof_H 	H 	0.0791	0.657	0.8125	-0.043
Mof_H 	H 	0.069	0.6538	0.8302	0.006
Mof_H 	H 	0.0901	0.691	0.8236	-0.164
Mof_O 	O 	0.11208	0.03216	0.15726	-0.415
Mof_O 	O 	0.149	0.03201	0.1946	-0.415
Mof_C 	C 	0.12422	0.04135	0.18197	0.365
Mof_C 	C 	0.10744	0.06756	0.19908	-0.076
Mof_C 	C 	0.11695	0.07719	0.22831	-0.023
Mof_H 	H 	0.1343	0.0672	0.238	0.052
Mof_H 	H 	0.0886	0.197	0.3336	0.158
Mof_H 	H 	0.1012	0.1866	0.2999	0.041
Mof_H 	H 	0.0784	0.1639	0.3191	-0.055
Mof_H 	H 	0.0791	0.157	0.3125	-0.043
Mof_H 	H 	0.069	0.1538	0.3302	0.006
Mof_H 	H 	0.0901	0.191	0.3236	-0.164
Mof_O 	O 	0.38792	0.53216	0.84274	-0.413
Mof_O 	O 	0.351	0.53201	0.8054	-0.413
Mof_C 	C 	0.37578	0.54135	0.81803	0.364
Mof_C 	C 	0.39256	0.56756	0.80092	-0.075
Mof_C 	C 	0.38305	0.57719	0.77169	-0.024
Mof_H 	H 	0.3657	0.5672	0.762	0.053
Mof_H 	H 	0.4114	0.697	0.6664	0.16
Mof_H 	H 	0.3988	0.6866	0.7001	0.041
Mof_H 	H 	0.4216	0.6639	0.6809	-0.055
Mof_H 	H 	0.4209	0.657	0.6875	-0.043
Mof_H 	H 	0.431	0.6538	0.6698	0.007
Mof_H 	H 	0.4099	0.691	0.6764	-0.165
Mof_O 	O 	0.38792	0.03216	0.34274	-0.415
Mof_O 	O 	0.351	0.03201	0.3054	-0.415
Mof_C 	C 	0.37578	0.04135	0.31803	0.365
Mof_C 	C 	0.39256	0.06756	0.30092	-0.076
Mof_C 	C 	0.38305	0.07719	0.27169	-0.024
Mof_H 	H 	0.3657	0.0672	0.262	0.053
Mof_H 	H 	0.4114	0.197	0.1664	0.159
Mof_H 	H 	0.3988	0.1866	0.2001	0.041
Mof_H 	H 	0.4216	0.1639	0.1809	-0.055
Mof_H 	H 	0.4209	0.157	0.1875	-0.042
Mof_H 	H 	0.431	0.1538	0.1698	0.007
Mof_H 	H 	0.4099	0.191	0.1764	-0.164
Mof_O 	O 	0.88792	0.53216	0.34274	-0.412
Mof_O 	O 	0.851	0.53201	0.3054	-0.413
Mof_C 	C 	0.87578	0.54135	0.31803	0.364
Mof_C 	C 	0.89256	0.56756	0.30092	-0.074
Mof_C 	C 	0.88305	0.57719	0.27169	-0.024
Mof_H 	H 	0.8657	0.5672	0.262	0.053
Mof_H 	H 	0.9114	0.697	0.1664	0.16
Mof_H 	H 	0.8988	0.6866	0.2001	0.041
Mof_H 	H 	0.9216	0.6639	0.1809	-0.055
Mof_H 	H 	0.9209	0.657	0.1875	-0.043
Mof_H 	H 	0.931	0.6538	0.1698	0.008
Mof_H 	H 	0.9099	0.691	0.1764	-0.165
Mof_O 	O 	0.88792	0.03216	0.84274	-0.414
Mof_O 	O 	0.851	0.03201	0.8054	-0.415
Mof_C 	C 	0.87578	0.04135	0.81803	0.364
Mof_C 	C 	0.89256	0.06756	0.80092	-0.075
Mof_C 	C 	0.88305	0.07719	0.77169	-0.024
Mof_H 	H 	0.8657	0.0672	0.762	0.053
Mof_H 	H 	0.9114	0.197	0.6664	0.16
Mof_H 	H 	0.8988	0.1866	0.7001	0.041
Mof_H 	H 	0.9216	0.1639	0.6809	-0.055
Mof_H 	H 	0.9209	0.157	0.6875	-0.043
Mof_H 	H 	0.931	0.1538	0.6698	0.008
Mof_H 	H 	0.9099	0.191	0.6764	-0.165
Mof_O 	O 	0.61208	0.84274	0.53216	-0.413
Mof_O 	O 	0.649	0.8054	0.53201	-0.413
Mof_C 	C 	0.62422	0.81803	0.54135	0.364
Mof_C 	C 	0.60744	0.80092	0.56756	-0.075
Mof_C 	C 	0.61695	0.77169	0.57719	-0.024
Mof_H 	H 	0.6343	0.762	0.5672	0.053
Mof_H 	H 	0.5886	0.6664	0.697	0.16
Mof_H 	H 	0.6012	0.7001	0.6866	0.041
Mof_H 	H 	0.5784	0.6809	0.6639	-0.055
Mof_H 	H 	0.5791	0.6875	0.657	-0.043
Mof_H 	H 	0.569	0.6698	0.6538	0.007
Mof_H 	H 	0.5901	0.6764	0.691	-0.165
Mof_O 	O 	0.61208	0.34274	0.03216	-0.415
Mof_O 	O 	0.649	0.3054	0.03201	-0.415
Mof_C 	C 	0.62422	0.31803	0.04135	0.365
Mof_C 	C 	0.60744	0.30092	0.06756	-0.076
Mof_C 	C 	0.61695	0.27169	0.07719	-0.024
Mof_H 	H 	0.6343	0.262	0.0672	0.053
Mof_H 	H 	0.5886	0.1664	0.197	0.159
Mof_H 	H 	0.6012	0.2001	0.1866	0.041
Mof_H 	H 	0.5784	0.1809	0.1639	-0.055
Mof_H 	H 	0.5791	0.1875	0.157	-0.042
Mof_H 	H 	0.569	0.1698	0.1538	0.007
Mof_H 	H 	0.5901	0.1764	0.191	-0.164
Mof_O 	O 	0.11208	0.84274	0.03216	-0.415
Mof_O 	O 	0.149	0.8054	0.03201	-0.415
Mof_C 	C 	0.12422	0.81803	0.04135	0.365
Mof_C 	C 	0.10744	0.80092	0.06756	-0.076
Mof_C 	C 	0.11695	0.77169	0.07719	-0.024
Mof_H 	H 	0.1343	0.762	0.0672	0.052
Mof_H 	H 	0.0886	0.6664	0.197	0.158
Mof_H 	H 	0.1012	0.7001	0.1866	0.041
Mof_H 	H 	0.0784	0.6809	0.1639	-0.055
Mof_H 	H 	0.0791	0.6875	0.157	-0.043
Mof_H 	H 	0.069	0.6698	0.1538	0.006
Mof_H 	H 	0.0901	0.6764	0.191	-0.164
Mof_O 	O 	0.11208	0.34274	0.53216	-0.413
Mof_O 	O 	0.149	0.3054	0.53201	-0.413
Mof_C 	C 	0.12422	0.31803	0.54135	0.365
Mof_C 	C 	0.10744	0.30092	0.56756	-0.075
Mof_C 	C 	0.11695	0.27169	0.57719	-0.024
Mof_H 	H 	0.1343	0.262	0.5672	0.053
Mof_H 	H 	0.0886	0.1664	0.697	0.159
Mof_H 	H 	0.1012	0.2001	0.6866	0.041
Mof_H 	H 	0.0784	0.1809	0.6639	-0.055
Mof_H 	H 	0.0791	0.1875	0.657	-0.043
Mof_H 	H 	0.069	0.1698	0.6538	0.006
Mof_H 	H 	0.0901	0.1764	0.691	-0.164
Mof_O 	O 	0.38792	0.15726	0.53216	-0.413
Mof_O 	O 	0.351	0.1946	0.53201	-0.413
Mof_C 	C 	0.37578	0.18197	0.54135	0.365
Mof_C 	C 	0.39256	0.19908	0.56756	-0.075
Mof_C 	C 	0.38305	0.22831	0.57719	-0.024
Mof_H 	H 	0.3657	0.238	0.5672	0.053
Mof_H 	H 	0.4114	0.3336	0.697	0.16
Mof_H 	H 	0.3988	0.2999	0.6866	0.041
Mof_H 	H 	0.4216	0.3191	0.6639	-0.055
Mof_H 	H 	0.4209	0.3125	0.657	-0.043
Mof_H 	H 	0.431	0.3302	0.6538	0.007
Mof_H 	H 	0.4099	0.3236	0.691	-0.165
Mof_O 	O 	0.38792	0.65726	0.03216	-0.415
Mof_O 	O 	0.351	0.6946	0.03201	-0.415
Mof_C 	C 	0.37578	0.68197	0.04135	0.365
Mof_C 	C 	0.39256	0.69908	0.06756	-0.076
Mof_C 	C 	0.38305	0.72831	0.07719	-0.024
Mof_H 	H 	0.3657	0.738	0.0672	0.053
Mof_H 	H 	0.4114	0.8336	0.197	0.159
Mof_H 	H 	0.3988	0.7999	0.1866	0.041
Mof_H 	H 	0.4216	0.8191	0.1639	-0.055
Mof_H 	H 	0.4209	0.8125	0.157	-0.043
Mof_H 	H 	0.431	0.8302	0.1538	0.007
Mof_H 	H 	0.4099	0.8236	0.191	-0.164
Mof_O 	O 	0.88792	0.15726	0.03216	-0.414
Mof_O 	O 	0.851	0.1946	0.03201	-0.415
Mof_C 	C 	0.87578	0.18197	0.04135	0.365
Mof_C 	C 	0.89256	0.19908	0.06756	-0.075
Mof_C 	C 	0.88305	0.22831	0.07719	-0.024
Mof_H 	H 	0.8657	0.238	0.0672	0.053
Mof_H 	H 	0.9114	0.3336	0.197	0.16
Mof_H 	H 	0.8988	0.2999	0.1866	0.041
Mof_H 	H 	0.9216	0.3191	0.1639	-0.055
Mof_H 	H 	0.9209	0.3125	0.157	-0.043
Mof_H 	H 	0.931	0.3302	0.1538	0.008
Mof_H 	H 	0.9099	0.3236	0.191	-0.165
Mof_O 	O 	0.88792	0.65726	0.53216	-0.412
Mof_O 	O 	0.851	0.6946	0.53201	-0.413
Mof_C 	C 	0.87578	0.68197	0.54135	0.364
Mof_C 	C 	0.89256	0.69908	0.56756	-0.074
Mof_C 	C 	0.88305	0.72831	0.57719	-0.024
Mof_H 	H 	0.8657	0.738	0.5672	0.053
Mof_H 	H 	0.9114	0.8336	0.697	0.161
Mof_H 	H 	0.8988	0.7999	0.6866	0.041
Mof_H 	H 	0.9216	0.8191	0.6639	-0.055
Mof_H 	H 	0.9209	0.8125	0.657	-0.043
Mof_H 	H 	0.931	0.8302	0.6538	0.008
Mof_H 	H 	0.9099	0.8236	0.691	-0.165
Mof_O 	O 	0.61208	0.15726	0.46784	-0.413
Mof_O 	O 	0.649	0.1946	0.46799	-0.413
Mof_C 	C 	0.62422	0.18197	0.45865	0.365
Mof_C 	C 	0.60744	0.19908	0.43244	-0.075
Mof_C 	C 	0.61695	0.22831	0.42281	-0.024
Mof_H 	H 	0.6343	0.238	0.4328	0.053
Mof_H 	H 	0.5886	0.3336	0.303	0.16
Mof_H 	H 	0.6012	0.2999	0.3134	0.041
Mof_H 	H 	0.5784	0.3191	0.3361	-0.055
Mof_H 	H 	0.5791	0.3125	0.343	-0.043
Mof_H 	H 	0.569	0.3302	0.3462	0.007
Mof_H 	H 	0.5901	0.3236	0.309	-0.165
Mof_O 	O 	0.61208	0.65726	0.96784	-0.41
Mof_O 	O 	0.649	0.6946	0.96799	-0.41
Mof_C 	C 	0.62422	0.68197	0.95865	0.364
Mof_C 	C 	0.60744	0.69908	0.93244	-0.074
Mof_C 	C 	0.61695	0.72831	0.92281	-0.024
Mof_H 	H 	0.6343	0.738	0.9328	0.054
Mof_H 	H 	0.5886	0.8336	0.803	0.16
Mof_H 	H 	0.6012	0.7999	0.8134	0.041
Mof_H 	H 	0.5784	0.8191	0.8361	-0.055
Mof_H 	H 	0.5791	0.8125	0.843	-0.044
Mof_H 	H 	0.569	0.8302	0.8462	0.007
Mof_H 	H 	0.5901	0.8236	0.809	-0.165
Mof_O 	O 	0.11208	0.15726	0.96784	-0.41
Mof_O 	O 	0.149	0.1946	0.96799	-0.41
Mof_C 	C 	0.12422	0.18197	0.95865	0.364
Mof_C 	C 	0.10744	0.19908	0.93244	-0.074
Mof_C 	C 	0.11695	0.22831	0.92281	-0.024
Mof_H 	H 	0.1343	0.238	0.9328	0.054
Mof_H 	H 	0.0886	0.3336	0.803	0.159
Mof_H 	H 	0.1012	0.2999	0.8134	0.041
Mof_H 	H 	0.0784	0.3191	0.8361	-0.054
Mof_H 	H 	0.0791	0.3125	0.843	-0.043
Mof_H 	H 	0.069	0.3302	0.8462	0.006
Mof_H 	H 	0.0901	0.3236	0.809	-0.165
Mof_O 	O 	0.11208	0.65726	0.46784	-0.413
Mof_O 	O 	0.149	0.6946	0.46799	-0.413
Mof_C 	C 	0.12422	0.68197	0.45865	0.365
Mof_C 	C 	0.10744	0.69908	0.43244	-0.075
Mof_C 	C 	0.11695	0.72831	0.42281	-0.024
Mof_H 	H 	0.1343	0.738	0.4328	0.053
Mof_H 	H 	0.0886	0.8336	0.303	0.159
Mof_H 	H 	0.1012	0.7999	0.3134	0.041
Mof_H 	H 	0.0784	0.8191	0.3361	-0.055
Mof_H 	H 	0.0791	0.8125	0.343	-0.043
Mof_H 	H 	0.069	0.8302	0.3462	0.006
Mof_H 	H 	0.0901	0.8236	0.309	-0.164
Mof_O 	O 	0.38792	0.84274	0.46784	-0.413
Mof_O 	O 	0.351	0.8054	0.46799	-0.413
Mof_C 	C 	0.37578	0.81803	0.45865	0.364
Mof_C 	C 	0.39256	0.80092	0.43244	-0.075
Mof_C 	C 	0.38305	0.77169	0.42281	-0.024
Mof_H 	H 	0.3657	0.762	0.4328	0.053
Mof_H 	H 	0.4114	0.6664	0.303	0.16
Mof_H 	H 	0.3988	0.7001	0.3134	0.041
Mof_H 	H 	0.4216	0.6809	0.3361	-0.055
Mof_H 	H 	0.4209	0.6875	0.343	-0.043
Mof_H 	H 	0.431	0.6698	0.3462	0.007
Mof_H 	H 	0.4099	0.6764	0.309	-0.165
Mof_O 	O 	0.38792	0.34274	0.96784	-0.41
Mof_O 	O 	0.351	0.3054	0.96799	-0.41
Mof_C 	C 	0.37578	0.31803	0.95865	0.364
Mof_C 	C 	0.39256	0.30092	0.93244	-0.074
Mof_C 	C 	0.38305	0.27169	0.92281	-0.024
Mof_H 	H 	0.3657	0.262	0.9328	0.054
Mof_H 	H 	0.4114	0.1664	0.803	0.16
Mof_H 	H 	0.3988	0.2001	0.8134	0.041
Mof_H 	H 	0.4216	0.1809	0.8361	-0.054
Mof_H 	H 	0.4209	0.1875	0.843	-0.043
Mof_H 	H 	0.431	0.1698	0.8462	0.007
Mof_H 	H 	0.4099	0.1764	0.809	-0.165
Mof_O 	O 	0.88792	0.84274	0.96784	-0.409
Mof_O 	O 	0.851	0.8054	0.96799	-0.41
Mof_C 	C 	0.87578	0.81803	0.95865	0.364
Mof_C 	C 	0.89256	0.80092	0.93244	-0.073
Mof_C 	C 	0.88305	0.77169	0.92281	-0.025
Mof_H 	H 	0.8657	0.762	0.9328	0.054
Mof_H 	H 	0.9114	0.6664	0.803	0.161
Mof_H 	H 	0.8988	0.7001	0.8134	0.041
Mof_H 	H 	0.9216	0.6809	0.8361	-0.054
Mof_H 	H 	0.9209	0.6875	0.843	-0.044
Mof_H 	H 	0.931	0.6698	0.8462	0.008
Mof_H 	H 	0.9099	0.6764	0.809	-0.166
Mof_O 	O 	0.88792	0.34274	0.46784	-0.412
Mof_O 	O 	0.851	0.3054	0.46799	-0.413
Mof_C 	C 	0.87578	0.31803	0.45865	0.364
Mof_C 	C 	0.89256	0.30092	0.43244	-0.074
Mof_C 	C 	0.88305	0.27169	0.42281	-0.024
Mof_H 	H 	0.8657	0.262	0.4328	0.053
Mof_H 	H 	0.9114	0.1664	0.303	0.16
Mof_H 	H 	0.8988	0.2001	0.3134	0.041
Mof_H 	H 	0.9216	0.1809	0.3361	-0.055
Mof_H 	H 	0.9209	0.1875	0.343	-0.043
Mof_H 	H 	0.931	0.1698	0.3462	0.008
Mof_H 	H 	0.9099	0.1764	0.309	-0.165
Mof_O 	O 	0.84274	0.46784	0.38792	-0.413
Mof_O 	O 	0.8054	0.46799	0.351	-0.413
Mof_C 	C 	0.81803	0.45865	0.37578	0.364
Mof_C 	C 	0.80092	0.43244	0.39256	-0.075
Mof_C 	C 	0.77169	0.42281	0.38305	-0.024
Mof_H 	H 	0.762	0.4328	0.3657	0.053
Mof_H 	H 	0.6664	0.303	0.4114	0.16
Mof_H 	H 	0.7001	0.3134	0.3988	0.041
Mof_H 	H 	0.6809	0.3361	0.4216	-0.055
Mof_H 	H 	0.6875	0.343	0.4209	-0.043
Mof_H 	H 	0.6698	0.3462	0.431	0.007
Mof_H 	H 	0.6764	0.309	0.4099	-0.165
Mof_O 	O 	0.84274	0.96784	0.88792	-0.409
Mof_O 	O 	0.8054	0.96799	0.851	-0.41
Mof_C 	C 	0.81803	0.95865	0.87578	0.364
Mof_C 	C 	0.80092	0.93244	0.89256	-0.073
Mof_C 	C 	0.77169	0.92281	0.88305	-0.025
Mof_H 	H 	0.762	0.9328	0.8657	0.054
Mof_H 	H 	0.6664	0.803	0.9114	0.161
Mof_H 	H 	0.7001	0.8134	0.8988	0.041
Mof_H 	H 	0.6809	0.8361	0.9216	-0.054
Mof_H 	H 	0.6875	0.843	0.9209	-0.044
Mof_H 	H 	0.6698	0.8462	0.931	0.008
Mof_H 	H 	0.6764	0.809	0.9099	-0.166
Mof_O 	O 	0.34274	0.46784	0.88792	-0.412
Mof_O 	O 	0.3054	0.46799	0.851	-0.413
Mof_C 	C 	0.31803	0.45865	0.87578	0.364
Mof_C 	C 	0.30092	0.43244	0.89256	-0.074
Mof_C 	C 	0.27169	0.42281	0.88305	-0.024
Mof_H 	H 	0.262	0.4328	0.8657	0.053
Mof_H 	H 	0.1664	0.303	0.9114	0.16
Mof_H 	H 	0.2001	0.3134	0.8988	0.041
Mof_H 	H 	0.1809	0.3361	0.9216	-0.055
Mof_H 	H 	0.1875	0.343	0.9209	-0.043
Mof_H 	H 	0.1698	0.3462	0.931	0.008
Mof_H 	H 	0.1764	0.309	0.9099	-0.165
Mof_O 	O 	0.34274	0.96784	0.38792	-0.41
Mof_O 	O 	0.3054	0.96799	0.351	-0.41
Mof_C 	C 	0.31803	0.95865	0.37578	0.364
Mof_C 	C 	0.30092	0.93244	0.39256	-0.074
Mof_C 	C 	0.27169	0.92281	0.38305	-0.024
Mof_H 	H 	0.262	0.9328	0.3657	0.054
Mof_H 	H 	0.1664	0.803	0.4114	0.16
Mof_H 	H 	0.2001	0.8134	0.3988	0.041
Mof_H 	H 	0.1809	0.8361	0.4216	-0.054
Mof_H 	H 	0.1875	0.843	0.4209	-0.043
Mof_H 	H 	0.1698	0.8462	0.431	0.007
Mof_H 	H 	0.1764	0.809	0.4099	-0.165
Mof_O 	O 	0.15726	0.46784	0.61208	-0.413
Mof_O 	O 	0.1946	0.46799	0.649	-0.413
Mof_C 	C 	0.18197	0.45865	0.62422	0.365
Mof_C 	C 	0.19908	0.43244	0.60744	-0.075
Mof_C 	C 	0.22831	0.42281	0.61695	-0.024
Mof_H 	H 	0.238	0.4328	0.6343	0.053
Mof_H 	H 	0.3336	0.303	0.5886	0.16
Mof_H 	H 	0.2999	0.3134	0.6012	0.041
Mof_H 	H 	0.3191	0.3361	0.5784	-0.055
Mof_H 	H 	0.3125	0.343	0.5791	-0.043
Mof_H 	H 	0.3302	0.3462	0.569	0.007
Mof_H 	H 	0.3236	0.309	0.5901	-0.165
Mof_O 	O 	0.15726	0.96784	0.11208	-0.41
Mof_O 	O 	0.1946	0.96799	0.149	-0.41
Mof_C 	C 	0.18197	0.95865	0.12422	0.364
Mof_C 	C 	0.19908	0.93244	0.10744	-0.074
Mof_C 	C 	0.22831	0.92281	0.11695	-0.024
Mof_H 	H 	0.238	0.9328	0.1343	0.054
Mof_H 	H 	0.3336	0.803	0.0886	0.159
Mof_H 	H 	0.2999	0.8134	0.1012	0.041
Mof_H 	H 	0.3191	0.8361	0.0784	-0.054
Mof_H 	H 	0.3125	0.843	0.0791	-0.043
Mof_H 	H 	0.3302	0.8462	0.069	0.006
Mof_H 	H 	0.3236	0.809	0.0901	-0.165
Mof_O 	O 	0.65726	0.46784	0.11208	-0.413
Mof_O 	O 	0.6946	0.46799	0.149	-0.413
Mof_C 	C 	0.68197	0.45865	0.12422	0.365
Mof_C 	C 	0.69908	0.43244	0.10744	-0.075
Mof_C 	C 	0.72831	0.42281	0.11695	-0.024
Mof_H 	H 	0.738	0.4328	0.1343	0.053
Mof_H 	H 	0.8336	0.303	0.0886	0.159
Mof_H 	H 	0.7999	0.3134	0.1012	0.041
Mof_H 	H 	0.8191	0.3361	0.0784	-0.055
Mof_H 	H 	0.8125	0.343	0.0791	-0.043
Mof_H 	H 	0.8302	0.3462	0.069	0.006
Mof_H 	H 	0.8236	0.309	0.0901	-0.164
Mof_O 	O 	0.65726	0.96784	0.61208	-0.41
Mof_O 	O 	0.6946	0.96799	0.649	-0.41
Mof_C 	C 	0.68197	0.95865	0.62422	0.364
Mof_C 	C 	0.69908	0.93244	0.60744	-0.074
Mof_C 	C 	0.72831	0.92281	0.61695	-0.024
Mof_H 	H 	0.738	0.9328	0.6343	0.054
Mof_H 	H 	0.8336	0.803	0.5886	0.16
Mof_H 	H 	0.7999	0.8134	0.6012	0.041
Mof_H 	H 	0.8191	0.8361	0.5784	-0.055
Mof_H 	H 	0.8125	0.843	0.5791	-0.044
Mof_H 	H 	0.8302	0.8462	0.569	0.007
Mof_H 	H 	0.8236	0.809	0.5901	-0.165
Mof_O 	O 	0.15726	0.53216	0.38792	-0.413
Mof_O 	O 	0.1946	0.53201	0.351	-0.413
Mof_C 	C 	0.18197	0.54135	0.37578	0.365
Mof_C 	C 	0.19908	0.56756	0.39256	-0.075
Mof_C 	C 	0.22831	0.57719	0.38305	-0.024
Mof_H 	H 	0.238	0.5672	0.3657	0.053
Mof_H 	H 	0.3336	0.697	0.4114	0.16
Mof_H 	H 	0.2999	0.6866	0.3988	0.041
Mof_H 	H 	0.3191	0.6639	0.4216	-0.055
Mof_H 	H 	0.3125	0.657	0.4209	-0.043
Mof_H 	H 	0.3302	0.6538	0.431	0.007
Mof_H 	H 	0.3236	0.691	0.4099	-0.165
Mof_O 	O 	0.15726	0.03216	0.88792	-0.414
Mof_O 	O 	0.1946	0.03201	0.851	-0.415
Mof_C 	C 	0.18197	0.04135	0.87578	0.365
Mof_C 	C 	0.19908	0.06756	0.89256	-0.075
Mof_C 	C 	0.22831	0.07719	0.88305	-0.024
Mof_H 	H 	0.238	0.0672	0.8657	0.053
Mof_H 	H 	0.3336	0.197	0.9114	0.16
Mof_H 	H 	0.2999	0.1866	0.8988	0.041
Mof_H 	H 	0.3191	0.1639	0.9216	-0.055
Mof_H 	H 	0.3125	0.157	0.9209	-0.043
Mof_H 	H 	0.3302	0.1538	0.931	0.008
Mof_H 	H 	0.3236	0.191	0.9099	-0.165
Mof_O 	O 	0.65726	0.53216	0.88792	-0.412
Mof_O 	O 	0.6946	0.53201	0.851	-0.413
Mof_C 	C 	0.68197	0.54135	0.87578	0.364
Mof_C 	C 	0.69908	0.56756	0.89256	-0.074
Mof_C 	C 	0.72831	0.57719	0.88305	-0.024
Mof_H 	H 	0.738	0.5672	0.8657	0.053
Mof_H 	H 	0.8336	0.697	0.9114	0.161
Mof_H 	H 	0.7999	0.6866	0.8988	0.041
Mof_H 	H 	0.8191	0.6639	0.9216	-0.055
Mof_H 	H 	0.8125	0.657	0.9209	-0.043
Mof_H 	H 	0.8302	0.6538	0.931	0.008
Mof_H 	H 	0.8236	0.691	0.9099	-0.165
Mof_O 	O 	0.65726	0.03216	0.38792	-0.415
Mof_O 	O 	0.6946	0.03201	0.351	-0.415
Mof_C 	C 	0.68197	0.04135	0.37578	0.365
Mof_C 	C 	0.69908	0.06756	0.39256	-0.076
Mof_C 	C 	0.72831	0.07719	0.38305	-0.024
Mof_H 	H 	0.738	0.0672	0.3657	0.053
Mof_H 	H 	0.8336	0.197	0.4114	0.159
Mof_H 	H 	0.7999	0.1866	0.3988	0.041
Mof_H 	H 	0.8191	0.1639	0.4216	-0.055
Mof_H 	H 	0.8125	0.157	0.4209	-0.043
Mof_H 	H 	0.8302	0.1538	0.431	0.007
Mof_H 	H 	0.8236	0.191	0.4099	-0.164
Mof_O 	O 	0.84274	0.53216	0.61208	-0.413
Mof_O 	O 	0.8054	0.53201	0.649	-0.413
Mof_C 	C 	0.81803	0.54135	0.62422	0.364
Mof_C 	C 	0.80092	0.56756	0.60744	-0.075
Mof_C 	C 	0.77169	0.57719	0.61695	-0.024
Mof_H 	H 	0.762	0.5672	0.6343	0.053
Mof_H 	H 	0.6664	0.697	0.5886	0.16
Mof_H 	H 	0.7001	0.6866	0.6012	0.041
Mof_H 	H 	0.6809	0.6639	0.5784	-0.055
Mof_H 	H 	0.6875	0.657	0.5791	-0.043
Mof_H 	H 	0.6698	0.6538	0.569	0.007
Mof_H 	H 	0.6764	0.691	0.5901	-0.165
Mof_O 	O 	0.84274	0.03216	0.11208	-0.415
Mof_O 	O 	0.8054	0.03201	0.149	-0.415
Mof_C 	C 	0.81803	0.04135	0.12422	0.365
Mof_C 	C 	0.80092	0.06756	0.10744	-0.076
Mof_C 	C 	0.77169	0.07719	0.11695	-0.024
Mof_H 	H 	0.762	0.0672	0.1343	0.052
Mof_H 	H 	0.6664	0.197	0.0886	0.158
Mof_H 	H 	0.7001	0.1866	0.1012	0.041
Mof_H 	H 	0.6809	0.1639	0.0784	-0.055
Mof_H 	H 	0.6875	0.157	0.0791	-0.043
Mof_H 	H 	0.6698	0.1538	0.069	0.006
Mof_H 	H 	0.6764	0.191	0.0901	-0.164
Mof_O 	O 	0.34274	0.53216	0.11208	-0.413
Mof_O 	O 	0.3054	0.53201	0.149	-0.413
Mof_C 	C 	0.31803	0.54135	0.12422	0.365
Mof_C 	C 	0.30092	0.56756	0.10744	-0.075
Mof_C 	C 	0.27169	0.57719	0.11695	-0.024
Mof_H 	H 	0.262	0.5672	0.1343	0.053
Mof_H 	H 	0.1664	0.697	0.0886	0.159
Mof_H 	H 	0.2001	0.6866	0.1012	0.041
Mof_H 	H 	0.1809	0.6639	0.0784	-0.055
Mof_H 	H 	0.1875	0.657	0.0791	-0.043
Mof_H 	H 	0.1698	0.6538	0.069	0.006
Mof_H 	H 	0.1764	0.691	0.0901	-0.164
Mof_O 	O 	0.34274	0.03216	0.61208	-0.415
Mof_O 	O 	0.3054	0.03201	0.649	-0.415
Mof_C 	C 	0.31803	0.04135	0.62422	0.365
Mof_C 	C 	0.30092	0.06756	0.60744	-0.076
Mof_C 	C 	0.27169	0.07719	0.61695	-0.024
Mof_H 	H 	0.262	0.0672	0.6343	0.053
Mof_H 	H 	0.1664	0.197	0.5886	0.159
Mof_H 	H 	0.2001	0.1866	0.6012	0.041
Mof_H 	H 	0.1809	0.1639	0.5784	-0.055
Mof_H 	H 	0.1875	0.157	0.5791	-0.042
Mof_H 	H 	0.1698	0.1538	0.569	0.007
Mof_H 	H 	0.1764	0.191	0.5901	-0.164
Mof_O 	O 	0.46784	0.61208	0.15726	-0.413
Mof_O 	O 	0.46799	0.649	0.1946	-0.413
Mof_C 	C 	0.45865	0.62422	0.18197	0.365
Mof_C 	C 	0.43244	0.60744	0.19908	-0.075
Mof_C 	C 	0.42281	0.61695	0.22831	-0.024
Mof_H 	H 	0.4328	0.6343	0.238	0.053
Mof_H 	H 	0.303	0.5886	0.3336	0.16
Mof_H 	H 	0.3134	0.6012	0.2999	0.041
Mof_H 	H 	0.3361	0.5784	0.3191	-0.055
Mof_H 	H 	0.343	0.5791	0.3125	-0.043
Mof_H 	H 	0.3462	0.569	0.3302	0.007
Mof_H 	H 	0.309	0.5901	0.3236	-0.165
Mof_O 	O 	0.46784	0.11208	0.65726	-0.413
Mof_O 	O 	0.46799	0.149	0.6946	-0.413
Mof_C 	C 	0.45865	0.12422	0.68197	0.365
Mof_C 	C 	0.43244	0.10744	0.69908	-0.075
Mof_C 	C 	0.42281	0.11695	0.72831	-0.024
Mof_H 	H 	0.4328	0.1343	0.738	0.053
Mof_H 	H 	0.303	0.0886	0.8336	0.159
Mof_H 	H 	0.3134	0.1012	0.7999	0.041
Mof_H 	H 	0.3361	0.0784	0.8191	-0.055
Mof_H 	H 	0.343	0.0791	0.8125	-0.043
Mof_H 	H 	0.3462	0.069	0.8302	0.006
Mof_H 	H 	0.309	0.0901	0.8236	-0.164
Mof_O 	O 	0.96784	0.61208	0.65726	-0.41
Mof_O 	O 	0.96799	0.649	0.6946	-0.41
Mof_C 	C 	0.95865	0.62422	0.68197	0.364
Mof_C 	C 	0.93244	0.60744	0.69908	-0.074
Mof_C 	C 	0.92281	0.61695	0.72831	-0.024
Mof_H 	H 	0.9328	0.6343	0.738	0.054
Mof_H 	H 	0.803	0.5886	0.8336	0.16
Mof_H 	H 	0.8134	0.6012	0.7999	0.041
Mof_H 	H 	0.8361	0.5784	0.8191	-0.055
Mof_H 	H 	0.843	0.5791	0.8125	-0.044
Mof_H 	H 	0.8462	0.569	0.8302	0.007
Mof_H 	H 	0.809	0.5901	0.8236	-0.165
Mof_O 	O 	0.96784	0.11208	0.15726	-0.41
Mof_O 	O 	0.96799	0.149	0.1946	-0.41
Mof_C 	C 	0.95865	0.12422	0.18197	0.364
Mof_C 	C 	0.93244	0.10744	0.19908	-0.074
Mof_C 	C 	0.92281	0.11695	0.22831	-0.024
Mof_H 	H 	0.9328	0.1343	0.238	0.054
Mof_H 	H 	0.803	0.0886	0.3336	0.159
Mof_H 	H 	0.8134	0.1012	0.2999	0.041
Mof_H 	H 	0.8361	0.0784	0.3191	-0.054
Mof_H 	H 	0.843	0.0791	0.3125	-0.043
Mof_H 	H 	0.8462	0.069	0.3302	0.006
Mof_H 	H 	0.809	0.0901	0.3236	-0.165
Mof_O 	O 	0.46784	0.38792	0.84274	-0.413
Mof_O 	O 	0.46799	0.351	0.8054	-0.413
Mof_C 	C 	0.45865	0.37578	0.81803	0.364
Mof_C 	C 	0.43244	0.39256	0.80092	-0.075
Mof_C 	C 	0.42281	0.38305	0.77169	-0.024
Mof_H 	H 	0.4328	0.3657	0.762	0.053
Mof_H 	H 	0.303	0.4114	0.6664	0.16
Mof_H 	H 	0.3134	0.3988	0.7001	0.041
Mof_H 	H 	0.3361	0.4216	0.6809	-0.055
Mof_H 	H 	0.343	0.4209	0.6875	-0.043
Mof_H 	H 	0.3462	0.431	0.6698	0.007
Mof_H 	H 	0.309	0.4099	0.6764	-0.165
Mof_O 	O 	0.46784	0.88792	0.34274	-0.412
Mof_O 	O 	0.46799	0.851	0.3054	-0.413
Mof_C 	C 	0.45865	0.87578	0.31803	0.364
Mof_C 	C 	0.43244	0.89256	0.30092	-0.074
Mof_C 	C 	0.42281	0.88305	0.27169	-0.024
Mof_H 	H 	0.4328	0.8657	0.262	0.053
Mof_H 	H 	0.303	0.9114	0.1664	0.16
Mof_H 	H 	0.3134	0.8988	0.2001	0.041
Mof_H 	H 	0.3361	0.9216	0.1809	-0.055
Mof_H 	H 	0.343	0.9209	0.1875	-0.043
Mof_H 	H 	0.3462	0.931	0.1698	0.008
Mof_H 	H 	0.309	0.9099	0.1764	-0.165
Mof_O 	O 	0.96784	0.38792	0.34274	-0.41
Mof_O 	O 	0.96799	0.351	0.3054	-0.41
Mof_C 	C 	0.95865	0.37578	0.31803	0.364
Mof_C 	C 	0.93244	0.39256	0.30092	-0.074
Mof_C 	C 	0.92281	0.38305	0.27169	-0.024
Mof_H 	H 	0.9328	0.3657	0.262	0.054
Mof_H 	H 	0.803	0.4114	0.1664	0.16
Mof_H 	H 	0.8134	0.3988	0.2001	0.041
Mof_H 	H 	0.8361	0.4216	0.1809	-0.054
Mof_H 	H 	0.843	0.4209	0.1875	-0.043
Mof_H 	H 	0.8462	0.431	0.1698	0.007
Mof_H 	H 	0.809	0.4099	0.1764	-0.165
Mof_O 	O 	0.96784	0.88792	0.84274	-0.409
Mof_O 	O 	0.96799	0.851	0.8054	-0.41
Mof_C 	C 	0.95865	0.87578	0.81803	0.364
Mof_C 	C 	0.93244	0.89256	0.80092	-0.073
Mof_C 	C 	0.92281	0.88305	0.77169	-0.025
Mof_H 	H 	0.9328	0.8657	0.762	0.054
Mof_H 	H 	0.803	0.9114	0.6664	0.161
Mof_H 	H 	0.8134	0.8988	0.7001	0.041
Mof_H 	H 	0.8361	0.9216	0.6809	-0.054
Mof_H 	H 	0.843	0.9209	0.6875	-0.044
Mof_H 	H 	0.8462	0.931	0.6698	0.008
Mof_H 	H 	0.809	0.9099	0.6764	-0.166
Mof_O 	O 	0.53216	0.61208	0.84274	-0.413
Mof_O 	O 	0.53201	0.649	0.8054	-0.413
Mof_C 	C 	0.54135	0.62422	0.81803	0.364
Mof_C 	C 	0.56756	0.60744	0.80092	-0.075
Mof_C 	C 	0.57719	0.61695	0.77169	-0.024
Mof_H 	H 	0.5672	0.6343	0.762	0.053
Mof_H 	H 	0.697	0.5886	0.6664	0.16
Mof_H 	H 	0.6866	0.6012	0.7001	0.041
Mof_H 	H 	0.6639	0.5784	0.6809	-0.055
Mof_H 	H 	0.657	0.5791	0.6875	-0.043
Mof_H 	H 	0.6538	0.569	0.6698	0.007
Mof_H 	H 	0.691	0.5901	0.6764	-0.165
Mof_O 	O 	0.53216	0.11208	0.34274	-0.413
Mof_O 	O 	0.53201	0.149	0.3054	-0.413
Mof_C 	C 	0.54135	0.12422	0.31803	0.365
Mof_C 	C 	0.56756	0.10744	0.30092	-0.075
Mof_C 	C 	0.57719	0.11695	0.27169	-0.024
Mof_H 	H 	0.5672	0.1343	0.262	0.053
Mof_H 	H 	0.697	0.0886	0.1664	0.159
Mof_H 	H 	0.6866	0.1012	0.2001	0.041
Mof_H 	H 	0.6639	0.0784	0.1809	-0.055
Mof_H 	H 	0.657	0.0791	0.1875	-0.043
Mof_H 	H 	0.6538	0.069	0.1698	0.006
Mof_H 	H 	0.691	0.0901	0.1764	-0.164
Mof_O 	O 	0.03216	0.61208	0.34274	-0.415
Mof_O 	O 	0.03201	0.649	0.3054	-0.415
Mof_C 	C 	0.04135	0.62422	0.31803	0.365
Mof_C 	C 	0.06756	0.60744	0.30092	-0.076
Mof_C 	C 	0.07719	0.61695	0.27169	-0.024
Mof_H 	H 	0.0672	0.6343	0.262	0.053
Mof_H 	H 	0.197	0.5886	0.1664	0.159
Mof_H 	H 	0.1866	0.6012	0.2001	0.041
Mof_H 	H 	0.1639	0.5784	0.1809	-0.055
Mof_H 	H 	0.157	0.5791	0.1875	-0.042
Mof_H 	H 	0.1538	0.569	0.1698	0.007
Mof_H 	H 	0.191	0.5901	0.1764	-0.164
Mof_O 	O 	0.03216	0.11208	0.84274	-0.415
Mof_O 	O 	0.03201	0.149	0.8054	-0.415
Mof_C 	C 	0.04135	0.12422	0.81803	0.365
Mof_C 	C 	0.06756	0.10744	0.80092	-0.076
Mof_C 	C 	0.07719	0.11695	0.77169	-0.024
Mof_H 	H 	0.0672	0.1343	0.762	0.052
Mof_H 	H 	0.197	0.0886	0.6664	0.158
Mof_H 	H 	0.1866	0.1012	0.7001	0.041
Mof_H 	H 	0.1639	0.0784	0.6809	-0.055
Mof_H 	H 	0.157	0.0791	0.6875	-0.043
Mof_H 	H 	0.1538	0.069	0.6698	0.006
Mof_H 	H 	0.191	0.0901	0.6764	-0.164
Mof_O 	O 	0.53216	0.38792	0.15726	-0.413
Mof_O 	O 	0.53201	0.351	0.1946	-0.413
Mof_C 	C 	0.54135	0.37578	0.18197	0.365
Mof_C 	C 	0.56756	0.39256	0.19908	-0.075
Mof_C 	C 	0.57719	0.38305	0.22831	-0.024
Mof_H 	H 	0.5672	0.3657	0.238	0.053
Mof_H 	H 	0.697	0.4114	0.3336	0.16
Mof_H 	H 	0.6866	0.3988	0.2999	0.041
Mof_H 	H 	0.6639	0.4216	0.3191	-0.055
Mof_H 	H 	0.657	0.4209	0.3125	-0.043
Mof_H 	H 	0.6538	0.431	0.3302	0.007
Mof_H 	H 	0.691	0.4099	0.3236	-0.165
Mof_O 	O 	0.53216	0.88792	0.65726	-0.412
Mof_O 	O 	0.53201	0.851	0.6946	-0.413
Mof_C 	C 	0.54135	0.87578	0.68197	0.364
Mof_C 	C 	0.56756	0.89256	0.69908	-0.074
Mof_C 	C 	0.57719	0.88305	0.72831	-0.024
Mof_H 	H 	0.5672	0.8657	0.738	0.053
Mof_H 	H 	0.697	0.9114	0.8336	0.161
Mof_H 	H 	0.6866	0.8988	0.7999	0.041
Mof_H 	H 	0.6639	0.9216	0.8191	-0.055
Mof_H 	H 	0.657	0.9209	0.8125	-0.043
Mof_H 	H 	0.6538	0.931	0.8302	0.008
Mof_H 	H 	0.691	0.9099	0.8236	-0.165
Mof_O 	O 	0.03216	0.38792	0.65726	-0.415
Mof_O 	O 	0.03201	0.351	0.6946	-0.415
Mof_C 	C 	0.04135	0.37578	0.68197	0.365
Mof_C 	C 	0.06756	0.39256	0.69908	-0.076
Mof_C 	C 	0.07719	0.38305	0.72831	-0.024
Mof_H 	H 	0.0672	0.3657	0.738	0.053
Mof_H 	H 	0.197	0.4114	0.8336	0.159
Mof_H 	H 	0.1866	0.3988	0.7999	0.041
Mof_H 	H 	0.1639	0.4216	0.8191	-0.055
Mof_H 	H 	0.157	0.4209	0.8125	-0.043
Mof_H 	H 	0.1538	0.431	0.8302	0.007
Mof_H 	H 	0.191	0.4099	0.8236	-0.164
Mof_O 	O 	0.03216	0.88792	0.15726	-0.414
Mof_O 	O 	0.03201	0.851	0.1946	-0.415
Mof_C 	C 	0.04135	0.87578	0.18197	0.365
Mof_C 	C 	0.06756	0.89256	0.19908	-0.075
Mof_C 	C 	0.07719	0.88305	0.22831	-0.024
Mof_H 	H 	0.0672	0.8657	0.238	0.053
Mof_H 	H 	0.197	0.9114	0.3336	0.16
Mof_H 	H 	0.1866	0.8988	0.2999	0.041
Mof_H 	H 	0.1639	0.9216	0.3191	-0.055
Mof_H 	H 	0.157	0.9209	0.3125	-0.043
Mof_H 	H 	0.1538	0.931	0.3302	0.008
Mof_H 	H 	0.191	0.9099	0.3236	-0.165
Mof_Cu	Cu	0.13127	0.36873	0.5	0.909
Mof_Cu	Cu	0.17545	0.32455	0.5	0.905
Mof_Cu	Cu	0.13127	0.86873	-0	0.907
Mof_Cu	Cu	0.17545	0.82455	-0	0.902
Mof_Cu	Cu	0.86873	0.63127	0.5	0.91
Mof_Cu	Cu	0.82455	0.67545	0.5	0.905
Mof_Cu	Cu	0.86873	0.13127	-0	0.907
Mof_Cu	Cu	0.82455	0.17545	-0	0.902
Mof_Cu	Cu	0.86873	0.36873	0.5	0.91
Mof_Cu	Cu	0.82455	0.32455	0.5	0.905
Mof_Cu	Cu	0.86873	0.86873	-0	0.907
Mof_Cu	Cu	0.82455	0.82455	-0	0.902
Mof_Cu	Cu	0.13127	0.63127	0.5	0.909
Mof_Cu	Cu	0.17545	0.67545	0.5	0.905
Mof_Cu	Cu	0.13127	0.13127	-0	0.906
Mof_Cu	Cu	0.17545	0.17545	-0	0.902
Mof_Cu	Cu	0.5	0.13127	0.36873	0.909
Mof_Cu	Cu	0.5	0.17545	0.32455	0.905
Mof_Cu	Cu	3.25722e-33	0.13127	0.86873	0.907
Mof_Cu	Cu	-7.27537e-33	0.17545	0.82455	0.902
Mof_Cu	Cu	0.5	0.86873	0.63127	0.91
Mof_Cu	Cu	0.5	0.82455	0.67545	0.905
Mof_Cu	Cu	4.92184e-34	0.86873	0.13127	0.907
Mof_Cu	Cu	-7.11737e-33	0.82455	0.17545	0.902
Mof_Cu	Cu	0.5	0.86873	0.36873	0.91
Mof_Cu	Cu	0.5	0.82455	0.32455	0.905
Mof_Cu	Cu	3.25722e-33	0.86873	0.86873	0.907
Mof_Cu	Cu	-1.76423e-32	0.82455	0.82455	0.902
Mof_Cu	Cu	0.5	0.13127	0.63127	0.909
Mof_Cu	Cu	0.5	0.17545	0.67545	0.905
Mof_Cu	Cu	-2.09955e-33	0.13127	0.13127	0.906
Mof_Cu	Cu	-6.38036e-34	0.17545	0.17545	0.902
Mof_Cu	Cu	0.36873	0.5	0.13127	0.909
Mof_Cu	Cu	0.32455	0.5	0.17545	0.905
Mof_Cu	Cu	0.36873	0	0.63127	0.907
Mof_Cu	Cu	0.32455	-5.18347e-33	0.67545	0.902
Mof_Cu	Cu	0.63127	0.5	0.86873	0.91
Mof_Cu	Cu	0.67545	0.5	0.82455	0.905
Mof_Cu	Cu	0.63127	-2.59174e-33	0.36873	0.907
Mof_Cu	Cu	0.67545	0	0.32455	0.902
Mof_Cu	Cu	0.36873	0.5	0.86873	0.91
Mof_Cu	Cu	0.32455	0.5	0.82455	0.905
Mof_Cu	Cu	0.36873	-2.59174e-33	0.36873	0.907
Mof_Cu	Cu	0.32455	0	0.32455	0.902
Mof_Cu	Cu	0.63127	0.5	0.13127	0.909
Mof_Cu	Cu	0.67545	0.5	0.17545	0.905
Mof_Cu	Cu	0.63127	0	0.63127	0.907
Mof_Cu	Cu	0.67545	-5.18347e-33	0.67545	0.902
Mof_Cu	Cu	0.36873	0.13127	0.5	0.909
Mof_Cu	Cu	0.32455	0.17545	0.5	0.905
Mof_Cu	Cu	0.36873	0.63127	-0	0.907
Mof_Cu	Cu	0.32455	0.67545	-0	0.902
Mof_Cu	Cu	0.63127	0.86873	0.5	0.91
Mof_Cu	Cu	0.67545	0.82455	0.5	0.905
Mof_Cu	Cu	0.63127	0.36873	-0	0.907
Mof_Cu	Cu	0.67545	0.32455	-0	0.902
Mof_Cu	Cu	0.36873	0.86873	0.5	0.91
Mof_Cu	Cu	0.32455	0.82455	0.5	0.905
Mof_Cu	Cu	0.36873	0.36873	-0	0.907
Mof_Cu	Cu	0.32455	0.32455	-0	0.902
Mof_Cu	Cu	0.63127	0.13127	0.5	0.909
Mof_Cu	Cu	0.67545	0.17545	0.5	0.905
Mof_Cu	Cu	0.63127	0.63127	-0	0.907
Mof_Cu	Cu	0.67545	0.67545	-0	0.902
Mof_Cu	Cu	0.13127	0.5	0.63127	0.909
Mof_Cu	Cu	0.17545	0.5	0.67545	0.905
Mof_Cu	Cu	0.13127	-1.29587e-33	0.13127	0.906
Mof_Cu	Cu	0.17545	-1.29587e-33	0.17545	0.902
Mof_Cu	Cu	0.86873	0.5	0.36873	0.91
Mof_Cu	Cu	0.82455	0.5	0.32455	0.905
Mof_Cu	Cu	0.86873	0	0.86873	0.907
Mof_Cu	Cu	0.82455	0	0.82455	0.902
Mof_Cu	Cu	0.86873	0.5	0.63127	0.91
Mof_Cu	Cu	0.82455	0.5	0.67545	0.905
Mof_Cu	Cu	0.86873	-1.29587e-33	0.13127	0.907
Mof_Cu	Cu	0.82455	-1.29587e-33	0.17545	0.902
Mof_Cu	Cu	0.13127	0.5	0.36873	0.909
Mof_Cu	Cu	0.17545	0.5	0.32455	0.905
Mof_Cu	Cu	0.13127	0	0.86873	0.907
Mof_Cu	Cu	0.17545	0	0.82455	0.902
Mof_Cu	Cu	0.5	0.36873	0.86873	0.91
Mof_Cu	Cu	0.5	0.32455	0.82455	0.905
Mof_Cu	Cu	-1.20922e-33	0.36873	0.36873	0.907
Mof_Cu	Cu	1.21687e-33	0.32455	0.32455	0.902
Mof_Cu	Cu	0.5	0.63127	0.13127	0.909
Mof_Cu	Cu	0.5	0.67545	0.17545	0.905
Mof_Cu	Cu	1.27338e-32	0.63127	0.63127	0.907
Mof_Cu	Cu	-7.83441e-33	0.67545	0.67545	0.902
Mof_Cu	Cu	0.5	0.36873	0.13127	0.909
Mof_Cu	Cu	0.5	0.32455	0.17545	0.905
Mof_Cu	Cu	2.36688e-33	0.36873	0.63127	0.907
Mof_Cu	Cu	-2.65094e-33	0.32455	0.67545	0.902
Mof_Cu	Cu	0.5	0.63127	0.86873	0.91
Mof_Cu	Cu	0.5	0.67545	0.82455	0.905
Mof_Cu	Cu	6.56599e-33	0.63127	0.36873	0.907
Mof_Cu	Cu	-1.37487e-33	0.67545	0.32455	0.902
Mof_C 	C 	0.18445	0.41807	0.58193	0.018
Mof_H 	H 	0.1649	0.4255	0.5745	0.057
Mof_C 	C 	0.24391	0.39851	0.60149	0.009
Mof_C 	C 	0.2709	0.3843	0.6157	-0.038
Mof_C 	C 	0.2935	0.3743	0.6257	-0.043
Mof_C 	C 	0.3228	0.3619	0.6381	0.037
Mof_C 	C 	0.2769	0.3931	0.6069	0.022
Mof_C 	C 	0.3019	0.383	0.617	0.004
Mof_C 	C 	0.3312	0.3706	0.6294	0.003
Mof_C 	C 	0.18445	0.91807	0.08193	0.018
Mof_H 	H 	0.1649	0.9255	0.0745	0.057
Mof_C 	C 	0.24391	0.89851	0.10149	0.009
Mof_C 	C 	0.2709	0.8843	0.1157	-0.038
Mof_C 	C 	0.2935	0.8743	0.1257	-0.043
Mof_C 	C 	0.3228	0.8619	0.1381	0.037
Mof_C 	C 	0.2769	0.8931	0.1069	0.022
Mof_C 	C 	0.3019	0.883	0.117	0.004
Mof_C 	C 	0.3312	0.8706	0.1294	0.003
Mof_C 	C 	0.68445	0.41807	0.08193	0.018
Mof_H 	H 	0.6649	0.4255	0.0745	0.056
Mof_C 	C 	0.74391	0.39851	0.10149	0.008
Mof_C 	C 	0.7709	0.3843	0.1157	-0.036
Mof_C 	C 	0.7935	0.3743	0.1257	-0.041
Mof_C 	C 	0.8228	0.3619	0.1381	0.035
Mof_C 	C 	0.7769	0.3931	0.1069	0.019
Mof_C 	C 	0.8019	0.383	0.117	0.001
Mof_C 	C 	0.8312	0.3706	0.1294	0.004
Mof_C 	C 	0.68445	0.91807	0.58193	0.017
Mof_H 	H 	0.6649	0.9255	0.5745	0.058
Mof_C 	C 	0.74391	0.89851	0.60149	0.009
Mof_C 	C 	0.7709	0.8843	0.6157	-0.04
Mof_C 	C 	0.7935	0.8743	0.6257	-0.045
Mof_C 	C 	0.8228	0.8619	0.6381	0.036
Mof_C 	C 	0.7769	0.8931	0.6069	0.023
Mof_C 	C 	0.8019	0.883	0.617	0.006
Mof_C 	C 	0.8312	0.8706	0.6294	0.004
Mof_C 	C 	0.81555	0.58193	0.58193	0.018
Mof_H 	H 	0.8351	0.5745	0.5745	0.057
Mof_C 	C 	0.75609	0.60149	0.60149	0.009
Mof_C 	C 	0.7291	0.6157	0.6157	-0.038
Mof_C 	C 	0.7065	0.6257	0.6257	-0.043
Mof_C 	C 	0.6772	0.6381	0.6381	0.037
Mof_C 	C 	0.7231	0.6069	0.6069	0.022
Mof_C 	C 	0.6981	0.617	0.617	0.004
Mof_C 	C 	0.6688	0.6294	0.6294	0.003
Mof_C 	C 	0.81555	0.08193	0.08193	0.018
Mof_H 	H 	0.8351	0.0745	0.0745	0.056
Mof_C 	C 	0.75609	0.10149	0.10149	0.008
Mof_C 	C 	0.7291	0.1157	0.1157	-0.035
Mof_C 	C 	0.7065	0.1257	0.1257	-0.038
Mof_C 	C 	0.6772	0.1381	0.1381	0.036
Mof_C 	C 	0.7231	0.1069	0.1069	0.018
Mof_C 	C 	0.6981	0.117	0.117	-0.001
Mof_C 	C 	0.6688	0.1294	0.1294	0.004
Mof_C 	C 	0.31555	0.58193	0.08193	0.018
Mof_H 	H 	0.3351	0.5745	0.0745	0.056
Mof_C 	C 	0.25609	0.60149	0.10149	0.008
Mof_C 	C 	0.2291	0.6157	0.1157	-0.037
Mof_C 	C 	0.2065	0.6257	0.1257	-0.041
Mof_C 	C 	0.1772	0.6381	0.1381	0.037
Mof_C 	C 	0.2231	0.6069	0.1069	0.02
Mof_C 	C 	0.1981	0.617	0.117	0.001
Mof_C 	C 	0.1688	0.6294	0.1294	0.002
Mof_C 	C 	0.31555	0.08193	0.58193	0.018
Mof_H 	H 	0.3351	0.0745	0.5745	0.056
Mof_C 	C 	0.25609	0.10149	0.60149	0.008
Mof_C 	C 	0.2291	0.1157	0.6157	-0.037
Mof_C 	C 	0.2065	0.1257	0.6257	-0.041
Mof_C 	C 	0.1772	0.1381	0.6381	0.037
Mof_C 	C 	0.2231	0.1069	0.6069	0.02
Mof_C 	C 	0.1981	0.117	0.617	0.001
Mof_C 	C 	0.1688	0.1294	0.6294	0.002
Mof_C 	C 	0.81555	0.41807	0.41807	0.018
Mof_H 	H 	0.8351	0.4255	0.4255	0.057
Mof_C 	C 	0.75609	0.39851	0.39851	0.009
Mof_C 	C 	0.7291	0.3843	0.3843	-0.038
Mof_C 	C 	0.7065	0.3743	0.3743	-0.043
Mof_C 	C 	0.6772	0.3619	0.3619	0.037
Mof_C 	C 	0.7231	0.3931	0.3931	0.022
Mof_C 	C 	0.6981	0.383	0.383	0.004
Mof_C 	C 	0.6688	0.3706	0.3706	0.003
Mof_C 	C 	0.81555	0.91807	0.91807	0.017
Mof_H 	H 	0.8351	0.9255	0.9255	0.059
Mof_C 	C 	0.75609	0.89851	0.89851	0.01
Mof_C 	C 	0.7291	0.8843	0.8843	-0.042
Mof_C 	C 	0.7065	0.8743	0.8743	-0.047
Mof_C 	C 	0.6772	0.8619	0.8619	0.038
Mof_C 	C 	0.7231	0.8931	0.8931	0.026
Mof_C 	C 	0.6981	0.883	0.883	0.009
Mof_C 	C 	0.6688	0.8706	0.8706	0.002
Mof_C 	C 	0.31555	0.41807	0.91807	0.017
Mof_H 	H 	0.3351	0.4255	0.9255	0.058
Mof_C 	C 	0.25609	0.39851	0.89851	0.009
Mof_C 	C 	0.2291	0.3843	0.8843	-0.041
Mof_C 	C 	0.2065	0.3743	0.8743	-0.045
Mof_C 	C 	0.1772	0.3619	0.8619	0.038
Mof_C 	C 	0.2231	0.3931	0.8931	0.024
Mof_C 	C 	0.1981	0.383	0.883	0.006
Mof_C 	C 	0.1688	0.3706	0.8706	0.001
Mof_C 	C 	0.31555	0.91807	0.41807	0.017
Mof_H 	H 	0.3351	0.9255	0.4255	0.058
Mof_C 	C 	0.25609	0.89851	0.39851	0.009
Mof_C 	C 	0.2291	0.8843	0.3843	-0.041
Mof_C 	C 	0.2065	0.8743	0.3743	-0.045
Mof_C 	C 	0.1772	0.8619	0.3619	0.038
Mof_C 	C 	0.2231	0.8931	0.3931	0.024
Mof_C 	C 	0.1981	0.883	0.383	0.006
Mof_C 	C 	0.1688	0.8706	0.3706	0.001
Mof_C 	C 	0.18445	0.58193	0.41807	0.018
Mof_H 	H 	0.1649	0.5745	0.4255	0.057
Mof_C 	C 	0.24391	0.60149	0.39851	0.009
Mof_C 	C 	0.2709	0.6157	0.3843	-0.038
Mof_C 	C 	0.2935	0.6257	0.3743	-0.043
Mof_C 	C 	0.3228	0.6381	0.3619	0.037
Mof_C 	C 	0.2769	0.6069	0.3931	0.022
Mof_C 	C 	0.3019	0.617	0.383	0.004
Mof_C 	C 	0.3312	0.6294	0.3706	0.003
Mof_C 	C 	0.18445	0.08193	0.91807	0.018
Mof_H 	H 	0.1649	0.0745	0.9255	0.057
Mof_C 	C 	0.24391	0.10149	0.89851	0.009
Mof_C 	C 	0.2709	0.1157	0.8843	-0.038
Mof_C 	C 	0.2935	0.1257	0.8743	-0.043
Mof_C 	C 	0.3228	0.1381	0.8619	0.037
Mof_C 	C 	0.2769	0.1069	0.8931	0.022
Mof_C 	C 	0.3019	0.117	0.883	0.004
Mof_C 	C 	0.3312	0.1294	0.8706	0.003
Mof_C 	C 	0.68445	0.58193	0.91807	0.017
Mof_H 	H 	0.6649	0.5745	0.9255	0.058
Mof_C 	C 	0.74391	0.60149	0.89851	0.009
Mof_C 	C 	0.7709	0.6157	0.8843	-0.04
Mof_C 	C 	0.7935	0.6257	0.8743	-0.045
Mof_C 	C 	0.8228	0.6381	0.8619	0.036
Mof_C 	C 	0.7769	0.6069	0.8931	0.023
Mof_C 	C 	0.8019	0.617	0.883	0.006
Mof_C 	C 	0.8312	0.6294	0.8706	0.004
Mof_C 	C 	0.68445	0.08193	0.41807	0.018
Mof_H 	H 	0.6649	0.0745	0.4255	0.056
Mof_C 	C 	0.74391	0.10149	0.39851	0.008
Mof_C 	C 	0.7709	0.1157	0.3843	-0.036
Mof_C 	C 	0.7935	0.1257	0.3743	-0.041
Mof_C 	C 	0.8228	0.1381	0.3619	0.035
Mof_C 	C 	0.7769	0.1069	0.3931	0.019
Mof_C 	C 	0.8019	0.117	0.383	0.001
Mof_C 	C 	0.8312	0.1294	0.3706	0.004
Mof_C 	C 	0.58193	0.18445	0.41807	0.018
Mof_H 	H 	0.5745	0.1649	0.4255	0.057
Mof_C 	C 	0.60149	0.24391	0.39851	0.009
Mof_C 	C 	0.6157	0.2709	0.3843	-0.038
Mof_C 	C 	0.6257	0.2935	0.3743	-0.043
Mof_C 	C 	0.6381	0.3228	0.3619	0.037
Mof_C 	C 	0.6069	0.2769	0.3931	0.022
Mof_C 	C 	0.617	0.3019	0.383	0.004
Mof_C 	C 	0.6294	0.3312	0.3706	0.003
Mof_C 	C 	0.58193	0.68445	0.91807	0.017
Mof_H 	H 	0.5745	0.6649	0.9255	0.058
Mof_C 	C 	0.60149	0.74391	0.89851	0.009
Mof_C 	C 	0.6157	0.7709	0.8843	-0.04
Mof_C 	C 	0.6257	0.7935	0.8743	-0.045
Mof_C 	C 	0.6381	0.8228	0.8619	0.036
Mof_C 	C 	0.6069	0.7769	0.8931	0.023
Mof_C 	C 	0.617	0.8019	0.883	0.006
Mof_C 	C 	0.6294	0.8312	0.8706	0.004
Mof_C 	C 	0.08193	0.18445	0.91807	0.018
Mof_H 	H 	0.0745	0.1649	0.9255	0.057
Mof_C 	C 	0.10149	0.24391	0.89851	0.009
Mof_C 	C 	0.1157	0.2709	0.8843	-0.038
Mof_C 	C 	0.1257	0.2935	0.8743	-0.043
Mof_C 	C 	0.1381	0.3228	0.8619	0.037
Mof_C 	C 	0.1069	0.2769	0.8931	0.022
Mof_C 	C 	0.117	0.3019	0.883	0.004
Mof_C 	C 	0.1294	0.3312	0.8706	0.003
Mof_C 	C 	0.08193	0.68445	0.41807	0.018
Mof_H 	H 	0.0745	0.6649	0.4255	0.056
Mof_C 	C 	0.10149	0.74391	0.39851	0.008
Mof_C 	C 	0.1157	0.7709	0.3843	-0.036
Mof_C 	C 	0.1257	0.7935	0.3743	-0.041
Mof_C 	C 	0.1381	0.8228	0.3619	0.035
Mof_C 	C 	0.1069	0.7769	0.3931	0.019
Mof_C 	C 	0.117	0.8019	0.383	0.001
Mof_C 	C 	0.1294	0.8312	0.3706	0.004
Mof_C 	C 	0.58193	0.81555	0.58193	0.018
Mof_H 	H 	0.5745	0.8351	0.5745	0.057
Mof_C 	C 	0.60149	0.75609	0.60149	0.009
Mof_C 	C 	0.6157	0.7291	0.6157	-0.038
Mof_C 	C 	0.6257	0.7065	0.6257	-0.043
Mof_C 	C 	0.6381	0.6772	0.6381	0.037
Mof_C 	C 	0.6069	0.7231	0.6069	0.022
Mof_C 	C 	0.617	0.6981	0.617	0.004
Mof_C 	C 	0.6294	0.6688	0.6294	0.003
Mof_C 	C 	0.58193	0.31555	0.08193	0.018
Mof_H 	H 	0.5745	0.3351	0.0745	0.056
Mof_C 	C 	0.60149	0.25609	0.10149	0.008
Mof_C 	C 	0.6157	0.2291	0.1157	-0.037
Mof_C 	C 	0.6257	0.2065	0.1257	-0.041
Mof_C 	C 	0.6381	0.1772	0.1381	0.037
Mof_C 	C 	0.6069	0.2231	0.1069	0.02
Mof_C 	C 	0.617	0.1981	0.117	0.001
Mof_C 	C 	0.6294	0.1688	0.1294	0.002
Mof_C 	C 	0.08193	0.81555	0.08193	0.018
Mof_H 	H 	0.0745	0.8351	0.0745	0.056
Mof_C 	C 	0.10149	0.75609	0.10149	0.008
Mof_C 	C 	0.1157	0.7291	0.1157	-0.035
Mof_C 	C 	0.1257	0.7065	0.1257	-0.038
Mof_C 	C 	0.1381	0.6772	0.1381	0.036
Mof_C 	C 	0.1069	0.7231	0.1069	0.018
Mof_C 	C 	0.117	0.6981	0.117	-0.001
Mof_C 	C 	0.1294	0.6688	0.1294	0.004
Mof_C 	C 	0.08193	0.31555	0.58193	0.018
Mof_H 	H 	0.0745	0.3351	0.5745	0.056
Mof_C 	C 	0.10149	0.25609	0.60149	0.008
Mof_C 	C 	0.1157	0.2291	0.6157	-0.037
Mof_C 	C 	0.1257	0.2065	0.6257	-0.041
Mof_C 	C 	0.1381	0.1772	0.6381	0.037
Mof_C 	C 	0.1069	0.2231	0.6069	0.02
Mof_C 	C 	0.117	0.1981	0.617	0.001
Mof_C 	C 	0.1294	0.1688	0.6294	0.002
Mof_C 	C 	0.41807	0.81555	0.41807	0.018
Mof_H 	H 	0.4255	0.8351	0.4255	0.057
Mof_C 	C 	0.39851	0.75609	0.39851	0.009
Mof_C 	C 	0.3843	0.7291	0.3843	-0.038
Mof_C 	C 	0.3743	0.7065	0.3743	-0.043
Mof_C 	C 	0.3619	0.6772	0.3619	0.037
Mof_C 	C 	0.3931	0.7231	0.3931	0.022
Mof_C 	C 	0.383	0.6981	0.383	0.004
Mof_C 	C 	0.3706	0.6688	0.3706	0.003
Mof_C 	C 	0.41807	0.31555	0.91807	0.017
Mof_H 	H 	0.4255	0.3351	0.9255	0.058
Mof_C 	C 	0.39851	0.25609	0.89851	0.009
Mof_C 	C 	0.3843	0.2291	0.8843	-0.041
Mof_C 	C 	0.3743	0.2065	0.8743	-0.045
Mof_C 	C 	0.3619	0.1772	0.8619	0.038
Mof_C 	C 	0.3931	0.2231	0.8931	0.024
Mof_C 	C 	0.383	0.1981	0.883	0.006
Mof_C 	C 	0.3706	0.1688	0.8706	0.001
Mof_C 	C 	0.91807	0.81555	0.91807	0.017
Mof_H 	H 	0.9255	0.8351	0.9255	0.059
Mof_C 	C 	0.89851	0.75609	0.89851	0.01
Mof_C 	C 	0.8843	0.7291	0.8843	-0.042
Mof_C 	C 	0.8743	0.7065	0.8743	-0.047
Mof_C 	C 	0.8619	0.6772	0.8619	0.038
Mof_C 	C 	0.8931	0.7231	0.8931	0.026
Mof_C 	C 	0.883	0.6981	0.883	0.009
Mof_C 	C 	0.8706	0.6688	0.8706	0.002
Mof_C 	C 	0.91807	0.31555	0.41807	0.017
Mof_H 	H 	0.9255	0.3351	0.4255	0.058
Mof_C 	C 	0.89851	0.25609	0.39851	0.009
Mof_C 	C 	0.8843	0.2291	0.3843	-0.041
Mof_C 	C 	0.8743	0.2065	0.3743	-0.045
Mof_C 	C 	0.8619	0.1772	0.3619	0.038
Mof_C 	C 	0.8931	0.2231	0.3931	0.024
Mof_C 	C 	0.883	0.1981	0.383	0.006
Mof_C 	C 	0.8706	0.1688	0.3706	0.001
Mof_C 	C 	0.41807	0.18445	0.58193	0.018
Mof_H 	H 	0.4255	0.1649	0.5745	0.057
Mof_C 	C 	0.39851	0.24391	0.60149	0.009
Mof_C 	C 	0.3843	0.2709	0.6157	-0.038
Mof_C 	C 	0.3743	0.2935	0.6257	-0.043
Mof_C 	C 	0.3619	0.3228	0.6381	0.037
Mof_C 	C 	0.3931	0.2769	0.6069	0.022
Mof_C 	C 	0.383	0.3019	0.617	0.004
Mof_C 	C 	0.3706	0.3312	0.6294	0.003
Mof_C 	C 	0.41807	0.68445	0.08193	0.018
Mof_H 	H 	0.4255	0.6649	0.0745	0.056
Mof_C 	C 	0.39851	0.74391	0.10149	0.008
Mof_C 	C 	0.3843	0.7709	0.1157	-0.036
Mof_C 	C 	0.3743	0.7935	0.1257	-0.041
Mof_C 	C 	0.3619	0.8228	0.1381	0.035
Mof_C 	C 	0.3931	0.7769	0.1069	0.019
Mof_C 	C 	0.383	0.8019	0.117	0.001
Mof_C 	C 	0.3706	0.8312	0.1294	0.004
Mof_C 	C 	0.91807	0.18445	0.08193	0.018
Mof_H 	H 	0.9255	0.1649	0.0745	0.057
Mof_C 	C 	0.89851	0.24391	0.10149	0.009
Mof_C 	C 	0.8843	0.2709	0.1157	-0.038
Mof_C 	C 	0.8743	0.2935	0.1257	-0.043
Mof_C 	C 	0.8619	0.3228	0.1381	0.037
Mof_C 	C 	0.8931	0.2769	0.1069	0.022
Mof_C 	C 	0.883	0.3019	0.117	0.004
Mof_C 	C 	0.8706	0.3312	0.1294	0.003
Mof_C 	C 	0.91807	0.68445	0.58193	0.017
Mof_H 	H 	0.9255	0.6649	0.5745	0.058
Mof_C 	C 	0.89851	0.74391	0.60149	0.009
Mof_C 	C 	0.8843	0.7709	0.6157	-0.04
Mof_C 	C 	0.8743	0.7935	0.6257	-0.045
Mof_C 	C 	0.8619	0.8228	0.6381	0.036
Mof_C 	C 	0.8931	0.7769	0.6069	0.023
Mof_C 	C 	0.883	0.8019	0.617	0.006
Mof_C 	C 	0.8706	0.8312	0.6294	0.004
Mof_C 	C 	0.41807	0.58193	0.18445	0.018
Mof_H 	H 	0.4255	0.5745	0.1649	0.057
Mof_C 	C 	0.39851	0.60149	0.24391	0.009
Mof_C 	C 	0.3843	0.6157	0.2709	-0.038
Mof_C 	C 	0.3743	0.6257	0.2935	-0.043
Mof_C 	C 	0.3619	0.6381	0.3228	0.037
Mof_C 	C 	0.3931	0.6069	0.2769	0.022
Mof_C 	C 	0.383	0.617	0.3019	0.004
Mof_C 	C 	0.3706	0.6294	0.3312	0.003
Mof_C 	C 	0.41807	0.08193	0.68445	0.018
Mof_H 	H 	0.4255	0.0745	0.6649	0.056
Mof_C 	C 	0.39851	0.10149	0.74391	0.008
Mof_C 	C 	0.3843	0.1157	0.7709	-0.036
Mof_C 	C 	0.3743	0.1257	0.7935	-0.041
Mof_C 	C 	0.3619	0.1381	0.8228	0.035
Mof_C 	C 	0.3931	0.1069	0.7769	0.019
Mof_C 	C 	0.383	0.117	0.8019	0.001
Mof_C 	C 	0.3706	0.1294	0.8312	0.004
Mof_C 	C 	0.91807	0.58193	0.68445	0.017
Mof_H 	H 	0.9255	0.5745	0.6649	0.058
Mof_C 	C 	0.89851	0.60149	0.74391	0.009
Mof_C 	C 	0.8843	0.6157	0.7709	-0.04
Mof_C 	C 	0.8743	0.6257	0.7935	-0.045
Mof_C 	C 	0.8619	0.6381	0.8228	0.036
Mof_C 	C 	0.8931	0.6069	0.7769	0.023
Mof_C 	C 	0.883	0.617	0.8019	0.006
Mof_C 	C 	0.8706	0.6294	0.8312	0.004
Mof_C 	C 	0.91807	0.08193	0.18445	0.018
Mof_H 	H 	0.9255	0.0745	0.1649	0.057
Mof_C 	C 	0.89851	0.10149	0.24391	0.009
Mof_C 	C 	0.8843	0.1157	0.2709	-0.038
Mof_C 	C 	0.8743	0.1257	0.2935	-0.043
Mof_C 	C 	0.8619	0.1381	0.3228	0.037
Mof_C 	C 	0.8931	0.1069	0.2769	0.022
Mof_C 	C 	0.883	0.117	0.3019	0.004
Mof_C 	C 	0.8706	0.1294	0.3312	0.003
Mof_C 	C 	0.58193	0.58193	0.81555	0.018
Mof_H 	H 	0.5745	0.5745	0.8351	0.057
Mof_C 	C 	0.60149	0.60149	0.75609	0.009
Mof_C 	C 	0.6157	0.6157	0.7291	-0.038
Mof_C 	C 	0.6257	0.6257	0.7065	-0.043
Mof_C 	C 	0.6381	0.6381	0.6772	0.037
Mof_C 	C 	0.6069	0.6069	0.7231	0.022
Mof_C 	C 	0.617	0.617	0.6981	0.004
Mof_C 	C 	0.6294	0.6294	0.6688	0.003
Mof_C 	C 	0.58193	0.08193	0.31555	0.018
Mof_H 	H 	0.5745	0.0745	0.3351	0.056
Mof_C 	C 	0.60149	0.10149	0.25609	0.008
Mof_C 	C 	0.6157	0.1157	0.2291	-0.037
Mof_C 	C 	0.6257	0.1257	0.2065	-0.041
Mof_C 	C 	0.6381	0.1381	0.1772	0.037
Mof_C 	C 	0.6069	0.1069	0.2231	0.02
Mof_C 	C 	0.617	0.117	0.1981	0.001
Mof_C 	C 	0.6294	0.1294	0.1688	0.002
Mof_C 	C 	0.08193	0.58193	0.31555	0.018
Mof_H 	H 	0.0745	0.5745	0.3351	0.056
Mof_C 	C 	0.10149	0.60149	0.25609	0.008
Mof_C 	C 	0.1157	0.6157	0.2291	-0.037
Mof_C 	C 	0.1257	0.6257	0.2065	-0.041
Mof_C 	C 	0.1381	0.6381	0.1772	0.037
Mof_C 	C 	0.1069	0.6069	0.2231	0.02
Mof_C 	C 	0.117	0.617	0.1981	0.001
Mof_C 	C 	0.1294	0.6294	0.1688	0.002
Mof_C 	C 	0.08193	0.08193	0.81555	0.018
Mof_H 	H 	0.0745	0.0745	0.8351	0.056
Mof_C 	C 	0.10149	0.10149	0.75609	0.008
Mof_C 	C 	0.1157	0.1157	0.7291	-0.035
Mof_C 	C 	0.1257	0.1257	0.7065	-0.038
Mof_C 	C 	0.1381	0.1381	0.6772	0.036
Mof_C 	C 	0.1069	0.1069	0.7231	0.018
Mof_C 	C 	0.117	0.117	0.6981	-0.001
Mof_C 	C 	0.1294	0.1294	0.6688	0.004
Mof_C 	C 	0.41807	0.41807	0.81555	0.018
Mof_H 	H 	0.4255	0.4255	0.8351	0.057
Mof_C 	C 	0.39851	0.39851	0.75609	0.009
Mof_C 	C 	0.3843	0.3843	0.7291	-0.038
Mof_C 	C 	0.3743	0.3743	0.7065	-0.043
Mof_C 	C 	0.3619	0.3619	0.6772	0.037
Mof_C 	C 	0.3931	0.3931	0.7231	0.022
Mof_C 	C 	0.383	0.383	0.6981	0.004
Mof_C 	C 	0.3706	0.3706	0.6688	0.003
Mof_C 	C 	0.41807	0.91807	0.31555	0.017
Mof_H 	H 	0.4255	0.9255	0.3351	0.058
Mof_C 	C 	0.39851	0.89851	0.25609	0.009
Mof_C 	C 	0.3843	0.8843	0.2291	-0.041
Mof_C 	C 	0.3743	0.8743	0.2065	-0.045
Mof_C 	C 	0.3619	0.8619	0.1772	0.038
Mof_C 	C 	0.3931	0.8931	0.2231	0.024
Mof_C 	C 	0.383	0.883	0.1981	0.006
Mof_C 	C 	0.3706	0.8706	0.1688	0.001
Mof_C 	C 	0.91807	0.41807	0.31555	0.017
Mof_H 	H 	0.9255	0.4255	0.3351	0.058
Mof_C 	C 	0.89851	0.39851	0.25609	0.009
Mof_C 	C 	0.8843	0.3843	0.2291	-0.041
Mof_C 	C 	0.8743	0.3743	0.2065	-0.045
Mof_C 	C 	0.8619	0.3619	0.1772	0.038
Mof_C 	C 	0.8931	0.3931	0.2231	0.024
Mof_C 	C 	0.883	0.383	0.1981	0.006
Mof_C 	C 	0.8706	0.3706	0.1688	0.001
Mof_C 	C 	0.91807	0.91807	0.81555	0.017
Mof_H 	H 	0.9255	0.9255	0.8351	0.059
Mof_C 	C 	0.89851	0.89851	0.75609	0.01
Mof_C 	C 	0.8843	0.8843	0.7291	-0.042
Mof_C 	C 	0.8743	0.8743	0.7065	-0.047
Mof_C 	C 	0.8619	0.8619	0.6772	0.038
Mof_C 	C 	0.8931	0.8931	0.7231	0.026
Mof_C 	C 	0.883	0.883	0.6981	0.009
Mof_C 	C 	0.8706	0.8706	0.6688	0.002
Mof_C 	C 	0.58193	0.41807	0.18445	0.018
Mof_H 	H 	0.5745	0.4255	0.1649	0.057
Mof_C 	C 	0.60149	0.39851	0.24391	0.009
Mof_C 	C 	0.6157	0.3843	0.2709	-0.038
Mof_C 	C 	0.6257	0.3743	0.2935	-0.043
Mof_C 	C 	0.6381	0.3619	0.3228	0.037
Mof_C 	C 	0.6069	0.3931	0.2769	0.022
Mof_C 	C 	0.617	0.383	0.3019	0.004
Mof_C 	C 	0.6294	0.3706	0.3312	0.003
Mof_C 	C 	0.58193	0.91807	0.68445	0.017
Mof_H 	H 	0.5745	0.9255	0.6649	0.058
Mof_C 	C 	0.60149	0.89851	0.74391	0.009
Mof_C 	C 	0.6157	0.8843	0.7709	-0.04
Mof_C 	C 	0.6257	0.8743	0.7935	-0.045
Mof_C 	C 	0.6381	0.8619	0.8228	0.036
Mof_C 	C 	0.6069	0.8931	0.7769	0.023
Mof_C 	C 	0.617	0.883	0.8019	0.006
Mof_C 	C 	0.6294	0.8706	0.8312	0.004
Mof_C 	C 	0.08193	0.41807	0.68445	0.018
Mof_H 	H 	0.0745	0.4255	0.6649	0.056
Mof_C 	C 	0.10149	0.39851	0.74391	0.008
Mof_C 	C 	0.1157	0.3843	0.7709	-0.036
Mof_C 	C 	0.1257	0.3743	0.7935	-0.041
Mof_C 	C 	0.1381	0.3619	0.8228	0.035
Mof_C 	C 	0.1069	0.3931	0.7769	0.019
Mof_C 	C 	0.117	0.383	0.8019	0.001
Mof_C 	C 	0.1294	0.3706	0.8312	0.004
Mof_C 	C 	0.08193	0.91807	0.18445	0.018
Mof_H 	H 	0.0745	0.9255	0.1649	0.057
Mof_C 	C 	0.10149	0.89851	0.24391	0.009
Mof_C 	C 	0.1157	0.8843	0.2709	-0.038
Mof_C 	C 	0.1257	0.8743	0.2935	-0.043
Mof_C 	C 	0.1381	0.8619	0.3228	0.037
Mof_C 	C 	0.1069	0.8931	0.2769	0.022
Mof_C 	C 	0.117	0.883	0.3019	0.004
Mof_C 	C 	0.1294	0.8706	0.3312	0.003
Mof_C 	C 	0.41807	0.18445	0.41807	0.018
Mof_H 	H 	0.4255	0.1649	0.4255	0.057
Mof_C 	C 	0.39851	0.24391	0.39851	0.009
Mof_C 	C 	0.3843	0.2709	0.3843	-0.038
Mof_C 	C 	0.3743	0.2935	0.3743	-0.043
Mof_C 	C 	0.3619	0.3228	0.3619	0.037
Mof_C 	C 	0.3931	0.2769	0.3931	0.022
Mof_C 	C 	0.383	0.3019	0.383	0.004
Mof_C 	C 	0.3706	0.3312	0.3706	0.003
Mof_C 	C 	0.41807	0.68445	0.91807	0.017
Mof_H 	H 	0.4255	0.6649	0.9255	0.058
Mof_C 	C 	0.39851	0.74391	0.89851	0.009
Mof_C 	C 	0.3843	0.7709	0.8843	-0.04
Mof_C 	C 	0.3743	0.7935	0.8743	-0.045
Mof_C 	C 	0.3619	0.8228	0.8619	0.036
Mof_C 	C 	0.3931	0.7769	0.8931	0.023
Mof_C 	C 	0.383	0.8019	0.883	0.006
Mof_C 	C 	0.3706	0.8312	0.8706	0.004
Mof_C 	C 	0.91807	0.18445	0.91807	0.017
Mof_H 	H 	0.9255	0.1649	0.9255	0.058
Mof_C 	C 	0.89851	0.24391	0.89851	0.01
Mof_C 	C 	0.8843	0.2709	0.8843	-0.042
Mof_C 	C 	0.8743	0.2935	0.8743	-0.047
Mof_C 	C 	0.8619	0.3228	0.8619	0.038
Mof_C 	C 	0.8931	0.2769	0.8931	0.026
Mof_C 	C 	0.883	0.3019	0.883	0.009
Mof_C 	C 	0.8706	0.3312	0.8706	0.002
Mof_C 	C 	0.91807	0.68445	0.41807	0.017
Mof_H 	H 	0.9255	0.6649	0.4255	0.058
Mof_C 	C 	0.89851	0.74391	0.39851	0.009
Mof_C 	C 	0.8843	0.7709	0.3843	-0.04
Mof_C 	C 	0.8743	0.7935	0.3743	-0.045
Mof_C 	C 	0.8619	0.8228	0.3619	0.036
Mof_C 	C 	0.8931	0.7769	0.3931	0.023
Mof_C 	C 	0.883	0.8019	0.383	0.006
Mof_C 	C 	0.8706	0.8312	0.3706	0.004
Mof_C 	C 	0.58193	0.81555	0.41807	0.018
Mof_H 	H 	0.5745	0.8351	0.4255	0.057
Mof_C 	C 	0.60149	0.75609	0.39851	0.009
Mof_C 	C 	0.6157	0.7291	0.3843	-0.038
Mof_C 	C 	0.6257	0.7065	0.3743	-0.043
Mof_C 	C 	0.6381	0.6772	0.3619	0.037
Mof_C 	C 	0.6069	0.7231	0.3931	0.022
Mof_C 	C 	0.617	0.6981	0.383	0.004
Mof_C 	C 	0.6294	0.6688	0.3706	0.003
Mof_C 	C 	0.58193	0.31555	0.91807	0.017
Mof_H 	H 	0.5745	0.3351	0.9255	0.058
Mof_C 	C 	0.60149	0.25609	0.89851	0.009
Mof_C 	C 	0.6157	0.2291	0.8843	-0.041
Mof_C 	C 	0.6257	0.2065	0.8743	-0.045
Mof_C 	C 	0.6381	0.1772	0.8619	0.038
Mof_C 	C 	0.6069	0.2231	0.8931	0.024
Mof_C 	C 	0.617	0.1981	0.883	0.006
Mof_C 	C 	0.6294	0.1688	0.8706	0.001
Mof_C 	C 	0.08193	0.81555	0.91807	0.018
Mof_H 	H 	0.0745	0.8351	0.9255	0.057
Mof_C 	C 	0.10149	0.75609	0.89851	0.009
Mof_C 	C 	0.1157	0.7291	0.8843	-0.038
Mof_C 	C 	0.1257	0.7065	0.8743	-0.043
Mof_C 	C 	0.1381	0.6772	0.8619	0.037
Mof_C 	C 	0.1069	0.7231	0.8931	0.022
Mof_C 	C 	0.117	0.6981	0.883	0.004
Mof_C 	C 	0.1294	0.6688	0.8706	0.003
Mof_C 	C 	0.08193	0.31555	0.41807	0.018
Mof_H 	H 	0.0745	0.3351	0.4255	0.056
Mof_C 	C 	0.10149	0.25609	0.39851	0.008
Mof_C 	C 	0.1157	0.2291	0.3843	-0.037
Mof_C 	C 	0.1257	0.2065	0.3743	-0.041
Mof_C 	C 	0.1381	0.1772	0.3619	0.037
Mof_C 	C 	0.1069	0.2231	0.3931	0.02
Mof_C 	C 	0.117	0.1981	0.383	0.001
Mof_C 	C 	0.1294	0.1688	0.3706	0.002
Mof_C 	C 	0.41807	0.81555	0.58193	0.018
Mof_H 	H 	0.4255	0.8351	0.5745	0.057
Mof_C 	C 	0.39851	0.75609	0.60149	0.009
Mof_C 	C 	0.3843	0.7291	0.6157	-0.038
Mof_C 	C 	0.3743	0.7065	0.6257	-0.043
Mof_C 	C 	0.3619	0.6772	0.6381	0.037
Mof_C 	C 	0.3931	0.7231	0.6069	0.022
Mof_C 	C 	0.383	0.6981	0.617	0.004
Mof_C 	C 	0.3706	0.6688	0.6294	0.003
Mof_C 	C 	0.41807	0.31555	0.08193	0.018
Mof_H 	H 	0.4255	0.3351	0.0745	0.056
Mof_C 	C 	0.39851	0.25609	0.10149	0.008
Mof_C 	C 	0.3843	0.2291	0.1157	-0.037
Mof_C 	C 	0.3743	0.2065	0.1257	-0.041
Mof_C 	C 	0.3619	0.1772	0.1381	0.037
Mof_C 	C 	0.3931	0.2231	0.1069	0.02
Mof_C 	C 	0.383	0.1981	0.117	0.001
Mof_C 	C 	0.3706	0.1688	0.1294	0.002
Mof_C 	C 	0.91807	0.81555	0.08193	0.018
Mof_H 	H 	0.9255	0.8351	0.0745	0.057
Mof_C 	C 	0.89851	0.75609	0.10149	0.009
Mof_C 	C 	0.8843	0.7291	0.1157	-0.038
Mof_C 	C 	0.8743	0.7065	0.1257	-0.043
Mof_C 	C 	0.8619	0.6772	0.1381	0.037
Mof_C 	C 	0.8931	0.7231	0.1069	0.022
Mof_C 	C 	0.883	0.6981	0.117	0.004
Mof_C 	C 	0.8706	0.6688	0.1294	0.003
Mof_C 	C 	0.91807	0.31555	0.58193	0.017
Mof_H 	H 	0.9255	0.3351	0.5745	0.058
Mof_C 	C 	0.89851	0.25609	0.60149	0.009
Mof_C 	C 	0.8843	0.2291	0.6157	-0.041
Mof_C 	C 	0.8743	0.2065	0.6257	-0.045
Mof_C 	C 	0.8619	0.1772	0.6381	0.038
Mof_C 	C 	0.8931	0.2231	0.6069	0.024
Mof_C 	C 	0.883	0.1981	0.617	0.006
Mof_C 	C 	0.8706	0.1688	0.6294	0.001
Mof_C 	C 	0.58193	0.18445	0.58193	0.018
Mof_H 	H 	0.5745	0.1649	0.5745	0.057
Mof_C 	C 	0.60149	0.24391	0.60149	0.009
Mof_C 	C 	0.6157	0.2709	0.6157	-0.038
Mof_C 	C 	0.6257	0.2935	0.6257	-0.043
Mof_C 	C 	0.6381	0.3228	0.6381	0.037
Mof_C 	C 	0.6069	0.2769	0.6069	0.022
Mof_C 	C 	0.617	0.3019	0.617	0.004
Mof_C 	C 	0.6294	0.3312	0.6294	0.003
Mof_C 	C 	0.58193	0.68445	0.08193	0.018
Mof_H 	H 	0.5745	0.6649	0.0745	0.056
Mof_C 	C 	0.60149	0.74391	0.10149	0.008
Mof_C 	C 	0.6157	0.7709	0.1157	-0.036
Mof_C 	C 	0.6257	0.7935	0.1257	-0.041
Mof_C 	C 	0.6381	0.8228	0.1381	0.035
Mof_C 	C 	0.6069	0.7769	0.1069	0.019
Mof_C 	C 	0.617	0.8019	0.117	0.001
Mof_C 	C 	0.6294	0.8312	0.1294	0.004
Mof_C 	C 	0.08193	0.18445	0.08193	0.018
Mof_H 	H 	0.0745	0.1649	0.0745	0.056
Mof_C 	C 	0.10149	0.24391	0.10149	0.008
Mof_C 	C 	0.1157	0.2709	0.1157	-0.035
Mof_C 	C 	0.1257	0.2935	0.1257	-0.039
Mof_C 	C 	0.1381	0.3228	0.1381	0.036
Mof_C 	C 	0.1069	0.2769	0.1069	0.018
Mof_C 	C 	0.117	0.3019	0.117	-0.001
Mof_C 	C 	0.1294	0.3312	0.1294	0.004
Mof_C 	C 	0.08193	0.68445	0.58193	0.018
Mof_H 	H 	0.0745	0.6649	0.5745	0.056
Mof_C 	C 	0.10149	0.74391	0.60149	0.008
Mof_C 	C 	0.1157	0.7709	0.6157	-0.036
Mof_C 	C 	0.1257	0.7935	0.6257	-0.041
Mof_C 	C 	0.1381	0.8228	0.6381	0.035
Mof_C 	C 	0.1069	0.7769	0.6069	0.019
Mof_C 	C 	0.117	0.8019	0.617	0.001
Mof_C 	C 	0.1294	0.8312	0.6294	0.004
Mof_C 	C 	0.18445	0.58193	0.58193	0.018
Mof_H 	H 	0.1649	0.5745	0.5745	0.057
Mof_C 	C 	0.24391	0.60149	0.60149	0.009
Mof_C 	C 	0.2709	0.6157	0.6157	-0.038
Mof_C 	C 	0.2935	0.6257	0.6257	-0.043
Mof_C 	C 	0.3228	0.6381	0.6381	0.037
Mof_C 	C 	0.2769	0.6069	0.6069	0.022
Mof_C 	C 	0.3019	0.617	0.617	0.004
Mof_C 	C 	0.3312	0.6294	0.6294	0.003
Mof_C 	C 	0.18445	0.08193	0.08193	0.018
Mof_H 	H 	0.1649	0.0745	0.0745	0.056
Mof_C 	C 	0.24391	0.10149	0.10149	0.008
Mof_C 	C 	0.2709	0.1157	0.1157	-0.035
Mof_C 	C 	0.2935	0.1257	0.1257	-0.039
Mof_C 	C 	0.3228	0.1381	0.1381	0.036
Mof_C 	C 	0.2769	0.1069	0.1069	0.018
Mof_C 	C 	0.3019	0.117	0.117	-0.001
Mof_C 	C 	0.3312	0.1294	0.1294	0.004
Mof_C 	C 	0.68445	0.58193	0.08193	0.018
Mof_H 	H 	0.6649	0.5745	0.0745	0.056
Mof_C 	C 	0.74391	0.60149	0.10149	0.008
Mof_C 	C 	0.7709	0.6157	0.1157	-0.036
Mof_C 	C 	0.7935	0.6257	0.1257	-0.041
Mof_C 	C 	0.8228	0.6381	0.1381	0.035
Mof_C 	C 	0.7769	0.6069	0.1069	0.019
Mof_C 	C 	0.8019	0.617	0.117	0.001
Mof_C 	C 	0.8312	0.6294	0.1294	0.004
Mof_C 	C 	0.68445	0.08193	0.58193	0.018
Mof_H 	H 	0.6649	0.0745	0.5745	0.056
Mof_C 	C 	0.74391	0.10149	0.60149	0.008
Mof_C 	C 	0.7709	0.1157	0.6157	-0.036
Mof_C 	C 	0.7935	0.1257	0.6257	-0.041
Mof_C 	C 	0.8228	0.1381	0.6381	0.035
Mof_C 	C 	0.7769	0.1069	0.6069	0.019
Mof_C 	C 	0.8019	0.117	0.617	0.001
Mof_C 	C 	0.8312	0.1294	0.6294	0.004
Mof_C 	C 	0.81555	0.58193	0.41807	0.018
Mof_H 	H 	0.8351	0.5745	0.4255	0.057
Mof_C 	C 	0.75609	0.60149	0.39851	0.009
Mof_C 	C 	0.7291	0.6157	0.3843	-0.038
Mof_C 	C 	0.7065	0.6257	0.3743	-0.043
Mof_C 	C 	0.6772	0.6381	0.3619	0.037
Mof_C 	C 	0.7231	0.6069	0.3931	0.022
Mof_C 	C 	0.6981	0.617	0.383	0.004
Mof_C 	C 	0.6688	0.6294	0.3706	0.003
Mof_C 	C 	0.81555	0.08193	0.91807	0.018
Mof_H 	H 	0.8351	0.0745	0.9255	0.057
Mof_C 	C 	0.75609	0.10149	0.89851	0.009
Mof_C 	C 	0.7291	0.1157	0.8843	-0.038
Mof_C 	C 	0.7065	0.1257	0.8743	-0.043
Mof_C 	C 	0.6772	0.1381	0.8619	0.037
Mof_C 	C 	0.7231	0.1069	0.8931	0.022
Mof_C 	C 	0.6981	0.117	0.883	0.004
Mof_C 	C 	0.6688	0.1294	0.8706	0.003
Mof_C 	C 	0.31555	0.58193	0.91807	0.017
Mof_H 	H 	0.3351	0.5745	0.9255	0.058
Mof_C 	C 	0.25609	0.60149	0.89851	0.009
Mof_C 	C 	0.2291	0.6157	0.8843	-0.041
Mof_C 	C 	0.2065	0.6257	0.8743	-0.045
Mof_C 	C 	0.1772	0.6381	0.8619	0.038
Mof_C 	C 	0.2231	0.6069	0.8931	0.024
Mof_C 	C 	0.1981	0.617	0.883	0.006
Mof_C 	C 	0.1688	0.6294	0.8706	0.001
Mof_C 	C 	0.31555	0.08193	0.41807	0.018
Mof_H 	H 	0.3351	0.0745	0.4255	0.056
Mof_C 	C 	0.25609	0.10149	0.39851	0.008
Mof_C 	C 	0.2291	0.1157	0.3843	-0.037
Mof_C 	C 	0.2065	0.1257	0.3743	-0.041
Mof_C 	C 	0.1772	0.1381	0.3619	0.037
Mof_C 	C 	0.2231	0.1069	0.3931	0.02
Mof_C 	C 	0.1981	0.117	0.383	0.001
Mof_C 	C 	0.1688	0.1294	0.3706	0.002
Mof_C 	C 	0.81555	0.41807	0.58193	0.018
Mof_H 	H 	0.8351	0.4255	0.5745	0.057
Mof_C 	C 	0.75609	0.39851	0.60149	0.009
Mof_C 	C 	0.7291	0.3843	0.6157	-0.038
Mof_C 	C 	0.7065	0.3743	0.6257	-0.043
Mof_C 	C 	0.6772	0.3619	0.6381	0.037
Mof_C 	C 	0.7231	0.3931	0.6069	0.022
Mof_C 	C 	0.6981	0.383	0.617	0.004
Mof_C 	C 	0.6688	0.3706	0.6294	0.003
Mof_C 	C 	0.81555	0.91807	0.08193	0.018
Mof_H 	H 	0.8351	0.9255	0.0745	0.057
Mof_C 	C 	0.75609	0.89851	0.10149	0.009
Mof_C 	C 	0.7291	0.8843	0.1157	-0.038
Mof_C 	C 	0.7065	0.8743	0.1257	-0.043
Mof_C 	C 	0.6772	0.8619	0.1381	0.037
Mof_C 	C 	0.7231	0.8931	0.1069	0.022
Mof_C 	C 	0.6981	0.883	0.117	0.004
Mof_C 	C 	0.6688	0.8706	0.1294	0.003
Mof_C 	C 	0.31555	0.41807	0.08193	0.018
Mof_H 	H 	0.3351	0.4255	0.0745	0.056
Mof_C 	C 	0.25609	0.39851	0.10149	0.008
Mof_C 	C 	0.2291	0.3843	0.1157	-0.037
Mof_C 	C 	0.2065	0.3743	0.1257	-0.041
Mof_C 	C 	0.1772	0.3619	0.1381	0.037
Mof_C 	C 	0.2231	0.3931	0.1069	0.02
Mof_C 	C 	0.1981	0.383	0.117	0.001
Mof_C 	C 	0.1688	0.3706	0.1294	0.002
Mof_C 	C 	0.31555	0.91807	0.58193	0.017
Mof_H 	H 	0.3351	0.9255	0.5745	0.058
Mof_C 	C 	0.25609	0.89851	0.60149	0.009
Mof_C 	C 	0.2291	0.8843	0.6157	-0.041
Mof_C 	C 	0.2065	0.8743	0.6257	-0.045
Mof_C 	C 	0.1772	0.8619	0.6381	0.038
Mof_C 	C 	0.2231	0.8931	0.6069	0.024
Mof_C 	C 	0.1981	0.883	0.617	0.006
Mof_C 	C 	0.1688	0.8706	0.6294	0.001
Mof_C 	C 	0.18445	0.41807	0.41807	0.018
Mof_H 	H 	0.1649	0.4255	0.4255	0.057
Mof_C 	C 	0.24391	0.39851	0.39851	0.009
Mof_C 	C 	0.2709	0.3843	0.3843	-0.038
Mof_C 	C 	0.2935	0.3743	0.3743	-0.043
Mof_C 	C 	0.3228	0.3619	0.3619	0.037
Mof_C 	C 	0.2769	0.3931	0.3931	0.022
Mof_C 	C 	0.3019	0.383	0.383	0.004
Mof_C 	C 	0.3312	0.3706	0.3706	0.003
Mof_C 	C 	0.18445	0.91807	0.91807	0.017
Mof_H 	H 	0.1649	0.9255	0.9255	0.058
Mof_C 	C 	0.24391	0.89851	0.89851	0.01
Mof_C 	C 	0.2709	0.8843	0.8843	-0.042
Mof_C 	C 	0.2935	0.8743	0.8743	-0.047
Mof_C 	C 	0.3228	0.8619	0.8619	0.038
Mof_C 	C 	0.2769	0.8931	0.8931	0.026
Mof_C 	C 	0.3019	0.883	0.883	0.009
Mof_C 	C 	0.3312	0.8706	0.8706	0.002
Mof_C 	C 	0.68445	0.41807	0.91807	0.017
Mof_H 	H 	0.6649	0.4255	0.9255	0.058
Mof_C 	C 	0.74391	0.39851	0.89851	0.009
Mof_C 	C 	0.7709	0.3843	0.8843	-0.04
Mof_C 	C 	0.7935	0.3743	0.8743	-0.045
Mof_C 	C 	0.8228	0.3619	0.8619	0.036
Mof_C 	C 	0.7769	0.3931	0.8931	0.023
Mof_C 	C 	0.8019	0.383	0.883	0.006
Mof_C 	C 	0.8312	0.3706	0.8706	0.004
Mof_C 	C 	0.68445	0.91807	0.41807	0.017
Mof_H 	H 	0.6649	0.9255	0.4255	0.058
Mof_C 	C 	0.74391	0.89851	0.39851	0.009
Mof_C 	C 	0.7709	0.8843	0.3843	-0.04
Mof_C 	C 	0.7935	0.8743	0.3743	-0.045
Mof_C 	C 	0.8228	0.8619	0.3619	0.036
Mof_C 	C 	0.7769	0.8931	0.3931	0.023
Mof_C 	C 	0.8019	0.883	0.383	0.006
Mof_C 	C 	0.8312	0.8706	0.3706	0.004
Mof_C 	C 	0.58193	0.41807	0.81555	0.018
Mof_H 	H 	0.5745	0.4255	0.8351	0.057
Mof_C 	C 	0.60149	0.39851	0.75609	0.009
Mof_C 	C 	0.6157	0.3843	0.7291	-0.038
Mof_C 	C 	0.6257	0.3743	0.7065	-0.043
Mof_C 	C 	0.6381	0.3619	0.6772	0.037
Mof_C 	C 	0.6069	0.3931	0.7231	0.022
Mof_C 	C 	0.617	0.383	0.6981	0.004
Mof_C 	C 	0.6294	0.3706	0.6688	0.003
Mof_C 	C 	0.58193	0.91807	0.31555	0.017
Mof_H 	H 	0.5745	0.9255	0.3351	0.058
Mof_C 	C 	0.60149	0.89851	0.25609	0.009
Mof_C 	C 	0.6157	0.8843	0.2291	-0.041
Mof_C 	C 	0.6257	0.8743	0.2065	-0.045
Mof_C 	C 	0.6381	0.8619	0.1772	0.038
Mof_C 	C 	0.6069	0.8931	0.2231	0.024
Mof_C 	C 	0.617	0.883	0.1981	0.006
Mof_C 	C 	0.6294	0.8706	0.1688	0.001
Mof_C 	C 	0.08193	0.41807	0.31555	0.018
Mof_H 	H 	0.0745	0.4255	0.3351	0.056
Mof_C 	C 	0.10149	0.39851	0.25609	0.008
Mof_C 	C 	0.1157	0.3843	0.2291	-0.037
Mof_C 	C 	0.1257	0.3743	0.2065	-0.041
Mof_C 	C 	0.1381	0.3619	0.1772	0.037
Mof_C 	C 	0.1069	0.3931	0.2231	0.02
Mof_C 	C 	0.117	0.383	0.1981	0.001
Mof_C 	C 	0.1294	0.3706	0.1688	0.002
Mof_C 	C 	0.08193	0.91807	0.81555	0.018
Mof_H 	H 	0.0745	0.9255	0.8351	0.057
Mof_C 	C 	0.10149	0.89851	0.75609	0.009
Mof_C 	C 	0.1157	0.8843	0.7291	-0.038
Mof_C 	C 	0.1257	0.8743	0.7065	-0.043
Mof_C 	C 	0.1381	0.8619	0.6772	0.037
Mof_C 	C 	0.1069	0.8931	0.7231	0.022
Mof_C 	C 	0.117	0.883	0.6981	0.004
Mof_C 	C 	0.1294	0.8706	0.6688	0.003
Mof_C 	C 	0.58193	0.58193	0.18445	0.018
Mof_H 	H 	0.5745	0.5745	0.1649	0.057
Mof_C 	C 	0.60149	0.60149	0.24391	0.009
Mof_C 	C 	0.6157	0.6157	0.2709	-0.038
Mof_C 	C 	0.6257	0.6257	0.2935	-0.043
Mof_C 	C 	0.6381	0.6381	0.3228	0.037
Mof_C 	C 	0.6069	0.6069	0.2769	0.022
Mof_C 	C 	0.617	0.617	0.3019	0.004
Mof_C 	C 	0.6294	0.6294	0.3312	0.003
Mof_C 	C 	0.58193	0.08193	0.68445	0.018
Mof_H 	H 	0.5745	0.0745	0.6649	0.056
Mof_C 	C 	0.60149	0.10149	0.74391	0.008
Mof_C 	C 	0.6157	0.1157	0.7709	-0.036
Mof_C 	C 	0.6257	0.1257	0.7935	-0.041
Mof_C 	C 	0.6381	0.1381	0.8228	0.035
Mof_C 	C 	0.6069	0.1069	0.7769	0.019
Mof_C 	C 	0.617	0.117	0.8019	0.001
Mof_C 	C 	0.6294	0.1294	0.8312	0.004
Mof_C 	C 	0.08193	0.58193	0.68445	0.018
Mof_H 	H 	0.0745	0.5745	0.6649	0.056
Mof_C 	C 	0.10149	0.60149	0.74391	0.008
Mof_C 	C 	0.1157	0.6157	0.7709	-0.036
Mof_C 	C 	0.1257	0.6257	0.7935	-0.041
Mof_C 	C 	0.1381	0.6381	0.8228	0.035
Mof_C 	C 	0.1069	0.6069	0.7769	0.019
Mof_C 	C 	0.117	0.617	0.8019	0.001
Mof_C 	C 	0.1294	0.6294	0.8312	0.004
Mof_C 	C 	0.08193	0.08193	0.18445	0.018
Mof_H 	H 	0.0745	0.0745	0.1649	0.056
Mof_C 	C 	0.10149	0.10149	0.24391	0.008
Mof_C 	C 	0.1157	0.1157	0.2709	-0.035
Mof_C 	C 	0.1257	0.1257	0.2935	-0.039
Mof_C 	C 	0.1381	0.1381	0.3228	0.036
Mof_C 	C 	0.1069	0.1069	0.2769	0.018
Mof_C 	C 	0.117	0.117	0.3019	-0.001
Mof_C 	C 	0.1294	0.1294	0.3312	0.004
Mof_C 	C 	0.41807	0.41807	0.18445	0.018
Mof_H 	H 	0.4255	0.4255	0.1649	0.057
Mof_C 	C 	0.39851	0.39851	0.24391	0.009
Mof_C 	C 	0.3843	0.3843	0.2709	-0.038
Mof_C 	C 	0.3743	0.3743	0.2935	-0.043
Mof_C 	C 	0.3619	0.3619	0.3228	0.037
Mof_C 	C 	0.3931	0.3931	0.2769	0.022
Mof_C 	C 	0.383	0.383	0.3019	0.004
Mof_C 	C 	0.3706	0.3706	0.3312	0.003
Mof_C 	C 	0.41807	0.91807	0.68445	0.017
Mof_H 	H 	0.4255	0.9255	0.6649	0.058
Mof_C 	C 	0.39851	0.89851	0.74391	0.009
Mof_C 	C 	0.3843	0.8843	0.7709	-0.04
Mof_C 	C 	0.3743	0.8743	0.7935	-0.045
Mof_C 	C 	0.3619	0.8619	0.8228	0.036
Mof_C 	C 	0.3931	0.8931	0.7769	0.023
Mof_C 	C 	0.383	0.883	0.8019	0.006
Mof_C 	C 	0.3706	0.8706	0.8312	0.004
Mof_C 	C 	0.91807	0.41807	0.68445	0.017
Mof_H 	H 	0.9255	0.4255	0.6649	0.058
Mof_C 	C 	0.89851	0.39851	0.74391	0.009
Mof_C 	C 	0.8843	0.3843	0.7709	-0.04
Mof_C 	C 	0.8743	0.3743	0.7935	-0.045
Mof_C 	C 	0.8619	0.3619	0.8228	0.036
Mof_C 	C 	0.8931	0.3931	0.7769	0.023
Mof_C 	C 	0.883	0.383	0.8019	0.006
Mof_C 	C 	0.8706	0.3706	0.8312	0.004
Mof_C 	C 	0.91807	0.91807	0.18445	0.017
Mof_H 	H 	0.9255	0.9255	0.1649	0.058
Mof_C 	C 	0.89851	0.89851	0.24391	0.01
Mof_C 	C 	0.8843	0.8843	0.2709	-0.042
Mof_C 	C 	0.8743	0.8743	0.2935	-0.047
Mof_C 	C 	0.8619	0.8619	0.3228	0.038
Mof_C 	C 	0.8931	0.8931	0.2769	0.026
Mof_C 	C 	0.883	0.883	0.3019	0.009
Mof_C 	C 	0.8706	0.8706	0.3312	0.002
Mof_C 	C 	0.41807	0.58193	0.81555	0.018
Mof_H 	H 	0.4255	0.5745	0.8351	0.057
Mof_C 	C 	0.39851	0.60149	0.75609	0.009
Mof_C 	C 	0.3843	0.6157	0.7291	-0.038
Mof_C 	C 	0.3743	0.6257	0.7065	-0.043
Mof_C 	C 	0.3619	0.6381	0.6772	0.037
Mof_C 	C 	0.3931	0.6069	0.7231	0.022
Mof_C 	C 	0.383	0.617	0.6981	0.004
Mof_C 	C 	0.3706	0.6294	0.6688	0.003
Mof_C 	C 	0.41807	0.08193	0.31555	0.018
Mof_H 	H 	0.4255	0.0745	0.3351	0.056
Mof_C 	C 	0.39851	0.10149	0.25609	0.008
Mof_C 	C 	0.3843	0.1157	0.2291	-0.037
Mof_C 	C 	0.3743	0.1257	0.2065	-0.041
Mof_C 	C 	0.3619	0.1381	0.1772	0.037
Mof_C 	C 	0.3931	0.1069	0.2231	0.02
Mof_C 	C 	0.383	0.117	0.1981	0.001
Mof_C 	C 	0.3706	0.1294	0.1688	0.002
Mof_C 	C 	0.91807	0.58193	0.31555	0.017
Mof_H 	H 	0.9255	0.5745	0.3351	0.058
Mof_C 	C 	0.89851	0.60149	0.25609	0.009
Mof_C 	C 	0.8843	0.6157	0.2291	-0.041
Mof_C 	C 	0.8743	0.6257	0.2065	-0.045
Mof_C 	C 	0.8619	0.6381	0.1772	0.038
Mof_C 	C 	0.8931	0.6069	0.2231	0.024
Mof_C 	C 	0.883	0.617	0.1981	0.006
Mof_C 	C 	0.8706	0.6294	0.1688	0.001
Mof_C 	C 	0.91807	0.08193	0.81555	0.018
Mof_H 	H 	0.9255	0.0745	0.8351	0.057
Mof_C 	C 	0.89851	0.10149	0.75609	0.009
Mof_C 	C 	0.8843	0.1157	0.7291	-0.038
Mof_C 	C 	0.8743	0.1257	0.7065	-0.043
Mof_C 	C 	0.8619	0.1381	0.6772	0.037
Mof_C 	C 	0.8931	0.1069	0.7231	0.022
Mof_C 	C 	0.883	0.117	0.6981	0.004
Mof_C 	C 	0.8706	0.1294	0.6688	0.003
Mof_C 	C 	0.3359	0.3768	0.6641	-0.046
Mof_C 	C 	0.3208	0.4045	0.6792	0.054
Mof_C 	C 	0.3444	0.3853	0.6556	-0.056
Mof_C 	C 	0.3305	0.4143	0.6695	0.197
Mof_C 	C 	0.3359	0.8768	0.1641	-0.043
Mof_C 	C 	0.3208	0.9045	0.1792	0.055
Mof_C 	C 	0.3444	0.8853	0.1556	-0.059
Mof_C 	C 	0.3305	0.9143	0.1695	0.197
Mof_C 	C 	0.8359	0.3768	0.1641	-0.046
Mof_C 	C 	0.8208	0.4045	0.1792	0.054
Mof_C 	C 	0.8444	0.3853	0.1556	-0.056
Mof_C 	C 	0.8305	0.4143	0.1695	0.197
Mof_C 	C 	0.8359	0.8768	0.6641	-0.045
Mof_C 	C 	0.8208	0.9045	0.6792	0.054
Mof_C 	C 	0.8444	0.8853	0.6556	-0.057
Mof_C 	C 	0.8305	0.9143	0.6695	0.198
Mof_C 	C 	0.6641	0.6232	0.6641	-0.046
Mof_C 	C 	0.6792	0.5955	0.6792	0.054
Mof_C 	C 	0.6556	0.6147	0.6556	-0.056
Mof_C 	C 	0.6695	0.5857	0.6695	0.197
Mof_C 	C 	0.6641	0.1232	0.1641	-0.048
Mof_C 	C 	0.6792	0.0955	0.1792	0.055
Mof_C 	C 	0.6556	0.1147	0.1556	-0.054
Mof_C 	C 	0.6695	0.0857	0.1695	0.197
Mof_C 	C 	0.1641	0.6232	0.1641	-0.045
Mof_C 	C 	0.1792	0.5955	0.1792	0.055
Mof_C 	C 	0.1556	0.6147	0.1556	-0.057
Mof_C 	C 	0.1695	0.5857	0.1695	0.196
Mof_C 	C 	0.1641	0.1232	0.6641	-0.048
Mof_C 	C 	0.1792	0.0955	0.6792	0.055
Mof_C 	C 	0.1556	0.1147	0.6556	-0.054
Mof_C 	C 	0.1695	0.0857	0.6695	0.197
Mof_C 	C 	0.6641	0.3768	0.3359	-0.046
Mof_C 	C 	0.6792	0.4045	0.3208	0.054
Mof_C 	C 	0.6556	0.3853	0.3444	-0.056
Mof_C 	C 	0.6695	0.4143	0.3305	0.197
Mof_C 	C 	0.6641	0.8768	0.8359	-0.045
Mof_C 	C 	0.6792	0.9045	0.8208	0.054
Mof_C 	C 	0.6556	0.8853	0.8444	-0.057
Mof_C 	C 	0.6695	0.9143	0.8305	0.198
Mof_C 	C 	0.1641	0.3768	0.8359	-0.046
Mof_C 	C 	0.1792	0.4045	0.8208	0.054
Mof_C 	C 	0.1556	0.3853	0.8444	-0.056
Mof_C 	C 	0.1695	0.4143	0.8305	0.197
Mof_C 	C 	0.1641	0.8768	0.3359	-0.043
Mof_C 	C 	0.1792	0.9045	0.3208	0.055
Mof_C 	C 	0.1556	0.8853	0.3444	-0.059
Mof_C 	C 	0.1695	0.9143	0.3305	0.197
Mof_C 	C 	0.3359	0.6232	0.3359	-0.046
Mof_C 	C 	0.3208	0.5955	0.3208	0.054
Mof_C 	C 	0.3444	0.6147	0.3444	-0.056
Mof_C 	C 	0.3305	0.5857	0.3305	0.197
Mof_C 	C 	0.3359	0.1232	0.8359	-0.049
Mof_C 	C 	0.3208	0.0955	0.8208	0.054
Mof_C 	C 	0.3444	0.1147	0.8444	-0.053
Mof_C 	C 	0.3305	0.0857	0.8305	0.198
Mof_C 	C 	0.8359	0.6232	0.8359	-0.048
Mof_C 	C 	0.8208	0.5955	0.8208	0.054
Mof_C 	C 	0.8444	0.6147	0.8444	-0.054
Mof_C 	C 	0.8305	0.5857	0.8305	0.198
Mof_C 	C 	0.8359	0.1232	0.3359	-0.049
Mof_C 	C 	0.8208	0.0955	0.3208	0.054
Mof_C 	C 	0.8444	0.1147	0.3444	-0.053
Mof_C 	C 	0.8305	0.0857	0.3305	0.198
Mof_C 	C 	0.6641	0.3359	0.3768	-0.046
Mof_C 	C 	0.6792	0.3208	0.4045	0.054
Mof_C 	C 	0.6556	0.3444	0.3853	-0.056
Mof_C 	C 	0.6695	0.3305	0.4143	0.197
Mof_C 	C 	0.6641	0.8359	0.8768	-0.045
Mof_C 	C 	0.6792	0.8208	0.9045	0.054
Mof_C 	C 	0.6556	0.8444	0.8853	-0.057
Mof_C 	C 	0.6695	0.8305	0.9143	0.198
Mof_C 	C 	0.1641	0.3359	0.8768	-0.043
Mof_C 	C 	0.1792	0.3208	0.9045	0.055
Mof_C 	C 	0.1556	0.3444	0.8853	-0.059
Mof_C 	C 	0.1695	0.3305	0.9143	0.197
Mof_C 	C 	0.1641	0.8359	0.3768	-0.046
Mof_C 	C 	0.1792	0.8208	0.4045	0.054
Mof_C 	C 	0.1556	0.8444	0.3853	-0.056
Mof_C 	C 	0.1695	0.8305	0.4143	0.197
Mof_C 	C 	0.6641	0.6641	0.6232	-0.046
Mof_C 	C 	0.6792	0.6792	0.5955	0.054
Mof_C 	C 	0.6556	0.6556	0.6147	-0.056
Mof_C 	C 	0.6695	0.6695	0.5857	0.197
Mof_C 	C 	0.6641	0.1641	0.1232	-0.048
Mof_C 	C 	0.6792	0.1792	0.0955	0.055
Mof_C 	C 	0.6556	0.1556	0.1147	-0.054
Mof_C 	C 	0.6695	0.1695	0.0857	0.197
Mof_C 	C 	0.1641	0.6641	0.1232	-0.048
Mof_C 	C 	0.1792	0.6792	0.0955	0.055
Mof_C 	C 	0.1556	0.6556	0.1147	-0.054
Mof_C 	C 	0.1695	0.6695	0.0857	0.197
Mof_C 	C 	0.1641	0.1641	0.6232	-0.045
Mof_C 	C 	0.1792	0.1792	0.5955	0.055
Mof_C 	C 	0.1556	0.1556	0.6147	-0.057
Mof_C 	C 	0.1695	0.1695	0.5857	0.196
Mof_C 	C 	0.3359	0.6641	0.3768	-0.046
Mof_C 	C 	0.3208	0.6792	0.4045	0.054
Mof_C 	C 	0.3444	0.6556	0.3853	-0.056
Mof_C 	C 	0.3305	0.6695	0.4143	0.197
Mof_C 	C 	0.3359	0.1641	0.8768	-0.043
Mof_C 	C 	0.3208	0.1792	0.9045	0.055
Mof_C 	C 	0.3444	0.1556	0.8853	-0.059
Mof_C 	C 	0.3305	0.1695	0.9143	0.197
Mof_C 	C 	0.8359	0.6641	0.8768	-0.045
Mof_C 	C 	0.8208	0.6792	0.9045	0.054
Mof_C 	C 	0.8444	0.6556	0.8853	-0.057
Mof_C 	C 	0.8305	0.6695	0.9143	0.198
Mof_C 	C 	0.8359	0.1641	0.3768	-0.046
Mof_C 	C 	0.8208	0.1792	0.4045	0.054
Mof_C 	C 	0.8444	0.1556	0.3853	-0.056
Mof_C 	C 	0.8305	0.1695	0.4143	0.197
Mof_C 	C 	0.3359	0.3359	0.6232	-0.046
Mof_C 	C 	0.3208	0.3208	0.5955	0.054
Mof_C 	C 	0.3444	0.3444	0.6147	-0.056
Mof_C 	C 	0.3305	0.3305	0.5857	0.197
Mof_C 	C 	0.3359	0.8359	0.1232	-0.049
Mof_C 	C 	0.3208	0.8208	0.0955	0.054
Mof_C 	C 	0.3444	0.8444	0.1147	-0.053
Mof_C 	C 	0.3305	0.8305	0.0857	0.198
Mof_C 	C 	0.8359	0.3359	0.1232	-0.049
Mof_C 	C 	0.8208	0.3208	0.0955	0.054
Mof_C 	C 	0.8444	0.3444	0.1147	-0.053
Mof_C 	C 	0.8305	0.3305	0.0857	0.198
Mof_C 	C 	0.8359	0.8359	0.6232	-0.048
Mof_C 	C 	0.8208	0.8208	0.5955	0.054
Mof_C 	C 	0.8444	0.8444	0.6147	-0.054
Mof_C 	C 	0.8305	0.8305	0.5857	0.198
Mof_C 	C 	0.3768	0.6641	0.3359	-0.046
Mof_C 	C 	0.4045	0.6792	0.3208	0.054
Mof_C 	C 	0.3853	0.6556	0.3444	-0.056
Mof_C 	C 	0.4143	0.6695	0.3305	0.197
Mof_C 	C 	0.3768	0.1641	0.8359	-0.046
Mof_C 	C 	0.4045	0.1792	0.8208	0.054
Mof_C 	C 	0.3853	0.1556	0.8444	-0.056
Mof_C 	C 	0.4143	0.1695	0.8305	0.197
Mof_C 	C 	0.8768	0.6641	0.8359	-0.045
Mof_C 	C 	0.9045	0.6792	0.8208	0.054
Mof_C 	C 	0.8853	0.6556	0.8444	-0.057
Mof_C 	C 	0.9143	0.6695	0.8305	0.198
Mof_C 	C 	0.8768	0.1641	0.3359	-0.043
Mof_C 	C 	0.9045	0.1792	0.3208	0.055
Mof_C 	C 	0.8853	0.1556	0.3444	-0.059
Mof_C 	C 	0.9143	0.1695	0.3305	0.197
Mof_C 	C 	0.6232	0.6641	0.6641	-0.046
Mof_C 	C 	0.5955	0.6792	0.6792	0.054
Mof_C 	C 	0.6147	0.6556	0.6556	-0.056
Mof_C 	C 	0.5857	0.6695	0.6695	0.197
Mof_C 	C 	0.6232	0.1641	0.1641	-0.045
Mof_C 	C 	0.5955	0.1792	0.1792	0.055
Mof_C 	C 	0.6147	0.1556	0.1556	-0.057
Mof_C 	C 	0.5857	0.1695	0.1695	0.196
Mof_C 	C 	0.1232	0.6641	0.1641	-0.048
Mof_C 	C 	0.0955	0.6792	0.1792	0.055
Mof_C 	C 	0.1147	0.6556	0.1556	-0.054
Mof_C 	C 	0.0857	0.6695	0.1695	0.197
Mof_C 	C 	0.1232	0.1641	0.6641	-0.048
Mof_C 	C 	0.0955	0.1792	0.6792	0.055
Mof_C 	C 	0.1147	0.1556	0.6556	-0.054
Mof_C 	C 	0.0857	0.1695	0.6695	0.197
Mof_C 	C 	0.3768	0.3359	0.6641	-0.046
Mof_C 	C 	0.4045	0.3208	0.6792	0.054
Mof_C 	C 	0.3853	0.3444	0.6556	-0.056
Mof_C 	C 	0.4143	0.3305	0.6695	0.197
Mof_C 	C 	0.3768	0.8359	0.1641	-0.046
Mof_C 	C 	0.4045	0.8208	0.1792	0.054
Mof_C 	C 	0.3853	0.8444	0.1556	-0.056
Mof_C 	C 	0.4143	0.8305	0.1695	0.197
Mof_C 	C 	0.8768	0.3359	0.1641	-0.043
Mof_C 	C 	0.9045	0.3208	0.1792	0.055
Mof_C 	C 	0.8853	0.3444	0.1556	-0.059
Mof_C 	C 	0.9143	0.3305	0.1695	0.197
Mof_C 	C 	0.8768	0.8359	0.6641	-0.045
Mof_C 	C 	0.9045	0.8208	0.6792	0.054
Mof_C 	C 	0.8853	0.8444	0.6556	-0.057
Mof_C 	C 	0.9143	0.8305	0.6695	0.198
Mof_C 	C 	0.6232	0.3359	0.3359	-0.046
Mof_C 	C 	0.5955	0.3208	0.3208	0.054
Mof_C 	C 	0.6147	0.3444	0.3444	-0.056
Mof_C 	C 	0.5857	0.3305	0.3305	0.197
Mof_C 	C 	0.6232	0.8359	0.8359	-0.048
Mof_C 	C 	0.5955	0.8208	0.8208	0.054
Mof_C 	C 	0.6147	0.8444	0.8444	-0.054
Mof_C 	C 	0.5857	0.8305	0.8305	0.198
Mof_C 	C 	0.1232	0.3359	0.8359	-0.049
Mof_C 	C 	0.0955	0.3208	0.8208	0.054
Mof_C 	C 	0.1147	0.3444	0.8444	-0.053
Mof_C 	C 	0.0857	0.3305	0.8305	0.198
Mof_C 	C 	0.1232	0.8359	0.3359	-0.049
Mof_C 	C 	0.0955	0.8208	0.3208	0.054
Mof_C 	C 	0.1147	0.8444	0.3444	-0.053
Mof_C 	C 	0.0857	0.8305	0.3305	0.198
Mof_C 	C 	0.3768	0.3359	0.3359	-0.046
Mof_C 	C 	0.4045	0.3208	0.3208	0.054
Mof_C 	C 	0.3853	0.3444	0.3444	-0.056
Mof_C 	C 	0.4143	0.3305	0.3305	0.197
Mof_C 	C 	0.3768	0.8359	0.8359	-0.048
Mof_C 	C 	0.4045	0.8208	0.8208	0.054
Mof_C 	C 	0.3853	0.8444	0.8444	-0.054
Mof_C 	C 	0.4143	0.8305	0.8305	0.198
Mof_C 	C 	0.8768	0.3359	0.8359	-0.045
Mof_C 	C 	0.9045	0.3208	0.8208	0.054
Mof_C 	C 	0.8853	0.3444	0.8444	-0.057
Mof_C 	C 	0.9143	0.3305	0.8305	0.198
Mof_C 	C 	0.8768	0.8359	0.3359	-0.045
Mof_C 	C 	0.9045	0.8208	0.3208	0.054
Mof_C 	C 	0.8853	0.8444	0.3444	-0.057
Mof_C 	C 	0.9143	0.8305	0.3305	0.198
Mof_C 	C 	0.6232	0.6641	0.3359	-0.046
Mof_C 	C 	0.5955	0.6792	0.3208	0.054
Mof_C 	C 	0.6147	0.6556	0.3444	-0.056
Mof_C 	C 	0.5857	0.6695	0.3305	0.197
Mof_C 	C 	0.6232	0.1641	0.8359	-0.046
Mof_C 	C 	0.5955	0.1792	0.8208	0.054
Mof_C 	C 	0.6147	0.1556	0.8444	-0.056
Mof_C 	C 	0.5857	0.1695	0.8305	0.197
Mof_C 	C 	0.1232	0.6641	0.8359	-0.049
Mof_C 	C 	0.0955	0.6792	0.8208	0.054
Mof_C 	C 	0.1147	0.6556	0.8444	-0.053
Mof_C 	C 	0.0857	0.6695	0.8305	0.198
Mof_C 	C 	0.1232	0.1641	0.3359	-0.048
Mof_C 	C 	0.0955	0.1792	0.3208	0.055
Mof_C 	C 	0.1147	0.1556	0.3444	-0.054
Mof_C 	C 	0.0857	0.1695	0.3305	0.197
Mof_C 	C 	0.3768	0.6641	0.6641	-0.046
Mof_C 	C 	0.4045	0.6792	0.6792	0.054
Mof_C 	C 	0.3853	0.6556	0.6556	-0.056
Mof_C 	C 	0.4143	0.6695	0.6695	0.197
Mof_C 	C 	0.3768	0.1641	0.1641	-0.045
Mof_C 	C 	0.4045	0.1792	0.1792	0.055
Mof_C 	C 	0.3853	0.1556	0.1556	-0.057
Mof_C 	C 	0.4143	0.1695	0.1695	0.196
Mof_C 	C 	0.8768	0.6641	0.1641	-0.043
Mof_C 	C 	0.9045	0.6792	0.1792	0.055
Mof_C 	C 	0.8853	0.6556	0.1556	-0.059
Mof_C 	C 	0.9143	0.6695	0.1695	0.197
Mof_C 	C 	0.8768	0.1641	0.6641	-0.043
Mof_C 	C 	0.9045	0.1792	0.6792	0.055
Mof_C 	C 	0.8853	0.1556	0.6556	-0.059
Mof_C 	C 	0.9143	0.1695	0.6695	0.197
Mof_C 	C 	0.6232	0.3359	0.6641	-0.046
Mof_C 	C 	0.5955	0.3208	0.6792	0.054
Mof_C 	C 	0.6147	0.3444	0.6556	-0.056
Mof_C 	C 	0.5857	0.3305	0.6695	0.197
Mof_C 	C 	0.6232	0.8359	0.1641	-0.046
Mof_C 	C 	0.5955	0.8208	0.1792	0.054
Mof_C 	C 	0.6147	0.8444	0.1556	-0.056
Mof_C 	C 	0.5857	0.8305	0.1695	0.197
Mof_C 	C 	0.1232	0.3359	0.1641	-0.048
Mof_C 	C 	0.0955	0.3208	0.1792	0.055
Mof_C 	C 	0.1147	0.3444	0.1556	-0.054
Mof_C 	C 	0.0857	0.3305	0.1695	0.197
Mof_C 	C 	0.1232	0.8359	0.6641	-0.049
Mof_C 	C 	0.0955	0.8208	0.6792	0.054
Mof_C 	C 	0.1147	0.8444	0.6556	-0.053
Mof_C 	C 	0.0857	0.8305	0.6695	0.198
Mof_C 	C 	0.3359	0.6641	0.6232	-0.046
Mof_C 	C 	0.3208	0.6792	0.5955	0.054
Mof_C 	C 	0.3444	0.6556	0.6147	-0.056
Mof_C 	C 	0.3305	0.6695	0.5857	0.197
Mof_C 	C 	0.3359	0.1641	0.1232	-0.048
Mof_C 	C 	0.3208	0.1792	0.0955	0.055
Mof_C 	C 	0.3444	0.1556	0.1147	-0.054
Mof_C 	C 	0.3305	0.1695	0.0857	0.197
Mof_C 	C 	0.8359	0.6641	0.1232	-0.049
Mof_C 	C 	0.8208	0.6792	0.0955	0.054
Mof_C 	C 	0.8444	0.6556	0.1147	-0.053
Mof_C 	C 	0.8305	0.6695	0.0857	0.198
Mof_C 	C 	0.8359	0.1641	0.6232	-0.046
Mof_C 	C 	0.8208	0.1792	0.5955	0.054
Mof_C 	C 	0.8444	0.1556	0.6147	-0.056
Mof_C 	C 	0.8305	0.1695	0.5857	0.197
Mof_C 	C 	0.6641	0.6641	0.3768	-0.046
Mof_C 	C 	0.6792	0.6792	0.4045	0.054
Mof_C 	C 	0.6556	0.6556	0.3853	-0.056
Mof_C 	C 	0.6695	0.6695	0.4143	0.197
Mof_C 	C 	0.6641	0.1641	0.8768	-0.043
Mof_C 	C 	0.6792	0.1792	0.9045	0.055
Mof_C 	C 	0.6556	0.1556	0.8853	-0.059
Mof_C 	C 	0.6695	0.1695	0.9143	0.197
Mof_C 	C 	0.1641	0.6641	0.8768	-0.043
Mof_C 	C 	0.1792	0.6792	0.9045	0.055
Mof_C 	C 	0.1556	0.6556	0.8853	-0.059
Mof_C 	C 	0.1695	0.6695	0.9143	0.197
Mof_C 	C 	0.1641	0.1641	0.3768	-0.045
Mof_C 	C 	0.1792	0.1792	0.4045	0.055
Mof_C 	C 	0.1556	0.1556	0.3853	-0.057
Mof_C 	C 	0.1695	0.1695	0.4143	0.196
Mof_C 	C 	0.6641	0.3359	0.6232	-0.046
Mof_C 	C 	0.6792	0.3208	0.5955	0.054
Mof_C 	C 	0.6556	0.3444	0.6147	-0.056
Mof_C 	C 	0.6695	0.3305	0.5857	0.197
Mof_C 	C 	0.6641	0.8359	0.1232	-0.049
Mof_C 	C 	0.6792	0.8208	0.0955	0.054
Mof_C 	C 	0.6556	0.8444	0.1147	-0.053
Mof_C 	C 	0.6695	0.8305	0.0857	0.198
Mof_C 	C 	0.1641	0.3359	0.1232	-0.048
Mof_C 	C 	0.1792	0.3208	0.0955	0.055
Mof_C 	C 	0.1556	0.3444	0.1147	-0.054
Mof_C 	C 	0.1695	0.3305	0.0857	0.197
Mof_C 	C 	0.1641	0.8359	0.6232	-0.046
Mof_C 	C 	0.1792	0.8208	0.5955	0.054
Mof_C 	C 	0.1556	0.8444	0.6147	-0.056
Mof_C 	C 	0.1695	0.8305	0.5857	0.197
Mof_C 	C 	0.3359	0.3359	0.3768	-0.046
Mof_C 	C 	0.3208	0.3208	0.4045	0.054
Mof_C 	C 	0.3444	0.3444	0.3853	-0.056
Mof_C 	C 	0.3305	0.3305	0.4143	0.197
Mof_C 	C 	0.3359	0.8359	0.8768	-0.045
Mof_C 	C 	0.3208	0.8208	0.9045	0.054
Mof_C 	C 	0.3444	0.8444	0.8853	-0.057
Mof_C 	C 	0.3305	0.8305	0.9143	0.198
Mof_C 	C 	0.8359	0.3359	0.8768	-0.045
Mof_C 	C 	0.8208	0.3208	0.9045	0.054
Mof_C 	C 	0.8444	0.3444	0.8853	-0.057
Mof_C 	C 	0.8305	0.3305	0.9143	0.198
Mof_C 	C 	0.8359	0.8359	0.3768	-0.048
Mof_C 	C 	0.8208	0.8208	0.4045	0.054
Mof_C 	C 	0.8444	0.8444	0.3853	-0.054
Mof_C 	C 	0.8305	0.8305	0.4143	0.198
Mof_C 	C 	0.6641	0.3768	0.6641	-0.046
Mof_C 	C 	0.6792	0.4045	0.6792	0.054
Mof_C 	C 	0.6556	0.3853	0.6556	-0.056
Mof_C 	C 	0.6695	0.4143	0.6695	0.197
Mof_C 	C 	0.6641	0.8768	0.1641	-0.043
Mof_C 	C 	0.6792	0.9045	0.1792	0.055
Mof_C 	C 	0.6556	0.8853	0.1556	-0.059
Mof_C 	C 	0.6695	0.9143	0.1695	0.197
Mof_C 	C 	0.1641	0.3768	0.1641	-0.045
Mof_C 	C 	0.1792	0.4045	0.1792	0.055
Mof_C 	C 	0.1556	0.3853	0.1556	-0.057
Mof_C 	C 	0.1695	0.4143	0.1695	0.196
Mof_C 	C 	0.1641	0.8768	0.6641	-0.043
Mof_C 	C 	0.1792	0.9045	0.6792	0.055
Mof_C 	C 	0.1556	0.8853	0.6556	-0.059
Mof_C 	C 	0.1695	0.9143	0.6695	0.197
Mof_C 	C 	0.6641	0.6232	0.3359	-0.046
Mof_C 	C 	0.6792	0.5955	0.3208	0.054
Mof_C 	C 	0.6556	0.6147	0.3444	-0.056
Mof_C 	C 	0.6695	0.5857	0.3305	0.197
Mof_C 	C 	0.6641	0.1232	0.8359	-0.049
Mof_C 	C 	0.6792	0.0955	0.8208	0.054
Mof_C 	C 	0.6556	0.1147	0.8444	-0.053
Mof_C 	C 	0.6695	0.0857	0.8305	0.198
Mof_C 	C 	0.1641	0.6232	0.8359	-0.046
Mof_C 	C 	0.1792	0.5955	0.8208	0.054
Mof_C 	C 	0.1556	0.6147	0.8444	-0.056
Mof_C 	C 	0.1695	0.5857	0.8305	0.197
Mof_C 	C 	0.1641	0.1232	0.3359	-0.048
Mof_C 	C 	0.1792	0.0955	0.3208	0.055
Mof_C 	C 	0.1556	0.1147	0.3444	-0.054
Mof_C 	C 	0.1695	0.0857	0.3305	0.197
Mof_C 	C 	0.3359	0.3768	0.3359	-0.046
Mof_C 	C 	0.3208	0.4045	0.3208	0.054
Mof_C 	C 	0.3444	0.3853	0.3444	-0.056
Mof_C 	C 	0.3305	0.4143	0.3305	0.197
Mof_C 	C 	0.3359	0.8768	0.8359	-0.045
Mof_C 	C 	0.3208	0.9045	0.8208	0.054
Mof_C 	C 	0.3444	0.8853	0.8444	-0.057
Mof_C 	C 	0.3305	0.9143	0.8305	0.198
Mof_C 	C 	0.8359	0.3768	0.8359	-0.048
Mof_C 	C 	0.8208	0.4045	0.8208	0.054
Mof_C 	C 	0.8444	0.3853	0.8444	-0.054
Mof_C 	C 	0.8305	0.4143	0.8305	0.198
Mof_C 	C 	0.8359	0.8768	0.3359	-0.045
Mof_C 	C 	0.8208	0.9045	0.3208	0.054
Mof_C 	C 	0.8444	0.8853	0.3444	-0.057
Mof_C 	C 	0.8305	0.9143	0.3305	0.198
Mof_C 	C 	0.3359	0.6232	0.6641	-0.046
Mof_C 	C 	0.3208	0.5955	0.6792	0.054
Mof_C 	C 	0.3444	0.6147	0.6556	-0.056
Mof_C 	C 	0.3305	0.5857	0.6695	0.197
Mof_C 	C 	0.3359	0.1232	0.1641	-0.048
Mof_C 	C 	0.3208	0.0955	0.1792	0.055
Mof_C 	C 	0.3444	0.1147	0.1556	-0.054
Mof_C 	C 	0.3305	0.0857	0.1695	0.197
Mof_C 	C 	0.8359	0.6232	0.1641	-0.046
Mof_C 	C 	0.8208	0.5955	0.1792	0.054
Mof_C 	C 	0.8444	0.6147	0.1556	-0.056
Mof_C 	C 	0.8305	0.5857	0.1695	0.197
Mof_C 	C 	0.8359	0.1232	0.6641	-0.049
Mof_C 	C 	0.8208	0.0955	0.6792	0.054
Mof_C 	C 	0.8444	0.1147	0.6556	-0.053
Mof_C 	C 	0.8305	0.0857	0.6695	0.198
_end
