data_functionalizedCrystal
_audit_creation_method	'EQeq! by Chris Wilmer'
_symmetry_space_group_name_H-M	'P1'
_symmetry_Int_Tables_number	1
_symmetry_cell_setting	triclinic
loop_
_symmetry_equiv_pos_as_xyz
  x,y,z
_cell_length_a	7.3007
_cell_length_b	8.8312
_cell_length_c	8.8312
_cell_angle_alpha	90
_cell_angle_beta	90
_cell_angle_gamma	90
loop_
_atom_site_label
_atom_site_type_symbol
_atom_site_fract_x
_atom_site_fract_y
_atom_site_fract_z
_atom_site_charge
Mof_Zn	Zn	0.75	0	-0	1.071
Mof_Zn	Zn	0.25	0	-0	1.072
Mof_H 	H 	0.72554	0.382	-0	-0.014
Mof_H 	H 	0.72554	0.618	-0	-0.004
Mof_H 	H 	0.22554	2.77094e-33	0.382	-0.014
Mof_H 	H 	0.22554	0	0.618	-0.004
Mof_H 	H 	0.27446	0.618	-0	-0.005
Mof_H 	H 	0.27446	0.382	-0	-0.014
Mof_H 	H 	0.77446	2.77094e-33	0.382	-0.015
Mof_H 	H 	0.77446	0	0.618	-0.005
Mof_C 	C 	-0	0.43928	-0	0.006
Mof_C 	C 	-5.54187e-33	0.56072	-0	-0.032
Mof_C 	C 	0.5	0	0.43928	0.001
Mof_C 	C 	0.5	0	0.56072	-0.033
Mof_C 	C 	0.84929	0.34876	-0	-0.025
Mof_C 	C 	0.84929	0.65124	-0	0.013
Mof_C 	C 	0.34929	5.54187e-33	0.34876	-0.019
Mof_C 	C 	0.34929	5.54187e-33	0.65124	0.016
Mof_C 	C 	0.15071	0.65124	-0	0.016
Mof_C 	C 	0.15071	0.34876	-0	-0.021
Mof_C 	C 	0.65071	5.54187e-33	0.34876	-0.019
Mof_C 	C 	0.65071	5.54187e-33	0.65124	0.016
Mof_N 	N 	0.90686	0.2023	-0	-0.282
Mof_N 	N 	0.90686	0.7977	-0	-0.217
Mof_N 	N 	0.40686	1.38547e-33	0.2023	-0.281
Mof_N 	N 	0.40686	5.54187e-33	0.7977	-0.215
Mof_N 	N 	0.09314	0.7977	-0	-0.215
Mof_N 	N 	0.09314	0.2023	-0	-0.28
Mof_N 	N 	0.59314	1.38547e-33	0.2023	-0.282
Mof_N 	N 	0.59314	5.54187e-33	0.7977	-0.215
_end
