data_functionalizedCrystal
_audit_creation_method	'EQeq! by Chris Wilmer'
_symmetry_space_group_name_H-M	'P1'
_symmetry_Int_Tables_number	1
_symmetry_cell_setting	triclinic
loop_
_symmetry_equiv_pos_as_xyz
  x,y,z
_cell_length_a	10.9504
_cell_length_b	10.9504
_cell_length_c	9.6032
_cell_angle_alpha	90
_cell_angle_beta	90
_cell_angle_gamma	90
loop_
_atom_site_label
_atom_site_type_symbol
_atom_site_fract_x
_atom_site_fract_y
_atom_site_fract_z
_atom_site_charge
Mof_O 	O 	0.1827	0.0163	0.38467	0.263
Mof_C 	C 	0.0478	0.1136	0.0799	-0.728
Mof_H 	H 	0.1322	0.1256	0.1142	0.227
Mof_H 	H 	0.9973	0.1824	0.1142	-0.253
Mof_O 	O 	0.8173	0.9837	0.38467	-0.555
Mof_C 	C 	0.9522	0.8864	0.0799	0.72
Mof_H 	H 	0.8678	0.8744	0.1142	-0.198
Mof_H 	H 	0.0027	0.8176	0.1142	0.263
Mof_O 	O 	0.9837	0.1827	0.38467	-0.642
Mof_C 	C 	0.8864	0.0478	0.0799	-1.631
Mof_H 	H 	0.8744	0.1322	0.1142	0.188
Mof_H 	H 	0.8176	0.9973	0.1142	0.066
Mof_O 	O 	0.0163	0.8173	0.38467	0.257
Mof_C 	C 	0.1136	0.9522	0.0799	1.658
Mof_H 	H 	0.1256	0.8678	0.1142	-0.166
Mof_H 	H 	0.1824	0.0027	0.1142	-0.022
Mof_O 	O 	0.8173	0.0163	0.61533	0.257
Mof_C 	C 	0.9522	0.1136	0.9201	1.658
Mof_H 	H 	0.8678	0.1256	0.8858	-0.166
Mof_H 	H 	0.0027	0.1824	0.8858	-0.022
Mof_O 	O 	0.1827	0.9837	0.61533	-0.642
Mof_C 	C 	0.0478	0.8864	0.9201	-1.631
Mof_H 	H 	0.1322	0.8744	0.8858	0.188
Mof_H 	H 	0.9973	0.8176	0.8858	0.066
Mof_O 	O 	0.0163	0.1827	0.61533	0.263
Mof_C 	C 	0.1136	0.0478	0.9201	-0.728
Mof_H 	H 	0.1256	0.1322	0.8858	0.227
Mof_H 	H 	0.1824	0.9973	0.8858	-0.253
Mof_O 	O 	0.9837	0.8173	0.61533	-0.555
Mof_C 	C 	0.8864	0.9522	0.9201	0.72
Mof_H 	H 	0.8744	0.8678	0.8858	-0.198
Mof_H 	H 	0.8176	0.0027	0.8858	0.263
Mof_O 	O 	0.8173	0.9837	0.61533	-0.555
Mof_C 	C 	0.9522	0.8864	0.9201	0.72
Mof_H 	H 	0.8678	0.8744	0.8858	-0.198
Mof_H 	H 	0.0027	0.8176	0.8858	0.263
Mof_O 	O 	0.1827	0.0163	0.61533	0.263
Mof_C 	C 	0.0478	0.1136	0.9201	-0.728
Mof_H 	H 	0.1322	0.1256	0.8858	0.227
Mof_H 	H 	0.9973	0.1824	0.8858	-0.253
Mof_O 	O 	0.0163	0.8173	0.61533	0.257
Mof_C 	C 	0.1136	0.9522	0.9201	1.658
Mof_H 	H 	0.1256	0.8678	0.8858	-0.166
Mof_H 	H 	0.1824	0.0027	0.8858	-0.022
Mof_O 	O 	0.9837	0.1827	0.61533	-0.642
Mof_C 	C 	0.8864	0.0478	0.9201	-1.631
Mof_H 	H 	0.8744	0.1322	0.8858	0.188
Mof_H 	H 	0.8176	0.9973	0.8858	0.066
Mof_O 	O 	0.1827	0.9837	0.38467	-0.642
Mof_C 	C 	0.0478	0.8864	0.0799	-1.631
Mof_H 	H 	0.1322	0.8744	0.1142	0.188
Mof_H 	H 	0.9973	0.8176	0.1142	0.066
Mof_O 	O 	0.8173	0.0163	0.38467	0.257
Mof_C 	C 	0.9522	0.1136	0.0799	1.658
Mof_H 	H 	0.8678	0.1256	0.1142	-0.166
Mof_H 	H 	0.0027	0.1824	0.1142	-0.022
Mof_O 	O 	0.9837	0.8173	0.38467	-0.555
Mof_C 	C 	0.8864	0.9522	0.0799	0.72
Mof_H 	H 	0.8744	0.8678	0.1142	-0.198
Mof_H 	H 	0.8176	0.0027	0.1142	0.263
Mof_O 	O 	0.0163	0.1827	0.38467	0.263
Mof_C 	C 	0.1136	0.0478	0.0799	-0.728
Mof_H 	H 	0.1256	0.1322	0.1142	0.227
Mof_H 	H 	0.1824	0.9973	0.1142	-0.253
Mof_Zn	Zn	-1.58944e-33	-2.74021e-33	0.34998	1.139
Mof_N 	N 	4.40937e-34	0	0.1341	-0.333
Mof_Zn	Zn	2.13734e-33	0	0.65002	1.139
Mof_N 	N 	-1.35941e-32	-1.09609e-32	0.8659	-0.333
Mof_C 	C 	0.23529	-5.48043e-33	0.5	0.171
Mof_C 	C 	0.37258	-5.48043e-33	0.5	-0.048
Mof_C 	C 	0.76471	-5.48043e-33	0.5	0.201
Mof_C 	C 	0.62742	-5.48043e-33	0.5	-0.026
Mof_C 	C 	1.64406e-33	0.23529	0.5	0.171
Mof_C 	C 	1.64406e-33	0.37258	0.5	-0.048
Mof_C 	C 	1.64406e-33	0.76471	0.5	0.201
Mof_C 	C 	-3.83637e-33	0.62742	0.5	-0.026
Mof_C 	C 	0.43666	0	0.62239	-0.033
Mof_H 	H 	0.3938	0	0.7084	0.031
Mof_C 	C 	0.56334	0	0.62239	-0.039
Mof_H 	H 	0.6062	0	0.7084	0.042
Mof_C 	C 	-3.43393e-33	0.43666	0.62239	-0.033
Mof_H 	H 	7.80973e-33	0.3938	0.7084	0.031
Mof_C 	C 	-3.43393e-33	0.56334	0.62239	-0.039
Mof_H 	H 	-8.63155e-33	0.6062	0.7084	0.042
Mof_C 	C 	0.56334	-2.74021e-33	0.37761	-0.039
Mof_H 	H 	0.6062	-2.74021e-33	0.2916	0.042
Mof_C 	C 	0.43666	-2.74021e-33	0.37761	-0.033
Mof_H 	H 	0.3938	-2.74021e-33	0.2916	0.031
Mof_C 	C 	-4.2388e-33	0.43666	0.37761	-0.033
Mof_H 	H 	-4.52161e-33	0.3938	0.2916	0.031
Mof_C 	C 	1.24163e-33	0.56334	0.37761	-0.039
Mof_H 	H 	-1.7814e-33	0.6062	0.2916	0.042
_end
