data_functionalizedCrystal
_audit_creation_method	'EQeq! by Chris Wilmer'
_symmetry_space_group_name_H-M	'P1'
_symmetry_Int_Tables_number	1
_symmetry_cell_setting	triclinic
loop_
_symmetry_equiv_pos_as_xyz
  x,y,z
_cell_length_a	36.664
_cell_length_b	34.101
_cell_length_c	46.617
_cell_angle_alpha	90
_cell_angle_beta	92.414
_cell_angle_gamma	90
loop_
_atom_site_label
_atom_site_type_symbol
_atom_site_fract_x
_atom_site_fract_y
_atom_site_fract_z
_atom_site_charge
Mof_Ni	Ni	0.55686	0.65018	0.11273	1.121
Mof_Ni	Ni	0.51097	0.68655	0.06027	1.118
Mof_Ni	Ni	0.5307	0.77001	0.08408	1.119
Mof_Ni	Ni	0.57392	0.73375	0.13757	1.115
Mof_Ni	Ni	0.404	0.46773	0.20216	1.099
Mof_Ni	Ni	0.48648	0.49034	0.2058	1.114
Mof_Ni	Ni	0.50399	0.49553	0.27848	1.078
Mof_Ni	Ni	0.4028	0.46863	0.27853	1.107
Mof_Ni	Ni	0.23175	0.57038	0.04493	1.053
Mof_Ni	Ni	0.14356	0.56277	0.04935	1.074
Mof_Ni	Ni	0.12659	0.63643	0.00874	1.083
Mof_Ni	Ni	0.21514	0.6518	0.00343	1.052
Mof_Ni	Ni	0.39393	0.92907	0.09612	1.114
Mof_Ni	Ni	0.31518	0.92506	0.06361	1.11
Mof_Ni	Ni	0.27586	0.96408	0.12879	1.107
Mof_Ni	Ni	0.36945	0.96151	0.15798	1.111
Mof_Ni	Ni	0.48732	0.86041	0.34013	1.051
Mof_Ni	Ni	0.45352	0.87334	0.40202	1.079
Mof_Ni	Ni	0.49557	0.79528	0.42554	1.078
Mof_Ni	Ni	0.53272	0.77783	0.36447	1.051
Mof_Cl	Cl	0.51592	0.70888	0.11176	-0.724
Mof_S 	S 	0.61151	0.60665	0.10119	-0.054
Mof_S 	S 	0.5329	0.67052	0.00999	-0.05
Mof_S 	S 	0.56586	0.81634	0.0524	-0.079
Mof_S 	S 	0.6405	0.75267	0.14514	-0.102
Mof_S 	S 	0.38723	0.40439	0.18046	-0.095
Mof_S 	S 	0.52996	0.44634	0.18245	-0.085
Mof_S 	S 	0.53869	0.44412	0.29978	-0.198
Mof_S 	S 	0.39252	0.4062	0.29864	-0.146
Mof_S 	S 	0.26052	0.51523	0.01992	-0.202
Mof_S 	S 	0.11435	0.50013	0.03488	-0.15
Mof_S 	S 	0.0898	0.62554	0.96432	-0.115
Mof_S 	S 	0.23626	0.64707	0.95404	-0.128
Mof_S 	S 	0.44202	0.96539	0.07247	-0.124
Mof_S 	S 	0.30546	0.96665	0.0219	-0.147
Mof_S 	S 	0.25373	0.02832	0.12228	-0.142
Mof_S 	S 	0.39294	0.02585	0.17176	-0.13
Mof_S 	S 	0.52737	0.91344	0.32369	-0.115
Mof_S 	S 	0.46889	0.9353	0.42782	-0.117
Mof_S 	S 	0.53708	0.80302	0.46801	-0.061
Mof_S 	S 	0.59968	0.78226	0.36501	-0.08
Mof_O 	O 	0.55795	0.66043	0.07063	-0.538
Mof_O 	O 	0.53696	0.7349	0.05207	-0.544
Mof_O 	O 	0.58118	0.76136	0.10036	-0.496
Mof_O 	O 	0.59613	0.68693	0.12152	-0.515
Mof_O 	O 	0.45416	0.44393	0.20127	-0.522
Mof_O 	O 	0.50986	0.46737	0.24212	-0.513
Mof_O 	O 	0.45782	0.45753	0.28733	-0.456
Mof_O 	O 	0.39659	0.43982	0.2401	-0.494
Mof_O 	O 	0.18668	0.54143	0.03044	-0.53
Mof_O 	O 	0.12446	0.57994	0.01114	-0.543
Mof_O 	O 	0.16905	0.63117	0.98367	-0.532
Mof_O 	O 	0.23923	0.59888	0.00761	-0.545
Mof_O 	O 	0.36093	0.95615	0.06757	-0.49
Mof_O 	O 	0.28803	0.96767	0.08585	-0.469
Mof_O 	O 	0.32195	0.99064	0.14671	-0.475
Mof_O 	O 	0.39088	0.97759	0.12056	-0.479
Mof_O 	O 	0.49207	0.89106	0.37643	-0.54
Mof_O 	O 	0.49221	0.8526	0.42827	-0.545
Mof_O 	O 	0.54135	0.80125	0.40401	-0.556
Mof_O 	O 	0.53536	0.8316	0.34629	-0.54
Mof_O 	O 	0.51696	0.61211	0.10628	-0.42
Mof_O 	O 	0.48165	0.63917	0.0703	-0.428
Mof_O 	O 	0.41101	0.49371	0.16333	-0.425
Mof_O 	O 	0.47048	0.51276	0.16727	-0.415
Mof_O 	O 	0.46298	0.7146	0.05306	-0.431
Mof_O 	O 	0.47811	0.77443	0.07009	-0.419
Mof_O 	O 	0.39778	0.88123	0.07197	-0.18
Mof_O 	O 	0.34529	0.88111	0.04271	0.172
Mof_C 	C 	0.3744	0.86426	0.0568	0.162
Mof_O 	O 	0.39552	0.88087	0.07179	-0.16
Mof_O 	O 	0.33838	0.87646	0.05328	-0.559
Mof_C 	C 	0.36939	0.86311	0.05975	0.073
Mof_O 	O 	0.51964	0.8065	0.11562	-0.435
Mof_O 	O 	0.54807	0.77952	0.15472	-0.417
Mof_O 	O 	0.42903	0.90391	0.12469	-0.445
Mof_O 	O 	0.41674	0.9297	0.16709	-0.426
Mof_O 	O 	0.55136	0.64404	0.15539	-0.419
Mof_O 	O 	0.56314	0.70422	0.17334	-0.415
Mof_O 	O 	0.51304	0.54023	0.21324	-0.426
Mof_O 	O 	0.49777	0.54765	0.25958	-0.426
Mof_O 	O 	0.22285	0.54858	0.08423	-0.468
Mof_O 	O 	0.1622	0.54648	0.08871	-0.452
Mof_O 	O 	0.11273	0.49513	0.18087	-0.353
Mof_O 	O 	0.15225	0.48336	0.21693	-0.366
Mof_O 	O 	0.13003	0.69354	0.00912	-0.454
Mof_O 	O 	0.19026	0.70488	0.00537	-0.461
Mof_O 	O 	0.05413	0.79059	0.05815	-0.452
Mof_O 	O 	0.08231	0.84505	0.07532	-0.457
Mof_O 	O 	0.52481	0.72433	0.38262	-0.453
Mof_O 	O 	0.49643	0.73764	0.42351	-0.455
Mof_O 	O 	0.41188	0.64085	0.46236	-0.467
Mof_O 	O 	0.39837	0.59035	0.43325	-0.468
Mof_O 	O 	0.43743	0.88539	0.33332	-0.458
Mof_O 	O 	0.41263	0.89325	0.37604	-0.447
Mof_O 	O 	0.28011	0.94193	0.37549	-0.36
Mof_O 	O 	0.25315	0.95625	0.33375	-0.373
Mof_N 	N 	0.28254	0.58813	0.06196	-0.248
Mof_N 	N 	0.26217	0.68048	0.01985	-0.26
Mof_N 	N 	0.48153	0.83683	0.29861	-0.263
Mof_N 	N 	0.52741	0.74729	0.32539	-0.255
Mof_N 	N 	0.35124	0.49117	0.20032	-0.241
Mof_N 	N 	0.27001	0.89273	0.05535	-0.258
Mof_N 	N 	0.49813	0.5273	0.31467	-0.276
Mof_C 	C 	0.57546	0.63747	0.05346	0.348
Mof_C 	C 	0.60266	0.61117	0.06341	-0.313
Mof_C 	C 	0.62069	0.58763	0.04449	0.531
Mof_H 	H 	0.6386	0.5705	0.0516	-0.207
Mof_C 	C 	0.61286	0.58885	0.01558	-0.967
Mof_C 	C 	0.58652	0.61411	0.00547	0.508
Mof_H 	H 	0.5811	0.6153	0.9858	-0.191
Mof_C 	C 	0.56727	0.6384	0.02385	-0.304
Mof_C 	C 	0.63317	0.56349	0.99483	2.062
Mof_C 	C 	0.6344	0.52104	0.00429	-2.565
Mof_H 	H 	0.6101	0.5106	0.004	0.764
Mof_H 	H 	0.6489	0.5062	0.9915	0.764
Mof_H 	H 	0.6451	0.5194	0.0234	0.777
Mof_C 	C 	0.6727	0.5742	0.99669	-2.613
Mof_H 	H 	0.6816	0.5728	0.0163	0.798
Mof_H 	H 	0.6862	0.5562	0.9853	0.779
Mof_H 	H 	0.6757	0.6004	0.9896	0.772
Mof_C 	C 	0.61916	0.5656	0.96416	-2.711
Mof_H 	H 	0.5937	0.5587	0.963	0.813
Mof_H 	H 	0.6221	0.5917	0.957	0.814
Mof_H 	H 	0.6326	0.5476	0.9528	0.803
Mof_C 	C 	0.55513	0.74273	0.02885	0.308
Mof_C 	C 	0.55745	0.71519	0.00696	-0.248
Mof_C 	C 	0.57681	0.72367	0.98314	0.339
Mof_H 	H 	0.5782	0.7049	0.9687	-0.142
Mof_C 	C 	0.5945	0.75954	0.97991	-0.689
Mof_C 	C 	0.59149	0.78652	0.00166	0.356
Mof_H 	H 	0.6027	0.8108	-0	-0.134
Mof_C 	C 	0.57252	0.77874	0.02566	-0.244
Mof_C 	C 	0.61705	0.76821	0.95389	1.556
Mof_C 	C 	0.59014	0.78508	0.93232	-2.069
Mof_H 	H 	0.5701	0.7672	0.9293	0.576
Mof_H 	H 	0.5812	0.8096	0.9393	0.619
Mof_H 	H 	0.6018	0.7892	0.9145	0.599
Mof_C 	C 	0.63179	0.73127	0.9403	-1.977
Mof_H 	H 	0.6493	0.7192	0.9534	0.574
Mof_H 	H 	0.6121	0.7134	0.9361	0.573
Mof_H 	H 	0.6433	0.738	0.9228	0.564
Mof_C 	C 	0.6497	0.79463	0.9599	-2.133
Mof_H 	H 	0.666	0.7824	0.9738	0.626
Mof_H 	H 	0.6621	0.7989	0.9425	0.631
Mof_H 	H 	0.6416	0.8193	0.9672	0.643
Mof_C 	C 	0.60753	0.78677	0.0976	0.182
Mof_C 	C 	0.60566	0.81455	0.07486	-0.089
Mof_C 	C 	0.63368	0.84164	0.0729	0.023
Mof_H 	H 	0.6322	0.8602	0.0583	0.005
Mof_C 	C 	0.66434	0.8422	0.0922	-0.144
Mof_C 	C 	0.66608	0.81388	0.11382	0.022
Mof_H 	H 	0.686	0.8138	0.1268	0.011
Mof_C 	C 	0.63939	0.78629	0.11652	-0.083
Mof_C 	C 	0.69373	0.87424	0.09074	0.406
Mof_C 	C 	0.68477	0.90506	0.06787	-0.193
Mof_H 	H 	0.6622	0.9178	0.072	0.051
Mof_H 	H 	0.704	0.9241	0.0678	0.043
Mof_H 	H 	0.6824	0.8927	0.0494	0.097
Mof_C 	C 	0.72957	0.8541	0.08409	-0.303
Mof_H 	H 	0.7353	0.8347	0.0985	0.078
Mof_H 	H 	0.7272	0.8417	0.0656	0.046
Mof_H 	H 	0.7488	0.8732	0.084	0.09
Mof_C 	C 	0.69907	0.8961	0.1196	-0.349
Mof_H 	H 	0.7048	0.8775	0.1346	0.106
Mof_H 	H 	0.7187	0.9146	0.1184	0.11
Mof_H 	H 	0.677	0.9098	0.1237	0.088
Mof_C 	C 	0.7022	0.8729	0.05889	-0.459
Mof_H 	H 	0.7129	0.848	0.0545	0.131
Mof_H 	H 	0.68	0.8762	0.0475	0.091
Mof_H 	H 	0.7189	0.8936	0.0547	0.148
Mof_C 	C 	0.6764	0.91327	0.0991	-0.343
Mof_H 	H 	0.6716	0.913	0.1191	0.09
Mof_H 	H 	0.6929	0.9343	0.0952	0.113
Mof_H 	H 	0.654	0.917	0.088	0.1
Mof_C 	C 	0.7285	0.8671	0.10967	-0.17
Mof_H 	H 	0.7226	0.8681	0.1295	0.039
Mof_H 	H 	0.7384	0.8418	0.1054	0.033
Mof_H 	H 	0.7462	0.887	0.1059	0.037
Mof_C 	C 	0.63156	0.68006	0.12039	0.197
Mof_C 	C 	0.65701	0.70866	0.12991	-0.082
Mof_C 	C 	0.69399	0.70034	0.12889	0.019
Mof_H 	H 	0.7108	0.7192	0.1351	0.016
Mof_C 	C 	0.70694	0.66353	0.11863	-0.13
Mof_C 	C 	0.68072	0.6373	0.11002	0.04
Mof_H 	H 	0.6885	0.613	0.1035	0.007
Mof_C 	C 	0.64446	0.64367	0.11019	-0.1
Mof_C 	C 	0.74806	0.65521	0.11806	0.351
Mof_C 	C 	0.77104	0.68969	0.12847	-0.437
Mof_H 	H 	0.7639	0.7127	0.1178	0.097
Mof_H 	H 	0.7675	0.694	0.1485	0.179
Mof_H 	H 	0.7963	0.6842	0.1257	0.135
Mof_C 	C 	0.757	0.6484	0.08658	0.222
Mof_H 	H 	0.753	0.6721	0.0759	-0.139
Mof_H 	H 	0.7821	0.6406	0.0856	-0.068
Mof_H 	H 	0.7416	0.628	0.0786	-0.223
Mof_C 	C 	0.7554	0.61614	0.13239	-0.667
Mof_H 	H 	0.7393	0.5967	0.124	0.085
Mof_H 	H 	0.7803	0.6085	0.1297	0.209
Mof_H 	H 	0.7514	0.6183	0.1525	0.404
Mof_C 	C 	0.7674	0.6883	0.10297	-0.445
Mof_H 	H 	0.793	0.6827	0.1028	0.115
Mof_H 	H 	0.7576	0.6906	0.0836	0.18
Mof_H 	H 	0.7636	0.7125	0.113	0.112
Mof_C 	C 	0.7565	0.61476	0.10524	-0.475
Mof_H 	H 	0.7438	0.5948	0.1154	0.206
Mof_H 	H 	0.7487	0.6143	0.0853	0.28
Mof_H 	H 	0.7823	0.6099	0.107	0.116
Mof_C 	C 	0.7615	0.6547	0.14983	0.294
Mof_H 	H 	0.7495	0.634	0.1597	-0.3
Mof_H 	H 	0.7874	0.6506	0.151	-0.084
Mof_H 	H 	0.7559	0.6794	0.1586	-0.129
Mof_C 	C 	0.46081	0.41879	0.18132	0.297
Mof_C 	C 	0.43202	0.3952	0.16925	-0.234
Mof_C 	C 	0.43909	0.36993	0.1474	0.39
Mof_H 	H 	0.4194	0.3567	0.1387	-0.099
Mof_C 	C 	0.47368	0.36245	0.1372	-0.7
Mof_C 	C 	0.50111	0.38791	0.14861	0.384
Mof_H 	H 	0.5241	0.3871	0.1409	-0.099
Mof_C 	C 	0.49547	0.41335	0.1703	-0.236
Mof_C 	C 	0.47831	0.33354	0.1117	1.188
Mof_C 	C 	0.4561	0.3504	0.08575	0.307
Mof_H 	H 	0.4666	0.3748	0.0801	-0.716
Mof_H 	H 	0.4566	0.3322	0.07	-0.103
Mof_H 	H 	0.4313	0.3545	0.0909	-0.218
Mof_C 	C 	0.51891	0.3281	0.1048	-3.198
Mof_H 	H 	0.5283	0.3523	0.0975	1.336
Mof_H 	H 	0.5326	0.3208	0.1219	1.359
Mof_H 	H 	0.521	0.3079	0.0906	0.914
Mof_C 	C 	0.4648	0.29423	0.12317	-1.841
Mof_H 	H 	0.4802	0.2862	0.1392	0.673
Mof_H 	H 	0.4402	0.2971	0.1292	-0.418
Mof_H 	H 	0.4654	0.2748	0.1083	0.382
Mof_C 	C 	0.48624	0.33206	0.1151	0.923
Mof_C 	C 	0.45598	0.3059	0.1018	-2.604
Mof_H 	H 	0.4373	0.3221	0.0929	0.751
Mof_H 	H 	0.466	0.2891	0.0877	0.687
Mof_H 	H 	0.4457	0.2903	0.1166	1.864
Mof_C 	C 	0.5017	0.3592	0.09209	-1.543
Mof_H 	H 	0.5206	0.3754	0.1007	0.016
Mof_H 	H 	0.5116	0.3436	0.0772	0.451
Mof_H 	H 	0.4826	0.3756	0.0841	1.001
Mof_C 	C 	0.5159	0.3056	0.1292	0.195
Mof_H 	H 	0.535	0.3215	0.1376	-0.651
Mof_H 	H 	0.5054	0.2899	0.1438	-0.204
Mof_H 	H 	0.5257	0.2887	0.1149	-0.093
Mof_C 	C 	0.5343	0.44001	0.24133	0.16
Mof_C 	C 	0.54699	0.42456	0.21532	-0.058
Mof_C 	C 	0.57365	0.39664	0.21437	-0.042
Mof_H 	H 	0.5812	0.3881	0.1966	0.036
Mof_C 	C 	0.58978	0.38072	0.23917	-0.021
Mof_C 	C 	0.57722	0.39423	0.26478	-0.052
Mof_H 	H 	0.5865	0.3832	0.2818	0.017
Mof_C 	C 	0.55112	0.42375	0.26623	-0.057
Mof_C 	C 	0.6196	0.34864	0.23849	0.077
Mof_C 	C 	0.6061	0.31487	0.25673	-1.376
Mof_H 	H 	0.5851	0.3031	0.2473	0.464
Mof_H 	H 	0.6251	0.2956	0.2592	0.394
Mof_H 	H 	0.5997	0.3246	0.2752	0.421
Mof_C 	C 	0.65303	0.3704	0.25071	-0.397
Mof_H 	H 	0.6594	0.3909	0.2378	-0.115
Mof_H 	H 	0.6477	0.3814	0.269	0.247
Mof_H 	H 	0.6731	0.3524	0.253	0.13
Mof_C 	C 	0.6299	0.3345	0.20836	0.244
Mof_H 	H 	0.6097	0.3205	0.1995	-0.163
Mof_H 	H 	0.6356	0.3568	0.1968	-0.058
Mof_H 	H 	0.6507	0.3176	0.2101	-0.083
Mof_C 	C 	0.62038	0.35068	0.23384	0.053
Mof_C 	C 	0.6362	0.3362	0.26258	0.862
Mof_H 	H 	0.6176	0.323	0.2727	-0.104
Mof_H 	H 	0.656	0.3184	0.2594	-0.301
Mof_H 	H 	0.6452	0.3581	0.2737	-0.347
Mof_C 	C 	0.65004	0.372	0.21744	-0.668
Mof_H 	H 	0.6399	0.381	0.1993	0.218
Mof_H 	H 	0.659	0.3939	0.2285	0.386
Mof_H 	H 	0.6698	0.3542	0.2142	0.208
Mof_C 	C 	0.6055	0.31499	0.21642	-0.142
Mof_H 	H 	0.5954	0.3237	0.1982	0.166
Mof_H 	H 	0.6251	0.2969	0.2134	0.059
Mof_H 	H 	0.5869	0.3022	0.2268	-0.026
Mof_C 	C 	0.4654	0.42458	0.3009	0.126
Mof_C 	C 	0.50239	0.41372	0.30912	-0.021
Mof_C 	C 	0.50915	0.38082	0.32502	-0.086
Mof_H 	H 	0.5333	0.3761	0.3309	0.02
Mof_C 	C 	0.48277	0.35286	0.3336	-0.01
Mof_C 	C 	0.44776	0.36385	0.32415	-0.056
Mof_H 	H 	0.4286	0.3474	0.3286	0.037
Mof_C 	C 	0.43903	0.39802	0.3083	-0.043
Mof_C 	C 	0.49463	0.3198	0.3548	-0.056
Mof_C 	C 	0.52098	0.2954	0.33762	2.217
Mof_H 	H 	0.5426	0.3104	0.3346	1.343
Mof_H 	H 	0.5274	0.272	0.3481	-0.552
Mof_H 	H 	0.5095	0.2885	0.3194	-1.029
Mof_C 	C 	0.46051	0.2956	0.3594	-0.138
Mof_H 	H 	0.4437	0.3106	0.3702	0.242
Mof_H 	H 	0.4492	0.2887	0.3412	0.148
Mof_H 	H 	0.4671	0.2721	0.3698	0.018
Mof_C 	C 	0.5117	0.3377	0.38238	-0.229
Mof_H 	H 	0.533	0.3525	0.3779	-0.021
Mof_H 	H 	0.4943	0.3546	0.3909	0.085
Mof_H 	H 	0.5185	0.3171	0.3956	0.057
Mof_C 	C 	0.49088	0.31353	0.34905	0.004
Mof_C 	C 	0.53056	0.3046	0.3582	-1.095
Mof_H 	H 	0.5394	0.3242	0.3715	0.471
Mof_H 	H 	0.532	0.2793	0.3672	0.496
Mof_H 	H 	0.5452	0.3047	0.3416	-1.792
Mof_C 	C 	0.4756	0.2831	0.32781	-1.544
Mof_H 	H 	0.4508	0.2894	0.3225	0.407
Mof_H 	H 	0.4899	0.283	0.311	0.861
Mof_H 	H 	0.4766	0.2576	0.3366	0.461
Mof_C 	C 	0.4685	0.3165	0.37602	0.028
Mof_H 	H 	0.4791	0.336	0.3887	0.02
Mof_H 	H 	0.4439	0.3238	0.3706	-0.212
Mof_H 	H 	0.4685	0.2916	0.3856	-0.015
Mof_C 	C 	0.39025	0.40251	0.24003	0.174
Mof_C 	C 	0.3878	0.38138	0.26527	-0.06
Mof_C 	C 	0.37978	0.3419	0.26587	-0.039
Mof_H 	H 	0.377	0.3301	0.2836	0.028
Mof_C 	C 	0.37558	0.31861	0.24115	-0.028
Mof_C 	C 	0.37887	0.34221	0.21463	-0.034
Mof_H 	H 	0.3766	0.3294	0.197	0.03
Mof_C 	C 	0.38506	0.38182	0.21469	-0.07
Mof_C 	C 	0.36706	0.27356	0.24014	0.039
Mof_C 	C 	0.3697	0.2527	0.26956	-0.097
Mof_H 	H 	0.3942	0.255	0.2776	-0.225
Mof_H 	H 	0.3531	0.2647	0.2823	0.034
Mof_H 	H 	0.3636	0.2255	0.2671	0.022
Mof_C 	C 	0.39354	0.2538	0.21963	0.363
Mof_H 	H 	0.4181	0.2559	0.2275	-0.125
Mof_H 	H 	0.3872	0.2267	0.2173	-0.053
Mof_H 	H 	0.3918	0.2667	0.2013	0.226
Mof_C 	C 	0.32805	0.27	0.2272	-0.102
Mof_H 	H 	0.3264	0.283	0.209	0.013
Mof_H 	H 	0.3219	0.2428	0.2248	0.032
Mof_H 	H 	0.3114	0.282	0.2399	0.061
Mof_C 	C 	0.3659	0.27421	0.24391	-0.013
Mof_C 	C 	0.39461	0.2531	0.26362	0.044
Mof_H 	H 	0.418	0.2545	0.2552	-0.01
Mof_H 	H 	0.3959	0.2656	0.2821	0.207
Mof_H 	H 	0.3877	0.2261	0.2658	0.026
Mof_C 	C 	0.3629	0.2548	0.21416	-0.199
Mof_H 	H 	0.3862	0.256	0.2054	-0.344
Mof_H 	H 	0.3558	0.2278	0.2162	0.065
Mof_H 	H 	0.345	0.2683	0.2023	0.081
Mof_C 	C 	0.32858	0.2719	0.25743	-0.262
Mof_H 	H 	0.33	0.2839	0.2761	0.085
Mof_H 	H 	0.3107	0.2853	0.2454	0.046
Mof_H 	H 	0.3216	0.2449	0.2593	0.088
Mof_C 	C 	0.18741	0.50446	0.02421	0.164
Mof_C 	C 	0.22067	0.48583	0.01818	-0.047
Mof_C 	C 	0.22179	0.44523	0.01215	-0.06
Mof_H 	H 	0.2442	0.4339	0.0085	0.01
Mof_C 	C 	0.19148	0.4219	0.01146	-0.014
Mof_C 	C 	0.15812	0.44117	0.01782	-0.134
Mof_H 	H 	0.1415	0.437	0.0014	0.059
Mof_H 	H 	0.1481	0.427	0.0337	0.064
Mof_C 	C 	0.15609	0.48027	0.02452	-0.03
Mof_C 	C 	0.19134	0.37932	0.00163	0.07
Mof_C 	C 	0.23027	0.3665	0.99555	0.212
Mof_H 	H 	0.2387	0.3807	0.9794	-0.256
Mof_H 	H 	0.246	0.3717	0.0121	-0.119
Mof_H 	H 	0.2305	0.3389	0.9914	-0.083
Mof_C 	C 	0.16843	0.3742	0.9734	-0.717
Mof_H 	H 	0.1794	0.3888	0.9584	0.457
Mof_H 	H 	0.1675	0.3469	0.9683	0.193
Mof_H 	H 	0.1441	0.3837	0.9759	0.201
Mof_C 	C 	0.1768	0.3575	0.02716	-0.096
Mof_H 	H 	0.1757	0.3299	0.023	0.023
Mof_H 	H 	0.1927	0.3618	0.0437	0.014
Mof_H 	H 	0.1528	0.3669	0.0309	0.023
Mof_C 	C 	0.19449	0.3782	0.00487	0.085
Mof_C 	C 	0.2108	0.3755	0.97496	0.08
Mof_H 	H 	0.1931	0.3844	0.9606	-0.281
Mof_H 	H 	0.2322	0.3917	0.9745	0.18
Mof_H 	H 	0.2173	0.3488	0.9711	-0.019
Mof_C 	C 	0.222	0.3644	0.02812	-0.638
Mof_H 	H 	0.226	0.3367	0.026	0.179
Mof_H 	H 	0.2446	0.3781	0.0263	0.248
Mof_H 	H 	0.2126	0.3695	0.0467	0.196
Mof_C 	C 	0.15836	0.3558	0.0055	-0.06
Mof_H 	H 	0.1419	0.3655	0.9905	0.034
Mof_H 	H 	0.1627	0.3284	0.0025	-0.016
Mof_H 	H 	0.1477	0.3596	0.0238	0.02
Mof_C 	C 	0.10119	0.5584	0.99529	0.195
Mof_C 	C 	0.09473	0.5192	0.00255	-0.085
Mof_C 	C 	0.07126	0.49634	0.9849	0.003
Mof_H 	H 	0.067	0.4703	0.9898	0.014
Mof_C 	C 	0.05401	0.51207	0.95993	-0.12
Mof_C 	C 	0.05989	0.55009	0.95394	0.021
Mof_H 	H 	0.0479	0.5611	0.9379	0.007
Mof_C 	C 	0.08399	0.57417	0.97139	-0.09
Mof_C 	C 	0.028	0.48858	0.93908	0.309
Mof_C 	C 	0.02	0.5105	0.91091	0.146
Mof_H 	H 	0.0084	0.535	0.9148	-0.138
Mof_H 	H 	0.0424	0.5152	0.9016	0.364
Mof_H 	H 	0.004	0.4949	0.8986	-0.03
Mof_C 	C 	0.99236	0.4803	0.95415	0.04
Mof_H 	H 	0.9803	0.5047	0.9579	0.413
Mof_H 	H 	0.9767	0.4643	0.942	-0.05
Mof_H 	H 	0.9978	0.4669	0.9719	0.116
Mof_C 	C 	0.0464	0.44944	0.9334	-0.797
Mof_H 	H 	0.0513	0.4361	0.9513	0.243
Mof_H 	H 	0.0306	0.4336	0.9212	0.253
Mof_H 	H 	0.0689	0.4539	0.9242	0.132
Mof_C 	C 	0.02163	0.48904	0.94603	0.08
Mof_C 	C 	0.98769	0.5155	0.9422	-1.417
Mof_H 	H 	0.9785	0.5215	0.9607	0.129
Mof_H 	H 	0.9942	0.5394	0.9328	0.515
Mof_H 	H 	0.9692	0.5021	0.9308	0.424
Mof_C 	C 	0.0113	0.45121	0.96165	-0.566
Mof_H 	H 	0.0028	0.4576	0.9803	0.072
Mof_H 	H 	0.9923	0.4379	0.9507	0.191
Mof_H 	H 	0.0323	0.4345	0.9637	0.151
Mof_C 	C 	0.0353	0.4802	0.91635	0.003
Mof_H 	H 	0.0415	0.5043	0.9071	-0.438
Mof_H 	H 	0.0564	0.4637	0.9181	0.177
Mof_H 	H 	0.0165	0.4671	0.9051	0.006
Mof_C 	C 	0.16328	0.63293	0.95589	0.189
Mof_C 	C 	0.12897	0.62968	0.94278	-0.08
Mof_C 	C 	0.12421	0.6308	0.91309	-0.007
Mof_H 	H 	0.1007	0.6286	0.9049	0.014
Mof_C 	C 	0.15339	0.6351	0.89496	-0.078
Mof_C 	C 	0.18797	0.64154	0.90819	-0.011
Mof_H 	H 	0.2079	0.6465	0.897	0.022
Mof_C 	C 	0.19264	0.64055	0.93775	-0.067
Mof_C 	C 	0.1498	0.63517	0.8616	0.098
Mof_C 	C 	0.11116	0.6258	0.8502	0.091
Mof_H 	H 	0.1048	0.5996	0.8557	-0.237
Mof_H 	H 	0.0943	0.644	0.8581	-0.027
Mof_H 	H 	0.11	0.6279	0.8296	-0.052
Mof_C 	C 	0.17676	0.60491	0.85033	-1.074
Mof_H 	H 	0.201	0.611	0.8576	0.162
Mof_H 	H 	0.1701	0.5792	0.8566	0.346
Mof_H 	H 	0.176	0.6056	0.8297	0.304
Mof_C 	C 	0.1585	0.67711	0.8523	-0.44
Mof_H 	H 	0.1827	0.6839	0.8592	0.193
Mof_H 	H 	0.157	0.6788	0.8317	0.142
Mof_H 	H 	0.1413	0.6949	0.8602	-0.015
Mof_C 	C 	0.14619	0.63929	0.86205	0.156
Mof_C 	C 	0.18161	0.6416	0.84574	0.354
Mof_H 	H 	0.196	0.6185	0.8496	0.148
Mof_H 	H 	0.1758	0.6433	0.8255	-0.139
Mof_H 	H 	0.1952	0.6644	0.8519	-0.168
Mof_C 	C 	0.1229	0.67581	0.8561	-0.376
Mof_H 	H 	0.1367	0.6988	0.8617	0.234
Mof_H 	H 	0.1162	0.6772	0.836	0.126
Mof_H 	H 	0.1013	0.6745	0.867	0.146
Mof_C 	C 	0.1259	0.60142	0.8537	-0.274
Mof_H 	H 	0.1414	0.5793	0.8577	0.061
Mof_H 	H 	0.1042	0.5993	0.8645	0.307
Mof_H 	H 	0.1192	0.602	0.8335	0.125
Mof_C 	C 	0.24958	0.5799	0.98433	0.189
Mof_C 	C 	0.25066	0.59786	0.95785	-0.093
Mof_C 	C 	0.2622	0.577	0.93374	0.043
Mof_H 	H 	0.2626	0.5898	0.9161	0.007
Mof_C 	C 	0.27286	0.5387	0.93537	-0.172
Mof_C 	C 	0.27128	0.52099	0.96129	0.036
Mof_H 	H 	0.2781	0.4948	0.9628	-0.025
Mof_C 	C 	0.2598	0.54051	0.98609	-0.09
Mof_C 	C 	0.28613	0.51732	0.9092	0.42
Mof_C 	C 	0.32742	0.5248	0.9107	-0.49
Mof_H 	H 	0.3379	0.5141	0.9282	0.119
Mof_H 	H 	0.3383	0.5124	0.8947	0.154
Mof_H 	H 	0.3319	0.5525	0.9101	0.075
Mof_C 	C 	0.2805	0.47319	0.9111	0.09
Mof_H 	H 	0.288	0.4643	0.93	0.194
Mof_H 	H 	0.2551	0.4672	0.9075	-0.069
Mof_H 	H 	0.2948	0.4603	0.8972	-0.009
Mof_C 	C 	0.2756	0.536	0.88067	-0.225
Mof_H 	H 	0.285	0.5206	0.8654	0.046
Mof_H 	H 	0.2494	0.5372	0.8784	0.063
Mof_H 	H 	0.2855	0.562	0.88	0.157
Mof_C 	C 	0.3079	0.48026	0.915	-0.407
Mof_H 	H 	0.3149	0.4691	0.8972	0.134
Mof_H 	H 	0.3294	0.4864	0.9267	0.115
Mof_H 	H 	0.2933	0.4618	0.925	-0.14
Mof_C 	C 	0.25152	0.5089	0.89105	-0.71
Mof_H 	H 	0.2383	0.5329	0.8877	0.2
Mof_H 	H 	0.2579	0.4978	0.873	0.224
Mof_H 	H 	0.2365	0.4907	0.901	0.233
Mof_C 	C 	0.3091	0.5443	0.89098	-0.105
Mof_H 	H 	0.2959	0.5682	0.8869	-0.078
Mof_H 	H 	0.3317	0.5504	0.9013	0.103
Mof_H 	H 	0.3142	0.5315	0.8733	0.027
Mof_C 	C 	0.37426	0.97309	0.04484	0.171
Mof_C 	C 	0.41167	0.98091	0.04351	-0.085
Mof_C 	C 	0.42518	0.99642	0.01848	0.027
Mof_H 	H 	0.45	0.0016	0.0179	0.003
Mof_C 	C 	0.4031	0.0045	0.9944	-0.151
Mof_C 	C 	0.36581	0.99657	0.99624	0.027
Mof_H 	H 	0.3501	0.0016	0.9805	0.008
Mof_C 	C 	0.3519	0.9817	0.02067	-0.083
Mof_C 	C 	0.41876	0.02131	0.96657	0.395
Mof_C 	C 	0.45988	0.0155	0.9652	-0.26
Mof_H 	H 	0.4657	0.9884	0.9684	-0.013
Mof_H 	H 	0.4676	0.0233	0.9466	0.063
Mof_H 	H 	0.4722	0.0312	0.9797	0.072
Mof_C 	C 	0.4052	0.06328	0.96184	0.168
Mof_H 	H 	0.3791	0.064	0.9631	-0.081
Mof_H 	H 	0.4162	0.0801	0.9763	0.088
Mof_H 	H 	0.4117	0.0721	0.9432	-0.043
Mof_C 	C 	0.404	0.9958	0.94155	-0.482
Mof_H 	H 	0.3778	0.9973	0.9404	0.201
Mof_H 	H 	0.4135	0.0051	0.9239	0.163
Mof_H 	H 	0.4113	0.9691	0.9447	0.147
Mof_C 	C 	0.39105	0.0265	0.94121	-0.274
Mof_H 	H 	0.372	0.044	0.9466	0.09
Mof_H 	H 	0.4031	0.0373	0.9251	0.077
Mof_H 	H 	0.3807	0.0015	0.936	0.012
Mof_C 	C 	0.4352	0.06268	0.9727	-0.866
Mof_H 	H 	0.4528	0.0611	0.9885	0.276
Mof_H 	H 	0.4469	0.072	0.956	0.278
Mof_H 	H 	0.4161	0.0805	0.9775	0.115
Mof_C 	C 	0.44965	0.9934	0.9585	-0.147
Mof_H 	H 	0.4667	0.9905	0.9746	0.139
Mof_H 	H 	0.4396	0.9682	0.9534	0.03
Mof_H 	H 	0.462	0.004	0.9425	0.067
Mof_C 	C 	0.27764	0.99916	0.07131	0.152
Mof_C 	C 	0.28341	0.00513	0.04168	-0.066
Mof_C 	C 	0.2715	0.03819	0.02711	0.01
Mof_H 	H 	0.2761	0.0405	0.0077	0.018
Mof_C 	C 	0.25363	0.06701	0.03968	-0.109
Mof_C 	C 	0.24879	0.06281	0.06938	0.001
Mof_H 	H 	0.2372	0.0829	0.079	0.021
Mof_C 	C 	0.26029	0.03087	0.08464	-0.062
Mof_C 	C 	0.23715	0.10323	0.02474	0.283
Mof_C 	C 	0.2527	0.14093	0.03801	-0.224
Mof_H 	H 	0.2484	0.1413	0.0582	0.077
Mof_H 	H 	0.2785	0.1421	0.0353	-0.032
Mof_H 	H 	0.241	0.1631	0.0289	0.045
Mof_C 	C 	0.19579	0.1057	0.02625	-0.569
Mof_H 	H 	0.1893	0.1068	0.046	-0.072
Mof_H 	H 	0.1871	0.1288	0.0164	0.157
Mof_H 	H 	0.1849	0.0829	0.0173	0.281
Mof_C 	C 	0.2434	0.1015	0.99279	-0.349
Mof_H 	H 	0.2691	0.0999	0.9898	0.119
Mof_H 	H 	0.2315	0.0788	0.9846	-0.127
Mof_H 	H 	0.2337	0.1247	0.9837	0.09
Mof_C 	C 	0.2123	0.1289	0.04301	-0.046
Mof_H 	H 	0.1925	0.1133	0.0496	0.228
Mof_H 	H 	0.2263	0.139	0.0593	-0.017
Mof_H 	H 	0.2028	0.1503	0.0316	-0.021
Mof_C 	C 	0.26881	0.1274	0.0141	-0.256
Mof_H 	H 	0.2595	0.1505	0.0046	0.058
Mof_H 	H 	0.2846	0.1349	0.0302	0.141
Mof_H 	H 	0.2823	0.1121	0.0009	0.044
Mof_C 	C 	0.2139	0.0874	0.99915	0.161
Mof_H 	H 	0.1941	0.0722	0.0061	-0.174
Mof_H 	H 	0.2044	0.1089	0.9879	-0.055
Mof_H 	H 	0.2288	0.0711	0.9875	0.171
Mof_C 	C 	0.32307	0.02837	0.14734	0.164
Mof_C 	C 	0.29327	0.05215	0.1373	-0.067
Mof_C 	C 	0.29403	0.09262	0.13827	0.007
Mof_H 	H 	0.2736	0.1066	0.1317	0.018
Mof_C 	C 	0.3252	0.11334	0.14907	-0.121
Mof_C 	C 	0.35447	0.0914	0.15894	0.012
Mof_H 	H 	0.3754	0.1042	0.166	0.005
Mof_C 	C 	0.35391	0.05027	0.15869	-0.069
Mof_C 	C 	0.3264	0.15827	0.14953	0.345
Mof_C 	C 	0.3268	0.1653	0.18208	-0.831
Mof_H 	H 	0.3469	0.1512	0.1911	0.266
Mof_H 	H 	0.3296	0.1928	0.1859	0.257
Mof_H 	H 	0.3043	0.1562	0.1895	0.132
Mof_C 	C 	0.36357	0.1706	0.1387	-0.09
Mof_H 	H 	0.3827	0.1585	0.1503	0.243
Mof_H 	H 	0.3654	0.1625	0.1191	0
Mof_H 	H 	0.3659	0.1986	0.1399	0.044
Mof_C 	C 	0.2967	0.1779	0.1306	-0.256
Mof_H 	H 	0.2731	0.1705	0.1371	0.074
Mof_H 	H 	0.2993	0.2059	0.1319	0.059
Mof_H 	H 	0.2988	0.1697	0.1111	0.017
Mof_C 	C 	0.36308	0.177	0.1587	-0.189
Mof_H 	H 	0.3698	0.1691	0.178	0.048
Mof_H 	H 	0.3815	0.1685	0.146	-0.171
Mof_H 	H 	0.3609	0.205	0.1579	0.039
Mof_C 	C 	0.29823	0.1734	0.17045	0.115
Mof_H 	H 	0.3041	0.1634	0.1893	0.092
Mof_H 	H 	0.2988	0.2015	0.1709	-0.048
Mof_H 	H 	0.2743	0.1646	0.1642	-0.052
Mof_C 	C 	0.319	0.1729	0.11897	-0.382
Mof_H 	H 	0.3196	0.201	0.1188	0.102
Mof_H 	H 	0.3374	0.1628	0.1068	0.093
Mof_H 	H 	0.2954	0.164	0.1121	0.166
Mof_C 	C 	0.41739	0.003	0.12073	0.17
Mof_C 	C 	0.42241	0.03084	0.14263	-0.062
Mof_C 	C 	0.45088	0.05708	0.14313	-0.013
Mof_H 	H 	0.4536	0.0743	0.1585	0.027
Mof_C 	C 	0.47568	0.05888	0.12161	-0.079
Mof_C 	C 	0.47087	0.03124	0.09971	-0.01
Mof_H 	H 	0.487	0.0312	0.0849	0.023
Mof_C 	C 	0.44294	0.00375	0.09924	-0.068
Mof_C 	C 	0.50561	0.08981	0.12204	0.132
Mof_C 	C 	0.53173	0.0862	0.09801	-0.167
Mof_H 	H 	0.5188	0.0906	0.08	0.049
Mof_H 	H 	0.5508	0.1054	0.1006	0.041
Mof_H 	H 	0.5422	0.0604	0.0982	0.056
Mof_C 	C 	0.4893	0.13064	0.1231	-0.346
Mof_H 	H 	0.4747	0.1353	0.1058	0.088
Mof_H 	H 	0.4742	0.1327	0.1393	0.097
Mof_H 	H 	0.5085	0.1497	0.1247	0.105
Mof_C 	C 	0.5284	0.0826	0.14919	-0.17
Mof_H 	H 	0.5133	0.0844	0.1654	0.079
Mof_H 	H 	0.539	0.0568	0.1485	0.026
Mof_H 	H 	0.5475	0.1018	0.1509	0.065
Mof_C 	C 	0.50753	0.08824	0.12427	0.124
Mof_C 	C 	0.5023	0.1139	0.0974	-0.189
Mof_H 	H 	0.4805	0.1293	0.0988	0.04
Mof_H 	H 	0.5229	0.1311	0.0959	0.06
Mof_H 	H 	0.5002	0.0975	0.0807	0.048
Mof_C 	C 	0.54203	0.0635	0.1227	-0.383
Mof_H 	H 	0.5449	0.0476	0.1396	0.129
Mof_H 	H 	0.5401	0.0469	0.1061	0.101
Mof_H 	H 	0.5628	0.0804	0.1213	0.125
Mof_C 	C 	0.5104	0.114	0.15124	-0.173
Mof_H 	H 	0.4888	0.1297	0.1523	0.048
Mof_H 	H 	0.513	0.0977	0.168	0.018
Mof_H 	H 	0.5313	0.1309	0.1503	0.045
Mof_C 	C 	0.50183	0.92786	0.37633	0.198
Mof_C 	C 	0.52046	0.94478	0.35431	-0.081
Mof_C 	C 	0.53208	0.9821	0.35349	0.005
Mof_H 	H 	0.5446	0.9908	0.3377	0.025
Mof_C 	C 	0.52569	0.00809	0.37599	-0.083
Mof_C 	C 	0.50592	0.99164	0.39874	0.003
Mof_H 	H 	0.5002	0.0077	0.4141	0.016
Mof_C 	C 	0.49501	0.95323	0.39903	-0.082
Mof_C 	C 	0.5399	0.051	0.37667	0.134
Mof_C 	C 	0.5275	0.0761	0.40153	-0.084
Mof_H 	H 	0.5375	0.0656	0.4193	0.009
Mof_H 	H 	0.5358	0.1025	0.3992	0.01
Mof_H 	H 	0.5013	0.0758	0.4017	0.158
Mof_C 	C 	0.522	0.0711	0.35051	-0.297
Mof_H 	H 	0.5283	0.0573	0.3334	0.112
Mof_H 	H 	0.496	0.071	0.3521	0.023
Mof_H 	H 	0.5305	0.0977	0.3495	0.1
Mof_C 	C 	0.58158	0.0518	0.3751	-0.206
Mof_H 	H 	0.5925	0.0391	0.3917	-0.002
Mof_H 	H 	0.5886	0.0384	0.3581	0.128
Mof_H 	H 	0.5898	0.0785	0.3745	0.072
Mof_C 	C 	0.54007	0.05066	0.3782	0.123
Mof_C 	C 	0.50723	0.0776	0.38	-0.318
Mof_H 	H 	0.4936	0.0706	0.3963	-0.042
Mof_H 	H 	0.5154	0.1043	0.3819	0.102
Mof_H 	H 	0.492	0.075	0.3628	0.148
Mof_C 	C 	0.5649	0.056	0.40508	-0.507
Mof_H 	H 	0.5857	0.039	0.404	0.194
Mof_H 	H 	0.573	0.0828	0.4063	0.167
Mof_H 	H 	0.5516	0.0496	0.4218	0.165
Mof_C 	C 	0.561	0.0628	0.35204	-0.049
Mof_H 	H 	0.5819	0.0462	0.3504	-0.051
Mof_H 	H 	0.5454	0.0603	0.3351	0.001
Mof_H 	H 	0.5688	0.0896	0.3542	0.014
Mof_C 	C 	0.50869	0.87333	0.44883	0.228
Mof_C 	C 	0.50267	0.91272	0.45141	-0.115
Mof_C 	C 	0.52124	0.9344	0.47266	0.078
Mof_H 	H 	0.5165	0.9611	0.474	-0.009
Mof_C 	C 	0.54633	0.91784	0.4917	-0.205
Mof_C 	C 	0.55121	0.87783	0.48951	0.079
Mof_H 	H 	0.5674	0.8655	0.5025	-0.012
Mof_C 	C 	0.53289	0.85506	0.46873	-0.121
Mof_C 	C 	0.56641	0.94329	0.51405	0.51
Mof_C 	C 	0.54481	0.9404	0.54097	-0.556
Mof_H 	H 	0.5206	0.9502	0.5371	-0.03
Mof_H 	H 	0.5436	0.9135	0.5469	0.179
Mof_H 	H 	0.5566	0.9557	0.556	0.168
Mof_C 	C 	0.60508	0.928	0.51921	-0.284
Mof_H 	H 	0.6181	0.9302	0.5018	0.132
Mof_H 	H 	0.6173	0.9432	0.5341	0.072
Mof_H 	H 	0.6043	0.901	0.525	0.042
Mof_C 	C 	0.5668	0.98752	0.50568	-0.418
Mof_H 	H 	0.5802	0.9909	0.4886	0.12
Mof_H 	H 	0.5421	0.9965	0.5022	0.123
Mof_H 	H 	0.5781	0.0024	0.5211	0.14
Mof_C 	C 	0.5448	0.9744	0.5288	-0.298
Mof_H 	H 	0.5324	0.9907	0.5147	0.071
Mof_H 	H 	0.5272	0.9622	0.5406	0.289
Mof_H 	H 	0.561	0.9903	0.5407	0.078
Mof_C 	C 	0.586	0.9176	0.53617	-0.242
Mof_H 	H 	0.5997	0.8978	0.5266	0.089
Mof_H 	H 	0.6023	0.9333	0.548	0.079
Mof_H 	H 	0.5684	0.9052	0.5479	0.055
Mof_C 	C 	0.60059	0.9576	0.5001	-0.34
Mof_H 	H 	0.6125	0.9358	0.4913	0.038
Mof_H 	H 	0.5941	0.9768	0.4858	0.087
Mof_H 	H 	0.6169	0.9691	0.5144	0.118
Mof_C 	C 	0.57328	0.79488	0.41838	0.337
Mof_C 	C 	0.57675	0.79611	0.44796	-0.307
Mof_C 	C 	0.61036	0.78923	0.46185	0.515
Mof_H 	H 	0.6121	0.7896	0.4818	-0.191
Mof_C 	C 	0.64122	0.7819	0.44692	-0.955
Mof_C 	C 	0.63772	0.78033	0.41738	0.505
Mof_H 	H 	0.6581	0.775	0.4069	-0.199
Mof_C 	C 	0.60422	0.78659	0.40304	-0.295
Mof_C 	C 	0.6778	0.77371	0.46164	2.057
Mof_C 	C 	0.67683	0.7743	0.49386	-2.596
Mof_H 	H 	0.6597	0.7551	0.5	0.779
Mof_H 	H 	0.7007	0.7684	0.502	0.753
Mof_H 	H 	0.6695	0.7999	0.5001	0.774
Mof_C 	C 	0.70517	0.80452	0.45482	-2.581
Mof_H 	H 	0.6965	0.8297	0.4608	0.773
Mof_H 	H 	0.728	0.7988	0.4648	0.755
Mof_H 	H 	0.7085	0.8049	0.4345	0.776
Mof_C 	C 	0.69355	0.73573	0.45158	-2.647
Mof_H 	H 	0.6771	0.7147	0.4554	0.795
Mof_H 	H 	0.6971	0.7372	0.4313	0.796
Mof_H 	H 	0.7166	0.7311	0.4616	0.778
Mof_C 	C 	0.56755	0.85014	0.34468	0.197
Mof_C 	C 	0.60038	0.83203	0.35271	-0.104
Mof_C 	C 	0.63324	0.85113	0.35001	0.057
Mof_H 	H 	0.6549	0.8382	0.3551	-0.002
Mof_C 	C 	0.63438	0.88928	0.33988	-0.172
Mof_C 	C 	0.60217	0.90637	0.3318	0.058
Mof_H 	H 	0.6025	0.9315	0.3241	0.005
Mof_C 	C 	0.56908	0.88827	0.33453	-0.097
Mof_C 	C 	0.67062	0.91074	0.33606	0.452
Mof_C 	C 	0.70356	0.8895	0.34966	-0.197
Mof_H 	H 	0.7253	0.9044	0.3465	0.042
Mof_H 	H 	0.7005	0.8867	0.3699	0.117
Mof_H 	H 	0.7057	0.864	0.3411	0.04
Mof_C 	C 	0.667	0.95297	0.34775	-0.434
Mof_H 	H 	0.646	0.9653	0.3387	0.042
Mof_H 	H 	0.6643	0.9521	0.3681	0.133
Mof_H 	H 	0.6885	0.9677	0.3437	0.138
Mof_C 	C 	0.6749	0.9135	0.30342	-0.43
Mof_H 	H 	0.6542	0.9268	0.2948	0.141
Mof_H 	H 	0.6967	0.9277	0.2996	0.142
Mof_H 	H 	0.6764	0.8876	0.2955	0.091
Mof_C 	C 	0.6955	0.8838	0.3199	-0.356
Mof_H 	H 	0.6976	0.859	0.3296	0.108
Mof_H 	H 	0.6855	0.8798	0.3007	0.114
Mof_H 	H 	0.7192	0.8955	0.319	0.117
Mof_C 	C 	0.6671	0.94993	0.3209	-0.152
Mof_H 	H 	0.6513	0.9667	0.3313	0.125
Mof_H 	H 	0.6907	0.9618	0.3201	0.028
Mof_H 	H 	0.657	0.9461	0.3018	0.026
Mof_C 	C 	0.6874	0.9141	0.36673	-0.41
Mof_H 	H 	0.689	0.8885	0.3753	0.053
Mof_H 	H 	0.7113	0.9253	0.3661	0.13
Mof_H 	H 	0.6722	0.9306	0.378	0.11
Mof_C 	C 	0.4324	0.54151	0.13072	-0.091
Mof_C 	C 	0.39804	0.54668	0.11841	-0.006
Mof_H 	H 	0.3786	0.5317	0.1245	0.034
Mof_C 	C 	0.39244	0.57435	0.09684	-0.046
Mof_C 	C 	0.42204	0.59509	0.08666	-0.004
Mof_H 	H 	0.4187	0.6126	0.0715	0.041
Mof_C 	C 	0.45638	0.58946	0.09927	-0.094
Mof_C 	C 	0.46124	0.5634	0.12142	0.032
Mof_H 	H 	0.4843	0.5604	0.1303	0.05
Mof_C 	C 	0.43874	0.51305	0.15595	0.353
Mof_C 	C 	0.48752	0.61583	0.09047	0.362
Mof_C 	C 	0.31135	0.58632	0.04518	0.063
Mof_H 	H 	0.3068	0.587	0.0254	-0.016
Mof_C 	C 	0.34738	0.58348	0.05512	-0.163
Mof_H 	H 	0.3662	0.5827	0.0423	0.059
Mof_C 	C 	0.35499	0.5818	0.08468	0.084
Mof_C 	C 	0.32565	0.58746	0.1022	-0.153
Mof_H 	H 	0.3297	0.5891	0.122	0.085
Mof_C 	C 	0.2898	0.59075	0.09029	0.073
Mof_H 	H 	0.2707	0.5948	0.1024	-0.009
Mof_C 	C 	0.41818	0.76477	0.05337	-0.083
Mof_C 	C 	0.38909	0.74028	0.04529	-0.01
Mof_H 	H 	0.3934	0.7137	0.0425	0.041
Mof_C 	C 	0.3532	0.75484	0.0412	-0.045
Mof_C 	C 	0.34876	0.79471	0.04404	-0.027
Mof_H 	H 	0.3256	0.805	0.0402	0.051
Mof_C 	C 	0.37648	0.82071	0.05231	-0.047
Mof_C 	C 	0.41135	0.80453	0.05705	-0.007
Mof_H 	H 	0.4306	0.8209	0.0629	0.057
Mof_C 	C 	0.45708	0.74897	0.05904	0.381
Mof_C 	C 	0.26058	0.70923	0.03915	0.102
Mof_H 	H 	0.2386	0.713	0.048	-0.031
Mof_C 	C 	0.28876	0.73336	0.04673	-0.176
Mof_H 	H 	0.2853	0.753	0.0602	0.089
Mof_C 	C 	0.32296	0.72941	0.0347	0.107
Mof_C 	C 	0.32509	0.69727	0.01751	-0.173
Mof_H 	H 	0.3475	0.6905	0.0104	0.079
Mof_C 	C 	0.29434	0.6739	0.01018	0.097
Mof_H 	H 	0.2972	0.6528	0.9979	-0.023
Mof_C 	C 	0.50309	0.8278	0.16075	-0.117
Mof_C 	C 	0.47981	0.85496	0.14861	0.063
Mof_H 	H 	0.4789	0.8584	0.1288	0.038
Mof_C 	C 	0.45738	0.87756	0.16538	-0.139
Mof_C 	C 	0.45742	0.87084	0.19448	0.036
Mof_H 	H 	0.4423	0.8857	0.2057	0.028
Mof_C 	C 	0.47924	0.84284	0.20711	-0.071
Mof_C 	C 	0.50364	0.82185	0.19044	0.026
Mof_H 	H 	0.52	0.8042	0.1991	0.039
Mof_C 	C 	0.52548	0.80266	0.14189	0.385
Mof_C 	C 	0.43234	0.90592	0.15103	0.407
Mof_C 	C 	0.51154	0.83332	0.28417	0.099
Mof_H 	H 	0.5337	0.831	0.2945	-0.017
Mof_C 	C 	0.51194	0.83297	0.25444	-0.188
Mof_H 	H 	0.5337	0.8296	0.2452	0.096
Mof_C 	C 	0.48005	0.83761	0.23896	0.134
Mof_C 	C 	0.44829	0.83867	0.25329	-0.193
Mof_H 	H 	0.4257	0.8394	0.2435	0.096
Mof_C 	C 	0.45105	0.83857	0.28326	0.111
Mof_H 	H 	0.4295	0.8398	0.293	-0.02
Mof_C 	C 	0.54269	0.6551	0.20432	-0.091
Mof_C 	C 	0.5331	0.61669	0.20796	0.033
Mof_H 	H 	0.534	0.5994	0.1926	0.053
Mof_C 	C 	0.5221	0.60327	0.234	-0.093
Mof_C 	C 	0.52034	0.62818	0.25683	0.006
Mof_H 	H 	0.5118	0.6191	0.2741	0.039
Mof_C 	C 	0.53116	0.66677	0.25442	-0.05
Mof_C 	C 	0.54209	0.67994	0.22784	0.012
Mof_H 	H 	0.5491	0.706	0.2258	0.044
Mof_C 	C 	0.55377	0.66881	0.17492	0.385
Mof_C 	C 	0.51139	0.56026	0.23519	0.335
Mof_C 	C 	0.50262	0.71811	0.32166	0.094
Mof_H 	H 	0.4848	0.7153	0.3351	-0.021
Mof_C 	C 	0.50252	0.69261	0.29901	-0.172
Mof_H 	H 	0.4843	0.6737	0.2973	0.097
Mof_C 	C 	0.52885	0.69431	0.27869	0.111
Mof_C 	C 	0.55402	0.72443	0.28247	-0.168
Mof_H 	H 	0.572	0.7278	0.2692	0.086
Mof_C 	C 	0.55264	0.74997	0.3061	0.092
Mof_H 	H 	0.5702	0.7695	0.3082	-0.02
Mof_C 	C 	0.19999	0.5286	0.1284	-0.121
Mof_C 	C 	0.1714	0.51982	0.14536	0.039
Mof_H 	H 	0.1478	0.5233	0.1377	0.04
Mof_C 	C 	0.17575	0.50628	0.17284	-0.084
Mof_C 	C 	0.21089	0.50113	0.18442	-0.004
Mof_H 	H 	0.2142	0.4904	0.2027	0.047
Mof_C 	C 	0.24182	0.51181	0.16906	-0.055
Mof_C 	C 	0.23438	0.5247	0.14079	0.013
Mof_H 	H 	0.2541	0.531	0.1298	0.032
Mof_C 	C 	0.19467	0.54228	0.09819	0.374
Mof_C 	C 	0.1452	0.49443	0.19129	0.289
Mof_C 	C 	0.3238	0.47129	0.20978	0.105
Mof_H 	H 	0.3286	0.4517	0.2233	-0.013
Mof_C 	C 	0.28799	0.478	0.20061	-0.182
Mof_H 	H 	0.2695	0.4631	0.2082	0.093
Mof_C 	C 	0.27948	0.50544	0.18103	0.114
Mof_C 	C 	0.30753	0.53166	0.17482	-0.162
Mof_H 	H 	0.3025	0.554	0.1639	0.086
Mof_C 	C 	0.34337	0.52396	0.18524	0.088
Mof_H 	H 	0.3619	0.5417	0.1817	0.002
Mof_C 	C 	0.15322	0.75565	0.02318	-0.11
Mof_C 	C 	0.11915	0.76627	0.03413	0.038
Mof_H 	H 	0.0994	0.7491	0.0325	0.043
Mof_C 	C 	0.1154	0.80194	0.04715	-0.115
Mof_C 	C 	0.14483	0.82639	0.05023	0.019
Mof_H 	H 	0.1424	0.8502	0.0597	0.036
Mof_C 	C 	0.1783	0.81632	0.03952	-0.072
Mof_C 	C 	0.18279	0.78164	0.02635	0.015
Mof_H 	H 	0.2054	0.7749	0.0194	0.032
Mof_C 	C 	0.15842	0.71442	0.01123	0.363
Mof_C 	C 	0.08055	0.81299	0.06117	0.373
Mof_C 	C 	0.26635	0.87224	0.03152	0.113
Mof_H 	H 	0.2844	0.8746	0.0182	-0.025
Mof_C 	C 	0.23678	0.84692	0.02491	-0.19
Mof_H 	H 	0.2356	0.8333	0.0076	0.091
Mof_C 	C 	0.20962	0.84242	0.04424	0.134
Mof_C 	C 	0.21293	0.86554	0.06718	-0.197
Mof_H 	H 	0.1944	0.8654	0.0802	0.104
Mof_C 	C 	0.24366	0.89047	0.07257	0.12
Mof_H 	H 	0.2447	0.9056	0.0892	-0.023
Mof_C 	C 	0.48938	0.67496	0.4034	-0.144
Mof_C 	C 	0.46383	0.66577	0.42281	0.071
Mof_H 	H 	0.4584	0.6839	0.4369	0.031
Mof_C 	C 	0.44593	0.63042	0.42208	-0.151
Mof_C 	C 	0.45414	0.60461	0.40079	0.032
Mof_H 	H 	0.4418	0.5808	0.3997	0.024
Mof_C 	C 	0.48059	0.61279	0.38037	-0.093
Mof_C 	C 	0.49839	0.64841	0.38265	0.035
Mof_H 	H 	0.5166	0.6545	0.3701	0.024
Mof_C 	C 	0.505	0.71504	0.4034	0.363
Mof_C 	C 	0.41663	0.62004	0.44154	0.402
Mof_C 	C 	0.52466	0.54944	0.32615	0.135
Mof_H 	H 	0.5479	0.5461	0.3192	-0.05
Mof_C 	C 	0.52099	0.57635	0.34701	-0.223
Mof_H 	H 	0.5412	0.5903	0.3542	0.094
Mof_C 	C 	0.48757	0.583	0.35748	0.142
Mof_C 	C 	0.45976	0.55913	0.3459	-0.213
Mof_H 	H 	0.4363	0.5614	0.3525	0.11
Mof_C 	C 	0.46665	0.53223	0.32483	0.144
Mof_H 	H 	0.4474	0.5169	0.3176	-0.03
Mof_C 	C 	0.37704	0.91036	0.33389	-0.095
Mof_C 	C 	0.34663	0.91944	0.34837	0.016
Mof_H 	H 	0.3466	0.916	0.3682	0.047
Mof_C 	C 	0.31596	0.93369	0.33385	-0.066
Mof_C 	C 	0.31569	0.93901	0.3044	-0.027
Mof_H 	H 	0.295	0.9487	0.2946	0.05
Mof_C 	C 	0.34709	0.92969	0.28938	-0.027
Mof_C 	C 	0.37727	0.91498	0.30475	-0.012
Mof_H 	H 	0.398	0.9081	0.2951	0.044
Mof_C 	C 	0.41161	0.89529	0.34922	0.361
Mof_C 	C 	0.28106	0.94492	0.3485	0.28
Mof_N 	N 	0.35829	0.95649	0.20056	-0.174
Mof_C 	C 	0.3258	0.9475	0.2118	0.036
Mof_H 	H 	0.3052	0.9463	0.1995	0.018
Mof_C 	C 	0.322	0.94021	0.24007	-0.087
Mof_H 	H 	0.299	0.9347	0.2466	0.06
Mof_C 	C 	0.3503	0.9407	0.25854	0.034
Mof_C 	C 	0.384	0.9517	0.24899	-0.1
Mof_H 	H 	0.404	0.9544	0.2618	0.063
Mof_C 	C 	0.3873	0.9584	0.22035	0.032
Mof_H 	H 	0.4103	0.9646	0.2138	0.015
Mof_N 	N 	0.35009	0.9413	0.19803	-0.067
Mof_C 	C 	0.33319	0.9682	0.21276	0.05
Mof_H 	H 	0.323	0.9898	0.2033	0
Mof_C 	C 	0.33019	0.9648	0.24267	-0.055
Mof_H 	H 	0.3179	0.9837	0.2529	0.045
Mof_C 	C 	0.3466	0.9313	0.25728	0.04
Mof_C 	C 	0.3621	0.9039	0.23932	-0.074
Mof_H 	H 	0.3721	0.8812	0.2475	0.053
Mof_C 	C 	0.3634	0.9087	0.21039	0.007
Mof_H 	H 	0.3736	0.8892	0.1992	0.033
Mof_O 	O 	0.43374	0.51424	0.221	-0.492
Mof_O 	O 	0.41243	0.52219	0.26408	-0.412
Mof_C 	C 	0.42546	0.53513	0.24159	0.149
Mof_H 	H 	0.4292	0.562	0.2402	0.002
Mof_O 	O 	0.4279	0.648	0.16071	-0.471
Mof_H 	H 	0.4325	0.6658	0.1489	0.281
Mof_O 	O 	0.45254	0.69147	0.19008	-0.252
Mof_N 	N 	0.39901	0.71817	0.33906	-0.139
Mof_C 	C 	0.42223	0.57935	0.23706	-0.064
Mof_C 	C 	0.42645	0.59695	0.2103	0.018
Mof_H 	H 	0.429	0.5832	0.1933	0.051
Mof_C 	C 	0.42637	0.63754	0.21231	-0.085
Mof_C 	C 	0.42041	0.6586	0.23711	-0.002
Mof_H 	H 	0.4196	0.6858	0.2359	0.042
Mof_C 	C 	0.41558	0.64113	0.26371	-0.033
Mof_C 	C 	0.4161	0.60079	0.26146	-0.011
Mof_H 	H 	0.4119	0.5867	0.2781	0.055
Mof_C 	C 	0.42344	0.53553	0.24008	0.152
Mof_C 	C 	0.43375	0.66031	0.18558	0.37
Mof_C 	C 	0.4028	0.7314	0.31185	0.06
Mof_H 	H 	0.4028	0.7584	0.309	0.002
Mof_C 	C 	0.4067	0.70702	0.2874	-0.14
Mof_H 	H 	0.408	0.7188	0.2695	0.08
Mof_C 	C 	0.4085	0.66623	0.28908	0.085
Mof_C 	C 	0.4068	0.65104	0.31631	-0.143
Mof_H 	H 	0.4076	0.6242	0.3197	0.084
Mof_C 	C 	0.4039	0.67853	0.33909	0.063
Mof_H 	H 	0.4057	0.6674	0.3573	0.015
Mof_O 	O 	0.29271	0.90912	0.13161	-0.053
Mof_O 	O 	0.33856	0.90513	0.10231	-0.344
Mof_O 	O 	0.34883	0.90932	0.14929	-0.299
Mof_C 	C 	0.326	0.9042	0.12694	-0.533
Mof_O 	O 	0.2999	0.9111	0.13301	-0.2
Mof_O 	O 	0.3532	0.9139	0.12775	-0.095
Mof_C 	C 	0.3276	0.88531	0.12888	0.892
Mof_N 	N 	0.33061	0.84534	0.13202	-0.199
Mof_C 	C 	0.36204	0.8179	0.1382	-0.268
Mof_H 	H 	0.3532	0.7914	0.1388	0.112
Mof_H 	H 	0.3793	0.8203	0.1234	0.123
Mof_H 	H 	0.3737	0.8245	0.1564	0.116
Mof_C 	C 	0.29925	0.8173	0.1269	-0.274
Mof_H 	H 	0.3076	0.791	0.1304	0.11
Mof_H 	H 	0.2802	0.8234	0.1398	0.11
Mof_H 	H 	0.29	0.8197	0.1075	0.113
Mof_Ni	Ni	0.94314	0.65018	0.38727	1.12
Mof_Ni	Ni	0.98903	0.68655	0.43973	1.118
Mof_Ni	Ni	0.9693	0.77001	0.41592	1.119
Mof_Ni	Ni	0.92608	0.73375	0.36243	1.115
Mof_Ni	Ni	0.096	0.46773	0.29784	1.099
Mof_Ni	Ni	0.01352	0.49034	0.2942	1.114
Mof_Ni	Ni	0.99601	0.49553	0.22152	1.078
Mof_Ni	Ni	0.0972	0.46863	0.22147	1.107
Mof_Ni	Ni	0.26825	0.57038	0.45507	1.053
Mof_Ni	Ni	0.35644	0.56277	0.45065	1.074
Mof_Ni	Ni	0.37341	0.63643	0.49126	1.084
Mof_Ni	Ni	0.28486	0.6518	0.49657	1.052
Mof_Ni	Ni	0.10607	0.92907	0.40388	1.114
Mof_Ni	Ni	0.18482	0.92506	0.43639	1.11
Mof_Ni	Ni	0.22414	0.96408	0.37121	1.107
Mof_Ni	Ni	0.13055	0.96151	0.34202	1.111
Mof_Ni	Ni	0.01268	0.86041	0.15987	1.051
Mof_Ni	Ni	0.04648	0.87334	0.09798	1.079
Mof_Ni	Ni	0.00443	0.79528	0.07446	1.078
Mof_Ni	Ni	0.96728	0.77783	0.13553	1.051
Mof_Cl	Cl	0.98408	0.70888	0.38824	-0.724
Mof_S 	S 	0.88849	0.60665	0.39881	-0.054
Mof_S 	S 	0.9671	0.67052	0.49001	-0.05
Mof_S 	S 	0.93414	0.81634	0.4476	-0.079
Mof_S 	S 	0.8595	0.75267	0.35486	-0.102
Mof_S 	S 	0.11277	0.40439	0.31954	-0.095
Mof_S 	S 	0.97004	0.44634	0.31755	-0.085
Mof_S 	S 	0.96131	0.44412	0.20022	-0.198
Mof_S 	S 	0.10748	0.4062	0.20136	-0.146
Mof_S 	S 	0.23948	0.51523	0.48008	-0.202
Mof_S 	S 	0.38565	0.50013	0.46512	-0.151
Mof_S 	S 	0.4102	0.62554	0.53568	-0.115
Mof_S 	S 	0.26374	0.64707	0.54596	-0.128
Mof_S 	S 	0.05798	0.96539	0.42753	-0.124
Mof_S 	S 	0.19454	0.96665	0.4781	-0.146
Mof_S 	S 	0.24627	0.02832	0.37772	-0.142
Mof_S 	S 	0.10706	0.02585	0.32824	-0.13
Mof_S 	S 	0.97263	0.91344	0.17631	-0.115
Mof_S 	S 	0.03111	0.9353	0.07218	-0.117
Mof_S 	S 	0.96292	0.80302	0.03199	-0.061
Mof_S 	S 	0.90032	0.78226	0.13499	-0.08
Mof_O 	O 	0.94205	0.66043	0.42937	-0.538
Mof_O 	O 	0.96304	0.7349	0.44793	-0.544
Mof_O 	O 	0.91882	0.76136	0.39964	-0.496
Mof_O 	O 	0.90387	0.68693	0.37848	-0.515
Mof_O 	O 	0.04584	0.44393	0.29873	-0.522
Mof_O 	O 	0.99014	0.46737	0.25788	-0.513
Mof_O 	O 	0.04218	0.45753	0.21267	-0.456
Mof_O 	O 	0.10341	0.43982	0.2599	-0.494
Mof_O 	O 	0.31332	0.54143	0.46956	-0.53
Mof_O 	O 	0.37554	0.57994	0.48886	-0.542
Mof_O 	O 	0.33095	0.63117	0.51633	-0.532
Mof_O 	O 	0.26077	0.59888	0.49239	-0.544
Mof_O 	O 	0.13907	0.95615	0.43243	-0.49
Mof_O 	O 	0.21197	0.96767	0.41415	-0.469
Mof_O 	O 	0.17805	0.99064	0.35329	-0.475
Mof_O 	O 	0.10912	0.97759	0.37944	-0.479
Mof_O 	O 	0.00793	0.89106	0.12357	-0.54
Mof_O 	O 	0.00779	0.8526	0.07173	-0.545
Mof_O 	O 	0.95865	0.80125	0.09599	-0.556
Mof_O 	O 	0.96464	0.8316	0.15371	-0.54
Mof_O 	O 	0.98304	0.61211	0.39372	-0.42
Mof_O 	O 	0.01835	0.63917	0.4297	-0.428
Mof_O 	O 	0.08899	0.49371	0.33667	-0.425
Mof_O 	O 	0.02952	0.51276	0.33273	-0.415
Mof_O 	O 	0.03702	0.7146	0.44694	-0.431
Mof_O 	O 	0.02189	0.77443	0.42991	-0.419
Mof_O 	O 	0.10222	0.88123	0.42803	-0.18
Mof_O 	O 	0.15471	0.88111	0.45729	0.173
Mof_C 	C 	0.1256	0.86426	0.4432	0.162
Mof_O 	O 	0.10448	0.88087	0.42821	-0.16
Mof_O 	O 	0.16162	0.87646	0.44672	-0.56
Mof_C 	C 	0.13061	0.86311	0.44025	0.073
Mof_O 	O 	0.98036	0.8065	0.38438	-0.435
Mof_O 	O 	0.95193	0.77952	0.34528	-0.417
Mof_O 	O 	0.07097	0.90391	0.37531	-0.445
Mof_O 	O 	0.08326	0.9297	0.33291	-0.426
Mof_O 	O 	0.94864	0.64404	0.34461	-0.419
Mof_O 	O 	0.93686	0.70422	0.32666	-0.415
Mof_O 	O 	0.98696	0.54023	0.28676	-0.426
Mof_O 	O 	0.00223	0.54765	0.24042	-0.426
Mof_O 	O 	0.27715	0.54858	0.41577	-0.468
Mof_O 	O 	0.3378	0.54648	0.41129	-0.452
Mof_O 	O 	0.38727	0.49513	0.31913	-0.353
Mof_O 	O 	0.34775	0.48336	0.28307	-0.366
Mof_O 	O 	0.36997	0.69354	0.49088	-0.454
Mof_O 	O 	0.30974	0.70488	0.49463	-0.461
Mof_O 	O 	0.44587	0.79059	0.44185	-0.452
Mof_O 	O 	0.41769	0.84505	0.42468	-0.457
Mof_O 	O 	0.97519	0.72433	0.11738	-0.453
Mof_O 	O 	0.00357	0.73764	0.07649	-0.455
Mof_O 	O 	0.08812	0.64085	0.03764	-0.467
Mof_O 	O 	0.10163	0.59035	0.06675	-0.468
Mof_O 	O 	0.06257	0.88539	0.16668	-0.458
Mof_O 	O 	0.08737	0.89325	0.12396	-0.447
Mof_O 	O 	0.21989	0.94193	0.12451	-0.36
Mof_O 	O 	0.24685	0.95625	0.16625	-0.373
Mof_N 	N 	0.21746	0.58813	0.43804	-0.248
Mof_N 	N 	0.23783	0.68048	0.48015	-0.26
Mof_N 	N 	0.01847	0.83683	0.20139	-0.263
Mof_N 	N 	0.97259	0.74729	0.17461	-0.255
Mof_N 	N 	0.14876	0.49117	0.29968	-0.241
Mof_N 	N 	0.22999	0.89273	0.44465	-0.258
Mof_N 	N 	0.00187	0.5273	0.18533	-0.276
Mof_C 	C 	0.92454	0.63747	0.44654	0.348
Mof_C 	C 	0.89734	0.61117	0.43659	-0.313
Mof_C 	C 	0.87931	0.58763	0.45551	0.531
Mof_H 	H 	0.8614	0.5705	0.4484	-0.206
Mof_C 	C 	0.88714	0.58885	0.48442	-0.965
Mof_C 	C 	0.91348	0.61411	0.49453	0.508
Mof_H 	H 	0.9189	0.6153	0.5142	-0.191
Mof_C 	C 	0.93273	0.6384	0.47615	-0.304
Mof_C 	C 	0.86683	0.56349	0.50517	2.059
Mof_C 	C 	0.8656	0.52104	0.49571	-2.56
Mof_H 	H 	0.8899	0.5106	0.496	0.762
Mof_H 	H 	0.8511	0.5062	0.5085	0.762
Mof_H 	H 	0.8549	0.5194	0.4766	0.775
Mof_C 	C 	0.8273	0.5742	0.50331	-2.611
Mof_H 	H 	0.8184	0.5728	0.4837	0.797
Mof_H 	H 	0.8138	0.5562	0.5147	0.778
Mof_H 	H 	0.8243	0.6004	0.5104	0.772
Mof_C 	C 	0.88084	0.5656	0.53584	-2.707
Mof_H 	H 	0.9063	0.5587	0.537	0.811
Mof_H 	H 	0.8779	0.5917	0.543	0.813
Mof_H 	H 	0.8674	0.5476	0.5472	0.802
Mof_C 	C 	0.94487	0.74273	0.47115	0.308
Mof_C 	C 	0.94255	0.71519	0.49304	-0.248
Mof_C 	C 	0.92319	0.72367	0.51686	0.338
Mof_H 	H 	0.9218	0.7049	0.5313	-0.142
Mof_C 	C 	0.9055	0.75954	0.52009	-0.689
Mof_C 	C 	0.90851	0.78652	0.49834	0.356
Mof_H 	H 	0.8973	0.8108	0.5	-0.134
Mof_C 	C 	0.92748	0.77874	0.47434	-0.244
Mof_C 	C 	0.88295	0.76821	0.54611	1.556
Mof_C 	C 	0.90986	0.78508	0.56768	-2.069
Mof_H 	H 	0.9299	0.7672	0.5707	0.576
Mof_H 	H 	0.9188	0.8096	0.5607	0.619
Mof_H 	H 	0.8982	0.7892	0.5855	0.599
Mof_C 	C 	0.86821	0.73127	0.5597	-1.977
Mof_H 	H 	0.8507	0.7192	0.5466	0.574
Mof_H 	H 	0.8879	0.7134	0.5639	0.573
Mof_H 	H 	0.8567	0.738	0.5772	0.564
Mof_C 	C 	0.8503	0.79463	0.5401	-2.133
Mof_H 	H 	0.834	0.7824	0.5262	0.626
Mof_H 	H 	0.8379	0.7989	0.5575	0.631
Mof_H 	H 	0.8584	0.8193	0.5328	0.643
Mof_C 	C 	0.89247	0.78677	0.4024	0.182
Mof_C 	C 	0.89434	0.81455	0.42514	-0.089
Mof_C 	C 	0.86632	0.84164	0.4271	0.023
Mof_H 	H 	0.8678	0.8602	0.4417	0.005
Mof_C 	C 	0.83566	0.8422	0.4078	-0.144
Mof_C 	C 	0.83392	0.81388	0.38618	0.022
Mof_H 	H 	0.814	0.8138	0.3732	0.011
Mof_C 	C 	0.86061	0.78629	0.38348	-0.083
Mof_C 	C 	0.80627	0.87424	0.40926	0.406
Mof_C 	C 	0.81523	0.90506	0.43213	-0.193
Mof_H 	H 	0.8378	0.9178	0.428	0.051
Mof_H 	H 	0.796	0.9241	0.4322	0.044
Mof_H 	H 	0.8176	0.8927	0.4506	0.097
Mof_C 	C 	0.77043	0.8541	0.41591	-0.303
Mof_H 	H 	0.7647	0.8347	0.4015	0.078
Mof_H 	H 	0.7728	0.8417	0.4344	0.046
Mof_H 	H 	0.7512	0.8732	0.416	0.09
Mof_C 	C 	0.80093	0.8961	0.3804	-0.349
Mof_H 	H 	0.7952	0.8775	0.3654	0.105
Mof_H 	H 	0.7813	0.9146	0.3816	0.11
Mof_H 	H 	0.823	0.9098	0.3763	0.088
Mof_C 	C 	0.7978	0.8729	0.44111	-0.459
Mof_H 	H 	0.7871	0.848	0.4455	0.131
Mof_H 	H 	0.82	0.8762	0.4525	0.091
Mof_H 	H 	0.7811	0.8936	0.4453	0.148
Mof_C 	C 	0.8236	0.91327	0.4009	-0.343
Mof_H 	H 	0.8284	0.913	0.3809	0.09
Mof_H 	H 	0.8071	0.9343	0.4048	0.113
Mof_H 	H 	0.846	0.917	0.412	0.1
Mof_C 	C 	0.7715	0.8671	0.39033	-0.17
Mof_H 	H 	0.7774	0.8681	0.3705	0.039
Mof_H 	H 	0.7616	0.8418	0.3946	0.033
Mof_H 	H 	0.7538	0.887	0.3941	0.037
Mof_C 	C 	0.86844	0.68006	0.37961	0.197
Mof_C 	C 	0.84299	0.70866	0.37009	-0.082
Mof_C 	C 	0.80601	0.70034	0.37111	0.019
Mof_H 	H 	0.7892	0.7192	0.3649	0.016
Mof_C 	C 	0.79306	0.66353	0.38137	-0.13
Mof_C 	C 	0.81928	0.6373	0.38998	0.04
Mof_H 	H 	0.8115	0.613	0.3965	0.007
Mof_C 	C 	0.85554	0.64367	0.38981	-0.1
Mof_C 	C 	0.75194	0.65521	0.38194	0.351
Mof_C 	C 	0.72896	0.68969	0.37153	-0.437
Mof_H 	H 	0.7361	0.7127	0.3822	0.097
Mof_H 	H 	0.7325	0.694	0.3515	0.179
Mof_H 	H 	0.7037	0.6842	0.3743	0.135
Mof_C 	C 	0.743	0.6484	0.41342	0.222
Mof_H 	H 	0.747	0.6721	0.4241	-0.139
Mof_H 	H 	0.7179	0.6406	0.4144	-0.068
Mof_H 	H 	0.7584	0.628	0.4214	-0.223
Mof_C 	C 	0.7446	0.61614	0.36761	-0.667
Mof_H 	H 	0.7607	0.5967	0.376	0.085
Mof_H 	H 	0.7197	0.6085	0.3703	0.209
Mof_H 	H 	0.7486	0.6183	0.3475	0.404
Mof_C 	C 	0.7326	0.6883	0.39703	-0.445
Mof_H 	H 	0.707	0.6827	0.3972	0.115
Mof_H 	H 	0.7424	0.6906	0.4164	0.18
Mof_H 	H 	0.7364	0.7125	0.387	0.111
Mof_C 	C 	0.7435	0.61476	0.39476	-0.475
Mof_H 	H 	0.7562	0.5948	0.3846	0.206
Mof_H 	H 	0.7513	0.6143	0.4147	0.28
Mof_H 	H 	0.7177	0.6099	0.393	0.116
Mof_C 	C 	0.7385	0.6547	0.35017	0.294
Mof_H 	H 	0.7505	0.634	0.3403	-0.3
Mof_H 	H 	0.7126	0.6506	0.349	-0.084
Mof_H 	H 	0.7441	0.6794	0.3414	-0.129
Mof_C 	C 	0.03919	0.41879	0.31868	0.297
Mof_C 	C 	0.06798	0.3952	0.33075	-0.234
Mof_C 	C 	0.06091	0.36993	0.3526	0.39
Mof_H 	H 	0.0806	0.3567	0.3613	-0.099
Mof_C 	C 	0.02632	0.36245	0.3628	-0.7
Mof_C 	C 	0.99889	0.38791	0.35139	0.384
Mof_H 	H 	0.9759	0.3871	0.3591	-0.099
Mof_C 	C 	0.00453	0.41335	0.3297	-0.236
Mof_C 	C 	0.02169	0.33354	0.3883	1.188
Mof_C 	C 	0.0439	0.3504	0.41425	0.307
Mof_H 	H 	0.0334	0.3748	0.4199	-0.716
Mof_H 	H 	0.0434	0.3322	0.43	-0.103
Mof_H 	H 	0.0687	0.3545	0.4091	-0.218
Mof_C 	C 	0.98109	0.3281	0.3952	-3.198
Mof_H 	H 	0.9717	0.3523	0.4025	1.336
Mof_H 	H 	0.9674	0.3208	0.3781	1.359
Mof_H 	H 	0.979	0.3079	0.4094	0.914
Mof_C 	C 	0.0352	0.29423	0.37683	-1.842
Mof_H 	H 	0.0198	0.2862	0.3608	0.673
Mof_H 	H 	0.0598	0.2971	0.3708	-0.418
Mof_H 	H 	0.0346	0.2748	0.3917	0.382
Mof_C 	C 	0.01376	0.33206	0.3849	0.923
Mof_C 	C 	0.04402	0.3059	0.3982	-2.604
Mof_H 	H 	0.0627	0.3221	0.4071	0.751
Mof_H 	H 	0.034	0.2891	0.4123	0.687
Mof_H 	H 	0.0543	0.2903	0.3834	1.864
Mof_C 	C 	0.9983	0.3592	0.40791	-1.543
Mof_H 	H 	0.9794	0.3754	0.3993	0.016
Mof_H 	H 	0.9884	0.3436	0.4228	0.451
Mof_H 	H 	0.0174	0.3756	0.4159	1.001
Mof_C 	C 	0.9841	0.3056	0.3708	0.195
Mof_H 	H 	0.965	0.3215	0.3624	-0.652
Mof_H 	H 	0.9946	0.2899	0.3562	-0.204
Mof_H 	H 	0.9743	0.2887	0.3851	-0.093
Mof_C 	C 	0.9657	0.44001	0.25867	0.16
Mof_C 	C 	0.95301	0.42456	0.28468	-0.058
Mof_C 	C 	0.92635	0.39664	0.28563	-0.042
Mof_H 	H 	0.9188	0.3881	0.3034	0.036
Mof_C 	C 	0.91022	0.38072	0.26083	-0.021
Mof_C 	C 	0.92278	0.39423	0.23522	-0.052
Mof_H 	H 	0.9135	0.3832	0.2182	0.017
Mof_C 	C 	0.94888	0.42375	0.23377	-0.057
Mof_C 	C 	0.8804	0.34864	0.26151	0.077
Mof_C 	C 	0.8939	0.31487	0.24327	-1.376
Mof_H 	H 	0.9149	0.3031	0.2527	0.464
Mof_H 	H 	0.8749	0.2956	0.2408	0.394
Mof_H 	H 	0.9003	0.3246	0.2248	0.421
Mof_C 	C 	0.84697	0.3704	0.24929	-0.397
Mof_H 	H 	0.8406	0.3909	0.2622	-0.115
Mof_H 	H 	0.8523	0.3814	0.231	0.247
Mof_H 	H 	0.8269	0.3524	0.247	0.13
Mof_C 	C 	0.8701	0.3345	0.29164	0.244
Mof_H 	H 	0.8903	0.3205	0.3005	-0.163
Mof_H 	H 	0.8644	0.3568	0.3032	-0.058
Mof_H 	H 	0.8493	0.3176	0.2899	-0.083
Mof_C 	C 	0.87962	0.35068	0.26616	0.053
Mof_C 	C 	0.8638	0.3362	0.23742	0.862
Mof_H 	H 	0.8824	0.323	0.2273	-0.104
Mof_H 	H 	0.844	0.3184	0.2406	-0.301
Mof_H 	H 	0.8548	0.3581	0.2263	-0.347
Mof_C 	C 	0.84996	0.372	0.28256	-0.668
Mof_H 	H 	0.8601	0.381	0.3007	0.218
Mof_H 	H 	0.841	0.3939	0.2715	0.386
Mof_H 	H 	0.8302	0.3542	0.2858	0.208
Mof_C 	C 	0.8945	0.31499	0.28358	-0.142
Mof_H 	H 	0.9046	0.3237	0.3018	0.166
Mof_H 	H 	0.8749	0.2969	0.2866	0.059
Mof_H 	H 	0.9131	0.3022	0.2732	-0.026
Mof_C 	C 	0.0346	0.42458	0.1991	0.126
Mof_C 	C 	0.99761	0.41372	0.19088	-0.021
Mof_C 	C 	0.99085	0.38082	0.17498	-0.086
Mof_H 	H 	0.9667	0.3761	0.1691	0.02
Mof_C 	C 	0.01723	0.35286	0.1664	-0.011
Mof_C 	C 	0.05224	0.36385	0.17585	-0.056
Mof_H 	H 	0.0714	0.3474	0.1714	0.037
Mof_C 	C 	0.06097	0.39802	0.1917	-0.043
Mof_C 	C 	0.00537	0.3198	0.1452	-0.056
Mof_C 	C 	0.97902	0.2954	0.16238	2.217
Mof_H 	H 	0.9574	0.3104	0.1654	1.343
Mof_H 	H 	0.9726	0.272	0.1519	-0.552
Mof_H 	H 	0.9905	0.2885	0.1806	-1.029
Mof_C 	C 	0.03949	0.2956	0.1406	-0.138
Mof_H 	H 	0.0563	0.3106	0.1298	0.243
Mof_H 	H 	0.0508	0.2887	0.1588	0.148
Mof_H 	H 	0.0329	0.2721	0.1302	0.018
Mof_C 	C 	0.9883	0.3377	0.11762	-0.229
Mof_H 	H 	0.967	0.3525	0.1221	-0.021
Mof_H 	H 	0.0057	0.3546	0.1091	0.084
Mof_H 	H 	0.9815	0.3171	0.1044	0.057
Mof_C 	C 	0.00912	0.31353	0.15095	0.003
Mof_C 	C 	0.96944	0.3046	0.1418	-1.095
Mof_H 	H 	0.9606	0.3242	0.1285	0.471
Mof_H 	H 	0.968	0.2793	0.1328	0.496
Mof_H 	H 	0.9548	0.3047	0.1584	-1.792
Mof_C 	C 	0.0244	0.2831	0.17219	-1.544
Mof_H 	H 	0.0492	0.2894	0.1775	0.407
Mof_H 	H 	0.0101	0.283	0.189	0.861
Mof_H 	H 	0.0234	0.2576	0.1634	0.461
Mof_C 	C 	0.0315	0.3165	0.12398	0.028
Mof_H 	H 	0.0209	0.336	0.1113	0.02
Mof_H 	H 	0.0561	0.3238	0.1294	-0.212
Mof_H 	H 	0.0315	0.2916	0.1144	-0.015
Mof_C 	C 	0.10975	0.40251	0.25997	0.174
Mof_C 	C 	0.1122	0.38138	0.23473	-0.06
Mof_C 	C 	0.12022	0.3419	0.23413	-0.039
Mof_H 	H 	0.123	0.3301	0.2164	0.028
Mof_C 	C 	0.12442	0.31861	0.25885	-0.028
Mof_C 	C 	0.12113	0.34221	0.28537	-0.034
Mof_H 	H 	0.1234	0.3294	0.303	0.03
Mof_C 	C 	0.11494	0.38182	0.28531	-0.07
Mof_C 	C 	0.13294	0.27356	0.25986	0.039
Mof_C 	C 	0.1303	0.2527	0.23044	-0.097
Mof_H 	H 	0.1058	0.255	0.2224	-0.225
Mof_H 	H 	0.1469	0.2647	0.2177	0.034
Mof_H 	H 	0.1364	0.2255	0.2329	0.022
Mof_C 	C 	0.10646	0.2538	0.28037	0.363
Mof_H 	H 	0.0819	0.2559	0.2725	-0.125
Mof_H 	H 	0.1128	0.2267	0.2827	-0.053
Mof_H 	H 	0.1082	0.2667	0.2987	0.226
Mof_C 	C 	0.17195	0.27	0.2728	-0.102
Mof_H 	H 	0.1736	0.283	0.291	0.013
Mof_H 	H 	0.1781	0.2428	0.2752	0.032
Mof_H 	H 	0.1886	0.282	0.2601	0.061
Mof_C 	C 	0.1341	0.27421	0.25609	-0.013
Mof_C 	C 	0.10539	0.2531	0.23638	0.044
Mof_H 	H 	0.082	0.2545	0.2448	-0.01
Mof_H 	H 	0.1041	0.2656	0.2179	0.207
Mof_H 	H 	0.1123	0.2261	0.2342	0.026
Mof_C 	C 	0.1371	0.2548	0.28584	-0.199
Mof_H 	H 	0.1138	0.256	0.2946	-0.344
Mof_H 	H 	0.1442	0.2278	0.2838	0.065
Mof_H 	H 	0.155	0.2683	0.2977	0.081
Mof_C 	C 	0.17142	0.2719	0.24257	-0.262
Mof_H 	H 	0.17	0.2839	0.2239	0.085
Mof_H 	H 	0.1893	0.2853	0.2546	0.046
Mof_H 	H 	0.1784	0.2449	0.2407	0.088
Mof_C 	C 	0.31259	0.50446	0.47579	0.164
Mof_C 	C 	0.27933	0.48583	0.48182	-0.047
Mof_C 	C 	0.27821	0.44523	0.48785	-0.06
Mof_H 	H 	0.2558	0.4339	0.4915	0.01
Mof_C 	C 	0.30852	0.4219	0.48854	-0.014
Mof_C 	C 	0.34188	0.44117	0.48218	-0.134
Mof_H 	H 	0.3585	0.437	0.4986	0.06
Mof_H 	H 	0.3519	0.427	0.4663	0.064
Mof_C 	C 	0.34391	0.48027	0.47548	-0.029
Mof_C 	C 	0.30866	0.37932	0.49837	0.069
Mof_C 	C 	0.26973	0.3665	0.50445	0.215
Mof_H 	H 	0.2613	0.3807	0.5206	-0.26
Mof_H 	H 	0.254	0.3717	0.4879	-0.121
Mof_H 	H 	0.2695	0.3389	0.5086	-0.084
Mof_C 	C 	0.33157	0.3742	0.5266	-0.721
Mof_H 	H 	0.3206	0.3888	0.5416	0.46
Mof_H 	H 	0.3325	0.3469	0.5317	0.194
Mof_H 	H 	0.3559	0.3837	0.5241	0.202
Mof_C 	C 	0.3232	0.3575	0.47284	-0.094
Mof_H 	H 	0.3243	0.3299	0.477	0.022
Mof_H 	H 	0.3073	0.3618	0.4563	0.013
Mof_H 	H 	0.3472	0.3669	0.4691	0.022
Mof_C 	C 	0.30551	0.3782	0.49513	0.085
Mof_C 	C 	0.2892	0.3755	0.52504	0.082
Mof_H 	H 	0.3069	0.3844	0.5394	-0.284
Mof_H 	H 	0.2678	0.3917	0.5255	0.182
Mof_H 	H 	0.2827	0.3488	0.5289	-0.02
Mof_C 	C 	0.278	0.3644	0.47188	-0.642
Mof_H 	H 	0.274	0.3367	0.474	0.18
Mof_H 	H 	0.2554	0.3781	0.4737	0.249
Mof_H 	H 	0.2874	0.3695	0.4533	0.197
Mof_C 	C 	0.34164	0.3558	0.4945	-0.059
Mof_H 	H 	0.3581	0.3655	0.5095	0.033
Mof_H 	H 	0.3373	0.3284	0.4975	-0.017
Mof_H 	H 	0.3523	0.3596	0.4762	0.019
Mof_C 	C 	0.39881	0.5584	0.50471	0.194
Mof_C 	C 	0.40527	0.5192	0.49745	-0.084
Mof_C 	C 	0.42874	0.49634	0.5151	0.002
Mof_H 	H 	0.433	0.4703	0.5102	0.014
Mof_C 	C 	0.44599	0.51207	0.54007	-0.119
Mof_C 	C 	0.44011	0.55009	0.54606	0.02
Mof_H 	H 	0.4521	0.5611	0.5621	0.007
Mof_C 	C 	0.41601	0.57417	0.52861	-0.089
Mof_C 	C 	0.472	0.48858	0.56092	0.309
Mof_C 	C 	0.48	0.5105	0.58909	0.146
Mof_H 	H 	0.4916	0.535	0.5852	-0.138
Mof_H 	H 	0.4576	0.5152	0.5984	0.364
Mof_H 	H 	0.496	0.4949	0.6014	-0.03
Mof_C 	C 	0.50764	0.4803	0.54585	0.04
Mof_H 	H 	0.5197	0.5047	0.5421	0.413
Mof_H 	H 	0.5233	0.4643	0.558	-0.05
Mof_H 	H 	0.5022	0.4669	0.5281	0.117
Mof_C 	C 	0.4536	0.44944	0.5666	-0.796
Mof_H 	H 	0.4487	0.4361	0.5487	0.242
Mof_H 	H 	0.4694	0.4336	0.5788	0.253
Mof_H 	H 	0.4311	0.4539	0.5758	0.132
Mof_C 	C 	0.47837	0.48904	0.55397	0.08
Mof_C 	C 	0.51231	0.5155	0.5578	-1.416
Mof_H 	H 	0.5215	0.5215	0.5393	0.129
Mof_H 	H 	0.5058	0.5394	0.5672	0.515
Mof_H 	H 	0.5308	0.5021	0.5692	0.424
Mof_C 	C 	0.4887	0.45121	0.53835	-0.566
Mof_H 	H 	0.4972	0.4576	0.5197	0.072
Mof_H 	H 	0.5077	0.4379	0.5493	0.191
Mof_H 	H 	0.4677	0.4345	0.5363	0.151
Mof_C 	C 	0.4647	0.4802	0.58365	0.003
Mof_H 	H 	0.4585	0.5043	0.5929	-0.438
Mof_H 	H 	0.4436	0.4637	0.5819	0.177
Mof_H 	H 	0.4835	0.4671	0.5949	0.006
Mof_C 	C 	0.33672	0.63293	0.54411	0.189
Mof_C 	C 	0.37103	0.62968	0.55722	-0.08
Mof_C 	C 	0.37579	0.6308	0.58691	-0.007
Mof_H 	H 	0.3993	0.6286	0.5951	0.014
Mof_C 	C 	0.34661	0.6351	0.60504	-0.078
Mof_C 	C 	0.31203	0.64154	0.59181	-0.011
Mof_H 	H 	0.2921	0.6465	0.603	0.022
Mof_C 	C 	0.30736	0.64055	0.56225	-0.067
Mof_C 	C 	0.3502	0.63517	0.6384	0.098
Mof_C 	C 	0.38884	0.6258	0.6498	0.091
Mof_H 	H 	0.3952	0.5996	0.6443	-0.237
Mof_H 	H 	0.4057	0.644	0.6419	-0.027
Mof_H 	H 	0.39	0.6279	0.6704	-0.052
Mof_C 	C 	0.32324	0.60491	0.64967	-1.074
Mof_H 	H 	0.299	0.611	0.6424	0.162
Mof_H 	H 	0.3299	0.5792	0.6434	0.346
Mof_H 	H 	0.324	0.6056	0.6703	0.304
Mof_C 	C 	0.3415	0.67711	0.6477	-0.44
Mof_H 	H 	0.3173	0.6839	0.6408	0.193
Mof_H 	H 	0.343	0.6788	0.6683	0.142
Mof_H 	H 	0.3587	0.6949	0.6398	-0.015
Mof_C 	C 	0.35381	0.63929	0.63795	0.156
Mof_C 	C 	0.31839	0.6416	0.65426	0.354
Mof_H 	H 	0.304	0.6185	0.6504	0.148
Mof_H 	H 	0.3242	0.6433	0.6745	-0.139
Mof_H 	H 	0.3048	0.6644	0.6481	-0.168
Mof_C 	C 	0.3771	0.67581	0.6439	-0.376
Mof_H 	H 	0.3633	0.6988	0.6383	0.234
Mof_H 	H 	0.3838	0.6772	0.664	0.126
Mof_H 	H 	0.3987	0.6745	0.633	0.146
Mof_C 	C 	0.3741	0.60142	0.6463	-0.274
Mof_H 	H 	0.3586	0.5793	0.6423	0.061
Mof_H 	H 	0.3958	0.5993	0.6355	0.307
Mof_H 	H 	0.3808	0.602	0.6665	0.125
Mof_C 	C 	0.25042	0.5799	0.51567	0.188
Mof_C 	C 	0.24934	0.59786	0.54215	-0.093
Mof_C 	C 	0.2378	0.577	0.56626	0.043
Mof_H 	H 	0.2374	0.5898	0.5839	0.007
Mof_C 	C 	0.22714	0.5387	0.56463	-0.172
Mof_C 	C 	0.22872	0.52099	0.53871	0.036
Mof_H 	H 	0.2219	0.4948	0.5372	-0.025
Mof_C 	C 	0.2402	0.54051	0.51391	-0.091
Mof_C 	C 	0.21387	0.51732	0.5908	0.42
Mof_C 	C 	0.17258	0.5248	0.5893	-0.49
Mof_H 	H 	0.1621	0.5141	0.5718	0.119
Mof_H 	H 	0.1617	0.5124	0.6053	0.154
Mof_H 	H 	0.1681	0.5525	0.5899	0.075
Mof_C 	C 	0.2195	0.47319	0.5889	0.09
Mof_H 	H 	0.212	0.4643	0.57	0.194
Mof_H 	H 	0.2449	0.4672	0.5925	-0.069
Mof_H 	H 	0.2052	0.4603	0.6028	-0.009
Mof_C 	C 	0.2244	0.536	0.61933	-0.224
Mof_H 	H 	0.215	0.5206	0.6346	0.046
Mof_H 	H 	0.2506	0.5372	0.6216	0.063
Mof_H 	H 	0.2145	0.562	0.62	0.157
Mof_C 	C 	0.1921	0.48026	0.585	-0.407
Mof_H 	H 	0.1851	0.4691	0.6028	0.134
Mof_H 	H 	0.1706	0.4864	0.5733	0.115
Mof_H 	H 	0.2067	0.4618	0.575	-0.14
Mof_C 	C 	0.24848	0.5089	0.60895	-0.71
Mof_H 	H 	0.2617	0.5329	0.6123	0.2
Mof_H 	H 	0.2421	0.4978	0.627	0.224
Mof_H 	H 	0.2635	0.4907	0.599	0.233
Mof_C 	C 	0.1909	0.5443	0.60902	-0.105
Mof_H 	H 	0.2041	0.5682	0.6131	-0.078
Mof_H 	H 	0.1683	0.5504	0.5987	0.103
Mof_H 	H 	0.1858	0.5315	0.6267	0.027
Mof_C 	C 	0.12574	0.97309	0.45516	0.171
Mof_C 	C 	0.08833	0.98091	0.45649	-0.085
Mof_C 	C 	0.07482	0.99642	0.48152	0.028
Mof_H 	H 	0.05	0.0016	0.4821	0.003
Mof_C 	C 	0.0969	0.0045	0.5056	-0.152
Mof_C 	C 	0.13419	0.99657	0.50376	0.026
Mof_H 	H 	0.1499	0.0016	0.5195	0.008
Mof_C 	C 	0.1481	0.9817	0.47933	-0.083
Mof_C 	C 	0.08124	0.02131	0.53343	0.395
Mof_C 	C 	0.04012	0.0155	0.5348	-0.26
Mof_H 	H 	0.0343	0.9884	0.5316	-0.013
Mof_H 	H 	0.0324	0.0233	0.5534	0.063
Mof_H 	H 	0.0278	0.0312	0.5203	0.072
Mof_C 	C 	0.0948	0.06328	0.53816	0.167
Mof_H 	H 	0.1209	0.064	0.5369	-0.081
Mof_H 	H 	0.0838	0.0801	0.5237	0.088
Mof_H 	H 	0.0883	0.0721	0.5568	-0.042
Mof_C 	C 	0.096	0.9958	0.55845	-0.482
Mof_H 	H 	0.1222	0.9973	0.5596	0.201
Mof_H 	H 	0.0865	0.0051	0.5761	0.163
Mof_H 	H 	0.0887	0.9691	0.5553	0.147
Mof_C 	C 	0.10895	0.0265	0.55879	-0.273
Mof_H 	H 	0.128	0.044	0.5534	0.09
Mof_H 	H 	0.0969	0.0373	0.5749	0.076
Mof_H 	H 	0.1193	0.0015	0.564	0.013
Mof_C 	C 	0.0648	0.06268	0.5273	-0.864
Mof_H 	H 	0.0472	0.0611	0.5115	0.276
Mof_H 	H 	0.0531	0.072	0.544	0.278
Mof_H 	H 	0.0839	0.0805	0.5225	0.115
Mof_C 	C 	0.05035	0.9934	0.5415	-0.148
Mof_H 	H 	0.0333	0.9905	0.5254	0.139
Mof_H 	H 	0.0604	0.9682	0.5466	0.03
Mof_H 	H 	0.038	0.004	0.5575	0.067
Mof_C 	C 	0.22236	0.99916	0.42869	0.152
Mof_C 	C 	0.21659	0.00513	0.45832	-0.066
Mof_C 	C 	0.2285	0.03819	0.47289	0.01
Mof_H 	H 	0.2239	0.0405	0.4923	0.018
Mof_C 	C 	0.24637	0.06701	0.46032	-0.109
Mof_C 	C 	0.25121	0.06281	0.43062	0.001
Mof_H 	H 	0.2628	0.0829	0.421	0.021
Mof_C 	C 	0.23971	0.03087	0.41536	-0.062
Mof_C 	C 	0.26285	0.10323	0.47526	0.283
Mof_C 	C 	0.2473	0.14093	0.46199	-0.224
Mof_H 	H 	0.2516	0.1413	0.4418	0.078
Mof_H 	H 	0.2215	0.1421	0.4647	-0.035
Mof_H 	H 	0.259	0.1631	0.4711	0.046
Mof_C 	C 	0.30421	0.1057	0.47375	-0.577
Mof_H 	H 	0.3107	0.1068	0.454	-0.075
Mof_H 	H 	0.3129	0.1288	0.4836	0.16
Mof_H 	H 	0.3151	0.0829	0.4827	0.286
Mof_C 	C 	0.2566	0.1015	0.50721	-0.354
Mof_H 	H 	0.2309	0.0999	0.5102	0.121
Mof_H 	H 	0.2685	0.0788	0.5154	-0.131
Mof_H 	H 	0.2663	0.1247	0.5163	0.092
Mof_C 	C 	0.2877	0.1289	0.45699	-0.042
Mof_H 	H 	0.3075	0.1133	0.4504	0.232
Mof_H 	H 	0.2737	0.139	0.4407	-0.019
Mof_H 	H 	0.2972	0.1503	0.4684	-0.022
Mof_C 	C 	0.23119	0.1274	0.4859	-0.255
Mof_H 	H 	0.2405	0.1505	0.4954	0.057
Mof_H 	H 	0.2154	0.1349	0.4698	0.143
Mof_H 	H 	0.2177	0.1121	0.4991	0.043
Mof_C 	C 	0.2861	0.0874	0.50085	0.17
Mof_H 	H 	0.3059	0.0722	0.4939	-0.179
Mof_H 	H 	0.2956	0.1089	0.5121	-0.057
Mof_H 	H 	0.2712	0.0711	0.5125	0.173
Mof_C 	C 	0.17693	0.02837	0.35266	0.164
Mof_C 	C 	0.20673	0.05215	0.3627	-0.067
Mof_C 	C 	0.20597	0.09262	0.36173	0.007
Mof_H 	H 	0.2264	0.1066	0.3683	0.018
Mof_C 	C 	0.1748	0.11334	0.35093	-0.121
Mof_C 	C 	0.14553	0.0914	0.34106	0.012
Mof_H 	H 	0.1246	0.1042	0.334	0.005
Mof_C 	C 	0.14609	0.05027	0.34131	-0.069
Mof_C 	C 	0.1736	0.15827	0.35047	0.345
Mof_C 	C 	0.1732	0.1653	0.31792	-0.831
Mof_H 	H 	0.1531	0.1512	0.3089	0.266
Mof_H 	H 	0.1704	0.1928	0.3141	0.257
Mof_H 	H 	0.1957	0.1562	0.3105	0.132
Mof_C 	C 	0.13643	0.1706	0.3613	-0.09
Mof_H 	H 	0.1173	0.1585	0.3497	0.242
Mof_H 	H 	0.1346	0.1625	0.3809	0
Mof_H 	H 	0.1341	0.1986	0.3601	0.044
Mof_C 	C 	0.2033	0.1779	0.3694	-0.256
Mof_H 	H 	0.2269	0.1705	0.3629	0.074
Mof_H 	H 	0.2007	0.2059	0.3681	0.059
Mof_H 	H 	0.2012	0.1697	0.3889	0.017
Mof_C 	C 	0.13692	0.177	0.3413	-0.189
Mof_H 	H 	0.1302	0.1691	0.322	0.048
Mof_H 	H 	0.1185	0.1685	0.354	-0.171
Mof_H 	H 	0.1391	0.205	0.3421	0.039
Mof_C 	C 	0.20177	0.1734	0.32955	0.115
Mof_H 	H 	0.1959	0.1634	0.3107	0.092
Mof_H 	H 	0.2012	0.2015	0.3291	-0.048
Mof_H 	H 	0.2257	0.1646	0.3358	-0.052
Mof_C 	C 	0.181	0.1729	0.38103	-0.382
Mof_H 	H 	0.1804	0.201	0.3812	0.102
Mof_H 	H 	0.1626	0.1628	0.3932	0.093
Mof_H 	H 	0.2046	0.164	0.3879	0.166
Mof_C 	C 	0.08261	0.003	0.37927	0.17
Mof_C 	C 	0.07759	0.03084	0.35737	-0.062
Mof_C 	C 	0.04912	0.05708	0.35687	-0.013
Mof_H 	H 	0.0464	0.0743	0.3415	0.027
Mof_C 	C 	0.02432	0.05888	0.37839	-0.079
Mof_C 	C 	0.02913	0.03124	0.40029	-0.01
Mof_H 	H 	0.013	0.0312	0.4151	0.023
Mof_C 	C 	0.05706	0.00375	0.40076	-0.068
Mof_C 	C 	0.99439	0.08981	0.37796	0.132
Mof_C 	C 	0.96827	0.0862	0.40199	-0.167
Mof_H 	H 	0.9812	0.0906	0.42	0.049
Mof_H 	H 	0.9492	0.1054	0.3994	0.041
Mof_H 	H 	0.9578	0.0604	0.4018	0.057
Mof_C 	C 	0.0107	0.13064	0.3769	-0.346
Mof_H 	H 	0.0253	0.1353	0.3942	0.088
Mof_H 	H 	0.0258	0.1327	0.3607	0.097
Mof_H 	H 	0.9915	0.1497	0.3753	0.105
Mof_C 	C 	0.9716	0.0826	0.35081	-0.17
Mof_H 	H 	0.9867	0.0844	0.3346	0.079
Mof_H 	H 	0.961	0.0568	0.3515	0.025
Mof_H 	H 	0.9525	0.1018	0.3491	0.065
Mof_C 	C 	0.99247	0.08824	0.37573	0.124
Mof_C 	C 	0.9977	0.1139	0.4026	-0.19
Mof_H 	H 	0.0195	0.1293	0.4012	0.04
Mof_H 	H 	0.9771	0.1311	0.4041	0.06
Mof_H 	H 	0.9998	0.0975	0.4193	0.048
Mof_C 	C 	0.95797	0.0635	0.3773	-0.383
Mof_H 	H 	0.9551	0.0476	0.3604	0.129
Mof_H 	H 	0.9599	0.0469	0.3939	0.1
Mof_H 	H 	0.9372	0.0804	0.3787	0.125
Mof_C 	C 	0.9896	0.114	0.34876	-0.173
Mof_H 	H 	0.0112	0.1297	0.3477	0.048
Mof_H 	H 	0.987	0.0977	0.332	0.018
Mof_H 	H 	0.9687	0.1309	0.3497	0.045
Mof_C 	C 	0.99817	0.92786	0.12367	0.198
Mof_C 	C 	0.97954	0.94478	0.14569	-0.08
Mof_C 	C 	0.96792	0.9821	0.14651	0.005
Mof_H 	H 	0.9554	0.9908	0.1623	0.025
Mof_C 	C 	0.97431	0.00809	0.12401	-0.083
Mof_C 	C 	0.99408	0.99164	0.10126	0.002
Mof_H 	H 	0.9998	0.0077	0.0859	0.016
Mof_C 	C 	0.00499	0.95323	0.10097	-0.081
Mof_C 	C 	0.9601	0.051	0.12333	0.134
Mof_C 	C 	0.9725	0.0761	0.09847	-0.083
Mof_H 	H 	0.9625	0.0656	0.0807	0.008
Mof_H 	H 	0.9642	0.1025	0.1008	0.009
Mof_H 	H 	0.9987	0.0758	0.0983	0.158
Mof_C 	C 	0.978	0.0711	0.14949	-0.297
Mof_H 	H 	0.9717	0.0573	0.1666	0.112
Mof_H 	H 	0.004	0.071	0.1479	0.023
Mof_H 	H 	0.9695	0.0977	0.1505	0.1
Mof_C 	C 	0.91842	0.0518	0.1249	-0.205
Mof_H 	H 	0.9075	0.0391	0.1083	-0.002
Mof_H 	H 	0.9114	0.0384	0.1419	0.128
Mof_H 	H 	0.9102	0.0785	0.1255	0.072
Mof_C 	C 	0.95993	0.05066	0.1218	0.123
Mof_C 	C 	0.99277	0.0776	0.12	-0.318
Mof_H 	H 	0.0064	0.0706	0.1037	-0.043
Mof_H 	H 	0.9846	0.1043	0.1181	0.102
Mof_H 	H 	0.008	0.075	0.1372	0.148
Mof_C 	C 	0.9351	0.056	0.09492	-0.508
Mof_H 	H 	0.9143	0.039	0.096	0.194
Mof_H 	H 	0.927	0.0828	0.0937	0.167
Mof_H 	H 	0.9484	0.0496	0.0782	0.165
Mof_C 	C 	0.939	0.0628	0.14796	-0.049
Mof_H 	H 	0.9181	0.0462	0.1496	-0.052
Mof_H 	H 	0.9546	0.0603	0.1649	0.001
Mof_H 	H 	0.9312	0.0896	0.1458	0.014
Mof_C 	C 	0.99131	0.87333	0.05117	0.228
Mof_C 	C 	0.99733	0.91272	0.04859	-0.115
Mof_C 	C 	0.97876	0.9344	0.02734	0.078
Mof_H 	H 	0.9835	0.9611	0.026	-0.009
Mof_C 	C 	0.95367	0.91784	0.0083	-0.205
Mof_C 	C 	0.94879	0.87783	0.01049	0.078
Mof_H 	H 	0.9326	0.8655	0.9975	-0.011
Mof_C 	C 	0.96711	0.85506	0.03127	-0.121
Mof_C 	C 	0.93359	0.94329	0.98595	0.51
Mof_C 	C 	0.95519	0.9404	0.95903	-0.555
Mof_H 	H 	0.9794	0.9502	0.9629	-0.029
Mof_H 	H 	0.9564	0.9135	0.9531	0.179
Mof_H 	H 	0.9434	0.9557	0.944	0.167
Mof_C 	C 	0.89492	0.928	0.98079	-0.281
Mof_H 	H 	0.8819	0.9302	0.9982	0.131
Mof_H 	H 	0.8827	0.9432	0.9659	0.071
Mof_H 	H 	0.8957	0.901	0.975	0.043
Mof_C 	C 	0.9332	0.98752	0.99432	-0.419
Mof_H 	H 	0.9198	0.9909	0.0114	0.12
Mof_H 	H 	0.9579	0.9965	0.9978	0.124
Mof_H 	H 	0.9219	0.0024	0.9789	0.14
Mof_C 	C 	0.9552	0.9744	0.9712	-0.297
Mof_H 	H 	0.9676	0.9907	0.9853	0.07
Mof_H 	H 	0.9728	0.9622	0.9594	0.288
Mof_H 	H 	0.939	0.9903	0.9593	0.078
Mof_C 	C 	0.914	0.9176	0.96383	-0.245
Mof_H 	H 	0.9003	0.8978	0.9734	0.088
Mof_H 	H 	0.8977	0.9333	0.952	0.08
Mof_H 	H 	0.9316	0.9052	0.9521	0.056
Mof_C 	C 	0.89941	0.9576	0.9999	-0.34
Mof_H 	H 	0.8875	0.9358	0.0087	0.038
Mof_H 	H 	0.9059	0.9768	0.0142	0.086
Mof_H 	H 	0.8831	0.9691	0.9856	0.118
Mof_C 	C 	0.92672	0.79488	0.08162	0.338
Mof_C 	C 	0.92325	0.79611	0.05204	-0.308
Mof_C 	C 	0.88964	0.78923	0.03815	0.517
Mof_H 	H 	0.8879	0.7896	0.0182	-0.192
Mof_C 	C 	0.85878	0.7819	0.05308	-0.957
Mof_C 	C 	0.86228	0.78033	0.08262	0.506
Mof_H 	H 	0.8419	0.775	0.0931	-0.2
Mof_C 	C 	0.89578	0.78659	0.09696	-0.295
Mof_C 	C 	0.8222	0.77371	0.03836	2.062
Mof_C 	C 	0.82317	0.7743	0.00614	-2.604
Mof_H 	H 	0.8403	0.7551	-0	0.781
Mof_H 	H 	0.7993	0.7684	0.998	0.756
Mof_H 	H 	0.8305	0.7999	0.9999	0.776
Mof_C 	C 	0.79483	0.80452	0.04518	-2.586
Mof_H 	H 	0.8035	0.8297	0.0392	0.775
Mof_H 	H 	0.772	0.7988	0.0352	0.756
Mof_H 	H 	0.7915	0.8049	0.0655	0.777
Mof_C 	C 	0.80645	0.73573	0.04842	-2.651
Mof_H 	H 	0.8229	0.7147	0.0446	0.796
Mof_H 	H 	0.8029	0.7372	0.0687	0.797
Mof_H 	H 	0.7834	0.7311	0.0384	0.779
Mof_C 	C 	0.93245	0.85014	0.15532	0.197
Mof_C 	C 	0.89962	0.83203	0.14729	-0.104
Mof_C 	C 	0.86676	0.85113	0.14999	0.057
Mof_H 	H 	0.8451	0.8382	0.1449	-0.002
Mof_C 	C 	0.86562	0.88928	0.16012	-0.172
Mof_C 	C 	0.89783	0.90637	0.1682	0.058
Mof_H 	H 	0.8975	0.9315	0.1759	0.005
Mof_C 	C 	0.93092	0.88827	0.16547	-0.097
Mof_C 	C 	0.82938	0.91074	0.16394	0.452
Mof_C 	C 	0.79644	0.8895	0.15034	-0.197
Mof_H 	H 	0.7747	0.9044	0.1535	0.042
Mof_H 	H 	0.7995	0.8867	0.1301	0.117
Mof_H 	H 	0.7943	0.864	0.1589	0.04
Mof_C 	C 	0.833	0.95297	0.15225	-0.434
Mof_H 	H 	0.854	0.9653	0.1613	0.042
Mof_H 	H 	0.8357	0.9521	0.1319	0.133
Mof_H 	H 	0.8115	0.9677	0.1563	0.138
Mof_C 	C 	0.8251	0.9135	0.19658	-0.43
Mof_H 	H 	0.8458	0.9268	0.2052	0.141
Mof_H 	H 	0.8033	0.9277	0.2004	0.142
Mof_H 	H 	0.8236	0.8876	0.2045	0.091
Mof_C 	C 	0.8045	0.8838	0.1801	-0.356
Mof_H 	H 	0.8024	0.859	0.1704	0.108
Mof_H 	H 	0.8145	0.8798	0.1993	0.114
Mof_H 	H 	0.7808	0.8955	0.181	0.117
Mof_C 	C 	0.8329	0.94993	0.1791	-0.152
Mof_H 	H 	0.8487	0.9667	0.1687	0.125
Mof_H 	H 	0.8093	0.9618	0.1799	0.028
Mof_H 	H 	0.843	0.9461	0.1982	0.026
Mof_C 	C 	0.8126	0.9141	0.13327	-0.41
Mof_H 	H 	0.811	0.8885	0.1247	0.053
Mof_H 	H 	0.7887	0.9253	0.1339	0.13
Mof_H 	H 	0.8278	0.9306	0.122	0.11
Mof_C 	C 	0.0676	0.54151	0.36928	-0.091
Mof_C 	C 	0.10196	0.54668	0.38159	-0.006
Mof_H 	H 	0.1214	0.5317	0.3755	0.034
Mof_C 	C 	0.10756	0.57435	0.40316	-0.046
Mof_C 	C 	0.07796	0.59509	0.41334	-0.004
Mof_H 	H 	0.0813	0.6126	0.4285	0.041
Mof_C 	C 	0.04362	0.58946	0.40073	-0.094
Mof_C 	C 	0.03876	0.5634	0.37858	0.032
Mof_H 	H 	0.0157	0.5604	0.3697	0.05
Mof_C 	C 	0.06126	0.51305	0.34405	0.353
Mof_C 	C 	0.01248	0.61583	0.40953	0.362
Mof_C 	C 	0.18865	0.58632	0.45482	0.063
Mof_H 	H 	0.1932	0.587	0.4746	-0.016
Mof_C 	C 	0.15262	0.58348	0.44488	-0.163
Mof_H 	H 	0.1338	0.5827	0.4577	0.059
Mof_C 	C 	0.14501	0.5818	0.41532	0.084
Mof_C 	C 	0.17435	0.58746	0.3978	-0.153
Mof_H 	H 	0.1703	0.5891	0.378	0.085
Mof_C 	C 	0.2102	0.59075	0.40971	0.073
Mof_H 	H 	0.2293	0.5948	0.3976	-0.009
Mof_C 	C 	0.08182	0.76477	0.44663	-0.083
Mof_C 	C 	0.11091	0.74028	0.45471	-0.01
Mof_H 	H 	0.1066	0.7137	0.4575	0.041
Mof_C 	C 	0.1468	0.75484	0.4588	-0.045
Mof_C 	C 	0.15124	0.79471	0.45596	-0.027
Mof_H 	H 	0.1744	0.805	0.4598	0.051
Mof_C 	C 	0.12352	0.82071	0.44769	-0.047
Mof_C 	C 	0.08865	0.80453	0.44295	-0.007
Mof_H 	H 	0.0694	0.8209	0.4371	0.057
Mof_C 	C 	0.04292	0.74897	0.44096	0.381
Mof_C 	C 	0.23942	0.70923	0.46085	0.102
Mof_H 	H 	0.2614	0.713	0.452	-0.031
Mof_C 	C 	0.21124	0.73336	0.45327	-0.176
Mof_H 	H 	0.2147	0.753	0.4398	0.089
Mof_C 	C 	0.17704	0.72941	0.4653	0.108
Mof_C 	C 	0.17491	0.69727	0.48249	-0.174
Mof_H 	H 	0.1525	0.6905	0.4896	0.079
Mof_C 	C 	0.20566	0.6739	0.48982	0.098
Mof_H 	H 	0.2028	0.6528	0.5021	-0.023
Mof_C 	C 	0.99691	0.8278	0.33925	-0.117
Mof_C 	C 	0.02019	0.85496	0.35139	0.063
Mof_H 	H 	0.0211	0.8584	0.3712	0.038
Mof_C 	C 	0.04262	0.87756	0.33462	-0.139
Mof_C 	C 	0.04258	0.87084	0.30552	0.036
Mof_H 	H 	0.0577	0.8857	0.2943	0.028
Mof_C 	C 	0.02076	0.84284	0.29289	-0.071
Mof_C 	C 	0.99636	0.82185	0.30956	0.026
Mof_H 	H 	0.98	0.8042	0.3009	0.039
Mof_C 	C 	0.97452	0.80266	0.35811	0.385
Mof_C 	C 	0.06766	0.90592	0.34897	0.407
Mof_C 	C 	0.98846	0.83332	0.21583	0.099
Mof_H 	H 	0.9663	0.831	0.2055	-0.017
Mof_C 	C 	0.98806	0.83297	0.24556	-0.188
Mof_H 	H 	0.9663	0.8296	0.2548	0.096
Mof_C 	C 	0.01995	0.83761	0.26104	0.135
Mof_C 	C 	0.05171	0.83867	0.24671	-0.193
Mof_H 	H 	0.0743	0.8394	0.2565	0.096
Mof_C 	C 	0.04895	0.83857	0.21674	0.111
Mof_H 	H 	0.0705	0.8398	0.207	-0.02
Mof_C 	C 	0.95731	0.6551	0.29568	-0.091
Mof_C 	C 	0.9669	0.61669	0.29204	0.033
Mof_H 	H 	0.966	0.5994	0.3074	0.053
Mof_C 	C 	0.9779	0.60327	0.266	-0.093
Mof_C 	C 	0.97966	0.62818	0.24317	0.006
Mof_H 	H 	0.9882	0.6191	0.2259	0.039
Mof_C 	C 	0.96884	0.66677	0.24558	-0.05
Mof_C 	C 	0.95791	0.67994	0.27216	0.012
Mof_H 	H 	0.9509	0.706	0.2742	0.044
Mof_C 	C 	0.94623	0.66881	0.32508	0.385
Mof_C 	C 	0.98861	0.56026	0.26481	0.335
Mof_C 	C 	0.99738	0.71811	0.17834	0.094
Mof_H 	H 	0.0152	0.7153	0.1649	-0.021
Mof_C 	C 	0.99748	0.69261	0.20099	-0.172
Mof_H 	H 	0.0157	0.6737	0.2027	0.097
Mof_C 	C 	0.97115	0.69431	0.22131	0.111
Mof_C 	C 	0.94598	0.72443	0.21753	-0.168
Mof_H 	H 	0.928	0.7278	0.2308	0.086
Mof_C 	C 	0.94736	0.74997	0.1939	0.092
Mof_H 	H 	0.9298	0.7695	0.1918	-0.02
Mof_C 	C 	0.30001	0.5286	0.3716	-0.121
Mof_C 	C 	0.3286	0.51982	0.35464	0.038
Mof_H 	H 	0.3522	0.5233	0.3623	0.04
Mof_C 	C 	0.32425	0.50628	0.32716	-0.084
Mof_C 	C 	0.28911	0.50113	0.31558	-0.004
Mof_H 	H 	0.2858	0.4904	0.2973	0.047
Mof_C 	C 	0.25818	0.51181	0.33094	-0.055
Mof_C 	C 	0.26562	0.5247	0.35921	0.013
Mof_H 	H 	0.2459	0.531	0.3702	0.032
Mof_C 	C 	0.30533	0.54228	0.40181	0.374
Mof_C 	C 	0.3548	0.49443	0.30871	0.289
Mof_C 	C 	0.1762	0.47129	0.29022	0.105
Mof_H 	H 	0.1714	0.4517	0.2767	-0.013
Mof_C 	C 	0.21201	0.478	0.29939	-0.182
Mof_H 	H 	0.2305	0.4631	0.2918	0.093
Mof_C 	C 	0.22052	0.50544	0.31897	0.114
Mof_C 	C 	0.19247	0.53166	0.32518	-0.162
Mof_H 	H 	0.1975	0.554	0.3361	0.086
Mof_C 	C 	0.15663	0.52396	0.31476	0.088
Mof_H 	H 	0.1381	0.5417	0.3183	0.002
Mof_C 	C 	0.34678	0.75565	0.47682	-0.109
Mof_C 	C 	0.38085	0.76627	0.46587	0.038
Mof_H 	H 	0.4006	0.7491	0.4675	0.043
Mof_C 	C 	0.3846	0.80194	0.45285	-0.114
Mof_C 	C 	0.35517	0.82639	0.44977	0.019
Mof_H 	H 	0.3576	0.8502	0.4403	0.036
Mof_C 	C 	0.3217	0.81632	0.46048	-0.072
Mof_C 	C 	0.31721	0.78164	0.47365	0.015
Mof_H 	H 	0.2946	0.7749	0.4806	0.032
Mof_C 	C 	0.34158	0.71442	0.48877	0.363
Mof_C 	C 	0.41945	0.81299	0.43883	0.373
Mof_C 	C 	0.23365	0.87224	0.46848	0.113
Mof_H 	H 	0.2156	0.8746	0.4818	-0.024
Mof_C 	C 	0.26322	0.84692	0.47509	-0.19
Mof_H 	H 	0.2644	0.8333	0.4924	0.091
Mof_C 	C 	0.29038	0.84242	0.45576	0.134
Mof_C 	C 	0.28707	0.86554	0.43282	-0.197
Mof_H 	H 	0.3056	0.8654	0.4198	0.104
Mof_C 	C 	0.25634	0.89047	0.42743	0.12
Mof_H 	H 	0.2553	0.9056	0.4108	-0.023
Mof_C 	C 	0.01062	0.67496	0.0966	-0.144
Mof_C 	C 	0.03617	0.66577	0.07719	0.071
Mof_H 	H 	0.0416	0.6839	0.0631	0.031
Mof_C 	C 	0.05407	0.63042	0.07792	-0.152
Mof_C 	C 	0.04586	0.60461	0.09921	0.032
Mof_H 	H 	0.0582	0.5808	0.1003	0.024
Mof_C 	C 	0.01941	0.61279	0.11963	-0.093
Mof_C 	C 	0.00161	0.64841	0.11735	0.035
Mof_H 	H 	0.9834	0.6545	0.1299	0.024
Mof_C 	C 	0.995	0.71504	0.0966	0.363
Mof_C 	C 	0.08337	0.62004	0.05846	0.402
Mof_C 	C 	0.97534	0.54944	0.17385	0.135
Mof_H 	H 	0.9521	0.5461	0.1808	-0.05
Mof_C 	C 	0.97901	0.57635	0.15299	-0.223
Mof_H 	H 	0.9588	0.5903	0.1458	0.094
Mof_C 	C 	0.01243	0.583	0.14252	0.142
Mof_C 	C 	0.04024	0.55913	0.1541	-0.213
Mof_H 	H 	0.0637	0.5614	0.1475	0.11
Mof_C 	C 	0.03335	0.53223	0.17517	0.144
Mof_H 	H 	0.0526	0.5169	0.1824	-0.03
Mof_C 	C 	0.12296	0.91036	0.16611	-0.095
Mof_C 	C 	0.15337	0.91944	0.15163	0.016
Mof_H 	H 	0.1534	0.916	0.1318	0.047
Mof_C 	C 	0.18404	0.93369	0.16615	-0.066
Mof_C 	C 	0.18431	0.93901	0.1956	-0.027
Mof_H 	H 	0.205	0.9487	0.2054	0.05
Mof_C 	C 	0.15291	0.92969	0.21062	-0.027
Mof_C 	C 	0.12273	0.91498	0.19525	-0.012
Mof_H 	H 	0.102	0.9081	0.2049	0.044
Mof_C 	C 	0.08839	0.89529	0.15078	0.361
Mof_C 	C 	0.21894	0.94492	0.1515	0.28
Mof_N 	N 	0.14171	0.95649	0.29944	-0.174
Mof_C 	C 	0.1742	0.9475	0.2882	0.036
Mof_H 	H 	0.1948	0.9463	0.3005	0.018
Mof_C 	C 	0.178	0.94021	0.25993	-0.087
Mof_H 	H 	0.201	0.9347	0.2534	0.06
Mof_C 	C 	0.1497	0.9407	0.24146	0.034
Mof_C 	C 	0.116	0.9517	0.25101	-0.1
Mof_H 	H 	0.096	0.9544	0.2382	0.063
Mof_C 	C 	0.1127	0.9584	0.27965	0.032
Mof_H 	H 	0.0897	0.9646	0.2862	0.015
Mof_N 	N 	0.14991	0.9413	0.30197	-0.067
Mof_C 	C 	0.16681	0.9682	0.28724	0.05
Mof_H 	H 	0.177	0.9898	0.2967	0
Mof_C 	C 	0.16981	0.9648	0.25733	-0.055
Mof_H 	H 	0.1821	0.9837	0.2471	0.045
Mof_C 	C 	0.1534	0.9313	0.24272	0.04
Mof_C 	C 	0.1379	0.9039	0.26068	-0.074
Mof_H 	H 	0.1279	0.8812	0.2525	0.053
Mof_C 	C 	0.1366	0.9087	0.28961	0.007
Mof_H 	H 	0.1264	0.8892	0.3008	0.033
Mof_O 	O 	0.06626	0.51424	0.279	-0.492
Mof_O 	O 	0.08757	0.52219	0.23592	-0.412
Mof_C 	C 	0.07454	0.53513	0.25841	0.149
Mof_H 	H 	0.0708	0.562	0.2598	0.002
Mof_O 	O 	0.0721	0.648	0.33929	-0.471
Mof_H 	H 	0.0675	0.6658	0.3511	0.281
Mof_O 	O 	0.04746	0.69147	0.30992	-0.252
Mof_N 	N 	0.10099	0.71817	0.16094	-0.139
Mof_C 	C 	0.07777	0.57935	0.26294	-0.064
Mof_C 	C 	0.07355	0.59695	0.2897	0.018
Mof_H 	H 	0.071	0.5832	0.3067	0.051
Mof_C 	C 	0.07363	0.63754	0.28769	-0.085
Mof_C 	C 	0.07959	0.6586	0.26289	-0.002
Mof_H 	H 	0.0804	0.6858	0.2641	0.042
Mof_C 	C 	0.08442	0.64113	0.23629	-0.033
Mof_C 	C 	0.0839	0.60079	0.23854	-0.011
Mof_H 	H 	0.0881	0.5867	0.2219	0.055
Mof_C 	C 	0.07656	0.53553	0.25992	0.152
Mof_C 	C 	0.06625	0.66031	0.31442	0.37
Mof_C 	C 	0.0972	0.7314	0.18815	0.06
Mof_H 	H 	0.0972	0.7584	0.191	0.002
Mof_C 	C 	0.0933	0.70702	0.2126	-0.14
Mof_H 	H 	0.092	0.7188	0.2305	0.08
Mof_C 	C 	0.0915	0.66623	0.21092	0.085
Mof_C 	C 	0.0932	0.65104	0.18369	-0.143
Mof_H 	H 	0.0924	0.6242	0.1803	0.084
Mof_C 	C 	0.0961	0.67853	0.16091	0.063
Mof_H 	H 	0.0943	0.6674	0.1427	0.015
Mof_O 	O 	0.20729	0.90912	0.36839	-0.053
Mof_O 	O 	0.16144	0.90513	0.39769	-0.344
Mof_O 	O 	0.15117	0.90932	0.35071	-0.299
Mof_C 	C 	0.174	0.9042	0.37306	-0.533
Mof_O 	O 	0.2001	0.9111	0.36699	-0.2
Mof_O 	O 	0.1468	0.9139	0.37225	-0.095
Mof_C 	C 	0.1724	0.88531	0.37112	0.892
Mof_N 	N 	0.16939	0.84534	0.36798	-0.199
Mof_C 	C 	0.13796	0.8179	0.3618	-0.268
Mof_H 	H 	0.1468	0.7914	0.3612	0.112
Mof_H 	H 	0.1207	0.8203	0.3766	0.123
Mof_H 	H 	0.1263	0.8245	0.3436	0.116
Mof_C 	C 	0.20075	0.8173	0.3731	-0.274
Mof_H 	H 	0.1924	0.791	0.3696	0.11
Mof_H 	H 	0.2198	0.8234	0.3602	0.11
Mof_H 	H 	0.21	0.8197	0.3925	0.113
Mof_Ni	Ni	0.44314	0.34982	0.88727	1.12
Mof_Ni	Ni	0.48903	0.31345	0.93973	1.118
Mof_Ni	Ni	0.4693	0.22999	0.91592	1.119
Mof_Ni	Ni	0.42608	0.26625	0.86243	1.115
Mof_Ni	Ni	0.596	0.53227	0.79784	1.099
Mof_Ni	Ni	0.51352	0.50966	0.7942	1.114
Mof_Ni	Ni	0.49601	0.50447	0.72152	1.078
Mof_Ni	Ni	0.5972	0.53137	0.72147	1.107
Mof_Ni	Ni	0.76825	0.42962	0.95507	1.053
Mof_Ni	Ni	0.85644	0.43723	0.95065	1.074
Mof_Ni	Ni	0.87341	0.36357	0.99126	1.084
Mof_Ni	Ni	0.78486	0.3482	0.99657	1.052
Mof_Ni	Ni	0.60607	0.07093	0.90388	1.114
Mof_Ni	Ni	0.68482	0.07494	0.93639	1.11
Mof_Ni	Ni	0.72414	0.03592	0.87121	1.107
Mof_Ni	Ni	0.63055	0.03849	0.84202	1.111
Mof_Ni	Ni	0.51268	0.13959	0.65987	1.051
Mof_Ni	Ni	0.54648	0.12666	0.59798	1.079
Mof_Ni	Ni	0.50443	0.20472	0.57446	1.078
Mof_Ni	Ni	0.46728	0.22217	0.63553	1.051
Mof_Cl	Cl	0.48408	0.29112	0.88824	-0.724
Mof_S 	S 	0.38849	0.39335	0.89881	-0.054
Mof_S 	S 	0.4671	0.32948	0.99001	-0.049
Mof_S 	S 	0.43414	0.18366	0.9476	-0.079
Mof_S 	S 	0.3595	0.24733	0.85486	-0.102
Mof_S 	S 	0.61277	0.59561	0.81954	-0.095
Mof_S 	S 	0.47004	0.55366	0.81755	-0.085
Mof_S 	S 	0.46131	0.55588	0.70022	-0.198
Mof_S 	S 	0.60748	0.5938	0.70136	-0.146
Mof_S 	S 	0.73948	0.48477	0.98008	-0.202
Mof_S 	S 	0.88565	0.49987	0.96512	-0.151
Mof_S 	S 	0.9102	0.37446	0.03568	-0.116
Mof_S 	S 	0.76374	0.35293	0.04596	-0.129
Mof_S 	S 	0.55798	0.03461	0.92753	-0.124
Mof_S 	S 	0.69454	0.03335	0.9781	-0.146
Mof_S 	S 	0.74627	0.97168	0.87772	-0.142
Mof_S 	S 	0.60706	0.97415	0.82824	-0.13
Mof_S 	S 	0.47263	0.08656	0.67631	-0.115
Mof_S 	S 	0.53111	0.0647	0.57218	-0.117
Mof_S 	S 	0.46292	0.19698	0.53199	-0.061
Mof_S 	S 	0.40032	0.21774	0.63499	-0.08
Mof_O 	O 	0.44205	0.33957	0.92937	-0.538
Mof_O 	O 	0.46304	0.2651	0.94793	-0.544
Mof_O 	O 	0.41882	0.23864	0.89964	-0.496
Mof_O 	O 	0.40387	0.31307	0.87848	-0.515
Mof_O 	O 	0.54584	0.55607	0.79873	-0.522
Mof_O 	O 	0.49014	0.53263	0.75788	-0.513
Mof_O 	O 	0.54218	0.54247	0.71267	-0.456
Mof_O 	O 	0.60341	0.56018	0.7599	-0.494
Mof_O 	O 	0.81332	0.45857	0.96956	-0.529
Mof_O 	O 	0.87554	0.42006	0.98886	-0.542
Mof_O 	O 	0.83095	0.36883	0.01633	-0.532
Mof_O 	O 	0.76077	0.40112	0.99239	-0.544
Mof_O 	O 	0.63907	0.04385	0.93243	-0.49
Mof_O 	O 	0.71197	0.03233	0.91415	-0.469
Mof_O 	O 	0.67805	0.00936	0.85329	-0.475
Mof_O 	O 	0.60912	0.02241	0.87944	-0.479
Mof_O 	O 	0.50793	0.10894	0.62357	-0.54
Mof_O 	O 	0.50779	0.1474	0.57173	-0.545
Mof_O 	O 	0.45865	0.19875	0.59599	-0.556
Mof_O 	O 	0.46464	0.1684	0.65371	-0.54
Mof_O 	O 	0.48304	0.38789	0.89372	-0.42
Mof_O 	O 	0.51835	0.36083	0.9297	-0.428
Mof_O 	O 	0.58899	0.50629	0.83667	-0.425
Mof_O 	O 	0.52952	0.48724	0.83273	-0.415
Mof_O 	O 	0.53702	0.2854	0.94694	-0.431
Mof_O 	O 	0.52189	0.22557	0.92991	-0.419
Mof_O 	O 	0.60222	0.11877	0.92803	-0.18
Mof_O 	O 	0.65471	0.11889	0.95729	0.173
Mof_C 	C 	0.6256	0.13574	0.9432	0.162
Mof_O 	O 	0.60448	0.11913	0.92821	-0.16
Mof_O 	O 	0.66162	0.12354	0.94672	-0.56
Mof_C 	C 	0.63061	0.13689	0.94025	0.073
Mof_O 	O 	0.48036	0.1935	0.88438	-0.435
Mof_O 	O 	0.45193	0.22048	0.84528	-0.417
Mof_O 	O 	0.57097	0.09609	0.87531	-0.445
Mof_O 	O 	0.58326	0.0703	0.83291	-0.426
Mof_O 	O 	0.44864	0.35596	0.84461	-0.419
Mof_O 	O 	0.43686	0.29578	0.82666	-0.415
Mof_O 	O 	0.48696	0.45977	0.78676	-0.426
Mof_O 	O 	0.50223	0.45235	0.74042	-0.426
Mof_O 	O 	0.77715	0.45142	0.91577	-0.469
Mof_O 	O 	0.8378	0.45352	0.91129	-0.452
Mof_O 	O 	0.88727	0.50487	0.81913	-0.353
Mof_O 	O 	0.84775	0.51664	0.78307	-0.366
Mof_O 	O 	0.86997	0.30646	0.99088	-0.454
Mof_O 	O 	0.80974	0.29512	0.99463	-0.46
Mof_O 	O 	0.94587	0.20941	0.94185	-0.452
Mof_O 	O 	0.91769	0.15495	0.92468	-0.457
Mof_O 	O 	0.47519	0.27567	0.61738	-0.453
Mof_O 	O 	0.50357	0.26236	0.57649	-0.455
Mof_O 	O 	0.58812	0.35915	0.53764	-0.467
Mof_O 	O 	0.60163	0.40965	0.56675	-0.468
Mof_O 	O 	0.56257	0.11461	0.66668	-0.458
Mof_O 	O 	0.58737	0.10675	0.62396	-0.447
Mof_O 	O 	0.71989	0.05807	0.62451	-0.36
Mof_O 	O 	0.74685	0.04375	0.66625	-0.373
Mof_N 	N 	0.71746	0.41187	0.93804	-0.248
Mof_N 	N 	0.73783	0.31952	0.98015	-0.26
Mof_N 	N 	0.51847	0.16317	0.70139	-0.263
Mof_N 	N 	0.47259	0.25271	0.67461	-0.255
Mof_N 	N 	0.64876	0.50883	0.79968	-0.241
Mof_N 	N 	0.72999	0.10727	0.94465	-0.258
Mof_N 	N 	0.50187	0.4727	0.68533	-0.276
Mof_C 	C 	0.42454	0.36253	0.94654	0.348
Mof_C 	C 	0.39734	0.38883	0.93659	-0.313
Mof_C 	C 	0.37931	0.41237	0.95551	0.53
Mof_H 	H 	0.3614	0.4295	0.9484	-0.206
Mof_C 	C 	0.38714	0.41115	0.98442	-0.964
Mof_C 	C 	0.41348	0.38589	0.99453	0.508
Mof_H 	H 	0.4189	0.3847	0.0142	-0.191
Mof_C 	C 	0.43273	0.3616	0.97615	-0.304
Mof_C 	C 	0.36683	0.43651	0.00517	2.056
Mof_C 	C 	0.3656	0.47896	0.99571	-2.554
Mof_H 	H 	0.3899	0.4894	0.996	0.761
Mof_H 	H 	0.3511	0.4938	0.0085	0.76
Mof_H 	H 	0.3549	0.4806	0.9766	0.774
Mof_C 	C 	0.3273	0.4258	0.00331	-2.609
Mof_H 	H 	0.3184	0.4272	0.9837	0.797
Mof_H 	H 	0.3138	0.4438	0.0147	0.777
Mof_H 	H 	0.3243	0.3996	0.0104	0.771
Mof_C 	C 	0.38084	0.4344	0.03584	-2.703
Mof_H 	H 	0.4063	0.4413	0.037	0.81
Mof_H 	H 	0.3779	0.4083	0.043	0.812
Mof_H 	H 	0.3674	0.4524	0.0472	0.801
Mof_C 	C 	0.44487	0.25727	0.97115	0.308
Mof_C 	C 	0.44255	0.28481	0.99304	-0.248
Mof_C 	C 	0.42319	0.27633	0.01686	0.338
Mof_H 	H 	0.4218	0.2951	0.0313	-0.142
Mof_C 	C 	0.4055	0.24046	0.02009	-0.69
Mof_C 	C 	0.40851	0.21348	0.99834	0.359
Mof_H 	H 	0.3973	0.1892	-0	-0.135
Mof_C 	C 	0.42748	0.22126	0.97434	-0.245
Mof_C 	C 	0.38295	0.23179	0.04611	1.557
Mof_C 	C 	0.40986	0.21492	0.06768	-2.07
Mof_H 	H 	0.4299	0.2328	0.0707	0.576
Mof_H 	H 	0.4188	0.1904	0.0607	0.619
Mof_H 	H 	0.3982	0.2108	0.0855	0.599
Mof_C 	C 	0.36821	0.26873	0.0597	-1.978
Mof_H 	H 	0.3507	0.2808	0.0466	0.574
Mof_H 	H 	0.3879	0.2866	0.0639	0.573
Mof_H 	H 	0.3567	0.262	0.0772	0.564
Mof_C 	C 	0.3503	0.20537	0.0401	-2.134
Mof_H 	H 	0.334	0.2176	0.0262	0.626
Mof_H 	H 	0.3379	0.2011	0.0575	0.631
Mof_H 	H 	0.3584	0.1807	0.0328	0.643
Mof_C 	C 	0.39247	0.21323	0.9024	0.182
Mof_C 	C 	0.39434	0.18545	0.92514	-0.089
Mof_C 	C 	0.36632	0.15836	0.9271	0.023
Mof_H 	H 	0.3678	0.1398	0.9417	0.005
Mof_C 	C 	0.33566	0.1578	0.9078	-0.144
Mof_C 	C 	0.33392	0.18612	0.88618	0.022
Mof_H 	H 	0.314	0.1862	0.8732	0.011
Mof_C 	C 	0.36061	0.21371	0.88348	-0.083
Mof_C 	C 	0.30627	0.12576	0.90926	0.406
Mof_C 	C 	0.31523	0.09494	0.93213	-0.193
Mof_H 	H 	0.3378	0.0822	0.928	0.051
Mof_H 	H 	0.296	0.0759	0.9322	0.044
Mof_H 	H 	0.3176	0.1073	0.9506	0.097
Mof_C 	C 	0.27043	0.1459	0.91591	-0.302
Mof_H 	H 	0.2647	0.1653	0.9015	0.078
Mof_H 	H 	0.2728	0.1583	0.9344	0.046
Mof_H 	H 	0.2512	0.1268	0.916	0.09
Mof_C 	C 	0.30093	0.1039	0.8804	-0.349
Mof_H 	H 	0.2952	0.1225	0.8654	0.105
Mof_H 	H 	0.2813	0.0854	0.8816	0.11
Mof_H 	H 	0.323	0.0902	0.8763	0.088
Mof_C 	C 	0.2978	0.1271	0.94111	-0.459
Mof_H 	H 	0.2871	0.152	0.9455	0.132
Mof_H 	H 	0.32	0.1238	0.9525	0.091
Mof_H 	H 	0.2811	0.1064	0.9453	0.148
Mof_C 	C 	0.3236	0.08673	0.9009	-0.343
Mof_H 	H 	0.3284	0.087	0.8809	0.09
Mof_H 	H 	0.3071	0.0657	0.9048	0.113
Mof_H 	H 	0.346	0.083	0.912	0.1
Mof_C 	C 	0.2715	0.1329	0.89033	-0.17
Mof_H 	H 	0.2774	0.1319	0.8705	0.039
Mof_H 	H 	0.2616	0.1582	0.8946	0.033
Mof_H 	H 	0.2538	0.113	0.8941	0.037
Mof_C 	C 	0.36844	0.31994	0.87961	0.197
Mof_C 	C 	0.34299	0.29134	0.87009	-0.082
Mof_C 	C 	0.30601	0.29966	0.87111	0.019
Mof_H 	H 	0.2892	0.2808	0.8649	0.016
Mof_C 	C 	0.29306	0.33647	0.88137	-0.13
Mof_C 	C 	0.31928	0.3627	0.88998	0.04
Mof_H 	H 	0.3115	0.387	0.8965	0.007
Mof_C 	C 	0.35554	0.35633	0.88981	-0.1
Mof_C 	C 	0.25194	0.34479	0.88194	0.351
Mof_C 	C 	0.22896	0.31031	0.87153	-0.437
Mof_H 	H 	0.2361	0.2873	0.8822	0.097
Mof_H 	H 	0.2325	0.306	0.8515	0.179
Mof_H 	H 	0.2037	0.3158	0.8743	0.135
Mof_C 	C 	0.243	0.3516	0.91342	0.222
Mof_H 	H 	0.247	0.3279	0.9241	-0.139
Mof_H 	H 	0.2179	0.3594	0.9144	-0.068
Mof_H 	H 	0.2584	0.372	0.9214	-0.223
Mof_C 	C 	0.2446	0.38386	0.86761	-0.667
Mof_H 	H 	0.2607	0.4033	0.876	0.085
Mof_H 	H 	0.2197	0.3915	0.8703	0.209
Mof_H 	H 	0.2486	0.3817	0.8475	0.404
Mof_C 	C 	0.2326	0.3117	0.89703	-0.445
Mof_H 	H 	0.207	0.3173	0.8972	0.115
Mof_H 	H 	0.2424	0.3094	0.9164	0.18
Mof_H 	H 	0.2364	0.2875	0.887	0.111
Mof_C 	C 	0.2435	0.38524	0.89476	-0.475
Mof_H 	H 	0.2562	0.4052	0.8846	0.206
Mof_H 	H 	0.2513	0.3857	0.9147	0.28
Mof_H 	H 	0.2177	0.3901	0.893	0.116
Mof_C 	C 	0.2385	0.3453	0.85017	0.294
Mof_H 	H 	0.2505	0.366	0.8403	-0.3
Mof_H 	H 	0.2126	0.3494	0.849	-0.084
Mof_H 	H 	0.2441	0.3206	0.8414	-0.129
Mof_C 	C 	0.53919	0.58121	0.81868	0.297
Mof_C 	C 	0.56798	0.6048	0.83075	-0.234
Mof_C 	C 	0.56091	0.63007	0.8526	0.391
Mof_H 	H 	0.5806	0.6433	0.8613	-0.099
Mof_C 	C 	0.52632	0.63755	0.8628	-0.7
Mof_C 	C 	0.49889	0.61209	0.85139	0.384
Mof_H 	H 	0.4759	0.6129	0.8591	-0.099
Mof_C 	C 	0.50453	0.58665	0.8297	-0.236
Mof_C 	C 	0.52169	0.66646	0.8883	1.188
Mof_C 	C 	0.5439	0.6496	0.91425	0.308
Mof_H 	H 	0.5334	0.6252	0.9199	-0.716
Mof_H 	H 	0.5434	0.6678	0.93	-0.103
Mof_H 	H 	0.5687	0.6455	0.9091	-0.218
Mof_C 	C 	0.48109	0.6719	0.8952	-3.199
Mof_H 	H 	0.4717	0.6477	0.9025	1.337
Mof_H 	H 	0.4674	0.6792	0.8781	1.359
Mof_H 	H 	0.479	0.6921	0.9094	0.915
Mof_C 	C 	0.5352	0.70577	0.87683	-1.842
Mof_H 	H 	0.5198	0.7138	0.8608	0.673
Mof_H 	H 	0.5598	0.7029	0.8708	-0.418
Mof_H 	H 	0.5346	0.7252	0.8917	0.382
Mof_C 	C 	0.51376	0.66794	0.8849	0.923
Mof_C 	C 	0.54402	0.6941	0.8982	-2.605
Mof_H 	H 	0.5627	0.6779	0.9071	0.751
Mof_H 	H 	0.534	0.7109	0.9123	0.687
Mof_H 	H 	0.5543	0.7097	0.8834	1.864
Mof_C 	C 	0.4983	0.6408	0.90791	-1.544
Mof_H 	H 	0.4794	0.6246	0.8993	0.016
Mof_H 	H 	0.4884	0.6564	0.9228	0.451
Mof_H 	H 	0.5174	0.6244	0.9159	1.001
Mof_C 	C 	0.4841	0.6944	0.8708	0.195
Mof_H 	H 	0.465	0.6785	0.8624	-0.652
Mof_H 	H 	0.4946	0.7101	0.8562	-0.205
Mof_H 	H 	0.4743	0.7113	0.8851	-0.094
Mof_C 	C 	0.4657	0.55999	0.75867	0.16
Mof_C 	C 	0.45301	0.57544	0.78468	-0.058
Mof_C 	C 	0.42635	0.60336	0.78563	-0.042
Mof_H 	H 	0.4188	0.6119	0.8034	0.036
Mof_C 	C 	0.41022	0.61928	0.76083	-0.021
Mof_C 	C 	0.42278	0.60577	0.73522	-0.052
Mof_H 	H 	0.4135	0.6168	0.7182	0.017
Mof_C 	C 	0.44888	0.57625	0.73377	-0.057
Mof_C 	C 	0.3804	0.65136	0.76151	0.077
Mof_C 	C 	0.3939	0.68513	0.74327	-1.376
Mof_H 	H 	0.4149	0.6969	0.7527	0.464
Mof_H 	H 	0.3749	0.7044	0.7408	0.394
Mof_H 	H 	0.4003	0.6754	0.7248	0.421
Mof_C 	C 	0.34697	0.6296	0.74929	-0.397
Mof_H 	H 	0.3406	0.6091	0.7622	-0.115
Mof_H 	H 	0.3523	0.6186	0.731	0.247
Mof_H 	H 	0.3269	0.6476	0.747	0.13
Mof_C 	C 	0.3701	0.6655	0.79164	0.244
Mof_H 	H 	0.3903	0.6795	0.8005	-0.163
Mof_H 	H 	0.3644	0.6432	0.8032	-0.058
Mof_H 	H 	0.3493	0.6824	0.7899	-0.083
Mof_C 	C 	0.37962	0.64932	0.76616	0.053
Mof_C 	C 	0.3638	0.6638	0.73742	0.863
Mof_H 	H 	0.3824	0.677	0.7273	-0.104
Mof_H 	H 	0.344	0.6816	0.7406	-0.301
Mof_H 	H 	0.3548	0.6419	0.7263	-0.347
Mof_C 	C 	0.34996	0.628	0.78256	-0.668
Mof_H 	H 	0.3601	0.619	0.8007	0.218
Mof_H 	H 	0.341	0.6061	0.7715	0.386
Mof_H 	H 	0.3302	0.6458	0.7858	0.208
Mof_C 	C 	0.3945	0.68501	0.78358	-0.142
Mof_H 	H 	0.4046	0.6763	0.8018	0.166
Mof_H 	H 	0.3749	0.7031	0.7866	0.059
Mof_H 	H 	0.4131	0.6978	0.7732	-0.026
Mof_C 	C 	0.5346	0.57542	0.6991	0.126
Mof_C 	C 	0.49761	0.58628	0.69088	-0.021
Mof_C 	C 	0.49085	0.61918	0.67498	-0.086
Mof_H 	H 	0.4667	0.6239	0.6691	0.02
Mof_C 	C 	0.51723	0.64714	0.6664	-0.01
Mof_C 	C 	0.55224	0.63615	0.67585	-0.056
Mof_H 	H 	0.5714	0.6526	0.6714	0.037
Mof_C 	C 	0.56097	0.60198	0.6917	-0.043
Mof_C 	C 	0.50537	0.6802	0.6452	-0.056
Mof_C 	C 	0.47902	0.7046	0.66238	2.217
Mof_H 	H 	0.4574	0.6896	0.6654	1.343
Mof_H 	H 	0.4726	0.728	0.6519	-0.552
Mof_H 	H 	0.4905	0.7115	0.6806	-1.029
Mof_C 	C 	0.53949	0.7044	0.6406	-0.138
Mof_H 	H 	0.5563	0.6894	0.6298	0.242
Mof_H 	H 	0.5508	0.7113	0.6588	0.148
Mof_H 	H 	0.5329	0.7279	0.6302	0.018
Mof_C 	C 	0.4883	0.6623	0.61762	-0.229
Mof_H 	H 	0.467	0.6475	0.6221	-0.021
Mof_H 	H 	0.5057	0.6454	0.6091	0.085
Mof_H 	H 	0.4815	0.6829	0.6044	0.057
Mof_C 	C 	0.50912	0.68647	0.65095	0.004
Mof_C 	C 	0.46944	0.6954	0.6418	-1.095
Mof_H 	H 	0.4606	0.6758	0.6285	0.471
Mof_H 	H 	0.468	0.7207	0.6328	0.496
Mof_H 	H 	0.4548	0.6953	0.6584	-1.793
Mof_C 	C 	0.5244	0.7169	0.67219	-1.544
Mof_H 	H 	0.5492	0.7106	0.6775	0.407
Mof_H 	H 	0.5101	0.717	0.689	0.861
Mof_H 	H 	0.5234	0.7424	0.6634	0.461
Mof_C 	C 	0.5315	0.6835	0.62398	0.028
Mof_H 	H 	0.5209	0.664	0.6113	0.02
Mof_H 	H 	0.5561	0.6762	0.6294	-0.212
Mof_H 	H 	0.5315	0.7084	0.6144	-0.015
Mof_C 	C 	0.60975	0.59749	0.75997	0.174
Mof_C 	C 	0.6122	0.61862	0.73473	-0.06
Mof_C 	C 	0.62022	0.6581	0.73413	-0.039
Mof_H 	H 	0.623	0.6699	0.7164	0.028
Mof_C 	C 	0.62442	0.68139	0.75885	-0.028
Mof_C 	C 	0.62113	0.65779	0.78537	-0.034
Mof_H 	H 	0.6234	0.6706	0.803	0.03
Mof_C 	C 	0.61494	0.61818	0.78531	-0.07
Mof_C 	C 	0.63294	0.72644	0.75986	0.039
Mof_C 	C 	0.6303	0.7473	0.73044	-0.097
Mof_H 	H 	0.6058	0.745	0.7224	-0.225
Mof_H 	H 	0.6469	0.7353	0.7177	0.034
Mof_H 	H 	0.6364	0.7745	0.7329	0.022
Mof_C 	C 	0.60646	0.7462	0.78037	0.363
Mof_H 	H 	0.5819	0.7441	0.7725	-0.125
Mof_H 	H 	0.6128	0.7733	0.7827	-0.053
Mof_H 	H 	0.6082	0.7333	0.7987	0.226
Mof_C 	C 	0.67195	0.73	0.7728	-0.102
Mof_H 	H 	0.6736	0.717	0.791	0.013
Mof_H 	H 	0.6781	0.7572	0.7752	0.032
Mof_H 	H 	0.6886	0.718	0.7601	0.061
Mof_C 	C 	0.6341	0.72579	0.75609	-0.013
Mof_C 	C 	0.60539	0.7469	0.73638	0.044
Mof_H 	H 	0.582	0.7455	0.7448	-0.01
Mof_H 	H 	0.6041	0.7344	0.7179	0.207
Mof_H 	H 	0.6123	0.7739	0.7342	0.026
Mof_C 	C 	0.6371	0.7452	0.78584	-0.199
Mof_H 	H 	0.6138	0.744	0.7946	-0.344
Mof_H 	H 	0.6442	0.7722	0.7838	0.065
Mof_H 	H 	0.655	0.7317	0.7977	0.081
Mof_C 	C 	0.67142	0.7281	0.74257	-0.262
Mof_H 	H 	0.67	0.7161	0.7239	0.085
Mof_H 	H 	0.6893	0.7147	0.7546	0.046
Mof_H 	H 	0.6784	0.7551	0.7407	0.088
Mof_C 	C 	0.81259	0.49554	0.97579	0.164
Mof_C 	C 	0.77933	0.51417	0.98182	-0.047
Mof_C 	C 	0.77821	0.55477	0.98785	-0.061
Mof_H 	H 	0.7558	0.5661	0.9915	0.01
Mof_C 	C 	0.80852	0.5781	0.98854	-0.014
Mof_C 	C 	0.84188	0.55883	0.98218	-0.134
Mof_H 	H 	0.8585	0.563	0.9986	0.06
Mof_H 	H 	0.8519	0.573	0.9663	0.064
Mof_C 	C 	0.84391	0.51973	0.97548	-0.029
Mof_C 	C 	0.80866	0.62068	0.99837	0.069
Mof_C 	C 	0.76973	0.6335	0.00445	0.218
Mof_H 	H 	0.7613	0.6193	0.0206	-0.263
Mof_H 	H 	0.754	0.6283	0.9879	-0.122
Mof_H 	H 	0.7695	0.6611	0.0086	-0.085
Mof_C 	C 	0.83157	0.6258	0.0266	-0.724
Mof_H 	H 	0.8206	0.6112	0.0416	0.464
Mof_H 	H 	0.8325	0.6531	0.0317	0.195
Mof_H 	H 	0.8559	0.6163	0.0241	0.203
Mof_C 	C 	0.8232	0.6425	0.97284	-0.092
Mof_H 	H 	0.8243	0.6701	0.977	0.022
Mof_H 	H 	0.8073	0.6382	0.9563	0.012
Mof_H 	H 	0.8472	0.6331	0.9691	0.021
Mof_C 	C 	0.80551	0.6218	0.99513	0.085
Mof_C 	C 	0.7892	0.6245	0.02504	0.084
Mof_H 	H 	0.8069	0.6156	0.0394	-0.287
Mof_H 	H 	0.7678	0.6083	0.0255	0.184
Mof_H 	H 	0.7827	0.6512	0.0289	-0.02
Mof_C 	C 	0.778	0.6356	0.97188	-0.645
Mof_H 	H 	0.774	0.6633	0.974	0.181
Mof_H 	H 	0.7554	0.6219	0.9737	0.251
Mof_H 	H 	0.7874	0.6305	0.9533	0.199
Mof_C 	C 	0.84164	0.6442	0.9945	-0.058
Mof_H 	H 	0.8581	0.6345	0.0095	0.033
Mof_H 	H 	0.8373	0.6716	0.9975	-0.017
Mof_H 	H 	0.8523	0.6404	0.9762	0.019
Mof_C 	C 	0.89881	0.4416	0.00471	0.193
Mof_C 	C 	0.90527	0.4808	0.99745	-0.083
Mof_C 	C 	0.92874	0.50366	0.0151	0
Mof_H 	H 	0.933	0.5297	0.0102	0.014
Mof_C 	C 	0.94599	0.48793	0.04007	-0.119
Mof_C 	C 	0.94011	0.44991	0.04606	0.019
Mof_H 	H 	0.9521	0.4389	0.0621	0.007
Mof_C 	C 	0.91601	0.42583	0.02861	-0.088
Mof_C 	C 	0.972	0.51142	0.06092	0.309
Mof_C 	C 	0.98	0.4895	0.08909	0.146
Mof_H 	H 	0.9916	0.465	0.0852	-0.138
Mof_H 	H 	0.9576	0.4848	0.0984	0.363
Mof_H 	H 	0.996	0.5051	0.1014	-0.03
Mof_C 	C 	0.00764	0.5197	0.04585	0.041
Mof_H 	H 	0.0197	0.4953	0.0421	0.412
Mof_H 	H 	0.0233	0.5357	0.058	-0.051
Mof_H 	H 	0.0022	0.5331	0.0281	0.116
Mof_C 	C 	0.9536	0.55056	0.0666	-0.796
Mof_H 	H 	0.9487	0.5639	0.0487	0.242
Mof_H 	H 	0.9694	0.5664	0.0788	0.253
Mof_H 	H 	0.9311	0.5461	0.0758	0.132
Mof_C 	C 	0.97837	0.51096	0.05397	0.08
Mof_C 	C 	0.01231	0.4845	0.0578	-1.416
Mof_H 	H 	0.0215	0.4785	0.0393	0.129
Mof_H 	H 	0.0058	0.4606	0.0672	0.515
Mof_H 	H 	0.0308	0.4979	0.0692	0.423
Mof_C 	C 	0.9887	0.54879	0.03835	-0.566
Mof_H 	H 	0.9972	0.5424	0.0197	0.072
Mof_H 	H 	0.0077	0.5621	0.0493	0.191
Mof_H 	H 	0.9677	0.5655	0.0363	0.151
Mof_C 	C 	0.9647	0.5198	0.08365	0.003
Mof_H 	H 	0.9585	0.4957	0.0929	-0.438
Mof_H 	H 	0.9436	0.5363	0.0819	0.177
Mof_H 	H 	0.9835	0.5329	0.0949	0.006
Mof_C 	C 	0.83672	0.36707	0.04411	0.189
Mof_C 	C 	0.87103	0.37032	0.05722	-0.08
Mof_C 	C 	0.87579	0.3692	0.08691	-0.007
Mof_H 	H 	0.8993	0.3714	0.0951	0.014
Mof_C 	C 	0.84661	0.3649	0.10504	-0.078
Mof_C 	C 	0.81203	0.35846	0.09181	-0.011
Mof_H 	H 	0.7921	0.3535	0.103	0.022
Mof_C 	C 	0.80736	0.35945	0.06225	-0.067
Mof_C 	C 	0.8502	0.36483	0.1384	0.098
Mof_C 	C 	0.88884	0.3742	0.1498	0.091
Mof_H 	H 	0.8952	0.4004	0.1443	-0.237
Mof_H 	H 	0.9057	0.356	0.1419	-0.027
Mof_H 	H 	0.89	0.3721	0.1704	-0.052
Mof_C 	C 	0.82324	0.39509	0.14967	-1.074
Mof_H 	H 	0.799	0.389	0.1424	0.162
Mof_H 	H 	0.8299	0.4208	0.1434	0.346
Mof_H 	H 	0.824	0.3944	0.1703	0.304
Mof_C 	C 	0.8415	0.32289	0.1477	-0.44
Mof_H 	H 	0.8173	0.3161	0.1408	0.193
Mof_H 	H 	0.843	0.3212	0.1683	0.142
Mof_H 	H 	0.8587	0.3051	0.1398	-0.015
Mof_C 	C 	0.85381	0.36071	0.13795	0.156
Mof_C 	C 	0.81839	0.3584	0.15426	0.354
Mof_H 	H 	0.804	0.3815	0.1504	0.148
Mof_H 	H 	0.8242	0.3567	0.1745	-0.139
Mof_H 	H 	0.8048	0.3356	0.1481	-0.168
Mof_C 	C 	0.8771	0.32419	0.1439	-0.376
Mof_H 	H 	0.8633	0.3012	0.1383	0.234
Mof_H 	H 	0.8838	0.3228	0.164	0.126
Mof_H 	H 	0.8987	0.3255	0.133	0.146
Mof_C 	C 	0.8741	0.39858	0.1463	-0.274
Mof_H 	H 	0.8586	0.4207	0.1423	0.061
Mof_H 	H 	0.8958	0.4007	0.1355	0.307
Mof_H 	H 	0.8808	0.398	0.1665	0.125
Mof_C 	C 	0.75042	0.4201	0.01567	0.188
Mof_C 	C 	0.74934	0.40214	0.04215	-0.093
Mof_C 	C 	0.7378	0.423	0.06626	0.042
Mof_H 	H 	0.7374	0.4102	0.0839	0.007
Mof_C 	C 	0.72714	0.4613	0.06463	-0.172
Mof_C 	C 	0.72872	0.47901	0.03871	0.036
Mof_H 	H 	0.7219	0.5052	0.0372	-0.026
Mof_C 	C 	0.7402	0.45949	0.01391	-0.091
Mof_C 	C 	0.71387	0.48268	0.0908	0.42
Mof_C 	C 	0.67258	0.4752	0.0893	-0.49
Mof_H 	H 	0.6621	0.4859	0.0718	0.119
Mof_H 	H 	0.6617	0.4876	0.1053	0.154
Mof_H 	H 	0.6681	0.4475	0.0899	0.075
Mof_C 	C 	0.7195	0.52681	0.0889	0.09
Mof_H 	H 	0.712	0.5357	0.07	0.194
Mof_H 	H 	0.7449	0.5328	0.0925	-0.069
Mof_H 	H 	0.7052	0.5397	0.1028	-0.009
Mof_C 	C 	0.7244	0.464	0.11933	-0.224
Mof_H 	H 	0.715	0.4794	0.1346	0.046
Mof_H 	H 	0.7506	0.4628	0.1216	0.063
Mof_H 	H 	0.7145	0.438	0.12	0.157
Mof_C 	C 	0.6921	0.51974	0.085	-0.407
Mof_H 	H 	0.6851	0.5309	0.1028	0.134
Mof_H 	H 	0.6706	0.5136	0.0733	0.115
Mof_H 	H 	0.7067	0.5382	0.075	-0.14
Mof_C 	C 	0.74848	0.4911	0.10895	-0.71
Mof_H 	H 	0.7617	0.4671	0.1123	0.2
Mof_H 	H 	0.7421	0.5022	0.127	0.224
Mof_H 	H 	0.7635	0.5093	0.099	0.233
Mof_C 	C 	0.6909	0.4557	0.10902	-0.105
Mof_H 	H 	0.7041	0.4318	0.1131	-0.078
Mof_H 	H 	0.6683	0.4496	0.0987	0.102
Mof_H 	H 	0.6858	0.4685	0.1267	0.027
Mof_C 	C 	0.62574	0.02691	0.95516	0.171
Mof_C 	C 	0.58833	0.01909	0.95649	-0.085
Mof_C 	C 	0.57482	0.00358	0.98152	0.028
Mof_H 	H 	0.55	0.9984	0.9821	0.003
Mof_C 	C 	0.5969	0.9955	0.0056	-0.152
Mof_C 	C 	0.63419	0.00343	0.00376	0.026
Mof_H 	H 	0.6499	0.9984	0.0195	0.008
Mof_C 	C 	0.6481	0.0183	0.97933	-0.082
Mof_C 	C 	0.58124	0.97869	0.03343	0.395
Mof_C 	C 	0.54012	0.9845	0.0348	-0.26
Mof_H 	H 	0.5343	0.0116	0.0316	-0.013
Mof_H 	H 	0.5324	0.9767	0.0534	0.063
Mof_H 	H 	0.5278	0.9688	0.0203	0.072
Mof_C 	C 	0.5948	0.93672	0.03816	0.168
Mof_H 	H 	0.6209	0.936	0.0369	-0.081
Mof_H 	H 	0.5838	0.9199	0.0237	0.088
Mof_H 	H 	0.5883	0.9279	0.0568	-0.043
Mof_C 	C 	0.596	0.0042	0.05845	-0.482
Mof_H 	H 	0.6222	0.0027	0.0596	0.201
Mof_H 	H 	0.5865	0.9949	0.0761	0.162
Mof_H 	H 	0.5887	0.0309	0.0553	0.147
Mof_C 	C 	0.60895	0.9735	0.05879	-0.274
Mof_H 	H 	0.628	0.956	0.0534	0.09
Mof_H 	H 	0.5969	0.9627	0.0749	0.077
Mof_H 	H 	0.6193	0.9985	0.064	0.012
Mof_C 	C 	0.5648	0.93732	0.0273	-0.865
Mof_H 	H 	0.5472	0.9389	0.0115	0.276
Mof_H 	H 	0.5531	0.928	0.044	0.278
Mof_H 	H 	0.5839	0.9195	0.0225	0.114
Mof_C 	C 	0.55035	0.0066	0.0415	-0.147
Mof_H 	H 	0.5333	0.0095	0.0254	0.139
Mof_H 	H 	0.5604	0.0318	0.0466	0.03
Mof_H 	H 	0.538	0.996	0.0575	0.067
Mof_C 	C 	0.72236	0.00084	0.92869	0.152
Mof_C 	C 	0.71659	0.99487	0.95832	-0.066
Mof_C 	C 	0.7285	0.96181	0.97289	0.01
Mof_H 	H 	0.7239	0.9595	0.9923	0.018
Mof_C 	C 	0.74637	0.93299	0.96032	-0.109
Mof_C 	C 	0.75121	0.93719	0.93062	0.001
Mof_H 	H 	0.7628	0.9171	0.921	0.021
Mof_C 	C 	0.73971	0.96913	0.91536	-0.062
Mof_C 	C 	0.76285	0.89677	0.97526	0.283
Mof_C 	C 	0.7473	0.85907	0.96199	-0.224
Mof_H 	H 	0.7516	0.8587	0.9418	0.078
Mof_H 	H 	0.7215	0.8579	0.9647	-0.037
Mof_H 	H 	0.759	0.8369	0.9711	0.046
Mof_C 	C 	0.80421	0.8943	0.97375	-0.584
Mof_H 	H 	0.8107	0.8932	0.954	-0.078
Mof_H 	H 	0.8129	0.8712	0.9836	0.162
Mof_H 	H 	0.8151	0.9171	0.9827	0.29
Mof_C 	C 	0.7566	0.8985	0.00721	-0.358
Mof_H 	H 	0.7309	0.9001	0.0102	0.123
Mof_H 	H 	0.7685	0.9212	0.0154	-0.134
Mof_H 	H 	0.7663	0.8753	0.0163	0.093
Mof_C 	C 	0.7877	0.8711	0.95699	-0.039
Mof_H 	H 	0.8075	0.8867	0.9504	0.235
Mof_H 	H 	0.7737	0.861	0.9407	-0.021
Mof_H 	H 	0.7972	0.8497	0.9684	-0.023
Mof_C 	C 	0.73119	0.8726	0.9859	-0.254
Mof_H 	H 	0.7405	0.8495	0.9954	0.057
Mof_H 	H 	0.7154	0.8651	0.9698	0.145
Mof_H 	H 	0.7177	0.8879	0.9991	0.043
Mof_C 	C 	0.7861	0.9126	0.00085	0.178
Mof_H 	H 	0.8059	0.9278	0.9939	-0.183
Mof_H 	H 	0.7956	0.8911	0.0121	-0.06
Mof_H 	H 	0.7712	0.9289	0.0125	0.175
Mof_C 	C 	0.67693	0.97163	0.85266	0.164
Mof_C 	C 	0.70673	0.94785	0.8627	-0.067
Mof_C 	C 	0.70597	0.90738	0.86173	0.007
Mof_H 	H 	0.7264	0.8934	0.8683	0.018
Mof_C 	C 	0.6748	0.88666	0.85093	-0.121
Mof_C 	C 	0.64553	0.9086	0.84106	0.012
Mof_H 	H 	0.6246	0.8958	0.834	0.005
Mof_C 	C 	0.64609	0.94973	0.84131	-0.069
Mof_C 	C 	0.6736	0.84173	0.85047	0.345
Mof_C 	C 	0.6732	0.8347	0.81792	-0.831
Mof_H 	H 	0.6531	0.8488	0.8089	0.266
Mof_H 	H 	0.6704	0.8072	0.8141	0.257
Mof_H 	H 	0.6957	0.8438	0.8105	0.132
Mof_C 	C 	0.63643	0.8294	0.8613	-0.09
Mof_H 	H 	0.6173	0.8415	0.8497	0.242
Mof_H 	H 	0.6346	0.8375	0.8809	0
Mof_H 	H 	0.6341	0.8014	0.8601	0.044
Mof_C 	C 	0.7033	0.8221	0.8694	-0.256
Mof_H 	H 	0.7269	0.8295	0.8629	0.074
Mof_H 	H 	0.7007	0.7941	0.8681	0.059
Mof_H 	H 	0.7012	0.8303	0.8889	0.017
Mof_C 	C 	0.63692	0.823	0.8413	-0.189
Mof_H 	H 	0.6302	0.8309	0.822	0.048
Mof_H 	H 	0.6185	0.8315	0.854	-0.171
Mof_H 	H 	0.6391	0.795	0.8421	0.039
Mof_C 	C 	0.70177	0.8266	0.82955	0.115
Mof_H 	H 	0.6959	0.8366	0.8107	0.092
Mof_H 	H 	0.7012	0.7985	0.8291	-0.048
Mof_H 	H 	0.7257	0.8354	0.8358	-0.052
Mof_C 	C 	0.681	0.8271	0.88103	-0.382
Mof_H 	H 	0.6804	0.799	0.8812	0.102
Mof_H 	H 	0.6626	0.8372	0.8932	0.093
Mof_H 	H 	0.7046	0.836	0.8879	0.166
Mof_C 	C 	0.58261	0.997	0.87927	0.17
Mof_C 	C 	0.57759	0.96916	0.85737	-0.062
Mof_C 	C 	0.54912	0.94292	0.85687	-0.013
Mof_H 	H 	0.5464	0.9257	0.8415	0.027
Mof_C 	C 	0.52432	0.94112	0.87839	-0.079
Mof_C 	C 	0.52913	0.96876	0.90029	-0.01
Mof_H 	H 	0.513	0.9688	0.9151	0.023
Mof_C 	C 	0.55706	0.99625	0.90076	-0.068
Mof_C 	C 	0.49439	0.91019	0.87796	0.132
Mof_C 	C 	0.46827	0.9138	0.90199	-0.167
Mof_H 	H 	0.4812	0.9094	0.92	0.049
Mof_H 	H 	0.4492	0.8946	0.8994	0.041
Mof_H 	H 	0.4578	0.9396	0.9018	0.056
Mof_C 	C 	0.5107	0.86936	0.8769	-0.346
Mof_H 	H 	0.5253	0.8647	0.8942	0.088
Mof_H 	H 	0.5258	0.8673	0.8607	0.097
Mof_H 	H 	0.4915	0.8503	0.8753	0.105
Mof_C 	C 	0.4716	0.9174	0.85081	-0.17
Mof_H 	H 	0.4867	0.9156	0.8346	0.079
Mof_H 	H 	0.461	0.9432	0.8515	0.025
Mof_H 	H 	0.4525	0.8982	0.8491	0.065
Mof_C 	C 	0.49247	0.91176	0.87573	0.124
Mof_C 	C 	0.4977	0.8861	0.9026	-0.189
Mof_H 	H 	0.5195	0.8707	0.9012	0.04
Mof_H 	H 	0.4771	0.8689	0.9041	0.06
Mof_H 	H 	0.4998	0.9025	0.9193	0.048
Mof_C 	C 	0.45797	0.9365	0.8773	-0.383
Mof_H 	H 	0.4551	0.9524	0.8604	0.129
Mof_H 	H 	0.4599	0.9531	0.8939	0.101
Mof_H 	H 	0.4372	0.9196	0.8787	0.125
Mof_C 	C 	0.4896	0.886	0.84876	-0.173
Mof_H 	H 	0.5112	0.8703	0.8477	0.048
Mof_H 	H 	0.487	0.9023	0.832	0.018
Mof_H 	H 	0.4687	0.8691	0.8497	0.045
Mof_C 	C 	0.49817	0.07214	0.62367	0.198
Mof_C 	C 	0.47954	0.05522	0.64569	-0.081
Mof_C 	C 	0.46792	0.0179	0.64651	0.005
Mof_H 	H 	0.4554	0.0092	0.6623	0.025
Mof_C 	C 	0.47431	0.99191	0.62401	-0.083
Mof_C 	C 	0.49408	0.00836	0.60126	0.003
Mof_H 	H 	0.4998	0.9923	0.5859	0.016
Mof_C 	C 	0.50499	0.04677	0.60097	-0.082
Mof_C 	C 	0.4601	0.949	0.62333	0.134
Mof_C 	C 	0.4725	0.9239	0.59847	-0.084
Mof_H 	H 	0.4625	0.9344	0.5807	0.009
Mof_H 	H 	0.4642	0.8975	0.6008	0.01
Mof_H 	H 	0.4987	0.9242	0.5983	0.158
Mof_C 	C 	0.478	0.9289	0.64949	-0.297
Mof_H 	H 	0.4717	0.9427	0.6666	0.112
Mof_H 	H 	0.504	0.929	0.6479	0.023
Mof_H 	H 	0.4695	0.9023	0.6505	0.1
Mof_C 	C 	0.41842	0.9482	0.6249	-0.206
Mof_H 	H 	0.4075	0.9609	0.6083	-0.002
Mof_H 	H 	0.4114	0.9616	0.6419	0.128
Mof_H 	H 	0.4102	0.9215	0.6255	0.072
Mof_C 	C 	0.45993	0.94934	0.6218	0.123
Mof_C 	C 	0.49277	0.9224	0.62	-0.318
Mof_H 	H 	0.5064	0.9294	0.6037	-0.042
Mof_H 	H 	0.4846	0.8957	0.6181	0.102
Mof_H 	H 	0.508	0.925	0.6372	0.148
Mof_C 	C 	0.4351	0.944	0.59492	-0.507
Mof_H 	H 	0.4143	0.961	0.596	0.194
Mof_H 	H 	0.427	0.9172	0.5937	0.167
Mof_H 	H 	0.4484	0.9504	0.5782	0.165
Mof_C 	C 	0.439	0.9372	0.64796	-0.049
Mof_H 	H 	0.4181	0.9538	0.6496	-0.051
Mof_H 	H 	0.4546	0.9397	0.6649	0.001
Mof_H 	H 	0.4312	0.9104	0.6458	0.014
Mof_C 	C 	0.49131	0.12667	0.55117	0.228
Mof_C 	C 	0.49733	0.08728	0.54859	-0.115
Mof_C 	C 	0.47876	0.0656	0.52734	0.078
Mof_H 	H 	0.4835	0.0389	0.526	-0.009
Mof_C 	C 	0.45367	0.08216	0.5083	-0.205
Mof_C 	C 	0.44879	0.12217	0.51049	0.079
Mof_H 	H 	0.4326	0.1345	0.4975	-0.012
Mof_C 	C 	0.46711	0.14494	0.53127	-0.121
Mof_C 	C 	0.43359	0.05671	0.48595	0.51
Mof_C 	C 	0.45519	0.0596	0.45903	-0.556
Mof_H 	H 	0.4794	0.0498	0.4629	-0.03
Mof_H 	H 	0.4564	0.0865	0.4531	0.179
Mof_H 	H 	0.4434	0.0443	0.444	0.168
Mof_C 	C 	0.39492	0.072	0.48079	-0.284
Mof_H 	H 	0.3819	0.0698	0.4982	0.132
Mof_H 	H 	0.3827	0.0568	0.4659	0.072
Mof_H 	H 	0.3957	0.099	0.475	0.042
Mof_C 	C 	0.4332	0.01248	0.49432	-0.418
Mof_H 	H 	0.4198	0.0091	0.5114	0.12
Mof_H 	H 	0.4579	0.0035	0.4978	0.123
Mof_H 	H 	0.4219	0.9976	0.4789	0.14
Mof_C 	C 	0.4552	0.0256	0.4712	-0.298
Mof_H 	H 	0.4676	0.0093	0.4853	0.071
Mof_H 	H 	0.4728	0.0378	0.4594	0.289
Mof_H 	H 	0.439	0.0097	0.4593	0.078
Mof_C 	C 	0.414	0.0824	0.46383	-0.242
Mof_H 	H 	0.4003	0.1022	0.4734	0.089
Mof_H 	H 	0.3977	0.0667	0.452	0.079
Mof_H 	H 	0.4316	0.0948	0.4521	0.055
Mof_C 	C 	0.39941	0.0424	0.4999	-0.34
Mof_H 	H 	0.3875	0.0642	0.5087	0.038
Mof_H 	H 	0.4059	0.0232	0.5142	0.087
Mof_H 	H 	0.3831	0.0309	0.4856	0.118
Mof_C 	C 	0.42672	0.20512	0.58162	0.337
Mof_C 	C 	0.42325	0.20389	0.55204	-0.307
Mof_C 	C 	0.38964	0.21077	0.53815	0.515
Mof_H 	H 	0.3879	0.2104	0.5182	-0.191
Mof_C 	C 	0.35878	0.2181	0.55308	-0.955
Mof_C 	C 	0.36228	0.21967	0.58262	0.505
Mof_H 	H 	0.3419	0.225	0.5931	-0.199
Mof_C 	C 	0.39578	0.21341	0.59696	-0.295
Mof_C 	C 	0.3222	0.22629	0.53836	2.057
Mof_C 	C 	0.32317	0.2257	0.50614	-2.596
Mof_H 	H 	0.3403	0.2449	0.5	0.779
Mof_H 	H 	0.2993	0.2316	0.498	0.753
Mof_H 	H 	0.3305	0.2001	0.4999	0.774
Mof_C 	C 	0.29483	0.19548	0.54518	-2.581
Mof_H 	H 	0.3035	0.1703	0.5392	0.773
Mof_H 	H 	0.272	0.2012	0.5352	0.755
Mof_H 	H 	0.2915	0.1951	0.5655	0.776
Mof_C 	C 	0.30645	0.26427	0.54842	-2.647
Mof_H 	H 	0.3229	0.2853	0.5446	0.795
Mof_H 	H 	0.3029	0.2628	0.5687	0.796
Mof_H 	H 	0.2834	0.2689	0.5384	0.778
Mof_C 	C 	0.43245	0.14986	0.65532	0.197
Mof_C 	C 	0.39962	0.16797	0.64729	-0.104
Mof_C 	C 	0.36676	0.14887	0.64999	0.057
Mof_H 	H 	0.3451	0.1618	0.6449	-0.002
Mof_C 	C 	0.36562	0.11072	0.66012	-0.172
Mof_C 	C 	0.39783	0.09363	0.6682	0.058
Mof_H 	H 	0.3975	0.0685	0.6759	0.005
Mof_C 	C 	0.43092	0.11173	0.66547	-0.097
Mof_C 	C 	0.32938	0.08926	0.66394	0.452
Mof_C 	C 	0.29644	0.1105	0.65034	-0.197
Mof_H 	H 	0.2747	0.0956	0.6535	0.042
Mof_H 	H 	0.2995	0.1133	0.6301	0.117
Mof_H 	H 	0.2943	0.136	0.6589	0.04
Mof_C 	C 	0.333	0.04703	0.65225	-0.434
Mof_H 	H 	0.354	0.0347	0.6613	0.042
Mof_H 	H 	0.3357	0.0479	0.6319	0.133
Mof_H 	H 	0.3115	0.0323	0.6563	0.138
Mof_C 	C 	0.3251	0.0865	0.69658	-0.43
Mof_H 	H 	0.3458	0.0732	0.7052	0.141
Mof_H 	H 	0.3033	0.0723	0.7004	0.142
Mof_H 	H 	0.3236	0.1124	0.7045	0.091
Mof_C 	C 	0.3045	0.1162	0.6801	-0.356
Mof_H 	H 	0.3024	0.141	0.6704	0.108
Mof_H 	H 	0.3145	0.1202	0.6993	0.114
Mof_H 	H 	0.2808	0.1045	0.681	0.117
Mof_C 	C 	0.3329	0.05007	0.6791	-0.152
Mof_H 	H 	0.3487	0.0333	0.6687	0.125
Mof_H 	H 	0.3093	0.0382	0.6799	0.028
Mof_H 	H 	0.343	0.0539	0.6982	0.026
Mof_C 	C 	0.3126	0.0859	0.63327	-0.41
Mof_H 	H 	0.311	0.1115	0.6247	0.053
Mof_H 	H 	0.2887	0.0747	0.6339	0.13
Mof_H 	H 	0.3278	0.0694	0.622	0.11
Mof_C 	C 	0.5676	0.45849	0.86928	-0.091
Mof_C 	C 	0.60196	0.45332	0.88159	-0.006
Mof_H 	H 	0.6214	0.4683	0.8755	0.034
Mof_C 	C 	0.60756	0.42565	0.90316	-0.046
Mof_C 	C 	0.57796	0.40491	0.91334	-0.004
Mof_H 	H 	0.5813	0.3874	0.9285	0.041
Mof_C 	C 	0.54362	0.41054	0.90073	-0.094
Mof_C 	C 	0.53876	0.4366	0.87858	0.032
Mof_H 	H 	0.5157	0.4396	0.8697	0.05
Mof_C 	C 	0.56126	0.48695	0.84405	0.353
Mof_C 	C 	0.51248	0.38417	0.90953	0.362
Mof_C 	C 	0.68865	0.41368	0.95482	0.063
Mof_H 	H 	0.6932	0.413	0.9746	-0.016
Mof_C 	C 	0.65262	0.41652	0.94488	-0.163
Mof_H 	H 	0.6338	0.4173	0.9577	0.059
Mof_C 	C 	0.64501	0.4182	0.91532	0.084
Mof_C 	C 	0.67435	0.41254	0.8978	-0.153
Mof_H 	H 	0.6703	0.4109	0.878	0.085
Mof_C 	C 	0.7102	0.40925	0.90971	0.073
Mof_H 	H 	0.7293	0.4052	0.8976	-0.009
Mof_C 	C 	0.58182	0.23523	0.94663	-0.083
Mof_C 	C 	0.61091	0.25972	0.95471	-0.01
Mof_H 	H 	0.6066	0.2863	0.9575	0.041
Mof_C 	C 	0.6468	0.24516	0.9588	-0.045
Mof_C 	C 	0.65124	0.20529	0.95596	-0.026
Mof_H 	H 	0.6744	0.195	0.9598	0.051
Mof_C 	C 	0.62352	0.17929	0.94769	-0.047
Mof_C 	C 	0.58865	0.19547	0.94295	-0.007
Mof_H 	H 	0.5694	0.1791	0.9371	0.057
Mof_C 	C 	0.54292	0.25103	0.94096	0.381
Mof_C 	C 	0.73942	0.29077	0.96085	0.102
Mof_H 	H 	0.7614	0.287	0.952	-0.031
Mof_C 	C 	0.71124	0.26664	0.95327	-0.177
Mof_H 	H 	0.7147	0.247	0.9398	0.089
Mof_C 	C 	0.67704	0.27059	0.9653	0.108
Mof_C 	C 	0.67491	0.30273	0.98249	-0.174
Mof_H 	H 	0.6525	0.3095	0.9896	0.079
Mof_C 	C 	0.70566	0.3261	0.98982	0.099
Mof_H 	H 	0.7028	0.3472	0.0021	-0.024
Mof_C 	C 	0.49691	0.1722	0.83925	-0.117
Mof_C 	C 	0.52019	0.14504	0.85139	0.063
Mof_H 	H 	0.5211	0.1416	0.8712	0.038
Mof_C 	C 	0.54262	0.12244	0.83462	-0.139
Mof_C 	C 	0.54258	0.12916	0.80552	0.036
Mof_H 	H 	0.5577	0.1143	0.7943	0.028
Mof_C 	C 	0.52076	0.15716	0.79289	-0.071
Mof_C 	C 	0.49636	0.17815	0.80956	0.026
Mof_H 	H 	0.48	0.1958	0.8009	0.039
Mof_C 	C 	0.47452	0.19734	0.85811	0.385
Mof_C 	C 	0.56766	0.09408	0.84897	0.407
Mof_C 	C 	0.48846	0.16668	0.71583	0.099
Mof_H 	H 	0.4663	0.169	0.7055	-0.017
Mof_C 	C 	0.48806	0.16703	0.74556	-0.188
Mof_H 	H 	0.4663	0.1704	0.7548	0.096
Mof_C 	C 	0.51995	0.16239	0.76104	0.134
Mof_C 	C 	0.55171	0.16133	0.74671	-0.193
Mof_H 	H 	0.5743	0.1606	0.7565	0.096
Mof_C 	C 	0.54895	0.16143	0.71674	0.111
Mof_H 	H 	0.5705	0.1602	0.707	-0.02
Mof_C 	C 	0.45731	0.3449	0.79568	-0.091
Mof_C 	C 	0.4669	0.38331	0.79204	0.033
Mof_H 	H 	0.466	0.4006	0.8074	0.053
Mof_C 	C 	0.4779	0.39673	0.766	-0.093
Mof_C 	C 	0.47966	0.37182	0.74317	0.006
Mof_H 	H 	0.4882	0.3809	0.7259	0.039
Mof_C 	C 	0.46884	0.33323	0.74558	-0.05
Mof_C 	C 	0.45791	0.32006	0.77216	0.012
Mof_H 	H 	0.4509	0.294	0.7742	0.044
Mof_C 	C 	0.44623	0.33119	0.82508	0.385
Mof_C 	C 	0.48861	0.43974	0.76481	0.335
Mof_C 	C 	0.49738	0.28189	0.67834	0.094
Mof_H 	H 	0.5152	0.2847	0.6649	-0.021
Mof_C 	C 	0.49748	0.30739	0.70099	-0.172
Mof_H 	H 	0.5157	0.3263	0.7027	0.097
Mof_C 	C 	0.47115	0.30569	0.72131	0.111
Mof_C 	C 	0.44598	0.27557	0.71753	-0.168
Mof_H 	H 	0.428	0.2722	0.7308	0.086
Mof_C 	C 	0.44736	0.25003	0.6939	0.092
Mof_H 	H 	0.4298	0.2305	0.6918	-0.02
Mof_C 	C 	0.80001	0.4714	0.8716	-0.121
Mof_C 	C 	0.8286	0.48018	0.85464	0.038
Mof_H 	H 	0.8522	0.4767	0.8623	0.04
Mof_C 	C 	0.82425	0.49372	0.82716	-0.084
Mof_C 	C 	0.78911	0.49887	0.81558	-0.004
Mof_H 	H 	0.7858	0.5096	0.7973	0.047
Mof_C 	C 	0.75818	0.48819	0.83094	-0.055
Mof_C 	C 	0.76562	0.4753	0.85921	0.013
Mof_H 	H 	0.7459	0.469	0.8702	0.032
Mof_C 	C 	0.80533	0.45772	0.90181	0.374
Mof_C 	C 	0.8548	0.50557	0.80871	0.289
Mof_C 	C 	0.6762	0.52871	0.79022	0.105
Mof_H 	H 	0.6714	0.5483	0.7767	-0.013
Mof_C 	C 	0.71201	0.522	0.79939	-0.182
Mof_H 	H 	0.7305	0.5369	0.7918	0.093
Mof_C 	C 	0.72052	0.49456	0.81897	0.113
Mof_C 	C 	0.69247	0.46834	0.82518	-0.162
Mof_H 	H 	0.6975	0.446	0.8361	0.086
Mof_C 	C 	0.65663	0.47604	0.81476	0.088
Mof_H 	H 	0.6381	0.4583	0.8183	0.002
Mof_C 	C 	0.84678	0.24435	0.97682	-0.109
Mof_C 	C 	0.88085	0.23373	0.96587	0.038
Mof_H 	H 	0.9006	0.2509	0.9675	0.043
Mof_C 	C 	0.8846	0.19806	0.95285	-0.114
Mof_C 	C 	0.85517	0.17361	0.94977	0.019
Mof_H 	H 	0.8576	0.1498	0.9403	0.036
Mof_C 	C 	0.8217	0.18368	0.96048	-0.072
Mof_C 	C 	0.81721	0.21836	0.97365	0.015
Mof_H 	H 	0.7946	0.2251	0.9806	0.032
Mof_C 	C 	0.84158	0.28558	0.98877	0.363
Mof_C 	C 	0.91945	0.18701	0.93883	0.373
Mof_C 	C 	0.73365	0.12776	0.96848	0.113
Mof_H 	H 	0.7156	0.1254	0.9818	-0.024
Mof_C 	C 	0.76322	0.15308	0.97509	-0.19
Mof_H 	H 	0.7644	0.1667	0.9924	0.091
Mof_C 	C 	0.79038	0.15758	0.95576	0.134
Mof_C 	C 	0.78707	0.13446	0.93282	-0.197
Mof_H 	H 	0.8056	0.1346	0.9198	0.104
Mof_C 	C 	0.75634	0.10953	0.92743	0.12
Mof_H 	H 	0.7553	0.0944	0.9108	-0.023
Mof_C 	C 	0.51062	0.32504	0.5966	-0.144
Mof_C 	C 	0.53617	0.33423	0.57719	0.071
Mof_H 	H 	0.5416	0.3161	0.5631	0.031
Mof_C 	C 	0.55407	0.36958	0.57792	-0.151
Mof_C 	C 	0.54586	0.39539	0.59921	0.032
Mof_H 	H 	0.5582	0.4192	0.6003	0.024
Mof_C 	C 	0.51941	0.38721	0.61963	-0.093
Mof_C 	C 	0.50161	0.35159	0.61735	0.035
Mof_H 	H 	0.4834	0.3455	0.6299	0.024
Mof_C 	C 	0.495	0.28496	0.5966	0.363
Mof_C 	C 	0.58337	0.37996	0.55846	0.402
Mof_C 	C 	0.47534	0.45056	0.67385	0.135
Mof_H 	H 	0.4521	0.4539	0.6808	-0.05
Mof_C 	C 	0.47901	0.42365	0.65299	-0.223
Mof_H 	H 	0.4588	0.4097	0.6458	0.094
Mof_C 	C 	0.51243	0.417	0.64252	0.142
Mof_C 	C 	0.54024	0.44087	0.6541	-0.213
Mof_H 	H 	0.5637	0.4386	0.6475	0.11
Mof_C 	C 	0.53335	0.46777	0.67517	0.144
Mof_H 	H 	0.5526	0.4831	0.6824	-0.03
Mof_C 	C 	0.62296	0.08964	0.66611	-0.095
Mof_C 	C 	0.65337	0.08056	0.65163	0.016
Mof_H 	H 	0.6534	0.084	0.6318	0.047
Mof_C 	C 	0.68404	0.06631	0.66615	-0.066
Mof_C 	C 	0.68431	0.06099	0.6956	-0.027
Mof_H 	H 	0.705	0.0513	0.7054	0.05
Mof_C 	C 	0.65291	0.07031	0.71062	-0.027
Mof_C 	C 	0.62273	0.08502	0.69525	-0.012
Mof_H 	H 	0.602	0.0919	0.7049	0.044
Mof_C 	C 	0.58839	0.10471	0.65078	0.361
Mof_C 	C 	0.71894	0.05508	0.6515	0.28
Mof_N 	N 	0.64171	0.04351	0.79944	-0.174
Mof_C 	C 	0.6742	0.0525	0.7882	0.036
Mof_H 	H 	0.6948	0.0537	0.8005	0.017
Mof_C 	C 	0.678	0.05979	0.75993	-0.087
Mof_H 	H 	0.701	0.0653	0.7534	0.06
Mof_C 	C 	0.6497	0.0593	0.74146	0.034
Mof_C 	C 	0.616	0.0483	0.75101	-0.1
Mof_H 	H 	0.596	0.0456	0.7382	0.063
Mof_C 	C 	0.6127	0.0416	0.77965	0.032
Mof_H 	H 	0.5897	0.0354	0.7862	0.015
Mof_N 	N 	0.64991	0.0587	0.80197	-0.067
Mof_C 	C 	0.66681	0.0318	0.78724	0.05
Mof_H 	H 	0.677	0.0102	0.7967	0
Mof_C 	C 	0.66981	0.0352	0.75733	-0.055
Mof_H 	H 	0.6821	0.0163	0.7471	0.045
Mof_C 	C 	0.6534	0.0687	0.74272	0.04
Mof_C 	C 	0.6379	0.0961	0.76068	-0.074
Mof_H 	H 	0.6279	0.1188	0.7525	0.053
Mof_C 	C 	0.6366	0.0913	0.78961	0.007
Mof_H 	H 	0.6264	0.1108	0.8008	0.033
Mof_O 	O 	0.56626	0.48576	0.779	-0.492
Mof_O 	O 	0.58757	0.47781	0.73592	-0.412
Mof_C 	C 	0.57454	0.46487	0.75841	0.149
Mof_H 	H 	0.5708	0.438	0.7598	0.002
Mof_O 	O 	0.5721	0.352	0.83929	-0.471
Mof_H 	H 	0.5675	0.3342	0.8511	0.281
Mof_O 	O 	0.54746	0.30853	0.80992	-0.252
Mof_N 	N 	0.60099	0.28183	0.66094	-0.139
Mof_C 	C 	0.57777	0.42065	0.76294	-0.064
Mof_C 	C 	0.57355	0.40305	0.7897	0.018
Mof_H 	H 	0.571	0.4168	0.8067	0.051
Mof_C 	C 	0.57363	0.36246	0.78769	-0.085
Mof_C 	C 	0.57959	0.3414	0.76289	-0.002
Mof_H 	H 	0.5804	0.3142	0.7641	0.042
Mof_C 	C 	0.58442	0.35887	0.73629	-0.033
Mof_C 	C 	0.5839	0.39921	0.73854	-0.011
Mof_H 	H 	0.5881	0.4133	0.7219	0.055
Mof_C 	C 	0.57656	0.46447	0.75992	0.152
Mof_C 	C 	0.56625	0.33969	0.81442	0.37
Mof_C 	C 	0.5972	0.2686	0.68815	0.06
Mof_H 	H 	0.5972	0.2416	0.691	0.002
Mof_C 	C 	0.5933	0.29298	0.7126	-0.14
Mof_H 	H 	0.592	0.2812	0.7305	0.08
Mof_C 	C 	0.5915	0.33377	0.71092	0.085
Mof_C 	C 	0.5932	0.34896	0.68369	-0.143
Mof_H 	H 	0.5924	0.3758	0.6803	0.084
Mof_C 	C 	0.5961	0.32147	0.66091	0.063
Mof_H 	H 	0.5943	0.3326	0.6427	0.015
Mof_O 	O 	0.70729	0.09088	0.86839	-0.053
Mof_O 	O 	0.66144	0.09487	0.89769	-0.344
Mof_O 	O 	0.65117	0.09068	0.85071	-0.299
Mof_C 	C 	0.674	0.0958	0.87306	-0.533
Mof_O 	O 	0.7001	0.0889	0.86699	-0.2
Mof_O 	O 	0.6468	0.0861	0.87225	-0.095
Mof_C 	C 	0.6724	0.11469	0.87112	0.892
Mof_N 	N 	0.66939	0.15466	0.86798	-0.199
Mof_C 	C 	0.63796	0.1821	0.8618	-0.268
Mof_H 	H 	0.6468	0.2086	0.8612	0.112
Mof_H 	H 	0.6207	0.1797	0.8766	0.123
Mof_H 	H 	0.6263	0.1755	0.8436	0.116
Mof_C 	C 	0.70075	0.1827	0.8731	-0.274
Mof_H 	H 	0.6924	0.209	0.8696	0.11
Mof_H 	H 	0.7198	0.1766	0.8602	0.11
Mof_H 	H 	0.71	0.1803	0.8925	0.113
Mof_Ni	Ni	0.05686	0.34982	0.61273	1.12
Mof_Ni	Ni	0.01097	0.31345	0.56027	1.118
Mof_Ni	Ni	0.0307	0.22999	0.58408	1.119
Mof_Ni	Ni	0.07392	0.26625	0.63757	1.115
Mof_Ni	Ni	0.904	0.53227	0.70216	1.099
Mof_Ni	Ni	0.98648	0.50966	0.7058	1.114
Mof_Ni	Ni	0.00399	0.50447	0.77848	1.078
Mof_Ni	Ni	0.9028	0.53137	0.77853	1.107
Mof_Ni	Ni	0.73175	0.42962	0.54493	1.053
Mof_Ni	Ni	0.64356	0.43723	0.54935	1.074
Mof_Ni	Ni	0.62659	0.36357	0.50874	1.084
Mof_Ni	Ni	0.71514	0.3482	0.50343	1.052
Mof_Ni	Ni	0.89393	0.07093	0.59612	1.114
Mof_Ni	Ni	0.81518	0.07494	0.56361	1.11
Mof_Ni	Ni	0.77586	0.03592	0.62879	1.107
Mof_Ni	Ni	0.86945	0.03849	0.65798	1.111
Mof_Ni	Ni	0.98732	0.13959	0.84013	1.051
Mof_Ni	Ni	0.95352	0.12666	0.90202	1.079
Mof_Ni	Ni	0.99557	0.20472	0.92554	1.078
Mof_Ni	Ni	0.03272	0.22217	0.86447	1.051
Mof_Cl	Cl	0.01592	0.29112	0.61176	-0.724
Mof_S 	S 	0.11151	0.39335	0.60119	-0.054
Mof_S 	S 	0.0329	0.32948	0.50999	-0.05
Mof_S 	S 	0.06586	0.18366	0.5524	-0.079
Mof_S 	S 	0.1405	0.24733	0.64514	-0.102
Mof_S 	S 	0.88723	0.59561	0.68046	-0.095
Mof_S 	S 	0.02996	0.55366	0.68245	-0.085
Mof_S 	S 	0.03869	0.55588	0.79978	-0.198
Mof_S 	S 	0.89252	0.5938	0.79864	-0.146
Mof_S 	S 	0.76052	0.48477	0.51992	-0.202
Mof_S 	S 	0.61435	0.49987	0.53488	-0.151
Mof_S 	S 	0.5898	0.37446	0.46432	-0.115
Mof_S 	S 	0.73626	0.35293	0.45404	-0.128
Mof_S 	S 	0.94202	0.03461	0.57247	-0.124
Mof_S 	S 	0.80546	0.03335	0.5219	-0.147
Mof_S 	S 	0.75373	0.97168	0.62228	-0.142
Mof_S 	S 	0.89294	0.97415	0.67176	-0.13
Mof_S 	S 	0.02737	0.08656	0.82369	-0.115
Mof_S 	S 	0.96889	0.0647	0.92782	-0.117
Mof_S 	S 	0.03708	0.19698	0.96801	-0.061
Mof_S 	S 	0.09968	0.21774	0.86501	-0.081
Mof_O 	O 	0.05795	0.33957	0.57063	-0.538
Mof_O 	O 	0.03696	0.2651	0.55207	-0.544
Mof_O 	O 	0.08118	0.23864	0.60036	-0.496
Mof_O 	O 	0.09613	0.31307	0.62152	-0.515
Mof_O 	O 	0.95416	0.55607	0.70127	-0.522
Mof_O 	O 	0.00986	0.53263	0.74212	-0.513
Mof_O 	O 	0.95782	0.54247	0.78733	-0.456
Mof_O 	O 	0.89659	0.56018	0.7401	-0.494
Mof_O 	O 	0.68668	0.45857	0.53044	-0.53
Mof_O 	O 	0.62446	0.42006	0.51114	-0.542
Mof_O 	O 	0.66905	0.36883	0.48367	-0.532
Mof_O 	O 	0.73923	0.40112	0.50761	-0.544
Mof_O 	O 	0.86093	0.04385	0.56757	-0.49
Mof_O 	O 	0.78803	0.03233	0.58585	-0.469
Mof_O 	O 	0.82195	0.00936	0.64671	-0.475
Mof_O 	O 	0.89088	0.02241	0.62056	-0.479
Mof_O 	O 	0.99207	0.10894	0.87643	-0.54
Mof_O 	O 	0.99221	0.1474	0.92827	-0.545
Mof_O 	O 	0.04135	0.19875	0.90401	-0.556
Mof_O 	O 	0.03536	0.1684	0.84629	-0.54
Mof_O 	O 	0.01696	0.38789	0.60628	-0.42
Mof_O 	O 	0.98165	0.36083	0.5703	-0.428
Mof_O 	O 	0.91101	0.50629	0.66333	-0.425
Mof_O 	O 	0.97048	0.48724	0.66727	-0.415
Mof_O 	O 	0.96298	0.2854	0.55306	-0.431
Mof_O 	O 	0.97811	0.22557	0.57009	-0.419
Mof_O 	O 	0.89778	0.11877	0.57197	-0.18
Mof_O 	O 	0.84529	0.11889	0.54271	0.173
Mof_C 	C 	0.8744	0.13574	0.5568	0.162
Mof_O 	O 	0.89552	0.11913	0.57179	-0.16
Mof_O 	O 	0.83838	0.12354	0.55328	-0.56
Mof_C 	C 	0.86939	0.13689	0.55975	0.073
Mof_O 	O 	0.01964	0.1935	0.61562	-0.435
Mof_O 	O 	0.04807	0.22048	0.65472	-0.417
Mof_O 	O 	0.92903	0.09609	0.62469	-0.445
Mof_O 	O 	0.91674	0.0703	0.66709	-0.426
Mof_O 	O 	0.05136	0.35596	0.65539	-0.419
Mof_O 	O 	0.06314	0.29578	0.67334	-0.415
Mof_O 	O 	0.01304	0.45977	0.71324	-0.426
Mof_O 	O 	0.99777	0.45235	0.75958	-0.426
Mof_O 	O 	0.72285	0.45142	0.58423	-0.468
Mof_O 	O 	0.6622	0.45352	0.58871	-0.452
Mof_O 	O 	0.61273	0.50487	0.68087	-0.353
Mof_O 	O 	0.65225	0.51664	0.71693	-0.366
Mof_O 	O 	0.63003	0.30646	0.50912	-0.454
Mof_O 	O 	0.69026	0.29512	0.50537	-0.461
Mof_O 	O 	0.55413	0.20941	0.55815	-0.452
Mof_O 	O 	0.58231	0.15495	0.57532	-0.457
Mof_O 	O 	0.02481	0.27567	0.88262	-0.453
Mof_O 	O 	0.99643	0.26236	0.92351	-0.455
Mof_O 	O 	0.91188	0.35915	0.96236	-0.467
Mof_O 	O 	0.89837	0.40965	0.93325	-0.468
Mof_O 	O 	0.93743	0.11461	0.83332	-0.458
Mof_O 	O 	0.91263	0.10675	0.87604	-0.447
Mof_O 	O 	0.78011	0.05807	0.87549	-0.36
Mof_O 	O 	0.75315	0.04375	0.83375	-0.373
Mof_N 	N 	0.78254	0.41187	0.56196	-0.248
Mof_N 	N 	0.76217	0.31952	0.51985	-0.26
Mof_N 	N 	0.98153	0.16317	0.79861	-0.263
Mof_N 	N 	0.02741	0.25271	0.82539	-0.255
Mof_N 	N 	0.85124	0.50883	0.70032	-0.241
Mof_N 	N 	0.77001	0.10727	0.55535	-0.258
Mof_N 	N 	0.99813	0.4727	0.81467	-0.276
Mof_C 	C 	0.07546	0.36253	0.55346	0.348
Mof_C 	C 	0.10266	0.38883	0.56341	-0.313
Mof_C 	C 	0.12069	0.41237	0.54449	0.531
Mof_H 	H 	0.1386	0.4295	0.5516	-0.206
Mof_C 	C 	0.11286	0.41115	0.51558	-0.965
Mof_C 	C 	0.08652	0.38589	0.50547	0.508
Mof_H 	H 	0.0811	0.3847	0.4858	-0.191
Mof_C 	C 	0.06727	0.3616	0.52385	-0.304
Mof_C 	C 	0.13317	0.43651	0.49483	2.059
Mof_C 	C 	0.1344	0.47896	0.50429	-2.56
Mof_H 	H 	0.1101	0.4894	0.504	0.762
Mof_H 	H 	0.1489	0.4938	0.4915	0.762
Mof_H 	H 	0.1451	0.4806	0.5234	0.775
Mof_C 	C 	0.1727	0.4258	0.49669	-2.611
Mof_H 	H 	0.1816	0.4272	0.5163	0.797
Mof_H 	H 	0.1862	0.4438	0.4853	0.778
Mof_H 	H 	0.1757	0.3996	0.4896	0.772
Mof_C 	C 	0.11916	0.4344	0.46416	-2.707
Mof_H 	H 	0.0937	0.4413	0.463	0.811
Mof_H 	H 	0.1221	0.4083	0.457	0.813
Mof_H 	H 	0.1326	0.4524	0.4528	0.802
Mof_C 	C 	0.05513	0.25727	0.52885	0.308
Mof_C 	C 	0.05745	0.28481	0.50696	-0.248
Mof_C 	C 	0.07681	0.27633	0.48314	0.338
Mof_H 	H 	0.0782	0.2951	0.4687	-0.142
Mof_C 	C 	0.0945	0.24046	0.47991	-0.689
Mof_C 	C 	0.09149	0.21348	0.50166	0.356
Mof_H 	H 	0.1027	0.1892	0.5	-0.134
Mof_C 	C 	0.07252	0.22126	0.52566	-0.244
Mof_C 	C 	0.11705	0.23179	0.45389	1.556
Mof_C 	C 	0.09014	0.21492	0.43232	-2.069
Mof_H 	H 	0.0701	0.2328	0.4293	0.576
Mof_H 	H 	0.0812	0.1904	0.4393	0.619
Mof_H 	H 	0.1018	0.2108	0.4145	0.599
Mof_C 	C 	0.13179	0.26873	0.4403	-1.977
Mof_H 	H 	0.1493	0.2808	0.4534	0.574
Mof_H 	H 	0.1121	0.2866	0.4361	0.573
Mof_H 	H 	0.1433	0.262	0.4228	0.564
Mof_C 	C 	0.1497	0.20537	0.4599	-2.133
Mof_H 	H 	0.166	0.2176	0.4738	0.626
Mof_H 	H 	0.1621	0.2011	0.4425	0.631
Mof_H 	H 	0.1416	0.1807	0.4672	0.643
Mof_C 	C 	0.10753	0.21323	0.5976	0.182
Mof_C 	C 	0.10566	0.18545	0.57486	-0.089
Mof_C 	C 	0.13368	0.15836	0.5729	0.023
Mof_H 	H 	0.1322	0.1398	0.5583	0.005
Mof_C 	C 	0.16434	0.1578	0.5922	-0.144
Mof_C 	C 	0.16608	0.18612	0.61382	0.022
Mof_H 	H 	0.186	0.1862	0.6268	0.011
Mof_C 	C 	0.13939	0.21371	0.61652	-0.083
Mof_C 	C 	0.19373	0.12576	0.59074	0.406
Mof_C 	C 	0.18477	0.09494	0.56787	-0.193
Mof_H 	H 	0.1622	0.0822	0.572	0.051
Mof_H 	H 	0.204	0.0759	0.5678	0.044
Mof_H 	H 	0.1824	0.1073	0.5494	0.097
Mof_C 	C 	0.22957	0.1459	0.58409	-0.303
Mof_H 	H 	0.2353	0.1653	0.5985	0.078
Mof_H 	H 	0.2272	0.1583	0.5656	0.046
Mof_H 	H 	0.2488	0.1268	0.584	0.09
Mof_C 	C 	0.19907	0.1039	0.6196	-0.349
Mof_H 	H 	0.2048	0.1225	0.6346	0.105
Mof_H 	H 	0.2187	0.0854	0.6184	0.11
Mof_H 	H 	0.177	0.0902	0.6237	0.088
Mof_C 	C 	0.2022	0.1271	0.55889	-0.459
Mof_H 	H 	0.2129	0.152	0.5545	0.131
Mof_H 	H 	0.18	0.1238	0.5475	0.091
Mof_H 	H 	0.2189	0.1064	0.5547	0.148
Mof_C 	C 	0.1764	0.08673	0.5991	-0.343
Mof_H 	H 	0.1716	0.087	0.6191	0.09
Mof_H 	H 	0.1929	0.0657	0.5952	0.113
Mof_H 	H 	0.154	0.083	0.588	0.1
Mof_C 	C 	0.2285	0.1329	0.60967	-0.17
Mof_H 	H 	0.2226	0.1319	0.6295	0.039
Mof_H 	H 	0.2384	0.1582	0.6054	0.033
Mof_H 	H 	0.2462	0.113	0.6059	0.037
Mof_C 	C 	0.13156	0.31994	0.62039	0.197
Mof_C 	C 	0.15701	0.29134	0.62991	-0.082
Mof_C 	C 	0.19399	0.29966	0.62889	0.019
Mof_H 	H 	0.2108	0.2808	0.6351	0.016
Mof_C 	C 	0.20694	0.33647	0.61863	-0.13
Mof_C 	C 	0.18072	0.3627	0.61002	0.04
Mof_H 	H 	0.1885	0.387	0.6035	0.007
Mof_C 	C 	0.14446	0.35633	0.61019	-0.1
Mof_C 	C 	0.24806	0.34479	0.61806	0.351
Mof_C 	C 	0.27104	0.31031	0.62847	-0.437
Mof_H 	H 	0.2639	0.2873	0.6178	0.097
Mof_H 	H 	0.2675	0.306	0.6485	0.179
Mof_H 	H 	0.2963	0.3158	0.6257	0.135
Mof_C 	C 	0.257	0.3516	0.58658	0.222
Mof_H 	H 	0.253	0.3279	0.5759	-0.139
Mof_H 	H 	0.2821	0.3594	0.5856	-0.068
Mof_H 	H 	0.2416	0.372	0.5786	-0.223
Mof_C 	C 	0.2554	0.38386	0.63239	-0.667
Mof_H 	H 	0.2393	0.4033	0.624	0.085
Mof_H 	H 	0.2803	0.3915	0.6297	0.209
Mof_H 	H 	0.2514	0.3817	0.6525	0.404
Mof_C 	C 	0.2674	0.3117	0.60297	-0.445
Mof_H 	H 	0.293	0.3173	0.6028	0.115
Mof_H 	H 	0.2576	0.3094	0.5836	0.18
Mof_H 	H 	0.2636	0.2875	0.613	0.111
Mof_C 	C 	0.2565	0.38524	0.60524	-0.475
Mof_H 	H 	0.2438	0.4052	0.6154	0.206
Mof_H 	H 	0.2487	0.3857	0.5853	0.28
Mof_H 	H 	0.2823	0.3901	0.607	0.116
Mof_C 	C 	0.2615	0.3453	0.64983	0.294
Mof_H 	H 	0.2495	0.366	0.6597	-0.3
Mof_H 	H 	0.2874	0.3494	0.651	-0.084
Mof_H 	H 	0.2559	0.3206	0.6586	-0.129
Mof_C 	C 	0.96081	0.58121	0.68132	0.297
Mof_C 	C 	0.93202	0.6048	0.66925	-0.234
Mof_C 	C 	0.93909	0.63007	0.6474	0.39
Mof_H 	H 	0.9194	0.6433	0.6387	-0.099
Mof_C 	C 	0.97368	0.63755	0.6372	-0.7
Mof_C 	C 	0.00111	0.61209	0.64861	0.384
Mof_H 	H 	0.0241	0.6129	0.6409	-0.099
Mof_C 	C 	0.99547	0.58665	0.6703	-0.236
Mof_C 	C 	0.97831	0.66646	0.6117	1.188
Mof_C 	C 	0.9561	0.6496	0.58575	0.307
Mof_H 	H 	0.9666	0.6252	0.5801	-0.716
Mof_H 	H 	0.9566	0.6678	0.57	-0.103
Mof_H 	H 	0.9313	0.6455	0.5909	-0.218
Mof_C 	C 	0.01891	0.6719	0.6048	-3.198
Mof_H 	H 	0.0283	0.6477	0.5975	1.336
Mof_H 	H 	0.0326	0.6792	0.6219	1.359
Mof_H 	H 	0.021	0.6921	0.5906	0.914
Mof_C 	C 	0.9648	0.70577	0.62317	-1.842
Mof_H 	H 	0.9802	0.7138	0.6392	0.673
Mof_H 	H 	0.9402	0.7029	0.6292	-0.418
Mof_H 	H 	0.9654	0.7252	0.6083	0.382
Mof_C 	C 	0.98624	0.66794	0.6151	0.923
Mof_C 	C 	0.95598	0.6941	0.6018	-2.604
Mof_H 	H 	0.9373	0.6779	0.5929	0.751
Mof_H 	H 	0.966	0.7109	0.5877	0.687
Mof_H 	H 	0.9457	0.7097	0.6166	1.864
Mof_C 	C 	0.0017	0.6408	0.59209	-1.543
Mof_H 	H 	0.0206	0.6246	0.6007	0.016
Mof_H 	H 	0.0116	0.6564	0.5772	0.451
Mof_H 	H 	0.9826	0.6244	0.5841	1.001
Mof_C 	C 	0.0159	0.6944	0.6292	0.195
Mof_H 	H 	0.035	0.6785	0.6376	-0.652
Mof_H 	H 	0.0054	0.7101	0.6438	-0.204
Mof_H 	H 	0.0257	0.7113	0.6149	-0.093
Mof_C 	C 	0.0343	0.55999	0.74133	0.16
Mof_C 	C 	0.04699	0.57544	0.71532	-0.058
Mof_C 	C 	0.07365	0.60336	0.71437	-0.042
Mof_H 	H 	0.0812	0.6119	0.6966	0.036
Mof_C 	C 	0.08978	0.61928	0.73917	-0.021
Mof_C 	C 	0.07722	0.60577	0.76478	-0.052
Mof_H 	H 	0.0865	0.6168	0.7818	0.017
Mof_C 	C 	0.05112	0.57625	0.76623	-0.057
Mof_C 	C 	0.1196	0.65136	0.73849	0.077
Mof_C 	C 	0.1061	0.68513	0.75673	-1.376
Mof_H 	H 	0.0851	0.6969	0.7473	0.464
Mof_H 	H 	0.1251	0.7044	0.7592	0.394
Mof_H 	H 	0.0997	0.6754	0.7752	0.421
Mof_C 	C 	0.15303	0.6296	0.75071	-0.397
Mof_H 	H 	0.1594	0.6091	0.7378	-0.115
Mof_H 	H 	0.1477	0.6186	0.769	0.247
Mof_H 	H 	0.1731	0.6476	0.753	0.13
Mof_C 	C 	0.1299	0.6655	0.70836	0.244
Mof_H 	H 	0.1097	0.6795	0.6995	-0.163
Mof_H 	H 	0.1356	0.6432	0.6968	-0.058
Mof_H 	H 	0.1507	0.6824	0.7101	-0.083
Mof_C 	C 	0.12038	0.64932	0.73384	0.053
Mof_C 	C 	0.1362	0.6638	0.76258	0.862
Mof_H 	H 	0.1176	0.677	0.7727	-0.104
Mof_H 	H 	0.156	0.6816	0.7594	-0.301
Mof_H 	H 	0.1452	0.6419	0.7737	-0.347
Mof_C 	C 	0.15004	0.628	0.71744	-0.668
Mof_H 	H 	0.1399	0.619	0.6993	0.218
Mof_H 	H 	0.159	0.6061	0.7285	0.386
Mof_H 	H 	0.1698	0.6458	0.7142	0.208
Mof_C 	C 	0.1055	0.68501	0.71642	-0.142
Mof_H 	H 	0.0954	0.6763	0.6982	0.166
Mof_H 	H 	0.1251	0.7031	0.7134	0.059
Mof_H 	H 	0.0869	0.6978	0.7268	-0.026
Mof_C 	C 	0.9654	0.57542	0.8009	0.126
Mof_C 	C 	0.00239	0.58628	0.80912	-0.021
Mof_C 	C 	0.00915	0.61918	0.82502	-0.086
Mof_H 	H 	0.0333	0.6239	0.8309	0.02
Mof_C 	C 	0.98277	0.64714	0.8336	-0.011
Mof_C 	C 	0.94776	0.63615	0.82415	-0.056
Mof_H 	H 	0.9286	0.6526	0.8286	0.037
Mof_C 	C 	0.93903	0.60198	0.8083	-0.043
Mof_C 	C 	0.99463	0.6802	0.8548	-0.056
Mof_C 	C 	0.02098	0.7046	0.83762	2.217
Mof_H 	H 	0.0426	0.6896	0.8346	1.343
Mof_H 	H 	0.0274	0.728	0.8481	-0.552
Mof_H 	H 	0.0095	0.7115	0.8194	-1.029
Mof_C 	C 	0.96051	0.7044	0.8594	-0.138
Mof_H 	H 	0.9437	0.6894	0.8702	0.243
Mof_H 	H 	0.9492	0.7113	0.8412	0.148
Mof_H 	H 	0.9671	0.7279	0.8698	0.018
Mof_C 	C 	0.0117	0.6623	0.88238	-0.229
Mof_H 	H 	0.033	0.6475	0.8779	-0.021
Mof_H 	H 	0.9943	0.6454	0.8909	0.085
Mof_H 	H 	0.0185	0.6829	0.8956	0.057
Mof_C 	C 	0.99088	0.68647	0.84905	0.003
Mof_C 	C 	0.03056	0.6954	0.8582	-1.095
Mof_H 	H 	0.0394	0.6758	0.8715	0.471
Mof_H 	H 	0.032	0.7207	0.8672	0.496
Mof_H 	H 	0.0452	0.6953	0.8416	-1.793
Mof_C 	C 	0.9756	0.7169	0.82781	-1.544
Mof_H 	H 	0.9508	0.7106	0.8225	0.407
Mof_H 	H 	0.9899	0.717	0.811	0.861
Mof_H 	H 	0.9766	0.7424	0.8366	0.461
Mof_C 	C 	0.9685	0.6835	0.87602	0.028
Mof_H 	H 	0.9791	0.664	0.8887	0.02
Mof_H 	H 	0.9439	0.6762	0.8706	-0.212
Mof_H 	H 	0.9685	0.7084	0.8856	-0.015
Mof_C 	C 	0.89025	0.59749	0.74003	0.174
Mof_C 	C 	0.8878	0.61862	0.76527	-0.06
Mof_C 	C 	0.87978	0.6581	0.76587	-0.039
Mof_H 	H 	0.877	0.6699	0.7836	0.028
Mof_C 	C 	0.87558	0.68139	0.74115	-0.028
Mof_C 	C 	0.87887	0.65779	0.71463	-0.034
Mof_H 	H 	0.8766	0.6706	0.697	0.03
Mof_C 	C 	0.88506	0.61818	0.71469	-0.07
Mof_C 	C 	0.86706	0.72644	0.74014	0.039
Mof_C 	C 	0.8697	0.7473	0.76956	-0.097
Mof_H 	H 	0.8942	0.745	0.7776	-0.225
Mof_H 	H 	0.8531	0.7353	0.7823	0.034
Mof_H 	H 	0.8636	0.7745	0.7671	0.022
Mof_C 	C 	0.89354	0.7462	0.71963	0.363
Mof_H 	H 	0.9181	0.7441	0.7275	-0.125
Mof_H 	H 	0.8872	0.7733	0.7173	-0.053
Mof_H 	H 	0.8918	0.7333	0.7013	0.226
Mof_C 	C 	0.82805	0.73	0.7272	-0.102
Mof_H 	H 	0.8264	0.717	0.709	0.013
Mof_H 	H 	0.8219	0.7572	0.7248	0.032
Mof_H 	H 	0.8114	0.718	0.7399	0.061
Mof_C 	C 	0.8659	0.72579	0.74391	-0.013
Mof_C 	C 	0.89461	0.7469	0.76362	0.044
Mof_H 	H 	0.918	0.7455	0.7552	-0.01
Mof_H 	H 	0.8959	0.7344	0.7821	0.207
Mof_H 	H 	0.8877	0.7739	0.7658	0.026
Mof_C 	C 	0.8629	0.7452	0.71416	-0.199
Mof_H 	H 	0.8862	0.744	0.7054	-0.344
Mof_H 	H 	0.8558	0.7722	0.7162	0.065
Mof_H 	H 	0.845	0.7317	0.7023	0.081
Mof_C 	C 	0.82858	0.7281	0.75743	-0.262
Mof_H 	H 	0.83	0.7161	0.7761	0.085
Mof_H 	H 	0.8107	0.7147	0.7454	0.046
Mof_H 	H 	0.8216	0.7551	0.7593	0.088
Mof_C 	C 	0.68741	0.49554	0.52421	0.164
Mof_C 	C 	0.72067	0.51417	0.51818	-0.047
Mof_C 	C 	0.72179	0.55477	0.51215	-0.06
Mof_H 	H 	0.7442	0.5661	0.5085	0.01
Mof_C 	C 	0.69148	0.5781	0.51146	-0.014
Mof_C 	C 	0.65812	0.55883	0.51782	-0.134
Mof_H 	H 	0.6415	0.563	0.5014	0.06
Mof_H 	H 	0.6481	0.573	0.5337	0.064
Mof_C 	C 	0.65609	0.51973	0.52452	-0.029
Mof_C 	C 	0.69134	0.62068	0.50163	0.069
Mof_C 	C 	0.73027	0.6335	0.49555	0.215
Mof_H 	H 	0.7387	0.6193	0.4794	-0.26
Mof_H 	H 	0.746	0.6283	0.5121	-0.121
Mof_H 	H 	0.7305	0.6611	0.4914	-0.084
Mof_C 	C 	0.66843	0.6258	0.4734	-0.721
Mof_H 	H 	0.6794	0.6112	0.4584	0.46
Mof_H 	H 	0.6675	0.6531	0.4683	0.194
Mof_H 	H 	0.6441	0.6163	0.4759	0.202
Mof_C 	C 	0.6768	0.6425	0.52716	-0.094
Mof_H 	H 	0.6757	0.6701	0.523	0.022
Mof_H 	H 	0.6927	0.6382	0.5437	0.013
Mof_H 	H 	0.6528	0.6331	0.5309	0.022
Mof_C 	C 	0.69449	0.6218	0.50487	0.085
Mof_C 	C 	0.7108	0.6245	0.47496	0.082
Mof_H 	H 	0.6931	0.6156	0.4606	-0.284
Mof_H 	H 	0.7322	0.6083	0.4745	0.182
Mof_H 	H 	0.7173	0.6512	0.4711	-0.02
Mof_C 	C 	0.722	0.6356	0.52812	-0.642
Mof_H 	H 	0.726	0.6633	0.526	0.18
Mof_H 	H 	0.7446	0.6219	0.5263	0.249
Mof_H 	H 	0.7126	0.6305	0.5467	0.197
Mof_C 	C 	0.65836	0.6442	0.5055	-0.059
Mof_H 	H 	0.6419	0.6345	0.4905	0.033
Mof_H 	H 	0.6627	0.6716	0.5025	-0.017
Mof_H 	H 	0.6477	0.6404	0.5238	0.019
Mof_C 	C 	0.60119	0.4416	0.49529	0.194
Mof_C 	C 	0.59473	0.4808	0.50255	-0.084
Mof_C 	C 	0.57126	0.50366	0.4849	0.002
Mof_H 	H 	0.567	0.5297	0.4898	0.014
Mof_C 	C 	0.55401	0.48793	0.45993	-0.119
Mof_C 	C 	0.55989	0.44991	0.45394	0.02
Mof_H 	H 	0.5479	0.4389	0.4379	0.007
Mof_C 	C 	0.58399	0.42583	0.47139	-0.089
Mof_C 	C 	0.528	0.51142	0.43908	0.309
Mof_C 	C 	0.52	0.4895	0.41091	0.146
Mof_H 	H 	0.5084	0.465	0.4148	-0.138
Mof_H 	H 	0.5424	0.4848	0.4016	0.364
Mof_H 	H 	0.504	0.5051	0.3986	-0.03
Mof_C 	C 	0.49236	0.5197	0.45415	0.04
Mof_H 	H 	0.4803	0.4953	0.4579	0.413
Mof_H 	H 	0.4767	0.5357	0.442	-0.05
Mof_H 	H 	0.4978	0.5331	0.4719	0.117
Mof_C 	C 	0.5464	0.55056	0.4334	-0.796
Mof_H 	H 	0.5513	0.5639	0.4513	0.242
Mof_H 	H 	0.5306	0.5664	0.4212	0.253
Mof_H 	H 	0.5689	0.5461	0.4242	0.132
Mof_C 	C 	0.52163	0.51096	0.44603	0.08
Mof_C 	C 	0.48769	0.4845	0.4422	-1.416
Mof_H 	H 	0.4785	0.4785	0.4607	0.129
Mof_H 	H 	0.4942	0.4606	0.4328	0.515
Mof_H 	H 	0.4692	0.4979	0.4308	0.424
Mof_C 	C 	0.5113	0.54879	0.46165	-0.566
Mof_H 	H 	0.5028	0.5424	0.4803	0.072
Mof_H 	H 	0.4923	0.5621	0.4507	0.191
Mof_H 	H 	0.5323	0.5655	0.4637	0.151
Mof_C 	C 	0.5353	0.5198	0.41635	0.003
Mof_H 	H 	0.5415	0.4957	0.4071	-0.438
Mof_H 	H 	0.5564	0.5363	0.4181	0.177
Mof_H 	H 	0.5165	0.5329	0.4051	0.006
Mof_C 	C 	0.66328	0.36707	0.45589	0.189
Mof_C 	C 	0.62897	0.37032	0.44278	-0.08
Mof_C 	C 	0.62421	0.3692	0.41309	-0.007
Mof_H 	H 	0.6007	0.3714	0.4049	0.014
Mof_C 	C 	0.65339	0.3649	0.39496	-0.078
Mof_C 	C 	0.68797	0.35846	0.40819	-0.011
Mof_H 	H 	0.7079	0.3535	0.397	0.022
Mof_C 	C 	0.69264	0.35945	0.43775	-0.067
Mof_C 	C 	0.6498	0.36483	0.3616	0.098
Mof_C 	C 	0.61116	0.3742	0.3502	0.091
Mof_H 	H 	0.6048	0.4004	0.3557	-0.237
Mof_H 	H 	0.5943	0.356	0.3581	-0.027
Mof_H 	H 	0.61	0.3721	0.3296	-0.052
Mof_C 	C 	0.67676	0.39509	0.35033	-1.074
Mof_H 	H 	0.701	0.389	0.3576	0.162
Mof_H 	H 	0.6701	0.4208	0.3566	0.346
Mof_H 	H 	0.676	0.3944	0.3297	0.304
Mof_C 	C 	0.6585	0.32289	0.3523	-0.44
Mof_H 	H 	0.6827	0.3161	0.3592	0.193
Mof_H 	H 	0.657	0.3212	0.3317	0.142
Mof_H 	H 	0.6413	0.3051	0.3602	-0.015
Mof_C 	C 	0.64619	0.36071	0.36205	0.156
Mof_C 	C 	0.68161	0.3584	0.34574	0.354
Mof_H 	H 	0.696	0.3815	0.3496	0.148
Mof_H 	H 	0.6758	0.3567	0.3255	-0.139
Mof_H 	H 	0.6952	0.3356	0.3519	-0.168
Mof_C 	C 	0.6229	0.32419	0.3561	-0.376
Mof_H 	H 	0.6367	0.3012	0.3617	0.234
Mof_H 	H 	0.6162	0.3228	0.336	0.126
Mof_H 	H 	0.6013	0.3255	0.367	0.146
Mof_C 	C 	0.6259	0.39858	0.3537	-0.274
Mof_H 	H 	0.6414	0.4207	0.3577	0.061
Mof_H 	H 	0.6042	0.4007	0.3645	0.307
Mof_H 	H 	0.6192	0.398	0.3335	0.125
Mof_C 	C 	0.74958	0.4201	0.48433	0.188
Mof_C 	C 	0.75066	0.40214	0.45785	-0.093
Mof_C 	C 	0.7622	0.423	0.43374	0.043
Mof_H 	H 	0.7626	0.4102	0.4161	0.007
Mof_C 	C 	0.77286	0.4613	0.43537	-0.172
Mof_C 	C 	0.77128	0.47901	0.46129	0.036
Mof_H 	H 	0.7781	0.5052	0.4628	-0.025
Mof_C 	C 	0.7598	0.45949	0.48609	-0.091
Mof_C 	C 	0.78613	0.48268	0.4092	0.42
Mof_C 	C 	0.82742	0.4752	0.4107	-0.49
Mof_H 	H 	0.8379	0.4859	0.4282	0.119
Mof_H 	H 	0.8383	0.4876	0.3947	0.154
Mof_H 	H 	0.8319	0.4475	0.4101	0.075
Mof_C 	C 	0.7805	0.52681	0.4111	0.09
Mof_H 	H 	0.788	0.5357	0.43	0.194
Mof_H 	H 	0.7551	0.5328	0.4075	-0.069
Mof_H 	H 	0.7948	0.5397	0.3972	-0.009
Mof_C 	C 	0.7756	0.464	0.38067	-0.224
Mof_H 	H 	0.785	0.4794	0.3654	0.046
Mof_H 	H 	0.7494	0.4628	0.3784	0.063
Mof_H 	H 	0.7855	0.438	0.38	0.157
Mof_C 	C 	0.8079	0.51974	0.415	-0.407
Mof_H 	H 	0.8149	0.5309	0.3972	0.134
Mof_H 	H 	0.8294	0.5136	0.4267	0.115
Mof_H 	H 	0.7933	0.5382	0.425	-0.14
Mof_C 	C 	0.75152	0.4911	0.39105	-0.71
Mof_H 	H 	0.7383	0.4671	0.3877	0.2
Mof_H 	H 	0.7579	0.5022	0.373	0.224
Mof_H 	H 	0.7365	0.5093	0.401	0.233
Mof_C 	C 	0.8091	0.4557	0.39098	-0.105
Mof_H 	H 	0.7959	0.4318	0.3869	-0.078
Mof_H 	H 	0.8317	0.4496	0.4013	0.103
Mof_H 	H 	0.8142	0.4685	0.3733	0.027
Mof_C 	C 	0.87426	0.02691	0.54484	0.171
Mof_C 	C 	0.91167	0.01909	0.54351	-0.085
Mof_C 	C 	0.92518	0.00358	0.51848	0.028
Mof_H 	H 	0.95	0.9984	0.5179	0.003
Mof_C 	C 	0.9031	0.9955	0.4944	-0.152
Mof_C 	C 	0.86581	0.00343	0.49624	0.026
Mof_H 	H 	0.8501	0.9984	0.4805	0.008
Mof_C 	C 	0.8519	0.0183	0.52067	-0.083
Mof_C 	C 	0.91876	0.97869	0.46657	0.395
Mof_C 	C 	0.95988	0.9845	0.4652	-0.26
Mof_H 	H 	0.9657	0.0116	0.4684	-0.013
Mof_H 	H 	0.9676	0.9767	0.4466	0.063
Mof_H 	H 	0.9722	0.9688	0.4797	0.072
Mof_C 	C 	0.9052	0.93672	0.46184	0.167
Mof_H 	H 	0.8791	0.936	0.4631	-0.081
Mof_H 	H 	0.9162	0.9199	0.4763	0.088
Mof_H 	H 	0.9117	0.9279	0.4432	-0.042
Mof_C 	C 	0.904	0.0042	0.44155	-0.482
Mof_H 	H 	0.8778	0.0027	0.4404	0.201
Mof_H 	H 	0.9135	0.9949	0.4239	0.163
Mof_H 	H 	0.9113	0.0309	0.4447	0.147
Mof_C 	C 	0.89105	0.9735	0.44121	-0.273
Mof_H 	H 	0.872	0.956	0.4466	0.09
Mof_H 	H 	0.9031	0.9627	0.4251	0.076
Mof_H 	H 	0.8807	0.9985	0.436	0.013
Mof_C 	C 	0.9352	0.93732	0.4727	-0.864
Mof_H 	H 	0.9528	0.9389	0.4885	0.276
Mof_H 	H 	0.9469	0.928	0.456	0.278
Mof_H 	H 	0.9161	0.9195	0.4775	0.115
Mof_C 	C 	0.94965	0.0066	0.4585	-0.148
Mof_H 	H 	0.9667	0.0095	0.4746	0.139
Mof_H 	H 	0.9396	0.0318	0.4534	0.03
Mof_H 	H 	0.962	0.996	0.4425	0.067
Mof_C 	C 	0.77764	0.00084	0.57131	0.152
Mof_C 	C 	0.78341	0.99487	0.54168	-0.066
Mof_C 	C 	0.7715	0.96181	0.52711	0.01
Mof_H 	H 	0.7761	0.9595	0.5077	0.018
Mof_C 	C 	0.75363	0.93299	0.53968	-0.109
Mof_C 	C 	0.74879	0.93719	0.56938	0.001
Mof_H 	H 	0.7372	0.9171	0.579	0.021
Mof_C 	C 	0.76029	0.96913	0.58464	-0.062
Mof_C 	C 	0.73715	0.89677	0.52474	0.283
Mof_C 	C 	0.7527	0.85907	0.53801	-0.224
Mof_H 	H 	0.7484	0.8587	0.5582	0.078
Mof_H 	H 	0.7785	0.8579	0.5353	-0.035
Mof_H 	H 	0.741	0.8369	0.5289	0.046
Mof_C 	C 	0.69579	0.8943	0.52625	-0.577
Mof_H 	H 	0.6893	0.8932	0.546	-0.075
Mof_H 	H 	0.6871	0.8712	0.5164	0.16
Mof_H 	H 	0.6849	0.9171	0.5173	0.286
Mof_C 	C 	0.7434	0.8985	0.49279	-0.354
Mof_H 	H 	0.7691	0.9001	0.4898	0.121
Mof_H 	H 	0.7315	0.9212	0.4846	-0.131
Mof_H 	H 	0.7337	0.8753	0.4837	0.092
Mof_C 	C 	0.7123	0.8711	0.54301	-0.042
Mof_H 	H 	0.6925	0.8867	0.5496	0.232
Mof_H 	H 	0.7263	0.861	0.5593	-0.019
Mof_H 	H 	0.7028	0.8497	0.5316	-0.022
Mof_C 	C 	0.76881	0.8726	0.5141	-0.255
Mof_H 	H 	0.7595	0.8495	0.5046	0.057
Mof_H 	H 	0.7846	0.8651	0.5302	0.143
Mof_H 	H 	0.7823	0.8879	0.5009	0.043
Mof_C 	C 	0.7139	0.9126	0.49915	0.17
Mof_H 	H 	0.6941	0.9278	0.5061	-0.179
Mof_H 	H 	0.7044	0.8911	0.4879	-0.057
Mof_H 	H 	0.7288	0.9289	0.4875	0.173
Mof_C 	C 	0.82307	0.97163	0.64734	0.164
Mof_C 	C 	0.79327	0.94785	0.6373	-0.067
Mof_C 	C 	0.79403	0.90738	0.63827	0.007
Mof_H 	H 	0.7736	0.8934	0.6317	0.018
Mof_C 	C 	0.8252	0.88666	0.64907	-0.121
Mof_C 	C 	0.85447	0.9086	0.65894	0.012
Mof_H 	H 	0.8754	0.8958	0.666	0.005
Mof_C 	C 	0.85391	0.94973	0.65869	-0.069
Mof_C 	C 	0.8264	0.84173	0.64953	0.345
Mof_C 	C 	0.8268	0.8347	0.68208	-0.831
Mof_H 	H 	0.8469	0.8488	0.6911	0.266
Mof_H 	H 	0.8296	0.8072	0.6859	0.257
Mof_H 	H 	0.8043	0.8438	0.6895	0.132
Mof_C 	C 	0.86357	0.8294	0.6387	-0.09
Mof_H 	H 	0.8827	0.8415	0.6503	0.242
Mof_H 	H 	0.8654	0.8375	0.6191	0
Mof_H 	H 	0.8659	0.8014	0.6399	0.044
Mof_C 	C 	0.7967	0.8221	0.6306	-0.256
Mof_H 	H 	0.7731	0.8295	0.6371	0.074
Mof_H 	H 	0.7993	0.7941	0.6319	0.059
Mof_H 	H 	0.7988	0.8303	0.6111	0.017
Mof_C 	C 	0.86308	0.823	0.6587	-0.189
Mof_H 	H 	0.8698	0.8309	0.678	0.048
Mof_H 	H 	0.8815	0.8315	0.646	-0.171
Mof_H 	H 	0.8609	0.795	0.6579	0.039
Mof_C 	C 	0.79823	0.8266	0.67045	0.115
Mof_H 	H 	0.8041	0.8366	0.6893	0.092
Mof_H 	H 	0.7988	0.7985	0.6709	-0.048
Mof_H 	H 	0.7743	0.8354	0.6642	-0.052
Mof_C 	C 	0.819	0.8271	0.61897	-0.382
Mof_H 	H 	0.8196	0.799	0.6188	0.102
Mof_H 	H 	0.8374	0.8372	0.6068	0.093
Mof_H 	H 	0.7954	0.836	0.6121	0.166
Mof_C 	C 	0.91739	0.997	0.62073	0.17
Mof_C 	C 	0.92241	0.96916	0.64263	-0.062
Mof_C 	C 	0.95088	0.94292	0.64313	-0.013
Mof_H 	H 	0.9536	0.9257	0.6585	0.027
Mof_C 	C 	0.97568	0.94112	0.62161	-0.079
Mof_C 	C 	0.97087	0.96876	0.59971	-0.01
Mof_H 	H 	0.987	0.9688	0.5849	0.023
Mof_C 	C 	0.94294	0.99625	0.59924	-0.068
Mof_C 	C 	0.00561	0.91019	0.62204	0.132
Mof_C 	C 	0.03173	0.9138	0.59801	-0.167
Mof_H 	H 	0.0188	0.9094	0.58	0.049
Mof_H 	H 	0.0508	0.8946	0.6006	0.041
Mof_H 	H 	0.0422	0.9396	0.5982	0.057
Mof_C 	C 	0.9893	0.86936	0.6231	-0.346
Mof_H 	H 	0.9747	0.8647	0.6058	0.088
Mof_H 	H 	0.9742	0.8673	0.6393	0.097
Mof_H 	H 	0.0085	0.8503	0.6247	0.105
Mof_C 	C 	0.0284	0.9174	0.64919	-0.17
Mof_H 	H 	0.0133	0.9156	0.6654	0.079
Mof_H 	H 	0.039	0.9432	0.6485	0.025
Mof_H 	H 	0.0475	0.8982	0.6509	0.065
Mof_C 	C 	0.00753	0.91176	0.62427	0.124
Mof_C 	C 	0.0023	0.8861	0.5974	-0.19
Mof_H 	H 	0.9805	0.8707	0.5988	0.04
Mof_H 	H 	0.0229	0.8689	0.5959	0.06
Mof_H 	H 	0.0002	0.9025	0.5807	0.048
Mof_C 	C 	0.04203	0.9365	0.6227	-0.383
Mof_H 	H 	0.0449	0.9524	0.6396	0.129
Mof_H 	H 	0.0401	0.9531	0.6061	0.1
Mof_H 	H 	0.0628	0.9196	0.6213	0.125
Mof_C 	C 	0.0104	0.886	0.65124	-0.173
Mof_H 	H 	0.9888	0.8703	0.6523	0.048
Mof_H 	H 	0.013	0.9023	0.668	0.018
Mof_H 	H 	0.0313	0.8691	0.6503	0.045
Mof_C 	C 	0.00183	0.07214	0.87633	0.198
Mof_C 	C 	0.02046	0.05522	0.85431	-0.08
Mof_C 	C 	0.03208	0.0179	0.85349	0.005
Mof_H 	H 	0.0446	0.0092	0.8377	0.025
Mof_C 	C 	0.02569	0.99191	0.87599	-0.083
Mof_C 	C 	0.00592	0.00836	0.89874	0.002
Mof_H 	H 	0.0002	0.9923	0.9141	0.016
Mof_C 	C 	0.99501	0.04677	0.89903	-0.081
Mof_C 	C 	0.0399	0.949	0.87667	0.134
Mof_C 	C 	0.0275	0.9239	0.90153	-0.083
Mof_H 	H 	0.0375	0.9344	0.9193	0.008
Mof_H 	H 	0.0358	0.8975	0.8992	0.009
Mof_H 	H 	0.0013	0.9242	0.9017	0.158
Mof_C 	C 	0.022	0.9289	0.85051	-0.297
Mof_H 	H 	0.0283	0.9427	0.8334	0.112
Mof_H 	H 	0.996	0.929	0.8521	0.023
Mof_H 	H 	0.0305	0.9023	0.8495	0.1
Mof_C 	C 	0.08158	0.9482	0.8751	-0.205
Mof_H 	H 	0.0925	0.9609	0.8917	-0.003
Mof_H 	H 	0.0886	0.9616	0.8581	0.129
Mof_H 	H 	0.0898	0.9215	0.8745	0.072
Mof_C 	C 	0.04007	0.94934	0.8782	0.123
Mof_C 	C 	0.00723	0.9224	0.88	-0.318
Mof_H 	H 	0.9936	0.9294	0.8963	-0.043
Mof_H 	H 	0.0154	0.8957	0.8819	0.102
Mof_H 	H 	0.992	0.925	0.8628	0.148
Mof_C 	C 	0.0649	0.944	0.90508	-0.508
Mof_H 	H 	0.0857	0.961	0.904	0.195
Mof_H 	H 	0.073	0.9172	0.9063	0.167
Mof_H 	H 	0.0516	0.9504	0.9218	0.166
Mof_C 	C 	0.061	0.9372	0.85204	-0.049
Mof_H 	H 	0.0819	0.9538	0.8504	-0.052
Mof_H 	H 	0.0454	0.9397	0.8351	0.001
Mof_H 	H 	0.0688	0.9104	0.8542	0.014
Mof_C 	C 	0.00869	0.12667	0.94883	0.228
Mof_C 	C 	0.00267	0.08728	0.95141	-0.116
Mof_C 	C 	0.02124	0.0656	0.97266	0.078
Mof_H 	H 	0.0165	0.0389	0.974	-0.009
Mof_C 	C 	0.04633	0.08216	0.9917	-0.205
Mof_C 	C 	0.05121	0.12217	0.98951	0.08
Mof_H 	H 	0.0674	0.1345	0.0025	-0.012
Mof_C 	C 	0.03289	0.14494	0.96873	-0.122
Mof_C 	C 	0.06641	0.05671	0.01405	0.51
Mof_C 	C 	0.04481	0.0596	0.04097	-0.557
Mof_H 	H 	0.0206	0.0498	0.0371	-0.031
Mof_H 	H 	0.0436	0.0865	0.0469	0.18
Mof_H 	H 	0.0566	0.0443	0.056	0.167
Mof_C 	C 	0.10508	0.072	0.01921	-0.287
Mof_H 	H 	0.1181	0.0698	0.0018	0.133
Mof_H 	H 	0.1173	0.0568	0.0341	0.073
Mof_H 	H 	0.1043	0.099	0.025	0.042
Mof_C 	C 	0.0668	0.01248	0.00568	-0.419
Mof_H 	H 	0.0802	0.0091	0.9886	0.121
Mof_H 	H 	0.0421	0.0035	0.0022	0.123
Mof_H 	H 	0.0781	0.9976	0.0211	0.14
Mof_C 	C 	0.0448	0.0256	0.0288	-0.3
Mof_H 	H 	0.0324	0.0093	0.0147	0.071
Mof_H 	H 	0.0272	0.0378	0.0406	0.291
Mof_H 	H 	0.061	0.0097	0.0407	0.078
Mof_C 	C 	0.086	0.0824	0.03617	-0.239
Mof_H 	H 	0.0997	0.1022	0.0266	0.09
Mof_H 	H 	0.1023	0.0667	0.048	0.078
Mof_H 	H 	0.0684	0.0948	0.0479	0.054
Mof_C 	C 	0.10059	0.0424	0.0001	-0.34
Mof_H 	H 	0.1125	0.0642	0.9913	0.038
Mof_H 	H 	0.0941	0.0232	0.9858	0.086
Mof_H 	H 	0.1169	0.0309	0.0144	0.118
Mof_C 	C 	0.07328	0.20512	0.91838	0.337
Mof_C 	C 	0.07675	0.20389	0.94796	-0.306
Mof_C 	C 	0.11036	0.21077	0.96185	0.513
Mof_H 	H 	0.1121	0.2104	0.9818	-0.19
Mof_C 	C 	0.14122	0.2181	0.94692	-0.951
Mof_C 	C 	0.13772	0.21967	0.91738	0.503
Mof_H 	H 	0.1581	0.225	0.9069	-0.198
Mof_C 	C 	0.10422	0.21341	0.90304	-0.294
Mof_C 	C 	0.1778	0.22629	0.96164	2.049
Mof_C 	C 	0.17683	0.2257	0.99386	-2.582
Mof_H 	H 	0.1597	0.2449	-0	0.774
Mof_H 	H 	0.2007	0.2316	0.002	0.749
Mof_H 	H 	0.1695	0.2001	0.0001	0.77
Mof_C 	C 	0.20517	0.19548	0.95482	-2.573
Mof_H 	H 	0.1965	0.1703	0.9608	0.771
Mof_H 	H 	0.228	0.2012	0.9648	0.752
Mof_H 	H 	0.2085	0.1951	0.9345	0.774
Mof_C 	C 	0.19355	0.26427	0.95158	-2.638
Mof_H 	H 	0.1771	0.2853	0.9554	0.792
Mof_H 	H 	0.1971	0.2628	0.9313	0.793
Mof_H 	H 	0.2166	0.2689	0.9616	0.775
Mof_C 	C 	0.06755	0.14986	0.84468	0.197
Mof_C 	C 	0.10038	0.16797	0.85271	-0.104
Mof_C 	C 	0.13324	0.14887	0.85001	0.057
Mof_H 	H 	0.1549	0.1618	0.8551	-0.002
Mof_C 	C 	0.13438	0.11072	0.83988	-0.172
Mof_C 	C 	0.10217	0.09363	0.8318	0.058
Mof_H 	H 	0.1025	0.0685	0.8241	0.005
Mof_C 	C 	0.06908	0.11173	0.83453	-0.097
Mof_C 	C 	0.17062	0.08926	0.83606	0.452
Mof_C 	C 	0.20356	0.1105	0.84966	-0.197
Mof_H 	H 	0.2253	0.0956	0.8465	0.042
Mof_H 	H 	0.2005	0.1133	0.8699	0.117
Mof_H 	H 	0.2057	0.136	0.8411	0.04
Mof_C 	C 	0.167	0.04703	0.84775	-0.434
Mof_H 	H 	0.146	0.0347	0.8387	0.042
Mof_H 	H 	0.1643	0.0479	0.8681	0.133
Mof_H 	H 	0.1885	0.0323	0.8437	0.138
Mof_C 	C 	0.1749	0.0865	0.80342	-0.43
Mof_H 	H 	0.1542	0.0732	0.7948	0.141
Mof_H 	H 	0.1967	0.0723	0.7996	0.142
Mof_H 	H 	0.1764	0.1124	0.7955	0.091
Mof_C 	C 	0.1955	0.1162	0.8199	-0.356
Mof_H 	H 	0.1976	0.141	0.8296	0.108
Mof_H 	H 	0.1855	0.1202	0.8007	0.114
Mof_H 	H 	0.2192	0.1045	0.819	0.117
Mof_C 	C 	0.1671	0.05007	0.8209	-0.152
Mof_H 	H 	0.1513	0.0333	0.8313	0.125
Mof_H 	H 	0.1907	0.0382	0.8201	0.028
Mof_H 	H 	0.157	0.0539	0.8018	0.026
Mof_C 	C 	0.1874	0.0859	0.86673	-0.41
Mof_H 	H 	0.189	0.1115	0.8753	0.053
Mof_H 	H 	0.2113	0.0747	0.8661	0.13
Mof_H 	H 	0.1722	0.0694	0.878	0.11
Mof_C 	C 	0.9324	0.45849	0.63072	-0.091
Mof_C 	C 	0.89804	0.45332	0.61841	-0.006
Mof_H 	H 	0.8786	0.4683	0.6245	0.034
Mof_C 	C 	0.89244	0.42565	0.59684	-0.046
Mof_C 	C 	0.92204	0.40491	0.58666	-0.004
Mof_H 	H 	0.9187	0.3874	0.5715	0.041
Mof_C 	C 	0.95638	0.41054	0.59927	-0.094
Mof_C 	C 	0.96124	0.4366	0.62142	0.032
Mof_H 	H 	0.9843	0.4396	0.6303	0.05
Mof_C 	C 	0.93874	0.48695	0.65595	0.353
Mof_C 	C 	0.98752	0.38417	0.59047	0.362
Mof_C 	C 	0.81135	0.41368	0.54518	0.063
Mof_H 	H 	0.8068	0.413	0.5254	-0.016
Mof_C 	C 	0.84738	0.41652	0.55512	-0.163
Mof_H 	H 	0.8662	0.4173	0.5423	0.059
Mof_C 	C 	0.85499	0.4182	0.58468	0.084
Mof_C 	C 	0.82565	0.41254	0.6022	-0.153
Mof_H 	H 	0.8297	0.4109	0.622	0.085
Mof_C 	C 	0.7898	0.40925	0.59029	0.073
Mof_H 	H 	0.7707	0.4052	0.6024	-0.009
Mof_C 	C 	0.91818	0.23523	0.55337	-0.083
Mof_C 	C 	0.88909	0.25972	0.54529	-0.01
Mof_H 	H 	0.8934	0.2863	0.5425	0.041
Mof_C 	C 	0.8532	0.24516	0.5412	-0.045
Mof_C 	C 	0.84876	0.20529	0.54404	-0.027
Mof_H 	H 	0.8256	0.195	0.5402	0.051
Mof_C 	C 	0.87648	0.17929	0.55231	-0.047
Mof_C 	C 	0.91135	0.19547	0.55705	-0.007
Mof_H 	H 	0.9306	0.1791	0.5629	0.057
Mof_C 	C 	0.95708	0.25103	0.55904	0.381
Mof_C 	C 	0.76058	0.29077	0.53915	0.102
Mof_H 	H 	0.7386	0.287	0.548	-0.031
Mof_C 	C 	0.78876	0.26664	0.54673	-0.176
Mof_H 	H 	0.7853	0.247	0.5602	0.089
Mof_C 	C 	0.82296	0.27059	0.5347	0.108
Mof_C 	C 	0.82509	0.30273	0.51751	-0.174
Mof_H 	H 	0.8475	0.3095	0.5104	0.079
Mof_C 	C 	0.79434	0.3261	0.51018	0.098
Mof_H 	H 	0.7972	0.3472	0.4979	-0.023
Mof_C 	C 	0.00309	0.1722	0.66075	-0.117
Mof_C 	C 	0.97981	0.14504	0.64861	0.063
Mof_H 	H 	0.9789	0.1416	0.6288	0.038
Mof_C 	C 	0.95738	0.12244	0.66538	-0.139
Mof_C 	C 	0.95742	0.12916	0.69448	0.036
Mof_H 	H 	0.9423	0.1143	0.7057	0.028
Mof_C 	C 	0.97924	0.15716	0.70711	-0.071
Mof_C 	C 	0.00364	0.17815	0.69044	0.026
Mof_H 	H 	0.02	0.1958	0.6991	0.039
Mof_C 	C 	0.02548	0.19734	0.64189	0.385
Mof_C 	C 	0.93234	0.09408	0.65103	0.407
Mof_C 	C 	0.01154	0.16668	0.78417	0.099
Mof_H 	H 	0.0337	0.169	0.7945	-0.017
Mof_C 	C 	0.01194	0.16703	0.75444	-0.188
Mof_H 	H 	0.0337	0.1704	0.7452	0.096
Mof_C 	C 	0.98005	0.16239	0.73896	0.135
Mof_C 	C 	0.94829	0.16133	0.75329	-0.193
Mof_H 	H 	0.9257	0.1606	0.7435	0.096
Mof_C 	C 	0.95105	0.16143	0.78326	0.111
Mof_H 	H 	0.9295	0.1602	0.793	-0.02
Mof_C 	C 	0.04269	0.3449	0.70432	-0.091
Mof_C 	C 	0.0331	0.38331	0.70796	0.033
Mof_H 	H 	0.034	0.4006	0.6926	0.053
Mof_C 	C 	0.0221	0.39673	0.734	-0.093
Mof_C 	C 	0.02034	0.37182	0.75683	0.006
Mof_H 	H 	0.0118	0.3809	0.7741	0.039
Mof_C 	C 	0.03116	0.33323	0.75442	-0.05
Mof_C 	C 	0.04209	0.32006	0.72784	0.012
Mof_H 	H 	0.0491	0.294	0.7258	0.044
Mof_C 	C 	0.05377	0.33119	0.67492	0.385
Mof_C 	C 	0.01139	0.43974	0.73519	0.335
Mof_C 	C 	0.00262	0.28189	0.82166	0.094
Mof_H 	H 	0.9848	0.2847	0.8351	-0.021
Mof_C 	C 	0.00252	0.30739	0.79901	-0.172
Mof_H 	H 	0.9843	0.3263	0.7973	0.097
Mof_C 	C 	0.02885	0.30569	0.77869	0.111
Mof_C 	C 	0.05402	0.27557	0.78247	-0.168
Mof_H 	H 	0.072	0.2722	0.7692	0.086
Mof_C 	C 	0.05264	0.25003	0.8061	0.092
Mof_H 	H 	0.0702	0.2305	0.8082	-0.02
Mof_C 	C 	0.69999	0.4714	0.6284	-0.121
Mof_C 	C 	0.6714	0.48018	0.64536	0.038
Mof_H 	H 	0.6478	0.4767	0.6377	0.04
Mof_C 	C 	0.67575	0.49372	0.67284	-0.084
Mof_C 	C 	0.71089	0.49887	0.68442	-0.004
Mof_H 	H 	0.7142	0.5096	0.7027	0.047
Mof_C 	C 	0.74182	0.48819	0.66906	-0.055
Mof_C 	C 	0.73438	0.4753	0.64079	0.013
Mof_H 	H 	0.7541	0.469	0.6298	0.032
Mof_C 	C 	0.69467	0.45772	0.59819	0.374
Mof_C 	C 	0.6452	0.50557	0.69129	0.289
Mof_C 	C 	0.8238	0.52871	0.70978	0.105
Mof_H 	H 	0.8286	0.5483	0.7233	-0.013
Mof_C 	C 	0.78799	0.522	0.70061	-0.182
Mof_H 	H 	0.7695	0.5369	0.7082	0.093
Mof_C 	C 	0.77948	0.49456	0.68103	0.114
Mof_C 	C 	0.80753	0.46834	0.67482	-0.162
Mof_H 	H 	0.8025	0.446	0.6639	0.086
Mof_C 	C 	0.84337	0.47604	0.68524	0.088
Mof_H 	H 	0.8619	0.4583	0.6817	0.002
Mof_C 	C 	0.65322	0.24435	0.52318	-0.109
Mof_C 	C 	0.61915	0.23373	0.53413	0.038
Mof_H 	H 	0.5994	0.2509	0.5325	0.043
Mof_C 	C 	0.6154	0.19806	0.54715	-0.114
Mof_C 	C 	0.64483	0.17361	0.55023	0.019
Mof_H 	H 	0.6424	0.1498	0.5597	0.036
Mof_C 	C 	0.6783	0.18368	0.53952	-0.072
Mof_C 	C 	0.68279	0.21836	0.52635	0.015
Mof_H 	H 	0.7054	0.2251	0.5194	0.032
Mof_C 	C 	0.65842	0.28558	0.51123	0.363
Mof_C 	C 	0.58055	0.18701	0.56117	0.373
Mof_C 	C 	0.76635	0.12776	0.53152	0.113
Mof_H 	H 	0.7844	0.1254	0.5182	-0.024
Mof_C 	C 	0.73678	0.15308	0.52491	-0.19
Mof_H 	H 	0.7356	0.1667	0.5076	0.091
Mof_C 	C 	0.70962	0.15758	0.54424	0.134
Mof_C 	C 	0.71293	0.13446	0.56718	-0.197
Mof_H 	H 	0.6944	0.1346	0.5802	0.104
Mof_C 	C 	0.74366	0.10953	0.57257	0.12
Mof_H 	H 	0.7447	0.0944	0.5892	-0.023
Mof_C 	C 	0.98938	0.32504	0.9034	-0.143
Mof_C 	C 	0.96383	0.33423	0.92281	0.071
Mof_H 	H 	0.9584	0.3161	0.9369	0.031
Mof_C 	C 	0.94593	0.36958	0.92208	-0.151
Mof_C 	C 	0.95414	0.39539	0.90079	0.032
Mof_H 	H 	0.9418	0.4192	0.8997	0.024
Mof_C 	C 	0.98059	0.38721	0.88037	-0.093
Mof_C 	C 	0.99839	0.35159	0.88265	0.035
Mof_H 	H 	0.0166	0.3455	0.8701	0.024
Mof_C 	C 	0.005	0.28496	0.9034	0.363
Mof_C 	C 	0.91663	0.37996	0.94154	0.402
Mof_C 	C 	0.02466	0.45056	0.82615	0.135
Mof_H 	H 	0.0479	0.4539	0.8192	-0.05
Mof_C 	C 	0.02099	0.42365	0.84701	-0.223
Mof_H 	H 	0.0412	0.4097	0.8542	0.094
Mof_C 	C 	0.98757	0.417	0.85748	0.142
Mof_C 	C 	0.95976	0.44087	0.8459	-0.213
Mof_H 	H 	0.9363	0.4386	0.8525	0.11
Mof_C 	C 	0.96665	0.46777	0.82483	0.144
Mof_H 	H 	0.9474	0.4831	0.8176	-0.03
Mof_C 	C 	0.87704	0.08964	0.83389	-0.095
Mof_C 	C 	0.84663	0.08056	0.84837	0.016
Mof_H 	H 	0.8466	0.084	0.8682	0.047
Mof_C 	C 	0.81596	0.06631	0.83385	-0.066
Mof_C 	C 	0.81569	0.06099	0.8044	-0.027
Mof_H 	H 	0.795	0.0513	0.7946	0.05
Mof_C 	C 	0.84709	0.07031	0.78938	-0.027
Mof_C 	C 	0.87727	0.08502	0.80475	-0.012
Mof_H 	H 	0.898	0.0919	0.7951	0.044
Mof_C 	C 	0.91161	0.10471	0.84922	0.361
Mof_C 	C 	0.78106	0.05508	0.8485	0.28
Mof_N 	N 	0.85829	0.04351	0.70056	-0.174
Mof_C 	C 	0.8258	0.0525	0.7118	0.036
Mof_H 	H 	0.8052	0.0537	0.6995	0.017
Mof_C 	C 	0.822	0.05979	0.74007	-0.087
Mof_H 	H 	0.799	0.0653	0.7466	0.06
Mof_C 	C 	0.8503	0.0593	0.75854	0.034
Mof_C 	C 	0.884	0.0483	0.74899	-0.1
Mof_H 	H 	0.904	0.0456	0.7618	0.063
Mof_C 	C 	0.8873	0.0416	0.72035	0.032
Mof_H 	H 	0.9103	0.0354	0.7138	0.015
Mof_N 	N 	0.85009	0.0587	0.69803	-0.067
Mof_C 	C 	0.83319	0.0318	0.71276	0.05
Mof_H 	H 	0.823	0.0102	0.7033	0
Mof_C 	C 	0.83019	0.0352	0.74267	-0.055
Mof_H 	H 	0.8179	0.0163	0.7529	0.045
Mof_C 	C 	0.8466	0.0687	0.75728	0.04
Mof_C 	C 	0.8621	0.0961	0.73932	-0.074
Mof_H 	H 	0.8721	0.1188	0.7475	0.053
Mof_C 	C 	0.8634	0.0913	0.71039	0.007
Mof_H 	H 	0.8736	0.1108	0.6992	0.033
Mof_O 	O 	0.93374	0.48576	0.721	-0.492
Mof_O 	O 	0.91243	0.47781	0.76408	-0.412
Mof_C 	C 	0.92546	0.46487	0.74159	0.149
Mof_H 	H 	0.9292	0.438	0.7402	0.002
Mof_O 	O 	0.9279	0.352	0.66071	-0.471
Mof_H 	H 	0.9325	0.3342	0.6489	0.281
Mof_O 	O 	0.95254	0.30853	0.69008	-0.252
Mof_N 	N 	0.89901	0.28183	0.83906	-0.139
Mof_C 	C 	0.92223	0.42065	0.73706	-0.064
Mof_C 	C 	0.92645	0.40305	0.7103	0.018
Mof_H 	H 	0.929	0.4168	0.6933	0.051
Mof_C 	C 	0.92637	0.36246	0.71231	-0.085
Mof_C 	C 	0.92041	0.3414	0.73711	-0.002
Mof_H 	H 	0.9196	0.3142	0.7359	0.042
Mof_C 	C 	0.91558	0.35887	0.76371	-0.033
Mof_C 	C 	0.9161	0.39921	0.76146	-0.011
Mof_H 	H 	0.9119	0.4133	0.7781	0.055
Mof_C 	C 	0.92344	0.46447	0.74008	0.152
Mof_C 	C 	0.93375	0.33969	0.68558	0.37
Mof_C 	C 	0.9028	0.2686	0.81185	0.06
Mof_H 	H 	0.9028	0.2416	0.809	0.002
Mof_C 	C 	0.9067	0.29298	0.7874	-0.14
Mof_H 	H 	0.908	0.2812	0.7695	0.08
Mof_C 	C 	0.9085	0.33377	0.78908	0.085
Mof_C 	C 	0.9068	0.34896	0.81631	-0.143
Mof_H 	H 	0.9076	0.3758	0.8197	0.084
Mof_C 	C 	0.9039	0.32147	0.83909	0.063
Mof_H 	H 	0.9057	0.3326	0.8573	0.015
Mof_O 	O 	0.79271	0.09088	0.63161	-0.053
Mof_O 	O 	0.83856	0.09487	0.60231	-0.344
Mof_O 	O 	0.84883	0.09068	0.64929	-0.299
Mof_C 	C 	0.826	0.0958	0.62694	-0.533
Mof_O 	O 	0.7999	0.0889	0.63301	-0.2
Mof_O 	O 	0.8532	0.0861	0.62775	-0.095
Mof_C 	C 	0.8276	0.11469	0.62888	0.892
Mof_N 	N 	0.83061	0.15466	0.63202	-0.199
Mof_C 	C 	0.86204	0.1821	0.6382	-0.268
Mof_H 	H 	0.8532	0.2086	0.6388	0.112
Mof_H 	H 	0.8793	0.1797	0.6234	0.123
Mof_H 	H 	0.8737	0.1755	0.6564	0.116
Mof_C 	C 	0.79925	0.1827	0.6269	-0.274
Mof_H 	H 	0.8076	0.209	0.6304	0.11
Mof_H 	H 	0.7802	0.1766	0.6398	0.11
Mof_H 	H 	0.79	0.1803	0.6075	0.113
_end
