data_functionalizedCrystal
_audit_creation_method	'EQeq! by Chris Wilmer'
_symmetry_space_group_name_H-M	'P1'
_symmetry_Int_Tables_number	1
_symmetry_cell_setting	triclinic
loop_
_symmetry_equiv_pos_as_xyz
  x,y,z
_cell_length_a	18.228
_cell_length_b	18.228
_cell_length_c	18.228
_cell_angle_alpha	60
_cell_angle_beta	60
_cell_angle_gamma	60
loop_
_atom_site_label
_atom_site_type_symbol
_atom_site_fract_x
_atom_site_fract_y
_atom_site_fract_z
_atom_site_charge
Mof_Zn	Zn	0.29358	0.29359	0.11924	1.217
Mof_Zn	Zn	0.29358	0.29359	0.29359	1.217
Mof_Zn	Zn	0.11923	0.29359	0.29359	1.216
Mof_Zn	Zn	0.29358	0.11924	0.29359	1.216
Mof_Zn	Zn	0.70642	0.70641	0.88076	1.216
Mof_Zn	Zn	0.70642	0.70641	0.70641	1.216
Mof_Zn	Zn	0.70642	0.88076	0.70641	1.216
Mof_Zn	Zn	0.88077	0.70641	0.70641	1.216
Mof_H 	H 	0.4557	0.4557	0.9367	0.046
Mof_H 	H 	0.4557	0.4557	0.1519	0.047
Mof_H 	H 	0.9367	0.1519	0.4557	0.047
Mof_H 	H 	0.1519	0.9367	0.4557	0.047
Mof_H 	H 	0.4557	0.9367	0.1519	0.047
Mof_H 	H 	0.4557	0.1519	0.9367	0.047
Mof_H 	H 	0.9367	0.4557	0.4557	0.046
Mof_H 	H 	0.1519	0.4557	0.4557	0.047
Mof_H 	H 	0.4557	0.1519	0.4557	0.047
Mof_H 	H 	0.4557	0.9367	0.4557	0.046
Mof_H 	H 	0.9367	0.4557	0.1519	0.047
Mof_H 	H 	0.1519	0.4557	0.9367	0.047
Mof_H 	H 	0.5443	0.5443	0.0633	0.046
Mof_H 	H 	0.5443	0.5443	0.8481	0.047
Mof_H 	H 	0.8481	0.0633	0.5443	0.047
Mof_H 	H 	0.0633	0.8481	0.5443	0.047
Mof_H 	H 	0.0633	0.5443	0.8481	0.047
Mof_H 	H 	0.8481	0.5443	0.0633	0.047
Mof_H 	H 	0.5443	0.0633	0.5443	0.046
Mof_H 	H 	0.5443	0.8481	0.5443	0.047
Mof_H 	H 	0.8481	0.5443	0.5443	0.047
Mof_H 	H 	0.0633	0.5443	0.5443	0.046
Mof_H 	H 	0.5443	0.0633	0.8481	0.047
Mof_H 	H 	0.5443	0.8481	0.0633	0.047
Mof_C 	C 	0.4734	0.4734	0.96356	-0.009
Mof_C 	C 	0.4734	0.4734	0.08964	-0.009
Mof_C 	C 	0.96356	0.08964	0.4734	-0.01
Mof_C 	C 	0.08964	0.96356	0.4734	-0.01
Mof_C 	C 	0.4734	0.96356	0.08964	-0.01
Mof_C 	C 	0.4734	0.08964	0.96356	-0.01
Mof_C 	C 	0.96356	0.4734	0.4734	-0.009
Mof_C 	C 	0.08964	0.4734	0.4734	-0.009
Mof_C 	C 	0.4734	0.08964	0.4734	-0.009
Mof_C 	C 	0.4734	0.96356	0.4734	-0.009
Mof_C 	C 	0.96356	0.4734	0.08964	-0.01
Mof_C 	C 	0.08964	0.4734	0.96356	-0.01
Mof_C 	C 	0.5266	0.5266	0.03644	-0.009
Mof_C 	C 	0.5266	0.5266	0.91036	-0.009
Mof_C 	C 	0.91036	0.03644	0.5266	-0.01
Mof_C 	C 	0.03644	0.91036	0.5266	-0.01
Mof_C 	C 	0.03644	0.5266	0.91036	-0.01
Mof_C 	C 	0.91036	0.5266	0.03644	-0.01
Mof_C 	C 	0.5266	0.03644	0.5266	-0.009
Mof_C 	C 	0.5266	0.91036	0.5266	-0.009
Mof_C 	C 	0.91036	0.5266	0.5266	-0.009
Mof_C 	C 	0.03644	0.5266	0.5266	-0.009
Mof_C 	C 	0.5266	0.03644	0.91036	-0.01
Mof_C 	C 	0.5266	0.91036	0.03644	-0.01
Mof_C 	C 	0.3885	0.3885	0.1115	0.414
Mof_C 	C 	0.4461	0.4461	0.0539	-0.103
Mof_C 	C 	0.1115	0.1115	0.3885	0.413
Mof_C 	C 	0.0539	0.0539	0.4461	-0.101
Mof_C 	C 	0.3885	0.1115	0.1115	0.413
Mof_C 	C 	0.4461	0.0539	0.0539	-0.101
Mof_C 	C 	0.1115	0.3885	0.3885	0.414
Mof_C 	C 	0.0539	0.4461	0.4461	-0.103
Mof_C 	C 	0.3885	0.1115	0.3885	0.414
Mof_C 	C 	0.4461	0.0539	0.4461	-0.103
Mof_C 	C 	0.1115	0.3885	0.1115	0.413
Mof_C 	C 	0.0539	0.4461	0.0539	-0.101
Mof_C 	C 	0.6115	0.6115	0.8885	0.414
Mof_C 	C 	0.5539	0.5539	0.9461	-0.103
Mof_C 	C 	0.8885	0.8885	0.6115	0.413
Mof_C 	C 	0.9461	0.9461	0.5539	-0.101
Mof_C 	C 	0.8885	0.6115	0.8885	0.413
Mof_C 	C 	0.9461	0.5539	0.9461	-0.101
Mof_C 	C 	0.6115	0.8885	0.6115	0.414
Mof_C 	C 	0.5539	0.9461	0.5539	-0.103
Mof_C 	C 	0.8885	0.6115	0.6115	0.414
Mof_C 	C 	0.9461	0.5539	0.5539	-0.103
Mof_C 	C 	0.6115	0.8885	0.8885	0.413
Mof_C 	C 	0.5539	0.9461	0.9461	-0.101
Mof_O 	O 	0.25	0.25	0.25	-0.953
Mof_O 	O 	0.75	0.75	0.75	-0.953
Mof_O 	O 	0.3661	0.3661	0.07322	-0.519
Mof_O 	O 	0.3661	0.3661	0.19458	-0.519
Mof_O 	O 	0.07322	0.19458	0.3661	-0.519
Mof_O 	O 	0.19458	0.07322	0.3661	-0.519
Mof_O 	O 	0.3661	0.07322	0.19458	-0.519
Mof_O 	O 	0.3661	0.19458	0.07322	-0.519
Mof_O 	O 	0.07322	0.3661	0.3661	-0.519
Mof_O 	O 	0.19458	0.3661	0.3661	-0.519
Mof_O 	O 	0.3661	0.19458	0.3661	-0.519
Mof_O 	O 	0.3661	0.07322	0.3661	-0.519
Mof_O 	O 	0.07322	0.3661	0.19458	-0.519
Mof_O 	O 	0.19458	0.3661	0.07322	-0.519
Mof_O 	O 	0.6339	0.6339	0.92678	-0.519
Mof_O 	O 	0.6339	0.6339	0.80542	-0.519
Mof_O 	O 	0.80542	0.92678	0.6339	-0.519
Mof_O 	O 	0.92678	0.80542	0.6339	-0.519
Mof_O 	O 	0.92678	0.6339	0.80542	-0.519
Mof_O 	O 	0.80542	0.6339	0.92678	-0.519
Mof_O 	O 	0.6339	0.92678	0.6339	-0.519
Mof_O 	O 	0.6339	0.80542	0.6339	-0.519
Mof_O 	O 	0.80542	0.6339	0.6339	-0.519
Mof_O 	O 	0.92678	0.6339	0.6339	-0.519
Mof_O 	O 	0.6339	0.92678	0.80542	-0.519
Mof_O 	O 	0.6339	0.80542	0.92678	-0.519
_end
