data_functionalizedCrystal
_audit_creation_method	'EQeq! by Chris Wilmer'
_symmetry_space_group_name_H-M	'P1'
_symmetry_Int_Tables_number	1
_symmetry_cell_setting	triclinic
loop_
_symmetry_equiv_pos_as_xyz
  x,y,z
_cell_length_a	40.026
_cell_length_b	40.026
_cell_length_c	40.026
_cell_angle_alpha	90
_cell_angle_beta	90
_cell_angle_gamma	90
loop_
_atom_site_label
_atom_site_type_symbol
_atom_site_fract_x
_atom_site_fract_y
_atom_site_fract_z
_atom_site_charge
Mof_O 	O 	0.9443	0.7528	0.7935	-0.135
Mof_C 	C 	0.9451	0.7283	0.8162	-0.105
Mof_H 	H 	0.9331	0.7088	0.8077	0.055
Mof_H 	H 	0.9345	0.7361	0.8369	0.075
Mof_H 	H 	0.9684	0.7222	0.8208	0.057
Mof_C 	C 	0.9712	0.752	0.773	0.062
Mof_O 	O 	0.9443	0.2528	0.2935	-0.135
Mof_C 	C 	0.9451	0.2283	0.3162	-0.104
Mof_H 	H 	0.9331	0.2088	0.3077	0.055
Mof_H 	H 	0.9345	0.2361	0.3369	0.075
Mof_H 	H 	0.9684	0.2222	0.3208	0.056
Mof_C 	C 	0.9712	0.252	0.273	0.062
Mof_O 	O 	0.4443	0.7528	0.2935	-0.136
Mof_C 	C 	0.4451	0.7283	0.3162	-0.101
Mof_H 	H 	0.4331	0.7088	0.3077	0.054
Mof_H 	H 	0.4345	0.7361	0.3369	0.073
Mof_H 	H 	0.4684	0.7222	0.3208	0.053
Mof_C 	C 	0.4712	0.752	0.273	0.059
Mof_O 	O 	0.4443	0.2528	0.7935	-0.136
Mof_C 	C 	0.4451	0.2283	0.8162	-0.102
Mof_H 	H 	0.4331	0.2088	0.8077	0.054
Mof_H 	H 	0.4345	0.2361	0.8369	0.073
Mof_H 	H 	0.4684	0.2222	0.8208	0.054
Mof_C 	C 	0.4712	0.252	0.773	0.059
Mof_O 	O 	0.0557	0.2472	0.7935	-0.136
Mof_C 	C 	0.0549	0.2717	0.8162	-0.101
Mof_H 	H 	0.0669	0.2912	0.8077	0.054
Mof_H 	H 	0.0655	0.2639	0.8369	0.073
Mof_H 	H 	0.0316	0.2778	0.8208	0.053
Mof_C 	C 	0.0288	0.248	0.773	0.059
Mof_O 	O 	0.0557	0.7472	0.2935	-0.137
Mof_C 	C 	0.0549	0.7717	0.3162	-0.1
Mof_H 	H 	0.0669	0.7912	0.3077	0.053
Mof_H 	H 	0.0655	0.7639	0.3369	0.073
Mof_H 	H 	0.0316	0.7778	0.3208	0.053
Mof_C 	C 	0.0288	0.748	0.273	0.06
Mof_O 	O 	0.5557	0.2472	0.2935	-0.136
Mof_C 	C 	0.5549	0.2717	0.3162	-0.101
Mof_H 	H 	0.5669	0.2912	0.3077	0.054
Mof_H 	H 	0.5655	0.2639	0.3369	0.073
Mof_H 	H 	0.5316	0.2778	0.3208	0.053
Mof_C 	C 	0.5288	0.248	0.273	0.059
Mof_O 	O 	0.5557	0.7472	0.7935	-0.136
Mof_C 	C 	0.5549	0.7717	0.8162	-0.102
Mof_H 	H 	0.5669	0.7912	0.8077	0.054
Mof_H 	H 	0.5655	0.7639	0.8369	0.074
Mof_H 	H 	0.5316	0.7778	0.8208	0.055
Mof_C 	C 	0.5288	0.748	0.773	0.06
Mof_O 	O 	0.0557	0.7528	0.2065	-0.136
Mof_C 	C 	0.0549	0.7283	0.1838	-0.099
Mof_H 	H 	0.0669	0.7088	0.1923	0.054
Mof_H 	H 	0.0655	0.7361	0.1631	0.073
Mof_H 	H 	0.0316	0.7222	0.1792	0.053
Mof_C 	C 	0.0288	0.752	0.227	0.061
Mof_O 	O 	0.0557	0.2528	0.7065	-0.136
Mof_C 	C 	0.0549	0.2283	0.6838	-0.099
Mof_H 	H 	0.0669	0.2088	0.6923	0.054
Mof_H 	H 	0.0655	0.2361	0.6631	0.073
Mof_H 	H 	0.0316	0.2222	0.6792	0.053
Mof_C 	C 	0.0288	0.252	0.727	0.061
Mof_O 	O 	0.5557	0.7528	0.7065	-0.135
Mof_C 	C 	0.5549	0.7283	0.6838	-0.1
Mof_H 	H 	0.5669	0.7088	0.6923	0.055
Mof_H 	H 	0.5655	0.7361	0.6631	0.074
Mof_H 	H 	0.5316	0.7222	0.6792	0.054
Mof_C 	C 	0.5288	0.752	0.727	0.06
Mof_O 	O 	0.5557	0.2528	0.2065	-0.135
Mof_C 	C 	0.5549	0.2283	0.1838	-0.1
Mof_H 	H 	0.5669	0.2088	0.1923	0.055
Mof_H 	H 	0.5655	0.2361	0.1631	0.074
Mof_H 	H 	0.5316	0.2222	0.1792	0.054
Mof_C 	C 	0.5288	0.252	0.227	0.06
Mof_O 	O 	0.9443	0.2472	0.2065	-0.134
Mof_C 	C 	0.9451	0.2717	0.1838	-0.103
Mof_H 	H 	0.9331	0.2912	0.1923	0.056
Mof_H 	H 	0.9345	0.2639	0.1631	0.076
Mof_H 	H 	0.9684	0.2778	0.1792	0.057
Mof_C 	C 	0.9712	0.248	0.227	0.063
Mof_O 	O 	0.9443	0.7472	0.7065	-0.134
Mof_C 	C 	0.9451	0.7717	0.6838	-0.103
Mof_H 	H 	0.9331	0.7912	0.6923	0.056
Mof_H 	H 	0.9345	0.7639	0.6631	0.076
Mof_H 	H 	0.9684	0.7778	0.6792	0.057
Mof_C 	C 	0.9712	0.748	0.727	0.063
Mof_O 	O 	0.4443	0.2472	0.7065	-0.135
Mof_C 	C 	0.4451	0.2717	0.6838	-0.1
Mof_H 	H 	0.4331	0.2912	0.6923	0.055
Mof_H 	H 	0.4345	0.2639	0.6631	0.074
Mof_H 	H 	0.4684	0.2778	0.6792	0.054
Mof_C 	C 	0.4712	0.248	0.727	0.06
Mof_O 	O 	0.4443	0.7472	0.2065	-0.135
Mof_C 	C 	0.4451	0.7717	0.1838	-0.1
Mof_H 	H 	0.4331	0.7912	0.1923	0.055
Mof_H 	H 	0.4345	0.7639	0.1631	0.074
Mof_H 	H 	0.4684	0.7778	0.1792	0.054
Mof_C 	C 	0.4712	0.748	0.227	0.06
Mof_O 	O 	0.7935	0.9443	0.7528	-0.134
Mof_C 	C 	0.8162	0.9451	0.7283	-0.104
Mof_H 	H 	0.8077	0.9331	0.7088	0.056
Mof_H 	H 	0.8369	0.9345	0.7361	0.076
Mof_H 	H 	0.8208	0.9684	0.7222	0.058
Mof_C 	C 	0.773	0.9712	0.752	0.063
Mof_O 	O 	0.7935	0.4443	0.2528	-0.135
Mof_C 	C 	0.8162	0.4451	0.2283	-0.101
Mof_H 	H 	0.8077	0.4331	0.2088	0.055
Mof_H 	H 	0.8369	0.4345	0.2361	0.074
Mof_H 	H 	0.8208	0.4684	0.2222	0.055
Mof_C 	C 	0.773	0.4712	0.252	0.06
Mof_O 	O 	0.2935	0.9443	0.2528	-0.134
Mof_C 	C 	0.3162	0.9451	0.2283	-0.103
Mof_H 	H 	0.3077	0.9331	0.2088	0.056
Mof_H 	H 	0.3369	0.9345	0.2361	0.076
Mof_H 	H 	0.3208	0.9684	0.2222	0.057
Mof_C 	C 	0.273	0.9712	0.252	0.063
Mof_O 	O 	0.2935	0.4443	0.7528	-0.135
Mof_C 	C 	0.3162	0.4451	0.7283	-0.1
Mof_H 	H 	0.3077	0.4331	0.7088	0.055
Mof_H 	H 	0.3369	0.4345	0.7361	0.074
Mof_H 	H 	0.3208	0.4684	0.7222	0.054
Mof_C 	C 	0.273	0.4712	0.752	0.06
Mof_O 	O 	0.7935	0.0557	0.2472	-0.135
Mof_C 	C 	0.8162	0.0549	0.2717	-0.1
Mof_H 	H 	0.8077	0.0669	0.2912	0.055
Mof_H 	H 	0.8369	0.0655	0.2639	0.074
Mof_H 	H 	0.8208	0.0316	0.2778	0.054
Mof_C 	C 	0.773	0.0288	0.248	0.06
Mof_O 	O 	0.7935	0.5557	0.7472	-0.135
Mof_C 	C 	0.8162	0.5549	0.7717	-0.101
Mof_H 	H 	0.8077	0.5669	0.7912	0.055
Mof_H 	H 	0.8369	0.5655	0.7639	0.074
Mof_H 	H 	0.8208	0.5316	0.7778	0.055
Mof_C 	C 	0.773	0.5288	0.748	0.06
Mof_O 	O 	0.2935	0.0557	0.7472	-0.136
Mof_C 	C 	0.3162	0.0549	0.7717	-0.099
Mof_H 	H 	0.3077	0.0669	0.7912	0.054
Mof_H 	H 	0.3369	0.0655	0.7639	0.074
Mof_H 	H 	0.3208	0.0316	0.7778	0.054
Mof_C 	C 	0.273	0.0288	0.748	0.061
Mof_O 	O 	0.2935	0.5557	0.2472	-0.135
Mof_C 	C 	0.3162	0.5549	0.2717	-0.1
Mof_H 	H 	0.3077	0.5669	0.2912	0.055
Mof_H 	H 	0.3369	0.5655	0.2639	0.074
Mof_H 	H 	0.3208	0.5316	0.2778	0.054
Mof_C 	C 	0.273	0.5288	0.248	0.06
Mof_O 	O 	0.2065	0.0557	0.7528	-0.136
Mof_C 	C 	0.1838	0.0549	0.7283	-0.099
Mof_H 	H 	0.1923	0.0669	0.7088	0.054
Mof_H 	H 	0.1631	0.0655	0.7361	0.073
Mof_H 	H 	0.1792	0.0316	0.7222	0.053
Mof_C 	C 	0.227	0.0288	0.752	0.061
Mof_O 	O 	0.2065	0.5557	0.2528	-0.135
Mof_C 	C 	0.1838	0.5549	0.2283	-0.1
Mof_H 	H 	0.1923	0.5669	0.2088	0.055
Mof_H 	H 	0.1631	0.5655	0.2361	0.074
Mof_H 	H 	0.1792	0.5316	0.2222	0.054
Mof_C 	C 	0.227	0.5288	0.252	0.06
Mof_O 	O 	0.7065	0.0557	0.2528	-0.136
Mof_C 	C 	0.6838	0.0549	0.2283	-0.099
Mof_H 	H 	0.6923	0.0669	0.2088	0.054
Mof_H 	H 	0.6631	0.0655	0.2361	0.073
Mof_H 	H 	0.6792	0.0316	0.2222	0.053
Mof_C 	C 	0.727	0.0288	0.252	0.061
Mof_O 	O 	0.7065	0.5557	0.7528	-0.135
Mof_C 	C 	0.6838	0.5549	0.7283	-0.1
Mof_H 	H 	0.6923	0.5669	0.7088	0.055
Mof_H 	H 	0.6631	0.5655	0.7361	0.074
Mof_H 	H 	0.6792	0.5316	0.7222	0.054
Mof_C 	C 	0.727	0.5288	0.752	0.06
Mof_O 	O 	0.2065	0.9443	0.2472	-0.134
Mof_C 	C 	0.1838	0.9451	0.2717	-0.103
Mof_H 	H 	0.1923	0.9331	0.2912	0.056
Mof_H 	H 	0.1631	0.9345	0.2639	0.076
Mof_H 	H 	0.1792	0.9684	0.2778	0.057
Mof_C 	C 	0.227	0.9712	0.248	0.063
Mof_O 	O 	0.2065	0.4443	0.7472	-0.135
Mof_C 	C 	0.1838	0.4451	0.7717	-0.1
Mof_H 	H 	0.1923	0.4331	0.7912	0.055
Mof_H 	H 	0.1631	0.4345	0.7639	0.074
Mof_H 	H 	0.1792	0.4684	0.7778	0.054
Mof_C 	C 	0.227	0.4712	0.748	0.06
Mof_O 	O 	0.7065	0.9443	0.7472	-0.134
Mof_C 	C 	0.6838	0.9451	0.7717	-0.103
Mof_H 	H 	0.6923	0.9331	0.7912	0.056
Mof_H 	H 	0.6631	0.9345	0.7639	0.076
Mof_H 	H 	0.6792	0.9684	0.7778	0.057
Mof_C 	C 	0.727	0.9712	0.748	0.063
Mof_O 	O 	0.7065	0.4443	0.2472	-0.135
Mof_C 	C 	0.6838	0.4451	0.2717	-0.1
Mof_H 	H 	0.6923	0.4331	0.2912	0.055
Mof_H 	H 	0.6631	0.4345	0.2639	0.074
Mof_H 	H 	0.6792	0.4684	0.2778	0.054
Mof_C 	C 	0.727	0.4712	0.248	0.06
Mof_O 	O 	0.7528	0.7935	0.9443	-0.134
Mof_C 	C 	0.7283	0.8162	0.9451	-0.104
Mof_H 	H 	0.7088	0.8077	0.9331	0.056
Mof_H 	H 	0.7361	0.8369	0.9345	0.076
Mof_H 	H 	0.7222	0.8208	0.9684	0.058
Mof_C 	C 	0.752	0.773	0.9712	0.063
Mof_O 	O 	0.7528	0.2935	0.4443	-0.135
Mof_C 	C 	0.7283	0.3162	0.4451	-0.1
Mof_H 	H 	0.7088	0.3077	0.4331	0.055
Mof_H 	H 	0.7361	0.3369	0.4345	0.074
Mof_H 	H 	0.7222	0.3208	0.4684	0.054
Mof_C 	C 	0.752	0.273	0.4712	0.06
Mof_O 	O 	0.2528	0.7935	0.4443	-0.135
Mof_C 	C 	0.2283	0.8162	0.4451	-0.101
Mof_H 	H 	0.2088	0.8077	0.4331	0.055
Mof_H 	H 	0.2361	0.8369	0.4345	0.074
Mof_H 	H 	0.2222	0.8208	0.4684	0.055
Mof_C 	C 	0.252	0.773	0.4712	0.06
Mof_O 	O 	0.2528	0.2935	0.9443	-0.134
Mof_C 	C 	0.2283	0.3162	0.9451	-0.103
Mof_H 	H 	0.2088	0.3077	0.9331	0.056
Mof_H 	H 	0.2361	0.3369	0.9345	0.076
Mof_H 	H 	0.2222	0.3208	0.9684	0.057
Mof_C 	C 	0.252	0.273	0.9712	0.063
Mof_O 	O 	0.2472	0.7935	0.0557	-0.135
Mof_C 	C 	0.2717	0.8162	0.0549	-0.1
Mof_H 	H 	0.2912	0.8077	0.0669	0.055
Mof_H 	H 	0.2639	0.8369	0.0655	0.074
Mof_H 	H 	0.2778	0.8208	0.0316	0.054
Mof_C 	C 	0.248	0.773	0.0288	0.06
Mof_O 	O 	0.2472	0.2935	0.5557	-0.135
Mof_C 	C 	0.2717	0.3162	0.5549	-0.1
Mof_H 	H 	0.2912	0.3077	0.5669	0.055
Mof_H 	H 	0.2639	0.3369	0.5655	0.074
Mof_H 	H 	0.2778	0.3208	0.5316	0.054
Mof_C 	C 	0.248	0.273	0.5288	0.06
Mof_O 	O 	0.7472	0.7935	0.5557	-0.135
Mof_C 	C 	0.7717	0.8162	0.5549	-0.101
Mof_H 	H 	0.7912	0.8077	0.5669	0.055
Mof_H 	H 	0.7639	0.8369	0.5655	0.074
Mof_H 	H 	0.7778	0.8208	0.5316	0.055
Mof_C 	C 	0.748	0.773	0.5288	0.06
Mof_O 	O 	0.7472	0.2935	0.0557	-0.136
Mof_C 	C 	0.7717	0.3162	0.0549	-0.099
Mof_H 	H 	0.7912	0.3077	0.0669	0.054
Mof_H 	H 	0.7639	0.3369	0.0655	0.074
Mof_H 	H 	0.7778	0.3208	0.0316	0.054
Mof_C 	C 	0.748	0.273	0.0288	0.061
Mof_O 	O 	0.7528	0.2065	0.0557	-0.136
Mof_C 	C 	0.7283	0.1838	0.0549	-0.099
Mof_H 	H 	0.7088	0.1923	0.0669	0.054
Mof_H 	H 	0.7361	0.1631	0.0655	0.073
Mof_H 	H 	0.7222	0.1792	0.0316	0.053
Mof_C 	C 	0.752	0.227	0.0288	0.061
Mof_O 	O 	0.7528	0.7065	0.5557	-0.135
Mof_C 	C 	0.7283	0.6838	0.5549	-0.1
Mof_H 	H 	0.7088	0.6923	0.5669	0.055
Mof_H 	H 	0.7361	0.6631	0.5655	0.074
Mof_H 	H 	0.7222	0.6792	0.5316	0.054
Mof_C 	C 	0.752	0.727	0.5288	0.06
Mof_O 	O 	0.2528	0.2065	0.5557	-0.135
Mof_C 	C 	0.2283	0.1838	0.5549	-0.1
Mof_H 	H 	0.2088	0.1923	0.5669	0.055
Mof_H 	H 	0.2361	0.1631	0.5655	0.074
Mof_H 	H 	0.2222	0.1792	0.5316	0.054
Mof_C 	C 	0.252	0.227	0.5288	0.06
Mof_O 	O 	0.2528	0.7065	0.0557	-0.136
Mof_C 	C 	0.2283	0.6838	0.0549	-0.099
Mof_H 	H 	0.2088	0.6923	0.0669	0.054
Mof_H 	H 	0.2361	0.6631	0.0655	0.073
Mof_H 	H 	0.2222	0.6792	0.0316	0.053
Mof_C 	C 	0.252	0.727	0.0288	0.061
Mof_O 	O 	0.2472	0.2065	0.9443	-0.134
Mof_C 	C 	0.2717	0.1838	0.9451	-0.103
Mof_H 	H 	0.2912	0.1923	0.9331	0.056
Mof_H 	H 	0.2639	0.1631	0.9345	0.076
Mof_H 	H 	0.2778	0.1792	0.9684	0.057
Mof_C 	C 	0.248	0.227	0.9712	0.063
Mof_O 	O 	0.2472	0.7065	0.4443	-0.135
Mof_C 	C 	0.2717	0.6838	0.4451	-0.1
Mof_H 	H 	0.2912	0.6923	0.4331	0.055
Mof_H 	H 	0.2639	0.6631	0.4345	0.074
Mof_H 	H 	0.2778	0.6792	0.4684	0.054
Mof_C 	C 	0.248	0.727	0.4712	0.06
Mof_O 	O 	0.7472	0.2065	0.4443	-0.135
Mof_C 	C 	0.7717	0.1838	0.4451	-0.1
Mof_H 	H 	0.7912	0.1923	0.4331	0.055
Mof_H 	H 	0.7639	0.1631	0.4345	0.074
Mof_H 	H 	0.7778	0.1792	0.4684	0.054
Mof_C 	C 	0.748	0.227	0.4712	0.06
Mof_O 	O 	0.7472	0.7065	0.9443	-0.134
Mof_C 	C 	0.7717	0.6838	0.9451	-0.103
Mof_H 	H 	0.7912	0.6923	0.9331	0.056
Mof_H 	H 	0.7639	0.6631	0.9345	0.076
Mof_H 	H 	0.7778	0.6792	0.9684	0.057
Mof_C 	C 	0.748	0.727	0.9712	0.063
Mof_O 	O 	0.7528	0.9443	0.2065	-0.134
Mof_C 	C 	0.7283	0.9451	0.1838	-0.103
Mof_H 	H 	0.7088	0.9331	0.1923	0.056
Mof_H 	H 	0.7361	0.9345	0.1631	0.076
Mof_H 	H 	0.7222	0.9684	0.1792	0.057
Mof_C 	C 	0.752	0.9712	0.227	0.063
Mof_O 	O 	0.7528	0.4443	0.7065	-0.135
Mof_C 	C 	0.7283	0.4451	0.6838	-0.1
Mof_H 	H 	0.7088	0.4331	0.6923	0.055
Mof_H 	H 	0.7361	0.4345	0.6631	0.074
Mof_H 	H 	0.7222	0.4684	0.6792	0.054
Mof_C 	C 	0.752	0.4712	0.727	0.06
Mof_O 	O 	0.2528	0.9443	0.7065	-0.134
Mof_C 	C 	0.2283	0.9451	0.6838	-0.103
Mof_H 	H 	0.2088	0.9331	0.6923	0.056
Mof_H 	H 	0.2361	0.9345	0.6631	0.076
Mof_H 	H 	0.2222	0.9684	0.6792	0.057
Mof_C 	C 	0.252	0.9712	0.727	0.063
Mof_O 	O 	0.2528	0.4443	0.2065	-0.135
Mof_C 	C 	0.2283	0.4451	0.1838	-0.1
Mof_H 	H 	0.2088	0.4331	0.1923	0.055
Mof_H 	H 	0.2361	0.4345	0.1631	0.074
Mof_H 	H 	0.2222	0.4684	0.1792	0.054
Mof_C 	C 	0.252	0.4712	0.227	0.06
Mof_O 	O 	0.2472	0.0557	0.2065	-0.136
Mof_C 	C 	0.2717	0.0549	0.1838	-0.099
Mof_H 	H 	0.2912	0.0669	0.1923	0.054
Mof_H 	H 	0.2639	0.0655	0.1631	0.073
Mof_H 	H 	0.2778	0.0316	0.1792	0.053
Mof_C 	C 	0.248	0.0288	0.227	0.061
Mof_O 	O 	0.2472	0.5557	0.7065	-0.135
Mof_C 	C 	0.2717	0.5549	0.6838	-0.1
Mof_H 	H 	0.2912	0.5669	0.6923	0.055
Mof_H 	H 	0.2639	0.5655	0.6631	0.074
Mof_H 	H 	0.2778	0.5316	0.6792	0.054
Mof_C 	C 	0.248	0.5288	0.727	0.06
Mof_O 	O 	0.7472	0.0557	0.7065	-0.136
Mof_C 	C 	0.7717	0.0549	0.6838	-0.099
Mof_H 	H 	0.7912	0.0669	0.6923	0.054
Mof_H 	H 	0.7639	0.0655	0.6631	0.074
Mof_H 	H 	0.7778	0.0316	0.6792	0.054
Mof_C 	C 	0.748	0.0288	0.727	0.061
Mof_O 	O 	0.7472	0.5557	0.2065	-0.135
Mof_C 	C 	0.7717	0.5549	0.1838	-0.1
Mof_H 	H 	0.7912	0.5669	0.1923	0.055
Mof_H 	H 	0.7639	0.5655	0.1631	0.074
Mof_H 	H 	0.7778	0.5316	0.1792	0.054
Mof_C 	C 	0.748	0.5288	0.227	0.06
Mof_O 	O 	0.7528	0.0557	0.7935	-0.135
Mof_C 	C 	0.7283	0.0549	0.8162	-0.1
Mof_H 	H 	0.7088	0.0669	0.8077	0.055
Mof_H 	H 	0.7361	0.0655	0.8369	0.074
Mof_H 	H 	0.7222	0.0316	0.8208	0.054
Mof_C 	C 	0.752	0.0288	0.773	0.06
Mof_O 	O 	0.7528	0.5557	0.2935	-0.135
Mof_C 	C 	0.7283	0.5549	0.3162	-0.1
Mof_H 	H 	0.7088	0.5669	0.3077	0.055
Mof_H 	H 	0.7361	0.5655	0.3369	0.074
Mof_H 	H 	0.7222	0.5316	0.3208	0.054
Mof_C 	C 	0.752	0.5288	0.273	0.06
Mof_O 	O 	0.2528	0.0557	0.2935	-0.136
Mof_C 	C 	0.2283	0.0549	0.3162	-0.099
Mof_H 	H 	0.2088	0.0669	0.3077	0.054
Mof_H 	H 	0.2361	0.0655	0.3369	0.073
Mof_H 	H 	0.2222	0.0316	0.3208	0.053
Mof_C 	C 	0.252	0.0288	0.273	0.061
Mof_O 	O 	0.2528	0.5557	0.7935	-0.135
Mof_C 	C 	0.2283	0.5549	0.8162	-0.101
Mof_H 	H 	0.2088	0.5669	0.8077	0.055
Mof_H 	H 	0.2361	0.5655	0.8369	0.074
Mof_H 	H 	0.2222	0.5316	0.8208	0.055
Mof_C 	C 	0.252	0.5288	0.773	0.06
Mof_O 	O 	0.2472	0.9443	0.7935	-0.134
Mof_C 	C 	0.2717	0.9451	0.8162	-0.104
Mof_H 	H 	0.2912	0.9331	0.8077	0.056
Mof_H 	H 	0.2639	0.9345	0.8369	0.076
Mof_H 	H 	0.2778	0.9684	0.8208	0.058
Mof_C 	C 	0.248	0.9712	0.773	0.063
Mof_O 	O 	0.2472	0.4443	0.2935	-0.135
Mof_C 	C 	0.2717	0.4451	0.3162	-0.1
Mof_H 	H 	0.2912	0.4331	0.3077	0.055
Mof_H 	H 	0.2639	0.4345	0.3369	0.074
Mof_H 	H 	0.2778	0.4684	0.3208	0.054
Mof_C 	C 	0.248	0.4712	0.273	0.06
Mof_O 	O 	0.7472	0.9443	0.2935	-0.134
Mof_C 	C 	0.7717	0.9451	0.3162	-0.103
Mof_H 	H 	0.7912	0.9331	0.3077	0.056
Mof_H 	H 	0.7639	0.9345	0.3369	0.076
Mof_H 	H 	0.7778	0.9684	0.3208	0.057
Mof_C 	C 	0.748	0.9712	0.273	0.063
Mof_O 	O 	0.7472	0.4443	0.7935	-0.135
Mof_C 	C 	0.7717	0.4451	0.8162	-0.101
Mof_H 	H 	0.7912	0.4331	0.8077	0.055
Mof_H 	H 	0.7639	0.4345	0.8369	0.075
Mof_H 	H 	0.7778	0.4684	0.8208	0.055
Mof_C 	C 	0.748	0.4712	0.773	0.06
Mof_O 	O 	0.9443	0.7935	0.2472	-0.134
Mof_C 	C 	0.9451	0.8162	0.2717	-0.104
Mof_H 	H 	0.9331	0.8077	0.2912	0.056
Mof_H 	H 	0.9345	0.8369	0.2639	0.076
Mof_H 	H 	0.9684	0.8208	0.2778	0.058
Mof_C 	C 	0.9712	0.773	0.248	0.063
Mof_O 	O 	0.9443	0.2935	0.7472	-0.134
Mof_C 	C 	0.9451	0.3162	0.7717	-0.103
Mof_H 	H 	0.9331	0.3077	0.7912	0.056
Mof_H 	H 	0.9345	0.3369	0.7639	0.076
Mof_H 	H 	0.9684	0.3208	0.7778	0.057
Mof_C 	C 	0.9712	0.273	0.748	0.063
Mof_O 	O 	0.4443	0.7935	0.7472	-0.135
Mof_C 	C 	0.4451	0.8162	0.7717	-0.101
Mof_H 	H 	0.4331	0.8077	0.7912	0.055
Mof_H 	H 	0.4345	0.8369	0.7639	0.075
Mof_H 	H 	0.4684	0.8208	0.7778	0.055
Mof_C 	C 	0.4712	0.773	0.748	0.06
Mof_O 	O 	0.4443	0.2935	0.2472	-0.135
Mof_C 	C 	0.4451	0.3162	0.2717	-0.1
Mof_H 	H 	0.4331	0.3077	0.2912	0.055
Mof_H 	H 	0.4345	0.3369	0.2639	0.074
Mof_H 	H 	0.4684	0.3208	0.2778	0.054
Mof_C 	C 	0.4712	0.273	0.248	0.06
Mof_O 	O 	0.0557	0.7935	0.7528	-0.135
Mof_C 	C 	0.0549	0.8162	0.7283	-0.1
Mof_H 	H 	0.0669	0.8077	0.7088	0.055
Mof_H 	H 	0.0655	0.8369	0.7361	0.074
Mof_H 	H 	0.0316	0.8208	0.7222	0.054
Mof_C 	C 	0.0288	0.773	0.752	0.06
Mof_O 	O 	0.0557	0.2935	0.2528	-0.136
Mof_C 	C 	0.0549	0.3162	0.2283	-0.099
Mof_H 	H 	0.0669	0.3077	0.2088	0.054
Mof_H 	H 	0.0655	0.3369	0.2361	0.073
Mof_H 	H 	0.0316	0.3208	0.2222	0.053
Mof_C 	C 	0.0288	0.273	0.252	0.061
Mof_O 	O 	0.5557	0.7935	0.2528	-0.135
Mof_C 	C 	0.5549	0.8162	0.2283	-0.101
Mof_H 	H 	0.5669	0.8077	0.2088	0.055
Mof_H 	H 	0.5655	0.8369	0.2361	0.074
Mof_H 	H 	0.5316	0.8208	0.2222	0.055
Mof_C 	C 	0.5288	0.773	0.252	0.06
Mof_O 	O 	0.5557	0.2935	0.7528	-0.135
Mof_C 	C 	0.5549	0.3162	0.7283	-0.1
Mof_H 	H 	0.5669	0.3077	0.7088	0.055
Mof_H 	H 	0.5655	0.3369	0.7361	0.074
Mof_H 	H 	0.5316	0.3208	0.7222	0.054
Mof_C 	C 	0.5288	0.273	0.752	0.06
Mof_O 	O 	0.0557	0.2065	0.2472	-0.136
Mof_C 	C 	0.0549	0.1838	0.2717	-0.099
Mof_H 	H 	0.0669	0.1923	0.2912	0.054
Mof_H 	H 	0.0655	0.1631	0.2639	0.073
Mof_H 	H 	0.0316	0.1792	0.2778	0.053
Mof_C 	C 	0.0288	0.227	0.248	0.061
Mof_O 	O 	0.0557	0.7065	0.7472	-0.136
Mof_C 	C 	0.0549	0.6838	0.7717	-0.099
Mof_H 	H 	0.0669	0.6923	0.7912	0.054
Mof_H 	H 	0.0655	0.6631	0.7639	0.074
Mof_H 	H 	0.0316	0.6792	0.7778	0.054
Mof_C 	C 	0.0288	0.727	0.748	0.061
Mof_O 	O 	0.5557	0.2065	0.7472	-0.135
Mof_C 	C 	0.5549	0.1838	0.7717	-0.1
Mof_H 	H 	0.5669	0.1923	0.7912	0.055
Mof_H 	H 	0.5655	0.1631	0.7639	0.074
Mof_H 	H 	0.5316	0.1792	0.7778	0.054
Mof_C 	C 	0.5288	0.227	0.748	0.06
Mof_O 	O 	0.5557	0.7065	0.2472	-0.135
Mof_C 	C 	0.5549	0.6838	0.2717	-0.1
Mof_H 	H 	0.5669	0.6923	0.2912	0.055
Mof_H 	H 	0.5655	0.6631	0.2639	0.074
Mof_H 	H 	0.5316	0.6792	0.2778	0.054
Mof_C 	C 	0.5288	0.727	0.248	0.06
Mof_O 	O 	0.9443	0.2065	0.7528	-0.134
Mof_C 	C 	0.9451	0.1838	0.7283	-0.103
Mof_H 	H 	0.9331	0.1923	0.7088	0.056
Mof_H 	H 	0.9345	0.1631	0.7361	0.076
Mof_H 	H 	0.9684	0.1792	0.7222	0.057
Mof_C 	C 	0.9712	0.227	0.752	0.063
Mof_O 	O 	0.9443	0.7065	0.2528	-0.134
Mof_C 	C 	0.9451	0.6838	0.2283	-0.103
Mof_H 	H 	0.9331	0.6923	0.2088	0.056
Mof_H 	H 	0.9345	0.6631	0.2361	0.076
Mof_H 	H 	0.9684	0.6792	0.2222	0.057
Mof_C 	C 	0.9712	0.727	0.252	0.063
Mof_O 	O 	0.4443	0.2065	0.2528	-0.135
Mof_C 	C 	0.4451	0.1838	0.2283	-0.1
Mof_H 	H 	0.4331	0.1923	0.2088	0.055
Mof_H 	H 	0.4345	0.1631	0.2361	0.074
Mof_H 	H 	0.4684	0.1792	0.2222	0.054
Mof_C 	C 	0.4712	0.227	0.252	0.06
Mof_O 	O 	0.4443	0.7065	0.7528	-0.135
Mof_C 	C 	0.4451	0.6838	0.7283	-0.1
Mof_H 	H 	0.4331	0.6923	0.7088	0.055
Mof_H 	H 	0.4345	0.6631	0.7361	0.074
Mof_H 	H 	0.4684	0.6792	0.7222	0.054
Mof_C 	C 	0.4712	0.727	0.752	0.06
Mof_O 	O 	0.7935	0.7528	0.0557	-0.135
Mof_C 	C 	0.8162	0.7283	0.0549	-0.1
Mof_H 	H 	0.8077	0.7088	0.0669	0.055
Mof_H 	H 	0.8369	0.7361	0.0655	0.074
Mof_H 	H 	0.8208	0.7222	0.0316	0.054
Mof_C 	C 	0.773	0.752	0.0288	0.06
Mof_O 	O 	0.7935	0.2528	0.5557	-0.135
Mof_C 	C 	0.8162	0.2283	0.5549	-0.101
Mof_H 	H 	0.8077	0.2088	0.5669	0.055
Mof_H 	H 	0.8369	0.2361	0.5655	0.074
Mof_H 	H 	0.8208	0.2222	0.5316	0.055
Mof_C 	C 	0.773	0.252	0.5288	0.06
Mof_O 	O 	0.2935	0.7528	0.5557	-0.135
Mof_C 	C 	0.3162	0.7283	0.5549	-0.1
Mof_H 	H 	0.3077	0.7088	0.5669	0.055
Mof_H 	H 	0.3369	0.7361	0.5655	0.074
Mof_H 	H 	0.3208	0.7222	0.5316	0.054
Mof_C 	C 	0.273	0.752	0.5288	0.06
Mof_O 	O 	0.2935	0.2528	0.0557	-0.136
Mof_C 	C 	0.3162	0.2283	0.0549	-0.099
Mof_H 	H 	0.3077	0.2088	0.0669	0.054
Mof_H 	H 	0.3369	0.2361	0.0655	0.073
Mof_H 	H 	0.3208	0.2222	0.0316	0.053
Mof_C 	C 	0.273	0.252	0.0288	0.061
Mof_O 	O 	0.7935	0.2472	0.9443	-0.134
Mof_C 	C 	0.8162	0.2717	0.9451	-0.104
Mof_H 	H 	0.8077	0.2912	0.9331	0.056
Mof_H 	H 	0.8369	0.2639	0.9345	0.076
Mof_H 	H 	0.8208	0.2778	0.9684	0.058
Mof_C 	C 	0.773	0.248	0.9712	0.063
Mof_O 	O 	0.7935	0.7472	0.4443	-0.135
Mof_C 	C 	0.8162	0.7717	0.4451	-0.101
Mof_H 	H 	0.8077	0.7912	0.4331	0.055
Mof_H 	H 	0.8369	0.7639	0.4345	0.075
Mof_H 	H 	0.8208	0.7778	0.4684	0.055
Mof_C 	C 	0.773	0.748	0.4712	0.06
Mof_O 	O 	0.2935	0.2472	0.4443	-0.135
Mof_C 	C 	0.3162	0.2717	0.4451	-0.1
Mof_H 	H 	0.3077	0.2912	0.4331	0.055
Mof_H 	H 	0.3369	0.2639	0.4345	0.074
Mof_H 	H 	0.3208	0.2778	0.4684	0.054
Mof_C 	C 	0.273	0.248	0.4712	0.06
Mof_O 	O 	0.2935	0.7472	0.9443	-0.134
Mof_C 	C 	0.3162	0.7717	0.9451	-0.103
Mof_H 	H 	0.3077	0.7912	0.9331	0.056
Mof_H 	H 	0.3369	0.7639	0.9345	0.076
Mof_H 	H 	0.3208	0.7778	0.9684	0.057
Mof_C 	C 	0.273	0.748	0.9712	0.063
Mof_O 	O 	0.2065	0.7528	0.9443	-0.134
Mof_C 	C 	0.1838	0.7283	0.9451	-0.103
Mof_H 	H 	0.1923	0.7088	0.9331	0.056
Mof_H 	H 	0.1631	0.7361	0.9345	0.076
Mof_H 	H 	0.1792	0.7222	0.9684	0.057
Mof_C 	C 	0.227	0.752	0.9712	0.063
Mof_O 	O 	0.2065	0.2528	0.4443	-0.135
Mof_C 	C 	0.1838	0.2283	0.4451	-0.1
Mof_H 	H 	0.1923	0.2088	0.4331	0.055
Mof_H 	H 	0.1631	0.2361	0.4345	0.074
Mof_H 	H 	0.1792	0.2222	0.4684	0.054
Mof_C 	C 	0.227	0.252	0.4712	0.06
Mof_O 	O 	0.7065	0.7528	0.4443	-0.135
Mof_C 	C 	0.6838	0.7283	0.4451	-0.1
Mof_H 	H 	0.6923	0.7088	0.4331	0.055
Mof_H 	H 	0.6631	0.7361	0.4345	0.074
Mof_H 	H 	0.6792	0.7222	0.4684	0.054
Mof_C 	C 	0.727	0.752	0.4712	0.06
Mof_O 	O 	0.7065	0.2528	0.9443	-0.134
Mof_C 	C 	0.6838	0.2283	0.9451	-0.103
Mof_H 	H 	0.6923	0.2088	0.9331	0.056
Mof_H 	H 	0.6631	0.2361	0.9345	0.076
Mof_H 	H 	0.6792	0.2222	0.9684	0.057
Mof_C 	C 	0.727	0.252	0.9712	0.063
Mof_O 	O 	0.2065	0.2472	0.0557	-0.136
Mof_C 	C 	0.1838	0.2717	0.0549	-0.099
Mof_H 	H 	0.1923	0.2912	0.0669	0.054
Mof_H 	H 	0.1631	0.2639	0.0655	0.073
Mof_H 	H 	0.1792	0.2778	0.0316	0.053
Mof_C 	C 	0.227	0.248	0.0288	0.061
Mof_O 	O 	0.2065	0.7472	0.5557	-0.135
Mof_C 	C 	0.1838	0.7717	0.5549	-0.1
Mof_H 	H 	0.1923	0.7912	0.5669	0.055
Mof_H 	H 	0.1631	0.7639	0.5655	0.074
Mof_H 	H 	0.1792	0.7778	0.5316	0.054
Mof_C 	C 	0.227	0.748	0.5288	0.06
Mof_O 	O 	0.7065	0.2472	0.5557	-0.135
Mof_C 	C 	0.6838	0.2717	0.5549	-0.1
Mof_H 	H 	0.6923	0.2912	0.5669	0.055
Mof_H 	H 	0.6631	0.2639	0.5655	0.074
Mof_H 	H 	0.6792	0.2778	0.5316	0.054
Mof_C 	C 	0.727	0.248	0.5288	0.06
Mof_O 	O 	0.7065	0.7472	0.0557	-0.136
Mof_C 	C 	0.6838	0.7717	0.0549	-0.099
Mof_H 	H 	0.6923	0.7912	0.0669	0.054
Mof_H 	H 	0.6631	0.7639	0.0655	0.074
Mof_H 	H 	0.6792	0.7778	0.0316	0.054
Mof_C 	C 	0.727	0.748	0.0288	0.061
Mof_O 	O 	0.0557	0.2472	0.2065	-0.136
Mof_C 	C 	0.0549	0.2717	0.1838	-0.099
Mof_H 	H 	0.0669	0.2912	0.1923	0.054
Mof_H 	H 	0.0655	0.2639	0.1631	0.073
Mof_H 	H 	0.0316	0.2778	0.1792	0.053
Mof_C 	C 	0.0288	0.248	0.227	0.061
Mof_O 	O 	0.0557	0.7472	0.7065	-0.136
Mof_C 	C 	0.0549	0.7717	0.6838	-0.099
Mof_H 	H 	0.0669	0.7912	0.6923	0.054
Mof_H 	H 	0.0655	0.7639	0.6631	0.074
Mof_H 	H 	0.0316	0.7778	0.6792	0.054
Mof_C 	C 	0.0288	0.748	0.727	0.061
Mof_O 	O 	0.5557	0.2472	0.7065	-0.135
Mof_C 	C 	0.5549	0.2717	0.6838	-0.1
Mof_H 	H 	0.5669	0.2912	0.6923	0.055
Mof_H 	H 	0.5655	0.2639	0.6631	0.074
Mof_H 	H 	0.5316	0.2778	0.6792	0.054
Mof_C 	C 	0.5288	0.248	0.727	0.06
Mof_O 	O 	0.5557	0.7472	0.2065	-0.135
Mof_C 	C 	0.5549	0.7717	0.1838	-0.1
Mof_H 	H 	0.5669	0.7912	0.1923	0.055
Mof_H 	H 	0.5655	0.7639	0.1631	0.074
Mof_H 	H 	0.5316	0.7778	0.1792	0.054
Mof_C 	C 	0.5288	0.748	0.227	0.06
Mof_O 	O 	0.9443	0.7528	0.2065	-0.134
Mof_C 	C 	0.9451	0.7283	0.1838	-0.103
Mof_H 	H 	0.9331	0.7088	0.1923	0.056
Mof_H 	H 	0.9345	0.7361	0.1631	0.076
Mof_H 	H 	0.9684	0.7222	0.1792	0.057
Mof_C 	C 	0.9712	0.752	0.227	0.063
Mof_O 	O 	0.9443	0.2528	0.7065	-0.134
Mof_C 	C 	0.9451	0.2283	0.6838	-0.103
Mof_H 	H 	0.9331	0.2088	0.6923	0.056
Mof_H 	H 	0.9345	0.2361	0.6631	0.076
Mof_H 	H 	0.9684	0.2222	0.6792	0.057
Mof_C 	C 	0.9712	0.252	0.727	0.063
Mof_O 	O 	0.4443	0.7528	0.7065	-0.135
Mof_C 	C 	0.4451	0.7283	0.6838	-0.1
Mof_H 	H 	0.4331	0.7088	0.6923	0.055
Mof_H 	H 	0.4345	0.7361	0.6631	0.074
Mof_H 	H 	0.4684	0.7222	0.6792	0.054
Mof_C 	C 	0.4712	0.752	0.727	0.06
Mof_O 	O 	0.4443	0.2528	0.2065	-0.135
Mof_C 	C 	0.4451	0.2283	0.1838	-0.1
Mof_H 	H 	0.4331	0.2088	0.1923	0.055
Mof_H 	H 	0.4345	0.2361	0.1631	0.074
Mof_H 	H 	0.4684	0.2222	0.1792	0.054
Mof_C 	C 	0.4712	0.252	0.227	0.06
Mof_O 	O 	0.9443	0.2472	0.7935	-0.134
Mof_C 	C 	0.9451	0.2717	0.8162	-0.104
Mof_H 	H 	0.9331	0.2912	0.8077	0.056
Mof_H 	H 	0.9345	0.2639	0.8369	0.076
Mof_H 	H 	0.9684	0.2778	0.8208	0.058
Mof_C 	C 	0.9712	0.248	0.773	0.063
Mof_O 	O 	0.9443	0.7472	0.2935	-0.134
Mof_C 	C 	0.9451	0.7717	0.3162	-0.103
Mof_H 	H 	0.9331	0.7912	0.3077	0.056
Mof_H 	H 	0.9345	0.7639	0.3369	0.076
Mof_H 	H 	0.9684	0.7778	0.3208	0.057
Mof_C 	C 	0.9712	0.748	0.273	0.063
Mof_O 	O 	0.4443	0.2472	0.2935	-0.135
Mof_C 	C 	0.4451	0.2717	0.3162	-0.1
Mof_H 	H 	0.4331	0.2912	0.3077	0.055
Mof_H 	H 	0.4345	0.2639	0.3369	0.074
Mof_H 	H 	0.4684	0.2778	0.3208	0.054
Mof_C 	C 	0.4712	0.248	0.273	0.06
Mof_O 	O 	0.4443	0.7472	0.7935	-0.135
Mof_C 	C 	0.4451	0.7717	0.8162	-0.101
Mof_H 	H 	0.4331	0.7912	0.8077	0.055
Mof_H 	H 	0.4345	0.7639	0.8369	0.075
Mof_H 	H 	0.4684	0.7778	0.8208	0.055
Mof_C 	C 	0.4712	0.748	0.773	0.06
Mof_O 	O 	0.0557	0.7528	0.7935	-0.135
Mof_C 	C 	0.0549	0.7283	0.8162	-0.1
Mof_H 	H 	0.0669	0.7088	0.8077	0.055
Mof_H 	H 	0.0655	0.7361	0.8369	0.074
Mof_H 	H 	0.0316	0.7222	0.8208	0.054
Mof_C 	C 	0.0288	0.752	0.773	0.06
Mof_O 	O 	0.0557	0.2528	0.2935	-0.136
Mof_C 	C 	0.0549	0.2283	0.3162	-0.099
Mof_H 	H 	0.0669	0.2088	0.3077	0.054
Mof_H 	H 	0.0655	0.2361	0.3369	0.073
Mof_H 	H 	0.0316	0.2222	0.3208	0.053
Mof_C 	C 	0.0288	0.252	0.273	0.061
Mof_O 	O 	0.5557	0.7528	0.2935	-0.135
Mof_C 	C 	0.5549	0.7283	0.3162	-0.1
Mof_H 	H 	0.5669	0.7088	0.3077	0.055
Mof_H 	H 	0.5655	0.7361	0.3369	0.074
Mof_H 	H 	0.5316	0.7222	0.3208	0.054
Mof_C 	C 	0.5288	0.752	0.273	0.06
Mof_O 	O 	0.5557	0.2528	0.7935	-0.135
Mof_C 	C 	0.5549	0.2283	0.8162	-0.101
Mof_H 	H 	0.5669	0.2088	0.8077	0.055
Mof_H 	H 	0.5655	0.2361	0.8369	0.074
Mof_H 	H 	0.5316	0.2222	0.8208	0.055
Mof_C 	C 	0.5288	0.252	0.773	0.06
Mof_O 	O 	0.2065	0.0557	0.2472	-0.136
Mof_C 	C 	0.1838	0.0549	0.2717	-0.099
Mof_H 	H 	0.1923	0.0669	0.2912	0.054
Mof_H 	H 	0.1631	0.0655	0.2639	0.073
Mof_H 	H 	0.1792	0.0316	0.2778	0.053
Mof_C 	C 	0.227	0.0288	0.248	0.061
Mof_O 	O 	0.2065	0.5557	0.7472	-0.135
Mof_C 	C 	0.1838	0.5549	0.7717	-0.1
Mof_H 	H 	0.1923	0.5669	0.7912	0.055
Mof_H 	H 	0.1631	0.5655	0.7639	0.074
Mof_H 	H 	0.1792	0.5316	0.7778	0.054
Mof_C 	C 	0.227	0.5288	0.748	0.06
Mof_O 	O 	0.7065	0.0557	0.7472	-0.136
Mof_C 	C 	0.6838	0.0549	0.7717	-0.099
Mof_H 	H 	0.6923	0.0669	0.7912	0.054
Mof_H 	H 	0.6631	0.0655	0.7639	0.074
Mof_H 	H 	0.6792	0.0316	0.7778	0.054
Mof_C 	C 	0.727	0.0288	0.748	0.061
Mof_O 	O 	0.7065	0.5557	0.2472	-0.135
Mof_C 	C 	0.6838	0.5549	0.2717	-0.1
Mof_H 	H 	0.6923	0.5669	0.2912	0.055
Mof_H 	H 	0.6631	0.5655	0.2639	0.074
Mof_H 	H 	0.6792	0.5316	0.2778	0.054
Mof_C 	C 	0.727	0.5288	0.248	0.06
Mof_O 	O 	0.2065	0.9443	0.7528	-0.134
Mof_C 	C 	0.1838	0.9451	0.7283	-0.103
Mof_H 	H 	0.1923	0.9331	0.7088	0.056
Mof_H 	H 	0.1631	0.9345	0.7361	0.076
Mof_H 	H 	0.1792	0.9684	0.7222	0.057
Mof_C 	C 	0.227	0.9712	0.752	0.063
Mof_O 	O 	0.2065	0.4443	0.2528	-0.135
Mof_C 	C 	0.1838	0.4451	0.2283	-0.1
Mof_H 	H 	0.1923	0.4331	0.2088	0.055
Mof_H 	H 	0.1631	0.4345	0.2361	0.074
Mof_H 	H 	0.1792	0.4684	0.2222	0.054
Mof_C 	C 	0.227	0.4712	0.252	0.06
Mof_O 	O 	0.7065	0.9443	0.2528	-0.134
Mof_C 	C 	0.6838	0.9451	0.2283	-0.103
Mof_H 	H 	0.6923	0.9331	0.2088	0.056
Mof_H 	H 	0.6631	0.9345	0.2361	0.076
Mof_H 	H 	0.6792	0.9684	0.2222	0.057
Mof_C 	C 	0.727	0.9712	0.252	0.063
Mof_O 	O 	0.7065	0.4443	0.7528	-0.135
Mof_C 	C 	0.6838	0.4451	0.7283	-0.1
Mof_H 	H 	0.6923	0.4331	0.7088	0.055
Mof_H 	H 	0.6631	0.4345	0.7361	0.074
Mof_H 	H 	0.6792	0.4684	0.7222	0.054
Mof_C 	C 	0.727	0.4712	0.752	0.06
Mof_O 	O 	0.7935	0.9443	0.2472	-0.134
Mof_C 	C 	0.8162	0.9451	0.2717	-0.104
Mof_H 	H 	0.8077	0.9331	0.2912	0.056
Mof_H 	H 	0.8369	0.9345	0.2639	0.076
Mof_H 	H 	0.8208	0.9684	0.2778	0.058
Mof_C 	C 	0.773	0.9712	0.248	0.063
Mof_O 	O 	0.7935	0.4443	0.7472	-0.135
Mof_C 	C 	0.8162	0.4451	0.7717	-0.101
Mof_H 	H 	0.8077	0.4331	0.7912	0.055
Mof_H 	H 	0.8369	0.4345	0.7639	0.075
Mof_H 	H 	0.8208	0.4684	0.7778	0.055
Mof_C 	C 	0.773	0.4712	0.748	0.06
Mof_O 	O 	0.2935	0.9443	0.7472	-0.134
Mof_C 	C 	0.3162	0.9451	0.7717	-0.103
Mof_H 	H 	0.3077	0.9331	0.7912	0.056
Mof_H 	H 	0.3369	0.9345	0.7639	0.076
Mof_H 	H 	0.3208	0.9684	0.7778	0.057
Mof_C 	C 	0.273	0.9712	0.748	0.063
Mof_O 	O 	0.2935	0.4443	0.2472	-0.135
Mof_C 	C 	0.3162	0.4451	0.2717	-0.1
Mof_H 	H 	0.3077	0.4331	0.2912	0.055
Mof_H 	H 	0.3369	0.4345	0.2639	0.074
Mof_H 	H 	0.3208	0.4684	0.2778	0.054
Mof_C 	C 	0.273	0.4712	0.248	0.06
Mof_O 	O 	0.7935	0.0557	0.7528	-0.135
Mof_C 	C 	0.8162	0.0549	0.7283	-0.1
Mof_H 	H 	0.8077	0.0669	0.7088	0.055
Mof_H 	H 	0.8369	0.0655	0.7361	0.074
Mof_H 	H 	0.8208	0.0316	0.7222	0.054
Mof_C 	C 	0.773	0.0288	0.752	0.06
Mof_O 	O 	0.7935	0.5557	0.2528	-0.135
Mof_C 	C 	0.8162	0.5549	0.2283	-0.101
Mof_H 	H 	0.8077	0.5669	0.2088	0.055
Mof_H 	H 	0.8369	0.5655	0.2361	0.074
Mof_H 	H 	0.8208	0.5316	0.2222	0.055
Mof_C 	C 	0.773	0.5288	0.252	0.06
Mof_O 	O 	0.2935	0.0557	0.2528	-0.136
Mof_C 	C 	0.3162	0.0549	0.2283	-0.099
Mof_H 	H 	0.3077	0.0669	0.2088	0.054
Mof_H 	H 	0.3369	0.0655	0.2361	0.073
Mof_H 	H 	0.3208	0.0316	0.2222	0.053
Mof_C 	C 	0.273	0.0288	0.252	0.061
Mof_O 	O 	0.2935	0.5557	0.7528	-0.135
Mof_C 	C 	0.3162	0.5549	0.7283	-0.1
Mof_H 	H 	0.3077	0.5669	0.7088	0.055
Mof_H 	H 	0.3369	0.5655	0.7361	0.074
Mof_H 	H 	0.3208	0.5316	0.7222	0.054
Mof_C 	C 	0.273	0.5288	0.752	0.06
Mof_O 	O 	0.2472	0.2065	0.0557	-0.136
Mof_C 	C 	0.2717	0.1838	0.0549	-0.099
Mof_H 	H 	0.2912	0.1923	0.0669	0.054
Mof_H 	H 	0.2639	0.1631	0.0655	0.073
Mof_H 	H 	0.2778	0.1792	0.0316	0.053
Mof_C 	C 	0.248	0.227	0.0288	0.061
Mof_O 	O 	0.2472	0.7065	0.5557	-0.135
Mof_C 	C 	0.2717	0.6838	0.5549	-0.1
Mof_H 	H 	0.2912	0.6923	0.5669	0.055
Mof_H 	H 	0.2639	0.6631	0.5655	0.074
Mof_H 	H 	0.2778	0.6792	0.5316	0.054
Mof_C 	C 	0.248	0.727	0.5288	0.06
Mof_O 	O 	0.7472	0.2065	0.5557	-0.135
Mof_C 	C 	0.7717	0.1838	0.5549	-0.1
Mof_H 	H 	0.7912	0.1923	0.5669	0.055
Mof_H 	H 	0.7639	0.1631	0.5655	0.074
Mof_H 	H 	0.7778	0.1792	0.5316	0.054
Mof_C 	C 	0.748	0.227	0.5288	0.06
Mof_O 	O 	0.7472	0.7065	0.0557	-0.136
Mof_C 	C 	0.7717	0.6838	0.0549	-0.099
Mof_H 	H 	0.7912	0.6923	0.0669	0.054
Mof_H 	H 	0.7639	0.6631	0.0655	0.074
Mof_H 	H 	0.7778	0.6792	0.0316	0.054
Mof_C 	C 	0.748	0.727	0.0288	0.061
Mof_O 	O 	0.7528	0.2065	0.9443	-0.134
Mof_C 	C 	0.7283	0.1838	0.9451	-0.103
Mof_H 	H 	0.7088	0.1923	0.9331	0.056
Mof_H 	H 	0.7361	0.1631	0.9345	0.076
Mof_H 	H 	0.7222	0.1792	0.9684	0.057
Mof_C 	C 	0.752	0.227	0.9712	0.063
Mof_O 	O 	0.7528	0.7065	0.4443	-0.135
Mof_C 	C 	0.7283	0.6838	0.4451	-0.1
Mof_H 	H 	0.7088	0.6923	0.4331	0.055
Mof_H 	H 	0.7361	0.6631	0.4345	0.074
Mof_H 	H 	0.7222	0.6792	0.4684	0.054
Mof_C 	C 	0.752	0.727	0.4712	0.06
Mof_O 	O 	0.2528	0.2065	0.4443	-0.135
Mof_C 	C 	0.2283	0.1838	0.4451	-0.1
Mof_H 	H 	0.2088	0.1923	0.4331	0.055
Mof_H 	H 	0.2361	0.1631	0.4345	0.074
Mof_H 	H 	0.2222	0.1792	0.4684	0.054
Mof_C 	C 	0.252	0.227	0.4712	0.06
Mof_O 	O 	0.2528	0.7065	0.9443	-0.134
Mof_C 	C 	0.2283	0.6838	0.9451	-0.103
Mof_H 	H 	0.2088	0.6923	0.9331	0.056
Mof_H 	H 	0.2361	0.6631	0.9345	0.076
Mof_H 	H 	0.2222	0.6792	0.9684	0.057
Mof_C 	C 	0.252	0.727	0.9712	0.063
Mof_O 	O 	0.2472	0.7935	0.9443	-0.134
Mof_C 	C 	0.2717	0.8162	0.9451	-0.104
Mof_H 	H 	0.2912	0.8077	0.9331	0.056
Mof_H 	H 	0.2639	0.8369	0.9345	0.076
Mof_H 	H 	0.2778	0.8208	0.9684	0.058
Mof_C 	C 	0.248	0.773	0.9712	0.063
Mof_O 	O 	0.2472	0.2935	0.4443	-0.135
Mof_C 	C 	0.2717	0.3162	0.4451	-0.1
Mof_H 	H 	0.2912	0.3077	0.4331	0.055
Mof_H 	H 	0.2639	0.3369	0.4345	0.074
Mof_H 	H 	0.2778	0.3208	0.4684	0.054
Mof_C 	C 	0.248	0.273	0.4712	0.06
Mof_O 	O 	0.7472	0.7935	0.4443	-0.135
Mof_C 	C 	0.7717	0.8162	0.4451	-0.101
Mof_H 	H 	0.7912	0.8077	0.4331	0.055
Mof_H 	H 	0.7639	0.8369	0.4345	0.075
Mof_H 	H 	0.7778	0.8208	0.4684	0.055
Mof_C 	C 	0.748	0.773	0.4712	0.06
Mof_O 	O 	0.7472	0.2935	0.9443	-0.134
Mof_C 	C 	0.7717	0.3162	0.9451	-0.103
Mof_H 	H 	0.7912	0.3077	0.9331	0.056
Mof_H 	H 	0.7639	0.3369	0.9345	0.076
Mof_H 	H 	0.7778	0.3208	0.9684	0.057
Mof_C 	C 	0.748	0.273	0.9712	0.063
Mof_O 	O 	0.7528	0.7935	0.0557	-0.135
Mof_C 	C 	0.7283	0.8162	0.0549	-0.1
Mof_H 	H 	0.7088	0.8077	0.0669	0.055
Mof_H 	H 	0.7361	0.8369	0.0655	0.074
Mof_H 	H 	0.7222	0.8208	0.0316	0.054
Mof_C 	C 	0.752	0.773	0.0288	0.06
Mof_O 	O 	0.7528	0.2935	0.5557	-0.135
Mof_C 	C 	0.7283	0.3162	0.5549	-0.1
Mof_H 	H 	0.7088	0.3077	0.5669	0.055
Mof_H 	H 	0.7361	0.3369	0.5655	0.074
Mof_H 	H 	0.7222	0.3208	0.5316	0.054
Mof_C 	C 	0.752	0.273	0.5288	0.06
Mof_O 	O 	0.2528	0.7935	0.5557	-0.135
Mof_C 	C 	0.2283	0.8162	0.5549	-0.101
Mof_H 	H 	0.2088	0.8077	0.5669	0.055
Mof_H 	H 	0.2361	0.8369	0.5655	0.074
Mof_H 	H 	0.2222	0.8208	0.5316	0.055
Mof_C 	C 	0.252	0.773	0.5288	0.06
Mof_O 	O 	0.2528	0.2935	0.0557	-0.136
Mof_C 	C 	0.2283	0.3162	0.0549	-0.099
Mof_H 	H 	0.2088	0.3077	0.0669	0.054
Mof_H 	H 	0.2361	0.3369	0.0655	0.073
Mof_H 	H 	0.2222	0.3208	0.0316	0.053
Mof_C 	C 	0.252	0.273	0.0288	0.061
Mof_O 	O 	0.2472	0.0557	0.7935	-0.135
Mof_C 	C 	0.2717	0.0549	0.8162	-0.1
Mof_H 	H 	0.2912	0.0669	0.8077	0.055
Mof_H 	H 	0.2639	0.0655	0.8369	0.074
Mof_H 	H 	0.2778	0.0316	0.8208	0.054
Mof_C 	C 	0.248	0.0288	0.773	0.06
Mof_O 	O 	0.2472	0.5557	0.2935	-0.135
Mof_C 	C 	0.2717	0.5549	0.3162	-0.1
Mof_H 	H 	0.2912	0.5669	0.3077	0.055
Mof_H 	H 	0.2639	0.5655	0.3369	0.074
Mof_H 	H 	0.2778	0.5316	0.3208	0.054
Mof_C 	C 	0.248	0.5288	0.273	0.06
Mof_O 	O 	0.7472	0.0557	0.2935	-0.136
Mof_C 	C 	0.7717	0.0549	0.3162	-0.099
Mof_H 	H 	0.7912	0.0669	0.3077	0.054
Mof_H 	H 	0.7639	0.0655	0.3369	0.074
Mof_H 	H 	0.7778	0.0316	0.3208	0.054
Mof_C 	C 	0.748	0.0288	0.273	0.061
Mof_O 	O 	0.7472	0.5557	0.7935	-0.135
Mof_C 	C 	0.7717	0.5549	0.8162	-0.101
Mof_H 	H 	0.7912	0.5669	0.8077	0.055
Mof_H 	H 	0.7639	0.5655	0.8369	0.074
Mof_H 	H 	0.7778	0.5316	0.8208	0.055
Mof_C 	C 	0.748	0.5288	0.773	0.06
Mof_O 	O 	0.7528	0.9443	0.7935	-0.134
Mof_C 	C 	0.7283	0.9451	0.8162	-0.104
Mof_H 	H 	0.7088	0.9331	0.8077	0.056
Mof_H 	H 	0.7361	0.9345	0.8369	0.076
Mof_H 	H 	0.7222	0.9684	0.8208	0.058
Mof_C 	C 	0.752	0.9712	0.773	0.063
Mof_O 	O 	0.7528	0.4443	0.2935	-0.135
Mof_C 	C 	0.7283	0.4451	0.3162	-0.1
Mof_H 	H 	0.7088	0.4331	0.3077	0.055
Mof_H 	H 	0.7361	0.4345	0.3369	0.074
Mof_H 	H 	0.7222	0.4684	0.3208	0.054
Mof_C 	C 	0.752	0.4712	0.273	0.06
Mof_O 	O 	0.2528	0.9443	0.2935	-0.134
Mof_C 	C 	0.2283	0.9451	0.3162	-0.103
Mof_H 	H 	0.2088	0.9331	0.3077	0.056
Mof_H 	H 	0.2361	0.9345	0.3369	0.076
Mof_H 	H 	0.2222	0.9684	0.3208	0.057
Mof_C 	C 	0.252	0.9712	0.273	0.063
Mof_O 	O 	0.2528	0.4443	0.7935	-0.135
Mof_C 	C 	0.2283	0.4451	0.8162	-0.101
Mof_H 	H 	0.2088	0.4331	0.8077	0.055
Mof_H 	H 	0.2361	0.4345	0.8369	0.074
Mof_H 	H 	0.2222	0.4684	0.8208	0.055
Mof_C 	C 	0.252	0.4712	0.773	0.06
Mof_O 	O 	0.2472	0.9443	0.2065	-0.134
Mof_C 	C 	0.2717	0.9451	0.1838	-0.103
Mof_H 	H 	0.2912	0.9331	0.1923	0.056
Mof_H 	H 	0.2639	0.9345	0.1631	0.076
Mof_H 	H 	0.2778	0.9684	0.1792	0.057
Mof_C 	C 	0.248	0.9712	0.227	0.063
Mof_O 	O 	0.2472	0.4443	0.7065	-0.135
Mof_C 	C 	0.2717	0.4451	0.6838	-0.1
Mof_H 	H 	0.2912	0.4331	0.6923	0.055
Mof_H 	H 	0.2639	0.4345	0.6631	0.074
Mof_H 	H 	0.2778	0.4684	0.6792	0.054
Mof_C 	C 	0.248	0.4712	0.727	0.06
Mof_O 	O 	0.7472	0.9443	0.7065	-0.134
Mof_C 	C 	0.7717	0.9451	0.6838	-0.103
Mof_H 	H 	0.7912	0.9331	0.6923	0.056
Mof_H 	H 	0.7639	0.9345	0.6631	0.076
Mof_H 	H 	0.7778	0.9684	0.6792	0.057
Mof_C 	C 	0.748	0.9712	0.727	0.063
Mof_O 	O 	0.7472	0.4443	0.2065	-0.135
Mof_C 	C 	0.7717	0.4451	0.1838	-0.1
Mof_H 	H 	0.7912	0.4331	0.1923	0.055
Mof_H 	H 	0.7639	0.4345	0.1631	0.074
Mof_H 	H 	0.7778	0.4684	0.1792	0.054
Mof_C 	C 	0.748	0.4712	0.227	0.06
Mof_O 	O 	0.7528	0.0557	0.2065	-0.136
Mof_C 	C 	0.7283	0.0549	0.1838	-0.099
Mof_H 	H 	0.7088	0.0669	0.1923	0.054
Mof_H 	H 	0.7361	0.0655	0.1631	0.073
Mof_H 	H 	0.7222	0.0316	0.1792	0.053
Mof_C 	C 	0.752	0.0288	0.227	0.061
Mof_O 	O 	0.7528	0.5557	0.7065	-0.135
Mof_C 	C 	0.7283	0.5549	0.6838	-0.1
Mof_H 	H 	0.7088	0.5669	0.6923	0.055
Mof_H 	H 	0.7361	0.5655	0.6631	0.074
Mof_H 	H 	0.7222	0.5316	0.6792	0.054
Mof_C 	C 	0.752	0.5288	0.727	0.06
Mof_O 	O 	0.2528	0.0557	0.7065	-0.136
Mof_C 	C 	0.2283	0.0549	0.6838	-0.099
Mof_H 	H 	0.2088	0.0669	0.6923	0.054
Mof_H 	H 	0.2361	0.0655	0.6631	0.073
Mof_H 	H 	0.2222	0.0316	0.6792	0.053
Mof_C 	C 	0.252	0.0288	0.727	0.061
Mof_O 	O 	0.2528	0.5557	0.2065	-0.135
Mof_C 	C 	0.2283	0.5549	0.1838	-0.1
Mof_H 	H 	0.2088	0.5669	0.1923	0.055
Mof_H 	H 	0.2361	0.5655	0.1631	0.074
Mof_H 	H 	0.2222	0.5316	0.1792	0.054
Mof_C 	C 	0.252	0.5288	0.227	0.06
Mof_O 	O 	0.0557	0.2065	0.7528	-0.136
Mof_C 	C 	0.0549	0.1838	0.7283	-0.099
Mof_H 	H 	0.0669	0.1923	0.7088	0.054
Mof_H 	H 	0.0655	0.1631	0.7361	0.073
Mof_H 	H 	0.0316	0.1792	0.7222	0.053
Mof_C 	C 	0.0288	0.227	0.752	0.061
Mof_O 	O 	0.0557	0.7065	0.2528	-0.136
Mof_C 	C 	0.0549	0.6838	0.2283	-0.099
Mof_H 	H 	0.0669	0.6923	0.2088	0.054
Mof_H 	H 	0.0655	0.6631	0.2361	0.073
Mof_H 	H 	0.0316	0.6792	0.2222	0.053
Mof_C 	C 	0.0288	0.727	0.252	0.061
Mof_O 	O 	0.5557	0.2065	0.2528	-0.135
Mof_C 	C 	0.5549	0.1838	0.2283	-0.1
Mof_H 	H 	0.5669	0.1923	0.2088	0.055
Mof_H 	H 	0.5655	0.1631	0.2361	0.074
Mof_H 	H 	0.5316	0.1792	0.2222	0.054
Mof_C 	C 	0.5288	0.227	0.252	0.06
Mof_O 	O 	0.5557	0.7065	0.7528	-0.135
Mof_C 	C 	0.5549	0.6838	0.7283	-0.1
Mof_H 	H 	0.5669	0.6923	0.7088	0.055
Mof_H 	H 	0.5655	0.6631	0.7361	0.074
Mof_H 	H 	0.5316	0.6792	0.7222	0.054
Mof_C 	C 	0.5288	0.727	0.752	0.06
Mof_O 	O 	0.9443	0.2065	0.2472	-0.134
Mof_C 	C 	0.9451	0.1838	0.2717	-0.103
Mof_H 	H 	0.9331	0.1923	0.2912	0.056
Mof_H 	H 	0.9345	0.1631	0.2639	0.076
Mof_H 	H 	0.9684	0.1792	0.2778	0.057
Mof_C 	C 	0.9712	0.227	0.248	0.063
Mof_O 	O 	0.9443	0.7065	0.7472	-0.134
Mof_C 	C 	0.9451	0.6838	0.7717	-0.103
Mof_H 	H 	0.9331	0.6923	0.7912	0.056
Mof_H 	H 	0.9345	0.6631	0.7639	0.076
Mof_H 	H 	0.9684	0.6792	0.7778	0.057
Mof_C 	C 	0.9712	0.727	0.748	0.063
Mof_O 	O 	0.4443	0.2065	0.7472	-0.135
Mof_C 	C 	0.4451	0.1838	0.7717	-0.1
Mof_H 	H 	0.4331	0.1923	0.7912	0.055
Mof_H 	H 	0.4345	0.1631	0.7639	0.074
Mof_H 	H 	0.4684	0.1792	0.7778	0.054
Mof_C 	C 	0.4712	0.227	0.748	0.06
Mof_O 	O 	0.4443	0.7065	0.2472	-0.135
Mof_C 	C 	0.4451	0.6838	0.2717	-0.1
Mof_H 	H 	0.4331	0.6923	0.2912	0.055
Mof_H 	H 	0.4345	0.6631	0.2639	0.074
Mof_H 	H 	0.4684	0.6792	0.2778	0.054
Mof_C 	C 	0.4712	0.727	0.248	0.06
Mof_O 	O 	0.9443	0.7935	0.7528	-0.134
Mof_C 	C 	0.9451	0.8162	0.7283	-0.104
Mof_H 	H 	0.9331	0.8077	0.7088	0.056
Mof_H 	H 	0.9345	0.8369	0.7361	0.076
Mof_H 	H 	0.9684	0.8208	0.7222	0.058
Mof_C 	C 	0.9712	0.773	0.752	0.063
Mof_O 	O 	0.9443	0.2935	0.2528	-0.134
Mof_C 	C 	0.9451	0.3162	0.2283	-0.103
Mof_H 	H 	0.9331	0.3077	0.2088	0.056
Mof_H 	H 	0.9345	0.3369	0.2361	0.076
Mof_H 	H 	0.9684	0.3208	0.2222	0.057
Mof_C 	C 	0.9712	0.273	0.252	0.063
Mof_O 	O 	0.4443	0.7935	0.2528	-0.135
Mof_C 	C 	0.4451	0.8162	0.2283	-0.101
Mof_H 	H 	0.4331	0.8077	0.2088	0.055
Mof_H 	H 	0.4345	0.8369	0.2361	0.074
Mof_H 	H 	0.4684	0.8208	0.2222	0.055
Mof_C 	C 	0.4712	0.773	0.252	0.06
Mof_O 	O 	0.4443	0.2935	0.7528	-0.135
Mof_C 	C 	0.4451	0.3162	0.7283	-0.1
Mof_H 	H 	0.4331	0.3077	0.7088	0.055
Mof_H 	H 	0.4345	0.3369	0.7361	0.074
Mof_H 	H 	0.4684	0.3208	0.7222	0.054
Mof_C 	C 	0.4712	0.273	0.752	0.06
Mof_O 	O 	0.0557	0.7935	0.2472	-0.135
Mof_C 	C 	0.0549	0.8162	0.2717	-0.1
Mof_H 	H 	0.0669	0.8077	0.2912	0.055
Mof_H 	H 	0.0655	0.8369	0.2639	0.074
Mof_H 	H 	0.0316	0.8208	0.2778	0.054
Mof_C 	C 	0.0288	0.773	0.248	0.06
Mof_O 	O 	0.0557	0.2935	0.7472	-0.136
Mof_C 	C 	0.0549	0.3162	0.7717	-0.099
Mof_H 	H 	0.0669	0.3077	0.7912	0.054
Mof_H 	H 	0.0655	0.3369	0.7639	0.074
Mof_H 	H 	0.0316	0.3208	0.7778	0.054
Mof_C 	C 	0.0288	0.273	0.748	0.061
Mof_O 	O 	0.5557	0.7935	0.7472	-0.135
Mof_C 	C 	0.5549	0.8162	0.7717	-0.101
Mof_H 	H 	0.5669	0.8077	0.7912	0.055
Mof_H 	H 	0.5655	0.8369	0.7639	0.074
Mof_H 	H 	0.5316	0.8208	0.7778	0.055
Mof_C 	C 	0.5288	0.773	0.748	0.06
Mof_O 	O 	0.5557	0.2935	0.2472	-0.135
Mof_C 	C 	0.5549	0.3162	0.2717	-0.1
Mof_H 	H 	0.5669	0.3077	0.2912	0.055
Mof_H 	H 	0.5655	0.3369	0.2639	0.074
Mof_H 	H 	0.5316	0.3208	0.2778	0.054
Mof_C 	C 	0.5288	0.273	0.248	0.06
Mof_O 	O 	0.2065	0.2472	0.9443	-0.134
Mof_C 	C 	0.1838	0.2717	0.9451	-0.103
Mof_H 	H 	0.1923	0.2912	0.9331	0.056
Mof_H 	H 	0.1631	0.2639	0.9345	0.076
Mof_H 	H 	0.1792	0.2778	0.9684	0.057
Mof_C 	C 	0.227	0.248	0.9712	0.063
Mof_O 	O 	0.2065	0.7472	0.4443	-0.135
Mof_C 	C 	0.1838	0.7717	0.4451	-0.1
Mof_H 	H 	0.1923	0.7912	0.4331	0.055
Mof_H 	H 	0.1631	0.7639	0.4345	0.074
Mof_H 	H 	0.1792	0.7778	0.4684	0.054
Mof_C 	C 	0.227	0.748	0.4712	0.06
Mof_O 	O 	0.7065	0.2472	0.4443	-0.135
Mof_C 	C 	0.6838	0.2717	0.4451	-0.1
Mof_H 	H 	0.6923	0.2912	0.4331	0.055
Mof_H 	H 	0.6631	0.2639	0.4345	0.074
Mof_H 	H 	0.6792	0.2778	0.4684	0.054
Mof_C 	C 	0.727	0.248	0.4712	0.06
Mof_O 	O 	0.7065	0.7472	0.9443	-0.134
Mof_C 	C 	0.6838	0.7717	0.9451	-0.103
Mof_H 	H 	0.6923	0.7912	0.9331	0.056
Mof_H 	H 	0.6631	0.7639	0.9345	0.076
Mof_H 	H 	0.6792	0.7778	0.9684	0.057
Mof_C 	C 	0.727	0.748	0.9712	0.063
Mof_O 	O 	0.2065	0.7528	0.0557	-0.136
Mof_C 	C 	0.1838	0.7283	0.0549	-0.099
Mof_H 	H 	0.1923	0.7088	0.0669	0.054
Mof_H 	H 	0.1631	0.7361	0.0655	0.073
Mof_H 	H 	0.1792	0.7222	0.0316	0.053
Mof_C 	C 	0.227	0.752	0.0288	0.061
Mof_O 	O 	0.2065	0.2528	0.5557	-0.135
Mof_C 	C 	0.1838	0.2283	0.5549	-0.1
Mof_H 	H 	0.1923	0.2088	0.5669	0.055
Mof_H 	H 	0.1631	0.2361	0.5655	0.074
Mof_H 	H 	0.1792	0.2222	0.5316	0.054
Mof_C 	C 	0.227	0.252	0.5288	0.06
Mof_O 	O 	0.7065	0.7528	0.5557	-0.135
Mof_C 	C 	0.6838	0.7283	0.5549	-0.1
Mof_H 	H 	0.6923	0.7088	0.5669	0.055
Mof_H 	H 	0.6631	0.7361	0.5655	0.074
Mof_H 	H 	0.6792	0.7222	0.5316	0.054
Mof_C 	C 	0.727	0.752	0.5288	0.06
Mof_O 	O 	0.7065	0.2528	0.0557	-0.136
Mof_C 	C 	0.6838	0.2283	0.0549	-0.099
Mof_H 	H 	0.6923	0.2088	0.0669	0.054
Mof_H 	H 	0.6631	0.2361	0.0655	0.073
Mof_H 	H 	0.6792	0.2222	0.0316	0.053
Mof_C 	C 	0.727	0.252	0.0288	0.061
Mof_O 	O 	0.7935	0.2472	0.0557	-0.135
Mof_C 	C 	0.8162	0.2717	0.0549	-0.1
Mof_H 	H 	0.8077	0.2912	0.0669	0.055
Mof_H 	H 	0.8369	0.2639	0.0655	0.074
Mof_H 	H 	0.8208	0.2778	0.0316	0.054
Mof_C 	C 	0.773	0.248	0.0288	0.06
Mof_O 	O 	0.7935	0.7472	0.5557	-0.135
Mof_C 	C 	0.8162	0.7717	0.5549	-0.101
Mof_H 	H 	0.8077	0.7912	0.5669	0.055
Mof_H 	H 	0.8369	0.7639	0.5655	0.074
Mof_H 	H 	0.8208	0.7778	0.5316	0.055
Mof_C 	C 	0.773	0.748	0.5288	0.06
Mof_O 	O 	0.2935	0.2472	0.5557	-0.135
Mof_C 	C 	0.3162	0.2717	0.5549	-0.1
Mof_H 	H 	0.3077	0.2912	0.5669	0.055
Mof_H 	H 	0.3369	0.2639	0.5655	0.074
Mof_H 	H 	0.3208	0.2778	0.5316	0.054
Mof_C 	C 	0.273	0.248	0.5288	0.06
Mof_O 	O 	0.2935	0.7472	0.0557	-0.136
Mof_C 	C 	0.3162	0.7717	0.0549	-0.099
Mof_H 	H 	0.3077	0.7912	0.0669	0.054
Mof_H 	H 	0.3369	0.7639	0.0655	0.074
Mof_H 	H 	0.3208	0.7778	0.0316	0.054
Mof_C 	C 	0.273	0.748	0.0288	0.061
Mof_O 	O 	0.7935	0.7528	0.9443	-0.134
Mof_C 	C 	0.8162	0.7283	0.9451	-0.104
Mof_H 	H 	0.8077	0.7088	0.9331	0.056
Mof_H 	H 	0.8369	0.7361	0.9345	0.076
Mof_H 	H 	0.8208	0.7222	0.9684	0.058
Mof_C 	C 	0.773	0.752	0.9712	0.063
Mof_O 	O 	0.7935	0.2528	0.4443	-0.135
Mof_C 	C 	0.8162	0.2283	0.4451	-0.101
Mof_H 	H 	0.8077	0.2088	0.4331	0.055
Mof_H 	H 	0.8369	0.2361	0.4345	0.074
Mof_H 	H 	0.8208	0.2222	0.4684	0.055
Mof_C 	C 	0.773	0.252	0.4712	0.06
Mof_O 	O 	0.2935	0.7528	0.4443	-0.135
Mof_C 	C 	0.3162	0.7283	0.4451	-0.1
Mof_H 	H 	0.3077	0.7088	0.4331	0.055
Mof_H 	H 	0.3369	0.7361	0.4345	0.074
Mof_H 	H 	0.3208	0.7222	0.4684	0.054
Mof_C 	C 	0.273	0.752	0.4712	0.06
Mof_O 	O 	0.2935	0.2528	0.9443	-0.134
Mof_C 	C 	0.3162	0.2283	0.9451	-0.103
Mof_H 	H 	0.3077	0.2088	0.9331	0.056
Mof_H 	H 	0.3369	0.2361	0.9345	0.076
Mof_H 	H 	0.3208	0.2222	0.9684	0.057
Mof_C 	C 	0.273	0.252	0.9712	0.063
Mof_Cu	Cu	6.2986e-33	0.8272	-0	0.901
Mof_Cu	Cu	-0	0.76156	-0	0.898
Mof_Cu	Cu	1.8747e-33	0.3272	0.5	0.902
Mof_Cu	Cu	8.1733e-33	0.26156	0.5	0.899
Mof_Cu	Cu	0.5	0.8272	0.5	0.903
Mof_Cu	Cu	0.5	0.76156	0.5	0.9
Mof_Cu	Cu	0.5	0.3272	-0	0.902
Mof_Cu	Cu	0.5	0.26156	-0	0.899
Mof_Cu	Cu	-0	0.1728	-0	0.9
Mof_Cu	Cu	3.1493e-33	0.23844	-0	0.898
Mof_Cu	Cu	-4.4239e-33	0.6728	0.5	0.902
Mof_Cu	Cu	-1.07225e-32	0.73844	0.5	0.899
Mof_Cu	Cu	0.5	0.1728	0.5	0.903
Mof_Cu	Cu	0.5	0.23844	0.5	0.9
Mof_Cu	Cu	0.5	0.6728	-0	0.902
Mof_Cu	Cu	0.5	0.73844	-0	0.899
Mof_Cu	Cu	9.4001e-33	6.2986e-33	0.8272	0.901
Mof_Cu	Cu	2.85539e-33	0	0.76156	0.898
Mof_Cu	Cu	7.5254e-33	0.5	0.3272	0.902
Mof_Cu	Cu	1.04286e-32	0.5	0.26156	0.899
Mof_Cu	Cu	0.5	0	0.3272	0.902
Mof_Cu	Cu	0.5	3.1493e-33	0.26156	0.899
Mof_Cu	Cu	0.5	0.5	0.8272	0.903
Mof_Cu	Cu	0.5	0.5	0.76156	0.9
Mof_Cu	Cu	6.47896e-34	0	0.1728	0.9
Mof_Cu	Cu	4.04331e-33	3.1493e-33	0.23844	0.898
Mof_Cu	Cu	-3.776e-33	0.5	0.6728	0.902
Mof_Cu	Cu	-9.82849e-33	0.5	0.73844	0.899
Mof_Cu	Cu	0.5	0	0.6728	0.902
Mof_Cu	Cu	0.5	0	0.73844	0.899
Mof_Cu	Cu	0.5	0.5	0.1728	0.903
Mof_Cu	Cu	0.5	0.5	0.23844	0.9
Mof_Cu	Cu	0.8272	0	-0	0.901
Mof_Cu	Cu	0.76156	0	-0	0.898
Mof_Cu	Cu	0.8272	0.5	0.5	0.903
Mof_Cu	Cu	0.76156	0.5	0.5	0.9
Mof_Cu	Cu	0.3272	0	0.5	0.902
Mof_Cu	Cu	0.26156	0	0.5	0.899
Mof_Cu	Cu	0.3272	0.5	-0	0.902
Mof_Cu	Cu	0.26156	0.5	-0	0.899
Mof_Cu	Cu	0.1728	0	-0	0.9
Mof_Cu	Cu	0.23844	0	-0	0.898
Mof_Cu	Cu	0.1728	0.5	0.5	0.903
Mof_Cu	Cu	0.23844	0.5	0.5	0.9
Mof_Cu	Cu	0.6728	0	0.5	0.902
Mof_Cu	Cu	0.73844	0	0.5	0.899
Mof_Cu	Cu	0.6728	0.5	-0	0.902
Mof_Cu	Cu	0.73844	0.5	-0	0.899
Mof_O 	O 	1.6164e-32	0.82321	0.95129	-0.409
Mof_O 	O 	-9.02942e-33	0.76583	0.95156	-0.4
Mof_C 	C 	-9.07823e-33	0.7955	0.93854	0.342
Mof_C 	C 	1.59713e-32	0.7952	0.8999	-0.081
Mof_C 	C 	3.31634e-33	0.825	0.8845	-0.007
Mof_H 	H 	1.59604e-32	0.8452	0.897	0.057
Mof_C 	C 	-1.57141e-32	0.8256	0.8486	-0.021
Mof_C 	C 	-9.46795e-33	0.7948	0.8346	0.108
Mof_C 	C 	2.20865e-32	0.7645	0.851	-0.127
Mof_H 	H 	1.57437e-32	0.7439	0.8392	0.07
Mof_C 	C 	9.61044e-33	0.7656	0.8833	0.044
Mof_H 	H 	3.35796e-33	0.7454	0.8956	0.029
Mof_O 	O 	-4.60653e-33	0.32321	0.45129	-0.413
Mof_O 	O 	-1.45622e-33	0.26583	0.45156	-0.403
Mof_C 	C 	-7.80363e-33	0.2955	0.43854	0.342
Mof_C 	C 	1.49938e-33	0.2952	0.3999	-0.082
Mof_C 	C 	1.44164e-33	0.325	0.3845	-0.007
Mof_H 	H 	-4.81009e-33	0.3452	0.397	0.056
Mof_C 	C 	4.45634e-33	0.3256	0.3486	-0.022
Mof_C 	C 	4.40385e-33	0.2948	0.3346	0.109
Mof_C 	C 	1.31604e-33	0.2645	0.351	-0.128
Mof_H 	H 	4.42109e-33	0.2439	0.3392	0.071
Mof_C 	C 	4.58644e-33	0.2656	0.3833	0.044
Mof_H 	H 	1.48326e-33	0.2454	0.3956	0.028
Mof_O 	O 	0.5	0.82321	0.45129	-0.411
Mof_O 	O 	0.5	0.76583	0.45156	-0.401
Mof_C 	C 	0.5	0.7955	0.43854	0.342
Mof_C 	C 	0.5	0.7952	0.3999	-0.081
Mof_C 	C 	0.5	0.825	0.3845	-0.006
Mof_H 	H 	0.5	0.8452	0.397	0.057
Mof_C 	C 	0.5	0.8256	0.3486	-0.022
Mof_C 	C 	0.5	0.7948	0.3346	0.11
Mof_C 	C 	0.5	0.7645	0.351	-0.128
Mof_H 	H 	0.5	0.7439	0.3392	0.072
Mof_C 	C 	0.5	0.7656	0.3833	0.045
Mof_H 	H 	0.5	0.7454	0.3956	0.029
Mof_O 	O 	0.5	0.32321	0.95129	-0.408
Mof_O 	O 	0.5	0.26583	0.95156	-0.398
Mof_C 	C 	0.5	0.2955	0.93854	0.342
Mof_C 	C 	0.5	0.2952	0.8999	-0.08
Mof_C 	C 	0.5	0.325	0.8845	-0.007
Mof_H 	H 	0.5	0.3452	0.897	0.057
Mof_C 	C 	0.5	0.3256	0.8486	-0.021
Mof_C 	C 	0.5	0.2948	0.8346	0.109
Mof_C 	C 	0.5	0.2645	0.851	-0.127
Mof_H 	H 	0.5	0.2439	0.8392	0.072
Mof_C 	C 	0.5	0.2656	0.8833	0.044
Mof_H 	H 	0.5	0.2454	0.8956	0.029
Mof_O 	O 	3.56677e-33	0.17679	0.95129	-0.409
Mof_O 	O 	-9.02942e-33	0.23417	0.95156	-0.4
Mof_C 	C 	-9.07823e-33	0.2045	0.93854	0.342
Mof_C 	C 	9.67268e-33	0.2048	0.8999	-0.081
Mof_C 	C 	3.31634e-33	0.175	0.8845	-0.007
Mof_H 	H 	3.36321e-33	0.1548	0.897	0.057
Mof_C 	C 	3.18174e-33	0.1744	0.8486	-0.021
Mof_C 	C 	-3.16935e-33	0.2052	0.8346	0.108
Mof_C 	C 	9.48934e-33	0.2355	0.851	-0.127
Mof_H 	H 	3.1465e-33	0.2561	0.8392	0.07
Mof_C 	C 	9.61044e-33	0.2344	0.8833	0.044
Mof_H 	H 	-2.94063e-33	0.2546	0.8956	0.029
Mof_O 	O 	1.42893e-32	0.67679	0.45129	-0.413
Mof_O 	O 	4.84238e-33	0.73417	0.45156	-0.403
Mof_C 	C 	4.79356e-33	0.7045	0.43854	0.342
Mof_C 	C 	1.49938e-33	0.7048	0.3999	-0.082
Mof_C 	C 	1.40388e-32	0.675	0.3845	-0.007
Mof_H 	H 	-4.81009e-33	0.6548	0.397	0.056
Mof_C 	C 	1.07549e-32	0.6744	0.3486	-0.022
Mof_C 	C 	1.25455e-33	0.7052	0.3346	0.108
Mof_C 	C 	1.31604e-33	0.7355	0.351	-0.128
Mof_H 	H 	1.2718e-33	0.7561	0.3392	0.071
Mof_C 	C 	1.71836e-32	0.7344	0.3833	0.044
Mof_H 	H 	-4.81533e-33	0.7546	0.3956	0.028
Mof_O 	O 	0.5	0.17679	0.45129	-0.411
Mof_O 	O 	0.5	0.23417	0.45156	-0.402
Mof_C 	C 	0.5	0.2045	0.43854	0.342
Mof_C 	C 	0.5	0.2048	0.3999	-0.082
Mof_C 	C 	0.5	0.175	0.3845	-0.007
Mof_H 	H 	0.5	0.1548	0.397	0.056
Mof_C 	C 	0.5	0.1744	0.3486	-0.022
Mof_C 	C 	0.5	0.2052	0.3346	0.11
Mof_C 	C 	0.5	0.2355	0.351	-0.128
Mof_H 	H 	0.5	0.2561	0.3392	0.072
Mof_C 	C 	0.5	0.2344	0.3833	0.045
Mof_H 	H 	0.5	0.2546	0.3956	0.029
Mof_O 	O 	0.5	0.67679	0.95129	-0.408
Mof_O 	O 	0.5	0.73417	0.95156	-0.398
Mof_C 	C 	0.5	0.7045	0.93854	0.342
Mof_C 	C 	0.5	0.7048	0.8999	-0.08
Mof_C 	C 	0.5	0.675	0.8845	-0.007
Mof_H 	H 	0.5	0.6548	0.897	0.057
Mof_C 	C 	0.5	0.6744	0.8486	-0.021
Mof_C 	C 	0.5	0.7052	0.8346	0.109
Mof_C 	C 	0.5	0.7355	0.851	-0.127
Mof_H 	H 	0.5	0.7561	0.8392	0.072
Mof_C 	C 	0.5	0.7344	0.8833	0.044
Mof_H 	H 	0.5	0.7546	0.8956	0.03
Mof_O 	O 	9.69958e-34	0.82321	0.04871	-0.412
Mof_O 	O 	-2.57402e-33	0.76583	0.04844	-0.403
Mof_C 	C 	4.95439e-33	0.7955	0.06146	0.342
Mof_C 	C 	5.09926e-33	0.7952	0.1001	-0.082
Mof_C 	C 	-2.71624e-33	0.825	0.1155	-0.007
Mof_H 	H 	-7.48706e-33	0.8452	0.103	0.056
Mof_C 	C 	6.86626e-33	0.8256	0.1514	-0.022
Mof_C 	C 	-5.67845e-33	0.7948	0.1654	0.109
Mof_C 	C 	-2.59064e-33	0.7645	0.149	-0.128
Mof_H 	H 	8.47615e-33	0.7439	0.1608	0.071
Mof_C 	C 	2.0122e-33	0.7656	0.1167	0.045
Mof_H 	H 	-1.97054e-33	0.7454	0.1044	0.028
Mof_O 	O 	2.05733e-33	0.32321	0.54871	-0.413
Mof_O 	O 	2.05632e-33	0.26583	0.54844	-0.403
Mof_C 	C 	8.40373e-33	0.2955	0.56146	0.342
Mof_C 	C 	2.25001e-33	0.2952	0.6001	-0.082
Mof_C 	C 	-3.99084e-33	0.325	0.6155	-0.007
Mof_H 	H 	-4.03771e-33	0.3452	0.603	0.056
Mof_C 	C 	2.44236e-33	0.3256	0.6514	-0.022
Mof_C 	C 	2.49485e-33	0.2948	0.6654	0.109
Mof_C 	C 	2.43336e-33	0.2645	0.649	-0.128
Mof_H 	H 	2.4776e-33	0.2439	0.6608	0.071
Mof_C 	C 	2.31225e-33	0.2656	0.6167	0.045
Mof_H 	H 	-4.03246e-33	0.2454	0.6044	0.028
Mof_O 	O 	0.5	0.82321	0.54871	-0.411
Mof_O 	O 	0.5	0.76583	0.54844	-0.402
Mof_C 	C 	0.5	0.7955	0.56146	0.342
Mof_C 	C 	0.5	0.7952	0.6001	-0.081
Mof_C 	C 	0.5	0.825	0.6155	-0.006
Mof_H 	H 	0.5	0.8452	0.603	0.057
Mof_C 	C 	0.5	0.8256	0.6514	-0.022
Mof_C 	C 	0.5	0.7948	0.6654	0.11
Mof_C 	C 	0.5	0.7645	0.649	-0.128
Mof_H 	H 	0.5	0.7439	0.6608	0.072
Mof_C 	C 	0.5	0.7656	0.6167	0.045
Mof_H 	H 	0.5	0.7454	0.6044	0.029
Mof_O 	O 	0.5	0.32321	0.04871	-0.412
Mof_O 	O 	0.5	0.26583	0.04844	-0.402
Mof_C 	C 	0.5	0.2955	0.06146	0.343
Mof_C 	C 	0.5	0.2952	0.1001	-0.082
Mof_C 	C 	0.5	0.325	0.1155	-0.006
Mof_H 	H 	0.5	0.3452	0.103	0.056
Mof_C 	C 	0.5	0.3256	0.1514	-0.022
Mof_C 	C 	0.5	0.2948	0.1654	0.11
Mof_C 	C 	0.5	0.2645	0.149	-0.128
Mof_H 	H 	0.5	0.2439	0.1608	0.072
Mof_C 	C 	0.5	0.2656	0.1167	0.045
Mof_H 	H 	0.5	0.2454	0.1044	0.028
Mof_O 	O 	-6.04691e-34	0.17679	0.04871	-0.413
Mof_O 	O 	5.75283e-34	0.23417	0.04844	-0.403
Mof_C 	C 	1.80509e-33	0.2045	0.06146	0.342
Mof_C 	C 	1.94996e-33	0.2048	0.1001	-0.082
Mof_C 	C 	2.0077e-33	0.175	0.1155	-0.007
Mof_H 	H 	-1.18846e-33	0.1548	0.103	0.056
Mof_C 	C 	2.14231e-33	0.1744	0.1514	-0.022
Mof_C 	C 	-2.52915e-33	0.2052	0.1654	0.109
Mof_C 	C 	5.58661e-34	0.2355	0.149	-0.128
Mof_H 	H 	-9.71746e-34	0.2561	0.1608	0.071
Mof_C 	C 	-1.13709e-33	0.2344	0.1167	0.045
Mof_H 	H 	1.17876e-33	0.2546	0.1044	0.028
Mof_O 	O 	2.05733e-33	0.67679	0.54871	-0.413
Mof_O 	O 	1.46535e-32	0.73417	0.54844	-0.403
Mof_C 	C 	8.40373e-33	0.7045	0.56146	0.342
Mof_C 	C 	1.48472e-32	0.7048	0.6001	-0.082
Mof_C 	C 	8.60635e-33	0.675	0.6155	-0.007
Mof_H 	H 	8.55948e-33	0.6548	0.603	0.056
Mof_C 	C 	1.50396e-32	0.6744	0.6514	-0.022
Mof_C 	C 	2.49485e-33	0.7052	0.6654	0.108
Mof_C 	C 	8.73196e-33	0.7355	0.649	-0.128
Mof_H 	H 	2.4776e-33	0.7561	0.6608	0.071
Mof_C 	C 	8.61085e-33	0.7344	0.6167	0.044
Mof_H 	H 	-4.03246e-33	0.7546	0.6044	0.028
Mof_O 	O 	0.5	0.17679	0.54871	-0.412
Mof_O 	O 	0.5	0.23417	0.54844	-0.402
Mof_C 	C 	0.5	0.2045	0.56146	0.342
Mof_C 	C 	0.5	0.2048	0.6001	-0.082
Mof_C 	C 	0.5	0.175	0.6155	-0.006
Mof_H 	H 	0.5	0.1548	0.603	0.056
Mof_C 	C 	0.5	0.1744	0.6514	-0.022
Mof_C 	C 	0.5	0.2052	0.6654	0.11
Mof_C 	C 	0.5	0.2355	0.649	-0.128
Mof_H 	H 	0.5	0.2561	0.6608	0.072
Mof_C 	C 	0.5	0.2344	0.6167	0.045
Mof_H 	H 	0.5	0.2546	0.6044	0.029
Mof_O 	O 	0.5	0.67679	0.04871	-0.412
Mof_O 	O 	0.5	0.73417	0.04844	-0.402
Mof_C 	C 	0.5	0.7045	0.06146	0.343
Mof_C 	C 	0.5	0.7048	0.1001	-0.082
Mof_C 	C 	0.5	0.675	0.1155	-0.006
Mof_H 	H 	0.5	0.6548	0.103	0.056
Mof_C 	C 	0.5	0.6744	0.1514	-0.022
Mof_C 	C 	0.5	0.7052	0.1654	0.11
Mof_C 	C 	0.5	0.7355	0.149	-0.128
Mof_H 	H 	0.5	0.7561	0.1608	0.072
Mof_C 	C 	0.5	0.7344	0.1167	0.045
Mof_H 	H 	0.5	0.7546	0.1044	0.029
Mof_O 	O 	0.95129	0	0.82321	-0.409
Mof_O 	O 	0.95156	0	0.76583	-0.4
Mof_C 	C 	0.93854	0	0.7955	0.342
Mof_C 	C 	0.8999	6.2986e-33	0.7952	-0.081
Mof_C 	C 	0.8845	0	0.825	-0.007
Mof_H 	H 	0.897	0	0.8452	0.057
Mof_C 	C 	0.8486	0	0.8256	-0.021
Mof_C 	C 	0.8346	0	0.7948	0.108
Mof_C 	C 	0.851	0	0.7645	-0.127
Mof_H 	H 	0.8392	6.2986e-33	0.7439	0.07
Mof_C 	C 	0.8833	6.2986e-33	0.7656	0.044
Mof_H 	H 	0.8956	0	0.7454	0.029
Mof_O 	O 	0.95129	0.5	0.32321	-0.408
Mof_O 	O 	0.95156	0.5	0.26583	-0.398
Mof_C 	C 	0.93854	0.5	0.2955	0.342
Mof_C 	C 	0.8999	0.5	0.2952	-0.08
Mof_C 	C 	0.8845	0.5	0.325	-0.007
Mof_H 	H 	0.897	0.5	0.3452	0.057
Mof_C 	C 	0.8486	0.5	0.3256	-0.021
Mof_C 	C 	0.8346	0.5	0.2948	0.109
Mof_C 	C 	0.851	0.5	0.2645	-0.127
Mof_H 	H 	0.8392	0.5	0.2439	0.072
Mof_C 	C 	0.8833	0.5	0.2656	0.044
Mof_H 	H 	0.8956	0.5	0.2454	0.029
Mof_O 	O 	0.45129	3.1493e-33	0.32321	-0.413
Mof_O 	O 	0.45156	3.1493e-33	0.26583	-0.403
Mof_C 	C 	0.43854	3.1493e-33	0.2955	0.342
Mof_C 	C 	0.3999	3.1493e-33	0.2952	-0.082
Mof_C 	C 	0.3845	0	0.325	-0.007
Mof_H 	H 	0.397	0	0.3452	0.056
Mof_C 	C 	0.3486	0	0.3256	-0.022
Mof_C 	C 	0.3346	3.1493e-33	0.2948	0.109
Mof_C 	C 	0.351	0	0.2645	-0.128
Mof_H 	H 	0.3392	3.1493e-33	0.2439	0.071
Mof_C 	C 	0.3833	3.1493e-33	0.2656	0.044
Mof_H 	H 	0.3956	0	0.2454	0.028
Mof_O 	O 	0.45129	0.5	0.82321	-0.411
Mof_O 	O 	0.45156	0.5	0.76583	-0.401
Mof_C 	C 	0.43854	0.5	0.7955	0.342
Mof_C 	C 	0.3999	0.5	0.7952	-0.081
Mof_C 	C 	0.3845	0.5	0.825	-0.006
Mof_H 	H 	0.397	0.5	0.8452	0.057
Mof_C 	C 	0.3486	0.5	0.8256	-0.022
Mof_C 	C 	0.3346	0.5	0.7948	0.11
Mof_C 	C 	0.351	0.5	0.7645	-0.128
Mof_H 	H 	0.3392	0.5	0.7439	0.072
Mof_C 	C 	0.3833	0.5	0.7656	0.045
Mof_H 	H 	0.3956	0.5	0.7454	0.029
Mof_O 	O 	0.95129	0	0.17679	-0.409
Mof_O 	O 	0.95156	0	0.23417	-0.4
Mof_C 	C 	0.93854	1.57465e-33	0.2045	0.342
Mof_C 	C 	0.8999	0	0.2048	-0.081
Mof_C 	C 	0.8845	0	0.175	-0.007
Mof_H 	H 	0.897	0	0.1548	0.057
Mof_C 	C 	0.8486	0	0.1744	-0.021
Mof_C 	C 	0.8346	-1.57465e-33	0.2052	0.108
Mof_C 	C 	0.851	0	0.2355	-0.127
Mof_H 	H 	0.8392	-3.1493e-33	0.2561	0.07
Mof_C 	C 	0.8833	0	0.2344	0.044
Mof_H 	H 	0.8956	0	0.2546	0.029
Mof_O 	O 	0.95129	0.5	0.67679	-0.408
Mof_O 	O 	0.95156	0.5	0.73417	-0.398
Mof_C 	C 	0.93854	0.5	0.7045	0.342
Mof_C 	C 	0.8999	0.5	0.7048	-0.08
Mof_C 	C 	0.8845	0.5	0.675	-0.007
Mof_H 	H 	0.897	0.5	0.6548	0.057
Mof_C 	C 	0.8486	0.5	0.6744	-0.021
Mof_C 	C 	0.8346	0.5	0.7052	0.109
Mof_C 	C 	0.851	0.5	0.7355	-0.127
Mof_H 	H 	0.8392	0.5	0.7561	0.072
Mof_C 	C 	0.8833	0.5	0.7344	0.044
Mof_H 	H 	0.8956	0.5	0.7546	0.03
Mof_O 	O 	0.45129	6.2986e-33	0.67679	-0.413
Mof_O 	O 	0.45156	6.2986e-33	0.73417	-0.403
Mof_C 	C 	0.43854	6.2986e-33	0.7045	0.342
Mof_C 	C 	0.3999	0	0.7048	-0.082
Mof_C 	C 	0.3845	6.2986e-33	0.675	-0.007
Mof_H 	H 	0.397	0	0.6548	0.056
Mof_C 	C 	0.3486	0	0.6744	-0.022
Mof_C 	C 	0.3346	0	0.7052	0.108
Mof_C 	C 	0.351	-6.2986e-33	0.7355	-0.128
Mof_H 	H 	0.3392	0	0.7561	0.071
Mof_C 	C 	0.3833	6.2986e-33	0.7344	0.044
Mof_H 	H 	0.3956	0	0.7546	0.028
Mof_O 	O 	0.45129	0.5	0.17679	-0.411
Mof_O 	O 	0.45156	0.5	0.23417	-0.402
Mof_C 	C 	0.43854	0.5	0.2045	0.342
Mof_C 	C 	0.3999	0.5	0.2048	-0.082
Mof_C 	C 	0.3845	0.5	0.175	-0.007
Mof_H 	H 	0.397	0.5	0.1548	0.056
Mof_C 	C 	0.3486	0.5	0.1744	-0.022
Mof_C 	C 	0.3346	0.5	0.2052	0.11
Mof_C 	C 	0.351	0.5	0.2355	-0.128
Mof_H 	H 	0.3392	0.5	0.2561	0.072
Mof_C 	C 	0.3833	0.5	0.2344	0.045
Mof_H 	H 	0.3956	0.5	0.2546	0.029
Mof_O 	O 	0.04871	0	0.82321	-0.412
Mof_O 	O 	0.04844	0	0.76583	-0.403
Mof_C 	C 	0.06146	0	0.7955	0.342
Mof_C 	C 	0.1001	6.2986e-33	0.7952	-0.082
Mof_C 	C 	0.1155	0	0.825	-0.007
Mof_H 	H 	0.103	0	0.8452	0.056
Mof_C 	C 	0.1514	0	0.8256	-0.022
Mof_C 	C 	0.1654	0	0.7948	0.109
Mof_C 	C 	0.149	0	0.7645	-0.128
Mof_H 	H 	0.1608	6.2986e-33	0.7439	0.071
Mof_C 	C 	0.1167	6.2986e-33	0.7656	0.045
Mof_H 	H 	0.1044	0	0.7454	0.028
Mof_O 	O 	0.04871	0.5	0.32321	-0.412
Mof_O 	O 	0.04844	0.5	0.26583	-0.402
Mof_C 	C 	0.06146	0.5	0.2955	0.343
Mof_C 	C 	0.1001	0.5	0.2952	-0.082
Mof_C 	C 	0.1155	0.5	0.325	-0.006
Mof_H 	H 	0.103	0.5	0.3452	0.056
Mof_C 	C 	0.1514	0.5	0.3256	-0.022
Mof_C 	C 	0.1654	0.5	0.2948	0.11
Mof_C 	C 	0.149	0.5	0.2645	-0.128
Mof_H 	H 	0.1608	0.5	0.2439	0.072
Mof_C 	C 	0.1167	0.5	0.2656	0.045
Mof_H 	H 	0.1044	0.5	0.2454	0.028
Mof_O 	O 	0.54871	3.1493e-33	0.32321	-0.413
Mof_O 	O 	0.54844	3.1493e-33	0.26583	-0.403
Mof_C 	C 	0.56146	3.1493e-33	0.2955	0.342
Mof_C 	C 	0.6001	3.1493e-33	0.2952	-0.082
Mof_C 	C 	0.6155	0	0.325	-0.007
Mof_H 	H 	0.603	0	0.3452	0.056
Mof_C 	C 	0.6514	0	0.3256	-0.022
Mof_C 	C 	0.6654	3.1493e-33	0.2948	0.109
Mof_C 	C 	0.649	0	0.2645	-0.128
Mof_H 	H 	0.6608	3.1493e-33	0.2439	0.071
Mof_C 	C 	0.6167	3.1493e-33	0.2656	0.045
Mof_H 	H 	0.6044	0	0.2454	0.028
Mof_O 	O 	0.54871	0.5	0.82321	-0.411
Mof_O 	O 	0.54844	0.5	0.76583	-0.402
Mof_C 	C 	0.56146	0.5	0.7955	0.342
Mof_C 	C 	0.6001	0.5	0.7952	-0.081
Mof_C 	C 	0.6155	0.5	0.825	-0.006
Mof_H 	H 	0.603	0.5	0.8452	0.057
Mof_C 	C 	0.6514	0.5	0.8256	-0.022
Mof_C 	C 	0.6654	0.5	0.7948	0.11
Mof_C 	C 	0.649	0.5	0.7645	-0.128
Mof_H 	H 	0.6608	0.5	0.7439	0.072
Mof_C 	C 	0.6167	0.5	0.7656	0.045
Mof_H 	H 	0.6044	0.5	0.7454	0.029
Mof_O 	O 	0.04871	0	0.17679	-0.413
Mof_O 	O 	0.04844	0	0.23417	-0.403
Mof_C 	C 	0.06146	1.57465e-33	0.2045	0.342
Mof_C 	C 	0.1001	0	0.2048	-0.082
Mof_C 	C 	0.1155	0	0.175	-0.007
Mof_H 	H 	0.103	0	0.1548	0.056
Mof_C 	C 	0.1514	0	0.1744	-0.022
Mof_C 	C 	0.1654	-1.57465e-33	0.2052	0.109
Mof_C 	C 	0.149	0	0.2355	-0.128
Mof_H 	H 	0.1608	-3.1493e-33	0.2561	0.071
Mof_C 	C 	0.1167	0	0.2344	0.045
Mof_H 	H 	0.1044	0	0.2546	0.028
Mof_O 	O 	0.04871	0.5	0.67679	-0.412
Mof_O 	O 	0.04844	0.5	0.73417	-0.402
Mof_C 	C 	0.06146	0.5	0.7045	0.343
Mof_C 	C 	0.1001	0.5	0.7048	-0.082
Mof_C 	C 	0.1155	0.5	0.675	-0.006
Mof_H 	H 	0.103	0.5	0.6548	0.056
Mof_C 	C 	0.1514	0.5	0.6744	-0.022
Mof_C 	C 	0.1654	0.5	0.7052	0.11
Mof_C 	C 	0.149	0.5	0.7355	-0.128
Mof_H 	H 	0.1608	0.5	0.7561	0.072
Mof_C 	C 	0.1167	0.5	0.7344	0.045
Mof_H 	H 	0.1044	0.5	0.7546	0.029
Mof_O 	O 	0.54871	6.2986e-33	0.67679	-0.413
Mof_O 	O 	0.54844	6.2986e-33	0.73417	-0.403
Mof_C 	C 	0.56146	6.2986e-33	0.7045	0.342
Mof_C 	C 	0.6001	0	0.7048	-0.082
Mof_C 	C 	0.6155	6.2986e-33	0.675	-0.007
Mof_H 	H 	0.603	0	0.6548	0.056
Mof_C 	C 	0.6514	0	0.6744	-0.022
Mof_C 	C 	0.6654	0	0.7052	0.108
Mof_C 	C 	0.649	-6.2986e-33	0.7355	-0.128
Mof_H 	H 	0.6608	0	0.7561	0.071
Mof_C 	C 	0.6167	6.2986e-33	0.7344	0.044
Mof_H 	H 	0.6044	0	0.7546	0.028
Mof_O 	O 	0.54871	0.5	0.17679	-0.412
Mof_O 	O 	0.54844	0.5	0.23417	-0.402
Mof_C 	C 	0.56146	0.5	0.2045	0.342
Mof_C 	C 	0.6001	0.5	0.2048	-0.082
Mof_C 	C 	0.6155	0.5	0.175	-0.006
Mof_H 	H 	0.603	0.5	0.1548	0.056
Mof_C 	C 	0.6514	0.5	0.1744	-0.022
Mof_C 	C 	0.6654	0.5	0.2052	0.11
Mof_C 	C 	0.649	0.5	0.2355	-0.128
Mof_H 	H 	0.6608	0.5	0.2561	0.072
Mof_C 	C 	0.6167	0.5	0.2344	0.045
Mof_H 	H 	0.6044	0.5	0.2546	0.029
Mof_O 	O 	0.82321	0.95129	-0	-0.409
Mof_O 	O 	0.76583	0.95156	-0	-0.4
Mof_C 	C 	0.7955	0.93854	-0	0.342
Mof_C 	C 	0.7952	0.8999	-0	-0.081
Mof_C 	C 	0.825	0.8845	-0	-0.007
Mof_H 	H 	0.8452	0.897	-0	0.057
Mof_C 	C 	0.8256	0.8486	-0	-0.021
Mof_C 	C 	0.7948	0.8346	-0	0.108
Mof_C 	C 	0.7645	0.851	-0	-0.127
Mof_H 	H 	0.7439	0.8392	-0	0.07
Mof_C 	C 	0.7656	0.8833	-0	0.044
Mof_H 	H 	0.7454	0.8956	-0	0.029
Mof_O 	O 	0.82321	0.45129	0.5	-0.411
Mof_O 	O 	0.76583	0.45156	0.5	-0.401
Mof_C 	C 	0.7955	0.43854	0.5	0.342
Mof_C 	C 	0.7952	0.3999	0.5	-0.081
Mof_C 	C 	0.825	0.3845	0.5	-0.006
Mof_H 	H 	0.8452	0.397	0.5	0.057
Mof_C 	C 	0.8256	0.3486	0.5	-0.022
Mof_C 	C 	0.7948	0.3346	0.5	0.11
Mof_C 	C 	0.7645	0.351	0.5	-0.128
Mof_H 	H 	0.7439	0.3392	0.5	0.072
Mof_C 	C 	0.7656	0.3833	0.5	0.045
Mof_H 	H 	0.7454	0.3956	0.5	0.029
Mof_O 	O 	0.32321	0.95129	0.5	-0.408
Mof_O 	O 	0.26583	0.95156	0.5	-0.398
Mof_C 	C 	0.2955	0.93854	0.5	0.342
Mof_C 	C 	0.2952	0.8999	0.5	-0.08
Mof_C 	C 	0.325	0.8845	0.5	-0.007
Mof_H 	H 	0.3452	0.897	0.5	0.057
Mof_C 	C 	0.3256	0.8486	0.5	-0.021
Mof_C 	C 	0.2948	0.8346	0.5	0.109
Mof_C 	C 	0.2645	0.851	0.5	-0.127
Mof_H 	H 	0.2439	0.8392	0.5	0.072
Mof_C 	C 	0.2656	0.8833	0.5	0.044
Mof_H 	H 	0.2454	0.8956	0.5	0.029
Mof_O 	O 	0.32321	0.45129	-0	-0.413
Mof_O 	O 	0.26583	0.45156	-0	-0.403
Mof_C 	C 	0.2955	0.43854	-0	0.342
Mof_C 	C 	0.2952	0.3999	-0	-0.082
Mof_C 	C 	0.325	0.3845	-0	-0.007
Mof_H 	H 	0.3452	0.397	-0	0.056
Mof_C 	C 	0.3256	0.3486	-0	-0.022
Mof_C 	C 	0.2948	0.3346	-0	0.109
Mof_C 	C 	0.2645	0.351	-0	-0.128
Mof_H 	H 	0.2439	0.3392	-0	0.071
Mof_C 	C 	0.2656	0.3833	-0	0.044
Mof_H 	H 	0.2454	0.3956	-0	0.028
Mof_O 	O 	0.17679	0.95129	-0	-0.409
Mof_O 	O 	0.23417	0.95156	-0	-0.4
Mof_C 	C 	0.2045	0.93854	-0	0.342
Mof_C 	C 	0.2048	0.8999	-0	-0.081
Mof_C 	C 	0.175	0.8845	-0	-0.007
Mof_H 	H 	0.1548	0.897	-0	0.057
Mof_C 	C 	0.1744	0.8486	-0	-0.021
Mof_C 	C 	0.2052	0.8346	-0	0.108
Mof_C 	C 	0.2355	0.851	-0	-0.127
Mof_H 	H 	0.2561	0.8392	-0	0.07
Mof_C 	C 	0.2344	0.8833	-0	0.044
Mof_H 	H 	0.2546	0.8956	-0	0.029
Mof_O 	O 	0.17679	0.45129	0.5	-0.411
Mof_O 	O 	0.23417	0.45156	0.5	-0.402
Mof_C 	C 	0.2045	0.43854	0.5	0.342
Mof_C 	C 	0.2048	0.3999	0.5	-0.082
Mof_C 	C 	0.175	0.3845	0.5	-0.007
Mof_H 	H 	0.1548	0.397	0.5	0.056
Mof_C 	C 	0.1744	0.3486	0.5	-0.022
Mof_C 	C 	0.2052	0.3346	0.5	0.11
Mof_C 	C 	0.2355	0.351	0.5	-0.128
Mof_H 	H 	0.2561	0.3392	0.5	0.072
Mof_C 	C 	0.2344	0.3833	0.5	0.045
Mof_H 	H 	0.2546	0.3956	0.5	0.029
Mof_O 	O 	0.67679	0.95129	0.5	-0.408
Mof_O 	O 	0.73417	0.95156	0.5	-0.398
Mof_C 	C 	0.7045	0.93854	0.5	0.342
Mof_C 	C 	0.7048	0.8999	0.5	-0.08
Mof_C 	C 	0.675	0.8845	0.5	-0.007
Mof_H 	H 	0.6548	0.897	0.5	0.057
Mof_C 	C 	0.6744	0.8486	0.5	-0.021
Mof_C 	C 	0.7052	0.8346	0.5	0.109
Mof_C 	C 	0.7355	0.851	0.5	-0.127
Mof_H 	H 	0.7561	0.8392	0.5	0.072
Mof_C 	C 	0.7344	0.8833	0.5	0.044
Mof_H 	H 	0.7546	0.8956	0.5	0.03
Mof_O 	O 	0.67679	0.45129	-0	-0.413
Mof_O 	O 	0.73417	0.45156	-0	-0.403
Mof_C 	C 	0.7045	0.43854	-0	0.342
Mof_C 	C 	0.7048	0.3999	-0	-0.082
Mof_C 	C 	0.675	0.3845	-0	-0.007
Mof_H 	H 	0.6548	0.397	-0	0.056
Mof_C 	C 	0.6744	0.3486	-0	-0.022
Mof_C 	C 	0.7052	0.3346	-0	0.108
Mof_C 	C 	0.7355	0.351	-0	-0.128
Mof_H 	H 	0.7561	0.3392	-0	0.071
Mof_C 	C 	0.7344	0.3833	-0	0.044
Mof_H 	H 	0.7546	0.3956	-0	0.028
Mof_O 	O 	0.82321	0.04871	-0	-0.412
Mof_O 	O 	0.76583	0.04844	-0	-0.403
Mof_C 	C 	0.7955	0.06146	-0	0.342
Mof_C 	C 	0.7952	0.1001	-0	-0.082
Mof_C 	C 	0.825	0.1155	-0	-0.007
Mof_H 	H 	0.8452	0.103	-0	0.056
Mof_C 	C 	0.8256	0.1514	-0	-0.022
Mof_C 	C 	0.7948	0.1654	-0	0.109
Mof_C 	C 	0.7645	0.149	-0	-0.128
Mof_H 	H 	0.7439	0.1608	-0	0.071
Mof_C 	C 	0.7656	0.1167	-0	0.045
Mof_H 	H 	0.7454	0.1044	-0	0.028
Mof_O 	O 	0.82321	0.54871	0.5	-0.411
Mof_O 	O 	0.76583	0.54844	0.5	-0.402
Mof_C 	C 	0.7955	0.56146	0.5	0.342
Mof_C 	C 	0.7952	0.6001	0.5	-0.081
Mof_C 	C 	0.825	0.6155	0.5	-0.006
Mof_H 	H 	0.8452	0.603	0.5	0.057
Mof_C 	C 	0.8256	0.6514	0.5	-0.022
Mof_C 	C 	0.7948	0.6654	0.5	0.11
Mof_C 	C 	0.7645	0.649	0.5	-0.128
Mof_H 	H 	0.7439	0.6608	0.5	0.072
Mof_C 	C 	0.7656	0.6167	0.5	0.045
Mof_H 	H 	0.7454	0.6044	0.5	0.029
Mof_O 	O 	0.32321	0.04871	0.5	-0.412
Mof_O 	O 	0.26583	0.04844	0.5	-0.402
Mof_C 	C 	0.2955	0.06146	0.5	0.343
Mof_C 	C 	0.2952	0.1001	0.5	-0.082
Mof_C 	C 	0.325	0.1155	0.5	-0.006
Mof_H 	H 	0.3452	0.103	0.5	0.056
Mof_C 	C 	0.3256	0.1514	0.5	-0.022
Mof_C 	C 	0.2948	0.1654	0.5	0.11
Mof_C 	C 	0.2645	0.149	0.5	-0.128
Mof_H 	H 	0.2439	0.1608	0.5	0.072
Mof_C 	C 	0.2656	0.1167	0.5	0.045
Mof_H 	H 	0.2454	0.1044	0.5	0.028
Mof_O 	O 	0.32321	0.54871	-0	-0.413
Mof_O 	O 	0.26583	0.54844	-0	-0.403
Mof_C 	C 	0.2955	0.56146	-0	0.342
Mof_C 	C 	0.2952	0.6001	-0	-0.082
Mof_C 	C 	0.325	0.6155	-0	-0.007
Mof_H 	H 	0.3452	0.603	-0	0.056
Mof_C 	C 	0.3256	0.6514	-0	-0.022
Mof_C 	C 	0.2948	0.6654	-0	0.109
Mof_C 	C 	0.2645	0.649	-0	-0.128
Mof_H 	H 	0.2439	0.6608	-0	0.071
Mof_C 	C 	0.2656	0.6167	-0	0.045
Mof_H 	H 	0.2454	0.6044	-0	0.028
Mof_O 	O 	0.17679	0.04871	-0	-0.413
Mof_O 	O 	0.23417	0.04844	-0	-0.403
Mof_C 	C 	0.2045	0.06146	-0	0.342
Mof_C 	C 	0.2048	0.1001	-0	-0.082
Mof_C 	C 	0.175	0.1155	-0	-0.007
Mof_H 	H 	0.1548	0.103	-0	0.056
Mof_C 	C 	0.1744	0.1514	-0	-0.022
Mof_C 	C 	0.2052	0.1654	-0	0.109
Mof_C 	C 	0.2355	0.149	-0	-0.128
Mof_H 	H 	0.2561	0.1608	-0	0.071
Mof_C 	C 	0.2344	0.1167	-0	0.045
Mof_H 	H 	0.2546	0.1044	-0	0.028
Mof_O 	O 	0.17679	0.54871	0.5	-0.412
Mof_O 	O 	0.23417	0.54844	0.5	-0.402
Mof_C 	C 	0.2045	0.56146	0.5	0.342
Mof_C 	C 	0.2048	0.6001	0.5	-0.082
Mof_C 	C 	0.175	0.6155	0.5	-0.006
Mof_H 	H 	0.1548	0.603	0.5	0.056
Mof_C 	C 	0.1744	0.6514	0.5	-0.022
Mof_C 	C 	0.2052	0.6654	0.5	0.11
Mof_C 	C 	0.2355	0.649	0.5	-0.128
Mof_H 	H 	0.2561	0.6608	0.5	0.072
Mof_C 	C 	0.2344	0.6167	0.5	0.045
Mof_H 	H 	0.2546	0.6044	0.5	0.029
Mof_O 	O 	0.67679	0.04871	0.5	-0.412
Mof_O 	O 	0.73417	0.04844	0.5	-0.402
Mof_C 	C 	0.7045	0.06146	0.5	0.343
Mof_C 	C 	0.7048	0.1001	0.5	-0.082
Mof_C 	C 	0.675	0.1155	0.5	-0.006
Mof_H 	H 	0.6548	0.103	0.5	0.056
Mof_C 	C 	0.6744	0.1514	0.5	-0.022
Mof_C 	C 	0.7052	0.1654	0.5	0.11
Mof_C 	C 	0.7355	0.149	0.5	-0.128
Mof_H 	H 	0.7561	0.1608	0.5	0.072
Mof_C 	C 	0.7344	0.1167	0.5	0.045
Mof_H 	H 	0.7546	0.1044	0.5	0.029
Mof_O 	O 	0.67679	0.54871	-0	-0.413
Mof_O 	O 	0.73417	0.54844	-0	-0.403
Mof_C 	C 	0.7045	0.56146	-0	0.342
Mof_C 	C 	0.7048	0.6001	-0	-0.082
Mof_C 	C 	0.675	0.6155	-0	-0.007
Mof_H 	H 	0.6548	0.603	-0	0.056
Mof_C 	C 	0.6744	0.6514	-0	-0.022
Mof_C 	C 	0.7052	0.6654	-0	0.108
Mof_C 	C 	0.7355	0.649	-0	-0.128
Mof_H 	H 	0.7561	0.6608	-0	0.071
Mof_C 	C 	0.7344	0.6167	-0	0.044
Mof_H 	H 	0.7546	0.6044	-0	0.028
Mof_O 	O 	0.82321	3.93662e-34	0.04871	-0.412
Mof_O 	O 	0.76583	3.93662e-34	0.04844	-0.403
Mof_C 	C 	0.7955	0	0.06146	0.342
Mof_C 	C 	0.7952	7.87325e-34	0.1001	-0.082
Mof_C 	C 	0.825	0	0.1155	-0.007
Mof_H 	H 	0.8452	-7.87325e-34	0.103	0.056
Mof_C 	C 	0.8256	1.57465e-33	0.1514	-0.022
Mof_C 	C 	0.7948	0	0.1654	0.109
Mof_C 	C 	0.7645	0	0.149	-0.128
Mof_H 	H 	0.7439	0	0.1608	0.071
Mof_C 	C 	0.7656	0	0.1167	0.045
Mof_H 	H 	0.7454	7.87325e-34	0.1044	0.028
Mof_O 	O 	0.82321	0.5	0.54871	-0.411
Mof_O 	O 	0.76583	0.5	0.54844	-0.402
Mof_C 	C 	0.7955	0.5	0.56146	0.342
Mof_C 	C 	0.7952	0.5	0.6001	-0.081
Mof_C 	C 	0.825	0.5	0.6155	-0.006
Mof_H 	H 	0.8452	0.5	0.603	0.057
Mof_C 	C 	0.8256	0.5	0.6514	-0.022
Mof_C 	C 	0.7948	0.5	0.6654	0.11
Mof_C 	C 	0.7645	0.5	0.649	-0.128
Mof_H 	H 	0.7439	0.5	0.6608	0.072
Mof_C 	C 	0.7656	0.5	0.6167	0.045
Mof_H 	H 	0.7454	0.5	0.6044	0.029
Mof_O 	O 	0.32321	0	0.54871	-0.413
Mof_O 	O 	0.26583	0	0.54844	-0.403
Mof_C 	C 	0.2955	6.2986e-33	0.56146	0.342
Mof_C 	C 	0.2952	6.2986e-33	0.6001	-0.082
Mof_C 	C 	0.325	6.2986e-33	0.6155	-0.007
Mof_H 	H 	0.3452	0	0.603	0.056
Mof_C 	C 	0.3256	6.2986e-33	0.6514	-0.022
Mof_C 	C 	0.2948	0	0.6654	0.109
Mof_C 	C 	0.2645	6.2986e-33	0.649	-0.128
Mof_H 	H 	0.2439	0	0.6608	0.071
Mof_C 	C 	0.2656	6.2986e-33	0.6167	0.045
Mof_H 	H 	0.2454	0	0.6044	0.028
Mof_O 	O 	0.32321	0.5	0.04871	-0.412
Mof_O 	O 	0.26583	0.5	0.04844	-0.402
Mof_C 	C 	0.2955	0.5	0.06146	0.343
Mof_C 	C 	0.2952	0.5	0.1001	-0.082
Mof_C 	C 	0.325	0.5	0.1155	-0.006
Mof_H 	H 	0.3452	0.5	0.103	0.056
Mof_C 	C 	0.3256	0.5	0.1514	-0.022
Mof_C 	C 	0.2948	0.5	0.1654	0.11
Mof_C 	C 	0.2645	0.5	0.149	-0.128
Mof_H 	H 	0.2439	0.5	0.1608	0.072
Mof_C 	C 	0.2656	0.5	0.1167	0.045
Mof_H 	H 	0.2454	0.5	0.1044	0.028
Mof_O 	O 	0.17679	3.93662e-34	0.04871	-0.413
Mof_O 	O 	0.23417	3.93662e-34	0.04844	-0.403
Mof_C 	C 	0.2045	0	0.06146	0.342
Mof_C 	C 	0.2048	7.87325e-34	0.1001	-0.082
Mof_C 	C 	0.175	0	0.1155	-0.007
Mof_H 	H 	0.1548	-7.87325e-34	0.103	0.056
Mof_C 	C 	0.1744	1.57465e-33	0.1514	-0.022
Mof_C 	C 	0.2052	0	0.1654	0.109
Mof_C 	C 	0.2355	0	0.149	-0.128
Mof_H 	H 	0.2561	0	0.1608	0.071
Mof_C 	C 	0.2344	0	0.1167	0.045
Mof_H 	H 	0.2546	7.87325e-34	0.1044	0.028
Mof_O 	O 	0.17679	0.5	0.54871	-0.412
Mof_O 	O 	0.23417	0.5	0.54844	-0.402
Mof_C 	C 	0.2045	0.5	0.56146	0.342
Mof_C 	C 	0.2048	0.5	0.6001	-0.082
Mof_C 	C 	0.175	0.5	0.6155	-0.006
Mof_H 	H 	0.1548	0.5	0.603	0.056
Mof_C 	C 	0.1744	0.5	0.6514	-0.022
Mof_C 	C 	0.2052	0.5	0.6654	0.11
Mof_C 	C 	0.2355	0.5	0.649	-0.128
Mof_H 	H 	0.2561	0.5	0.6608	0.072
Mof_C 	C 	0.2344	0.5	0.6167	0.045
Mof_H 	H 	0.2546	0.5	0.6044	0.029
Mof_O 	O 	0.67679	0	0.54871	-0.413
Mof_O 	O 	0.73417	0	0.54844	-0.403
Mof_C 	C 	0.7045	6.2986e-33	0.56146	0.342
Mof_C 	C 	0.7048	6.2986e-33	0.6001	-0.082
Mof_C 	C 	0.675	6.2986e-33	0.6155	-0.007
Mof_H 	H 	0.6548	0	0.603	0.056
Mof_C 	C 	0.6744	6.2986e-33	0.6514	-0.022
Mof_C 	C 	0.7052	0	0.6654	0.108
Mof_C 	C 	0.7355	6.2986e-33	0.649	-0.128
Mof_H 	H 	0.7561	0	0.6608	0.071
Mof_C 	C 	0.7344	6.2986e-33	0.6167	0.044
Mof_H 	H 	0.7546	0	0.6044	0.028
Mof_O 	O 	0.67679	0.5	0.04871	-0.412
Mof_O 	O 	0.73417	0.5	0.04844	-0.402
Mof_C 	C 	0.7045	0.5	0.06146	0.343
Mof_C 	C 	0.7048	0.5	0.1001	-0.082
Mof_C 	C 	0.675	0.5	0.1155	-0.006
Mof_H 	H 	0.6548	0.5	0.103	0.056
Mof_C 	C 	0.6744	0.5	0.1514	-0.022
Mof_C 	C 	0.7052	0.5	0.1654	0.11
Mof_C 	C 	0.7355	0.5	0.149	-0.128
Mof_H 	H 	0.7561	0.5	0.1608	0.072
Mof_C 	C 	0.7344	0.5	0.1167	0.045
Mof_H 	H 	0.7546	0.5	0.1044	0.029
Mof_O 	O 	0.82321	1.25972e-32	0.95129	-0.409
Mof_O 	O 	0.76583	0	0.95156	-0.4
Mof_C 	C 	0.7955	0	0.93854	0.342
Mof_C 	C 	0.7952	6.2986e-33	0.8999	-0.081
Mof_C 	C 	0.825	6.2986e-33	0.8845	-0.007
Mof_H 	H 	0.8452	6.2986e-33	0.897	0.057
Mof_C 	C 	0.8256	-6.2986e-33	0.8486	-0.021
Mof_C 	C 	0.7948	0	0.8346	0.108
Mof_C 	C 	0.7645	6.2986e-33	0.851	-0.127
Mof_H 	H 	0.7439	0	0.8392	0.07
Mof_C 	C 	0.7656	6.2986e-33	0.8833	0.044
Mof_H 	H 	0.7454	6.2986e-33	0.8956	0.029
Mof_O 	O 	0.82321	0.5	0.45129	-0.411
Mof_O 	O 	0.76583	0.5	0.45156	-0.401
Mof_C 	C 	0.7955	0.5	0.43854	0.342
Mof_C 	C 	0.7952	0.5	0.3999	-0.081
Mof_C 	C 	0.825	0.5	0.3845	-0.006
Mof_H 	H 	0.8452	0.5	0.397	0.057
Mof_C 	C 	0.8256	0.5	0.3486	-0.022
Mof_C 	C 	0.7948	0.5	0.3346	0.11
Mof_C 	C 	0.7645	0.5	0.351	-0.128
Mof_H 	H 	0.7439	0.5	0.3392	0.072
Mof_C 	C 	0.7656	0.5	0.3833	0.045
Mof_H 	H 	0.7454	0.5	0.3956	0.029
Mof_O 	O 	0.32321	0	0.45129	-0.413
Mof_O 	O 	0.26583	-3.1493e-33	0.45156	-0.403
Mof_C 	C 	0.2955	-3.1493e-33	0.43854	0.342
Mof_C 	C 	0.2952	0	0.3999	-0.082
Mof_C 	C 	0.325	6.2986e-33	0.3845	-0.007
Mof_H 	H 	0.3452	-3.1493e-33	0.397	0.056
Mof_C 	C 	0.3256	3.1493e-33	0.3486	-0.022
Mof_C 	C 	0.2948	0	0.3346	0.109
Mof_C 	C 	0.2645	0	0.351	-0.128
Mof_H 	H 	0.2439	0	0.3392	0.071
Mof_C 	C 	0.2656	3.1493e-33	0.3833	0.044
Mof_H 	H 	0.2454	3.1493e-33	0.3956	0.028
Mof_O 	O 	0.32321	0.5	0.95129	-0.408
Mof_O 	O 	0.26583	0.5	0.95156	-0.398
Mof_C 	C 	0.2955	0.5	0.93854	0.342
Mof_C 	C 	0.2952	0.5	0.8999	-0.08
Mof_C 	C 	0.325	0.5	0.8845	-0.007
Mof_H 	H 	0.3452	0.5	0.897	0.057
Mof_C 	C 	0.3256	0.5	0.8486	-0.021
Mof_C 	C 	0.2948	0.5	0.8346	0.109
Mof_C 	C 	0.2645	0.5	0.851	-0.127
Mof_H 	H 	0.2439	0.5	0.8392	0.072
Mof_C 	C 	0.2656	0.5	0.8833	0.044
Mof_H 	H 	0.2454	0.5	0.8956	0.029
Mof_O 	O 	0.17679	1.25972e-32	0.95129	-0.409
Mof_O 	O 	0.23417	0	0.95156	-0.4
Mof_C 	C 	0.2045	0	0.93854	0.342
Mof_C 	C 	0.2048	6.2986e-33	0.8999	-0.081
Mof_C 	C 	0.175	6.2986e-33	0.8845	-0.007
Mof_H 	H 	0.1548	6.2986e-33	0.897	0.057
Mof_C 	C 	0.1744	-6.2986e-33	0.8486	-0.021
Mof_C 	C 	0.2052	0	0.8346	0.108
Mof_C 	C 	0.2355	6.2986e-33	0.851	-0.127
Mof_H 	H 	0.2561	0	0.8392	0.07
Mof_C 	C 	0.2344	6.2986e-33	0.8833	0.044
Mof_H 	H 	0.2546	6.2986e-33	0.8956	0.029
Mof_O 	O 	0.17679	0.5	0.45129	-0.411
Mof_O 	O 	0.23417	0.5	0.45156	-0.402
Mof_C 	C 	0.2045	0.5	0.43854	0.342
Mof_C 	C 	0.2048	0.5	0.3999	-0.082
Mof_C 	C 	0.175	0.5	0.3845	-0.007
Mof_H 	H 	0.1548	0.5	0.397	0.056
Mof_C 	C 	0.1744	0.5	0.3486	-0.022
Mof_C 	C 	0.2052	0.5	0.3346	0.11
Mof_C 	C 	0.2355	0.5	0.351	-0.128
Mof_H 	H 	0.2561	0.5	0.3392	0.072
Mof_C 	C 	0.2344	0.5	0.3833	0.045
Mof_H 	H 	0.2546	0.5	0.3956	0.029
Mof_O 	O 	0.67679	0	0.45129	-0.413
Mof_O 	O 	0.73417	-3.1493e-33	0.45156	-0.403
Mof_C 	C 	0.7045	-3.1493e-33	0.43854	0.342
Mof_C 	C 	0.7048	0	0.3999	-0.082
Mof_C 	C 	0.675	6.2986e-33	0.3845	-0.007
Mof_H 	H 	0.6548	-3.1493e-33	0.397	0.056
Mof_C 	C 	0.6744	3.1493e-33	0.3486	-0.022
Mof_C 	C 	0.7052	0	0.3346	0.108
Mof_C 	C 	0.7355	0	0.351	-0.128
Mof_H 	H 	0.7561	0	0.3392	0.071
Mof_C 	C 	0.7344	3.1493e-33	0.3833	0.044
Mof_H 	H 	0.7546	3.1493e-33	0.3956	0.028
Mof_O 	O 	0.67679	0.5	0.95129	-0.408
Mof_O 	O 	0.73417	0.5	0.95156	-0.398
Mof_C 	C 	0.7045	0.5	0.93854	0.342
Mof_C 	C 	0.7048	0.5	0.8999	-0.08
Mof_C 	C 	0.675	0.5	0.8845	-0.007
Mof_H 	H 	0.6548	0.5	0.897	0.057
Mof_C 	C 	0.6744	0.5	0.8486	-0.021
Mof_C 	C 	0.7052	0.5	0.8346	0.109
Mof_C 	C 	0.7355	0.5	0.851	-0.127
Mof_H 	H 	0.7561	0.5	0.8392	0.072
Mof_C 	C 	0.7344	0.5	0.8833	0.044
Mof_H 	H 	0.7546	0.5	0.8956	0.03
Mof_O 	O 	8.5361e-33	0.95129	0.17679	-0.409
Mof_O 	O 	-5.4206e-33	0.95156	0.23417	-0.4
Mof_C 	C 	-8.68114e-33	0.93854	0.2045	0.342
Mof_C 	C 	1.33651e-32	0.8999	0.2048	-0.081
Mof_C 	C 	5.38009e-33	0.8845	0.175	-0.007
Mof_H 	H 	5.80407e-34	0.897	0.1548	0.057
Mof_C 	C 	2.22854e-33	0.8486	0.1744	-0.021
Mof_C 	C 	7.69377e-34	0.8346	0.2052	0.108
Mof_C 	C 	1.03309e-32	0.851	0.2355	-0.127
Mof_H 	H 	9.60221e-34	0.8392	0.2561	0.07
Mof_C 	C 	7.17746e-33	0.8833	0.2344	0.044
Mof_H 	H 	9.54597e-34	0.8956	0.2546	0.029
Mof_O 	O 	1.51348e-32	0.45129	0.67679	-0.413
Mof_O 	O 	2.7527e-33	0.45156	0.73417	-0.403
Mof_C 	C 	8.94005e-33	0.43854	0.7045	0.342
Mof_C 	C 	2.64258e-33	0.3999	0.7048	-0.082
Mof_C 	C 	8.82944e-33	0.3845	0.675	-0.007
Mof_H 	H 	-3.84349e-33	0.397	0.6548	0.056
Mof_C 	C 	8.82719e-33	0.3486	0.6744	-0.022
Mof_C 	C 	-3.65452e-33	0.3346	0.7052	0.108
Mof_C 	C 	-3.54091e-33	0.351	0.7355	-0.128
Mof_H 	H 	-3.46368e-33	0.3392	0.7561	0.071
Mof_C 	C 	1.53508e-32	0.3833	0.7344	0.044
Mof_H 	H 	-3.4693e-33	0.3956	0.7546	0.028
Mof_O 	O 	0.5	0.95129	0.67679	-0.408
Mof_O 	O 	0.5	0.95156	0.73417	-0.398
Mof_C 	C 	0.5	0.93854	0.7045	0.342
Mof_C 	C 	0.5	0.8999	0.7048	-0.08
Mof_C 	C 	0.5	0.8845	0.675	-0.007
Mof_H 	H 	0.5	0.897	0.6548	0.057
Mof_C 	C 	0.5	0.8486	0.6744	-0.021
Mof_C 	C 	0.5	0.8346	0.7052	0.109
Mof_C 	C 	0.5	0.851	0.7355	-0.127
Mof_H 	H 	0.5	0.8392	0.7561	0.072
Mof_C 	C 	0.5	0.8833	0.7344	0.044
Mof_H 	H 	0.5	0.8956	0.7546	0.03
Mof_O 	O 	0.5	0.45129	0.17679	-0.411
Mof_O 	O 	0.5	0.45156	0.23417	-0.402
Mof_C 	C 	0.5	0.43854	0.2045	0.342
Mof_C 	C 	0.5	0.3999	0.2048	-0.082
Mof_C 	C 	0.5	0.3845	0.175	-0.007
Mof_H 	H 	0.5	0.397	0.1548	0.056
Mof_C 	C 	0.5	0.3486	0.1744	-0.022
Mof_C 	C 	0.5	0.3346	0.2052	0.11
Mof_C 	C 	0.5	0.351	0.2355	-0.128
Mof_H 	H 	0.5	0.3392	0.2561	0.072
Mof_C 	C 	0.5	0.3833	0.2344	0.045
Mof_H 	H 	0.5	0.3956	0.2546	0.029
Mof_O 	O 	2.19823e-32	0.95129	0.82321	-0.409
Mof_O 	O 	-3.42719e-33	0.95156	0.76583	-0.4
Mof_C 	C 	-3.31595e-33	0.93854	0.7955	0.342
Mof_C 	C 	2.18773e-32	0.8999	0.7952	-0.081
Mof_C 	C 	3.09325e-33	0.8845	0.825	-0.007
Mof_H 	H 	1.57662e-32	0.897	0.8452	0.057
Mof_C 	C 	-1.58003e-32	0.8486	0.8256	-0.021
Mof_C 	C 	-3.31857e-33	0.8346	0.7948	0.108
Mof_C 	C 	2.80608e-32	0.851	0.7645	-0.127
Mof_H 	H 	2.1685e-32	0.8392	0.7439	0.07
Mof_C 	C 	1.54677e-32	0.8833	0.7656	0.044
Mof_H 	H 	9.0934e-33	0.8956	0.7454	0.029
Mof_O 	O 	-1.93746e-33	0.45129	0.32321	-0.413
Mof_O 	O 	9.96703e-34	0.45156	0.26583	-0.403
Mof_C 	C 	-5.19065e-33	0.43854	0.2955	0.342
Mof_C 	C 	4.25612e-33	0.3999	0.2952	-0.082
Mof_C 	C 	4.36785e-33	0.3845	0.325	-0.007
Mof_H 	H 	-1.85501e-33	0.397	0.3452	0.056
Mof_C 	C 	4.3701e-33	0.3486	0.3256	-0.022
Mof_C 	C 	4.25462e-33	0.3346	0.2948	0.109
Mof_C 	C 	9.91716e-34	0.351	0.2645	-0.128
Mof_H 	H 	4.06378e-33	0.3392	0.2439	0.071
Mof_C 	C 	7.29444e-33	0.3833	0.2656	0.044
Mof_H 	H 	4.0694e-33	0.3956	0.2454	0.028
Mof_O 	O 	0.5	0.95129	0.32321	-0.408
Mof_O 	O 	0.5	0.95156	0.26583	-0.398
Mof_C 	C 	0.5	0.93854	0.2955	0.342
Mof_C 	C 	0.5	0.8999	0.2952	-0.08
Mof_C 	C 	0.5	0.8845	0.325	-0.007
Mof_H 	H 	0.5	0.897	0.3452	0.057
Mof_C 	C 	0.5	0.8486	0.3256	-0.021
Mof_C 	C 	0.5	0.8346	0.2948	0.109
Mof_C 	C 	0.5	0.851	0.2645	-0.127
Mof_H 	H 	0.5	0.8392	0.2439	0.072
Mof_C 	C 	0.5	0.8833	0.2656	0.044
Mof_H 	H 	0.5	0.8956	0.2454	0.029
Mof_O 	O 	0.5	0.45129	0.82321	-0.411
Mof_O 	O 	0.5	0.45156	0.76583	-0.401
Mof_C 	C 	0.5	0.43854	0.7955	0.342
Mof_C 	C 	0.5	0.3999	0.7952	-0.081
Mof_C 	C 	0.5	0.3845	0.825	-0.006
Mof_H 	H 	0.5	0.397	0.8452	0.057
Mof_C 	C 	0.5	0.3486	0.8256	-0.022
Mof_C 	C 	0.5	0.3346	0.7948	0.11
Mof_C 	C 	0.5	0.351	0.7645	-0.128
Mof_H 	H 	0.5	0.3392	0.7439	0.072
Mof_C 	C 	0.5	0.3833	0.7656	0.045
Mof_H 	H 	0.5	0.3956	0.7454	0.029
Mof_O 	O 	-9.11793e-34	0.04871	0.17679	-0.413
Mof_O 	O 	8.77997e-34	0.04844	0.23417	-0.403
Mof_C 	C 	7.66752e-34	0.06146	0.2045	0.342
Mof_C 	C 	7.67877e-34	0.1001	0.2048	-0.082
Mof_C 	C 	2.23079e-33	0.1155	0.175	-0.007
Mof_H 	H 	-9.94242e-34	0.103	0.1548	0.056
Mof_C 	C 	2.22854e-33	0.1514	0.1744	-0.022
Mof_C 	C 	-3.95457e-33	0.1654	0.2052	0.109
Mof_C 	C 	-2.26631e-33	0.149	0.2355	-0.128
Mof_H 	H 	9.60221e-34	0.1608	0.2561	0.071
Mof_C 	C 	-2.27044e-33	0.1167	0.2344	0.045
Mof_H 	H 	9.54597e-34	0.1044	0.2546	0.028
Mof_O 	O 	2.53756e-33	0.54871	0.67679	-0.413
Mof_O 	O 	9.05129e-33	0.54844	0.73417	-0.403
Mof_C 	C 	8.94005e-33	0.56146	0.7045	0.342
Mof_C 	C 	1.52398e-32	0.6001	0.7048	-0.082
Mof_C 	C 	8.82944e-33	0.6155	0.675	-0.007
Mof_H 	H 	8.7537e-33	0.603	0.6548	0.056
Mof_C 	C 	1.51258e-32	0.6514	0.6744	-0.022
Mof_C 	C 	2.64408e-33	0.6654	0.7052	0.108
Mof_C 	C 	2.75768e-33	0.649	0.7355	-0.128
Mof_H 	H 	-3.46368e-33	0.6608	0.7561	0.071
Mof_C 	C 	2.75356e-33	0.6167	0.7344	0.044
Mof_H 	H 	-9.7679e-33	0.6044	0.7546	0.028
Mof_O 	O 	0.5	0.04871	0.67679	-0.412
Mof_O 	O 	0.5	0.04844	0.73417	-0.402
Mof_C 	C 	0.5	0.06146	0.7045	0.343
Mof_C 	C 	0.5	0.1001	0.7048	-0.082
Mof_C 	C 	0.5	0.1155	0.675	-0.006
Mof_H 	H 	0.5	0.103	0.6548	0.056
Mof_C 	C 	0.5	0.1514	0.6744	-0.022
Mof_C 	C 	0.5	0.1654	0.7052	0.11
Mof_C 	C 	0.5	0.149	0.7355	-0.128
Mof_H 	H 	0.5	0.1608	0.7561	0.072
Mof_C 	C 	0.5	0.1167	0.7344	0.045
Mof_H 	H 	0.5	0.1044	0.7546	0.029
Mof_O 	O 	0.5	0.54871	0.17679	-0.412
Mof_O 	O 	0.5	0.54844	0.23417	-0.402
Mof_C 	C 	0.5	0.56146	0.2045	0.342
Mof_C 	C 	0.5	0.6001	0.2048	-0.082
Mof_C 	C 	0.5	0.6155	0.175	-0.006
Mof_H 	H 	0.5	0.603	0.1548	0.056
Mof_C 	C 	0.5	0.6514	0.1744	-0.022
Mof_C 	C 	0.5	0.6654	0.2052	0.11
Mof_C 	C 	0.5	0.649	0.2355	-0.128
Mof_H 	H 	0.5	0.6608	0.2561	0.072
Mof_C 	C 	0.5	0.6167	0.2344	0.045
Mof_H 	H 	0.5	0.6044	0.2546	0.029
Mof_O 	O 	3.08654e-33	0.04871	0.82321	-0.412
Mof_O 	O 	-3.42719e-33	0.04844	0.76583	-0.403
Mof_C 	C 	2.98265e-33	0.06146	0.7955	0.342
Mof_C 	C 	2.98152e-33	0.1001	0.7952	-0.082
Mof_C 	C 	-3.20534e-33	0.1155	0.825	-0.007
Mof_H 	H 	-9.4282e-33	0.103	0.8452	0.056
Mof_C 	C 	3.0955e-33	0.1514	0.8256	-0.022
Mof_C 	C 	-3.31857e-33	0.1654	0.7948	0.109
Mof_C 	C 	-3.43218e-33	0.149	0.7645	-0.128
Mof_H 	H 	9.08778e-33	0.1608	0.7439	0.071
Mof_C 	C 	2.87054e-33	0.1167	0.7656	0.045
Mof_H 	H 	-3.50379e-33	0.1044	0.7454	0.028
Mof_O 	O 	4.36114e-33	0.54871	0.32321	-0.413
Mof_O 	O 	4.146e-33	0.54844	0.26583	-0.403
Mof_C 	C 	1.05558e-32	0.56146	0.2955	0.342
Mof_C 	C 	4.25612e-33	0.6001	0.2952	-0.082
Mof_C 	C 	-1.93074e-33	0.6155	0.325	-0.007
Mof_H 	H 	-1.85501e-33	0.603	0.3452	0.056
Mof_C 	C 	7.5194e-33	0.6514	0.3256	-0.022
Mof_C 	C 	4.25462e-33	0.6654	0.2948	0.109
Mof_C 	C 	7.29031e-33	0.649	0.2645	-0.128
Mof_H 	H 	4.06378e-33	0.6608	0.2439	0.071
Mof_C 	C 	4.14514e-33	0.6167	0.2656	0.045
Mof_H 	H 	-2.2292e-33	0.6044	0.2454	0.028
Mof_O 	O 	0.5	0.04871	0.32321	-0.412
Mof_O 	O 	0.5	0.04844	0.26583	-0.402
Mof_C 	C 	0.5	0.06146	0.2955	0.343
Mof_C 	C 	0.5	0.1001	0.2952	-0.082
Mof_C 	C 	0.5	0.1155	0.325	-0.006
Mof_H 	H 	0.5	0.103	0.3452	0.056
Mof_C 	C 	0.5	0.1514	0.3256	-0.022
Mof_C 	C 	0.5	0.1654	0.2948	0.11
Mof_C 	C 	0.5	0.149	0.2645	-0.128
Mof_H 	H 	0.5	0.1608	0.2439	0.072
Mof_C 	C 	0.5	0.1167	0.2656	0.045
Mof_H 	H 	0.5	0.1044	0.2454	0.028
Mof_O 	O 	0.5	0.54871	0.82321	-0.411
Mof_O 	O 	0.5	0.54844	0.76583	-0.402
Mof_C 	C 	0.5	0.56146	0.7955	0.342
Mof_C 	C 	0.5	0.6001	0.7952	-0.081
Mof_C 	C 	0.5	0.6155	0.825	-0.006
Mof_H 	H 	0.5	0.603	0.8452	0.057
Mof_C 	C 	0.5	0.6514	0.8256	-0.022
Mof_C 	C 	0.5	0.6654	0.7948	0.11
Mof_C 	C 	0.5	0.649	0.7645	-0.128
Mof_H 	H 	0.5	0.6608	0.7439	0.072
Mof_C 	C 	0.5	0.6167	0.7656	0.045
Mof_H 	H 	0.5	0.6044	0.7454	0.029
Mof_O 	O 	0.95129	0.82321	-0	-0.409
Mof_O 	O 	0.95156	0.76583	-0	-0.4
Mof_C 	C 	0.93854	0.7955	-0	0.342
Mof_C 	C 	0.8999	0.7952	-0	-0.081
Mof_C 	C 	0.8845	0.825	-0	-0.007
Mof_H 	H 	0.897	0.8452	-0	0.057
Mof_C 	C 	0.8486	0.8256	-0	-0.021
Mof_C 	C 	0.8346	0.7948	-0	0.108
Mof_C 	C 	0.851	0.7645	-0	-0.127
Mof_H 	H 	0.8392	0.7439	-0	0.07
Mof_C 	C 	0.8833	0.7656	-0	0.044
Mof_H 	H 	0.8956	0.7454	-0	0.029
Mof_O 	O 	0.95129	0.32321	0.5	-0.408
Mof_O 	O 	0.95156	0.26583	0.5	-0.398
Mof_C 	C 	0.93854	0.2955	0.5	0.342
Mof_C 	C 	0.8999	0.2952	0.5	-0.08
Mof_C 	C 	0.8845	0.325	0.5	-0.007
Mof_H 	H 	0.897	0.3452	0.5	0.057
Mof_C 	C 	0.8486	0.3256	0.5	-0.021
Mof_C 	C 	0.8346	0.2948	0.5	0.109
Mof_C 	C 	0.851	0.2645	0.5	-0.127
Mof_H 	H 	0.8392	0.2439	0.5	0.072
Mof_C 	C 	0.8833	0.2656	0.5	0.044
Mof_H 	H 	0.8956	0.2454	0.5	0.029
Mof_O 	O 	0.45129	0.82321	0.5	-0.411
Mof_O 	O 	0.45156	0.76583	0.5	-0.401
Mof_C 	C 	0.43854	0.7955	0.5	0.342
Mof_C 	C 	0.3999	0.7952	0.5	-0.081
Mof_C 	C 	0.3845	0.825	0.5	-0.006
Mof_H 	H 	0.397	0.8452	0.5	0.057
Mof_C 	C 	0.3486	0.8256	0.5	-0.022
Mof_C 	C 	0.3346	0.7948	0.5	0.11
Mof_C 	C 	0.351	0.7645	0.5	-0.128
Mof_H 	H 	0.3392	0.7439	0.5	0.072
Mof_C 	C 	0.3833	0.7656	0.5	0.045
Mof_H 	H 	0.3956	0.7454	0.5	0.029
Mof_O 	O 	0.45129	0.32321	-0	-0.413
Mof_O 	O 	0.45156	0.26583	-0	-0.403
Mof_C 	C 	0.43854	0.2955	-0	0.342
Mof_C 	C 	0.3999	0.2952	-0	-0.082
Mof_C 	C 	0.3845	0.325	-0	-0.007
Mof_H 	H 	0.397	0.3452	-0	0.056
Mof_C 	C 	0.3486	0.3256	-0	-0.022
Mof_C 	C 	0.3346	0.2948	-0	0.109
Mof_C 	C 	0.351	0.2645	-0	-0.128
Mof_H 	H 	0.3392	0.2439	-0	0.071
Mof_C 	C 	0.3833	0.2656	-0	0.044
Mof_H 	H 	0.3956	0.2454	-0	0.028
Mof_O 	O 	0.95129	0.17679	-0	-0.409
Mof_O 	O 	0.95156	0.23417	-0	-0.4
Mof_C 	C 	0.93854	0.2045	-0	0.342
Mof_C 	C 	0.8999	0.2048	-0	-0.081
Mof_C 	C 	0.8845	0.175	-0	-0.007
Mof_H 	H 	0.897	0.1548	-0	0.057
Mof_C 	C 	0.8486	0.1744	-0	-0.021
Mof_C 	C 	0.8346	0.2052	-0	0.108
Mof_C 	C 	0.851	0.2355	-0	-0.127
Mof_H 	H 	0.8392	0.2561	-0	0.07
Mof_C 	C 	0.8833	0.2344	-0	0.044
Mof_H 	H 	0.8956	0.2546	-0	0.029
Mof_O 	O 	0.95129	0.67679	0.5	-0.408
Mof_O 	O 	0.95156	0.73417	0.5	-0.398
Mof_C 	C 	0.93854	0.7045	0.5	0.342
Mof_C 	C 	0.8999	0.7048	0.5	-0.08
Mof_C 	C 	0.8845	0.675	0.5	-0.007
Mof_H 	H 	0.897	0.6548	0.5	0.057
Mof_C 	C 	0.8486	0.6744	0.5	-0.021
Mof_C 	C 	0.8346	0.7052	0.5	0.109
Mof_C 	C 	0.851	0.7355	0.5	-0.127
Mof_H 	H 	0.8392	0.7561	0.5	0.072
Mof_C 	C 	0.8833	0.7344	0.5	0.044
Mof_H 	H 	0.8956	0.7546	0.5	0.03
Mof_O 	O 	0.45129	0.17679	0.5	-0.411
Mof_O 	O 	0.45156	0.23417	0.5	-0.402
Mof_C 	C 	0.43854	0.2045	0.5	0.342
Mof_C 	C 	0.3999	0.2048	0.5	-0.082
Mof_C 	C 	0.3845	0.175	0.5	-0.007
Mof_H 	H 	0.397	0.1548	0.5	0.056
Mof_C 	C 	0.3486	0.1744	0.5	-0.022
Mof_C 	C 	0.3346	0.2052	0.5	0.11
Mof_C 	C 	0.351	0.2355	0.5	-0.128
Mof_H 	H 	0.3392	0.2561	0.5	0.072
Mof_C 	C 	0.3833	0.2344	0.5	0.045
Mof_H 	H 	0.3956	0.2546	0.5	0.029
Mof_O 	O 	0.45129	0.67679	-0	-0.413
Mof_O 	O 	0.45156	0.73417	-0	-0.403
Mof_C 	C 	0.43854	0.7045	-0	0.342
Mof_C 	C 	0.3999	0.7048	-0	-0.082
Mof_C 	C 	0.3845	0.675	-0	-0.007
Mof_H 	H 	0.397	0.6548	-0	0.056
Mof_C 	C 	0.3486	0.6744	-0	-0.022
Mof_C 	C 	0.3346	0.7052	-0	0.108
Mof_C 	C 	0.351	0.7355	-0	-0.128
Mof_H 	H 	0.3392	0.7561	-0	0.071
Mof_C 	C 	0.3833	0.7344	-0	0.044
Mof_H 	H 	0.3956	0.7546	-0	0.028
Mof_O 	O 	0.04871	0.82321	-0	-0.412
Mof_O 	O 	0.04844	0.76583	-0	-0.403
Mof_C 	C 	0.06146	0.7955	-0	0.342
Mof_C 	C 	0.1001	0.7952	-0	-0.082
Mof_C 	C 	0.1155	0.825	-0	-0.007
Mof_H 	H 	0.103	0.8452	-0	0.056
Mof_C 	C 	0.1514	0.8256	-0	-0.022
Mof_C 	C 	0.1654	0.7948	-0	0.109
Mof_C 	C 	0.149	0.7645	-0	-0.128
Mof_H 	H 	0.1608	0.7439	-0	0.071
Mof_C 	C 	0.1167	0.7656	-0	0.045
Mof_H 	H 	0.1044	0.7454	-0	0.028
Mof_O 	O 	0.04871	0.32321	0.5	-0.412
Mof_O 	O 	0.04844	0.26583	0.5	-0.402
Mof_C 	C 	0.06146	0.2955	0.5	0.343
Mof_C 	C 	0.1001	0.2952	0.5	-0.082
Mof_C 	C 	0.1155	0.325	0.5	-0.006
Mof_H 	H 	0.103	0.3452	0.5	0.056
Mof_C 	C 	0.1514	0.3256	0.5	-0.022
Mof_C 	C 	0.1654	0.2948	0.5	0.11
Mof_C 	C 	0.149	0.2645	0.5	-0.128
Mof_H 	H 	0.1608	0.2439	0.5	0.072
Mof_C 	C 	0.1167	0.2656	0.5	0.045
Mof_H 	H 	0.1044	0.2454	0.5	0.028
Mof_O 	O 	0.54871	0.82321	0.5	-0.411
Mof_O 	O 	0.54844	0.76583	0.5	-0.402
Mof_C 	C 	0.56146	0.7955	0.5	0.342
Mof_C 	C 	0.6001	0.7952	0.5	-0.081
Mof_C 	C 	0.6155	0.825	0.5	-0.006
Mof_H 	H 	0.603	0.8452	0.5	0.057
Mof_C 	C 	0.6514	0.8256	0.5	-0.022
Mof_C 	C 	0.6654	0.7948	0.5	0.11
Mof_C 	C 	0.649	0.7645	0.5	-0.128
Mof_H 	H 	0.6608	0.7439	0.5	0.072
Mof_C 	C 	0.6167	0.7656	0.5	0.045
Mof_H 	H 	0.6044	0.7454	0.5	0.029
Mof_O 	O 	0.54871	0.32321	-0	-0.413
Mof_O 	O 	0.54844	0.26583	-0	-0.403
Mof_C 	C 	0.56146	0.2955	-0	0.342
Mof_C 	C 	0.6001	0.2952	-0	-0.082
Mof_C 	C 	0.6155	0.325	-0	-0.007
Mof_H 	H 	0.603	0.3452	-0	0.056
Mof_C 	C 	0.6514	0.3256	-0	-0.022
Mof_C 	C 	0.6654	0.2948	-0	0.109
Mof_C 	C 	0.649	0.2645	-0	-0.128
Mof_H 	H 	0.6608	0.2439	-0	0.071
Mof_C 	C 	0.6167	0.2656	-0	0.045
Mof_H 	H 	0.6044	0.2454	-0	0.028
Mof_O 	O 	0.04871	0.17679	-0	-0.413
Mof_O 	O 	0.04844	0.23417	-0	-0.403
Mof_C 	C 	0.06146	0.2045	-0	0.342
Mof_C 	C 	0.1001	0.2048	-0	-0.082
Mof_C 	C 	0.1155	0.175	-0	-0.007
Mof_H 	H 	0.103	0.1548	-0	0.056
Mof_C 	C 	0.1514	0.1744	-0	-0.022
Mof_C 	C 	0.1654	0.2052	-0	0.109
Mof_C 	C 	0.149	0.2355	-0	-0.128
Mof_H 	H 	0.1608	0.2561	-0	0.071
Mof_C 	C 	0.1167	0.2344	-0	0.045
Mof_H 	H 	0.1044	0.2546	-0	0.028
Mof_O 	O 	0.04871	0.67679	0.5	-0.412
Mof_O 	O 	0.04844	0.73417	0.5	-0.402
Mof_C 	C 	0.06146	0.7045	0.5	0.343
Mof_C 	C 	0.1001	0.7048	0.5	-0.082
Mof_C 	C 	0.1155	0.675	0.5	-0.006
Mof_H 	H 	0.103	0.6548	0.5	0.056
Mof_C 	C 	0.1514	0.6744	0.5	-0.022
Mof_C 	C 	0.1654	0.7052	0.5	0.11
Mof_C 	C 	0.149	0.7355	0.5	-0.128
Mof_H 	H 	0.1608	0.7561	0.5	0.072
Mof_C 	C 	0.1167	0.7344	0.5	0.045
Mof_H 	H 	0.1044	0.7546	0.5	0.029
Mof_O 	O 	0.54871	0.17679	0.5	-0.412
Mof_O 	O 	0.54844	0.23417	0.5	-0.402
Mof_C 	C 	0.56146	0.2045	0.5	0.342
Mof_C 	C 	0.6001	0.2048	0.5	-0.082
Mof_C 	C 	0.6155	0.175	0.5	-0.006
Mof_H 	H 	0.603	0.1548	0.5	0.056
Mof_C 	C 	0.6514	0.1744	0.5	-0.022
Mof_C 	C 	0.6654	0.2052	0.5	0.11
Mof_C 	C 	0.649	0.2355	0.5	-0.128
Mof_H 	H 	0.6608	0.2561	0.5	0.072
Mof_C 	C 	0.6167	0.2344	0.5	0.045
Mof_H 	H 	0.6044	0.2546	0.5	0.029
Mof_O 	O 	0.54871	0.67679	-0	-0.413
Mof_O 	O 	0.54844	0.73417	-0	-0.403
Mof_C 	C 	0.56146	0.7045	-0	0.342
Mof_C 	C 	0.6001	0.7048	-0	-0.082
Mof_C 	C 	0.6155	0.675	-0	-0.007
Mof_H 	H 	0.603	0.6548	-0	0.056
Mof_C 	C 	0.6514	0.6744	-0	-0.022
Mof_C 	C 	0.6654	0.7052	-0	0.108
Mof_C 	C 	0.649	0.7355	-0	-0.128
Mof_H 	H 	0.6608	0.7561	-0	0.071
Mof_C 	C 	0.6167	0.7344	-0	0.044
Mof_H 	H 	0.6044	0.7546	-0	0.028
Mof_N 	N 	-3.30208e-33	0.7992	0.7992	-0.112
Mof_C 	C 	9.19388e-33	0.7722	0.7722	-0.032
Mof_N 	N 	1.12182e-33	0.2992	0.2992	-0.112
Mof_C 	C 	1.02059e-33	0.2722	0.2722	-0.032
Mof_N 	N 	0.5	0.7992	0.2992	-0.112
Mof_C 	C 	0.5	0.7722	0.2722	-0.026
Mof_N 	N 	0.5	0.2992	0.7992	-0.112
Mof_C 	C 	0.5	0.2722	0.7722	-0.026
Mof_N 	N 	2.99652e-33	0.2008	0.7992	-0.112
Mof_C 	C 	2.17911e-32	0.2278	0.7722	-0.032
Mof_N 	N 	4.27112e-33	0.7008	0.2992	-0.112
Mof_C 	C 	1.02059e-33	0.7278	0.2722	-0.032
Mof_N 	N 	0.5	0.2008	0.2992	-0.112
Mof_C 	C 	0.5	0.2278	0.2722	-0.026
Mof_N 	N 	0.5	0.7008	0.7992	-0.112
Mof_C 	C 	0.5	0.7278	0.7722	-0.026
Mof_N 	N 	5.47683e-33	0.7992	0.2008	-0.112
Mof_C 	C 	2.13246e-32	0.7722	0.2278	-0.032
Mof_N 	N 	2.62758e-33	0.2992	0.7008	-0.112
Mof_C 	C 	-3.56978e-33	0.2722	0.7278	-0.032
Mof_N 	N 	0.5	0.7992	0.7008	-0.112
Mof_C 	C 	0.5	0.7722	0.7278	-0.026
Mof_N 	N 	0.5	0.2992	0.2008	-0.112
Mof_C 	C 	0.5	0.2722	0.2278	-0.026
Mof_N 	N 	3.90218e-33	0.2008	0.2008	-0.112
Mof_C 	C 	4.00341e-33	0.2278	0.2278	-0.032
Mof_N 	N 	2.62758e-33	0.7008	0.7008	-0.112
Mof_C 	C 	-3.56978e-33	0.7278	0.7278	-0.032
Mof_N 	N 	0.5	0.2008	0.7008	-0.112
Mof_C 	C 	0.5	0.2278	0.7278	-0.026
Mof_N 	N 	0.5	0.7008	0.2008	-0.112
Mof_C 	C 	0.5	0.7278	0.2278	-0.026
Mof_N 	N 	0.7992	0	0.7992	-0.112
Mof_C 	C 	0.7722	6.2986e-33	0.7722	-0.032
Mof_N 	N 	0.7992	0.5	0.2992	-0.112
Mof_C 	C 	0.7722	0.5	0.2722	-0.026
Mof_N 	N 	0.2992	0	0.2992	-0.112
Mof_C 	C 	0.2722	0	0.2722	-0.032
Mof_N 	N 	0.2992	0.5	0.7992	-0.112
Mof_C 	C 	0.2722	0.5	0.7722	-0.026
Mof_N 	N 	0.7992	1.57465e-33	0.2008	-0.112
Mof_C 	C 	0.7722	1.57465e-33	0.2278	-0.032
Mof_N 	N 	0.7992	0.5	0.7008	-0.112
Mof_C 	C 	0.7722	0.5	0.7278	-0.026
Mof_N 	N 	0.2992	0	0.7008	-0.112
Mof_C 	C 	0.2722	0	0.7278	-0.032
Mof_N 	N 	0.2992	0.5	0.2008	-0.112
Mof_C 	C 	0.2722	0.5	0.2278	-0.026
Mof_N 	N 	0.2008	0	0.7992	-0.112
Mof_C 	C 	0.2278	6.2986e-33	0.7722	-0.032
Mof_N 	N 	0.2008	0.5	0.2992	-0.112
Mof_C 	C 	0.2278	0.5	0.2722	-0.026
Mof_N 	N 	0.7008	0	0.2992	-0.112
Mof_C 	C 	0.7278	0	0.2722	-0.032
Mof_N 	N 	0.7008	0.5	0.7992	-0.112
Mof_C 	C 	0.7278	0.5	0.7722	-0.026
Mof_N 	N 	0.2008	1.57465e-33	0.2008	-0.112
Mof_C 	C 	0.2278	1.57465e-33	0.2278	-0.032
Mof_N 	N 	0.2008	0.5	0.7008	-0.112
Mof_C 	C 	0.2278	0.5	0.7278	-0.026
Mof_N 	N 	0.7008	0	0.7008	-0.112
Mof_C 	C 	0.7278	0	0.7278	-0.032
Mof_N 	N 	0.7008	0.5	0.2008	-0.112
Mof_C 	C 	0.7278	0.5	0.2278	-0.026
Mof_N 	N 	0.7992	0.7992	-0	-0.112
Mof_C 	C 	0.7722	0.7722	-0	-0.032
Mof_N 	N 	0.7992	0.2992	0.5	-0.112
Mof_C 	C 	0.7722	0.2722	0.5	-0.026
Mof_N 	N 	0.2992	0.7992	0.5	-0.112
Mof_C 	C 	0.2722	0.7722	0.5	-0.026
Mof_N 	N 	0.2992	0.2992	-0	-0.112
Mof_C 	C 	0.2722	0.2722	-0	-0.032
Mof_N 	N 	0.2008	0.7992	-0	-0.112
Mof_C 	C 	0.2278	0.7722	-0	-0.032
Mof_N 	N 	0.2008	0.2992	0.5	-0.112
Mof_C 	C 	0.2278	0.2722	0.5	-0.026
Mof_N 	N 	0.7008	0.7992	0.5	-0.112
Mof_C 	C 	0.7278	0.7722	0.5	-0.026
Mof_N 	N 	0.7008	0.2992	-0	-0.112
Mof_C 	C 	0.7278	0.2722	-0	-0.032
Mof_N 	N 	0.7992	0.2008	-0	-0.112
Mof_C 	C 	0.7722	0.2278	-0	-0.032
Mof_N 	N 	0.7992	0.7008	0.5	-0.112
Mof_C 	C 	0.7722	0.7278	0.5	-0.026
Mof_N 	N 	0.2992	0.2008	0.5	-0.112
Mof_C 	C 	0.2722	0.2278	0.5	-0.026
Mof_N 	N 	0.2992	0.7008	-0	-0.112
Mof_C 	C 	0.2722	0.7278	-0	-0.032
Mof_N 	N 	0.2008	0.2008	-0	-0.112
Mof_C 	C 	0.2278	0.2278	-0	-0.032
Mof_N 	N 	0.2008	0.7008	0.5	-0.112
Mof_C 	C 	0.2278	0.7278	0.5	-0.026
Mof_N 	N 	0.7008	0.2008	0.5	-0.112
Mof_C 	C 	0.7278	0.2278	0.5	-0.026
Mof_N 	N 	0.7008	0.7008	-0	-0.112
Mof_C 	C 	0.7278	0.7278	-0	-0.032
_end
