data_functionalizedCrystal
_audit_creation_method	'EQeq! by Chris Wilmer'
_symmetry_space_group_name_H-M	'P1'
_symmetry_Int_Tables_number	1
_symmetry_cell_setting	triclinic
loop_
_symmetry_equiv_pos_as_xyz
  x,y,z
_cell_length_a	16.5843
_cell_length_b	16.599
_cell_length_c	22.2252
_cell_angle_alpha	90
_cell_angle_beta	90
_cell_angle_gamma	90
loop_
_atom_site_label
_atom_site_type_symbol
_atom_site_fract_x
_atom_site_fract_y
_atom_site_fract_z
_atom_site_charge
Mof_O 	O 	0.08511	0.58394	0.45117	-0.509
Mof_C 	C 	0.2011	0.702	0.4463	0.107
Mof_H 	H 	0.1811	0.6807	0.4095	0.004
Mof_C 	C 	0.259	0.7617	0.4443	-0.184
Mof_H 	H 	0.2778	0.7829	0.4072	0.086
Mof_N 	N 	0.0593	0.4403	0.0639	-0.244
Mof_C 	C 	0.0471	0.5519	0.3124	0.049
Mof_H 	H 	0.0801	0.5905	0.3321	0.005
Mof_C 	C 	0.0475	0.5492	0.2533	-0.182
Mof_H 	H 	0.0833	0.584	0.2323	0.089
Mof_C 	C 	0.0351	0.4438	0.1253	0.077
Mof_C 	C 	0.0475	0.3613	0.1547	-0.069
Mof_H 	H 	0.0363	0.3456	0.1949	0.017
Mof_C 	C 	0.0803	0.3131	0.1067	-0.094
Mof_H 	H 	0.0893	0.2567	0.1086	0.043
Mof_C 	C 	0.0987	0.3667	0.0519	0.102
Mof_O 	O 	0.91489	0.41606	0.45117	-0.476
Mof_C 	C 	0.7989	0.298	0.4463	0.103
Mof_H 	H 	0.8189	0.3193	0.4095	0.011
Mof_C 	C 	0.741	0.2383	0.4443	-0.178
Mof_H 	H 	0.7222	0.2171	0.4072	0.084
Mof_N 	N 	0.9407	0.5597	0.0639	-0.24
Mof_C 	C 	0.9529	0.4481	0.3124	0.111
Mof_H 	H 	0.9199	0.4095	0.3321	0
Mof_C 	C 	0.9525	0.4508	0.2533	-0.122
Mof_H 	H 	0.9167	0.416	0.2323	0.072
Mof_C 	C 	0.9649	0.5562	0.1253	0.223
Mof_C 	C 	0.9525	0.6387	0.1547	-0.074
Mof_H 	H 	0.9637	0.6544	0.1949	0.074
Mof_C 	C 	0.9197	0.6869	0.1067	-0.063
Mof_H 	H 	0.9107	0.7433	0.1086	0.064
Mof_C 	C 	0.9013	0.6333	0.0519	0.111
Mof_O 	O 	0.91489	0.58394	0.54883	-0.475
Mof_C 	C 	0.7989	0.702	0.5537	0.105
Mof_H 	H 	0.8189	0.6807	0.5905	0.014
Mof_C 	C 	0.741	0.7617	0.5557	-0.177
Mof_H 	H 	0.7222	0.7829	0.5928	0.09
Mof_N 	N 	0.9407	0.4403	0.9361	-0.237
Mof_C 	C 	0.9529	0.5519	0.6876	0.111
Mof_H 	H 	0.9199	0.5905	0.6679	0.002
Mof_C 	C 	0.9525	0.5492	0.7467	-0.124
Mof_H 	H 	0.9167	0.584	0.7677	0.075
Mof_C 	C 	0.9649	0.4438	0.8747	0.219
Mof_C 	C 	0.9525	0.3613	0.8453	-0.073
Mof_H 	H 	0.9637	0.3456	0.8051	0.071
Mof_C 	C 	0.9197	0.3131	0.8933	-0.068
Mof_H 	H 	0.9107	0.2567	0.8914	0.064
Mof_C 	C 	0.9013	0.3667	0.9481	0.129
Mof_O 	O 	0.08511	0.41606	0.54883	-0.511
Mof_C 	C 	0.2011	0.298	0.5537	0.105
Mof_H 	H 	0.1811	0.3193	0.5905	0.003
Mof_C 	C 	0.259	0.2383	0.5557	-0.186
Mof_H 	H 	0.2778	0.2171	0.5928	0.083
Mof_N 	N 	0.0593	0.5597	0.9361	-0.24
Mof_C 	C 	0.0471	0.4481	0.6876	0.05
Mof_H 	H 	0.0801	0.4095	0.6679	0.004
Mof_C 	C 	0.0475	0.4508	0.7467	-0.181
Mof_H 	H 	0.0833	0.416	0.7677	0.089
Mof_C 	C 	0.0351	0.5562	0.8747	0.078
Mof_C 	C 	0.0475	0.6387	0.8453	-0.065
Mof_H 	H 	0.0363	0.6544	0.8051	0.019
Mof_C 	C 	0.0803	0.6869	0.8933	-0.096
Mof_H 	H 	0.0893	0.7433	0.8914	0.057
Mof_C 	C 	0.0987	0.6333	0.9481	0.124
Mof_O 	O 	0.91489	0.41606	0.54883	-0.476
Mof_C 	C 	0.7989	0.298	0.5537	0.103
Mof_H 	H 	0.8189	0.3193	0.5905	0.012
Mof_C 	C 	0.741	0.2383	0.5557	-0.178
Mof_H 	H 	0.7222	0.2171	0.5928	0.085
Mof_N 	N 	0.9407	0.5597	0.9361	-0.237
Mof_C 	C 	0.9529	0.4481	0.6876	0.111
Mof_H 	H 	0.9199	0.4095	0.6679	0.001
Mof_C 	C 	0.9525	0.4508	0.7467	-0.124
Mof_H 	H 	0.9167	0.416	0.7677	0.074
Mof_C 	C 	0.9649	0.5562	0.8747	0.219
Mof_C 	C 	0.9525	0.6387	0.8453	-0.072
Mof_H 	H 	0.9637	0.6544	0.8051	0.073
Mof_C 	C 	0.9197	0.6869	0.8933	-0.066
Mof_H 	H 	0.9107	0.7433	0.8914	0.07
Mof_C 	C 	0.9013	0.6333	0.9481	0.13
Mof_O 	O 	0.08511	0.58394	0.54883	-0.51
Mof_C 	C 	0.2011	0.702	0.5537	0.107
Mof_H 	H 	0.1811	0.6807	0.5905	0.005
Mof_C 	C 	0.259	0.7617	0.5557	-0.184
Mof_H 	H 	0.2778	0.7829	0.5928	0.087
Mof_N 	N 	0.0593	0.4403	0.9361	-0.24
Mof_C 	C 	0.0471	0.5519	0.6876	0.05
Mof_H 	H 	0.0801	0.5905	0.6679	0.005
Mof_C 	C 	0.0475	0.5492	0.7467	-0.181
Mof_H 	H 	0.0833	0.584	0.7677	0.09
Mof_C 	C 	0.0351	0.4438	0.8747	0.078
Mof_C 	C 	0.0475	0.3613	0.8453	-0.066
Mof_H 	H 	0.0363	0.3456	0.8051	0.017
Mof_C 	C 	0.0803	0.3131	0.8933	-0.097
Mof_H 	H 	0.0893	0.2567	0.8914	0.05
Mof_C 	C 	0.0987	0.3667	0.9481	0.124
Mof_O 	O 	0.08511	0.41606	0.45117	-0.511
Mof_C 	C 	0.2011	0.298	0.4463	0.105
Mof_H 	H 	0.1811	0.3193	0.4095	0.003
Mof_C 	C 	0.259	0.2383	0.4443	-0.186
Mof_H 	H 	0.2778	0.2171	0.4072	0.081
Mof_N 	N 	0.0593	0.5597	0.0639	-0.244
Mof_C 	C 	0.0471	0.4481	0.3124	0.049
Mof_H 	H 	0.0801	0.4095	0.3321	0.003
Mof_C 	C 	0.0475	0.4508	0.2533	-0.182
Mof_H 	H 	0.0833	0.416	0.2323	0.088
Mof_C 	C 	0.0351	0.5562	0.1253	0.077
Mof_C 	C 	0.0475	0.6387	0.1547	-0.068
Mof_H 	H 	0.0363	0.6544	0.1949	0.018
Mof_C 	C 	0.0803	0.6869	0.1067	-0.093
Mof_H 	H 	0.0893	0.7433	0.1086	0.049
Mof_C 	C 	0.0987	0.6333	0.0519	0.103
Mof_O 	O 	0.91489	0.58394	0.45117	-0.475
Mof_C 	C 	0.7989	0.702	0.4463	0.104
Mof_H 	H 	0.8189	0.6807	0.4095	0.013
Mof_C 	C 	0.741	0.7617	0.4443	-0.177
Mof_H 	H 	0.7222	0.7829	0.4072	0.089
Mof_N 	N 	0.9407	0.4403	0.0639	-0.24
Mof_C 	C 	0.9529	0.5519	0.3124	0.111
Mof_H 	H 	0.9199	0.5905	0.3321	0.002
Mof_C 	C 	0.9525	0.5492	0.2533	-0.122
Mof_H 	H 	0.9167	0.584	0.2323	0.073
Mof_C 	C 	0.9649	0.4438	0.1253	0.223
Mof_C 	C 	0.9525	0.3613	0.1547	-0.075
Mof_H 	H 	0.9637	0.3456	0.1949	0.072
Mof_C 	C 	0.9197	0.3131	0.1067	-0.064
Mof_H 	H 	0.9107	0.2567	0.1086	0.058
Mof_C 	C 	0.9013	0.3667	0.0519	0.11
Mof_Zn	Zn	2.18489e-33	0.5	0.43483	1.21
Mof_N 	N 	5.87205e-33	0.5	0.3475	-0.316
Mof_C 	C 	-3.01551e-33	0.5	0.221	0.265
Mof_C 	C 	-7.46506e-33	0.5	0.1566	-0.394
Mof_Zn	Zn	1.10917e-32	0.5	0.56517	1.21
Mof_N 	N 	-1.32252e-32	0.5	0.6525	-0.316
Mof_C 	C 	-1.25896e-32	0.5	0.779	0.266
Mof_C 	C 	-1.2266e-32	0.5	0.8434	-0.389
Mof_Al	Al	0.5	-8.25193e-33	0.5	1.605
Mof_C 	C 	0.128	0.356	-0	-0.158
Mof_C 	C 	0.872	0.644	-0	-0.141
Mof_C 	C 	0.872	0.356	-0	-0.145
Mof_C 	C 	0.128	0.644	-0	-0.154
Mof_N 	N 	0.5	0.8806	0.5	-0.368
Mof_N 	N 	0.5	0.1194	0.5	-0.378
Mof_N 	N 	0.3803	-8.25193e-33	0.5	-0.39
Mof_N 	N 	0.6197	-8.25193e-33	0.5	-0.39
Mof_C 	C 	0.1088	0.6076	0.5	0.479
Mof_C 	C 	0.1709	0.6719	0.5	-0.197
Mof_C 	C 	0.289	0.7897	0.5	0.132
Mof_C 	C 	0.3542	0.8545	0.5	-0.171
Mof_C 	C 	0.3288	0.9335	0.5	0.121
Mof_C 	C 	0.2472	0.9579	0.5	-0.05
Mof_H 	H 	0.2012	0.9238	0.5	0.046
Mof_C 	C 	0.4341	0.829	0.5	0.116
Mof_C 	C 	0.4565	0.7468	0.5	-0.093
Mof_H 	H 	0.4217	0.7013	0.5	0.063
Mof_C 	C 	0.8912	0.3924	0.5	0.472
Mof_C 	C 	0.8291	0.3281	0.5	-0.183
Mof_C 	C 	0.711	0.2103	0.5	0.131
Mof_C 	C 	0.6458	0.1455	0.5	-0.176
Mof_C 	C 	0.6712	0.0665	0.5	0.121
Mof_C 	C 	0.7528	0.0421	0.5	-0.138
Mof_H 	H 	0.7988	0.0762	0.5	0.077
Mof_C 	C 	0.5659	0.171	0.5	0.112
Mof_C 	C 	0.5435	0.2532	0.5	-0.094
Mof_H 	H 	0.5783	0.2987	0.5	0.062
Mof_C 	C 	0.8912	0.6076	0.5	0.473
Mof_C 	C 	0.8291	0.6719	0.5	-0.182
Mof_C 	C 	0.711	0.7897	0.5	0.131
Mof_C 	C 	0.6458	0.8545	0.5	-0.169
Mof_C 	C 	0.6712	0.9335	0.5	0.123
Mof_C 	C 	0.7528	0.9579	0.5	-0.045
Mof_H 	H 	0.7988	0.9238	0.5	0.058
Mof_C 	C 	0.5659	0.829	0.5	0.116
Mof_C 	C 	0.5435	0.7468	0.5	-0.093
Mof_H 	H 	0.5783	0.7013	0.5	0.062
Mof_C 	C 	0.1088	0.3924	0.5	0.479
Mof_C 	C 	0.1709	0.3281	0.5	-0.199
Mof_C 	C 	0.289	0.2103	0.5	0.132
Mof_C 	C 	0.3542	0.1455	0.5	-0.178
Mof_C 	C 	0.3288	0.0665	0.5	0.119
Mof_C 	C 	0.2472	0.0421	0.5	-0.142
Mof_H 	H 	0.2012	0.0762	0.5	0.065
Mof_C 	C 	0.4341	0.171	0.5	0.112
Mof_C 	C 	0.4565	0.2532	0.5	-0.095
Mof_H 	H 	0.4217	0.2987	0.5	0.062
Mof_Zn	Zn	-4.12597e-33	0.5	-0	1.214
_end
