data_functionalizedCrystal
_audit_creation_method	'EQeq! by Chris Wilmer'
_symmetry_space_group_name_H-M	'P1'
_symmetry_Int_Tables_number	1
_symmetry_cell_setting	triclinic
loop_
_symmetry_equiv_pos_as_xyz
  x,y,z
_cell_length_a	18.6567
_cell_length_b	18.6567
_cell_length_c	38.6198
_cell_angle_alpha	90
_cell_angle_beta	90
_cell_angle_gamma	120
loop_
_atom_site_label
_atom_site_type_symbol
_atom_site_fract_x
_atom_site_fract_y
_atom_site_fract_z
_atom_site_charge
Mof_O 	O 	0.4815	0.37194	0.99683	-0.409
Mof_O 	O 	0.4421	0.4113	0.04405	-0.412
Mof_O 	O 	0.4495	0.3165	0.1456	-1.158
Mof_C 	C 	0.4534	0.361	0.02718	0.369
Mof_C 	C 	0.4321	0.28	0.04422	-0.079
Mof_C 	C 	0.4016	0.2648	0.07808	0.005
Mof_H 	H 	0.3907	0.3025	0.0892	0.06
Mof_C 	C 	0.4052	0.2531	0.1555	-0.257
Mof_C 	C 	0.387	0.2401	0.1906	0.082
Mof_H 	H 	0.4171	0.2838	0.207	0.237
Mof_C 	C 	0.497	0.3934	0.1691	0.493
Mof_H 	H 	0.5436	0.3934	0.1806	-0.069
Mof_H 	H 	0.4614	0.3969	0.1863	-0.132
Mof_H 	H 	0.4119	0.2883	0.1465	1.149
Mof_H 	H 	0.3859	0.2654	0.2061	-0.283
Mof_C 	C 	0.3742	0.2335	0.1548	-0.287
Mof_C 	C 	0.3108	0.1117	0.1436	0.074
Mof_O 	O 	0.14817	0.70527	0.33016	-0.409
Mof_O 	O 	0.10877	0.74463	0.37738	-0.412
Mof_O 	O 	0.11617	0.64983	0.47893	-1.158
Mof_C 	C 	0.12007	0.69433	0.36051	0.369
Mof_C 	C 	0.09877	0.61333	0.37755	-0.079
Mof_C 	C 	0.06827	0.59813	0.41141	0.004
Mof_H 	H 	0.05737	0.63583	0.42253	0.06
Mof_C 	C 	0.07187	0.58643	0.48883	-0.257
Mof_C 	C 	0.05367	0.57343	0.52393	0.083
Mof_H 	H 	0.08377	0.61713	0.54033	0.239
Mof_C 	C 	0.16367	0.72673	0.50243	0.494
Mof_H 	H 	0.21027	0.72673	0.51393	-0.068
Mof_H 	H 	0.12807	0.73023	0.51963	-0.131
Mof_H 	H 	0.07857	0.62163	0.47983	1.151
Mof_H 	H 	0.05257	0.59873	0.53943	-0.283
Mof_C 	C 	0.04087	0.56683	0.48813	-0.286
Mof_C 	C 	0.97747	0.44503	0.47693	0.076
Mof_O 	O 	0.81483	0.03861	0.6635	-0.408
Mof_O 	O 	0.77543	0.07797	0.71072	-0.411
Mof_O 	O 	0.78283	0.98317	0.81227	-1.155
Mof_C 	C 	0.78673	0.02767	0.69385	0.368
Mof_C 	C 	0.76543	0.94667	0.71089	-0.076
Mof_C 	C 	0.73493	0.93147	0.74475	0.004
Mof_H 	H 	0.72403	0.96917	0.75587	0.062
Mof_C 	C 	0.73853	0.91977	0.82217	-0.256
Mof_C 	C 	0.72033	0.90677	0.85727	0.084
Mof_H 	H 	0.75043	0.95047	0.87367	0.239
Mof_C 	C 	0.83033	0.06007	0.83577	0.492
Mof_H 	H 	0.87693	0.06007	0.84727	-0.068
Mof_H 	H 	0.79473	0.06357	0.85297	-0.131
Mof_H 	H 	0.74523	0.95497	0.81317	1.149
Mof_H 	H 	0.71923	0.93207	0.87277	-0.284
Mof_C 	C 	0.70753	0.90017	0.82147	-0.286
Mof_C 	C 	0.64413	0.77837	0.81027	0.075
Mof_O 	O 	0.62806	0.10956	0.99683	-0.408
Mof_O 	O 	0.5887	0.0308	0.04405	-0.41
Mof_O 	O 	0.6835	0.133	0.1456	-1.157
Mof_C 	C 	0.639	0.0924	0.02718	0.37
Mof_C 	C 	0.72	0.1521	0.04422	-0.078
Mof_C 	C 	0.7352	0.1368	0.07808	0.006
Mof_H 	H 	0.6975	0.0882	0.0892	0.061
Mof_C 	C 	0.7469	0.1521	0.1555	-0.257
Mof_C 	C 	0.7599	0.1469	0.1906	0.084
Mof_H 	H 	0.7162	0.1333	0.207	0.239
Mof_C 	C 	0.6066	0.1036	0.1691	0.493
Mof_H 	H 	0.6066	0.1502	0.1806	-0.067
Mof_H 	H 	0.6031	0.0645	0.1863	-0.13
Mof_H 	H 	0.7117	0.1236	0.1465	1.151
Mof_H 	H 	0.7346	0.1205	0.2061	-0.284
Mof_C 	C 	0.7665	0.1407	0.1548	-0.286
Mof_C 	C 	0.8883	0.1991	0.1436	0.075
Mof_O 	O 	0.29473	0.44289	0.33016	-0.408
Mof_O 	O 	0.25537	0.36413	0.37738	-0.41
Mof_O 	O 	0.35017	0.46633	0.47893	-1.158
Mof_C 	C 	0.30567	0.42573	0.36051	0.37
Mof_C 	C 	0.38667	0.48543	0.37755	-0.078
Mof_C 	C 	0.40187	0.47013	0.41141	0.005
Mof_H 	H 	0.36417	0.42153	0.42253	0.061
Mof_C 	C 	0.41357	0.48543	0.48883	-0.257
Mof_C 	C 	0.42657	0.48023	0.52393	0.083
Mof_H 	H 	0.38287	0.46663	0.54033	0.239
Mof_C 	C 	0.27327	0.43693	0.50243	0.494
Mof_H 	H 	0.27327	0.48353	0.51393	-0.068
Mof_H 	H 	0.26977	0.39783	0.51963	-0.131
Mof_H 	H 	0.37837	0.45693	0.47983	1.151
Mof_H 	H 	0.40127	0.45383	0.53943	-0.284
Mof_C 	C 	0.43317	0.47403	0.48813	-0.286
Mof_C 	C 	0.55497	0.53243	0.47693	0.076
Mof_O 	O 	0.96139	0.77623	0.6635	-0.408
Mof_O 	O 	0.92203	0.69747	0.71072	-0.41
Mof_O 	O 	0.01683	0.79967	0.81227	-1.154
Mof_C 	C 	0.97233	0.75907	0.69385	0.368
Mof_C 	C 	0.05333	0.81877	0.71089	-0.075
Mof_C 	C 	0.06853	0.80347	0.74475	0.004
Mof_H 	H 	0.03083	0.75487	0.75587	0.062
Mof_C 	C 	0.08023	0.81877	0.82217	-0.255
Mof_C 	C 	0.09323	0.81357	0.85727	0.083
Mof_H 	H 	0.04953	0.79997	0.87367	0.238
Mof_C 	C 	0.93993	0.77027	0.83577	0.491
Mof_H 	H 	0.93993	0.81687	0.84727	-0.067
Mof_H 	H 	0.93643	0.73117	0.85297	-0.13
Mof_H 	H 	0.04503	0.79027	0.81317	1.148
Mof_H 	H 	0.06793	0.78717	0.87277	-0.283
Mof_C 	C 	0.09983	0.80737	0.82147	-0.285
Mof_C 	C 	0.22163	0.86577	0.81027	0.075
Mof_O 	O 	0.89044	0.5185	0.99683	-0.408
Mof_O 	O 	0.9692	0.5579	0.04405	-0.41
Mof_O 	O 	0.867	0.5505	0.1456	-1.158
Mof_C 	C 	0.9076	0.5466	0.02718	0.37
Mof_C 	C 	0.8479	0.5679	0.04422	-0.078
Mof_C 	C 	0.8632	0.5984	0.07808	0.006
Mof_H 	H 	0.9118	0.6093	0.0892	0.061
Mof_C 	C 	0.8479	0.5948	0.1555	-0.257
Mof_C 	C 	0.8531	0.613	0.1906	0.085
Mof_H 	H 	0.8667	0.5829	0.207	0.239
Mof_C 	C 	0.8964	0.503	0.1691	0.493
Mof_H 	H 	0.8498	0.4564	0.1806	-0.068
Mof_H 	H 	0.9355	0.5386	0.1863	-0.13
Mof_H 	H 	0.8764	0.5881	0.1465	1.152
Mof_H 	H 	0.8795	0.6141	0.2061	-0.285
Mof_C 	C 	0.8593	0.6258	0.1548	-0.287
Mof_C 	C 	0.8009	0.6892	0.1436	0.075
Mof_O 	O 	0.55711	0.85183	0.33016	-0.408
Mof_O 	O 	0.63587	0.89123	0.37738	-0.411
Mof_O 	O 	0.53367	0.88383	0.47893	-1.157
Mof_C 	C 	0.57427	0.87993	0.36051	0.37
Mof_C 	C 	0.51457	0.90123	0.37755	-0.078
Mof_C 	C 	0.52987	0.93173	0.41141	0.005
Mof_H 	H 	0.57847	0.94263	0.42253	0.061
Mof_C 	C 	0.51457	0.92813	0.48883	-0.257
Mof_C 	C 	0.51977	0.94633	0.52393	0.083
Mof_H 	H 	0.53337	0.91623	0.54033	0.239
Mof_C 	C 	0.56307	0.83633	0.50243	0.494
Mof_H 	H 	0.51647	0.78973	0.51393	-0.068
Mof_H 	H 	0.60217	0.87193	0.51963	-0.131
Mof_H 	H 	0.54307	0.92143	0.47983	1.151
Mof_H 	H 	0.54617	0.94743	0.53943	-0.283
Mof_C 	C 	0.52597	0.95913	0.48813	-0.285
Mof_C 	C 	0.46757	0.02253	0.47693	0.075
Mof_O 	O 	0.22377	0.18517	0.6635	-0.408
Mof_O 	O 	0.30253	0.22457	0.71072	-0.41
Mof_O 	O 	0.20033	0.21717	0.81227	-1.157
Mof_C 	C 	0.24093	0.21327	0.69385	0.369
Mof_C 	C 	0.18123	0.23457	0.71089	-0.077
Mof_C 	C 	0.19653	0.26507	0.74475	0.005
Mof_H 	H 	0.24513	0.27597	0.75587	0.062
Mof_C 	C 	0.18123	0.26147	0.82217	-0.256
Mof_C 	C 	0.18643	0.27967	0.85727	0.082
Mof_H 	H 	0.20003	0.24957	0.87367	0.238
Mof_C 	C 	0.22973	0.16967	0.83577	0.494
Mof_H 	H 	0.18313	0.12307	0.84727	-0.068
Mof_H 	H 	0.26883	0.20527	0.85297	-0.131
Mof_H 	H 	0.20973	0.25477	0.81317	1.15
Mof_H 	H 	0.21283	0.28077	0.87277	-0.282
Mof_C 	C 	0.19263	0.29247	0.82147	-0.285
Mof_C 	C 	0.13423	0.35587	0.81027	0.076
Mof_O 	O 	0.37194	0.4815	0.00317	-0.408
Mof_O 	O 	0.4113	0.4421	0.95595	-0.411
Mof_O 	O 	0.3165	0.4495	0.8544	-1.157
Mof_C 	C 	0.361	0.4534	0.97282	0.37
Mof_C 	C 	0.28	0.4321	0.95578	-0.078
Mof_C 	C 	0.2648	0.4016	0.92192	0.006
Mof_H 	H 	0.3025	0.3907	0.9108	0.061
Mof_C 	C 	0.2531	0.4052	0.8445	-0.256
Mof_C 	C 	0.2401	0.387	0.8094	0.083
Mof_H 	H 	0.2838	0.4171	0.793	0.238
Mof_C 	C 	0.3934	0.497	0.8309	0.494
Mof_H 	H 	0.3934	0.5436	0.8194	-0.068
Mof_H 	H 	0.3969	0.4614	0.8137	-0.131
Mof_H 	H 	0.2883	0.4119	0.8535	1.15
Mof_H 	H 	0.2654	0.3859	0.7939	-0.282
Mof_C 	C 	0.2335	0.3742	0.8452	-0.286
Mof_C 	C 	0.1117	0.3108	0.8564	0.075
Mof_O 	O 	0.03861	0.81483	0.3365	-0.408
Mof_O 	O 	0.07797	0.77543	0.28928	-0.411
Mof_O 	O 	0.98317	0.78283	0.18773	-1.155
Mof_C 	C 	0.02767	0.78673	0.30615	0.368
Mof_C 	C 	0.94667	0.76543	0.28911	-0.076
Mof_C 	C 	0.93147	0.73493	0.25525	0.004
Mof_H 	H 	0.96917	0.72403	0.24413	0.062
Mof_C 	C 	0.91977	0.73853	0.17783	-0.256
Mof_C 	C 	0.90677	0.72033	0.14273	0.084
Mof_H 	H 	0.95047	0.75043	0.12633	0.239
Mof_C 	C 	0.06007	0.83033	0.16423	0.492
Mof_H 	H 	0.06007	0.87693	0.15273	-0.068
Mof_H 	H 	0.06357	0.79473	0.14703	-0.131
Mof_H 	H 	0.95497	0.74523	0.18683	1.149
Mof_H 	H 	0.93207	0.71923	0.12723	-0.284
Mof_C 	C 	0.90017	0.70753	0.17853	-0.286
Mof_C 	C 	0.77837	0.64413	0.18973	0.075
Mof_O 	O 	0.70527	0.14817	0.66984	-0.408
Mof_O 	O 	0.74463	0.10877	0.62262	-0.411
Mof_O 	O 	0.64983	0.11617	0.52107	-1.157
Mof_C 	C 	0.69433	0.12007	0.63949	0.37
Mof_C 	C 	0.61333	0.09877	0.62245	-0.078
Mof_C 	C 	0.59813	0.06827	0.58859	0.005
Mof_H 	H 	0.63583	0.05737	0.57747	0.061
Mof_C 	C 	0.58643	0.07187	0.51117	-0.257
Mof_C 	C 	0.57343	0.05367	0.47607	0.083
Mof_H 	H 	0.61713	0.08377	0.45967	0.239
Mof_C 	C 	0.72673	0.16367	0.49757	0.494
Mof_H 	H 	0.72673	0.21027	0.48607	-0.068
Mof_H 	H 	0.73023	0.12807	0.48037	-0.131
Mof_H 	H 	0.62163	0.07857	0.52017	1.151
Mof_H 	H 	0.59873	0.05257	0.46057	-0.283
Mof_C 	C 	0.56683	0.04087	0.51187	-0.286
Mof_C 	C 	0.44503	0.97747	0.52307	0.076
Mof_O 	O 	0.10956	0.62806	0.00317	-0.408
Mof_O 	O 	0.0308	0.5887	0.95595	-0.41
Mof_O 	O 	0.133	0.6835	0.8544	-1.157
Mof_C 	C 	0.0924	0.639	0.97282	0.37
Mof_C 	C 	0.1521	0.72	0.95578	-0.078
Mof_C 	C 	0.1368	0.7352	0.92192	0.006
Mof_H 	H 	0.0882	0.6975	0.9108	0.061
Mof_C 	C 	0.1521	0.7469	0.8445	-0.257
Mof_C 	C 	0.1469	0.7599	0.8094	0.084
Mof_H 	H 	0.1333	0.7162	0.793	0.239
Mof_C 	C 	0.1036	0.6066	0.8309	0.493
Mof_H 	H 	0.1502	0.6066	0.8194	-0.067
Mof_H 	H 	0.0645	0.6031	0.8137	-0.13
Mof_H 	H 	0.1236	0.7117	0.8535	1.151
Mof_H 	H 	0.1205	0.7346	0.7939	-0.284
Mof_C 	C 	0.1407	0.7665	0.8452	-0.286
Mof_C 	C 	0.1991	0.8883	0.8564	0.075
Mof_O 	O 	0.77623	0.96139	0.3365	-0.408
Mof_O 	O 	0.69747	0.92203	0.28928	-0.41
Mof_O 	O 	0.79967	0.01683	0.18773	-1.154
Mof_C 	C 	0.75907	0.97233	0.30615	0.368
Mof_C 	C 	0.81877	0.05333	0.28911	-0.075
Mof_C 	C 	0.80347	0.06853	0.25525	0.004
Mof_H 	H 	0.75487	0.03083	0.24413	0.062
Mof_C 	C 	0.81877	0.08023	0.17783	-0.255
Mof_C 	C 	0.81357	0.09323	0.14273	0.083
Mof_H 	H 	0.79997	0.04953	0.12633	0.238
Mof_C 	C 	0.77027	0.93993	0.16423	0.491
Mof_H 	H 	0.81687	0.93993	0.15273	-0.067
Mof_H 	H 	0.73117	0.93643	0.14703	-0.13
Mof_H 	H 	0.79027	0.04503	0.18683	1.148
Mof_H 	H 	0.78717	0.06793	0.12723	-0.283
Mof_C 	C 	0.80737	0.09983	0.17853	-0.285
Mof_C 	C 	0.86577	0.22163	0.18973	0.075
Mof_O 	O 	0.44289	0.29473	0.66984	-0.408
Mof_O 	O 	0.36413	0.25537	0.62262	-0.41
Mof_O 	O 	0.46633	0.35017	0.52107	-1.158
Mof_C 	C 	0.42573	0.30567	0.63949	0.37
Mof_C 	C 	0.48543	0.38667	0.62245	-0.078
Mof_C 	C 	0.47013	0.40187	0.58859	0.005
Mof_H 	H 	0.42153	0.36417	0.57747	0.061
Mof_C 	C 	0.48543	0.41357	0.51117	-0.257
Mof_C 	C 	0.48023	0.42657	0.47607	0.083
Mof_H 	H 	0.46663	0.38287	0.45967	0.239
Mof_C 	C 	0.43693	0.27327	0.49757	0.494
Mof_H 	H 	0.48353	0.27327	0.48607	-0.068
Mof_H 	H 	0.39783	0.26977	0.48037	-0.131
Mof_H 	H 	0.45693	0.37837	0.52017	1.151
Mof_H 	H 	0.45383	0.40127	0.46057	-0.284
Mof_C 	C 	0.47403	0.43317	0.51187	-0.286
Mof_C 	C 	0.53243	0.55497	0.52307	0.076
Mof_O 	O 	0.5185	0.89044	0.00317	-0.408
Mof_O 	O 	0.5579	0.9692	0.95595	-0.41
Mof_O 	O 	0.5505	0.867	0.8544	-1.158
Mof_C 	C 	0.5466	0.9076	0.97282	0.37
Mof_C 	C 	0.5679	0.8479	0.95578	-0.078
Mof_C 	C 	0.5984	0.8632	0.92192	0.006
Mof_H 	H 	0.6093	0.9118	0.9108	0.061
Mof_C 	C 	0.5948	0.8479	0.8445	-0.257
Mof_C 	C 	0.613	0.8531	0.8094	0.085
Mof_H 	H 	0.5829	0.8667	0.793	0.239
Mof_C 	C 	0.503	0.8964	0.8309	0.493
Mof_H 	H 	0.4564	0.8498	0.8194	-0.068
Mof_H 	H 	0.5386	0.9355	0.8137	-0.13
Mof_H 	H 	0.5881	0.8764	0.8535	1.152
Mof_H 	H 	0.6141	0.8795	0.7939	-0.285
Mof_C 	C 	0.6258	0.8593	0.8452	-0.287
Mof_C 	C 	0.6892	0.8009	0.8564	0.075
Mof_O 	O 	0.18517	0.22377	0.3365	-0.408
Mof_O 	O 	0.22457	0.30253	0.28928	-0.41
Mof_O 	O 	0.21717	0.20033	0.18773	-1.157
Mof_C 	C 	0.21327	0.24093	0.30615	0.369
Mof_C 	C 	0.23457	0.18123	0.28911	-0.077
Mof_C 	C 	0.26507	0.19653	0.25525	0.005
Mof_H 	H 	0.27597	0.24513	0.24413	0.062
Mof_C 	C 	0.26147	0.18123	0.17783	-0.256
Mof_C 	C 	0.27967	0.18643	0.14273	0.082
Mof_H 	H 	0.24957	0.20003	0.12633	0.238
Mof_C 	C 	0.16967	0.22973	0.16423	0.494
Mof_H 	H 	0.12307	0.18313	0.15273	-0.068
Mof_H 	H 	0.20527	0.26883	0.14703	-0.131
Mof_H 	H 	0.25477	0.20973	0.18683	1.15
Mof_H 	H 	0.28077	0.21283	0.12723	-0.282
Mof_C 	C 	0.29247	0.19263	0.17853	-0.285
Mof_C 	C 	0.35587	0.13423	0.18973	0.076
Mof_O 	O 	0.85183	0.55711	0.66984	-0.408
Mof_O 	O 	0.89123	0.63587	0.62262	-0.411
Mof_O 	O 	0.88383	0.53367	0.52107	-1.157
Mof_C 	C 	0.87993	0.57427	0.63949	0.37
Mof_C 	C 	0.90123	0.51457	0.62245	-0.078
Mof_C 	C 	0.93173	0.52987	0.58859	0.005
Mof_H 	H 	0.94263	0.57847	0.57747	0.061
Mof_C 	C 	0.92813	0.51457	0.51117	-0.257
Mof_C 	C 	0.94633	0.51977	0.47607	0.083
Mof_H 	H 	0.91623	0.53337	0.45967	0.239
Mof_C 	C 	0.83633	0.56307	0.49757	0.494
Mof_H 	H 	0.78973	0.51647	0.48607	-0.068
Mof_H 	H 	0.87193	0.60217	0.48037	-0.131
Mof_H 	H 	0.92143	0.54307	0.52017	1.151
Mof_H 	H 	0.94743	0.54617	0.46057	-0.283
Mof_C 	C 	0.95913	0.52597	0.51187	-0.285
Mof_C 	C 	0.02253	0.46757	0.52307	0.075
Mof_O 	O 	0.5185	0.62806	0.00317	-0.408
Mof_O 	O 	0.5579	0.5887	0.95595	-0.411
Mof_O 	O 	0.5505	0.6835	0.8544	-1.157
Mof_C 	C 	0.5466	0.639	0.97282	0.37
Mof_C 	C 	0.5679	0.72	0.95578	-0.078
Mof_C 	C 	0.5984	0.7352	0.92192	0.006
Mof_H 	H 	0.6093	0.6975	0.9108	0.061
Mof_C 	C 	0.5948	0.7469	0.8445	-0.256
Mof_C 	C 	0.613	0.7599	0.8094	0.083
Mof_H 	H 	0.5829	0.7162	0.793	0.238
Mof_C 	C 	0.503	0.6066	0.8309	0.494
Mof_H 	H 	0.4564	0.6066	0.8194	-0.068
Mof_H 	H 	0.5386	0.6031	0.8137	-0.131
Mof_H 	H 	0.5881	0.7117	0.8535	1.15
Mof_H 	H 	0.6141	0.7346	0.7939	-0.282
Mof_C 	C 	0.6258	0.7665	0.8452	-0.286
Mof_C 	C 	0.6892	0.8883	0.8564	0.075
Mof_O 	O 	0.18517	0.96139	0.3365	-0.408
Mof_O 	O 	0.22457	0.92203	0.28928	-0.411
Mof_O 	O 	0.21717	0.01683	0.18773	-1.155
Mof_C 	C 	0.21327	0.97233	0.30615	0.368
Mof_C 	C 	0.23457	0.05333	0.28911	-0.076
Mof_C 	C 	0.26507	0.06853	0.25525	0.004
Mof_H 	H 	0.27597	0.03083	0.24413	0.062
Mof_C 	C 	0.26147	0.08023	0.17783	-0.256
Mof_C 	C 	0.27967	0.09323	0.14273	0.084
Mof_H 	H 	0.24957	0.04953	0.12633	0.239
Mof_C 	C 	0.16967	0.93993	0.16423	0.492
Mof_H 	H 	0.12307	0.93993	0.15273	-0.068
Mof_H 	H 	0.20527	0.93643	0.14703	-0.131
Mof_H 	H 	0.25477	0.04503	0.18683	1.149
Mof_H 	H 	0.28077	0.06793	0.12723	-0.284
Mof_C 	C 	0.29247	0.09983	0.17853	-0.286
Mof_C 	C 	0.35587	0.22163	0.18973	0.075
Mof_O 	O 	0.85183	0.29473	0.66984	-0.408
Mof_O 	O 	0.89123	0.25537	0.62262	-0.411
Mof_O 	O 	0.88383	0.35017	0.52107	-1.157
Mof_C 	C 	0.87993	0.30567	0.63949	0.37
Mof_C 	C 	0.90123	0.38667	0.62245	-0.078
Mof_C 	C 	0.93173	0.40187	0.58859	0.005
Mof_H 	H 	0.94263	0.36417	0.57747	0.061
Mof_C 	C 	0.92813	0.41357	0.51117	-0.257
Mof_C 	C 	0.94633	0.42657	0.47607	0.083
Mof_H 	H 	0.91623	0.38287	0.45967	0.239
Mof_C 	C 	0.83633	0.27327	0.49757	0.494
Mof_H 	H 	0.78973	0.27327	0.48607	-0.068
Mof_H 	H 	0.87193	0.26977	0.48037	-0.131
Mof_H 	H 	0.92143	0.37837	0.52017	1.151
Mof_H 	H 	0.94743	0.40127	0.46057	-0.283
Mof_C 	C 	0.95913	0.43317	0.51187	-0.286
Mof_C 	C 	0.02253	0.55497	0.52307	0.076
Mof_O 	O 	0.37194	0.89044	0.00317	-0.408
Mof_O 	O 	0.4113	0.9692	0.95595	-0.41
Mof_O 	O 	0.3165	0.867	0.8544	-1.157
Mof_C 	C 	0.361	0.9076	0.97282	0.37
Mof_C 	C 	0.28	0.8479	0.95578	-0.078
Mof_C 	C 	0.2648	0.8632	0.92192	0.006
Mof_H 	H 	0.3025	0.9118	0.9108	0.061
Mof_C 	C 	0.2531	0.8479	0.8445	-0.257
Mof_C 	C 	0.2401	0.8531	0.8094	0.084
Mof_H 	H 	0.2838	0.8667	0.793	0.239
Mof_C 	C 	0.3934	0.8964	0.8309	0.493
Mof_H 	H 	0.3934	0.8498	0.8194	-0.067
Mof_H 	H 	0.3969	0.9355	0.8137	-0.13
Mof_H 	H 	0.2883	0.8764	0.8535	1.151
Mof_H 	H 	0.2654	0.8795	0.7939	-0.284
Mof_C 	C 	0.2335	0.8593	0.8452	-0.286
Mof_C 	C 	0.1117	0.8009	0.8564	0.075
Mof_O 	O 	0.03861	0.22377	0.3365	-0.408
Mof_O 	O 	0.07797	0.30253	0.28928	-0.41
Mof_O 	O 	0.98317	0.20033	0.18773	-1.154
Mof_C 	C 	0.02767	0.24093	0.30615	0.368
Mof_C 	C 	0.94667	0.18123	0.28911	-0.075
Mof_C 	C 	0.93147	0.19653	0.25525	0.004
Mof_H 	H 	0.96917	0.24513	0.24413	0.062
Mof_C 	C 	0.91977	0.18123	0.17783	-0.255
Mof_C 	C 	0.90677	0.18643	0.14273	0.083
Mof_H 	H 	0.95047	0.20003	0.12633	0.238
Mof_C 	C 	0.06007	0.22973	0.16423	0.491
Mof_H 	H 	0.06007	0.18313	0.15273	-0.067
Mof_H 	H 	0.06357	0.26883	0.14703	-0.13
Mof_H 	H 	0.95497	0.20973	0.18683	1.148
Mof_H 	H 	0.93207	0.21283	0.12723	-0.283
Mof_C 	C 	0.90017	0.19263	0.17853	-0.285
Mof_C 	C 	0.77837	0.13423	0.18973	0.075
Mof_O 	O 	0.70527	0.55711	0.66984	-0.408
Mof_O 	O 	0.74463	0.63587	0.62262	-0.41
Mof_O 	O 	0.64983	0.53367	0.52107	-1.158
Mof_C 	C 	0.69433	0.57427	0.63949	0.37
Mof_C 	C 	0.61333	0.51457	0.62245	-0.078
Mof_C 	C 	0.59813	0.52987	0.58859	0.005
Mof_H 	H 	0.63583	0.57847	0.57747	0.061
Mof_C 	C 	0.58643	0.51457	0.51117	-0.257
Mof_C 	C 	0.57343	0.51977	0.47607	0.083
Mof_H 	H 	0.61713	0.53337	0.45967	0.239
Mof_C 	C 	0.72673	0.56307	0.49757	0.494
Mof_H 	H 	0.72673	0.51647	0.48607	-0.068
Mof_H 	H 	0.73023	0.60217	0.48037	-0.131
Mof_H 	H 	0.62163	0.54307	0.52017	1.151
Mof_H 	H 	0.59873	0.54617	0.46057	-0.284
Mof_C 	C 	0.56683	0.52597	0.51187	-0.286
Mof_C 	C 	0.44503	0.46757	0.52307	0.076
Mof_O 	O 	0.10956	0.4815	0.00317	-0.408
Mof_O 	O 	0.0308	0.4421	0.95595	-0.41
Mof_O 	O 	0.133	0.4495	0.8544	-1.158
Mof_C 	C 	0.0924	0.4534	0.97282	0.37
Mof_C 	C 	0.1521	0.4321	0.95578	-0.078
Mof_C 	C 	0.1368	0.4016	0.92192	0.006
Mof_H 	H 	0.0882	0.3907	0.9108	0.061
Mof_C 	C 	0.1521	0.4052	0.8445	-0.257
Mof_C 	C 	0.1469	0.387	0.8094	0.085
Mof_H 	H 	0.1333	0.4171	0.793	0.239
Mof_C 	C 	0.1036	0.497	0.8309	0.493
Mof_H 	H 	0.1502	0.5436	0.8194	-0.068
Mof_H 	H 	0.0645	0.4614	0.8137	-0.13
Mof_H 	H 	0.1236	0.4119	0.8535	1.152
Mof_H 	H 	0.1205	0.3859	0.7939	-0.285
Mof_C 	C 	0.1407	0.3742	0.8452	-0.287
Mof_C 	C 	0.1991	0.3108	0.8564	0.075
Mof_O 	O 	0.77623	0.81483	0.3365	-0.408
Mof_O 	O 	0.69747	0.77543	0.28928	-0.41
Mof_O 	O 	0.79967	0.78283	0.18773	-1.157
Mof_C 	C 	0.75907	0.78673	0.30615	0.369
Mof_C 	C 	0.81877	0.76543	0.28911	-0.077
Mof_C 	C 	0.80347	0.73493	0.25525	0.005
Mof_H 	H 	0.75487	0.72403	0.24413	0.062
Mof_C 	C 	0.81877	0.73853	0.17783	-0.256
Mof_C 	C 	0.81357	0.72033	0.14273	0.082
Mof_H 	H 	0.79997	0.75043	0.12633	0.238
Mof_C 	C 	0.77027	0.83033	0.16423	0.494
Mof_H 	H 	0.81687	0.87693	0.15273	-0.068
Mof_H 	H 	0.73117	0.79473	0.14703	-0.131
Mof_H 	H 	0.79027	0.74523	0.18683	1.15
Mof_H 	H 	0.78717	0.71923	0.12723	-0.282
Mof_C 	C 	0.80737	0.70753	0.17853	-0.285
Mof_C 	C 	0.86577	0.64413	0.18973	0.076
Mof_O 	O 	0.44289	0.14817	0.66984	-0.408
Mof_O 	O 	0.36413	0.10877	0.62262	-0.411
Mof_O 	O 	0.46633	0.11617	0.52107	-1.157
Mof_C 	C 	0.42573	0.12007	0.63949	0.37
Mof_C 	C 	0.48543	0.09877	0.62245	-0.078
Mof_C 	C 	0.47013	0.06827	0.58859	0.005
Mof_H 	H 	0.42153	0.05737	0.57747	0.061
Mof_C 	C 	0.48543	0.07187	0.51117	-0.257
Mof_C 	C 	0.48023	0.05367	0.47607	0.083
Mof_H 	H 	0.46663	0.08377	0.45967	0.239
Mof_C 	C 	0.43693	0.16367	0.49757	0.494
Mof_H 	H 	0.48353	0.21027	0.48607	-0.068
Mof_H 	H 	0.39783	0.12807	0.48037	-0.131
Mof_H 	H 	0.45693	0.07857	0.52017	1.151
Mof_H 	H 	0.45383	0.05257	0.46057	-0.283
Mof_C 	C 	0.47403	0.04087	0.51187	-0.285
Mof_C 	C 	0.53243	0.97747	0.52307	0.075
Mof_O 	O 	0.62806	0.5185	0.99683	-0.408
Mof_O 	O 	0.5887	0.5579	0.04405	-0.411
Mof_O 	O 	0.6835	0.5505	0.1456	-1.157
Mof_C 	C 	0.639	0.5466	0.02718	0.37
Mof_C 	C 	0.72	0.5679	0.04422	-0.078
Mof_C 	C 	0.7352	0.5984	0.07808	0.006
Mof_H 	H 	0.6975	0.6093	0.0892	0.061
Mof_C 	C 	0.7469	0.5948	0.1555	-0.256
Mof_C 	C 	0.7599	0.613	0.1906	0.083
Mof_H 	H 	0.7162	0.5829	0.207	0.238
Mof_C 	C 	0.6066	0.503	0.1691	0.494
Mof_H 	H 	0.6066	0.4564	0.1806	-0.068
Mof_H 	H 	0.6031	0.5386	0.1863	-0.131
Mof_H 	H 	0.7117	0.5881	0.1465	1.15
Mof_H 	H 	0.7346	0.6141	0.2061	-0.282
Mof_C 	C 	0.7665	0.6258	0.1548	-0.286
Mof_C 	C 	0.8883	0.6892	0.1436	0.075
Mof_O 	O 	0.29473	0.85183	0.33016	-0.408
Mof_O 	O 	0.25537	0.89123	0.37738	-0.411
Mof_O 	O 	0.35017	0.88383	0.47893	-1.157
Mof_C 	C 	0.30567	0.87993	0.36051	0.37
Mof_C 	C 	0.38667	0.90123	0.37755	-0.078
Mof_C 	C 	0.40187	0.93173	0.41141	0.005
Mof_H 	H 	0.36417	0.94263	0.42253	0.061
Mof_C 	C 	0.41357	0.92813	0.48883	-0.257
Mof_C 	C 	0.42657	0.94633	0.52393	0.083
Mof_H 	H 	0.38287	0.91623	0.54033	0.239
Mof_C 	C 	0.27327	0.83633	0.50243	0.494
Mof_H 	H 	0.27327	0.78973	0.51393	-0.068
Mof_H 	H 	0.26977	0.87193	0.51963	-0.131
Mof_H 	H 	0.37837	0.92143	0.47983	1.151
Mof_H 	H 	0.40127	0.94743	0.53943	-0.283
Mof_C 	C 	0.43317	0.95913	0.48813	-0.286
Mof_C 	C 	0.55497	0.02253	0.47693	0.076
Mof_O 	O 	0.96139	0.18517	0.6635	-0.408
Mof_O 	O 	0.92203	0.22457	0.71072	-0.411
Mof_O 	O 	0.01683	0.21717	0.81227	-1.155
Mof_C 	C 	0.97233	0.21327	0.69385	0.368
Mof_C 	C 	0.05333	0.23457	0.71089	-0.076
Mof_C 	C 	0.06853	0.26507	0.74475	0.004
Mof_H 	H 	0.03083	0.27597	0.75587	0.062
Mof_C 	C 	0.08023	0.26147	0.82217	-0.256
Mof_C 	C 	0.09323	0.27967	0.85727	0.084
Mof_H 	H 	0.04953	0.24957	0.87367	0.239
Mof_C 	C 	0.93993	0.16967	0.83577	0.492
Mof_H 	H 	0.93993	0.12307	0.84727	-0.068
Mof_H 	H 	0.93643	0.20527	0.85297	-0.131
Mof_H 	H 	0.04503	0.25477	0.81317	1.149
Mof_H 	H 	0.06793	0.28077	0.87277	-0.284
Mof_C 	C 	0.09983	0.29247	0.82147	-0.286
Mof_C 	C 	0.22163	0.35587	0.81027	0.075
Mof_O 	O 	0.89044	0.37194	0.99683	-0.408
Mof_O 	O 	0.9692	0.4113	0.04405	-0.41
Mof_O 	O 	0.867	0.3165	0.1456	-1.157
Mof_C 	C 	0.9076	0.361	0.02718	0.37
Mof_C 	C 	0.8479	0.28	0.04422	-0.078
Mof_C 	C 	0.8632	0.2648	0.07808	0.006
Mof_H 	H 	0.9118	0.3025	0.0892	0.061
Mof_C 	C 	0.8479	0.2531	0.1555	-0.257
Mof_C 	C 	0.8531	0.2401	0.1906	0.084
Mof_H 	H 	0.8667	0.2838	0.207	0.239
Mof_C 	C 	0.8964	0.3934	0.1691	0.493
Mof_H 	H 	0.8498	0.3934	0.1806	-0.067
Mof_H 	H 	0.9355	0.3969	0.1863	-0.13
Mof_H 	H 	0.8764	0.2883	0.1465	1.151
Mof_H 	H 	0.8795	0.2654	0.2061	-0.284
Mof_C 	C 	0.8593	0.2335	0.1548	-0.286
Mof_C 	C 	0.8009	0.1117	0.1436	0.075
Mof_O 	O 	0.55711	0.70527	0.33016	-0.408
Mof_O 	O 	0.63587	0.74463	0.37738	-0.41
Mof_O 	O 	0.53367	0.64983	0.47893	-1.158
Mof_C 	C 	0.57427	0.69433	0.36051	0.37
Mof_C 	C 	0.51457	0.61333	0.37755	-0.078
Mof_C 	C 	0.52987	0.59813	0.41141	0.005
Mof_H 	H 	0.57847	0.63583	0.42253	0.061
Mof_C 	C 	0.51457	0.58643	0.48883	-0.257
Mof_C 	C 	0.51977	0.57343	0.52393	0.083
Mof_H 	H 	0.53337	0.61713	0.54033	0.239
Mof_C 	C 	0.56307	0.72673	0.50243	0.494
Mof_H 	H 	0.51647	0.72673	0.51393	-0.068
Mof_H 	H 	0.60217	0.73023	0.51963	-0.131
Mof_H 	H 	0.54307	0.62163	0.47983	1.151
Mof_H 	H 	0.54617	0.59873	0.53943	-0.284
Mof_C 	C 	0.52597	0.56683	0.48813	-0.286
Mof_C 	C 	0.46757	0.44503	0.47693	0.076
Mof_O 	O 	0.22377	0.03861	0.6635	-0.408
Mof_O 	O 	0.30253	0.07797	0.71072	-0.41
Mof_O 	O 	0.20033	0.98317	0.81227	-1.154
Mof_C 	C 	0.24093	0.02767	0.69385	0.368
Mof_C 	C 	0.18123	0.94667	0.71089	-0.075
Mof_C 	C 	0.19653	0.93147	0.74475	0.004
Mof_H 	H 	0.24513	0.96917	0.75587	0.062
Mof_C 	C 	0.18123	0.91977	0.82217	-0.255
Mof_C 	C 	0.18643	0.90677	0.85727	0.083
Mof_H 	H 	0.20003	0.95047	0.87367	0.238
Mof_C 	C 	0.22973	0.06007	0.83577	0.491
Mof_H 	H 	0.18313	0.06007	0.84727	-0.067
Mof_H 	H 	0.26883	0.06357	0.85297	-0.13
Mof_H 	H 	0.20973	0.95497	0.81317	1.148
Mof_H 	H 	0.21283	0.93207	0.87277	-0.283
Mof_C 	C 	0.19263	0.90017	0.82147	-0.285
Mof_C 	C 	0.13423	0.77837	0.81027	0.075
Mof_O 	O 	0.4815	0.10956	0.99683	-0.408
Mof_O 	O 	0.4421	0.0308	0.04405	-0.41
Mof_O 	O 	0.4495	0.133	0.1456	-1.158
Mof_C 	C 	0.4534	0.0924	0.02718	0.37
Mof_C 	C 	0.4321	0.1521	0.04422	-0.078
Mof_C 	C 	0.4016	0.1368	0.07808	0.006
Mof_H 	H 	0.3907	0.0882	0.0892	0.061
Mof_C 	C 	0.4052	0.1521	0.1555	-0.257
Mof_C 	C 	0.387	0.1469	0.1906	0.085
Mof_H 	H 	0.4171	0.1333	0.207	0.239
Mof_C 	C 	0.497	0.1036	0.1691	0.493
Mof_H 	H 	0.5436	0.1502	0.1806	-0.068
Mof_H 	H 	0.4614	0.0645	0.1863	-0.13
Mof_H 	H 	0.4119	0.1236	0.1465	1.152
Mof_H 	H 	0.3859	0.1205	0.2061	-0.285
Mof_C 	C 	0.3742	0.1407	0.1548	-0.287
Mof_C 	C 	0.3108	0.1991	0.1436	0.075
Mof_O 	O 	0.14817	0.44289	0.33016	-0.408
Mof_O 	O 	0.10877	0.36413	0.37738	-0.411
Mof_O 	O 	0.11617	0.46633	0.47893	-1.157
Mof_C 	C 	0.12007	0.42573	0.36051	0.37
Mof_C 	C 	0.09877	0.48543	0.37755	-0.078
Mof_C 	C 	0.06827	0.47013	0.41141	0.005
Mof_H 	H 	0.05737	0.42153	0.42253	0.061
Mof_C 	C 	0.07187	0.48543	0.48883	-0.257
Mof_C 	C 	0.05367	0.48023	0.52393	0.083
Mof_H 	H 	0.08377	0.46663	0.54033	0.239
Mof_C 	C 	0.16367	0.43693	0.50243	0.494
Mof_H 	H 	0.21027	0.48353	0.51393	-0.068
Mof_H 	H 	0.12807	0.39783	0.51963	-0.131
Mof_H 	H 	0.07857	0.45693	0.47983	1.151
Mof_H 	H 	0.05257	0.45383	0.53943	-0.283
Mof_C 	C 	0.04087	0.47403	0.48813	-0.285
Mof_C 	C 	0.97747	0.53243	0.47693	0.075
Mof_O 	O 	0.81483	0.77623	0.6635	-0.408
Mof_O 	O 	0.77543	0.69747	0.71072	-0.41
Mof_O 	O 	0.78283	0.79967	0.81227	-1.157
Mof_C 	C 	0.78673	0.75907	0.69385	0.369
Mof_C 	C 	0.76543	0.81877	0.71089	-0.077
Mof_C 	C 	0.73493	0.80347	0.74475	0.005
Mof_H 	H 	0.72403	0.75487	0.75587	0.062
Mof_C 	C 	0.73853	0.81877	0.82217	-0.256
Mof_C 	C 	0.72033	0.81357	0.85727	0.082
Mof_H 	H 	0.75043	0.79997	0.87367	0.238
Mof_C 	C 	0.83033	0.77027	0.83577	0.494
Mof_H 	H 	0.87693	0.81687	0.84727	-0.068
Mof_H 	H 	0.79473	0.73117	0.85297	-0.131
Mof_H 	H 	0.74523	0.79027	0.81317	1.15
Mof_H 	H 	0.71923	0.78717	0.87277	-0.282
Mof_C 	C 	0.70753	0.80737	0.82147	-0.285
Mof_C 	C 	0.64413	0.86577	0.81027	0.076
Mof_Cu	Cu	0.52323	0.47677	0.97237	0.905
Mof_C 	C 	0.5297	0.4703	0.14	-0.453
Mof_H 	H 	0.5418	0.4582	0.117	0.253
Mof_H 	H 	0.4996	0.5004	0.1396	0.177
Mof_Cu	Cu	0.1899	0.8101	0.30571	0.905
Mof_C 	C 	0.19637	0.80363	0.47333	-0.453
Mof_H 	H 	0.20847	0.79153	0.45033	0.253
Mof_H 	H 	0.16627	0.83373	0.47293	0.177
Mof_Cu	Cu	0.85657	0.14343	0.63904	0.905
Mof_C 	C 	0.86303	0.13697	0.80667	-0.452
Mof_H 	H 	0.87513	0.12487	0.78367	0.252
Mof_H 	H 	0.83293	0.16707	0.80627	0.176
Mof_Cu	Cu	0.52323	0.04646	0.97237	0.905
Mof_C 	C 	0.5297	0.0594	0.14	-0.45
Mof_H 	H 	0.5418	0.0836	0.117	0.252
Mof_H 	H 	0.4996	0.9992	0.1396	0.175
Mof_Cu	Cu	0.1899	0.3798	0.30571	0.905
Mof_C 	C 	0.19637	0.39273	0.47333	-0.453
Mof_H 	H 	0.20847	0.41693	0.45033	0.253
Mof_H 	H 	0.16627	0.33253	0.47293	0.177
Mof_Cu	Cu	0.85657	0.71313	0.63904	0.905
Mof_C 	C 	0.86303	0.72607	0.80667	-0.452
Mof_H 	H 	0.87513	0.75027	0.78367	0.253
Mof_H 	H 	0.83293	0.66587	0.80627	0.177
Mof_Cu	Cu	0.95354	0.47677	0.97237	0.905
Mof_C 	C 	0.9406	0.4703	0.14	-0.45
Mof_H 	H 	0.9164	0.4582	0.117	0.252
Mof_H 	H 	0.0008	0.5004	0.1396	0.175
Mof_Cu	Cu	0.6202	0.8101	0.30571	0.905
Mof_C 	C 	0.60727	0.80363	0.47333	-0.453
Mof_H 	H 	0.58307	0.79153	0.45033	0.253
Mof_H 	H 	0.66747	0.83373	0.47293	0.177
Mof_Cu	Cu	0.28687	0.14343	0.63904	0.905
Mof_C 	C 	0.27393	0.13697	0.80667	-0.452
Mof_H 	H 	0.24973	0.12487	0.78367	0.253
Mof_H 	H 	0.33413	0.16707	0.80627	0.177
Mof_Cu	Cu	0.47677	0.52323	0.02762	0.905
Mof_C 	C 	0.4703	0.5297	0.86	-0.453
Mof_H 	H 	0.4582	0.5418	0.883	0.253
Mof_H 	H 	0.5004	0.4996	0.8604	0.177
Mof_Cu	Cu	0.14343	0.85657	0.36096	0.905
Mof_C 	C 	0.13697	0.86303	0.19333	-0.452
Mof_H 	H 	0.12487	0.87513	0.21633	0.252
Mof_H 	H 	0.16707	0.83293	0.19373	0.176
Mof_Cu	Cu	0.8101	0.1899	0.69429	0.905
Mof_C 	C 	0.80363	0.19637	0.52667	-0.453
Mof_H 	H 	0.79153	0.20847	0.54967	0.253
Mof_H 	H 	0.83373	0.16627	0.52707	0.177
Mof_Cu	Cu	0.04646	0.52323	0.02762	0.905
Mof_C 	C 	0.0594	0.5297	0.86	-0.45
Mof_H 	H 	0.0836	0.5418	0.883	0.252
Mof_H 	H 	0.9992	0.4996	0.8604	0.175
Mof_Cu	Cu	0.71313	0.85657	0.36096	0.905
Mof_C 	C 	0.72607	0.86303	0.19333	-0.452
Mof_H 	H 	0.75027	0.87513	0.21633	0.253
Mof_H 	H 	0.66587	0.83293	0.19373	0.177
Mof_Cu	Cu	0.3798	0.1899	0.69429	0.905
Mof_C 	C 	0.39273	0.19637	0.52667	-0.453
Mof_H 	H 	0.41693	0.20847	0.54967	0.253
Mof_H 	H 	0.33253	0.16627	0.52707	0.177
Mof_Cu	Cu	0.47677	0.95354	0.02762	0.905
Mof_C 	C 	0.4703	0.9406	0.86	-0.45
Mof_H 	H 	0.4582	0.9164	0.883	0.252
Mof_H 	H 	0.5004	0.0008	0.8604	0.175
Mof_Cu	Cu	0.14343	0.28687	0.36096	0.905
Mof_C 	C 	0.13697	0.27393	0.19333	-0.452
Mof_H 	H 	0.12487	0.24973	0.21633	0.253
Mof_H 	H 	0.16707	0.33413	0.19373	0.177
Mof_Cu	Cu	0.8101	0.6202	0.69429	0.905
Mof_C 	C 	0.80363	0.60727	0.52667	-0.453
Mof_H 	H 	0.79153	0.58307	0.54967	0.253
Mof_H 	H 	0.83373	0.66747	0.52707	0.177
Mof_C 	C 	0.4469	0.22345	0.02739	0.037
Mof_H 	H 	0.4667	0.23335	0.0048	0.051
Mof_C 	C 	0.3877	0.19385	0.09512	0.01
Mof_C 	C 	0.3738	0.1869	0.1328	-0.347
Mof_C 	C 	0.3261	0.16305	0.2018	0.568
Mof_C 	C 	0.11357	0.55678	0.36072	0.036
Mof_H 	H 	0.13337	0.56668	0.33813	0.051
Mof_C 	C 	0.05437	0.52718	0.42845	0.01
Mof_C 	C 	0.04047	0.52023	0.46613	-0.348
Mof_C 	C 	0.99277	0.49638	0.53513	0.569
Mof_C 	C 	0.78023	0.89012	0.69406	0.035
Mof_H 	H 	0.80003	0.90002	0.67147	0.052
Mof_C 	C 	0.72103	0.86052	0.76179	0.011
Mof_C 	C 	0.70713	0.85357	0.79947	-0.348
Mof_C 	C 	0.65943	0.82972	0.86847	0.569
Mof_C 	C 	0.77655	0.22345	0.02739	0.037
Mof_H 	H 	0.76665	0.23335	0.0048	0.051
Mof_C 	C 	0.80615	0.19385	0.09512	0.01
Mof_C 	C 	0.8131	0.1869	0.1328	-0.347
Mof_C 	C 	0.83695	0.16305	0.2018	0.567
Mof_C 	C 	0.44322	0.55678	0.36072	0.036
Mof_H 	H 	0.43332	0.56668	0.33813	0.051
Mof_C 	C 	0.47282	0.52718	0.42845	0.01
Mof_C 	C 	0.47977	0.52023	0.46613	-0.348
Mof_C 	C 	0.50362	0.49638	0.53513	0.569
Mof_C 	C 	0.10988	0.89012	0.69406	0.034
Mof_H 	H 	0.09998	0.90002	0.67147	0.052
Mof_C 	C 	0.13948	0.86052	0.76179	0.012
Mof_C 	C 	0.14643	0.85357	0.79947	-0.348
Mof_C 	C 	0.17028	0.82972	0.86847	0.569
Mof_C 	C 	0.77655	0.5531	0.02739	0.037
Mof_H 	H 	0.76665	0.5333	0.0048	0.051
Mof_C 	C 	0.80615	0.6123	0.09512	0.01
Mof_C 	C 	0.8131	0.6262	0.1328	-0.347
Mof_C 	C 	0.83695	0.6739	0.2018	0.568
Mof_C 	C 	0.44322	0.88643	0.36072	0.036
Mof_H 	H 	0.43332	0.86663	0.33813	0.051
Mof_C 	C 	0.47282	0.94563	0.42845	0.01
Mof_C 	C 	0.47977	0.95953	0.46613	-0.348
Mof_C 	C 	0.50362	0.00723	0.53513	0.569
Mof_C 	C 	0.10988	0.21977	0.69406	0.035
Mof_H 	H 	0.09998	0.19997	0.67147	0.052
Mof_C 	C 	0.13948	0.27897	0.76179	0.011
Mof_C 	C 	0.14643	0.29287	0.79947	-0.348
Mof_C 	C 	0.17028	0.34057	0.86847	0.569
Mof_C 	C 	0.22345	0.4469	0.97261	0.037
Mof_H 	H 	0.23335	0.4667	0.9952	0.051
Mof_C 	C 	0.19385	0.3877	0.90488	0.01
Mof_C 	C 	0.1869	0.3738	0.8672	-0.347
Mof_C 	C 	0.16305	0.3261	0.7982	0.568
Mof_C 	C 	0.89012	0.78023	0.30594	0.035
Mof_H 	H 	0.90002	0.80003	0.32853	0.052
Mof_C 	C 	0.86052	0.72103	0.23821	0.011
Mof_C 	C 	0.85357	0.70713	0.20053	-0.348
Mof_C 	C 	0.82972	0.65943	0.13153	0.569
Mof_C 	C 	0.55678	0.11357	0.63928	0.036
Mof_H 	H 	0.56668	0.13337	0.66187	0.051
Mof_C 	C 	0.52718	0.05437	0.57155	0.01
Mof_C 	C 	0.52023	0.04047	0.53387	-0.348
Mof_C 	C 	0.49638	0.99277	0.46487	0.569
Mof_C 	C 	0.22345	0.77655	0.97261	0.037
Mof_H 	H 	0.23335	0.76665	0.9952	0.051
Mof_C 	C 	0.19385	0.80615	0.90488	0.01
Mof_C 	C 	0.1869	0.8131	0.8672	-0.347
Mof_C 	C 	0.16305	0.83695	0.7982	0.567
Mof_C 	C 	0.89012	0.10988	0.30594	0.034
Mof_H 	H 	0.90002	0.09998	0.32853	0.052
Mof_C 	C 	0.86052	0.13948	0.23821	0.012
Mof_C 	C 	0.85357	0.14643	0.20053	-0.348
Mof_C 	C 	0.82972	0.17028	0.13153	0.569
Mof_C 	C 	0.55678	0.44322	0.63928	0.036
Mof_H 	H 	0.56668	0.43332	0.66187	0.051
Mof_C 	C 	0.52718	0.47282	0.57155	0.01
Mof_C 	C 	0.52023	0.47977	0.53387	-0.348
Mof_C 	C 	0.49638	0.50362	0.46487	0.569
Mof_C 	C 	0.5531	0.77655	0.97261	0.037
Mof_H 	H 	0.5333	0.76665	0.9952	0.051
Mof_C 	C 	0.6123	0.80615	0.90488	0.01
Mof_C 	C 	0.6262	0.8131	0.8672	-0.347
Mof_C 	C 	0.6739	0.83695	0.7982	0.568
Mof_C 	C 	0.21977	0.10988	0.30594	0.035
Mof_H 	H 	0.19997	0.09998	0.32853	0.052
Mof_C 	C 	0.27897	0.13948	0.23821	0.011
Mof_C 	C 	0.29287	0.14643	0.20053	-0.348
Mof_C 	C 	0.34057	0.17028	0.13153	0.569
Mof_C 	C 	0.88643	0.44322	0.63928	0.036
Mof_H 	H 	0.86663	0.43332	0.66187	0.051
Mof_C 	C 	0.94563	0.47282	0.57155	0.01
Mof_C 	C 	0.95953	0.47977	0.53387	-0.348
Mof_C 	C 	0.00723	0.50362	0.46487	0.569
_end
