data_functionalizedCrystal
_audit_creation_method	'EQeq! by Chris Wilmer'
_symmetry_space_group_name_H-M	'P1'
_symmetry_Int_Tables_number	1
_symmetry_cell_setting	triclinic
loop_
_symmetry_equiv_pos_as_xyz
  x,y,z
_cell_length_a	12.3202
_cell_length_b	12.6137
_cell_length_c	12.6137
_cell_angle_alpha	76.202
_cell_angle_beta	60.7669
_cell_angle_gamma	60.7669
loop_
_atom_site_label
_atom_site_type_symbol
_atom_site_fract_x
_atom_site_fract_y
_atom_site_fract_z
_atom_site_charge
Mof_In	In	0.31204	0.37593	-0	2.471
Mof_In	In	0.68796	0.62407	-0	2.426
Mof_In	In	0.56203	0.5	0.87594	3.559
Mof_In	In	0.93797	0.5	0.12406	2.524
Mof_H 	H 	0.2711	0.4462	0.6742	0.014
Mof_H 	H 	0.3915	0.5538	0.3258	-0.018
Mof_H 	H 	0.1953	0.8258	0.9462	0.01
Mof_H 	H 	0.9673	0.1742	0.0538	-0.104
Mof_H 	H 	0.8585	0.1742	0.9462	-0.03
Mof_H 	H 	0.9789	0.8258	0.0538	-0.063
Mof_H 	H 	0.2827	0.4462	0.3258	-0.021
Mof_H 	H 	0.0547	0.5538	0.6742	-0.003
Mof_H 	H 	0.125	0.5574	0.9426	0.393
Mof_H 	H 	0.625	0.4426	0.0574	0.408
Mof_H 	H 	0.3176	0.5574	0.0574	0.413
Mof_H 	H 	0.9324	0.4426	0.9426	0.374
Mof_H 	H 	0.6141	0.5	0.5	0.001
Mof_H 	H 	0.3641	0	-0	0.025
Mof_H 	H 	0.6359	0	-0	0.023
Mof_H 	H 	0.8859	0.5	0.5	0.009
Mof_C 	C 	0.33222	0.46886	0.6045	0.06
Mof_C 	C 	0.44293	0.47107	0.60607	-0.217
Mof_C 	C 	0.45724	0.44683	0.72121	0.587
Mof_C 	C 	0.40558	0.53114	0.3955	0.058
Mof_C 	C 	0.52007	0.52893	0.39393	-0.221
Mof_C 	C 	0.62528	0.55317	0.27879	0.544
Mof_C 	C 	0.18672	0.8955	0.96886	0.191
Mof_C 	C 	0.299	0.89393	0.97107	-0.073
Mof_C 	C 	0.42845	0.77879	0.94683	0.559
Mof_C 	C 	0.05108	0.1045	0.03114	0.139
Mof_C 	C 	0.164	0.10607	0.02893	-0.219
Mof_C 	C 	0.15407	0.22121	0.05317	0.538
Mof_C 	C 	0.84442	0.1045	0.96886	0.279
Mof_C 	C 	0.72993	0.10607	0.97107	-0.069
Mof_C 	C 	0.62472	0.22121	0.94683	0.566
Mof_C 	C 	0.91778	0.8955	0.03114	0.051
Mof_C 	C 	0.80707	0.89393	0.02893	-0.248
Mof_C 	C 	0.79276	0.77879	0.05317	0.532
Mof_C 	C 	0.19892	0.46886	0.3955	0.068
Mof_C 	C 	0.086	0.47107	0.39393	-0.188
Mof_C 	C 	0.09593	0.44683	0.27879	0.594
Mof_C 	C 	0.06328	0.53114	0.6045	0.132
Mof_C 	C 	0.951	0.52893	0.60607	-0.268
Mof_C 	C 	0.82155	0.55317	0.72121	0.596
Mof_C 	C 	0.3113	0.5	0.5	-0.042
Mof_C 	C 	0.5386	0.5	0.5	0.145
Mof_C 	C 	0.0613	0	-0	-0.135
Mof_C 	C 	0.2886	0	-0	-0.047
Mof_C 	C 	0.9387	0	-0	-0.247
Mof_C 	C 	0.7114	0	-0	-0.045
Mof_C 	C 	0.1887	0.5	0.5	-0.067
Mof_C 	C 	0.9614	0.5	0.5	0.107
Mof_O 	O 	0.40271	0.38379	0.80085	-0.627
Mof_O 	O 	0.52479	0.49397	0.72813	-0.784
Mof_O 	O 	0.58735	0.61621	0.19915	-0.689
Mof_O 	O 	0.74689	0.50603	0.27187	-0.675
Mof_O 	O 	0.45356	0.69915	0.88379	-0.754
Mof_O 	O 	0.50292	0.77187	0.99397	-0.538
Mof_O 	O 	0.0365	0.30085	0.11621	-0.672
Mof_O 	O 	0.26876	0.22813	0.00603	-0.716
Mof_O 	O 	0.66265	0.30085	0.88379	-0.757
Mof_O 	O 	0.50311	0.22813	0.99397	-0.537
Mof_O 	O 	0.84729	0.69915	0.11621	-0.714
Mof_O 	O 	0.72521	0.77187	0.00603	-0.729
Mof_O 	O 	0.2135	0.38379	0.19915	-0.697
Mof_O 	O 	0.98124	0.49397	0.27187	-0.718
Mof_O 	O 	0.79644	0.61621	0.80085	-0.636
Mof_O 	O 	0.74708	0.50603	0.72813	-0.788
Mof_O 	O 	0.125	0.501	0.999	-1.031
Mof_O 	O 	0.625	0.499	0.001	-1.482
Mof_O 	O 	0.374	0.501	0.001	-1.487
Mof_O 	O 	0.876	0.499	0.999	-1.04
_end
