data_functionalizedCrystal
_audit_creation_method	'EQeq! by Chris Wilmer'
_symmetry_space_group_name_H-M	'P1'
_symmetry_Int_Tables_number	1
_symmetry_cell_setting	triclinic
loop_
_symmetry_equiv_pos_as_xyz
  x,y,z
_cell_length_a	28.896
_cell_length_b	8.6749
_cell_length_c	14.2513
_cell_angle_alpha	90
_cell_angle_beta	116.056
_cell_angle_gamma	90
loop_
_atom_site_label
_atom_site_type_symbol
_atom_site_fract_x
_atom_site_fract_y
_atom_site_fract_z
_atom_site_charge
Mof_C 	C 	0.8356	0.7697	0.6652	0.57
Mof_C 	C 	0.8845	0.7691	0.7648	-0.195
Mof_C 	C 	0.9071	0.6321	0.8084	0.076
Mof_H 	H 	0.8917	0.5374	0.7763	0.011
Mof_C 	C 	0.953	0.632	0.9004	-0.116
Mof_H 	H 	0.9687	0.5364	0.9297	0.062
Mof_C 	C 	0.9764	0.7693	0.9506	0.029
Mof_C 	C 	0.9529	0.9045	0.9018	-0.037
Mof_H 	H 	0.9687	0.0003	0.9305	0.005
Mof_C 	C 	0.9068	0.9036	0.812	0.048
Mof_H 	H 	0.8905	0.9986	0.7828	0.036
Mof_C 	C 	0.7844	0.419	0.3617	0.566
Mof_C 	C 	0.7918	0.418	0.2638	-0.229
Mof_C 	C 	0.8171	0.2938	0.2437	0.095
Mof_H 	H 	0.8297	0.2111	0.292	-0.014
Mof_C 	C 	0.8236	0.2919	0.1528	-0.15
Mof_H 	H 	0.8426	0.2106	0.1414	0.063
Mof_C 	C 	0.8026	0.4082	0.0778	0.058
Mof_C 	C 	0.7789	0.5334	0.1002	-0.149
Mof_H 	H 	0.766	0.6162	0.052	0.081
Mof_C 	C 	0.7739	0.5377	0.1932	0.103
Mof_H 	H 	0.758	0.6241	0.2081	0
Mof_C 	C 	0.802	0.3183	0.676	0.416
Mof_C 	C 	0.8057	0.36	0.7803	-0.171
Mof_C 	C 	0.7675	0.4458	0.7892	0.095
Mof_H 	H 	0.7413	0.4925	0.729	-0.034
Mof_C 	C 	0.7675	0.464	0.8869	-0.138
Mof_H 	H 	0.7406	0.5212	0.8921	0.072
Mof_C 	C 	0.8059	0.4	0.9757	0.045
Mof_C 	C 	0.8458	0.3183	0.9676	-0.125
Mof_H 	H 	0.8731	0.2767	0.0283	0.06
Mof_C 	C 	0.8451	0.2981	0.8694	0.062
Mof_H 	H 	0.872	0.2416	0.8638	0.006
Mof_O 	O 	0.81967	0.8998	0.6253	-0.641
Mof_O 	O 	0.81396	0.6447	0.6277	-0.632
Mof_O 	O 	0.77407	0.5447	0.3911	-0.621
Mof_O 	O 	0.78924	0.291	0.4077	-0.677
Mof_O 	O 	0.76118	0.3581	0.5935	-0.71
Mof_O 	O 	0.83541	0.2322	0.6703	-0.531
Mof_Pr	Pr	0.72699	0.59698	0.49427	2.892
Mof_O 	O 	0.6583	0.505	0.545	-0.25
Mof_N 	N 	0.6027	0.3034	0.4979	-0.087
Mof_C 	C 	0.649	0.367	0.5483	0.147
Mof_H 	H 	0.6769	0.3011	0.5896	-0
Mof_C 	C 	0.562	0.399	0.4376	-0.209
Mof_H 	H 	0.5302	0.3394	0.4017	0.082
Mof_H 	H 	0.5701	0.452	0.3859	0.086
Mof_H 	H 	0.5575	0.4749	0.4837	0.089
Mof_C 	C 	0.5961	0.138	0.5068	-0.12
Mof_H 	H 	0.5742	0.0946	0.4379	0.046
Mof_H 	H 	0.5802	0.119	0.554	0.043
Mof_H 	H 	0.6301	0.0889	0.5349	0.039
Mof_O 	O 	0.6592	0.503	0.54	-0.18
Mof_N 	N 	0.6142	0.3387	0.5959	-0.067
Mof_C 	C 	0.6466	0.375	0.557	0.112
Mof_H 	H 	0.6623	0.2906	0.54	-0.071
Mof_C 	C 	0.5895	0.456	0.624	-0.248
Mof_H 	H 	0.5826	0.5449	0.5772	0.094
Mof_H 	H 	0.6132	0.4856	0.695	0.101
Mof_H 	H 	0.5571	0.4191	0.6223	0.092
Mof_C 	C 	0.6058	0.174	0.6094	-0.189
Mof_H 	H 	0.5736	0.1416	0.551	0.062
Mof_H 	H 	0.6037	0.157	0.6754	0.073
Mof_H 	H 	0.6345	0.1146	0.6091	0.083
Mof_C 	C 	0.3356	0.2697	0.6652	0.592
Mof_C 	C 	0.3845	0.2691	0.7648	-0.246
Mof_C 	C 	0.4071	0.1321	0.8084	0.111
Mof_H 	H 	0.3917	0.0374	0.7763	-0.012
Mof_C 	C 	0.453	0.132	0.9004	-0.15
Mof_H 	H 	0.4687	0.0364	0.9297	0.063
Mof_C 	C 	0.4764	0.2693	0.9506	0.058
Mof_C 	C 	0.4529	0.4045	0.9018	-0.157
Mof_H 	H 	0.4687	0.5003	0.9305	0.077
Mof_C 	C 	0.4068	0.4036	0.812	0.122
Mof_H 	H 	0.3905	0.4986	0.7828	-0.006
Mof_C 	C 	0.2844	0.919	0.3617	0.618
Mof_C 	C 	0.2918	0.918	0.2638	-0.203
Mof_C 	C 	0.3171	0.7938	0.2437	0.118
Mof_H 	H 	0.3297	0.7111	0.292	-0.012
Mof_C 	C 	0.3236	0.7919	0.1528	-0.185
Mof_H 	H 	0.3426	0.7106	0.1414	0.084
Mof_C 	C 	0.3026	0.9082	0.0778	0.15
Mof_C 	C 	0.2789	0.0334	0.1002	-0.224
Mof_H 	H 	0.266	0.1162	0.052	0.098
Mof_C 	C 	0.2739	0.0377	0.1932	0.083
Mof_H 	H 	0.258	0.1241	0.2081	0.001
Mof_C 	C 	0.302	0.8183	0.676	0.396
Mof_C 	C 	0.3057	0.86	0.7803	-0.107
Mof_C 	C 	0.2675	0.9458	0.7892	0.008
Mof_H 	H 	0.2413	0.9925	0.729	0.013
Mof_C 	C 	0.2675	0.964	0.8869	0.012
Mof_H 	H 	0.2406	0.0212	0.8921	-0.009
Mof_C 	C 	0.3059	0.9	0.9757	-0.035
Mof_C 	C 	0.3458	0.8183	0.9676	-0.059
Mof_H 	H 	0.3731	0.7767	0.0283	0.047
Mof_C 	C 	0.3451	0.7981	0.8694	0.013
Mof_H 	H 	0.372	0.7416	0.8638	0.035
Mof_O 	O 	0.31967	0.3998	0.6253	-0.675
Mof_O 	O 	0.31396	0.1447	0.6277	-0.643
Mof_O 	O 	0.27407	0.0447	0.3911	-0.655
Mof_O 	O 	0.28924	0.791	0.4077	-0.688
Mof_O 	O 	0.26118	0.8581	0.5935	-0.687
Mof_O 	O 	0.33541	0.7322	0.6703	-0.513
Mof_Pr	Pr	0.22699	0.09698	0.49427	2.793
Mof_O 	O 	0.1583	0.005	0.545	-0.269
Mof_N 	N 	0.1027	0.8034	0.4979	-0.084
Mof_C 	C 	0.149	0.867	0.5483	0.173
Mof_H 	H 	0.1769	0.8011	0.5896	-0.001
Mof_C 	C 	0.062	0.899	0.4376	-0.241
Mof_H 	H 	0.0302	0.8394	0.4017	0.096
Mof_H 	H 	0.0701	0.952	0.3859	0.106
Mof_H 	H 	0.0575	0.9749	0.4837	0.117
Mof_C 	C 	0.0961	0.638	0.5068	-0.13
Mof_H 	H 	0.0742	0.5946	0.4379	0.056
Mof_H 	H 	0.0802	0.619	0.554	0.043
Mof_H 	H 	0.1301	0.5889	0.5349	0.049
Mof_O 	O 	0.1592	0.003	0.54	-0.202
Mof_N 	N 	0.1142	0.8387	0.5959	-0.093
Mof_C 	C 	0.1466	0.875	0.557	0.141
Mof_H 	H 	0.1623	0.7906	0.54	-0.087
Mof_C 	C 	0.0895	0.956	0.624	-0.098
Mof_H 	H 	0.0826	0.0449	0.5772	0.011
Mof_H 	H 	0.1132	0.9856	0.695	0.073
Mof_H 	H 	0.0571	0.9191	0.6223	0.055
Mof_C 	C 	0.1058	0.674	0.6094	-0.181
Mof_H 	H 	0.0736	0.6416	0.551	0.066
Mof_H 	H 	0.1037	0.657	0.6754	0.078
Mof_H 	H 	0.1345	0.6146	0.6091	0.087
Mof_C 	C 	0.1644	0.7697	0.3348	0.57
Mof_C 	C 	0.1155	0.7691	0.2352	-0.195
Mof_C 	C 	0.0929	0.6321	0.1916	0.076
Mof_H 	H 	0.1083	0.5374	0.2237	0.011
Mof_C 	C 	0.047	0.632	0.0996	-0.116
Mof_H 	H 	0.0313	0.5364	0.0703	0.062
Mof_C 	C 	0.0236	0.7693	0.0494	0.029
Mof_C 	C 	0.0471	0.9045	0.0982	-0.037
Mof_H 	H 	0.0313	0.0003	0.0695	0.005
Mof_C 	C 	0.0932	0.9036	0.188	0.048
Mof_H 	H 	0.1095	0.9986	0.2172	0.036
Mof_C 	C 	0.2156	0.419	0.6383	0.566
Mof_C 	C 	0.2082	0.418	0.7362	-0.229
Mof_C 	C 	0.1829	0.2938	0.7563	0.095
Mof_H 	H 	0.1703	0.2111	0.708	-0.014
Mof_C 	C 	0.1764	0.2919	0.8472	-0.15
Mof_H 	H 	0.1574	0.2106	0.8586	0.063
Mof_C 	C 	0.1974	0.4082	0.9222	0.058
Mof_C 	C 	0.2211	0.5334	0.8998	-0.149
Mof_H 	H 	0.234	0.6162	0.948	0.081
Mof_C 	C 	0.2261	0.5377	0.8068	0.103
Mof_H 	H 	0.242	0.6241	0.7919	0
Mof_C 	C 	0.198	0.3183	0.324	0.416
Mof_C 	C 	0.1943	0.36	0.2197	-0.171
Mof_C 	C 	0.2325	0.4458	0.2108	0.095
Mof_H 	H 	0.2587	0.4925	0.271	-0.034
Mof_C 	C 	0.2325	0.464	0.1131	-0.138
Mof_H 	H 	0.2594	0.5212	0.1079	0.072
Mof_C 	C 	0.1941	0.4	0.0243	0.045
Mof_C 	C 	0.1542	0.3183	0.0324	-0.125
Mof_H 	H 	0.1269	0.2767	0.9717	0.06
Mof_C 	C 	0.1549	0.2981	0.1306	0.062
Mof_H 	H 	0.128	0.2416	0.1362	0.006
Mof_O 	O 	0.18033	0.8998	0.3747	-0.641
Mof_O 	O 	0.18604	0.6447	0.3723	-0.632
Mof_O 	O 	0.22593	0.5447	0.6089	-0.621
Mof_O 	O 	0.21076	0.291	0.5923	-0.677
Mof_O 	O 	0.23882	0.3581	0.4065	-0.71
Mof_O 	O 	0.16459	0.2322	0.3297	-0.531
Mof_Pr	Pr	0.27301	0.59698	0.50573	2.892
Mof_O 	O 	0.3417	0.505	0.455	-0.25
Mof_N 	N 	0.3973	0.3034	0.5021	-0.087
Mof_C 	C 	0.351	0.367	0.4517	0.147
Mof_H 	H 	0.3231	0.3011	0.4104	-0
Mof_C 	C 	0.438	0.399	0.5624	-0.209
Mof_H 	H 	0.4698	0.3394	0.5983	0.082
Mof_H 	H 	0.4299	0.452	0.6141	0.086
Mof_H 	H 	0.4425	0.4749	0.5163	0.089
Mof_C 	C 	0.4039	0.138	0.4932	-0.12
Mof_H 	H 	0.4258	0.0946	0.5621	0.046
Mof_H 	H 	0.4198	0.119	0.446	0.043
Mof_H 	H 	0.3699	0.0889	0.4651	0.039
Mof_O 	O 	0.3408	0.503	0.46	-0.18
Mof_N 	N 	0.3858	0.3387	0.4041	-0.067
Mof_C 	C 	0.3534	0.375	0.443	0.112
Mof_H 	H 	0.3377	0.2906	0.46	-0.071
Mof_C 	C 	0.4105	0.456	0.376	-0.248
Mof_H 	H 	0.4174	0.5449	0.4228	0.094
Mof_H 	H 	0.3868	0.4856	0.305	0.101
Mof_H 	H 	0.4429	0.4191	0.3777	0.092
Mof_C 	C 	0.3942	0.174	0.3906	-0.189
Mof_H 	H 	0.4264	0.1416	0.449	0.062
Mof_H 	H 	0.3963	0.157	0.3246	0.073
Mof_H 	H 	0.3655	0.1146	0.3909	0.083
Mof_C 	C 	0.6644	0.2697	0.3348	0.592
Mof_C 	C 	0.6155	0.2691	0.2352	-0.246
Mof_C 	C 	0.5929	0.1321	0.1916	0.111
Mof_H 	H 	0.6083	0.0374	0.2237	-0.012
Mof_C 	C 	0.547	0.132	0.0996	-0.15
Mof_H 	H 	0.5313	0.0364	0.0703	0.063
Mof_C 	C 	0.5236	0.2693	0.0494	0.058
Mof_C 	C 	0.5471	0.4045	0.0982	-0.157
Mof_H 	H 	0.5313	0.5003	0.0695	0.077
Mof_C 	C 	0.5932	0.4036	0.188	0.122
Mof_H 	H 	0.6095	0.4986	0.2172	-0.006
Mof_C 	C 	0.7156	0.919	0.6383	0.618
Mof_C 	C 	0.7082	0.918	0.7362	-0.203
Mof_C 	C 	0.6829	0.7938	0.7563	0.118
Mof_H 	H 	0.6703	0.7111	0.708	-0.012
Mof_C 	C 	0.6764	0.7919	0.8472	-0.185
Mof_H 	H 	0.6574	0.7106	0.8586	0.084
Mof_C 	C 	0.6974	0.9082	0.9222	0.15
Mof_C 	C 	0.7211	0.0334	0.8998	-0.224
Mof_H 	H 	0.734	0.1162	0.948	0.098
Mof_C 	C 	0.7261	0.0377	0.8068	0.083
Mof_H 	H 	0.742	0.1241	0.7919	0.001
Mof_C 	C 	0.698	0.8183	0.324	0.396
Mof_C 	C 	0.6943	0.86	0.2197	-0.107
Mof_C 	C 	0.7325	0.9458	0.2108	0.008
Mof_H 	H 	0.7587	0.9925	0.271	0.013
Mof_C 	C 	0.7325	0.964	0.1131	0.012
Mof_H 	H 	0.7594	0.0212	0.1079	-0.009
Mof_C 	C 	0.6941	0.9	0.0243	-0.035
Mof_C 	C 	0.6542	0.8183	0.0324	-0.059
Mof_H 	H 	0.6269	0.7767	0.9717	0.047
Mof_C 	C 	0.6549	0.7981	0.1306	0.013
Mof_H 	H 	0.628	0.7416	0.1362	0.035
Mof_O 	O 	0.68033	0.3998	0.3747	-0.675
Mof_O 	O 	0.68604	0.1447	0.3723	-0.643
Mof_O 	O 	0.72593	0.0447	0.6089	-0.655
Mof_O 	O 	0.71076	0.791	0.5923	-0.688
Mof_O 	O 	0.73882	0.8581	0.4065	-0.687
Mof_O 	O 	0.66459	0.7322	0.3297	-0.513
Mof_Pr	Pr	0.77301	0.09698	0.50573	2.793
Mof_O 	O 	0.8417	0.005	0.455	-0.269
Mof_N 	N 	0.8973	0.8034	0.5021	-0.084
Mof_C 	C 	0.851	0.867	0.4517	0.173
Mof_H 	H 	0.8231	0.8011	0.4104	-0.001
Mof_C 	C 	0.938	0.899	0.5624	-0.241
Mof_H 	H 	0.9698	0.8394	0.5983	0.096
Mof_H 	H 	0.9299	0.952	0.6141	0.106
Mof_H 	H 	0.9425	0.9749	0.5163	0.117
Mof_C 	C 	0.9039	0.638	0.4932	-0.13
Mof_H 	H 	0.9258	0.5946	0.5621	0.056
Mof_H 	H 	0.9198	0.619	0.446	0.043
Mof_H 	H 	0.8699	0.5889	0.4651	0.049
Mof_O 	O 	0.8408	0.003	0.46	-0.202
Mof_N 	N 	0.8858	0.8387	0.4041	-0.093
Mof_C 	C 	0.8534	0.875	0.443	0.141
Mof_H 	H 	0.8377	0.7906	0.46	-0.087
Mof_C 	C 	0.9105	0.956	0.376	-0.098
Mof_H 	H 	0.9174	0.0449	0.4228	0.011
Mof_H 	H 	0.8868	0.9856	0.305	0.073
Mof_H 	H 	0.9429	0.9191	0.3777	0.055
Mof_C 	C 	0.8942	0.674	0.3906	-0.181
Mof_H 	H 	0.9264	0.6416	0.449	0.066
Mof_H 	H 	0.8963	0.657	0.3246	0.078
Mof_H 	H 	0.8655	0.6146	0.3909	0.087
_end
