data_functionalizedCrystal
_audit_creation_method	'EQeq! by Chris Wilmer'
_symmetry_space_group_name_H-M	'P1'
_symmetry_Int_Tables_number	1
_symmetry_cell_setting	triclinic
loop_
_symmetry_equiv_pos_as_xyz
  x,y,z
_cell_length_a	27.86
_cell_length_b	27.86
_cell_length_c	53.54
_cell_angle_alpha	90
_cell_angle_beta	90
_cell_angle_gamma	90
loop_
_atom_site_label
_atom_site_type_symbol
_atom_site_fract_x
_atom_site_fract_y
_atom_site_fract_z
_atom_site_charge
Mof_O 	O 	0.54969	0.29924	0.14609	-0.395
Mof_O 	O 	0.78782	0.69996	0.22367	-0.417
Mof_O 	O 	0.70859	0.70004	0.22489	-0.407
Mof_C 	C 	0.74807	0.6844	0.21668	0.431
Mof_C 	C 	0.74662	0.6455	0.19861	-0.238
Mof_C 	C 	0.7879	0.6249	0.18901	0.174
Mof_H 	H 	0.8173	0.6363	0.1947	-0.013
Mof_C 	C 	0.7878	0.5893	0.1718	-0.24
Mof_H 	H 	0.8169	0.5767	0.1664	0.119
Mof_C 	C 	0.7463	0.5717	0.16227	0.172
Mof_C 	C 	0.7052	0.5896	0.17203	-0.255
Mof_H 	H 	0.6759	0.5767	0.1671	0.132
Mof_C 	C 	0.7058	0.6263	0.1891	0.227
Mof_C 	C 	0.7457	0.5337	0.14296	-0.041
Mof_C 	C 	0.7105	0.4976	0.14286	-0.031
Mof_H 	H 	0.6864	0.4978	0.1549	0.045
Mof_C 	C 	0.6548	0.4055	0.1028	-0.235
Mof_H 	H 	0.6662	0.4168	0.0876	0.128
Mof_C 	C 	0.6201	0.3717	0.10297	0.213
Mof_N 	N 	0.6032	0.3629	0.0776	-0.105
Mof_N 	N 	0.6582	0.6464	0.1941	-0.116
Mof_C 	C 	0.8982	0.7906	0.2492	5.037
Mof_H 	H 	0.8816	0.8196	0.2497	-1.692
Mof_C 	C 	0.9476	0.7912	0.2493	-5.281
Mof_H 	H 	0.9637	0.8204	0.2501	1.919
Mof_C 	C 	0.898	0.7313	0.22787	-1.892
Mof_H 	H 	0.8811	0.7192	0.2143	0.739
Mof_C 	C 	0.9479	0.7307	0.2278	1.662
Mof_H 	H 	0.9644	0.7179	0.2143	-0.596
Mof_C 	C 	0.9485	0.7669	0.26863	1.892
Mof_H 	H 	0.9654	0.7783	0.2824	-0.689
Mof_C 	C 	0.8986	0.7675	0.26871	-2.109
Mof_H 	H 	0.8822	0.7796	0.2824	0.827
Mof_O 	O 	0.04969	0.79924	0.64609	-0.401
Mof_O 	O 	0.28782	0.19996	0.72367	-0.421
Mof_O 	O 	0.20859	0.20004	0.72489	-0.41
Mof_C 	C 	0.24807	0.1844	0.71668	0.428
Mof_C 	C 	0.24662	0.1455	0.69861	-0.237
Mof_C 	C 	0.2879	0.1249	0.68901	0.167
Mof_H 	H 	0.3173	0.1363	0.6947	-0.012
Mof_C 	C 	0.2878	0.0893	0.6718	-0.237
Mof_H 	H 	0.3169	0.0767	0.6664	0.115
Mof_C 	C 	0.2463	0.0717	0.66227	0.167
Mof_C 	C 	0.2052	0.0896	0.67203	-0.253
Mof_H 	H 	0.1759	0.0767	0.6671	0.127
Mof_C 	C 	0.2058	0.1263	0.6891	0.22
Mof_C 	C 	0.2457	0.0337	0.64296	-0.042
Mof_C 	C 	0.2105	0.9976	0.64286	-0.033
Mof_H 	H 	0.1864	0.9978	0.6549	0.042
Mof_C 	C 	0.1548	0.9055	0.6028	-0.236
Mof_H 	H 	0.1662	0.9168	0.5876	0.125
Mof_C 	C 	0.1201	0.8717	0.60297	0.21
Mof_N 	N 	0.1032	0.8629	0.5776	-0.109
Mof_N 	N 	0.1582	0.1464	0.6941	-0.111
Mof_C 	C 	0.3982	0.2906	0.7492	1.052
Mof_H 	H 	0.3816	0.3196	0.7497	-0.325
Mof_C 	C 	0.4476	0.2912	0.7493	-1.085
Mof_H 	H 	0.4637	0.3204	0.7501	0.401
Mof_C 	C 	0.398	0.2313	0.72787	-0.404
Mof_H 	H 	0.3811	0.2192	0.7143	0.183
Mof_C 	C 	0.4479	0.2307	0.7278	0.33
Mof_H 	H 	0.4644	0.2179	0.7143	-0.1
Mof_C 	C 	0.4485	0.2669	0.76863	0.379
Mof_H 	H 	0.4654	0.2783	0.7824	-0.115
Mof_C 	C 	0.3986	0.2675	0.76871	-0.451
Mof_H 	H 	0.3822	0.2796	0.7824	0.211
Mof_O 	O 	0.95031	0.70076	0.64609	-0.386
Mof_O 	O 	0.71218	0.30004	0.72367	-0.421
Mof_O 	O 	0.79141	0.29996	0.72489	-0.406
Mof_C 	C 	0.75193	0.3156	0.71668	0.43
Mof_C 	C 	0.75338	0.3545	0.69861	-0.24
Mof_C 	C 	0.7121	0.3751	0.68901	0.171
Mof_H 	H 	0.6827	0.3637	0.6947	-0.013
Mof_C 	C 	0.7122	0.4107	0.6718	-0.241
Mof_H 	H 	0.6831	0.4233	0.6664	0.116
Mof_C 	C 	0.7537	0.4283	0.66227	0.172
Mof_C 	C 	0.7948	0.4104	0.67203	-0.259
Mof_H 	H 	0.8241	0.4233	0.6671	0.134
Mof_C 	C 	0.7942	0.3737	0.6891	0.232
Mof_C 	C 	0.7543	0.4663	0.64296	-0.043
Mof_C 	C 	0.7895	0.5024	0.64286	-0.032
Mof_H 	H 	0.8136	0.5022	0.6549	0.046
Mof_C 	C 	0.8452	0.5945	0.6028	-0.235
Mof_H 	H 	0.8338	0.5832	0.5876	0.128
Mof_C 	C 	0.8799	0.6283	0.60297	0.213
Mof_N 	N 	0.8968	0.6371	0.5776	-0.103
Mof_N 	N 	0.8418	0.3536	0.6941	-0.124
Mof_C 	C 	0.6018	0.2094	0.7492	0.251
Mof_H 	H 	0.6184	0.1804	0.7497	-0.049
Mof_C 	C 	0.5524	0.2088	0.7493	-0.242
Mof_H 	H 	0.5363	0.1796	0.7501	0.098
Mof_C 	C 	0.602	0.2687	0.72787	-0.103
Mof_H 	H 	0.6189	0.2808	0.7143	0.07
Mof_C 	C 	0.5521	0.2693	0.7278	0.06
Mof_H 	H 	0.5356	0.2821	0.7143	0.002
Mof_C 	C 	0.5515	0.2331	0.76863	0.073
Mof_H 	H 	0.5346	0.2217	0.7824	0.002
Mof_C 	C 	0.6014	0.2325	0.76871	-0.117
Mof_H 	H 	0.6178	0.2204	0.7824	0.086
Mof_O 	O 	0.45031	0.20076	0.14609	-0.396
Mof_O 	O 	0.21218	0.80004	0.22367	-0.424
Mof_O 	O 	0.29141	0.79996	0.22489	-0.408
Mof_C 	C 	0.25193	0.8156	0.21668	0.429
Mof_C 	C 	0.25338	0.8545	0.19861	-0.238
Mof_C 	C 	0.2121	0.8751	0.18901	0.165
Mof_H 	H 	0.1827	0.8637	0.1947	-0.011
Mof_C 	C 	0.2122	0.9107	0.1718	-0.237
Mof_H 	H 	0.1831	0.9233	0.1664	0.113
Mof_C 	C 	0.2537	0.9283	0.16227	0.168
Mof_C 	C 	0.2948	0.9104	0.17203	-0.255
Mof_H 	H 	0.3241	0.9233	0.1671	0.13
Mof_C 	C 	0.2942	0.8737	0.1891	0.225
Mof_C 	C 	0.2543	0.9663	0.14296	-0.042
Mof_C 	C 	0.2895	0.0024	0.14286	-0.033
Mof_H 	H 	0.3136	0.0022	0.1549	0.044
Mof_C 	C 	0.3452	0.0945	0.1028	-0.236
Mof_H 	H 	0.3338	0.0832	0.0876	0.126
Mof_C 	C 	0.3799	0.1283	0.10297	0.211
Mof_N 	N 	0.3968	0.1371	0.0776	-0.106
Mof_N 	N 	0.3418	0.8536	0.1941	-0.118
Mof_C 	C 	0.1018	0.7094	0.2492	-3.733
Mof_H 	H 	0.1184	0.6804	0.2497	1.319
Mof_C 	C 	0.0524	0.7088	0.2493	3.955
Mof_H 	H 	0.0363	0.6796	0.2501	-1.419
Mof_C 	C 	0.102	0.7687	0.22787	1.386
Mof_H 	H 	0.1189	0.7808	0.2143	-0.485
Mof_C 	C 	0.0521	0.7693	0.2278	-1.271
Mof_H 	H 	0.0356	0.7821	0.2143	0.499
Mof_C 	C 	0.0515	0.7331	0.26863	-1.439
Mof_H 	H 	0.0346	0.7217	0.2824	0.575
Mof_C 	C 	0.1014	0.7325	0.26871	1.541
Mof_H 	H 	0.1178	0.7204	0.2824	-0.53
Mof_O 	O 	0.95076	0.29969	0.39609	-0.386
Mof_O 	O 	0.55004	0.53782	0.47367	-0.421
Mof_O 	O 	0.54996	0.45859	0.47489	-0.408
Mof_C 	C 	0.5656	0.49807	0.46668	0.43
Mof_C 	C 	0.6045	0.49662	0.44861	-0.238
Mof_C 	C 	0.6251	0.5379	0.43901	0.169
Mof_H 	H 	0.6137	0.5673	0.4447	-0.013
Mof_C 	C 	0.6607	0.5378	0.4218	-0.239
Mof_H 	H 	0.6733	0.5669	0.4164	0.116
Mof_C 	C 	0.6783	0.4963	0.41227	0.17
Mof_C 	C 	0.6604	0.4552	0.42203	-0.256
Mof_H 	H 	0.6733	0.4259	0.4171	0.131
Mof_C 	C 	0.6237	0.4558	0.4391	0.226
Mof_C 	C 	0.7163	0.4957	0.39296	-0.042
Mof_C 	C 	0.7524	0.4605	0.39286	-0.033
Mof_H 	H 	0.7522	0.4364	0.4049	0.044
Mof_C 	C 	0.8445	0.4048	0.3528	-0.235
Mof_H 	H 	0.8332	0.4162	0.3376	0.128
Mof_C 	C 	0.8783	0.3701	0.35297	0.213
Mof_N 	N 	0.8871	0.3532	0.3276	-0.103
Mof_N 	N 	0.6036	0.4082	0.4441	-0.117
Mof_C 	C 	0.4594	0.6482	0.4992	0.651
Mof_H 	H 	0.4304	0.6316	0.4997	-0.187
Mof_C 	C 	0.4588	0.6976	0.4993	-0.664
Mof_H 	H 	0.4296	0.7137	0.5001	0.249
Mof_C 	C 	0.5187	0.648	0.47787	-0.253
Mof_H 	H 	0.5308	0.6311	0.4643	0.127
Mof_C 	C 	0.5193	0.6979	0.4778	0.195
Mof_H 	H 	0.5321	0.7144	0.4643	-0.049
Mof_C 	C 	0.4831	0.6985	0.51863	0.226
Mof_H 	H 	0.4717	0.7154	0.5324	-0.057
Mof_C 	C 	0.4825	0.6486	0.51871	-0.284
Mof_H 	H 	0.4704	0.6322	0.5324	0.148
Mof_O 	O 	0.45076	0.79969	0.89609	-0.396
Mof_O 	O 	0.05004	0.03782	0.97367	-0.425
Mof_O 	O 	0.04996	0.95859	0.97489	-0.411
Mof_C 	C 	0.0656	0.99807	0.96668	0.428
Mof_C 	C 	0.1045	0.99662	0.94861	-0.24
Mof_C 	C 	0.1251	0.0379	0.93901	0.168
Mof_H 	H 	0.1137	0.0673	0.9447	-0.013
Mof_C 	C 	0.1607	0.0378	0.9218	-0.24
Mof_H 	H 	0.1733	0.0669	0.9164	0.115
Mof_C 	C 	0.1783	0.9963	0.91227	0.169
Mof_C 	C 	0.1604	0.9552	0.92203	-0.256
Mof_H 	H 	0.1733	0.9259	0.9171	0.129
Mof_C 	C 	0.1237	0.9558	0.9391	0.225
Mof_C 	C 	0.2163	0.9957	0.89296	-0.043
Mof_C 	C 	0.2524	0.9605	0.89286	-0.033
Mof_H 	H 	0.2522	0.9364	0.9049	0.044
Mof_C 	C 	0.3445	0.9048	0.8528	-0.236
Mof_H 	H 	0.3332	0.9162	0.8376	0.126
Mof_C 	C 	0.3783	0.8701	0.85297	0.211
Mof_N 	N 	0.3871	0.8532	0.8276	-0.107
Mof_N 	N 	0.1036	0.9082	0.9441	-0.119
Mof_C 	C 	0.9594	0.1482	0.9992	0.735
Mof_H 	H 	0.9304	0.1316	0.9997	-0.213
Mof_C 	C 	0.9588	0.1976	0.9993	-0.531
Mof_H 	H 	0.9296	0.2137	0.0001	0.208
Mof_C 	C 	0.0187	0.148	0.97787	-0.171
Mof_H 	H 	0.0308	0.1311	0.9643	0.093
Mof_C 	C 	0.0193	0.1979	0.9778	0.28
Mof_H 	H 	0.0321	0.2144	0.9643	-0.081
Mof_C 	C 	0.9831	0.1985	0.01863	0.092
Mof_H 	H 	0.9717	0.2154	0.0324	-0.006
Mof_C 	C 	0.9825	0.1486	0.01871	-0.411
Mof_H 	H 	0.9704	0.1322	0.0324	0.197
Mof_O 	O 	0.54924	0.70031	0.89609	-0.396
Mof_O 	O 	0.94996	0.46218	0.97367	-0.412
Mof_O 	O 	0.95004	0.54141	0.97489	-0.399
Mof_C 	C 	0.9344	0.50193	0.96668	0.428
Mof_C 	C 	0.8955	0.50338	0.94861	-0.236
Mof_C 	C 	0.8749	0.4621	0.93901	0.169
Mof_H 	H 	0.8863	0.4327	0.9447	-0.011
Mof_C 	C 	0.8393	0.4622	0.9218	-0.238
Mof_H 	H 	0.8267	0.4331	0.9164	0.115
Mof_C 	C 	0.8217	0.5037	0.91227	0.17
Mof_C 	C 	0.8396	0.5448	0.92203	-0.255
Mof_H 	H 	0.8267	0.5741	0.9171	0.131
Mof_C 	C 	0.8763	0.5442	0.9391	0.226
Mof_C 	C 	0.7837	0.5043	0.89296	-0.042
Mof_C 	C 	0.7476	0.5395	0.89286	-0.033
Mof_H 	H 	0.7478	0.5636	0.9049	0.044
Mof_C 	C 	0.6555	0.5952	0.8528	-0.236
Mof_H 	H 	0.6668	0.5838	0.8376	0.127
Mof_C 	C 	0.6217	0.6299	0.85297	0.212
Mof_N 	N 	0.6129	0.6468	0.8276	-0.106
Mof_N 	N 	0.8964	0.5918	0.9441	-0.116
Mof_C 	C 	0.0406	0.3518	0.9992	0.54
Mof_H 	H 	0.0696	0.3684	0.9997	-0.15
Mof_C 	C 	0.0412	0.3024	0.9993	-0.746
Mof_H 	H 	0.0704	0.2863	0.0001	0.276
Mof_C 	C 	0.9813	0.352	0.97787	-0.322
Mof_H 	H 	0.9692	0.3689	0.9643	0.156
Mof_C 	C 	0.9807	0.3021	0.9778	0.108
Mof_H 	H 	0.9679	0.2856	0.9643	-0.014
Mof_C 	C 	0.0169	0.3015	0.01863	0.357
Mof_H 	H 	0.0283	0.2846	0.0324	-0.104
Mof_C 	C 	0.0175	0.3514	0.01871	-0.14
Mof_H 	H 	0.0296	0.3678	0.0324	0.094
Mof_O 	O 	0.04924	0.20031	0.39609	-0.401
Mof_O 	O 	0.44996	0.96218	0.47367	-0.421
Mof_O 	O 	0.45004	0.04141	0.47489	-0.408
Mof_C 	C 	0.4344	0.00193	0.46668	0.429
Mof_C 	C 	0.3955	0.00338	0.44861	-0.238
Mof_C 	C 	0.3749	0.9621	0.43901	0.169
Mof_H 	H 	0.3863	0.9327	0.4447	-0.013
Mof_C 	C 	0.3393	0.9622	0.4218	-0.239
Mof_H 	H 	0.3267	0.9331	0.4164	0.115
Mof_C 	C 	0.3217	0.0037	0.41227	0.169
Mof_C 	C 	0.3396	0.0448	0.42203	-0.256
Mof_H 	H 	0.3267	0.0741	0.4171	0.13
Mof_C 	C 	0.3763	0.0442	0.4391	0.226
Mof_C 	C 	0.2837	0.0043	0.39296	-0.043
Mof_C 	C 	0.2476	0.0395	0.39286	-0.033
Mof_H 	H 	0.2478	0.0636	0.4049	0.044
Mof_C 	C 	0.1555	0.0952	0.3528	-0.236
Mof_H 	H 	0.1668	0.0838	0.3376	0.125
Mof_C 	C 	0.1217	0.1299	0.35297	0.21
Mof_N 	N 	0.1129	0.1468	0.3276	-0.109
Mof_N 	N 	0.3964	0.0918	0.4441	-0.117
Mof_C 	C 	0.5406	0.8518	0.4992	0.651
Mof_H 	H 	0.5696	0.8684	0.4997	-0.187
Mof_C 	C 	0.5412	0.8024	0.4993	-0.663
Mof_H 	H 	0.5704	0.7863	0.5001	0.25
Mof_C 	C 	0.4813	0.852	0.47787	-0.253
Mof_H 	H 	0.4692	0.8689	0.4643	0.126
Mof_C 	C 	0.4807	0.8021	0.4778	0.195
Mof_H 	H 	0.4679	0.7856	0.4643	-0.049
Mof_C 	C 	0.5169	0.8015	0.51863	0.226
Mof_H 	H 	0.5283	0.7846	0.5324	-0.057
Mof_C 	C 	0.5175	0.8514	0.51871	-0.284
Mof_H 	H 	0.5296	0.8678	0.5324	0.148
Mof_O 	O 	0.95031	0.29924	0.35391	-0.386
Mof_O 	O 	0.71218	0.69996	0.27633	-0.421
Mof_O 	O 	0.79141	0.70004	0.27511	-0.406
Mof_C 	C 	0.75193	0.6844	0.28332	0.43
Mof_C 	C 	0.75338	0.6455	0.30139	-0.24
Mof_C 	C 	0.7121	0.6249	0.31099	0.171
Mof_H 	H 	0.6827	0.6363	0.3053	-0.013
Mof_C 	C 	0.7122	0.5893	0.3282	-0.241
Mof_H 	H 	0.6831	0.5767	0.3336	0.116
Mof_C 	C 	0.7537	0.5717	0.33773	0.172
Mof_C 	C 	0.7948	0.5896	0.32797	-0.259
Mof_H 	H 	0.8241	0.5767	0.3329	0.134
Mof_C 	C 	0.7942	0.6263	0.3109	0.232
Mof_C 	C 	0.7543	0.5337	0.35704	-0.043
Mof_C 	C 	0.7895	0.4976	0.35714	-0.032
Mof_H 	H 	0.8136	0.4978	0.3451	0.046
Mof_C 	C 	0.8452	0.4055	0.3972	-0.235
Mof_H 	H 	0.8338	0.4168	0.4124	0.128
Mof_C 	C 	0.8799	0.3717	0.39703	0.213
Mof_N 	N 	0.8968	0.3629	0.4224	-0.103
Mof_N 	N 	0.8418	0.6464	0.3059	-0.124
Mof_C 	C 	0.6018	0.7906	0.2508	0.251
Mof_H 	H 	0.6184	0.8196	0.2503	-0.049
Mof_C 	C 	0.5524	0.7912	0.2507	-0.242
Mof_H 	H 	0.5363	0.8204	0.2499	0.098
Mof_C 	C 	0.602	0.7313	0.27213	-0.103
Mof_H 	H 	0.6189	0.7192	0.2857	0.07
Mof_C 	C 	0.5521	0.7307	0.2722	0.06
Mof_H 	H 	0.5356	0.7179	0.2857	0.002
Mof_C 	C 	0.5515	0.7669	0.23137	0.073
Mof_H 	H 	0.5346	0.7783	0.2176	0.002
Mof_C 	C 	0.6014	0.7675	0.23129	-0.117
Mof_H 	H 	0.6178	0.7796	0.2176	0.086
Mof_O 	O 	0.45031	0.79924	0.85391	-0.396
Mof_O 	O 	0.21218	0.19996	0.77633	-0.424
Mof_O 	O 	0.29141	0.20004	0.77511	-0.408
Mof_C 	C 	0.25193	0.1844	0.78332	0.429
Mof_C 	C 	0.25338	0.1455	0.80139	-0.238
Mof_C 	C 	0.2121	0.1249	0.81099	0.165
Mof_H 	H 	0.1827	0.1363	0.8053	-0.011
Mof_C 	C 	0.2122	0.0893	0.8282	-0.237
Mof_H 	H 	0.1831	0.0767	0.8336	0.113
Mof_C 	C 	0.2537	0.0717	0.83773	0.168
Mof_C 	C 	0.2948	0.0896	0.82797	-0.255
Mof_H 	H 	0.3241	0.0767	0.8329	0.13
Mof_C 	C 	0.2942	0.1263	0.8109	0.225
Mof_C 	C 	0.2543	0.0337	0.85704	-0.042
Mof_C 	C 	0.2895	0.9976	0.85714	-0.033
Mof_H 	H 	0.3136	0.9978	0.8451	0.044
Mof_C 	C 	0.3452	0.9055	0.8972	-0.236
Mof_H 	H 	0.3338	0.9168	0.9124	0.126
Mof_C 	C 	0.3799	0.8717	0.89703	0.211
Mof_N 	N 	0.3968	0.8629	0.9224	-0.106
Mof_N 	N 	0.3418	0.1464	0.8059	-0.118
Mof_C 	C 	0.1018	0.2906	0.7508	-3.733
Mof_H 	H 	0.1184	0.3196	0.7503	1.319
Mof_C 	C 	0.0524	0.2912	0.7507	3.955
Mof_H 	H 	0.0363	0.3204	0.7499	-1.419
Mof_C 	C 	0.102	0.2313	0.77213	1.386
Mof_H 	H 	0.1189	0.2192	0.7857	-0.485
Mof_C 	C 	0.0521	0.2307	0.7722	-1.271
Mof_H 	H 	0.0356	0.2179	0.7857	0.499
Mof_C 	C 	0.0515	0.2669	0.73137	-1.439
Mof_H 	H 	0.0346	0.2783	0.7176	0.575
Mof_C 	C 	0.1014	0.2675	0.73129	1.541
Mof_H 	H 	0.1178	0.2796	0.7176	-0.53
Mof_O 	O 	0.54969	0.70076	0.85391	-0.396
Mof_O 	O 	0.78782	0.30004	0.77633	-0.418
Mof_O 	O 	0.70859	0.29996	0.77511	-0.408
Mof_C 	C 	0.74807	0.3156	0.78332	0.43
Mof_C 	C 	0.74662	0.3545	0.80139	-0.239
Mof_C 	C 	0.7879	0.3751	0.81099	0.173
Mof_H 	H 	0.8173	0.3637	0.8053	-0.014
Mof_C 	C 	0.7878	0.4107	0.8282	-0.241
Mof_H 	H 	0.8169	0.4233	0.8336	0.118
Mof_C 	C 	0.7463	0.4283	0.83773	0.171
Mof_C 	C 	0.7052	0.4104	0.82797	-0.256
Mof_H 	H 	0.6759	0.4233	0.8329	0.131
Mof_C 	C 	0.7058	0.3737	0.8109	0.226
Mof_C 	C 	0.7457	0.4663	0.85704	-0.042
Mof_C 	C 	0.7105	0.5024	0.85714	-0.032
Mof_H 	H 	0.6864	0.5022	0.8451	0.044
Mof_C 	C 	0.6548	0.5945	0.8972	-0.236
Mof_H 	H 	0.6662	0.5832	0.9124	0.127
Mof_C 	C 	0.6201	0.6283	0.89703	0.212
Mof_N 	N 	0.6032	0.6371	0.9224	-0.106
Mof_N 	N 	0.6582	0.3536	0.8059	-0.117
Mof_C 	C 	0.8982	0.2094	0.7508	5.036
Mof_H 	H 	0.8816	0.1804	0.7503	-1.693
Mof_C 	C 	0.9476	0.2088	0.7507	-5.282
Mof_H 	H 	0.9637	0.1796	0.7499	1.918
Mof_C 	C 	0.898	0.2687	0.77213	-1.893
Mof_H 	H 	0.8811	0.2808	0.7857	0.738
Mof_C 	C 	0.9479	0.2693	0.7722	1.661
Mof_H 	H 	0.9644	0.2821	0.7857	-0.597
Mof_C 	C 	0.9485	0.2331	0.73137	1.891
Mof_H 	H 	0.9654	0.2217	0.7176	-0.689
Mof_C 	C 	0.8986	0.2325	0.73129	-2.109
Mof_H 	H 	0.8822	0.2204	0.7176	0.827
Mof_O 	O 	0.04969	0.20076	0.35391	-0.401
Mof_O 	O 	0.28782	0.80004	0.27633	-0.421
Mof_O 	O 	0.20859	0.79996	0.27511	-0.41
Mof_C 	C 	0.24807	0.8156	0.28332	0.428
Mof_C 	C 	0.24662	0.8545	0.30139	-0.237
Mof_C 	C 	0.2879	0.8751	0.31099	0.167
Mof_H 	H 	0.3173	0.8637	0.3053	-0.012
Mof_C 	C 	0.2878	0.9107	0.3282	-0.237
Mof_H 	H 	0.3169	0.9233	0.3336	0.115
Mof_C 	C 	0.2463	0.9283	0.33773	0.167
Mof_C 	C 	0.2052	0.9104	0.32797	-0.253
Mof_H 	H 	0.1759	0.9233	0.3329	0.127
Mof_C 	C 	0.2058	0.8737	0.3109	0.22
Mof_C 	C 	0.2457	0.9663	0.35704	-0.042
Mof_C 	C 	0.2105	0.0024	0.35714	-0.033
Mof_H 	H 	0.1864	0.0022	0.3451	0.042
Mof_C 	C 	0.1548	0.0945	0.3972	-0.236
Mof_H 	H 	0.1662	0.0832	0.4124	0.125
Mof_C 	C 	0.1201	0.1283	0.39703	0.21
Mof_N 	N 	0.1032	0.1371	0.4224	-0.109
Mof_N 	N 	0.1582	0.8536	0.3059	-0.111
Mof_C 	C 	0.3982	0.7094	0.2508	1.052
Mof_H 	H 	0.3816	0.6804	0.2503	-0.325
Mof_C 	C 	0.4476	0.7088	0.2507	-1.085
Mof_H 	H 	0.4637	0.6796	0.2499	0.401
Mof_C 	C 	0.398	0.7687	0.27213	-0.404
Mof_H 	H 	0.3811	0.7808	0.2857	0.183
Mof_C 	C 	0.4479	0.7693	0.2722	0.33
Mof_H 	H 	0.4644	0.7821	0.2857	-0.1
Mof_C 	C 	0.4485	0.7331	0.23137	0.379
Mof_H 	H 	0.4654	0.7217	0.2176	-0.115
Mof_C 	C 	0.3986	0.7325	0.23129	-0.451
Mof_H 	H 	0.3822	0.7204	0.2176	0.211
Mof_O 	O 	0.54924	0.29969	0.10391	-0.396
Mof_O 	O 	0.94996	0.53782	0.02633	-0.412
Mof_O 	O 	0.95004	0.45859	0.02511	-0.399
Mof_C 	C 	0.9344	0.49807	0.03332	0.428
Mof_C 	C 	0.8955	0.49662	0.05139	-0.236
Mof_C 	C 	0.8749	0.5379	0.06099	0.169
Mof_H 	H 	0.8863	0.5673	0.0553	-0.011
Mof_C 	C 	0.8393	0.5378	0.0782	-0.238
Mof_H 	H 	0.8267	0.5669	0.0836	0.115
Mof_C 	C 	0.8217	0.4963	0.08773	0.17
Mof_C 	C 	0.8396	0.4552	0.07797	-0.255
Mof_H 	H 	0.8267	0.4259	0.0829	0.131
Mof_C 	C 	0.8763	0.4558	0.0609	0.226
Mof_C 	C 	0.7837	0.4957	0.10704	-0.042
Mof_C 	C 	0.7476	0.4605	0.10714	-0.033
Mof_H 	H 	0.7478	0.4364	0.0951	0.044
Mof_C 	C 	0.6555	0.4048	0.1472	-0.236
Mof_H 	H 	0.6668	0.4162	0.1624	0.127
Mof_C 	C 	0.6217	0.3701	0.14703	0.212
Mof_N 	N 	0.6129	0.3532	0.1724	-0.106
Mof_N 	N 	0.8964	0.4082	0.0559	-0.116
Mof_C 	C 	0.0406	0.6482	0.0008	0.54
Mof_H 	H 	0.0696	0.6316	0.0003	-0.15
Mof_C 	C 	0.0412	0.6976	0.0007	-0.746
Mof_H 	H 	0.0704	0.7137	0.9999	0.276
Mof_C 	C 	0.9813	0.648	0.02213	-0.322
Mof_H 	H 	0.9692	0.6311	0.0357	0.156
Mof_C 	C 	0.9807	0.6979	0.0222	0.108
Mof_H 	H 	0.9679	0.7144	0.0357	-0.014
Mof_C 	C 	0.0169	0.6985	0.98137	0.357
Mof_H 	H 	0.0283	0.7154	0.9676	-0.104
Mof_C 	C 	0.0175	0.6486	0.98129	-0.14
Mof_H 	H 	0.0296	0.6322	0.9676	0.094
Mof_O 	O 	0.04924	0.79969	0.60391	-0.401
Mof_O 	O 	0.44996	0.03782	0.52633	-0.421
Mof_O 	O 	0.45004	0.95859	0.52511	-0.408
Mof_C 	C 	0.4344	0.99807	0.53332	0.429
Mof_C 	C 	0.3955	0.99662	0.55139	-0.238
Mof_C 	C 	0.3749	0.0379	0.56099	0.169
Mof_H 	H 	0.3863	0.0673	0.5553	-0.013
Mof_C 	C 	0.3393	0.0378	0.5782	-0.239
Mof_H 	H 	0.3267	0.0669	0.5836	0.115
Mof_C 	C 	0.3217	0.9963	0.58773	0.169
Mof_C 	C 	0.3396	0.9552	0.57797	-0.256
Mof_H 	H 	0.3267	0.9259	0.5829	0.13
Mof_C 	C 	0.3763	0.9558	0.5609	0.226
Mof_C 	C 	0.2837	0.9957	0.60704	-0.043
Mof_C 	C 	0.2476	0.9605	0.60714	-0.033
Mof_H 	H 	0.2478	0.9364	0.5951	0.044
Mof_C 	C 	0.1555	0.9048	0.6472	-0.236
Mof_H 	H 	0.1668	0.9162	0.6624	0.125
Mof_C 	C 	0.1217	0.8701	0.64703	0.21
Mof_N 	N 	0.1129	0.8532	0.6724	-0.109
Mof_N 	N 	0.3964	0.9082	0.5559	-0.117
Mof_C 	C 	0.5406	0.1482	0.5008	0.651
Mof_H 	H 	0.5696	0.1316	0.5003	-0.187
Mof_C 	C 	0.5412	0.1976	0.5007	-0.663
Mof_H 	H 	0.5704	0.2137	0.4999	0.25
Mof_C 	C 	0.4813	0.148	0.52213	-0.253
Mof_H 	H 	0.4692	0.1311	0.5357	0.126
Mof_C 	C 	0.4807	0.1979	0.5222	0.195
Mof_H 	H 	0.4679	0.2144	0.5357	-0.049
Mof_C 	C 	0.5169	0.1985	0.48137	0.226
Mof_H 	H 	0.5283	0.2154	0.4676	-0.057
Mof_C 	C 	0.5175	0.1486	0.48129	-0.284
Mof_H 	H 	0.5296	0.1322	0.4676	0.148
Mof_O 	O 	0.95076	0.70031	0.60391	-0.386
Mof_O 	O 	0.55004	0.46218	0.52633	-0.421
Mof_O 	O 	0.54996	0.54141	0.52511	-0.408
Mof_C 	C 	0.5656	0.50193	0.53332	0.43
Mof_C 	C 	0.6045	0.50338	0.55139	-0.238
Mof_C 	C 	0.6251	0.4621	0.56099	0.169
Mof_H 	H 	0.6137	0.4327	0.5553	-0.013
Mof_C 	C 	0.6607	0.4622	0.5782	-0.239
Mof_H 	H 	0.6733	0.4331	0.5836	0.116
Mof_C 	C 	0.6783	0.5037	0.58773	0.17
Mof_C 	C 	0.6604	0.5448	0.57797	-0.256
Mof_H 	H 	0.6733	0.5741	0.5829	0.131
Mof_C 	C 	0.6237	0.5442	0.5609	0.226
Mof_C 	C 	0.7163	0.5043	0.60704	-0.042
Mof_C 	C 	0.7524	0.5395	0.60714	-0.033
Mof_H 	H 	0.7522	0.5636	0.5951	0.044
Mof_C 	C 	0.8445	0.5952	0.6472	-0.235
Mof_H 	H 	0.8332	0.5838	0.6624	0.128
Mof_C 	C 	0.8783	0.6299	0.64703	0.213
Mof_N 	N 	0.8871	0.6468	0.6724	-0.103
Mof_N 	N 	0.6036	0.5918	0.5559	-0.117
Mof_C 	C 	0.4594	0.3518	0.5008	0.651
Mof_H 	H 	0.4304	0.3684	0.5003	-0.187
Mof_C 	C 	0.4588	0.3024	0.5007	-0.664
Mof_H 	H 	0.4296	0.2863	0.4999	0.249
Mof_C 	C 	0.5187	0.352	0.52213	-0.253
Mof_H 	H 	0.5308	0.3689	0.5357	0.127
Mof_C 	C 	0.5193	0.3021	0.5222	0.195
Mof_H 	H 	0.5321	0.2856	0.5357	-0.049
Mof_C 	C 	0.4831	0.3015	0.48137	0.226
Mof_H 	H 	0.4717	0.2846	0.4676	-0.057
Mof_C 	C 	0.4825	0.3514	0.48129	-0.284
Mof_H 	H 	0.4704	0.3678	0.4676	0.148
Mof_O 	O 	0.45076	0.20031	0.10391	-0.396
Mof_O 	O 	0.05004	0.96218	0.02633	-0.425
Mof_O 	O 	0.04996	0.04141	0.02511	-0.411
Mof_C 	C 	0.0656	0.00193	0.03332	0.428
Mof_C 	C 	0.1045	0.00338	0.05139	-0.24
Mof_C 	C 	0.1251	0.9621	0.06099	0.168
Mof_H 	H 	0.1137	0.9327	0.0553	-0.013
Mof_C 	C 	0.1607	0.9622	0.0782	-0.24
Mof_H 	H 	0.1733	0.9331	0.0836	0.115
Mof_C 	C 	0.1783	0.0037	0.08773	0.169
Mof_C 	C 	0.1604	0.0448	0.07797	-0.256
Mof_H 	H 	0.1733	0.0741	0.0829	0.129
Mof_C 	C 	0.1237	0.0442	0.0609	0.225
Mof_C 	C 	0.2163	0.0043	0.10704	-0.043
Mof_C 	C 	0.2524	0.0395	0.10714	-0.033
Mof_H 	H 	0.2522	0.0636	0.0951	0.044
Mof_C 	C 	0.3445	0.0952	0.1472	-0.236
Mof_H 	H 	0.3332	0.0838	0.1624	0.126
Mof_C 	C 	0.3783	0.1299	0.14703	0.211
Mof_N 	N 	0.3871	0.1468	0.1724	-0.107
Mof_N 	N 	0.1036	0.0918	0.0559	-0.119
Mof_C 	C 	0.9594	0.8518	0.0008	0.735
Mof_H 	H 	0.9304	0.8684	0.0003	-0.213
Mof_C 	C 	0.9588	0.8024	0.0007	-0.531
Mof_H 	H 	0.9296	0.7863	0.9999	0.208
Mof_C 	C 	0.0187	0.852	0.02213	-0.171
Mof_H 	H 	0.0308	0.8689	0.0357	0.093
Mof_C 	C 	0.0193	0.8021	0.0222	0.28
Mof_H 	H 	0.0321	0.7856	0.0357	-0.081
Mof_C 	C 	0.9831	0.8015	0.98137	0.092
Mof_H 	H 	0.9717	0.7846	0.9676	-0.006
Mof_C 	C 	0.9825	0.8514	0.98129	-0.411
Mof_H 	H 	0.9704	0.8678	0.9676	0.197
Mof_O 	O 	0.45031	0.70076	0.85391	-0.396
Mof_O 	O 	0.21218	0.30004	0.77633	-0.424
Mof_O 	O 	0.29141	0.29996	0.77511	-0.408
Mof_C 	C 	0.25193	0.3156	0.78332	0.429
Mof_C 	C 	0.25338	0.3545	0.80139	-0.238
Mof_C 	C 	0.2121	0.3751	0.81099	0.165
Mof_H 	H 	0.1827	0.3637	0.8053	-0.011
Mof_C 	C 	0.2122	0.4107	0.8282	-0.237
Mof_H 	H 	0.1831	0.4233	0.8336	0.113
Mof_C 	C 	0.2537	0.4283	0.83773	0.168
Mof_C 	C 	0.2948	0.4104	0.82797	-0.255
Mof_H 	H 	0.3241	0.4233	0.8329	0.13
Mof_C 	C 	0.2942	0.3737	0.8109	0.225
Mof_C 	C 	0.2543	0.4663	0.85704	-0.042
Mof_C 	C 	0.2895	0.5024	0.85714	-0.033
Mof_H 	H 	0.3136	0.5022	0.8451	0.044
Mof_C 	C 	0.3452	0.5945	0.8972	-0.236
Mof_H 	H 	0.3338	0.5832	0.9124	0.126
Mof_C 	C 	0.3799	0.6283	0.89703	0.211
Mof_N 	N 	0.3968	0.6371	0.9224	-0.106
Mof_N 	N 	0.3418	0.3536	0.8059	-0.118
Mof_C 	C 	0.1018	0.2094	0.7508	-3.733
Mof_H 	H 	0.1184	0.1804	0.7503	1.319
Mof_C 	C 	0.0524	0.2088	0.7507	3.955
Mof_H 	H 	0.0363	0.1796	0.7499	-1.419
Mof_C 	C 	0.102	0.2687	0.77213	1.386
Mof_H 	H 	0.1189	0.2808	0.7857	-0.485
Mof_C 	C 	0.0521	0.2693	0.7722	-1.271
Mof_H 	H 	0.0356	0.2821	0.7857	0.499
Mof_C 	C 	0.0515	0.2331	0.73137	-1.439
Mof_H 	H 	0.0346	0.2217	0.7176	0.575
Mof_C 	C 	0.1014	0.2325	0.73129	1.541
Mof_H 	H 	0.1178	0.2204	0.7176	-0.53
Mof_O 	O 	0.95031	0.20076	0.35391	-0.386
Mof_O 	O 	0.71218	0.80004	0.27633	-0.421
Mof_O 	O 	0.79141	0.79996	0.27511	-0.406
Mof_C 	C 	0.75193	0.8156	0.28332	0.43
Mof_C 	C 	0.75338	0.8545	0.30139	-0.24
Mof_C 	C 	0.7121	0.8751	0.31099	0.171
Mof_H 	H 	0.6827	0.8637	0.3053	-0.013
Mof_C 	C 	0.7122	0.9107	0.3282	-0.241
Mof_H 	H 	0.6831	0.9233	0.3336	0.116
Mof_C 	C 	0.7537	0.9283	0.33773	0.172
Mof_C 	C 	0.7948	0.9104	0.32797	-0.258
Mof_H 	H 	0.8241	0.9233	0.3329	0.134
Mof_C 	C 	0.7942	0.8737	0.3109	0.232
Mof_C 	C 	0.7543	0.9663	0.35704	-0.042
Mof_C 	C 	0.7895	0.0024	0.35714	-0.032
Mof_H 	H 	0.8136	0.0022	0.3451	0.046
Mof_C 	C 	0.8452	0.0945	0.3972	-0.235
Mof_H 	H 	0.8338	0.0832	0.4124	0.128
Mof_C 	C 	0.8799	0.1283	0.39703	0.213
Mof_N 	N 	0.8968	0.1371	0.4224	-0.103
Mof_N 	N 	0.8418	0.8536	0.3059	-0.124
Mof_C 	C 	0.6018	0.7094	0.2508	0.251
Mof_H 	H 	0.6184	0.6804	0.2503	-0.049
Mof_C 	C 	0.5524	0.7088	0.2507	-0.242
Mof_H 	H 	0.5363	0.6796	0.2499	0.098
Mof_C 	C 	0.602	0.7687	0.27213	-0.103
Mof_H 	H 	0.6189	0.7808	0.2857	0.07
Mof_C 	C 	0.5521	0.7693	0.2722	0.06
Mof_H 	H 	0.5356	0.7821	0.2857	0.002
Mof_C 	C 	0.5515	0.7331	0.23137	0.073
Mof_H 	H 	0.5346	0.7217	0.2176	0.002
Mof_C 	C 	0.6014	0.7325	0.23129	-0.117
Mof_H 	H 	0.6178	0.7204	0.2176	0.086
Mof_O 	O 	0.04969	0.29924	0.35391	-0.401
Mof_O 	O 	0.28782	0.69996	0.27633	-0.421
Mof_O 	O 	0.20859	0.70004	0.27511	-0.41
Mof_C 	C 	0.24807	0.6844	0.28332	0.428
Mof_C 	C 	0.24662	0.6455	0.30139	-0.237
Mof_C 	C 	0.2879	0.6249	0.31099	0.167
Mof_H 	H 	0.3173	0.6363	0.3053	-0.012
Mof_C 	C 	0.2878	0.5893	0.3282	-0.237
Mof_H 	H 	0.3169	0.5767	0.3336	0.115
Mof_C 	C 	0.2463	0.5717	0.33773	0.167
Mof_C 	C 	0.2052	0.5896	0.32797	-0.253
Mof_H 	H 	0.1759	0.5767	0.3329	0.127
Mof_C 	C 	0.2058	0.6263	0.3109	0.219
Mof_C 	C 	0.2457	0.5337	0.35704	-0.042
Mof_C 	C 	0.2105	0.4976	0.35714	-0.033
Mof_H 	H 	0.1864	0.4978	0.3451	0.042
Mof_C 	C 	0.1548	0.4055	0.3972	-0.236
Mof_H 	H 	0.1662	0.4168	0.4124	0.125
Mof_C 	C 	0.1201	0.3717	0.39703	0.21
Mof_N 	N 	0.1032	0.3629	0.4224	-0.109
Mof_N 	N 	0.1582	0.6464	0.3059	-0.111
Mof_C 	C 	0.3982	0.7906	0.2508	1.052
Mof_H 	H 	0.3816	0.8196	0.2503	-0.325
Mof_C 	C 	0.4476	0.7912	0.2507	-1.085
Mof_H 	H 	0.4637	0.8204	0.2499	0.401
Mof_C 	C 	0.398	0.7313	0.27213	-0.404
Mof_H 	H 	0.3811	0.7192	0.2857	0.183
Mof_C 	C 	0.4479	0.7307	0.2722	0.33
Mof_H 	H 	0.4644	0.7179	0.2857	-0.1
Mof_C 	C 	0.4485	0.7669	0.23137	0.379
Mof_H 	H 	0.4654	0.7783	0.2176	-0.115
Mof_C 	C 	0.3986	0.7675	0.23129	-0.451
Mof_H 	H 	0.3822	0.7796	0.2176	0.211
Mof_O 	O 	0.54969	0.79924	0.85391	-0.396
Mof_O 	O 	0.78782	0.19996	0.77633	-0.418
Mof_O 	O 	0.70859	0.20004	0.77511	-0.408
Mof_C 	C 	0.74807	0.1844	0.78332	0.43
Mof_C 	C 	0.74662	0.1455	0.80139	-0.239
Mof_C 	C 	0.7879	0.1249	0.81099	0.173
Mof_H 	H 	0.8173	0.1363	0.8053	-0.014
Mof_C 	C 	0.7878	0.0893	0.8282	-0.241
Mof_H 	H 	0.8169	0.0767	0.8336	0.118
Mof_C 	C 	0.7463	0.0717	0.83773	0.171
Mof_C 	C 	0.7052	0.0896	0.82797	-0.256
Mof_H 	H 	0.6759	0.0767	0.8329	0.131
Mof_C 	C 	0.7058	0.1263	0.8109	0.226
Mof_C 	C 	0.7457	0.0337	0.85704	-0.042
Mof_C 	C 	0.7105	0.9976	0.85714	-0.032
Mof_H 	H 	0.6864	0.9978	0.8451	0.044
Mof_C 	C 	0.6548	0.9055	0.8972	-0.236
Mof_H 	H 	0.6662	0.9168	0.9124	0.127
Mof_C 	C 	0.6201	0.8717	0.89703	0.212
Mof_N 	N 	0.6032	0.8629	0.9224	-0.106
Mof_N 	N 	0.6582	0.1464	0.8059	-0.117
Mof_C 	C 	0.8982	0.2906	0.7508	5.036
Mof_H 	H 	0.8816	0.3196	0.7503	-1.693
Mof_C 	C 	0.9476	0.2912	0.7507	-5.282
Mof_H 	H 	0.9637	0.3204	0.7499	1.918
Mof_C 	C 	0.898	0.2313	0.77213	-1.893
Mof_H 	H 	0.8811	0.2192	0.7857	0.738
Mof_C 	C 	0.9479	0.2307	0.7722	1.661
Mof_H 	H 	0.9644	0.2179	0.7857	-0.597
Mof_C 	C 	0.9485	0.2669	0.73137	1.891
Mof_H 	H 	0.9654	0.2783	0.7176	-0.689
Mof_C 	C 	0.8986	0.2675	0.73129	-2.109
Mof_H 	H 	0.8822	0.2796	0.7176	0.827
Mof_O 	O 	0.04924	0.70031	0.60391	-0.401
Mof_O 	O 	0.44996	0.46218	0.52633	-0.421
Mof_O 	O 	0.45004	0.54141	0.52511	-0.408
Mof_C 	C 	0.4344	0.50193	0.53332	0.429
Mof_C 	C 	0.3955	0.50338	0.55139	-0.238
Mof_C 	C 	0.3749	0.4621	0.56099	0.169
Mof_H 	H 	0.3863	0.4327	0.5553	-0.013
Mof_C 	C 	0.3393	0.4622	0.5782	-0.239
Mof_H 	H 	0.3267	0.4331	0.5836	0.115
Mof_C 	C 	0.3217	0.5037	0.58773	0.169
Mof_C 	C 	0.3396	0.5448	0.57797	-0.256
Mof_H 	H 	0.3267	0.5741	0.5829	0.13
Mof_C 	C 	0.3763	0.5442	0.5609	0.226
Mof_C 	C 	0.2837	0.5043	0.60704	-0.043
Mof_C 	C 	0.2476	0.5395	0.60714	-0.033
Mof_H 	H 	0.2478	0.5636	0.5951	0.044
Mof_C 	C 	0.1555	0.5952	0.6472	-0.236
Mof_H 	H 	0.1668	0.5838	0.6624	0.125
Mof_C 	C 	0.1217	0.6299	0.64703	0.21
Mof_N 	N 	0.1129	0.6468	0.6724	-0.109
Mof_N 	N 	0.3964	0.5918	0.5559	-0.117
Mof_C 	C 	0.5406	0.3518	0.5008	0.652
Mof_H 	H 	0.5696	0.3684	0.5003	-0.187
Mof_C 	C 	0.5412	0.3024	0.5007	-0.663
Mof_H 	H 	0.5704	0.2863	0.4999	0.25
Mof_C 	C 	0.4813	0.352	0.52213	-0.253
Mof_H 	H 	0.4692	0.3689	0.5357	0.126
Mof_C 	C 	0.4807	0.3021	0.5222	0.195
Mof_H 	H 	0.4679	0.2856	0.5357	-0.049
Mof_C 	C 	0.5169	0.3015	0.48137	0.226
Mof_H 	H 	0.5283	0.2846	0.4676	-0.057
Mof_C 	C 	0.5175	0.3514	0.48129	-0.284
Mof_H 	H 	0.5296	0.3678	0.4676	0.148
Mof_O 	O 	0.54924	0.20031	0.10391	-0.396
Mof_O 	O 	0.94996	0.96218	0.02633	-0.412
Mof_O 	O 	0.95004	0.04141	0.02511	-0.399
Mof_C 	C 	0.9344	0.00193	0.03332	0.428
Mof_C 	C 	0.8955	0.00338	0.05139	-0.236
Mof_C 	C 	0.8749	0.9621	0.06099	0.169
Mof_H 	H 	0.8863	0.9327	0.0553	-0.011
Mof_C 	C 	0.8393	0.9622	0.0782	-0.238
Mof_H 	H 	0.8267	0.9331	0.0836	0.115
Mof_C 	C 	0.8217	0.0037	0.08773	0.17
Mof_C 	C 	0.8396	0.0448	0.07797	-0.255
Mof_H 	H 	0.8267	0.0741	0.0829	0.131
Mof_C 	C 	0.8763	0.0442	0.0609	0.226
Mof_C 	C 	0.7837	0.0043	0.10704	-0.042
Mof_C 	C 	0.7476	0.0395	0.10714	-0.033
Mof_H 	H 	0.7478	0.0636	0.0951	0.044
Mof_C 	C 	0.6555	0.0952	0.1472	-0.236
Mof_H 	H 	0.6668	0.0838	0.1624	0.127
Mof_C 	C 	0.6217	0.1299	0.14703	0.212
Mof_N 	N 	0.6129	0.1468	0.1724	-0.106
Mof_N 	N 	0.8964	0.0918	0.0559	-0.116
Mof_C 	C 	0.0406	0.8518	0.0008	0.533
Mof_H 	H 	0.0696	0.8684	0.0003	-0.148
Mof_C 	C 	0.0412	0.8024	0.0007	-0.738
Mof_H 	H 	0.0704	0.7863	0.9999	0.273
Mof_C 	C 	0.9813	0.852	0.02213	-0.319
Mof_H 	H 	0.9692	0.8689	0.0357	0.155
Mof_C 	C 	0.9807	0.8021	0.0222	0.106
Mof_H 	H 	0.9679	0.7856	0.0357	-0.013
Mof_C 	C 	0.0169	0.8015	0.98137	0.354
Mof_H 	H 	0.0283	0.7846	0.9676	-0.103
Mof_C 	C 	0.0175	0.8514	0.98129	-0.138
Mof_H 	H 	0.0296	0.8678	0.9676	0.094
Mof_O 	O 	0.45076	0.29969	0.10391	-0.396
Mof_O 	O 	0.05004	0.53782	0.02633	-0.425
Mof_O 	O 	0.04996	0.45859	0.02511	-0.411
Mof_C 	C 	0.0656	0.49807	0.03332	0.428
Mof_C 	C 	0.1045	0.49662	0.05139	-0.24
Mof_C 	C 	0.1251	0.5379	0.06099	0.168
Mof_H 	H 	0.1137	0.5673	0.0553	-0.014
Mof_C 	C 	0.1607	0.5378	0.0782	-0.24
Mof_H 	H 	0.1733	0.5669	0.0836	0.115
Mof_C 	C 	0.1783	0.4963	0.08773	0.169
Mof_C 	C 	0.1604	0.4552	0.07797	-0.256
Mof_H 	H 	0.1733	0.4259	0.0829	0.129
Mof_C 	C 	0.1237	0.4558	0.0609	0.225
Mof_C 	C 	0.2163	0.4957	0.10704	-0.043
Mof_C 	C 	0.2524	0.4605	0.10714	-0.033
Mof_H 	H 	0.2522	0.4364	0.0951	0.044
Mof_C 	C 	0.3445	0.4048	0.1472	-0.236
Mof_H 	H 	0.3332	0.4162	0.1624	0.126
Mof_C 	C 	0.3783	0.3701	0.14703	0.211
Mof_N 	N 	0.3871	0.3532	0.1724	-0.107
Mof_N 	N 	0.1036	0.4082	0.0559	-0.119
Mof_C 	C 	0.9594	0.6482	0.0008	0.742
Mof_H 	H 	0.9304	0.6316	0.0003	-0.216
Mof_C 	C 	0.9588	0.6976	0.0007	-0.538
Mof_H 	H 	0.9296	0.7137	0.9999	0.21
Mof_C 	C 	0.0187	0.648	0.02213	-0.173
Mof_H 	H 	0.0308	0.6311	0.0357	0.094
Mof_C 	C 	0.0193	0.6979	0.0222	0.282
Mof_H 	H 	0.0321	0.7144	0.0357	-0.082
Mof_C 	C 	0.9831	0.6985	0.98137	0.094
Mof_H 	H 	0.9717	0.7154	0.9676	-0.007
Mof_C 	C 	0.9825	0.6486	0.98129	-0.415
Mof_H 	H 	0.9704	0.6322	0.9676	0.199
Mof_O 	O 	0.95076	0.79969	0.60391	-0.386
Mof_O 	O 	0.55004	0.03782	0.52633	-0.421
Mof_O 	O 	0.54996	0.95859	0.52511	-0.408
Mof_C 	C 	0.5656	0.99807	0.53332	0.43
Mof_C 	C 	0.6045	0.99662	0.55139	-0.238
Mof_C 	C 	0.6251	0.0379	0.56099	0.169
Mof_H 	H 	0.6137	0.0673	0.5553	-0.013
Mof_C 	C 	0.6607	0.0378	0.5782	-0.239
Mof_H 	H 	0.6733	0.0669	0.5836	0.116
Mof_C 	C 	0.6783	0.9963	0.58773	0.17
Mof_C 	C 	0.6604	0.9552	0.57797	-0.256
Mof_H 	H 	0.6733	0.9259	0.5829	0.131
Mof_C 	C 	0.6237	0.9558	0.5609	0.226
Mof_C 	C 	0.7163	0.9957	0.60704	-0.042
Mof_C 	C 	0.7524	0.9605	0.60714	-0.033
Mof_H 	H 	0.7522	0.9364	0.5951	0.044
Mof_C 	C 	0.8445	0.9048	0.6472	-0.235
Mof_H 	H 	0.8332	0.9162	0.6624	0.128
Mof_C 	C 	0.8783	0.8701	0.64703	0.213
Mof_N 	N 	0.8871	0.8532	0.6724	-0.103
Mof_N 	N 	0.6036	0.9082	0.5559	-0.117
Mof_C 	C 	0.4594	0.1482	0.5008	0.651
Mof_H 	H 	0.4304	0.1316	0.5003	-0.187
Mof_C 	C 	0.4588	0.1976	0.5007	-0.663
Mof_H 	H 	0.4296	0.2137	0.4999	0.249
Mof_C 	C 	0.5187	0.148	0.52213	-0.253
Mof_H 	H 	0.5308	0.1311	0.5357	0.127
Mof_C 	C 	0.5193	0.1979	0.5222	0.195
Mof_H 	H 	0.5321	0.2144	0.5357	-0.049
Mof_C 	C 	0.4831	0.1985	0.48137	0.226
Mof_H 	H 	0.4717	0.2154	0.4676	-0.057
Mof_C 	C 	0.4825	0.1486	0.48129	-0.284
Mof_H 	H 	0.4704	0.1322	0.4676	0.148
Mof_O 	O 	0.04969	0.70076	0.64609	-0.401
Mof_O 	O 	0.28782	0.30004	0.72367	-0.421
Mof_O 	O 	0.20859	0.29996	0.72489	-0.41
Mof_C 	C 	0.24807	0.3156	0.71668	0.428
Mof_C 	C 	0.24662	0.3545	0.69861	-0.237
Mof_C 	C 	0.2879	0.3751	0.68901	0.167
Mof_H 	H 	0.3173	0.3637	0.6947	-0.012
Mof_C 	C 	0.2878	0.4107	0.6718	-0.237
Mof_H 	H 	0.3169	0.4233	0.6664	0.115
Mof_C 	C 	0.2463	0.4283	0.66227	0.167
Mof_C 	C 	0.2052	0.4104	0.67203	-0.253
Mof_H 	H 	0.1759	0.4233	0.6671	0.127
Mof_C 	C 	0.2058	0.3737	0.6891	0.219
Mof_C 	C 	0.2457	0.4663	0.64296	-0.042
Mof_C 	C 	0.2105	0.5024	0.64286	-0.033
Mof_H 	H 	0.1864	0.5022	0.6549	0.042
Mof_C 	C 	0.1548	0.5945	0.6028	-0.236
Mof_H 	H 	0.1662	0.5832	0.5876	0.125
Mof_C 	C 	0.1201	0.6283	0.60297	0.21
Mof_N 	N 	0.1032	0.6371	0.5776	-0.109
Mof_N 	N 	0.1582	0.3536	0.6941	-0.111
Mof_C 	C 	0.3982	0.2094	0.7492	1.052
Mof_H 	H 	0.3816	0.1804	0.7497	-0.325
Mof_C 	C 	0.4476	0.2088	0.7493	-1.085
Mof_H 	H 	0.4637	0.1796	0.7501	0.401
Mof_C 	C 	0.398	0.2687	0.72787	-0.404
Mof_H 	H 	0.3811	0.2808	0.7143	0.183
Mof_C 	C 	0.4479	0.2693	0.7278	0.33
Mof_H 	H 	0.4644	0.2821	0.7143	-0.1
Mof_C 	C 	0.4485	0.2331	0.76863	0.379
Mof_H 	H 	0.4654	0.2217	0.7824	-0.115
Mof_C 	C 	0.3986	0.2325	0.76871	-0.451
Mof_H 	H 	0.3822	0.2204	0.7824	0.211
Mof_O 	O 	0.54969	0.20076	0.14609	-0.396
Mof_O 	O 	0.78782	0.80004	0.22367	-0.418
Mof_O 	O 	0.70859	0.79996	0.22489	-0.408
Mof_C 	C 	0.74807	0.8156	0.21668	0.43
Mof_C 	C 	0.74662	0.8545	0.19861	-0.239
Mof_C 	C 	0.7879	0.8751	0.18901	0.173
Mof_H 	H 	0.8173	0.8637	0.1947	-0.014
Mof_C 	C 	0.7878	0.9107	0.1718	-0.241
Mof_H 	H 	0.8169	0.9233	0.1664	0.118
Mof_C 	C 	0.7463	0.9283	0.16227	0.171
Mof_C 	C 	0.7052	0.9104	0.17203	-0.256
Mof_H 	H 	0.6759	0.9233	0.1671	0.131
Mof_C 	C 	0.7058	0.8737	0.1891	0.226
Mof_C 	C 	0.7457	0.9663	0.14296	-0.042
Mof_C 	C 	0.7105	0.0024	0.14286	-0.032
Mof_H 	H 	0.6864	0.0022	0.1549	0.044
Mof_C 	C 	0.6548	0.0945	0.1028	-0.236
Mof_H 	H 	0.6662	0.0832	0.0876	0.127
Mof_C 	C 	0.6201	0.1283	0.10297	0.212
Mof_N 	N 	0.6032	0.1371	0.0776	-0.106
Mof_N 	N 	0.6582	0.8536	0.1941	-0.117
Mof_C 	C 	0.8982	0.7094	0.2492	5.036
Mof_H 	H 	0.8816	0.6804	0.2497	-1.693
Mof_C 	C 	0.9476	0.7088	0.2493	-5.282
Mof_H 	H 	0.9637	0.6796	0.2501	1.918
Mof_C 	C 	0.898	0.7687	0.22787	-1.893
Mof_H 	H 	0.8811	0.7808	0.2143	0.738
Mof_C 	C 	0.9479	0.7693	0.2278	1.661
Mof_H 	H 	0.9644	0.7821	0.2143	-0.597
Mof_C 	C 	0.9485	0.7331	0.26863	1.891
Mof_H 	H 	0.9654	0.7217	0.2824	-0.689
Mof_C 	C 	0.8986	0.7325	0.26871	-2.109
Mof_H 	H 	0.8822	0.7204	0.2824	0.827
Mof_O 	O 	0.45031	0.29924	0.14609	-0.396
Mof_O 	O 	0.21218	0.69996	0.22367	-0.424
Mof_O 	O 	0.29141	0.70004	0.22489	-0.408
Mof_C 	C 	0.25193	0.6844	0.21668	0.429
Mof_C 	C 	0.25338	0.6455	0.19861	-0.238
Mof_C 	C 	0.2121	0.6249	0.18901	0.165
Mof_H 	H 	0.1827	0.6363	0.1947	-0.011
Mof_C 	C 	0.2122	0.5893	0.1718	-0.237
Mof_H 	H 	0.1831	0.5767	0.1664	0.113
Mof_C 	C 	0.2537	0.5717	0.16227	0.168
Mof_C 	C 	0.2948	0.5896	0.17203	-0.255
Mof_H 	H 	0.3241	0.5767	0.1671	0.13
Mof_C 	C 	0.2942	0.6263	0.1891	0.225
Mof_C 	C 	0.2543	0.5337	0.14296	-0.042
Mof_C 	C 	0.2895	0.4976	0.14286	-0.033
Mof_H 	H 	0.3136	0.4978	0.1549	0.044
Mof_C 	C 	0.3452	0.4055	0.1028	-0.236
Mof_H 	H 	0.3338	0.4168	0.0876	0.126
Mof_C 	C 	0.3799	0.3717	0.10297	0.211
Mof_N 	N 	0.3968	0.3629	0.0776	-0.106
Mof_N 	N 	0.3418	0.6464	0.1941	-0.118
Mof_C 	C 	0.1018	0.7906	0.2492	-3.733
Mof_H 	H 	0.1184	0.8196	0.2497	1.319
Mof_C 	C 	0.0524	0.7912	0.2493	3.955
Mof_H 	H 	0.0363	0.8204	0.2501	-1.419
Mof_C 	C 	0.102	0.7313	0.22787	1.386
Mof_H 	H 	0.1189	0.7192	0.2143	-0.485
Mof_C 	C 	0.0521	0.7307	0.2278	-1.271
Mof_H 	H 	0.0356	0.7179	0.2143	0.499
Mof_C 	C 	0.0515	0.7669	0.26863	-1.439
Mof_H 	H 	0.0346	0.7783	0.2824	0.575
Mof_C 	C 	0.1014	0.7675	0.26871	1.541
Mof_H 	H 	0.1178	0.7796	0.2824	-0.53
Mof_O 	O 	0.95031	0.79924	0.64609	-0.386
Mof_O 	O 	0.71218	0.19996	0.72367	-0.421
Mof_O 	O 	0.79141	0.20004	0.72489	-0.406
Mof_C 	C 	0.75193	0.1844	0.71668	0.43
Mof_C 	C 	0.75338	0.1455	0.69861	-0.24
Mof_C 	C 	0.7121	0.1249	0.68901	0.171
Mof_H 	H 	0.6827	0.1363	0.6947	-0.013
Mof_C 	C 	0.7122	0.0893	0.6718	-0.241
Mof_H 	H 	0.6831	0.0767	0.6664	0.116
Mof_C 	C 	0.7537	0.0717	0.66227	0.172
Mof_C 	C 	0.7948	0.0896	0.67203	-0.258
Mof_H 	H 	0.8241	0.0767	0.6671	0.134
Mof_C 	C 	0.7942	0.1263	0.6891	0.232
Mof_C 	C 	0.7543	0.0337	0.64296	-0.042
Mof_C 	C 	0.7895	0.9976	0.64286	-0.032
Mof_H 	H 	0.8136	0.9978	0.6549	0.046
Mof_C 	C 	0.8452	0.9055	0.6028	-0.235
Mof_H 	H 	0.8338	0.9168	0.5876	0.128
Mof_C 	C 	0.8799	0.8717	0.60297	0.213
Mof_N 	N 	0.8968	0.8629	0.5776	-0.103
Mof_N 	N 	0.8418	0.1464	0.6941	-0.124
Mof_C 	C 	0.6018	0.2906	0.7492	0.251
Mof_H 	H 	0.6184	0.3196	0.7497	-0.049
Mof_C 	C 	0.5524	0.2912	0.7493	-0.242
Mof_H 	H 	0.5363	0.3204	0.7501	0.098
Mof_C 	C 	0.602	0.2313	0.72787	-0.103
Mof_H 	H 	0.6189	0.2192	0.7143	0.07
Mof_C 	C 	0.5521	0.2307	0.7278	0.06
Mof_H 	H 	0.5356	0.2179	0.7143	0.002
Mof_C 	C 	0.5515	0.2669	0.76863	0.073
Mof_H 	H 	0.5346	0.2783	0.7824	0.002
Mof_C 	C 	0.6014	0.2675	0.76871	-0.117
Mof_H 	H 	0.6178	0.2796	0.7824	0.086
Mof_O 	O 	0.45076	0.70031	0.89609	-0.396
Mof_O 	O 	0.05004	0.46218	0.97367	-0.425
Mof_O 	O 	0.04996	0.54141	0.97489	-0.411
Mof_C 	C 	0.0656	0.50193	0.96668	0.428
Mof_C 	C 	0.1045	0.50338	0.94861	-0.24
Mof_C 	C 	0.1251	0.4621	0.93901	0.168
Mof_H 	H 	0.1137	0.4327	0.9447	-0.014
Mof_C 	C 	0.1607	0.4622	0.9218	-0.24
Mof_H 	H 	0.1733	0.4331	0.9164	0.115
Mof_C 	C 	0.1783	0.5037	0.91227	0.169
Mof_C 	C 	0.1604	0.5448	0.92203	-0.256
Mof_H 	H 	0.1733	0.5741	0.9171	0.129
Mof_C 	C 	0.1237	0.5442	0.9391	0.225
Mof_C 	C 	0.2163	0.5043	0.89296	-0.043
Mof_C 	C 	0.2524	0.5395	0.89286	-0.033
Mof_H 	H 	0.2522	0.5636	0.9049	0.044
Mof_C 	C 	0.3445	0.5952	0.8528	-0.236
Mof_H 	H 	0.3332	0.5838	0.8376	0.126
Mof_C 	C 	0.3783	0.6299	0.85297	0.211
Mof_N 	N 	0.3871	0.6468	0.8276	-0.107
Mof_N 	N 	0.1036	0.5918	0.9441	-0.119
Mof_C 	C 	0.9594	0.3518	0.9992	0.742
Mof_H 	H 	0.9304	0.3684	0.9997	-0.216
Mof_C 	C 	0.9588	0.3024	0.9993	-0.538
Mof_H 	H 	0.9296	0.2863	0.0001	0.21
Mof_C 	C 	0.0187	0.352	0.97787	-0.173
Mof_H 	H 	0.0308	0.3689	0.9643	0.094
Mof_C 	C 	0.0193	0.3021	0.9778	0.282
Mof_H 	H 	0.0321	0.2856	0.9643	-0.082
Mof_C 	C 	0.9831	0.3015	0.01863	0.094
Mof_H 	H 	0.9717	0.2846	0.0324	-0.007
Mof_C 	C 	0.9825	0.3514	0.01871	-0.415
Mof_H 	H 	0.9704	0.3678	0.0324	0.199
Mof_O 	O 	0.95076	0.20031	0.39609	-0.386
Mof_O 	O 	0.55004	0.96218	0.47367	-0.421
Mof_O 	O 	0.54996	0.04141	0.47489	-0.408
Mof_C 	C 	0.5656	0.00193	0.46668	0.43
Mof_C 	C 	0.6045	0.00338	0.44861	-0.238
Mof_C 	C 	0.6251	0.9621	0.43901	0.169
Mof_H 	H 	0.6137	0.9327	0.4447	-0.013
Mof_C 	C 	0.6607	0.9622	0.4218	-0.239
Mof_H 	H 	0.6733	0.9331	0.4164	0.116
Mof_C 	C 	0.6783	0.0037	0.41227	0.17
Mof_C 	C 	0.6604	0.0448	0.42203	-0.256
Mof_H 	H 	0.6733	0.0741	0.4171	0.131
Mof_C 	C 	0.6237	0.0442	0.4391	0.226
Mof_C 	C 	0.7163	0.0043	0.39296	-0.042
Mof_C 	C 	0.7524	0.0395	0.39286	-0.033
Mof_H 	H 	0.7522	0.0636	0.4049	0.044
Mof_C 	C 	0.8445	0.0952	0.3528	-0.235
Mof_H 	H 	0.8332	0.0838	0.3376	0.128
Mof_C 	C 	0.8783	0.1299	0.35297	0.213
Mof_N 	N 	0.8871	0.1468	0.3276	-0.103
Mof_N 	N 	0.6036	0.0918	0.4441	-0.117
Mof_C 	C 	0.4594	0.8518	0.4992	0.651
Mof_H 	H 	0.4304	0.8684	0.4997	-0.187
Mof_C 	C 	0.4588	0.8024	0.4993	-0.663
Mof_H 	H 	0.4296	0.7863	0.5001	0.249
Mof_C 	C 	0.5187	0.852	0.47787	-0.253
Mof_H 	H 	0.5308	0.8689	0.4643	0.127
Mof_C 	C 	0.5193	0.8021	0.4778	0.195
Mof_H 	H 	0.5321	0.7856	0.4643	-0.049
Mof_C 	C 	0.4831	0.8015	0.51863	0.226
Mof_H 	H 	0.4717	0.7846	0.5324	-0.057
Mof_C 	C 	0.4825	0.8514	0.51871	-0.284
Mof_H 	H 	0.4704	0.8678	0.5324	0.148
Mof_O 	O 	0.04924	0.29969	0.39609	-0.401
Mof_O 	O 	0.44996	0.53782	0.47367	-0.421
Mof_O 	O 	0.45004	0.45859	0.47489	-0.408
Mof_C 	C 	0.4344	0.49807	0.46668	0.429
Mof_C 	C 	0.3955	0.49662	0.44861	-0.238
Mof_C 	C 	0.3749	0.5379	0.43901	0.169
Mof_H 	H 	0.3863	0.5673	0.4447	-0.013
Mof_C 	C 	0.3393	0.5378	0.4218	-0.239
Mof_H 	H 	0.3267	0.5669	0.4164	0.115
Mof_C 	C 	0.3217	0.4963	0.41227	0.169
Mof_C 	C 	0.3396	0.4552	0.42203	-0.256
Mof_H 	H 	0.3267	0.4259	0.4171	0.13
Mof_C 	C 	0.3763	0.4558	0.4391	0.226
Mof_C 	C 	0.2837	0.4957	0.39296	-0.043
Mof_C 	C 	0.2476	0.4605	0.39286	-0.033
Mof_H 	H 	0.2478	0.4364	0.4049	0.044
Mof_C 	C 	0.1555	0.4048	0.3528	-0.236
Mof_H 	H 	0.1668	0.4162	0.3376	0.125
Mof_C 	C 	0.1217	0.3701	0.35297	0.21
Mof_N 	N 	0.1129	0.3532	0.3276	-0.109
Mof_N 	N 	0.3964	0.4082	0.4441	-0.117
Mof_C 	C 	0.5406	0.6482	0.4992	0.652
Mof_H 	H 	0.5696	0.6316	0.4997	-0.187
Mof_C 	C 	0.5412	0.6976	0.4993	-0.663
Mof_H 	H 	0.5704	0.7137	0.5001	0.25
Mof_C 	C 	0.4813	0.648	0.47787	-0.253
Mof_H 	H 	0.4692	0.6311	0.4643	0.126
Mof_C 	C 	0.4807	0.6979	0.4778	0.195
Mof_H 	H 	0.4679	0.7144	0.4643	-0.049
Mof_C 	C 	0.5169	0.6985	0.51863	0.226
Mof_H 	H 	0.5283	0.7154	0.5324	-0.057
Mof_C 	C 	0.5175	0.6486	0.51871	-0.284
Mof_H 	H 	0.5296	0.6322	0.5324	0.148
Mof_O 	O 	0.54924	0.79969	0.89609	-0.396
Mof_O 	O 	0.94996	0.03782	0.97367	-0.412
Mof_O 	O 	0.95004	0.95859	0.97489	-0.399
Mof_C 	C 	0.9344	0.99807	0.96668	0.428
Mof_C 	C 	0.8955	0.99662	0.94861	-0.236
Mof_C 	C 	0.8749	0.0379	0.93901	0.169
Mof_H 	H 	0.8863	0.0673	0.9447	-0.011
Mof_C 	C 	0.8393	0.0378	0.9218	-0.238
Mof_H 	H 	0.8267	0.0669	0.9164	0.115
Mof_C 	C 	0.8217	0.9963	0.91227	0.17
Mof_C 	C 	0.8396	0.9552	0.92203	-0.255
Mof_H 	H 	0.8267	0.9259	0.9171	0.131
Mof_C 	C 	0.8763	0.9558	0.9391	0.226
Mof_C 	C 	0.7837	0.9957	0.89296	-0.042
Mof_C 	C 	0.7476	0.9605	0.89286	-0.033
Mof_H 	H 	0.7478	0.9364	0.9049	0.044
Mof_C 	C 	0.6555	0.9048	0.8528	-0.236
Mof_H 	H 	0.6668	0.9162	0.8376	0.127
Mof_C 	C 	0.6217	0.8701	0.85297	0.212
Mof_N 	N 	0.6129	0.8532	0.8276	-0.106
Mof_N 	N 	0.8964	0.9082	0.9441	-0.116
Mof_C 	C 	0.0406	0.1482	0.9992	0.533
Mof_H 	H 	0.0696	0.1316	0.9997	-0.148
Mof_C 	C 	0.0412	0.1976	0.9993	-0.738
Mof_H 	H 	0.0704	0.2137	0.0001	0.273
Mof_C 	C 	0.9813	0.148	0.97787	-0.319
Mof_H 	H 	0.9692	0.1311	0.9643	0.155
Mof_C 	C 	0.9807	0.1979	0.9778	0.106
Mof_H 	H 	0.9679	0.2144	0.9643	-0.013
Mof_C 	C 	0.0169	0.1985	0.01863	0.354
Mof_H 	H 	0.0283	0.2154	0.0324	-0.103
Mof_C 	C 	0.0175	0.1486	0.01871	-0.138
Mof_H 	H 	0.0296	0.1322	0.0324	0.094
Mof_Cu	Cu	0.79728	0.75	0.24924	0.93
Mof_N 	N 	0.87338	0.75	0.24833	-0.755
Mof_C 	C 	0.97316	0.75	0.24818	1.834
Mof_Cu	Cu	0.70272	0.25	0.74924	0.918
Mof_N 	N 	0.62662	0.25	0.74833	-0.198
Mof_C 	C 	0.52684	0.25	0.74818	-0.034
Mof_Cu	Cu	0.5	0.54728	0.49924	0.919
Mof_N 	N 	0.5	0.62338	0.49833	-0.244
Mof_C 	C 	0.5	0.72316	0.49818	0.119
Mof_Cu	Cu	-1.22384e-32	0.04728	0.99924	0.911
Mof_N 	N 	2.66317e-32	0.12338	0.99833	-0.256
Mof_C 	C 	2.66307e-32	0.22316	0.99818	0.089
Mof_Cu	Cu	7.19994e-33	0.45272	0.99924	0.911
Mof_N 	N 	-1.2245e-32	0.37662	0.99833	-0.256
Mof_C 	C 	-1.22461e-32	0.27684	0.99818	0.091
Mof_Cu	Cu	0.5	0.95272	0.49924	0.919
Mof_N 	N 	0.5	0.87662	0.49833	-0.244
Mof_C 	C 	0.5	0.77684	0.49818	0.119
Mof_Cu	Cu	0.70272	0.75	0.25076	0.918
Mof_N 	N 	0.62662	0.75	0.25167	-0.198
Mof_C 	C 	0.52684	0.75	0.25182	-0.034
Mof_Cu	Cu	0.79728	0.25	0.75076	0.93
Mof_N 	N 	0.87338	0.25	0.75167	-0.755
Mof_C 	C 	0.97316	0.25	0.75182	1.834
Mof_Cu	Cu	-9.05697e-34	0.54728	0.00076	0.911
Mof_N 	N 	4.98552e-33	0.62338	0.00167	-0.256
Mof_C 	C 	-7.65593e-33	0.72316	0.00182	0.091
Mof_Cu	Cu	0.5	0.04728	0.50076	0.919
Mof_N 	N 	0.5	0.12338	0.50167	-0.244
Mof_C 	C 	0.5	0.22316	0.50182	0.119
Mof_Cu	Cu	0.5	0.45272	0.50076	0.919
Mof_N 	N 	0.5	0.37662	0.50167	-0.244
Mof_C 	C 	0.5	0.27684	0.50182	0.119
Mof_Cu	Cu	3.95389e-33	0.95272	0.00076	0.911
Mof_N 	N 	-9.59325e-33	0.87662	0.00167	-0.256
Mof_C 	C 	-7.65593e-33	0.77684	0.00182	0.089
Mof_Cu	Cu	0.20272	0.25	0.75076	0.908
Mof_N 	N 	0.12662	0.25	0.75167	0.266
Mof_C 	C 	0.02684	0.25	0.75182	-1.597
Mof_Cu	Cu	0.29728	0.75	0.25076	0.92
Mof_N 	N 	0.37338	0.75	0.25167	-0.291
Mof_C 	C 	0.47316	0.75	0.25182	0.271
Mof_Cu	Cu	0.29728	0.25	0.74924	0.92
Mof_N 	N 	0.37338	0.25	0.74833	-0.291
Mof_C 	C 	0.47316	0.25	0.74818	0.271
Mof_Cu	Cu	0.20272	0.75	0.24924	0.908
Mof_N 	N 	0.12662	0.75	0.24833	0.266
Mof_C 	C 	0.02684	0.75	0.24818	-1.597
Mof_Cu	Cu	0.5	0.25	0.14968	0.909
Mof_Cu	Cu	-2.44763e-32	0.75	0.64968	0.899
Mof_Cu	Cu	1.2599e-32	0.25	0.39968	0.899
Mof_Cu	Cu	0.5	0.75	0.89968	0.909
Mof_Cu	Cu	7.38379e-33	0.25	0.35032	0.899
Mof_Cu	Cu	0.5	0.75	0.85032	0.909
Mof_Cu	Cu	0.5	0.25	0.10032	0.909
Mof_Cu	Cu	4.32555e-33	0.75	0.60032	0.899
Mof_C 	C 	0.7817	0.5317	0.125	-0.028
Mof_H 	H 	0.8053	0.5553	0.125	0.039
Mof_C 	C 	0.7115	0.4615	0.125	-0.032
Mof_C 	C 	0.6738	0.4238	0.125	0.15
Mof_C 	C 	0.6017	0.3517	0.125	-0.213
Mof_C 	C 	0.5643	0.3143	0.125	0.397
Mof_C 	C 	0.2817	0.0317	0.625	-0.029
Mof_H 	H 	0.3053	0.0553	0.625	0.039
Mof_C 	C 	0.2115	0.9615	0.625	-0.033
Mof_C 	C 	0.1738	0.9238	0.625	0.148
Mof_C 	C 	0.1017	0.8517	0.625	-0.215
Mof_C 	C 	0.0643	0.8143	0.625	0.397
Mof_C 	C 	0.7183	0.4683	0.625	-0.028
Mof_H 	H 	0.6947	0.4447	0.625	0.039
Mof_C 	C 	0.7885	0.5385	0.625	-0.032
Mof_C 	C 	0.8262	0.5762	0.625	0.15
Mof_C 	C 	0.8983	0.6483	0.625	-0.211
Mof_C 	C 	0.9357	0.6857	0.625	0.396
Mof_C 	C 	0.2183	0.9683	0.125	-0.029
Mof_H 	H 	0.1947	0.9447	0.125	0.039
Mof_C 	C 	0.2885	0.0385	0.125	-0.032
Mof_C 	C 	0.3262	0.0762	0.125	0.149
Mof_C 	C 	0.3983	0.1483	0.125	-0.213
Mof_C 	C 	0.4357	0.1857	0.125	0.397
Mof_C 	C 	0.7183	0.5317	0.375	-0.028
Mof_H 	H 	0.6947	0.5553	0.375	0.039
Mof_C 	C 	0.7885	0.4615	0.375	-0.032
Mof_C 	C 	0.8262	0.4238	0.375	0.15
Mof_C 	C 	0.8983	0.3517	0.375	-0.211
Mof_C 	C 	0.9357	0.3143	0.375	0.396
Mof_C 	C 	0.2183	0.0317	0.875	-0.029
Mof_H 	H 	0.1947	0.0553	0.875	0.039
Mof_C 	C 	0.2885	0.9615	0.875	-0.032
Mof_C 	C 	0.3262	0.9238	0.875	0.149
Mof_C 	C 	0.3983	0.8517	0.875	-0.213
Mof_C 	C 	0.4357	0.8143	0.875	0.397
Mof_C 	C 	0.7817	0.4683	0.875	-0.028
Mof_H 	H 	0.8053	0.4447	0.875	0.039
Mof_C 	C 	0.7115	0.5385	0.875	-0.032
Mof_C 	C 	0.6738	0.5762	0.875	0.15
Mof_C 	C 	0.6017	0.6483	0.875	-0.213
Mof_C 	C 	0.5643	0.6857	0.875	0.397
Mof_C 	C 	0.2817	0.9683	0.375	-0.029
Mof_H 	H 	0.3053	0.9447	0.375	0.039
Mof_C 	C 	0.2115	0.0385	0.375	-0.033
Mof_C 	C 	0.1738	0.0762	0.375	0.148
Mof_C 	C 	0.1017	0.1483	0.375	-0.215
Mof_C 	C 	0.0643	0.1857	0.375	0.397
Mof_C 	C 	0.2183	0.4683	0.875	-0.029
Mof_H 	H 	0.1947	0.4447	0.875	0.039
Mof_C 	C 	0.2885	0.5385	0.875	-0.032
Mof_C 	C 	0.3262	0.5762	0.875	0.149
Mof_C 	C 	0.3983	0.6483	0.875	-0.213
Mof_C 	C 	0.4357	0.6857	0.875	0.397
Mof_C 	C 	0.7183	0.9683	0.375	-0.028
Mof_H 	H 	0.6947	0.9447	0.375	0.039
Mof_C 	C 	0.7885	0.0385	0.375	-0.032
Mof_C 	C 	0.8262	0.0762	0.375	0.15
Mof_C 	C 	0.8983	0.1483	0.375	-0.211
Mof_C 	C 	0.9357	0.1857	0.375	0.396
Mof_C 	C 	0.2817	0.5317	0.375	-0.029
Mof_H 	H 	0.3053	0.5553	0.375	0.039
Mof_C 	C 	0.2115	0.4615	0.375	-0.033
Mof_C 	C 	0.1738	0.4238	0.375	0.148
Mof_C 	C 	0.1017	0.3517	0.375	-0.215
Mof_C 	C 	0.0643	0.3143	0.375	0.397
Mof_C 	C 	0.7817	0.0317	0.875	-0.028
Mof_H 	H 	0.8053	0.0553	0.875	0.039
Mof_C 	C 	0.7115	0.9615	0.875	-0.032
Mof_C 	C 	0.6738	0.9238	0.875	0.15
Mof_C 	C 	0.6017	0.8517	0.875	-0.213
Mof_C 	C 	0.5643	0.8143	0.875	0.397
Mof_C 	C 	0.2817	0.4683	0.625	-0.029
Mof_H 	H 	0.3053	0.4447	0.625	0.039
Mof_C 	C 	0.2115	0.5385	0.625	-0.033
Mof_C 	C 	0.1738	0.5762	0.625	0.148
Mof_C 	C 	0.1017	0.6483	0.625	-0.215
Mof_C 	C 	0.0643	0.6857	0.625	0.397
Mof_C 	C 	0.7817	0.9683	0.125	-0.028
Mof_H 	H 	0.8053	0.9447	0.125	0.039
Mof_C 	C 	0.7115	0.0385	0.125	-0.032
Mof_C 	C 	0.6738	0.0762	0.125	0.15
Mof_C 	C 	0.6017	0.1483	0.125	-0.213
Mof_C 	C 	0.5643	0.1857	0.125	0.397
Mof_C 	C 	0.2183	0.5317	0.125	-0.029
Mof_H 	H 	0.1947	0.5553	0.125	0.039
Mof_C 	C 	0.2885	0.4615	0.125	-0.032
Mof_C 	C 	0.3262	0.4238	0.125	0.149
Mof_C 	C 	0.3983	0.3517	0.125	-0.213
Mof_C 	C 	0.4357	0.3143	0.125	0.397
Mof_C 	C 	0.7183	0.0317	0.625	-0.028
Mof_H 	H 	0.6947	0.0553	0.625	0.039
Mof_C 	C 	0.7885	0.9615	0.625	-0.032
Mof_C 	C 	0.8262	0.9238	0.625	0.15
Mof_C 	C 	0.8983	0.8517	0.625	-0.211
Mof_C 	C 	0.9357	0.8143	0.625	0.396
_end
