data_functionalizedCrystal
_audit_creation_method	'EQeq! by Chris Wilmer'
_symmetry_space_group_name_H-M	'P1'
_symmetry_Int_Tables_number	1
_symmetry_cell_setting	triclinic
loop_
_symmetry_equiv_pos_as_xyz
  x,y,z
_cell_length_a	12.5223
_cell_length_b	12.5223
_cell_length_c	15.7383
_cell_angle_alpha	113.442
_cell_angle_beta	113.442
_cell_angle_gamma	90.0001
loop_
_atom_site_label
_atom_site_type_symbol
_atom_site_fract_x
_atom_site_fract_y
_atom_site_fract_z
_atom_site_charge
Mof_Zn	Zn	0.87509	0.3956	0.37492	1.187
Mof_Zn	Zn	0.49983	0.97932	0.37492	1.187
Mof_Zn	Zn	0.3956	0.49983	0.37492	1.187
Mof_Zn	Zn	0.97932	0.87509	0.37492	1.185
Mof_Zn	Zn	0.12491	0.6044	0.62508	1.187
Mof_Zn	Zn	0.50017	0.02068	0.62508	1.187
Mof_Zn	Zn	0.6044	0.50017	0.62508	1.187
Mof_Zn	Zn	0.02068	0.12491	0.62508	1.185
Mof_H 	H 	0.749	0.9999	0.1546	0.013
Mof_H 	H 	0.9149	0.1933	0.4438	-0.042
Mof_H 	H 	0.1646	0.3865	0.788	0.158
Mof_H 	H 	0.1818	0.5073	0.7886	0.157
Mof_H 	H 	0.4056	0.1547	0.1546	0.027
Mof_H 	H 	0.5289	0.2505	0.4438	-0.042
Mof_H 	H 	0.6234	0.4015	0.788	0.158
Mof_H 	H 	0.6068	0.2813	0.7886	0.158
Mof_H 	H 	0.9999	0.4056	0.1546	0.022
Mof_H 	H 	0.1933	0.5289	0.4438	-0.042
Mof_H 	H 	0.3865	0.6234	0.788	0.158
Mof_H 	H 	0.5073	0.6068	0.7886	0.158
Mof_H 	H 	0.1547	0.749	0.1546	0.027
Mof_H 	H 	0.2505	0.9149	0.4438	-0.043
Mof_H 	H 	0.4015	0.1646	0.788	0.158
Mof_H 	H 	0.2813	0.1818	0.7886	0.157
Mof_H 	H 	0.251	0.0001	0.8454	0.017
Mof_H 	H 	0.0851	0.8067	0.5562	-0.042
Mof_H 	H 	0.8354	0.6135	0.212	0.157
Mof_H 	H 	0.8182	0.4927	0.2114	0.157
Mof_H 	H 	0.5944	0.8453	0.8454	0.019
Mof_H 	H 	0.4711	0.7495	0.5562	-0.042
Mof_H 	H 	0.3766	0.5985	0.212	0.158
Mof_H 	H 	0.3932	0.7187	0.2114	0.157
Mof_H 	H 	0.0001	0.5944	0.8454	0.027
Mof_H 	H 	0.8067	0.4711	0.5562	-0.042
Mof_H 	H 	0.6135	0.3766	0.212	0.158
Mof_H 	H 	0.4927	0.3932	0.2114	0.157
Mof_H 	H 	0.8453	0.251	0.8454	0.021
Mof_H 	H 	0.7495	0.0851	0.5562	-0.042
Mof_H 	H 	0.5985	0.8354	0.212	0.157
Mof_H 	H 	0.7187	0.8182	0.2114	0.157
Mof_H 	H 	0.6448	0.8314	-0	0.076
Mof_H 	H 	0.6805	0.2019	-0	0.046
Mof_H 	H 	0.3552	0.1686	-0	0.068
Mof_H 	H 	0.3195	0.7981	-0	0.051
Mof_H 	H 	0.8314	0.3552	-0	0.071
Mof_H 	H 	0.2019	0.3195	-0	0.047
Mof_H 	H 	0.1686	0.6448	-0	0.064
Mof_H 	H 	0.7981	0.6805	-0	0.052
Mof_C 	C 	0.72245	0.11635	0.0929	-0.089
Mof_C 	C 	0.715	0.0068	0.0916	0.057
Mof_C 	C 	0.0763	0.3849	0.6542	0.199
Mof_C 	C 	0.96215	0.26435	0.5021	0.088
Mof_C 	C 	0.7789	0.2426	0.1872	0.301
Mof_C 	C 	0.37045	0.97655	0.0929	-0.074
Mof_C 	C 	0.3766	0.0848	0.0916	0.025
Mof_C 	C 	0.5779	0.2693	0.6542	0.2
Mof_C 	C 	0.53995	0.23775	0.5021	0.084
Mof_C 	C 	0.4083	0.9446	0.1872	0.296
Mof_C 	C 	0.11635	0.37045	0.0929	-0.082
Mof_C 	C 	0.0068	0.3766	0.0916	0.036
Mof_C 	C 	0.3849	0.5779	0.6542	0.2
Mof_C 	C 	0.26435	0.53995	0.5021	0.084
Mof_C 	C 	0.2426	0.4083	0.1872	0.299
Mof_C 	C 	0.97655	0.72245	0.0929	-0.075
Mof_C 	C 	0.0848	0.715	0.0916	0.024
Mof_C 	C 	0.2693	0.0763	0.6542	0.199
Mof_C 	C 	0.23775	0.96215	0.5021	0.088
Mof_C 	C 	0.9446	0.7789	0.1872	0.289
Mof_C 	C 	0.27755	0.88365	0.9071	-0.073
Mof_C 	C 	0.285	0.9932	0.9084	0.04
Mof_C 	C 	0.9237	0.6151	0.3458	0.199
Mof_C 	C 	0.03785	0.73565	0.4979	0.088
Mof_C 	C 	0.2211	0.7574	0.8128	0.297
Mof_C 	C 	0.62955	0.02345	0.9071	-0.087
Mof_C 	C 	0.6234	0.9152	0.9084	0.051
Mof_C 	C 	0.4221	0.7307	0.3458	0.2
Mof_C 	C 	0.46005	0.76225	0.4979	0.084
Mof_C 	C 	0.5917	0.0554	0.8128	0.299
Mof_C 	C 	0.88365	0.62955	0.9071	-0.063
Mof_C 	C 	0.9932	0.6234	0.9084	0.022
Mof_C 	C 	0.6151	0.4221	0.3458	0.2
Mof_C 	C 	0.73565	0.46005	0.4979	0.084
Mof_C 	C 	0.7574	0.5917	0.8128	0.295
Mof_C 	C 	0.02345	0.27755	0.9071	-0.089
Mof_C 	C 	0.9152	0.285	0.9084	0.046
Mof_C 	C 	0.7307	0.9237	0.3458	0.199
Mof_C 	C 	0.76225	0.03785	0.4979	0.087
Mof_C 	C 	0.0554	0.2211	0.8128	0.293
Mof_C 	C 	0.6589	0.906	-0	-0.129
Mof_C 	C 	0.6779	0.126	-0	0.013
Mof_C 	C 	0.3411	0.094	-0	-0.101
Mof_C 	C 	0.3221	0.874	-0	-0.003
Mof_C 	C 	0.906	0.3411	-0	-0.111
Mof_C 	C 	0.126	0.3221	-0	0.012
Mof_C 	C 	0.094	0.6589	-0	-0.09
Mof_C 	C 	0.874	0.6779	-0	-0.011
Mof_N 	N 	0.97457	0.36517	0.49814	-0.261
Mof_N 	N 	0.0501	0.4478	0.599	-0.287
Mof_N 	N 	0.02296	0.27066	0.59732	-0.303
Mof_N 	N 	0.14934	0.43164	0.75528	-0.339
Mof_N 	N 	0.52357	0.13297	0.49814	-0.262
Mof_N 	N 	0.5489	0.1512	0.599	-0.286
Mof_N 	N 	0.57436	0.32666	0.59732	-0.301
Mof_N 	N 	0.60594	0.32364	0.75528	-0.339
Mof_N 	N 	0.36517	0.52357	0.49814	-0.262
Mof_N 	N 	0.4478	0.5489	0.599	-0.286
Mof_N 	N 	0.27066	0.57436	0.59732	-0.301
Mof_N 	N 	0.43164	0.60594	0.75528	-0.339
Mof_N 	N 	0.13297	0.97457	0.49814	-0.259
Mof_N 	N 	0.1512	0.0501	0.599	-0.289
Mof_N 	N 	0.32666	0.02296	0.59732	-0.303
Mof_N 	N 	0.32364	0.14934	0.75528	-0.339
Mof_N 	N 	0.02543	0.63483	0.50186	-0.262
Mof_N 	N 	0.9499	0.5522	0.401	-0.286
Mof_N 	N 	0.97704	0.72934	0.40268	-0.303
Mof_N 	N 	0.85066	0.56836	0.24472	-0.339
Mof_N 	N 	0.47643	0.86703	0.50186	-0.261
Mof_N 	N 	0.4511	0.8488	0.401	-0.286
Mof_N 	N 	0.42564	0.67334	0.40268	-0.301
Mof_N 	N 	0.39406	0.67636	0.24472	-0.339
Mof_N 	N 	0.63483	0.47643	0.50186	-0.262
Mof_N 	N 	0.5522	0.4511	0.401	-0.286
Mof_N 	N 	0.72934	0.42564	0.40268	-0.301
Mof_N 	N 	0.56836	0.39406	0.24472	-0.339
Mof_N 	N 	0.86703	0.02543	0.50186	-0.259
Mof_N 	N 	0.8488	0.9499	0.401	-0.288
Mof_N 	N 	0.67334	0.97704	0.40268	-0.302
Mof_N 	N 	0.67636	0.85066	0.24472	-0.338
Mof_O 	O 	0.7524	0.3378	0.1816	-0.367
Mof_O 	O 	0.8429	0.2377	0.2714	-0.476
Mof_O 	O 	0.4292	0.8438	0.1816	-0.366
Mof_O 	O 	0.4285	0.0337	0.2714	-0.475
Mof_O 	O 	0.3378	0.4292	0.1816	-0.367
Mof_O 	O 	0.2377	0.4285	0.2714	-0.476
Mof_O 	O 	0.8438	0.7524	0.1816	-0.365
Mof_O 	O 	0.0337	0.8429	0.2714	-0.469
Mof_O 	O 	0.2476	0.6622	0.8184	-0.365
Mof_O 	O 	0.1571	0.7623	0.7286	-0.475
Mof_O 	O 	0.5708	0.1562	0.8184	-0.366
Mof_O 	O 	0.5715	0.9663	0.7286	-0.475
Mof_O 	O 	0.6622	0.5708	0.8184	-0.364
Mof_O 	O 	0.7623	0.5715	0.7286	-0.475
Mof_O 	O 	0.1562	0.2476	0.8184	-0.366
Mof_O 	O 	0.9663	0.1571	0.7286	-0.469
_end
