data_functionalizedCrystal
_audit_creation_method	'EQeq! by Chris Wilmer'
_symmetry_space_group_name_H-M	'P1'
_symmetry_Int_Tables_number	1
_symmetry_cell_setting	triclinic
loop_
_symmetry_equiv_pos_as_xyz
  x,y,z
_cell_length_a	20.1753
_cell_length_b	20.1753
_cell_length_c	25.0329
_cell_angle_alpha	90
_cell_angle_beta	90
_cell_angle_gamma	120
loop_
_atom_site_label
_atom_site_type_symbol
_atom_site_fract_x
_atom_site_fract_y
_atom_site_fract_z
_atom_site_charge
Mof_O 	O 	0.4365	0.235	0.4001	-0.17
Mof_O 	O 	0.1427	0.1278	0.432	-0.574
Mof_C 	C 	0.3019	0.18	0.3995	0.109
Mof_H 	H 	0.3048	0.2013	0.4335	0.015
Mof_C 	C 	0.3644	0.2112	0.366	-0.077
Mof_C 	C 	0.2992	0.116	0.3034	-0.085
Mof_H 	H 	0.298	0.0912	0.2713	0.046
Mof_C 	C 	0.2353	0.0855	0.3358	0.114
Mof_H 	H 	0.1904	0.0413	0.3249	0.014
Mof_O 	O 	0.6499	0.4605	0.3991	-0.382
Mof_H 	H 	0.6095	0.5875	0.4884	0.214
Mof_C 	C 	0.5289	0.5916	0.5327	0.224
Mof_H 	H 	0.5601	0.6425	0.544	-0.105
Mof_N 	N 	0.5672	0.367	0.4067	-0.212
Mof_C 	C 	0.5165	0.375	0.4333	-0.076
Mof_H 	H 	0.466	0.3362	0.4401	0.109
Mof_H 	H 	0.4093	0.255	0.3775	0.128
Mof_O 	O 	0.765	0.2015	0.4001	-0.171
Mof_O 	O 	0.8722	0.0149	0.432	-0.576
Mof_C 	C 	0.82	0.1219	0.3995	0.11
Mof_H 	H 	0.7987	0.1035	0.4335	0.014
Mof_C 	C 	0.7888	0.1532	0.366	-0.077
Mof_C 	C 	0.884	0.1832	0.3034	-0.088
Mof_H 	H 	0.9088	0.2068	0.2713	0.046
Mof_C 	C 	0.9145	0.1498	0.3358	0.116
Mof_H 	H 	0.9587	0.1491	0.3249	0.01
Mof_O 	O 	0.5395	0.1894	0.3991	-0.378
Mof_H 	H 	0.4125	0.022	0.4884	0.207
Mof_C 	C 	0.4084	0.9373	0.5327	0.217
Mof_H 	H 	0.3575	0.9176	0.544	-0.101
Mof_N 	N 	0.633	0.2002	0.4067	-0.215
Mof_C 	C 	0.625	0.1415	0.4333	-0.081
Mof_H 	H 	0.6638	0.1298	0.4401	0.109
Mof_H 	H 	0.745	0.1543	0.3775	0.128
Mof_O 	O 	0.7985	0.5635	0.4001	-0.174
Mof_O 	O 	0.9851	0.8573	0.432	-0.585
Mof_C 	C 	0.8781	0.6981	0.3995	0.108
Mof_H 	H 	0.8965	0.6952	0.4335	0.013
Mof_C 	C 	0.8468	0.6356	0.366	-0.077
Mof_C 	C 	0.8168	0.7008	0.3034	-0.085
Mof_H 	H 	0.7932	0.702	0.2713	0.045
Mof_C 	C 	0.8502	0.7647	0.3358	0.115
Mof_H 	H 	0.8509	0.8096	0.3249	0.01
Mof_O 	O 	0.8106	0.3501	0.3991	-0.377
Mof_H 	H 	0.978	0.3905	0.4884	0.164
Mof_C 	C 	0.0627	0.4711	0.5327	0.165
Mof_H 	H 	0.0824	0.4399	0.544	-0.077
Mof_N 	N 	0.7998	0.4328	0.4067	-0.208
Mof_C 	C 	0.8585	0.4835	0.4333	-0.097
Mof_H 	H 	0.8702	0.534	0.4401	0.113
Mof_H 	H 	0.8457	0.5907	0.3775	0.128
Mof_O 	O 	0.5635	0.765	0.9001	-0.173
Mof_O 	O 	0.8573	0.8722	0.932	-0.591
Mof_C 	C 	0.6981	0.82	0.8995	0.112
Mof_H 	H 	0.6952	0.7987	0.9335	0.009
Mof_C 	C 	0.6356	0.7888	0.866	-0.078
Mof_C 	C 	0.7008	0.884	0.8034	-0.087
Mof_H 	H 	0.702	0.9088	0.7713	0.045
Mof_C 	C 	0.7647	0.9145	0.8358	0.118
Mof_H 	H 	0.8096	0.9587	0.8249	0.007
Mof_O 	O 	0.3501	0.5395	0.8991	-0.366
Mof_H 	H 	0.3905	0.4125	0.9884	0.039
Mof_C 	C 	0.4711	0.4084	0.0327	0.019
Mof_H 	H 	0.4399	0.3575	0.044	-0.011
Mof_N 	N 	0.4328	0.633	0.9067	-0.196
Mof_C 	C 	0.4835	0.625	0.9333	-0.147
Mof_H 	H 	0.534	0.6638	0.9401	0.121
Mof_H 	H 	0.5907	0.745	0.8775	0.127
Mof_O 	O 	0.235	0.7985	0.9001	-0.173
Mof_O 	O 	0.1278	0.9851	0.932	-0.585
Mof_C 	C 	0.18	0.8781	0.8995	0.11
Mof_H 	H 	0.2013	0.8965	0.9335	0.01
Mof_C 	C 	0.2112	0.8468	0.866	-0.079
Mof_C 	C 	0.116	0.8168	0.8034	-0.086
Mof_H 	H 	0.0912	0.7932	0.7713	0.046
Mof_C 	C 	0.0855	0.8502	0.8358	0.116
Mof_H 	H 	0.0413	0.8509	0.8249	0.012
Mof_O 	O 	0.4605	0.8106	0.8991	-0.364
Mof_H 	H 	0.5875	0.978	0.9884	0.027
Mof_C 	C 	0.5916	0.0627	0.0327	0.004
Mof_H 	H 	0.6425	0.0824	0.044	-0.004
Mof_N 	N 	0.367	0.7998	0.9067	-0.195
Mof_C 	C 	0.375	0.8585	0.9333	-0.151
Mof_H 	H 	0.3362	0.8702	0.9401	0.122
Mof_H 	H 	0.255	0.8457	0.8775	0.127
Mof_O 	O 	0.2015	0.4365	0.9001	-0.174
Mof_O 	O 	0.0149	0.1427	0.932	-0.582
Mof_C 	C 	0.1219	0.3019	0.8995	0.11
Mof_H 	H 	0.1035	0.3048	0.9335	0.011
Mof_C 	C 	0.1532	0.3644	0.866	-0.077
Mof_C 	C 	0.1832	0.2992	0.8034	-0.087
Mof_H 	H 	0.2068	0.298	0.7713	0.045
Mof_C 	C 	0.1498	0.2353	0.8358	0.116
Mof_H 	H 	0.1491	0.1904	0.8249	0.01
Mof_O 	O 	0.1894	0.6499	0.8991	-0.356
Mof_H 	H 	0.022	0.6095	0.9884	0.038
Mof_C 	C 	0.9373	0.5289	0.0327	0.02
Mof_H 	H 	0.9176	0.5601	0.044	-0.011
Mof_N 	N 	0.2002	0.5672	0.9067	-0.204
Mof_C 	C 	0.1415	0.5165	0.9333	-0.152
Mof_H 	H 	0.1298	0.466	0.9401	0.119
Mof_H 	H 	0.1543	0.4093	0.8775	0.127
Mof_O 	O 	0.235	0.4365	0.5999	-0.17
Mof_O 	O 	0.1278	0.1427	0.568	-0.577
Mof_C 	C 	0.18	0.3019	0.6005	0.108
Mof_H 	H 	0.2013	0.3048	0.5665	0.014
Mof_C 	C 	0.2112	0.3644	0.634	-0.079
Mof_C 	C 	0.116	0.2992	0.6966	-0.086
Mof_H 	H 	0.0912	0.298	0.7287	0.046
Mof_C 	C 	0.0855	0.2353	0.6642	0.114
Mof_H 	H 	0.0413	0.1904	0.6751	0.013
Mof_O 	O 	0.4605	0.6499	0.6009	-0.382
Mof_H 	H 	0.5875	0.6095	0.5116	0.214
Mof_C 	C 	0.5916	0.5289	0.4673	0.223
Mof_H 	H 	0.6425	0.5601	0.456	-0.104
Mof_N 	N 	0.367	0.5672	0.5933	-0.213
Mof_C 	C 	0.375	0.5165	0.5667	-0.078
Mof_H 	H 	0.3362	0.466	0.5599	0.11
Mof_H 	H 	0.255	0.4093	0.6225	0.127
Mof_O 	O 	0.2015	0.765	0.5999	-0.174
Mof_O 	O 	0.0149	0.8722	0.568	-0.571
Mof_C 	C 	0.1219	0.82	0.6005	0.107
Mof_H 	H 	0.1035	0.7987	0.5665	0.016
Mof_C 	C 	0.1532	0.7888	0.634	-0.076
Mof_C 	C 	0.1832	0.884	0.6966	-0.086
Mof_H 	H 	0.2068	0.9088	0.7287	0.045
Mof_C 	C 	0.1498	0.9145	0.6642	0.113
Mof_H 	H 	0.1491	0.9587	0.6751	0.012
Mof_O 	O 	0.1894	0.5395	0.6009	-0.365
Mof_H 	H 	0.022	0.4125	0.5116	0.187
Mof_C 	C 	0.9373	0.4084	0.4673	0.195
Mof_H 	H 	0.9176	0.3575	0.456	-0.09
Mof_N 	N 	0.2002	0.633	0.5933	-0.221
Mof_C 	C 	0.1415	0.625	0.5667	-0.094
Mof_H 	H 	0.1298	0.6638	0.5599	0.11
Mof_H 	H 	0.1543	0.745	0.6225	0.128
Mof_O 	O 	0.5635	0.7985	0.5999	-0.172
Mof_O 	O 	0.8573	0.9851	0.568	-0.582
Mof_C 	C 	0.6981	0.8781	0.6005	0.108
Mof_H 	H 	0.6952	0.8965	0.5665	0.013
Mof_C 	C 	0.6356	0.8468	0.634	-0.077
Mof_C 	C 	0.7008	0.8168	0.6966	-0.086
Mof_H 	H 	0.702	0.7932	0.7287	0.045
Mof_C 	C 	0.7647	0.8502	0.6642	0.115
Mof_H 	H 	0.8096	0.8509	0.6751	0.009
Mof_O 	O 	0.3501	0.8106	0.6009	-0.38
Mof_H 	H 	0.3905	0.978	0.5116	0.201
Mof_C 	C 	0.4711	0.0627	0.4673	0.207
Mof_H 	H 	0.4399	0.0824	0.456	-0.096
Mof_N 	N 	0.4328	0.7998	0.5933	-0.212
Mof_C 	C 	0.4835	0.8585	0.5667	-0.083
Mof_H 	H 	0.534	0.8702	0.5599	0.11
Mof_H 	H 	0.5907	0.8457	0.6225	0.127
Mof_O 	O 	0.765	0.5635	0.0999	-0.172
Mof_O 	O 	0.8722	0.8573	0.068	-0.571
Mof_C 	C 	0.82	0.6981	0.1005	0.106
Mof_H 	H 	0.7987	0.6952	0.0665	0.021
Mof_C 	C 	0.7888	0.6356	0.134	-0.076
Mof_C 	C 	0.884	0.7008	0.1966	-0.087
Mof_H 	H 	0.9088	0.702	0.2287	0.045
Mof_C 	C 	0.9145	0.7647	0.1642	0.113
Mof_H 	H 	0.9587	0.8096	0.1751	0.01
Mof_O 	O 	0.5395	0.3501	0.1009	-0.32
Mof_H 	H 	0.4125	0.3905	0.0116	0.118
Mof_C 	C 	0.4084	0.4711	0.9673	0.122
Mof_H 	H 	0.3575	0.4399	0.956	-0.054
Mof_N 	N 	0.633	0.4328	0.0933	-0.245
Mof_C 	C 	0.625	0.4835	0.0667	-0.141
Mof_H 	H 	0.6638	0.534	0.0599	0.114
Mof_H 	H 	0.745	0.5907	0.1225	0.126
Mof_O 	O 	0.7985	0.235	0.0999	-0.172
Mof_O 	O 	0.9851	0.1278	0.068	-0.571
Mof_C 	C 	0.8781	0.18	0.1005	0.104
Mof_H 	H 	0.8965	0.2013	0.0665	0.021
Mof_C 	C 	0.8468	0.2112	0.134	-0.077
Mof_C 	C 	0.8168	0.116	0.1966	-0.085
Mof_H 	H 	0.7932	0.0912	0.2287	0.046
Mof_C 	C 	0.8502	0.0855	0.1642	0.112
Mof_H 	H 	0.8509	0.0413	0.1751	0.014
Mof_O 	O 	0.8106	0.4605	0.1009	-0.323
Mof_H 	H 	0.978	0.5875	0.0116	0.09
Mof_C 	C 	0.0627	0.5916	0.9673	0.089
Mof_H 	H 	0.0824	0.6425	0.956	-0.039
Mof_N 	N 	0.7998	0.367	0.0933	-0.24
Mof_C 	C 	0.8585	0.375	0.0667	-0.15
Mof_H 	H 	0.8702	0.3362	0.0599	0.117
Mof_H 	H 	0.8457	0.255	0.1225	0.126
Mof_O 	O 	0.4365	0.2015	0.0999	-0.172
Mof_O 	O 	0.1427	0.0149	0.068	-0.563
Mof_C 	C 	0.3019	0.1219	0.1005	0.103
Mof_H 	H 	0.3048	0.1035	0.0665	0.023
Mof_C 	C 	0.3644	0.1532	0.134	-0.075
Mof_C 	C 	0.2992	0.1832	0.1966	-0.085
Mof_H 	H 	0.298	0.2068	0.2287	0.046
Mof_C 	C 	0.2353	0.1498	0.1642	0.111
Mof_H 	H 	0.1904	0.1491	0.1751	0.015
Mof_O 	O 	0.6499	0.1894	0.1009	-0.316
Mof_H 	H 	0.6095	0.022	0.0116	0.111
Mof_C 	C 	0.5289	0.9373	0.9673	0.114
Mof_H 	H 	0.5601	0.9176	0.956	-0.05
Mof_N 	N 	0.5672	0.2002	0.0933	-0.246
Mof_C 	C 	0.5165	0.1415	0.0667	-0.145
Mof_H 	H 	0.466	0.1298	0.0599	0.115
Mof_H 	H 	0.4093	0.1543	0.1225	0.126
Mof_O 	O 	0.5635	0.765	0.5999	-0.171
Mof_O 	O 	0.8573	0.8722	0.568	-0.581
Mof_C 	C 	0.6981	0.82	0.6005	0.109
Mof_H 	H 	0.6952	0.7987	0.5665	0.014
Mof_C 	C 	0.6356	0.7888	0.634	-0.078
Mof_C 	C 	0.7008	0.884	0.6966	-0.087
Mof_H 	H 	0.702	0.9088	0.7287	0.045
Mof_C 	C 	0.7647	0.9145	0.6642	0.116
Mof_H 	H 	0.8096	0.9587	0.6751	0.008
Mof_O 	O 	0.3501	0.5395	0.6009	-0.381
Mof_H 	H 	0.3905	0.4125	0.5116	0.214
Mof_C 	C 	0.4711	0.4084	0.4673	0.223
Mof_H 	H 	0.4399	0.3575	0.456	-0.104
Mof_N 	N 	0.4328	0.633	0.5933	-0.213
Mof_C 	C 	0.4835	0.625	0.5667	-0.078
Mof_H 	H 	0.534	0.6638	0.5599	0.109
Mof_H 	H 	0.5907	0.745	0.6225	0.127
Mof_O 	O 	0.235	0.7985	0.5999	-0.17
Mof_O 	O 	0.1278	0.9851	0.568	-0.578
Mof_C 	C 	0.18	0.8781	0.6005	0.108
Mof_H 	H 	0.2013	0.8965	0.5665	0.014
Mof_C 	C 	0.2112	0.8468	0.634	-0.078
Mof_C 	C 	0.116	0.8168	0.6966	-0.086
Mof_H 	H 	0.0912	0.7932	0.7287	0.046
Mof_C 	C 	0.0855	0.8502	0.6642	0.114
Mof_H 	H 	0.0413	0.8509	0.6751	0.013
Mof_O 	O 	0.4605	0.8106	0.6009	-0.38
Mof_H 	H 	0.5875	0.978	0.5116	0.2
Mof_C 	C 	0.5916	0.0627	0.4673	0.206
Mof_H 	H 	0.6425	0.0824	0.456	-0.096
Mof_N 	N 	0.367	0.7998	0.5933	-0.212
Mof_C 	C 	0.375	0.8585	0.5667	-0.083
Mof_H 	H 	0.3362	0.8702	0.5599	0.111
Mof_H 	H 	0.255	0.8457	0.6225	0.127
Mof_O 	O 	0.2015	0.4365	0.5999	-0.174
Mof_O 	O 	0.0149	0.1427	0.568	-0.572
Mof_C 	C 	0.1219	0.3019	0.6005	0.106
Mof_H 	H 	0.1035	0.3048	0.5665	0.016
Mof_C 	C 	0.1532	0.3644	0.634	-0.076
Mof_C 	C 	0.1832	0.2992	0.6966	-0.086
Mof_H 	H 	0.2068	0.298	0.7287	0.045
Mof_C 	C 	0.1498	0.2353	0.6642	0.113
Mof_H 	H 	0.1491	0.1904	0.6751	0.012
Mof_O 	O 	0.1894	0.6499	0.6009	-0.364
Mof_H 	H 	0.022	0.6095	0.5116	0.187
Mof_C 	C 	0.9373	0.5289	0.4673	0.194
Mof_H 	H 	0.9176	0.5601	0.456	-0.09
Mof_N 	N 	0.2002	0.5672	0.5933	-0.221
Mof_C 	C 	0.1415	0.5165	0.5667	-0.095
Mof_H 	H 	0.1298	0.466	0.5599	0.11
Mof_H 	H 	0.1543	0.4093	0.6225	0.127
Mof_O 	O 	0.4365	0.235	0.0999	-0.172
Mof_O 	O 	0.1427	0.1278	0.068	-0.565
Mof_C 	C 	0.3019	0.18	0.1005	0.104
Mof_H 	H 	0.3048	0.2013	0.0665	0.022
Mof_C 	C 	0.3644	0.2112	0.134	-0.077
Mof_C 	C 	0.2992	0.116	0.1966	-0.085
Mof_H 	H 	0.298	0.0912	0.2287	0.047
Mof_C 	C 	0.2353	0.0855	0.1642	0.111
Mof_H 	H 	0.1904	0.0413	0.1751	0.016
Mof_O 	O 	0.6499	0.4605	0.1009	-0.321
Mof_H 	H 	0.6095	0.5875	0.0116	0.118
Mof_C 	C 	0.5289	0.5916	0.9673	0.123
Mof_H 	H 	0.5601	0.6425	0.956	-0.055
Mof_N 	N 	0.5672	0.367	0.0933	-0.246
Mof_C 	C 	0.5165	0.375	0.0667	-0.141
Mof_H 	H 	0.466	0.3362	0.0599	0.114
Mof_H 	H 	0.4093	0.255	0.1225	0.126
Mof_O 	O 	0.765	0.2015	0.0999	-0.172
Mof_O 	O 	0.8722	0.0149	0.068	-0.564
Mof_C 	C 	0.82	0.1219	0.1005	0.104
Mof_H 	H 	0.7987	0.1035	0.0665	0.023
Mof_C 	C 	0.7888	0.1532	0.134	-0.075
Mof_C 	C 	0.884	0.1832	0.1966	-0.087
Mof_H 	H 	0.9088	0.2068	0.2287	0.046
Mof_C 	C 	0.9145	0.1498	0.1642	0.112
Mof_H 	H 	0.9587	0.1491	0.1751	0.012
Mof_O 	O 	0.5395	0.1894	0.1009	-0.317
Mof_H 	H 	0.4125	0.022	0.0116	0.111
Mof_C 	C 	0.4084	0.9373	0.9673	0.115
Mof_H 	H 	0.3575	0.9176	0.956	-0.051
Mof_N 	N 	0.633	0.2002	0.0933	-0.248
Mof_C 	C 	0.625	0.1415	0.0667	-0.145
Mof_H 	H 	0.6638	0.1298	0.0599	0.114
Mof_H 	H 	0.745	0.1543	0.1225	0.126
Mof_O 	O 	0.7985	0.5635	0.0999	-0.172
Mof_O 	O 	0.9851	0.8573	0.068	-0.575
Mof_C 	C 	0.8781	0.6981	0.1005	0.105
Mof_H 	H 	0.8965	0.6952	0.0665	0.02
Mof_C 	C 	0.8468	0.6356	0.134	-0.076
Mof_C 	C 	0.8168	0.7008	0.1966	-0.086
Mof_H 	H 	0.7932	0.702	0.2287	0.046
Mof_C 	C 	0.8502	0.7647	0.1642	0.113
Mof_H 	H 	0.8509	0.8096	0.1751	0.012
Mof_O 	O 	0.8106	0.3501	0.1009	-0.321
Mof_H 	H 	0.978	0.3905	0.0116	0.091
Mof_C 	C 	0.0627	0.4711	0.9673	0.087
Mof_H 	H 	0.0824	0.4399	0.956	-0.039
Mof_N 	N 	0.7998	0.4328	0.0933	-0.239
Mof_C 	C 	0.8585	0.4835	0.0667	-0.151
Mof_H 	H 	0.8702	0.534	0.0599	0.117
Mof_H 	H 	0.8457	0.5907	0.1225	0.126
Mof_O 	O 	0.765	0.5635	0.4001	-0.171
Mof_O 	O 	0.8722	0.8573	0.432	-0.58
Mof_C 	C 	0.82	0.6981	0.3995	0.111
Mof_H 	H 	0.7987	0.6952	0.4335	0.013
Mof_C 	C 	0.7888	0.6356	0.366	-0.078
Mof_C 	C 	0.884	0.7008	0.3034	-0.088
Mof_H 	H 	0.9088	0.702	0.2713	0.046
Mof_C 	C 	0.9145	0.7647	0.3358	0.117
Mof_H 	H 	0.9587	0.8096	0.3249	0.008
Mof_O 	O 	0.5395	0.3501	0.3991	-0.383
Mof_H 	H 	0.4125	0.3905	0.4884	0.214
Mof_C 	C 	0.4084	0.4711	0.5327	0.224
Mof_H 	H 	0.3575	0.4399	0.544	-0.104
Mof_N 	N 	0.633	0.4328	0.4067	-0.212
Mof_C 	C 	0.625	0.4835	0.4333	-0.076
Mof_H 	H 	0.6638	0.534	0.4401	0.109
Mof_H 	H 	0.745	0.5907	0.3775	0.128
Mof_O 	O 	0.7985	0.235	0.4001	-0.173
Mof_O 	O 	0.9851	0.1278	0.432	-0.582
Mof_C 	C 	0.8781	0.18	0.3995	0.108
Mof_H 	H 	0.8965	0.2013	0.4335	0.013
Mof_C 	C 	0.8468	0.2112	0.366	-0.078
Mof_C 	C 	0.8168	0.116	0.3034	-0.085
Mof_H 	H 	0.7932	0.0912	0.2713	0.046
Mof_C 	C 	0.8502	0.0855	0.3358	0.114
Mof_H 	H 	0.8509	0.0413	0.3249	0.012
Mof_O 	O 	0.8106	0.4605	0.3991	-0.377
Mof_H 	H 	0.978	0.5875	0.4884	0.164
Mof_C 	C 	0.0627	0.5916	0.5327	0.164
Mof_H 	H 	0.0824	0.6425	0.544	-0.077
Mof_N 	N 	0.7998	0.367	0.4067	-0.208
Mof_C 	C 	0.8585	0.375	0.4333	-0.097
Mof_H 	H 	0.8702	0.3362	0.4401	0.113
Mof_H 	H 	0.8457	0.255	0.3775	0.128
Mof_O 	O 	0.4365	0.2015	0.4001	-0.172
Mof_O 	O 	0.1427	0.0149	0.432	-0.574
Mof_C 	C 	0.3019	0.1219	0.3995	0.107
Mof_H 	H 	0.3048	0.1035	0.4335	0.015
Mof_C 	C 	0.3644	0.1532	0.366	-0.077
Mof_C 	C 	0.2992	0.1832	0.3034	-0.086
Mof_H 	H 	0.298	0.2068	0.2713	0.046
Mof_C 	C 	0.2353	0.1498	0.3358	0.114
Mof_H 	H 	0.1904	0.1491	0.3249	0.014
Mof_O 	O 	0.6499	0.1894	0.3991	-0.377
Mof_H 	H 	0.6095	0.022	0.4884	0.207
Mof_C 	C 	0.5289	0.9373	0.5327	0.216
Mof_H 	H 	0.5601	0.9176	0.544	-0.101
Mof_N 	N 	0.5672	0.2002	0.4067	-0.214
Mof_C 	C 	0.5165	0.1415	0.4333	-0.081
Mof_H 	H 	0.466	0.1298	0.4401	0.109
Mof_H 	H 	0.4093	0.1543	0.3775	0.128
Mof_O 	O 	0.235	0.4365	0.9001	-0.173
Mof_O 	O 	0.1278	0.1427	0.932	-0.587
Mof_C 	C 	0.18	0.3019	0.8995	0.111
Mof_H 	H 	0.2013	0.3048	0.9335	0.009
Mof_C 	C 	0.2112	0.3644	0.866	-0.079
Mof_C 	C 	0.116	0.2992	0.8034	-0.086
Mof_H 	H 	0.0912	0.298	0.7713	0.046
Mof_C 	C 	0.0855	0.2353	0.8358	0.116
Mof_H 	H 	0.0413	0.1904	0.8249	0.012
Mof_O 	O 	0.4605	0.6499	0.8991	-0.366
Mof_H 	H 	0.5875	0.6095	0.9884	0.04
Mof_C 	C 	0.5916	0.5289	0.0327	0.02
Mof_H 	H 	0.6425	0.5601	0.044	-0.012
Mof_N 	N 	0.367	0.5672	0.9067	-0.197
Mof_C 	C 	0.375	0.5165	0.9333	-0.146
Mof_H 	H 	0.3362	0.466	0.9401	0.12
Mof_H 	H 	0.255	0.4093	0.8775	0.127
Mof_O 	O 	0.2015	0.765	0.9001	-0.174
Mof_O 	O 	0.0149	0.8722	0.932	-0.579
Mof_C 	C 	0.1219	0.82	0.8995	0.109
Mof_H 	H 	0.1035	0.7987	0.9335	0.012
Mof_C 	C 	0.1532	0.7888	0.866	-0.077
Mof_C 	C 	0.1832	0.884	0.8034	-0.087
Mof_H 	H 	0.2068	0.9088	0.7713	0.045
Mof_C 	C 	0.1498	0.9145	0.8358	0.116
Mof_H 	H 	0.1491	0.9587	0.8249	0.011
Mof_O 	O 	0.1894	0.5395	0.8991	-0.355
Mof_H 	H 	0.022	0.4125	0.9884	0.035
Mof_C 	C 	0.9373	0.4084	0.0327	0.017
Mof_H 	H 	0.9176	0.3575	0.044	-0.009
Mof_N 	N 	0.2002	0.633	0.9067	-0.203
Mof_C 	C 	0.1415	0.625	0.9333	-0.152
Mof_H 	H 	0.1298	0.6638	0.9401	0.12
Mof_H 	H 	0.1543	0.745	0.8775	0.127
Mof_O 	O 	0.5635	0.7985	0.9001	-0.174
Mof_O 	O 	0.8573	0.9851	0.932	-0.591
Mof_C 	C 	0.6981	0.8781	0.8995	0.111
Mof_H 	H 	0.6952	0.8965	0.9335	0.009
Mof_C 	C 	0.6356	0.8468	0.866	-0.078
Mof_C 	C 	0.7008	0.8168	0.8034	-0.087
Mof_H 	H 	0.702	0.7932	0.7713	0.045
Mof_C 	C 	0.7647	0.8502	0.8358	0.118
Mof_H 	H 	0.8096	0.8509	0.8249	0.007
Mof_O 	O 	0.3501	0.8106	0.8991	-0.365
Mof_H 	H 	0.3905	0.978	0.9884	0.029
Mof_C 	C 	0.4711	0.0627	0.0327	0.006
Mof_H 	H 	0.4399	0.0824	0.044	-0.005
Mof_N 	N 	0.4328	0.7998	0.9067	-0.196
Mof_C 	C 	0.4835	0.8585	0.9333	-0.151
Mof_H 	H 	0.534	0.8702	0.9401	0.121
Mof_H 	H 	0.5907	0.8457	0.8775	0.127
Mof_Zn	Zn	0.66667	0.33333	0.25	1.15
Mof_Zn	Zn	0.33333	0.66667	0.75	1.151
Mof_Zn	Zn	0.56222	0.28111	0.36305	1.204
Mof_O 	O 	0.174	0.087	0.468	-0.593
Mof_O 	O 	0.1019	0.05095	0.3946	-0.591
Mof_C 	C 	0.1665	0.08325	0.4188	1.089
Mof_C 	C 	0.2364	0.1182	0.3829	-0.404
Mof_C 	C 	0.3645	0.18225	0.3177	-0.011
Mof_C 	C 	0.4303	0.21515	0.2776	-0.007
Mof_N 	N 	0.50339	0.25169	0.29352	-0.227
Mof_H 	H 	0.3876	0.1938	0.2998	0.06
Mof_Zn	Zn	0.71889	0.28111	0.36305	1.204
Mof_O 	O 	0.913	0.087	0.468	-0.595
Mof_O 	O 	0.94905	0.05095	0.3946	-0.597
Mof_C 	C 	0.91675	0.08325	0.4188	1.095
Mof_C 	C 	0.8818	0.1182	0.3829	-0.409
Mof_C 	C 	0.81775	0.18225	0.3177	-0.013
Mof_C 	C 	0.78485	0.21515	0.2776	-0.008
Mof_N 	N 	0.74831	0.2517	0.29352	-0.227
Mof_H 	H 	0.8062	0.1938	0.2998	0.061
Mof_Zn	Zn	0.71889	0.43778	0.36305	1.204
Mof_O 	O 	0.913	0.826	0.468	-0.597
Mof_O 	O 	0.94905	0.8981	0.3946	-0.602
Mof_C 	C 	0.91675	0.8335	0.4188	1.1
Mof_C 	C 	0.8818	0.7636	0.3829	-0.412
Mof_C 	C 	0.81775	0.6355	0.3177	-0.014
Mof_C 	C 	0.78485	0.5697	0.2776	-0.008
Mof_N 	N 	0.7483	0.49661	0.29352	-0.227
Mof_H 	H 	0.8062	0.6124	0.2998	0.062
Mof_Zn	Zn	0.43778	0.71889	0.86305	1.201
Mof_O 	O 	0.826	0.913	0.968	-0.613
Mof_O 	O 	0.8981	0.94905	0.8946	-0.606
Mof_C 	C 	0.8335	0.91675	0.9188	1.114
Mof_C 	C 	0.7636	0.8818	0.8829	-0.42
Mof_C 	C 	0.6355	0.81775	0.8177	-0.017
Mof_C 	C 	0.5697	0.78485	0.7776	-0.01
Mof_N 	N 	0.49661	0.74831	0.79352	-0.228
Mof_H 	H 	0.6124	0.8062	0.7998	0.065
Mof_Zn	Zn	0.28111	0.71889	0.86305	1.201
Mof_O 	O 	0.087	0.913	0.968	-0.607
Mof_O 	O 	0.05095	0.94905	0.8946	-0.594
Mof_C 	C 	0.08325	0.91675	0.9188	1.1
Mof_C 	C 	0.1182	0.8818	0.8829	-0.412
Mof_C 	C 	0.18225	0.81775	0.8177	-0.014
Mof_C 	C 	0.21515	0.78485	0.7776	-0.008
Mof_N 	N 	0.25169	0.7483	0.79352	-0.228
Mof_H 	H 	0.1938	0.8062	0.7998	0.062
Mof_Zn	Zn	0.28111	0.56222	0.86305	1.201
Mof_O 	O 	0.087	0.174	0.968	-0.61
Mof_O 	O 	0.05095	0.1019	0.8946	-0.597
Mof_C 	C 	0.08325	0.1665	0.9188	1.105
Mof_C 	C 	0.1182	0.2364	0.8829	-0.414
Mof_C 	C 	0.18225	0.3645	0.8177	-0.015
Mof_C 	C 	0.21515	0.4303	0.7776	-0.009
Mof_N 	N 	0.2517	0.50339	0.79352	-0.228
Mof_H 	H 	0.1938	0.3876	0.7998	0.063
Mof_Zn	Zn	0.28111	0.56222	0.63695	1.204
Mof_O 	O 	0.087	0.174	0.532	-0.591
Mof_O 	O 	0.05095	0.1019	0.6054	-0.592
Mof_C 	C 	0.08325	0.1665	0.5812	1.088
Mof_C 	C 	0.1182	0.2364	0.6171	-0.404
Mof_C 	C 	0.18225	0.3645	0.6823	-0.012
Mof_C 	C 	0.21515	0.4303	0.7224	-0.005
Mof_N 	N 	0.25169	0.50339	0.70648	-0.228
Mof_H 	H 	0.1938	0.3876	0.7002	0.06
Mof_Zn	Zn	0.28111	0.71889	0.63695	1.204
Mof_O 	O 	0.087	0.913	0.532	-0.591
Mof_O 	O 	0.05095	0.94905	0.6054	-0.592
Mof_C 	C 	0.08325	0.91675	0.5812	1.089
Mof_C 	C 	0.1182	0.8818	0.6171	-0.404
Mof_C 	C 	0.18225	0.81775	0.6823	-0.012
Mof_C 	C 	0.21515	0.78485	0.7224	-0.006
Mof_N 	N 	0.2517	0.74831	0.70648	-0.228
Mof_H 	H 	0.1938	0.8062	0.7002	0.06
Mof_Zn	Zn	0.43778	0.71889	0.63695	1.204
Mof_O 	O 	0.826	0.913	0.532	-0.596
Mof_O 	O 	0.8981	0.94905	0.6054	-0.602
Mof_C 	C 	0.8335	0.91675	0.5812	1.099
Mof_C 	C 	0.7636	0.8818	0.6171	-0.411
Mof_C 	C 	0.6355	0.81775	0.6823	-0.015
Mof_C 	C 	0.5697	0.78485	0.7224	-0.007
Mof_N 	N 	0.49661	0.7483	0.70648	-0.228
Mof_H 	H 	0.6124	0.8062	0.7002	0.062
Mof_Zn	Zn	0.71889	0.43778	0.13695	1.201
Mof_O 	O 	0.913	0.826	0.032	-0.579
Mof_O 	O 	0.94905	0.8981	0.1054	-0.6
Mof_C 	C 	0.91675	0.8335	0.0812	1.085
Mof_C 	C 	0.8818	0.7636	0.1171	-0.401
Mof_C 	C 	0.81775	0.6355	0.1823	-0.01
Mof_C 	C 	0.78485	0.5697	0.2224	-0.005
Mof_N 	N 	0.74831	0.49661	0.20648	-0.23
Mof_H 	H 	0.8062	0.6124	0.2002	0.058
Mof_Zn	Zn	0.71889	0.28111	0.13695	1.201
Mof_O 	O 	0.913	0.087	0.032	-0.574
Mof_O 	O 	0.94905	0.05095	0.1054	-0.593
Mof_C 	C 	0.91675	0.08325	0.0812	1.076
Mof_C 	C 	0.8818	0.1182	0.1171	-0.396
Mof_C 	C 	0.81775	0.18225	0.1823	-0.008
Mof_C 	C 	0.78485	0.21515	0.2224	-0.004
Mof_N 	N 	0.7483	0.25169	0.20648	-0.23
Mof_H 	H 	0.8062	0.1938	0.2002	0.056
Mof_Zn	Zn	0.56222	0.28111	0.13695	1.201
Mof_O 	O 	0.174	0.087	0.032	-0.573
Mof_O 	O 	0.1019	0.05095	0.1054	-0.588
Mof_C 	C 	0.1665	0.08325	0.0812	1.072
Mof_C 	C 	0.2364	0.1182	0.1171	-0.393
Mof_C 	C 	0.3645	0.18225	0.1823	-0.007
Mof_C 	C 	0.4303	0.21515	0.2224	-0.003
Mof_N 	N 	0.50339	0.2517	0.20648	-0.23
Mof_H 	H 	0.3876	0.1938	0.2002	0.055
Mof_Zn	Zn	1.14427e-32	0	0.42536	1.127
Mof_Zn	Zn	-0	0	0.92536	1.121
Mof_Zn	Zn	5.72135e-33	0	0.57464	1.126
Mof_Zn	Zn	7.15169e-34	-1.43034e-33	0.07464	1.127
Mof_Zn	Zn	0.05241	0.10482	0.4721	1.143
Mof_Zn	Zn	0.89518	0.94759	0.4721	1.139
Mof_Zn	Zn	0.05241	0.94759	0.4721	1.143
Mof_Zn	Zn	0.94759	0.89518	0.9721	1.126
Mof_Zn	Zn	0.10482	0.05241	0.9721	1.129
Mof_Zn	Zn	0.94759	0.05241	0.9721	1.125
Mof_Zn	Zn	0.10482	0.05241	0.5279	1.141
Mof_Zn	Zn	0.94759	0.89518	0.5279	1.137
Mof_Zn	Zn	0.94759	0.05241	0.5279	1.139
Mof_Zn	Zn	0.89518	0.94759	0.0279	1.145
Mof_Zn	Zn	0.05241	0.10482	0.0279	1.15
Mof_Zn	Zn	0.05241	0.94759	0.0279	1.147
Mof_O 	O 	-0	0	0.5	-1.554
Mof_O 	O 	-0	0	-0	-1.526
Mof_O 	O 	0.66667	0.33333	0.33326	-0.926
Mof_O 	O 	0.33333	0.66667	0.83326	-0.929
Mof_O 	O 	0.33333	0.66667	0.66674	-0.926
Mof_O 	O 	0.66667	0.33333	0.16674	-0.927
Mof_N 	N 	0.5469	0.27345	0.25	-0.239
Mof_N 	N 	0.72655	0.27345	0.25	-0.239
Mof_N 	N 	0.72655	0.4531	0.25	-0.239
Mof_N 	N 	0.4531	0.72655	0.75	-0.239
Mof_N 	N 	0.27345	0.72655	0.75	-0.239
Mof_N 	N 	0.27345	0.5469	0.75	-0.239
Mof_C 	C 	0.5494	0.4506	0.4499	-0.445
Mof_C 	C 	0.5157	0.4843	0.4837	0.415
Mof_C 	C 	0.582	0.418	0.4133	0.773
Mof_C 	C 	0.5494	0.0988	0.4499	-0.427
Mof_C 	C 	0.5157	0.0314	0.4837	0.401
Mof_C 	C 	0.582	0.164	0.4133	0.772
Mof_C 	C 	0.9012	0.4506	0.4499	-0.379
Mof_C 	C 	0.9686	0.4843	0.4837	0.304
Mof_C 	C 	0.836	0.418	0.4133	0.759
Mof_C 	C 	0.4506	0.5494	0.9499	-0.216
Mof_C 	C 	0.4843	0.5157	0.9837	0.03
Mof_C 	C 	0.418	0.582	0.9133	0.72
Mof_C 	C 	0.4506	0.9012	0.9499	-0.2
Mof_C 	C 	0.4843	0.9686	0.9837	0.004
Mof_C 	C 	0.418	0.836	0.9133	0.716
Mof_C 	C 	0.0988	0.5494	0.9499	-0.19
Mof_C 	C 	0.0314	0.5157	0.9837	0.03
Mof_C 	C 	0.164	0.582	0.9133	0.72
Mof_C 	C 	0.4506	0.5494	0.5501	-0.445
Mof_C 	C 	0.4843	0.5157	0.5163	0.414
Mof_C 	C 	0.418	0.582	0.5867	0.775
Mof_C 	C 	0.0988	0.5494	0.5501	-0.379
Mof_C 	C 	0.0314	0.5157	0.5163	0.363
Mof_C 	C 	0.164	0.582	0.5867	0.77
Mof_C 	C 	0.4506	0.9012	0.5501	-0.426
Mof_C 	C 	0.4843	0.9686	0.5163	0.383
Mof_C 	C 	0.418	0.836	0.5867	0.771
Mof_C 	C 	0.5494	0.4506	0.0501	-0.216
Mof_C 	C 	0.5157	0.4843	0.0163	0.235
Mof_C 	C 	0.582	0.418	0.0867	0.764
Mof_C 	C 	0.9012	0.4506	0.0501	-0.19
Mof_C 	C 	0.9686	0.4843	0.0163	0.171
Mof_C 	C 	0.836	0.418	0.0867	0.755
Mof_C 	C 	0.5494	0.0988	0.0501	-0.199
Mof_C 	C 	0.5157	0.0314	0.0163	0.222
Mof_C 	C 	0.582	0.164	0.0867	0.763
Mof_C 	C 	0.5584	0.5584	0.5	-0.839
Mof_C 	C 	0.4416	0	0.5	-0.794
Mof_C 	C 	-2.44419e-17	0.4416	0.5	-0.673
Mof_C 	C 	0.4416	0.4416	-0	-0.258
Mof_C 	C 	0.5584	0	-0	-0.215
Mof_C 	C 	-0	0.5584	-0	-0.196
Mof_C 	C 	0.4416	0.4416	0.5	-0.839
Mof_C 	C 	0.5584	0	0.5	-0.792
Mof_C 	C 	2.70915e-17	0.5584	0.5	-0.672
Mof_C 	C 	0.5584	0.5584	-0	-0.261
Mof_C 	C 	0.4416	0	-0	-0.22
Mof_C 	C 	-0	0.4416	-0	-0.191
_end
