data_functionalizedCrystal
_audit_creation_method	'EQeq! by Chris Wilmer'
_symmetry_space_group_name_H-M	'P1'
_symmetry_Int_Tables_number	1
_symmetry_cell_setting	triclinic
loop_
_symmetry_equiv_pos_as_xyz
  x,y,z
_cell_length_a	17.039
_cell_length_b	17.039
_cell_length_c	17.039
_cell_angle_alpha	90
_cell_angle_beta	90
_cell_angle_gamma	90
loop_
_atom_site_label
_atom_site_type_symbol
_atom_site_fract_x
_atom_site_fract_y
_atom_site_fract_z
_atom_site_charge
Mof_N 	N 	0.03167	0.68257	0.41058	-0.401
Mof_C 	C 	0.1012	0.6868	0.3691	-0.03
Mof_H 	H 	0.1415	0.7225	0.3782	-0.004
Mof_H 	H 	0.9101	0.6034	0.4613	0.094
Mof_H 	H 	0.9097	0.6044	0.4611	0.096
Mof_N 	N 	0.53167	0.18257	0.91058	-0.288
Mof_C 	C 	0.6012	0.1868	0.8691	-0.011
Mof_H 	H 	0.6415	0.2225	0.8782	0.007
Mof_H 	H 	0.4101	0.1034	0.9613	0.075
Mof_H 	H 	0.4097	0.1044	0.9611	0.076
Mof_N 	N 	0.96833	0.31743	0.41058	-0.215
Mof_C 	C 	0.8988	0.3132	0.3691	-0.011
Mof_H 	H 	0.8585	0.2775	0.3782	-0.004
Mof_H 	H 	0.0899	0.3966	0.4613	0.041
Mof_H 	H 	0.0903	0.3956	0.4611	0.042
Mof_N 	N 	0.46833	0.81743	0.91058	-0.292
Mof_C 	C 	0.3988	0.8132	0.8691	-0.006
Mof_H 	H 	0.3585	0.7775	0.8782	0.009
Mof_H 	H 	0.5899	0.8966	0.9613	0.101
Mof_H 	H 	0.5903	0.8956	0.9611	0.104
Mof_N 	N 	0.96833	0.68257	0.58942	-0.213
Mof_C 	C 	0.8988	0.6868	0.6309	-0.005
Mof_H 	H 	0.8585	0.7225	0.6218	0
Mof_H 	H 	0.0899	0.6034	0.5387	0.041
Mof_H 	H 	0.0903	0.6044	0.5389	0.042
Mof_N 	N 	0.46833	0.18257	0.08942	-0.324
Mof_C 	C 	0.3988	0.1868	0.1309	-0.035
Mof_H 	H 	0.3585	0.2225	0.1218	-0.021
Mof_H 	H 	0.5899	0.1034	0.0387	0.037
Mof_H 	H 	0.5903	0.1044	0.0389	0.038
Mof_N 	N 	0.03167	0.31743	0.58942	-0.401
Mof_C 	C 	0.1012	0.3132	0.6309	-0.031
Mof_H 	H 	0.1415	0.2775	0.6218	-0.004
Mof_H 	H 	0.9101	0.3966	0.5387	0.095
Mof_H 	H 	0.9097	0.3956	0.5389	0.097
Mof_N 	N 	0.53167	0.81743	0.08942	-0.325
Mof_C 	C 	0.6012	0.8132	0.1309	-0.025
Mof_H 	H 	0.6415	0.7775	0.1218	-0.007
Mof_H 	H 	0.4101	0.8966	0.0387	0.058
Mof_H 	H 	0.4097	0.8956	0.0389	0.06
Mof_N 	N 	0.41058	0.03167	0.68257	-0.4
Mof_C 	C 	0.3691	0.1012	0.6868	-0.029
Mof_H 	H 	0.3782	0.1415	0.7225	-0.003
Mof_H 	H 	0.4613	0.9101	0.6034	0.095
Mof_H 	H 	0.4611	0.9097	0.6044	0.097
Mof_N 	N 	0.91058	0.53167	0.18257	-0.287
Mof_C 	C 	0.8691	0.6012	0.1868	-0.01
Mof_H 	H 	0.8782	0.6415	0.2225	0.008
Mof_H 	H 	0.9613	0.4101	0.1034	0.076
Mof_H 	H 	0.9611	0.4097	0.1044	0.077
Mof_N 	N 	0.41058	0.96833	0.31743	-0.214
Mof_C 	C 	0.3691	0.8988	0.3132	-0.01
Mof_H 	H 	0.3782	0.8585	0.2775	-0.003
Mof_H 	H 	0.4613	0.0899	0.3966	0.042
Mof_H 	H 	0.4611	0.0903	0.3956	0.043
Mof_N 	N 	0.91058	0.46833	0.81743	-0.291
Mof_C 	C 	0.8691	0.3988	0.8132	-0.005
Mof_H 	H 	0.8782	0.3585	0.7775	0.01
Mof_H 	H 	0.9613	0.5899	0.8966	0.102
Mof_H 	H 	0.9611	0.5903	0.8956	0.105
Mof_N 	N 	0.58942	0.96833	0.68257	-0.212
Mof_C 	C 	0.6309	0.8988	0.6868	-0.004
Mof_H 	H 	0.6218	0.8585	0.7225	0.001
Mof_H 	H 	0.5387	0.0899	0.6034	0.042
Mof_H 	H 	0.5389	0.0903	0.6044	0.043
Mof_N 	N 	0.08942	0.46833	0.18257	-0.323
Mof_C 	C 	0.1309	0.3988	0.1868	-0.034
Mof_H 	H 	0.1218	0.3585	0.2225	-0.02
Mof_H 	H 	0.0387	0.5899	0.1034	0.038
Mof_H 	H 	0.0389	0.5903	0.1044	0.039
Mof_N 	N 	0.58942	0.03167	0.31743	-0.4
Mof_C 	C 	0.6309	0.1012	0.3132	-0.03
Mof_H 	H 	0.6218	0.1415	0.2775	-0.003
Mof_H 	H 	0.5387	0.9101	0.3966	0.095
Mof_H 	H 	0.5389	0.9097	0.3956	0.097
Mof_N 	N 	0.08942	0.53167	0.81743	-0.325
Mof_C 	C 	0.1309	0.6012	0.8132	-0.025
Mof_H 	H 	0.1218	0.6415	0.7775	-0.007
Mof_H 	H 	0.0387	0.4101	0.8966	0.058
Mof_H 	H 	0.0389	0.4097	0.8956	0.06
Mof_N 	N 	0.68257	0.41058	0.03167	-0.4
Mof_C 	C 	0.6868	0.3691	0.1012	-0.029
Mof_H 	H 	0.7225	0.3782	0.1415	-0.003
Mof_H 	H 	0.6034	0.4613	0.9101	0.095
Mof_H 	H 	0.6044	0.4611	0.9097	0.097
Mof_N 	N 	0.18257	0.91058	0.53167	-0.287
Mof_C 	C 	0.1868	0.8691	0.6012	-0.01
Mof_H 	H 	0.2225	0.8782	0.6415	0.008
Mof_H 	H 	0.1034	0.9613	0.4101	0.076
Mof_H 	H 	0.1044	0.9611	0.4097	0.077
Mof_N 	N 	0.31743	0.41058	0.96833	-0.214
Mof_C 	C 	0.3132	0.3691	0.8988	-0.01
Mof_H 	H 	0.2775	0.3782	0.8585	-0.003
Mof_H 	H 	0.3966	0.4613	0.0899	0.042
Mof_H 	H 	0.3956	0.4611	0.0903	0.043
Mof_N 	N 	0.81743	0.91058	0.46833	-0.291
Mof_C 	C 	0.8132	0.8691	0.3988	-0.005
Mof_H 	H 	0.7775	0.8782	0.3585	0.01
Mof_H 	H 	0.8966	0.9613	0.5899	0.102
Mof_H 	H 	0.8956	0.9611	0.5903	0.105
Mof_N 	N 	0.68257	0.58942	0.96833	-0.212
Mof_C 	C 	0.6868	0.6309	0.8988	-0.004
Mof_H 	H 	0.7225	0.6218	0.8585	0.001
Mof_H 	H 	0.6034	0.5387	0.0899	0.042
Mof_H 	H 	0.6044	0.5389	0.0903	0.043
Mof_N 	N 	0.18257	0.08942	0.46833	-0.323
Mof_C 	C 	0.1868	0.1309	0.3988	-0.034
Mof_H 	H 	0.2225	0.1218	0.3585	-0.02
Mof_H 	H 	0.1034	0.0387	0.5899	0.038
Mof_H 	H 	0.1044	0.0389	0.5903	0.039
Mof_N 	N 	0.31743	0.58942	0.03167	-0.4
Mof_C 	C 	0.3132	0.6309	0.1012	-0.03
Mof_H 	H 	0.2775	0.6218	0.1415	-0.003
Mof_H 	H 	0.3966	0.5387	0.9101	0.095
Mof_H 	H 	0.3956	0.5389	0.9097	0.097
Mof_N 	N 	0.81743	0.08942	0.53167	-0.325
Mof_C 	C 	0.8132	0.1309	0.6012	-0.025
Mof_H 	H 	0.7775	0.1218	0.6415	-0.007
Mof_H 	H 	0.8966	0.0387	0.4101	0.058
Mof_H 	H 	0.8956	0.0389	0.4097	0.06
Mof_N 	N 	0.68257	0.03167	0.41058	-0.4
Mof_C 	C 	0.6868	0.1012	0.3691	-0.029
Mof_H 	H 	0.7225	0.1415	0.3782	-0.003
Mof_H 	H 	0.6034	0.9101	0.4613	0.095
Mof_H 	H 	0.6044	0.9097	0.4611	0.097
Mof_N 	N 	0.18257	0.53167	0.91058	-0.287
Mof_C 	C 	0.1868	0.6012	0.8691	-0.01
Mof_H 	H 	0.2225	0.6415	0.8782	0.008
Mof_H 	H 	0.1034	0.4101	0.9613	0.076
Mof_H 	H 	0.1044	0.4097	0.9611	0.077
Mof_N 	N 	0.31743	0.96833	0.41058	-0.214
Mof_C 	C 	0.3132	0.8988	0.3691	-0.01
Mof_H 	H 	0.2775	0.8585	0.3782	-0.003
Mof_H 	H 	0.3966	0.0899	0.4613	0.042
Mof_H 	H 	0.3956	0.0903	0.4611	0.043
Mof_N 	N 	0.81743	0.46833	0.91058	-0.291
Mof_C 	C 	0.8132	0.3988	0.8691	-0.005
Mof_H 	H 	0.7775	0.3585	0.8782	0.01
Mof_H 	H 	0.8966	0.5899	0.9613	0.102
Mof_H 	H 	0.8956	0.5903	0.9611	0.105
Mof_N 	N 	0.68257	0.96833	0.58942	-0.212
Mof_C 	C 	0.6868	0.8988	0.6309	-0.004
Mof_H 	H 	0.7225	0.8585	0.6218	0.001
Mof_H 	H 	0.6034	0.0899	0.5387	0.042
Mof_H 	H 	0.6044	0.0903	0.5389	0.043
Mof_N 	N 	0.18257	0.46833	0.08942	-0.323
Mof_C 	C 	0.1868	0.3988	0.1309	-0.034
Mof_H 	H 	0.2225	0.3585	0.1218	-0.02
Mof_H 	H 	0.1034	0.5899	0.0387	0.038
Mof_H 	H 	0.1044	0.5903	0.0389	0.039
Mof_N 	N 	0.31743	0.03167	0.58942	-0.4
Mof_C 	C 	0.3132	0.1012	0.6309	-0.03
Mof_H 	H 	0.2775	0.1415	0.6218	-0.003
Mof_H 	H 	0.3966	0.9101	0.5387	0.095
Mof_H 	H 	0.3956	0.9097	0.5389	0.097
Mof_N 	N 	0.81743	0.53167	0.08942	-0.325
Mof_C 	C 	0.8132	0.6012	0.1309	-0.025
Mof_H 	H 	0.7775	0.6415	0.1218	-0.007
Mof_H 	H 	0.8966	0.4101	0.0387	0.058
Mof_H 	H 	0.8956	0.4097	0.0389	0.06
Mof_N 	N 	0.03167	0.41058	0.68257	-0.4
Mof_C 	C 	0.1012	0.3691	0.6868	-0.029
Mof_H 	H 	0.1415	0.3782	0.7225	-0.003
Mof_H 	H 	0.9101	0.4613	0.6034	0.095
Mof_H 	H 	0.9097	0.4611	0.6044	0.097
Mof_N 	N 	0.53167	0.91058	0.18257	-0.287
Mof_C 	C 	0.6012	0.8691	0.1868	-0.01
Mof_H 	H 	0.6415	0.8782	0.2225	0.008
Mof_H 	H 	0.4101	0.9613	0.1034	0.076
Mof_H 	H 	0.4097	0.9611	0.1044	0.077
Mof_N 	N 	0.96833	0.41058	0.31743	-0.214
Mof_C 	C 	0.8988	0.3691	0.3132	-0.01
Mof_H 	H 	0.8585	0.3782	0.2775	-0.003
Mof_H 	H 	0.0899	0.4613	0.3966	0.042
Mof_H 	H 	0.0903	0.4611	0.3956	0.043
Mof_N 	N 	0.46833	0.91058	0.81743	-0.291
Mof_C 	C 	0.3988	0.8691	0.8132	-0.005
Mof_H 	H 	0.3585	0.8782	0.7775	0.01
Mof_H 	H 	0.5899	0.9613	0.8966	0.102
Mof_H 	H 	0.5903	0.9611	0.8956	0.105
Mof_N 	N 	0.96833	0.58942	0.68257	-0.212
Mof_C 	C 	0.8988	0.6309	0.6868	-0.004
Mof_H 	H 	0.8585	0.6218	0.7225	0.001
Mof_H 	H 	0.0899	0.5387	0.6034	0.042
Mof_H 	H 	0.0903	0.5389	0.6044	0.043
Mof_N 	N 	0.46833	0.08942	0.18257	-0.323
Mof_C 	C 	0.3988	0.1309	0.1868	-0.034
Mof_H 	H 	0.3585	0.1218	0.2225	-0.02
Mof_H 	H 	0.5899	0.0387	0.1034	0.038
Mof_H 	H 	0.5903	0.0389	0.1044	0.039
Mof_N 	N 	0.03167	0.58942	0.31743	-0.4
Mof_C 	C 	0.1012	0.6309	0.3132	-0.03
Mof_H 	H 	0.1415	0.6218	0.2775	-0.003
Mof_H 	H 	0.9101	0.5387	0.3966	0.095
Mof_H 	H 	0.9097	0.5389	0.3956	0.097
Mof_N 	N 	0.53167	0.08942	0.81743	-0.325
Mof_C 	C 	0.6012	0.1309	0.8132	-0.025
Mof_H 	H 	0.6415	0.1218	0.7775	-0.007
Mof_H 	H 	0.4101	0.0387	0.8966	0.058
Mof_H 	H 	0.4097	0.0389	0.8956	0.06
Mof_N 	N 	0.41058	0.68257	0.03167	-0.4
Mof_C 	C 	0.3691	0.6868	0.1012	-0.029
Mof_H 	H 	0.3782	0.7225	0.1415	-0.003
Mof_H 	H 	0.4613	0.6034	0.9101	0.095
Mof_H 	H 	0.4611	0.6044	0.9097	0.097
Mof_N 	N 	0.91058	0.18257	0.53167	-0.287
Mof_C 	C 	0.8691	0.1868	0.6012	-0.01
Mof_H 	H 	0.8782	0.2225	0.6415	0.008
Mof_H 	H 	0.9613	0.1034	0.4101	0.076
Mof_H 	H 	0.9611	0.1044	0.4097	0.077
Mof_N 	N 	0.41058	0.31743	0.96833	-0.214
Mof_C 	C 	0.3691	0.3132	0.8988	-0.01
Mof_H 	H 	0.3782	0.2775	0.8585	-0.003
Mof_H 	H 	0.4613	0.3966	0.0899	0.042
Mof_H 	H 	0.4611	0.3956	0.0903	0.043
Mof_N 	N 	0.91058	0.81743	0.46833	-0.291
Mof_C 	C 	0.8691	0.8132	0.3988	-0.005
Mof_H 	H 	0.8782	0.7775	0.3585	0.01
Mof_H 	H 	0.9613	0.8966	0.5899	0.102
Mof_H 	H 	0.9611	0.8956	0.5903	0.105
Mof_N 	N 	0.58942	0.68257	0.96833	-0.212
Mof_C 	C 	0.6309	0.6868	0.8988	-0.004
Mof_H 	H 	0.6218	0.7225	0.8585	0.001
Mof_H 	H 	0.5387	0.6034	0.0899	0.042
Mof_H 	H 	0.5389	0.6044	0.0903	0.043
Mof_N 	N 	0.08942	0.18257	0.46833	-0.323
Mof_C 	C 	0.1309	0.1868	0.3988	-0.034
Mof_H 	H 	0.1218	0.2225	0.3585	-0.02
Mof_H 	H 	0.0387	0.1034	0.5899	0.038
Mof_H 	H 	0.0389	0.1044	0.5903	0.039
Mof_N 	N 	0.58942	0.31743	0.03167	-0.4
Mof_C 	C 	0.6309	0.3132	0.1012	-0.03
Mof_H 	H 	0.6218	0.2775	0.1415	-0.003
Mof_H 	H 	0.5387	0.3966	0.9101	0.095
Mof_H 	H 	0.5389	0.3956	0.9097	0.097
Mof_N 	N 	0.08942	0.81743	0.53167	-0.325
Mof_C 	C 	0.1309	0.8132	0.6012	-0.025
Mof_H 	H 	0.1218	0.7775	0.6415	-0.007
Mof_H 	H 	0.0387	0.8966	0.4101	0.058
Mof_H 	H 	0.0389	0.8956	0.4097	0.06
Mof_Zn	Zn	1.8747e-33	0.75	0.5	1.141
Mof_Zn	Zn	-8.33112e-33	0.25	0.5	1.139
Mof_Zn	Zn	0.5	0	0.75	1.141
Mof_Zn	Zn	0.5	0	0.25	1.139
Mof_Zn	Zn	0.75	0.5	-0	1.141
Mof_Zn	Zn	0.25	0.5	-0	1.139
Mof_Zn	Zn	0.75	0	0.5	1.141
Mof_Zn	Zn	0.25	0	0.5	1.139
Mof_Zn	Zn	2.81205e-33	0.5	0.75	1.141
Mof_Zn	Zn	-4.16556e-33	0.5	0.25	1.139
Mof_Zn	Zn	0.5	0.75	-0	1.141
Mof_Zn	Zn	0.5	0.25	-0	1.139
Mof_C 	C 	0.9936	0.62271	0.37729	0.427
Mof_C 	C 	0.9145	0.5941	0.4059	-0.72
Mof_H 	H 	0.8736	0.6215	0.3785	0.218
Mof_C 	C 	0.4936	0.12271	0.87729	0.206
Mof_C 	C 	0.4145	0.0941	0.9059	-0.562
Mof_H 	H 	0.3736	0.1215	0.8785	0.163
Mof_C 	C 	0.0064	0.37729	0.37729	-0.013
Mof_C 	C 	0.0855	0.4059	0.4059	-0.414
Mof_H 	H 	0.1264	0.3785	0.3785	0.117
Mof_C 	C 	0.5064	0.87729	0.87729	0.256
Mof_C 	C 	0.5855	0.9059	0.9059	-0.646
Mof_H 	H 	0.6264	0.8785	0.8785	0.217
Mof_C 	C 	0.0064	0.62271	0.62271	-0.009
Mof_C 	C 	0.0855	0.5941	0.5941	-0.417
Mof_H 	H 	0.1264	0.6215	0.6215	0.119
Mof_C 	C 	0.5064	0.12271	0.12271	0.162
Mof_C 	C 	0.5855	0.0941	0.0941	-0.501
Mof_H 	H 	0.6264	0.1215	0.1215	0.13
Mof_C 	C 	0.9936	0.37729	0.62271	0.427
Mof_C 	C 	0.9145	0.4059	0.5941	-0.72
Mof_H 	H 	0.8736	0.3785	0.6215	0.218
Mof_C 	C 	0.4936	0.87729	0.12271	0.206
Mof_C 	C 	0.4145	0.9059	0.0941	-0.562
Mof_H 	H 	0.3736	0.8785	0.1215	0.163
Mof_C 	C 	0.37729	0.9936	0.62271	0.427
Mof_C 	C 	0.4059	0.9145	0.5941	-0.72
Mof_H 	H 	0.3785	0.8736	0.6215	0.218
Mof_C 	C 	0.87729	0.4936	0.12271	0.206
Mof_C 	C 	0.9059	0.4145	0.0941	-0.562
Mof_H 	H 	0.8785	0.3736	0.1215	0.163
Mof_C 	C 	0.37729	0.0064	0.37729	-0.013
Mof_C 	C 	0.4059	0.0855	0.4059	-0.414
Mof_H 	H 	0.3785	0.1264	0.3785	0.117
Mof_C 	C 	0.87729	0.5064	0.87729	0.256
Mof_C 	C 	0.9059	0.5855	0.9059	-0.646
Mof_H 	H 	0.8785	0.6264	0.8785	0.217
Mof_C 	C 	0.62271	0.0064	0.62271	-0.009
Mof_C 	C 	0.5941	0.0855	0.5941	-0.417
Mof_H 	H 	0.6215	0.1264	0.6215	0.119
Mof_C 	C 	0.12271	0.5064	0.12271	0.162
Mof_C 	C 	0.0941	0.5855	0.0941	-0.501
Mof_H 	H 	0.1215	0.6264	0.1215	0.13
Mof_C 	C 	0.62271	0.9936	0.37729	0.427
Mof_C 	C 	0.5941	0.9145	0.4059	-0.72
Mof_H 	H 	0.6215	0.8736	0.3785	0.218
Mof_C 	C 	0.12271	0.4936	0.87729	0.206
Mof_C 	C 	0.0941	0.4145	0.9059	-0.562
Mof_H 	H 	0.1215	0.3736	0.8785	0.163
Mof_C 	C 	0.62271	0.37729	0.9936	0.427
Mof_C 	C 	0.5941	0.4059	0.9145	-0.72
Mof_H 	H 	0.6215	0.3785	0.8736	0.218
Mof_C 	C 	0.12271	0.87729	0.4936	0.206
Mof_C 	C 	0.0941	0.9059	0.4145	-0.562
Mof_H 	H 	0.1215	0.8785	0.3736	0.163
Mof_C 	C 	0.37729	0.37729	0.0064	-0.013
Mof_C 	C 	0.4059	0.4059	0.0855	-0.414
Mof_H 	H 	0.3785	0.3785	0.1264	0.117
Mof_C 	C 	0.87729	0.87729	0.5064	0.256
Mof_C 	C 	0.9059	0.9059	0.5855	-0.646
Mof_H 	H 	0.8785	0.8785	0.6264	0.217
Mof_C 	C 	0.62271	0.62271	0.0064	-0.009
Mof_C 	C 	0.5941	0.5941	0.0855	-0.417
Mof_H 	H 	0.6215	0.6215	0.1264	0.119
Mof_C 	C 	0.12271	0.12271	0.5064	0.162
Mof_C 	C 	0.0941	0.0941	0.5855	-0.501
Mof_H 	H 	0.1215	0.1215	0.6264	0.13
Mof_C 	C 	0.37729	0.62271	0.9936	0.427
Mof_C 	C 	0.4059	0.5941	0.9145	-0.72
Mof_H 	H 	0.3785	0.6215	0.8736	0.218
Mof_C 	C 	0.87729	0.12271	0.4936	0.206
Mof_C 	C 	0.9059	0.0941	0.4145	-0.562
Mof_H 	H 	0.8785	0.1215	0.3736	0.163
_end
