data_functionalizedCrystal
_audit_creation_method	'EQeq! by Chris Wilmer'
_symmetry_space_group_name_H-M	'P1'
_symmetry_Int_Tables_number	1
_symmetry_cell_setting	triclinic
loop_
_symmetry_equiv_pos_as_xyz
  x,y,z
_cell_length_a	11.1001
_cell_length_b	11.1001
_cell_length_c	8.4055
_cell_angle_alpha	90
_cell_angle_beta	90
_cell_angle_gamma	90
loop_
_atom_site_label
_atom_site_type_symbol
_atom_site_fract_x
_atom_site_fract_y
_atom_site_fract_z
_atom_site_charge
Mof_C 	C 	0.0422	0.3676	0.1264	-0.101
Mof_H 	H 	0.0722	0.4077	0.2165	0.051
Mof_C 	C 	0.041	0.2451	0.1226	0.003
Mof_H 	H 	0.0707	0.2029	0.2113	-0.004
Mof_C 	C 	0.9578	0.6324	0.1264	-0.028
Mof_H 	H 	0.9278	0.5923	0.2165	0.032
Mof_C 	C 	0.959	0.7549	0.1226	0.057
Mof_H 	H 	0.9293	0.7971	0.2113	-0.015
Mof_C 	C 	0.6324	0.0422	0.1264	-0.09
Mof_H 	H 	0.5923	0.0722	0.2165	0.046
Mof_C 	C 	0.7549	0.041	0.1226	0.001
Mof_H 	H 	0.7971	0.0707	0.2113	-0.002
Mof_C 	C 	0.3676	0.9578	0.1264	-0.016
Mof_H 	H 	0.4077	0.9278	0.2165	0.028
Mof_C 	C 	0.2451	0.959	0.1226	0.061
Mof_H 	H 	0.2029	0.9293	0.2113	-0.017
Mof_C 	C 	0.9578	0.3676	0.8736	-0.029
Mof_H 	H 	0.9278	0.4077	0.7835	0.031
Mof_C 	C 	0.959	0.2451	0.8774	0.05
Mof_H 	H 	0.9293	0.2029	0.7887	-0.014
Mof_C 	C 	0.0422	0.6324	0.8736	-0.078
Mof_H 	H 	0.0722	0.5923	0.7835	0.043
Mof_C 	C 	0.041	0.7549	0.8774	0.01
Mof_H 	H 	0.0707	0.7971	0.7887	-0.005
Mof_C 	C 	0.3676	0.0422	0.8736	-0.089
Mof_H 	H 	0.4077	0.0722	0.7835	0.046
Mof_C 	C 	0.2451	0.041	0.8774	0.012
Mof_H 	H 	0.2029	0.0707	0.7887	-0.008
Mof_C 	C 	0.6324	0.9578	0.8736	-0.04
Mof_H 	H 	0.5923	0.9278	0.7835	0.035
Mof_C 	C 	0.7549	0.959	0.8774	0.046
Mof_H 	H 	0.7971	0.9293	0.7887	-0.012
Mof_C 	C 	0.9578	0.6324	0.8736	-0.04
Mof_H 	H 	0.9278	0.5923	0.7835	0.035
Mof_C 	C 	0.959	0.7549	0.8774	0.046
Mof_H 	H 	0.9293	0.7971	0.7887	-0.012
Mof_C 	C 	0.0422	0.3676	0.8736	-0.089
Mof_H 	H 	0.0722	0.4077	0.7835	0.046
Mof_C 	C 	0.041	0.2451	0.8774	0.012
Mof_H 	H 	0.0707	0.2029	0.7887	-0.008
Mof_C 	C 	0.3676	0.9578	0.8736	-0.029
Mof_H 	H 	0.4077	0.9278	0.7835	0.031
Mof_C 	C 	0.2451	0.959	0.8774	0.05
Mof_H 	H 	0.2029	0.9293	0.7887	-0.014
Mof_C 	C 	0.6324	0.0422	0.8736	-0.078
Mof_H 	H 	0.5923	0.0722	0.7835	0.043
Mof_C 	C 	0.7549	0.041	0.8774	0.01
Mof_H 	H 	0.7971	0.0707	0.7887	-0.005
Mof_C 	C 	0.0422	0.6324	0.1264	-0.09
Mof_H 	H 	0.0722	0.5923	0.2165	0.046
Mof_C 	C 	0.041	0.7549	0.1226	0.001
Mof_H 	H 	0.0707	0.7971	0.2113	-0.002
Mof_C 	C 	0.9578	0.3676	0.1264	-0.016
Mof_H 	H 	0.9278	0.4077	0.2165	0.028
Mof_C 	C 	0.959	0.2451	0.1226	0.061
Mof_H 	H 	0.9293	0.2029	0.2113	-0.017
Mof_C 	C 	0.6324	0.9578	0.1264	-0.028
Mof_H 	H 	0.5923	0.9278	0.2165	0.032
Mof_C 	C 	0.7549	0.959	0.1226	0.057
Mof_H 	H 	0.7971	0.9293	0.2113	-0.015
Mof_C 	C 	0.3676	0.0422	0.1264	-0.102
Mof_H 	H 	0.4077	0.0722	0.2165	0.05
Mof_C 	C 	0.2451	0.041	0.1226	0.002
Mof_H 	H 	0.2029	0.0707	0.2113	-0.005
Mof_Cu	Cu	-0	0	-0	0.84
Mof_C 	C 	-0	0.4328	-0	0.027
Mof_N 	N 	-0	0.1824	-0	-0.242
Mof_C 	C 	-0	0.5672	-0	0.029
Mof_N 	N 	-0	0.8176	-0	-0.236
Mof_C 	C 	0.5672	0	-0	0.029
Mof_N 	N 	0.8176	0	-0	-0.236
Mof_C 	C 	0.4328	0	-0	0.027
Mof_N 	N 	0.1824	0	-0	-0.242
_end
