data_functionalizedCrystal
_audit_creation_method	'EQeq! by Chris Wilmer'
_symmetry_space_group_name_H-M	'P1'
_symmetry_Int_Tables_number	1
_symmetry_cell_setting	triclinic
loop_
_symmetry_equiv_pos_as_xyz
  x,y,z
_cell_length_a	26.3256
_cell_length_b	26.3256
_cell_length_c	26.3256
_cell_angle_alpha	60
_cell_angle_beta	60
_cell_angle_gamma	60
loop_
_atom_site_label
_atom_site_type_symbol
_atom_site_fract_x
_atom_site_fract_y
_atom_site_fract_z
_atom_site_charge
Mof_Cu	Cu	0.0484	0.9516	0.5	0.88
Mof_Cu	Cu	0.9516	0.0484	0.5	0.88
Mof_Cu	Cu	0.5	0.5	0.0484	0.88
Mof_Cu	Cu	0.5	0.5	0.9516	0.88
Mof_Cu	Cu	0.0484	0.5	0.5	0.88
Mof_Cu	Cu	0.9516	0.5	0.5	0.88
Mof_Cu	Cu	0.5	0.0484	0.9516	0.88
Mof_Cu	Cu	0.5	0.9516	0.0484	0.88
Mof_Cu	Cu	0.0484	0.5	0.9516	0.88
Mof_Cu	Cu	0.9516	0.5	0.0484	0.88
Mof_Cu	Cu	0.5	0.9516	0.5	0.88
Mof_Cu	Cu	0.5	0.0484	0.5	0.88
Mof_H 	H 	0.0432	0.1394	0.2958	0.045
Mof_H 	H 	0.242	0.0028	0.2212	0.068
Mof_H 	H 	0.1773	0.9699	0.3239	0.04
Mof_H 	H 	0.1394	0.0432	0.5216	0.045
Mof_H 	H 	0.0028	0.242	0.534	0.067
Mof_H 	H 	0.9699	0.1773	0.5289	0.04
Mof_H 	H 	0.2958	0.5216	0.0432	0.045
Mof_H 	H 	0.2212	0.534	0.242	0.067
Mof_H 	H 	0.3239	0.5289	0.1773	0.041
Mof_H 	H 	0.5216	0.2958	0.1394	0.045
Mof_H 	H 	0.534	0.2212	0.0028	0.067
Mof_H 	H 	0.5289	0.3239	0.9699	0.041
Mof_H 	H 	0.0432	0.2958	0.5216	0.045
Mof_H 	H 	0.242	0.2212	0.534	0.067
Mof_H 	H 	0.1773	0.3239	0.5289	0.041
Mof_H 	H 	0.1394	0.5216	0.2958	0.045
Mof_H 	H 	0.0028	0.534	0.2212	0.067
Mof_H 	H 	0.9699	0.5289	0.3239	0.041
Mof_H 	H 	0.2958	0.0432	0.1394	0.045
Mof_H 	H 	0.2212	0.242	0.0028	0.068
Mof_H 	H 	0.3239	0.1773	0.9699	0.04
Mof_H 	H 	0.5216	0.1394	0.0432	0.045
Mof_H 	H 	0.534	0.0028	0.242	0.067
Mof_H 	H 	0.5289	0.9699	0.1773	0.04
Mof_H 	H 	0.0432	0.5216	0.1394	0.045
Mof_H 	H 	0.242	0.534	0.0028	0.067
Mof_H 	H 	0.1773	0.5289	0.9699	0.04
Mof_H 	H 	0.1394	0.2958	0.0432	0.045
Mof_H 	H 	0.0028	0.2212	0.242	0.068
Mof_H 	H 	0.9699	0.3239	0.1773	0.04
Mof_H 	H 	0.2958	0.1394	0.5216	0.045
Mof_H 	H 	0.2212	0.0028	0.534	0.067
Mof_H 	H 	0.3239	0.9699	0.5289	0.041
Mof_H 	H 	0.5216	0.0432	0.2958	0.045
Mof_H 	H 	0.534	0.242	0.2212	0.067
Mof_H 	H 	0.5289	0.1773	0.3239	0.041
Mof_H 	H 	0.8606	0.9568	0.7042	0.045
Mof_H 	H 	0.9972	0.758	0.7788	0.068
Mof_H 	H 	0.0301	0.8227	0.6761	0.04
Mof_H 	H 	0.9568	0.8606	0.4784	0.045
Mof_H 	H 	0.758	0.9972	0.466	0.067
Mof_H 	H 	0.8227	0.0301	0.4711	0.04
Mof_H 	H 	0.4784	0.7042	0.9568	0.045
Mof_H 	H 	0.466	0.7788	0.758	0.067
Mof_H 	H 	0.4711	0.6761	0.8227	0.041
Mof_H 	H 	0.7042	0.4784	0.8606	0.045
Mof_H 	H 	0.7788	0.466	0.9972	0.067
Mof_H 	H 	0.6761	0.4711	0.0301	0.041
Mof_H 	H 	0.7042	0.9568	0.4784	0.045
Mof_H 	H 	0.7788	0.758	0.466	0.067
Mof_H 	H 	0.6761	0.8227	0.4711	0.041
Mof_H 	H 	0.4784	0.8606	0.7042	0.045
Mof_H 	H 	0.466	0.9972	0.7788	0.067
Mof_H 	H 	0.4711	0.0301	0.6761	0.041
Mof_H 	H 	0.9568	0.7042	0.8606	0.045
Mof_H 	H 	0.758	0.7788	0.9972	0.068
Mof_H 	H 	0.8227	0.6761	0.0301	0.04
Mof_H 	H 	0.8606	0.4784	0.9568	0.045
Mof_H 	H 	0.9972	0.466	0.758	0.067
Mof_H 	H 	0.0301	0.4711	0.8227	0.04
Mof_H 	H 	0.4784	0.9568	0.8606	0.045
Mof_H 	H 	0.466	0.758	0.9972	0.067
Mof_H 	H 	0.4711	0.8227	0.0301	0.04
Mof_H 	H 	0.7042	0.8606	0.9568	0.045
Mof_H 	H 	0.7788	0.9972	0.758	0.068
Mof_H 	H 	0.6761	0.0301	0.8227	0.04
Mof_H 	H 	0.8606	0.7042	0.4784	0.045
Mof_H 	H 	0.9972	0.7788	0.466	0.067
Mof_H 	H 	0.0301	0.6761	0.4711	0.041
Mof_H 	H 	0.9568	0.4784	0.7042	0.045
Mof_H 	H 	0.758	0.466	0.7788	0.067
Mof_H 	H 	0.8227	0.4711	0.6761	0.041
Mof_C 	C 	0.10458	0.05192	0.31982	-0.102
Mof_C 	C 	0.08378	0.11216	0.28084	0.007
Mof_C 	C 	0.12183	0.13277	0.22041	-0.031
Mof_C 	C 	0.18147	0.09217	0.19733	0.044
Mof_C 	C 	0.20219	0.03067	0.23629	-0.097
Mof_C 	C 	0.16348	0.01124	0.29732	0.034
Mof_C 	C 	0.0648	0.0304	0.3844	0.392
Mof_C 	C 	0.05192	0.10458	0.52368	-0.102
Mof_C 	C 	0.11216	0.08378	0.52322	0.007
Mof_C 	C 	0.13277	0.12183	0.52499	-0.03
Mof_C 	C 	0.09217	0.18147	0.52903	0.044
Mof_C 	C 	0.03067	0.20219	0.53085	-0.097
Mof_C 	C 	0.01124	0.16348	0.52796	0.034
Mof_C 	C 	0.0304	0.0648	0.5204	0.392
Mof_C 	C 	0.31982	0.52368	0.10458	-0.102
Mof_C 	C 	0.28084	0.52322	0.08378	0.006
Mof_C 	C 	0.22041	0.52499	0.12183	-0.03
Mof_C 	C 	0.19733	0.52903	0.18147	0.044
Mof_C 	C 	0.23629	0.53085	0.20219	-0.097
Mof_C 	C 	0.29732	0.52796	0.16348	0.033
Mof_C 	C 	0.3844	0.5204	0.0648	0.392
Mof_C 	C 	0.52368	0.31982	0.05192	-0.102
Mof_C 	C 	0.52322	0.28084	0.11216	0.006
Mof_C 	C 	0.52499	0.22041	0.13277	-0.03
Mof_C 	C 	0.52903	0.19733	0.09217	0.044
Mof_C 	C 	0.53085	0.23629	0.03067	-0.097
Mof_C 	C 	0.52796	0.29732	0.01124	0.034
Mof_C 	C 	0.5204	0.3844	0.0304	0.392
Mof_C 	C 	0.10458	0.31982	0.52368	-0.102
Mof_C 	C 	0.08378	0.28084	0.52322	0.006
Mof_C 	C 	0.12183	0.22041	0.52499	-0.03
Mof_C 	C 	0.18147	0.19733	0.52903	0.044
Mof_C 	C 	0.20219	0.23629	0.53085	-0.097
Mof_C 	C 	0.16348	0.29732	0.52796	0.033
Mof_C 	C 	0.0648	0.3844	0.5204	0.392
Mof_C 	C 	0.05192	0.52368	0.31982	-0.102
Mof_C 	C 	0.11216	0.52322	0.28084	0.006
Mof_C 	C 	0.13277	0.52499	0.22041	-0.03
Mof_C 	C 	0.09217	0.52903	0.19733	0.044
Mof_C 	C 	0.03067	0.53085	0.23629	-0.097
Mof_C 	C 	0.01124	0.52796	0.29732	0.034
Mof_C 	C 	0.0304	0.5204	0.3844	0.392
Mof_C 	C 	0.31982	0.10458	0.05192	-0.102
Mof_C 	C 	0.28084	0.08378	0.11216	0.007
Mof_C 	C 	0.22041	0.12183	0.13277	-0.031
Mof_C 	C 	0.19733	0.18147	0.09217	0.044
Mof_C 	C 	0.23629	0.20219	0.03067	-0.097
Mof_C 	C 	0.29732	0.16348	0.01124	0.034
Mof_C 	C 	0.3844	0.0648	0.0304	0.392
Mof_C 	C 	0.52368	0.05192	0.10458	-0.102
Mof_C 	C 	0.52322	0.11216	0.08378	0.007
Mof_C 	C 	0.52499	0.13277	0.12183	-0.03
Mof_C 	C 	0.52903	0.09217	0.18147	0.044
Mof_C 	C 	0.53085	0.03067	0.20219	-0.097
Mof_C 	C 	0.52796	0.01124	0.16348	0.034
Mof_C 	C 	0.5204	0.0304	0.0648	0.392
Mof_C 	C 	0.10458	0.52368	0.05192	-0.102
Mof_C 	C 	0.08378	0.52322	0.11216	0.007
Mof_C 	C 	0.12183	0.52499	0.13277	-0.03
Mof_C 	C 	0.18147	0.52903	0.09217	0.044
Mof_C 	C 	0.20219	0.53085	0.03067	-0.097
Mof_C 	C 	0.16348	0.52796	0.01124	0.034
Mof_C 	C 	0.0648	0.5204	0.0304	0.392
Mof_C 	C 	0.05192	0.31982	0.10458	-0.102
Mof_C 	C 	0.11216	0.28084	0.08378	0.007
Mof_C 	C 	0.13277	0.22041	0.12183	-0.031
Mof_C 	C 	0.09217	0.19733	0.18147	0.044
Mof_C 	C 	0.03067	0.23629	0.20219	-0.097
Mof_C 	C 	0.01124	0.29732	0.16348	0.034
Mof_C 	C 	0.0304	0.3844	0.0648	0.392
Mof_C 	C 	0.31982	0.05192	0.52368	-0.102
Mof_C 	C 	0.28084	0.11216	0.52322	0.006
Mof_C 	C 	0.22041	0.13277	0.52499	-0.03
Mof_C 	C 	0.19733	0.09217	0.52903	0.044
Mof_C 	C 	0.23629	0.03067	0.53085	-0.097
Mof_C 	C 	0.29732	0.01124	0.52796	0.034
Mof_C 	C 	0.3844	0.0304	0.5204	0.392
Mof_C 	C 	0.52368	0.10458	0.31982	-0.102
Mof_C 	C 	0.52322	0.08378	0.28084	0.006
Mof_C 	C 	0.52499	0.12183	0.22041	-0.03
Mof_C 	C 	0.52903	0.18147	0.19733	0.044
Mof_C 	C 	0.53085	0.20219	0.23629	-0.097
Mof_C 	C 	0.52796	0.16348	0.29732	0.033
Mof_C 	C 	0.5204	0.0648	0.3844	0.392
Mof_C 	C 	0.94808	0.89542	0.68018	-0.102
Mof_C 	C 	0.88784	0.91622	0.71916	0.007
Mof_C 	C 	0.86723	0.87817	0.77959	-0.031
Mof_C 	C 	0.90783	0.81853	0.80267	0.044
Mof_C 	C 	0.96933	0.79781	0.76371	-0.097
Mof_C 	C 	0.98876	0.83652	0.70268	0.034
Mof_C 	C 	0.9696	0.9352	0.6156	0.392
Mof_C 	C 	0.89542	0.94808	0.47632	-0.102
Mof_C 	C 	0.91622	0.88784	0.47678	0.007
Mof_C 	C 	0.87817	0.86723	0.47501	-0.03
Mof_C 	C 	0.81853	0.90783	0.47097	0.044
Mof_C 	C 	0.79781	0.96933	0.46915	-0.097
Mof_C 	C 	0.83652	0.98876	0.47204	0.034
Mof_C 	C 	0.9352	0.9696	0.4796	0.392
Mof_C 	C 	0.47632	0.68018	0.89542	-0.102
Mof_C 	C 	0.47678	0.71916	0.91622	0.006
Mof_C 	C 	0.47501	0.77959	0.87817	-0.03
Mof_C 	C 	0.47097	0.80267	0.81853	0.044
Mof_C 	C 	0.46915	0.76371	0.79781	-0.097
Mof_C 	C 	0.47204	0.70268	0.83652	0.033
Mof_C 	C 	0.4796	0.6156	0.9352	0.392
Mof_C 	C 	0.68018	0.47632	0.94808	-0.102
Mof_C 	C 	0.71916	0.47678	0.88784	0.006
Mof_C 	C 	0.77959	0.47501	0.86723	-0.03
Mof_C 	C 	0.80267	0.47097	0.90783	0.044
Mof_C 	C 	0.76371	0.46915	0.96933	-0.097
Mof_C 	C 	0.70268	0.47204	0.98876	0.034
Mof_C 	C 	0.6156	0.4796	0.9696	0.392
Mof_C 	C 	0.68018	0.89542	0.47632	-0.102
Mof_C 	C 	0.71916	0.91622	0.47678	0.006
Mof_C 	C 	0.77959	0.87817	0.47501	-0.03
Mof_C 	C 	0.80267	0.81853	0.47097	0.044
Mof_C 	C 	0.76371	0.79781	0.46915	-0.097
Mof_C 	C 	0.70268	0.83652	0.47204	0.033
Mof_C 	C 	0.6156	0.9352	0.4796	0.392
Mof_C 	C 	0.47632	0.94808	0.68018	-0.102
Mof_C 	C 	0.47678	0.88784	0.71916	0.006
Mof_C 	C 	0.47501	0.86723	0.77959	-0.03
Mof_C 	C 	0.47097	0.90783	0.80267	0.044
Mof_C 	C 	0.46915	0.96933	0.76371	-0.097
Mof_C 	C 	0.47204	0.98876	0.70268	0.034
Mof_C 	C 	0.4796	0.9696	0.6156	0.392
Mof_C 	C 	0.89542	0.68018	0.94808	-0.102
Mof_C 	C 	0.91622	0.71916	0.88784	0.007
Mof_C 	C 	0.87817	0.77959	0.86723	-0.031
Mof_C 	C 	0.81853	0.80267	0.90783	0.044
Mof_C 	C 	0.79781	0.76371	0.96933	-0.097
Mof_C 	C 	0.83652	0.70268	0.98876	0.034
Mof_C 	C 	0.9352	0.6156	0.9696	0.392
Mof_C 	C 	0.94808	0.47632	0.89542	-0.102
Mof_C 	C 	0.88784	0.47678	0.91622	0.007
Mof_C 	C 	0.86723	0.47501	0.87817	-0.03
Mof_C 	C 	0.90783	0.47097	0.81853	0.044
Mof_C 	C 	0.96933	0.46915	0.79781	-0.097
Mof_C 	C 	0.98876	0.47204	0.83652	0.034
Mof_C 	C 	0.9696	0.4796	0.9352	0.392
Mof_C 	C 	0.47632	0.89542	0.94808	-0.102
Mof_C 	C 	0.47678	0.91622	0.88784	0.007
Mof_C 	C 	0.47501	0.87817	0.86723	-0.03
Mof_C 	C 	0.47097	0.81853	0.90783	0.044
Mof_C 	C 	0.46915	0.79781	0.96933	-0.097
Mof_C 	C 	0.47204	0.83652	0.98876	0.034
Mof_C 	C 	0.4796	0.9352	0.9696	0.392
Mof_C 	C 	0.68018	0.94808	0.89542	-0.102
Mof_C 	C 	0.71916	0.88784	0.91622	0.007
Mof_C 	C 	0.77959	0.86723	0.87817	-0.031
Mof_C 	C 	0.80267	0.90783	0.81853	0.044
Mof_C 	C 	0.76371	0.96933	0.79781	-0.097
Mof_C 	C 	0.70268	0.98876	0.83652	0.034
Mof_C 	C 	0.6156	0.9696	0.9352	0.392
Mof_C 	C 	0.94808	0.68018	0.47632	-0.102
Mof_C 	C 	0.88784	0.71916	0.47678	0.006
Mof_C 	C 	0.86723	0.77959	0.47501	-0.03
Mof_C 	C 	0.90783	0.80267	0.47097	0.044
Mof_C 	C 	0.96933	0.76371	0.46915	-0.097
Mof_C 	C 	0.98876	0.70268	0.47204	0.034
Mof_C 	C 	0.9696	0.6156	0.4796	0.392
Mof_C 	C 	0.89542	0.47632	0.68018	-0.102
Mof_C 	C 	0.91622	0.47678	0.71916	0.006
Mof_C 	C 	0.87817	0.47501	0.77959	-0.03
Mof_C 	C 	0.81853	0.47097	0.80267	0.044
Mof_C 	C 	0.79781	0.46915	0.76371	-0.097
Mof_C 	C 	0.83652	0.47204	0.70268	0.033
Mof_C 	C 	0.9352	0.4796	0.6156	0.392
Mof_O 	O 	0.09391	0.97833	0.41191	-0.432
Mof_O 	O 	0.01395	0.06715	0.40257	-0.408
Mof_O 	O 	0.97833	0.09391	0.51585	-0.432
Mof_O 	O 	0.06715	0.01395	0.51633	-0.408
Mof_O 	O 	0.41191	0.51585	0.09391	-0.431
Mof_O 	O 	0.40257	0.51633	0.01395	-0.408
Mof_O 	O 	0.51585	0.41191	0.97833	-0.432
Mof_O 	O 	0.51633	0.40257	0.06715	-0.408
Mof_O 	O 	0.09391	0.41191	0.51585	-0.431
Mof_O 	O 	0.01395	0.40257	0.51633	-0.408
Mof_O 	O 	0.97833	0.51585	0.41191	-0.432
Mof_O 	O 	0.06715	0.51633	0.40257	-0.408
Mof_O 	O 	0.41191	0.09391	0.97833	-0.432
Mof_O 	O 	0.40257	0.01395	0.06715	-0.408
Mof_O 	O 	0.51585	0.97833	0.09391	-0.432
Mof_O 	O 	0.51633	0.06715	0.01395	-0.408
Mof_O 	O 	0.09391	0.51585	0.97833	-0.432
Mof_O 	O 	0.01395	0.51633	0.06715	-0.408
Mof_O 	O 	0.97833	0.41191	0.09391	-0.432
Mof_O 	O 	0.06715	0.40257	0.01395	-0.408
Mof_O 	O 	0.41191	0.97833	0.51585	-0.432
Mof_O 	O 	0.40257	0.06715	0.51633	-0.408
Mof_O 	O 	0.51585	0.09391	0.41191	-0.431
Mof_O 	O 	0.51633	0.01395	0.40257	-0.408
Mof_O 	O 	0.02167	0.90609	0.58809	-0.432
Mof_O 	O 	0.93285	0.98605	0.59743	-0.408
Mof_O 	O 	0.90609	0.02167	0.48415	-0.432
Mof_O 	O 	0.98605	0.93285	0.48367	-0.408
Mof_O 	O 	0.48415	0.58809	0.90609	-0.431
Mof_O 	O 	0.48367	0.59743	0.98605	-0.408
Mof_O 	O 	0.58809	0.48415	0.02167	-0.432
Mof_O 	O 	0.59743	0.48367	0.93285	-0.408
Mof_O 	O 	0.58809	0.90609	0.48415	-0.431
Mof_O 	O 	0.59743	0.98605	0.48367	-0.408
Mof_O 	O 	0.48415	0.02167	0.58809	-0.432
Mof_O 	O 	0.48367	0.93285	0.59743	-0.408
Mof_O 	O 	0.90609	0.58809	0.02167	-0.432
Mof_O 	O 	0.98605	0.59743	0.93285	-0.408
Mof_O 	O 	0.02167	0.48415	0.90609	-0.432
Mof_O 	O 	0.93285	0.48367	0.98605	-0.408
Mof_O 	O 	0.48415	0.90609	0.02167	-0.432
Mof_O 	O 	0.48367	0.98605	0.93285	-0.408
Mof_O 	O 	0.58809	0.02167	0.90609	-0.432
Mof_O 	O 	0.59743	0.93285	0.98605	-0.408
Mof_O 	O 	0.02167	0.58809	0.48415	-0.432
Mof_O 	O 	0.93285	0.59743	0.48367	-0.408
Mof_O 	O 	0.90609	0.48415	0.58809	-0.431
Mof_O 	O 	0.98605	0.48367	0.59743	-0.408
_end
