data_functionalizedCrystal
_audit_creation_method	'EQeq! by Chris Wilmer'
_symmetry_space_group_name_H-M	'P1'
_symmetry_Int_Tables_number	1
_symmetry_cell_setting	triclinic
loop_
_symmetry_equiv_pos_as_xyz
  x,y,z
_cell_length_a	25.687
_cell_length_b	25.687
_cell_length_c	13.224
_cell_angle_alpha	90
_cell_angle_beta	90
_cell_angle_gamma	120
loop_
_atom_site_label
_atom_site_type_symbol
_atom_site_fract_x
_atom_site_fract_y
_atom_site_fract_z
_atom_site_charge
Mof_O 	O 	0.061	0.11123	0.893	-0.555
Mof_C 	C 	0.13	0.1827	0.7376	-0.025
Mof_H 	H 	0.0988	0.1883	0.7618	0.054
Mof_C 	C 	0.1665	0.2173	0.6626	0.03
Mof_H 	H 	0.1613	0.2488	0.6383	0.014
Mof_O 	O 	0.3301	0.2374	0.513	-0.213
Mof_O 	O 	0.3516	0.3079	0.3961	-0.273
Mof_C 	C 	0.366	0.2768	0.4529	0.215
Mof_C 	C 	0.4295	0.2867	0.4524	-0.044
Mof_C 	C 	0.4386	0.2461	0.507	-0.015
Mof_H 	H 	0.4074	0.2148	0.5441	0.044
Mof_C 	C 	0.4982	0.2543	0.504	-0.03
Mof_H 	H 	0.5056	0.2248	0.5313	0.034
Mof_C 	C 	0.5453	0.3066	0.4609	0.003
Mof_C 	C 	0.5327	0.3453	0.4045	-0.066
Mof_H 	H 	0.5641	0.3777	0.3697	0.044
Mof_C 	C 	0.475	0.3368	0.3992	-0.019
Mof_H 	H 	0.4665	0.3629	0.3621	0.046
Mof_C 	C 	0.6532	0.3782	0.4597	-0.055
Mof_H 	H 	0.6436	0.409	0.4623	0.035
Mof_C 	C 	0.6075	0.3189	0.4578	0.009
Mof_O 	O 	0.88877	0.94977	0.893	-0.534
Mof_C 	C 	0.8173	0.9473	0.7376	0.027
Mof_H 	H 	0.8117	0.9105	0.7618	0.05
Mof_C 	C 	0.7827	0.9492	0.6626	0.055
Mof_H 	H 	0.7512	0.9125	0.6383	0.015
Mof_O 	O 	0.7626	0.0927	0.513	-0.213
Mof_O 	O 	0.6921	0.0437	0.3961	-0.29
Mof_C 	C 	0.7232	0.0892	0.4529	0.217
Mof_C 	C 	0.7133	0.1428	0.4524	-0.045
Mof_C 	C 	0.7539	0.1925	0.507	-0.015
Mof_H 	H 	0.7852	0.1926	0.5441	0.048
Mof_C 	C 	0.7457	0.2439	0.504	-0.031
Mof_H 	H 	0.7752	0.2808	0.5313	0.037
Mof_C 	C 	0.6934	0.2387	0.4609	0.004
Mof_C 	C 	0.6547	0.1874	0.4045	-0.067
Mof_H 	H 	0.6223	0.1864	0.3697	0.042
Mof_C 	C 	0.6632	0.1382	0.3992	-0.019
Mof_H 	H 	0.6371	0.1036	0.3621	0.04
Mof_C 	C 	0.6218	0.275	0.4597	-0.055
Mof_H 	H 	0.591	0.2346	0.4623	0.034
Mof_C 	C 	0.6811	0.2886	0.4578	0.009
Mof_O 	O 	0.05023	0.939	0.893	-0.528
Mof_C 	C 	0.0527	0.87	0.7376	-0.006
Mof_H 	H 	0.0895	0.9012	0.7618	0.059
Mof_C 	C 	0.0508	0.8335	0.6626	0.019
Mof_H 	H 	0.0875	0.8387	0.6383	0.023
Mof_O 	O 	0.9073	0.6699	0.513	-0.207
Mof_O 	O 	0.9563	0.6484	0.3961	-0.251
Mof_C 	C 	0.9108	0.634	0.4529	0.211
Mof_C 	C 	0.8572	0.5705	0.4524	-0.039
Mof_C 	C 	0.8075	0.5614	0.507	-0.017
Mof_H 	H 	0.8074	0.5926	0.5441	0.048
Mof_C 	C 	0.7561	0.5018	0.504	-0.029
Mof_H 	H 	0.7192	0.4944	0.5313	0.035
Mof_C 	C 	0.7613	0.4547	0.4609	0.003
Mof_C 	C 	0.8126	0.4673	0.4045	-0.062
Mof_H 	H 	0.8136	0.4359	0.3697	0.046
Mof_C 	C 	0.8618	0.525	0.3992	-0.021
Mof_H 	H 	0.8964	0.5335	0.3621	0.053
Mof_C 	C 	0.725	0.3468	0.4597	-0.055
Mof_H 	H 	0.7654	0.3564	0.4623	0.036
Mof_C 	C 	0.7114	0.3925	0.4578	0.01
Mof_O 	O 	0.061	0.11123	0.107	-0.643
Mof_C 	C 	0.13	0.1827	0.2624	-0.009
Mof_H 	H 	0.0988	0.1883	0.2382	0.025
Mof_C 	C 	0.1665	0.2173	0.3374	0.006
Mof_H 	H 	0.1613	0.2488	0.3617	0.011
Mof_O 	O 	0.3301	0.2374	0.487	-0.208
Mof_O 	O 	0.3516	0.3079	0.6039	-0.257
Mof_C 	C 	0.366	0.2768	0.5471	0.219
Mof_C 	C 	0.4295	0.2867	0.5476	-0.03
Mof_C 	C 	0.4386	0.2461	0.493	-0.015
Mof_H 	H 	0.4074	0.2148	0.4559	0.035
Mof_C 	C 	0.4982	0.2543	0.496	-0.03
Mof_H 	H 	0.5056	0.2248	0.4687	0.023
Mof_C 	C 	0.5453	0.3066	0.5391	0.019
Mof_C 	C 	0.5327	0.3453	0.5955	-0.062
Mof_H 	H 	0.5641	0.3777	0.6303	0.062
Mof_C 	C 	0.475	0.3368	0.6008	-0.014
Mof_H 	H 	0.4665	0.3629	0.6379	0.064
Mof_C 	C 	0.6532	0.3782	0.5403	-0.051
Mof_H 	H 	0.6436	0.409	0.5377	0.04
Mof_C 	C 	0.6075	0.3189	0.5422	0.025
Mof_O 	O 	0.88877	0.94977	0.107	-0.62
Mof_C 	C 	0.8173	0.9473	0.2624	0.043
Mof_H 	H 	0.8117	0.9105	0.2382	0.022
Mof_C 	C 	0.7827	0.9492	0.3374	0.031
Mof_H 	H 	0.7512	0.9125	0.3617	0.012
Mof_O 	O 	0.7626	0.0927	0.487	-0.208
Mof_O 	O 	0.6921	0.0437	0.6039	-0.273
Mof_C 	C 	0.7232	0.0892	0.5471	0.221
Mof_C 	C 	0.7133	0.1428	0.5476	-0.031
Mof_C 	C 	0.7539	0.1925	0.493	-0.015
Mof_H 	H 	0.7852	0.1926	0.4559	0.039
Mof_C 	C 	0.7457	0.2439	0.496	-0.03
Mof_H 	H 	0.7752	0.2808	0.4687	0.027
Mof_C 	C 	0.6934	0.2387	0.5391	0.019
Mof_C 	C 	0.6547	0.1874	0.5955	-0.063
Mof_H 	H 	0.6223	0.1864	0.6303	0.06
Mof_C 	C 	0.6632	0.1382	0.6008	-0.013
Mof_H 	H 	0.6371	0.1036	0.6379	0.058
Mof_C 	C 	0.6218	0.275	0.5403	-0.051
Mof_H 	H 	0.591	0.2346	0.5377	0.039
Mof_C 	C 	0.6811	0.2886	0.5422	0.025
Mof_O 	O 	0.05023	0.939	0.107	-0.614
Mof_C 	C 	0.0527	0.87	0.2624	0.01
Mof_H 	H 	0.0895	0.9012	0.2382	0.031
Mof_C 	C 	0.0508	0.8335	0.3374	-0.005
Mof_H 	H 	0.0875	0.8387	0.3617	0.02
Mof_O 	O 	0.9073	0.6699	0.487	-0.202
Mof_O 	O 	0.9563	0.6484	0.6039	-0.234
Mof_C 	C 	0.9108	0.634	0.5471	0.215
Mof_C 	C 	0.8572	0.5705	0.5476	-0.025
Mof_C 	C 	0.8075	0.5614	0.493	-0.018
Mof_H 	H 	0.8074	0.5926	0.4559	0.04
Mof_C 	C 	0.7561	0.5018	0.496	-0.029
Mof_H 	H 	0.7192	0.4944	0.4687	0.025
Mof_C 	C 	0.7613	0.4547	0.5391	0.018
Mof_C 	C 	0.8126	0.4673	0.5955	-0.059
Mof_H 	H 	0.8136	0.4359	0.6303	0.064
Mof_C 	C 	0.8618	0.525	0.6008	-0.015
Mof_H 	H 	0.8964	0.5335	0.6379	0.071
Mof_C 	C 	0.725	0.3468	0.5403	-0.051
Mof_H 	H 	0.7654	0.3564	0.5377	0.041
Mof_C 	C 	0.7114	0.3925	0.5422	0.026
Mof_O 	O 	0.11123	0.061	0.107	-0.643
Mof_C 	C 	0.1827	0.13	0.2624	-0.009
Mof_H 	H 	0.1883	0.0988	0.2382	0.025
Mof_C 	C 	0.2173	0.1665	0.3374	0.006
Mof_H 	H 	0.2488	0.1613	0.3617	0.011
Mof_O 	O 	0.2374	0.3301	0.487	-0.208
Mof_O 	O 	0.3079	0.3516	0.6039	-0.257
Mof_C 	C 	0.2768	0.366	0.5471	0.219
Mof_C 	C 	0.2867	0.4295	0.5476	-0.03
Mof_C 	C 	0.2461	0.4386	0.493	-0.015
Mof_H 	H 	0.2148	0.4074	0.4559	0.035
Mof_C 	C 	0.2543	0.4982	0.496	-0.03
Mof_H 	H 	0.2248	0.5056	0.4687	0.023
Mof_C 	C 	0.3066	0.5453	0.5391	0.019
Mof_C 	C 	0.3453	0.5327	0.5955	-0.062
Mof_H 	H 	0.3777	0.5641	0.6303	0.062
Mof_C 	C 	0.3368	0.475	0.6008	-0.014
Mof_H 	H 	0.3629	0.4665	0.6379	0.064
Mof_C 	C 	0.3782	0.6532	0.5403	-0.051
Mof_H 	H 	0.409	0.6436	0.5377	0.04
Mof_C 	C 	0.3189	0.6075	0.5422	0.025
Mof_O 	O 	0.94977	0.88877	0.107	-0.62
Mof_C 	C 	0.9473	0.8173	0.2624	0.043
Mof_H 	H 	0.9105	0.8117	0.2382	0.022
Mof_C 	C 	0.9492	0.7827	0.3374	0.031
Mof_H 	H 	0.9125	0.7512	0.3617	0.012
Mof_O 	O 	0.0927	0.7626	0.487	-0.208
Mof_O 	O 	0.0437	0.6921	0.6039	-0.273
Mof_C 	C 	0.0892	0.7232	0.5471	0.221
Mof_C 	C 	0.1428	0.7133	0.5476	-0.031
Mof_C 	C 	0.1925	0.7539	0.493	-0.015
Mof_H 	H 	0.1926	0.7852	0.4559	0.039
Mof_C 	C 	0.2439	0.7457	0.496	-0.03
Mof_H 	H 	0.2808	0.7752	0.4687	0.027
Mof_C 	C 	0.2387	0.6934	0.5391	0.019
Mof_C 	C 	0.1874	0.6547	0.5955	-0.063
Mof_H 	H 	0.1864	0.6223	0.6303	0.06
Mof_C 	C 	0.1382	0.6632	0.6008	-0.013
Mof_H 	H 	0.1036	0.6371	0.6379	0.058
Mof_C 	C 	0.275	0.6218	0.5403	-0.051
Mof_H 	H 	0.2346	0.591	0.5377	0.039
Mof_C 	C 	0.2886	0.6811	0.5422	0.025
Mof_O 	O 	0.939	0.05023	0.107	-0.614
Mof_C 	C 	0.87	0.0527	0.2624	0.01
Mof_H 	H 	0.9012	0.0895	0.2382	0.031
Mof_C 	C 	0.8335	0.0508	0.3374	-0.005
Mof_H 	H 	0.8387	0.0875	0.3617	0.02
Mof_O 	O 	0.6699	0.9073	0.487	-0.202
Mof_O 	O 	0.6484	0.9563	0.6039	-0.234
Mof_C 	C 	0.634	0.9108	0.5471	0.215
Mof_C 	C 	0.5705	0.8572	0.5476	-0.025
Mof_C 	C 	0.5614	0.8075	0.493	-0.018
Mof_H 	H 	0.5926	0.8074	0.4559	0.04
Mof_C 	C 	0.5018	0.7561	0.496	-0.029
Mof_H 	H 	0.4944	0.7192	0.4687	0.025
Mof_C 	C 	0.4547	0.7613	0.5391	0.018
Mof_C 	C 	0.4673	0.8126	0.5955	-0.059
Mof_H 	H 	0.4359	0.8136	0.6303	0.064
Mof_C 	C 	0.525	0.8618	0.6008	-0.015
Mof_H 	H 	0.5335	0.8964	0.6379	0.071
Mof_C 	C 	0.3468	0.725	0.5403	-0.051
Mof_H 	H 	0.3564	0.7654	0.5377	0.041
Mof_C 	C 	0.3925	0.7114	0.5422	0.026
Mof_O 	O 	0.11123	0.061	0.893	-0.556
Mof_C 	C 	0.1827	0.13	0.7376	-0.026
Mof_H 	H 	0.1883	0.0988	0.7618	0.054
Mof_C 	C 	0.2173	0.1665	0.6626	0.03
Mof_H 	H 	0.2488	0.1613	0.6383	0.014
Mof_O 	O 	0.2374	0.3301	0.513	-0.213
Mof_O 	O 	0.3079	0.3516	0.3961	-0.273
Mof_C 	C 	0.2768	0.366	0.4529	0.215
Mof_C 	C 	0.2867	0.4295	0.4524	-0.044
Mof_C 	C 	0.2461	0.4386	0.507	-0.015
Mof_H 	H 	0.2148	0.4074	0.5441	0.044
Mof_C 	C 	0.2543	0.4982	0.504	-0.03
Mof_H 	H 	0.2248	0.5056	0.5313	0.034
Mof_C 	C 	0.3066	0.5453	0.4609	0.003
Mof_C 	C 	0.3453	0.5327	0.4045	-0.066
Mof_H 	H 	0.3777	0.5641	0.3697	0.044
Mof_C 	C 	0.3368	0.475	0.3992	-0.019
Mof_H 	H 	0.3629	0.4665	0.3621	0.046
Mof_C 	C 	0.3782	0.6532	0.4597	-0.055
Mof_H 	H 	0.409	0.6436	0.4623	0.035
Mof_C 	C 	0.3189	0.6075	0.4578	0.009
Mof_O 	O 	0.94977	0.88877	0.893	-0.534
Mof_C 	C 	0.9473	0.8173	0.7376	0.027
Mof_H 	H 	0.9105	0.8117	0.7618	0.05
Mof_C 	C 	0.9492	0.7827	0.6626	0.055
Mof_H 	H 	0.9125	0.7512	0.6383	0.015
Mof_O 	O 	0.0927	0.7626	0.513	-0.213
Mof_O 	O 	0.0437	0.6921	0.3961	-0.29
Mof_C 	C 	0.0892	0.7232	0.4529	0.217
Mof_C 	C 	0.1428	0.7133	0.4524	-0.045
Mof_C 	C 	0.1925	0.7539	0.507	-0.015
Mof_H 	H 	0.1926	0.7852	0.5441	0.048
Mof_C 	C 	0.2439	0.7457	0.504	-0.031
Mof_H 	H 	0.2808	0.7752	0.5313	0.037
Mof_C 	C 	0.2387	0.6934	0.4609	0.004
Mof_C 	C 	0.1874	0.6547	0.4045	-0.067
Mof_H 	H 	0.1864	0.6223	0.3697	0.042
Mof_C 	C 	0.1382	0.6632	0.3992	-0.019
Mof_H 	H 	0.1036	0.6371	0.3621	0.04
Mof_C 	C 	0.275	0.6218	0.4597	-0.055
Mof_H 	H 	0.2346	0.591	0.4623	0.034
Mof_C 	C 	0.2886	0.6811	0.4578	0.009
Mof_O 	O 	0.939	0.05023	0.893	-0.528
Mof_C 	C 	0.87	0.0527	0.7376	-0.006
Mof_H 	H 	0.9012	0.0895	0.7618	0.059
Mof_C 	C 	0.8335	0.0508	0.6626	0.019
Mof_H 	H 	0.8387	0.0875	0.6383	0.023
Mof_O 	O 	0.6699	0.9073	0.513	-0.207
Mof_O 	O 	0.6484	0.9563	0.3961	-0.251
Mof_C 	C 	0.634	0.9108	0.4529	0.211
Mof_C 	C 	0.5705	0.8572	0.4524	-0.039
Mof_C 	C 	0.5614	0.8075	0.507	-0.017
Mof_H 	H 	0.5926	0.8074	0.5441	0.048
Mof_C 	C 	0.5018	0.7561	0.504	-0.029
Mof_H 	H 	0.4944	0.7192	0.5313	0.035
Mof_C 	C 	0.4547	0.7613	0.4609	0.003
Mof_C 	C 	0.4673	0.8126	0.4045	-0.062
Mof_H 	H 	0.4359	0.8136	0.3697	0.046
Mof_C 	C 	0.525	0.8618	0.3992	-0.021
Mof_H 	H 	0.5335	0.8964	0.3621	0.053
Mof_C 	C 	0.3468	0.725	0.4597	-0.055
Mof_H 	H 	0.3564	0.7654	0.4623	0.036
Mof_C 	C 	0.3925	0.7114	0.4578	0.01
Mof_Zn	Zn	0.26209	0.26209	0.5	1.212
Mof_Zn	Zn	0.73791	0	0.5	1.204
Mof_Zn	Zn	-3.15232e-17	0.73791	0.5	1.204
Mof_Cr	Cr	-0	0.07459	-0	1.703
Mof_Cr	Cr	0.92541	0.92541	-0	1.872
Mof_Cr	Cr	0.07459	0	-0	1.703
Mof_O 	O 	-0	0	-0	-1.076
Mof_C 	C 	0.099	0.099	0.8625	0.531
Mof_C 	C 	0.1397	0.1397	0.7769	-0.092
Mof_N 	N 	0.2097	0.2097	0.6206	-0.234
Mof_C 	C 	0.901	0	0.8625	0.504
Mof_C 	C 	0.8603	0	0.7769	-0.13
Mof_N 	N 	0.7903	-6.68129e-33	0.6206	-0.252
Mof_C 	C 	-5.43775e-17	0.901	0.8625	0.504
Mof_C 	C 	-1.0916e-16	0.8603	0.7769	-0.13
Mof_N 	N 	2.10531e-17	0.7903	0.6206	-0.252
Mof_C 	C 	0.099	0.099	0.1375	0.545
Mof_C 	C 	0.1397	0.1397	0.2231	-0.137
Mof_N 	N 	0.2097	0.2097	0.3794	-0.231
Mof_C 	C 	0.901	0	0.1375	0.519
Mof_C 	C 	0.8603	-1.67032e-33	0.2231	-0.174
Mof_N 	N 	0.7903	0	0.3794	-0.249
Mof_C 	C 	-8.66888e-18	0.901	0.1375	0.519
Mof_C 	C 	-7.42453e-17	0.8603	0.2231	-0.174
Mof_N 	N 	3.62599e-17	0.7903	0.3794	-0.249
_end
