data_functionalizedCrystal
_audit_creation_method	'EQeq! by Chris Wilmer'
_symmetry_space_group_name_H-M	'P1'
_symmetry_Int_Tables_number	1
_symmetry_cell_setting	triclinic
loop_
_symmetry_equiv_pos_as_xyz
  x,y,z
_cell_length_a	34.3028
_cell_length_b	15.1781
_cell_length_c	29.482
_cell_angle_alpha	90
_cell_angle_beta	100.911
_cell_angle_gamma	90
loop_
_atom_site_label
_atom_site_type_symbol
_atom_site_fract_x
_atom_site_fract_y
_atom_site_fract_z
_atom_site_charge
Mof_Zn	Zn	0.82104	0.86353	0.97234	1.153
Mof_Zn	Zn	0.63375	0.58903	0.78763	1.156
Mof_Zn	Zn	0.41739	0.87668	0.65786	1.159
Mof_Zn	Zn	0.32453	0.6397	0.47529	1.155
Mof_Zn	Zn	0.13502	0.91777	0.28595	1.238
Mof_Zn	Zn	0.41625	0.12749	0.15844	1.159
Mof_N 	N 	0.8109	0.9976	0.9682	-0.285
Mof_C 	C 	0.8311	0.0508	0.0014	0.057
Mof_H 	H 	0.8492	0.0248	0.0261	-0.017
Mof_C 	C 	0.8264	0.1413	0.0008	-0.12
Mof_H 	H 	0.8409	0.1766	0.0248	0.076
Mof_C 	C 	0.8005	0.1794	0.965	0.051
Mof_C 	C 	0.7794	0.126	0.9304	-0.135
Mof_H 	H 	0.761	0.1505	0.9054	0.082
Mof_C 	C 	0.786	0.0357	0.9338	0.075
Mof_H 	H 	0.772	0.9991	0.9101	-0.022
Mof_N 	N 	0.6743	0.528	0.8383	-0.278
Mof_C 	C 	0.6958	0.5727	0.875	0.055
Mof_H 	H 	0.6906	0.6335	0.8788	-0
Mof_C 	C 	0.7248	0.5313	0.9063	-0.122
Mof_H 	H 	0.7405	0.5646	0.9303	0.082
Mof_C 	C 	0.7315	0.4428	0.9035	0.047
Mof_C 	C 	0.7085	0.3976	0.8672	-0.128
Mof_H 	H 	0.7117	0.336	0.8637	0.086
Mof_C 	C 	0.6809	0.4436	0.8363	0.082
Mof_H 	H 	0.6654	0.4116	0.8116	-0.009
Mof_N 	N 	0.8761	0.5514	0.1131	-0.271
Mof_C 	C 	0.8469	0.5887	0.0841	0.076
Mof_H 	H 	0.8413	0.649	0.0887	-0.017
Mof_C 	C 	0.824	0.5446	0.0474	-0.128
Mof_H 	H 	0.8034	0.5744	0.0271	0.075
Mof_C 	C 	0.8317	0.4562	0.0406	0.061
Mof_C 	C 	0.8601	0.4168	0.0733	-0.118
Mof_H 	H 	0.8644	0.3551	0.0724	0.07
Mof_C 	C 	0.8825	0.4677	0.1077	0.077
Mof_H 	H 	0.9036	0.4402	0.1284	-0.01
Mof_C 	C 	0.7944	0.2768	0.965	0.101
Mof_N 	N 	0.767	0.3108	0.933	-0.144
Mof_C 	C 	0.7612	0.3978	0.938	0.081
Mof_N 	N 	0.7802	0.4487	0.9722	-0.145
Mof_C 	C 	0.8091	0.4054	0.0015	0.096
Mof_N 	N 	0.818	0.3198	0.9993	-0.137
Mof_N 	N 	0.5836	0.515	0.7893	-0.28
Mof_C 	C 	0.5681	0.5117	0.8275	0.081
Mof_H 	H 	0.5795	0.548	0.8528	-0.026
Mof_C 	C 	0.5368	0.4594	0.8323	-0.129
Mof_H 	H 	0.5259	0.4619	0.8596	0.079
Mof_C 	C 	0.5212	0.4023	0.7966	0.059
Mof_C 	C 	0.5363	0.4057	0.7576	-0.132
Mof_H 	H 	0.5254	0.37	0.7319	0.086
Mof_C 	C 	0.5674	0.4609	0.7554	0.084
Mof_H 	H 	0.5781	0.4606	0.7279	-0.012
Mof_N 	N 	0.4389	0.9755	0.7044	-0.272
Mof_C 	C 	0.4196	0.9902	0.7392	0.054
Mof_H 	H 	0.4007	0.948	0.7452	-0.004
Mof_C 	C 	0.4261	0.0647	0.7665	-0.098
Mof_H 	H 	0.4126	0.073	0.7914	0.082
Mof_C 	C 	0.4531	0.1274	0.7566	0.049
Mof_C 	C 	0.4745	0.1107	0.7225	-0.113
Mof_H 	H 	0.4941	0.1509	0.7164	0.075
Mof_C 	C 	0.4665	0.0329	0.6972	0.074
Mof_H 	H 	0.4813	0.0204	0.6738	-0.009
Mof_N 	N 	0.3574	0.3476	0.9251	-0.276
Mof_C 	C 	0.3487	0.2886	0.8909	0.053
Mof_H 	H 	0.3241	0.2579	0.8867	0.002
Mof_C 	C 	0.3758	0.2711	0.8607	-0.059
Mof_H 	H 	0.3698	0.2286	0.8367	0.118
Mof_C 	C 	0.4109	0.3177	0.8672	0.08
Mof_C 	C 	0.4188	0.3826	0.9009	-0.117
Mof_H 	H 	0.442	0.4178	0.9037	0.075
Mof_C 	C 	0.3926	0.3951	0.9296	0.05
Mof_H 	H 	0.3986	0.4377	0.9535	-0.022
Mof_C 	C 	0.4887	0.3395	0.8012	0.098
Mof_N 	N 	0.4854	0.2689	0.7744	-0.147
Mof_C 	C 	0.4579	0.211	0.7827	0.101
Mof_N 	N 	0.4334	0.2248	0.8127	-0.121
Mof_C 	C 	0.4379	0.3	0.8359	0.13
Mof_N 	N 	0.4668	0.3607	0.8319	-0.134
Mof_N 	N 	0.3754	0.9514	0.6136	-0.27
Mof_C 	C 	0.3487	0.9114	0.5822	0.079
Mof_H 	H 	0.3456	0.8494	0.5844	-0.02
Mof_C 	C 	0.325	0.9564	0.546	-0.133
Mof_H 	H 	0.3058	0.926	0.5241	0.077
Mof_C 	C 	0.33	0.0458	0.5428	0.07
Mof_C 	C 	0.3555	0.0884	0.5772	-0.125
Mof_H 	H 	0.358	0.1507	0.5768	0.101
Mof_C 	C 	0.3773	0.0403	0.6122	0.084
Mof_H 	H 	0.3943	0.0704	0.6364	0.007
Mof_N 	N 	0.3121	0.5051	0.4703	-0.27
Mof_C 	C 	0.3324	0.4531	0.5024	0.065
Mof_H 	H 	0.3508	0.4789	0.5269	-0.013
Mof_C 	C 	0.3277	0.3622	0.5016	-0.117
Mof_H 	H 	0.3428	0.3265	0.525	0.087
Mof_C 	C 	0.3005	0.3246	0.4661	0.057
Mof_C 	C 	0.2799	0.3785	0.4328	-0.117
Mof_H 	H 	0.2614	0.3542	0.4079	0.086
Mof_C 	C 	0.286	0.4695	0.4357	0.068
Mof_H 	H 	0.2713	0.5067	0.4128	0.002
Mof_N 	N 	0.1746	0.9759	0.3387	-0.28
Mof_C 	C 	0.1957	0.9318	0.3733	0.08
Mof_H 	H 	0.1915	0.8701	0.3751	-0.006
Mof_C 	C 	0.2235	0.9708	0.4071	-0.144
Mof_H 	H 	0.2381	0.9372	0.4318	0.09
Mof_C 	C 	0.2295	0.0613	0.4039	0.053
Mof_C 	C 	0.2077	0.1089	0.3675	-0.132
Mof_H 	H 	0.2114	0.1706	0.3649	0.084
Mof_C 	C 	0.1806	0.0638	0.3353	0.063
Mof_H 	H 	0.1656	0.0951	0.31	-0.041
Mof_C 	C 	0.3074	0.0981	0.5036	0.099
Mof_N 	N 	0.3169	0.1821	0.5004	-0.134
Mof_C 	C 	0.2944	0.2278	0.4666	0.098
Mof_N 	N 	0.2656	0.1924	0.4341	-0.141
Mof_C 	C 	0.2604	0.1059	0.439	0.079
Mof_N 	N 	0.2794	0.0572	0.4744	-0.144
Mof_N 	N 	0.3612	0.6539	0.428	-0.289
Mof_C 	C 	0.3928	0.6097	0.4305	0.113
Mof_H 	H 	0.3977	0.5639	0.4528	-0.032
Mof_C 	C 	0.4207	0.6237	0.403	-0.143
Mof_H 	H 	0.4446	0.5906	0.4076	0.09
Mof_C 	C 	0.413	0.6867	0.3687	0.07
Mof_C 	C 	0.3768	0.7309	0.364	-0.134
Mof_H 	H 	0.3695	0.7733	0.3402	0.085
Mof_C 	C 	0.3525	0.7133	0.393	0.078
Mof_H 	H 	0.3279	0.7436	0.3891	-0.017
Mof_N 	N 	0.4376	0.0298	0.2055	-0.273
Mof_C 	C 	0.4189	0.0123	0.2396	0.086
Mof_H 	H 	0.3999	0.0536	0.2462	-0.014
Mof_C 	C 	0.4254	0.938	0.2659	-0.128
Mof_H 	H 	0.411	0.9282	0.2899	0.082
Mof_C 	C 	0.453	0.8772	0.2573	0.054
Mof_C 	C 	0.4745	0.8968	0.2228	-0.111
Mof_H 	H 	0.4946	0.8582	0.2165	0.089
Mof_C 	C 	0.4658	0.9736	0.1982	0.068
Mof_H 	H 	0.4805	0.9874	0.1748	0.006
Mof_N 	N 	0.5845	0.4945	0.2877	-0.264
Mof_C 	C 	0.5707	0.4953	0.3257	0.079
Mof_H 	H 	0.5821	0.4568	0.3501	-0.011
Mof_C 	C 	0.5393	0.5516	0.3322	-0.123
Mof_H 	H 	0.5307	0.5546	0.361	0.085
Mof_C 	C 	0.5216	0.6018	0.2951	0.056
Mof_C 	C 	0.5371	0.6006	0.2549	-0.132
Mof_H 	H 	0.5266	0.6381	0.2298	0.07
Mof_C 	C 	0.5684	0.5428	0.2522	0.084
Mof_H 	H 	0.5782	0.5386	0.2242	-0.038
Mof_C 	C 	0.4404	0.7034	0.336	0.089
Mof_N 	N 	0.4338	0.7795	0.3125	-0.141
Mof_C 	C 	0.4574	0.7916	0.2831	0.094
Mof_N 	N 	0.4858	0.7372	0.2746	-0.147
Mof_C 	C 	0.4898	0.6631	0.3011	0.081
Mof_N 	N 	0.4677	0.6446	0.3324	-0.138
Mof_I 	I 	0.3714	0.6569	0.558	-0.286
Mof_I 	I 	0.2683	0.7366	0.449	-0.066
Mof_I 	I 	0.4716	0.1563	0.1091	-0.222
Mof_I 	I 	0.3846	0.2412	0.195	-0.088
Mof_I 	I 	0.4702	0.8413	0.6171	-0.098
Mof_I 	I 	0.3772	0.7721	0.6998	-0.204
Mof_I 	I 	0.1507	0.9059	0.2212	-2.72
Mof_I 	I 	0.1109	0.7628	0.336	-0.469
Mof_I 	I 	0.658	0.5421	0.71541	-0.145
Mof_I 	I 	0.62227	0.7423	0.81736	-0.178
Mof_I 	I 	0.8561	0.8367	0.0509	-0.114
Mof_I 	I 	0.7634	0.7756	0.9454	-0.046
Mof_I 	I 	0.8669	0.8318	0.0542	-0.275
Mof_I 	I 	0.47028	0.8448	0.6084	-0.23
Mof_I 	I 	0.3825	0.7657	0.69927	-0.156
Mof_I 	I 	0.1597	0.9615	0.21255	2.205
Mof_I 	I 	0.12293	0.76538	0.31508	0.219
Mof_I 	I 	0.7545	0.7743	0.937	-0.304
Mof_I 	I 	0.3621	0.6693	0.5524	-0.079
Mof_I 	I 	0.2586	0.7266	0.4407	-0.282
Mof_I 	I 	0.4692	0.1663	0.1151	-0.107
Mof_I 	I 	0.3761	0.235	0.1995	-0.257
Mof_I 	I 	0.65653	0.5522	0.711	-0.182
Mof_I 	I 	0.62119	0.7396	0.81796	-0.161
Mof_Zn	Zn	0.32104	0.36353	0.97234	1.154
Mof_Zn	Zn	0.13375	0.08903	0.78763	1.158
Mof_Zn	Zn	0.91739	0.37668	0.65786	1.16
Mof_Zn	Zn	0.82453	0.1397	0.47529	1.156
Mof_Zn	Zn	0.63502	0.41777	0.28595	1.24
Mof_Zn	Zn	0.91625	0.62749	0.15844	1.16
Mof_N 	N 	0.3109	0.4976	0.9682	-0.277
Mof_C 	C 	0.3311	0.5508	0.0014	0.051
Mof_H 	H 	0.3492	0.5248	0.0261	-0.016
Mof_C 	C 	0.3264	0.6413	0.0008	-0.116
Mof_H 	H 	0.3409	0.6766	0.0248	0.076
Mof_C 	C 	0.3005	0.6794	0.965	0.049
Mof_C 	C 	0.2794	0.626	0.9304	-0.128
Mof_H 	H 	0.261	0.6505	0.9054	0.078
Mof_C 	C 	0.286	0.5357	0.9338	0.062
Mof_H 	H 	0.272	0.4991	0.9101	-0.015
Mof_N 	N 	0.1743	0.028	0.8383	-0.274
Mof_C 	C 	0.1958	0.0727	0.875	0.051
Mof_H 	H 	0.1906	0.1335	0.8788	0.001
Mof_C 	C 	0.2248	0.0313	0.9063	-0.113
Mof_H 	H 	0.2405	0.0646	0.9303	0.08
Mof_C 	C 	0.2315	0.9428	0.9035	0.038
Mof_C 	C 	0.2085	0.8976	0.8672	-0.122
Mof_H 	H 	0.2117	0.836	0.8637	0.084
Mof_C 	C 	0.1809	0.9436	0.8363	0.074
Mof_H 	H 	0.1654	0.9116	0.8116	-0.008
Mof_N 	N 	0.3761	0.0514	0.1131	-0.267
Mof_C 	C 	0.3469	0.0887	0.0841	0.073
Mof_H 	H 	0.3413	0.149	0.0887	-0.015
Mof_C 	C 	0.324	0.0446	0.0474	-0.119
Mof_H 	H 	0.3034	0.0744	0.0271	0.072
Mof_C 	C 	0.3317	0.9562	0.0406	0.053
Mof_C 	C 	0.3601	0.9168	0.0733	-0.112
Mof_H 	H 	0.3644	0.8551	0.0724	0.067
Mof_C 	C 	0.3825	0.9677	0.1077	0.069
Mof_H 	H 	0.4036	0.9402	0.1284	-0.008
Mof_C 	C 	0.2944	0.7768	0.965	0.102
Mof_N 	N 	0.267	0.8108	0.933	-0.145
Mof_C 	C 	0.2612	0.8978	0.938	0.083
Mof_N 	N 	0.2802	0.9487	0.9722	-0.146
Mof_C 	C 	0.3091	0.9054	0.0015	0.096
Mof_N 	N 	0.318	0.8198	0.9993	-0.136
Mof_N 	N 	0.0836	0.015	0.7893	-0.279
Mof_C 	C 	0.0681	0.0117	0.8275	0.089
Mof_H 	H 	0.0795	0.048	0.8528	-0.028
Mof_C 	C 	0.0368	0.9594	0.8323	-0.138
Mof_H 	H 	0.0259	0.9619	0.8596	0.08
Mof_C 	C 	0.0212	0.9023	0.7966	0.062
Mof_C 	C 	0.0363	0.9057	0.7576	-0.134
Mof_H 	H 	0.0254	0.87	0.7319	0.086
Mof_C 	C 	0.0674	0.9609	0.7554	0.08
Mof_H 	H 	0.0781	0.9606	0.7279	-0.012
Mof_N 	N 	0.9389	0.4755	0.7044	-0.271
Mof_C 	C 	0.9196	0.4902	0.7392	0.062
Mof_H 	H 	0.9007	0.448	0.7452	-0.006
Mof_C 	C 	0.9261	0.5647	0.7665	-0.106
Mof_H 	H 	0.9126	0.573	0.7914	0.083
Mof_C 	C 	0.9531	0.6274	0.7566	0.051
Mof_C 	C 	0.9745	0.6107	0.7225	-0.114
Mof_H 	H 	0.9941	0.6509	0.7164	0.074
Mof_C 	C 	0.9665	0.5329	0.6972	0.07
Mof_H 	H 	0.9813	0.5204	0.6738	-0.01
Mof_N 	N 	0.8574	0.8476	0.9251	-0.277
Mof_C 	C 	0.8487	0.7886	0.8909	0.053
Mof_H 	H 	0.8241	0.7579	0.8867	0.002
Mof_C 	C 	0.8758	0.7711	0.8607	-0.059
Mof_H 	H 	0.8698	0.7286	0.8367	0.117
Mof_C 	C 	0.9109	0.8177	0.8672	0.08
Mof_C 	C 	0.9188	0.8826	0.9009	-0.117
Mof_H 	H 	0.942	0.9178	0.9037	0.074
Mof_C 	C 	0.8926	0.8951	0.9296	0.05
Mof_H 	H 	0.8986	0.9377	0.9535	-0.023
Mof_C 	C 	0.9887	0.8395	0.8012	0.096
Mof_N 	N 	0.9854	0.7689	0.7744	-0.147
Mof_C 	C 	0.9579	0.711	0.7827	0.1
Mof_N 	N 	0.9334	0.7248	0.8127	-0.121
Mof_C 	C 	0.9379	0.8	0.8359	0.129
Mof_N 	N 	0.9668	0.8607	0.8319	-0.134
Mof_N 	N 	0.8754	0.4514	0.6136	-0.266
Mof_C 	C 	0.8487	0.4114	0.5822	0.075
Mof_H 	H 	0.8456	0.3494	0.5844	-0.019
Mof_C 	C 	0.825	0.4564	0.546	-0.123
Mof_H 	H 	0.8058	0.426	0.5241	0.075
Mof_C 	C 	0.83	0.5458	0.5428	0.061
Mof_C 	C 	0.8555	0.5884	0.5772	-0.119
Mof_H 	H 	0.858	0.6507	0.5768	0.099
Mof_C 	C 	0.8773	0.5403	0.6122	0.077
Mof_H 	H 	0.8943	0.5704	0.6364	0.009
Mof_N 	N 	0.8121	0.0051	0.4703	-0.264
Mof_C 	C 	0.8324	0.9531	0.5024	0.058
Mof_H 	H 	0.8508	0.9789	0.5269	-0.012
Mof_C 	C 	0.8277	0.8622	0.5016	-0.112
Mof_H 	H 	0.8428	0.8265	0.525	0.085
Mof_C 	C 	0.8005	0.8246	0.4661	0.052
Mof_C 	C 	0.7799	0.8785	0.4328	-0.109
Mof_H 	H 	0.7614	0.8542	0.4079	0.082
Mof_C 	C 	0.786	0.9695	0.4357	0.054
Mof_H 	H 	0.7713	0.0067	0.4128	0.01
Mof_N 	N 	0.6746	0.4759	0.3387	-0.277
Mof_C 	C 	0.6957	0.4318	0.3733	0.077
Mof_H 	H 	0.6915	0.3701	0.3751	-0.005
Mof_C 	C 	0.7235	0.4708	0.4071	-0.135
Mof_H 	H 	0.7381	0.4372	0.4318	0.088
Mof_C 	C 	0.7295	0.5613	0.4039	0.045
Mof_C 	C 	0.7077	0.6089	0.3675	-0.126
Mof_H 	H 	0.7114	0.6706	0.3649	0.081
Mof_C 	C 	0.6806	0.5638	0.3353	0.055
Mof_H 	H 	0.6656	0.5951	0.31	-0.04
Mof_C 	C 	0.8074	0.5981	0.5036	0.101
Mof_N 	N 	0.8169	0.6821	0.5004	-0.135
Mof_C 	C 	0.7944	0.7278	0.4666	0.099
Mof_N 	N 	0.7656	0.6924	0.4341	-0.141
Mof_C 	C 	0.7604	0.6059	0.439	0.08
Mof_N 	N 	0.7794	0.5572	0.4744	-0.146
Mof_N 	N 	0.8612	0.1539	0.428	-0.289
Mof_C 	C 	0.8928	0.1097	0.4305	0.113
Mof_H 	H 	0.8977	0.0639	0.4528	-0.031
Mof_C 	C 	0.9207	0.1237	0.403	-0.143
Mof_H 	H 	0.9446	0.0906	0.4076	0.091
Mof_C 	C 	0.913	0.1867	0.3687	0.07
Mof_C 	C 	0.8768	0.2309	0.364	-0.134
Mof_H 	H 	0.8695	0.2733	0.3402	0.086
Mof_C 	C 	0.8525	0.2133	0.393	0.078
Mof_H 	H 	0.8279	0.2436	0.3891	-0.017
Mof_N 	N 	0.9376	0.5298	0.2055	-0.275
Mof_C 	C 	0.9189	0.5123	0.2396	0.078
Mof_H 	H 	0.8999	0.5536	0.2462	-0.013
Mof_C 	C 	0.9254	0.438	0.2659	-0.12
Mof_H 	H 	0.911	0.4282	0.2899	0.08
Mof_C 	C 	0.953	0.3772	0.2573	0.052
Mof_C 	C 	0.9745	0.3968	0.2228	-0.111
Mof_H 	H 	0.9946	0.3582	0.2165	0.089
Mof_C 	C 	0.9658	0.4736	0.1982	0.071
Mof_H 	H 	0.9805	0.4874	0.1748	0.006
Mof_N 	N 	0.0845	0.9945	0.2877	-0.265
Mof_C 	C 	0.0707	0.9953	0.3257	0.072
Mof_H 	H 	0.0821	0.9568	0.3501	-0.01
Mof_C 	C 	0.0393	0.0516	0.3322	-0.116
Mof_H 	H 	0.0307	0.0546	0.361	0.083
Mof_C 	C 	0.0216	0.1018	0.2951	0.053
Mof_C 	C 	0.0371	0.1006	0.2549	-0.131
Mof_H 	H 	0.0266	0.1381	0.2298	0.07
Mof_C 	C 	0.0684	0.0428	0.2522	0.087
Mof_H 	H 	0.0782	0.0386	0.2242	-0.038
Mof_C 	C 	0.9404	0.2034	0.336	0.089
Mof_N 	N 	0.9338	0.2795	0.3125	-0.141
Mof_C 	C 	0.9574	0.2916	0.2831	0.095
Mof_N 	N 	0.9858	0.2372	0.2746	-0.148
Mof_C 	C 	0.9898	0.1631	0.3011	0.083
Mof_N 	N 	0.9677	0.1446	0.3324	-0.138
Mof_I 	I 	0.8714	0.1569	0.558	-0.285
Mof_I 	I 	0.7683	0.2366	0.449	-0.066
Mof_I 	I 	0.9716	0.6563	0.1091	-0.222
Mof_I 	I 	0.8846	0.7412	0.195	-0.089
Mof_I 	I 	0.9702	0.3413	0.6171	-0.097
Mof_I 	I 	0.8772	0.2721	0.6998	-0.203
Mof_I 	I 	0.6507	0.4059	0.2212	-2.737
Mof_I 	I 	0.6109	0.2628	0.336	-0.469
Mof_I 	I 	0.158	0.0421	0.71541	-0.144
Mof_I 	I 	0.12227	0.2423	0.81736	-0.178
Mof_I 	I 	0.3561	0.3367	0.0509	-0.114
Mof_I 	I 	0.2634	0.2756	0.9454	-0.045
Mof_I 	I 	0.3669	0.3318	0.0542	-0.275
Mof_I 	I 	0.97028	0.3448	0.6084	-0.23
Mof_I 	I 	0.8825	0.2657	0.69927	-0.155
Mof_I 	I 	0.6597	0.4615	0.21255	2.224
Mof_I 	I 	0.62293	0.26538	0.31508	0.22
Mof_I 	I 	0.2545	0.2743	0.937	-0.303
Mof_I 	I 	0.8621	0.1693	0.5524	-0.078
Mof_I 	I 	0.7586	0.2266	0.4407	-0.281
Mof_I 	I 	0.9692	0.6663	0.1151	-0.108
Mof_I 	I 	0.8761	0.735	0.1995	-0.257
Mof_I 	I 	0.15653	0.0522	0.711	-0.18
Mof_I 	I 	0.12119	0.2396	0.81796	-0.161
Mof_Zn	Zn	0.17896	0.86353	0.02766	1.154
Mof_Zn	Zn	0.36625	0.58903	0.21237	1.157
Mof_Zn	Zn	0.58261	0.87668	0.34214	1.16
Mof_Zn	Zn	0.67547	0.6397	0.52471	1.156
Mof_Zn	Zn	0.86498	0.91777	0.71405	1.239
Mof_Zn	Zn	0.58375	0.12749	0.84156	1.16
Mof_N 	N 	0.1891	0.9976	0.0318	-0.284
Mof_C 	C 	0.1689	0.0508	0.9986	0.058
Mof_H 	H 	0.1508	0.0248	0.9739	-0.016
Mof_C 	C 	0.1736	0.1413	0.9992	-0.119
Mof_H 	H 	0.1591	0.1766	0.9752	0.077
Mof_C 	C 	0.1995	0.1794	0.035	0.052
Mof_C 	C 	0.2206	0.126	0.0696	-0.135
Mof_H 	H 	0.239	0.1505	0.0946	0.082
Mof_C 	C 	0.214	0.0357	0.0662	0.075
Mof_H 	H 	0.228	0.9991	0.0899	-0.022
Mof_N 	N 	0.3257	0.528	0.1617	-0.278
Mof_C 	C 	0.3042	0.5727	0.125	0.055
Mof_H 	H 	0.3094	0.6335	0.1212	-0
Mof_C 	C 	0.2752	0.5313	0.0937	-0.122
Mof_H 	H 	0.2595	0.5646	0.0697	0.082
Mof_C 	C 	0.2685	0.4428	0.0965	0.047
Mof_C 	C 	0.2915	0.3976	0.1328	-0.128
Mof_H 	H 	0.2883	0.336	0.1363	0.086
Mof_C 	C 	0.3191	0.4436	0.1637	0.082
Mof_H 	H 	0.3346	0.4116	0.1884	-0.009
Mof_N 	N 	0.1239	0.5514	0.8869	-0.271
Mof_C 	C 	0.1531	0.5887	0.9159	0.076
Mof_H 	H 	0.1587	0.649	0.9113	-0.017
Mof_C 	C 	0.176	0.5446	0.9526	-0.128
Mof_H 	H 	0.1966	0.5744	0.9729	0.075
Mof_C 	C 	0.1683	0.4562	0.9594	0.061
Mof_C 	C 	0.1399	0.4168	0.9267	-0.118
Mof_H 	H 	0.1356	0.3551	0.9276	0.07
Mof_C 	C 	0.1175	0.4677	0.8923	0.077
Mof_H 	H 	0.0964	0.4402	0.8716	-0.01
Mof_C 	C 	0.2056	0.2768	0.035	0.101
Mof_N 	N 	0.233	0.3108	0.067	-0.144
Mof_C 	C 	0.2388	0.3978	0.062	0.081
Mof_N 	N 	0.2198	0.4487	0.0278	-0.145
Mof_C 	C 	0.1909	0.4054	0.9985	0.096
Mof_N 	N 	0.182	0.3198	0.0007	-0.137
Mof_N 	N 	0.4164	0.515	0.2107	-0.28
Mof_C 	C 	0.4319	0.5117	0.1725	0.081
Mof_H 	H 	0.4205	0.548	0.1472	-0.026
Mof_C 	C 	0.4632	0.4594	0.1677	-0.129
Mof_H 	H 	0.4741	0.4619	0.1404	0.079
Mof_C 	C 	0.4788	0.4023	0.2034	0.059
Mof_C 	C 	0.4637	0.4057	0.2424	-0.132
Mof_H 	H 	0.4746	0.37	0.2681	0.086
Mof_C 	C 	0.4326	0.4609	0.2446	0.084
Mof_H 	H 	0.4219	0.4606	0.2721	-0.012
Mof_N 	N 	0.5611	0.9755	0.2956	-0.272
Mof_C 	C 	0.5804	0.9902	0.2608	0.054
Mof_H 	H 	0.5993	0.948	0.2548	-0.004
Mof_C 	C 	0.5739	0.0647	0.2335	-0.098
Mof_H 	H 	0.5874	0.073	0.2086	0.082
Mof_C 	C 	0.5469	0.1274	0.2434	0.049
Mof_C 	C 	0.5255	0.1107	0.2775	-0.113
Mof_H 	H 	0.5059	0.1509	0.2836	0.075
Mof_C 	C 	0.5335	0.0329	0.3028	0.074
Mof_H 	H 	0.5187	0.0204	0.3262	-0.009
Mof_N 	N 	0.6426	0.3476	0.0749	-0.276
Mof_C 	C 	0.6513	0.2886	0.1091	0.053
Mof_H 	H 	0.6759	0.2579	0.1133	0.002
Mof_C 	C 	0.6242	0.2711	0.1393	-0.059
Mof_H 	H 	0.6302	0.2286	0.1633	0.118
Mof_C 	C 	0.5891	0.3177	0.1328	0.08
Mof_C 	C 	0.5812	0.3826	0.0991	-0.117
Mof_H 	H 	0.558	0.4178	0.0963	0.075
Mof_C 	C 	0.6074	0.3951	0.0704	0.05
Mof_H 	H 	0.6014	0.4377	0.0465	-0.022
Mof_C 	C 	0.5113	0.3395	0.1988	0.098
Mof_N 	N 	0.5146	0.2689	0.2256	-0.147
Mof_C 	C 	0.5421	0.211	0.2173	0.101
Mof_N 	N 	0.5666	0.2248	0.1873	-0.121
Mof_C 	C 	0.5621	0.3	0.1641	0.13
Mof_N 	N 	0.5332	0.3607	0.1681	-0.134
Mof_N 	N 	0.6246	0.9514	0.3864	-0.27
Mof_C 	C 	0.6513	0.9114	0.4178	0.079
Mof_H 	H 	0.6544	0.8494	0.4156	-0.02
Mof_C 	C 	0.675	0.9564	0.454	-0.133
Mof_H 	H 	0.6942	0.926	0.4759	0.077
Mof_C 	C 	0.67	0.0458	0.4572	0.07
Mof_C 	C 	0.6445	0.0884	0.4228	-0.125
Mof_H 	H 	0.642	0.1507	0.4232	0.101
Mof_C 	C 	0.6227	0.0403	0.3878	0.084
Mof_H 	H 	0.6057	0.0704	0.3636	0.007
Mof_N 	N 	0.6879	0.5051	0.5297	-0.27
Mof_C 	C 	0.6676	0.4531	0.4976	0.065
Mof_H 	H 	0.6492	0.4789	0.4731	-0.013
Mof_C 	C 	0.6723	0.3622	0.4984	-0.117
Mof_H 	H 	0.6572	0.3265	0.475	0.087
Mof_C 	C 	0.6995	0.3246	0.5339	0.057
Mof_C 	C 	0.7201	0.3785	0.5672	-0.117
Mof_H 	H 	0.7386	0.3542	0.5921	0.086
Mof_C 	C 	0.714	0.4695	0.5643	0.068
Mof_H 	H 	0.7287	0.5067	0.5872	0.002
Mof_N 	N 	0.8254	0.9759	0.6613	-0.28
Mof_C 	C 	0.8043	0.9318	0.6267	0.08
Mof_H 	H 	0.8085	0.8701	0.6249	-0.006
Mof_C 	C 	0.7765	0.9708	0.5929	-0.144
Mof_H 	H 	0.7619	0.9372	0.5682	0.09
Mof_C 	C 	0.7705	0.0613	0.5961	0.053
Mof_C 	C 	0.7923	0.1089	0.6325	-0.132
Mof_H 	H 	0.7886	0.1706	0.6351	0.084
Mof_C 	C 	0.8194	0.0638	0.6647	0.063
Mof_H 	H 	0.8344	0.0951	0.69	-0.041
Mof_C 	C 	0.6926	0.0981	0.4964	0.099
Mof_N 	N 	0.6831	0.1821	0.4996	-0.134
Mof_C 	C 	0.7056	0.2278	0.5334	0.098
Mof_N 	N 	0.7344	0.1924	0.5659	-0.141
Mof_C 	C 	0.7396	0.1059	0.561	0.079
Mof_N 	N 	0.7206	0.0572	0.5256	-0.144
Mof_N 	N 	0.6388	0.6539	0.572	-0.289
Mof_C 	C 	0.6072	0.6097	0.5695	0.113
Mof_H 	H 	0.6023	0.5639	0.5472	-0.032
Mof_C 	C 	0.5793	0.6237	0.597	-0.143
Mof_H 	H 	0.5554	0.5906	0.5924	0.09
Mof_C 	C 	0.587	0.6867	0.6313	0.07
Mof_C 	C 	0.6232	0.7309	0.636	-0.134
Mof_H 	H 	0.6305	0.7733	0.6598	0.085
Mof_C 	C 	0.6475	0.7133	0.607	0.078
Mof_H 	H 	0.6721	0.7436	0.6109	-0.017
Mof_N 	N 	0.5624	0.0298	0.7945	-0.273
Mof_C 	C 	0.5811	0.0123	0.7604	0.086
Mof_H 	H 	0.6001	0.0536	0.7538	-0.014
Mof_C 	C 	0.5746	0.938	0.7341	-0.128
Mof_H 	H 	0.589	0.9282	0.7101	0.082
Mof_C 	C 	0.547	0.8772	0.7427	0.054
Mof_C 	C 	0.5255	0.8968	0.7772	-0.111
Mof_H 	H 	0.5054	0.8582	0.7835	0.089
Mof_C 	C 	0.5342	0.9736	0.8018	0.068
Mof_H 	H 	0.5195	0.9874	0.8252	0.006
Mof_N 	N 	0.4155	0.4945	0.7123	-0.264
Mof_C 	C 	0.4293	0.4953	0.6743	0.079
Mof_H 	H 	0.4179	0.4568	0.6499	-0.011
Mof_C 	C 	0.4607	0.5516	0.6678	-0.123
Mof_H 	H 	0.4693	0.5546	0.639	0.085
Mof_C 	C 	0.4784	0.6018	0.7049	0.056
Mof_C 	C 	0.4629	0.6006	0.7451	-0.132
Mof_H 	H 	0.4734	0.6381	0.7702	0.07
Mof_C 	C 	0.4316	0.5428	0.7478	0.084
Mof_H 	H 	0.4218	0.5386	0.7758	-0.038
Mof_C 	C 	0.5596	0.7034	0.664	0.089
Mof_N 	N 	0.5662	0.7795	0.6875	-0.141
Mof_C 	C 	0.5426	0.7916	0.7169	0.094
Mof_N 	N 	0.5142	0.7372	0.7254	-0.147
Mof_C 	C 	0.5102	0.6631	0.6989	0.081
Mof_N 	N 	0.5323	0.6446	0.6676	-0.138
Mof_I 	I 	0.6286	0.6569	0.442	-0.286
Mof_I 	I 	0.7317	0.7366	0.551	-0.066
Mof_I 	I 	0.5284	0.1563	0.8909	-0.222
Mof_I 	I 	0.6154	0.2412	0.805	-0.088
Mof_I 	I 	0.5298	0.8413	0.3829	-0.098
Mof_I 	I 	0.6228	0.7721	0.3002	-0.204
Mof_I 	I 	0.8493	0.9059	0.7788	-2.72
Mof_I 	I 	0.8891	0.7628	0.664	-0.469
Mof_I 	I 	0.342	0.5421	0.28459	-0.145
Mof_I 	I 	0.37773	0.7423	0.18264	-0.178
Mof_I 	I 	0.1439	0.8367	0.9491	-0.114
Mof_I 	I 	0.2366	0.7756	0.0546	-0.046
Mof_I 	I 	0.1331	0.8318	0.9458	-0.275
Mof_I 	I 	0.52972	0.8448	0.3916	-0.23
Mof_I 	I 	0.6175	0.7657	0.30073	-0.156
Mof_I 	I 	0.8403	0.9615	0.78745	2.205
Mof_I 	I 	0.87707	0.76538	0.68492	0.219
Mof_I 	I 	0.2455	0.7743	0.063	-0.304
Mof_I 	I 	0.6379	0.6693	0.4476	-0.079
Mof_I 	I 	0.7414	0.7266	0.5593	-0.282
Mof_I 	I 	0.5308	0.1663	0.8849	-0.107
Mof_I 	I 	0.6239	0.235	0.8005	-0.257
Mof_I 	I 	0.34347	0.5522	0.289	-0.182
Mof_I 	I 	0.37881	0.7396	0.18204	-0.161
Mof_Zn	Zn	0.67896	0.36353	0.02766	1.154
Mof_Zn	Zn	0.86625	0.08903	0.21237	1.158
Mof_Zn	Zn	0.08261	0.37668	0.34214	1.16
Mof_Zn	Zn	0.17547	0.1397	0.52471	1.156
Mof_Zn	Zn	0.36498	0.41777	0.71405	1.24
Mof_Zn	Zn	0.08375	0.62749	0.84156	1.16
Mof_N 	N 	0.6891	0.4976	0.0318	-0.277
Mof_C 	C 	0.6689	0.5508	0.9986	0.051
Mof_H 	H 	0.6508	0.5248	0.9739	-0.016
Mof_C 	C 	0.6736	0.6413	0.9992	-0.116
Mof_H 	H 	0.6591	0.6766	0.9752	0.076
Mof_C 	C 	0.6995	0.6794	0.035	0.049
Mof_C 	C 	0.7206	0.626	0.0696	-0.128
Mof_H 	H 	0.739	0.6505	0.0946	0.078
Mof_C 	C 	0.714	0.5357	0.0662	0.062
Mof_H 	H 	0.728	0.4991	0.0899	-0.015
Mof_N 	N 	0.8257	0.028	0.1617	-0.274
Mof_C 	C 	0.8042	0.0727	0.125	0.051
Mof_H 	H 	0.8094	0.1335	0.1212	0.001
Mof_C 	C 	0.7752	0.0313	0.0937	-0.113
Mof_H 	H 	0.7595	0.0646	0.0697	0.08
Mof_C 	C 	0.7685	0.9428	0.0965	0.038
Mof_C 	C 	0.7915	0.8976	0.1328	-0.122
Mof_H 	H 	0.7883	0.836	0.1363	0.084
Mof_C 	C 	0.8191	0.9436	0.1637	0.074
Mof_H 	H 	0.8346	0.9116	0.1884	-0.008
Mof_N 	N 	0.6239	0.0514	0.8869	-0.267
Mof_C 	C 	0.6531	0.0887	0.9159	0.073
Mof_H 	H 	0.6587	0.149	0.9113	-0.015
Mof_C 	C 	0.676	0.0446	0.9526	-0.119
Mof_H 	H 	0.6966	0.0744	0.9729	0.072
Mof_C 	C 	0.6683	0.9562	0.9594	0.053
Mof_C 	C 	0.6399	0.9168	0.9267	-0.112
Mof_H 	H 	0.6356	0.8551	0.9276	0.067
Mof_C 	C 	0.6175	0.9677	0.8923	0.069
Mof_H 	H 	0.5964	0.9402	0.8716	-0.008
Mof_C 	C 	0.7056	0.7768	0.035	0.102
Mof_N 	N 	0.733	0.8108	0.067	-0.145
Mof_C 	C 	0.7388	0.8978	0.062	0.083
Mof_N 	N 	0.7198	0.9487	0.0278	-0.146
Mof_C 	C 	0.6909	0.9054	0.9985	0.096
Mof_N 	N 	0.682	0.8198	0.0007	-0.136
Mof_N 	N 	0.9164	0.015	0.2107	-0.279
Mof_C 	C 	0.9319	0.0117	0.1725	0.089
Mof_H 	H 	0.9205	0.048	0.1472	-0.028
Mof_C 	C 	0.9632	0.9594	0.1677	-0.138
Mof_H 	H 	0.9741	0.9619	0.1404	0.08
Mof_C 	C 	0.9788	0.9023	0.2034	0.062
Mof_C 	C 	0.9637	0.9057	0.2424	-0.134
Mof_H 	H 	0.9746	0.87	0.2681	0.086
Mof_C 	C 	0.9326	0.9609	0.2446	0.08
Mof_H 	H 	0.9219	0.9606	0.2721	-0.012
Mof_N 	N 	0.0611	0.4755	0.2956	-0.271
Mof_C 	C 	0.0804	0.4902	0.2608	0.062
Mof_H 	H 	0.0993	0.448	0.2548	-0.006
Mof_C 	C 	0.0739	0.5647	0.2335	-0.106
Mof_H 	H 	0.0874	0.573	0.2086	0.083
Mof_C 	C 	0.0469	0.6274	0.2434	0.051
Mof_C 	C 	0.0255	0.6107	0.2775	-0.114
Mof_H 	H 	0.0059	0.6509	0.2836	0.074
Mof_C 	C 	0.0335	0.5329	0.3028	0.07
Mof_H 	H 	0.0187	0.5204	0.3262	-0.01
Mof_N 	N 	0.1426	0.8476	0.0749	-0.277
Mof_C 	C 	0.1513	0.7886	0.1091	0.053
Mof_H 	H 	0.1759	0.7579	0.1133	0.002
Mof_C 	C 	0.1242	0.7711	0.1393	-0.059
Mof_H 	H 	0.1302	0.7286	0.1633	0.117
Mof_C 	C 	0.0891	0.8177	0.1328	0.08
Mof_C 	C 	0.0812	0.8826	0.0991	-0.117
Mof_H 	H 	0.058	0.9178	0.0963	0.074
Mof_C 	C 	0.1074	0.8951	0.0704	0.05
Mof_H 	H 	0.1014	0.9377	0.0465	-0.023
Mof_C 	C 	0.0113	0.8395	0.1988	0.096
Mof_N 	N 	0.0146	0.7689	0.2256	-0.147
Mof_C 	C 	0.0421	0.711	0.2173	0.1
Mof_N 	N 	0.0666	0.7248	0.1873	-0.121
Mof_C 	C 	0.0621	0.8	0.1641	0.129
Mof_N 	N 	0.0332	0.8607	0.1681	-0.134
Mof_N 	N 	0.1246	0.4514	0.3864	-0.266
Mof_C 	C 	0.1513	0.4114	0.4178	0.075
Mof_H 	H 	0.1544	0.3494	0.4156	-0.019
Mof_C 	C 	0.175	0.4564	0.454	-0.123
Mof_H 	H 	0.1942	0.426	0.4759	0.075
Mof_C 	C 	0.17	0.5458	0.4572	0.061
Mof_C 	C 	0.1445	0.5884	0.4228	-0.119
Mof_H 	H 	0.142	0.6507	0.4232	0.099
Mof_C 	C 	0.1227	0.5403	0.3878	0.077
Mof_H 	H 	0.1057	0.5704	0.3636	0.009
Mof_N 	N 	0.1879	0.0051	0.5297	-0.264
Mof_C 	C 	0.1676	0.9531	0.4976	0.058
Mof_H 	H 	0.1492	0.9789	0.4731	-0.012
Mof_C 	C 	0.1723	0.8622	0.4984	-0.112
Mof_H 	H 	0.1572	0.8265	0.475	0.085
Mof_C 	C 	0.1995	0.8246	0.5339	0.052
Mof_C 	C 	0.2201	0.8785	0.5672	-0.109
Mof_H 	H 	0.2386	0.8542	0.5921	0.082
Mof_C 	C 	0.214	0.9695	0.5643	0.054
Mof_H 	H 	0.2287	0.0067	0.5872	0.01
Mof_N 	N 	0.3254	0.4759	0.6613	-0.277
Mof_C 	C 	0.3043	0.4318	0.6267	0.077
Mof_H 	H 	0.3085	0.3701	0.6249	-0.005
Mof_C 	C 	0.2765	0.4708	0.5929	-0.135
Mof_H 	H 	0.2619	0.4372	0.5682	0.088
Mof_C 	C 	0.2705	0.5613	0.5961	0.045
Mof_C 	C 	0.2923	0.6089	0.6325	-0.126
Mof_H 	H 	0.2886	0.6706	0.6351	0.081
Mof_C 	C 	0.3194	0.5638	0.6647	0.055
Mof_H 	H 	0.3344	0.5951	0.69	-0.04
Mof_C 	C 	0.1926	0.5981	0.4964	0.101
Mof_N 	N 	0.1831	0.6821	0.4996	-0.135
Mof_C 	C 	0.2056	0.7278	0.5334	0.099
Mof_N 	N 	0.2344	0.6924	0.5659	-0.141
Mof_C 	C 	0.2396	0.6059	0.561	0.08
Mof_N 	N 	0.2206	0.5572	0.5256	-0.146
Mof_N 	N 	0.1388	0.1539	0.572	-0.289
Mof_C 	C 	0.1072	0.1097	0.5695	0.113
Mof_H 	H 	0.1023	0.0639	0.5472	-0.031
Mof_C 	C 	0.0793	0.1237	0.597	-0.143
Mof_H 	H 	0.0554	0.0906	0.5924	0.091
Mof_C 	C 	0.087	0.1867	0.6313	0.07
Mof_C 	C 	0.1232	0.2309	0.636	-0.134
Mof_H 	H 	0.1305	0.2733	0.6598	0.086
Mof_C 	C 	0.1475	0.2133	0.607	0.078
Mof_H 	H 	0.1721	0.2436	0.6109	-0.017
Mof_N 	N 	0.0624	0.5298	0.7945	-0.275
Mof_C 	C 	0.0811	0.5123	0.7604	0.078
Mof_H 	H 	0.1001	0.5536	0.7538	-0.013
Mof_C 	C 	0.0746	0.438	0.7341	-0.12
Mof_H 	H 	0.089	0.4282	0.7101	0.08
Mof_C 	C 	0.047	0.3772	0.7427	0.052
Mof_C 	C 	0.0255	0.3968	0.7772	-0.111
Mof_H 	H 	0.0054	0.3582	0.7835	0.089
Mof_C 	C 	0.0342	0.4736	0.8018	0.071
Mof_H 	H 	0.0195	0.4874	0.8252	0.006
Mof_N 	N 	0.9155	0.9945	0.7123	-0.265
Mof_C 	C 	0.9293	0.9953	0.6743	0.072
Mof_H 	H 	0.9179	0.9568	0.6499	-0.01
Mof_C 	C 	0.9607	0.0516	0.6678	-0.116
Mof_H 	H 	0.9693	0.0546	0.639	0.083
Mof_C 	C 	0.9784	0.1018	0.7049	0.053
Mof_C 	C 	0.9629	0.1006	0.7451	-0.131
Mof_H 	H 	0.9734	0.1381	0.7702	0.07
Mof_C 	C 	0.9316	0.0428	0.7478	0.087
Mof_H 	H 	0.9218	0.0386	0.7758	-0.038
Mof_C 	C 	0.0596	0.2034	0.664	0.089
Mof_N 	N 	0.0662	0.2795	0.6875	-0.141
Mof_C 	C 	0.0426	0.2916	0.7169	0.095
Mof_N 	N 	0.0142	0.2372	0.7254	-0.148
Mof_C 	C 	0.0102	0.1631	0.6989	0.083
Mof_N 	N 	0.0323	0.1446	0.6676	-0.138
Mof_I 	I 	0.1286	0.1569	0.442	-0.285
Mof_I 	I 	0.2317	0.2366	0.551	-0.066
Mof_I 	I 	0.0284	0.6563	0.8909	-0.222
Mof_I 	I 	0.1154	0.7412	0.805	-0.089
Mof_I 	I 	0.0298	0.3413	0.3829	-0.097
Mof_I 	I 	0.1228	0.2721	0.3002	-0.203
Mof_I 	I 	0.3493	0.4059	0.7788	-2.737
Mof_I 	I 	0.3891	0.2628	0.664	-0.469
Mof_I 	I 	0.842	0.0421	0.28459	-0.144
Mof_I 	I 	0.87773	0.2423	0.18264	-0.178
Mof_I 	I 	0.6439	0.3367	0.9491	-0.114
Mof_I 	I 	0.7366	0.2756	0.0546	-0.045
Mof_I 	I 	0.6331	0.3318	0.9458	-0.275
Mof_I 	I 	0.02972	0.3448	0.3916	-0.23
Mof_I 	I 	0.1175	0.2657	0.30073	-0.155
Mof_I 	I 	0.3403	0.4615	0.78745	2.224
Mof_I 	I 	0.37707	0.26538	0.68492	0.22
Mof_I 	I 	0.7455	0.2743	0.063	-0.303
Mof_I 	I 	0.1379	0.1693	0.4476	-0.078
Mof_I 	I 	0.2414	0.2266	0.5593	-0.281
Mof_I 	I 	0.0308	0.6663	0.8849	-0.108
Mof_I 	I 	0.1239	0.735	0.8005	-0.257
Mof_I 	I 	0.84347	0.0522	0.289	-0.18
Mof_I 	I 	0.87881	0.2396	0.18204	-0.161
Mof_Br	Br	0.29571	0.01	0.68286	-0.266
Mof_Br	Br	0.20128	0.49645	0.81923	-0.308
Mof_C 	C 	0.2661	0.2394	0.7428	0.113
Mof_H 	H 	0.2788	0.2951	0.7347	0.039
Mof_C 	C 	0.2619	0.177	0.7023	-0.203
Mof_H 	H 	0.2344	0.1759	0.6844	0.105
Mof_H 	H 	0.2802	0.1937	0.6815	0.11
Mof_C 	C 	0.2306	0.261	0.7572	0.059
Mof_H 	H 	0.2154	0.2076	0.7635	0.015
Mof_O 	O 	0.2065	0.3197	0.7179	-0.2
Mof_C 	C 	0.1905	0.3892	0.7359	0.002
Mof_H 	H 	0.1656	0.3696	0.7459	0.049
Mof_C 	C 	0.2196	0.413	0.7768	0.115
Mof_H 	H 	0.2421	0.4424	0.7655	-0.016
Mof_C 	C 	0.2356	0.3315	0.7993	-0.225
Mof_H 	H 	0.2203	0.3129	0.8229	0.117
Mof_H 	H 	0.2638	0.3385	0.814	0.114
Mof_C 	C 	0.18	0.455	0.6991	0.043
Mof_H 	H 	0.1774	0.5125	0.714	0.024
Mof_H 	H 	0.1534	0.4394	0.6813	0.018
Mof_C 	C 	0.2075	0.467	0.6651	-0.432
Mof_H 	H 	0.2237	0.4144	0.6647	0.168
Mof_H 	H 	0.2247	0.5182	0.6744	0.147
Mof_H 	H 	0.1917	0.4776	0.6342	0.156
Mof_O 	O 	0.2944	0.2014	0.7776	-0.113
Mof_C 	C 	0.3081	0.118	0.7558	0.243
Mof_H 	H 	0.3295	0.1331	0.7384	0.003
Mof_C 	C 	0.2743	0.0903	0.7246	-0.004
Mof_H 	H 	0.2537	0.0626	0.7398	0.025
Mof_C 	C 	0.3249	0.0557	0.7959	-0.232
Mof_H 	H 	0.3246	0.9948	0.7838	0.118
Mof_H 	H 	0.353	0.0718	0.8076	0.116
Mof_C 	C 	0.3063	0.056	0.8302	0.074
Mof_H 	H 	0.2782	0.0577	0.8213	-0.045
Mof_C 	C 	0.319	0.056	0.8748	-0.195
Mof_H 	H 	0.2987	0.0554	0.8927	0.1
Mof_C 	C 	0.3641	0.055	0.9047	0.126
Mof_C 	C 	0.385	0.073	0.9482	-0.48
Mof_H 	H 	0.3746	0.0886	0.9746	0.178
Mof_N 	N 	0.4186	0.066	0.9464	0.108
Mof_N 	N 	0.4271	0.035	0.9075	-0.262
Mof_N 	N 	0.3925	0.03	0.8799	-0.072
Mof_C 	C 	0.4532	0.072	0.9841	-0.094
Mof_H 	H 	0.4505	0.1252	0.0027	0.034
Mof_H 	H 	0.4774	0.0789	0.9708	0.073
Mof_C 	C 	0.4577	0.991	0.0157	0.239
Mof_O 	O 	0.4314	0.938	0.0089	-0.314
Mof_N 	N 	0.4933	0.987	0.0448	-0.502
Mof_H 	H 	0.511	0.0259	0.0397	0.188
Mof_C 	C 	0.506	0.9275	0.0833	1.356
Mof_C 	C 	0.4853	0.8509	0.0892	-3.492
Mof_H 	H 	0.4606	0.8391	0.0695	0.525
Mof_C 	C 	0.5008	0.7917	0.1239	2.284
Mof_H 	H 	0.4867	0.7394	0.128	-0.922
Mof_C 	C 	0.537	0.809	0.1527	-1.674
Mof_H 	H 	0.5476	0.7686	0.1765	0.593
Mof_C 	C 	0.5577	0.886	0.1468	1.343
Mof_H 	H 	0.5824	0.8975	0.1665	-0.423
Mof_C 	C 	0.5422	0.9449	0.1121	-1.393
Mof_H 	H 	0.5563	0.9972	0.108	0.646
Mof_O 	O 	0.2711	0.171	0.7789	-0.134
Mof_C 	C 	0.29	0.083	0.7682	-0.019
Mof_H 	H 	0.3176	0.0974	0.7643	-0.057
Mof_C 	C 	0.267	0.088	0.725	0.022
Mof_H 	H 	0.2399	0.0629	0.7252	0.033
Mof_C 	C 	0.2945	0.035	0.814	-0.011
Mof_H 	H 	0.3105	0.0762	0.8364	0.075
Mof_H 	H 	0.2674	0.037	0.8215	0.071
Mof_C 	C 	0.3074	0.959	0.829	-0.082
Mof_H 	H 	0.289	0.912	0.8219	0.056
Mof_C 	C 	0.342	0.937	0.852	-0.013
Mof_H 	H 	0.3563	0.8914	0.8408	0.048
Mof_C 	C 	0.3614	0.987	0.9005	0.015
Mof_C 	C 	0.3598	0.062	0.926	0.112
Mof_H 	H 	0.343	0.1118	0.9184	-0.003
Mof_N 	N 	0.3834	0.051	0.9594	0.183
Mof_N 	N 	0.3963	0.97	0.9694	-0.037
Mof_N 	N 	0.3785	0.926	0.9335	-0.073
Mof_C 	C 	0.4013	0.118	0.9927	-0.26
Mof_H 	H 	0.4122	0.0871	0.022	0.104
Mof_H 	H 	0.3799	0.1572	0.9987	0.061
Mof_C 	C 	0.4343	0.175	0.9793	0.31
Mof_O 	O 	0.4542	0.1404	0.9557	-0.27
Mof_N 	N 	0.437	0.2552	0.9968	-0.262
Mof_H 	H 	0.4171	0.2712	0.01	0.123
Mof_C 	C 	0.4676	0.321	0.9975	0.155
Mof_C 	C 	0.4642	0.3989	0.0212	0.045
Mof_H 	H 	0.4445	0.4045	0.0396	-0.025
Mof_C 	C 	0.4898	0.4687	0.018	-0.017
Mof_H 	H 	0.4875	0.522	0.0342	0.017
Mof_C 	C 	0.5188	0.4605	0.991	-0.018
Mof_H 	H 	0.5363	0.5082	0.9888	0.018
Mof_C 	C 	0.5221	0.3825	0.9673	-0.131
Mof_H 	H 	0.5419	0.377	0.9489	0.081
Mof_C 	C 	0.4966	0.3128	0.9706	-0.124
Mof_H 	H 	0.4989	0.2595	0.9544	0.107
Mof_C 	C 	0.535	0.828	0.928	0.293
Mof_H 	H 	0.546	0.8828	0.9181	0.379
Mof_H 	H 	0.5084	0.8403	0.9354	1.155
Mof_C 	C 	0.563	0.79	0.971	-0.658
Mof_H 	H 	0.59	0.811	0.9712	0.22
Mof_H 	H 	0.5543	0.8132	0.9991	0.163
Mof_C 	C 	0.5634	0.69	0.974	0.137
Mof_H 	H 	0.5368	0.6696	0.9772	-0.054
Mof_H 	H 	0.5823	0.6729	0.0022	-0.022
Mof_C 	C 	0.575	0.643	0.933	-0.091
Mof_H 	H 	0.5566	0.5942	0.9224	0.049
Mof_H 	H 	0.6023	0.619	0.9414	0.048
Mof_C 	C 	0.573	0.713	0.894	-0.364
Mof_H 	H 	0.5762	0.6844	0.8644	0.158
Mof_H 	H 	0.5946	0.7572	0.9022	0.131
Mof_C 	C 	0.532	0.756	0.89	0.624
Mof_H 	H 	0.5234	0.7838	0.8588	-0.322
Mof_H 	H 	0.5115	0.7115	0.8936	-0.007
Mof_Br	Br	0.70429	0.01	0.31714	-0.266
Mof_Br	Br	0.79872	0.49645	0.18077	-0.308
Mof_C 	C 	0.7339	0.2394	0.2572	0.113
Mof_H 	H 	0.7212	0.2951	0.2653	0.039
Mof_C 	C 	0.7381	0.177	0.2977	-0.203
Mof_H 	H 	0.7656	0.1759	0.3156	0.105
Mof_H 	H 	0.7198	0.1937	0.3185	0.11
Mof_C 	C 	0.7694	0.261	0.2428	0.059
Mof_H 	H 	0.7846	0.2076	0.2365	0.015
Mof_O 	O 	0.7935	0.3197	0.2821	-0.2
Mof_C 	C 	0.8095	0.3892	0.2641	0.002
Mof_H 	H 	0.8344	0.3696	0.2541	0.049
Mof_C 	C 	0.7804	0.413	0.2232	0.115
Mof_H 	H 	0.7579	0.4424	0.2345	-0.016
Mof_C 	C 	0.7644	0.3315	0.2007	-0.225
Mof_H 	H 	0.7797	0.3129	0.1771	0.117
Mof_H 	H 	0.7362	0.3385	0.186	0.114
Mof_C 	C 	0.82	0.455	0.3009	0.043
Mof_H 	H 	0.8226	0.5125	0.286	0.024
Mof_H 	H 	0.8466	0.4394	0.3187	0.018
Mof_C 	C 	0.7925	0.467	0.3349	-0.432
Mof_H 	H 	0.7763	0.4144	0.3353	0.168
Mof_H 	H 	0.7753	0.5182	0.3256	0.147
Mof_H 	H 	0.8083	0.4776	0.3658	0.156
Mof_O 	O 	0.7056	0.2014	0.2224	-0.113
Mof_C 	C 	0.6919	0.118	0.2442	0.243
Mof_H 	H 	0.6705	0.1331	0.2616	0.003
Mof_C 	C 	0.7257	0.0903	0.2754	-0.004
Mof_H 	H 	0.7463	0.0626	0.2602	0.025
Mof_C 	C 	0.6751	0.0557	0.2041	-0.232
Mof_H 	H 	0.6754	0.9948	0.2162	0.118
Mof_H 	H 	0.647	0.0718	0.1924	0.116
Mof_C 	C 	0.6937	0.056	0.1698	0.074
Mof_H 	H 	0.7218	0.0577	0.1787	-0.045
Mof_C 	C 	0.681	0.056	0.1252	-0.195
Mof_H 	H 	0.7013	0.0554	0.1073	0.1
Mof_C 	C 	0.6359	0.055	0.0953	0.126
Mof_C 	C 	0.615	0.073	0.0518	-0.48
Mof_H 	H 	0.6254	0.0886	0.0254	0.178
Mof_N 	N 	0.5814	0.066	0.0536	0.108
Mof_N 	N 	0.5729	0.035	0.0925	-0.262
Mof_N 	N 	0.6075	0.03	0.1201	-0.072
Mof_C 	C 	0.5468	0.072	0.0159	-0.094
Mof_H 	H 	0.5495	0.1252	0.9973	0.034
Mof_H 	H 	0.5226	0.0789	0.0292	0.073
Mof_C 	C 	0.5423	0.991	0.9843	0.239
Mof_O 	O 	0.5686	0.938	0.9911	-0.314
Mof_N 	N 	0.5067	0.987	0.9552	-0.502
Mof_H 	H 	0.489	0.0259	0.9603	0.188
Mof_C 	C 	0.494	0.9275	0.9167	1.356
Mof_C 	C 	0.5147	0.8509	0.9108	-3.492
Mof_H 	H 	0.5394	0.8391	0.9305	0.525
Mof_C 	C 	0.4992	0.7917	0.8761	2.284
Mof_H 	H 	0.5133	0.7394	0.872	-0.922
Mof_C 	C 	0.463	0.809	0.8473	-1.674
Mof_H 	H 	0.4524	0.7686	0.8235	0.593
Mof_C 	C 	0.4423	0.886	0.8532	1.343
Mof_H 	H 	0.4176	0.8975	0.8335	-0.423
Mof_C 	C 	0.4578	0.9449	0.8879	-1.393
Mof_H 	H 	0.4437	0.9972	0.892	0.646
Mof_O 	O 	0.7289	0.171	0.2211	-0.134
Mof_C 	C 	0.71	0.083	0.2318	-0.019
Mof_H 	H 	0.6824	0.0974	0.2357	-0.057
Mof_C 	C 	0.733	0.088	0.275	0.022
Mof_H 	H 	0.7601	0.0629	0.2748	0.033
Mof_C 	C 	0.7055	0.035	0.186	-0.011
Mof_H 	H 	0.6895	0.0762	0.1636	0.075
Mof_H 	H 	0.7326	0.037	0.1785	0.071
Mof_C 	C 	0.6926	0.959	0.171	-0.082
Mof_H 	H 	0.711	0.912	0.1781	0.056
Mof_C 	C 	0.658	0.937	0.148	-0.013
Mof_H 	H 	0.6437	0.8914	0.1592	0.048
Mof_C 	C 	0.6386	0.987	0.0995	0.015
Mof_C 	C 	0.6402	0.062	0.074	0.112
Mof_H 	H 	0.657	0.1118	0.0816	-0.003
Mof_N 	N 	0.6166	0.051	0.0406	0.183
Mof_N 	N 	0.6037	0.97	0.0306	-0.037
Mof_N 	N 	0.6215	0.926	0.0665	-0.073
Mof_C 	C 	0.5987	0.118	0.0073	-0.26
Mof_H 	H 	0.5878	0.0871	0.978	0.104
Mof_H 	H 	0.6201	0.1572	0.0013	0.061
Mof_C 	C 	0.5657	0.175	0.0207	0.31
Mof_O 	O 	0.5458	0.1404	0.0443	-0.27
Mof_N 	N 	0.563	0.2552	0.0032	-0.262
Mof_H 	H 	0.5829	0.2712	0.99	0.123
Mof_C 	C 	0.5324	0.321	0.0025	0.155
Mof_C 	C 	0.5358	0.3989	0.9788	0.045
Mof_H 	H 	0.5555	0.4045	0.9604	-0.025
Mof_C 	C 	0.5102	0.4687	0.982	-0.017
Mof_H 	H 	0.5125	0.522	0.9658	0.017
Mof_C 	C 	0.4812	0.4605	0.009	-0.018
Mof_H 	H 	0.4637	0.5082	0.0112	0.018
Mof_C 	C 	0.4779	0.3825	0.0327	-0.131
Mof_H 	H 	0.4581	0.377	0.0511	0.081
Mof_C 	C 	0.5034	0.3128	0.0294	-0.124
Mof_H 	H 	0.5011	0.2595	0.0456	0.107
Mof_C 	C 	0.465	0.828	0.072	0.293
Mof_H 	H 	0.454	0.8828	0.0819	0.379
Mof_H 	H 	0.4916	0.8403	0.0646	1.155
Mof_C 	C 	0.437	0.79	0.029	-0.658
Mof_H 	H 	0.41	0.811	0.0288	0.22
Mof_H 	H 	0.4457	0.8132	0.0009	0.163
Mof_C 	C 	0.4366	0.69	0.026	0.137
Mof_H 	H 	0.4632	0.6696	0.0228	-0.054
Mof_H 	H 	0.4177	0.6729	0.9978	-0.022
Mof_C 	C 	0.425	0.643	0.067	-0.091
Mof_H 	H 	0.4434	0.5942	0.0776	0.049
Mof_H 	H 	0.3977	0.619	0.0586	0.048
Mof_C 	C 	0.427	0.713	0.106	-0.364
Mof_H 	H 	0.4238	0.6844	0.1356	0.158
Mof_H 	H 	0.4054	0.7572	0.0978	0.131
Mof_C 	C 	0.468	0.756	0.11	0.624
Mof_H 	H 	0.4766	0.7838	0.1412	-0.322
Mof_H 	H 	0.4885	0.7115	0.1064	-0.007
Mof_Br	Br	0.79571	0.51	0.68286	-0.269
Mof_Br	Br	0.70128	0.99645	0.81923	-0.311
Mof_C 	C 	0.7661	0.7394	0.7428	0.113
Mof_H 	H 	0.7788	0.7951	0.7347	0.039
Mof_C 	C 	0.7619	0.677	0.7023	-0.203
Mof_H 	H 	0.7344	0.6759	0.6844	0.105
Mof_H 	H 	0.7802	0.6937	0.6815	0.11
Mof_C 	C 	0.7306	0.761	0.7572	0.059
Mof_H 	H 	0.7154	0.7076	0.7635	0.015
Mof_O 	O 	0.7065	0.8197	0.7179	-0.2
Mof_C 	C 	0.6905	0.8892	0.7359	0.003
Mof_H 	H 	0.6656	0.8696	0.7459	0.048
Mof_C 	C 	0.7196	0.913	0.7768	0.115
Mof_H 	H 	0.7421	0.9424	0.7655	-0.016
Mof_C 	C 	0.7356	0.8315	0.7993	-0.225
Mof_H 	H 	0.7203	0.8129	0.8229	0.117
Mof_H 	H 	0.7638	0.8385	0.814	0.114
Mof_C 	C 	0.68	0.955	0.6991	0.039
Mof_H 	H 	0.6774	0.0125	0.714	0.028
Mof_H 	H 	0.6534	0.9394	0.6813	0.018
Mof_C 	C 	0.7075	0.967	0.6651	-0.441
Mof_H 	H 	0.7237	0.9144	0.6647	0.17
Mof_H 	H 	0.7247	0.0182	0.6744	0.152
Mof_H 	H 	0.6917	0.9776	0.6342	0.157
Mof_O 	O 	0.7944	0.7014	0.7776	-0.114
Mof_C 	C 	0.8081	0.618	0.7558	0.247
Mof_H 	H 	0.8295	0.6331	0.7384	0.001
Mof_C 	C 	0.7743	0.5903	0.7246	-0.005
Mof_H 	H 	0.7537	0.5626	0.7398	0.025
Mof_C 	C 	0.8249	0.5557	0.7959	-0.244
Mof_H 	H 	0.8246	0.4948	0.7838	0.123
Mof_H 	H 	0.853	0.5718	0.8076	0.119
Mof_C 	C 	0.8063	0.556	0.8302	0.075
Mof_H 	H 	0.7782	0.5577	0.8213	-0.05
Mof_C 	C 	0.819	0.556	0.8748	-0.199
Mof_H 	H 	0.7987	0.5554	0.8927	0.101
Mof_C 	C 	0.8641	0.555	0.9047	0.128
Mof_C 	C 	0.885	0.573	0.9482	-0.485
Mof_H 	H 	0.8746	0.5886	0.9746	0.178
Mof_N 	N 	0.9186	0.566	0.9464	0.11
Mof_N 	N 	0.9271	0.535	0.9075	-0.261
Mof_N 	N 	0.8925	0.53	0.8799	-0.075
Mof_C 	C 	0.9532	0.572	0.9841	-0.105
Mof_H 	H 	0.9505	0.6252	0.0027	0.039
Mof_H 	H 	0.9774	0.5789	0.9708	0.077
Mof_C 	C 	0.9577	0.491	0.0157	0.245
Mof_O 	O 	0.9314	0.438	0.0089	-0.313
Mof_N 	N 	0.9933	0.487	0.0448	-0.491
Mof_H 	H 	0.011	0.5259	0.0397	0.181
Mof_C 	C 	0.006	0.4275	0.0833	1.323
Mof_C 	C 	0.9853	0.3509	0.0892	-3.403
Mof_H 	H 	0.9606	0.3391	0.0695	0.512
Mof_C 	C 	0.0008	0.2917	0.1239	2.221
Mof_H 	H 	0.9867	0.2394	0.128	-0.895
Mof_C 	C 	0.037	0.309	0.1527	-1.632
Mof_H 	H 	0.0476	0.2686	0.1765	0.578
Mof_C 	C 	0.0577	0.386	0.1468	1.309
Mof_H 	H 	0.0824	0.3975	0.1665	-0.411
Mof_C 	C 	0.0422	0.4449	0.1121	-1.362
Mof_H 	H 	0.0563	0.4972	0.108	0.637
Mof_O 	O 	0.7711	0.671	0.7789	-0.133
Mof_C 	C 	0.79	0.583	0.7682	-0.02
Mof_H 	H 	0.8176	0.5974	0.7643	-0.057
Mof_C 	C 	0.767	0.588	0.725	0.021
Mof_H 	H 	0.7399	0.5629	0.7252	0.032
Mof_C 	C 	0.7945	0.535	0.814	-0.006
Mof_H 	H 	0.8105	0.5762	0.8364	0.076
Mof_H 	H 	0.7674	0.537	0.8215	0.073
Mof_C 	C 	0.8074	0.459	0.829	-0.08
Mof_H 	H 	0.789	0.412	0.8219	0.056
Mof_C 	C 	0.842	0.437	0.852	-0.014
Mof_H 	H 	0.8563	0.3914	0.8408	0.048
Mof_C 	C 	0.8614	0.487	0.9005	0.022
Mof_C 	C 	0.8598	0.562	0.926	0.105
Mof_H 	H 	0.843	0.6118	0.9184	-0
Mof_N 	N 	0.8834	0.551	0.9594	0.187
Mof_N 	N 	0.8963	0.47	0.9694	-0.036
Mof_N 	N 	0.8785	0.426	0.9335	-0.073
Mof_C 	C 	0.9013	0.618	0.9927	-0.259
Mof_H 	H 	0.9122	0.5871	0.022	0.104
Mof_H 	H 	0.8799	0.6572	0.9987	0.06
Mof_C 	C 	0.9343	0.675	0.9793	0.307
Mof_O 	O 	0.9542	0.6404	0.9557	-0.269
Mof_N 	N 	0.937	0.7552	0.9968	-0.262
Mof_H 	H 	0.9171	0.7712	0.01	0.124
Mof_C 	C 	0.9676	0.821	0.9975	0.153
Mof_C 	C 	0.9642	0.8989	0.0212	0.046
Mof_H 	H 	0.9445	0.9045	0.0396	-0.026
Mof_C 	C 	0.9898	0.9687	0.018	-0.019
Mof_H 	H 	0.9875	0.022	0.0342	0.019
Mof_C 	C 	0.0188	0.9605	0.991	-0.021
Mof_H 	H 	0.0363	0.0082	0.9888	0.022
Mof_C 	C 	0.0221	0.8825	0.9673	-0.129
Mof_H 	H 	0.0419	0.877	0.9489	0.08
Mof_C 	C 	0.9966	0.8128	0.9706	-0.124
Mof_H 	H 	0.9989	0.7595	0.9544	0.106
Mof_C 	C 	0.035	0.328	0.928	0.286
Mof_H 	H 	0.046	0.3828	0.9181	0.37
Mof_H 	H 	0.0084	0.3403	0.9354	1.127
Mof_C 	C 	0.063	0.29	0.971	-0.649
Mof_H 	H 	0.09	0.311	0.9712	0.218
Mof_H 	H 	0.0543	0.3132	0.9991	0.163
Mof_C 	C 	0.0634	0.19	0.974	0.138
Mof_H 	H 	0.0368	0.1696	0.9772	-0.053
Mof_H 	H 	0.0823	0.1729	0.0022	-0.023
Mof_C 	C 	0.075	0.143	0.933	-0.095
Mof_H 	H 	0.0566	0.0942	0.9224	0.051
Mof_H 	H 	0.1023	0.119	0.9414	0.05
Mof_C 	C 	0.073	0.213	0.894	-0.353
Mof_H 	H 	0.0762	0.1844	0.8644	0.154
Mof_H 	H 	0.0946	0.2572	0.9022	0.129
Mof_C 	C 	0.032	0.256	0.89	0.602
Mof_H 	H 	0.0234	0.2838	0.8588	-0.311
Mof_H 	H 	0.0115	0.2115	0.8936	-0.005
Mof_Br	Br	0.20429	0.51	0.31714	-0.269
Mof_Br	Br	0.29872	0.99645	0.18077	-0.311
Mof_C 	C 	0.2339	0.7394	0.2572	0.113
Mof_H 	H 	0.2212	0.7951	0.2653	0.039
Mof_C 	C 	0.2381	0.677	0.2977	-0.203
Mof_H 	H 	0.2656	0.6759	0.3156	0.105
Mof_H 	H 	0.2198	0.6937	0.3185	0.11
Mof_C 	C 	0.2694	0.761	0.2428	0.059
Mof_H 	H 	0.2846	0.7076	0.2365	0.015
Mof_O 	O 	0.2935	0.8197	0.2821	-0.2
Mof_C 	C 	0.3095	0.8892	0.2641	0.003
Mof_H 	H 	0.3344	0.8696	0.2541	0.048
Mof_C 	C 	0.2804	0.913	0.2232	0.115
Mof_H 	H 	0.2579	0.9424	0.2345	-0.016
Mof_C 	C 	0.2644	0.8315	0.2007	-0.225
Mof_H 	H 	0.2797	0.8129	0.1771	0.117
Mof_H 	H 	0.2362	0.8385	0.186	0.114
Mof_C 	C 	0.32	0.955	0.3009	0.039
Mof_H 	H 	0.3226	0.0125	0.286	0.028
Mof_H 	H 	0.3466	0.9394	0.3187	0.018
Mof_C 	C 	0.2925	0.967	0.3349	-0.441
Mof_H 	H 	0.2763	0.9144	0.3353	0.17
Mof_H 	H 	0.2753	0.0182	0.3256	0.152
Mof_H 	H 	0.3083	0.9776	0.3658	0.157
Mof_O 	O 	0.2056	0.7014	0.2224	-0.114
Mof_C 	C 	0.1919	0.618	0.2442	0.247
Mof_H 	H 	0.1705	0.6331	0.2616	0.001
Mof_C 	C 	0.2257	0.5903	0.2754	-0.005
Mof_H 	H 	0.2463	0.5626	0.2602	0.025
Mof_C 	C 	0.1751	0.5557	0.2041	-0.244
Mof_H 	H 	0.1754	0.4948	0.2162	0.123
Mof_H 	H 	0.147	0.5718	0.1924	0.119
Mof_C 	C 	0.1937	0.556	0.1698	0.075
Mof_H 	H 	0.2218	0.5577	0.1787	-0.05
Mof_C 	C 	0.181	0.556	0.1252	-0.199
Mof_H 	H 	0.2013	0.5554	0.1073	0.101
Mof_C 	C 	0.1359	0.555	0.0953	0.128
Mof_C 	C 	0.115	0.573	0.0518	-0.485
Mof_H 	H 	0.1254	0.5886	0.0254	0.178
Mof_N 	N 	0.0814	0.566	0.0536	0.11
Mof_N 	N 	0.0729	0.535	0.0925	-0.261
Mof_N 	N 	0.1075	0.53	0.1201	-0.075
Mof_C 	C 	0.0468	0.572	0.0159	-0.105
Mof_H 	H 	0.0495	0.6252	0.9973	0.039
Mof_H 	H 	0.0226	0.5789	0.0292	0.077
Mof_C 	C 	0.0423	0.491	0.9843	0.245
Mof_O 	O 	0.0686	0.438	0.9911	-0.313
Mof_N 	N 	0.0067	0.487	0.9552	-0.491
Mof_H 	H 	0.989	0.5259	0.9603	0.181
Mof_C 	C 	0.994	0.4275	0.9167	1.323
Mof_C 	C 	0.0147	0.3509	0.9108	-3.403
Mof_H 	H 	0.0394	0.3391	0.9305	0.512
Mof_C 	C 	0.9992	0.2917	0.8761	2.221
Mof_H 	H 	0.0133	0.2394	0.872	-0.895
Mof_C 	C 	0.963	0.309	0.8473	-1.632
Mof_H 	H 	0.9524	0.2686	0.8235	0.578
Mof_C 	C 	0.9423	0.386	0.8532	1.309
Mof_H 	H 	0.9176	0.3975	0.8335	-0.411
Mof_C 	C 	0.9578	0.4449	0.8879	-1.362
Mof_H 	H 	0.9437	0.4972	0.892	0.637
Mof_O 	O 	0.2289	0.671	0.2211	-0.133
Mof_C 	C 	0.21	0.583	0.2318	-0.02
Mof_H 	H 	0.1824	0.5974	0.2357	-0.057
Mof_C 	C 	0.233	0.588	0.275	0.021
Mof_H 	H 	0.2601	0.5629	0.2748	0.032
Mof_C 	C 	0.2055	0.535	0.186	-0.006
Mof_H 	H 	0.1895	0.5762	0.1636	0.076
Mof_H 	H 	0.2326	0.537	0.1785	0.073
Mof_C 	C 	0.1926	0.459	0.171	-0.08
Mof_H 	H 	0.211	0.412	0.1781	0.056
Mof_C 	C 	0.158	0.437	0.148	-0.014
Mof_H 	H 	0.1437	0.3914	0.1592	0.048
Mof_C 	C 	0.1386	0.487	0.0995	0.022
Mof_C 	C 	0.1402	0.562	0.074	0.105
Mof_H 	H 	0.157	0.6118	0.0816	-0
Mof_N 	N 	0.1166	0.551	0.0406	0.187
Mof_N 	N 	0.1037	0.47	0.0306	-0.036
Mof_N 	N 	0.1215	0.426	0.0665	-0.073
Mof_C 	C 	0.0987	0.618	0.0073	-0.259
Mof_H 	H 	0.0878	0.5871	0.978	0.104
Mof_H 	H 	0.1201	0.6572	0.0013	0.06
Mof_C 	C 	0.0657	0.675	0.0207	0.307
Mof_O 	O 	0.0458	0.6404	0.0443	-0.269
Mof_N 	N 	0.063	0.7552	0.0032	-0.262
Mof_H 	H 	0.0829	0.7712	0.99	0.124
Mof_C 	C 	0.0324	0.821	0.0025	0.153
Mof_C 	C 	0.0358	0.8989	0.9788	0.046
Mof_H 	H 	0.0555	0.9045	0.9604	-0.026
Mof_C 	C 	0.0102	0.9687	0.982	-0.019
Mof_H 	H 	0.0125	0.022	0.9658	0.019
Mof_C 	C 	0.9812	0.9605	0.009	-0.021
Mof_H 	H 	0.9637	0.0082	0.0112	0.022
Mof_C 	C 	0.9779	0.8825	0.0327	-0.129
Mof_H 	H 	0.9581	0.877	0.0511	0.08
Mof_C 	C 	0.0034	0.8128	0.0294	-0.124
Mof_H 	H 	0.0011	0.7595	0.0456	0.106
Mof_C 	C 	0.965	0.328	0.072	0.286
Mof_H 	H 	0.954	0.3828	0.0819	0.37
Mof_H 	H 	0.9916	0.3403	0.0646	1.127
Mof_C 	C 	0.937	0.29	0.029	-0.649
Mof_H 	H 	0.91	0.311	0.0288	0.218
Mof_H 	H 	0.9457	0.3132	0.0009	0.163
Mof_C 	C 	0.9366	0.19	0.026	0.138
Mof_H 	H 	0.9632	0.1696	0.0228	-0.053
Mof_H 	H 	0.9177	0.1729	0.9978	-0.023
Mof_C 	C 	0.925	0.143	0.067	-0.095
Mof_H 	H 	0.9434	0.0942	0.0776	0.051
Mof_H 	H 	0.8977	0.119	0.0586	0.05
Mof_C 	C 	0.927	0.213	0.106	-0.353
Mof_H 	H 	0.9238	0.1844	0.1356	0.154
Mof_H 	H 	0.9054	0.2572	0.0978	0.129
Mof_C 	C 	0.968	0.256	0.11	0.602
Mof_H 	H 	0.9766	0.2838	0.1412	-0.311
Mof_H 	H 	0.9885	0.2115	0.1064	-0.005
_end
