data_functionalizedCrystal
_audit_creation_method	'EQeq! by Chris Wilmer'
_symmetry_space_group_name_H-M	'P1'
_symmetry_Int_Tables_number	1
_symmetry_cell_setting	triclinic
loop_
_symmetry_equiv_pos_as_xyz
  x,y,z
_cell_length_a	23.1895
_cell_length_b	29.6451
_cell_length_c	29.5164
_cell_angle_alpha	90
_cell_angle_beta	90
_cell_angle_gamma	90
loop_
_atom_site_label
_atom_site_type_symbol
_atom_site_fract_x
_atom_site_fract_y
_atom_site_fract_z
_atom_site_charge
Mof_C 	C 	0.7237	0.3675	0.3798	0.238
Mof_C 	C 	0.7191	0.332	0.3459	0.032
Mof_C 	C 	0.7684	0.3183	0.3224	-0.174
Mof_H 	H 	0.8048	0.3317	0.3285	0.087
Mof_C 	C 	0.7635	0.2852	0.2902	0.181
Mof_C 	C 	0.7129	0.2656	0.2788	-0.255
Mof_H 	H 	0.7114	0.2436	0.2555	0.141
Mof_C 	C 	0.6633	0.2783	0.3019	0.199
Mof_C 	C 	0.6664	0.3108	0.3357	-0.176
Mof_H 	H 	0.6327	0.3187	0.3521	0.104
Mof_C 	C 	0.797	0.1576	0.2847	-0.298
Mof_H 	H 	0.7855	0.1344	0.3066	0.101
Mof_H 	H 	0.8228	0.1444	0.262	0.094
Mof_H 	H 	0.7626	0.1697	0.2697	0.122
Mof_C 	C 	0.8287	0.1963	0.3098	-0.107
Mof_H 	H 	0.8032	0.2096	0.3331	0.047
Mof_H 	H 	0.8637	0.1845	0.325	0.043
Mof_C 	C 	0.8451	0.2315	0.2752	0.141
Mof_C 	C 	0.8436	0.2931	0.2339	0.302
Mof_C 	C 	0.829	0.3368	0.2165	-0.688
Mof_H 	H 	0.8436	0.3601	0.237	0.209
Mof_H 	H 	0.787	0.3395	0.214	0.226
Mof_H 	H 	0.8464	0.3408	0.1865	0.211
Mof_C 	C 	0.593	0.2232	0.2709	0.169
Mof_C 	C 	0.537	0.2005	0.2794	0.044
Mof_C 	C 	0.5236	0.163	0.2545	-0.223
Mof_H 	H 	0.5472	0.1549	0.2294	0.1
Mof_C 	C 	0.4741	0.1357	0.2659	0.253
Mof_C 	C 	0.4395	0.152	0.298	-0.261
Mof_H 	H 	0.4049	0.1358	0.3039	0.102
Mof_C 	C 	0.4497	0.1913	0.3239	0.105
Mof_H 	H 	0.4246	0.2007	0.3475	-0.018
Mof_C 	C 	0.4991	0.2149	0.3122	-0.158
Mof_H 	H 	0.5071	0.2424	0.3275	0.075
Mof_C 	C 	0.462	0.0952	0.2354	-0.602
Mof_H 	H 	0.4593	0.0679	0.2539	0.191
Mof_H 	H 	0.4934	0.0919	0.2134	0.196
Mof_H 	H 	0.4255	0.1	0.2193	0.18
Mof_C 	C 	0.754	0.6013	0.5738	0.3
Mof_C 	C 	0.7438	0.6462	0.6	0.014
Mof_C 	C 	0.6878	0.652	0.6217	-0.157
Mof_H 	H 	0.6592	0.6291	0.6211	0.066
Mof_C 	C 	0.6787	0.6938	0.6438	0.164
Mof_C 	C 	0.7187	0.7264	0.6459	-0.245
Mof_H 	H 	0.7107	0.7533	0.6621	0.13
Mof_C 	C 	0.7738	0.721	0.6236	0.171
Mof_C 	C 	0.7816	0.6799	0.6014	-0.172
Mof_H 	H 	0.8171	0.6756	0.5859	0.094
Mof_C 	C 	0.5991	0.7677	0.6145	-0.736
Mof_C 	C 	0.5866	0.6168	0.7587	0.378
Mof_H 	H 	0.5541	0.6362	0.7672	-0.092
Mof_H 	H 	0.6125	0.6131	0.7847	-0.091
Mof_H 	H 	0.5721	0.5872	0.7493	-0.091
Mof_C 	C 	0.6192	0.6381	0.7199	-0.22
Mof_H 	H 	0.6572	0.6475	0.7318	0.044
Mof_H 	H 	0.6265	0.6141	0.6973	0.038
Mof_C 	C 	0.595	0.6767	0.6955	0.173
Mof_C 	C 	0.588	0.7344	0.6505	0.289
Mof_H 	H 	0.6379	0.763	0.6022	0.243
Mof_H 	H 	0.5963	0.7982	0.6271	0.165
Mof_H 	H 	0.5706	0.764	0.5903	0.318
Mof_C 	C 	0.8199	0.7921	0.6469	0.287
Mof_C 	C 	0.8736	0.8159	0.6365	-0.118
Mof_C 	C 	0.9127	0.8074	0.6017	0.059
Mof_H 	H 	0.9086	0.7812	0.5836	0.034
Mof_C 	C 	0.9582	0.8378	0.5934	-0.467
Mof_C 	C 	0.9703	0.8713	0.6252	0.313
Mof_H 	H 	0.0051	0.8881	0.6233	-0.124
Mof_C 	C 	0.9313	0.8801	0.6597	-0.345
Mof_H 	H 	0.9369	0.9053	0.679	0.094
Mof_C 	C 	0.8836	0.852	0.666	0.192
Mof_H 	H 	0.8578	0.8574	0.6904	-0.397
Mof_C 	C 	0.001	0.8275	0.5558	0.132
Mof_H 	H 	0.0217	0.7995	0.5629	-0.028
Mof_H 	H 	0.0286	0.8524	0.5531	-0.076
Mof_H 	H 	0.9802	0.8239	0.5271	0.002
Mof_C 	C 	0.0346	0.3429	0.6031	0.209
Mof_C 	C 	0.0274	0.3736	0.566	0.033
Mof_C 	C 	0.9722	0.3906	0.5559	-0.157
Mof_H 	H 	0.9395	0.381	0.5727	0.073
Mof_C 	C 	0.9665	0.422	0.5205	0.17
Mof_C 	C 	0.0132	0.4355	0.4946	-0.242
Mof_H 	H 	0.0084	0.4562	0.4704	0.138
Mof_C 	C 	0.068	0.4177	0.5053	0.196
Mof_C 	C 	0.0741	0.3881	0.5396	-0.186
Mof_H 	H 	0.1114	0.3766	0.5462	0.105
Mof_C 	C 	0.8645	0.523	0.6009	-0.292
Mof_H 	H 	0.8274	0.5091	0.6085	0.092
Mof_H 	H 	0.8581	0.5489	0.5808	0.109
Mof_H 	H 	0.8836	0.5332	0.6287	0.1
Mof_C 	C 	0.9013	0.4897	0.5778	-0.09
Mof_H 	H 	0.9111	0.466	0.6002	0.045
Mof_H 	H 	0.9378	0.5051	0.5697	0.057
Mof_C 	C 	0.8789	0.4659	0.535	0.134
Mof_C 	C 	0.8744	0.4261	0.4742	0.263
Mof_C 	C 	0.8904	0.3903	0.4407	-0.618
Mof_H 	H 	0.8782	0.3608	0.4522	0.185
Mof_H 	H 	0.9323	0.3903	0.4363	0.209
Mof_H 	H 	0.8712	0.3963	0.4118	0.202
Mof_C 	C 	0.1244	0.4552	0.445	0.156
Mof_C 	C 	0.1808	0.4491	0.4187	0.112
Mof_C 	C 	0.2191	0.4135	0.4267	-0.335
Mof_H 	H 	0.2112	0.3926	0.4503	0.131
Mof_C 	C 	0.2685	0.4081	0.4008	0.43
Mof_C 	C 	0.2776	0.4351	0.3672	-0.423
Mof_H 	H 	0.3099	0.4294	0.3482	0.153
Mof_C 	C 	0.244	0.4711	0.3576	0.191
Mof_H 	H 	0.2533	0.4903	0.3329	-0.051
Mof_C 	C 	0.1919	0.4805	0.386	-0.227
Mof_H 	H 	0.1684	0.5063	0.3817	0.096
Mof_C 	C 	0.3041	0.3674	0.4095	-0.783
Mof_H 	H 	0.289	0.3514	0.4361	0.226
Mof_H 	H 	0.3441	0.3764	0.4151	0.24
Mof_H 	H 	0.3025	0.3474	0.383	0.244
Mof_C 	C 	0.5044	0.6464	0.3404	0.236
Mof_C 	C 	0.5026	0.618	0.3849	0.068
Mof_C 	C 	0.5512	0.5905	0.3935	-0.2
Mof_H 	H 	0.5833	0.5895	0.3736	0.089
Mof_C 	C 	0.5489	0.5653	0.4327	0.159
Mof_C 	C 	0.5019	0.5648	0.4611	-0.252
Mof_H 	H 	0.5	0.5447	0.4861	0.112
Mof_C 	C 	0.4556	0.5961	0.4516	0.182
Mof_C 	C 	0.4588	0.6194	0.411	-0.212
Mof_H 	H 	0.4267	0.6372	0.4021	0.113
Mof_C 	C 	0.6301	0.5467	0.4855	0.163
Mof_C 	C 	0.6259	0.5029	0.4231	0.291
Mof_C 	C 	0.6053	0.4843	0.3817	-0.689
Mof_H 	H 	0.6164	0.5039	0.3565	0.215
Mof_H 	H 	0.5631	0.4818	0.3829	0.227
Mof_H 	H 	0.6221	0.4543	0.3773	0.221
Mof_C 	C 	0.3942	0.576	0.5184	0.12
Mof_C 	C 	0.3398	0.5865	0.5404	0.188
Mof_C 	C 	0.3024	0.6183	0.5288	-0.443
Mof_H 	H 	0.3093	0.6351	0.502	0.161
Mof_C 	C 	0.2523	0.6283	0.555	0.571
Mof_C 	C 	0.2433	0.5998	0.5908	-0.495
Mof_H 	H 	0.2099	0.6053	0.6087	0.18
Mof_C 	C 	0.2769	0.5648	0.6033	0.281
Mof_H 	H 	0.2667	0.5448	0.6272	-0.09
Mof_C 	C 	0.327	0.5603	0.5789	-0.306
Mof_H 	H 	0.3544	0.5384	0.5885	0.113
Mof_C 	C 	0.2105	0.6584	0.5412	-1.034
Mof_H 	H 	0.2026	0.6539	0.5089	0.303
Mof_H 	H 	0.2241	0.6893	0.5462	0.307
Mof_H 	H 	0.1751	0.6533	0.5586	0.306
Mof_Ag	Ag	0.74308	0.44525	0.43797	0.611
Mof_Ag	Ag	0.75014	0.5132	0.53339	0.575
Mof_Ag	Ag	0.9702	0.1851	0.24983	0.623
Mof_Ag	Ag	0.96451	0.28007	0.17836	0.609
Mof_N 	N 	0.8911	0.2299	0.2501	-0.177
Mof_N 	N 	0.8915	0.2694	0.2242	-0.21
Mof_N 	N 	0.8164	0.2705	0.2677	-0.211
Mof_N 	N 	0.6069	0.2595	0.2957	-0.243
Mof_H 	H 	0.5784	0.2731	0.3098	0.136
Mof_N 	N 	0.5388	0.7319	0.674	-0.206
Mof_N 	N 	0.5447	0.6975	0.7039	-0.179
Mof_N 	N 	0.6231	0.6997	0.6635	-0.219
Mof_N 	N 	0.8179	0.7546	0.6247	-0.273
Mof_H 	H 	0.8483	0.7489	0.6078	0.128
Mof_N 	N 	0.8292	0.4715	0.5172	-0.17
Mof_N 	N 	0.825	0.4448	0.4802	-0.205
Mof_N 	N 	0.9099	0.4373	0.5107	-0.202
Mof_N 	N 	0.1193	0.4279	0.4803	-0.241
Mof_H 	H 	0.1511	0.4145	0.4895	0.128
Mof_N 	N 	0.6732	0.5177	0.4862	-0.177
Mof_N 	N 	0.6695	0.4908	0.4481	-0.211
Mof_N 	N 	0.5969	0.541	0.447	-0.211
Mof_N 	N 	0.4056	0.5974	0.4797	-0.228
Mof_H 	H 	0.3779	0.6153	0.4699	0.12
Mof_O 	O 	0.6821	0.3684	0.4104	-0.289
Mof_O 	O 	0.7639	0.3956	0.3797	-0.333
Mof_O 	O 	0.6277	0.2081	0.2416	-0.231
Mof_O 	O 	0.7301	0.569	0.5882	-0.368
Mof_O 	O 	0.7881	0.604	0.5412	-0.324
Mof_O 	O 	0.7802	0.804	0.6724	-0.267
Mof_O 	O 	0.0004	0.3451	0.6383	-0.316
Mof_O 	O 	0.0742	0.3119	0.5985	-0.286
Mof_O 	O 	0.0852	0.4809	0.4309	-0.223
Mof_O 	O 	0.541	0.6358	0.3108	-0.325
Mof_O 	O 	0.4714	0.6816	0.3398	-0.283
Mof_O 	O 	0.4313	0.5487	0.5355	-0.24
Mof_C 	C 	0.6223	0.5828	0.5183	-0.387
Mof_C 	C 	0.5913	0.5659	0.5596	-1.609
Mof_H 	H 	0.5863	0.5907	0.5812	0.459
Mof_H 	H 	0.6139	0.5418	0.5738	0.501
Mof_H 	H 	0.5534	0.5542	0.5508	0.393
Mof_H 	H 	0.5999	0.6076	0.5044	0.38
Mof_H 	H 	0.6605	0.5949	0.5273	0.111
Mof_C 	C 	0.6024	0.7485	0.5672	-0.475
Mof_H 	H 	0.5992	0.7156	0.5686	0.141
Mof_H 	H 	0.6394	0.7568	0.5535	0.12
Mof_H 	H 	0.5708	0.7607	0.5489	0.097
Mof_H 	H 	0.6359	0.7832	0.6212	0.073
Mof_H 	H 	0.5681	0.7906	0.6153	0.07
Mof_H 	H 	0.5908	0.6268	0.7417	-0.125
Mof_H 	H 	0.6541	0.6475	0.736	0.037
Mof_H 	H 	0.6289	0.6142	0.6983	0.034
Mof_C 	C 	0.8675	0.83	0.6457	-0.136
Mof_C 	C 	0.909	0.8241	0.6138	0.119
Mof_H 	H 	0.9049	0.8009	0.5918	-0.055
Mof_C 	C 	0.9573	0.8517	0.613	0.242
Mof_C 	C 	0.962	0.8844	0.6453	-0.322
Mof_H 	H 	0.9953	0.903	0.6458	0.137
Mof_C 	C 	0.9198	0.8909	0.6769	0.234
Mof_H 	H 	0.9233	0.9147	0.6982	-0.117
Mof_C 	C 	0.8725	0.8632	0.6778	0.138
Mof_H 	H 	0.8437	0.8669	0.7004	0.27
Mof_C 	C 	0.0016	0.8472	0.5751	0.07
Mof_H 	H 	0.991	0.822	0.5554	-0.042
Mof_H 	H 	0.0398	0.8417	0.5882	-0.025
Mof_H 	H 	0.0024	0.8752	0.5573	-0.002
Mof_C 	C 	0.6279	0.63	0.502	-1.128
Mof_H 	H 	0.6216	0.6508	0.5274	0.318
Mof_H 	H 	0.5991	0.6357	0.4784	0.257
Mof_H 	H 	0.6666	0.6347	0.4896	0.344
Mof_H 	H 	0.6508	0.5783	0.5429	0.172
Mof_H 	H 	0.5835	0.5794	0.5319	0.555
Mof_C 	C 	0.2237	0.8675	0.8798	0.238
Mof_C 	C 	0.2191	0.832	0.8459	0.032
Mof_C 	C 	0.2684	0.8183	0.8224	-0.173
Mof_H 	H 	0.3048	0.8317	0.8285	0.088
Mof_C 	C 	0.2635	0.7852	0.7902	0.182
Mof_C 	C 	0.2129	0.7656	0.7788	-0.254
Mof_H 	H 	0.2114	0.7436	0.7555	0.142
Mof_C 	C 	0.1633	0.7783	0.8019	0.199
Mof_C 	C 	0.1664	0.8108	0.8357	-0.175
Mof_H 	H 	0.1327	0.8187	0.8521	0.105
Mof_C 	C 	0.297	0.6576	0.7847	-0.298
Mof_H 	H 	0.2855	0.6344	0.8066	0.102
Mof_H 	H 	0.3228	0.6444	0.762	0.096
Mof_H 	H 	0.2626	0.6697	0.7697	0.123
Mof_C 	C 	0.3287	0.6963	0.8098	-0.105
Mof_H 	H 	0.3032	0.7096	0.8331	0.047
Mof_H 	H 	0.3637	0.6845	0.825	0.044
Mof_C 	C 	0.3451	0.7315	0.7752	0.142
Mof_C 	C 	0.3436	0.7931	0.7339	0.303
Mof_C 	C 	0.329	0.8368	0.7165	-0.687
Mof_H 	H 	0.3436	0.8601	0.737	0.21
Mof_H 	H 	0.287	0.8395	0.714	0.227
Mof_H 	H 	0.3464	0.8408	0.6865	0.212
Mof_C 	C 	0.093	0.7232	0.7709	0.171
Mof_C 	C 	0.037	0.7005	0.7794	0.039
Mof_C 	C 	0.0236	0.663	0.7545	-0.224
Mof_H 	H 	0.0472	0.6549	0.7294	0.1
Mof_C 	C 	0.9741	0.6357	0.7659	0.254
Mof_C 	C 	0.9395	0.652	0.798	-0.26
Mof_H 	H 	0.9049	0.6358	0.8039	0.102
Mof_C 	C 	0.9497	0.6913	0.8239	0.1
Mof_H 	H 	0.9246	0.7007	0.8475	-0.016
Mof_C 	C 	0.9991	0.7149	0.8122	-0.148
Mof_H 	H 	0.0071	0.7424	0.8275	0.07
Mof_C 	C 	0.962	0.5952	0.7354	-0.603
Mof_H 	H 	0.9593	0.5679	0.7539	0.192
Mof_H 	H 	0.9934	0.5919	0.7134	0.197
Mof_H 	H 	0.9255	0.6	0.7193	0.181
Mof_C 	C 	0.254	0.1013	0.0738	0.301
Mof_C 	C 	0.2438	0.1462	0.1	0.014
Mof_C 	C 	0.1878	0.152	0.1217	-0.155
Mof_H 	H 	0.1592	0.1291	0.1211	0.065
Mof_C 	C 	0.1787	0.1938	0.1438	0.164
Mof_C 	C 	0.2187	0.2264	0.1459	-0.245
Mof_H 	H 	0.2107	0.2533	0.1621	0.129
Mof_C 	C 	0.2738	0.221	0.1236	0.17
Mof_C 	C 	0.2816	0.1799	0.1014	-0.171
Mof_H 	H 	0.3171	0.1756	0.0859	0.095
Mof_C 	C 	0.0991	0.2677	0.1145	-0.731
Mof_C 	C 	0.0866	0.1168	0.2587	0.377
Mof_H 	H 	0.0541	0.1362	0.2672	-0.093
Mof_H 	H 	0.1125	0.1131	0.2847	-0.091
Mof_H 	H 	0.0721	0.0872	0.2493	-0.092
Mof_C 	C 	0.1192	0.1381	0.2199	-0.22
Mof_H 	H 	0.1572	0.1475	0.2318	0.044
Mof_H 	H 	0.1265	0.1141	0.1973	0.038
Mof_C 	C 	0.095	0.1767	0.1955	0.173
Mof_C 	C 	0.088	0.2344	0.1505	0.288
Mof_H 	H 	0.1379	0.263	0.1022	0.243
Mof_H 	H 	0.0963	0.2982	0.1271	0.164
Mof_H 	H 	0.0706	0.264	0.0903	0.318
Mof_C 	C 	0.3199	0.2921	0.1469	0.284
Mof_C 	C 	0.3736	0.3159	0.1365	-0.11
Mof_C 	C 	0.4127	0.3074	0.1017	0.06
Mof_H 	H 	0.4086	0.2812	0.0836	0.033
Mof_C 	C 	0.4582	0.3378	0.0934	-0.457
Mof_C 	C 	0.4703	0.3713	0.1252	0.309
Mof_H 	H 	0.5051	0.3881	0.1233	-0.121
Mof_C 	C 	0.4313	0.3801	0.1597	-0.34
Mof_H 	H 	0.4369	0.4053	0.179	0.09
Mof_C 	C 	0.3836	0.352	0.166	0.181
Mof_H 	H 	0.3578	0.3574	0.1904	-0.385
Mof_C 	C 	0.501	0.3275	0.0558	0.126
Mof_H 	H 	0.5217	0.2995	0.0629	-0.025
Mof_H 	H 	0.5286	0.3524	0.0531	-0.072
Mof_H 	H 	0.4802	0.3239	0.0271	0.004
Mof_C 	C 	0.5346	0.8429	0.1031	0.204
Mof_C 	C 	0.5274	0.8736	0.066	0.046
Mof_C 	C 	0.4722	0.8906	0.0559	-0.171
Mof_H 	H 	0.4395	0.881	0.0727	0.077
Mof_C 	C 	0.4665	0.922	0.0205	0.186
Mof_C 	C 	0.5132	0.9355	0.9946	-0.27
Mof_H 	H 	0.5084	0.9562	0.9704	0.146
Mof_C 	C 	0.568	0.9177	0.0053	0.22
Mof_C 	C 	0.5741	0.8881	0.0396	-0.201
Mof_H 	H 	0.6114	0.8766	0.0462	0.111
Mof_C 	C 	0.3645	0.023	0.1009	-0.29
Mof_H 	H 	0.3274	0.0091	0.1085	0.092
Mof_H 	H 	0.3581	0.0489	0.0808	0.108
Mof_H 	H 	0.3836	0.0332	0.1287	0.1
Mof_C 	C 	0.4013	0.9897	0.0778	-0.091
Mof_H 	H 	0.4111	0.966	0.1002	0.045
Mof_H 	H 	0.4378	0.0051	0.0697	0.057
Mof_C 	C 	0.3789	0.9659	0.035	0.136
Mof_C 	C 	0.3744	0.9261	0.9742	0.255
Mof_C 	C 	0.3904	0.8903	0.9407	-0.611
Mof_H 	H 	0.3782	0.8608	0.9522	0.181
Mof_H 	H 	0.4323	0.8903	0.9363	0.205
Mof_H 	H 	0.3712	0.8963	0.9118	0.2
Mof_C 	C 	0.6244	0.9552	0.945	0.156
Mof_C 	C 	0.6808	0.9491	0.9187	0.111
Mof_C 	C 	0.7191	0.9135	0.9267	-0.336
Mof_H 	H 	0.7112	0.8926	0.9503	0.13
Mof_C 	C 	0.7685	0.9081	0.9008	0.431
Mof_C 	C 	0.7776	0.9351	0.8672	-0.424
Mof_H 	H 	0.8099	0.9294	0.8482	0.154
Mof_C 	C 	0.744	0.9711	0.8576	0.191
Mof_H 	H 	0.7533	0.9903	0.8329	-0.051
Mof_C 	C 	0.6919	0.9805	0.886	-0.227
Mof_H 	H 	0.6684	0.0063	0.8817	0.096
Mof_C 	C 	0.8041	0.8674	0.9095	-0.785
Mof_H 	H 	0.789	0.8514	0.9361	0.228
Mof_H 	H 	0.8441	0.8764	0.9151	0.242
Mof_H 	H 	0.8025	0.8474	0.883	0.245
Mof_C 	C 	0.0044	0.1464	0.8404	0.235
Mof_C 	C 	0.0026	0.118	0.8849	0.065
Mof_C 	C 	0.0512	0.0905	0.8935	-0.198
Mof_H 	H 	0.0833	0.0895	0.8736	0.088
Mof_C 	C 	0.0489	0.0653	0.9327	0.16
Mof_C 	C 	0.0019	0.0648	0.9611	-0.254
Mof_H 	H 	4.70603e-33	0.0447	0.9861	0.109
Mof_C 	C 	0.9556	0.0961	0.9516	0.182
Mof_C 	C 	0.9588	0.1194	0.911	-0.207
Mof_H 	H 	0.9267	0.1372	0.9021	0.111
Mof_C 	C 	0.1301	0.0467	0.9855	0.16
Mof_C 	C 	0.1259	0.0029	0.9231	0.291
Mof_C 	C 	0.1053	0.9843	0.8817	-0.688
Mof_H 	H 	0.1164	0.0039	0.8565	0.215
Mof_H 	H 	0.0631	0.9818	0.8829	0.226
Mof_H 	H 	0.1221	0.9543	0.8773	0.22
Mof_C 	C 	0.8942	0.076	0.0184	0.127
Mof_C 	C 	0.8398	0.0865	0.0404	0.189
Mof_C 	C 	0.8024	0.1183	0.0288	-0.444
Mof_H 	H 	0.8093	0.1351	0.002	0.164
Mof_C 	C 	0.7523	0.1283	0.055	0.576
Mof_C 	C 	0.7433	0.0998	0.0908	-0.498
Mof_H 	H 	0.7099	0.1053	0.1087	0.181
Mof_C 	C 	0.7769	0.0648	0.1033	0.283
Mof_H 	H 	0.7667	0.0448	0.1272	-0.091
Mof_C 	C 	0.827	0.0603	0.0789	-0.307
Mof_H 	H 	0.8544	0.0384	0.0885	0.112
Mof_C 	C 	0.7105	0.1584	0.0412	-1.042
Mof_H 	H 	0.7026	0.1539	0.0089	0.308
Mof_H 	H 	0.7241	0.1893	0.0462	0.31
Mof_H 	H 	0.6751	0.1533	0.0586	0.309
Mof_Ag	Ag	0.24308	0.94525	0.93797	0.606
Mof_Ag	Ag	0.25014	0.0132	0.03339	0.583
Mof_Ag	Ag	0.4702	0.6851	0.74983	0.62
Mof_Ag	Ag	0.46451	0.78007	0.67836	0.606
Mof_N 	N 	0.3911	0.7299	0.7501	-0.177
Mof_N 	N 	0.3915	0.7694	0.7242	-0.21
Mof_N 	N 	0.3164	0.7705	0.7677	-0.211
Mof_N 	N 	0.1069	0.7595	0.7957	-0.244
Mof_H 	H 	0.0784	0.7731	0.8098	0.136
Mof_N 	N 	0.0388	0.2319	0.174	-0.207
Mof_N 	N 	0.0447	0.1975	0.2039	-0.18
Mof_N 	N 	0.1231	0.1997	0.1635	-0.219
Mof_N 	N 	0.3179	0.2546	0.1247	-0.273
Mof_H 	H 	0.3483	0.2489	0.1078	0.128
Mof_N 	N 	0.3292	0.9715	0.0172	-0.168
Mof_N 	N 	0.325	0.9448	0.9802	-0.207
Mof_N 	N 	0.4099	0.9373	0.0107	-0.201
Mof_N 	N 	0.6193	0.9279	0.9803	-0.247
Mof_H 	H 	0.6511	0.9145	0.9895	0.126
Mof_N 	N 	0.1732	0.0177	0.9862	-0.18
Mof_N 	N 	0.1695	0.9908	0.9481	-0.211
Mof_N 	N 	0.0969	0.041	0.947	-0.21
Mof_N 	N 	0.9056	0.0974	0.9797	-0.232
Mof_H 	H 	0.8779	0.1153	0.9699	0.118
Mof_O 	O 	0.1821	0.8684	0.9104	-0.29
Mof_O 	O 	0.2639	0.8956	0.8797	-0.333
Mof_O 	O 	0.1277	0.7081	0.7416	-0.232
Mof_O 	O 	0.2301	0.069	0.0882	-0.37
Mof_O 	O 	0.2881	0.104	0.0412	-0.321
Mof_O 	O 	0.2802	0.304	0.1724	-0.266
Mof_O 	O 	0.5004	0.8451	0.1383	-0.314
Mof_O 	O 	0.5742	0.8119	0.0985	-0.285
Mof_O 	O 	0.5852	0.9809	0.9309	-0.224
Mof_O 	O 	0.041	0.1358	0.8108	-0.325
Mof_O 	O 	0.9714	0.1816	0.8398	-0.281
Mof_O 	O 	0.9313	0.0487	0.0355	-0.239
Mof_C 	C 	0.1223	0.0828	0.0183	-0.389
Mof_C 	C 	0.0913	0.0659	0.0596	-1.702
Mof_H 	H 	0.0863	0.0907	0.0812	0.486
Mof_H 	H 	0.1139	0.0418	0.0738	0.529
Mof_H 	H 	0.0534	0.0542	0.0508	0.414
Mof_H 	H 	0.0999	0.1076	0.0044	0.321
Mof_H 	H 	0.1605	0.0949	0.0273	0.091
Mof_C 	C 	0.1024	0.2485	0.0672	-0.484
Mof_H 	H 	0.0992	0.2156	0.0686	0.146
Mof_H 	H 	0.1394	0.2568	0.0535	0.124
Mof_H 	H 	0.0708	0.2607	0.0489	0.1
Mof_H 	H 	0.1359	0.2832	0.1212	0.072
Mof_H 	H 	0.0681	0.2906	0.1153	0.068
Mof_H 	H 	0.0908	0.1268	0.2417	-0.124
Mof_H 	H 	0.1541	0.1475	0.236	0.037
Mof_H 	H 	0.1289	0.1142	0.1983	0.034
Mof_C 	C 	0.3675	0.33	0.1457	-0.136
Mof_C 	C 	0.409	0.3241	0.1138	0.113
Mof_H 	H 	0.4049	0.3009	0.0918	-0.054
Mof_C 	C 	0.4573	0.3517	0.113	0.234
Mof_C 	C 	0.462	0.3844	0.1453	-0.318
Mof_H 	H 	0.4953	0.403	0.1458	0.133
Mof_C 	C 	0.4198	0.3909	0.1769	0.235
Mof_H 	H 	0.4233	0.4147	0.1982	-0.116
Mof_C 	C 	0.3725	0.3632	0.1778	0.139
Mof_H 	H 	0.3437	0.3669	0.2004	0.261
Mof_C 	C 	0.5016	0.3472	0.0751	0.071
Mof_H 	H 	0.491	0.322	0.0554	-0.041
Mof_H 	H 	0.5398	0.3417	0.0882	-0.025
Mof_H 	H 	0.5024	0.3752	0.0573	-0.002
Mof_C 	C 	0.1279	0.13	0.002	-0.929
Mof_H 	H 	0.1216	0.1508	0.0274	0.263
Mof_H 	H 	0.0991	0.1357	0.9784	0.206
Mof_H 	H 	0.1666	0.1347	0.9896	0.281
Mof_H 	H 	0.1508	0.0783	0.0429	0.19
Mof_H 	H 	0.0835	0.0794	0.0319	0.594
Mof_C 	C 	0.7763	0.8675	0.3798	0.239
Mof_C 	C 	0.7809	0.832	0.3459	0.033
Mof_C 	C 	0.7316	0.8183	0.3224	-0.173
Mof_H 	H 	0.6952	0.8317	0.3285	0.088
Mof_C 	C 	0.7365	0.7852	0.2902	0.182
Mof_C 	C 	0.7871	0.7656	0.2788	-0.254
Mof_H 	H 	0.7886	0.7436	0.2555	0.142
Mof_C 	C 	0.8367	0.7783	0.3019	0.2
Mof_C 	C 	0.8336	0.8108	0.3357	-0.175
Mof_H 	H 	0.8673	0.8187	0.3521	0.105
Mof_C 	C 	0.703	0.6576	0.2847	-0.298
Mof_H 	H 	0.7145	0.6344	0.3066	0.102
Mof_H 	H 	0.6772	0.6444	0.262	0.096
Mof_H 	H 	0.7374	0.6697	0.2697	0.123
Mof_C 	C 	0.6713	0.6963	0.3098	-0.106
Mof_H 	H 	0.6968	0.7096	0.3331	0.048
Mof_H 	H 	0.6363	0.6845	0.325	0.044
Mof_C 	C 	0.6549	0.7315	0.2752	0.142
Mof_C 	C 	0.6564	0.7931	0.2339	0.303
Mof_C 	C 	0.671	0.8368	0.2165	-0.687
Mof_H 	H 	0.6564	0.8601	0.237	0.21
Mof_H 	H 	0.713	0.8395	0.214	0.227
Mof_H 	H 	0.6536	0.8408	0.1865	0.212
Mof_C 	C 	0.907	0.7232	0.2709	0.168
Mof_C 	C 	0.963	0.7005	0.2794	0.05
Mof_C 	C 	0.9764	0.663	0.2545	-0.223
Mof_H 	H 	0.9528	0.6549	0.2294	0.101
Mof_C 	C 	0.0259	0.6357	0.2659	0.252
Mof_C 	C 	0.0605	0.652	0.298	-0.264
Mof_H 	H 	0.0951	0.6358	0.3039	0.103
Mof_C 	C 	0.0503	0.6913	0.3239	0.109
Mof_H 	H 	0.0754	0.7007	0.3475	-0.02
Mof_C 	C 	0.0009	0.7149	0.3122	-0.167
Mof_H 	H 	0.9929	0.7424	0.3275	0.08
Mof_C 	C 	0.038	0.5952	0.2354	-0.601
Mof_H 	H 	0.0407	0.5679	0.2539	0.19
Mof_H 	H 	0.0066	0.5919	0.2134	0.195
Mof_H 	H 	0.0745	0.6	0.2193	0.18
Mof_C 	C 	0.746	0.1013	0.5738	0.3
Mof_C 	C 	0.7562	0.1462	0.6	0.014
Mof_C 	C 	0.8122	0.152	0.6217	-0.157
Mof_H 	H 	0.8408	0.1291	0.6211	0.066
Mof_C 	C 	0.8213	0.1938	0.6438	0.164
Mof_C 	C 	0.7813	0.2264	0.6459	-0.245
Mof_H 	H 	0.7893	0.2533	0.6621	0.13
Mof_C 	C 	0.7262	0.221	0.6236	0.17
Mof_C 	C 	0.7184	0.1799	0.6014	-0.171
Mof_H 	H 	0.6829	0.1756	0.5859	0.094
Mof_C 	C 	0.9009	0.2677	0.6145	-0.738
Mof_C 	C 	0.9134	0.1168	0.7587	0.378
Mof_H 	H 	0.9459	0.1362	0.7672	-0.092
Mof_H 	H 	0.8875	0.1131	0.7847	-0.091
Mof_H 	H 	0.9279	0.0872	0.7493	-0.091
Mof_C 	C 	0.8808	0.1381	0.7199	-0.219
Mof_H 	H 	0.8428	0.1475	0.7318	0.044
Mof_H 	H 	0.8735	0.1141	0.6973	0.038
Mof_C 	C 	0.905	0.1767	0.6955	0.173
Mof_C 	C 	0.912	0.2344	0.6505	0.29
Mof_H 	H 	0.8621	0.263	0.6022	0.243
Mof_H 	H 	0.9037	0.2982	0.6271	0.165
Mof_H 	H 	0.9294	0.264	0.5903	0.318
Mof_C 	C 	0.6801	0.2921	0.6469	0.283
Mof_C 	C 	0.6264	0.3159	0.6365	-0.109
Mof_C 	C 	0.5873	0.3074	0.6017	0.061
Mof_H 	H 	0.5914	0.2812	0.5836	0.032
Mof_C 	C 	0.5418	0.3378	0.5934	-0.453
Mof_C 	C 	0.5297	0.3713	0.6252	0.308
Mof_H 	H 	0.4949	0.3881	0.6233	-0.12
Mof_C 	C 	0.5687	0.3801	0.6597	-0.339
Mof_H 	H 	0.5631	0.4053	0.679	0.09
Mof_C 	C 	0.6164	0.352	0.666	0.179
Mof_H 	H 	0.6422	0.3574	0.6904	-0.383
Mof_C 	C 	0.499	0.3275	0.5558	0.126
Mof_H 	H 	0.4783	0.2995	0.5629	-0.026
Mof_H 	H 	0.4714	0.3524	0.5531	-0.073
Mof_H 	H 	0.5198	0.3239	0.5271	0.001
Mof_C 	C 	0.4654	0.8429	0.6031	0.208
Mof_C 	C 	0.4726	0.8736	0.566	0.036
Mof_C 	C 	0.5278	0.8906	0.5559	-0.16
Mof_H 	H 	0.5605	0.881	0.5727	0.073
Mof_C 	C 	0.5335	0.922	0.5205	0.168
Mof_C 	C 	0.4868	0.9355	0.4946	-0.239
Mof_H 	H 	0.4916	0.9562	0.4704	0.138
Mof_C 	C 	0.432	0.9177	0.5053	0.196
Mof_C 	C 	0.4259	0.8881	0.5396	-0.187
Mof_H 	H 	0.3886	0.8766	0.5462	0.106
Mof_C 	C 	0.6355	0.023	0.6009	-0.292
Mof_H 	H 	0.6726	0.0091	0.6085	0.093
Mof_H 	H 	0.6419	0.0489	0.5808	0.109
Mof_H 	H 	0.6164	0.0332	0.6287	0.1
Mof_C 	C 	0.5987	0.9897	0.5778	-0.089
Mof_H 	H 	0.5889	0.966	0.6002	0.044
Mof_H 	H 	0.5622	0.0051	0.5697	0.056
Mof_C 	C 	0.6211	0.9659	0.535	0.134
Mof_C 	C 	0.6256	0.9261	0.4742	0.262
Mof_C 	C 	0.6096	0.8903	0.4407	-0.618
Mof_H 	H 	0.6218	0.8608	0.4522	0.185
Mof_H 	H 	0.5677	0.8903	0.4363	0.208
Mof_H 	H 	0.6288	0.8963	0.4118	0.202
Mof_C 	C 	0.3756	0.9552	0.445	0.156
Mof_C 	C 	0.3192	0.9491	0.4187	0.112
Mof_C 	C 	0.2809	0.9135	0.4267	-0.335
Mof_H 	H 	0.2888	0.8926	0.4503	0.131
Mof_C 	C 	0.2315	0.9081	0.4008	0.431
Mof_C 	C 	0.2224	0.9351	0.3672	-0.423
Mof_H 	H 	0.1901	0.9294	0.3482	0.154
Mof_C 	C 	0.256	0.9711	0.3576	0.191
Mof_H 	H 	0.2467	0.9903	0.3329	-0.051
Mof_C 	C 	0.3081	0.9805	0.386	-0.227
Mof_H 	H 	0.3316	0.0063	0.3817	0.096
Mof_C 	C 	0.1959	0.8674	0.4095	-0.783
Mof_H 	H 	0.211	0.8514	0.4361	0.226
Mof_H 	H 	0.1559	0.8764	0.4151	0.24
Mof_H 	H 	0.1975	0.8474	0.383	0.244
Mof_C 	C 	0.9956	0.1464	0.3404	0.239
Mof_C 	C 	0.9974	0.118	0.3849	0.07
Mof_C 	C 	0.9488	0.0905	0.3935	-0.199
Mof_H 	H 	0.9167	0.0895	0.3736	0.089
Mof_C 	C 	0.9511	0.0653	0.4327	0.157
Mof_C 	C 	0.9981	0.0648	0.4611	-0.245
Mof_H 	H 	-2.65641e-33	0.0447	0.4861	0.108
Mof_C 	C 	0.0444	0.0961	0.4516	0.179
Mof_C 	C 	0.0412	0.1194	0.411	-0.214
Mof_H 	H 	0.0733	0.1372	0.4021	0.113
Mof_C 	C 	0.8699	0.0467	0.4855	0.163
Mof_C 	C 	0.8741	0.0029	0.4231	0.292
Mof_C 	C 	0.8947	0.9843	0.3817	-0.69
Mof_H 	H 	0.8836	0.0039	0.3565	0.216
Mof_H 	H 	0.9369	0.9818	0.3829	0.228
Mof_H 	H 	0.8779	0.9543	0.3773	0.221
Mof_C 	C 	0.1058	0.076	0.5184	0.12
Mof_C 	C 	0.1602	0.0865	0.5404	0.188
Mof_C 	C 	0.1976	0.1183	0.5288	-0.443
Mof_H 	H 	0.1907	0.1351	0.502	0.161
Mof_C 	C 	0.2477	0.1283	0.555	0.571
Mof_C 	C 	0.2567	0.0998	0.5908	-0.495
Mof_H 	H 	0.2901	0.1053	0.6087	0.18
Mof_C 	C 	0.2231	0.0648	0.6033	0.281
Mof_H 	H 	0.2333	0.0448	0.6272	-0.09
Mof_C 	C 	0.173	0.0603	0.5789	-0.306
Mof_H 	H 	0.1456	0.0384	0.5885	0.113
Mof_C 	C 	0.2895	0.1584	0.5412	-1.034
Mof_H 	H 	0.2974	0.1539	0.5089	0.303
Mof_H 	H 	0.2759	0.1893	0.5462	0.307
Mof_H 	H 	0.3249	0.1533	0.5586	0.306
Mof_Ag	Ag	0.75692	0.94525	0.43797	0.611
Mof_Ag	Ag	0.74986	0.0132	0.53339	0.575
Mof_Ag	Ag	0.5298	0.6851	0.24983	0.62
Mof_Ag	Ag	0.53549	0.78007	0.17836	0.606
Mof_N 	N 	0.6089	0.7299	0.2501	-0.177
Mof_N 	N 	0.6085	0.7694	0.2242	-0.21
Mof_N 	N 	0.6836	0.7705	0.2677	-0.211
Mof_N 	N 	0.8931	0.7595	0.2957	-0.243
Mof_H 	H 	0.9216	0.7731	0.3098	0.136
Mof_N 	N 	0.9612	0.2319	0.674	-0.205
Mof_N 	N 	0.9553	0.1975	0.7039	-0.178
Mof_N 	N 	0.8769	0.1997	0.6635	-0.219
Mof_N 	N 	0.6821	0.2546	0.6247	-0.272
Mof_H 	H 	0.6517	0.2489	0.6078	0.128
Mof_N 	N 	0.6708	0.9715	0.5172	-0.17
Mof_N 	N 	0.675	0.9448	0.4802	-0.205
Mof_N 	N 	0.5901	0.9373	0.5107	-0.202
Mof_N 	N 	0.3807	0.9279	0.4803	-0.24
Mof_H 	H 	0.3489	0.9145	0.4895	0.128
Mof_N 	N 	0.8268	0.0177	0.4862	-0.177
Mof_N 	N 	0.8305	0.9908	0.4481	-0.211
Mof_N 	N 	0.9031	0.041	0.447	-0.21
Mof_N 	N 	0.0944	0.0974	0.4797	-0.227
Mof_H 	H 	0.1221	0.1153	0.4699	0.12
Mof_O 	O 	0.8179	0.8684	0.4104	-0.289
Mof_O 	O 	0.7361	0.8956	0.3797	-0.333
Mof_O 	O 	0.8723	0.7081	0.2416	-0.231
Mof_O 	O 	0.7699	0.069	0.5882	-0.368
Mof_O 	O 	0.7119	0.104	0.5412	-0.324
Mof_O 	O 	0.7198	0.304	0.6724	-0.266
Mof_O 	O 	0.4996	0.8451	0.6383	-0.315
Mof_O 	O 	0.4258	0.8119	0.5985	-0.286
Mof_O 	O 	0.4148	0.9809	0.4309	-0.223
Mof_O 	O 	0.959	0.1358	0.3108	-0.326
Mof_O 	O 	0.0286	0.1816	0.3398	-0.285
Mof_O 	O 	0.0687	0.0487	0.5355	-0.24
Mof_C 	C 	0.8777	0.0828	0.5183	-0.386
Mof_C 	C 	0.9087	0.0659	0.5596	-1.613
Mof_H 	H 	0.9137	0.0907	0.5812	0.46
Mof_H 	H 	0.8861	0.0418	0.5738	0.503
Mof_H 	H 	0.9466	0.0542	0.5508	0.394
Mof_H 	H 	0.9001	0.1076	0.5044	0.379
Mof_H 	H 	0.8395	0.0949	0.5273	0.111
Mof_C 	C 	0.8976	0.2485	0.5672	-0.475
Mof_H 	H 	0.9008	0.2156	0.5686	0.141
Mof_H 	H 	0.8606	0.2568	0.5535	0.12
Mof_H 	H 	0.9292	0.2607	0.5489	0.097
Mof_H 	H 	0.8641	0.2832	0.6212	0.073
Mof_H 	H 	0.9319	0.2906	0.6153	0.07
Mof_H 	H 	0.9092	0.1268	0.7417	-0.125
Mof_H 	H 	0.8459	0.1475	0.736	0.037
Mof_H 	H 	0.8711	0.1142	0.6983	0.034
Mof_C 	C 	0.6325	0.33	0.6457	-0.135
Mof_C 	C 	0.591	0.3241	0.6138	0.11
Mof_H 	H 	0.5951	0.3009	0.5918	-0.053
Mof_C 	C 	0.5427	0.3517	0.613	0.233
Mof_C 	C 	0.538	0.3844	0.6453	-0.316
Mof_H 	H 	0.5047	0.403	0.6458	0.133
Mof_C 	C 	0.5802	0.3909	0.6769	0.235
Mof_H 	H 	0.5767	0.4147	0.6982	-0.115
Mof_C 	C 	0.6275	0.3632	0.6778	0.139
Mof_H 	H 	0.6563	0.3669	0.7004	0.26
Mof_C 	C 	0.4984	0.3472	0.5751	0.068
Mof_H 	H 	0.509	0.322	0.5554	-0.04
Mof_H 	H 	0.4602	0.3417	0.5882	-0.024
Mof_H 	H 	0.4976	0.3752	0.5573	-0.001
Mof_C 	C 	0.8721	0.13	0.502	-1.128
Mof_H 	H 	0.8784	0.1508	0.5274	0.318
Mof_H 	H 	0.9009	0.1357	0.4784	0.257
Mof_H 	H 	0.8334	0.1347	0.4896	0.344
Mof_H 	H 	0.8492	0.0783	0.5429	0.172
Mof_H 	H 	0.9165	0.0794	0.5319	0.556
Mof_C 	C 	0.2763	0.3675	0.8798	0.238
Mof_C 	C 	0.2809	0.332	0.8459	0.032
Mof_C 	C 	0.2316	0.3183	0.8224	-0.173
Mof_H 	H 	0.1952	0.3317	0.8285	0.087
Mof_C 	C 	0.2365	0.2852	0.7902	0.182
Mof_C 	C 	0.2871	0.2656	0.7788	-0.254
Mof_H 	H 	0.2886	0.2436	0.7555	0.141
Mof_C 	C 	0.3367	0.2783	0.8019	0.199
Mof_C 	C 	0.3336	0.3108	0.8357	-0.175
Mof_H 	H 	0.3673	0.3187	0.8521	0.105
Mof_C 	C 	0.203	0.1576	0.7847	-0.299
Mof_H 	H 	0.2145	0.1344	0.8066	0.103
Mof_H 	H 	0.1772	0.1444	0.762	0.097
Mof_H 	H 	0.2374	0.1697	0.7697	0.123
Mof_C 	C 	0.1713	0.1963	0.8098	-0.105
Mof_H 	H 	0.1968	0.2096	0.8331	0.047
Mof_H 	H 	0.1363	0.1845	0.825	0.044
Mof_C 	C 	0.1549	0.2315	0.7752	0.142
Mof_C 	C 	0.1564	0.2931	0.7339	0.303
Mof_C 	C 	0.171	0.3368	0.7165	-0.687
Mof_H 	H 	0.1564	0.3601	0.737	0.21
Mof_H 	H 	0.213	0.3395	0.714	0.227
Mof_H 	H 	0.1536	0.3408	0.6865	0.212
Mof_C 	C 	0.407	0.2232	0.7709	0.17
Mof_C 	C 	0.463	0.2005	0.7794	0.045
Mof_C 	C 	0.4764	0.163	0.7545	-0.224
Mof_H 	H 	0.4528	0.1549	0.7294	0.1
Mof_C 	C 	0.5259	0.1357	0.7659	0.253
Mof_C 	C 	0.5605	0.152	0.798	-0.262
Mof_H 	H 	0.5951	0.1358	0.8039	0.102
Mof_C 	C 	0.5503	0.1913	0.8239	0.105
Mof_H 	H 	0.5754	0.2007	0.8475	-0.018
Mof_C 	C 	0.5009	0.2149	0.8122	-0.158
Mof_H 	H 	0.4929	0.2424	0.8275	0.075
Mof_C 	C 	0.538	0.0952	0.7354	-0.602
Mof_H 	H 	0.5407	0.0679	0.7539	0.191
Mof_H 	H 	0.5066	0.0919	0.7134	0.196
Mof_H 	H 	0.5745	0.1	0.7193	0.18
Mof_C 	C 	0.246	0.6013	0.0738	0.301
Mof_C 	C 	0.2562	0.6462	0.1	0.014
Mof_C 	C 	0.3122	0.652	0.1217	-0.155
Mof_H 	H 	0.3408	0.6291	0.1211	0.065
Mof_C 	C 	0.3213	0.6938	0.1438	0.164
Mof_C 	C 	0.2813	0.7264	0.1459	-0.245
Mof_H 	H 	0.2893	0.7533	0.1621	0.129
Mof_C 	C 	0.2262	0.721	0.1236	0.17
Mof_C 	C 	0.2184	0.6799	0.1014	-0.171
Mof_H 	H 	0.1829	0.6756	0.0859	0.095
Mof_C 	C 	0.4009	0.7677	0.1145	-0.732
Mof_C 	C 	0.4134	0.6168	0.2587	0.377
Mof_H 	H 	0.4459	0.6362	0.2672	-0.092
Mof_H 	H 	0.3875	0.6131	0.2847	-0.091
Mof_H 	H 	0.4279	0.5872	0.2493	-0.091
Mof_C 	C 	0.3808	0.6381	0.2199	-0.219
Mof_H 	H 	0.3428	0.6475	0.2318	0.044
Mof_H 	H 	0.3735	0.6141	0.1973	0.038
Mof_C 	C 	0.405	0.6767	0.1955	0.173
Mof_C 	C 	0.412	0.7344	0.1505	0.288
Mof_H 	H 	0.3621	0.763	0.1022	0.243
Mof_H 	H 	0.4037	0.7982	0.1271	0.164
Mof_H 	H 	0.4294	0.764	0.0903	0.319
Mof_C 	C 	0.1801	0.7921	0.1469	0.28
Mof_C 	C 	0.1264	0.8159	0.1365	-0.101
Mof_C 	C 	0.0873	0.8074	0.1017	0.062
Mof_H 	H 	0.0914	0.7812	0.0836	0.031
Mof_C 	C 	0.0418	0.8378	0.0934	-0.444
Mof_C 	C 	0.0297	0.8713	0.1252	0.304
Mof_H 	H 	0.9949	0.8881	0.1233	-0.116
Mof_C 	C 	0.0687	0.8801	0.1597	-0.334
Mof_H 	H 	0.0631	0.9053	0.179	0.085
Mof_C 	C 	0.1164	0.852	0.166	0.168
Mof_H 	H 	0.1422	0.8574	0.1904	-0.371
Mof_C 	C 	0.999	0.8275	0.0558	0.12
Mof_H 	H 	0.9783	0.7995	0.0629	-0.023
Mof_H 	H 	0.9714	0.8524	0.0531	-0.07
Mof_H 	H 	0.0198	0.8239	0.0271	0.004
Mof_C 	C 	0.9654	0.3429	0.1031	0.204
Mof_C 	C 	0.9726	0.3736	0.066	0.049
Mof_C 	C 	0.0278	0.3906	0.0559	-0.174
Mof_H 	H 	0.0605	0.381	0.0727	0.078
Mof_C 	C 	0.0335	0.422	0.0205	0.184
Mof_C 	C 	0.9868	0.4355	0.9946	-0.266
Mof_H 	H 	0.9916	0.4562	0.9704	0.146
Mof_C 	C 	0.932	0.4177	0.0053	0.22
Mof_C 	C 	0.9259	0.3881	0.0396	-0.201
Mof_H 	H 	0.8886	0.3766	0.0462	0.111
Mof_C 	C 	0.1355	0.523	0.1009	-0.291
Mof_H 	H 	0.1726	0.5091	0.1085	0.092
Mof_H 	H 	0.1419	0.5489	0.0808	0.108
Mof_H 	H 	0.1164	0.5332	0.1287	0.1
Mof_C 	C 	0.0987	0.4897	0.0778	-0.09
Mof_H 	H 	0.0889	0.466	0.1002	0.044
Mof_H 	H 	0.0622	0.5051	0.0697	0.056
Mof_C 	C 	0.1211	0.4659	0.035	0.136
Mof_C 	C 	0.1256	0.4261	0.9742	0.255
Mof_C 	C 	0.1096	0.3903	0.9407	-0.61
Mof_H 	H 	0.1218	0.3608	0.9522	0.181
Mof_H 	H 	0.0677	0.3903	0.9363	0.204
Mof_H 	H 	0.1288	0.3963	0.9118	0.199
Mof_C 	C 	0.8756	0.4552	0.945	0.156
Mof_C 	C 	0.8192	0.4491	0.9187	0.112
Mof_C 	C 	0.7809	0.4135	0.9267	-0.336
Mof_H 	H 	0.7888	0.3926	0.9503	0.13
Mof_C 	C 	0.7315	0.4081	0.9008	0.432
Mof_C 	C 	0.7224	0.4351	0.8672	-0.424
Mof_H 	H 	0.6901	0.4294	0.8482	0.154
Mof_C 	C 	0.756	0.4711	0.8576	0.191
Mof_H 	H 	0.7467	0.4903	0.8329	-0.051
Mof_C 	C 	0.8081	0.4805	0.886	-0.227
Mof_H 	H 	0.8316	0.5063	0.8817	0.096
Mof_C 	C 	0.6959	0.3674	0.9095	-0.785
Mof_H 	H 	0.711	0.3514	0.9361	0.228
Mof_H 	H 	0.6559	0.3764	0.9151	0.242
Mof_H 	H 	0.6975	0.3474	0.883	0.245
Mof_C 	C 	0.4956	0.6464	0.8404	0.237
Mof_C 	C 	0.4974	0.618	0.8849	0.068
Mof_C 	C 	0.4488	0.5905	0.8935	-0.198
Mof_H 	H 	0.4167	0.5895	0.8736	0.088
Mof_C 	C 	0.4511	0.5653	0.9327	0.16
Mof_C 	C 	0.4981	0.5648	0.9611	-0.251
Mof_H 	H 	0.5	0.5447	0.9861	0.108
Mof_C 	C 	0.5444	0.5961	0.9516	0.181
Mof_C 	C 	0.5412	0.6194	0.911	-0.211
Mof_H 	H 	0.5733	0.6372	0.9021	0.112
Mof_C 	C 	0.3699	0.5467	0.9855	0.16
Mof_C 	C 	0.3741	0.5029	0.9231	0.291
Mof_C 	C 	0.3947	0.4843	0.8817	-0.689
Mof_H 	H 	0.3836	0.5039	0.8565	0.215
Mof_H 	H 	0.4369	0.4818	0.8829	0.226
Mof_H 	H 	0.3779	0.4543	0.8773	0.221
Mof_C 	C 	0.6058	0.576	0.0184	0.127
Mof_C 	C 	0.6602	0.5865	0.0404	0.189
Mof_C 	C 	0.6976	0.6183	0.0288	-0.444
Mof_H 	H 	0.6907	0.6351	0.002	0.164
Mof_C 	C 	0.7477	0.6283	0.055	0.576
Mof_C 	C 	0.7567	0.5998	0.0908	-0.498
Mof_H 	H 	0.7901	0.6053	0.1087	0.181
Mof_C 	C 	0.7231	0.5648	0.1033	0.283
Mof_H 	H 	0.7333	0.5448	0.1272	-0.091
Mof_C 	C 	0.673	0.5603	0.0789	-0.307
Mof_H 	H 	0.6456	0.5384	0.0885	0.112
Mof_C 	C 	0.7895	0.6584	0.0412	-1.042
Mof_H 	H 	0.7974	0.6539	0.0089	0.308
Mof_H 	H 	0.7759	0.6893	0.0462	0.31
Mof_H 	H 	0.8249	0.6533	0.0586	0.309
Mof_Ag	Ag	0.25692	0.44525	0.93797	0.606
Mof_Ag	Ag	0.24986	0.5132	0.03339	0.583
Mof_Ag	Ag	0.0298	0.1851	0.74983	0.617
Mof_Ag	Ag	0.03549	0.28007	0.67836	0.604
Mof_N 	N 	0.1089	0.2299	0.7501	-0.177
Mof_N 	N 	0.1085	0.2694	0.7242	-0.21
Mof_N 	N 	0.1836	0.2705	0.7677	-0.211
Mof_N 	N 	0.3931	0.2595	0.7957	-0.243
Mof_H 	H 	0.4216	0.2731	0.8098	0.136
Mof_N 	N 	0.4612	0.7319	0.174	-0.206
Mof_N 	N 	0.4553	0.6975	0.2039	-0.179
Mof_N 	N 	0.3769	0.6997	0.1635	-0.219
Mof_N 	N 	0.1821	0.7546	0.1247	-0.272
Mof_H 	H 	0.1517	0.7489	0.1078	0.128
Mof_N 	N 	0.1708	0.4715	0.0172	-0.168
Mof_N 	N 	0.175	0.4448	0.9802	-0.207
Mof_N 	N 	0.0901	0.4373	0.0107	-0.201
Mof_N 	N 	0.8807	0.4279	0.9803	-0.247
Mof_H 	H 	0.8489	0.4145	0.9895	0.126
Mof_N 	N 	0.3268	0.5177	0.9862	-0.18
Mof_N 	N 	0.3305	0.4908	0.9481	-0.211
Mof_N 	N 	0.4031	0.541	0.947	-0.21
Mof_N 	N 	0.5944	0.5974	0.9797	-0.232
Mof_H 	H 	0.6221	0.6153	0.9699	0.118
Mof_O 	O 	0.3179	0.3684	0.9104	-0.29
Mof_O 	O 	0.2361	0.3956	0.8797	-0.333
Mof_O 	O 	0.3723	0.2081	0.7416	-0.231
Mof_O 	O 	0.2699	0.569	0.0882	-0.37
Mof_O 	O 	0.2119	0.604	0.0412	-0.321
Mof_O 	O 	0.2198	0.804	0.1724	-0.265
Mof_O 	O 	0.9996	0.3451	0.1383	-0.313
Mof_O 	O 	0.9258	0.3119	0.0985	-0.284
Mof_O 	O 	0.9148	0.4809	0.9309	-0.224
Mof_O 	O 	0.459	0.6358	0.8108	-0.325
Mof_O 	O 	0.5286	0.6816	0.8398	-0.284
Mof_O 	O 	0.5687	0.5487	0.0355	-0.24
Mof_C 	C 	0.3777	0.5828	0.0183	-0.389
Mof_C 	C 	0.4087	0.5659	0.0596	-1.704
Mof_H 	H 	0.4137	0.5907	0.0812	0.486
Mof_H 	H 	0.3861	0.5418	0.0738	0.529
Mof_H 	H 	0.4466	0.5542	0.0508	0.415
Mof_H 	H 	0.4001	0.6076	0.0044	0.32
Mof_H 	H 	0.3395	0.5949	0.0273	0.09
Mof_C 	C 	0.3976	0.7485	0.0672	-0.484
Mof_H 	H 	0.4008	0.7156	0.0686	0.147
Mof_H 	H 	0.3606	0.7568	0.0535	0.124
Mof_H 	H 	0.4292	0.7607	0.0489	0.101
Mof_H 	H 	0.3641	0.7832	0.1212	0.072
Mof_H 	H 	0.4319	0.7906	0.1153	0.068
Mof_H 	H 	0.4092	0.6268	0.2417	-0.125
Mof_H 	H 	0.3459	0.6475	0.236	0.037
Mof_H 	H 	0.3711	0.6142	0.1983	0.034
Mof_C 	C 	0.1325	0.83	0.1457	-0.135
Mof_C 	C 	0.091	0.8241	0.1138	0.104
Mof_H 	H 	0.0951	0.8009	0.0918	-0.052
Mof_C 	C 	0.0427	0.8517	0.113	0.225
Mof_C 	C 	0.038	0.8844	0.1453	-0.312
Mof_H 	H 	0.0047	0.903	0.1458	0.129
Mof_C 	C 	0.0802	0.8909	0.1769	0.236
Mof_H 	H 	0.0767	0.9147	0.1982	-0.114
Mof_C 	C 	0.1275	0.8632	0.1778	0.139
Mof_H 	H 	0.1563	0.8669	0.2004	0.251
Mof_C 	C 	0.9984	0.8472	0.0751	0.068
Mof_H 	H 	0.009	0.822	0.0554	-0.04
Mof_H 	H 	0.9602	0.8417	0.0882	-0.024
Mof_H 	H 	0.9976	0.8752	0.0573	-0.001
Mof_C 	C 	0.3721	0.63	0.002	-0.928
Mof_H 	H 	0.3784	0.6508	0.0274	0.262
Mof_H 	H 	0.4009	0.6357	0.9784	0.206
Mof_H 	H 	0.3334	0.6347	0.9896	0.28
Mof_H 	H 	0.3492	0.5783	0.0429	0.19
Mof_H 	H 	0.4165	0.5794	0.0319	0.595
Mof_C 	C 	0.2763	0.6325	0.3798	0.239
Mof_C 	C 	0.2809	0.668	0.3459	0.033
Mof_C 	C 	0.2316	0.6817	0.3224	-0.173
Mof_H 	H 	0.1952	0.6683	0.3285	0.088
Mof_C 	C 	0.2365	0.7148	0.2902	0.182
Mof_C 	C 	0.2871	0.7344	0.2788	-0.254
Mof_H 	H 	0.2886	0.7564	0.2555	0.142
Mof_C 	C 	0.3367	0.7217	0.3019	0.2
Mof_C 	C 	0.3336	0.6892	0.3357	-0.175
Mof_H 	H 	0.3673	0.6813	0.3521	0.105
Mof_C 	C 	0.203	0.8424	0.2847	-0.299
Mof_H 	H 	0.2145	0.8656	0.3066	0.103
Mof_H 	H 	0.1772	0.8556	0.262	0.097
Mof_H 	H 	0.2374	0.8303	0.2697	0.123
Mof_C 	C 	0.1713	0.8037	0.3098	-0.105
Mof_H 	H 	0.1968	0.7904	0.3331	0.047
Mof_H 	H 	0.1363	0.8155	0.325	0.044
Mof_C 	C 	0.1549	0.7685	0.2752	0.142
Mof_C 	C 	0.1564	0.7069	0.2339	0.303
Mof_C 	C 	0.171	0.6632	0.2165	-0.687
Mof_H 	H 	0.1564	0.6399	0.237	0.21
Mof_H 	H 	0.213	0.6605	0.214	0.227
Mof_H 	H 	0.1536	0.6592	0.1865	0.212
Mof_C 	C 	0.407	0.7768	0.2709	0.17
Mof_C 	C 	0.463	0.7995	0.2794	0.045
Mof_C 	C 	0.4764	0.837	0.2545	-0.223
Mof_H 	H 	0.4528	0.8451	0.2294	0.1
Mof_C 	C 	0.5259	0.8643	0.2659	0.253
Mof_C 	C 	0.5605	0.848	0.298	-0.261
Mof_H 	H 	0.5951	0.8642	0.3039	0.102
Mof_C 	C 	0.5503	0.8087	0.3239	0.105
Mof_H 	H 	0.5754	0.7993	0.3475	-0.018
Mof_C 	C 	0.5009	0.7851	0.3122	-0.158
Mof_H 	H 	0.4929	0.7576	0.3275	0.075
Mof_C 	C 	0.538	0.9048	0.2354	-0.602
Mof_H 	H 	0.5407	0.9321	0.2539	0.191
Mof_H 	H 	0.5066	0.9081	0.2134	0.196
Mof_H 	H 	0.5745	0.9	0.2193	0.18
Mof_C 	C 	0.246	0.3987	0.5738	0.3
Mof_C 	C 	0.2562	0.3538	0.6	0.014
Mof_C 	C 	0.3122	0.348	0.6217	-0.157
Mof_H 	H 	0.3408	0.3709	0.6211	0.066
Mof_C 	C 	0.3213	0.3062	0.6438	0.164
Mof_C 	C 	0.2813	0.2736	0.6459	-0.245
Mof_H 	H 	0.2893	0.2467	0.6621	0.13
Mof_C 	C 	0.2262	0.279	0.6236	0.17
Mof_C 	C 	0.2184	0.3201	0.6014	-0.171
Mof_H 	H 	0.1829	0.3244	0.5859	0.094
Mof_C 	C 	0.4009	0.2323	0.6145	-0.736
Mof_C 	C 	0.4134	0.3832	0.7587	0.378
Mof_H 	H 	0.4459	0.3638	0.7672	-0.092
Mof_H 	H 	0.3875	0.3869	0.7847	-0.091
Mof_H 	H 	0.4279	0.4128	0.7493	-0.091
Mof_C 	C 	0.3808	0.3619	0.7199	-0.22
Mof_H 	H 	0.3428	0.3525	0.7318	0.044
Mof_H 	H 	0.3735	0.3859	0.6973	0.038
Mof_C 	C 	0.405	0.3233	0.6955	0.173
Mof_C 	C 	0.412	0.2656	0.6505	0.289
Mof_H 	H 	0.3621	0.237	0.6022	0.243
Mof_H 	H 	0.4037	0.2018	0.6271	0.165
Mof_H 	H 	0.4294	0.236	0.5903	0.318
Mof_C 	C 	0.1801	0.2079	0.6469	0.279
Mof_C 	C 	0.1264	0.1841	0.6365	-0.1
Mof_C 	C 	0.0873	0.1926	0.6017	0.062
Mof_H 	H 	0.0914	0.2188	0.5836	0.03
Mof_C 	C 	0.0418	0.1622	0.5934	-0.439
Mof_C 	C 	0.0297	0.1287	0.6252	0.302
Mof_H 	H 	0.9949	0.1119	0.6233	-0.115
Mof_C 	C 	0.0687	0.1199	0.6597	-0.333
Mof_H 	H 	0.0631	0.0947	0.679	0.085
Mof_C 	C 	0.1164	0.148	0.666	0.166
Mof_H 	H 	0.1422	0.1426	0.6904	-0.369
Mof_C 	C 	0.999	0.1725	0.5558	0.12
Mof_H 	H 	0.9783	0.2005	0.5629	-0.024
Mof_H 	H 	0.9714	0.1476	0.5531	-0.071
Mof_H 	H 	0.0198	0.1761	0.5271	0.001
Mof_C 	C 	0.9654	0.6571	0.6031	0.207
Mof_C 	C 	0.9726	0.6264	0.566	0.039
Mof_C 	C 	0.0278	0.6094	0.5559	-0.163
Mof_H 	H 	0.0605	0.619	0.5727	0.074
Mof_C 	C 	0.0335	0.578	0.5205	0.166
Mof_C 	C 	0.9868	0.5645	0.4946	-0.236
Mof_H 	H 	0.9916	0.5438	0.4704	0.138
Mof_C 	C 	0.932	0.5823	0.5053	0.196
Mof_C 	C 	0.9259	0.6119	0.5396	-0.187
Mof_H 	H 	0.8886	0.6234	0.5462	0.106
Mof_C 	C 	0.1355	0.477	0.6009	-0.293
Mof_H 	H 	0.1726	0.4909	0.6085	0.093
Mof_H 	H 	0.1419	0.4511	0.5808	0.109
Mof_H 	H 	0.1164	0.4668	0.6287	0.1
Mof_C 	C 	0.0987	0.5103	0.5778	-0.088
Mof_H 	H 	0.0889	0.534	0.6002	0.044
Mof_H 	H 	0.0622	0.4949	0.5697	0.055
Mof_C 	C 	0.1211	0.5341	0.535	0.134
Mof_C 	C 	0.1256	0.5739	0.4742	0.262
Mof_C 	C 	0.1096	0.6097	0.4407	-0.617
Mof_H 	H 	0.1218	0.6392	0.4522	0.185
Mof_H 	H 	0.0677	0.6097	0.4363	0.207
Mof_H 	H 	0.1288	0.6037	0.4118	0.201
Mof_C 	C 	0.8756	0.5448	0.445	0.156
Mof_C 	C 	0.8192	0.5509	0.4187	0.113
Mof_C 	C 	0.7809	0.5865	0.4267	-0.335
Mof_H 	H 	0.7888	0.6074	0.4503	0.131
Mof_C 	C 	0.7315	0.5919	0.4008	0.431
Mof_C 	C 	0.7224	0.5649	0.3672	-0.423
Mof_H 	H 	0.6901	0.5706	0.3482	0.154
Mof_C 	C 	0.756	0.5289	0.3576	0.191
Mof_H 	H 	0.7467	0.5097	0.3329	-0.051
Mof_C 	C 	0.8081	0.5195	0.386	-0.227
Mof_H 	H 	0.8316	0.4937	0.3817	0.096
Mof_C 	C 	0.6959	0.6326	0.4095	-0.783
Mof_H 	H 	0.711	0.6486	0.4361	0.226
Mof_H 	H 	0.6559	0.6236	0.4151	0.24
Mof_H 	H 	0.6975	0.6526	0.383	0.244
Mof_C 	C 	0.4956	0.3536	0.3404	0.236
Mof_C 	C 	0.4974	0.382	0.3849	0.068
Mof_C 	C 	0.4488	0.4095	0.3935	-0.2
Mof_H 	H 	0.4167	0.4105	0.3736	0.089
Mof_C 	C 	0.4511	0.4347	0.4327	0.159
Mof_C 	C 	0.4981	0.4352	0.4611	-0.252
Mof_H 	H 	0.5	0.4553	0.4861	0.112
Mof_C 	C 	0.5444	0.4039	0.4516	0.182
Mof_C 	C 	0.5412	0.3806	0.411	-0.212
Mof_H 	H 	0.5733	0.3628	0.4021	0.113
Mof_C 	C 	0.3699	0.4533	0.4855	0.163
Mof_C 	C 	0.3741	0.4971	0.4231	0.291
Mof_C 	C 	0.3947	0.5157	0.3817	-0.689
Mof_H 	H 	0.3836	0.4961	0.3565	0.215
Mof_H 	H 	0.4369	0.5182	0.3829	0.227
Mof_H 	H 	0.3779	0.5457	0.3773	0.221
Mof_C 	C 	0.6058	0.424	0.5184	0.12
Mof_C 	C 	0.6602	0.4135	0.5404	0.188
Mof_C 	C 	0.6976	0.3817	0.5288	-0.443
Mof_H 	H 	0.6907	0.3649	0.502	0.161
Mof_C 	C 	0.7477	0.3717	0.555	0.571
Mof_C 	C 	0.7567	0.4002	0.5908	-0.495
Mof_H 	H 	0.7901	0.3947	0.6087	0.18
Mof_C 	C 	0.7231	0.4352	0.6033	0.281
Mof_H 	H 	0.7333	0.4552	0.6272	-0.09
Mof_C 	C 	0.673	0.4397	0.5789	-0.306
Mof_H 	H 	0.6456	0.4616	0.5885	0.113
Mof_C 	C 	0.7895	0.3416	0.5412	-1.034
Mof_H 	H 	0.7974	0.3461	0.5089	0.303
Mof_H 	H 	0.7759	0.3107	0.5462	0.307
Mof_H 	H 	0.8249	0.3467	0.5586	0.306
Mof_Ag	Ag	0.25692	0.55475	0.43797	0.611
Mof_Ag	Ag	0.24986	0.4868	0.53339	0.574
Mof_Ag	Ag	0.0298	0.8149	0.24983	0.617
Mof_Ag	Ag	0.03549	0.71993	0.17836	0.604
Mof_N 	N 	0.1089	0.7701	0.2501	-0.177
Mof_N 	N 	0.1085	0.7306	0.2242	-0.21
Mof_N 	N 	0.1836	0.7295	0.2677	-0.211
Mof_N 	N 	0.3931	0.7405	0.2957	-0.243
Mof_H 	H 	0.4216	0.7269	0.3098	0.136
Mof_N 	N 	0.4612	0.2681	0.674	-0.206
Mof_N 	N 	0.4553	0.3025	0.7039	-0.179
Mof_N 	N 	0.3769	0.3003	0.6635	-0.219
Mof_N 	N 	0.1821	0.2454	0.6247	-0.272
Mof_H 	H 	0.1517	0.2511	0.6078	0.128
Mof_N 	N 	0.1708	0.5285	0.5172	-0.17
Mof_N 	N 	0.175	0.5552	0.4802	-0.205
Mof_N 	N 	0.0901	0.5627	0.5107	-0.202
Mof_N 	N 	0.8807	0.5721	0.4803	-0.24
Mof_H 	H 	0.8489	0.5855	0.4895	0.128
Mof_N 	N 	0.3268	0.4823	0.4862	-0.177
Mof_N 	N 	0.3305	0.5092	0.4481	-0.211
Mof_N 	N 	0.4031	0.459	0.447	-0.211
Mof_N 	N 	0.5944	0.4026	0.4797	-0.228
Mof_H 	H 	0.6221	0.3847	0.4699	0.12
Mof_O 	O 	0.3179	0.6316	0.4104	-0.289
Mof_O 	O 	0.2361	0.6044	0.3797	-0.333
Mof_O 	O 	0.3723	0.7919	0.2416	-0.231
Mof_O 	O 	0.2699	0.431	0.5882	-0.368
Mof_O 	O 	0.2119	0.396	0.5412	-0.324
Mof_O 	O 	0.2198	0.196	0.6724	-0.264
Mof_O 	O 	0.9996	0.6549	0.6383	-0.313
Mof_O 	O 	0.9258	0.6881	0.5985	-0.286
Mof_O 	O 	0.9148	0.5191	0.4309	-0.222
Mof_O 	O 	0.459	0.3642	0.3108	-0.325
Mof_O 	O 	0.5286	0.3184	0.3398	-0.283
Mof_O 	O 	0.5687	0.4513	0.5355	-0.24
Mof_C 	C 	0.3777	0.4172	0.5183	-0.387
Mof_C 	C 	0.4087	0.4341	0.5596	-1.609
Mof_H 	H 	0.4137	0.4093	0.5812	0.459
Mof_H 	H 	0.3861	0.4582	0.5738	0.501
Mof_H 	H 	0.4466	0.4458	0.5508	0.393
Mof_H 	H 	0.4001	0.3924	0.5044	0.38
Mof_H 	H 	0.3395	0.4051	0.5273	0.111
Mof_C 	C 	0.3976	0.2515	0.5672	-0.475
Mof_H 	H 	0.4008	0.2844	0.5686	0.141
Mof_H 	H 	0.3606	0.2432	0.5535	0.12
Mof_H 	H 	0.4292	0.2393	0.5489	0.097
Mof_H 	H 	0.3641	0.2168	0.6212	0.073
Mof_H 	H 	0.4319	0.2094	0.6153	0.07
Mof_H 	H 	0.4092	0.3732	0.7417	-0.125
Mof_H 	H 	0.3459	0.3525	0.736	0.037
Mof_H 	H 	0.3711	0.3858	0.6983	0.034
Mof_C 	C 	0.1325	0.17	0.6457	-0.134
Mof_C 	C 	0.091	0.1759	0.6138	0.101
Mof_H 	H 	0.0951	0.1991	0.5918	-0.052
Mof_C 	C 	0.0427	0.1483	0.613	0.223
Mof_C 	C 	0.038	0.1156	0.6453	-0.311
Mof_H 	H 	0.0047	0.097	0.6458	0.128
Mof_C 	C 	0.0802	0.1091	0.6769	0.236
Mof_H 	H 	0.0767	0.0853	0.6982	-0.113
Mof_C 	C 	0.1275	0.1368	0.6778	0.139
Mof_H 	H 	0.1563	0.1331	0.7004	0.249
Mof_C 	C 	0.9984	0.1528	0.5751	0.065
Mof_H 	H 	0.009	0.178	0.5554	-0.039
Mof_H 	H 	0.9602	0.1583	0.5882	-0.023
Mof_H 	H 	0.9976	0.1248	0.5573	-0
Mof_C 	C 	0.3721	0.37	0.502	-1.128
Mof_H 	H 	0.3784	0.3492	0.5274	0.318
Mof_H 	H 	0.4009	0.3643	0.4784	0.257
Mof_H 	H 	0.3334	0.3653	0.4896	0.344
Mof_H 	H 	0.3492	0.4217	0.5429	0.172
Mof_H 	H 	0.4165	0.4206	0.5319	0.555
Mof_C 	C 	0.7763	0.1325	0.8798	0.238
Mof_C 	C 	0.7809	0.168	0.8459	0.033
Mof_C 	C 	0.7316	0.1817	0.8224	-0.173
Mof_H 	H 	0.6952	0.1683	0.8285	0.087
Mof_C 	C 	0.7365	0.2148	0.7902	0.182
Mof_C 	C 	0.7871	0.2344	0.7788	-0.254
Mof_H 	H 	0.7886	0.2564	0.7555	0.141
Mof_C 	C 	0.8367	0.2217	0.8019	0.199
Mof_C 	C 	0.8336	0.1892	0.8357	-0.175
Mof_H 	H 	0.8673	0.1813	0.8521	0.105
Mof_C 	C 	0.703	0.3424	0.7847	-0.298
Mof_H 	H 	0.7145	0.3656	0.8066	0.102
Mof_H 	H 	0.6772	0.3556	0.762	0.096
Mof_H 	H 	0.7374	0.3303	0.7697	0.123
Mof_C 	C 	0.6713	0.3037	0.8098	-0.105
Mof_H 	H 	0.6968	0.2904	0.8331	0.047
Mof_H 	H 	0.6363	0.3155	0.825	0.044
Mof_C 	C 	0.6549	0.2685	0.7752	0.142
Mof_C 	C 	0.6564	0.2069	0.7339	0.303
Mof_C 	C 	0.671	0.1632	0.7165	-0.687
Mof_H 	H 	0.6564	0.1399	0.737	0.21
Mof_H 	H 	0.713	0.1605	0.714	0.227
Mof_H 	H 	0.6536	0.1592	0.6865	0.212
Mof_C 	C 	0.907	0.2768	0.7709	0.168
Mof_C 	C 	0.963	0.2995	0.7794	0.05
Mof_C 	C 	0.9764	0.337	0.7545	-0.223
Mof_H 	H 	0.9528	0.3451	0.7294	0.101
Mof_C 	C 	0.0259	0.3643	0.7659	0.252
Mof_C 	C 	0.0605	0.348	0.798	-0.264
Mof_H 	H 	0.0951	0.3642	0.8039	0.103
Mof_C 	C 	0.0503	0.3087	0.8239	0.11
Mof_H 	H 	0.0754	0.2993	0.8475	-0.02
Mof_C 	C 	0.0009	0.2851	0.8122	-0.168
Mof_H 	H 	0.9929	0.2576	0.8275	0.08
Mof_C 	C 	0.038	0.4048	0.7354	-0.601
Mof_H 	H 	0.0407	0.4321	0.7539	0.19
Mof_H 	H 	0.0066	0.4081	0.7134	0.195
Mof_H 	H 	0.0745	0.4	0.7193	0.18
Mof_C 	C 	0.746	0.8987	0.0738	0.301
Mof_C 	C 	0.7562	0.8538	0.1	0.014
Mof_C 	C 	0.8122	0.848	0.1217	-0.155
Mof_H 	H 	0.8408	0.8709	0.1211	0.065
Mof_C 	C 	0.8213	0.8062	0.1438	0.164
Mof_C 	C 	0.7813	0.7736	0.1459	-0.245
Mof_H 	H 	0.7893	0.7467	0.1621	0.13
Mof_C 	C 	0.7262	0.779	0.1236	0.17
Mof_C 	C 	0.7184	0.8201	0.1014	-0.171
Mof_H 	H 	0.6829	0.8244	0.0859	0.095
Mof_C 	C 	0.9009	0.7323	0.1145	-0.734
Mof_C 	C 	0.9134	0.8832	0.2587	0.378
Mof_H 	H 	0.9459	0.8638	0.2672	-0.092
Mof_H 	H 	0.8875	0.8869	0.2847	-0.091
Mof_H 	H 	0.9279	0.9128	0.2493	-0.091
Mof_C 	C 	0.8808	0.8619	0.2199	-0.219
Mof_H 	H 	0.8428	0.8525	0.2318	0.044
Mof_H 	H 	0.8735	0.8859	0.1973	0.038
Mof_C 	C 	0.905	0.8233	0.1955	0.173
Mof_C 	C 	0.912	0.7656	0.1505	0.289
Mof_H 	H 	0.8621	0.737	0.1022	0.243
Mof_H 	H 	0.9037	0.7018	0.1271	0.165
Mof_H 	H 	0.9294	0.736	0.0903	0.319
Mof_C 	C 	0.6801	0.7079	0.1469	0.284
Mof_C 	C 	0.6264	0.6841	0.1365	-0.11
Mof_C 	C 	0.5873	0.6926	0.1017	0.06
Mof_H 	H 	0.5914	0.7188	0.0836	0.033
Mof_C 	C 	0.5418	0.6622	0.0934	-0.457
Mof_C 	C 	0.5297	0.6287	0.1252	0.309
Mof_H 	H 	0.4949	0.6119	0.1233	-0.121
Mof_C 	C 	0.5687	0.6199	0.1597	-0.34
Mof_H 	H 	0.5631	0.5947	0.179	0.09
Mof_C 	C 	0.6164	0.648	0.166	0.181
Mof_H 	H 	0.6422	0.6426	0.1904	-0.385
Mof_C 	C 	0.499	0.6725	0.0558	0.126
Mof_H 	H 	0.4783	0.7005	0.0629	-0.025
Mof_H 	H 	0.4714	0.6476	0.0531	-0.072
Mof_H 	H 	0.5198	0.6761	0.0271	0.004
Mof_C 	C 	0.4654	0.1571	0.1031	0.204
Mof_C 	C 	0.4726	0.1264	0.066	0.046
Mof_C 	C 	0.5278	0.1094	0.0559	-0.172
Mof_H 	H 	0.5605	0.119	0.0727	0.077
Mof_C 	C 	0.5335	0.078	0.0205	0.186
Mof_C 	C 	0.4868	0.0645	0.9946	-0.27
Mof_H 	H 	0.4916	0.0438	0.9704	0.146
Mof_C 	C 	0.432	0.0823	0.0053	0.22
Mof_C 	C 	0.4259	0.1119	0.0396	-0.201
Mof_H 	H 	0.3886	0.1234	0.0462	0.111
Mof_C 	C 	0.6355	0.977	0.1009	-0.29
Mof_H 	H 	0.6726	0.9909	0.1085	0.092
Mof_H 	H 	0.6419	0.9511	0.0808	0.108
Mof_H 	H 	0.6164	0.9668	0.1287	0.1
Mof_C 	C 	0.5987	0.0103	0.0778	-0.091
Mof_H 	H 	0.5889	0.034	0.1002	0.045
Mof_H 	H 	0.5622	0.9949	0.0697	0.057
Mof_C 	C 	0.6211	0.0341	0.035	0.136
Mof_C 	C 	0.6256	0.0739	0.9742	0.255
Mof_C 	C 	0.6096	0.1097	0.9407	-0.611
Mof_H 	H 	0.6218	0.1392	0.9522	0.181
Mof_H 	H 	0.5677	0.1097	0.9363	0.205
Mof_H 	H 	0.6288	0.1037	0.9118	0.2
Mof_C 	C 	0.3756	0.0448	0.945	0.156
Mof_C 	C 	0.3192	0.0509	0.9187	0.111
Mof_C 	C 	0.2809	0.0865	0.9267	-0.336
Mof_H 	H 	0.2888	0.1074	0.9503	0.13
Mof_C 	C 	0.2315	0.0919	0.9008	0.431
Mof_C 	C 	0.2224	0.0649	0.8672	-0.423
Mof_H 	H 	0.1901	0.0706	0.8482	0.154
Mof_C 	C 	0.256	0.0289	0.8576	0.191
Mof_H 	H 	0.2467	0.0097	0.8329	-0.051
Mof_C 	C 	0.3081	0.0195	0.886	-0.227
Mof_H 	H 	0.3316	0.9937	0.8817	0.096
Mof_C 	C 	0.1959	0.1326	0.9095	-0.784
Mof_H 	H 	0.211	0.1486	0.9361	0.228
Mof_H 	H 	0.1559	0.1236	0.9151	0.242
Mof_H 	H 	0.1975	0.1526	0.883	0.245
Mof_C 	C 	0.9956	0.8536	0.8404	0.239
Mof_C 	C 	0.9974	0.882	0.8849	0.07
Mof_C 	C 	0.9488	0.9095	0.8935	-0.197
Mof_H 	H 	0.9167	0.9105	0.8736	0.088
Mof_C 	C 	0.9511	0.9347	0.9327	0.158
Mof_C 	C 	0.9981	0.9352	0.9611	-0.243
Mof_H 	H 	4.70603e-33	0.9553	0.9861	0.104
Mof_C 	C 	0.0444	0.9039	0.9516	0.178
Mof_C 	C 	0.0412	0.8806	0.911	-0.213
Mof_H 	H 	0.0733	0.8628	0.9021	0.112
Mof_C 	C 	0.8699	0.9533	0.9855	0.16
Mof_C 	C 	0.8741	0.9971	0.9231	0.291
Mof_C 	C 	0.8947	0.0157	0.8817	-0.69
Mof_H 	H 	0.8836	0.9961	0.8565	0.216
Mof_H 	H 	0.9369	0.0182	0.8829	0.227
Mof_H 	H 	0.8779	0.0457	0.8773	0.221
Mof_C 	C 	0.1058	0.924	0.0184	0.127
Mof_C 	C 	0.1602	0.9135	0.0404	0.189
Mof_C 	C 	0.1976	0.8817	0.0288	-0.444
Mof_H 	H 	0.1907	0.8649	0.002	0.164
Mof_C 	C 	0.2477	0.8717	0.055	0.576
Mof_C 	C 	0.2567	0.9002	0.0908	-0.497
Mof_H 	H 	0.2901	0.8947	0.1087	0.181
Mof_C 	C 	0.2231	0.9352	0.1033	0.283
Mof_H 	H 	0.2333	0.9552	0.1272	-0.091
Mof_C 	C 	0.173	0.9397	0.0789	-0.307
Mof_H 	H 	0.1456	0.9616	0.0885	0.112
Mof_C 	C 	0.2895	0.8416	0.0412	-1.042
Mof_H 	H 	0.2974	0.8461	0.0089	0.308
Mof_H 	H 	0.2759	0.8107	0.0462	0.31
Mof_H 	H 	0.3249	0.8467	0.0586	0.309
Mof_Ag	Ag	0.75692	0.05475	0.93797	0.606
Mof_Ag	Ag	0.74986	0.9868	0.03339	0.582
Mof_Ag	Ag	0.5298	0.3149	0.74983	0.62
Mof_Ag	Ag	0.53549	0.21993	0.67836	0.606
Mof_N 	N 	0.6089	0.2701	0.7501	-0.177
Mof_N 	N 	0.6085	0.2306	0.7242	-0.21
Mof_N 	N 	0.6836	0.2295	0.7677	-0.211
Mof_N 	N 	0.8931	0.2405	0.7957	-0.243
Mof_H 	H 	0.9216	0.2269	0.8098	0.136
Mof_N 	N 	0.9612	0.7681	0.174	-0.205
Mof_N 	N 	0.9553	0.8025	0.2039	-0.178
Mof_N 	N 	0.8769	0.8003	0.1635	-0.219
Mof_N 	N 	0.6821	0.7454	0.1247	-0.273
Mof_H 	H 	0.6517	0.7511	0.1078	0.128
Mof_N 	N 	0.6708	0.0285	0.0172	-0.168
Mof_N 	N 	0.675	0.0552	0.9802	-0.207
Mof_N 	N 	0.5901	0.0627	0.0107	-0.201
Mof_N 	N 	0.3807	0.0721	0.9803	-0.247
Mof_H 	H 	0.3489	0.0855	0.9895	0.126
Mof_N 	N 	0.8268	0.9823	0.9862	-0.18
Mof_N 	N 	0.8305	0.0092	0.9481	-0.211
Mof_N 	N 	0.9031	0.959	0.947	-0.21
Mof_N 	N 	0.0944	0.9026	0.9797	-0.231
Mof_H 	H 	0.1221	0.8847	0.9699	0.118
Mof_O 	O 	0.8179	0.1316	0.9104	-0.29
Mof_O 	O 	0.7361	0.1044	0.8797	-0.333
Mof_O 	O 	0.8723	0.2919	0.7416	-0.231
Mof_O 	O 	0.7699	0.931	0.0882	-0.37
Mof_O 	O 	0.7119	0.896	0.0412	-0.321
Mof_O 	O 	0.7198	0.696	0.1724	-0.266
Mof_O 	O 	0.4996	0.1549	0.1383	-0.314
Mof_O 	O 	0.4258	0.1881	0.0985	-0.285
Mof_O 	O 	0.4148	0.0191	0.9309	-0.224
Mof_O 	O 	0.959	0.8642	0.8108	-0.326
Mof_O 	O 	0.0286	0.8184	0.8398	-0.286
Mof_O 	O 	0.0687	0.9513	0.0355	-0.241
Mof_C 	C 	0.8777	0.9172	0.0183	-0.388
Mof_C 	C 	0.9087	0.9341	0.0596	-1.706
Mof_H 	H 	0.9137	0.9093	0.0812	0.487
Mof_H 	H 	0.8861	0.9582	0.0738	0.53
Mof_H 	H 	0.9466	0.9458	0.0508	0.416
Mof_H 	H 	0.9001	0.8924	0.0044	0.321
Mof_H 	H 	0.8395	0.9051	0.0273	0.09
Mof_C 	C 	0.8976	0.7515	0.0672	-0.484
Mof_H 	H 	0.9008	0.7844	0.0686	0.147
Mof_H 	H 	0.8606	0.7432	0.0535	0.124
Mof_H 	H 	0.9292	0.7393	0.0489	0.101
Mof_H 	H 	0.8641	0.7168	0.1212	0.072
Mof_H 	H 	0.9319	0.7094	0.1153	0.069
Mof_H 	H 	0.9092	0.8732	0.2417	-0.125
Mof_H 	H 	0.8459	0.8525	0.236	0.036
Mof_H 	H 	0.8711	0.8858	0.1983	0.034
Mof_C 	C 	0.6325	0.67	0.1457	-0.136
Mof_C 	C 	0.591	0.6759	0.1138	0.113
Mof_H 	H 	0.5951	0.6991	0.0918	-0.054
Mof_C 	C 	0.5427	0.6483	0.113	0.234
Mof_C 	C 	0.538	0.6156	0.1453	-0.318
Mof_H 	H 	0.5047	0.597	0.1458	0.133
Mof_C 	C 	0.5802	0.6091	0.1769	0.235
Mof_H 	H 	0.5767	0.5853	0.1982	-0.116
Mof_C 	C 	0.6275	0.6368	0.1778	0.139
Mof_H 	H 	0.6563	0.6331	0.2004	0.261
Mof_C 	C 	0.4984	0.6528	0.0751	0.071
Mof_H 	H 	0.509	0.678	0.0554	-0.041
Mof_H 	H 	0.4602	0.6583	0.0882	-0.025
Mof_H 	H 	0.4976	0.6248	0.0573	-0.002
Mof_C 	C 	0.8721	0.87	0.002	-0.931
Mof_H 	H 	0.8784	0.8492	0.0274	0.263
Mof_H 	H 	0.9009	0.8643	0.9784	0.207
Mof_H 	H 	0.8334	0.8653	0.9896	0.281
Mof_H 	H 	0.8492	0.9217	0.0429	0.19
Mof_H 	H 	0.9165	0.9206	0.0319	0.595
Mof_C 	C 	0.2237	0.1325	0.3798	0.239
Mof_C 	C 	0.2191	0.168	0.3459	0.033
Mof_C 	C 	0.2684	0.1817	0.3224	-0.173
Mof_H 	H 	0.3048	0.1683	0.3285	0.088
Mof_C 	C 	0.2635	0.2148	0.2902	0.182
Mof_C 	C 	0.2129	0.2344	0.2788	-0.254
Mof_H 	H 	0.2114	0.2564	0.2555	0.142
Mof_C 	C 	0.1633	0.2217	0.3019	0.2
Mof_C 	C 	0.1664	0.1892	0.3357	-0.175
Mof_H 	H 	0.1327	0.1813	0.3521	0.105
Mof_C 	C 	0.297	0.3424	0.2847	-0.298
Mof_H 	H 	0.2855	0.3656	0.3066	0.102
Mof_H 	H 	0.3228	0.3556	0.262	0.096
Mof_H 	H 	0.2626	0.3303	0.2697	0.123
Mof_C 	C 	0.3287	0.3037	0.3098	-0.106
Mof_H 	H 	0.3032	0.2904	0.3331	0.048
Mof_H 	H 	0.3637	0.3155	0.325	0.044
Mof_C 	C 	0.3451	0.2685	0.2752	0.142
Mof_C 	C 	0.3436	0.2069	0.2339	0.303
Mof_C 	C 	0.329	0.1632	0.2165	-0.687
Mof_H 	H 	0.3436	0.1399	0.237	0.21
Mof_H 	H 	0.287	0.1605	0.214	0.227
Mof_H 	H 	0.3464	0.1592	0.1865	0.212
Mof_C 	C 	0.093	0.2768	0.2709	0.172
Mof_C 	C 	0.037	0.2995	0.2794	0.039
Mof_C 	C 	0.0236	0.337	0.2545	-0.224
Mof_H 	H 	0.0472	0.3451	0.2294	0.1
Mof_C 	C 	0.9741	0.3643	0.2659	0.254
Mof_C 	C 	0.9395	0.348	0.298	-0.259
Mof_H 	H 	0.9049	0.3642	0.3039	0.102
Mof_C 	C 	0.9497	0.3087	0.3239	0.1
Mof_H 	H 	0.9246	0.2993	0.3475	-0.016
Mof_C 	C 	0.9991	0.2851	0.3122	-0.147
Mof_H 	H 	0.0071	0.2576	0.3275	0.07
Mof_C 	C 	0.962	0.4048	0.2354	-0.603
Mof_H 	H 	0.9593	0.4321	0.2539	0.192
Mof_H 	H 	0.9934	0.4081	0.2134	0.197
Mof_H 	H 	0.9255	0.4	0.2193	0.181
Mof_C 	C 	0.254	0.8987	0.5738	0.3
Mof_C 	C 	0.2438	0.8538	0.6	0.014
Mof_C 	C 	0.1878	0.848	0.6217	-0.157
Mof_H 	H 	0.1592	0.8709	0.6211	0.066
Mof_C 	C 	0.1787	0.8062	0.6438	0.164
Mof_C 	C 	0.2187	0.7736	0.6459	-0.245
Mof_H 	H 	0.2107	0.7467	0.6621	0.13
Mof_C 	C 	0.2738	0.779	0.6236	0.17
Mof_C 	C 	0.2816	0.8201	0.6014	-0.171
Mof_H 	H 	0.3171	0.8244	0.5859	0.094
Mof_C 	C 	0.0991	0.7323	0.6145	-0.735
Mof_C 	C 	0.0866	0.8832	0.7587	0.377
Mof_H 	H 	0.0541	0.8638	0.7672	-0.093
Mof_H 	H 	0.1125	0.8869	0.7847	-0.091
Mof_H 	H 	0.0721	0.9128	0.7493	-0.092
Mof_C 	C 	0.1192	0.8619	0.7199	-0.22
Mof_H 	H 	0.1572	0.8525	0.7318	0.044
Mof_H 	H 	0.1265	0.8859	0.6973	0.038
Mof_C 	C 	0.095	0.8233	0.6955	0.173
Mof_C 	C 	0.088	0.7656	0.6505	0.289
Mof_H 	H 	0.1379	0.737	0.6022	0.242
Mof_H 	H 	0.0963	0.7018	0.6271	0.164
Mof_H 	H 	0.0706	0.736	0.5903	0.317
Mof_C 	C 	0.3199	0.7079	0.6469	0.283
Mof_C 	C 	0.3736	0.6841	0.6365	-0.109
Mof_C 	C 	0.4127	0.6926	0.6017	0.061
Mof_H 	H 	0.4086	0.7188	0.5836	0.032
Mof_C 	C 	0.4582	0.6622	0.5934	-0.453
Mof_C 	C 	0.4703	0.6287	0.6252	0.308
Mof_H 	H 	0.5051	0.6119	0.6233	-0.12
Mof_C 	C 	0.4313	0.6199	0.6597	-0.339
Mof_H 	H 	0.4369	0.5947	0.679	0.09
Mof_C 	C 	0.3836	0.648	0.666	0.179
Mof_H 	H 	0.3578	0.6426	0.6904	-0.383
Mof_C 	C 	0.501	0.6725	0.5558	0.126
Mof_H 	H 	0.5217	0.7005	0.5629	-0.026
Mof_H 	H 	0.5286	0.6476	0.5531	-0.073
Mof_H 	H 	0.4802	0.6761	0.5271	0.001
Mof_C 	C 	0.5346	0.1571	0.6031	0.208
Mof_C 	C 	0.5274	0.1264	0.566	0.036
Mof_C 	C 	0.4722	0.1094	0.5559	-0.16
Mof_H 	H 	0.4395	0.119	0.5727	0.073
Mof_C 	C 	0.4665	0.078	0.5205	0.168
Mof_C 	C 	0.5132	0.0645	0.4946	-0.239
Mof_H 	H 	0.5084	0.0438	0.4704	0.138
Mof_C 	C 	0.568	0.0823	0.5053	0.196
Mof_C 	C 	0.5741	0.1119	0.5396	-0.187
Mof_H 	H 	0.6114	0.1234	0.5462	0.106
Mof_C 	C 	0.3645	0.977	0.6009	-0.292
Mof_H 	H 	0.3274	0.9909	0.6085	0.093
Mof_H 	H 	0.3581	0.9511	0.5808	0.109
Mof_H 	H 	0.3836	0.9668	0.6287	0.1
Mof_C 	C 	0.4013	0.0103	0.5778	-0.089
Mof_H 	H 	0.4111	0.034	0.6002	0.044
Mof_H 	H 	0.4378	0.9949	0.5697	0.056
Mof_C 	C 	0.3789	0.0341	0.535	0.134
Mof_C 	C 	0.3744	0.0739	0.4742	0.262
Mof_C 	C 	0.3904	0.1097	0.4407	-0.618
Mof_H 	H 	0.3782	0.1392	0.4522	0.185
Mof_H 	H 	0.4323	0.1097	0.4363	0.208
Mof_H 	H 	0.3712	0.1037	0.4118	0.202
Mof_C 	C 	0.6244	0.0448	0.445	0.156
Mof_C 	C 	0.6808	0.0509	0.4187	0.112
Mof_C 	C 	0.7191	0.0865	0.4267	-0.335
Mof_H 	H 	0.7112	0.1074	0.4503	0.131
Mof_C 	C 	0.7685	0.0919	0.4008	0.431
Mof_C 	C 	0.7776	0.0649	0.3672	-0.423
Mof_H 	H 	0.8099	0.0706	0.3482	0.154
Mof_C 	C 	0.744	0.0289	0.3576	0.191
Mof_H 	H 	0.7533	0.0097	0.3329	-0.051
Mof_C 	C 	0.6919	0.0195	0.386	-0.227
Mof_H 	H 	0.6684	0.9937	0.3817	0.096
Mof_C 	C 	0.8041	0.1326	0.4095	-0.783
Mof_H 	H 	0.789	0.1486	0.4361	0.226
Mof_H 	H 	0.8441	0.1236	0.4151	0.24
Mof_H 	H 	0.8025	0.1526	0.383	0.244
Mof_C 	C 	0.0044	0.8536	0.3404	0.234
Mof_C 	C 	0.0026	0.882	0.3849	0.065
Mof_C 	C 	0.0512	0.9095	0.3935	-0.199
Mof_H 	H 	0.0833	0.9105	0.3736	0.089
Mof_C 	C 	0.0489	0.9347	0.4327	0.159
Mof_C 	C 	0.0019	0.9352	0.4611	-0.255
Mof_H 	H 	-7.63266e-33	0.9553	0.4861	0.113
Mof_C 	C 	0.9556	0.9039	0.4516	0.184
Mof_C 	C 	0.9588	0.8806	0.411	-0.208
Mof_H 	H 	0.9267	0.8628	0.4021	0.112
Mof_C 	C 	0.1301	0.9533	0.4855	0.163
Mof_C 	C 	0.1259	0.9971	0.4231	0.291
Mof_C 	C 	0.1053	0.0157	0.3817	-0.688
Mof_H 	H 	0.1164	0.9961	0.3565	0.215
Mof_H 	H 	0.0631	0.0182	0.3829	0.226
Mof_H 	H 	0.1221	0.0457	0.3773	0.22
Mof_C 	C 	0.8942	0.924	0.5184	0.12
Mof_C 	C 	0.8398	0.9135	0.5404	0.188
Mof_C 	C 	0.8024	0.8817	0.5288	-0.443
Mof_H 	H 	0.8093	0.8649	0.502	0.161
Mof_C 	C 	0.7523	0.8717	0.555	0.571
Mof_C 	C 	0.7433	0.9002	0.5908	-0.495
Mof_H 	H 	0.7099	0.8947	0.6087	0.18
Mof_C 	C 	0.7769	0.9352	0.6033	0.281
Mof_H 	H 	0.7667	0.9552	0.6272	-0.09
Mof_C 	C 	0.827	0.9397	0.5789	-0.306
Mof_H 	H 	0.8544	0.9616	0.5885	0.113
Mof_C 	C 	0.7105	0.8416	0.5412	-1.034
Mof_H 	H 	0.7026	0.8461	0.5089	0.303
Mof_H 	H 	0.7241	0.8107	0.5462	0.307
Mof_H 	H 	0.6751	0.8467	0.5586	0.306
Mof_Ag	Ag	0.24308	0.05475	0.43797	0.611
Mof_Ag	Ag	0.25014	0.9868	0.53339	0.575
Mof_Ag	Ag	0.4702	0.3149	0.24983	0.62
Mof_Ag	Ag	0.46451	0.21993	0.17836	0.606
Mof_N 	N 	0.3911	0.2701	0.2501	-0.177
Mof_N 	N 	0.3915	0.2306	0.2242	-0.21
Mof_N 	N 	0.3164	0.2295	0.2677	-0.211
Mof_N 	N 	0.1069	0.2405	0.2957	-0.244
Mof_H 	H 	0.0784	0.2269	0.3098	0.136
Mof_N 	N 	0.0388	0.7681	0.674	-0.207
Mof_N 	N 	0.0447	0.8025	0.7039	-0.18
Mof_N 	N 	0.1231	0.8003	0.6635	-0.219
Mof_N 	N 	0.3179	0.7454	0.6247	-0.272
Mof_H 	H 	0.3483	0.7511	0.6078	0.128
Mof_N 	N 	0.3292	0.0285	0.5172	-0.17
Mof_N 	N 	0.325	0.0552	0.4802	-0.205
Mof_N 	N 	0.4099	0.0627	0.5107	-0.202
Mof_N 	N 	0.6193	0.0721	0.4803	-0.24
Mof_H 	H 	0.6511	0.0855	0.4895	0.128
Mof_N 	N 	0.1732	0.9823	0.4862	-0.177
Mof_N 	N 	0.1695	0.0092	0.4481	-0.211
Mof_N 	N 	0.0969	0.959	0.447	-0.211
Mof_N 	N 	0.9056	0.9026	0.4797	-0.228
Mof_H 	H 	0.8779	0.8847	0.4699	0.12
Mof_O 	O 	0.1821	0.1316	0.4104	-0.289
Mof_O 	O 	0.2639	0.1044	0.3797	-0.333
Mof_O 	O 	0.1277	0.2919	0.2416	-0.232
Mof_O 	O 	0.2301	0.931	0.5882	-0.368
Mof_O 	O 	0.2881	0.896	0.5412	-0.324
Mof_O 	O 	0.2802	0.696	0.6724	-0.266
Mof_O 	O 	0.5004	0.1549	0.6383	-0.315
Mof_O 	O 	0.5742	0.1881	0.5985	-0.286
Mof_O 	O 	0.5852	0.0191	0.4309	-0.223
Mof_O 	O 	0.041	0.8642	0.3108	-0.325
Mof_O 	O 	0.9714	0.8184	0.3398	-0.281
Mof_O 	O 	0.9313	0.9513	0.5355	-0.239
Mof_C 	C 	0.1223	0.9172	0.5183	-0.387
Mof_C 	C 	0.0913	0.9341	0.5596	-1.608
Mof_H 	H 	0.0863	0.9093	0.5812	0.459
Mof_H 	H 	0.1139	0.9582	0.5738	0.501
Mof_H 	H 	0.0534	0.9458	0.5508	0.392
Mof_H 	H 	0.0999	0.8924	0.5044	0.38
Mof_H 	H 	0.1605	0.9051	0.5273	0.111
Mof_C 	C 	0.1024	0.7515	0.5672	-0.475
Mof_H 	H 	0.0992	0.7844	0.5686	0.141
Mof_H 	H 	0.1394	0.7432	0.5535	0.12
Mof_H 	H 	0.0708	0.7393	0.5489	0.096
Mof_H 	H 	0.1359	0.7168	0.6212	0.073
Mof_H 	H 	0.0681	0.7094	0.6153	0.069
Mof_H 	H 	0.0908	0.8732	0.7417	-0.124
Mof_H 	H 	0.1541	0.8525	0.736	0.037
Mof_H 	H 	0.1289	0.8858	0.6983	0.034
Mof_C 	C 	0.3675	0.67	0.6457	-0.135
Mof_C 	C 	0.409	0.6759	0.6138	0.11
Mof_H 	H 	0.4049	0.6991	0.5918	-0.053
Mof_C 	C 	0.4573	0.6483	0.613	0.233
Mof_C 	C 	0.462	0.6156	0.6453	-0.316
Mof_H 	H 	0.4953	0.597	0.6458	0.133
Mof_C 	C 	0.4198	0.6091	0.6769	0.235
Mof_H 	H 	0.4233	0.5853	0.6982	-0.115
Mof_C 	C 	0.3725	0.6368	0.6778	0.139
Mof_H 	H 	0.3437	0.6331	0.7004	0.26
Mof_C 	C 	0.5016	0.6528	0.5751	0.068
Mof_H 	H 	0.491	0.678	0.5554	-0.04
Mof_H 	H 	0.5398	0.6583	0.5882	-0.024
Mof_H 	H 	0.5024	0.6248	0.5573	-0.001
Mof_C 	C 	0.1279	0.87	0.502	-1.128
Mof_H 	H 	0.1216	0.8492	0.5274	0.318
Mof_H 	H 	0.0991	0.8643	0.4784	0.256
Mof_H 	H 	0.1666	0.8653	0.4896	0.344
Mof_H 	H 	0.1508	0.9217	0.5429	0.172
Mof_H 	H 	0.0835	0.9206	0.5319	0.555
Mof_C 	C 	0.7237	0.6325	0.8798	0.238
Mof_C 	C 	0.7191	0.668	0.8459	0.033
Mof_C 	C 	0.7684	0.6817	0.8224	-0.173
Mof_H 	H 	0.8048	0.6683	0.8285	0.088
Mof_C 	C 	0.7635	0.7148	0.7902	0.182
Mof_C 	C 	0.7129	0.7344	0.7788	-0.254
Mof_H 	H 	0.7114	0.7564	0.7555	0.142
Mof_C 	C 	0.6633	0.7217	0.8019	0.199
Mof_C 	C 	0.6664	0.6892	0.8357	-0.175
Mof_H 	H 	0.6327	0.6813	0.8521	0.105
Mof_C 	C 	0.797	0.8424	0.7847	-0.297
Mof_H 	H 	0.7855	0.8656	0.8066	0.102
Mof_H 	H 	0.8228	0.8556	0.762	0.096
Mof_H 	H 	0.7626	0.8303	0.7697	0.123
Mof_C 	C 	0.8287	0.8037	0.8098	-0.106
Mof_H 	H 	0.8032	0.7904	0.8331	0.047
Mof_H 	H 	0.8637	0.8155	0.825	0.044
Mof_C 	C 	0.8451	0.7685	0.7752	0.142
Mof_C 	C 	0.8436	0.7069	0.7339	0.303
Mof_C 	C 	0.829	0.6632	0.7165	-0.687
Mof_H 	H 	0.8436	0.6399	0.737	0.21
Mof_H 	H 	0.787	0.6605	0.714	0.227
Mof_H 	H 	0.8464	0.6592	0.6865	0.212
Mof_C 	C 	0.593	0.7768	0.7709	0.17
Mof_C 	C 	0.537	0.7995	0.7794	0.045
Mof_C 	C 	0.5236	0.837	0.7545	-0.224
Mof_H 	H 	0.5472	0.8451	0.7294	0.1
Mof_C 	C 	0.4741	0.8643	0.7659	0.253
Mof_C 	C 	0.4395	0.848	0.798	-0.262
Mof_H 	H 	0.4049	0.8642	0.8039	0.102
Mof_C 	C 	0.4497	0.8087	0.8239	0.105
Mof_H 	H 	0.4246	0.7993	0.8475	-0.018
Mof_C 	C 	0.4991	0.7851	0.8122	-0.158
Mof_H 	H 	0.5071	0.7576	0.8275	0.075
Mof_C 	C 	0.462	0.9048	0.7354	-0.602
Mof_H 	H 	0.4593	0.9321	0.7539	0.191
Mof_H 	H 	0.4934	0.9081	0.7134	0.196
Mof_H 	H 	0.4255	0.9	0.7193	0.18
Mof_C 	C 	0.754	0.3987	0.0738	0.301
Mof_C 	C 	0.7438	0.3538	0.1	0.014
Mof_C 	C 	0.6878	0.348	0.1217	-0.155
Mof_H 	H 	0.6592	0.3709	0.1211	0.065
Mof_C 	C 	0.6787	0.3062	0.1438	0.164
Mof_C 	C 	0.7187	0.2736	0.1459	-0.245
Mof_H 	H 	0.7107	0.2467	0.1621	0.13
Mof_C 	C 	0.7738	0.279	0.1236	0.171
Mof_C 	C 	0.7816	0.3201	0.1014	-0.171
Mof_H 	H 	0.8171	0.3244	0.0859	0.095
Mof_C 	C 	0.5991	0.2323	0.1145	-0.732
Mof_C 	C 	0.5866	0.3832	0.2587	0.377
Mof_H 	H 	0.5541	0.3638	0.2672	-0.092
Mof_H 	H 	0.6125	0.3869	0.2847	-0.091
Mof_H 	H 	0.5721	0.4128	0.2493	-0.091
Mof_C 	C 	0.6192	0.3619	0.2199	-0.22
Mof_H 	H 	0.6572	0.3525	0.2318	0.044
Mof_H 	H 	0.6265	0.3859	0.1973	0.038
Mof_C 	C 	0.595	0.3233	0.1955	0.173
Mof_C 	C 	0.588	0.2656	0.1505	0.288
Mof_H 	H 	0.6379	0.237	0.1022	0.243
Mof_H 	H 	0.5963	0.2018	0.1271	0.164
Mof_H 	H 	0.5706	0.236	0.0903	0.319
Mof_C 	C 	0.8199	0.2079	0.1469	0.287
Mof_C 	C 	0.8736	0.1841	0.1365	-0.119
Mof_C 	C 	0.9127	0.1926	0.1017	0.059
Mof_H 	H 	0.9086	0.2188	0.0836	0.035
Mof_C 	C 	0.9582	0.1622	0.0934	-0.47
Mof_C 	C 	0.9703	0.1287	0.1252	0.314
Mof_H 	H 	0.0051	0.1119	0.1233	-0.126
Mof_C 	C 	0.9313	0.1199	0.1597	-0.346
Mof_H 	H 	0.9369	0.0947	0.179	0.095
Mof_C 	C 	0.8836	0.148	0.166	0.193
Mof_H 	H 	0.8578	0.1426	0.1904	-0.399
Mof_C 	C 	0.001	0.1725	0.0558	0.131
Mof_H 	H 	0.0217	0.2005	0.0629	-0.027
Mof_H 	H 	0.0286	0.1476	0.0531	-0.074
Mof_H 	H 	0.9802	0.1761	0.0271	0.005
Mof_C 	C 	0.0346	0.6571	0.1031	0.205
Mof_C 	C 	0.0274	0.6264	0.066	0.043
Mof_C 	C 	0.9722	0.6094	0.0559	-0.169
Mof_H 	H 	0.9395	0.619	0.0727	0.077
Mof_C 	C 	0.9665	0.578	0.0205	0.188
Mof_C 	C 	0.0132	0.5645	0.9946	-0.272
Mof_H 	H 	0.0084	0.5438	0.9704	0.146
Mof_C 	C 	0.068	0.5823	0.0053	0.22
Mof_C 	C 	0.0741	0.6119	0.0396	-0.2
Mof_H 	H 	0.1114	0.6234	0.0462	0.111
Mof_C 	C 	0.8645	0.477	0.1009	-0.289
Mof_H 	H 	0.8274	0.4909	0.1085	0.092
Mof_H 	H 	0.8581	0.4511	0.0808	0.108
Mof_H 	H 	0.8836	0.4668	0.1287	0.1
Mof_C 	C 	0.9013	0.5103	0.0778	-0.091
Mof_H 	H 	0.9111	0.534	0.1002	0.045
Mof_H 	H 	0.9378	0.4949	0.0697	0.058
Mof_C 	C 	0.8789	0.5341	0.035	0.136
Mof_C 	C 	0.8744	0.5739	0.9742	0.256
Mof_C 	C 	0.8904	0.6097	0.9407	-0.612
Mof_H 	H 	0.8782	0.6392	0.9522	0.182
Mof_H 	H 	0.9323	0.6097	0.9363	0.206
Mof_H 	H 	0.8712	0.6037	0.9118	0.2
Mof_C 	C 	0.1244	0.5448	0.945	0.156
Mof_C 	C 	0.1808	0.5509	0.9187	0.111
Mof_C 	C 	0.2191	0.5865	0.9267	-0.336
Mof_H 	H 	0.2112	0.6074	0.9503	0.13
Mof_C 	C 	0.2685	0.5919	0.9008	0.431
Mof_C 	C 	0.2776	0.5649	0.8672	-0.423
Mof_H 	H 	0.3099	0.5706	0.8482	0.154
Mof_C 	C 	0.244	0.5289	0.8576	0.191
Mof_H 	H 	0.2533	0.5097	0.8329	-0.051
Mof_C 	C 	0.1919	0.5195	0.886	-0.227
Mof_H 	H 	0.1684	0.4937	0.8817	0.096
Mof_C 	C 	0.3041	0.6326	0.9095	-0.784
Mof_H 	H 	0.289	0.6486	0.9361	0.228
Mof_H 	H 	0.3441	0.6236	0.9151	0.242
Mof_H 	H 	0.3025	0.6526	0.883	0.244
Mof_C 	C 	0.5044	0.3536	0.8404	0.237
Mof_C 	C 	0.5026	0.382	0.8849	0.068
Mof_C 	C 	0.5512	0.4095	0.8935	-0.198
Mof_H 	H 	0.5833	0.4105	0.8736	0.088
Mof_C 	C 	0.5489	0.4347	0.9327	0.16
Mof_C 	C 	0.5019	0.4352	0.9611	-0.251
Mof_H 	H 	0.5	0.4553	0.9861	0.108
Mof_C 	C 	0.4556	0.4039	0.9516	0.181
Mof_C 	C 	0.4588	0.3806	0.911	-0.211
Mof_H 	H 	0.4267	0.3628	0.9021	0.112
Mof_C 	C 	0.6301	0.4533	0.9855	0.16
Mof_C 	C 	0.6259	0.4971	0.9231	0.291
Mof_C 	C 	0.6053	0.5157	0.8817	-0.689
Mof_H 	H 	0.6164	0.4961	0.8565	0.215
Mof_H 	H 	0.5631	0.5182	0.8829	0.226
Mof_H 	H 	0.6221	0.5457	0.8773	0.221
Mof_C 	C 	0.3942	0.424	0.0184	0.127
Mof_C 	C 	0.3398	0.4135	0.0404	0.188
Mof_C 	C 	0.3024	0.3817	0.0288	-0.444
Mof_H 	H 	0.3093	0.3649	0.002	0.164
Mof_C 	C 	0.2523	0.3717	0.055	0.576
Mof_C 	C 	0.2433	0.4002	0.0908	-0.497
Mof_H 	H 	0.2099	0.3947	0.1087	0.181
Mof_C 	C 	0.2769	0.4352	0.1033	0.283
Mof_H 	H 	0.2667	0.4552	0.1272	-0.091
Mof_C 	C 	0.327	0.4397	0.0789	-0.307
Mof_H 	H 	0.3544	0.4616	0.0885	0.112
Mof_C 	C 	0.2105	0.3416	0.0412	-1.042
Mof_H 	H 	0.2026	0.3461	0.0089	0.308
Mof_H 	H 	0.2241	0.3107	0.0462	0.31
Mof_H 	H 	0.1751	0.3467	0.0586	0.309
Mof_Ag	Ag	0.74308	0.55475	0.93797	0.606
Mof_Ag	Ag	0.75014	0.4868	0.03339	0.582
Mof_Ag	Ag	0.9702	0.8149	0.74983	0.623
Mof_Ag	Ag	0.96451	0.71993	0.67836	0.609
Mof_N 	N 	0.8911	0.7701	0.7501	-0.177
Mof_N 	N 	0.8915	0.7306	0.7242	-0.21
Mof_N 	N 	0.8164	0.7295	0.7677	-0.211
Mof_N 	N 	0.6069	0.7405	0.7957	-0.243
Mof_H 	H 	0.5784	0.7269	0.8098	0.136
Mof_N 	N 	0.5388	0.2681	0.174	-0.206
Mof_N 	N 	0.5447	0.3025	0.2039	-0.179
Mof_N 	N 	0.6231	0.3003	0.1635	-0.219
Mof_N 	N 	0.8179	0.2454	0.1247	-0.273
Mof_H 	H 	0.8483	0.2511	0.1078	0.129
Mof_N 	N 	0.8292	0.5285	0.0172	-0.168
Mof_N 	N 	0.825	0.5552	0.9802	-0.207
Mof_N 	N 	0.9099	0.5627	0.0107	-0.201
Mof_N 	N 	0.1193	0.5721	0.9803	-0.247
Mof_H 	H 	0.1511	0.5855	0.9895	0.126
Mof_N 	N 	0.6732	0.4823	0.9862	-0.18
Mof_N 	N 	0.6695	0.5092	0.9481	-0.211
Mof_N 	N 	0.5969	0.459	0.947	-0.21
Mof_N 	N 	0.4056	0.4026	0.9797	-0.232
Mof_H 	H 	0.3779	0.3847	0.9699	0.118
Mof_O 	O 	0.6821	0.6316	0.9104	-0.29
Mof_O 	O 	0.7639	0.6044	0.8797	-0.333
Mof_O 	O 	0.6277	0.7919	0.7416	-0.231
Mof_O 	O 	0.7301	0.431	0.0882	-0.37
Mof_O 	O 	0.7881	0.396	0.0412	-0.321
Mof_O 	O 	0.7802	0.196	0.1724	-0.267
Mof_O 	O 	0.0004	0.6549	0.1383	-0.315
Mof_O 	O 	0.0742	0.6881	0.0985	-0.285
Mof_O 	O 	0.0852	0.5191	0.9309	-0.225
Mof_O 	O 	0.541	0.3642	0.8108	-0.325
Mof_O 	O 	0.4714	0.3184	0.8398	-0.284
Mof_O 	O 	0.4313	0.4513	0.0355	-0.24
Mof_C 	C 	0.6223	0.4172	0.0183	-0.389
Mof_C 	C 	0.5913	0.4341	0.0596	-1.704
Mof_H 	H 	0.5863	0.4093	0.0812	0.486
Mof_H 	H 	0.6139	0.4582	0.0738	0.529
Mof_H 	H 	0.5534	0.4458	0.0508	0.415
Mof_H 	H 	0.5999	0.3924	0.0044	0.32
Mof_H 	H 	0.6605	0.4051	0.0273	0.09
Mof_C 	C 	0.6024	0.2515	0.0672	-0.484
Mof_H 	H 	0.5992	0.2844	0.0686	0.147
Mof_H 	H 	0.6394	0.2432	0.0535	0.124
Mof_H 	H 	0.5708	0.2393	0.0489	0.101
Mof_H 	H 	0.6359	0.2168	0.1212	0.072
Mof_H 	H 	0.5681	0.2094	0.1153	0.068
Mof_H 	H 	0.5908	0.3732	0.2417	-0.125
Mof_H 	H 	0.6541	0.3525	0.236	0.037
Mof_H 	H 	0.6289	0.3858	0.1983	0.034
Mof_C 	C 	0.8675	0.17	0.1457	-0.136
Mof_C 	C 	0.909	0.1759	0.1138	0.121
Mof_H 	H 	0.9049	0.1991	0.0918	-0.055
Mof_C 	C 	0.9573	0.1483	0.113	0.244
Mof_C 	C 	0.962	0.1156	0.1453	-0.324
Mof_H 	H 	0.9953	0.097	0.1458	0.137
Mof_C 	C 	0.9198	0.1091	0.1769	0.234
Mof_H 	H 	0.9233	0.0853	0.1982	-0.118
Mof_C 	C 	0.8725	0.1368	0.1778	0.139
Mof_H 	H 	0.8437	0.1331	0.2004	0.271
Mof_C 	C 	0.0016	0.1528	0.0751	0.073
Mof_H 	H 	0.991	0.178	0.0554	-0.043
Mof_H 	H 	0.0398	0.1583	0.0882	-0.026
Mof_H 	H 	0.0024	0.1248	0.0573	-0.003
Mof_C 	C 	0.6279	0.37	0.002	-0.928
Mof_H 	H 	0.6216	0.3492	0.0274	0.263
Mof_H 	H 	0.5991	0.3643	0.9784	0.206
Mof_H 	H 	0.6666	0.3653	0.9896	0.28
Mof_H 	H 	0.6508	0.4217	0.0429	0.19
Mof_H 	H 	0.5835	0.4206	0.0319	0.595
_end
