data_functionalizedCrystal
_audit_creation_method	'EQeq! by Chris Wilmer'
_symmetry_space_group_name_H-M	'P1'
_symmetry_Int_Tables_number	1
_symmetry_cell_setting	triclinic
loop_
_symmetry_equiv_pos_as_xyz
  x,y,z
_cell_length_a	29.2116
_cell_length_b	29.2116
_cell_length_c	29.2116
_cell_angle_alpha	90
_cell_angle_beta	90
_cell_angle_gamma	90
loop_
_atom_site_label
_atom_site_type_symbol
_atom_site_fract_x
_atom_site_fract_y
_atom_site_fract_z
_atom_site_charge
Mof_C 	C 	0.6316	0.6869	0.5126	-0.002
Mof_C 	C 	0.6648	0.7202	0.51264	-0.036
Mof_N 	N 	0.7217	0.7556	0.5081	-0.032
Mof_H 	H 	0.6004	0.6951	0.5167	-0.015
Mof_H 	H 	0.6565	0.7514	0.5167	-0.015
Mof_C 	C 	0.6316	0.1869	0.0126	-0.24
Mof_C 	C 	0.6648	0.2202	0.01264	-0.291
Mof_N 	N 	0.7217	0.2556	0.0081	-0.077
Mof_H 	H 	0.6004	0.1951	0.0167	-0.025
Mof_H 	H 	0.6565	0.2514	0.0167	-0.014
Mof_C 	C 	0.1316	0.6869	0.0126	-0.237
Mof_C 	C 	0.1648	0.7202	0.01264	-0.288
Mof_N 	N 	0.2217	0.7556	0.0081	-0.076
Mof_H 	H 	0.1004	0.6951	0.0167	-0.027
Mof_H 	H 	0.1565	0.7514	0.0167	-0.016
Mof_C 	C 	0.1316	0.1869	0.5126	-0.002
Mof_C 	C 	0.1648	0.2202	0.51264	-0.035
Mof_N 	N 	0.2217	0.2556	0.5081	-0.029
Mof_H 	H 	0.1004	0.1951	0.5167	-0.017
Mof_H 	H 	0.1565	0.2514	0.5167	-0.016
Mof_C 	C 	0.3684	0.3131	0.5126	-0.001
Mof_C 	C 	0.3352	0.2798	0.51264	-0.035
Mof_N 	N 	0.2783	0.2444	0.5081	-0.031
Mof_H 	H 	0.3996	0.3049	0.5167	-0.014
Mof_H 	H 	0.3435	0.2486	0.5167	-0.014
Mof_C 	C 	0.3684	0.8131	0.0126	-0.237
Mof_C 	C 	0.3352	0.7798	0.01264	-0.287
Mof_N 	N 	0.2783	0.7444	0.0081	-0.078
Mof_H 	H 	0.3996	0.8049	0.0167	-0.023
Mof_H 	H 	0.3435	0.7486	0.0167	-0.014
Mof_C 	C 	0.8684	0.3131	0.0126	-0.236
Mof_C 	C 	0.8352	0.2798	0.01264	-0.285
Mof_N 	N 	0.7783	0.2444	0.0081	-0.077
Mof_H 	H 	0.8996	0.3049	0.0167	-0.024
Mof_H 	H 	0.8435	0.2486	0.0167	-0.015
Mof_C 	C 	0.8684	0.8131	0.5126	-0.003
Mof_C 	C 	0.8352	0.7798	0.51264	-0.034
Mof_N 	N 	0.7783	0.7444	0.5081	-0.031
Mof_H 	H 	0.8996	0.8049	0.5167	-0.014
Mof_H 	H 	0.8435	0.7486	0.5167	-0.013
Mof_C 	C 	0.3684	0.6869	0.4874	0.001
Mof_C 	C 	0.3352	0.7202	0.48736	-0.033
Mof_N 	N 	0.2783	0.7556	0.4919	-0.03
Mof_H 	H 	0.3996	0.6951	0.4833	-0.014
Mof_H 	H 	0.3435	0.7514	0.4833	-0.014
Mof_C 	C 	0.3684	0.1869	0.9874	0.175
Mof_C 	C 	0.3352	0.2202	0.98736	0.155
Mof_N 	N 	0.2783	0.2556	0.9919	0.058
Mof_H 	H 	0.3996	0.1951	0.9833	-0.133
Mof_H 	H 	0.3435	0.2514	0.9833	-0.141
Mof_C 	C 	0.8684	0.6869	0.9874	0.167
Mof_C 	C 	0.8352	0.7202	0.98736	0.148
Mof_N 	N 	0.7783	0.7556	0.9919	0.054
Mof_H 	H 	0.8996	0.6951	0.9833	-0.128
Mof_H 	H 	0.8435	0.7514	0.9833	-0.136
Mof_C 	C 	0.8684	0.1869	0.4874	-0
Mof_C 	C 	0.8352	0.2202	0.48736	-0.033
Mof_N 	N 	0.7783	0.2556	0.4919	-0.03
Mof_H 	H 	0.8996	0.1951	0.4833	-0.015
Mof_H 	H 	0.8435	0.2514	0.4833	-0.015
Mof_C 	C 	0.6316	0.3131	0.4874	0.001
Mof_C 	C 	0.6648	0.2798	0.48736	-0.033
Mof_N 	N 	0.7217	0.2444	0.4919	-0.03
Mof_H 	H 	0.6004	0.3049	0.4833	-0.014
Mof_H 	H 	0.6565	0.2486	0.4833	-0.014
Mof_C 	C 	0.6316	0.8131	0.9874	0.172
Mof_C 	C 	0.6648	0.7798	0.98736	0.152
Mof_N 	N 	0.7217	0.7444	0.9919	0.054
Mof_H 	H 	0.6004	0.8049	0.9833	-0.129
Mof_H 	H 	0.6565	0.7486	0.9833	-0.137
Mof_C 	C 	0.1316	0.3131	0.9874	0.175
Mof_C 	C 	0.1648	0.2798	0.98736	0.155
Mof_N 	N 	0.2217	0.2444	0.9919	0.058
Mof_H 	H 	0.1004	0.3049	0.9833	-0.135
Mof_H 	H 	0.1565	0.2486	0.9833	-0.143
Mof_C 	C 	0.1316	0.8131	0.4874	0
Mof_C 	C 	0.1648	0.7798	0.48736	-0.033
Mof_N 	N 	0.2217	0.7444	0.4919	-0.03
Mof_H 	H 	0.1004	0.8049	0.4833	-0.017
Mof_H 	H 	0.1565	0.7486	0.4833	-0.015
Mof_C 	C 	0.5126	0.6316	0.6869	-0.001
Mof_C 	C 	0.51264	0.6648	0.7202	-0.035
Mof_N 	N 	0.5081	0.7217	0.7556	-0.031
Mof_H 	H 	0.5167	0.6004	0.6951	-0.014
Mof_H 	H 	0.5167	0.6565	0.7514	-0.014
Mof_C 	C 	0.5126	0.1316	0.1869	-0.002
Mof_C 	C 	0.51264	0.1648	0.2202	-0.035
Mof_N 	N 	0.5081	0.2217	0.2556	-0.029
Mof_H 	H 	0.5167	0.1004	0.1951	-0.017
Mof_H 	H 	0.5167	0.1565	0.2514	-0.016
Mof_C 	C 	0.0126	0.6316	0.1869	-0.239
Mof_C 	C 	0.01264	0.6648	0.2202	-0.29
Mof_N 	N 	0.0081	0.7217	0.2556	-0.077
Mof_H 	H 	0.0167	0.6004	0.1951	-0.025
Mof_H 	H 	0.0167	0.6565	0.2514	-0.014
Mof_C 	C 	0.0126	0.1316	0.6869	-0.237
Mof_C 	C 	0.01264	0.1648	0.7202	-0.288
Mof_N 	N 	0.0081	0.2217	0.7556	-0.076
Mof_H 	H 	0.0167	0.1004	0.6951	-0.027
Mof_H 	H 	0.0167	0.1565	0.7514	-0.016
Mof_C 	C 	0.5126	0.3684	0.3131	-0.001
Mof_C 	C 	0.51264	0.3352	0.2798	-0.035
Mof_N 	N 	0.5081	0.2783	0.2444	-0.031
Mof_H 	H 	0.5167	0.3996	0.3049	-0.014
Mof_H 	H 	0.5167	0.3435	0.2486	-0.014
Mof_C 	C 	0.5126	0.8684	0.8131	-0.003
Mof_C 	C 	0.51264	0.8352	0.7798	-0.034
Mof_N 	N 	0.5081	0.7783	0.7444	-0.031
Mof_H 	H 	0.5167	0.8996	0.8049	-0.014
Mof_H 	H 	0.5167	0.8435	0.7486	-0.013
Mof_C 	C 	0.0126	0.3684	0.8131	-0.237
Mof_C 	C 	0.01264	0.3352	0.7798	-0.287
Mof_N 	N 	0.0081	0.2783	0.7444	-0.078
Mof_H 	H 	0.0167	0.3996	0.8049	-0.023
Mof_H 	H 	0.0167	0.3435	0.7486	-0.014
Mof_C 	C 	0.0126	0.8684	0.3131	-0.236
Mof_C 	C 	0.01264	0.8352	0.2798	-0.285
Mof_N 	N 	0.0081	0.7783	0.2444	-0.077
Mof_H 	H 	0.0167	0.8996	0.3049	-0.024
Mof_H 	H 	0.0167	0.8435	0.2486	-0.015
Mof_C 	C 	0.4874	0.3684	0.6869	0.001
Mof_C 	C 	0.48736	0.3352	0.7202	-0.033
Mof_N 	N 	0.4919	0.2783	0.7556	-0.03
Mof_H 	H 	0.4833	0.3996	0.6951	-0.014
Mof_H 	H 	0.4833	0.3435	0.7514	-0.014
Mof_C 	C 	0.4874	0.8684	0.1869	-0
Mof_C 	C 	0.48736	0.8352	0.2202	-0.033
Mof_N 	N 	0.4919	0.7783	0.2556	-0.03
Mof_H 	H 	0.4833	0.8996	0.1951	-0.015
Mof_H 	H 	0.4833	0.8435	0.2514	-0.015
Mof_C 	C 	0.9874	0.3684	0.1869	0.175
Mof_C 	C 	0.98736	0.3352	0.2202	0.155
Mof_N 	N 	0.9919	0.2783	0.2556	0.058
Mof_H 	H 	0.9833	0.3996	0.1951	-0.133
Mof_H 	H 	0.9833	0.3435	0.2514	-0.141
Mof_C 	C 	0.9874	0.8684	0.6869	0.167
Mof_C 	C 	0.98736	0.8352	0.7202	0.148
Mof_N 	N 	0.9919	0.7783	0.7556	0.054
Mof_H 	H 	0.9833	0.8996	0.6951	-0.128
Mof_H 	H 	0.9833	0.8435	0.7514	-0.136
Mof_C 	C 	0.4874	0.6316	0.3131	0.001
Mof_C 	C 	0.48736	0.6648	0.2798	-0.033
Mof_N 	N 	0.4919	0.7217	0.2444	-0.03
Mof_H 	H 	0.4833	0.6004	0.3049	-0.014
Mof_H 	H 	0.4833	0.6565	0.2486	-0.014
Mof_C 	C 	0.4874	0.1316	0.8131	0
Mof_C 	C 	0.48736	0.1648	0.7798	-0.033
Mof_N 	N 	0.4919	0.2217	0.7444	-0.03
Mof_H 	H 	0.4833	0.1004	0.8049	-0.017
Mof_H 	H 	0.4833	0.1565	0.7486	-0.015
Mof_C 	C 	0.9874	0.6316	0.8131	0.172
Mof_C 	C 	0.98736	0.6648	0.7798	0.152
Mof_N 	N 	0.9919	0.7217	0.7444	0.054
Mof_H 	H 	0.9833	0.6004	0.8049	-0.129
Mof_H 	H 	0.9833	0.6565	0.7486	-0.137
Mof_C 	C 	0.9874	0.1316	0.3131	0.175
Mof_C 	C 	0.98736	0.1648	0.2798	0.155
Mof_N 	N 	0.9919	0.2217	0.2444	0.058
Mof_H 	H 	0.9833	0.1004	0.3049	-0.135
Mof_H 	H 	0.9833	0.1565	0.2486	-0.143
Mof_C 	C 	0.6869	0.5126	0.6316	-0.001
Mof_C 	C 	0.7202	0.51264	0.6648	-0.035
Mof_N 	N 	0.7556	0.5081	0.7217	-0.031
Mof_H 	H 	0.6951	0.5167	0.6004	-0.014
Mof_H 	H 	0.7514	0.5167	0.6565	-0.014
Mof_C 	C 	0.6869	0.0126	0.1316	-0.237
Mof_C 	C 	0.7202	0.01264	0.1648	-0.288
Mof_N 	N 	0.7556	0.0081	0.2217	-0.076
Mof_H 	H 	0.6951	0.0167	0.1004	-0.027
Mof_H 	H 	0.7514	0.0167	0.1565	-0.016
Mof_C 	C 	0.1869	0.5126	0.1316	-0.002
Mof_C 	C 	0.2202	0.51264	0.1648	-0.035
Mof_N 	N 	0.2556	0.5081	0.2217	-0.029
Mof_H 	H 	0.1951	0.5167	0.1004	-0.017
Mof_H 	H 	0.2514	0.5167	0.1565	-0.016
Mof_C 	C 	0.1869	0.0126	0.6316	-0.239
Mof_C 	C 	0.2202	0.01264	0.6648	-0.29
Mof_N 	N 	0.2556	0.0081	0.7217	-0.077
Mof_H 	H 	0.1951	0.0167	0.6004	-0.025
Mof_H 	H 	0.2514	0.0167	0.6565	-0.014
Mof_C 	C 	0.3131	0.5126	0.3684	-0.001
Mof_C 	C 	0.2798	0.51264	0.3352	-0.035
Mof_N 	N 	0.2444	0.5081	0.2783	-0.031
Mof_H 	H 	0.3049	0.5167	0.3996	-0.014
Mof_H 	H 	0.2486	0.5167	0.3435	-0.014
Mof_C 	C 	0.3131	0.0126	0.8684	-0.236
Mof_C 	C 	0.2798	0.01264	0.8352	-0.285
Mof_N 	N 	0.2444	0.0081	0.7783	-0.077
Mof_H 	H 	0.3049	0.0167	0.8996	-0.024
Mof_H 	H 	0.2486	0.0167	0.8435	-0.015
Mof_C 	C 	0.8131	0.5126	0.8684	-0.003
Mof_C 	C 	0.7798	0.51264	0.8352	-0.034
Mof_N 	N 	0.7444	0.5081	0.7783	-0.031
Mof_H 	H 	0.8049	0.5167	0.8996	-0.014
Mof_H 	H 	0.7486	0.5167	0.8435	-0.013
Mof_C 	C 	0.8131	0.0126	0.3684	-0.237
Mof_C 	C 	0.7798	0.01264	0.3352	-0.287
Mof_N 	N 	0.7444	0.0081	0.2783	-0.078
Mof_H 	H 	0.8049	0.0167	0.3996	-0.023
Mof_H 	H 	0.7486	0.0167	0.3435	-0.014
Mof_C 	C 	0.6869	0.4874	0.3684	0.001
Mof_C 	C 	0.7202	0.48736	0.3352	-0.033
Mof_N 	N 	0.7556	0.4919	0.2783	-0.03
Mof_H 	H 	0.6951	0.4833	0.3996	-0.014
Mof_H 	H 	0.7514	0.4833	0.3435	-0.014
Mof_C 	C 	0.6869	0.9874	0.8684	0.167
Mof_C 	C 	0.7202	0.98736	0.8352	0.148
Mof_N 	N 	0.7556	0.9919	0.7783	0.054
Mof_H 	H 	0.6951	0.9833	0.8996	-0.128
Mof_H 	H 	0.7514	0.9833	0.8435	-0.136
Mof_C 	C 	0.1869	0.4874	0.8684	-0
Mof_C 	C 	0.2202	0.48736	0.8352	-0.033
Mof_N 	N 	0.2556	0.4919	0.7783	-0.03
Mof_H 	H 	0.1951	0.4833	0.8996	-0.015
Mof_H 	H 	0.2514	0.4833	0.8435	-0.015
Mof_C 	C 	0.1869	0.9874	0.3684	0.175
Mof_C 	C 	0.2202	0.98736	0.3352	0.155
Mof_N 	N 	0.2556	0.9919	0.2783	0.058
Mof_H 	H 	0.1951	0.9833	0.3996	-0.133
Mof_H 	H 	0.2514	0.9833	0.3435	-0.141
Mof_C 	C 	0.3131	0.4874	0.6316	0.001
Mof_C 	C 	0.2798	0.48736	0.6648	-0.033
Mof_N 	N 	0.2444	0.4919	0.7217	-0.03
Mof_H 	H 	0.3049	0.4833	0.6004	-0.014
Mof_H 	H 	0.2486	0.4833	0.6565	-0.014
Mof_C 	C 	0.3131	0.9874	0.1316	0.175
Mof_C 	C 	0.2798	0.98736	0.1648	0.155
Mof_N 	N 	0.2444	0.9919	0.2217	0.058
Mof_H 	H 	0.3049	0.9833	0.1004	-0.135
Mof_H 	H 	0.2486	0.9833	0.1565	-0.143
Mof_C 	C 	0.8131	0.4874	0.1316	0
Mof_C 	C 	0.7798	0.48736	0.1648	-0.033
Mof_N 	N 	0.7444	0.4919	0.2217	-0.03
Mof_H 	H 	0.8049	0.4833	0.1004	-0.017
Mof_H 	H 	0.7486	0.4833	0.1565	-0.015
Mof_C 	C 	0.8131	0.9874	0.6316	0.172
Mof_C 	C 	0.7798	0.98736	0.6648	0.152
Mof_N 	N 	0.7444	0.9919	0.7217	0.054
Mof_H 	H 	0.8049	0.9833	0.6004	-0.129
Mof_H 	H 	0.7486	0.9833	0.6565	-0.137
Mof_C 	C 	0.6869	0.6316	0.4874	0.001
Mof_C 	C 	0.7202	0.6648	0.48736	-0.033
Mof_N 	N 	0.7556	0.7217	0.4919	-0.03
Mof_H 	H 	0.6951	0.6004	0.4833	-0.014
Mof_H 	H 	0.7514	0.6565	0.4833	-0.014
Mof_C 	C 	0.6869	0.1316	0.9874	0.172
Mof_C 	C 	0.7202	0.1648	0.98736	0.152
Mof_N 	N 	0.7556	0.2217	0.9919	0.057
Mof_H 	H 	0.6951	0.1004	0.9833	-0.134
Mof_H 	H 	0.7514	0.1565	0.9833	-0.14
Mof_C 	C 	0.1869	0.6316	0.9874	0.174
Mof_C 	C 	0.2202	0.6648	0.98736	0.155
Mof_N 	N 	0.2556	0.7217	0.9919	0.057
Mof_H 	H 	0.1951	0.6004	0.9833	-0.132
Mof_H 	H 	0.2514	0.6565	0.9833	-0.14
Mof_C 	C 	0.1869	0.1316	0.4874	0.001
Mof_C 	C 	0.2202	0.1648	0.48736	-0.033
Mof_N 	N 	0.2556	0.2217	0.4919	-0.029
Mof_H 	H 	0.1951	0.1004	0.4833	-0.018
Mof_H 	H 	0.2514	0.1565	0.4833	-0.016
Mof_C 	C 	0.3131	0.3684	0.4874	0.001
Mof_C 	C 	0.2798	0.3352	0.48736	-0.033
Mof_N 	N 	0.2444	0.2783	0.4919	-0.03
Mof_H 	H 	0.3049	0.3996	0.4833	-0.014
Mof_H 	H 	0.2486	0.3435	0.4833	-0.015
Mof_C 	C 	0.3131	0.8684	0.9874	0.17
Mof_C 	C 	0.2798	0.8352	0.98736	0.151
Mof_N 	N 	0.2444	0.7783	0.9919	0.056
Mof_H 	H 	0.3049	0.8996	0.9833	-0.13
Mof_H 	H 	0.2486	0.8435	0.9833	-0.138
Mof_C 	C 	0.8131	0.3684	0.9874	0.172
Mof_C 	C 	0.7798	0.3352	0.98736	0.153
Mof_N 	N 	0.7444	0.2783	0.9919	0.055
Mof_H 	H 	0.8049	0.3996	0.9833	-0.13
Mof_H 	H 	0.7486	0.3435	0.9833	-0.139
Mof_C 	C 	0.8131	0.8684	0.4874	-0.001
Mof_C 	C 	0.7798	0.8352	0.48736	-0.033
Mof_N 	N 	0.7444	0.7783	0.4919	-0.031
Mof_H 	H 	0.8049	0.8996	0.4833	-0.014
Mof_H 	H 	0.7486	0.8435	0.4833	-0.014
Mof_C 	C 	0.6869	0.3684	0.5126	-0.001
Mof_C 	C 	0.7202	0.3352	0.51264	-0.035
Mof_N 	N 	0.7556	0.2783	0.5081	-0.031
Mof_H 	H 	0.6951	0.3996	0.5167	-0.014
Mof_H 	H 	0.7514	0.3435	0.5167	-0.014
Mof_C 	C 	0.6869	0.8684	0.0126	-0.232
Mof_C 	C 	0.7202	0.8352	0.01264	-0.282
Mof_N 	N 	0.7556	0.7783	0.0081	-0.076
Mof_H 	H 	0.6951	0.8996	0.0167	-0.024
Mof_H 	H 	0.7514	0.8435	0.0167	-0.015
Mof_C 	C 	0.1869	0.3684	0.0126	-0.241
Mof_C 	C 	0.2202	0.3352	0.01264	-0.291
Mof_N 	N 	0.2556	0.2783	0.0081	-0.077
Mof_H 	H 	0.1951	0.3996	0.0167	-0.025
Mof_H 	H 	0.2514	0.3435	0.0167	-0.015
Mof_C 	C 	0.1869	0.8684	0.5126	-0.002
Mof_C 	C 	0.2202	0.8352	0.51264	-0.035
Mof_N 	N 	0.2556	0.7783	0.5081	-0.03
Mof_H 	H 	0.1951	0.8996	0.5167	-0.015
Mof_H 	H 	0.2514	0.8435	0.5167	-0.014
Mof_C 	C 	0.3131	0.6316	0.5126	-0.001
Mof_C 	C 	0.2798	0.6648	0.51264	-0.035
Mof_N 	N 	0.2444	0.7217	0.5081	-0.031
Mof_H 	H 	0.3049	0.6004	0.5167	-0.014
Mof_H 	H 	0.2486	0.6565	0.5167	-0.014
Mof_C 	C 	0.3131	0.1316	0.0126	-0.241
Mof_C 	C 	0.2798	0.1648	0.01264	-0.292
Mof_N 	N 	0.2444	0.2217	0.0081	-0.077
Mof_H 	H 	0.3049	0.1004	0.0167	-0.027
Mof_H 	H 	0.2486	0.1565	0.0167	-0.016
Mof_C 	C 	0.8131	0.6316	0.0126	-0.236
Mof_C 	C 	0.7798	0.6648	0.01264	-0.286
Mof_N 	N 	0.7444	0.7217	0.0081	-0.077
Mof_H 	H 	0.8049	0.6004	0.0167	-0.023
Mof_H 	H 	0.7486	0.6565	0.0167	-0.014
Mof_C 	C 	0.8131	0.1316	0.5126	-0.002
Mof_C 	C 	0.7798	0.1648	0.51264	-0.035
Mof_N 	N 	0.7444	0.2217	0.5081	-0.03
Mof_H 	H 	0.8049	0.1004	0.5167	-0.016
Mof_H 	H 	0.7486	0.1565	0.5167	-0.015
Mof_C 	C 	0.6316	0.5126	0.3131	-0.001
Mof_C 	C 	0.6648	0.51264	0.2798	-0.035
Mof_N 	N 	0.7217	0.5081	0.2444	-0.031
Mof_H 	H 	0.6004	0.5167	0.3049	-0.014
Mof_H 	H 	0.6565	0.5167	0.2486	-0.014
Mof_C 	C 	0.6316	0.0126	0.8131	-0.236
Mof_C 	C 	0.6648	0.01264	0.7798	-0.286
Mof_N 	N 	0.7217	0.0081	0.7444	-0.077
Mof_H 	H 	0.6004	0.0167	0.8049	-0.023
Mof_H 	H 	0.6565	0.0167	0.7486	-0.014
Mof_C 	C 	0.1316	0.5126	0.8131	-0.002
Mof_C 	C 	0.1648	0.51264	0.7798	-0.035
Mof_N 	N 	0.2217	0.5081	0.7444	-0.03
Mof_H 	H 	0.1004	0.5167	0.8049	-0.016
Mof_H 	H 	0.1565	0.5167	0.7486	-0.015
Mof_C 	C 	0.1316	0.0126	0.3131	-0.241
Mof_C 	C 	0.1648	0.01264	0.2798	-0.292
Mof_N 	N 	0.2217	0.0081	0.2444	-0.077
Mof_H 	H 	0.1004	0.0167	0.3049	-0.027
Mof_H 	H 	0.1565	0.0167	0.2486	-0.016
Mof_C 	C 	0.3684	0.5126	0.6869	-0.001
Mof_C 	C 	0.3352	0.51264	0.7202	-0.035
Mof_N 	N 	0.2783	0.5081	0.7556	-0.031
Mof_H 	H 	0.3996	0.5167	0.6951	-0.014
Mof_H 	H 	0.3435	0.5167	0.7514	-0.014
Mof_C 	C 	0.3684	0.0126	0.1869	-0.241
Mof_C 	C 	0.3352	0.01264	0.2202	-0.291
Mof_N 	N 	0.2783	0.0081	0.2556	-0.077
Mof_H 	H 	0.3996	0.0167	0.1951	-0.025
Mof_H 	H 	0.3435	0.0167	0.2514	-0.015
Mof_C 	C 	0.8684	0.5126	0.1869	-0.002
Mof_C 	C 	0.8352	0.51264	0.2202	-0.035
Mof_N 	N 	0.7783	0.5081	0.2556	-0.03
Mof_H 	H 	0.8996	0.5167	0.1951	-0.015
Mof_H 	H 	0.8435	0.5167	0.2514	-0.014
Mof_C 	C 	0.8684	0.0126	0.6869	-0.232
Mof_C 	C 	0.8352	0.01264	0.7202	-0.282
Mof_N 	N 	0.7783	0.0081	0.7556	-0.076
Mof_H 	H 	0.8996	0.0167	0.6951	-0.024
Mof_H 	H 	0.8435	0.0167	0.7514	-0.015
Mof_C 	C 	0.3684	0.4874	0.3131	0.001
Mof_C 	C 	0.3352	0.48736	0.2798	-0.033
Mof_N 	N 	0.2783	0.4919	0.2444	-0.03
Mof_H 	H 	0.3996	0.4833	0.3049	-0.014
Mof_H 	H 	0.3435	0.4833	0.2486	-0.015
Mof_C 	C 	0.3684	0.9874	0.8131	0.172
Mof_C 	C 	0.3352	0.98736	0.7798	0.153
Mof_N 	N 	0.2783	0.9919	0.7444	0.055
Mof_H 	H 	0.3996	0.9833	0.8049	-0.13
Mof_H 	H 	0.3435	0.9833	0.7486	-0.139
Mof_C 	C 	0.8684	0.4874	0.8131	-0.001
Mof_C 	C 	0.8352	0.48736	0.7798	-0.033
Mof_N 	N 	0.7783	0.4919	0.7444	-0.031
Mof_H 	H 	0.8996	0.4833	0.8049	-0.014
Mof_H 	H 	0.8435	0.4833	0.7486	-0.014
Mof_C 	C 	0.8684	0.9874	0.3131	0.17
Mof_C 	C 	0.8352	0.98736	0.2798	0.151
Mof_N 	N 	0.7783	0.9919	0.2444	0.056
Mof_H 	H 	0.8996	0.9833	0.3049	-0.13
Mof_H 	H 	0.8435	0.9833	0.2486	-0.138
Mof_C 	C 	0.6316	0.4874	0.6869	0.001
Mof_C 	C 	0.6648	0.48736	0.7202	-0.033
Mof_N 	N 	0.7217	0.4919	0.7556	-0.03
Mof_H 	H 	0.6004	0.4833	0.6951	-0.014
Mof_H 	H 	0.6565	0.4833	0.7514	-0.014
Mof_C 	C 	0.6316	0.9874	0.1869	0.174
Mof_C 	C 	0.6648	0.98736	0.2202	0.155
Mof_N 	N 	0.7217	0.9919	0.2556	0.057
Mof_H 	H 	0.6004	0.9833	0.1951	-0.132
Mof_H 	H 	0.6565	0.9833	0.2514	-0.14
Mof_C 	C 	0.1316	0.4874	0.1869	0.001
Mof_C 	C 	0.1648	0.48736	0.2202	-0.033
Mof_N 	N 	0.2217	0.4919	0.2556	-0.029
Mof_H 	H 	0.1004	0.4833	0.1951	-0.018
Mof_H 	H 	0.1565	0.4833	0.2514	-0.016
Mof_C 	C 	0.1316	0.9874	0.6869	0.172
Mof_C 	C 	0.1648	0.98736	0.7202	0.152
Mof_N 	N 	0.2217	0.9919	0.7556	0.057
Mof_H 	H 	0.1004	0.9833	0.6951	-0.134
Mof_H 	H 	0.1565	0.9833	0.7514	-0.14
Mof_C 	C 	0.5126	0.6869	0.3684	-0.001
Mof_C 	C 	0.51264	0.7202	0.3352	-0.035
Mof_N 	N 	0.5081	0.7556	0.2783	-0.031
Mof_H 	H 	0.5167	0.6951	0.3996	-0.014
Mof_H 	H 	0.5167	0.7514	0.3435	-0.014
Mof_C 	C 	0.5126	0.1869	0.8684	-0.002
Mof_C 	C 	0.51264	0.2202	0.8352	-0.035
Mof_N 	N 	0.5081	0.2556	0.7783	-0.03
Mof_H 	H 	0.5167	0.1951	0.8996	-0.015
Mof_H 	H 	0.5167	0.2514	0.8435	-0.014
Mof_C 	C 	0.0126	0.6869	0.8684	-0.232
Mof_C 	C 	0.01264	0.7202	0.8352	-0.282
Mof_N 	N 	0.0081	0.7556	0.7783	-0.076
Mof_H 	H 	0.0167	0.6951	0.8996	-0.024
Mof_H 	H 	0.0167	0.7514	0.8435	-0.015
Mof_C 	C 	0.0126	0.1869	0.3684	-0.241
Mof_C 	C 	0.01264	0.2202	0.3352	-0.291
Mof_N 	N 	0.0081	0.2556	0.2783	-0.077
Mof_H 	H 	0.0167	0.1951	0.3996	-0.025
Mof_H 	H 	0.0167	0.2514	0.3435	-0.015
Mof_C 	C 	0.5126	0.3131	0.6316	-0.001
Mof_C 	C 	0.51264	0.2798	0.6648	-0.035
Mof_N 	N 	0.5081	0.2444	0.7217	-0.031
Mof_H 	H 	0.5167	0.3049	0.6004	-0.014
Mof_H 	H 	0.5167	0.2486	0.6565	-0.014
Mof_C 	C 	0.5126	0.8131	0.1316	-0.002
Mof_C 	C 	0.51264	0.7798	0.1648	-0.035
Mof_N 	N 	0.5081	0.7444	0.2217	-0.03
Mof_H 	H 	0.5167	0.8049	0.1004	-0.016
Mof_H 	H 	0.5167	0.7486	0.1565	-0.015
Mof_C 	C 	0.0126	0.3131	0.1316	-0.241
Mof_C 	C 	0.01264	0.2798	0.1648	-0.292
Mof_N 	N 	0.0081	0.2444	0.2217	-0.077
Mof_H 	H 	0.0167	0.3049	0.1004	-0.027
Mof_H 	H 	0.0167	0.2486	0.1565	-0.016
Mof_C 	C 	0.0126	0.8131	0.6316	-0.236
Mof_C 	C 	0.01264	0.7798	0.6648	-0.286
Mof_N 	N 	0.0081	0.7444	0.7217	-0.077
Mof_H 	H 	0.0167	0.8049	0.6004	-0.023
Mof_H 	H 	0.0167	0.7486	0.6565	-0.014
Mof_C 	C 	0.4874	0.6869	0.6316	0.001
Mof_C 	C 	0.48736	0.7202	0.6648	-0.033
Mof_N 	N 	0.4919	0.7556	0.7217	-0.03
Mof_H 	H 	0.4833	0.6951	0.6004	-0.014
Mof_H 	H 	0.4833	0.7514	0.6565	-0.014
Mof_C 	C 	0.4874	0.1869	0.1316	0.001
Mof_C 	C 	0.48736	0.2202	0.1648	-0.033
Mof_N 	N 	0.4919	0.2556	0.2217	-0.029
Mof_H 	H 	0.4833	0.1951	0.1004	-0.018
Mof_H 	H 	0.4833	0.2514	0.1565	-0.016
Mof_C 	C 	0.9874	0.6869	0.1316	0.172
Mof_C 	C 	0.98736	0.7202	0.1648	0.152
Mof_N 	N 	0.9919	0.7556	0.2217	0.057
Mof_H 	H 	0.9833	0.6951	0.1004	-0.134
Mof_H 	H 	0.9833	0.7514	0.1565	-0.14
Mof_C 	C 	0.9874	0.1869	0.6316	0.174
Mof_C 	C 	0.98736	0.2202	0.6648	0.155
Mof_N 	N 	0.9919	0.2556	0.7217	0.057
Mof_H 	H 	0.9833	0.1951	0.6004	-0.132
Mof_H 	H 	0.9833	0.2514	0.6565	-0.14
Mof_C 	C 	0.4874	0.3131	0.3684	0.001
Mof_C 	C 	0.48736	0.2798	0.3352	-0.033
Mof_N 	N 	0.4919	0.2444	0.2783	-0.03
Mof_H 	H 	0.4833	0.3049	0.3996	-0.014
Mof_H 	H 	0.4833	0.2486	0.3435	-0.015
Mof_C 	C 	0.4874	0.8131	0.8684	-0.001
Mof_C 	C 	0.48736	0.7798	0.8352	-0.033
Mof_N 	N 	0.4919	0.7444	0.7783	-0.031
Mof_H 	H 	0.4833	0.8049	0.8996	-0.014
Mof_H 	H 	0.4833	0.7486	0.8435	-0.014
Mof_C 	C 	0.9874	0.3131	0.8684	0.17
Mof_C 	C 	0.98736	0.2798	0.8352	0.151
Mof_N 	N 	0.9919	0.2444	0.7783	0.056
Mof_H 	H 	0.9833	0.3049	0.8996	-0.13
Mof_H 	H 	0.9833	0.2486	0.8435	-0.138
Mof_C 	C 	0.9874	0.8131	0.3684	0.172
Mof_C 	C 	0.98736	0.7798	0.3352	0.153
Mof_N 	N 	0.9919	0.7444	0.2783	0.055
Mof_H 	H 	0.9833	0.8049	0.3996	-0.13
Mof_H 	H 	0.9833	0.7486	0.3435	-0.139
Mof_C 	C 	0.3684	0.3131	0.4874	0.001
Mof_C 	C 	0.3352	0.2798	0.48736	-0.033
Mof_N 	N 	0.2783	0.2444	0.4919	-0.03
Mof_H 	H 	0.3996	0.3049	0.4833	-0.014
Mof_H 	H 	0.3435	0.2486	0.4833	-0.015
Mof_C 	C 	0.3684	0.8131	0.9874	0.172
Mof_C 	C 	0.3352	0.7798	0.98736	0.153
Mof_N 	N 	0.2783	0.7444	0.9919	0.055
Mof_H 	H 	0.3996	0.8049	0.9833	-0.13
Mof_H 	H 	0.3435	0.7486	0.9833	-0.139
Mof_C 	C 	0.8684	0.3131	0.9874	0.17
Mof_C 	C 	0.8352	0.2798	0.98736	0.151
Mof_N 	N 	0.7783	0.2444	0.9919	0.056
Mof_H 	H 	0.8996	0.3049	0.9833	-0.13
Mof_H 	H 	0.8435	0.2486	0.9833	-0.138
Mof_C 	C 	0.8684	0.8131	0.4874	-0.001
Mof_C 	C 	0.8352	0.7798	0.48736	-0.033
Mof_N 	N 	0.7783	0.7444	0.4919	-0.031
Mof_H 	H 	0.8996	0.8049	0.4833	-0.014
Mof_H 	H 	0.8435	0.7486	0.4833	-0.014
Mof_C 	C 	0.6316	0.6869	0.4874	0.001
Mof_C 	C 	0.6648	0.7202	0.48736	-0.033
Mof_N 	N 	0.7217	0.7556	0.4919	-0.03
Mof_H 	H 	0.6004	0.6951	0.4833	-0.014
Mof_H 	H 	0.6565	0.7514	0.4833	-0.014
Mof_C 	C 	0.6316	0.1869	0.9874	0.174
Mof_C 	C 	0.6648	0.2202	0.98736	0.155
Mof_N 	N 	0.7217	0.2556	0.9919	0.057
Mof_H 	H 	0.6004	0.1951	0.9833	-0.132
Mof_H 	H 	0.6565	0.2514	0.9833	-0.14
Mof_C 	C 	0.1316	0.6869	0.9874	0.172
Mof_C 	C 	0.1648	0.7202	0.98736	0.152
Mof_N 	N 	0.2217	0.7556	0.9919	0.057
Mof_H 	H 	0.1004	0.6951	0.9833	-0.134
Mof_H 	H 	0.1565	0.7514	0.9833	-0.14
Mof_C 	C 	0.1316	0.1869	0.4874	0.001
Mof_C 	C 	0.1648	0.2202	0.48736	-0.033
Mof_N 	N 	0.2217	0.2556	0.4919	-0.029
Mof_H 	H 	0.1004	0.1951	0.4833	-0.018
Mof_H 	H 	0.1565	0.2514	0.4833	-0.016
Mof_C 	C 	0.6316	0.3131	0.5126	-0.001
Mof_C 	C 	0.6648	0.2798	0.51264	-0.035
Mof_N 	N 	0.7217	0.2444	0.5081	-0.031
Mof_H 	H 	0.6004	0.3049	0.5167	-0.014
Mof_H 	H 	0.6565	0.2486	0.5167	-0.014
Mof_C 	C 	0.6316	0.8131	0.0126	-0.236
Mof_C 	C 	0.6648	0.7798	0.01264	-0.286
Mof_N 	N 	0.7217	0.7444	0.0081	-0.077
Mof_H 	H 	0.6004	0.8049	0.0167	-0.023
Mof_H 	H 	0.6565	0.7486	0.0167	-0.014
Mof_C 	C 	0.1316	0.3131	0.0126	-0.241
Mof_C 	C 	0.1648	0.2798	0.01264	-0.292
Mof_N 	N 	0.2217	0.2444	0.0081	-0.077
Mof_H 	H 	0.1004	0.3049	0.0167	-0.027
Mof_H 	H 	0.1565	0.2486	0.0167	-0.016
Mof_C 	C 	0.1316	0.8131	0.5126	-0.002
Mof_C 	C 	0.1648	0.7798	0.51264	-0.035
Mof_N 	N 	0.2217	0.7444	0.5081	-0.03
Mof_H 	H 	0.1004	0.8049	0.5167	-0.016
Mof_H 	H 	0.1565	0.7486	0.5167	-0.015
Mof_C 	C 	0.3684	0.6869	0.5126	-0.001
Mof_C 	C 	0.3352	0.7202	0.51264	-0.035
Mof_N 	N 	0.2783	0.7556	0.5081	-0.031
Mof_H 	H 	0.3996	0.6951	0.5167	-0.014
Mof_H 	H 	0.3435	0.7514	0.5167	-0.014
Mof_C 	C 	0.3684	0.1869	0.0126	-0.241
Mof_C 	C 	0.3352	0.2202	0.01264	-0.291
Mof_N 	N 	0.2783	0.2556	0.0081	-0.077
Mof_H 	H 	0.3996	0.1951	0.0167	-0.025
Mof_H 	H 	0.3435	0.2514	0.0167	-0.015
Mof_C 	C 	0.8684	0.6869	0.0126	-0.232
Mof_C 	C 	0.8352	0.7202	0.01264	-0.282
Mof_N 	N 	0.7783	0.7556	0.0081	-0.076
Mof_H 	H 	0.8996	0.6951	0.0167	-0.024
Mof_H 	H 	0.8435	0.7514	0.0167	-0.015
Mof_C 	C 	0.8684	0.1869	0.5126	-0.002
Mof_C 	C 	0.8352	0.2202	0.51264	-0.035
Mof_N 	N 	0.7783	0.2556	0.5081	-0.03
Mof_H 	H 	0.8996	0.1951	0.5167	-0.015
Mof_H 	H 	0.8435	0.2514	0.5167	-0.014
Mof_C 	C 	0.4874	0.3684	0.3131	0.001
Mof_C 	C 	0.48736	0.3352	0.2798	-0.033
Mof_N 	N 	0.4919	0.2783	0.2444	-0.03
Mof_H 	H 	0.4833	0.3996	0.3049	-0.014
Mof_H 	H 	0.4833	0.3435	0.2486	-0.015
Mof_C 	C 	0.4874	0.8684	0.8131	-0.001
Mof_C 	C 	0.48736	0.8352	0.7798	-0.033
Mof_N 	N 	0.4919	0.7783	0.7444	-0.031
Mof_H 	H 	0.4833	0.8996	0.8049	-0.014
Mof_H 	H 	0.4833	0.8435	0.7486	-0.014
Mof_C 	C 	0.9874	0.3684	0.8131	0.172
Mof_C 	C 	0.98736	0.3352	0.7798	0.153
Mof_N 	N 	0.9919	0.2783	0.7444	0.055
Mof_H 	H 	0.9833	0.3996	0.8049	-0.13
Mof_H 	H 	0.9833	0.3435	0.7486	-0.139
Mof_C 	C 	0.9874	0.8684	0.3131	0.17
Mof_C 	C 	0.98736	0.8352	0.2798	0.151
Mof_N 	N 	0.9919	0.7783	0.2444	0.056
Mof_H 	H 	0.9833	0.8996	0.3049	-0.13
Mof_H 	H 	0.9833	0.8435	0.2486	-0.138
Mof_C 	C 	0.4874	0.6316	0.6869	0.001
Mof_C 	C 	0.48736	0.6648	0.7202	-0.033
Mof_N 	N 	0.4919	0.7217	0.7556	-0.03
Mof_H 	H 	0.4833	0.6004	0.6951	-0.014
Mof_H 	H 	0.4833	0.6565	0.7514	-0.014
Mof_C 	C 	0.4874	0.1316	0.1869	0.001
Mof_C 	C 	0.48736	0.1648	0.2202	-0.033
Mof_N 	N 	0.4919	0.2217	0.2556	-0.029
Mof_H 	H 	0.4833	0.1004	0.1951	-0.018
Mof_H 	H 	0.4833	0.1565	0.2514	-0.016
Mof_C 	C 	0.9874	0.6316	0.1869	0.174
Mof_C 	C 	0.98736	0.6648	0.2202	0.155
Mof_N 	N 	0.9919	0.7217	0.2556	0.057
Mof_H 	H 	0.9833	0.6004	0.1951	-0.132
Mof_H 	H 	0.9833	0.6565	0.2514	-0.14
Mof_C 	C 	0.9874	0.1316	0.6869	0.172
Mof_C 	C 	0.98736	0.1648	0.7202	0.152
Mof_N 	N 	0.9919	0.2217	0.7556	0.057
Mof_H 	H 	0.9833	0.1004	0.6951	-0.134
Mof_H 	H 	0.9833	0.1565	0.7514	-0.14
Mof_C 	C 	0.5126	0.6316	0.3131	-0.001
Mof_C 	C 	0.51264	0.6648	0.2798	-0.035
Mof_N 	N 	0.5081	0.7217	0.2444	-0.031
Mof_H 	H 	0.5167	0.6004	0.3049	-0.014
Mof_H 	H 	0.5167	0.6565	0.2486	-0.014
Mof_C 	C 	0.5126	0.1316	0.8131	-0.002
Mof_C 	C 	0.51264	0.1648	0.7798	-0.035
Mof_N 	N 	0.5081	0.2217	0.7444	-0.03
Mof_H 	H 	0.5167	0.1004	0.8049	-0.016
Mof_H 	H 	0.5167	0.1565	0.7486	-0.015
Mof_C 	C 	0.0126	0.6316	0.8131	-0.236
Mof_C 	C 	0.01264	0.6648	0.7798	-0.286
Mof_N 	N 	0.0081	0.7217	0.7444	-0.077
Mof_H 	H 	0.0167	0.6004	0.8049	-0.023
Mof_H 	H 	0.0167	0.6565	0.7486	-0.014
Mof_C 	C 	0.0126	0.1316	0.3131	-0.241
Mof_C 	C 	0.01264	0.1648	0.2798	-0.292
Mof_N 	N 	0.0081	0.2217	0.2444	-0.077
Mof_H 	H 	0.0167	0.1004	0.3049	-0.027
Mof_H 	H 	0.0167	0.1565	0.2486	-0.016
Mof_C 	C 	0.5126	0.3684	0.6869	-0.001
Mof_C 	C 	0.51264	0.3352	0.7202	-0.035
Mof_N 	N 	0.5081	0.2783	0.7556	-0.031
Mof_H 	H 	0.5167	0.3996	0.6951	-0.014
Mof_H 	H 	0.5167	0.3435	0.7514	-0.014
Mof_C 	C 	0.5126	0.8684	0.1869	-0.002
Mof_C 	C 	0.51264	0.8352	0.2202	-0.035
Mof_N 	N 	0.5081	0.7783	0.2556	-0.03
Mof_H 	H 	0.5167	0.8996	0.1951	-0.015
Mof_H 	H 	0.5167	0.8435	0.2514	-0.014
Mof_C 	C 	0.0126	0.3684	0.1869	-0.241
Mof_C 	C 	0.01264	0.3352	0.2202	-0.291
Mof_N 	N 	0.0081	0.2783	0.2556	-0.077
Mof_H 	H 	0.0167	0.3996	0.1951	-0.025
Mof_H 	H 	0.0167	0.3435	0.2514	-0.015
Mof_C 	C 	0.0126	0.8684	0.6869	-0.232
Mof_C 	C 	0.01264	0.8352	0.7202	-0.282
Mof_N 	N 	0.0081	0.7783	0.7556	-0.076
Mof_H 	H 	0.0167	0.8996	0.6951	-0.024
Mof_H 	H 	0.0167	0.8435	0.7514	-0.015
Mof_C 	C 	0.3131	0.4874	0.3684	0.001
Mof_C 	C 	0.2798	0.48736	0.3352	-0.033
Mof_N 	N 	0.2444	0.4919	0.2783	-0.03
Mof_H 	H 	0.3049	0.4833	0.3996	-0.014
Mof_H 	H 	0.2486	0.4833	0.3435	-0.015
Mof_C 	C 	0.3131	0.9874	0.8684	0.17
Mof_C 	C 	0.2798	0.98736	0.8352	0.151
Mof_N 	N 	0.2444	0.9919	0.7783	0.056
Mof_H 	H 	0.3049	0.9833	0.8996	-0.13
Mof_H 	H 	0.2486	0.9833	0.8435	-0.138
Mof_C 	C 	0.8131	0.4874	0.8684	-0.001
Mof_C 	C 	0.7798	0.48736	0.8352	-0.033
Mof_N 	N 	0.7444	0.4919	0.7783	-0.031
Mof_H 	H 	0.8049	0.4833	0.8996	-0.014
Mof_H 	H 	0.7486	0.4833	0.8435	-0.014
Mof_C 	C 	0.8131	0.9874	0.3684	0.172
Mof_C 	C 	0.7798	0.98736	0.3352	0.153
Mof_N 	N 	0.7444	0.9919	0.2783	0.055
Mof_H 	H 	0.8049	0.9833	0.3996	-0.13
Mof_H 	H 	0.7486	0.9833	0.3435	-0.139
Mof_C 	C 	0.6869	0.4874	0.6316	0.001
Mof_C 	C 	0.7202	0.48736	0.6648	-0.033
Mof_N 	N 	0.7556	0.4919	0.7217	-0.03
Mof_H 	H 	0.6951	0.4833	0.6004	-0.014
Mof_H 	H 	0.7514	0.4833	0.6565	-0.014
Mof_C 	C 	0.6869	0.9874	0.1316	0.172
Mof_C 	C 	0.7202	0.98736	0.1648	0.152
Mof_N 	N 	0.7556	0.9919	0.2217	0.057
Mof_H 	H 	0.6951	0.9833	0.1004	-0.134
Mof_H 	H 	0.7514	0.9833	0.1565	-0.14
Mof_C 	C 	0.1869	0.4874	0.1316	0.001
Mof_C 	C 	0.2202	0.48736	0.1648	-0.033
Mof_N 	N 	0.2556	0.4919	0.2217	-0.029
Mof_H 	H 	0.1951	0.4833	0.1004	-0.018
Mof_H 	H 	0.2514	0.4833	0.1565	-0.016
Mof_C 	C 	0.1869	0.9874	0.6316	0.174
Mof_C 	C 	0.2202	0.98736	0.6648	0.155
Mof_N 	N 	0.2556	0.9919	0.7217	0.057
Mof_H 	H 	0.1951	0.9833	0.6004	-0.132
Mof_H 	H 	0.2514	0.9833	0.6565	-0.14
Mof_C 	C 	0.3131	0.5126	0.6316	-0.001
Mof_C 	C 	0.2798	0.51264	0.6648	-0.035
Mof_N 	N 	0.2444	0.5081	0.7217	-0.031
Mof_H 	H 	0.3049	0.5167	0.6004	-0.014
Mof_H 	H 	0.2486	0.5167	0.6565	-0.014
Mof_C 	C 	0.3131	0.0126	0.1316	-0.241
Mof_C 	C 	0.2798	0.01264	0.1648	-0.292
Mof_N 	N 	0.2444	0.0081	0.2217	-0.077
Mof_H 	H 	0.3049	0.0167	0.1004	-0.027
Mof_H 	H 	0.2486	0.0167	0.1565	-0.016
Mof_C 	C 	0.8131	0.5126	0.1316	-0.002
Mof_C 	C 	0.7798	0.51264	0.1648	-0.035
Mof_N 	N 	0.7444	0.5081	0.2217	-0.03
Mof_H 	H 	0.8049	0.5167	0.1004	-0.016
Mof_H 	H 	0.7486	0.5167	0.1565	-0.015
Mof_C 	C 	0.8131	0.0126	0.6316	-0.236
Mof_C 	C 	0.7798	0.01264	0.6648	-0.286
Mof_N 	N 	0.7444	0.0081	0.7217	-0.077
Mof_H 	H 	0.8049	0.0167	0.6004	-0.023
Mof_H 	H 	0.7486	0.0167	0.6565	-0.014
Mof_C 	C 	0.6869	0.5126	0.3684	-0.001
Mof_C 	C 	0.7202	0.51264	0.3352	-0.035
Mof_N 	N 	0.7556	0.5081	0.2783	-0.031
Mof_H 	H 	0.6951	0.5167	0.3996	-0.014
Mof_H 	H 	0.7514	0.5167	0.3435	-0.014
Mof_C 	C 	0.6869	0.0126	0.8684	-0.232
Mof_C 	C 	0.7202	0.01264	0.8352	-0.282
Mof_N 	N 	0.7556	0.0081	0.7783	-0.076
Mof_H 	H 	0.6951	0.0167	0.8996	-0.024
Mof_H 	H 	0.7514	0.0167	0.8435	-0.015
Mof_C 	C 	0.1869	0.5126	0.8684	-0.002
Mof_C 	C 	0.2202	0.51264	0.8352	-0.035
Mof_N 	N 	0.2556	0.5081	0.7783	-0.03
Mof_H 	H 	0.1951	0.5167	0.8996	-0.015
Mof_H 	H 	0.2514	0.5167	0.8435	-0.014
Mof_C 	C 	0.1869	0.0126	0.3684	-0.241
Mof_C 	C 	0.2202	0.01264	0.3352	-0.291
Mof_N 	N 	0.2556	0.0081	0.2783	-0.077
Mof_H 	H 	0.1951	0.0167	0.3996	-0.025
Mof_H 	H 	0.2514	0.0167	0.3435	-0.015
Mof_C 	C 	0.3131	0.3684	0.5126	-0.001
Mof_C 	C 	0.2798	0.3352	0.51264	-0.035
Mof_N 	N 	0.2444	0.2783	0.5081	-0.031
Mof_H 	H 	0.3049	0.3996	0.5167	-0.014
Mof_H 	H 	0.2486	0.3435	0.5167	-0.014
Mof_C 	C 	0.3131	0.8684	0.0126	-0.236
Mof_C 	C 	0.2798	0.8352	0.01264	-0.285
Mof_N 	N 	0.2444	0.7783	0.0081	-0.077
Mof_H 	H 	0.3049	0.8996	0.0167	-0.024
Mof_H 	H 	0.2486	0.8435	0.0167	-0.015
Mof_C 	C 	0.8131	0.3684	0.0126	-0.237
Mof_C 	C 	0.7798	0.3352	0.01264	-0.287
Mof_N 	N 	0.7444	0.2783	0.0081	-0.078
Mof_H 	H 	0.8049	0.3996	0.0167	-0.023
Mof_H 	H 	0.7486	0.3435	0.0167	-0.014
Mof_C 	C 	0.8131	0.8684	0.5126	-0.003
Mof_C 	C 	0.7798	0.8352	0.51264	-0.034
Mof_N 	N 	0.7444	0.7783	0.5081	-0.031
Mof_H 	H 	0.8049	0.8996	0.5167	-0.014
Mof_H 	H 	0.7486	0.8435	0.5167	-0.013
Mof_C 	C 	0.6869	0.6316	0.5126	-0.001
Mof_C 	C 	0.7202	0.6648	0.51264	-0.035
Mof_N 	N 	0.7556	0.7217	0.5081	-0.031
Mof_H 	H 	0.6951	0.6004	0.5167	-0.014
Mof_H 	H 	0.7514	0.6565	0.5167	-0.014
Mof_C 	C 	0.6869	0.1316	0.0126	-0.237
Mof_C 	C 	0.7202	0.1648	0.01264	-0.288
Mof_N 	N 	0.7556	0.2217	0.0081	-0.076
Mof_H 	H 	0.6951	0.1004	0.0167	-0.027
Mof_H 	H 	0.7514	0.1565	0.0167	-0.016
Mof_C 	C 	0.1869	0.6316	0.0126	-0.239
Mof_C 	C 	0.2202	0.6648	0.01264	-0.29
Mof_N 	N 	0.2556	0.7217	0.0081	-0.077
Mof_H 	H 	0.1951	0.6004	0.0167	-0.025
Mof_H 	H 	0.2514	0.6565	0.0167	-0.014
Mof_C 	C 	0.1869	0.1316	0.5126	-0.002
Mof_C 	C 	0.2202	0.1648	0.51264	-0.035
Mof_N 	N 	0.2556	0.2217	0.5081	-0.029
Mof_H 	H 	0.1951	0.1004	0.5167	-0.017
Mof_H 	H 	0.2514	0.1565	0.5167	-0.016
Mof_C 	C 	0.3131	0.6316	0.4874	0.001
Mof_C 	C 	0.2798	0.6648	0.48736	-0.033
Mof_N 	N 	0.2444	0.7217	0.4919	-0.03
Mof_H 	H 	0.3049	0.6004	0.4833	-0.014
Mof_H 	H 	0.2486	0.6565	0.4833	-0.014
Mof_C 	C 	0.3131	0.1316	0.9874	0.175
Mof_C 	C 	0.2798	0.1648	0.98736	0.155
Mof_N 	N 	0.2444	0.2217	0.9919	0.058
Mof_H 	H 	0.3049	0.1004	0.9833	-0.135
Mof_H 	H 	0.2486	0.1565	0.9833	-0.143
Mof_C 	C 	0.8131	0.6316	0.9874	0.172
Mof_C 	C 	0.7798	0.6648	0.98736	0.152
Mof_N 	N 	0.7444	0.7217	0.9919	0.054
Mof_H 	H 	0.8049	0.6004	0.9833	-0.129
Mof_H 	H 	0.7486	0.6565	0.9833	-0.137
Mof_C 	C 	0.8131	0.1316	0.4874	0
Mof_C 	C 	0.7798	0.1648	0.48736	-0.033
Mof_N 	N 	0.7444	0.2217	0.4919	-0.03
Mof_H 	H 	0.8049	0.1004	0.4833	-0.017
Mof_H 	H 	0.7486	0.1565	0.4833	-0.015
Mof_C 	C 	0.6869	0.3684	0.4874	0.001
Mof_C 	C 	0.7202	0.3352	0.48736	-0.033
Mof_N 	N 	0.7556	0.2783	0.4919	-0.03
Mof_H 	H 	0.6951	0.3996	0.4833	-0.014
Mof_H 	H 	0.7514	0.3435	0.4833	-0.014
Mof_C 	C 	0.6869	0.8684	0.9874	0.167
Mof_C 	C 	0.7202	0.8352	0.98736	0.148
Mof_N 	N 	0.7556	0.7783	0.9919	0.054
Mof_H 	H 	0.6951	0.8996	0.9833	-0.128
Mof_H 	H 	0.7514	0.8435	0.9833	-0.136
Mof_C 	C 	0.1869	0.3684	0.9874	0.175
Mof_C 	C 	0.2202	0.3352	0.98736	0.155
Mof_N 	N 	0.2556	0.2783	0.9919	0.058
Mof_H 	H 	0.1951	0.3996	0.9833	-0.133
Mof_H 	H 	0.2514	0.3435	0.9833	-0.141
Mof_C 	C 	0.1869	0.8684	0.4874	-0
Mof_C 	C 	0.2202	0.8352	0.48736	-0.033
Mof_N 	N 	0.2556	0.7783	0.4919	-0.03
Mof_H 	H 	0.1951	0.8996	0.4833	-0.015
Mof_H 	H 	0.2514	0.8435	0.4833	-0.015
Mof_C 	C 	0.3684	0.4874	0.6869	0.001
Mof_C 	C 	0.3352	0.48736	0.7202	-0.033
Mof_N 	N 	0.2783	0.4919	0.7556	-0.03
Mof_H 	H 	0.3996	0.4833	0.6951	-0.014
Mof_H 	H 	0.3435	0.4833	0.7514	-0.014
Mof_C 	C 	0.3684	0.9874	0.1869	0.175
Mof_C 	C 	0.3352	0.98736	0.2202	0.155
Mof_N 	N 	0.2783	0.9919	0.2556	0.058
Mof_H 	H 	0.3996	0.9833	0.1951	-0.133
Mof_H 	H 	0.3435	0.9833	0.2514	-0.141
Mof_C 	C 	0.8684	0.4874	0.1869	-0
Mof_C 	C 	0.8352	0.48736	0.2202	-0.033
Mof_N 	N 	0.7783	0.4919	0.2556	-0.03
Mof_H 	H 	0.8996	0.4833	0.1951	-0.015
Mof_H 	H 	0.8435	0.4833	0.2514	-0.015
Mof_C 	C 	0.8684	0.9874	0.6869	0.167
Mof_C 	C 	0.8352	0.98736	0.7202	0.148
Mof_N 	N 	0.7783	0.9919	0.7556	0.054
Mof_H 	H 	0.8996	0.9833	0.6951	-0.128
Mof_H 	H 	0.8435	0.9833	0.7514	-0.136
Mof_C 	C 	0.6316	0.4874	0.3131	0.001
Mof_C 	C 	0.6648	0.48736	0.2798	-0.033
Mof_N 	N 	0.7217	0.4919	0.2444	-0.03
Mof_H 	H 	0.6004	0.4833	0.3049	-0.014
Mof_H 	H 	0.6565	0.4833	0.2486	-0.014
Mof_C 	C 	0.6316	0.9874	0.8131	0.172
Mof_C 	C 	0.6648	0.98736	0.7798	0.152
Mof_N 	N 	0.7217	0.9919	0.7444	0.054
Mof_H 	H 	0.6004	0.9833	0.8049	-0.129
Mof_H 	H 	0.6565	0.9833	0.7486	-0.137
Mof_C 	C 	0.1316	0.4874	0.8131	0
Mof_C 	C 	0.1648	0.48736	0.7798	-0.033
Mof_N 	N 	0.2217	0.4919	0.7444	-0.03
Mof_H 	H 	0.1004	0.4833	0.8049	-0.017
Mof_H 	H 	0.1565	0.4833	0.7486	-0.015
Mof_C 	C 	0.1316	0.9874	0.3131	0.175
Mof_C 	C 	0.1648	0.98736	0.2798	0.155
Mof_N 	N 	0.2217	0.9919	0.2444	0.058
Mof_H 	H 	0.1004	0.9833	0.3049	-0.135
Mof_H 	H 	0.1565	0.9833	0.2486	-0.143
Mof_C 	C 	0.6316	0.5126	0.6869	-0.001
Mof_C 	C 	0.6648	0.51264	0.7202	-0.035
Mof_N 	N 	0.7217	0.5081	0.7556	-0.031
Mof_H 	H 	0.6004	0.5167	0.6951	-0.014
Mof_H 	H 	0.6565	0.5167	0.7514	-0.014
Mof_C 	C 	0.6316	0.0126	0.1869	-0.239
Mof_C 	C 	0.6648	0.01264	0.2202	-0.29
Mof_N 	N 	0.7217	0.0081	0.2556	-0.077
Mof_H 	H 	0.6004	0.0167	0.1951	-0.025
Mof_H 	H 	0.6565	0.0167	0.2514	-0.014
Mof_C 	C 	0.1316	0.5126	0.1869	-0.002
Mof_C 	C 	0.1648	0.51264	0.2202	-0.035
Mof_N 	N 	0.2217	0.5081	0.2556	-0.029
Mof_H 	H 	0.1004	0.5167	0.1951	-0.017
Mof_H 	H 	0.1565	0.5167	0.2514	-0.016
Mof_C 	C 	0.1316	0.0126	0.6869	-0.237
Mof_C 	C 	0.1648	0.01264	0.7202	-0.288
Mof_N 	N 	0.2217	0.0081	0.7556	-0.076
Mof_H 	H 	0.1004	0.0167	0.6951	-0.027
Mof_H 	H 	0.1565	0.0167	0.7514	-0.016
Mof_C 	C 	0.3684	0.5126	0.3131	-0.001
Mof_C 	C 	0.3352	0.51264	0.2798	-0.035
Mof_N 	N 	0.2783	0.5081	0.2444	-0.031
Mof_H 	H 	0.3996	0.5167	0.3049	-0.014
Mof_H 	H 	0.3435	0.5167	0.2486	-0.014
Mof_C 	C 	0.3684	0.0126	0.8131	-0.237
Mof_C 	C 	0.3352	0.01264	0.7798	-0.287
Mof_N 	N 	0.2783	0.0081	0.7444	-0.078
Mof_H 	H 	0.3996	0.0167	0.8049	-0.023
Mof_H 	H 	0.3435	0.0167	0.7486	-0.014
Mof_C 	C 	0.8684	0.5126	0.8131	-0.003
Mof_C 	C 	0.8352	0.51264	0.7798	-0.034
Mof_N 	N 	0.7783	0.5081	0.7444	-0.031
Mof_H 	H 	0.8996	0.5167	0.8049	-0.014
Mof_H 	H 	0.8435	0.5167	0.7486	-0.013
Mof_C 	C 	0.8684	0.0126	0.3131	-0.236
Mof_C 	C 	0.8352	0.01264	0.2798	-0.285
Mof_N 	N 	0.7783	0.0081	0.2444	-0.077
Mof_H 	H 	0.8996	0.0167	0.3049	-0.024
Mof_H 	H 	0.8435	0.0167	0.2486	-0.015
Mof_C 	C 	0.4874	0.3131	0.6316	0.001
Mof_C 	C 	0.48736	0.2798	0.6648	-0.033
Mof_N 	N 	0.4919	0.2444	0.7217	-0.03
Mof_H 	H 	0.4833	0.3049	0.6004	-0.014
Mof_H 	H 	0.4833	0.2486	0.6565	-0.014
Mof_C 	C 	0.4874	0.8131	0.1316	0
Mof_C 	C 	0.48736	0.7798	0.1648	-0.033
Mof_N 	N 	0.4919	0.7444	0.2217	-0.03
Mof_H 	H 	0.4833	0.8049	0.1004	-0.017
Mof_H 	H 	0.4833	0.7486	0.1565	-0.015
Mof_C 	C 	0.9874	0.3131	0.1316	0.175
Mof_C 	C 	0.98736	0.2798	0.1648	0.155
Mof_N 	N 	0.9919	0.2444	0.2217	0.058
Mof_H 	H 	0.9833	0.3049	0.1004	-0.135
Mof_H 	H 	0.9833	0.2486	0.1565	-0.143
Mof_C 	C 	0.9874	0.8131	0.6316	0.172
Mof_C 	C 	0.98736	0.7798	0.6648	0.152
Mof_N 	N 	0.9919	0.7444	0.7217	0.054
Mof_H 	H 	0.9833	0.8049	0.6004	-0.129
Mof_H 	H 	0.9833	0.7486	0.6565	-0.137
Mof_C 	C 	0.4874	0.6869	0.3684	0.001
Mof_C 	C 	0.48736	0.7202	0.3352	-0.033
Mof_N 	N 	0.4919	0.7556	0.2783	-0.03
Mof_H 	H 	0.4833	0.6951	0.3996	-0.014
Mof_H 	H 	0.4833	0.7514	0.3435	-0.014
Mof_C 	C 	0.4874	0.1869	0.8684	-0
Mof_C 	C 	0.48736	0.2202	0.8352	-0.033
Mof_N 	N 	0.4919	0.2556	0.7783	-0.03
Mof_H 	H 	0.4833	0.1951	0.8996	-0.015
Mof_H 	H 	0.4833	0.2514	0.8435	-0.015
Mof_C 	C 	0.9874	0.6869	0.8684	0.167
Mof_C 	C 	0.98736	0.7202	0.8352	0.148
Mof_N 	N 	0.9919	0.7556	0.7783	0.054
Mof_H 	H 	0.9833	0.6951	0.8996	-0.128
Mof_H 	H 	0.9833	0.7514	0.8435	-0.136
Mof_C 	C 	0.9874	0.1869	0.3684	0.175
Mof_C 	C 	0.98736	0.2202	0.3352	0.155
Mof_N 	N 	0.9919	0.2556	0.2783	0.058
Mof_H 	H 	0.9833	0.1951	0.3996	-0.133
Mof_H 	H 	0.9833	0.2514	0.3435	-0.141
Mof_C 	C 	0.5126	0.3131	0.3684	-0.001
Mof_C 	C 	0.51264	0.2798	0.3352	-0.035
Mof_N 	N 	0.5081	0.2444	0.2783	-0.031
Mof_H 	H 	0.5167	0.3049	0.3996	-0.014
Mof_H 	H 	0.5167	0.2486	0.3435	-0.014
Mof_C 	C 	0.5126	0.8131	0.8684	-0.003
Mof_C 	C 	0.51264	0.7798	0.8352	-0.034
Mof_N 	N 	0.5081	0.7444	0.7783	-0.031
Mof_H 	H 	0.5167	0.8049	0.8996	-0.014
Mof_H 	H 	0.5167	0.7486	0.8435	-0.013
Mof_C 	C 	0.0126	0.3131	0.8684	-0.236
Mof_C 	C 	0.01264	0.2798	0.8352	-0.285
Mof_N 	N 	0.0081	0.2444	0.7783	-0.077
Mof_H 	H 	0.0167	0.3049	0.8996	-0.024
Mof_H 	H 	0.0167	0.2486	0.8435	-0.015
Mof_C 	C 	0.0126	0.8131	0.3684	-0.237
Mof_C 	C 	0.01264	0.7798	0.3352	-0.287
Mof_N 	N 	0.0081	0.7444	0.2783	-0.078
Mof_H 	H 	0.0167	0.8049	0.3996	-0.023
Mof_H 	H 	0.0167	0.7486	0.3435	-0.014
Mof_C 	C 	0.5126	0.6869	0.6316	-0.001
Mof_C 	C 	0.51264	0.7202	0.6648	-0.035
Mof_N 	N 	0.5081	0.7556	0.7217	-0.031
Mof_H 	H 	0.5167	0.6951	0.6004	-0.014
Mof_H 	H 	0.5167	0.7514	0.6565	-0.014
Mof_C 	C 	0.5126	0.1869	0.1316	-0.002
Mof_C 	C 	0.51264	0.2202	0.1648	-0.035
Mof_N 	N 	0.5081	0.2556	0.2217	-0.029
Mof_H 	H 	0.5167	0.1951	0.1004	-0.017
Mof_H 	H 	0.5167	0.2514	0.1565	-0.016
Mof_C 	C 	0.0126	0.6869	0.1316	-0.237
Mof_C 	C 	0.01264	0.7202	0.1648	-0.288
Mof_N 	N 	0.0081	0.7556	0.2217	-0.076
Mof_H 	H 	0.0167	0.6951	0.1004	-0.027
Mof_H 	H 	0.0167	0.7514	0.1565	-0.016
Mof_C 	C 	0.0126	0.1869	0.6316	-0.239
Mof_C 	C 	0.01264	0.2202	0.6648	-0.29
Mof_N 	N 	0.0081	0.2556	0.7217	-0.077
Mof_H 	H 	0.0167	0.1951	0.6004	-0.025
Mof_H 	H 	0.0167	0.2514	0.6565	-0.014
Mof_Hf	Hf	0.58378	0.5	0.5	1.568
Mof_Hf	Hf	0.58378	0	-0	1.476
Mof_Hf	Hf	0.08378	0.5	-0	1.52
Mof_Hf	Hf	0.08378	0	0.5	1.52
Mof_Hf	Hf	0.41622	0.5	0.5	1.568
Mof_Hf	Hf	0.41622	0	-0	1.476
Mof_Hf	Hf	0.91622	0.5	-0	1.516
Mof_Hf	Hf	0.91622	0	0.5	1.516
Mof_Hf	Hf	0.5	0.58378	0.5	1.568
Mof_Hf	Hf	0.5	0.08378	-0	1.52
Mof_Hf	Hf	4.05083e-33	0.58378	-0	1.476
Mof_Hf	Hf	-2.17613e-33	0.08378	0.5	1.52
Mof_Hf	Hf	0.5	0.41622	0.5	1.568
Mof_Hf	Hf	0.5	0.91622	-0	1.516
Mof_Hf	Hf	-0	0.41622	-0	1.476
Mof_Hf	Hf	-2.17613e-33	0.91622	0.5	1.516
Mof_Hf	Hf	0.5	0.5	0.58378	1.568
Mof_Hf	Hf	0.5	1.01271e-33	0.08378	1.52
Mof_Hf	Hf	-6.98584e-34	0.5	0.08378	1.52
Mof_Hf	Hf	2.18882e-33	4.05083e-33	0.58378	1.476
Mof_Hf	Hf	0.5	0.5	0.41622	1.568
Mof_Hf	Hf	0.5	0	0.91622	1.516
Mof_Hf	Hf	-4.66639e-33	0.5	0.91622	1.516
Mof_Hf	Hf	1.56058e-33	4.05083e-33	0.41622	1.476
Mof_O 	O 	0.5412	0.4588	0.4588	-0.859
Mof_H 	H 	0.5574	0.4426	0.4426	0.375
Mof_O 	O 	0.5412	0.9588	0.9588	-0.801
Mof_H 	H 	0.5574	0.9426	0.9426	0.369
Mof_O 	O 	0.0412	0.4588	0.9588	-0.825
Mof_H 	H 	0.0574	0.4426	0.9426	0.374
Mof_O 	O 	0.0412	0.9588	0.4588	-0.825
Mof_H 	H 	0.0574	0.9426	0.4426	0.374
Mof_O 	O 	0.4588	0.5412	0.4588	-0.859
Mof_H 	H 	0.4426	0.5574	0.4426	0.375
Mof_O 	O 	0.4588	0.0412	0.9588	-0.825
Mof_H 	H 	0.4426	0.0574	0.9426	0.374
Mof_O 	O 	0.9588	0.5412	0.9588	-0.801
Mof_H 	H 	0.9426	0.5574	0.9426	0.369
Mof_O 	O 	0.9588	0.0412	0.4588	-0.825
Mof_H 	H 	0.9426	0.0574	0.4426	0.374
Mof_O 	O 	0.4588	0.4588	0.5412	-0.859
Mof_H 	H 	0.4426	0.4426	0.5574	0.375
Mof_O 	O 	0.4588	0.9588	0.0412	-0.825
Mof_H 	H 	0.4426	0.9426	0.0574	0.374
Mof_O 	O 	0.9588	0.4588	0.0412	-0.825
Mof_H 	H 	0.9426	0.4426	0.0574	0.374
Mof_O 	O 	0.9588	0.9588	0.5412	-0.801
Mof_H 	H 	0.9426	0.9426	0.5574	0.369
Mof_O 	O 	0.5412	0.5412	0.5412	-0.859
Mof_H 	H 	0.5574	0.5574	0.5574	0.375
Mof_O 	O 	0.5412	0.0412	0.0412	-0.851
Mof_H 	H 	0.5574	0.0574	0.0574	0.38
Mof_O 	O 	0.0412	0.5412	0.0412	-0.851
Mof_H 	H 	0.0574	0.5574	0.0574	0.38
Mof_O 	O 	0.0412	0.0412	0.5412	-0.851
Mof_H 	H 	0.0574	0.0574	0.5574	0.38
Mof_O 	O 	0.4588	0.5412	0.5412	-0.859
Mof_H 	H 	0.4426	0.5574	0.5574	0.375
Mof_O 	O 	0.4588	0.0412	0.0412	-0.851
Mof_H 	H 	0.4426	0.0574	0.0574	0.38
Mof_O 	O 	0.9588	0.5412	0.0412	-0.826
Mof_H 	H 	0.9426	0.5574	0.0574	0.374
Mof_O 	O 	0.9588	0.0412	0.5412	-0.826
Mof_H 	H 	0.9426	0.0574	0.5574	0.374
Mof_O 	O 	0.5412	0.4588	0.5412	-0.859
Mof_H 	H 	0.5574	0.4426	0.5574	0.375
Mof_O 	O 	0.5412	0.9588	0.0412	-0.826
Mof_H 	H 	0.5574	0.9426	0.0574	0.374
Mof_O 	O 	0.0412	0.4588	0.0412	-0.851
Mof_H 	H 	0.0574	0.4426	0.0574	0.38
Mof_O 	O 	0.0412	0.9588	0.5412	-0.826
Mof_H 	H 	0.0574	0.9426	0.5574	0.374
Mof_O 	O 	0.4588	0.4588	0.4588	-0.859
Mof_H 	H 	0.4426	0.4426	0.4426	0.375
Mof_O 	O 	0.4588	0.9588	0.9588	-0.801
Mof_H 	H 	0.4426	0.9426	0.9426	0.369
Mof_O 	O 	0.9588	0.4588	0.9588	-0.801
Mof_H 	H 	0.9426	0.4426	0.9426	0.369
Mof_O 	O 	0.9588	0.9588	0.4588	-0.801
Mof_H 	H 	0.9426	0.9426	0.4426	0.369
Mof_O 	O 	0.5412	0.5412	0.4588	-0.859
Mof_H 	H 	0.5574	0.5574	0.4426	0.375
Mof_O 	O 	0.5412	0.0412	0.9588	-0.826
Mof_H 	H 	0.5574	0.0574	0.9426	0.374
Mof_O 	O 	0.0412	0.5412	0.9588	-0.826
Mof_H 	H 	0.0574	0.5574	0.9426	0.374
Mof_O 	O 	0.0412	0.0412	0.4588	-0.851
Mof_H 	H 	0.0574	0.0574	0.4426	0.38
Mof_O 	O 	0.6212	0.5651	0.5	-0.404
Mof_C 	C 	0.6301	0.6883	0.5	0.025
Mof_C 	C 	0.6634	0.7217	0.5	-0.018
Mof_H 	H 	0.5987	0.6966	0.5	0.068
Mof_H 	H 	0.6551	0.7531	0.5	0.098
Mof_O 	O 	0.6212	0.0651	-0	-0.402
Mof_C 	C 	0.6301	0.1883	-0	0.114
Mof_C 	C 	0.6634	0.2217	-0	0.068
Mof_H 	H 	0.5987	0.1966	-0	0.169
Mof_H 	H 	0.6551	0.2531	-0	0.194
Mof_O 	O 	0.1212	0.5651	-0	-0.407
Mof_C 	C 	0.1301	0.6883	-0	0.115
Mof_C 	C 	0.1634	0.7217	-0	0.069
Mof_H 	H 	0.0987	0.6966	-0	0.174
Mof_H 	H 	0.1551	0.7531	-0	0.198
Mof_O 	O 	0.1212	0.0651	0.5	-0.395
Mof_C 	C 	0.1301	0.1883	0.5	0.03
Mof_C 	C 	0.1634	0.2217	0.5	-0.014
Mof_H 	H 	0.0987	0.1966	0.5	0.078
Mof_H 	H 	0.1551	0.2531	0.5	0.103
Mof_O 	O 	0.3788	0.4349	0.5	-0.404
Mof_C 	C 	0.3699	0.3117	0.5	0.025
Mof_C 	C 	0.3366	0.2783	0.5	-0.017
Mof_H 	H 	0.4013	0.3034	0.5	0.069
Mof_H 	H 	0.3449	0.2469	0.5	0.099
Mof_O 	O 	0.3788	0.9349	-0	-0.389
Mof_C 	C 	0.3699	0.8117	-0	0.11
Mof_C 	C 	0.3366	0.7783	-0	0.066
Mof_H 	H 	0.4013	0.8034	-0	0.166
Mof_H 	H 	0.3449	0.7469	-0	0.192
Mof_O 	O 	0.8788	0.4349	-0	-0.406
Mof_C 	C 	0.8699	0.3117	-0	0.111
Mof_C 	C 	0.8366	0.2783	-0	0.067
Mof_H 	H 	0.9013	0.3034	-0	0.172
Mof_H 	H 	0.8449	0.2469	-0	0.195
Mof_O 	O 	0.8788	0.9349	0.5	-0.382
Mof_C 	C 	0.8699	0.8117	0.5	0.024
Mof_C 	C 	0.8366	0.7783	0.5	-0.017
Mof_H 	H 	0.9013	0.8034	0.5	0.074
Mof_H 	H 	0.8449	0.7469	0.5	0.098
Mof_O 	O 	0.3788	0.5651	0.5	-0.404
Mof_C 	C 	0.3699	0.6883	0.5	0.025
Mof_C 	C 	0.3366	0.7217	0.5	-0.017
Mof_H 	H 	0.4013	0.6966	0.5	0.069
Mof_H 	H 	0.3449	0.7531	0.5	0.099
Mof_O 	O 	0.3788	0.0651	-0	-0.402
Mof_C 	C 	0.3699	0.1883	-0	0.115
Mof_C 	C 	0.3366	0.2217	-0	0.069
Mof_H 	H 	0.4013	0.1966	-0	0.17
Mof_H 	H 	0.3449	0.2531	-0	0.196
Mof_O 	O 	0.8788	0.5651	-0	-0.406
Mof_C 	C 	0.8699	0.6883	-0	0.11
Mof_C 	C 	0.8366	0.7217	-0	0.066
Mof_H 	H 	0.9013	0.6966	-0	0.171
Mof_H 	H 	0.8449	0.7531	-0	0.194
Mof_O 	O 	0.8788	0.0651	0.5	-0.395
Mof_C 	C 	0.8699	0.1883	0.5	0.027
Mof_C 	C 	0.8366	0.2217	0.5	-0.016
Mof_H 	H 	0.9013	0.1966	0.5	0.077
Mof_H 	H 	0.8449	0.2531	0.5	0.101
Mof_O 	O 	0.6212	0.4349	0.5	-0.404
Mof_C 	C 	0.6301	0.3117	0.5	0.025
Mof_C 	C 	0.6634	0.2783	0.5	-0.018
Mof_H 	H 	0.5987	0.3034	0.5	0.068
Mof_H 	H 	0.6551	0.2469	0.5	0.098
Mof_O 	O 	0.6212	0.9349	-0	-0.389
Mof_C 	C 	0.6301	0.8117	-0	0.109
Mof_C 	C 	0.6634	0.7783	-0	0.065
Mof_H 	H 	0.5987	0.8034	-0	0.165
Mof_H 	H 	0.6551	0.7469	-0	0.19
Mof_O 	O 	0.1212	0.4349	-0	-0.407
Mof_C 	C 	0.1301	0.3117	-0	0.117
Mof_C 	C 	0.1634	0.2783	-0	0.071
Mof_H 	H 	0.0987	0.3034	-0	0.175
Mof_H 	H 	0.1551	0.2469	-0	0.199
Mof_O 	O 	0.1212	0.9349	0.5	-0.382
Mof_C 	C 	0.1301	0.8117	0.5	0.027
Mof_C 	C 	0.1634	0.7783	0.5	-0.016
Mof_H 	H 	0.0987	0.8034	0.5	0.075
Mof_H 	H 	0.1551	0.7469	0.5	0.1
Mof_O 	O 	0.5	0.6212	0.5651	-0.404
Mof_C 	C 	0.5	0.6301	0.6883	0.025
Mof_C 	C 	0.5	0.6634	0.7217	-0.018
Mof_H 	H 	0.5	0.5987	0.6966	0.068
Mof_H 	H 	0.5	0.6551	0.7531	0.098
Mof_O 	O 	0.5	0.1212	0.0651	-0.395
Mof_C 	C 	0.5	0.1301	0.1883	0.03
Mof_C 	C 	0.5	0.1634	0.2217	-0.014
Mof_H 	H 	0.5	0.0987	0.1966	0.078
Mof_H 	H 	0.5	0.1551	0.2531	0.103
Mof_O 	O 	9.86481e-33	0.6212	0.0651	-0.402
Mof_C 	C 	7.06012e-34	0.6301	0.1883	0.114
Mof_C 	C 	-3.21959e-33	0.6634	0.2217	0.068
Mof_H 	H 	7.37132e-34	0.5987	0.1966	0.169
Mof_H 	H 	-3.10186e-33	0.6551	0.2531	0.194
Mof_O 	O 	6.16962e-33	0.1212	0.5651	-0.407
Mof_C 	C 	2.58071e-33	0.1301	0.6883	0.115
Mof_C 	C 	-5.39572e-33	0.1634	0.7217	0.069
Mof_H 	H 	2.61183e-33	0.0987	0.6966	0.174
Mof_H 	H 	-5.27799e-33	0.1551	0.7531	0.198
Mof_O 	O 	0.5	0.3788	0.4349	-0.404
Mof_C 	C 	0.5	0.3699	0.3117	0.025
Mof_C 	C 	0.5	0.3366	0.2783	-0.017
Mof_H 	H 	0.5	0.4013	0.3034	0.069
Mof_H 	H 	0.5	0.3449	0.2469	0.099
Mof_O 	O 	0.5	0.8788	0.9349	-0.382
Mof_C 	C 	0.5	0.8699	0.8117	0.024
Mof_C 	C 	0.5	0.8366	0.7783	-0.017
Mof_H 	H 	0.5	0.9013	0.8034	0.074
Mof_H 	H 	0.5	0.8449	0.7469	0.098
Mof_O 	O 	-4.59635e-33	0.3788	0.9349	-0.389
Mof_C 	C 	-5.05828e-33	0.3699	0.8117	0.11
Mof_C 	C 	-5.18351e-33	0.3366	0.7783	0.066
Mof_H 	H 	-5.0894e-33	0.4013	0.8034	0.166
Mof_H 	H 	2.80043e-33	0.3449	0.7469	0.192
Mof_O 	O 	-2.42022e-33	0.8788	0.4349	-0.406
Mof_C 	C 	1.16869e-33	0.8699	0.3117	0.111
Mof_C 	C 	-5.03279e-33	0.8366	0.2783	0.067
Mof_H 	H 	5.1884e-33	0.9013	0.3034	0.172
Mof_H 	H 	-7.17594e-33	0.8449	0.2469	0.195
Mof_O 	O 	0.5	0.3788	0.5651	-0.404
Mof_C 	C 	0.5	0.3699	0.6883	0.025
Mof_C 	C 	0.5	0.3366	0.7217	-0.017
Mof_H 	H 	0.5	0.4013	0.6966	0.069
Mof_H 	H 	0.5	0.3449	0.7531	0.099
Mof_O 	O 	0.5	0.8788	0.0651	-0.395
Mof_C 	C 	0.5	0.8699	0.1883	0.027
Mof_C 	C 	0.5	0.8366	0.2217	-0.016
Mof_H 	H 	0.5	0.9013	0.1966	0.077
Mof_H 	H 	0.5	0.8449	0.2531	0.101
Mof_O 	O 	1.76315e-33	0.3788	0.0651	-0.402
Mof_C 	C 	7.06012e-34	0.3699	0.1883	0.115
Mof_C 	C 	-3.21959e-33	0.3366	0.2217	0.069
Mof_H 	H 	-3.3137e-33	0.4013	0.1966	0.17
Mof_H 	H 	4.99981e-33	0.3449	0.2531	0.196
Mof_O 	O 	-1.93205e-33	0.8788	0.5651	-0.406
Mof_C 	C 	2.58071e-33	0.8699	0.6883	0.11
Mof_C 	C 	1.89093e-32	0.8366	0.7217	0.066
Mof_H 	H 	1.07135e-32	0.9013	0.6966	0.171
Mof_H 	H 	1.09253e-32	0.8449	0.7531	0.194
Mof_O 	O 	0.5	0.6212	0.4349	-0.404
Mof_C 	C 	0.5	0.6301	0.3117	0.025
Mof_C 	C 	0.5	0.6634	0.2783	-0.018
Mof_H 	H 	0.5	0.5987	0.3034	0.068
Mof_H 	H 	0.5	0.6551	0.2469	0.098
Mof_O 	O 	0.5	0.1212	0.9349	-0.382
Mof_C 	C 	0.5	0.1301	0.8117	0.027
Mof_C 	C 	0.5	0.1634	0.7783	-0.016
Mof_H 	H 	0.5	0.0987	0.8034	0.075
Mof_H 	H 	0.5	0.1551	0.7469	0.1
Mof_O 	O 	3.50531e-33	0.6212	0.9349	-0.389
Mof_C 	C 	-5.05828e-33	0.6301	0.8117	0.109
Mof_C 	C 	1.10198e-32	0.6634	0.7783	0.065
Mof_H 	H 	3.01227e-33	0.5987	0.8034	0.165
Mof_H 	H 	2.80043e-33	0.6551	0.7469	0.19
Mof_O 	O 	-2.42022e-33	0.1212	0.4349	-0.407
Mof_C 	C 	1.16869e-33	0.1301	0.3117	0.117
Mof_C 	C 	-9.81959e-34	0.1634	0.2783	0.071
Mof_H 	H 	-2.91327e-33	0.0987	0.3034	0.175
Mof_H 	H 	-1.09969e-33	0.1551	0.2469	0.199
Mof_O 	O 	0.5651	0.5	0.6212	-0.404
Mof_C 	C 	0.6883	0.5	0.6301	0.025
Mof_C 	C 	0.7217	0.5	0.6634	-0.018
Mof_H 	H 	0.6966	0.5	0.5987	0.068
Mof_H 	H 	0.7531	0.5	0.6551	0.098
Mof_O 	O 	0.5651	-1.01271e-33	0.1212	-0.407
Mof_C 	C 	0.6883	0	0.1301	0.115
Mof_C 	C 	0.7217	0	0.1634	0.069
Mof_H 	H 	0.6966	0	0.0987	0.174
Mof_H 	H 	0.7531	2.02542e-33	0.1551	0.198
Mof_O 	O 	0.0651	0.5	0.1212	-0.395
Mof_C 	C 	0.1883	0.5	0.1301	0.03
Mof_C 	C 	0.2217	0.5	0.1634	-0.014
Mof_H 	H 	0.1966	0.5	0.0987	0.078
Mof_H 	H 	0.2531	0.5	0.1551	0.103
Mof_O 	O 	0.0651	8.10167e-33	0.6212	-0.402
Mof_C 	C 	0.1883	0	0.6301	0.114
Mof_C 	C 	0.2217	0	0.6634	0.068
Mof_H 	H 	0.1966	0	0.5987	0.169
Mof_H 	H 	0.2531	0	0.6551	0.194
Mof_O 	O 	0.4349	0.5	0.3788	-0.404
Mof_C 	C 	0.3117	0.5	0.3699	0.025
Mof_C 	C 	0.2783	0.5	0.3366	-0.017
Mof_H 	H 	0.3034	0.5	0.4013	0.069
Mof_H 	H 	0.2469	0.5	0.3449	0.099
Mof_O 	O 	0.4349	0	0.8788	-0.406
Mof_C 	C 	0.3117	8.10167e-33	0.8699	0.111
Mof_C 	C 	0.2783	0	0.8366	0.067
Mof_H 	H 	0.3034	8.10167e-33	0.9013	0.172
Mof_H 	H 	0.2469	0	0.8449	0.195
Mof_O 	O 	0.9349	0.5	0.8788	-0.382
Mof_C 	C 	0.8117	0.5	0.8699	0.024
Mof_C 	C 	0.7783	0.5	0.8366	-0.017
Mof_H 	H 	0.8034	0.5	0.9013	0.074
Mof_H 	H 	0.7469	0.5	0.8449	0.098
Mof_O 	O 	0.9349	0	0.3788	-0.389
Mof_C 	C 	0.8117	4.05083e-33	0.3699	0.11
Mof_C 	C 	0.7783	0	0.3366	0.066
Mof_H 	H 	0.8034	0	0.4013	0.166
Mof_H 	H 	0.7469	0	0.3449	0.192
Mof_O 	O 	0.5651	0.5	0.3788	-0.404
Mof_C 	C 	0.6883	0.5	0.3699	0.025
Mof_C 	C 	0.7217	0.5	0.3366	-0.017
Mof_H 	H 	0.6966	0.5	0.4013	0.069
Mof_H 	H 	0.7531	0.5	0.3449	0.099
Mof_O 	O 	0.5651	0	0.8788	-0.406
Mof_C 	C 	0.6883	8.10167e-33	0.8699	0.11
Mof_C 	C 	0.7217	0	0.8366	0.066
Mof_H 	H 	0.6966	8.10167e-33	0.9013	0.171
Mof_H 	H 	0.7531	0	0.8449	0.194
Mof_O 	O 	0.0651	0.5	0.8788	-0.395
Mof_C 	C 	0.1883	0.5	0.8699	0.027
Mof_C 	C 	0.2217	0.5	0.8366	-0.016
Mof_H 	H 	0.1966	0.5	0.9013	0.077
Mof_H 	H 	0.2531	0.5	0.8449	0.101
Mof_O 	O 	0.0651	0	0.3788	-0.402
Mof_C 	C 	0.1883	4.05083e-33	0.3699	0.115
Mof_C 	C 	0.2217	0	0.3366	0.069
Mof_H 	H 	0.1966	0	0.4013	0.17
Mof_H 	H 	0.2531	0	0.3449	0.196
Mof_O 	O 	0.4349	0.5	0.6212	-0.404
Mof_C 	C 	0.3117	0.5	0.6301	0.025
Mof_C 	C 	0.2783	0.5	0.6634	-0.018
Mof_H 	H 	0.3034	0.5	0.5987	0.068
Mof_H 	H 	0.2469	0.5	0.6551	0.098
Mof_O 	O 	0.4349	-1.01271e-33	0.1212	-0.407
Mof_C 	C 	0.3117	0	0.1301	0.117
Mof_C 	C 	0.2783	0	0.1634	0.071
Mof_H 	H 	0.3034	0	0.0987	0.175
Mof_H 	H 	0.2469	2.02542e-33	0.1551	0.199
Mof_O 	O 	0.9349	0.5	0.1212	-0.382
Mof_C 	C 	0.8117	0.5	0.1301	0.027
Mof_C 	C 	0.7783	0.5	0.1634	-0.016
Mof_H 	H 	0.8034	0.5	0.0987	0.075
Mof_H 	H 	0.7469	0.5	0.1551	0.1
Mof_O 	O 	0.9349	8.10167e-33	0.6212	-0.389
Mof_C 	C 	0.8117	0	0.6301	0.109
Mof_C 	C 	0.7783	0	0.6634	0.065
Mof_H 	H 	0.8034	0	0.5987	0.165
Mof_H 	H 	0.7469	0	0.6551	0.19
Mof_O 	O 	0.5651	0.6212	0.5	-0.404
Mof_C 	C 	0.6883	0.6301	0.5	0.025
Mof_C 	C 	0.7217	0.6634	0.5	-0.018
Mof_H 	H 	0.6966	0.5987	0.5	0.068
Mof_H 	H 	0.7531	0.6551	0.5	0.098
Mof_O 	O 	0.5651	0.1212	-0	-0.407
Mof_C 	C 	0.6883	0.1301	-0	0.115
Mof_C 	C 	0.7217	0.1634	-0	0.069
Mof_H 	H 	0.6966	0.0987	-0	0.174
Mof_H 	H 	0.7531	0.1551	-0	0.198
Mof_O 	O 	0.0651	0.6212	-0	-0.402
Mof_C 	C 	0.1883	0.6301	-0	0.114
Mof_C 	C 	0.2217	0.6634	-0	0.068
Mof_H 	H 	0.1966	0.5987	-0	0.169
Mof_H 	H 	0.2531	0.6551	-0	0.194
Mof_O 	O 	0.0651	0.1212	0.5	-0.395
Mof_C 	C 	0.1883	0.1301	0.5	0.03
Mof_C 	C 	0.2217	0.1634	0.5	-0.014
Mof_H 	H 	0.1966	0.0987	0.5	0.078
Mof_H 	H 	0.2531	0.1551	0.5	0.103
Mof_O 	O 	0.4349	0.3788	0.5	-0.404
Mof_C 	C 	0.3117	0.3699	0.5	0.025
Mof_C 	C 	0.2783	0.3366	0.5	-0.017
Mof_H 	H 	0.3034	0.4013	0.5	0.069
Mof_H 	H 	0.2469	0.3449	0.5	0.099
Mof_O 	O 	0.4349	0.8788	-0	-0.406
Mof_C 	C 	0.3117	0.8699	-0	0.111
Mof_C 	C 	0.2783	0.8366	-0	0.067
Mof_H 	H 	0.3034	0.9013	-0	0.172
Mof_H 	H 	0.2469	0.8449	-0	0.195
Mof_O 	O 	0.9349	0.3788	-0	-0.389
Mof_C 	C 	0.8117	0.3699	-0	0.11
Mof_C 	C 	0.7783	0.3366	-0	0.066
Mof_H 	H 	0.8034	0.4013	-0	0.166
Mof_H 	H 	0.7469	0.3449	-0	0.192
Mof_O 	O 	0.9349	0.8788	0.5	-0.382
Mof_C 	C 	0.8117	0.8699	0.5	0.024
Mof_C 	C 	0.7783	0.8366	0.5	-0.017
Mof_H 	H 	0.8034	0.9013	0.5	0.074
Mof_H 	H 	0.7469	0.8449	0.5	0.098
Mof_O 	O 	0.5651	0.3788	0.5	-0.404
Mof_C 	C 	0.6883	0.3699	0.5	0.025
Mof_C 	C 	0.7217	0.3366	0.5	-0.017
Mof_H 	H 	0.6966	0.4013	0.5	0.069
Mof_H 	H 	0.7531	0.3449	0.5	0.099
Mof_O 	O 	0.5651	0.8788	-0	-0.406
Mof_C 	C 	0.6883	0.8699	-0	0.11
Mof_C 	C 	0.7217	0.8366	-0	0.066
Mof_H 	H 	0.6966	0.9013	-0	0.171
Mof_H 	H 	0.7531	0.8449	-0	0.194
Mof_O 	O 	0.0651	0.3788	-0	-0.402
Mof_C 	C 	0.1883	0.3699	-0	0.115
Mof_C 	C 	0.2217	0.3366	-0	0.069
Mof_H 	H 	0.1966	0.4013	-0	0.17
Mof_H 	H 	0.2531	0.3449	-0	0.196
Mof_O 	O 	0.0651	0.8788	0.5	-0.395
Mof_C 	C 	0.1883	0.8699	0.5	0.027
Mof_C 	C 	0.2217	0.8366	0.5	-0.016
Mof_H 	H 	0.1966	0.9013	0.5	0.077
Mof_H 	H 	0.2531	0.8449	0.5	0.101
Mof_O 	O 	0.4349	0.6212	0.5	-0.404
Mof_C 	C 	0.3117	0.6301	0.5	0.025
Mof_C 	C 	0.2783	0.6634	0.5	-0.018
Mof_H 	H 	0.3034	0.5987	0.5	0.068
Mof_H 	H 	0.2469	0.6551	0.5	0.098
Mof_O 	O 	0.4349	0.1212	-0	-0.407
Mof_C 	C 	0.3117	0.1301	-0	0.117
Mof_C 	C 	0.2783	0.1634	-0	0.071
Mof_H 	H 	0.3034	0.0987	-0	0.175
Mof_H 	H 	0.2469	0.1551	-0	0.199
Mof_O 	O 	0.9349	0.6212	-0	-0.389
Mof_C 	C 	0.8117	0.6301	-0	0.109
Mof_C 	C 	0.7783	0.6634	-0	0.065
Mof_H 	H 	0.8034	0.5987	-0	0.165
Mof_H 	H 	0.7469	0.6551	-0	0.19
Mof_O 	O 	0.9349	0.1212	0.5	-0.382
Mof_C 	C 	0.8117	0.1301	0.5	0.027
Mof_C 	C 	0.7783	0.1634	0.5	-0.016
Mof_H 	H 	0.8034	0.0987	0.5	0.075
Mof_H 	H 	0.7469	0.1551	0.5	0.1
Mof_O 	O 	0.6212	0.5	0.4349	-0.404
Mof_C 	C 	0.6301	0.5	0.3117	0.025
Mof_C 	C 	0.6634	0.5	0.2783	-0.018
Mof_H 	H 	0.5987	0.5	0.3034	0.068
Mof_H 	H 	0.6551	0.5	0.2469	0.098
Mof_O 	O 	0.6212	-8.10167e-33	0.9349	-0.389
Mof_C 	C 	0.6301	0	0.8117	0.109
Mof_C 	C 	0.6634	8.10167e-33	0.7783	0.065
Mof_H 	H 	0.5987	0	0.8034	0.165
Mof_H 	H 	0.6551	0	0.7469	0.19
Mof_O 	O 	0.1212	0.5	0.9349	-0.382
Mof_C 	C 	0.1301	0.5	0.8117	0.027
Mof_C 	C 	0.1634	0.5	0.7783	-0.016
Mof_H 	H 	0.0987	0.5	0.8034	0.075
Mof_H 	H 	0.1551	0.5	0.7469	0.1
Mof_O 	O 	0.1212	0	0.4349	-0.407
Mof_C 	C 	0.1301	4.05083e-33	0.3117	0.117
Mof_C 	C 	0.1634	2.02542e-33	0.2783	0.071
Mof_H 	H 	0.0987	0	0.3034	0.175
Mof_H 	H 	0.1551	0	0.2469	0.199
Mof_O 	O 	0.3788	0.5	0.5651	-0.404
Mof_C 	C 	0.3699	0.5	0.6883	0.025
Mof_C 	C 	0.3366	0.5	0.7217	-0.017
Mof_H 	H 	0.4013	0.5	0.6966	0.069
Mof_H 	H 	0.3449	0.5	0.7531	0.099
Mof_O 	O 	0.3788	0	0.0651	-0.402
Mof_C 	C 	0.3699	0	0.1883	0.115
Mof_C 	C 	0.3366	0	0.2217	0.069
Mof_H 	H 	0.4013	0	0.1966	0.17
Mof_H 	H 	0.3449	-2.02542e-33	0.2531	0.196
Mof_O 	O 	0.8788	0.5	0.0651	-0.395
Mof_C 	C 	0.8699	0.5	0.1883	0.027
Mof_C 	C 	0.8366	0.5	0.2217	-0.016
Mof_H 	H 	0.9013	0.5	0.1966	0.077
Mof_H 	H 	0.8449	0.5	0.2531	0.101
Mof_O 	O 	0.8788	0	0.5651	-0.406
Mof_C 	C 	0.8699	0	0.6883	0.11
Mof_C 	C 	0.8366	0	0.7217	0.066
Mof_H 	H 	0.9013	0	0.6966	0.171
Mof_H 	H 	0.8449	8.10167e-33	0.7531	0.194
Mof_O 	O 	0.3788	0.5	0.4349	-0.404
Mof_C 	C 	0.3699	0.5	0.3117	0.025
Mof_C 	C 	0.3366	0.5	0.2783	-0.017
Mof_H 	H 	0.4013	0.5	0.3034	0.069
Mof_H 	H 	0.3449	0.5	0.2469	0.099
Mof_O 	O 	0.3788	-8.10167e-33	0.9349	-0.389
Mof_C 	C 	0.3699	0	0.8117	0.11
Mof_C 	C 	0.3366	8.10167e-33	0.7783	0.066
Mof_H 	H 	0.4013	0	0.8034	0.166
Mof_H 	H 	0.3449	0	0.7469	0.192
Mof_O 	O 	0.8788	0.5	0.9349	-0.382
Mof_C 	C 	0.8699	0.5	0.8117	0.024
Mof_C 	C 	0.8366	0.5	0.7783	-0.017
Mof_H 	H 	0.9013	0.5	0.8034	0.074
Mof_H 	H 	0.8449	0.5	0.7469	0.098
Mof_O 	O 	0.8788	0	0.4349	-0.406
Mof_C 	C 	0.8699	4.05083e-33	0.3117	0.111
Mof_C 	C 	0.8366	2.02542e-33	0.2783	0.067
Mof_H 	H 	0.9013	0	0.3034	0.172
Mof_H 	H 	0.8449	0	0.2469	0.195
Mof_O 	O 	0.6212	0.5	0.5651	-0.404
Mof_C 	C 	0.6301	0.5	0.6883	0.025
Mof_C 	C 	0.6634	0.5	0.7217	-0.018
Mof_H 	H 	0.5987	0.5	0.6966	0.068
Mof_H 	H 	0.6551	0.5	0.7531	0.098
Mof_O 	O 	0.6212	0	0.0651	-0.402
Mof_C 	C 	0.6301	0	0.1883	0.114
Mof_C 	C 	0.6634	0	0.2217	0.068
Mof_H 	H 	0.5987	0	0.1966	0.169
Mof_H 	H 	0.6551	-2.02542e-33	0.2531	0.194
Mof_O 	O 	0.1212	0.5	0.0651	-0.395
Mof_C 	C 	0.1301	0.5	0.1883	0.03
Mof_C 	C 	0.1634	0.5	0.2217	-0.014
Mof_H 	H 	0.0987	0.5	0.1966	0.078
Mof_H 	H 	0.1551	0.5	0.2531	0.103
Mof_O 	O 	0.1212	0	0.5651	-0.407
Mof_C 	C 	0.1301	0	0.6883	0.115
Mof_C 	C 	0.1634	0	0.7217	0.069
Mof_H 	H 	0.0987	0	0.6966	0.174
Mof_H 	H 	0.1551	8.10167e-33	0.7531	0.198
Mof_O 	O 	0.5	0.5651	0.3788	-0.404
Mof_C 	C 	0.5	0.6883	0.3699	0.025
Mof_C 	C 	0.5	0.7217	0.3366	-0.017
Mof_H 	H 	0.5	0.6966	0.4013	0.069
Mof_H 	H 	0.5	0.7531	0.3449	0.099
Mof_O 	O 	0.5	0.0651	0.8788	-0.395
Mof_C 	C 	0.5	0.1883	0.8699	0.027
Mof_C 	C 	0.5	0.2217	0.8366	-0.016
Mof_H 	H 	0.5	0.1966	0.9013	0.077
Mof_H 	H 	0.5	0.2531	0.8449	0.101
Mof_O 	O 	-4.80669e-33	0.5651	0.8788	-0.406
Mof_C 	C 	3.2616e-33	0.6883	0.8699	0.11
Mof_C 	C 	1.93401e-32	0.7217	0.8366	0.066
Mof_H 	H 	1.1481e-32	0.6966	0.9013	0.171
Mof_H 	H 	1.12695e-32	0.7531	0.8449	0.194
Mof_O 	O 	1.42027e-33	0.0651	0.3788	-0.402
Mof_C 	C 	-2.66393e-33	0.1883	0.3699	0.115
Mof_C 	C 	-2.78879e-33	0.2217	0.3366	0.069
Mof_H 	H 	-2.5462e-33	0.1966	0.4013	0.17
Mof_H 	H 	1.29317e-33	0.2531	0.3449	0.196
Mof_O 	O 	0.5	0.4349	0.6212	-0.404
Mof_C 	C 	0.5	0.3117	0.6301	0.025
Mof_C 	C 	0.5	0.2783	0.6634	-0.018
Mof_H 	H 	0.5	0.3034	0.5987	0.068
Mof_H 	H 	0.5	0.2469	0.6551	0.098
Mof_O 	O 	0.5	0.9349	0.1212	-0.382
Mof_C 	C 	0.5	0.8117	0.1301	0.027
Mof_C 	C 	0.5	0.7783	0.1634	-0.016
Mof_H 	H 	0.5	0.8034	0.0987	0.075
Mof_H 	H 	0.5	0.7469	0.1551	0.1
Mof_O 	O 	4.54427e-34	0.4349	0.1212	-0.407
Mof_C 	C 	3.52592e-33	0.3117	0.1301	0.117
Mof_C 	C 	6.12652e-34	0.2783	0.1634	0.071
Mof_H 	H 	-6.42643e-34	0.3034	0.0987	0.175
Mof_H 	H 	-1.44388e-33	0.2469	0.1551	0.199
Mof_O 	O 	2.32913e-33	0.9349	0.6212	-0.389
Mof_C 	C 	-5.73917e-33	0.8117	0.6301	0.109
Mof_C 	C 	1.0589e-32	0.7783	0.6634	0.065
Mof_H 	H 	2.24477e-33	0.8034	0.5987	0.165
Mof_H 	H 	2.45623e-33	0.7469	0.6551	0.19
Mof_O 	O 	0.5	0.5651	0.6212	-0.404
Mof_C 	C 	0.5	0.6883	0.6301	0.025
Mof_C 	C 	0.5	0.7217	0.6634	-0.018
Mof_H 	H 	0.5	0.6966	0.5987	0.068
Mof_H 	H 	0.5	0.7531	0.6551	0.098
Mof_O 	O 	0.5	0.0651	0.1212	-0.395
Mof_C 	C 	0.5	0.1883	0.1301	0.03
Mof_C 	C 	0.5	0.2217	0.1634	-0.014
Mof_H 	H 	0.5	0.1966	0.0987	0.078
Mof_H 	H 	0.5	0.2531	0.1551	0.103
Mof_O 	O 	4.50526e-33	0.5651	0.1212	-0.407
Mof_C 	C 	-5.24911e-34	0.6883	0.1301	0.115
Mof_C 	C 	-1.41276e-33	0.7217	0.1634	0.069
Mof_H 	H 	-6.42643e-34	0.6966	0.0987	0.174
Mof_H 	H 	-1.44388e-33	0.7531	0.1551	0.198
Mof_O 	O 	1.04308e-32	0.0651	0.6212	-0.402
Mof_C 	C 	2.3625e-33	0.1883	0.6301	0.114
Mof_C 	C 	-5.61431e-33	0.2217	0.6634	0.068
Mof_H 	H 	2.24477e-33	0.1966	0.5987	0.169
Mof_H 	H 	-5.64543e-33	0.2531	0.6551	0.194
Mof_O 	O 	0.5	0.4349	0.3788	-0.404
Mof_C 	C 	0.5	0.3117	0.3699	0.025
Mof_C 	C 	0.5	0.2783	0.3366	-0.017
Mof_H 	H 	0.5	0.3034	0.4013	0.069
Mof_H 	H 	0.5	0.2469	0.3449	0.099
Mof_O 	O 	0.5	0.9349	0.8788	-0.382
Mof_C 	C 	0.5	0.8117	0.8699	0.024
Mof_C 	C 	0.5	0.7783	0.8366	-0.017
Mof_H 	H 	0.5	0.8034	0.9013	0.074
Mof_H 	H 	0.5	0.7469	0.8449	0.098
Mof_O 	O 	-4.80669e-33	0.4349	0.8788	-0.406
Mof_C 	C 	3.2616e-33	0.3117	0.8699	0.111
Mof_C 	C 	-4.96492e-33	0.2783	0.8366	0.067
Mof_H 	H 	3.37933e-33	0.3034	0.9013	0.172
Mof_H 	H 	-4.9338e-33	0.2469	0.8449	0.195
Mof_O 	O 	-2.63056e-33	0.9349	0.3788	-0.389
Mof_C 	C 	-2.66393e-33	0.8117	0.3699	0.11
Mof_C 	C 	-2.78879e-33	0.7783	0.3366	0.066
Mof_H 	H 	-2.5462e-33	0.8034	0.4013	0.166
Mof_H 	H 	9.39483e-33	0.7469	0.3449	0.192
Mof_C 	C 	0.6073	0.6073	0.5	0.358
Mof_C 	C 	0.6429	0.6429	0.5	-0.106
Mof_C 	C 	0.7088	0.7088	0.5	0.13
Mof_N 	N 	0.7627	0.7627	0.5	-0.002
Mof_C 	C 	0.6073	0.1073	-0	0.363
Mof_C 	C 	0.6429	0.1429	-0	-0.123
Mof_C 	C 	0.7088	0.2088	-0	0.114
Mof_N 	N 	0.7627	0.2627	-0	-0.057
Mof_C 	C 	0.1073	0.6073	-0	0.363
Mof_C 	C 	0.1429	0.6429	-0	-0.123
Mof_C 	C 	0.2088	0.7088	-0	0.114
Mof_N 	N 	0.2627	0.7627	-0	-0.057
Mof_C 	C 	0.1073	0.1073	0.5	0.361
Mof_C 	C 	0.1429	0.1429	0.5	-0.099
Mof_C 	C 	0.2088	0.2088	0.5	0.134
Mof_N 	N 	0.2627	0.2627	0.5	-0.003
Mof_C 	C 	0.3927	0.3927	0.5	0.359
Mof_C 	C 	0.3571	0.3571	0.5	-0.106
Mof_C 	C 	0.2912	0.2912	0.5	0.132
Mof_N 	N 	0.2373	0.2373	0.5	-0.006
Mof_C 	C 	0.3927	0.8927	-0	0.357
Mof_C 	C 	0.3571	0.8571	-0	-0.122
Mof_C 	C 	0.2912	0.7912	-0	0.112
Mof_N 	N 	0.2373	0.7373	-0	-0.06
Mof_C 	C 	0.8927	0.3927	-0	0.357
Mof_C 	C 	0.8571	0.3571	-0	-0.122
Mof_C 	C 	0.7912	0.2912	-0	0.112
Mof_N 	N 	0.7373	0.2373	-0	-0.06
Mof_C 	C 	0.8927	0.8927	0.5	0.349
Mof_C 	C 	0.8571	0.8571	0.5	-0.1
Mof_C 	C 	0.7912	0.7912	0.5	0.128
Mof_N 	N 	0.7373	0.7373	0.5	-0.004
Mof_C 	C 	0.3927	0.6073	0.5	0.358
Mof_C 	C 	0.3571	0.6429	0.5	-0.106
Mof_C 	C 	0.2912	0.7088	0.5	0.131
Mof_N 	N 	0.2373	0.7627	0.5	-0.004
Mof_C 	C 	0.3927	0.1073	-0	0.364
Mof_C 	C 	0.3571	0.1429	-0	-0.123
Mof_C 	C 	0.2912	0.2088	-0	0.115
Mof_N 	N 	0.2373	0.2627	-0	-0.06
Mof_C 	C 	0.8927	0.6073	-0	0.357
Mof_C 	C 	0.8571	0.6429	-0	-0.123
Mof_C 	C 	0.7912	0.7088	-0	0.112
Mof_N 	N 	0.7373	0.7627	-0	-0.057
Mof_C 	C 	0.8927	0.1073	0.5	0.355
Mof_C 	C 	0.8571	0.1429	0.5	-0.099
Mof_C 	C 	0.7912	0.2088	0.5	0.131
Mof_N 	N 	0.7373	0.2627	0.5	-0.003
Mof_C 	C 	0.6073	0.3927	0.5	0.358
Mof_C 	C 	0.6429	0.3571	0.5	-0.106
Mof_C 	C 	0.7088	0.2912	0.5	0.131
Mof_N 	N 	0.7627	0.2373	0.5	-0.004
Mof_C 	C 	0.6073	0.8927	-0	0.357
Mof_C 	C 	0.6429	0.8571	-0	-0.123
Mof_C 	C 	0.7088	0.7912	-0	0.112
Mof_N 	N 	0.7627	0.7373	-0	-0.057
Mof_C 	C 	0.1073	0.3927	-0	0.364
Mof_C 	C 	0.1429	0.3571	-0	-0.123
Mof_C 	C 	0.2088	0.2912	-0	0.115
Mof_N 	N 	0.2627	0.2373	-0	-0.06
Mof_C 	C 	0.1073	0.8927	0.5	0.355
Mof_C 	C 	0.1429	0.8571	0.5	-0.099
Mof_C 	C 	0.2088	0.7912	0.5	0.131
Mof_N 	N 	0.2627	0.7373	0.5	-0.003
Mof_C 	C 	0.5	0.6073	0.6073	0.358
Mof_C 	C 	0.5	0.6429	0.6429	-0.106
Mof_C 	C 	0.5	0.7088	0.7088	0.13
Mof_N 	N 	0.5	0.7627	0.7627	-0.002
Mof_C 	C 	0.5	0.1073	0.1073	0.361
Mof_C 	C 	0.5	0.1429	0.1429	-0.099
Mof_C 	C 	0.5	0.2088	0.2088	0.134
Mof_N 	N 	0.5	0.2627	0.2627	-0.003
Mof_C 	C 	4.02311e-34	0.6073	0.1073	0.363
Mof_C 	C 	-4.52775e-33	0.6429	0.1429	-0.123
Mof_C 	C 	7.82875e-34	0.7088	0.2088	0.114
Mof_N 	N 	5.0358e-33	0.7627	0.2627	-0.057
Mof_C 	C 	2.27701e-33	0.1073	0.6073	0.363
Mof_C 	C 	-5.69118e-33	0.1429	0.6429	-0.123
Mof_C 	C 	2.65757e-33	0.2088	0.7088	0.114
Mof_N 	N 	2.85967e-33	0.2627	0.7627	-0.057
Mof_C 	C 	0.5	0.3927	0.3927	0.359
Mof_C 	C 	0.5	0.3571	0.3571	-0.106
Mof_C 	C 	0.5	0.2912	0.2912	0.132
Mof_N 	N 	0.5	0.2373	0.2373	-0.006
Mof_C 	C 	0.5	0.8927	0.8927	0.349
Mof_C 	C 	0.5	0.8571	0.8571	-0.1
Mof_C 	C 	0.5	0.7912	0.7912	0.128
Mof_N 	N 	0.5	0.7373	0.7373	-0.004
Mof_C 	C 	1.14488e-32	0.3927	0.8927	0.357
Mof_C 	C 	-4.88806e-33	0.3571	0.8571	-0.122
Mof_C 	C 	-5.13514e-33	0.2912	0.7912	0.112
Mof_N 	N 	2.76443e-33	0.2373	0.7373	-0.06
Mof_C 	C 	1.36249e-32	0.8927	0.3927	0.357
Mof_C 	C 	-2.71192e-33	0.8571	0.3571	-0.122
Mof_C 	C 	-4.98442e-33	0.7912	0.2912	0.112
Mof_N 	N 	8.89732e-34	0.7373	0.2373	-0.06
Mof_C 	C 	0.5	0.3927	0.6073	0.358
Mof_C 	C 	0.5	0.3571	0.6429	-0.106
Mof_C 	C 	0.5	0.2912	0.7088	0.131
Mof_N 	N 	0.5	0.2373	0.7627	-0.004
Mof_C 	C 	0.5	0.8927	0.1073	0.355
Mof_C 	C 	0.5	0.8571	0.1429	-0.099
Mof_C 	C 	0.5	0.7912	0.2088	0.131
Mof_N 	N 	0.5	0.7373	0.2627	-0.003
Mof_C 	C 	4.02311e-34	0.3927	0.1073	0.364
Mof_C 	C 	3.57391e-33	0.3571	0.1429	-0.123
Mof_C 	C 	-1.24254e-33	0.2912	0.2088	0.115
Mof_N 	N 	9.84967e-34	0.2373	0.2627	-0.06
Mof_C 	C 	1.84803e-32	0.8927	0.6073	0.357
Mof_C 	C 	1.86138e-32	0.8571	0.6429	-0.123
Mof_C 	C 	1.07592e-32	0.7912	0.7088	0.112
Mof_N 	N 	1.9063e-32	0.7373	0.7627	-0.057
Mof_C 	C 	0.5	0.6073	0.3927	0.358
Mof_C 	C 	0.5	0.6429	0.3571	-0.106
Mof_C 	C 	0.5	0.7088	0.2912	0.131
Mof_N 	N 	0.5	0.7627	0.2373	-0.004
Mof_C 	C 	0.5	0.1073	0.8927	0.355
Mof_C 	C 	0.5	0.1429	0.8571	-0.099
Mof_C 	C 	0.5	0.2088	0.7912	0.131
Mof_N 	N 	0.5	0.2627	0.7373	-0.003
Mof_C 	C 	1.95504e-32	0.6073	0.8927	0.357
Mof_C 	C 	1.94169e-32	0.6429	0.8571	-0.123
Mof_C 	C 	1.10682e-32	0.7088	0.7912	0.112
Mof_N 	N 	1.89678e-32	0.7627	0.7373	-0.057
Mof_C 	C 	-2.57844e-33	0.1073	0.3927	0.364
Mof_C 	C 	1.33891e-33	0.1429	0.3571	-0.123
Mof_C 	C 	-9.33592e-34	0.2088	0.2912	0.115
Mof_N 	N 	8.89732e-34	0.2627	0.2373	-0.06
Mof_C 	C 	0.6073	0.5	0.6073	0.358
Mof_C 	C 	0.6429	0.5	0.6429	-0.106
Mof_C 	C 	0.7088	0.5	0.7088	0.13
Mof_N 	N 	0.7627	0.5	0.7627	-0.002
Mof_C 	C 	0.6073	0	0.1073	0.363
Mof_C 	C 	0.6429	0	0.1429	-0.123
Mof_C 	C 	0.7088	0	0.2088	0.114
Mof_N 	N 	0.7627	2.02542e-33	0.2627	-0.057
Mof_C 	C 	0.1073	0.5	0.1073	0.361
Mof_C 	C 	0.1429	0.5	0.1429	-0.099
Mof_C 	C 	0.2088	0.5	0.2088	0.134
Mof_N 	N 	0.2627	0.5	0.2627	-0.003
Mof_C 	C 	0.1073	0	0.6073	0.363
Mof_C 	C 	0.1429	0	0.6429	-0.123
Mof_C 	C 	0.2088	0	0.7088	0.114
Mof_N 	N 	0.2627	0	0.7627	-0.057
Mof_C 	C 	0.3927	0.5	0.3927	0.359
Mof_C 	C 	0.3571	0.5	0.3571	-0.106
Mof_C 	C 	0.2912	0.5	0.2912	0.132
Mof_N 	N 	0.2373	0.5	0.2373	-0.006
Mof_C 	C 	0.3927	0	0.8927	0.357
Mof_C 	C 	0.3571	0	0.8571	-0.122
Mof_C 	C 	0.2912	0	0.7912	0.112
Mof_N 	N 	0.2373	8.10167e-33	0.7373	-0.06
Mof_C 	C 	0.8927	0.5	0.8927	0.349
Mof_C 	C 	0.8571	0.5	0.8571	-0.1
Mof_C 	C 	0.7912	0.5	0.7912	0.128
Mof_N 	N 	0.7373	0.5	0.7373	-0.004
Mof_C 	C 	0.8927	0	0.3927	0.357
Mof_C 	C 	0.8571	4.05083e-33	0.3571	-0.122
Mof_C 	C 	0.7912	0	0.2912	0.112
Mof_N 	N 	0.7373	-2.02542e-33	0.2373	-0.06
Mof_C 	C 	0.6073	0.5	0.3927	0.358
Mof_C 	C 	0.6429	0.5	0.3571	-0.106
Mof_C 	C 	0.7088	0.5	0.2912	0.131
Mof_N 	N 	0.7627	0.5	0.2373	-0.004
Mof_C 	C 	0.6073	0	0.8927	0.357
Mof_C 	C 	0.6429	0	0.8571	-0.123
Mof_C 	C 	0.7088	0	0.7912	0.112
Mof_N 	N 	0.7627	8.10167e-33	0.7373	-0.057
Mof_C 	C 	0.1073	0.5	0.8927	0.355
Mof_C 	C 	0.1429	0.5	0.8571	-0.099
Mof_C 	C 	0.2088	0.5	0.7912	0.131
Mof_N 	N 	0.2627	0.5	0.7373	-0.003
Mof_C 	C 	0.1073	0	0.3927	0.364
Mof_C 	C 	0.1429	4.05083e-33	0.3571	-0.123
Mof_C 	C 	0.2088	0	0.2912	0.115
Mof_N 	N 	0.2627	-2.02542e-33	0.2373	-0.06
Mof_C 	C 	0.3927	0.5	0.6073	0.358
Mof_C 	C 	0.3571	0.5	0.6429	-0.106
Mof_C 	C 	0.2912	0.5	0.7088	0.131
Mof_N 	N 	0.2373	0.5	0.7627	-0.004
Mof_C 	C 	0.3927	0	0.1073	0.364
Mof_C 	C 	0.3571	0	0.1429	-0.123
Mof_C 	C 	0.2912	0	0.2088	0.115
Mof_N 	N 	0.2373	2.02542e-33	0.2627	-0.06
Mof_C 	C 	0.8927	0.5	0.1073	0.355
Mof_C 	C 	0.8571	0.5	0.1429	-0.099
Mof_C 	C 	0.7912	0.5	0.2088	0.131
Mof_N 	N 	0.7373	0.5	0.2627	-0.003
Mof_C 	C 	0.8927	0	0.6073	0.357
Mof_C 	C 	0.8571	0	0.6429	-0.123
Mof_C 	C 	0.7912	0	0.7088	0.112
Mof_N 	N 	0.7373	0	0.7627	-0.057
_end
