data_functionalizedCrystal
_audit_creation_method	'EQeq! by Chris Wilmer'
_symmetry_space_group_name_H-M	'P1'
_symmetry_Int_Tables_number	1
_symmetry_cell_setting	triclinic
loop_
_symmetry_equiv_pos_as_xyz
  x,y,z
_cell_length_a	40.77
_cell_length_b	40.77
_cell_length_c	40.77
_cell_angle_alpha	90
_cell_angle_beta	90
_cell_angle_gamma	90
loop_
_atom_site_label
_atom_site_type_symbol
_atom_site_fract_x
_atom_site_fract_y
_atom_site_fract_z
_atom_site_charge
Mof_O 	O 	0.0147	0.31244	0.065	-0.327
Mof_H 	H 	0.0552	0.3328	0.1741	0.086
Mof_H 	H 	0.0732	0.2961	0.1769	0.065
Mof_H 	H 	0.0731	0.3206	0.2056	0.077
Mof_O 	O 	0.0147	0.81244	0.565	-0.327
Mof_H 	H 	0.0552	0.8328	0.6741	0.086
Mof_H 	H 	0.0732	0.7961	0.6769	0.065
Mof_H 	H 	0.0731	0.8206	0.7056	0.077
Mof_O 	O 	0.5147	0.31244	0.565	-0.326
Mof_H 	H 	0.5552	0.3328	0.6741	0.086
Mof_H 	H 	0.5732	0.2961	0.6769	0.065
Mof_H 	H 	0.5731	0.3206	0.7056	0.077
Mof_O 	O 	0.5147	0.81244	0.065	-0.327
Mof_H 	H 	0.5552	0.8328	0.1741	0.085
Mof_H 	H 	0.5732	0.7961	0.1769	0.064
Mof_H 	H 	0.5731	0.8206	0.2056	0.076
Mof_O 	O 	0.9853	0.68756	0.065	-0.325
Mof_H 	H 	0.9448	0.6672	0.1741	0.086
Mof_H 	H 	0.9268	0.7039	0.1769	0.064
Mof_H 	H 	0.9269	0.6794	0.2056	0.076
Mof_O 	O 	0.9853	0.18756	0.565	-0.325
Mof_H 	H 	0.9448	0.1672	0.6741	0.086
Mof_H 	H 	0.9268	0.2039	0.6769	0.064
Mof_H 	H 	0.9269	0.1794	0.7056	0.076
Mof_O 	O 	0.4853	0.68756	0.565	-0.327
Mof_H 	H 	0.4448	0.6672	0.6741	0.085
Mof_H 	H 	0.4268	0.7039	0.6769	0.064
Mof_H 	H 	0.4269	0.6794	0.7056	0.076
Mof_O 	O 	0.4853	0.18756	0.065	-0.327
Mof_H 	H 	0.4448	0.1672	0.1741	0.085
Mof_H 	H 	0.4268	0.2039	0.1769	0.064
Mof_H 	H 	0.4269	0.1794	0.2056	0.076
Mof_O 	O 	0.9853	0.31244	0.935	-0.325
Mof_H 	H 	0.9448	0.3328	0.8259	0.086
Mof_H 	H 	0.9268	0.2961	0.8231	0.064
Mof_H 	H 	0.9269	0.3206	0.7944	0.076
Mof_O 	O 	0.9853	0.81244	0.435	-0.325
Mof_H 	H 	0.9448	0.8328	0.3259	0.086
Mof_H 	H 	0.9268	0.7961	0.3231	0.064
Mof_H 	H 	0.9269	0.8206	0.2944	0.076
Mof_O 	O 	0.4853	0.31244	0.435	-0.327
Mof_H 	H 	0.4448	0.3328	0.3259	0.085
Mof_H 	H 	0.4268	0.2961	0.3231	0.064
Mof_H 	H 	0.4269	0.3206	0.2944	0.076
Mof_O 	O 	0.4853	0.81244	0.935	-0.327
Mof_H 	H 	0.4448	0.8328	0.8259	0.085
Mof_H 	H 	0.4268	0.7961	0.8231	0.064
Mof_H 	H 	0.4269	0.8206	0.7944	0.076
Mof_O 	O 	0.0147	0.68756	0.935	-0.328
Mof_H 	H 	0.0552	0.6672	0.8259	0.086
Mof_H 	H 	0.0732	0.7039	0.8231	0.064
Mof_H 	H 	0.0731	0.6794	0.7944	0.076
Mof_O 	O 	0.0147	0.18756	0.435	-0.328
Mof_H 	H 	0.0552	0.1672	0.3259	0.085
Mof_H 	H 	0.0732	0.2039	0.3231	0.064
Mof_H 	H 	0.0731	0.1794	0.2944	0.076
Mof_O 	O 	0.5147	0.68756	0.435	-0.327
Mof_H 	H 	0.5552	0.6672	0.3259	0.085
Mof_H 	H 	0.5732	0.7039	0.3231	0.064
Mof_H 	H 	0.5731	0.6794	0.2944	0.076
Mof_O 	O 	0.5147	0.18756	0.935	-0.327
Mof_H 	H 	0.5552	0.1672	0.8259	0.085
Mof_H 	H 	0.5732	0.2039	0.8231	0.064
Mof_H 	H 	0.5731	0.1794	0.7944	0.076
Mof_O 	O 	0.065	0.0147	0.31244	-0.328
Mof_H 	H 	0.1741	0.0552	0.3328	0.085
Mof_H 	H 	0.1769	0.0732	0.2961	0.064
Mof_H 	H 	0.2056	0.0731	0.3206	0.076
Mof_O 	O 	0.065	0.5147	0.81244	-0.327
Mof_H 	H 	0.1741	0.5552	0.8328	0.085
Mof_H 	H 	0.1769	0.5732	0.7961	0.064
Mof_H 	H 	0.2056	0.5731	0.8206	0.076
Mof_O 	O 	0.565	0.0147	0.81244	-0.328
Mof_H 	H 	0.6741	0.0552	0.8328	0.085
Mof_H 	H 	0.6769	0.0732	0.7961	0.064
Mof_H 	H 	0.7056	0.0731	0.8206	0.076
Mof_O 	O 	0.565	0.5147	0.31244	-0.327
Mof_H 	H 	0.6741	0.5552	0.3328	0.085
Mof_H 	H 	0.6769	0.5732	0.2961	0.064
Mof_H 	H 	0.7056	0.5731	0.3206	0.076
Mof_O 	O 	0.065	0.9853	0.68756	-0.325
Mof_H 	H 	0.1741	0.9448	0.6672	0.086
Mof_H 	H 	0.1769	0.9268	0.7039	0.064
Mof_H 	H 	0.2056	0.9269	0.6794	0.076
Mof_O 	O 	0.065	0.4853	0.18756	-0.327
Mof_H 	H 	0.1741	0.4448	0.1672	0.085
Mof_H 	H 	0.1769	0.4268	0.2039	0.064
Mof_H 	H 	0.2056	0.4269	0.1794	0.076
Mof_O 	O 	0.565	0.9853	0.18756	-0.325
Mof_H 	H 	0.6741	0.9448	0.1672	0.086
Mof_H 	H 	0.6769	0.9268	0.2039	0.064
Mof_H 	H 	0.7056	0.9269	0.1794	0.076
Mof_O 	O 	0.565	0.4853	0.68756	-0.327
Mof_H 	H 	0.6741	0.4448	0.6672	0.085
Mof_H 	H 	0.6769	0.4268	0.7039	0.064
Mof_H 	H 	0.7056	0.4269	0.6794	0.076
Mof_O 	O 	0.935	0.9853	0.31244	-0.325
Mof_H 	H 	0.8259	0.9448	0.3328	0.086
Mof_H 	H 	0.8231	0.9268	0.2961	0.064
Mof_H 	H 	0.7944	0.9269	0.3206	0.076
Mof_O 	O 	0.935	0.4853	0.81244	-0.327
Mof_H 	H 	0.8259	0.4448	0.8328	0.085
Mof_H 	H 	0.8231	0.4268	0.7961	0.064
Mof_H 	H 	0.7944	0.4269	0.8206	0.076
Mof_O 	O 	0.435	0.9853	0.81244	-0.325
Mof_H 	H 	0.3259	0.9448	0.8328	0.086
Mof_H 	H 	0.3231	0.9268	0.7961	0.064
Mof_H 	H 	0.2944	0.9269	0.8206	0.076
Mof_O 	O 	0.435	0.4853	0.31244	-0.327
Mof_H 	H 	0.3259	0.4448	0.3328	0.085
Mof_H 	H 	0.3231	0.4268	0.2961	0.064
Mof_H 	H 	0.2944	0.4269	0.3206	0.076
Mof_O 	O 	0.935	0.0147	0.68756	-0.328
Mof_H 	H 	0.8259	0.0552	0.6672	0.086
Mof_H 	H 	0.8231	0.0732	0.7039	0.064
Mof_H 	H 	0.7944	0.0731	0.6794	0.076
Mof_O 	O 	0.935	0.5147	0.18756	-0.327
Mof_H 	H 	0.8259	0.5552	0.1672	0.085
Mof_H 	H 	0.8231	0.5732	0.2039	0.064
Mof_H 	H 	0.7944	0.5731	0.1794	0.076
Mof_O 	O 	0.435	0.0147	0.18756	-0.328
Mof_H 	H 	0.3259	0.0552	0.1672	0.085
Mof_H 	H 	0.3231	0.0732	0.2039	0.064
Mof_H 	H 	0.2944	0.0731	0.1794	0.076
Mof_O 	O 	0.435	0.5147	0.68756	-0.327
Mof_H 	H 	0.3259	0.5552	0.6672	0.085
Mof_H 	H 	0.3231	0.5732	0.7039	0.064
Mof_H 	H 	0.2944	0.5731	0.6794	0.076
Mof_O 	O 	0.31244	0.065	0.0147	-0.328
Mof_H 	H 	0.3328	0.1741	0.0552	0.085
Mof_H 	H 	0.2961	0.1769	0.0732	0.064
Mof_H 	H 	0.3206	0.2056	0.0731	0.076
Mof_O 	O 	0.31244	0.565	0.5147	-0.327
Mof_H 	H 	0.3328	0.6741	0.5552	0.085
Mof_H 	H 	0.2961	0.6769	0.5732	0.064
Mof_H 	H 	0.3206	0.7056	0.5731	0.076
Mof_O 	O 	0.81244	0.065	0.5147	-0.327
Mof_H 	H 	0.8328	0.1741	0.5552	0.085
Mof_H 	H 	0.7961	0.1769	0.5732	0.064
Mof_H 	H 	0.8206	0.2056	0.5731	0.076
Mof_O 	O 	0.81244	0.565	0.0147	-0.328
Mof_H 	H 	0.8328	0.6741	0.0552	0.085
Mof_H 	H 	0.7961	0.6769	0.0732	0.064
Mof_H 	H 	0.8206	0.7056	0.0731	0.076
Mof_O 	O 	0.68756	0.065	0.9853	-0.325
Mof_H 	H 	0.6672	0.1741	0.9448	0.086
Mof_H 	H 	0.7039	0.1769	0.9268	0.064
Mof_H 	H 	0.6794	0.2056	0.9269	0.076
Mof_O 	O 	0.68756	0.565	0.4853	-0.327
Mof_H 	H 	0.6672	0.6741	0.4448	0.085
Mof_H 	H 	0.7039	0.6769	0.4268	0.064
Mof_H 	H 	0.6794	0.7056	0.4269	0.076
Mof_O 	O 	0.18756	0.065	0.4853	-0.327
Mof_H 	H 	0.1672	0.1741	0.4448	0.085
Mof_H 	H 	0.2039	0.1769	0.4268	0.064
Mof_H 	H 	0.1794	0.2056	0.4269	0.076
Mof_O 	O 	0.18756	0.565	0.9853	-0.325
Mof_H 	H 	0.1672	0.6741	0.9448	0.086
Mof_H 	H 	0.2039	0.6769	0.9268	0.064
Mof_H 	H 	0.1794	0.7056	0.9269	0.076
Mof_O 	O 	0.31244	0.935	0.9853	-0.325
Mof_H 	H 	0.3328	0.8259	0.9448	0.086
Mof_H 	H 	0.2961	0.8231	0.9268	0.064
Mof_H 	H 	0.3206	0.7944	0.9269	0.076
Mof_O 	O 	0.31244	0.435	0.4853	-0.327
Mof_H 	H 	0.3328	0.3259	0.4448	0.085
Mof_H 	H 	0.2961	0.3231	0.4268	0.064
Mof_H 	H 	0.3206	0.2944	0.4269	0.076
Mof_O 	O 	0.81244	0.935	0.4853	-0.327
Mof_H 	H 	0.8328	0.8259	0.4448	0.085
Mof_H 	H 	0.7961	0.8231	0.4268	0.064
Mof_H 	H 	0.8206	0.7944	0.4269	0.076
Mof_O 	O 	0.81244	0.435	0.9853	-0.325
Mof_H 	H 	0.8328	0.3259	0.9448	0.086
Mof_H 	H 	0.7961	0.3231	0.9268	0.064
Mof_H 	H 	0.8206	0.2944	0.9269	0.076
Mof_O 	O 	0.68756	0.935	0.0147	-0.328
Mof_H 	H 	0.6672	0.8259	0.0552	0.086
Mof_H 	H 	0.7039	0.8231	0.0732	0.064
Mof_H 	H 	0.6794	0.7944	0.0731	0.076
Mof_O 	O 	0.68756	0.435	0.5147	-0.327
Mof_H 	H 	0.6672	0.3259	0.5552	0.085
Mof_H 	H 	0.7039	0.3231	0.5732	0.064
Mof_H 	H 	0.6794	0.2944	0.5731	0.076
Mof_O 	O 	0.18756	0.935	0.5147	-0.327
Mof_H 	H 	0.1672	0.8259	0.5552	0.085
Mof_H 	H 	0.2039	0.8231	0.5732	0.064
Mof_H 	H 	0.1794	0.7944	0.5731	0.076
Mof_O 	O 	0.18756	0.435	0.0147	-0.328
Mof_H 	H 	0.1672	0.3259	0.0552	0.085
Mof_H 	H 	0.2039	0.3231	0.0732	0.064
Mof_H 	H 	0.1794	0.2944	0.0731	0.076
Mof_O 	O 	0.31244	0.0147	0.935	-0.328
Mof_H 	H 	0.3328	0.0552	0.8259	0.085
Mof_H 	H 	0.2961	0.0732	0.8231	0.064
Mof_H 	H 	0.3206	0.0731	0.7944	0.076
Mof_O 	O 	0.31244	0.5147	0.435	-0.327
Mof_H 	H 	0.3328	0.5552	0.3259	0.085
Mof_H 	H 	0.2961	0.5732	0.3231	0.064
Mof_H 	H 	0.3206	0.5731	0.2944	0.076
Mof_O 	O 	0.81244	0.0147	0.435	-0.328
Mof_H 	H 	0.8328	0.0552	0.3259	0.085
Mof_H 	H 	0.7961	0.0732	0.3231	0.064
Mof_H 	H 	0.8206	0.0731	0.2944	0.076
Mof_O 	O 	0.81244	0.5147	0.935	-0.327
Mof_H 	H 	0.8328	0.5552	0.8259	0.085
Mof_H 	H 	0.7961	0.5732	0.8231	0.064
Mof_H 	H 	0.8206	0.5731	0.7944	0.076
Mof_O 	O 	0.68756	0.9853	0.935	-0.325
Mof_H 	H 	0.6672	0.9448	0.8259	0.086
Mof_H 	H 	0.7039	0.9268	0.8231	0.064
Mof_H 	H 	0.6794	0.9269	0.7944	0.076
Mof_O 	O 	0.68756	0.4853	0.435	-0.327
Mof_H 	H 	0.6672	0.4448	0.3259	0.085
Mof_H 	H 	0.7039	0.4268	0.3231	0.064
Mof_H 	H 	0.6794	0.4269	0.2944	0.076
Mof_O 	O 	0.18756	0.9853	0.435	-0.325
Mof_H 	H 	0.1672	0.9448	0.3259	0.086
Mof_H 	H 	0.2039	0.9268	0.3231	0.064
Mof_H 	H 	0.1794	0.9269	0.2944	0.076
Mof_O 	O 	0.18756	0.4853	0.935	-0.327
Mof_H 	H 	0.1672	0.4448	0.8259	0.085
Mof_H 	H 	0.2039	0.4268	0.8231	0.064
Mof_H 	H 	0.1794	0.4269	0.7944	0.076
Mof_O 	O 	0.31244	0.9853	0.065	-0.325
Mof_H 	H 	0.3328	0.9448	0.1741	0.086
Mof_H 	H 	0.2961	0.9268	0.1769	0.064
Mof_H 	H 	0.3206	0.9269	0.2056	0.076
Mof_O 	O 	0.31244	0.4853	0.565	-0.327
Mof_H 	H 	0.3328	0.4448	0.6741	0.085
Mof_H 	H 	0.2961	0.4268	0.6769	0.064
Mof_H 	H 	0.3206	0.4269	0.7056	0.076
Mof_O 	O 	0.81244	0.9853	0.565	-0.325
Mof_H 	H 	0.8328	0.9448	0.6741	0.086
Mof_H 	H 	0.7961	0.9268	0.6769	0.064
Mof_H 	H 	0.8206	0.9269	0.7056	0.076
Mof_O 	O 	0.81244	0.4853	0.065	-0.327
Mof_H 	H 	0.8328	0.4448	0.1741	0.085
Mof_H 	H 	0.7961	0.4268	0.1769	0.064
Mof_H 	H 	0.8206	0.4269	0.2056	0.076
Mof_O 	O 	0.68756	0.0147	0.065	-0.328
Mof_H 	H 	0.6672	0.0552	0.1741	0.085
Mof_H 	H 	0.7039	0.0732	0.1769	0.064
Mof_H 	H 	0.6794	0.0731	0.2056	0.076
Mof_O 	O 	0.68756	0.5147	0.565	-0.327
Mof_H 	H 	0.6672	0.5552	0.6741	0.085
Mof_H 	H 	0.7039	0.5732	0.6769	0.064
Mof_H 	H 	0.6794	0.5731	0.7056	0.076
Mof_O 	O 	0.18756	0.0147	0.565	-0.328
Mof_H 	H 	0.1672	0.0552	0.6741	0.085
Mof_H 	H 	0.2039	0.0732	0.6769	0.064
Mof_H 	H 	0.1794	0.0731	0.7056	0.076
Mof_O 	O 	0.18756	0.5147	0.065	-0.327
Mof_H 	H 	0.1672	0.5552	0.1741	0.085
Mof_H 	H 	0.2039	0.5732	0.1769	0.064
Mof_H 	H 	0.1794	0.5731	0.2056	0.076
Mof_O 	O 	0.0147	0.065	0.68756	-0.328
Mof_H 	H 	0.0552	0.1741	0.6672	0.085
Mof_H 	H 	0.0732	0.1769	0.7039	0.064
Mof_H 	H 	0.0731	0.2056	0.6794	0.076
Mof_O 	O 	0.0147	0.565	0.18756	-0.328
Mof_H 	H 	0.0552	0.6741	0.1672	0.085
Mof_H 	H 	0.0732	0.6769	0.2039	0.064
Mof_H 	H 	0.0731	0.7056	0.1794	0.076
Mof_O 	O 	0.5147	0.065	0.18756	-0.327
Mof_H 	H 	0.5552	0.1741	0.1672	0.085
Mof_H 	H 	0.5732	0.1769	0.2039	0.064
Mof_H 	H 	0.5731	0.2056	0.1794	0.076
Mof_O 	O 	0.5147	0.565	0.68756	-0.327
Mof_H 	H 	0.5552	0.6741	0.6672	0.085
Mof_H 	H 	0.5732	0.6769	0.7039	0.064
Mof_H 	H 	0.5731	0.7056	0.6794	0.076
Mof_O 	O 	0.9853	0.065	0.31244	-0.325
Mof_H 	H 	0.9448	0.1741	0.3328	0.086
Mof_H 	H 	0.9268	0.1769	0.2961	0.064
Mof_H 	H 	0.9269	0.2056	0.3206	0.076
Mof_O 	O 	0.9853	0.565	0.81244	-0.325
Mof_H 	H 	0.9448	0.6741	0.8328	0.086
Mof_H 	H 	0.9268	0.6769	0.7961	0.064
Mof_H 	H 	0.9269	0.7056	0.8206	0.076
Mof_O 	O 	0.4853	0.065	0.81244	-0.327
Mof_H 	H 	0.4448	0.1741	0.8328	0.085
Mof_H 	H 	0.4268	0.1769	0.7961	0.064
Mof_H 	H 	0.4269	0.2056	0.8206	0.076
Mof_O 	O 	0.4853	0.565	0.31244	-0.327
Mof_H 	H 	0.4448	0.6741	0.3328	0.085
Mof_H 	H 	0.4268	0.6769	0.2961	0.064
Mof_H 	H 	0.4269	0.7056	0.3206	0.076
Mof_O 	O 	0.9853	0.935	0.68756	-0.325
Mof_H 	H 	0.9448	0.8259	0.6672	0.086
Mof_H 	H 	0.9268	0.8231	0.7039	0.064
Mof_H 	H 	0.9269	0.7944	0.6794	0.076
Mof_O 	O 	0.9853	0.435	0.18756	-0.325
Mof_H 	H 	0.9448	0.3259	0.1672	0.086
Mof_H 	H 	0.9268	0.3231	0.2039	0.064
Mof_H 	H 	0.9269	0.2944	0.1794	0.076
Mof_O 	O 	0.4853	0.935	0.18756	-0.327
Mof_H 	H 	0.4448	0.8259	0.1672	0.085
Mof_H 	H 	0.4268	0.8231	0.2039	0.064
Mof_H 	H 	0.4269	0.7944	0.1794	0.076
Mof_O 	O 	0.4853	0.435	0.68756	-0.327
Mof_H 	H 	0.4448	0.3259	0.6672	0.085
Mof_H 	H 	0.4268	0.3231	0.7039	0.064
Mof_H 	H 	0.4269	0.2944	0.6794	0.076
Mof_O 	O 	0.0147	0.935	0.31244	-0.328
Mof_H 	H 	0.0552	0.8259	0.3328	0.085
Mof_H 	H 	0.0732	0.8231	0.2961	0.064
Mof_H 	H 	0.0731	0.7944	0.3206	0.076
Mof_O 	O 	0.0147	0.435	0.81244	-0.328
Mof_H 	H 	0.0552	0.3259	0.8328	0.085
Mof_H 	H 	0.0732	0.3231	0.7961	0.064
Mof_H 	H 	0.0731	0.2944	0.8206	0.076
Mof_O 	O 	0.5147	0.935	0.81244	-0.327
Mof_H 	H 	0.5552	0.8259	0.8328	0.085
Mof_H 	H 	0.5732	0.8231	0.7961	0.064
Mof_H 	H 	0.5731	0.7944	0.8206	0.076
Mof_O 	O 	0.5147	0.435	0.31244	-0.327
Mof_H 	H 	0.5552	0.3259	0.3328	0.085
Mof_H 	H 	0.5732	0.3231	0.2961	0.064
Mof_H 	H 	0.5731	0.2944	0.3206	0.076
Mof_O 	O 	0.065	0.31244	0.9853	-0.325
Mof_H 	H 	0.1741	0.3328	0.9448	0.086
Mof_H 	H 	0.1769	0.2961	0.9268	0.064
Mof_H 	H 	0.2056	0.3206	0.9269	0.076
Mof_O 	O 	0.065	0.81244	0.4853	-0.327
Mof_H 	H 	0.1741	0.8328	0.4448	0.085
Mof_H 	H 	0.1769	0.7961	0.4268	0.064
Mof_H 	H 	0.2056	0.8206	0.4269	0.076
Mof_O 	O 	0.565	0.31244	0.4853	-0.327
Mof_H 	H 	0.6741	0.3328	0.4448	0.085
Mof_H 	H 	0.6769	0.2961	0.4268	0.064
Mof_H 	H 	0.7056	0.3206	0.4269	0.076
Mof_O 	O 	0.565	0.81244	0.9853	-0.325
Mof_H 	H 	0.6741	0.8328	0.9448	0.086
Mof_H 	H 	0.6769	0.7961	0.9268	0.064
Mof_H 	H 	0.7056	0.8206	0.9269	0.076
Mof_O 	O 	0.065	0.68756	0.0147	-0.328
Mof_H 	H 	0.1741	0.6672	0.0552	0.085
Mof_H 	H 	0.1769	0.7039	0.0732	0.064
Mof_H 	H 	0.2056	0.6794	0.0731	0.076
Mof_O 	O 	0.065	0.18756	0.5147	-0.327
Mof_H 	H 	0.1741	0.1672	0.5552	0.085
Mof_H 	H 	0.1769	0.2039	0.5732	0.064
Mof_H 	H 	0.2056	0.1794	0.5731	0.076
Mof_O 	O 	0.565	0.68756	0.5147	-0.327
Mof_H 	H 	0.6741	0.6672	0.5552	0.085
Mof_H 	H 	0.6769	0.7039	0.5732	0.064
Mof_H 	H 	0.7056	0.6794	0.5731	0.076
Mof_O 	O 	0.565	0.18756	0.0147	-0.328
Mof_H 	H 	0.6741	0.1672	0.0552	0.085
Mof_H 	H 	0.6769	0.2039	0.0732	0.064
Mof_H 	H 	0.7056	0.1794	0.0731	0.076
Mof_O 	O 	0.935	0.31244	0.0147	-0.328
Mof_H 	H 	0.8259	0.3328	0.0552	0.085
Mof_H 	H 	0.8231	0.2961	0.0732	0.064
Mof_H 	H 	0.7944	0.3206	0.0731	0.076
Mof_O 	O 	0.935	0.81244	0.5147	-0.327
Mof_H 	H 	0.8259	0.8328	0.5552	0.085
Mof_H 	H 	0.8231	0.7961	0.5732	0.064
Mof_H 	H 	0.7944	0.8206	0.5731	0.076
Mof_O 	O 	0.435	0.31244	0.5147	-0.327
Mof_H 	H 	0.3259	0.3328	0.5552	0.085
Mof_H 	H 	0.3231	0.2961	0.5732	0.064
Mof_H 	H 	0.2944	0.3206	0.5731	0.076
Mof_O 	O 	0.435	0.81244	0.0147	-0.328
Mof_H 	H 	0.3259	0.8328	0.0552	0.085
Mof_H 	H 	0.3231	0.7961	0.0732	0.064
Mof_H 	H 	0.2944	0.8206	0.0731	0.076
Mof_O 	O 	0.935	0.68756	0.9853	-0.325
Mof_H 	H 	0.8259	0.6672	0.9448	0.086
Mof_H 	H 	0.8231	0.7039	0.9268	0.064
Mof_H 	H 	0.7944	0.6794	0.9269	0.076
Mof_O 	O 	0.935	0.18756	0.4853	-0.327
Mof_H 	H 	0.8259	0.1672	0.4448	0.085
Mof_H 	H 	0.8231	0.2039	0.4268	0.064
Mof_H 	H 	0.7944	0.1794	0.4269	0.076
Mof_O 	O 	0.435	0.68756	0.4853	-0.327
Mof_H 	H 	0.3259	0.6672	0.4448	0.085
Mof_H 	H 	0.3231	0.7039	0.4268	0.064
Mof_H 	H 	0.2944	0.6794	0.4269	0.076
Mof_O 	O 	0.435	0.18756	0.9853	-0.325
Mof_H 	H 	0.3259	0.1672	0.9448	0.086
Mof_H 	H 	0.3231	0.2039	0.9268	0.064
Mof_H 	H 	0.2944	0.1794	0.9269	0.076
Mof_O 	O 	0.9853	0.68756	0.935	-0.325
Mof_H 	H 	0.9448	0.6672	0.8259	0.086
Mof_H 	H 	0.9268	0.7039	0.8231	0.064
Mof_H 	H 	0.9269	0.6794	0.7944	0.076
Mof_O 	O 	0.9853	0.18756	0.435	-0.325
Mof_H 	H 	0.9448	0.1672	0.3259	0.086
Mof_H 	H 	0.9268	0.2039	0.3231	0.064
Mof_H 	H 	0.9269	0.1794	0.2944	0.076
Mof_O 	O 	0.4853	0.68756	0.435	-0.327
Mof_H 	H 	0.4448	0.6672	0.3259	0.085
Mof_H 	H 	0.4268	0.7039	0.3231	0.064
Mof_H 	H 	0.4269	0.6794	0.2944	0.076
Mof_O 	O 	0.4853	0.18756	0.935	-0.327
Mof_H 	H 	0.4448	0.1672	0.8259	0.085
Mof_H 	H 	0.4268	0.2039	0.8231	0.064
Mof_H 	H 	0.4269	0.1794	0.7944	0.076
Mof_O 	O 	0.0147	0.31244	0.935	-0.328
Mof_H 	H 	0.0552	0.3328	0.8259	0.085
Mof_H 	H 	0.0732	0.2961	0.8231	0.064
Mof_H 	H 	0.0731	0.3206	0.7944	0.076
Mof_O 	O 	0.0147	0.81244	0.435	-0.328
Mof_H 	H 	0.0552	0.8328	0.3259	0.085
Mof_H 	H 	0.0732	0.7961	0.3231	0.064
Mof_H 	H 	0.0731	0.8206	0.2944	0.076
Mof_O 	O 	0.5147	0.31244	0.435	-0.327
Mof_H 	H 	0.5552	0.3328	0.3259	0.085
Mof_H 	H 	0.5732	0.2961	0.3231	0.064
Mof_H 	H 	0.5731	0.3206	0.2944	0.076
Mof_O 	O 	0.5147	0.81244	0.935	-0.327
Mof_H 	H 	0.5552	0.8328	0.8259	0.085
Mof_H 	H 	0.5732	0.7961	0.8231	0.064
Mof_H 	H 	0.5731	0.8206	0.7944	0.076
Mof_O 	O 	0.0147	0.68756	0.065	-0.328
Mof_H 	H 	0.0552	0.6672	0.1741	0.085
Mof_H 	H 	0.0732	0.7039	0.1769	0.064
Mof_H 	H 	0.0731	0.6794	0.2056	0.076
Mof_O 	O 	0.0147	0.18756	0.565	-0.328
Mof_H 	H 	0.0552	0.1672	0.6741	0.085
Mof_H 	H 	0.0732	0.2039	0.6769	0.064
Mof_H 	H 	0.0731	0.1794	0.7056	0.076
Mof_O 	O 	0.5147	0.68756	0.565	-0.327
Mof_H 	H 	0.5552	0.6672	0.6741	0.085
Mof_H 	H 	0.5732	0.7039	0.6769	0.064
Mof_H 	H 	0.5731	0.6794	0.7056	0.076
Mof_O 	O 	0.5147	0.18756	0.065	-0.327
Mof_H 	H 	0.5552	0.1672	0.1741	0.085
Mof_H 	H 	0.5732	0.2039	0.1769	0.064
Mof_H 	H 	0.5731	0.1794	0.2056	0.076
Mof_O 	O 	0.9853	0.31244	0.065	-0.325
Mof_H 	H 	0.9448	0.3328	0.1741	0.086
Mof_H 	H 	0.9268	0.2961	0.1769	0.064
Mof_H 	H 	0.9269	0.3206	0.2056	0.076
Mof_O 	O 	0.9853	0.81244	0.565	-0.325
Mof_H 	H 	0.9448	0.8328	0.6741	0.086
Mof_H 	H 	0.9268	0.7961	0.6769	0.064
Mof_H 	H 	0.9269	0.8206	0.7056	0.076
Mof_O 	O 	0.4853	0.31244	0.565	-0.327
Mof_H 	H 	0.4448	0.3328	0.6741	0.085
Mof_H 	H 	0.4268	0.2961	0.6769	0.064
Mof_H 	H 	0.4269	0.3206	0.7056	0.076
Mof_O 	O 	0.4853	0.81244	0.065	-0.327
Mof_H 	H 	0.4448	0.8328	0.1741	0.085
Mof_H 	H 	0.4268	0.7961	0.1769	0.064
Mof_H 	H 	0.4269	0.8206	0.2056	0.076
Mof_O 	O 	0.935	0.9853	0.68756	-0.325
Mof_H 	H 	0.8259	0.9448	0.6672	0.086
Mof_H 	H 	0.8231	0.9268	0.7039	0.064
Mof_H 	H 	0.7944	0.9269	0.6794	0.076
Mof_O 	O 	0.935	0.4853	0.18756	-0.327
Mof_H 	H 	0.8259	0.4448	0.1672	0.085
Mof_H 	H 	0.8231	0.4268	0.2039	0.064
Mof_H 	H 	0.7944	0.4269	0.1794	0.076
Mof_O 	O 	0.435	0.9853	0.18756	-0.325
Mof_H 	H 	0.3259	0.9448	0.1672	0.086
Mof_H 	H 	0.3231	0.9268	0.2039	0.064
Mof_H 	H 	0.2944	0.9269	0.1794	0.076
Mof_O 	O 	0.435	0.4853	0.68756	-0.327
Mof_H 	H 	0.3259	0.4448	0.6672	0.085
Mof_H 	H 	0.3231	0.4268	0.7039	0.064
Mof_H 	H 	0.2944	0.4269	0.6794	0.076
Mof_O 	O 	0.935	0.0147	0.31244	-0.328
Mof_H 	H 	0.8259	0.0552	0.3328	0.085
Mof_H 	H 	0.8231	0.0732	0.2961	0.064
Mof_H 	H 	0.7944	0.0731	0.3206	0.076
Mof_O 	O 	0.935	0.5147	0.81244	-0.327
Mof_H 	H 	0.8259	0.5552	0.8328	0.085
Mof_H 	H 	0.8231	0.5732	0.7961	0.064
Mof_H 	H 	0.7944	0.5731	0.8206	0.076
Mof_O 	O 	0.435	0.0147	0.81244	-0.328
Mof_H 	H 	0.3259	0.0552	0.8328	0.085
Mof_H 	H 	0.3231	0.0732	0.7961	0.064
Mof_H 	H 	0.2944	0.0731	0.8206	0.076
Mof_O 	O 	0.435	0.5147	0.31244	-0.327
Mof_H 	H 	0.3259	0.5552	0.3328	0.085
Mof_H 	H 	0.3231	0.5732	0.2961	0.064
Mof_H 	H 	0.2944	0.5731	0.3206	0.076
Mof_O 	O 	0.065	0.0147	0.68756	-0.328
Mof_H 	H 	0.1741	0.0552	0.6672	0.085
Mof_H 	H 	0.1769	0.0732	0.7039	0.064
Mof_H 	H 	0.2056	0.0731	0.6794	0.076
Mof_O 	O 	0.065	0.5147	0.18756	-0.327
Mof_H 	H 	0.1741	0.5552	0.1672	0.085
Mof_H 	H 	0.1769	0.5732	0.2039	0.064
Mof_H 	H 	0.2056	0.5731	0.1794	0.076
Mof_O 	O 	0.565	0.0147	0.18756	-0.328
Mof_H 	H 	0.6741	0.0552	0.1672	0.085
Mof_H 	H 	0.6769	0.0732	0.2039	0.064
Mof_H 	H 	0.7056	0.0731	0.1794	0.076
Mof_O 	O 	0.565	0.5147	0.68756	-0.327
Mof_H 	H 	0.6741	0.5552	0.6672	0.085
Mof_H 	H 	0.6769	0.5732	0.7039	0.064
Mof_H 	H 	0.7056	0.5731	0.6794	0.076
Mof_O 	O 	0.065	0.9853	0.31244	-0.325
Mof_H 	H 	0.1741	0.9448	0.3328	0.086
Mof_H 	H 	0.1769	0.9268	0.2961	0.064
Mof_H 	H 	0.2056	0.9269	0.3206	0.076
Mof_O 	O 	0.065	0.4853	0.81244	-0.327
Mof_H 	H 	0.1741	0.4448	0.8328	0.085
Mof_H 	H 	0.1769	0.4268	0.7961	0.064
Mof_H 	H 	0.2056	0.4269	0.8206	0.076
Mof_O 	O 	0.565	0.9853	0.81244	-0.325
Mof_H 	H 	0.6741	0.9448	0.8328	0.086
Mof_H 	H 	0.6769	0.9268	0.7961	0.064
Mof_H 	H 	0.7056	0.9269	0.8206	0.076
Mof_O 	O 	0.565	0.4853	0.31244	-0.327
Mof_H 	H 	0.6741	0.4448	0.3328	0.085
Mof_H 	H 	0.6769	0.4268	0.2961	0.064
Mof_H 	H 	0.7056	0.4269	0.3206	0.076
Mof_O 	O 	0.68756	0.935	0.9853	-0.325
Mof_H 	H 	0.6672	0.8259	0.9448	0.086
Mof_H 	H 	0.7039	0.8231	0.9268	0.064
Mof_H 	H 	0.6794	0.7944	0.9269	0.076
Mof_O 	O 	0.68756	0.435	0.4853	-0.327
Mof_H 	H 	0.6672	0.3259	0.4448	0.085
Mof_H 	H 	0.7039	0.3231	0.4268	0.064
Mof_H 	H 	0.6794	0.2944	0.4269	0.076
Mof_O 	O 	0.18756	0.935	0.4853	-0.327
Mof_H 	H 	0.1672	0.8259	0.4448	0.085
Mof_H 	H 	0.2039	0.8231	0.4268	0.064
Mof_H 	H 	0.1794	0.7944	0.4269	0.076
Mof_O 	O 	0.18756	0.435	0.9853	-0.325
Mof_H 	H 	0.1672	0.3259	0.9448	0.086
Mof_H 	H 	0.2039	0.3231	0.9268	0.064
Mof_H 	H 	0.1794	0.2944	0.9269	0.076
Mof_O 	O 	0.31244	0.935	0.0147	-0.328
Mof_H 	H 	0.3328	0.8259	0.0552	0.085
Mof_H 	H 	0.2961	0.8231	0.0732	0.064
Mof_H 	H 	0.3206	0.7944	0.0731	0.076
Mof_O 	O 	0.31244	0.435	0.5147	-0.327
Mof_H 	H 	0.3328	0.3259	0.5552	0.085
Mof_H 	H 	0.2961	0.3231	0.5732	0.064
Mof_H 	H 	0.3206	0.2944	0.5731	0.076
Mof_O 	O 	0.81244	0.935	0.5147	-0.327
Mof_H 	H 	0.8328	0.8259	0.5552	0.085
Mof_H 	H 	0.7961	0.8231	0.5732	0.064
Mof_H 	H 	0.8206	0.7944	0.5731	0.076
Mof_O 	O 	0.81244	0.435	0.0147	-0.328
Mof_H 	H 	0.8328	0.3259	0.0552	0.085
Mof_H 	H 	0.7961	0.3231	0.0732	0.064
Mof_H 	H 	0.8206	0.2944	0.0731	0.076
Mof_O 	O 	0.68756	0.065	0.0147	-0.328
Mof_H 	H 	0.6672	0.1741	0.0552	0.085
Mof_H 	H 	0.7039	0.1769	0.0732	0.064
Mof_H 	H 	0.6794	0.2056	0.0731	0.076
Mof_O 	O 	0.68756	0.565	0.5147	-0.327
Mof_H 	H 	0.6672	0.6741	0.5552	0.085
Mof_H 	H 	0.7039	0.6769	0.5732	0.064
Mof_H 	H 	0.6794	0.7056	0.5731	0.076
Mof_O 	O 	0.18756	0.065	0.5147	-0.327
Mof_H 	H 	0.1672	0.1741	0.5552	0.085
Mof_H 	H 	0.2039	0.1769	0.5732	0.064
Mof_H 	H 	0.1794	0.2056	0.5731	0.076
Mof_O 	O 	0.18756	0.565	0.0147	-0.328
Mof_H 	H 	0.1672	0.6741	0.0552	0.085
Mof_H 	H 	0.2039	0.6769	0.0732	0.064
Mof_H 	H 	0.1794	0.7056	0.0731	0.076
Mof_O 	O 	0.31244	0.065	0.9853	-0.325
Mof_H 	H 	0.3328	0.1741	0.9448	0.086
Mof_H 	H 	0.2961	0.1769	0.9268	0.064
Mof_H 	H 	0.3206	0.2056	0.9269	0.076
Mof_O 	O 	0.31244	0.565	0.4853	-0.327
Mof_H 	H 	0.3328	0.6741	0.4448	0.085
Mof_H 	H 	0.2961	0.6769	0.4268	0.064
Mof_H 	H 	0.3206	0.7056	0.4269	0.076
Mof_O 	O 	0.81244	0.065	0.4853	-0.327
Mof_H 	H 	0.8328	0.1741	0.4448	0.085
Mof_H 	H 	0.7961	0.1769	0.4268	0.064
Mof_H 	H 	0.8206	0.2056	0.4269	0.076
Mof_O 	O 	0.81244	0.565	0.9853	-0.325
Mof_H 	H 	0.8328	0.6741	0.9448	0.086
Mof_H 	H 	0.7961	0.6769	0.9268	0.064
Mof_H 	H 	0.8206	0.7056	0.9269	0.076
Mof_O 	O 	0.68756	0.9853	0.065	-0.325
Mof_H 	H 	0.6672	0.9448	0.1741	0.086
Mof_H 	H 	0.7039	0.9268	0.1769	0.064
Mof_H 	H 	0.6794	0.9269	0.2056	0.076
Mof_O 	O 	0.68756	0.4853	0.565	-0.327
Mof_H 	H 	0.6672	0.4448	0.6741	0.085
Mof_H 	H 	0.7039	0.4268	0.6769	0.064
Mof_H 	H 	0.6794	0.4269	0.7056	0.076
Mof_O 	O 	0.18756	0.9853	0.565	-0.325
Mof_H 	H 	0.1672	0.9448	0.6741	0.086
Mof_H 	H 	0.2039	0.9268	0.6769	0.064
Mof_H 	H 	0.1794	0.9269	0.7056	0.076
Mof_O 	O 	0.18756	0.4853	0.065	-0.327
Mof_H 	H 	0.1672	0.4448	0.1741	0.085
Mof_H 	H 	0.2039	0.4268	0.1769	0.064
Mof_H 	H 	0.1794	0.4269	0.2056	0.076
Mof_O 	O 	0.31244	0.0147	0.065	-0.328
Mof_H 	H 	0.3328	0.0552	0.1741	0.085
Mof_H 	H 	0.2961	0.0732	0.1769	0.064
Mof_H 	H 	0.3206	0.0731	0.2056	0.076
Mof_O 	O 	0.31244	0.5147	0.565	-0.327
Mof_H 	H 	0.3328	0.5552	0.6741	0.085
Mof_H 	H 	0.2961	0.5732	0.6769	0.064
Mof_H 	H 	0.3206	0.5731	0.7056	0.076
Mof_O 	O 	0.81244	0.0147	0.565	-0.328
Mof_H 	H 	0.8328	0.0552	0.6741	0.085
Mof_H 	H 	0.7961	0.0732	0.6769	0.064
Mof_H 	H 	0.8206	0.0731	0.7056	0.076
Mof_O 	O 	0.81244	0.5147	0.065	-0.327
Mof_H 	H 	0.8328	0.5552	0.1741	0.085
Mof_H 	H 	0.7961	0.5732	0.1769	0.064
Mof_H 	H 	0.8206	0.5731	0.2056	0.076
Mof_O 	O 	0.68756	0.0147	0.935	-0.328
Mof_H 	H 	0.6672	0.0552	0.8259	0.086
Mof_H 	H 	0.7039	0.0732	0.8231	0.064
Mof_H 	H 	0.6794	0.0731	0.7944	0.076
Mof_O 	O 	0.68756	0.5147	0.435	-0.327
Mof_H 	H 	0.6672	0.5552	0.3259	0.085
Mof_H 	H 	0.7039	0.5732	0.3231	0.064
Mof_H 	H 	0.6794	0.5731	0.2944	0.076
Mof_O 	O 	0.18756	0.0147	0.435	-0.328
Mof_H 	H 	0.1672	0.0552	0.3259	0.085
Mof_H 	H 	0.2039	0.0732	0.3231	0.064
Mof_H 	H 	0.1794	0.0731	0.2944	0.076
Mof_O 	O 	0.18756	0.5147	0.935	-0.327
Mof_H 	H 	0.1672	0.5552	0.8259	0.085
Mof_H 	H 	0.2039	0.5732	0.8231	0.064
Mof_H 	H 	0.1794	0.5731	0.7944	0.076
Mof_O 	O 	0.31244	0.9853	0.935	-0.325
Mof_H 	H 	0.3328	0.9448	0.8259	0.086
Mof_H 	H 	0.2961	0.9268	0.8231	0.064
Mof_H 	H 	0.3206	0.9269	0.7944	0.076
Mof_O 	O 	0.31244	0.4853	0.435	-0.327
Mof_H 	H 	0.3328	0.4448	0.3259	0.085
Mof_H 	H 	0.2961	0.4268	0.3231	0.064
Mof_H 	H 	0.3206	0.4269	0.2944	0.076
Mof_O 	O 	0.81244	0.9853	0.435	-0.325
Mof_H 	H 	0.8328	0.9448	0.3259	0.086
Mof_H 	H 	0.7961	0.9268	0.3231	0.064
Mof_H 	H 	0.8206	0.9269	0.2944	0.076
Mof_O 	O 	0.81244	0.4853	0.935	-0.327
Mof_H 	H 	0.8328	0.4448	0.8259	0.085
Mof_H 	H 	0.7961	0.4268	0.8231	0.064
Mof_H 	H 	0.8206	0.4269	0.7944	0.076
Mof_O 	O 	0.9853	0.935	0.31244	-0.325
Mof_H 	H 	0.9448	0.8259	0.3328	0.086
Mof_H 	H 	0.9268	0.8231	0.2961	0.064
Mof_H 	H 	0.9269	0.7944	0.3206	0.076
Mof_O 	O 	0.9853	0.435	0.81244	-0.325
Mof_H 	H 	0.9448	0.3259	0.8328	0.086
Mof_H 	H 	0.9268	0.3231	0.7961	0.064
Mof_H 	H 	0.9269	0.2944	0.8206	0.076
Mof_O 	O 	0.4853	0.935	0.81244	-0.327
Mof_H 	H 	0.4448	0.8259	0.8328	0.085
Mof_H 	H 	0.4268	0.8231	0.7961	0.064
Mof_H 	H 	0.4269	0.7944	0.8206	0.076
Mof_O 	O 	0.4853	0.435	0.31244	-0.327
Mof_H 	H 	0.4448	0.3259	0.3328	0.085
Mof_H 	H 	0.4268	0.3231	0.2961	0.064
Mof_H 	H 	0.4269	0.2944	0.3206	0.076
Mof_O 	O 	0.0147	0.935	0.68756	-0.328
Mof_H 	H 	0.0552	0.8259	0.6672	0.086
Mof_H 	H 	0.0732	0.8231	0.7039	0.064
Mof_H 	H 	0.0731	0.7944	0.6794	0.076
Mof_O 	O 	0.0147	0.435	0.18756	-0.328
Mof_H 	H 	0.0552	0.3259	0.1672	0.085
Mof_H 	H 	0.0732	0.3231	0.2039	0.064
Mof_H 	H 	0.0731	0.2944	0.1794	0.076
Mof_O 	O 	0.5147	0.935	0.18756	-0.327
Mof_H 	H 	0.5552	0.8259	0.1672	0.085
Mof_H 	H 	0.5732	0.8231	0.2039	0.064
Mof_H 	H 	0.5731	0.7944	0.1794	0.076
Mof_O 	O 	0.5147	0.435	0.68756	-0.327
Mof_H 	H 	0.5552	0.3259	0.6672	0.085
Mof_H 	H 	0.5732	0.3231	0.7039	0.064
Mof_H 	H 	0.5731	0.2944	0.6794	0.076
Mof_O 	O 	0.0147	0.065	0.31244	-0.328
Mof_H 	H 	0.0552	0.1741	0.3328	0.085
Mof_H 	H 	0.0732	0.1769	0.2961	0.064
Mof_H 	H 	0.0731	0.2056	0.3206	0.076
Mof_O 	O 	0.0147	0.565	0.81244	-0.328
Mof_H 	H 	0.0552	0.6741	0.8328	0.085
Mof_H 	H 	0.0732	0.6769	0.7961	0.064
Mof_H 	H 	0.0731	0.7056	0.8206	0.076
Mof_O 	O 	0.5147	0.065	0.81244	-0.327
Mof_H 	H 	0.5552	0.1741	0.8328	0.085
Mof_H 	H 	0.5732	0.1769	0.7961	0.064
Mof_H 	H 	0.5731	0.2056	0.8206	0.076
Mof_O 	O 	0.5147	0.565	0.31244	-0.327
Mof_H 	H 	0.5552	0.6741	0.3328	0.085
Mof_H 	H 	0.5732	0.6769	0.2961	0.064
Mof_H 	H 	0.5731	0.7056	0.3206	0.076
Mof_O 	O 	0.9853	0.065	0.68756	-0.325
Mof_H 	H 	0.9448	0.1741	0.6672	0.086
Mof_H 	H 	0.9268	0.1769	0.7039	0.064
Mof_H 	H 	0.9269	0.2056	0.6794	0.076
Mof_O 	O 	0.9853	0.565	0.18756	-0.325
Mof_H 	H 	0.9448	0.6741	0.1672	0.086
Mof_H 	H 	0.9268	0.6769	0.2039	0.064
Mof_H 	H 	0.9269	0.7056	0.1794	0.076
Mof_O 	O 	0.4853	0.065	0.18756	-0.327
Mof_H 	H 	0.4448	0.1741	0.1672	0.085
Mof_H 	H 	0.4268	0.1769	0.2039	0.064
Mof_H 	H 	0.4269	0.2056	0.1794	0.076
Mof_O 	O 	0.4853	0.565	0.68756	-0.327
Mof_H 	H 	0.4448	0.6741	0.6672	0.085
Mof_H 	H 	0.4268	0.6769	0.7039	0.064
Mof_H 	H 	0.4269	0.7056	0.6794	0.076
Mof_O 	O 	0.935	0.68756	0.0147	-0.328
Mof_H 	H 	0.8259	0.6672	0.0552	0.086
Mof_H 	H 	0.8231	0.7039	0.0732	0.064
Mof_H 	H 	0.7944	0.6794	0.0731	0.076
Mof_O 	O 	0.935	0.18756	0.5147	-0.327
Mof_H 	H 	0.8259	0.1672	0.5552	0.085
Mof_H 	H 	0.8231	0.2039	0.5732	0.064
Mof_H 	H 	0.7944	0.1794	0.5731	0.076
Mof_O 	O 	0.435	0.68756	0.5147	-0.327
Mof_H 	H 	0.3259	0.6672	0.5552	0.085
Mof_H 	H 	0.3231	0.7039	0.5732	0.064
Mof_H 	H 	0.2944	0.6794	0.5731	0.076
Mof_O 	O 	0.435	0.18756	0.0147	-0.328
Mof_H 	H 	0.3259	0.1672	0.0552	0.085
Mof_H 	H 	0.3231	0.2039	0.0732	0.064
Mof_H 	H 	0.2944	0.1794	0.0731	0.076
Mof_O 	O 	0.935	0.31244	0.9853	-0.325
Mof_H 	H 	0.8259	0.3328	0.9448	0.086
Mof_H 	H 	0.8231	0.2961	0.9268	0.064
Mof_H 	H 	0.7944	0.3206	0.9269	0.076
Mof_O 	O 	0.935	0.81244	0.4853	-0.327
Mof_H 	H 	0.8259	0.8328	0.4448	0.085
Mof_H 	H 	0.8231	0.7961	0.4268	0.064
Mof_H 	H 	0.7944	0.8206	0.4269	0.076
Mof_O 	O 	0.435	0.31244	0.4853	-0.327
Mof_H 	H 	0.3259	0.3328	0.4448	0.085
Mof_H 	H 	0.3231	0.2961	0.4268	0.064
Mof_H 	H 	0.2944	0.3206	0.4269	0.076
Mof_O 	O 	0.435	0.81244	0.9853	-0.325
Mof_H 	H 	0.3259	0.8328	0.9448	0.086
Mof_H 	H 	0.3231	0.7961	0.9268	0.064
Mof_H 	H 	0.2944	0.8206	0.9269	0.076
Mof_O 	O 	0.065	0.68756	0.9853	-0.325
Mof_H 	H 	0.1741	0.6672	0.9448	0.086
Mof_H 	H 	0.1769	0.7039	0.9268	0.064
Mof_H 	H 	0.2056	0.6794	0.9269	0.076
Mof_O 	O 	0.065	0.18756	0.4853	-0.327
Mof_H 	H 	0.1741	0.1672	0.4448	0.085
Mof_H 	H 	0.1769	0.2039	0.4268	0.064
Mof_H 	H 	0.2056	0.1794	0.4269	0.076
Mof_O 	O 	0.565	0.68756	0.4853	-0.327
Mof_H 	H 	0.6741	0.6672	0.4448	0.085
Mof_H 	H 	0.6769	0.7039	0.4268	0.064
Mof_H 	H 	0.7056	0.6794	0.4269	0.076
Mof_O 	O 	0.565	0.18756	0.9853	-0.325
Mof_H 	H 	0.6741	0.1672	0.9448	0.086
Mof_H 	H 	0.6769	0.2039	0.9268	0.064
Mof_H 	H 	0.7056	0.1794	0.9269	0.076
Mof_O 	O 	0.065	0.31244	0.0147	-0.328
Mof_H 	H 	0.1741	0.3328	0.0552	0.085
Mof_H 	H 	0.1769	0.2961	0.0732	0.064
Mof_H 	H 	0.2056	0.3206	0.0731	0.076
Mof_O 	O 	0.065	0.81244	0.5147	-0.327
Mof_H 	H 	0.1741	0.8328	0.5552	0.085
Mof_H 	H 	0.1769	0.7961	0.5732	0.064
Mof_H 	H 	0.2056	0.8206	0.5731	0.076
Mof_O 	O 	0.565	0.31244	0.5147	-0.327
Mof_H 	H 	0.6741	0.3328	0.5552	0.085
Mof_H 	H 	0.6769	0.2961	0.5732	0.064
Mof_H 	H 	0.7056	0.3206	0.5731	0.076
Mof_O 	O 	0.565	0.81244	0.0147	-0.328
Mof_H 	H 	0.6741	0.8328	0.0552	0.085
Mof_H 	H 	0.6769	0.7961	0.0732	0.064
Mof_H 	H 	0.7056	0.8206	0.0731	0.076
Mof_Fe	Fe	2.98001e-33	0.3599	-0	0.963
Mof_O 	O 	-2.98001e-33	0.3122	-0	-0.657
Mof_Fe	Fe	1.8747e-33	0.8599	0.5	0.964
Mof_O 	O 	-4.08533e-33	0.8122	0.5	-0.656
Mof_Fe	Fe	0.5	0.3599	0.5	0.965
Mof_O 	O 	0.5	0.3122	0.5	-0.655
Mof_Fe	Fe	0.5	0.8599	-0	0.964
Mof_O 	O 	0.5	0.8122	-0	-0.656
Mof_Fe	Fe	-0	0.6401	-0	0.963
Mof_O 	O 	-0	0.6878	-0	-0.657
Mof_Fe	Fe	-4.08533e-33	0.1401	0.5	0.964
Mof_O 	O 	-4.08533e-33	0.1878	0.5	-0.656
Mof_Fe	Fe	0.5	0.6401	0.5	0.965
Mof_O 	O 	0.5	0.6878	0.5	-0.655
Mof_Fe	Fe	0.5	0.1401	-0	0.964
Mof_O 	O 	0.5	0.1878	-0	-0.656
Mof_Fe	Fe	4.32942e-33	2.98001e-33	0.3599	0.963
Mof_O 	O 	-1.80945e-33	-2.98001e-33	0.3122	-0.657
Mof_Fe	Fe	3.22411e-33	0.5	0.8599	0.964
Mof_O 	O 	-2.91477e-33	0.5	0.8122	-0.656
Mof_Fe	Fe	0.5	0	0.8599	0.964
Mof_O 	O 	0.5	-5.96003e-33	0.8122	-0.656
Mof_Fe	Fe	0.5	0.5	0.3599	0.965
Mof_O 	O 	0.5	0.5	0.3122	-0.655
Mof_Fe	Fe	2.39999e-33	0	0.6401	0.963
Mof_O 	O 	2.57884e-33	0	0.6878	-0.657
Mof_Fe	Fe	-2.45472e-33	0.5	0.1401	0.964
Mof_O 	O 	-7.8587e-34	0.5	0.1878	-0.656
Mof_Fe	Fe	0.5	0	0.1401	0.964
Mof_O 	O 	0.5	1.49001e-33	0.1878	-0.656
Mof_Fe	Fe	0.5	0.5	0.6401	0.965
Mof_O 	O 	0.5	0.5	0.6878	-0.655
Mof_Fe	Fe	0.3599	0	-0	0.963
Mof_O 	O 	0.3122	0	-0	-0.657
Mof_Fe	Fe	0.3599	0.5	0.5	0.965
Mof_O 	O 	0.3122	0.5	0.5	-0.655
Mof_Fe	Fe	0.8599	0	0.5	0.964
Mof_O 	O 	0.8122	0	0.5	-0.656
Mof_Fe	Fe	0.8599	0.5	-0	0.964
Mof_O 	O 	0.8122	0.5	-0	-0.656
Mof_Fe	Fe	0.6401	0	-0	0.963
Mof_O 	O 	0.6878	0	-0	-0.657
Mof_Fe	Fe	0.6401	0.5	0.5	0.965
Mof_O 	O 	0.6878	0.5	0.5	-0.655
Mof_Fe	Fe	0.1401	0	0.5	0.964
Mof_O 	O 	0.1878	0	0.5	-0.656
Mof_Fe	Fe	0.1401	0.5	-0	0.964
Mof_O 	O 	0.1878	0.5	-0	-0.656
Mof_Fe	Fe	0.02727	0.28953	0.02727	0.529
Mof_Fe	Fe	0.02727	0.78953	0.52727	0.53
Mof_Fe	Fe	0.52727	0.28953	0.52727	0.53
Mof_Fe	Fe	0.52727	0.78953	0.02727	0.53
Mof_Fe	Fe	0.97273	0.71047	0.02727	0.531
Mof_Fe	Fe	0.97273	0.21047	0.52727	0.532
Mof_Fe	Fe	0.47273	0.71047	0.52727	0.531
Mof_Fe	Fe	0.47273	0.21047	0.02727	0.53
Mof_Fe	Fe	0.97273	0.28953	0.97273	0.534
Mof_Fe	Fe	0.97273	0.78953	0.47273	0.532
Mof_Fe	Fe	0.47273	0.28953	0.47273	0.53
Mof_Fe	Fe	0.47273	0.78953	0.97273	0.532
Mof_Fe	Fe	0.02727	0.71047	0.97273	0.531
Mof_Fe	Fe	0.02727	0.21047	0.47273	0.53
Mof_Fe	Fe	0.52727	0.71047	0.47273	0.531
Mof_Fe	Fe	0.52727	0.21047	0.97273	0.532
Mof_Fe	Fe	0.02727	0.02727	0.28953	0.529
Mof_Fe	Fe	0.02727	0.52727	0.78953	0.53
Mof_Fe	Fe	0.52727	0.02727	0.78953	0.53
Mof_Fe	Fe	0.52727	0.52727	0.28953	0.53
Mof_Fe	Fe	0.02727	0.97273	0.71047	0.531
Mof_Fe	Fe	0.02727	0.47273	0.21047	0.53
Mof_Fe	Fe	0.52727	0.97273	0.21047	0.532
Mof_Fe	Fe	0.52727	0.47273	0.71047	0.531
Mof_Fe	Fe	0.97273	0.97273	0.28953	0.534
Mof_Fe	Fe	0.97273	0.47273	0.78953	0.532
Mof_Fe	Fe	0.47273	0.97273	0.78953	0.532
Mof_Fe	Fe	0.47273	0.47273	0.28953	0.53
Mof_Fe	Fe	0.97273	0.02727	0.71047	0.531
Mof_Fe	Fe	0.97273	0.52727	0.21047	0.532
Mof_Fe	Fe	0.47273	0.02727	0.21047	0.53
Mof_Fe	Fe	0.47273	0.52727	0.71047	0.531
Mof_Fe	Fe	0.28953	0.02727	0.02727	0.529
Mof_Fe	Fe	0.28953	0.52727	0.52727	0.53
Mof_Fe	Fe	0.78953	0.02727	0.52727	0.53
Mof_Fe	Fe	0.78953	0.52727	0.02727	0.53
Mof_Fe	Fe	0.71047	0.02727	0.97273	0.531
Mof_Fe	Fe	0.71047	0.52727	0.47273	0.531
Mof_Fe	Fe	0.21047	0.02727	0.47273	0.53
Mof_Fe	Fe	0.21047	0.52727	0.97273	0.532
Mof_Fe	Fe	0.28953	0.97273	0.97273	0.534
Mof_Fe	Fe	0.28953	0.47273	0.47273	0.53
Mof_Fe	Fe	0.78953	0.97273	0.47273	0.532
Mof_Fe	Fe	0.78953	0.47273	0.97273	0.532
Mof_Fe	Fe	0.71047	0.97273	0.02727	0.531
Mof_Fe	Fe	0.71047	0.47273	0.52727	0.531
Mof_Fe	Fe	0.21047	0.97273	0.52727	0.532
Mof_Fe	Fe	0.21047	0.47273	0.02727	0.53
Mof_Fe	Fe	0.28953	0.02727	0.97273	0.531
Mof_Fe	Fe	0.28953	0.52727	0.47273	0.53
Mof_Fe	Fe	0.78953	0.02727	0.47273	0.53
Mof_Fe	Fe	0.78953	0.52727	0.97273	0.532
Mof_Fe	Fe	0.71047	0.97273	0.97273	0.534
Mof_Fe	Fe	0.71047	0.47273	0.47273	0.531
Mof_Fe	Fe	0.21047	0.97273	0.47273	0.532
Mof_Fe	Fe	0.21047	0.47273	0.97273	0.532
Mof_Fe	Fe	0.28953	0.97273	0.02727	0.531
Mof_Fe	Fe	0.28953	0.47273	0.52727	0.53
Mof_Fe	Fe	0.78953	0.97273	0.52727	0.532
Mof_Fe	Fe	0.78953	0.47273	0.02727	0.53
Mof_Fe	Fe	0.71047	0.02727	0.02727	0.529
Mof_Fe	Fe	0.71047	0.52727	0.52727	0.531
Mof_Fe	Fe	0.21047	0.02727	0.52727	0.53
Mof_Fe	Fe	0.21047	0.52727	0.02727	0.53
Mof_Fe	Fe	0.02727	0.02727	0.71047	0.529
Mof_Fe	Fe	0.02727	0.52727	0.21047	0.53
Mof_Fe	Fe	0.52727	0.02727	0.21047	0.53
Mof_Fe	Fe	0.52727	0.52727	0.71047	0.531
Mof_Fe	Fe	0.97273	0.02727	0.28953	0.531
Mof_Fe	Fe	0.97273	0.52727	0.78953	0.532
Mof_Fe	Fe	0.47273	0.02727	0.78953	0.53
Mof_Fe	Fe	0.47273	0.52727	0.28953	0.53
Mof_Fe	Fe	0.97273	0.97273	0.71047	0.534
Mof_Fe	Fe	0.97273	0.47273	0.21047	0.532
Mof_Fe	Fe	0.47273	0.97273	0.21047	0.532
Mof_Fe	Fe	0.47273	0.47273	0.71047	0.531
Mof_Fe	Fe	0.02727	0.97273	0.28953	0.531
Mof_Fe	Fe	0.02727	0.47273	0.78953	0.53
Mof_Fe	Fe	0.52727	0.97273	0.78953	0.532
Mof_Fe	Fe	0.52727	0.47273	0.28953	0.53
Mof_Fe	Fe	0.02727	0.28953	0.97273	0.531
Mof_Fe	Fe	0.02727	0.78953	0.47273	0.53
Mof_Fe	Fe	0.52727	0.28953	0.47273	0.53
Mof_Fe	Fe	0.52727	0.78953	0.97273	0.532
Mof_Fe	Fe	0.02727	0.71047	0.02727	0.529
Mof_Fe	Fe	0.02727	0.21047	0.52727	0.53
Mof_Fe	Fe	0.52727	0.71047	0.52727	0.531
Mof_Fe	Fe	0.52727	0.21047	0.02727	0.53
Mof_Fe	Fe	0.97273	0.28953	0.02727	0.531
Mof_Fe	Fe	0.97273	0.78953	0.52727	0.532
Mof_Fe	Fe	0.47273	0.28953	0.52727	0.53
Mof_Fe	Fe	0.47273	0.78953	0.02727	0.53
Mof_Fe	Fe	0.97273	0.71047	0.97273	0.534
Mof_Fe	Fe	0.97273	0.21047	0.47273	0.532
Mof_Fe	Fe	0.47273	0.71047	0.47273	0.531
Mof_Fe	Fe	0.47273	0.21047	0.97273	0.532
Mof_O 	O 	1.30662e-33	0.36249	0.05044	-0.401
Mof_C 	C 	2.50347e-33	0.33935	0.0716	0.514
Mof_C 	C 	1.88902e-33	0.35181	0.10642	-0.15
Mof_C 	C 	3.46946e-33	0.3277	0.13054	-0.02
Mof_H 	H 	3.44681e-33	0.3052	0.1245	0.04
Mof_O 	O 	8.02385e-33	0.86249	0.55044	-0.401
Mof_C 	C 	2.14316e-33	0.83935	0.5716	0.514
Mof_C 	C 	-3.68632e-33	0.85181	0.60642	-0.15
Mof_C 	C 	-3.59588e-33	0.8277	0.63054	-0.02
Mof_H 	H 	-2.14986e-32	0.8052	0.6245	0.04
Mof_O 	O 	0.5	0.36249	0.55044	-0.402
Mof_C 	C 	0.5	0.33935	0.5716	0.516
Mof_C 	C 	0.5	0.35181	0.60642	-0.151
Mof_C 	C 	0.5	0.3277	0.63054	-0.019
Mof_H 	H 	0.5	0.3052	0.6245	0.04
Mof_O 	O 	0.5	0.86249	0.05044	-0.401
Mof_C 	C 	0.5	0.83935	0.0716	0.516
Mof_C 	C 	0.5	0.85181	0.10642	-0.151
Mof_C 	C 	0.5	0.8277	0.13054	-0.019
Mof_H 	H 	0.5	0.8052	0.1245	0.04
Mof_O 	O 	1.30662e-33	0.63751	0.05044	-0.401
Mof_C 	C 	-4.76546e-34	0.66065	0.0716	0.514
Mof_C 	C 	-4.07101e-33	0.64819	0.10642	-0.15
Mof_C 	C 	9.42949e-33	0.6723	0.13054	-0.02
Mof_H 	H 	-5.49323e-33	0.6948	0.1245	0.04
Mof_O 	O 	-3.89621e-33	0.13751	0.55044	-0.402
Mof_C 	C 	-3.81687e-33	0.16065	0.5716	0.514
Mof_C 	C 	2.27371e-33	0.14819	0.60642	-0.15
Mof_C 	C 	-3.59588e-33	0.1723	0.63054	-0.02
Mof_H 	H 	-3.61853e-33	0.1948	0.6245	0.04
Mof_O 	O 	0.5	0.63751	0.55044	-0.402
Mof_C 	C 	0.5	0.66065	0.5716	0.516
Mof_C 	C 	0.5	0.64819	0.60642	-0.151
Mof_C 	C 	0.5	0.6723	0.63054	-0.019
Mof_H 	H 	0.5	0.6948	0.6245	0.04
Mof_O 	O 	0.5	0.13751	0.05044	-0.402
Mof_C 	C 	0.5	0.16065	0.0716	0.516
Mof_C 	C 	0.5	0.14819	0.10642	-0.151
Mof_C 	C 	0.5	0.1723	0.13054	-0.019
Mof_H 	H 	0.5	0.1948	0.1245	0.04
Mof_O 	O 	-8.35978e-33	0.36249	0.94956	-0.401
Mof_C 	C 	3.48094e-33	0.33935	0.9284	0.514
Mof_C 	C 	3.35039e-33	0.35181	0.89358	-0.15
Mof_C 	C 	-1.46201e-32	0.3277	0.86946	-0.02
Mof_H 	H 	-8.63746e-33	0.3052	0.8755	0.04
Mof_O 	O 	7.64561e-33	0.86249	0.44956	-0.401
Mof_C 	C 	4.58626e-33	0.83935	0.4284	0.514
Mof_C 	C 	4.4557e-33	0.85181	0.39358	-0.15
Mof_C 	C 	1.38525e-33	0.8277	0.36946	-0.02
Mof_H 	H 	-1.34922e-32	0.8052	0.3755	0.04
Mof_O 	O 	0.5	0.36249	0.44956	-0.402
Mof_C 	C 	0.5	0.33935	0.4284	0.516
Mof_C 	C 	0.5	0.35181	0.39358	-0.151
Mof_C 	C 	0.5	0.3277	0.36946	-0.019
Mof_H 	H 	0.5	0.3052	0.3755	0.04
Mof_O 	O 	0.5	0.86249	0.94956	-0.401
Mof_C 	C 	0.5	0.83935	0.9284	0.516
Mof_C 	C 	0.5	0.85181	0.89358	-0.15
Mof_C 	C 	0.5	0.8277	0.86946	-0.019
Mof_H 	H 	0.5	0.8052	0.8755	0.041
Mof_O 	O 	-8.35978e-33	0.63751	0.94956	-0.401
Mof_C 	C 	-8.43911e-33	0.66065	0.9284	0.514
Mof_C 	C 	-8.56967e-33	0.64819	0.89358	-0.15
Mof_C 	C 	3.25995e-33	0.6723	0.86946	-0.02
Mof_H 	H 	-2.67743e-33	0.6948	0.8755	0.04
Mof_O 	O 	-4.27445e-33	0.13751	0.44956	-0.402
Mof_C 	C 	1.60624e-33	0.16065	0.4284	0.514
Mof_C 	C 	4.4557e-33	0.14819	0.39358	-0.15
Mof_C 	C 	-4.57477e-33	0.1723	0.36946	-0.02
Mof_H 	H 	4.38791e-33	0.1948	0.3755	0.04
Mof_O 	O 	0.5	0.63751	0.44956	-0.402
Mof_C 	C 	0.5	0.66065	0.4284	0.516
Mof_C 	C 	0.5	0.64819	0.39358	-0.151
Mof_C 	C 	0.5	0.6723	0.36946	-0.019
Mof_H 	H 	0.5	0.6948	0.3755	0.04
Mof_O 	O 	0.5	0.13751	0.94956	-0.401
Mof_C 	C 	0.5	0.16065	0.9284	0.516
Mof_C 	C 	0.5	0.14819	0.89358	-0.151
Mof_C 	C 	0.5	0.1723	0.86946	-0.019
Mof_H 	H 	0.5	0.1948	0.8755	0.041
Mof_O 	O 	0.05044	0	0.36249	-0.401
Mof_C 	C 	0.0716	0	0.33935	0.514
Mof_C 	C 	0.10642	0	0.35181	-0.15
Mof_C 	C 	0.13054	0	0.3277	-0.02
Mof_H 	H 	0.1245	0	0.3052	0.04
Mof_O 	O 	0.05044	0.5	0.86249	-0.401
Mof_C 	C 	0.0716	0.5	0.83935	0.516
Mof_C 	C 	0.10642	0.5	0.85181	-0.151
Mof_C 	C 	0.13054	0.5	0.8277	-0.019
Mof_H 	H 	0.1245	0.5	0.8052	0.04
Mof_O 	O 	0.55044	5.96003e-33	0.86249	-0.401
Mof_C 	C 	0.5716	0	0.83935	0.514
Mof_C 	C 	0.60642	0	0.85181	-0.15
Mof_C 	C 	0.63054	0	0.8277	-0.02
Mof_H 	H 	0.6245	-1.19201e-32	0.8052	0.04
Mof_O 	O 	0.55044	0.5	0.36249	-0.402
Mof_C 	C 	0.5716	0.5	0.33935	0.516
Mof_C 	C 	0.60642	0.5	0.35181	-0.151
Mof_C 	C 	0.63054	0.5	0.3277	-0.019
Mof_H 	H 	0.6245	0.5	0.3052	0.04
Mof_O 	O 	0.05044	0	0.63751	-0.401
Mof_C 	C 	0.0716	-5.96003e-33	0.66065	0.514
Mof_C 	C 	0.10642	0	0.64819	-0.15
Mof_C 	C 	0.13054	0	0.6723	-0.02
Mof_H 	H 	0.1245	0	0.6948	0.04
Mof_O 	O 	0.05044	0.5	0.13751	-0.402
Mof_C 	C 	0.0716	0.5	0.16065	0.516
Mof_C 	C 	0.10642	0.5	0.14819	-0.151
Mof_C 	C 	0.13054	0.5	0.1723	-0.019
Mof_H 	H 	0.1245	0.5	0.1948	0.04
Mof_O 	O 	0.55044	0	0.13751	-0.402
Mof_C 	C 	0.5716	0	0.16065	0.514
Mof_C 	C 	0.60642	-1.49001e-33	0.14819	-0.15
Mof_C 	C 	0.63054	0	0.1723	-0.02
Mof_H 	H 	0.6245	0	0.1948	0.04
Mof_O 	O 	0.55044	0.5	0.63751	-0.402
Mof_C 	C 	0.5716	0.5	0.66065	0.516
Mof_C 	C 	0.60642	0.5	0.64819	-0.151
Mof_C 	C 	0.63054	0.5	0.6723	-0.019
Mof_H 	H 	0.6245	0.5	0.6948	0.04
Mof_O 	O 	0.94956	0	0.36249	-0.401
Mof_C 	C 	0.9284	0	0.33935	0.514
Mof_C 	C 	0.89358	0	0.35181	-0.15
Mof_C 	C 	0.86946	0	0.3277	-0.02
Mof_H 	H 	0.8755	0	0.3052	0.04
Mof_O 	O 	0.94956	0.5	0.86249	-0.401
Mof_C 	C 	0.9284	0.5	0.83935	0.516
Mof_C 	C 	0.89358	0.5	0.85181	-0.15
Mof_C 	C 	0.86946	0.5	0.8277	-0.019
Mof_H 	H 	0.8755	0.5	0.8052	0.041
Mof_O 	O 	0.44956	5.96003e-33	0.86249	-0.401
Mof_C 	C 	0.4284	0	0.83935	0.514
Mof_C 	C 	0.39358	0	0.85181	-0.15
Mof_C 	C 	0.36946	0	0.8277	-0.02
Mof_H 	H 	0.3755	-1.19201e-32	0.8052	0.04
Mof_O 	O 	0.44956	0.5	0.36249	-0.402
Mof_C 	C 	0.4284	0.5	0.33935	0.516
Mof_C 	C 	0.39358	0.5	0.35181	-0.151
Mof_C 	C 	0.36946	0.5	0.3277	-0.019
Mof_H 	H 	0.3755	0.5	0.3052	0.04
Mof_O 	O 	0.94956	0	0.63751	-0.401
Mof_C 	C 	0.9284	-5.96003e-33	0.66065	0.514
Mof_C 	C 	0.89358	0	0.64819	-0.15
Mof_C 	C 	0.86946	0	0.6723	-0.02
Mof_H 	H 	0.8755	0	0.6948	0.04
Mof_O 	O 	0.94956	0.5	0.13751	-0.401
Mof_C 	C 	0.9284	0.5	0.16065	0.516
Mof_C 	C 	0.89358	0.5	0.14819	-0.151
Mof_C 	C 	0.86946	0.5	0.1723	-0.019
Mof_H 	H 	0.8755	0.5	0.1948	0.041
Mof_O 	O 	0.44956	0	0.13751	-0.402
Mof_C 	C 	0.4284	0	0.16065	0.514
Mof_C 	C 	0.39358	-1.49001e-33	0.14819	-0.15
Mof_C 	C 	0.36946	0	0.1723	-0.02
Mof_H 	H 	0.3755	0	0.1948	0.04
Mof_O 	O 	0.44956	0.5	0.63751	-0.402
Mof_C 	C 	0.4284	0.5	0.66065	0.516
Mof_C 	C 	0.39358	0.5	0.64819	-0.151
Mof_C 	C 	0.36946	0.5	0.6723	-0.019
Mof_H 	H 	0.3755	0.5	0.6948	0.04
Mof_O 	O 	0.36249	0.05044	-0	-0.401
Mof_C 	C 	0.33935	0.0716	-0	0.514
Mof_C 	C 	0.35181	0.10642	-0	-0.15
Mof_C 	C 	0.3277	0.13054	-0	-0.02
Mof_H 	H 	0.3052	0.1245	-0	0.04
Mof_O 	O 	0.36249	0.55044	0.5	-0.402
Mof_C 	C 	0.33935	0.5716	0.5	0.516
Mof_C 	C 	0.35181	0.60642	0.5	-0.151
Mof_C 	C 	0.3277	0.63054	0.5	-0.019
Mof_H 	H 	0.3052	0.6245	0.5	0.04
Mof_O 	O 	0.86249	0.05044	0.5	-0.401
Mof_C 	C 	0.83935	0.0716	0.5	0.516
Mof_C 	C 	0.85181	0.10642	0.5	-0.151
Mof_C 	C 	0.8277	0.13054	0.5	-0.019
Mof_H 	H 	0.8052	0.1245	0.5	0.04
Mof_O 	O 	0.86249	0.55044	-0	-0.401
Mof_C 	C 	0.83935	0.5716	-0	0.514
Mof_C 	C 	0.85181	0.60642	-0	-0.15
Mof_C 	C 	0.8277	0.63054	-0	-0.02
Mof_H 	H 	0.8052	0.6245	-0	0.04
Mof_O 	O 	0.63751	0.05044	-0	-0.401
Mof_C 	C 	0.66065	0.0716	-0	0.514
Mof_C 	C 	0.64819	0.10642	-0	-0.15
Mof_C 	C 	0.6723	0.13054	-0	-0.02
Mof_H 	H 	0.6948	0.1245	-0	0.04
Mof_O 	O 	0.63751	0.55044	0.5	-0.402
Mof_C 	C 	0.66065	0.5716	0.5	0.516
Mof_C 	C 	0.64819	0.60642	0.5	-0.151
Mof_C 	C 	0.6723	0.63054	0.5	-0.019
Mof_H 	H 	0.6948	0.6245	0.5	0.04
Mof_O 	O 	0.13751	0.05044	0.5	-0.402
Mof_C 	C 	0.16065	0.0716	0.5	0.516
Mof_C 	C 	0.14819	0.10642	0.5	-0.151
Mof_C 	C 	0.1723	0.13054	0.5	-0.019
Mof_H 	H 	0.1948	0.1245	0.5	0.04
Mof_O 	O 	0.13751	0.55044	-0	-0.402
Mof_C 	C 	0.16065	0.5716	-0	0.514
Mof_C 	C 	0.14819	0.60642	-0	-0.15
Mof_C 	C 	0.1723	0.63054	-0	-0.02
Mof_H 	H 	0.1948	0.6245	-0	0.04
Mof_O 	O 	0.36249	0.94956	-0	-0.401
Mof_C 	C 	0.33935	0.9284	-0	0.514
Mof_C 	C 	0.35181	0.89358	-0	-0.15
Mof_C 	C 	0.3277	0.86946	-0	-0.02
Mof_H 	H 	0.3052	0.8755	-0	0.04
Mof_O 	O 	0.36249	0.44956	0.5	-0.402
Mof_C 	C 	0.33935	0.4284	0.5	0.516
Mof_C 	C 	0.35181	0.39358	0.5	-0.151
Mof_C 	C 	0.3277	0.36946	0.5	-0.019
Mof_H 	H 	0.3052	0.3755	0.5	0.04
Mof_O 	O 	0.86249	0.94956	0.5	-0.401
Mof_C 	C 	0.83935	0.9284	0.5	0.516
Mof_C 	C 	0.85181	0.89358	0.5	-0.15
Mof_C 	C 	0.8277	0.86946	0.5	-0.019
Mof_H 	H 	0.8052	0.8755	0.5	0.041
Mof_O 	O 	0.86249	0.44956	-0	-0.401
Mof_C 	C 	0.83935	0.4284	-0	0.514
Mof_C 	C 	0.85181	0.39358	-0	-0.15
Mof_C 	C 	0.8277	0.36946	-0	-0.02
Mof_H 	H 	0.8052	0.3755	-0	0.04
Mof_O 	O 	0.63751	0.94956	-0	-0.401
Mof_C 	C 	0.66065	0.9284	-0	0.514
Mof_C 	C 	0.64819	0.89358	-0	-0.15
Mof_C 	C 	0.6723	0.86946	-0	-0.02
Mof_H 	H 	0.6948	0.8755	-0	0.04
Mof_O 	O 	0.63751	0.44956	0.5	-0.402
Mof_C 	C 	0.66065	0.4284	0.5	0.516
Mof_C 	C 	0.64819	0.39358	0.5	-0.151
Mof_C 	C 	0.6723	0.36946	0.5	-0.019
Mof_H 	H 	0.6948	0.3755	0.5	0.04
Mof_O 	O 	0.13751	0.94956	0.5	-0.401
Mof_C 	C 	0.16065	0.9284	0.5	0.516
Mof_C 	C 	0.14819	0.89358	0.5	-0.151
Mof_C 	C 	0.1723	0.86946	0.5	-0.019
Mof_H 	H 	0.1948	0.8755	0.5	0.041
Mof_O 	O 	0.13751	0.44956	-0	-0.402
Mof_C 	C 	0.16065	0.4284	-0	0.514
Mof_C 	C 	0.14819	0.39358	-0	-0.15
Mof_C 	C 	0.1723	0.36946	-0	-0.02
Mof_H 	H 	0.1948	0.3755	-0	0.04
Mof_O 	O 	0.36249	0	0.94956	-0.401
Mof_C 	C 	0.33935	0	0.9284	0.514
Mof_C 	C 	0.35181	0	0.89358	-0.15
Mof_C 	C 	0.3277	-5.96003e-33	0.86946	-0.02
Mof_H 	H 	0.3052	-5.96003e-33	0.8755	0.04
Mof_O 	O 	0.36249	0.5	0.44956	-0.402
Mof_C 	C 	0.33935	0.5	0.4284	0.516
Mof_C 	C 	0.35181	0.5	0.39358	-0.151
Mof_C 	C 	0.3277	0.5	0.36946	-0.019
Mof_H 	H 	0.3052	0.5	0.3755	0.04
Mof_O 	O 	0.86249	0	0.44956	-0.401
Mof_C 	C 	0.83935	-2.98001e-33	0.4284	0.514
Mof_C 	C 	0.85181	2.98001e-33	0.39358	-0.15
Mof_C 	C 	0.8277	0	0.36946	-0.02
Mof_H 	H 	0.8052	0	0.3755	0.04
Mof_O 	O 	0.86249	0.5	0.94956	-0.401
Mof_C 	C 	0.83935	0.5	0.9284	0.516
Mof_C 	C 	0.85181	0.5	0.89358	-0.15
Mof_C 	C 	0.8277	0.5	0.86946	-0.019
Mof_H 	H 	0.8052	0.5	0.8755	0.041
Mof_O 	O 	0.63751	0	0.94956	-0.401
Mof_C 	C 	0.66065	0	0.9284	0.514
Mof_C 	C 	0.64819	0	0.89358	-0.15
Mof_C 	C 	0.6723	-5.96003e-33	0.86946	-0.02
Mof_H 	H 	0.6948	-5.96003e-33	0.8755	0.04
Mof_O 	O 	0.63751	0.5	0.44956	-0.402
Mof_C 	C 	0.66065	0.5	0.4284	0.516
Mof_C 	C 	0.64819	0.5	0.39358	-0.151
Mof_C 	C 	0.6723	0.5	0.36946	-0.019
Mof_H 	H 	0.6948	0.5	0.3755	0.04
Mof_O 	O 	0.13751	0	0.44956	-0.402
Mof_C 	C 	0.16065	-2.98001e-33	0.4284	0.514
Mof_C 	C 	0.14819	2.98001e-33	0.39358	-0.15
Mof_C 	C 	0.1723	0	0.36946	-0.02
Mof_H 	H 	0.1948	0	0.3755	0.04
Mof_O 	O 	0.13751	0.5	0.94956	-0.401
Mof_C 	C 	0.16065	0.5	0.9284	0.516
Mof_C 	C 	0.14819	0.5	0.89358	-0.151
Mof_C 	C 	0.1723	0.5	0.86946	-0.019
Mof_H 	H 	0.1948	0.5	0.8755	0.041
Mof_O 	O 	0.36249	0	0.05044	-0.401
Mof_C 	C 	0.33935	-7.45003e-34	0.0716	0.514
Mof_C 	C 	0.35181	0	0.10642	-0.15
Mof_C 	C 	0.3277	0	0.13054	-0.02
Mof_H 	H 	0.3052	0	0.1245	0.04
Mof_O 	O 	0.36249	0.5	0.55044	-0.402
Mof_C 	C 	0.33935	0.5	0.5716	0.516
Mof_C 	C 	0.35181	0.5	0.60642	-0.151
Mof_C 	C 	0.3277	0.5	0.63054	-0.019
Mof_H 	H 	0.3052	0.5	0.6245	0.04
Mof_O 	O 	0.86249	0	0.55044	-0.401
Mof_C 	C 	0.83935	0	0.5716	0.514
Mof_C 	C 	0.85181	0	0.60642	-0.15
Mof_C 	C 	0.8277	0	0.63054	-0.02
Mof_H 	H 	0.8052	-5.96003e-33	0.6245	0.04
Mof_O 	O 	0.86249	0.5	0.05044	-0.401
Mof_C 	C 	0.83935	0.5	0.0716	0.516
Mof_C 	C 	0.85181	0.5	0.10642	-0.151
Mof_C 	C 	0.8277	0.5	0.13054	-0.019
Mof_H 	H 	0.8052	0.5	0.1245	0.04
Mof_O 	O 	0.63751	0	0.05044	-0.401
Mof_C 	C 	0.66065	-7.45003e-34	0.0716	0.514
Mof_C 	C 	0.64819	0	0.10642	-0.15
Mof_C 	C 	0.6723	0	0.13054	-0.02
Mof_H 	H 	0.6948	0	0.1245	0.04
Mof_O 	O 	0.63751	0.5	0.55044	-0.402
Mof_C 	C 	0.66065	0.5	0.5716	0.516
Mof_C 	C 	0.64819	0.5	0.60642	-0.151
Mof_C 	C 	0.6723	0.5	0.63054	-0.019
Mof_H 	H 	0.6948	0.5	0.6245	0.04
Mof_O 	O 	0.13751	0	0.55044	-0.402
Mof_C 	C 	0.16065	0	0.5716	0.514
Mof_C 	C 	0.14819	0	0.60642	-0.15
Mof_C 	C 	0.1723	0	0.63054	-0.02
Mof_H 	H 	0.1948	-5.96003e-33	0.6245	0.04
Mof_O 	O 	0.13751	0.5	0.05044	-0.402
Mof_C 	C 	0.16065	0.5	0.0716	0.516
Mof_C 	C 	0.14819	0.5	0.10642	-0.151
Mof_C 	C 	0.1723	0.5	0.13054	-0.019
Mof_H 	H 	0.1948	0.5	0.1245	0.04
Mof_O 	O 	2.39028e-33	0.05044	0.63751	-0.401
Mof_C 	C 	-3.48299e-33	0.0716	0.66065	0.514
Mof_C 	C 	-3.5297e-33	0.10642	0.64819	-0.15
Mof_C 	C 	8.48075e-33	0.13054	0.6723	-0.02
Mof_H 	H 	-9.31497e-33	0.1245	0.6948	0.04
Mof_O 	O 	-3.95444e-33	0.55044	0.13751	-0.402
Mof_C 	C 	-8.87666e-34	0.5716	0.16065	0.514
Mof_C 	C 	5.55624e-34	0.60642	0.14819	-0.15
Mof_C 	C 	-2.33399e-33	0.63054	0.1723	-0.02
Mof_H 	H 	-3.73964e-33	0.6245	0.1948	0.04
Mof_O 	O 	0.5	0.05044	0.13751	-0.402
Mof_C 	C 	0.5	0.0716	0.16065	0.516
Mof_C 	C 	0.5	0.10642	0.14819	-0.151
Mof_C 	C 	0.5	0.13054	0.1723	-0.019
Mof_H 	H 	0.5	0.1245	0.1948	0.04
Mof_O 	O 	0.5	0.55044	0.63751	-0.402
Mof_C 	C 	0.5	0.5716	0.66065	0.516
Mof_C 	C 	0.5	0.60642	0.64819	-0.151
Mof_C 	C 	0.5	0.63054	0.6723	-0.019
Mof_H 	H 	0.5	0.6245	0.6948	0.04
Mof_O 	O 	1.35912e-33	0.05044	0.36249	-0.401
Mof_C 	C 	1.27236e-33	0.0716	0.33935	0.514
Mof_C 	C 	1.31908e-33	0.10642	0.35181	-0.15
Mof_C 	C 	1.22868e-33	0.13054	0.3277	-0.02
Mof_H 	H 	1.14432e-33	0.1245	0.3052	0.04
Mof_O 	O 	3.23382e-33	0.55044	0.86249	-0.401
Mof_C 	C 	-2.81297e-33	0.5716	0.83935	0.514
Mof_C 	C 	-8.72628e-33	0.60642	0.85181	-0.15
Mof_C 	C 	-8.81668e-33	0.63054	0.8277	-0.02
Mof_H 	H 	-2.08211e-32	0.6245	0.8052	0.04
Mof_O 	O 	0.5	0.05044	0.86249	-0.401
Mof_C 	C 	0.5	0.0716	0.83935	0.516
Mof_C 	C 	0.5	0.10642	0.85181	-0.151
Mof_C 	C 	0.5	0.13054	0.8277	-0.019
Mof_H 	H 	0.5	0.1245	0.8052	0.04
Mof_O 	O 	0.5	0.55044	0.36249	-0.402
Mof_C 	C 	0.5	0.5716	0.33935	0.516
Mof_C 	C 	0.5	0.60642	0.35181	-0.151
Mof_C 	C 	0.5	0.63054	0.3277	-0.019
Mof_H 	H 	0.5	0.6245	0.3052	0.04
Mof_O 	O 	-3.56975e-33	0.94956	0.63751	-0.401
Mof_C 	C 	-3.48299e-33	0.9284	0.66065	0.514
Mof_C 	C 	-3.5297e-33	0.89358	0.64819	-0.15
Mof_C 	C 	8.48075e-33	0.86946	0.6723	-0.02
Mof_H 	H 	2.60508e-33	0.8755	0.6948	0.04
Mof_O 	O 	-3.95444e-33	0.44956	0.13751	-0.402
Mof_C 	C 	2.09235e-33	0.4284	0.16065	0.514
Mof_C 	C 	3.53564e-33	0.39358	0.14819	-0.15
Mof_C 	C 	-2.33399e-33	0.36946	0.1723	-0.02
Mof_H 	H 	5.2004e-33	0.3755	0.1948	0.04
Mof_O 	O 	0.5	0.94956	0.13751	-0.401
Mof_C 	C 	0.5	0.9284	0.16065	0.516
Mof_C 	C 	0.5	0.89358	0.14819	-0.151
Mof_C 	C 	0.5	0.86946	0.1723	-0.019
Mof_H 	H 	0.5	0.8755	0.1948	0.041
Mof_O 	O 	0.5	0.44956	0.63751	-0.402
Mof_C 	C 	0.5	0.4284	0.66065	0.516
Mof_C 	C 	0.5	0.39358	0.64819	-0.151
Mof_C 	C 	0.5	0.36946	0.6723	-0.019
Mof_H 	H 	0.5	0.3755	0.6948	0.04
Mof_O 	O 	-1.62089e-33	0.94956	0.36249	-0.401
Mof_C 	C 	1.27236e-33	0.9284	0.33935	0.514
Mof_C 	C 	7.2791e-33	0.89358	0.35181	-0.15
Mof_C 	C 	-1.06914e-32	0.86946	0.3277	-0.02
Mof_H 	H 	-4.81571e-33	0.8755	0.3052	0.04
Mof_O 	O 	3.23382e-33	0.44956	0.86249	-0.401
Mof_C 	C 	3.14706e-33	0.4284	0.83935	0.514
Mof_C 	C 	-2.76625e-33	0.39358	0.85181	-0.15
Mof_C 	C 	3.10338e-33	0.36946	0.8277	-0.02
Mof_H 	H 	-1.48611e-32	0.3755	0.8052	0.04
Mof_O 	O 	0.5	0.94956	0.86249	-0.401
Mof_C 	C 	0.5	0.9284	0.83935	0.516
Mof_C 	C 	0.5	0.89358	0.85181	-0.15
Mof_C 	C 	0.5	0.86946	0.8277	-0.019
Mof_H 	H 	0.5	0.8755	0.8052	0.041
Mof_O 	O 	0.5	0.44956	0.36249	-0.402
Mof_C 	C 	0.5	0.4284	0.33935	0.516
Mof_C 	C 	0.5	0.39358	0.35181	-0.151
Mof_C 	C 	0.5	0.36946	0.3277	-0.019
Mof_H 	H 	0.5	0.3755	0.3052	0.04
Mof_O 	O 	0.05044	0.36249	-0	-0.401
Mof_C 	C 	0.0716	0.33935	-0	0.514
Mof_C 	C 	0.10642	0.35181	-0	-0.15
Mof_C 	C 	0.13054	0.3277	-0	-0.02
Mof_H 	H 	0.1245	0.3052	-0	0.04
Mof_O 	O 	0.05044	0.86249	0.5	-0.401
Mof_C 	C 	0.0716	0.83935	0.5	0.516
Mof_C 	C 	0.10642	0.85181	0.5	-0.151
Mof_C 	C 	0.13054	0.8277	0.5	-0.019
Mof_H 	H 	0.1245	0.8052	0.5	0.04
Mof_O 	O 	0.55044	0.36249	0.5	-0.402
Mof_C 	C 	0.5716	0.33935	0.5	0.516
Mof_C 	C 	0.60642	0.35181	0.5	-0.151
Mof_C 	C 	0.63054	0.3277	0.5	-0.019
Mof_H 	H 	0.6245	0.3052	0.5	0.04
Mof_O 	O 	0.55044	0.86249	-0	-0.401
Mof_C 	C 	0.5716	0.83935	-0	0.514
Mof_C 	C 	0.60642	0.85181	-0	-0.15
Mof_C 	C 	0.63054	0.8277	-0	-0.02
Mof_H 	H 	0.6245	0.8052	-0	0.04
Mof_O 	O 	0.05044	0.63751	-0	-0.401
Mof_C 	C 	0.0716	0.66065	-0	0.514
Mof_C 	C 	0.10642	0.64819	-0	-0.15
Mof_C 	C 	0.13054	0.6723	-0	-0.02
Mof_H 	H 	0.1245	0.6948	-0	0.04
Mof_O 	O 	0.05044	0.13751	0.5	-0.402
Mof_C 	C 	0.0716	0.16065	0.5	0.516
Mof_C 	C 	0.10642	0.14819	0.5	-0.151
Mof_C 	C 	0.13054	0.1723	0.5	-0.019
Mof_H 	H 	0.1245	0.1948	0.5	0.04
Mof_O 	O 	0.55044	0.63751	0.5	-0.402
Mof_C 	C 	0.5716	0.66065	0.5	0.516
Mof_C 	C 	0.60642	0.64819	0.5	-0.151
Mof_C 	C 	0.63054	0.6723	0.5	-0.019
Mof_H 	H 	0.6245	0.6948	0.5	0.04
Mof_O 	O 	0.55044	0.13751	-0	-0.402
Mof_C 	C 	0.5716	0.16065	-0	0.514
Mof_C 	C 	0.60642	0.14819	-0	-0.15
Mof_C 	C 	0.63054	0.1723	-0	-0.02
Mof_H 	H 	0.6245	0.1948	-0	0.04
Mof_O 	O 	0.94956	0.36249	-0	-0.401
Mof_C 	C 	0.9284	0.33935	-0	0.514
Mof_C 	C 	0.89358	0.35181	-0	-0.15
Mof_C 	C 	0.86946	0.3277	-0	-0.02
Mof_H 	H 	0.8755	0.3052	-0	0.04
Mof_O 	O 	0.94956	0.86249	0.5	-0.401
Mof_C 	C 	0.9284	0.83935	0.5	0.516
Mof_C 	C 	0.89358	0.85181	0.5	-0.15
Mof_C 	C 	0.86946	0.8277	0.5	-0.019
Mof_H 	H 	0.8755	0.8052	0.5	0.041
Mof_O 	O 	0.44956	0.36249	0.5	-0.402
Mof_C 	C 	0.4284	0.33935	0.5	0.516
Mof_C 	C 	0.39358	0.35181	0.5	-0.151
Mof_C 	C 	0.36946	0.3277	0.5	-0.019
Mof_H 	H 	0.3755	0.3052	0.5	0.04
Mof_O 	O 	0.44956	0.86249	-0	-0.401
Mof_C 	C 	0.4284	0.83935	-0	0.514
Mof_C 	C 	0.39358	0.85181	-0	-0.15
Mof_C 	C 	0.36946	0.8277	-0	-0.02
Mof_H 	H 	0.3755	0.8052	-0	0.04
Mof_O 	O 	0.94956	0.63751	-0	-0.401
Mof_C 	C 	0.9284	0.66065	-0	0.514
Mof_C 	C 	0.89358	0.64819	-0	-0.15
Mof_C 	C 	0.86946	0.6723	-0	-0.02
Mof_H 	H 	0.8755	0.6948	-0	0.04
Mof_O 	O 	0.94956	0.13751	0.5	-0.401
Mof_C 	C 	0.9284	0.16065	0.5	0.516
Mof_C 	C 	0.89358	0.14819	0.5	-0.151
Mof_C 	C 	0.86946	0.1723	0.5	-0.019
Mof_H 	H 	0.8755	0.1948	0.5	0.041
Mof_O 	O 	0.44956	0.63751	0.5	-0.402
Mof_C 	C 	0.4284	0.66065	0.5	0.516
Mof_C 	C 	0.39358	0.64819	0.5	-0.151
Mof_C 	C 	0.36946	0.6723	0.5	-0.019
Mof_H 	H 	0.3755	0.6948	0.5	0.04
Mof_O 	O 	0.44956	0.13751	-0	-0.402
Mof_C 	C 	0.4284	0.16065	-0	0.514
Mof_C 	C 	0.39358	0.14819	-0	-0.15
Mof_C 	C 	0.36946	0.1723	-0	-0.02
Mof_H 	H 	0.3755	0.1948	-0	0.04
Mof_C 	C 	-1.05789e-33	0.38475	0.11525	0.084
Mof_H 	H 	-4.84458e-33	0.4012	0.0988	0.028
Mof_C 	C 	2.10292e-33	0.33653	0.16347	0.033
Mof_C 	C 	7.09086e-34	0.31088	0.18912	-0.18
Mof_C 	C 	8.8992e-34	0.26265	0.23735	0.086
Mof_C 	C 	0.5	0.38475	0.61525	0.085
Mof_H 	H 	0.5	0.4012	0.5988	0.028
Mof_C 	C 	0.5	0.33653	0.66347	0.032
Mof_C 	C 	0.5	0.31088	0.68912	-0.178
Mof_C 	C 	0.5	0.26265	0.73735	0.088
Mof_C 	C 	4.90214e-33	0.61525	0.11525	0.084
Mof_H 	H 	1.11544e-33	0.5988	0.0988	0.028
Mof_C 	C 	-8.77093e-34	0.66347	0.16347	0.033
Mof_C 	C 	7.09086e-34	0.68912	0.18912	-0.18
Mof_C 	C 	-2.09009e-33	0.73735	0.23735	0.086
Mof_C 	C 	0.5	0.61525	0.61525	0.085
Mof_H 	H 	0.5	0.5988	0.5988	0.028
Mof_C 	C 	0.5	0.66347	0.66347	0.032
Mof_C 	C 	0.5	0.68912	0.68912	-0.178
Mof_C 	C 	0.5	0.73735	0.73735	0.088
Mof_C 	C 	0.5	0.11525	0.11525	0.085
Mof_H 	H 	0.5	0.0988	0.0988	0.028
Mof_C 	C 	0.5	0.16347	0.16347	0.032
Mof_C 	C 	0.5	0.18912	0.18912	-0.178
Mof_C 	C 	0.5	0.23735	0.23735	0.088
Mof_C 	C 	1.52373e-32	0.38475	0.88475	0.084
Mof_H 	H 	-2.04612e-32	0.4012	0.9012	0.028
Mof_C 	C 	3.13649e-33	0.33653	0.83653	0.033
Mof_C 	C 	-2.91971e-33	0.31088	0.81088	-0.18
Mof_C 	C 	2.85948e-33	0.26265	0.76265	0.086
Mof_C 	C 	0.5	0.38475	0.38475	0.085
Mof_H 	H 	0.5	0.4012	0.4012	0.028
Mof_C 	C 	0.5	0.33653	0.33653	0.032
Mof_C 	C 	0.5	0.31088	0.31088	-0.178
Mof_C 	C 	0.5	0.26265	0.26265	0.088
Mof_C 	C 	-8.60277e-33	0.61525	0.88475	0.084
Mof_H 	H 	-8.5411e-33	0.5988	0.9012	0.028
Mof_C 	C 	-1.47436e-32	0.66347	0.83653	0.033
Mof_C 	C 	-1.48398e-32	0.68912	0.81088	-0.18
Mof_C 	C 	1.47795e-32	0.73735	0.76265	0.087
Mof_C 	C 	-1.53743e-33	0.11525	0.38475	0.084
Mof_H 	H 	-4.45577e-33	0.0988	0.4012	0.028
Mof_C 	C 	1.26179e-33	0.16347	0.33653	0.033
Mof_C 	C 	1.16561e-33	0.18912	0.31088	-0.18
Mof_C 	C 	9.8478e-34	0.23735	0.26265	0.086
Mof_C 	C 	0.5	0.61525	0.38475	0.085
Mof_H 	H 	0.5	0.5988	0.4012	0.028
Mof_C 	C 	0.5	0.66347	0.33653	0.032
Mof_C 	C 	0.5	0.68912	0.31088	-0.178
Mof_C 	C 	0.5	0.73735	0.26265	0.088
Mof_C 	C 	0.11525	0	0.38475	0.084
Mof_H 	H 	0.0988	-2.98001e-33	0.4012	0.028
Mof_C 	C 	0.16347	0	0.33653	0.033
Mof_C 	C 	0.18912	0	0.31088	-0.18
Mof_C 	C 	0.23735	0	0.26265	0.086
Mof_C 	C 	0.11525	0.5	0.88475	0.085
Mof_H 	H 	0.0988	0.5	0.9012	0.028
Mof_C 	C 	0.16347	0.5	0.83653	0.032
Mof_C 	C 	0.18912	0.5	0.81088	-0.178
Mof_C 	C 	0.23735	0.5	0.76265	0.088
Mof_C 	C 	0.11525	0	0.61525	0.084
Mof_H 	H 	0.0988	5.96003e-33	0.5988	0.028
Mof_C 	C 	0.16347	-5.96003e-33	0.66347	0.033
Mof_C 	C 	0.18912	0	0.68912	-0.18
Mof_C 	C 	0.23735	5.96003e-33	0.73735	0.086
Mof_C 	C 	0.11525	0.5	0.11525	0.085
Mof_H 	H 	0.0988	0.5	0.0988	0.028
Mof_C 	C 	0.16347	0.5	0.16347	0.032
Mof_C 	C 	0.18912	0.5	0.18912	-0.178
Mof_C 	C 	0.23735	0.5	0.23735	0.088
Mof_C 	C 	0.88475	0	0.38475	0.084
Mof_H 	H 	0.9012	-2.98001e-33	0.4012	0.028
Mof_C 	C 	0.83653	0	0.33653	0.033
Mof_C 	C 	0.81088	0	0.31088	-0.18
Mof_C 	C 	0.76265	0	0.26265	0.086
Mof_C 	C 	0.88475	0.5	0.88475	0.085
Mof_H 	H 	0.9012	0.5	0.9012	0.028
Mof_C 	C 	0.83653	0.5	0.83653	0.032
Mof_C 	C 	0.81088	0.5	0.81088	-0.178
Mof_C 	C 	0.76265	0.5	0.76265	0.088
Mof_C 	C 	0.38475	0.5	0.38475	0.085
Mof_H 	H 	0.4012	0.5	0.4012	0.028
Mof_C 	C 	0.33653	0.5	0.33653	0.032
Mof_C 	C 	0.31088	0.5	0.31088	-0.178
Mof_C 	C 	0.26265	0.5	0.26265	0.088
Mof_C 	C 	0.88475	0	0.61525	0.084
Mof_H 	H 	0.9012	5.96003e-33	0.5988	0.028
Mof_C 	C 	0.83653	-5.96003e-33	0.66347	0.033
Mof_C 	C 	0.81088	0	0.68912	-0.18
Mof_C 	C 	0.76265	5.96003e-33	0.73735	0.087
Mof_C 	C 	0.88475	0.5	0.11525	0.085
Mof_H 	H 	0.9012	0.5	0.0988	0.028
Mof_C 	C 	0.83653	0.5	0.16347	0.032
Mof_C 	C 	0.81088	0.5	0.18912	-0.178
Mof_C 	C 	0.76265	0.5	0.23735	0.088
Mof_C 	C 	0.38475	0	0.11525	0.084
Mof_H 	H 	0.4012	-7.45003e-34	0.0988	0.028
Mof_C 	C 	0.33653	0	0.16347	0.033
Mof_C 	C 	0.31088	-1.49001e-33	0.18912	-0.18
Mof_C 	C 	0.26265	-2.98001e-33	0.23735	0.086
Mof_C 	C 	0.38475	0.11525	-0	0.084
Mof_H 	H 	0.4012	0.0988	-0	0.028
Mof_C 	C 	0.33653	0.16347	-0	0.033
Mof_C 	C 	0.31088	0.18912	-0	-0.18
Mof_C 	C 	0.26265	0.23735	-0	0.086
Mof_C 	C 	0.38475	0.61525	0.5	0.085
Mof_H 	H 	0.4012	0.5988	0.5	0.028
Mof_C 	C 	0.33653	0.66347	0.5	0.032
Mof_C 	C 	0.31088	0.68912	0.5	-0.178
Mof_C 	C 	0.26265	0.73735	0.5	0.088
Mof_C 	C 	0.61525	0.11525	-0	0.084
Mof_H 	H 	0.5988	0.0988	-0	0.028
Mof_C 	C 	0.66347	0.16347	-0	0.033
Mof_C 	C 	0.68912	0.18912	-0	-0.18
Mof_C 	C 	0.73735	0.23735	-0	0.086
Mof_C 	C 	0.61525	0.61525	0.5	0.085
Mof_H 	H 	0.5988	0.5988	0.5	0.028
Mof_C 	C 	0.66347	0.66347	0.5	0.032
Mof_C 	C 	0.68912	0.68912	0.5	-0.178
Mof_C 	C 	0.73735	0.73735	0.5	0.088
Mof_C 	C 	0.11525	0.11525	0.5	0.085
Mof_H 	H 	0.0988	0.0988	0.5	0.028
Mof_C 	C 	0.16347	0.16347	0.5	0.032
Mof_C 	C 	0.18912	0.18912	0.5	-0.178
Mof_C 	C 	0.23735	0.23735	0.5	0.088
Mof_C 	C 	0.38475	0.88475	-0	0.084
Mof_H 	H 	0.4012	0.9012	-0	0.028
Mof_C 	C 	0.33653	0.83653	-0	0.033
Mof_C 	C 	0.31088	0.81088	-0	-0.18
Mof_C 	C 	0.26265	0.76265	-0	0.086
Mof_C 	C 	0.38475	0.38475	0.5	0.085
Mof_H 	H 	0.4012	0.4012	0.5	0.028
Mof_C 	C 	0.33653	0.33653	0.5	0.032
Mof_C 	C 	0.31088	0.31088	0.5	-0.178
Mof_C 	C 	0.26265	0.26265	0.5	0.088
Mof_C 	C 	0.61525	0.88475	-0	0.084
Mof_H 	H 	0.5988	0.9012	-0	0.028
Mof_C 	C 	0.66347	0.83653	-0	0.033
Mof_C 	C 	0.68912	0.81088	-0	-0.18
Mof_C 	C 	0.73735	0.76265	-0	0.087
Mof_C 	C 	0.61525	0.38475	0.5	0.085
Mof_H 	H 	0.5988	0.4012	0.5	0.028
Mof_C 	C 	0.66347	0.33653	0.5	0.032
Mof_C 	C 	0.68912	0.31088	0.5	-0.178
Mof_C 	C 	0.73735	0.26265	0.5	0.088
Mof_C 	C 	0.11525	0.38475	-0	0.084
Mof_H 	H 	0.0988	0.4012	-0	0.028
Mof_C 	C 	0.16347	0.33653	-0	0.033
Mof_C 	C 	0.18912	0.31088	-0	-0.18
Mof_C 	C 	0.23735	0.26265	-0	0.086
Mof_C 	C 	0.38475	1.19201e-32	0.88475	0.084
Mof_H 	H 	0.4012	0	0.9012	0.028
Mof_C 	C 	0.33653	-5.96003e-33	0.83653	0.033
Mof_C 	C 	0.31088	0	0.81088	-0.18
Mof_C 	C 	0.26265	5.96003e-33	0.76265	0.086
Mof_C 	C 	0.61525	1.19201e-32	0.88475	0.084
Mof_H 	H 	0.5988	0	0.9012	0.028
Mof_C 	C 	0.66347	-5.96003e-33	0.83653	0.033
Mof_C 	C 	0.68912	0	0.81088	-0.18
Mof_C 	C 	0.73735	5.96003e-33	0.76265	0.087
Mof_C 	C 	0.61525	0.5	0.38475	0.085
Mof_H 	H 	0.5988	0.5	0.4012	0.028
Mof_C 	C 	0.66347	0.5	0.33653	0.032
Mof_C 	C 	0.68912	0.5	0.31088	-0.178
Mof_C 	C 	0.73735	0.5	0.26265	0.088
Mof_C 	C 	0.38475	0.5	0.61525	0.085
Mof_H 	H 	0.4012	0.5	0.5988	0.028
Mof_C 	C 	0.33653	0.5	0.66347	0.032
Mof_C 	C 	0.31088	0.5	0.68912	-0.178
Mof_C 	C 	0.26265	0.5	0.73735	0.088
Mof_C 	C 	0.61525	0	0.11525	0.084
Mof_H 	H 	0.5988	-7.45003e-34	0.0988	0.028
Mof_C 	C 	0.66347	0	0.16347	0.033
Mof_C 	C 	0.68912	-1.49001e-33	0.18912	-0.18
Mof_C 	C 	0.73735	-2.98001e-33	0.23735	0.086
Mof_C 	C 	0.61525	0.5	0.61525	0.085
Mof_H 	H 	0.5988	0.5	0.5988	0.028
Mof_C 	C 	0.66347	0.5	0.66347	0.032
Mof_C 	C 	0.68912	0.5	0.68912	-0.178
Mof_C 	C 	0.73735	0.5	0.73735	0.088
Mof_C 	C 	2.30682e-33	0.11525	0.61525	0.084
Mof_H 	H 	2.24514e-33	0.0988	0.5988	0.028
Mof_C 	C 	-3.47241e-33	0.16347	0.66347	0.033
Mof_C 	C 	-3.37624e-33	0.18912	0.68912	-0.18
Mof_C 	C 	-3.19541e-33	0.23735	0.73735	0.086
Mof_C 	C 	0.5	0.11525	0.88475	0.085
Mof_H 	H 	0.5	0.0988	0.9012	0.028
Mof_C 	C 	0.5	0.16347	0.83653	0.032
Mof_C 	C 	0.5	0.18912	0.81088	-0.178
Mof_C 	C 	0.5	0.23735	0.76265	0.088
Mof_C 	C 	2.30682e-33	0.88475	0.61525	0.084
Mof_H 	H 	-3.71489e-33	0.9012	0.5988	0.028
Mof_C 	C 	-9.43244e-33	0.83653	0.66347	0.033
Mof_C 	C 	-9.33627e-33	0.81088	0.68912	-0.18
Mof_C 	C 	1.46847e-32	0.76265	0.73735	0.087
Mof_C 	C 	0.5	0.88475	0.11525	0.085
Mof_H 	H 	0.5	0.9012	0.0988	0.028
Mof_C 	C 	0.5	0.83653	0.16347	0.032
Mof_C 	C 	0.5	0.81088	0.18912	-0.178
Mof_C 	C 	0.5	0.76265	0.23735	0.088
Mof_C 	C 	1.33626e-32	0.88475	0.38475	0.084
Mof_H 	H 	-1.04158e-32	0.9012	0.4012	0.028
Mof_C 	C 	4.2418e-33	0.83653	0.33653	0.033
Mof_C 	C 	-4.79441e-33	0.81088	0.31088	-0.18
Mof_C 	C 	3.96479e-33	0.76265	0.26265	0.086
Mof_C 	C 	0.5	0.88475	0.88475	0.085
Mof_H 	H 	0.5	0.9012	0.9012	0.028
Mof_C 	C 	0.5	0.83653	0.83653	0.032
Mof_C 	C 	0.5	0.81088	0.81088	-0.178
Mof_C 	C 	0.5	0.76265	0.76265	0.088
Mof_C 	C 	0.11525	0.88475	0.5	0.085
Mof_H 	H 	0.0988	0.9012	0.5	0.028
Mof_C 	C 	0.16347	0.83653	0.5	0.032
Mof_C 	C 	0.18912	0.81088	0.5	-0.178
Mof_C 	C 	0.23735	0.76265	0.5	0.088
Mof_C 	C 	0.11525	0.61525	-0	0.084
Mof_H 	H 	0.0988	0.5988	-0	0.028
Mof_C 	C 	0.16347	0.66347	-0	0.033
Mof_C 	C 	0.18912	0.68912	-0	-0.18
Mof_C 	C 	0.23735	0.73735	-0	0.086
Mof_C 	C 	0.88475	0.38475	-0	0.084
Mof_H 	H 	0.9012	0.4012	-0	0.028
Mof_C 	C 	0.83653	0.33653	-0	0.033
Mof_C 	C 	0.81088	0.31088	-0	-0.18
Mof_C 	C 	0.76265	0.26265	-0	0.086
Mof_C 	C 	0.88475	0.88475	0.5	0.085
Mof_H 	H 	0.9012	0.9012	0.5	0.028
Mof_C 	C 	0.83653	0.83653	0.5	0.032
Mof_C 	C 	0.81088	0.81088	0.5	-0.178
Mof_C 	C 	0.76265	0.76265	0.5	0.088
Mof_C 	C 	0.88475	0.61525	-0	0.084
Mof_H 	H 	0.9012	0.5988	-0	0.028
Mof_C 	C 	0.83653	0.66347	-0	0.033
Mof_C 	C 	0.81088	0.68912	-0	-0.18
Mof_C 	C 	0.76265	0.73735	-0	0.087
Mof_C 	C 	0.88475	0.11525	0.5	0.085
Mof_H 	H 	0.9012	0.0988	0.5	0.028
Mof_C 	C 	0.83653	0.16347	0.5	0.032
Mof_C 	C 	0.81088	0.18912	0.5	-0.178
Mof_C 	C 	0.76265	0.23735	0.5	0.088
Mof_C 	C 	0.02953	0.29882	0.20118	0.213
Mof_C 	C 	0.02953	0.27471	0.22529	-0.228
Mof_H 	H 	0.0497	0.2665	0.2335	0.089
Mof_C 	C 	0.06047	0.31315	0.18685	-0.49
Mof_C 	C 	0.52953	0.29882	0.70118	0.212
Mof_C 	C 	0.52953	0.27471	0.72529	-0.228
Mof_H 	H 	0.5497	0.2665	0.7335	0.089
Mof_C 	C 	0.56047	0.31315	0.68685	-0.49
Mof_C 	C 	0.97047	0.70118	0.20118	0.215
Mof_C 	C 	0.97047	0.72529	0.22529	-0.226
Mof_H 	H 	0.9503	0.7335	0.2335	0.089
Mof_C 	C 	0.93953	0.68685	0.18685	-0.491
Mof_C 	C 	0.47047	0.70118	0.70118	0.213
Mof_C 	C 	0.47047	0.72529	0.72529	-0.228
Mof_H 	H 	0.4503	0.7335	0.7335	0.089
Mof_C 	C 	0.43953	0.68685	0.68685	-0.49
Mof_C 	C 	0.47047	0.20118	0.20118	0.212
Mof_C 	C 	0.47047	0.22529	0.22529	-0.228
Mof_H 	H 	0.4503	0.2335	0.2335	0.089
Mof_C 	C 	0.43953	0.18685	0.18685	-0.49
Mof_C 	C 	0.97047	0.29882	0.79882	0.215
Mof_C 	C 	0.97047	0.27471	0.77471	-0.226
Mof_H 	H 	0.9503	0.2665	0.7665	0.089
Mof_C 	C 	0.93953	0.31315	0.81315	-0.491
Mof_C 	C 	0.47047	0.29882	0.29882	0.212
Mof_C 	C 	0.47047	0.27471	0.27471	-0.228
Mof_H 	H 	0.4503	0.2665	0.2665	0.089
Mof_C 	C 	0.43953	0.31315	0.31315	-0.49
Mof_C 	C 	0.02953	0.70118	0.79882	0.213
Mof_C 	C 	0.02953	0.72529	0.77471	-0.228
Mof_H 	H 	0.0497	0.7335	0.7665	0.089
Mof_C 	C 	0.06047	0.68685	0.81315	-0.49
Mof_C 	C 	0.02953	0.20118	0.29882	0.213
Mof_C 	C 	0.02953	0.22529	0.27471	-0.228
Mof_H 	H 	0.0497	0.2335	0.2665	0.089
Mof_C 	C 	0.06047	0.18685	0.31315	-0.49
Mof_C 	C 	0.52953	0.70118	0.29882	0.212
Mof_C 	C 	0.52953	0.72529	0.27471	-0.228
Mof_H 	H 	0.5497	0.7335	0.2665	0.089
Mof_C 	C 	0.56047	0.68685	0.31315	-0.49
Mof_C 	C 	0.20118	0.02953	0.29882	0.213
Mof_C 	C 	0.22529	0.02953	0.27471	-0.228
Mof_H 	H 	0.2335	0.0497	0.2665	0.089
Mof_C 	C 	0.18685	0.06047	0.31315	-0.49
Mof_C 	C 	0.20118	0.52953	0.79882	0.213
Mof_C 	C 	0.22529	0.52953	0.77471	-0.228
Mof_H 	H 	0.2335	0.5497	0.7665	0.089
Mof_C 	C 	0.18685	0.56047	0.81315	-0.49
Mof_C 	C 	0.20118	0.97047	0.70118	0.215
Mof_C 	C 	0.22529	0.97047	0.72529	-0.226
Mof_H 	H 	0.2335	0.9503	0.7335	0.089
Mof_C 	C 	0.18685	0.93953	0.68685	-0.491
Mof_C 	C 	0.20118	0.47047	0.20118	0.212
Mof_C 	C 	0.22529	0.47047	0.22529	-0.228
Mof_H 	H 	0.2335	0.4503	0.2335	0.089
Mof_C 	C 	0.18685	0.43953	0.18685	-0.49
Mof_C 	C 	0.79882	0.97047	0.29882	0.215
Mof_C 	C 	0.77471	0.97047	0.27471	-0.226
Mof_H 	H 	0.7665	0.9503	0.2665	0.089
Mof_C 	C 	0.81315	0.93953	0.31315	-0.491
Mof_C 	C 	0.79882	0.47047	0.79882	0.213
Mof_C 	C 	0.77471	0.47047	0.77471	-0.228
Mof_H 	H 	0.7665	0.4503	0.7665	0.09
Mof_C 	C 	0.81315	0.43953	0.81315	-0.49
Mof_C 	C 	0.29882	0.47047	0.29882	0.212
Mof_C 	C 	0.27471	0.47047	0.27471	-0.228
Mof_H 	H 	0.2665	0.4503	0.2665	0.089
Mof_C 	C 	0.31315	0.43953	0.31315	-0.49
Mof_C 	C 	0.79882	0.02953	0.70118	0.213
Mof_C 	C 	0.77471	0.02953	0.72529	-0.228
Mof_H 	H 	0.7665	0.0497	0.7335	0.089
Mof_C 	C 	0.81315	0.06047	0.68685	-0.49
Mof_C 	C 	0.79882	0.52953	0.20118	0.213
Mof_C 	C 	0.77471	0.52953	0.22529	-0.228
Mof_H 	H 	0.7665	0.5497	0.2335	0.089
Mof_C 	C 	0.81315	0.56047	0.18685	-0.49
Mof_C 	C 	0.29882	0.02953	0.20118	0.213
Mof_C 	C 	0.27471	0.02953	0.22529	-0.228
Mof_H 	H 	0.2665	0.0497	0.2335	0.089
Mof_C 	C 	0.31315	0.06047	0.18685	-0.49
Mof_C 	C 	0.29882	0.20118	0.02953	0.213
Mof_C 	C 	0.27471	0.22529	0.02953	-0.228
Mof_H 	H 	0.2665	0.2335	0.0497	0.089
Mof_C 	C 	0.31315	0.18685	0.06047	-0.49
Mof_C 	C 	0.29882	0.70118	0.52953	0.212
Mof_C 	C 	0.27471	0.72529	0.52953	-0.228
Mof_H 	H 	0.2665	0.7335	0.5497	0.089
Mof_C 	C 	0.31315	0.68685	0.56047	-0.49
Mof_C 	C 	0.70118	0.20118	0.97047	0.215
Mof_C 	C 	0.72529	0.22529	0.97047	-0.226
Mof_H 	H 	0.7335	0.2335	0.9503	0.089
Mof_C 	C 	0.68685	0.18685	0.93953	-0.491
Mof_C 	C 	0.70118	0.70118	0.47047	0.213
Mof_C 	C 	0.72529	0.72529	0.47047	-0.228
Mof_H 	H 	0.7335	0.7335	0.4503	0.089
Mof_C 	C 	0.68685	0.68685	0.43953	-0.49
Mof_C 	C 	0.20118	0.20118	0.47047	0.212
Mof_C 	C 	0.22529	0.22529	0.47047	-0.228
Mof_H 	H 	0.2335	0.2335	0.4503	0.089
Mof_C 	C 	0.18685	0.18685	0.43953	-0.49
Mof_C 	C 	0.29882	0.79882	0.97047	0.215
Mof_C 	C 	0.27471	0.77471	0.97047	-0.226
Mof_H 	H 	0.2665	0.7665	0.9503	0.089
Mof_C 	C 	0.31315	0.81315	0.93953	-0.491
Mof_C 	C 	0.29882	0.29882	0.47047	0.212
Mof_C 	C 	0.27471	0.27471	0.47047	-0.228
Mof_H 	H 	0.2665	0.2665	0.4503	0.089
Mof_C 	C 	0.31315	0.31315	0.43953	-0.49
Mof_C 	C 	0.70118	0.79882	0.02953	0.213
Mof_C 	C 	0.72529	0.77471	0.02953	-0.228
Mof_H 	H 	0.7335	0.7665	0.0497	0.089
Mof_C 	C 	0.68685	0.81315	0.06047	-0.49
Mof_C 	C 	0.70118	0.29882	0.52953	0.212
Mof_C 	C 	0.72529	0.27471	0.52953	-0.228
Mof_H 	H 	0.7335	0.2665	0.5497	0.089
Mof_C 	C 	0.68685	0.31315	0.56047	-0.49
Mof_C 	C 	0.20118	0.29882	0.02953	0.213
Mof_C 	C 	0.22529	0.27471	0.02953	-0.228
Mof_H 	H 	0.2335	0.2665	0.0497	0.089
Mof_C 	C 	0.18685	0.31315	0.06047	-0.49
Mof_C 	C 	0.29882	0.02953	0.79882	0.213
Mof_C 	C 	0.27471	0.02953	0.77471	-0.228
Mof_H 	H 	0.2665	0.0497	0.7665	0.089
Mof_C 	C 	0.31315	0.06047	0.81315	-0.49
Mof_C 	C 	0.29882	0.52953	0.29882	0.212
Mof_C 	C 	0.27471	0.52953	0.27471	-0.228
Mof_H 	H 	0.2665	0.5497	0.2665	0.089
Mof_C 	C 	0.31315	0.56047	0.31315	-0.49
Mof_C 	C 	0.70118	0.97047	0.79882	0.215
Mof_C 	C 	0.72529	0.97047	0.77471	-0.226
Mof_H 	H 	0.7335	0.9503	0.7665	0.089
Mof_C 	C 	0.68685	0.93953	0.81315	-0.491
Mof_C 	C 	0.70118	0.47047	0.29882	0.212
Mof_C 	C 	0.72529	0.47047	0.27471	-0.228
Mof_H 	H 	0.7335	0.4503	0.2665	0.089
Mof_C 	C 	0.68685	0.43953	0.31315	-0.49
Mof_C 	C 	0.20118	0.97047	0.29882	0.215
Mof_C 	C 	0.22529	0.97047	0.27471	-0.226
Mof_H 	H 	0.2335	0.9503	0.2665	0.089
Mof_C 	C 	0.18685	0.93953	0.31315	-0.491
Mof_C 	C 	0.29882	0.97047	0.20118	0.215
Mof_C 	C 	0.27471	0.97047	0.22529	-0.226
Mof_H 	H 	0.2665	0.9503	0.2335	0.089
Mof_C 	C 	0.31315	0.93953	0.18685	-0.491
Mof_C 	C 	0.29882	0.47047	0.70118	0.212
Mof_C 	C 	0.27471	0.47047	0.72529	-0.228
Mof_H 	H 	0.2665	0.4503	0.7335	0.089
Mof_C 	C 	0.31315	0.43953	0.68685	-0.49
Mof_C 	C 	0.70118	0.02953	0.20118	0.213
Mof_C 	C 	0.72529	0.02953	0.22529	-0.228
Mof_H 	H 	0.7335	0.0497	0.2335	0.089
Mof_C 	C 	0.68685	0.06047	0.18685	-0.49
Mof_C 	C 	0.70118	0.52953	0.70118	0.213
Mof_C 	C 	0.72529	0.52953	0.72529	-0.228
Mof_H 	H 	0.7335	0.5497	0.7335	0.089
Mof_C 	C 	0.68685	0.56047	0.68685	-0.49
Mof_C 	C 	0.20118	0.52953	0.20118	0.212
Mof_C 	C 	0.22529	0.52953	0.22529	-0.228
Mof_H 	H 	0.2335	0.5497	0.2335	0.089
Mof_C 	C 	0.18685	0.56047	0.18685	-0.49
Mof_C 	C 	0.02953	0.20118	0.70118	0.213
Mof_C 	C 	0.02953	0.22529	0.72529	-0.228
Mof_H 	H 	0.0497	0.2335	0.7335	0.089
Mof_C 	C 	0.06047	0.18685	0.68685	-0.49
Mof_C 	C 	0.52953	0.20118	0.20118	0.212
Mof_C 	C 	0.52953	0.22529	0.22529	-0.228
Mof_H 	H 	0.5497	0.2335	0.2335	0.089
Mof_C 	C 	0.56047	0.18685	0.18685	-0.49
Mof_C 	C 	0.97047	0.20118	0.29882	0.215
Mof_C 	C 	0.97047	0.22529	0.27471	-0.226
Mof_H 	H 	0.9503	0.2335	0.2665	0.089
Mof_C 	C 	0.93953	0.18685	0.31315	-0.491
Mof_C 	C 	0.47047	0.20118	0.79882	0.213
Mof_C 	C 	0.47047	0.22529	0.77471	-0.228
Mof_H 	H 	0.4503	0.2335	0.7665	0.089
Mof_C 	C 	0.43953	0.18685	0.81315	-0.49
Mof_C 	C 	0.97047	0.79882	0.70118	0.215
Mof_C 	C 	0.97047	0.77471	0.72529	-0.226
Mof_H 	H 	0.9503	0.7665	0.7335	0.089
Mof_C 	C 	0.93953	0.81315	0.68685	-0.491
Mof_C 	C 	0.97047	0.29882	0.20118	0.215
Mof_C 	C 	0.97047	0.27471	0.22529	-0.226
Mof_H 	H 	0.9503	0.2665	0.2335	0.089
Mof_C 	C 	0.93953	0.31315	0.18685	-0.491
Mof_C 	C 	0.47047	0.79882	0.20118	0.213
Mof_C 	C 	0.47047	0.77471	0.22529	-0.228
Mof_H 	H 	0.4503	0.7665	0.2335	0.089
Mof_C 	C 	0.43953	0.81315	0.18685	-0.49
Mof_C 	C 	0.02953	0.79882	0.29882	0.213
Mof_C 	C 	0.02953	0.77471	0.27471	-0.228
Mof_H 	H 	0.0497	0.7665	0.2665	0.089
Mof_C 	C 	0.06047	0.81315	0.31315	-0.49
Mof_C 	C 	0.52953	0.79882	0.79882	0.213
Mof_C 	C 	0.52953	0.77471	0.77471	-0.228
Mof_H 	H 	0.5497	0.7665	0.7665	0.09
Mof_C 	C 	0.56047	0.81315	0.81315	-0.49
Mof_C 	C 	0.52953	0.29882	0.29882	0.212
Mof_C 	C 	0.52953	0.27471	0.27471	-0.228
Mof_H 	H 	0.5497	0.2665	0.2665	0.089
Mof_C 	C 	0.56047	0.31315	0.31315	-0.49
Mof_C 	C 	0.20118	0.29882	0.97047	0.215
Mof_C 	C 	0.22529	0.27471	0.97047	-0.226
Mof_H 	H 	0.2335	0.2665	0.9503	0.089
Mof_C 	C 	0.18685	0.31315	0.93953	-0.491
Mof_C 	C 	0.20118	0.79882	0.47047	0.213
Mof_C 	C 	0.22529	0.77471	0.47047	-0.228
Mof_H 	H 	0.2335	0.7665	0.4503	0.089
Mof_C 	C 	0.18685	0.81315	0.43953	-0.49
Mof_C 	C 	0.20118	0.70118	0.02953	0.213
Mof_C 	C 	0.22529	0.72529	0.02953	-0.228
Mof_H 	H 	0.2335	0.7335	0.0497	0.089
Mof_C 	C 	0.18685	0.68685	0.06047	-0.49
Mof_C 	C 	0.20118	0.20118	0.52953	0.212
Mof_C 	C 	0.22529	0.22529	0.52953	-0.228
Mof_H 	H 	0.2335	0.2335	0.5497	0.089
Mof_C 	C 	0.18685	0.18685	0.56047	-0.49
Mof_C 	C 	0.79882	0.29882	0.02953	0.213
Mof_C 	C 	0.77471	0.27471	0.02953	-0.228
Mof_H 	H 	0.7665	0.2665	0.0497	0.089
Mof_C 	C 	0.81315	0.31315	0.06047	-0.49
Mof_C 	C 	0.79882	0.79882	0.52953	0.213
Mof_C 	C 	0.77471	0.77471	0.52953	-0.228
Mof_H 	H 	0.7665	0.7665	0.5497	0.09
Mof_C 	C 	0.81315	0.81315	0.56047	-0.49
Mof_C 	C 	0.29882	0.29882	0.52953	0.212
Mof_C 	C 	0.27471	0.27471	0.52953	-0.228
Mof_H 	H 	0.2665	0.2665	0.5497	0.089
Mof_C 	C 	0.31315	0.31315	0.56047	-0.49
Mof_C 	C 	0.79882	0.70118	0.97047	0.215
Mof_C 	C 	0.77471	0.72529	0.97047	-0.226
Mof_H 	H 	0.7665	0.7335	0.9503	0.089
Mof_C 	C 	0.81315	0.68685	0.93953	-0.491
Mof_C 	C 	0.79882	0.20118	0.47047	0.213
Mof_C 	C 	0.77471	0.22529	0.47047	-0.228
Mof_H 	H 	0.7665	0.2335	0.4503	0.089
Mof_C 	C 	0.81315	0.18685	0.43953	-0.49
Mof_C 	C 	0.29882	0.20118	0.97047	0.215
Mof_C 	C 	0.27471	0.22529	0.97047	-0.226
Mof_H 	H 	0.2665	0.2335	0.9503	0.089
Mof_C 	C 	0.31315	0.18685	0.93953	-0.491
Mof_C 	C 	0.97047	0.70118	0.79882	0.215
Mof_C 	C 	0.97047	0.72529	0.77471	-0.226
Mof_H 	H 	0.9503	0.7335	0.7665	0.089
Mof_C 	C 	0.93953	0.68685	0.81315	-0.491
Mof_C 	C 	0.47047	0.70118	0.29882	0.212
Mof_C 	C 	0.47047	0.72529	0.27471	-0.228
Mof_H 	H 	0.4503	0.7335	0.2665	0.089
Mof_C 	C 	0.43953	0.68685	0.31315	-0.49
Mof_C 	C 	0.02953	0.29882	0.79882	0.213
Mof_C 	C 	0.02953	0.27471	0.77471	-0.228
Mof_H 	H 	0.0497	0.2665	0.7665	0.089
Mof_C 	C 	0.06047	0.31315	0.81315	-0.49
Mof_C 	C 	0.02953	0.70118	0.20118	0.213
Mof_C 	C 	0.02953	0.72529	0.22529	-0.228
Mof_H 	H 	0.0497	0.7335	0.2335	0.089
Mof_C 	C 	0.06047	0.68685	0.18685	-0.49
Mof_C 	C 	0.52953	0.70118	0.70118	0.213
Mof_C 	C 	0.52953	0.72529	0.72529	-0.228
Mof_H 	H 	0.5497	0.7335	0.7335	0.089
Mof_C 	C 	0.56047	0.68685	0.68685	-0.49
Mof_C 	C 	0.47047	0.29882	0.70118	0.212
Mof_C 	C 	0.47047	0.27471	0.72529	-0.228
Mof_H 	H 	0.4503	0.2665	0.7335	0.089
Mof_C 	C 	0.43953	0.31315	0.68685	-0.49
Mof_C 	C 	0.79882	0.97047	0.70118	0.215
Mof_C 	C 	0.77471	0.97047	0.72529	-0.226
Mof_H 	H 	0.7665	0.9503	0.7335	0.089
Mof_C 	C 	0.81315	0.93953	0.68685	-0.491
Mof_C 	C 	0.79882	0.47047	0.20118	0.213
Mof_C 	C 	0.77471	0.47047	0.22529	-0.228
Mof_H 	H 	0.7665	0.4503	0.2335	0.089
Mof_C 	C 	0.81315	0.43953	0.18685	-0.49
Mof_C 	C 	0.79882	0.02953	0.29882	0.213
Mof_C 	C 	0.77471	0.02953	0.27471	-0.228
Mof_H 	H 	0.7665	0.0497	0.2665	0.089
Mof_C 	C 	0.81315	0.06047	0.31315	-0.49
Mof_C 	C 	0.79882	0.52953	0.79882	0.213
Mof_C 	C 	0.77471	0.52953	0.77471	-0.228
Mof_H 	H 	0.7665	0.5497	0.7665	0.09
Mof_C 	C 	0.81315	0.56047	0.81315	-0.49
Mof_C 	C 	0.20118	0.02953	0.70118	0.213
Mof_C 	C 	0.22529	0.02953	0.72529	-0.228
Mof_H 	H 	0.2335	0.0497	0.7335	0.089
Mof_C 	C 	0.18685	0.06047	0.68685	-0.49
Mof_C 	C 	0.20118	0.47047	0.79882	0.213
Mof_C 	C 	0.22529	0.47047	0.77471	-0.228
Mof_H 	H 	0.2335	0.4503	0.7665	0.089
Mof_C 	C 	0.18685	0.43953	0.81315	-0.49
Mof_C 	C 	0.70118	0.79882	0.97047	0.215
Mof_C 	C 	0.72529	0.77471	0.97047	-0.226
Mof_H 	H 	0.7335	0.7665	0.9503	0.089
Mof_C 	C 	0.68685	0.81315	0.93953	-0.491
Mof_C 	C 	0.70118	0.29882	0.47047	0.212
Mof_C 	C 	0.72529	0.27471	0.47047	-0.228
Mof_H 	H 	0.7335	0.2665	0.4503	0.089
Mof_C 	C 	0.68685	0.31315	0.43953	-0.49
Mof_C 	C 	0.29882	0.79882	0.02953	0.213
Mof_C 	C 	0.27471	0.77471	0.02953	-0.228
Mof_H 	H 	0.2665	0.7665	0.0497	0.089
Mof_C 	C 	0.31315	0.81315	0.06047	-0.49
Mof_C 	C 	0.70118	0.20118	0.02953	0.213
Mof_C 	C 	0.72529	0.22529	0.02953	-0.228
Mof_H 	H 	0.7335	0.2335	0.0497	0.089
Mof_C 	C 	0.68685	0.18685	0.06047	-0.49
Mof_C 	C 	0.70118	0.70118	0.52953	0.213
Mof_C 	C 	0.72529	0.72529	0.52953	-0.228
Mof_H 	H 	0.7335	0.7335	0.5497	0.089
Mof_C 	C 	0.68685	0.68685	0.56047	-0.49
Mof_C 	C 	0.29882	0.70118	0.47047	0.212
Mof_C 	C 	0.27471	0.72529	0.47047	-0.228
Mof_H 	H 	0.2665	0.7335	0.4503	0.089
Mof_C 	C 	0.31315	0.68685	0.43953	-0.49
Mof_C 	C 	0.70118	0.97047	0.20118	0.215
Mof_C 	C 	0.72529	0.97047	0.22529	-0.226
Mof_H 	H 	0.7335	0.9503	0.2335	0.089
Mof_C 	C 	0.68685	0.93953	0.18685	-0.491
Mof_C 	C 	0.70118	0.47047	0.70118	0.213
Mof_C 	C 	0.72529	0.47047	0.72529	-0.228
Mof_H 	H 	0.7335	0.4503	0.7335	0.089
Mof_C 	C 	0.68685	0.43953	0.68685	-0.49
Mof_C 	C 	0.29882	0.52953	0.70118	0.212
Mof_C 	C 	0.27471	0.52953	0.72529	-0.228
Mof_H 	H 	0.2665	0.5497	0.7335	0.089
Mof_C 	C 	0.31315	0.56047	0.68685	-0.49
Mof_C 	C 	0.70118	0.02953	0.79882	0.213
Mof_C 	C 	0.72529	0.02953	0.77471	-0.228
Mof_H 	H 	0.7335	0.0497	0.7665	0.089
Mof_C 	C 	0.68685	0.06047	0.81315	-0.49
Mof_C 	C 	0.70118	0.52953	0.29882	0.212
Mof_C 	C 	0.72529	0.52953	0.27471	-0.228
Mof_H 	H 	0.7335	0.5497	0.2665	0.089
Mof_C 	C 	0.68685	0.56047	0.31315	-0.49
Mof_C 	C 	0.29882	0.97047	0.79882	0.215
Mof_C 	C 	0.27471	0.97047	0.77471	-0.226
Mof_H 	H 	0.2665	0.9503	0.7665	0.089
Mof_C 	C 	0.31315	0.93953	0.81315	-0.491
Mof_C 	C 	0.97047	0.79882	0.29882	0.215
Mof_C 	C 	0.97047	0.77471	0.27471	-0.226
Mof_H 	H 	0.9503	0.7665	0.2665	0.089
Mof_C 	C 	0.93953	0.81315	0.31315	-0.491
Mof_C 	C 	0.47047	0.79882	0.79882	0.213
Mof_C 	C 	0.47047	0.77471	0.77471	-0.228
Mof_H 	H 	0.4503	0.7665	0.7665	0.09
Mof_C 	C 	0.43953	0.81315	0.81315	-0.49
Mof_C 	C 	0.02953	0.79882	0.70118	0.213
Mof_C 	C 	0.02953	0.77471	0.72529	-0.228
Mof_H 	H 	0.0497	0.7665	0.7335	0.089
Mof_C 	C 	0.06047	0.81315	0.68685	-0.49
Mof_C 	C 	0.52953	0.79882	0.20118	0.213
Mof_C 	C 	0.52953	0.77471	0.22529	-0.228
Mof_H 	H 	0.5497	0.7665	0.2335	0.089
Mof_C 	C 	0.56047	0.81315	0.18685	-0.49
Mof_C 	C 	0.52953	0.20118	0.79882	0.213
Mof_C 	C 	0.52953	0.22529	0.77471	-0.228
Mof_H 	H 	0.5497	0.2335	0.7665	0.089
Mof_C 	C 	0.56047	0.18685	0.81315	-0.49
Mof_C 	C 	0.97047	0.20118	0.70118	0.215
Mof_C 	C 	0.97047	0.22529	0.72529	-0.226
Mof_H 	H 	0.9503	0.2335	0.7335	0.089
Mof_C 	C 	0.93953	0.18685	0.68685	-0.491
Mof_C 	C 	0.79882	0.70118	0.02953	0.213
Mof_C 	C 	0.77471	0.72529	0.02953	-0.228
Mof_H 	H 	0.7665	0.7335	0.0497	0.089
Mof_C 	C 	0.81315	0.68685	0.06047	-0.49
Mof_C 	C 	0.79882	0.20118	0.52953	0.213
Mof_C 	C 	0.77471	0.22529	0.52953	-0.228
Mof_H 	H 	0.7665	0.2335	0.5497	0.089
Mof_C 	C 	0.81315	0.18685	0.56047	-0.49
Mof_C 	C 	0.79882	0.29882	0.97047	0.215
Mof_C 	C 	0.77471	0.27471	0.97047	-0.226
Mof_H 	H 	0.7665	0.2665	0.9503	0.089
Mof_C 	C 	0.81315	0.31315	0.93953	-0.491
Mof_C 	C 	0.79882	0.79882	0.47047	0.213
Mof_C 	C 	0.77471	0.77471	0.47047	-0.228
Mof_H 	H 	0.7665	0.7665	0.4503	0.09
Mof_C 	C 	0.81315	0.81315	0.43953	-0.49
Mof_C 	C 	0.20118	0.70118	0.97047	0.215
Mof_C 	C 	0.22529	0.72529	0.97047	-0.226
Mof_H 	H 	0.2335	0.7335	0.9503	0.089
Mof_C 	C 	0.18685	0.68685	0.93953	-0.491
Mof_C 	C 	0.20118	0.79882	0.52953	0.213
Mof_C 	C 	0.22529	0.77471	0.52953	-0.228
Mof_H 	H 	0.2335	0.7665	0.5497	0.089
Mof_C 	C 	0.18685	0.81315	0.56047	-0.49
_end
