data_functionalizedCrystal
_audit_creation_method	'EQeq! by Chris Wilmer'
_symmetry_space_group_name_H-M	'P1'
_symmetry_Int_Tables_number	1
_symmetry_cell_setting	triclinic
loop_
_symmetry_equiv_pos_as_xyz
  x,y,z
_cell_length_a	39.288
_cell_length_b	39.288
_cell_length_c	39.288
_cell_angle_alpha	90
_cell_angle_beta	90
_cell_angle_gamma	90
loop_
_atom_site_label
_atom_site_type_symbol
_atom_site_fract_x
_atom_site_fract_y
_atom_site_fract_z
_atom_site_charge
Mof_Co	Co	0.97023	0.71319	0.57933	1.095
Mof_Co	Co	0.07933	0.97023	0.78681	1.095
Mof_Co	Co	0.96524	0.46617	0.63595	1.183
Mof_Co	Co	0.03476	0.53383	0.36405	1.183
Mof_Co	Co	0.21319	0.92067	0.02977	1.095
Mof_Co	Co	0.57933	0.97023	0.71319	1.095
Mof_Co	Co	0.28681	0.07933	0.52977	1.095
Mof_Co	Co	0.03383	0.36405	0.46524	1.183
Mof_Co	Co	0.46524	0.03383	0.36405	1.183
Mof_Co	Co	0.46524	0.46617	0.86405	1.183
Mof_Co	Co	0.92067	0.02977	0.21319	1.095
Mof_Co	Co	0.96524	0.03383	0.13595	1.183
Mof_Co	Co	0.86405	0.46524	0.46617	1.183
Mof_Co	Co	0.78681	0.07933	0.97023	1.095
Mof_Co	Co	0.13595	0.96524	0.03383	1.183
Mof_Co	Co	0.97023	0.78681	0.07933	1.095
Mof_Co	Co	0.71319	0.92067	0.47023	1.095
Mof_Co	Co	0.46617	0.63595	0.96524	1.183
Mof_Co	Co	0.03383	0.13595	0.96524	1.183
Mof_Co	Co	0.86405	0.03476	0.96617	1.183
Mof_Co	Co	0.21319	0.57933	0.52977	1.095
Mof_Co	Co	0.36405	0.46524	0.03383	1.183
Mof_Co	Co	0.96617	0.63595	0.53476	1.183
Mof_Co	Co	0.53383	0.13595	0.53476	1.183
Mof_Co	Co	0.46617	0.86405	0.46524	1.183
Mof_Co	Co	0.57933	0.52977	0.21319	1.095
Mof_Co	Co	0.78681	0.42067	0.47023	1.095
Mof_Co	Co	0.63595	0.53476	0.96617	1.183
Mof_Co	Co	0.52977	0.21319	0.57933	1.095
Mof_Co	Co	0.96617	0.86405	0.03476	1.183
Mof_Co	Co	0.28681	0.42067	0.02977	1.095
Mof_Co	Co	0.53476	0.96617	0.63595	1.183
Mof_Co	Co	0.53383	0.36405	0.03476	1.183
Mof_Co	Co	0.63595	0.96524	0.46617	1.183
Mof_Co	Co	0.02977	0.21319	0.92067	1.095
Mof_Co	Co	0.47023	0.71319	0.92067	1.095
Mof_Co	Co	0.07933	0.52977	0.28681	1.095
Mof_Co	Co	0.03476	0.96617	0.86405	1.183
Mof_Co	Co	0.42067	0.02977	0.28681	1.095
Mof_Co	Co	0.92067	0.47023	0.71319	1.095
Mof_Co	Co	0.02977	0.28681	0.42067	1.095
Mof_Co	Co	0.53476	0.53383	0.13595	1.183
Mof_Co	Co	0.52977	0.28681	0.07933	1.096
Mof_Co	Co	0.36405	0.03476	0.53383	1.184
Mof_Co	Co	0.42067	0.47023	0.78681	1.096
Mof_Co	Co	0.47023	0.78681	0.42067	1.096
Mof_Co	Co	0.13595	0.53476	0.53383	1.184
Mof_Co	Co	0.71319	0.57933	0.97023	1.096
Mof_H 	H 	0.1681	0.3391	0.4922	0.089
Mof_H 	H 	0.6082	0.2287	0.8319	-0.052
Mof_H 	H 	0.6159	0.1942	0.7807	0.2
Mof_H 	H 	0.8841	0.6942	0.7807	0.2
Mof_H 	H 	0.0466	0.8266	0.273	0.088
Mof_H 	H 	0.1609	0.9922	0.1681	0.089
Mof_H 	H 	0.2481	0.3063	0.6067	0.13
Mof_H 	H 	0.4244	0.2288	0.5455	0.062
Mof_H 	H 	0.1499	0.7009	0.966	0.021
Mof_H 	H 	0.8058	0.2807	0.8841	0.2
Mof_H 	H 	0.7817	0.9191	0.9682	0.092
Mof_H 	H 	0.2713	0.3319	0.6082	-0.052
Mof_H 	H 	0.6937	0.1067	0.2519	0.13
Mof_H 	H 	0.7822	0.2448	0.3912	-0.175
Mof_H 	H 	0.5383	0.1636	0.6721	0.073
Mof_H 	H 	0.773	0.0466	0.6734	0.088
Mof_H 	H 	0.3791	0.5695	0.0014	0.053
Mof_H 	H 	0.1209	0.4305	0.5014	0.053
Mof_H 	H 	0.6935	0.6593	0.5432	0.074
Mof_H 	H 	0.2288	0.5455	0.4244	0.062
Mof_H 	H 	0.5466	0.8266	0.227	0.088
Mof_H 	H 	0.5466	0.6734	0.727	0.088
Mof_H 	H 	0.534	0.6499	0.7009	0.021
Mof_H 	H 	0.6088	0.2178	0.7552	-0.175
Mof_H 	H 	0.9534	0.1734	0.727	0.088
Mof_H 	H 	0.3319	0.6082	0.2713	-0.052
Mof_H 	H 	0.2481	0.1937	0.1067	0.13
Mof_H 	H 	0.0455	0.0733	0.8745	0.035
Mof_H 	H 	0.6734	0.727	0.5466	0.088
Mof_H 	H 	0.1827	0.5547	0.7855	0.021
Mof_H 	H 	0.8319	0.6609	0.5078	0.089
Mof_H 	H 	0.3063	0.6067	0.2481	0.13
Mof_H 	H 	0.3391	0.0078	0.6681	0.089
Mof_H 	H 	0.3912	0.7822	0.2448	-0.175
Mof_H 	H 	0.1067	0.2519	0.6937	0.13
Mof_H 	H 	0.2712	0.0455	0.4244	0.062
Mof_H 	H 	0.5455	0.4244	0.2288	0.062
Mof_H 	H 	0.8173	0.0547	0.7145	0.021
Mof_H 	H 	0.8918	0.7287	0.8319	-0.052
Mof_H 	H 	0.1937	0.3933	0.7481	0.13
Mof_H 	H 	0.6088	0.2822	0.2552	-0.175
Mof_H 	H 	0.6721	0.5383	0.1636	0.073
Mof_H 	H 	0.9986	0.8791	0.9305	0.053
Mof_H 	H 	0.6255	0.9545	0.5733	0.035
Mof_H 	H 	0.727	0.9534	0.1734	0.088
Mof_H 	H 	0.5809	0.0318	0.2817	0.092
Mof_H 	H 	0.8063	0.8933	0.7519	0.13
Mof_H 	H 	0.3918	0.7713	0.1681	-0.052
Mof_H 	H 	0.8063	0.6067	0.2519	0.13
Mof_H 	H 	0.1255	0.5455	0.4267	0.035
Mof_H 	H 	0.5014	0.1209	0.4305	0.053
Mof_H 	H 	0.5695	0.4986	0.8791	0.053
Mof_H 	H 	0.5455	0.4267	0.1255	0.035
Mof_H 	H 	0.8841	0.8058	0.2807	0.2
Mof_H 	H 	0.9244	0.2712	0.4545	0.062
Mof_H 	H 	0.4682	0.7817	0.5809	0.092
Mof_H 	H 	0.1636	0.6721	0.5383	0.073
Mof_H 	H 	0.3065	0.3407	0.4568	0.074
Mof_H 	H 	0.3407	0.0432	0.8065	0.074
Mof_H 	H 	0.2991	0.034	0.8501	0.021
Mof_H 	H 	0.6827	0.9453	0.2145	0.021
Mof_H 	H 	0.1935	0.8407	0.4568	0.074
Mof_H 	H 	0.6935	0.8407	0.0432	0.074
Mof_H 	H 	0.5809	0.4682	0.7817	0.092
Mof_H 	H 	0.9545	0.9244	0.2288	0.062
Mof_H 	H 	0.466	0.1499	0.7991	0.021
Mof_H 	H 	0.9267	0.1255	0.9545	0.035
Mof_H 	H 	0.2287	0.6681	0.1082	-0.052
Mof_H 	H 	0.7552	0.6088	0.2178	-0.175
Mof_H 	H 	0.8364	0.1721	0.9617	0.073
Mof_H 	H 	0.8173	0.4453	0.2145	0.021
Mof_H 	H 	0.5733	0.6255	0.9545	0.035
Mof_H 	H 	0.3841	0.8058	0.2193	0.2
Mof_H 	H 	0.9305	0.9986	0.8791	0.053
Mof_H 	H 	0.2991	0.466	0.3501	0.021
Mof_H 	H 	0.8501	0.2009	0.534	0.021
Mof_H 	H 	0.6255	0.5455	0.0733	0.035
Mof_H 	H 	0.4305	0.9986	0.6209	0.053
Mof_H 	H 	0.2552	0.6088	0.2822	-0.175
Mof_H 	H 	0.6499	0.7009	0.534	0.021
Mof_H 	H 	0.2178	0.7552	0.6088	-0.175
Mof_H 	H 	0.2193	0.1159	0.3058	0.2
Mof_H 	H 	0.8058	0.2193	0.3841	0.2
Mof_H 	H 	0.7481	0.1937	0.3933	0.13
Mof_H 	H 	0.7807	0.8841	0.6942	0.2
Mof_H 	H 	0.5318	0.2183	0.4191	0.092
Mof_H 	H 	0.4191	0.5318	0.2183	0.092
Mof_H 	H 	0.1159	0.1942	0.7193	0.2
Mof_H 	H 	0.3279	0.0383	0.3364	0.073
Mof_H 	H 	0.773	0.4534	0.1734	0.088
Mof_H 	H 	0.0318	0.2183	0.0809	0.092
Mof_H 	H 	0.6499	0.7991	0.034	0.021
Mof_H 	H 	0.3918	0.7287	0.6681	-0.052
Mof_H 	H 	0.7519	0.8063	0.8933	0.13
Mof_H 	H 	0.227	0.9534	0.3266	0.088
Mof_H 	H 	0.9191	0.9682	0.7817	0.092
Mof_H 	H 	0.4922	0.3319	0.8391	0.089
Mof_H 	H 	0.3364	0.3279	0.0383	0.073
Mof_H 	H 	0.9617	0.8364	0.1721	0.073
Mof_H 	H 	0.966	0.1499	0.7009	0.021
Mof_H 	H 	0.2713	0.1681	0.1082	-0.052
Mof_H 	H 	0.7713	0.3319	0.8918	-0.052
Mof_H 	H 	0.5014	0.3791	0.9305	0.053
Mof_H 	H 	0.2822	0.2448	0.1088	-0.175
Mof_H 	H 	0.9534	0.3266	0.227	0.088
Mof_H 	H 	0.7183	0.4191	0.9682	0.092
Mof_H 	H 	0.4545	0.9244	0.2712	0.062
Mof_H 	H 	0.1636	0.8279	0.0383	0.073
Mof_H 	H 	0.8065	0.1593	0.5432	0.074
Mof_H 	H 	0.9545	0.5733	0.6255	0.035
Mof_H 	H 	0.4453	0.2145	0.8173	0.021
Mof_H 	H 	0.7448	0.1088	0.2178	-0.175
Mof_H 	H 	0.2552	0.8912	0.7822	-0.175
Mof_H 	H 	0.9682	0.7183	0.4191	0.092
Mof_H 	H 	0.6942	0.7193	0.3841	0.2
Mof_H 	H 	0.0466	0.6734	0.773	0.088
Mof_H 	H 	0.8791	0.5695	0.4986	0.053
Mof_H 	H 	0.3319	0.8391	0.4922	0.089
Mof_H 	H 	0.4267	0.3745	0.0455	0.035
Mof_H 	H 	0.7822	0.2552	0.8912	-0.175
Mof_H 	H 	0.7288	0.5455	0.0756	0.062
Mof_H 	H 	0.1609	0.5078	0.6681	0.089
Mof_H 	H 	0.3065	0.1593	0.9568	0.074
Mof_H 	H 	0.7287	0.6681	0.3918	-0.052
Mof_H 	H 	0.2817	0.9191	0.5318	0.092
Mof_H 	H 	0.7712	0.0455	0.0756	0.062
Mof_H 	H 	0.7855	0.3173	0.0547	0.021
Mof_H 	H 	0.6681	0.1082	0.2287	-0.052
Mof_H 	H 	0.2178	0.7448	0.1088	-0.175
Mof_H 	H 	0.8933	0.7481	0.3063	0.13
Mof_H 	H 	0.7288	0.9545	0.5756	0.062
Mof_H 	H 	0.8501	0.2991	0.034	0.021
Mof_H 	H 	0.8319	0.8391	0.0078	0.089
Mof_H 	H 	0.966	0.3501	0.2009	0.021
Mof_H 	H 	0.1681	0.1609	0.9922	0.089
Mof_H 	H 	0.1209	0.0695	0.0014	0.053
Mof_H 	H 	0.2855	0.3173	0.4453	0.021
Mof_H 	H 	0.6681	0.3391	0.0078	0.089
Mof_H 	H 	0.3745	0.4545	0.9267	0.035
Mof_H 	H 	0.3319	0.8918	0.7713	-0.052
Mof_H 	H 	0.4267	0.1255	0.5455	0.035
Mof_H 	H 	0.0809	0.4682	0.7183	0.092
Mof_H 	H 	0.4682	0.7183	0.0809	0.092
Mof_H 	H 	0.9267	0.3745	0.4545	0.035
Mof_H 	H 	0.6082	0.2713	0.3319	-0.052
Mof_H 	H 	0.5455	0.0733	0.6255	0.035
Mof_H 	H 	0.534	0.8501	0.2009	0.021
Mof_H 	H 	0.8407	0.4568	0.1935	0.074
Mof_H 	H 	0.4545	0.5733	0.8745	0.035
Mof_H 	H 	0.273	0.0466	0.8266	0.088
Mof_H 	H 	0.034	0.8501	0.2991	0.021
Mof_H 	H 	0.0383	0.1636	0.8279	0.073
Mof_H 	H 	0.4922	0.1681	0.3391	0.089
Mof_H 	H 	0.7193	0.1159	0.1942	0.2
Mof_H 	H 	0.9922	0.1681	0.1609	0.089
Mof_H 	H 	0.4568	0.1935	0.8407	0.074
Mof_H 	H 	0.4305	0.5014	0.1209	0.053
Mof_H 	H 	0.3279	0.4617	0.8364	0.073
Mof_H 	H 	0.9568	0.3065	0.1593	0.074
Mof_H 	H 	0.7287	0.8319	0.8918	-0.052
Mof_H 	H 	0.2822	0.2552	0.6088	-0.175
Mof_H 	H 	0.2448	0.3912	0.7822	-0.175
Mof_H 	H 	0.8319	0.6082	0.2287	-0.052
Mof_H 	H 	0.9617	0.6636	0.6721	0.073
Mof_H 	H 	0.3933	0.7481	0.1937	0.13
Mof_H 	H 	0.466	0.3501	0.2991	0.021
Mof_H 	H 	0.7178	0.7448	0.3912	-0.175
Mof_H 	H 	0.7991	0.466	0.1499	0.021
Mof_H 	H 	0.5078	0.6681	0.1609	0.089
Mof_H 	H 	0.3063	0.8933	0.7481	0.13
Mof_H 	H 	0.5733	0.8745	0.4545	0.035
Mof_H 	H 	0.9305	0.5014	0.3791	0.053
Mof_H 	H 	0.0455	0.4267	0.3745	0.035
Mof_H 	H 	0.6636	0.6721	0.9617	0.073
Mof_H 	H 	0.6593	0.9568	0.1935	0.074
Mof_H 	H 	0.0014	0.3791	0.5695	0.053
Mof_H 	H 	0.9545	0.9267	0.1255	0.035
Mof_H 	H 	0.1721	0.5383	0.3364	0.073
Mof_H 	H 	0.0695	0.4986	0.6209	0.053
Mof_H 	H 	0.8745	0.0455	0.0733	0.035
Mof_H 	H 	0.3841	0.6942	0.7193	0.2
Mof_H 	H 	0.5756	0.7288	0.9545	0.062
Mof_H 	H 	0.2009	0.534	0.8501	0.021
Mof_H 	H 	0.7009	0.966	0.1499	0.021
Mof_H 	H 	0.034	0.6499	0.7991	0.021
Mof_H 	H 	0.5078	0.8319	0.6609	0.089
Mof_H 	H 	0.7807	0.6159	0.1942	0.2
Mof_H 	H 	0.9682	0.7817	0.9191	0.092
Mof_H 	H 	0.8266	0.227	0.5466	0.088
Mof_H 	H 	0.0455	0.0756	0.7712	0.062
Mof_H 	H 	0.1088	0.2178	0.7448	-0.175
Mof_H 	H 	0.3266	0.227	0.9534	0.088
Mof_H 	H 	0.7145	0.6827	0.5547	0.021
Mof_H 	H 	0.5383	0.3364	0.1721	0.073
Mof_H 	H 	0.273	0.4534	0.3266	0.088
Mof_H 	H 	0.2193	0.3841	0.8058	0.2
Mof_H 	H 	0.3501	0.2009	0.966	0.021
Mof_H 	H 	0.1942	0.7807	0.6159	0.2
Mof_H 	H 	0.227	0.5466	0.8266	0.088
Mof_H 	H 	0.1067	0.2481	0.1937	0.13
Mof_H 	H 	0.0809	0.0318	0.2183	0.092
Mof_H 	H 	0.0756	0.7712	0.0455	0.062
Mof_H 	H 	0.5547	0.7145	0.6827	0.021
Mof_H 	H 	0.2183	0.0809	0.0318	0.092
Mof_H 	H 	0.3058	0.2193	0.1159	0.2
Mof_H 	H 	0.1593	0.9568	0.3065	0.074
Mof_H 	H 	0.7145	0.8173	0.0547	0.021
Mof_H 	H 	0.4545	0.9267	0.3745	0.035
Mof_H 	H 	0.3391	0.4922	0.1681	0.089
Mof_H 	H 	0.3173	0.4453	0.2855	0.021
Mof_H 	H 	0.7183	0.0809	0.4682	0.092
Mof_H 	H 	0.0695	0.0014	0.1209	0.053
Mof_H 	H 	0.6609	0.5078	0.8319	0.089
Mof_H 	H 	0.6734	0.773	0.0466	0.088
Mof_H 	H 	0.9545	0.5756	0.7288	0.062
Mof_H 	H 	0.3912	0.7178	0.7448	-0.175
Mof_H 	H 	0.4617	0.8364	0.3279	0.073
Mof_H 	H 	0.1827	0.9453	0.2855	0.021
Mof_H 	H 	0.4453	0.2855	0.3173	0.021
Mof_H 	H 	0.7855	0.1827	0.5547	0.021
Mof_H 	H 	0.3933	0.7519	0.6937	0.13
Mof_H 	H 	0.5547	0.7855	0.1827	0.021
Mof_H 	H 	0.2519	0.8063	0.6067	0.13
Mof_H 	H 	0.4534	0.1734	0.773	0.088
Mof_H 	H 	0.0455	0.4244	0.2712	0.062
Mof_H 	H 	0.8391	0.0078	0.8319	0.089
Mof_H 	H 	0.8933	0.7519	0.8063	0.13
Mof_H 	H 	0.1593	0.5432	0.8065	0.074
Mof_H 	H 	0.3745	0.0455	0.4267	0.035
Mof_H 	H 	0.6942	0.7807	0.8841	0.2
Mof_H 	H 	0.0078	0.6681	0.3391	0.089
Mof_H 	H 	0.8745	0.4545	0.5733	0.035
Mof_H 	H 	0.2145	0.8173	0.4453	0.021
Mof_H 	H 	0.1721	0.9617	0.8364	0.073
Mof_H 	H 	0.3266	0.273	0.4534	0.088
Mof_H 	H 	0.1734	0.727	0.9534	0.088
Mof_H 	H 	0.6159	0.3058	0.2807	0.2
Mof_H 	H 	0.6067	0.2519	0.8063	0.13
Mof_H 	H 	0.8791	0.9305	0.9986	0.053
Mof_H 	H 	0.1499	0.7991	0.466	0.021
Mof_H 	H 	0.0733	0.6255	0.5455	0.035
Mof_H 	H 	0.6209	0.4305	0.9986	0.053
Mof_H 	H 	0.0014	0.1209	0.0695	0.053
Mof_H 	H 	0.8364	0.3279	0.4617	0.073
Mof_H 	H 	0.9986	0.6209	0.4305	0.053
Mof_H 	H 	0.4545	0.5756	0.7712	0.062
Mof_H 	H 	0.4568	0.3065	0.3407	0.074
Mof_H 	H 	0.1937	0.1067	0.2481	0.13
Mof_H 	H 	0.7991	0.034	0.6499	0.021
Mof_H 	H 	0.2712	0.4545	0.9244	0.062
Mof_H 	H 	0.5318	0.2817	0.9191	0.092
Mof_H 	H 	0.9922	0.3319	0.6609	0.089
Mof_H 	H 	0.0432	0.8065	0.3407	0.074
Mof_H 	H 	0.5756	0.7712	0.4545	0.062
Mof_H 	H 	0.0383	0.3364	0.3279	0.073
Mof_H 	H 	0.7817	0.5809	0.4682	0.092
Mof_H 	H 	0.0078	0.8319	0.8391	0.089
Mof_H 	H 	0.0733	0.8745	0.0455	0.035
Mof_H 	H 	0.2145	0.6827	0.9453	0.021
Mof_H 	H 	0.2287	0.8319	0.6082	-0.052
Mof_H 	H 	0.8407	0.0432	0.6935	0.074
Mof_H 	H 	0.6636	0.8279	0.4617	0.073
Mof_H 	H 	0.1159	0.3058	0.2193	0.2
Mof_H 	H 	0.4986	0.8791	0.5695	0.053
Mof_H 	H 	0.8065	0.3407	0.0432	0.074
Mof_H 	H 	0.8279	0.0383	0.1636	0.073
Mof_H 	H 	0.8319	0.8918	0.7287	-0.052
Mof_H 	H 	0.1942	0.7193	0.1159	0.2
Mof_H 	H 	0.4986	0.6209	0.0695	0.053
Mof_H 	H 	0.8279	0.4617	0.6636	0.073
Mof_H 	H 	0.5432	0.6935	0.6593	0.074
Mof_H 	H 	0.3058	0.2807	0.6159	0.2
Mof_H 	H 	0.9453	0.2145	0.6827	0.021
Mof_H 	H 	0.8391	0.4922	0.3319	0.089
Mof_H 	H 	0.8266	0.273	0.0466	0.088
Mof_H 	H 	0.7712	0.4545	0.5756	0.062
Mof_H 	H 	0.0756	0.7288	0.5455	0.062
Mof_H 	H 	0.1088	0.2822	0.2448	-0.175
Mof_H 	H 	0.7481	0.3063	0.8933	0.13
Mof_H 	H 	0.7519	0.6937	0.3933	0.13
Mof_H 	H 	0.2009	0.966	0.3501	0.021
Mof_H 	H 	0.1082	0.2713	0.1681	-0.052
Mof_H 	H 	0.0547	0.7855	0.3173	0.021
Mof_H 	H 	0.5432	0.8065	0.1593	0.074
Mof_H 	H 	0.8912	0.7178	0.7552	-0.175
Mof_H 	H 	0.7448	0.3912	0.7178	-0.175
Mof_H 	H 	0.9568	0.1935	0.6593	0.074
Mof_H 	H 	0.2183	0.4191	0.5318	0.092
Mof_H 	H 	0.6827	0.5547	0.7145	0.021
Mof_H 	H 	0.6937	0.3933	0.7519	0.13
Mof_H 	H 	0.4191	0.9682	0.7183	0.092
Mof_H 	H 	0.2448	0.1088	0.2822	-0.175
Mof_H 	H 	0.5695	0.0014	0.3791	0.053
Mof_H 	H 	0.1935	0.6593	0.9568	0.074
Mof_H 	H 	0.4244	0.2712	0.0455	0.062
Mof_H 	H 	0.6681	0.3918	0.7287	-0.052
Mof_H 	H 	0.4534	0.3266	0.273	0.088
Mof_H 	H 	0.1255	0.9545	0.9267	0.035
Mof_H 	H 	0.1681	0.3918	0.7713	-0.052
Mof_H 	H 	0.6721	0.9617	0.6636	0.073
Mof_H 	H 	0.0318	0.2817	0.5809	0.092
Mof_H 	H 	0.2817	0.5809	0.0318	0.092
Mof_H 	H 	0.727	0.5466	0.6734	0.088
Mof_H 	H 	0.7178	0.7552	0.8912	-0.175
Mof_H 	H 	0.1734	0.773	0.4534	0.088
Mof_H 	H 	0.7552	0.8912	0.7178	-0.175
Mof_H 	H 	0.3364	0.1721	0.5383	0.073
Mof_H 	H 	0.2807	0.8841	0.8058	0.2
Mof_H 	H 	0.1082	0.2287	0.6681	-0.052
Mof_H 	H 	0.6681	0.1609	0.5078	0.089
Mof_H 	H 	0.6593	0.5432	0.6935	0.074
Mof_H 	H 	0.8918	0.7713	0.3319	-0.052
Mof_H 	H 	0.3173	0.0547	0.7855	0.021
Mof_H 	H 	0.2288	0.9545	0.9244	0.062
Mof_H 	H 	0.9191	0.5318	0.2817	0.092
Mof_H 	H 	0.3791	0.9305	0.5014	0.053
Mof_H 	H 	0.4617	0.6636	0.8279	0.073
Mof_H 	H 	0.9453	0.2855	0.1827	0.021
Mof_H 	H 	0.3501	0.2991	0.466	0.021
Mof_H 	H 	0.7713	0.1681	0.3918	-0.052
Mof_H 	H 	0.5455	0.0756	0.7288	0.062
Mof_H 	H 	0.7009	0.534	0.6499	0.021
Mof_H 	H 	0.3319	0.6609	0.9922	0.089
Mof_H 	H 	0.9244	0.2288	0.9545	0.062
Mof_H 	H 	0.3407	0.4568	0.3065	0.074
Mof_H 	H 	0.2807	0.6159	0.3058	0.2
Mof_H 	H 	0.0432	0.6935	0.8407	0.074
Mof_H 	H 	0.6609	0.9922	0.3319	0.089
Mof_H 	H 	0.7193	0.3841	0.6942	0.2
Mof_H 	H 	0.8912	0.7822	0.2552	-0.175
Mof_H 	H 	0.6209	0.0695	0.4986	0.053
Mof_H 	H 	0.2519	0.6937	0.1067	0.13
Mof_H 	H 	0.2855	0.1827	0.9453	0.021
Mof_H 	H 	0.1681	0.1082	0.2713	-0.052
Mof_H 	H 	0.0547	0.7145	0.8173	0.021
Mof_H 	H 	0.6067	0.2481	0.3063	0.13
Mof_C 	C 	0.017	0.1697	0.0688	-0.063
Mof_C 	C 	0.3271	0.4587	0.8603	-0.042
Mof_C 	C 	0.7343	0.0654	0.1928	-0.45
Mof_C 	C 	0.8593	0.9169	0.996	0.016
Mof_C 	C 	0.2472	0.991	0.8523	0.457
Mof_C 	C 	0.7675	0.1727	0.4431	0.287
Mof_C 	C 	0.9587	0.8603	0.1729	-0.042
Mof_C 	C 	0.1257	0.0137	0.1962	0.138
Mof_C 	C 	0.9808	0.3897	0.6354	0.327
Mof_C 	C 	0.4547	0.9136	0.2928	-0.019
Mof_C 	C 	0.3252	0.049	0.4685	0.46
Mof_C 	C 	0.3067	0.3273	0.4769	-0.104
Mof_C 	C 	0.7427	0.8133	0.9431	-0.358
Mof_C 	C 	0.2472	0.509	0.3523	0.457
Mof_C 	C 	0.1477	0.7472	0.509	0.457
Mof_C 	C 	0.2296	0.41	0.7835	0.636
Mof_C 	C 	0.0051	0.7263	0.8208	0.022
Mof_C 	C 	0.3826	0.4947	0.1397	-0.046
Mof_C 	C 	0.8287	0.5332	0.4729	0.359
Mof_C 	C 	0.3314	0.8622	0.4995	-0.086
Mof_C 	C 	0.6911	0.9675	0.2095	0.057
Mof_C 	C 	0.9346	0.8072	0.2657	-0.45
Mof_C 	C 	0.3646	0.4808	0.1103	0.327
Mof_C 	C 	0.2657	0.9346	0.8072	-0.45
Mof_C 	C 	0.7186	0.6696	0.4992	-0.067
Mof_C 	C 	0.3208	0.4949	0.2737	0.022
Mof_C 	C 	0.9956	0.8248	0.2739	-0.009
Mof_C 	C 	0.2261	0.4956	0.8248	-0.009
Mof_C 	C 	0.0688	0.483	0.6697	-0.063
Mof_C 	C 	0.1962	0.3743	0.5137	0.138
Mof_C 	C 	0.0453	0.0864	0.7928	-0.019
Mof_C 	C 	0.0875	0.2394	0.7015	-0.278
Mof_C 	C 	0.5336	0.3073	0.2848	0.007
Mof_C 	C 	0.7905	0.9059	0.6977	-0.608
Mof_C 	C 	0.8252	0.451	0.5315	0.46
Mof_C 	C 	0.8133	0.5569	0.2427	-0.358
Mof_C 	C 	0.3208	0.0051	0.7737	0.022
Mof_C 	C 	0.0019	0.2427	0.64	0.07
Mof_C 	C 	0.2985	0.9125	0.7606	-0.278
Mof_C 	C 	0.4947	0.3603	0.8826	-0.046
Mof_C 	C 	0.4494	0.7712	0.6624	0.513
Mof_C 	C 	0.2212	0.819	0.5891	0.271
Mof_C 	C 	0.4808	0.3897	0.8646	0.327
Mof_C 	C 	0.549	0.4685	0.1748	0.46
Mof_C 	C 	0.1624	0.0506	0.2288	0.513
Mof_C 	C 	0.7848	0.9664	0.6927	0.007
Mof_C 	C 	0.517	0.1697	0.4312	-0.063
Mof_C 	C 	0.3314	0.6378	0.9995	-0.086
Mof_C 	C 	0.7427	0.86	0.9981	0.07
Mof_C 	C 	0.7472	0.509	0.1477	0.457
Mof_C 	C 	0.9169	0.996	0.8593	0.016
Mof_C 	C 	0.9729	0.8287	0.9668	0.359
Mof_C 	C 	0.4724	0.1841	0.7833	-0.134
Mof_C 	C 	0.9494	0.7712	0.8376	0.513
Mof_C 	C 	0.2387	0.4789	0.865	-0.244
Mof_C 	C 	0.8089	0.4675	0.2095	0.057
Mof_C 	C 	0.7814	0.1696	0.4992	-0.067
Mof_C 	C 	0.8622	0.0005	0.8314	-0.086
Mof_C 	C 	0.2192	0.8111	0.5294	0.021
Mof_C 	C 	0.7325	0.6727	0.4431	0.287
Mof_C 	C 	0.6446	0.0498	0.2572	-0.286
Mof_C 	C 	0.6792	0.9949	0.2263	0.022
Mof_C 	C 	0.0224	0.302	0.59	-0.052
Mof_C 	C 	0.991	0.8523	0.2472	0.457
Mof_C 	C 	0.6107	0.5447	0.1399	0.404
Mof_C 	C 	0.1792	0.5051	0.7737	0.022
Mof_C 	C 	0.84611	0.253	0.9297	1.025
Mof_C 	C 	0.0569	0.2573	0.1867	-0.358
Mof_C 	C 	0.9553	0.8601	0.1107	0.404
Mof_C 	C 	0.3593	0.9169	0.504	0.016
Mof_C 	C 	0.6962	0.3743	0.9863	0.138
Mof_C 	C 	0.9664	0.8073	0.2848	0.007
Mof_C 	C 	0.3523	0.2528	0.009	0.457
Mof_C 	C 	0.1748	0.549	0.4685	0.46
Mof_C 	C 	0.1748	0.951	0.9685	0.46
Mof_C 	C 	0.14	0.4981	0.7573	0.069
Mof_C 	C 	0.0657	0.181	0.7214	0.385
Mof_C 	C 	0.7427	0.6867	0.4431	-0.358
Mof_C 	C 	0.4664	0.8073	0.2152	0.007
Mof_C 	C 	0.5435	0.3799	0.1436	-0.1
Mof_C 	C 	0.8073	0.2848	0.9664	0.007
Mof_C 	C 	0.0168	0.6664	0.8031	0.084
Mof_C 	C 	0.9549	0.9138	0.1459	0.059
Mof_C 	C 	0.5168	0.8336	0.1969	0.084
Mof_C 	C 	0.0831	0.496	0.6407	0.016
Mof_C 	C 	0.5332	0.0271	0.3287	0.359
Mof_C 	C 	0.9549	0.5862	0.6459	0.059
Mof_C 	C 	0.3376	0.5506	0.2288	0.513
Mof_C 	C 	0.5276	0.6841	0.7167	-0.134
Mof_C 	C 	0.5702	0.33502	0.2392	-0.778
Mof_C 	C 	0.4995	0.1686	0.3622	-0.086
Mof_C 	C 	0.3072	0.2343	0.0654	-0.45
Mof_C 	C 	0.2095	0.6911	0.9675	0.057
Mof_C 	C 	0.5136	0.1641	0.7855	-0.058
Mof_C 	C 	0.9298	0.66498	0.7392	-0.778
Mof_C 	C 	0.753	0.9297	0.65389	1.025
Mof_C 	C 	0.7261	0.0044	0.1752	-0.009
Mof_C 	C 	0.3776	0.2968	0.0438	0.114
Mof_C 	C 	0.9995	0.1686	0.1378	-0.086
Mof_C 	C 	0.8159	0.2167	0.5276	-0.134
Mof_C 	C 	0.0875	0.2606	0.2015	-0.278
Mof_C 	C 	0.9565	0.6201	0.6436	-0.1
Mof_C 	C 	0.8776	0.2032	0.9562	0.114
Mof_C 	C 	0.16498	0.7608	0.0702	-0.778
Mof_C 	C 	0.6446	0.4502	0.7572	-0.286
Mof_C 	C 	0.6841	0.7833	0.0276	-0.134
Mof_C 	C 	0.8314	0.6378	0.5005	-0.086
Mof_C 	C 	0.4312	0.517	0.1697	-0.063
Mof_C 	C 	0.5276	0.8159	0.2167	-0.134
Mof_C 	C 	0.4565	0.6201	0.8564	-0.1
Mof_C 	C 	0.4312	0.983	0.6697	-0.063
Mof_C 	C 	0.951	0.5315	0.6748	0.46
Mof_C 	C 	0.7165	0.7296	0.41	0.636
Mof_C 	C 	0.5053	0.8603	0.6174	-0.046
Mof_C 	C 	0.4706	0.7192	0.6889	0.021
Mof_C 	C 	0.635	0.7387	0.4789	-0.244
Mof_C 	C 	0.8564	0.0435	0.1201	-0.1
Mof_C 	C 	0.2712	0.8376	0.5506	0.513
Mof_C 	C 	0.5231	0.8067	0.1727	-0.104
Mof_C 	C 	0.2186	0.8304	0.5008	-0.067
Mof_C 	C 	0.9138	0.1459	0.9549	0.059
Mof_C 	C 	0.7472	0.991	0.6477	0.457
Mof_C 	C 	0.2855	0.9864	0.8359	-0.058
Mof_C 	C 	0.3031	0.4832	0.3336	0.084
Mof_C 	C 	0.0315	0.6748	0.549	0.46
Mof_C 	C 	0.8314	0.8622	0.0005	-0.086
Mof_C 	C 	0.3743	0.5137	0.1962	0.138
Mof_C 	C 	0.5569	0.2427	0.8133	-0.358
Mof_C 	C 	0.1103	0.1354	0.9808	0.327
Mof_C 	C 	0.7848	0.5336	0.1927	0.007
Mof_C 	C 	0.4562	0.6224	0.7968	0.114
Mof_C 	C 	0.0271	0.3287	0.5332	0.359
Mof_C 	C 	0.3564	0.0435	0.3799	-0.1
Mof_C 	C 	0.681	0.7786	0.9343	0.385
Mof_C 	C 	0.5005	0.6686	0.1378	-0.086
Mof_C 	C 	0.177	0.9537	0.9314	-0.128
Mof_C 	C 	0.7833	0.4724	0.1841	-0.134
Mof_C 	C 	0.802	0.59	0.4776	-0.052
Mof_C 	C 	0.9494	0.7288	0.3376	0.513
Mof_C 	C 	0.451	0.5315	0.8252	0.46
Mof_C 	C 	0.5413	0.3603	0.1729	-0.042
Mof_C 	C 	0.0451	0.0862	0.8541	0.059
Mof_C 	C 	0.5231	0.6933	0.6727	-0.104
Mof_C 	C 	0.4431	0.7573	0.1867	-0.358
Mof_C 	C 	0.9109	0.7788	0.319	0.271
Mof_C 	C 	0.4956	0.6752	0.7261	-0.009
Mof_C 	C 	0.5051	0.7737	0.1792	0.022
Mof_C 	C 	0.7072	0.9547	0.5864	-0.019
Mof_C 	C 	0.5137	0.1962	0.3743	0.138
Mof_C 	C 	0.9729	0.6713	0.4668	0.359
Mof_C 	C 	0.3303	0.9312	0.517	-0.063
Mof_C 	C 	0.8031	0.0168	0.6664	0.084
Mof_C 	C 	0.0702	0.16498	0.7608	-0.778
Mof_C 	C 	0.5019	0.2573	0.36	0.069
Mof_C 	C 	0.698	0.41	0.9776	-0.052
Mof_C 	C 	0.7167	0.9724	0.1841	-0.134
Mof_C 	C 	0.4125	0.7394	0.7015	-0.278
Mof_C 	C 	0.7905	0.5941	0.1977	-0.608
Mof_C 	C 	0.865	0.2613	0.9789	-0.244
Mof_C 	C 	0.1531	0.5102	0.7461	0.184
Mof_C 	C 	0.5325	0.7905	0.1911	0.057
Mof_C 	C 	0.3799	0.3564	0.0435	-0.1
Mof_C 	C 	0.1933	0.6727	0.9769	-0.104
Mof_C 	C 	0.7835	0.2704	0.91	0.636
Mof_C 	C 	0.3743	0.9863	0.6962	0.138
Mof_C 	C 	0.8273	0.5569	0.2325	0.287
Mof_C 	C 	0.5875	0.2606	0.2985	-0.278
Mof_C 	C 	0.3304	0.5008	0.2814	-0.067
Mof_C 	C 	0.5453	0.4136	0.2072	-0.019
Mof_C 	C 	0.66498	0.7392	0.9298	-0.778
Mof_C 	C 	0.198	0.09	0.0224	-0.052
Mof_C 	C 	0.253	0.5703	0.34611	1.025
Mof_C 	C 	0.3897	0.8646	0.4808	0.327
Mof_C 	C 	0.6224	0.7032	0.9562	0.114
Mof_C 	C 	0.2428	0.3554	0.5498	-0.286
Mof_C 	C 	0.1696	0.4992	0.7814	-0.067
Mof_C 	C 	0.6624	0.0506	0.2712	0.513
Mof_C 	C 	0.5862	0.8541	0.4549	0.059
Mof_C 	C 	0.1927	0.7848	0.5336	0.007
Mof_C 	C 	0.2848	0.9664	0.8073	0.007
Mof_C 	C 	0.33502	0.2392	0.5702	-0.778
Mof_C 	C 	0.6624	0.4494	0.7712	0.513
Mof_C 	C 	0.0569	0.2325	0.6727	0.287
Mof_C 	C 	0.1201	0.8564	0.0435	-0.1
Mof_C 	C 	0.7461	0.1531	0.5102	0.184
Mof_C 	C 	0.14	0.0019	0.2573	0.07
Mof_C 	C 	0.9537	0.5686	0.677	-0.128
Mof_C 	C 	0.0686	0.823	0.0463	-0.128
Mof_C 	C 	0.9832	0.3336	0.1969	0.084
Mof_C 	C 	0.7032	0.9562	0.6224	0.114
Mof_C 	C 	0.2833	0.0276	0.8159	-0.134
Mof_C 	C 	0.2152	0.0336	0.3073	0.007
Mof_C 	C 	0.5102	0.7461	0.1531	0.184
Mof_C 	C 	0.2968	0.0438	0.3776	0.114
Mof_C 	C 	0.5315	0.8252	0.451	0.46
Mof_C 	C 	0.509	0.1477	0.7472	0.457
Mof_C 	C 	0.7539	0.6531	0.5102	0.184
Mof_C 	C 	0.3031	0.0168	0.8336	0.084
Mof_C 	C 	0.4537	0.5686	0.823	-0.128
Mof_C 	C 	0.8359	0.2145	0.4864	-0.058
Mof_C 	C 	0.7095	0.8089	0.0325	0.057
Mof_C 	C 	0.5453	0.0864	0.7072	-0.019
Mof_C 	C 	0.7212	0.681	0.4109	0.271
Mof_C 	C 	0.0686	0.677	0.5463	-0.128
Mof_C 	C 	0.6103	0.3646	0.0192	0.327
Mof_C 	C 	0.2461	0.3469	0.4898	0.184
Mof_C 	C 	0.8564	0.4565	0.6201	-0.1
Mof_C 	C 	0.7214	0.4343	0.681	0.385
Mof_C 	C 	0.41	0.7165	0.7296	0.636
Mof_C 	C 	0.323	0.0463	0.4314	-0.128
Mof_C 	C 	0.5498	0.2572	0.8554	-0.286
Mof_C 	C 	0.1399	0.6107	0.5447	0.404
Mof_C 	C 	0.6933	0.6727	0.5231	-0.104
Mof_C 	C 	0.3089	0.0325	0.7905	0.057
Mof_C 	C 	0.823	0.4537	0.5686	-0.128
Mof_C 	C 	0.319	0.2214	0.0657	0.385
Mof_C 	C 	0.4169	0.504	0.1407	0.016
Mof_C 	C 	0.3601	0.3893	0.0447	0.404
Mof_C 	C 	0.319	0.2786	0.5657	0.385
Mof_C 	C 	0.2675	0.1727	0.0569	0.287
Mof_C 	C 	0.7387	0.0211	0.135	-0.244
Mof_C 	C 	0.4664	0.6927	0.7152	0.007
Mof_C 	C 	0.0044	0.1752	0.7261	-0.009
Mof_C 	C 	0.1841	0.7167	0.9724	-0.134
Mof_C 	C 	0.7015	0.0875	0.2394	-0.278
Mof_C 	C 	0.3554	0.9502	0.7428	-0.286
Mof_C 	C 	0.509	0.3523	0.2472	0.457
Mof_C 	C 	0.1378	0.9995	0.1686	-0.086
Mof_C 	C 	0.5941	0.1977	0.7905	-0.608
Mof_C 	C 	0.9995	0.3314	0.6378	-0.086
Mof_C 	C 	0.2165	0.7296	0.09	0.636
Mof_C 	C 	0.6713	0.4668	0.9729	0.359
Mof_C 	C 	0.819	0.9109	0.7212	0.271
Mof_C 	C 	0.2095	0.8089	0.4675	0.057
Mof_C 	C 	0.4537	0.9314	0.323	-0.128
Mof_C 	C 	0.5569	0.2325	0.8273	0.287
Mof_C 	C 	0.8248	0.2261	0.4956	-0.009
Mof_C 	C 	0.9956	0.6752	0.7739	-0.009
Mof_C 	C 	0.2808	0.3111	0.5294	0.021
Mof_C 	C 	0.6911	0.5325	0.7095	0.057
Mof_C 	C 	0.6436	0.9565	0.6201	-0.1
Mof_C 	C 	0.2572	0.6446	0.0498	-0.286
Mof_C 	C 	0.1531	0.9898	0.2461	0.184
Mof_C 	C 	0.4562	0.8776	0.2968	0.114
Mof_C 	C 	0.7608	0.4298	0.66498	-0.778
Mof_C 	C 	0.5211	0.365	0.2613	-0.244
Mof_C 	C 	0.15389	0.747	0.0703	1.025
Mof_C 	C 	0.5654	0.1928	0.7657	-0.45
Mof_C 	C 	0.6257	0.4863	0.8038	0.138
Mof_C 	C 	0.1867	0.4431	0.7573	-0.358
Mof_C 	C 	0.3248	0.2739	0.5044	-0.009
Mof_C 	C 	0.8469	0.0102	0.7539	0.184
Mof_C 	C 	0.8133	0.9431	0.7427	-0.358
Mof_C 	C 	0.6664	0.6969	0.5168	0.084
Mof_C 	C 	0.5224	0.198	0.41	-0.052
Mof_C 	C 	0.7428	0.1446	0.4502	-0.286
Mof_C 	C 	0.6686	0.3622	0.0005	-0.086
Mof_C 	C 	0.7165	0.7704	0.91	0.636
Mof_C 	C 	0.8273	0.4769	0.1933	-0.104
Mof_C 	C 	0.0413	0.1397	0.8271	-0.042
Mof_C 	C 	0.0498	0.2572	0.6446	-0.286
Mof_C 	C 	0.5008	0.2814	0.3304	-0.067
Mof_C 	C 	0.496	0.8593	0.5831	0.016
Mof_C 	C 	0.5271	0.1713	0.4668	0.359
Mof_C 	C 	0.2539	0.6531	0.9898	0.184
Mof_C 	C 	0.6459	0.9549	0.5862	0.059
Mof_C 	C 	0.823	0.0463	0.0686	-0.128
Mof_C 	C 	0.6792	0.5051	0.7263	0.022
Mof_C 	C 	0.6201	0.6436	0.9565	-0.1
Mof_C 	C 	0.319	0.9109	0.7788	0.271
Mof_C 	C 	0.7968	0.0438	0.1224	0.114
Mof_C 	C 	0.1174	0.5053	0.6397	-0.046
Mof_C 	C 	0.6397	0.1174	0.5053	-0.046
Mof_C 	C 	0.9949	0.2737	0.1792	0.022
Mof_C 	C 	0.8111	0.9706	0.7192	0.021
Mof_C 	C 	0.2167	0.9724	0.3159	-0.134
Mof_C 	C 	0.2855	0.5136	0.3359	-0.058
Mof_C 	C 	0.8523	0.2528	0.491	0.457
Mof_C 	C 	0.8336	0.1969	0.5168	0.084
Mof_C 	C 	0.4685	0.3252	0.049	0.46
Mof_C 	C 	0.5294	0.2808	0.3111	0.021
Mof_C 	C 	0.9864	0.8359	0.2855	-0.058
Mof_C 	C 	0.635	0.7613	0.9789	-0.244
Mof_C 	C 	0.2263	0.8208	0.4949	0.022
Mof_C 	C 	0.0413	0.3603	0.3271	-0.042
Mof_C 	C 	0.5688	0.017	0.3303	-0.063
Mof_C 	C 	0.3111	0.5294	0.2808	0.021
Mof_C 	C 	0.1641	0.7855	0.5136	-0.058
Mof_C 	C 	0.9863	0.8038	0.8743	0.138
Mof_C 	C 	0.9125	0.7606	0.2985	-0.278
Mof_C 	C 	0.9431	0.7427	0.8133	-0.358
Mof_C 	C 	0.1697	0.4312	0.517	-0.063
Mof_C 	C 	0.0941	0.3023	0.2095	-0.608
Mof_C 	C 	0.4675	0.2095	0.8089	0.057
Mof_C 	C 	0.5447	0.3601	0.1107	0.404
Mof_C 	C 	0.3799	0.1436	0.5435	-0.1
Mof_C 	C 	0.6257	0.0137	0.3038	0.138
Mof_C 	C 	0.5864	0.7072	0.9547	-0.019
Mof_C 	C 	0.9565	0.8799	0.1436	-0.1
Mof_C 	C 	0.8303	0.9312	0.983	-0.063
Mof_C 	C 	0.1889	0.4706	0.7808	0.021
Mof_C 	C 	0.3593	0.5831	0.004	0.016
Mof_C 	C 	0.2905	0.5941	0.3023	-0.608
Mof_C 	C 	0.4898	0.2461	0.3469	0.184
Mof_C 	C 	0.991	0.6477	0.7472	0.457
Mof_C 	C 	0.09	0.2835	0.2296	0.636
Mof_C 	C 	0.59	0.2835	0.2704	0.636
Mof_C 	C 	0.7152	0.0336	0.1927	0.007
Mof_C 	C 	0.9675	0.2095	0.6911	0.057
Mof_C 	C 	0.6889	0.4706	0.7192	0.021
Mof_C 	C 	0.9685	0.3252	0.451	0.46
Mof_C 	C 	0.1459	0.5451	0.4138	0.059
Mof_C 	C 	0.5413	0.1397	0.6729	-0.042
Mof_C 	C 	0.7392	0.5702	0.16498	-0.778
Mof_C 	C 	0.91	0.7835	0.2704	0.636
Mof_C 	C 	0.5702	0.16498	0.7392	-0.778
Mof_C 	C 	0.6927	0.7152	0.4664	0.007
Mof_C 	C 	0.1927	0.7152	0.0336	0.007
Mof_C 	C 	0.496	0.6407	0.0831	0.016
Mof_C 	C 	0.6727	0.5231	0.6933	-0.104
Mof_C 	C 	0.951	0.9685	0.1748	0.46
Mof_C 	C 	0.3776	0.2032	0.5438	0.114
Mof_C 	C 	0.7288	0.3376	0.9494	0.513
Mof_C 	C 	0.1928	0.7657	0.5654	-0.45
Mof_C 	C 	0.747	0.0703	0.15389	1.025
Mof_C 	C 	0.4992	0.7186	0.6696	-0.067
Mof_C 	C 	0.0051	0.7737	0.3208	0.022
Mof_C 	C 	0.59	0.2165	0.7704	0.636
Mof_C 	C 	0.8336	0.3031	0.0168	0.084
Mof_C 	C 	0.9981	0.7573	0.36	0.07
Mof_C 	C 	0.0325	0.7095	0.8089	0.057
Mof_C 	C 	0.7786	0.9343	0.681	0.385
Mof_C 	C 	0.9562	0.6224	0.7032	0.114
Mof_C 	C 	0.2394	0.7985	0.5875	-0.278
Mof_C 	C 	0.3564	0.4565	0.8799	-0.1
Mof_C 	C 	0.0891	0.2788	0.181	0.271
Mof_C 	C 	0.8541	0.0451	0.0862	0.059
Mof_C 	C 	0.1477	0.7528	0.009	0.457
Mof_C 	C 	0.8208	0.4949	0.2263	0.022
Mof_C 	C 	0.9668	0.9729	0.8287	0.359
Mof_C 	C 	0.0102	0.7539	0.8469	0.184
Mof_C 	C 	0.64	0.0019	0.2427	0.07
Mof_C 	C 	0.8303	0.5688	0.483	-0.063
Mof_C 	C 	0.7835	0.2296	0.41	0.636
Mof_C 	C 	0.253	0.9297	0.84611	1.025
Mof_C 	C 	0.7261	0.4956	0.6752	-0.009
Mof_C 	C 	0.1962	0.1257	0.0137	0.138
Mof_C 	C 	0.4949	0.2737	0.3208	0.022
Mof_C 	C 	0.8593	0.5831	0.496	0.016
Mof_C 	C 	0.6713	0.0332	0.4729	0.359
Mof_C 	C 	0.3273	0.0231	0.8067	-0.104
Mof_C 	C 	0.8304	0.9992	0.7186	-0.067
Mof_C 	C 	0.7814	0.3304	0.9992	-0.067
Mof_C 	C 	0.5008	0.2186	0.8304	-0.067
Mof_C 	C 	0.0325	0.7905	0.3089	0.057
Mof_C 	C 	0.0271	0.1713	0.0332	0.359
Mof_C 	C 	0.4832	0.1664	0.8031	0.084
Mof_C 	C 	0.4776	0.698	0.09	-0.052
Mof_C 	C 	0.9863	0.6962	0.3743	0.138
Mof_C 	C 	0.4553	0.8601	0.3893	0.404
Mof_C 	C 	0.9898	0.2539	0.6531	0.184
Mof_C 	C 	0.84611	0.247	0.4297	1.025
Mof_C 	C 	0.15389	0.753	0.5703	1.025
Mof_C 	C 	0.3601	0.1107	0.5447	0.404
Mof_C 	C 	0.0211	0.135	0.7387	-0.244
Mof_C 	C 	0.5211	0.135	0.7613	-0.244
Mof_C 	C 	0.4502	0.7572	0.6446	-0.286
Mof_C 	C 	0.7263	0.6792	0.5051	0.022
Mof_C 	C 	0.9992	0.7186	0.8304	-0.067
Mof_C 	C 	0.3067	0.1727	0.9769	-0.104
Mof_C 	C 	0.0231	0.8067	0.3273	-0.104
Mof_C 	C 	0.8072	0.2657	0.9346	-0.45
Mof_C 	C 	0.7739	0.5044	0.1752	-0.009
Mof_C 	C 	0.8776	0.2968	0.4562	0.114
Mof_C 	C 	0.4956	0.8248	0.2261	-0.009
Mof_C 	C 	0.8603	0.8826	0.0053	-0.046
Mof_C 	C 	0.0211	0.365	0.2387	-0.244
Mof_C 	C 	0.1107	0.9553	0.8601	0.404
Mof_C 	C 	0.7145	0.4864	0.6641	-0.058
Mof_C 	C 	0.7833	0.0276	0.6841	-0.134
Mof_C 	C 	0.9547	0.9136	0.2072	-0.019
Mof_C 	C 	0.1969	0.5168	0.8336	0.084
Mof_C 	C 	0.1933	0.8273	0.4769	-0.104
Mof_C 	C 	0.7788	0.181	0.4109	0.271
Mof_C 	C 	0.8023	0.2905	0.9059	-0.608
Mof_C 	C 	0.7192	0.6889	0.4706	0.021
Mof_C 	C 	0.1686	0.3622	0.4995	-0.086
Mof_C 	C 	0.8646	0.4808	0.3897	0.327
Mof_C 	C 	0.2833	0.4724	0.3159	-0.134
Mof_C 	C 	0.0224	0.198	0.09	-0.052
Mof_C 	C 	0.8799	0.3564	0.4565	-0.1
Mof_C 	C 	0.4343	0.819	0.2214	0.385
Mof_C 	C 	0.3089	0.4675	0.2905	0.057
Mof_C 	C 	0.9136	0.2072	0.9547	-0.019
Mof_C 	C 	0.4138	0.1459	0.5451	0.059
Mof_C 	C 	0.3038	0.8743	0.5137	0.138
Mof_C 	C 	0.2387	0.0211	0.365	-0.244
Mof_C 	C 	0.7572	0.6446	0.4502	-0.286
Mof_C 	C 	0.7985	0.9125	0.7394	-0.278
Mof_C 	C 	0.4776	0.802	0.59	-0.052
Mof_C 	C 	0.8601	0.1107	0.9553	0.404
Mof_C 	C 	0.0019	0.2573	0.14	0.07
Mof_C 	C 	0.1354	0.9808	0.1103	0.327
Mof_C 	C 	0.7095	0.0941	0.1977	-0.608
Mof_C 	C 	0.6969	0.5168	0.6664	0.084
Mof_C 	C 	0.2428	0.1446	0.0498	-0.286
Mof_C 	C 	0.2704	0.59	0.2835	0.636
Mof_C 	C 	0.4109	0.7212	0.681	0.271
Mof_C 	C 	0.7539	0.8469	0.0102	0.184
Mof_C 	C 	0.3159	0.2167	0.9724	-0.134
Mof_C 	C 	0.7928	0.4547	0.5864	-0.019
Mof_C 	C 	0.319	0.5891	0.2788	0.271
Mof_C 	C 	0.0438	0.3776	0.2968	0.114
Mof_C 	C 	0.2985	0.5875	0.2606	-0.278
Mof_C 	C 	0.0231	0.6933	0.8273	-0.104
Mof_C 	C 	0.2905	0.3089	0.4675	0.057
Mof_C 	C 	0.9297	0.84611	0.253	1.025
Mof_C 	C 	0.009	0.1477	0.7528	0.457
Mof_C 	C 	0.7737	0.3208	0.0051	0.022
Mof_C 	C 	0.8376	0.5506	0.2712	0.513
Mof_C 	C 	0.4981	0.7427	0.64	0.069
Mof_C 	C 	0.0137	0.3038	0.6257	0.138
Mof_C 	C 	0.83502	0.2608	0.4298	-0.778
Mof_C 	C 	0.0569	0.2675	0.1727	0.287
Mof_C 	C 	0.1727	0.9769	0.3067	-0.104
Mof_C 	C 	0.91	0.9776	0.802	-0.052
Mof_C 	C 	0.3304	0.9992	0.7814	-0.067
Mof_C 	C 	0.0463	0.4314	0.323	-0.128
Mof_C 	C 	0.2928	0.4547	0.9136	-0.019
Mof_C 	C 	0.0102	0.7461	0.3469	0.184
Mof_C 	C 	0.3023	0.2905	0.5941	-0.608
Mof_C 	C 	0.2968	0.4562	0.8776	0.114
Mof_C 	C 	0.7613	0.9789	0.635	-0.244
Mof_C 	C 	0.4298	0.83502	0.2608	-0.778
Mof_C 	C 	0.7461	0.3469	0.0102	0.184
Mof_C 	C 	0.9776	0.698	0.41	-0.052
Mof_C 	C 	0.9562	0.8776	0.2032	0.114
Mof_C 	C 	0.0192	0.6103	0.3646	0.327
Mof_C 	C 	0.1727	0.5231	0.8067	-0.104
Mof_C 	C 	0.4136	0.2928	0.0453	-0.019
Mof_C 	C 	0.1446	0.4502	0.7428	-0.286
Mof_C 	C 	0.5438	0.3776	0.2032	0.114
Mof_C 	C 	0.1969	0.9832	0.3336	0.084
Mof_C 	C 	0.3359	0.2855	0.5136	-0.058
Mof_C 	C 	0.3072	0.2657	0.5654	-0.45
Mof_C 	C 	0.09	0.0224	0.198	-0.052
Mof_C 	C 	0.5168	0.6664	0.6969	0.084
Mof_C 	C 	0.6889	0.0294	0.2192	0.021
Mof_C 	C 	0.7608	0.0702	0.16498	-0.778
Mof_C 	C 	0.66498	0.7608	0.4298	-0.778
Mof_C 	C 	0.5569	0.2573	0.3133	-0.358
Mof_C 	C 	0.483	0.8303	0.5688	-0.063
Mof_C 	C 	0.7928	0.0453	0.0864	-0.019
Mof_C 	C 	0.4949	0.2263	0.8208	0.022
Mof_C 	C 	0.7968	0.4562	0.6224	0.114
Mof_C 	C 	0.6174	0.5053	0.8603	-0.046
Mof_C 	C 	0.0005	0.8314	0.8622	-0.086
Mof_C 	C 	0.5271	0.3287	0.9668	0.359
Mof_C 	C 	0.6697	0.0688	0.483	-0.063
Mof_C 	C 	0.8469	0.4898	0.2539	0.184
Mof_C 	C 	0.86	0.9981	0.7427	0.07
Mof_C 	C 	0.8271	0.4587	0.6397	-0.042
Mof_C 	C 	0.4947	0.1397	0.3826	-0.046
Mof_C 	C 	0.0463	0.0686	0.823	-0.128
Mof_C 	C 	0.2905	0.9059	0.8023	-0.608
Mof_C 	C 	0.2214	0.4343	0.819	0.385
Mof_C 	C 	0.7392	0.9298	0.66498	-0.778
Mof_C 	C 	0.9138	0.3541	0.4549	0.059
Mof_C 	C 	0.7167	0.5276	0.6841	-0.134
Mof_C 	C 	0.135	0.7387	0.0211	-0.244
Mof_C 	C 	0.819	0.5891	0.2212	0.271
Mof_C 	C 	0.802	0.91	0.9776	-0.052
Mof_C 	C 	0.7985	0.5875	0.2394	-0.278
Mof_C 	C 	0.9297	0.65389	0.753	1.025
Mof_C 	C 	0.09	0.2165	0.7296	0.636
Mof_C 	C 	0.2032	0.9562	0.8776	0.114
Mof_C 	C 	0.33502	0.2608	0.0702	-0.778
Mof_C 	C 	0.5703	0.15389	0.753	1.025
Mof_C 	C 	0.7296	0.09	0.2165	0.636
Mof_C 	C 	0.504	0.3593	0.9169	0.016
Mof_C 	C 	0.2808	0.1889	0.0294	0.021
Mof_C 	C 	0.16498	0.7392	0.5702	-0.778
Mof_C 	C 	0.0435	0.1201	0.8564	-0.1
Mof_C 	C 	0.6354	0.9808	0.3897	0.327
Mof_C 	C 	0.4789	0.865	0.2387	-0.244
Mof_C 	C 	0.1867	0.0569	0.2573	-0.358
Mof_C 	C 	0.2015	0.0875	0.2606	-0.278
Mof_C 	C 	0.59	0.0224	0.302	-0.052
Mof_C 	C 	0.0044	0.3248	0.2261	-0.009
Mof_C 	C 	0.5657	0.181	0.7786	0.385
Mof_C 	C 	0.9947	0.1397	0.1174	-0.046
Mof_C 	C 	0.2325	0.8273	0.5569	0.287
Mof_C 	C 	0.6729	0.9587	0.6397	-0.042
Mof_C 	C 	0.491	0.8523	0.2528	0.457
Mof_C 	C 	0.9537	0.9314	0.177	-0.128
Mof_C 	C 	0.9864	0.6641	0.7855	-0.058
Mof_C 	C 	0.5332	0.4729	0.8287	0.359
Mof_C 	C 	0.9789	0.635	0.7613	-0.244
Mof_C 	C 	0.6664	0.8031	0.0168	0.084
Mof_C 	C 	0.0294	0.2192	0.6889	0.021
Mof_C 	C 	0.983	0.8303	0.9312	-0.063
Mof_C 	C 	0.7855	0.9864	0.6641	-0.058
Mof_C 	C 	0.1397	0.1174	0.9947	-0.046
Mof_C 	C 	0.7288	0.1624	0.4494	0.513
Mof_C 	C 	0.5325	0.7095	0.6911	0.057
Mof_C 	C 	0.7343	0.4346	0.6928	-0.45
Mof_C 	C 	0.5137	0.3038	0.8743	0.138
Mof_C 	C 	0.2192	0.6889	0.0294	0.021
Mof_C 	C 	0.302	0.91	0.5224	-0.052
Mof_C 	C 	0.302	0.59	0.0224	-0.052
Mof_C 	C 	0.4431	0.7675	0.1727	0.287
Mof_C 	C 	0.323	0.4537	0.9314	-0.128
Mof_C 	C 	0.7657	0.9346	0.6928	-0.45
Mof_C 	C 	0.5102	0.7539	0.6531	0.184
Mof_C 	C 	0.247	0.4297	0.84611	1.025
Mof_C 	C 	0.2573	0.1867	0.0569	-0.358
Mof_C 	C 	0.2427	0.64	0.0019	0.07
Mof_C 	C 	0.0168	0.8336	0.3031	0.084
Mof_C 	C 	0.819	0.2786	0.9343	0.385
Mof_C 	C 	0.8159	0.2833	0.0276	-0.134
Mof_C 	C 	0.9949	0.2263	0.6792	0.022
Mof_C 	C 	0.8743	0.5137	0.3038	0.138
Mof_C 	C 	0.0276	0.8159	0.2833	-0.134
Mof_C 	C 	0.4138	0.3541	0.0451	0.059
Mof_C 	C 	0.5435	0.1201	0.6436	-0.1
Mof_C 	C 	0.365	0.2387	0.0211	-0.244
Mof_C 	C 	0.5703	0.34611	0.253	1.025
Mof_C 	C 	0.009	0.3523	0.2528	0.457
Mof_C 	C 	0.7296	0.41	0.7165	0.636
Mof_C 	C 	0.2704	0.91	0.7835	0.636
Mof_C 	C 	0.3038	0.6257	0.0137	0.138
Mof_C 	C 	0.3073	0.2152	0.0336	0.007
Mof_C 	C 	0.2015	0.4125	0.7606	-0.278
Mof_C 	C 	0.8072	0.2343	0.4346	-0.45
Mof_C 	C 	0.9431	0.7325	0.8273	0.287
Mof_C 	C 	0.004	0.1407	0.0831	0.016
Mof_C 	C 	0.6399	0.8893	0.4553	0.404
Mof_C 	C 	0.2712	0.6624	0.0506	0.513
Mof_C 	C 	0.1459	0.9549	0.9138	0.059
Mof_C 	C 	0.0008	0.2186	0.6696	-0.067
Mof_C 	C 	0.819	0.2214	0.4343	0.385
Mof_C 	C 	0.6224	0.7968	0.4562	0.114
Mof_C 	C 	0.59	0.4776	0.802	-0.052
Mof_C 	C 	0.2739	0.9956	0.8248	-0.009
Mof_C 	C 	0.6354	0.5192	0.8897	0.327
Mof_C 	C 	0.5192	0.6103	0.1354	0.327
Mof_C 	C 	0.5831	0.496	0.8593	0.016
Mof_C 	C 	0.9136	0.2928	0.4547	-0.019
Mof_C 	C 	0.483	0.6697	0.0688	-0.063
Mof_C 	C 	0.4502	0.7428	0.1446	-0.286
Mof_C 	C 	0.9298	0.83502	0.2392	-0.778
Mof_C 	C 	0.1977	0.7095	0.0941	-0.608
Mof_C 	C 	0.4668	0.9729	0.6713	0.359
Mof_C 	C 	0.1727	0.4431	0.7675	0.287
Mof_C 	C 	0.2539	0.8469	0.4898	0.184
Mof_C 	C 	0.7786	0.5657	0.181	0.385
Mof_C 	C 	0.7095	0.4059	0.6977	-0.608
Mof_C 	C 	0.0891	0.2212	0.681	0.271
Mof_C 	C 	0.1201	0.6436	0.5435	-0.1
Mof_C 	C 	0.6748	0.951	0.5315	0.46
Mof_C 	C 	0.4832	0.3336	0.3031	0.084
Mof_C 	C 	0.41	0.7835	0.2296	0.636
Mof_C 	C 	0.1664	0.6969	0.9832	0.084
Mof_C 	C 	0.9808	0.1103	0.1354	0.327
Mof_C 	C 	0.3248	0.2261	0.0044	-0.009
Mof_C 	C 	0.5053	0.6397	0.1174	-0.046
Mof_C 	C 	0.6459	0.5451	0.0862	0.059
Mof_C 	C 	0.3622	0.0005	0.6686	-0.086
Mof_C 	C 	0.7528	0.009	0.1477	0.457
Mof_C 	C 	0.4769	0.3067	0.3273	-0.104
Mof_C 	C 	0.0136	0.1641	0.7145	-0.058
Mof_C 	C 	0.9502	0.7428	0.3554	-0.286
Mof_C 	C 	0.2788	0.181	0.0891	0.271
Mof_C 	C 	0.8893	0.0447	0.1399	0.404
Mof_C 	C 	0.9059	0.8023	0.2905	-0.608
Mof_C 	C 	0.6103	0.1354	0.5192	0.327
Mof_C 	C 	0.681	0.7214	0.4343	0.385
Mof_C 	C 	0.3893	0.0447	0.3601	0.404
Mof_C 	C 	0.8601	0.3893	0.4553	0.404
Mof_C 	C 	0.8089	0.0325	0.7095	0.057
Mof_C 	C 	0.9947	0.3603	0.6174	-0.046
Mof_C 	C 	0.8646	0.0192	0.8897	0.327
Mof_C 	C 	0.0447	0.3601	0.3893	0.404
Mof_C 	C 	0.5506	0.2288	0.3376	0.513
Mof_C 	C 	0.181	0.7786	0.5657	0.385
Mof_C 	C 	0.8111	0.5294	0.2192	0.021
Mof_C 	C 	0.4346	0.8072	0.2343	-0.45
Mof_C 	C 	0.9312	0.517	0.3303	-0.063
Mof_C 	C 	0.8248	0.2739	0.9956	-0.009
Mof_C 	C 	0.247	0.0703	0.34611	1.025
Mof_C 	C 	0.451	0.9685	0.3252	0.46
Mof_C 	C 	0.3523	0.2472	0.509	0.457
Mof_C 	C 	0.4864	0.8359	0.2145	-0.058
Mof_C 	C 	0.5136	0.3359	0.2855	-0.058
Mof_C 	C 	0.8271	0.0413	0.1397	-0.042
Mof_C 	C 	0.1407	0.4169	0.504	0.016
Mof_C 	C 	0.3603	0.8826	0.4947	-0.046
Mof_C 	C 	0.4863	0.8038	0.6257	0.138
Mof_C 	C 	0.8897	0.8646	0.0192	0.327
Mof_C 	C 	0.65389	0.753	0.9297	1.025
Mof_C 	C 	0.6397	0.8271	0.4587	-0.042
Mof_C 	C 	0.2608	0.4298	0.83502	-0.778
Mof_C 	C 	0.2928	0.0453	0.4136	-0.019
Mof_C 	C 	0.9169	0.504	0.3593	0.016
Mof_C 	C 	0.6977	0.7905	0.9059	-0.608
Mof_C 	C 	0.6477	0.7528	0.491	0.457
Mof_C 	C 	0.0862	0.6459	0.5451	0.059
Mof_C 	C 	0.1729	0.9587	0.8603	-0.042
Mof_C 	C 	0.86	0.5019	0.2427	0.069
Mof_C 	C 	0.9724	0.3159	0.2167	-0.134
Mof_C 	C 	0.1257	0.4863	0.6962	0.138
Mof_C 	C 	0.3603	0.6174	0.9947	-0.046
Mof_C 	C 	0.9312	0.983	0.8303	-0.063
Mof_C 	C 	0.2573	0.14	0.0019	0.07
Mof_C 	C 	0.1354	0.5192	0.6103	0.327
Mof_C 	C 	0.677	0.5463	0.0686	-0.128
Mof_C 	C 	0.6729	0.5413	0.1397	-0.042
Mof_C 	C 	0.6977	0.7095	0.4059	-0.608
Mof_C 	C 	0.9706	0.7808	0.3111	0.021
Mof_C 	C 	0.2427	0.86	0.5019	0.069
Mof_C 	C 	0.983	0.6697	0.4312	-0.063
Mof_C 	C 	0.0506	0.2712	0.6624	0.513
Mof_C 	C 	0.4125	0.7606	0.2015	-0.278
Mof_C 	C 	0.2848	0.5336	0.3073	0.007
Mof_C 	C 	0.0657	0.319	0.2214	0.385
Mof_C 	C 	0.5498	0.2428	0.3554	-0.286
Mof_C 	C 	0.2737	0.1792	0.9949	0.022
Mof_C 	C 	0.0864	0.7072	0.5453	-0.019
Mof_C 	C 	0.7573	0.14	0.4981	0.069
Mof_C 	C 	0.865	0.2387	0.4789	-0.244
Mof_C 	C 	0.2167	0.5276	0.8159	-0.134
Mof_C 	C 	0.2392	0.9298	0.83502	-0.778
Mof_C 	C 	0.2739	0.5044	0.3248	-0.009
Mof_C 	C 	0.9685	0.1748	0.951	0.46
Mof_C 	C 	0.4729	0.6713	0.0332	0.359
Mof_C 	C 	0.0435	0.3799	0.3564	-0.1
Mof_C 	C 	0.1103	0.3646	0.4808	0.327
Mof_C 	C 	0.2343	0.0654	0.3072	-0.45
Mof_C 	C 	0.64	0.4981	0.7427	0.069
Mof_C 	C 	0.1792	0.9949	0.2737	0.022
Mof_C 	C 	0.2095	0.0941	0.3023	-0.608
Mof_C 	C 	0.2394	0.7015	0.0875	-0.278
Mof_C 	C 	0.9547	0.5864	0.7072	-0.019
Mof_C 	C 	0.0453	0.4136	0.2928	-0.019
Mof_C 	C 	0.7387	0.4789	0.635	-0.244
Mof_C 	C 	0.9776	0.802	0.91	-0.052
Mof_C 	C 	0.7528	0.491	0.6477	0.457
Mof_C 	C 	0.1446	0.0498	0.2428	-0.286
Mof_C 	C 	0.4169	0.996	0.6407	0.016
Mof_C 	C 	0.4136	0.2072	0.5453	-0.019
Mof_C 	C 	0.181	0.0891	0.2788	0.271
Mof_C 	C 	0.0862	0.8541	0.0451	0.059
Mof_C 	C 	0.1224	0.7968	0.0438	0.114
Mof_C 	C 	0.181	0.7214	0.0657	0.385
Mof_C 	C 	0.0831	0.004	0.1407	0.016
Mof_C 	C 	0.2263	0.6792	0.9949	0.022
Mof_C 	C 	0.0008	0.2814	0.1696	-0.067
Mof_C 	C 	0.1641	0.7145	0.0136	-0.058
Mof_C 	C 	0.9125	0.7394	0.7985	-0.278
Mof_C 	C 	0.4685	0.1748	0.549	0.46
Mof_C 	C 	0.1841	0.7833	0.4724	-0.134
Mof_C 	C 	0.4346	0.6928	0.7343	-0.45
Mof_C 	C 	0.4992	0.7814	0.1696	-0.067
Mof_C 	C 	0.7704	0.59	0.2165	0.636
Mof_C 	C 	0.049	0.0315	0.8252	0.46
Mof_C 	C 	0.004	0.3593	0.5831	0.016
Mof_C 	C 	0.4769	0.1933	0.8273	-0.104
Mof_C 	C 	0.2572	0.8554	0.5498	-0.286
Mof_C 	C 	0.5451	0.4138	0.1459	0.059
Mof_C 	C 	0.3336	0.1969	0.9832	0.084
Mof_C 	C 	0.9314	0.177	0.9537	-0.128
Mof_C 	C 	0.1399	0.8893	0.0447	0.404
Mof_C 	C 	0.6867	0.4431	0.7427	-0.358
Mof_C 	C 	0.3273	0.9431	0.7675	0.287
Mof_C 	C 	0.4789	0.635	0.7387	-0.244
Mof_C 	C 	0.3303	0.5688	0.017	-0.063
Mof_C 	C 	0.5941	0.3023	0.2905	-0.608
Mof_C 	C 	0.8359	0.2855	0.9864	-0.058
Mof_C 	C 	0.2608	0.0702	0.33502	-0.778
Mof_C 	C 	0.3159	0.2833	0.4724	-0.134
Mof_C 	C 	0.7428	0.3554	0.9502	-0.286
Mof_C 	C 	0.4565	0.8799	0.3564	-0.1
Mof_C 	C 	0.4059	0.8023	0.2095	-0.608
Mof_C 	C 	0.4297	0.84611	0.247	1.025
Mof_C 	C 	0.6686	0.1378	0.5005	-0.086
Mof_C 	C 	0.0569	0.2427	0.6867	-0.358
Mof_C 	C 	0.181	0.4109	0.7788	0.271
Mof_C 	C 	0.6962	0.1257	0.4863	0.138
Mof_C 	C 	0.6378	0.5005	0.8314	-0.086
Mof_C 	C 	0.2072	0.5453	0.4136	-0.019
Mof_C 	C 	0.4668	0.5271	0.1713	0.359
Mof_C 	C 	0.4314	0.323	0.0463	-0.128
Mof_C 	C 	0.0447	0.1399	0.8893	0.404
Mof_C 	C 	0.8067	0.3273	0.0231	-0.104
Mof_C 	C 	0.1107	0.5447	0.3601	0.404
Mof_C 	C 	0.9769	0.3067	0.1727	-0.104
Mof_C 	C 	0.8554	0.9502	0.7572	-0.286
Mof_C 	C 	0.2145	0.4864	0.8359	-0.058
Mof_C 	C 	0.1224	0.7032	0.5438	0.114
Mof_C 	C 	0.6727	0.9769	0.1933	-0.104
Mof_C 	C 	0.6531	0.9898	0.2539	0.184
Mof_C 	C 	0.2261	0.0044	0.3248	-0.009
Mof_C 	C 	0.0005	0.6686	0.3622	-0.086
Mof_C 	C 	0.5315	0.6748	0.951	0.46
Mof_C 	C 	0.0703	0.15389	0.747	1.025
Mof_C 	C 	0.1378	0.5005	0.6686	-0.086
Mof_C 	C 	0.3376	0.9494	0.7288	0.513
Mof_C 	C 	0.2427	0.8133	0.5569	-0.358
Mof_C 	C 	0.0053	0.8603	0.8826	-0.046
Mof_C 	C 	0.4297	0.65389	0.747	1.025
Mof_C 	C 	0.2152	0.4664	0.8073	0.007
Mof_C 	C 	0.0498	0.2428	0.1446	-0.286
Mof_C 	C 	0.4675	0.2905	0.3089	0.057
Mof_C 	C 	0.7788	0.319	0.9109	0.271
Mof_C 	C 	0.3252	0.451	0.9685	0.46
Mof_C 	C 	0.3287	0.5332	0.0271	0.359
Mof_C 	C 	0.2296	0.09	0.2835	0.636
Mof_C 	C 	0.2786	0.9343	0.819	0.385
Mof_C 	C 	0.2835	0.2704	0.59	0.636
Mof_C 	C 	0.996	0.8593	0.9169	0.016
Mof_C 	C 	0.0654	0.3072	0.2343	-0.45
Mof_C 	C 	0.91	0.5224	0.302	-0.052
Mof_C 	C 	0.6928	0.7657	0.9346	-0.45
Mof_C 	C 	0.8826	0.0053	0.8603	-0.046
Mof_C 	C 	0.2613	0.9789	0.865	-0.244
Mof_C 	C 	0.8603	0.3271	0.4587	-0.042
Mof_C 	C 	0.8603	0.1729	0.9587	-0.042
Mof_C 	C 	0.6174	0.9947	0.3603	-0.046
Mof_C 	C 	0.7606	0.2015	0.4125	-0.278
Mof_C 	C 	0.2657	0.5654	0.3072	-0.45
Mof_C 	C 	0.4314	0.177	0.5463	-0.128
Mof_C 	C 	0.0703	0.34611	0.247	1.025
Mof_C 	C 	0.5463	0.0686	0.677	-0.128
Mof_C 	C 	0.3646	0.0192	0.6103	0.327
Mof_C 	C 	0.9587	0.6397	0.6729	-0.042
Mof_C 	C 	0.2392	0.5702	0.33502	-0.778
Mof_C 	C 	0.7072	0.5453	0.0864	-0.019
Mof_C 	C 	0.8897	0.6354	0.5192	0.327
Mof_C 	C 	0.34611	0.247	0.0703	1.025
Mof_C 	C 	0.1713	0.4668	0.5271	0.359
Mof_C 	C 	0.4808	0.1103	0.3646	0.327
Mof_C 	C 	0.2343	0.4346	0.8072	-0.45
Mof_C 	C 	0.4298	0.66498	0.7608	-0.778
Mof_C 	C 	0.09	0.4776	0.698	-0.052
Mof_C 	C 	0.5654	0.3072	0.2657	-0.45
Mof_C 	C 	0.7145	0.0136	0.1641	-0.058
Mof_C 	C 	0.8603	0.6174	0.5053	-0.046
Mof_C 	C 	0.9706	0.7192	0.8111	0.021
Mof_C 	C 	0.3554	0.5498	0.2428	-0.286
Mof_C 	C 	0.6407	0.4169	0.996	0.016
Mof_C 	C 	0.3541	0.0451	0.4138	0.059
Mof_C 	C 	0.8252	0.049	0.0315	0.46
Mof_C 	C 	0.6531	0.5102	0.7539	0.184
Mof_C 	C 	0.7263	0.8208	0.0051	0.022
Mof_C 	C 	0.1713	0.0332	0.0271	0.359
Mof_C 	C 	0.8287	0.9668	0.9729	0.359
Mof_C 	C 	0.4549	0.9138	0.3541	0.059
Mof_C 	C 	0.9668	0.5271	0.3287	0.359
Mof_C 	C 	0.2835	0.2296	0.09	0.636
Mof_C 	C 	0.7737	0.1792	0.5051	0.022
Mof_C 	C 	0.3023	0.2095	0.0941	-0.608
Mof_C 	C 	0.4549	0.5862	0.8541	0.059
Mof_C 	C 	0.4724	0.3159	0.2833	-0.134
Mof_C 	C 	0.83502	0.2392	0.9298	-0.778
Mof_C 	C 	0.5224	0.302	0.91	-0.052
Mof_C 	C 	0.6397	0.3826	0.0053	-0.046
Mof_C 	C 	0.5463	0.4314	0.177	-0.128
Mof_C 	C 	0.3359	0.2145	0.0136	-0.058
Mof_C 	C 	0.0053	0.6397	0.3826	-0.046
Mof_C 	C 	0.1624	0.4494	0.7288	0.513
Mof_C 	C 	0.7712	0.6624	0.4494	0.513
Mof_C 	C 	0.36	0.5019	0.2573	0.069
Mof_C 	C 	0.2212	0.681	0.0891	0.271
Mof_C 	C 	0.8208	0.0051	0.7263	0.022
Mof_C 	C 	0.1697	0.0688	0.017	-0.063
Mof_C 	C 	0.6107	0.9553	0.6399	0.404
Mof_C 	C 	0.0137	0.1962	0.1257	0.138
Mof_C 	C 	0.1397	0.3826	0.4947	-0.046
Mof_C 	C 	0.5686	0.823	0.4537	-0.128
Mof_C 	C 	0.0941	0.1977	0.7095	-0.608
Mof_C 	C 	0.2528	0.009	0.3523	0.457
Mof_C 	C 	0.2461	0.1531	0.9898	0.184
Mof_C 	C 	0.1729	0.5413	0.3603	-0.042
Mof_C 	C 	0.5686	0.677	0.9537	-0.128
Mof_C 	C 	0.8554	0.5498	0.2572	-0.286
Mof_C 	C 	0.0136	0.3359	0.2145	-0.058
Mof_C 	C 	0.1928	0.7343	0.0654	-0.45
Mof_C 	C 	0.2528	0.491	0.8523	0.457
Mof_C 	C 	0.753	0.5703	0.15389	1.025
Mof_C 	C 	0.2675	0.3273	0.5569	0.287
Mof_C 	C 	0.8799	0.1436	0.9565	-0.1
Mof_C 	C 	0.4587	0.8603	0.3271	-0.042
Mof_C 	C 	0.365	0.2613	0.5211	-0.244
Mof_C 	C 	0.5294	0.2192	0.8111	0.021
Mof_C 	C 	0.049	0.4685	0.3252	0.46
Mof_C 	C 	0.6752	0.7261	0.4956	-0.009
Mof_C 	C 	0.6696	0.4992	0.7186	-0.067
Mof_C 	C 	0.0192	0.8897	0.8646	0.327
Mof_C 	C 	0.8273	0.9431	0.7325	0.287
Mof_C 	C 	0.6933	0.8273	0.0231	-0.104
Mof_C 	C 	0.3133	0.9431	0.7573	-0.358
Mof_C 	C 	0.7186	0.8304	0.9992	-0.067
Mof_C 	C 	0.41	0.9776	0.698	-0.052
Mof_C 	C 	0.5051	0.7263	0.6792	0.022
Mof_C 	C 	0.7214	0.0657	0.181	0.385
Mof_C 	C 	0.1911	0.5325	0.7905	0.057
Mof_C 	C 	0.1889	0.0294	0.2808	0.021
Mof_C 	C 	0.65389	0.747	0.4297	1.025
Mof_C 	C 	0.3469	0.0102	0.7461	0.184
Mof_C 	C 	0.5336	0.1927	0.7848	0.007
Mof_C 	C 	0.7192	0.8111	0.9706	0.021
Mof_C 	C 	0.7427	0.64	0.4981	0.069
Mof_C 	C 	0.9789	0.865	0.2613	-0.244
Mof_C 	C 	0.3603	0.1729	0.5413	-0.042
Mof_C 	C 	0.6748	0.549	0.0315	0.46
Mof_C 	C 	0.6641	0.7855	0.9864	-0.058
Mof_C 	C 	0.8622	0.4995	0.3314	-0.086
Mof_C 	C 	0.8826	0.4947	0.3603	-0.046
Mof_C 	C 	0.8073	0.2152	0.4664	0.007
Mof_C 	C 	0.5044	0.3248	0.2739	-0.009
Mof_C 	C 	0.4898	0.2539	0.8469	0.184
Mof_C 	C 	0.34611	0.253	0.5703	1.025
Mof_C 	C 	0.9664	0.6927	0.7848	0.007
Mof_C 	C 	0.4431	0.7427	0.6867	-0.358
Mof_C 	C 	0.5438	0.1224	0.7032	0.114
Mof_C 	C 	0.0864	0.7928	0.0453	-0.019
Mof_C 	C 	0.8523	0.2472	0.991	0.457
Mof_C 	C 	0.6927	0.7848	0.9664	0.007
Mof_C 	C 	0.2814	0.3304	0.5008	-0.067
Mof_C 	C 	0.9314	0.323	0.4537	-0.128
Mof_C 	C 	0.3826	0.0053	0.6397	-0.046
Mof_C 	C 	0.5192	0.8897	0.6354	0.327
Mof_C 	C 	0.8038	0.6257	0.4863	0.138
Mof_C 	C 	0.3273	0.4769	0.3067	-0.104
Mof_C 	C 	0.491	0.6477	0.7528	0.457
Mof_C 	C 	0.9109	0.7212	0.819	0.271
Mof_C 	C 	0.7657	0.5654	0.1928	-0.45
Mof_C 	C 	0.2573	0.36	0.5019	0.069
Mof_C 	C 	0.198	0.41	0.5224	-0.052
Mof_C 	C 	0.5044	0.1752	0.7739	-0.009
Mof_C 	C 	0.7572	0.8554	0.9502	-0.286
Mof_C 	C 	0.6697	0.4312	0.983	-0.063
Mof_C 	C 	0.0294	0.2808	0.1889	0.021
Mof_C 	C 	0.7808	0.1889	0.4706	0.021
Mof_C 	C 	0.7573	0.1867	0.4431	-0.358
Mof_C 	C 	0.6727	0.4431	0.7325	0.287
Mof_C 	C 	0.9992	0.7814	0.3304	-0.067
Mof_C 	C 	0.8023	0.2095	0.4059	-0.608
Mof_C 	C 	0.0702	0.33502	0.2608	-0.778
Mof_C 	C 	0.6928	0.7343	0.4346	-0.45
Mof_C 	C 	0.0506	0.2288	0.1624	0.513
Mof_C 	C 	0.8067	0.1727	0.5231	-0.104
Mof_C 	C 	0.8541	0.4549	0.5862	0.059
Mof_C 	C 	0.2737	0.3208	0.4949	0.022
Mof_C 	C 	0.4494	0.7288	0.1624	0.513
Mof_C 	C 	0.1752	0.7739	0.5044	-0.009
Mof_C 	C 	0.2214	0.0657	0.319	0.385
Mof_C 	C 	0.3893	0.4553	0.8601	0.404
Mof_C 	C 	0.7095	0.6911	0.5325	0.057
Mof_C 	C 	0.0315	0.8252	0.049	0.46
Mof_C 	C 	0.1696	0.0008	0.2814	-0.067
Mof_C 	C 	0.1664	0.8031	0.4832	0.084
Mof_C 	C 	0.5831	0.004	0.3593	0.016
Mof_C 	C 	0.5875	0.2394	0.7985	-0.278
Mof_C 	C 	0.2325	0.6727	0.0569	0.287
Mof_C 	C 	0.0438	0.1224	0.7968	0.114
Mof_C 	C 	0.4343	0.681	0.7214	0.385
Mof_C 	C 	0.3622	0.4995	0.1686	-0.086
Mof_C 	C 	0.7152	0.4664	0.6927	0.007
Mof_C 	C 	0.2573	0.3133	0.5569	-0.358
Mof_C 	C 	0.2288	0.1624	0.0506	0.513
Mof_C 	C 	0.2788	0.319	0.5891	0.271
Mof_C 	C 	0.4587	0.6397	0.8271	-0.042
Mof_C 	C 	0.1727	0.0569	0.2675	0.287
Mof_C 	C 	0.4109	0.7788	0.181	0.271
Mof_C 	C 	0.2606	0.2015	0.0875	-0.278
Mof_C 	C 	0.6397	0.6729	0.9587	-0.042
Mof_C 	C 	0.1397	0.8271	0.0413	-0.042
Mof_C 	C 	0.2606	0.2985	0.5875	-0.278
Mof_C 	C 	0.1686	0.1378	0.9995	-0.086
Mof_C 	C 	0.0332	0.0271	0.1713	0.359
Mof_C 	C 	0.4981	0.7573	0.14	0.069
Mof_C 	C 	0.5447	0.1399	0.6107	0.404
Mof_C 	C 	0.4431	0.7325	0.6727	0.287
Mof_C 	C 	0.7704	0.91	0.7165	0.636
Mof_C 	C 	0.1407	0.0831	0.004	0.016
Mof_C 	C 	0.9832	0.1664	0.6969	0.084
Mof_C 	C 	0.7855	0.5136	0.1641	-0.058
Mof_C 	C 	0.7394	0.7985	0.9125	-0.278
Mof_C 	C 	0.7015	0.4125	0.7394	-0.278
Mof_C 	C 	0.6727	0.0569	0.2325	0.287
Mof_C 	C 	0.7573	0.36	0.9981	0.07
Mof_C 	C 	0.7325	0.8273	0.9431	0.287
Mof_C 	C 	0.7606	0.2985	0.9125	-0.278
Mof_C 	C 	0.3271	0.0413	0.3603	-0.042
Mof_C 	C 	0.1752	0.7261	0.0044	-0.009
Mof_C 	C 	0.5862	0.6459	0.9549	0.059
Mof_C 	C 	0.5891	0.2788	0.319	0.271
Mof_C 	C 	0.8038	0.8743	0.9863	0.138
Mof_C 	C 	0.681	0.0891	0.2212	0.271
Mof_C 	C 	0.9431	0.7573	0.3133	-0.358
Mof_C 	C 	0.681	0.4109	0.7212	0.271
Mof_C 	C 	0.4059	0.6977	0.7095	-0.608
Mof_C 	C 	0.5451	0.0862	0.6459	0.059
Mof_C 	C 	0.9346	0.6928	0.7657	-0.45
Mof_C 	C 	0.177	0.5463	0.4314	-0.128
Mof_C 	C 	0.6378	0.9995	0.3314	-0.086
Mof_C 	C 	0.996	0.6407	0.4169	0.016
Mof_C 	C 	0.6201	0.8564	0.4565	-0.1
Mof_C 	C 	0.3287	0.9668	0.5271	0.359
Mof_C 	C 	0.1397	0.6729	0.5413	-0.042
Mof_C 	C 	0.5891	0.2212	0.819	0.271
Mof_C 	C 	0.1436	0.5435	0.3799	-0.1
Mof_C 	C 	0.9553	0.6399	0.6107	0.404
Mof_C 	C 	0.3073	0.2848	0.5336	0.007
Mof_C 	C 	0.7675	0.3273	0.9431	0.287
Mof_C 	C 	0.677	0.9537	0.5686	-0.128
Mof_C 	C 	0.6407	0.0831	0.496	0.016
Mof_C 	C 	0.2814	0.1696	0.0008	-0.067
Mof_C 	C 	0.698	0.09	0.4776	-0.052
Mof_C 	C 	0.8304	0.5008	0.2186	-0.067
Mof_C 	C 	0.0332	0.4729	0.6713	0.359
Mof_C 	C 	0.504	0.1407	0.4169	0.016
Mof_C 	C 	0.6752	0.7739	0.9956	-0.009
Mof_C 	C 	0.3897	0.6354	0.9808	0.327
Mof_C 	C 	0.5864	0.7928	0.4547	-0.019
Mof_C 	C 	0.41	0.5224	0.198	-0.052
Mof_C 	C 	0.0451	0.4138	0.3541	0.059
Mof_C 	C 	0.6436	0.5435	0.1201	-0.1
Mof_C 	C 	0.5005	0.8314	0.6378	-0.086
Mof_C 	C 	0.7394	0.7015	0.4125	-0.278
Mof_C 	C 	0.517	0.3303	0.9312	-0.063
Mof_C 	C 	0.2095	0.4059	0.8023	-0.608
Mof_C 	C 	0.135	0.7613	0.5211	-0.244
Mof_C 	C 	0.8031	0.4832	0.1664	0.084
Mof_C 	C 	0.7905	0.1911	0.5325	0.057
Mof_C 	C 	0.549	0.0315	0.6748	0.46
Mof_C 	C 	0.91	0.7165	0.7704	0.636
Mof_C 	C 	0.0336	0.3073	0.2152	0.007
Mof_C 	C 	0.1911	0.9675	0.2905	0.057
Mof_C 	C 	0.6841	0.7167	0.5276	-0.134
Mof_C 	C 	0.2145	0.0136	0.3359	-0.058
Mof_C 	C 	0.0688	0.017	0.1697	-0.063
Mof_C 	C 	0.5657	0.319	0.2786	0.385
Mof_C 	C 	0.7905	0.3089	0.0325	0.057
Mof_C 	C 	0.6399	0.6107	0.9553	0.404
Mof_C 	C 	0.4729	0.8287	0.5332	0.359
Mof_C 	C 	0.8273	0.0231	0.6933	-0.104
Mof_C 	C 	0.3336	0.3031	0.4832	0.084
Mof_C 	C 	0.7712	0.8376	0.9494	0.513
Mof_C 	C 	0.6696	0.0008	0.2186	-0.067
Mof_C 	C 	0.5506	0.2712	0.8376	0.513
Mof_C 	C 	0.9343	0.681	0.7786	0.385
Mof_C 	C 	0.3469	0.4898	0.2461	0.184
Mof_C 	C 	0.3273	0.5569	0.2675	0.287
Mof_C 	C 	0.9431	0.7675	0.3273	0.287
Mof_C 	C 	0.5019	0.2427	0.86	0.069
Mof_C 	C 	0.8893	0.4553	0.6399	0.404
Mof_C 	C 	0.4995	0.3314	0.8622	-0.086
Mof_C 	C 	0.9769	0.1933	0.6727	-0.104
Mof_C 	C 	0.2186	0.6696	0.0008	-0.067
Mof_C 	C 	0.0276	0.6841	0.7833	-0.134
Mof_C 	C 	0.747	0.4297	0.65389	1.025
Mof_C 	C 	0.6641	0.7145	0.4864	-0.058
Mof_C 	C 	0.1977	0.7905	0.5941	-0.608
Mof_C 	C 	0.2613	0.5211	0.365	-0.244
Mof_C 	C 	0.4706	0.7808	0.1889	0.021
Mof_C 	C 	0.6477	0.7472	0.991	0.457
Mof_C 	C 	0.6969	0.9832	0.1664	0.084
Mof_C 	C 	0.2786	0.5657	0.319	0.385
Mof_C 	C 	0.7739	0.9956	0.6752	-0.009
Mof_C 	C 	0.2072	0.9547	0.9136	-0.019
Mof_C 	C 	0.9675	0.2905	0.1911	0.057
Mof_C 	C 	0.4553	0.6399	0.8893	0.404
Mof_C 	C 	0.6867	0.0569	0.2427	-0.358
Mof_C 	C 	0.9981	0.7427	0.86	0.07
Mof_C 	C 	0.7212	0.819	0.9109	0.271
Mof_C 	C 	0.3603	0.3271	0.0413	-0.042
Mof_C 	C 	0.3541	0.4549	0.9138	0.059
Mof_C 	C 	0.2032	0.5438	0.3776	0.114
Mof_C 	C 	0.5569	0.2675	0.3273	0.287
Mof_C 	C 	0.9724	0.1841	0.7167	-0.134
Mof_C 	C 	0.4864	0.6641	0.7145	-0.058
Mof_C 	C 	0.1174	0.9947	0.1397	-0.046
Mof_C 	C 	0.7032	0.5438	0.1224	0.114
Mof_C 	C 	0.8376	0.9494	0.7712	0.513
Mof_C 	C 	0.5688	0.483	0.8303	-0.063
Mof_C 	C 	0.36	0.9981	0.7573	0.07
Mof_C 	C 	0.017	0.3303	0.5688	-0.063
Mof_C 	C 	0.7573	0.3133	0.9431	-0.358
Mof_C 	C 	0.9898	0.2461	0.1531	0.184
Mof_C 	C 	0.3111	0.9706	0.7808	0.021
Mof_C 	C 	0.4863	0.6962	0.1257	0.138
Mof_C 	C 	0.7808	0.3111	0.9706	0.021
Mof_C 	C 	0.1436	0.9565	0.8799	-0.1
Mof_C 	C 	0.0654	0.1928	0.7343	-0.45
Mof_C 	C 	0.8743	0.9863	0.8038	0.138
Mof_C 	C 	0.9343	0.819	0.2786	0.385
Mof_C 	C 	0.0336	0.1927	0.7152	0.007
Mof_C 	C 	0.4547	0.5864	0.7928	-0.019
Mof_C 	C 	0.2288	0.3376	0.5506	0.513
Mof_C 	C 	0.9059	0.6977	0.7905	-0.608
Mof_C 	C 	0.9502	0.7572	0.8554	-0.286
Mof_C 	C 	0.7613	0.5211	0.135	-0.244
Mof_C 	C 	0.2905	0.1911	0.9675	0.057
Mof_C 	C 	0.3133	0.5569	0.2573	-0.358
Mof_C 	C 	0.2165	0.7704	0.59	0.636
Mof_C 	C 	0.2427	0.6867	0.0569	-0.358
Mof_N 	N 	0.1431	0.7642	0.0426	-0.181
Mof_N 	N 	0.6431	0.7358	0.9574	-0.181
Mof_N 	N 	0.2642	0.4574	0.8569	-0.181
Mof_N 	N 	0.8569	0.2642	0.4574	-0.181
Mof_N 	N 	0.773	0.6455	0.4816	-0.173
Mof_N 	N 	0.1455	0.0184	0.227	-0.173
Mof_N 	N 	0.3545	0.5184	0.227	-0.173
Mof_N 	N 	0.9816	0.727	0.3545	-0.173
Mof_N 	N 	0.0184	0.273	0.6455	-0.173
Mof_N 	N 	0.727	0.3545	0.9816	-0.173
Mof_N 	N 	0.4574	0.6431	0.7642	-0.181
Mof_N 	N 	0.227	0.1455	0.0184	-0.173
Mof_N 	N 	0.9574	0.6431	0.7358	-0.181
Mof_N 	N 	0.8569	0.2358	0.9574	-0.181
Mof_N 	N 	0.5426	0.1431	0.7358	-0.181
Mof_N 	N 	0.3545	0.9816	0.727	-0.173
Mof_N 	N 	0.4574	0.8569	0.2642	-0.181
Mof_N 	N 	0.9574	0.8569	0.2358	-0.181
Mof_N 	N 	0.5184	0.273	0.8545	-0.173
Mof_N 	N 	0.7642	0.4574	0.6431	-0.181
Mof_N 	N 	0.0426	0.3569	0.2642	-0.181
Mof_N 	N 	0.8545	0.9816	0.773	-0.173
Mof_N 	N 	0.2358	0.5426	0.3569	-0.181
Mof_N 	N 	0.4816	0.727	0.1455	-0.173
Mof_N 	N 	0.7358	0.5426	0.1431	-0.181
Mof_N 	N 	0.227	0.3545	0.5184	-0.173
Mof_N 	N 	0.7642	0.0426	0.1431	-0.181
Mof_N 	N 	0.7358	0.9574	0.6431	-0.181
Mof_N 	N 	0.3569	0.2642	0.0426	-0.181
Mof_N 	N 	0.5426	0.3569	0.2358	-0.181
Mof_N 	N 	0.273	0.6455	0.0184	-0.173
Mof_N 	N 	0.0426	0.1431	0.7642	-0.181
Mof_N 	N 	0.5184	0.227	0.3545	-0.173
Mof_N 	N 	0.6455	0.4816	0.773	-0.173
Mof_N 	N 	0.2358	0.9574	0.8569	-0.181
Mof_N 	N 	0.3569	0.2358	0.5426	-0.181
Mof_N 	N 	0.9816	0.773	0.8545	-0.173
Mof_N 	N 	0.4816	0.773	0.6455	-0.173
Mof_N 	N 	0.8545	0.5184	0.273	-0.173
Mof_N 	N 	0.773	0.8545	0.9816	-0.173
Mof_N 	N 	0.2642	0.0426	0.3569	-0.181
Mof_N 	N 	0.0184	0.227	0.1455	-0.173
Mof_N 	N 	0.1455	0.4816	0.727	-0.173
Mof_N 	N 	0.6431	0.7642	0.4574	-0.181
Mof_N 	N 	0.1431	0.7358	0.5426	-0.181
Mof_N 	N 	0.6455	0.0184	0.273	-0.173
Mof_N 	N 	0.727	0.1455	0.4816	-0.173
Mof_N 	N 	0.273	0.8545	0.5184	-0.173
Mof_O 	O 	0.9965	0.3799	0.2484	-0.104
Mof_O 	O 	0.5035	0.8799	0.2484	-0.104
Mof_O 	O 	0.97958	0.08213	0.11851	-0.375
Mof_O 	O 	0.02042	0.58213	0.38149	-0.375
Mof_O 	O 	0.7663	0.517	0.6351	-0.214
Mof_O 	O 	0.5183	0.7024	0.948	-0.462
Mof_O 	O 	0.5397	0.7393	0.1437	-0.123
Mof_O 	O 	0.47669	0.85512	0.51657	-0.402
Mof_O 	O 	0.8359	0.0314	0.88794	-0.253
Mof_O 	O 	0.6437	0.9603	0.2607	-0.123
Mof_O 	O 	0.2663	0.517	0.8649	-0.214
Mof_O 	O 	0.2067	0.3413	0.5721	-0.238
Mof_O 	O 	0.54392	0.94798	0.68663	-0.426
Mof_O 	O 	0.3359	0.0314	0.61206	-0.253
Mof_O 	O 	0.8594	0.927	0.7764	-0.058
Mof_O 	O 	0.48441	0.35158	0.04728	-0.47
Mof_O 	O 	0.4603	0.2607	0.8563	-0.123
Mof_O 	O 	0.5399	0.3285	0.11138	-0.461
Mof_O 	O 	0.962	0.8012	0.97805	-0.261
Mof_O 	O 	0.2484	0.5035	0.8799	-0.104
Mof_O 	O 	0.2516	0.4965	0.3799	-0.104
Mof_O 	O 	0.01559	0.85158	0.04728	-0.47
Mof_O 	O 	0.0035	0.6201	0.7516	-0.104
Mof_O 	O 	0.61851	0.97958	0.41787	-0.375
Mof_O 	O 	0.12276	0.91612	0.04311	-0.436
Mof_O 	O 	0.8563	0.0397	0.7607	-0.123
Mof_O 	O 	0.61206	0.3359	0.0314	-0.253
Mof_O 	O 	0.9601	0.8285	0.11138	-0.461
Mof_O 	O 	0.538	0.3012	0.97805	-0.261
Mof_O 	O 	0.8359	0.4686	0.38794	-0.253
Mof_O 	O 	0.0246	0.7509	0.3737	-0.152
Mof_O 	O 	0.91787	0.88149	0.02042	-0.375
Mof_O 	O 	0.47805	0.962	0.6988	-0.261
Mof_O 	O 	0.44798	0.68663	0.95608	-0.426
Mof_O 	O 	0.448	0.9817	0.2976	-0.462
Mof_O 	O 	0.7236	0.1406	0.427	-0.058
Mof_O 	O 	0.88862	0.0399	0.1715	-0.461
Mof_O 	O 	0.41787	0.61851	0.97958	-0.375
Mof_O 	O 	0.7764	0.8594	0.927	-0.058
Mof_O 	O 	0.0955	0.1462	0.7617	-0.416
Mof_O 	O 	0.1462	0.7617	0.0955	-0.416
Mof_O 	O 	0.6406	0.427	0.7764	-0.058
Mof_O 	O 	0.52331	0.14488	0.48343	-0.402
Mof_O 	O 	0.962	0.6988	0.47805	-0.261
Mof_O 	O 	0.3359	0.4686	0.11206	-0.253
Mof_O 	O 	0.11851	0.97958	0.08213	-0.375
Mof_O 	O 	0.95608	0.44798	0.68663	-0.426
Mof_O 	O 	0.1715	0.61138	0.5399	-0.461
Mof_O 	O 	0.52195	0.462	0.8012	-0.261
Mof_O 	O 	0.8012	0.52195	0.462	-0.261
Mof_O 	O 	0.9817	0.2024	0.948	-0.462
Mof_O 	O 	0.62276	0.58388	0.95689	-0.436
Mof_O 	O 	0.54392	0.55202	0.18663	-0.426
Mof_O 	O 	0.7663	0.983	0.1351	-0.214
Mof_O 	O 	0.7337	0.483	0.1351	-0.214
Mof_O 	O 	0.02195	0.462	0.6988	-0.261
Mof_O 	O 	0.58213	0.11851	0.52042	-0.375
Mof_O 	O 	0.5246	0.7509	0.1263	-0.151
Mof_O 	O 	0.3012	0.97805	0.538	-0.261
Mof_O 	O 	0.7516	0.4965	0.1201	-0.104
Mof_O 	O 	0.5035	0.6201	0.7484	-0.104
Mof_O 	O 	0.88149	0.47958	0.41787	-0.375
Mof_O 	O 	0.85512	0.98343	0.97669	-0.402
Mof_O 	O 	0.7484	0.9965	0.1201	-0.104
Mof_O 	O 	0.45689	0.87724	0.41612	-0.436
Mof_O 	O 	0.97669	0.85512	0.98343	-0.402
Mof_O 	O 	0.7509	0.3737	0.0246	-0.152
Mof_O 	O 	0.61138	0.9601	0.6715	-0.461
Mof_O 	O 	0.7229	0.9023	0.664	0.23
Mof_O 	O 	0.1715	0.88862	0.0399	-0.461
Mof_O 	O 	0.3799	0.2516	0.4965	-0.104
Mof_O 	O 	0.2024	0.948	0.9817	-0.462
Mof_O 	O 	0.7976	0.448	0.5183	-0.462
Mof_O 	O 	0.58213	0.38149	0.02042	-0.375
Mof_O 	O 	0.6715	0.61138	0.9601	-0.461
Mof_O 	O 	0.0314	0.61206	0.3359	-0.253
Mof_O 	O 	0.08213	0.38149	0.47958	-0.375
Mof_O 	O 	0.41612	0.45689	0.87724	-0.436
Mof_O 	O 	0.52195	0.038	0.3012	-0.261
Mof_O 	O 	0.0183	0.7024	0.552	-0.462
Mof_O 	O 	0.54311	0.12276	0.58388	-0.436
Mof_O 	O 	0.91612	0.45689	0.62276	-0.436
Mof_O 	O 	0.11206	0.1641	0.9686	-0.253
Mof_O 	O 	0.04311	0.37724	0.41612	-0.436
Mof_O 	O 	0.38149	0.02042	0.58213	-0.375
Mof_O 	O 	0.14842	0.54728	0.48441	-0.47
Mof_O 	O 	0.052	0.0183	0.7976	-0.462
Mof_O 	O 	0.1263	0.9754	0.2509	-0.152
Mof_O 	O 	0.2383	0.9045	0.8538	-0.416
Mof_O 	O 	0.0397	0.7607	0.8563	-0.123
Mof_O 	O 	0.983	0.3649	0.2663	-0.214
Mof_O 	O 	0.4023	0.664	0.7771	0.23
Mof_O 	O 	0.3737	0.0246	0.7509	-0.152
Mof_O 	O 	0.9754	0.2509	0.1263	-0.152
Mof_O 	O 	0.38862	0.4601	0.8285	-0.461
Mof_O 	O 	0.0955	0.3538	0.2617	-0.416
Mof_O 	O 	0.18663	0.54392	0.55202	-0.426
Mof_O 	O 	0.6437	0.5397	0.7607	-0.123
Mof_O 	O 	0.4603	0.2393	0.3563	-0.123
Mof_O 	O 	0.88862	0.4601	0.6715	-0.461
Mof_O 	O 	0.017	0.6351	0.7337	-0.214
Mof_O 	O 	0.08213	0.11851	0.97958	-0.375
Mof_O 	O 	0.2491	0.8737	0.4754	-0.151
Mof_O 	O 	0.01559	0.64842	0.54728	-0.47
Mof_O 	O 	0.2771	0.0977	0.336	0.23
Mof_O 	O 	0.31337	0.04392	0.55202	-0.426
Mof_O 	O 	0.52042	0.58213	0.11851	-0.375
Mof_O 	O 	0.8538	0.2383	0.9045	-0.416
Mof_O 	O 	0.45272	0.51559	0.85158	-0.47
Mof_O 	O 	0.45608	0.05202	0.31337	-0.426
Mof_O 	O 	0.81337	0.45608	0.44798	-0.426
Mof_O 	O 	0.8413	0.5721	0.2933	-0.238
Mof_O 	O 	0.45272	0.98441	0.35158	-0.47
Mof_O 	O 	0.8737	0.0246	0.7491	-0.152
Mof_O 	O 	0.14488	0.01657	0.02331	-0.402
Mof_O 	O 	0.98441	0.14842	0.95272	-0.47
Mof_O 	O 	0.1201	0.7484	0.9965	-0.104
Mof_O 	O 	0.54728	0.48441	0.14842	-0.47
Mof_O 	O 	0.664	0.7771	0.4023	0.23
Mof_O 	O 	0.948	0.9817	0.2024	-0.462
Mof_O 	O 	0.7024	0.552	0.0183	-0.462
Mof_O 	O 	0.9754	0.2491	0.6263	-0.152
Mof_O 	O 	0.11851	0.52042	0.58213	-0.375
Mof_O 	O 	0.4965	0.3799	0.2516	-0.104
Mof_O 	O 	0.927	0.7764	0.8594	-0.058
Mof_O 	O 	0.5246	0.7491	0.6263	-0.152
Mof_O 	O 	0.9817	0.2976	0.448	-0.462
Mof_O 	O 	0.18663	0.95608	0.05202	-0.426
Mof_O 	O 	0.1462	0.7383	0.5955	-0.416
Mof_O 	O 	0.7516	0.0035	0.6201	-0.104
Mof_O 	O 	0.948	0.5183	0.7024	-0.462
Mof_O 	O 	0.45689	0.62276	0.91612	-0.436
Mof_O 	O 	0.64488	0.48343	0.97669	-0.402
Mof_O 	O 	0.3649	0.2663	0.983	-0.214
Mof_O 	O 	0.4279	0.7933	0.6587	-0.238
Mof_O 	O 	0.164	0.7229	0.5977	0.23
Mof_O 	O 	0.38862	0.0399	0.3285	-0.461
Mof_O 	O 	0.55202	0.18663	0.54392	-0.426
Mof_O 	O 	0.37724	0.08388	0.54311	-0.436
Mof_O 	O 	0.4965	0.1201	0.7516	-0.104
Mof_O 	O 	0.1406	0.073	0.2236	-0.058
Mof_O 	O 	0.517	0.8649	0.2663	-0.214
Mof_O 	O 	0.9601	0.6715	0.61138	-0.461
Mof_O 	O 	0.52331	0.35512	0.98343	-0.402
Mof_O 	O 	0.7491	0.6263	0.5246	-0.152
Mof_O 	O 	0.1263	0.5246	0.7509	-0.151
Mof_O 	O 	0.8737	0.4754	0.2491	-0.151
Mof_O 	O 	0.2383	0.5955	0.3538	-0.416
Mof_O 	O 	0.01657	0.02331	0.14488	-0.402
Mof_O 	O 	0.6641	0.9686	0.38794	-0.253
Mof_O 	O 	0.2393	0.1437	0.9603	-0.123
Mof_O 	O 	0.54311	0.37724	0.08388	-0.436
Mof_O 	O 	0.3285	0.11138	0.5399	-0.461
Mof_O 	O 	0.2509	0.3737	0.4754	-0.152
Mof_O 	O 	0.9686	0.38794	0.6641	-0.253
Mof_O 	O 	0.6587	0.0721	0.2933	-0.238
Mof_O 	O 	0.8594	0.573	0.2764	-0.058
Mof_O 	O 	0.2617	0.4045	0.8538	-0.416
Mof_O 	O 	0.448	0.5183	0.7976	-0.462
Mof_O 	O 	0.4601	0.8285	0.38862	-0.461
Mof_O 	O 	0.3799	0.2484	0.9965	-0.104
Mof_O 	O 	0.87724	0.41612	0.45689	-0.436
Mof_O 	O 	0.7024	0.948	0.5183	-0.462
Mof_O 	O 	0.1406	0.427	0.7236	-0.058
Mof_O 	O 	0.02331	0.35512	0.51657	-0.402
Mof_O 	O 	0.88794	0.8359	0.0314	-0.253
Mof_O 	O 	0.2337	0.483	0.3649	-0.214
Mof_O 	O 	0.8012	0.97805	0.962	-0.261
Mof_O 	O 	0.61138	0.5399	0.1715	-0.461
Mof_O 	O 	0.5977	0.164	0.7229	0.23
Mof_O 	O 	0.95608	0.05202	0.18663	-0.426
Mof_O 	O 	0.8563	0.4603	0.2607	-0.123
Mof_O 	O 	0.073	0.2764	0.6406	-0.058
Mof_O 	O 	0.08388	0.95689	0.87724	-0.436
Mof_O 	O 	0.9279	0.7933	0.8413	-0.238
Mof_O 	O 	0.052	0.4817	0.2976	-0.462
Mof_O 	O 	0.02042	0.91787	0.88149	-0.375
Mof_O 	O 	0.8649	0.2337	0.017	-0.214
Mof_O 	O 	0.0977	0.164	0.7771	0.23
Mof_O 	O 	0.7393	0.3563	0.0397	-0.123
Mof_O 	O 	0.0721	0.2067	0.1587	-0.238
Mof_O 	O 	0.1437	0.9603	0.2393	-0.123
Mof_O 	O 	0.2067	0.1587	0.0721	-0.238
Mof_O 	O 	0.4045	0.8538	0.2617	-0.416
Mof_O 	O 	0.2491	0.6263	0.9754	-0.152
Mof_O 	O 	0.8799	0.2516	0.0035	-0.104
Mof_O 	O 	0.2509	0.1263	0.9754	-0.152
Mof_O 	O 	0.3563	0.4603	0.2393	-0.123
Mof_O 	O 	0.9279	0.7067	0.3413	-0.238
Mof_O 	O 	0.4686	0.11206	0.3359	-0.253
Mof_O 	O 	0.7607	0.8563	0.0397	-0.123
Mof_O 	O 	0.64488	0.01657	0.47669	-0.402
Mof_O 	O 	0.11138	0.9601	0.8285	-0.461
Mof_O 	O 	0.6462	0.7383	0.9045	-0.416
Mof_O 	O 	0.35158	0.45272	0.98441	-0.47
Mof_O 	O 	0.3563	0.0397	0.7393	-0.123
Mof_O 	O 	0.9603	0.2607	0.6437	-0.123
Mof_O 	O 	0.1351	0.7337	0.483	-0.214
Mof_O 	O 	0.4754	0.2491	0.8737	-0.151
Mof_O 	O 	0.7229	0.5977	0.164	0.23
Mof_O 	O 	0.4686	0.38794	0.8359	-0.253
Mof_O 	O 	0.4279	0.7067	0.1587	-0.238
Mof_O 	O 	0.47805	0.538	0.1988	-0.261
Mof_O 	O 	0.58388	0.95689	0.62276	-0.436
Mof_O 	O 	0.6988	0.02195	0.462	-0.261
Mof_O 	O 	0.9023	0.836	0.2229	0.23
Mof_O 	O 	0.94798	0.81337	0.04392	-0.426
Mof_O 	O 	0.1351	0.7663	0.983	-0.214
Mof_O 	O 	0.48343	0.52331	0.14488	-0.402
Mof_O 	O 	0.7067	0.3413	0.9279	-0.238
Mof_O 	O 	0.7771	0.4023	0.664	0.23
Mof_O 	O 	0.3594	0.927	0.7236	-0.058
Mof_O 	O 	0.2933	0.8413	0.5721	-0.238
Mof_O 	O 	0.7607	0.6437	0.5397	-0.123
Mof_O 	O 	0.483	0.3649	0.2337	-0.214
Mof_O 	O 	0.2229	0.5977	0.336	0.23
Mof_O 	O 	0.88794	0.6641	0.5314	-0.253
Mof_O 	O 	0.073	0.2236	0.1406	-0.058
Mof_O 	O 	0.336	0.2771	0.0977	0.23
Mof_O 	O 	0.45608	0.44798	0.81337	-0.426
Mof_O 	O 	0.12276	0.58388	0.54311	-0.436
Mof_O 	O 	0.7067	0.1587	0.4279	-0.238
Mof_O 	O 	0.35158	0.04728	0.48441	-0.47
Mof_O 	O 	0.5955	0.1462	0.7383	-0.416
Mof_O 	O 	0.164	0.7771	0.0977	0.23
Mof_O 	O 	0.05202	0.18663	0.95608	-0.426
Mof_O 	O 	0.552	0.0183	0.7024	-0.462
Mof_O 	O 	0.2617	0.0955	0.3538	-0.416
Mof_O 	O 	0.6263	0.9754	0.2491	-0.152
Mof_O 	O 	0.91612	0.04311	0.12276	-0.436
Mof_O 	O 	0.9965	0.1201	0.7484	-0.104
Mof_O 	O 	0.8413	0.9279	0.7933	-0.238
Mof_O 	O 	0.85158	0.45272	0.51559	-0.47
Mof_O 	O 	0.9686	0.11206	0.1641	-0.253
Mof_O 	O 	0.11206	0.3359	0.4686	-0.253
Mof_O 	O 	0.04392	0.94798	0.81337	-0.426
Mof_O 	O 	0.38149	0.47958	0.08213	-0.375
Mof_O 	O 	0.52042	0.91787	0.61851	-0.375
Mof_O 	O 	0.4817	0.2024	0.552	-0.462
Mof_O 	O 	0.94798	0.68663	0.54392	-0.426
Mof_O 	O 	0.336	0.2229	0.5977	0.23
Mof_O 	O 	0.04728	0.48441	0.35158	-0.47
Mof_O 	O 	0.2976	0.052	0.4817	-0.462
Mof_O 	O 	0.038	0.3012	0.52195	-0.261
Mof_O 	O 	0.1988	0.47805	0.538	-0.261
Mof_O 	O 	0.573	0.2764	0.8594	-0.058
Mof_O 	O 	0.552	0.4817	0.2024	-0.462
Mof_O 	O 	0.47669	0.64488	0.01657	-0.402
Mof_O 	O 	0.37724	0.41612	0.04311	-0.436
Mof_O 	O 	0.08388	0.54311	0.37724	-0.436
Mof_O 	O 	0.81337	0.04392	0.94798	-0.426
Mof_O 	O 	0.02331	0.14488	0.01657	-0.402
Mof_O 	O 	0.97805	0.538	0.3012	-0.261
Mof_O 	O 	0.2764	0.8594	0.573	-0.058
Mof_O 	O 	0.2236	0.3594	0.573	-0.058
Mof_O 	O 	0.2976	0.448	0.9817	-0.462
Mof_O 	O 	0.97958	0.41787	0.61851	-0.375
Mof_O 	O 	0.7337	0.017	0.6351	-0.214
Mof_O 	O 	0.41612	0.04311	0.37724	-0.436
Mof_O 	O 	0.97669	0.64488	0.48343	-0.402
Mof_O 	O 	0.98343	0.97669	0.85512	-0.402
Mof_O 	O 	0.1437	0.5397	0.7393	-0.123
Mof_O 	O 	0.3594	0.573	0.2236	-0.058
Mof_O 	O 	0.2516	0.0035	0.8799	-0.104
Mof_O 	O 	0.836	0.2229	0.9023	0.23
Mof_O 	O 	0.2236	0.1406	0.073	-0.058
Mof_O 	O 	0.55202	0.31337	0.04392	-0.426
Mof_O 	O 	0.85512	0.51657	0.47669	-0.402
Mof_O 	O 	0.5183	0.7976	0.448	-0.462
Mof_O 	O 	0.3012	0.52195	0.038	-0.261
Mof_O 	O 	0.9603	0.2393	0.1437	-0.123
Mof_O 	O 	0.7383	0.9045	0.6462	-0.416
Mof_O 	O 	0.2607	0.6437	0.9603	-0.123
Mof_O 	O 	0.427	0.7764	0.6406	-0.058
Mof_O 	O 	0.5721	0.2933	0.8413	-0.238
Mof_O 	O 	0.6988	0.47805	0.962	-0.261
Mof_O 	O 	0.68663	0.95608	0.44798	-0.426
Mof_O 	O 	0.7491	0.8737	0.0246	-0.152
Mof_O 	O 	0.2933	0.6587	0.0721	-0.238
Mof_O 	O 	0.3413	0.5721	0.2067	-0.238
Mof_O 	O 	0.47958	0.08213	0.38149	-0.375
Mof_O 	O 	0.2764	0.6406	0.073	-0.058
Mof_O 	O 	0.4754	0.2509	0.3737	-0.152
Mof_O 	O 	0.2229	0.9023	0.836	0.23
Mof_O 	O 	0.6587	0.4279	0.7933	-0.238
Mof_O 	O 	0.1587	0.0721	0.2067	-0.238
Mof_O 	O 	0.47958	0.41787	0.88149	-0.375
Mof_O 	O 	0.573	0.2236	0.3594	-0.058
Mof_O 	O 	0.0399	0.3285	0.38862	-0.461
Mof_O 	O 	0.05202	0.31337	0.45608	-0.426
Mof_O 	O 	0.2484	0.9965	0.3799	-0.104
Mof_O 	O 	0.48343	0.97669	0.64488	-0.402
Mof_O 	O 	0.9045	0.8538	0.2383	-0.416
Mof_O 	O 	0.85158	0.04728	0.01559	-0.47
Mof_O 	O 	0.2024	0.552	0.4817	-0.462
Mof_O 	O 	0.2607	0.8563	0.4603	-0.123
Mof_O 	O 	0.038	0.1988	0.02195	-0.261
Mof_O 	O 	0.61851	0.52042	0.91787	-0.375
Mof_O 	O 	0.3538	0.2617	0.0955	-0.416
Mof_O 	O 	0.51559	0.64842	0.95272	-0.47
Mof_O 	O 	0.1641	0.5314	0.61206	-0.253
Mof_O 	O 	0.7771	0.0977	0.164	0.23
Mof_O 	O 	0.04392	0.55202	0.31337	-0.426
Mof_O 	O 	0.7976	0.052	0.0183	-0.462
Mof_O 	O 	0.2771	0.4023	0.836	0.23
Mof_O 	O 	0.4601	0.6715	0.88862	-0.461
Mof_O 	O 	0.51559	0.85158	0.45272	-0.47
Mof_O 	O 	0.04728	0.01559	0.85158	-0.47
Mof_O 	O 	0.5314	0.61206	0.1641	-0.253
Mof_O 	O 	0.6351	0.7663	0.517	-0.214
Mof_O 	O 	0.38794	0.8359	0.4686	-0.253
Mof_O 	O 	0.95689	0.62276	0.58388	-0.436
Mof_O 	O 	0.7617	0.4045	0.6462	-0.416
Mof_O 	O 	0.64842	0.95272	0.51559	-0.47
Mof_O 	O 	0.11138	0.5399	0.3285	-0.461
Mof_O 	O 	0.538	0.1988	0.47805	-0.261
Mof_O 	O 	0.8285	0.11138	0.9601	-0.461
Mof_O 	O 	0.4045	0.6462	0.7617	-0.416
Mof_O 	O 	0.44798	0.81337	0.45608	-0.426
Mof_O 	O 	0.462	0.6988	0.02195	-0.261
Mof_O 	O 	0.5399	0.1715	0.61138	-0.461
Mof_O 	O 	0.48441	0.14842	0.54728	-0.47
Mof_O 	O 	0.5955	0.3538	0.2383	-0.416
Mof_O 	O 	0.664	0.7229	0.9023	0.23
Mof_O 	O 	0.0397	0.7393	0.3563	-0.123
Mof_O 	O 	0.8538	0.2617	0.4045	-0.416
Mof_O 	O 	0.5397	0.7607	0.6437	-0.123
Mof_O 	O 	0.41787	0.88149	0.47958	-0.375
Mof_O 	O 	0.14488	0.48343	0.52331	-0.402
Mof_O 	O 	0.3413	0.9279	0.7067	-0.238
Mof_O 	O 	0.7393	0.1437	0.5397	-0.123
Mof_O 	O 	0.64842	0.54728	0.01559	-0.47
Mof_O 	O 	0.7933	0.8413	0.9279	-0.238
Mof_O 	O 	0.6201	0.7484	0.5035	-0.104
Mof_O 	O 	0.0399	0.1715	0.88862	-0.461
Mof_O 	O 	0.4023	0.836	0.2771	0.23
Mof_O 	O 	0.8649	0.2663	0.517	-0.214
Mof_O 	O 	0.51657	0.02331	0.35512	-0.402
Mof_O 	O 	0.6406	0.073	0.2764	-0.058
Mof_O 	O 	0.7383	0.5955	0.1462	-0.416
Mof_O 	O 	0.2663	0.983	0.3649	-0.214
Mof_O 	O 	0.6201	0.7516	0.0035	-0.104
Mof_O 	O 	0.98441	0.35158	0.45272	-0.47
Mof_O 	O 	0.1641	0.9686	0.11206	-0.253
Mof_O 	O 	0.97805	0.962	0.8012	-0.261
Mof_O 	O 	0.38794	0.6641	0.9686	-0.253
Mof_O 	O 	0.836	0.2771	0.4023	0.23
Mof_O 	O 	0.7617	0.0955	0.1462	-0.416
Mof_O 	O 	0.95272	0.51559	0.64842	-0.47
Mof_O 	O 	0.5721	0.2067	0.3413	-0.238
Mof_O 	O 	0.95689	0.87724	0.08388	-0.436
Mof_O 	O 	0.2393	0.3563	0.4603	-0.123
Mof_O 	O 	0.02195	0.038	0.1988	-0.261
Mof_O 	O 	0.6263	0.5246	0.7491	-0.152
Mof_O 	O 	0.68663	0.54392	0.94798	-0.426
Mof_O 	O 	0.0035	0.8799	0.2516	-0.104
Mof_O 	O 	0.9023	0.664	0.7229	0.23
Mof_O 	O 	0.0246	0.7491	0.8737	-0.152
Mof_O 	O 	0.6715	0.88862	0.4601	-0.461
Mof_O 	O 	0.0977	0.336	0.2771	0.23
Mof_O 	O 	0.8799	0.2484	0.5035	-0.104
Mof_O 	O 	0.7764	0.6406	0.427	-0.058
Mof_O 	O 	0.5977	0.336	0.2229	0.23
Mof_O 	O 	0.61206	0.1641	0.5314	-0.253
Mof_O 	O 	0.14842	0.95272	0.98441	-0.47
Mof_O 	O 	0.7484	0.5035	0.6201	-0.104
Mof_O 	O 	0.927	0.7236	0.3594	-0.058
Mof_O 	O 	0.3737	0.4754	0.2509	-0.152
Mof_O 	O 	0.9045	0.6462	0.7383	-0.416
Mof_O 	O 	0.51657	0.47669	0.85512	-0.402
Mof_O 	O 	0.31337	0.45608	0.05202	-0.426
Mof_O 	O 	0.517	0.6351	0.7663	-0.214
Mof_O 	O 	0.04311	0.12276	0.91612	-0.436
Mof_O 	O 	0.95272	0.98441	0.14842	-0.47
Mof_O 	O 	0.6462	0.7617	0.4045	-0.416
Mof_O 	O 	0.8285	0.38862	0.4601	-0.461
Mof_O 	O 	0.7236	0.3594	0.927	-0.058
Mof_O 	O 	0.3649	0.2337	0.483	-0.214
Mof_O 	O 	0.54728	0.01559	0.64842	-0.47
Mof_O 	O 	0.983	0.1351	0.7663	-0.214
Mof_O 	O 	0.87724	0.08388	0.95689	-0.436
Mof_O 	O 	0.91787	0.61851	0.52042	-0.375
Mof_O 	O 	0.5314	0.88794	0.6641	-0.253
Mof_O 	O 	0.483	0.1351	0.7337	-0.214
Mof_O 	O 	0.1201	0.7516	0.4965	-0.104
Mof_O 	O 	0.35512	0.98343	0.52331	-0.402
Mof_O 	O 	0.6641	0.5314	0.88794	-0.253
Mof_O 	O 	0.7933	0.6587	0.4279	-0.238
Mof_O 	O 	0.1988	0.02195	0.038	-0.261
Mof_O 	O 	0.88149	0.02042	0.91787	-0.375
Mof_O 	O 	0.2337	0.017	0.8649	-0.214
Mof_O 	O 	0.0314	0.88794	0.8359	-0.253
Mof_O 	O 	0.58388	0.54311	0.12276	-0.436
Mof_O 	O 	0.017	0.8649	0.2337	-0.214
Mof_O 	O 	0.01657	0.47669	0.64488	-0.402
Mof_O 	O 	0.462	0.8012	0.52195	-0.261
Mof_O 	O 	0.0183	0.7976	0.052	-0.462
Mof_O 	O 	0.6351	0.7337	0.017	-0.214
Mof_O 	O 	0.35512	0.51657	0.02331	-0.402
Mof_O 	O 	0.4817	0.2976	0.052	-0.462
Mof_O 	O 	0.62276	0.91612	0.45689	-0.436
Mof_O 	O 	0.427	0.7236	0.1406	-0.058
Mof_O 	O 	0.0721	0.2933	0.6587	-0.238
Mof_O 	O 	0.3285	0.38862	0.0399	-0.461
Mof_O 	O 	0.3538	0.2383	0.5955	-0.416
Mof_O 	O 	0.98343	0.52331	0.35512	-0.402
Mof_O 	O 	0.1587	0.4279	0.7067	-0.238
Mof_O 	O 	0.7509	0.1263	0.5246	-0.151
_end
