data_functionalizedCrystal
_audit_creation_method	'EQeq! by Chris Wilmer'
_symmetry_space_group_name_H-M	'P1'
_symmetry_Int_Tables_number	1
_symmetry_cell_setting	triclinic
loop_
_symmetry_equiv_pos_as_xyz
  x,y,z
_cell_length_a	15.555
_cell_length_b	15.555
_cell_length_c	20.0304
_cell_angle_alpha	90
_cell_angle_beta	90
_cell_angle_gamma	90
loop_
_atom_site_label
_atom_site_type_symbol
_atom_site_fract_x
_atom_site_fract_y
_atom_site_fract_z
_atom_site_charge
Mof_Zn	Zn	0.25	0.75	-0	1.074
Mof_Zn	Zn	0.75	0.25	0.5	1.135
Mof_Zn	Zn	0.75	0.25	-0	1.074
Mof_Zn	Zn	0.25	0.75	0.5	1.136
Mof_Zn	Zn	0.08306	0.91694	-0	1.071
Mof_Zn	Zn	0.41694	0.58306	-0	1.071
Mof_Zn	Zn	0.58306	0.08306	0.5	1.133
Mof_Zn	Zn	0.91694	0.41694	0.5	1.133
Mof_Zn	Zn	0.91694	0.08306	-0	1.071
Mof_Zn	Zn	0.58306	0.41694	-0	1.071
Mof_Zn	Zn	0.41694	0.91694	0.5	1.133
Mof_Zn	Zn	0.08306	0.58306	0.5	1.133
Mof_H 	H 	0.15361	0.9694	0.73643	0.079
Mof_H 	H 	0.13887	0.9568	0.84401	0.006
Mof_H 	H 	0.22257	0.05294	0.0708	-0.036
Mof_H 	H 	0.35558	0.84194	0.12089	-0.03
Mof_H 	H 	0.34639	0.5306	0.73643	0.089
Mof_H 	H 	0.36113	0.5432	0.84401	-0.001
Mof_H 	H 	0.27743	0.44706	0.0708	-0.039
Mof_H 	H 	0.14442	0.65806	0.12089	-0.031
Mof_H 	H 	0.5306	0.15361	0.23643	0.079
Mof_H 	H 	0.5432	0.13887	0.34401	-0.015
Mof_H 	H 	0.44706	0.22257	0.5708	-0.015
Mof_H 	H 	0.65806	0.35558	0.62089	-0.015
Mof_H 	H 	0.9694	0.34639	0.23643	0.077
Mof_H 	H 	0.9568	0.36113	0.34401	-0.015
Mof_H 	H 	0.05294	0.27743	0.5708	-0.011
Mof_H 	H 	0.84194	0.14442	0.62089	-0.015
Mof_H 	H 	0.84639	0.4694	0.76357	0.088
Mof_H 	H 	0.86113	0.4568	0.65599	-0.015
Mof_H 	H 	0.77743	0.55294	0.4292	-0.018
Mof_H 	H 	0.64442	0.34194	0.37911	-0.016
Mof_H 	H 	0.65361	0.0306	0.76357	0.088
Mof_H 	H 	0.63887	0.0432	0.65599	-0.016
Mof_H 	H 	0.72257	0.94706	0.4292	-0.016
Mof_H 	H 	0.85558	0.15806	0.37911	-0.016
Mof_H 	H 	0.4694	0.65361	0.26357	0.08
Mof_H 	H 	0.4568	0.63887	0.15599	-0.025
Mof_H 	H 	0.55294	0.72257	0.9292	0.011
Mof_H 	H 	0.34194	0.85558	0.87911	0.004
Mof_H 	H 	0.0306	0.84639	0.26357	0.072
Mof_H 	H 	0.0432	0.86113	0.15599	-0.02
Mof_H 	H 	0.94706	0.77743	0.9292	0.013
Mof_H 	H 	0.15806	0.64442	0.87911	0.005
Mof_H 	H 	0.84639	0.0306	0.26357	0.072
Mof_H 	H 	0.86113	0.0432	0.15599	-0.02
Mof_H 	H 	0.77743	0.94706	0.9292	0.013
Mof_H 	H 	0.64442	0.15806	0.87911	0.005
Mof_H 	H 	0.65361	0.4694	0.26357	0.08
Mof_H 	H 	0.63887	0.4568	0.15599	-0.025
Mof_H 	H 	0.72257	0.55294	0.9292	0.011
Mof_H 	H 	0.85558	0.34194	0.87911	0.004
Mof_H 	H 	0.4694	0.84639	0.76357	0.088
Mof_H 	H 	0.4568	0.86113	0.65599	-0.015
Mof_H 	H 	0.55294	0.77743	0.4292	-0.018
Mof_H 	H 	0.34194	0.64442	0.37911	-0.016
Mof_H 	H 	0.0306	0.65361	0.76357	0.088
Mof_H 	H 	0.0432	0.63887	0.65599	-0.016
Mof_H 	H 	0.94706	0.72257	0.4292	-0.016
Mof_H 	H 	0.15806	0.85558	0.37911	-0.016
Mof_H 	H 	0.15361	0.5306	0.23643	0.079
Mof_H 	H 	0.13887	0.5432	0.34401	-0.015
Mof_H 	H 	0.22257	0.44706	0.5708	-0.015
Mof_H 	H 	0.35558	0.65806	0.62089	-0.015
Mof_H 	H 	0.34639	0.9694	0.23643	0.077
Mof_H 	H 	0.36113	0.9568	0.34401	-0.015
Mof_H 	H 	0.27743	0.05294	0.5708	-0.011
Mof_H 	H 	0.14442	0.84194	0.62089	-0.015
Mof_H 	H 	0.5306	0.34639	0.73643	0.089
Mof_H 	H 	0.5432	0.36113	0.84401	-0.001
Mof_H 	H 	0.44706	0.27743	0.0708	-0.039
Mof_H 	H 	0.65806	0.14442	0.12089	-0.031
Mof_H 	H 	0.9694	0.15361	0.73643	0.079
Mof_H 	H 	0.9568	0.13887	0.84401	0.006
Mof_H 	H 	0.05294	0.22257	0.0708	-0.036
Mof_H 	H 	0.84194	0.35558	0.12089	-0.03
Mof_H 	H 	0.084	0.08401	0.56291	0.081
Mof_H 	H 	0.416	0.41599	0.56291	0.081
Mof_H 	H 	0.41599	0.084	0.06291	0.038
Mof_H 	H 	0.08401	0.416	0.06291	0.038
Mof_H 	H 	0.916	0.584	0.93709	0.126
Mof_H 	H 	0.584	0.91599	0.93709	0.126
Mof_H 	H 	0.584	0.584	0.43709	0.08
Mof_H 	H 	0.91599	0.916	0.43709	0.08
Mof_C 	C 	0.11938	0.00996	0.71295	-0.161
Mof_C 	C 	0.12814	0.01868	0.64422	0.111
Mof_C 	C 	0.09615	0.99623	0.85854	0.016
Mof_C 	C 	0.18952	0.96586	0.60836	-0.077
Mof_C 	C 	0.24013	0.99468	0.07483	0.006
Mof_C 	C 	0.31317	0.87882	0.10234	-0
Mof_C 	C 	0.38062	0.49004	0.71295	-0.179
Mof_C 	C 	0.37186	0.48132	0.64422	0.116
Mof_C 	C 	0.40385	0.50377	0.85854	0.041
Mof_C 	C 	0.31048	0.53414	0.60836	-0.077
Mof_C 	C 	0.25987	0.50532	0.07483	0.01
Mof_C 	C 	0.18683	0.62118	0.10234	-0
Mof_C 	C 	0.49004	0.11938	0.21295	-0.17
Mof_C 	C 	0.48132	0.12814	0.14422	0.091
Mof_C 	C 	0.50377	0.09615	0.35854	0.024
Mof_C 	C 	0.53414	0.18952	0.10836	-0.083
Mof_C 	C 	0.50532	0.24013	0.57483	0.03
Mof_C 	C 	0.62118	0.31317	0.60234	0.021
Mof_C 	C 	0.00996	0.38062	0.21295	-0.167
Mof_C 	C 	0.01868	0.37186	0.14422	0.092
Mof_C 	C 	0.99623	0.40385	0.35854	0.022
Mof_C 	C 	0.96586	0.31048	0.10836	-0.083
Mof_C 	C 	0.99468	0.25987	0.57483	0.024
Mof_C 	C 	0.87882	0.18683	0.60234	0.02
Mof_C 	C 	0.88062	0.50996	0.78705	-0.186
Mof_C 	C 	0.87186	0.51868	0.85578	0.135
Mof_C 	C 	0.90385	0.49623	0.64146	0.03
Mof_C 	C 	0.81048	0.46586	0.89164	-0.07
Mof_C 	C 	0.75987	0.49468	0.42517	0.028
Mof_C 	C 	0.68683	0.37882	0.39766	0.02
Mof_C 	C 	0.61938	0.99004	0.78705	-0.186
Mof_C 	C 	0.62814	0.98132	0.85578	0.134
Mof_C 	C 	0.59615	0.00377	0.64146	0.03
Mof_C 	C 	0.68952	0.03414	0.89164	-0.069
Mof_C 	C 	0.74013	0.00532	0.42517	0.024
Mof_C 	C 	0.81317	0.12118	0.39766	0.019
Mof_C 	C 	0.50996	0.61938	0.28705	-0.179
Mof_C 	C 	0.51868	0.62814	0.35578	0.11
Mof_C 	C 	0.49623	0.59615	0.14146	0.016
Mof_C 	C 	0.46586	0.68952	0.39164	-0.078
Mof_C 	C 	0.49468	0.74013	0.92517	0.049
Mof_C 	C 	0.37882	0.81317	0.89766	0.042
Mof_C 	C 	0.99004	0.88062	0.28705	-0.164
Mof_C 	C 	0.98132	0.87186	0.35578	0.106
Mof_C 	C 	0.00377	0.90385	0.14146	-0.002
Mof_C 	C 	0.03414	0.81048	0.39164	-0.078
Mof_C 	C 	0.00532	0.75987	0.92517	0.045
Mof_C 	C 	0.12118	0.68683	0.89766	0.042
Mof_C 	C 	0.88062	0.99004	0.28705	-0.164
Mof_C 	C 	0.87186	0.98132	0.35578	0.106
Mof_C 	C 	0.90385	0.00377	0.14146	-0.002
Mof_C 	C 	0.81048	0.03414	0.39164	-0.078
Mof_C 	C 	0.75987	0.00532	0.92517	0.045
Mof_C 	C 	0.68683	0.12118	0.89766	0.042
Mof_C 	C 	0.61938	0.50996	0.28705	-0.179
Mof_C 	C 	0.62814	0.51868	0.35578	0.11
Mof_C 	C 	0.59615	0.49623	0.14146	0.016
Mof_C 	C 	0.68952	0.46586	0.39164	-0.078
Mof_C 	C 	0.74013	0.49468	0.92517	0.049
Mof_C 	C 	0.81317	0.37882	0.89766	0.042
Mof_C 	C 	0.50996	0.88062	0.78705	-0.186
Mof_C 	C 	0.51868	0.87186	0.85578	0.135
Mof_C 	C 	0.49623	0.90385	0.64146	0.03
Mof_C 	C 	0.46586	0.81048	0.89164	-0.07
Mof_C 	C 	0.49468	0.75987	0.42517	0.028
Mof_C 	C 	0.37882	0.68683	0.39766	0.02
Mof_C 	C 	0.99004	0.61938	0.78705	-0.186
Mof_C 	C 	0.98132	0.62814	0.85578	0.134
Mof_C 	C 	0.00377	0.59615	0.64146	0.03
Mof_C 	C 	0.03414	0.68952	0.89164	-0.069
Mof_C 	C 	0.00532	0.74013	0.42517	0.024
Mof_C 	C 	0.12118	0.81317	0.39766	0.019
Mof_C 	C 	0.11938	0.49004	0.21295	-0.17
Mof_C 	C 	0.12814	0.48132	0.14422	0.091
Mof_C 	C 	0.09615	0.50377	0.35854	0.024
Mof_C 	C 	0.18952	0.53414	0.10836	-0.083
Mof_C 	C 	0.24013	0.50532	0.57483	0.03
Mof_C 	C 	0.31317	0.62118	0.60234	0.021
Mof_C 	C 	0.38062	0.00996	0.21295	-0.167
Mof_C 	C 	0.37186	0.01868	0.14422	0.092
Mof_C 	C 	0.40385	0.99623	0.35854	0.022
Mof_C 	C 	0.31048	0.96586	0.10836	-0.083
Mof_C 	C 	0.25987	0.99468	0.57483	0.024
Mof_C 	C 	0.18683	0.87882	0.60234	0.02
Mof_C 	C 	0.49004	0.38062	0.71295	-0.179
Mof_C 	C 	0.48132	0.37186	0.64422	0.116
Mof_C 	C 	0.50377	0.40385	0.85854	0.041
Mof_C 	C 	0.53414	0.31048	0.60836	-0.077
Mof_C 	C 	0.50532	0.25987	0.07483	0.01
Mof_C 	C 	0.62118	0.18683	0.10234	-0
Mof_C 	C 	0.00996	0.11938	0.71295	-0.161
Mof_C 	C 	0.01868	0.12814	0.64422	0.111
Mof_C 	C 	0.99623	0.09615	0.85854	0.016
Mof_C 	C 	0.96586	0.18952	0.60836	-0.077
Mof_C 	C 	0.99468	0.24013	0.07483	0.006
Mof_C 	C 	0.87882	0.31317	0.10234	-0
Mof_C 	C 	0.06056	0.06057	0.74734	0.103
Mof_C 	C 	0.07804	0.07804	0.60988	-0.175
Mof_C 	C 	0.05145	0.05146	0.81903	-0.044
Mof_C 	C 	0.43944	0.43943	0.74734	0.122
Mof_C 	C 	0.42196	0.42196	0.60988	-0.181
Mof_C 	C 	0.44855	0.44854	0.81903	-0.072
Mof_C 	C 	0.43943	0.06056	0.24734	0.101
Mof_C 	C 	0.42196	0.07804	0.10988	-0.173
Mof_C 	C 	0.44854	0.05145	0.31903	-0.071
Mof_C 	C 	0.06057	0.43944	0.24734	0.101
Mof_C 	C 	0.07804	0.42196	0.10988	-0.173
Mof_C 	C 	0.05146	0.44855	0.31903	-0.071
Mof_C 	C 	0.93944	0.56057	0.75266	0.125
Mof_C 	C 	0.92196	0.57804	0.89012	-0.187
Mof_C 	C 	0.94855	0.55146	0.68097	-0.079
Mof_C 	C 	0.56056	0.93943	0.75266	0.125
Mof_C 	C 	0.57804	0.92196	0.89012	-0.187
Mof_C 	C 	0.55145	0.94854	0.68097	-0.079
Mof_C 	C 	0.56057	0.56056	0.25266	0.108
Mof_C 	C 	0.57804	0.57804	0.39012	-0.18
Mof_C 	C 	0.55146	0.55145	0.18097	-0.08
Mof_C 	C 	0.93943	0.93944	0.25266	0.094
Mof_C 	C 	0.92196	0.92196	0.39012	-0.175
Mof_C 	C 	0.94854	0.94855	0.18097	-0.057
Mof_N 	N 	0.06899	0.00731	0.9225	-0.198
Mof_N 	N 	0.19933	0.92544	0.04809	-0.302
Mof_N 	N 	0.24447	0.85384	0.06509	-0.286
Mof_N 	N 	0.43101	0.49269	0.9225	-0.204
Mof_N 	N 	0.30067	0.57456	0.04809	-0.303
Mof_N 	N 	0.25553	0.64616	0.06509	-0.286
Mof_N 	N 	0.49269	0.06899	0.4225	-0.259
Mof_N 	N 	0.57456	0.19933	0.54809	-0.269
Mof_N 	N 	0.64616	0.24447	0.56509	-0.26
Mof_N 	N 	0.00731	0.43101	0.4225	-0.258
Mof_N 	N 	0.92544	0.30067	0.54809	-0.268
Mof_N 	N 	0.85384	0.25553	0.56509	-0.26
Mof_N 	N 	0.93101	0.50731	0.5775	-0.259
Mof_N 	N 	0.80067	0.42544	0.45191	-0.269
Mof_N 	N 	0.75553	0.35384	0.43491	-0.261
Mof_N 	N 	0.56899	0.99269	0.5775	-0.259
Mof_N 	N 	0.69933	0.07456	0.45191	-0.269
Mof_N 	N 	0.74447	0.14616	0.43491	-0.261
Mof_N 	N 	0.50731	0.56899	0.0775	-0.293
Mof_N 	N 	0.42544	0.69933	0.95191	-0.212
Mof_N 	N 	0.35384	0.74447	0.93491	-0.213
Mof_N 	N 	0.99269	0.93101	0.0775	-0.286
Mof_N 	N 	0.07456	0.80067	0.95191	-0.213
Mof_N 	N 	0.14616	0.75553	0.93491	-0.213
Mof_N 	N 	0.93101	0.99269	0.0775	-0.286
Mof_N 	N 	0.80067	0.07456	0.95191	-0.213
Mof_N 	N 	0.75553	0.14616	0.93491	-0.213
Mof_N 	N 	0.56899	0.50731	0.0775	-0.293
Mof_N 	N 	0.69933	0.42544	0.95191	-0.212
Mof_N 	N 	0.74447	0.35384	0.93491	-0.213
Mof_N 	N 	0.50731	0.93101	0.5775	-0.259
Mof_N 	N 	0.42544	0.80067	0.45191	-0.269
Mof_N 	N 	0.35384	0.75553	0.43491	-0.261
Mof_N 	N 	0.99269	0.56899	0.5775	-0.259
Mof_N 	N 	0.07456	0.69933	0.45191	-0.269
Mof_N 	N 	0.14616	0.74447	0.43491	-0.261
Mof_N 	N 	0.06899	0.49269	0.4225	-0.259
Mof_N 	N 	0.19933	0.57456	0.54809	-0.269
Mof_N 	N 	0.24447	0.64616	0.56509	-0.26
Mof_N 	N 	0.43101	0.00731	0.4225	-0.258
Mof_N 	N 	0.30067	0.92544	0.54809	-0.268
Mof_N 	N 	0.25553	0.85384	0.56509	-0.26
Mof_N 	N 	0.49269	0.43101	0.9225	-0.204
Mof_N 	N 	0.57456	0.30067	0.04809	-0.303
Mof_N 	N 	0.64616	0.25553	0.06509	-0.286
Mof_N 	N 	0.00731	0.06899	0.9225	-0.198
Mof_N 	N 	0.92544	0.19933	0.04809	-0.302
Mof_N 	N 	0.85384	0.24447	0.06509	-0.286
_end
