data_functionalizedCrystal
_audit_creation_method	'EQeq! by Chris Wilmer'
_symmetry_space_group_name_H-M	'P1'
_symmetry_Int_Tables_number	1
_symmetry_cell_setting	triclinic
loop_
_symmetry_equiv_pos_as_xyz
  x,y,z
_cell_length_a	7.2112
_cell_length_b	14.4643
_cell_length_c	15.5891
_cell_angle_alpha	117.641
_cell_angle_beta	97.9136
_cell_angle_gamma	90
loop_
_atom_site_label
_atom_site_type_symbol
_atom_site_fract_x
_atom_site_fract_y
_atom_site_fract_z
_atom_site_charge
Mof_Cd	Cd	0.25	0.05975	-0	0.408
Mof_Cd	Cd	0.75	0.94025	-0	0.486
Mof_Cu	Cu	0.5	3.99478e-17	0.5	0.882
Mof_Cu	Cu	-1.07317e-17	0.5	0.5	0.889
Mof_H 	H 	0.4843	0.6539	0.3456	0.116
Mof_H 	H 	0.5366	0.5382	0.406	-0.022
Mof_H 	H 	0.6271	0.594	0.57	0.075
Mof_H 	H 	0.6801	0.7711	0.6764	0.033
Mof_H 	H 	0.6853	0.9461	0.7098	0.049
Mof_H 	H 	0.7445	0.1102	0.765	0.094
Mof_H 	H 	0.6666	0.168	0.7052	0.085
Mof_H 	H 	0.3295	0.21	0.702	0.072
Mof_H 	H 	0.0718	0.2436	0.7844	0.031
Mof_H 	H 	0.065	0.1954	0.9044	0.048
Mof_H 	H 	0.5505	0.0776	0.8628	0.085
Mof_H 	H 	0.0157	0.3083	0.6544	0.059
Mof_H 	H 	0.9634	0.1322	0.594	0.01
Mof_H 	H 	0.8729	0.024	0.43	0.042
Mof_H 	H 	0.8199	0.0947	0.3236	0.04
Mof_H 	H 	0.8147	0.2363	0.2902	0.053
Mof_H 	H 	0.7555	0.3452	0.235	0.081
Mof_H 	H 	0.8334	0.4628	0.2948	0.075
Mof_H 	H 	0.1705	0.508	0.298	0.066
Mof_H 	H 	0.4282	0.4592	0.2156	0.036
Mof_H 	H 	0.435	0.291	0.0956	0.033
Mof_H 	H 	0.9495	0.2148	0.1372	0.108
Mof_H 	H 	0.5157	0.3461	0.6544	0.117
Mof_H 	H 	0.4634	0.4618	0.594	-0.018
Mof_H 	H 	0.3729	0.406	0.43	0.067
Mof_H 	H 	0.3199	0.2289	0.3236	0.033
Mof_H 	H 	0.3147	0.0539	0.2902	0.048
Mof_H 	H 	0.2555	0.8898	0.235	0.088
Mof_H 	H 	0.3334	0.832	0.2948	0.073
Mof_H 	H 	0.6705	0.79	0.298	0.075
Mof_H 	H 	0.9282	0.7564	0.2156	0.041
Mof_H 	H 	0.935	0.8046	0.0956	0.037
Mof_H 	H 	0.4495	0.9224	0.1372	0.085
Mof_H 	H 	0.9843	0.6917	0.3456	0.167
Mof_H 	H 	0.0366	0.8678	0.406	-0.045
Mof_H 	H 	0.1271	0.976	0.57	0.098
Mof_H 	H 	0.1801	0.9053	0.6764	0.028
Mof_H 	H 	0.1853	0.7637	0.7098	0.046
Mof_H 	H 	0.2445	0.6548	0.765	0.099
Mof_H 	H 	0.1666	0.5372	0.7052	0.082
Mof_H 	H 	0.8295	0.492	0.702	0.082
Mof_H 	H 	0.5718	0.5408	0.7844	0.038
Mof_H 	H 	0.565	0.709	0.9044	0.053
Mof_H 	H 	0.0505	0.7852	0.8628	0.062
Mof_C 	C 	0.5463	0.78894	0.47428	0.26
Mof_C 	C 	0.5224	0.6793	0.4126	-0.238
Mof_C 	C 	0.5537	0.6095	0.4488	0.117
Mof_C 	C 	0.6093	0.6424	0.5464	-0.174
Mof_C 	C 	0.6391	0.7487	0.6102	0.071
Mof_C 	C 	0.6085	0.82403	0.57646	-0.138
Mof_C 	C 	0.6365	0.93118	0.64596	0.1
Mof_C 	C 	0.6371	0.11339	0.72178	-0.151
Mof_C 	C 	0.4687	0.1401	0.7742	0.072
Mof_C 	C 	0.3245	0.18997	0.75034	-0.106
Mof_C 	C 	0.1711	0.21001	0.79962	-0.033
Mof_C 	C 	0.1673	0.18009	0.87078	0.02
Mof_C 	C 	0.453	0.11139	0.84638	-0.035
Mof_C 	C 	0.9537	0.31466	0.52572	0.208
Mof_C 	C 	0.9776	0.2667	0.5874	-0.126
Mof_C 	C 	0.9463	0.1607	0.5512	0.033
Mof_C 	C 	0.8907	0.096	0.4536	-0.112
Mof_C 	C 	0.8609	0.1385	0.3898	0.018
Mof_C 	C 	0.8915	0.24757	0.42354	-0.093
Mof_C 	C 	0.8635	0.28522	0.35404	0.038
Mof_C 	C 	0.8629	0.39161	0.27822	-0.113
Mof_C 	C 	0.0313	0.3659	0.2258	0.05
Mof_C 	C 	0.1755	0.43963	0.24966	-0.097
Mof_C 	C 	0.3289	0.41039	0.20038	-0.041
Mof_C 	C 	0.3327	0.30931	0.12922	0.019
Mof_C 	C 	0.047	0.26501	0.15362	-0.081
Mof_C 	C 	0.4537	0.21106	0.52572	0.237
Mof_C 	C 	0.4776	0.3207	0.5874	-0.229
Mof_C 	C 	0.4463	0.3905	0.5512	0.098
Mof_C 	C 	0.3907	0.3576	0.4536	-0.161
Mof_C 	C 	0.3609	0.2513	0.3898	0.041
Mof_C 	C 	0.3915	0.17597	0.42354	-0.111
Mof_C 	C 	0.3635	0.06882	0.35404	-0.01
Mof_C 	C 	0.3629	0.88661	0.27822	-0.139
Mof_C 	C 	0.5313	0.8599	0.2258	0.071
Mof_C 	C 	0.6755	0.81003	0.24966	-0.097
Mof_C 	C 	0.8289	0.78999	0.20038	-0.034
Mof_C 	C 	0.8327	0.81991	0.12922	0.025
Mof_C 	C 	0.547	0.88861	0.15362	-0.032
Mof_C 	C 	0.0463	0.68534	0.47428	0.285
Mof_C 	C 	0.0224	0.7333	0.4126	-0.327
Mof_C 	C 	0.0537	0.8393	0.4488	0.173
Mof_C 	C 	0.1093	0.904	0.5464	-0.216
Mof_C 	C 	0.1391	0.8615	0.6102	0.09
Mof_C 	C 	0.1085	0.75243	0.57646	-0.153
Mof_C 	C 	0.1365	0.71478	0.64596	0.054
Mof_C 	C 	0.1371	0.60839	0.72178	-0.177
Mof_C 	C 	0.9687	0.6341	0.7742	0.093
Mof_C 	C 	0.8245	0.56037	0.75034	-0.106
Mof_C 	C 	0.6711	0.58961	0.79962	-0.025
Mof_C 	C 	0.6673	0.69069	0.87078	0.026
Mof_C 	C 	0.953	0.73499	0.84638	0.013
Mof_N 	N 	0.6018	0.01166	0.63112	-0.22
Mof_N 	N 	0.3037	0.12987	0.89394	-0.095
Mof_N 	N 	0.8982	0.38054	0.36888	-0.182
Mof_N 	N 	0.1963	0.23593	0.10606	-0.11
Mof_N 	N 	0.3982	0.98834	0.36888	-0.154
Mof_N 	N 	0.6963	0.87013	0.10606	-0.111
Mof_N 	N 	0.1018	0.61946	0.63112	-0.195
Mof_N 	N 	0.8037	0.76407	0.89394	-0.096
Mof_Cl	Cl	0.09531	0.99666	0.1059	-0.361
Mof_Cl	Cl	0.40469	0.89076	0.8941	-0.308
Mof_Cl	Cl	0.90469	0.00334	0.8941	-0.343
Mof_Cl	Cl	0.59531	0.10924	0.1059	-0.403
Mof_O 	O 	0.5159	0.85349	0.43778	-0.385
Mof_O 	O 	0.9841	0.41571	0.56222	-0.368
Mof_O 	O 	0.4841	0.14651	0.56222	-0.399
Mof_O 	O 	0.0159	0.58429	0.43778	-0.417
_end
