data_functionalizedCrystal
_audit_creation_method	'EQeq! by Chris Wilmer'
_symmetry_space_group_name_H-M	'P1'
_symmetry_Int_Tables_number	1
_symmetry_cell_setting	triclinic
loop_
_symmetry_equiv_pos_as_xyz
  x,y,z
_cell_length_a	17.144
_cell_length_b	17.144
_cell_length_c	14.514
_cell_angle_alpha	90
_cell_angle_beta	90
_cell_angle_gamma	120
loop_
_atom_site_label
_atom_site_type_symbol
_atom_site_fract_x
_atom_site_fract_y
_atom_site_fract_z
_atom_site_charge
Mof_O 	O 	0.34664	0.52532	0.6518	-0.399
Mof_C 	C 	0.4131	0.4491	0.5298	-0.011
Mof_H 	H 	0.3539	0.4141	0.5497	0.045
Mof_C 	C 	0.2315	0.3369	0.7749	0.016
Mof_H 	H 	0.2908	0.3671	0.7956	0.025
Mof_C 	C 	0.184	0.2415	0.7702	-0.049
Mof_H 	H 	0.215	0.2109	0.7818	0.035
Mof_O 	O 	0.47468	0.82132	0.6518	-0.398
Mof_C 	C 	0.5509	0.964	0.5298	-0.01
Mof_H 	H 	0.5859	0.9398	0.5497	0.046
Mof_C 	C 	0.6631	0.8946	0.7749	0.017
Mof_H 	H 	0.6329	0.9237	0.7956	0.026
Mof_C 	C 	0.7585	0.9425	0.7702	-0.048
Mof_H 	H 	0.7891	0.0041	0.7818	0.035
Mof_O 	O 	0.17868	0.65336	0.6518	-0.398
Mof_C 	C 	0.036	0.5869	0.5298	-0.01
Mof_H 	H 	0.0602	0.6461	0.5497	0.046
Mof_C 	C 	0.1054	0.7685	0.7749	0.015
Mof_H 	H 	0.0763	0.7092	0.7956	0.026
Mof_C 	C 	0.0575	0.816	0.7702	-0.049
Mof_H 	H 	0.9959	0.785	0.7818	0.036
Mof_O 	O 	0.65336	0.47468	0.1518	-0.398
Mof_C 	C 	0.5869	0.5509	0.0298	-0.01
Mof_H 	H 	0.6461	0.5859	0.0497	0.046
Mof_C 	C 	0.7685	0.6631	0.2749	0.019
Mof_H 	H 	0.7092	0.6329	0.2956	0.025
Mof_C 	C 	0.816	0.7585	0.2702	-0.047
Mof_H 	H 	0.785	0.7891	0.2818	0.035
Mof_O 	O 	0.52532	0.17868	0.1518	-0.398
Mof_C 	C 	0.4491	0.036	0.0298	-0.01
Mof_H 	H 	0.4141	0.0602	0.0497	0.046
Mof_C 	C 	0.3369	0.1054	0.2749	0.019
Mof_H 	H 	0.3671	0.0763	0.2956	0.025
Mof_C 	C 	0.2415	0.0575	0.2702	-0.047
Mof_H 	H 	0.2109	0.9959	0.2818	0.035
Mof_O 	O 	0.82132	0.34664	0.1518	-0.398
Mof_C 	C 	0.964	0.4131	0.0298	-0.01
Mof_H 	H 	0.9398	0.3539	0.0497	0.046
Mof_C 	C 	0.8946	0.2315	0.2749	0.02
Mof_H 	H 	0.9237	0.2908	0.2956	0.025
Mof_C 	C 	0.9425	0.184	0.2702	-0.045
Mof_H 	H 	0.0041	0.215	0.2818	0.035
Mof_O 	O 	0.52532	0.34664	0.3482	-0.398
Mof_C 	C 	0.4491	0.4131	0.4702	-0.01
Mof_H 	H 	0.4141	0.3539	0.4503	0.046
Mof_C 	C 	0.3369	0.2315	0.2251	0.017
Mof_H 	H 	0.3671	0.2908	0.2044	0.026
Mof_C 	C 	0.2415	0.184	0.2298	-0.048
Mof_H 	H 	0.2109	0.215	0.2182	0.035
Mof_O 	O 	0.82132	0.47468	0.3482	-0.398
Mof_C 	C 	0.964	0.5509	0.4702	-0.01
Mof_H 	H 	0.9398	0.5859	0.4503	0.046
Mof_C 	C 	0.8946	0.6631	0.2251	0.017
Mof_H 	H 	0.9237	0.6329	0.2044	0.026
Mof_C 	C 	0.9425	0.7585	0.2298	-0.048
Mof_H 	H 	0.0041	0.7891	0.2182	0.035
Mof_O 	O 	0.65336	0.17868	0.3482	-0.398
Mof_C 	C 	0.5869	0.036	0.4702	-0.01
Mof_H 	H 	0.6461	0.0602	0.4503	0.046
Mof_C 	C 	0.7685	0.1054	0.2251	0.015
Mof_H 	H 	0.7092	0.0763	0.2044	0.026
Mof_C 	C 	0.816	0.0575	0.2298	-0.049
Mof_H 	H 	0.785	0.9959	0.2182	0.036
Mof_O 	O 	0.47468	0.65336	0.8482	-0.398
Mof_C 	C 	0.5509	0.5869	0.9702	-0.01
Mof_H 	H 	0.5859	0.6461	0.9503	0.046
Mof_C 	C 	0.6631	0.7685	0.7251	0.019
Mof_H 	H 	0.6329	0.7092	0.7044	0.025
Mof_C 	C 	0.7585	0.816	0.7298	-0.047
Mof_H 	H 	0.7891	0.785	0.7182	0.035
Mof_O 	O 	0.17868	0.52532	0.8482	-0.398
Mof_C 	C 	0.036	0.4491	0.9702	-0.01
Mof_H 	H 	0.0602	0.4141	0.9503	0.046
Mof_C 	C 	0.1054	0.3369	0.7251	0.019
Mof_H 	H 	0.0763	0.3671	0.7044	0.025
Mof_C 	C 	0.0575	0.2415	0.7298	-0.047
Mof_H 	H 	0.9959	0.2109	0.7182	0.035
Mof_O 	O 	0.34664	0.82132	0.8482	-0.398
Mof_C 	C 	0.4131	0.964	0.9702	-0.01
Mof_H 	H 	0.3539	0.9398	0.9503	0.046
Mof_C 	C 	0.2315	0.8946	0.7251	0.02
Mof_H 	H 	0.2908	0.9237	0.7044	0.025
Mof_C 	C 	0.184	0.9425	0.7298	-0.045
Mof_H 	H 	0.215	0.0041	0.7182	0.035
Mof_O 	O 	0.65336	0.47468	0.3482	-0.398
Mof_C 	C 	0.5869	0.5509	0.4702	-0.01
Mof_H 	H 	0.6461	0.5859	0.4503	0.046
Mof_C 	C 	0.7685	0.6631	0.2251	0.017
Mof_H 	H 	0.7092	0.6329	0.2044	0.026
Mof_C 	C 	0.816	0.7585	0.2298	-0.048
Mof_H 	H 	0.785	0.7891	0.2182	0.035
Mof_O 	O 	0.52532	0.17868	0.3482	-0.398
Mof_C 	C 	0.4491	0.036	0.4702	-0.01
Mof_H 	H 	0.4141	0.0602	0.4503	0.046
Mof_C 	C 	0.3369	0.1054	0.2251	0.017
Mof_H 	H 	0.3671	0.0763	0.2044	0.026
Mof_C 	C 	0.2415	0.0575	0.2298	-0.048
Mof_H 	H 	0.2109	0.9959	0.2182	0.035
Mof_O 	O 	0.82132	0.34664	0.3482	-0.398
Mof_C 	C 	0.964	0.4131	0.4702	-0.01
Mof_H 	H 	0.9398	0.3539	0.4503	0.046
Mof_C 	C 	0.8946	0.2315	0.2251	0.015
Mof_H 	H 	0.9237	0.2908	0.2044	0.026
Mof_C 	C 	0.9425	0.184	0.2298	-0.049
Mof_H 	H 	0.0041	0.215	0.2182	0.036
Mof_O 	O 	0.34664	0.52532	0.8482	-0.398
Mof_C 	C 	0.4131	0.4491	0.9702	-0.01
Mof_H 	H 	0.3539	0.4141	0.9503	0.046
Mof_C 	C 	0.2315	0.3369	0.7251	0.019
Mof_H 	H 	0.2908	0.3671	0.7044	0.025
Mof_C 	C 	0.184	0.2415	0.7298	-0.047
Mof_H 	H 	0.215	0.2109	0.7182	0.035
Mof_O 	O 	0.47468	0.82132	0.8482	-0.398
Mof_C 	C 	0.5509	0.964	0.9702	-0.01
Mof_H 	H 	0.5859	0.9398	0.9503	0.046
Mof_C 	C 	0.6631	0.8946	0.7251	0.019
Mof_H 	H 	0.6329	0.9237	0.7044	0.025
Mof_C 	C 	0.7585	0.9425	0.7298	-0.047
Mof_H 	H 	0.7891	0.0041	0.7182	0.035
Mof_O 	O 	0.17868	0.65336	0.8482	-0.398
Mof_C 	C 	0.036	0.5869	0.9702	-0.01
Mof_H 	H 	0.0602	0.6461	0.9503	0.046
Mof_C 	C 	0.1054	0.7685	0.7251	0.02
Mof_H 	H 	0.0763	0.7092	0.7044	0.025
Mof_C 	C 	0.0575	0.816	0.7298	-0.045
Mof_H 	H 	0.9959	0.785	0.7182	0.035
Mof_O 	O 	0.47468	0.65336	0.6518	-0.398
Mof_C 	C 	0.5509	0.5869	0.5298	-0.01
Mof_H 	H 	0.5859	0.6461	0.5497	0.046
Mof_C 	C 	0.6631	0.7685	0.7749	0.017
Mof_H 	H 	0.6329	0.7092	0.7956	0.026
Mof_C 	C 	0.7585	0.816	0.7702	-0.048
Mof_H 	H 	0.7891	0.785	0.7818	0.035
Mof_O 	O 	0.17868	0.52532	0.6518	-0.398
Mof_C 	C 	0.036	0.4491	0.5298	-0.01
Mof_H 	H 	0.0602	0.4141	0.5497	0.046
Mof_C 	C 	0.1054	0.3369	0.7749	0.017
Mof_H 	H 	0.0763	0.3671	0.7956	0.026
Mof_C 	C 	0.0575	0.2415	0.7702	-0.048
Mof_H 	H 	0.9959	0.2109	0.7818	0.035
Mof_O 	O 	0.34664	0.82132	0.6518	-0.398
Mof_C 	C 	0.4131	0.964	0.5298	-0.01
Mof_H 	H 	0.3539	0.9398	0.5497	0.046
Mof_C 	C 	0.2315	0.8946	0.7749	0.015
Mof_H 	H 	0.2908	0.9237	0.7956	0.026
Mof_C 	C 	0.184	0.9425	0.7702	-0.049
Mof_H 	H 	0.215	0.0041	0.7818	0.036
Mof_O 	O 	0.52532	0.34664	0.1518	-0.398
Mof_C 	C 	0.4491	0.4131	0.0298	-0.01
Mof_H 	H 	0.4141	0.3539	0.0497	0.046
Mof_C 	C 	0.3369	0.2315	0.2749	0.019
Mof_H 	H 	0.3671	0.2908	0.2956	0.025
Mof_C 	C 	0.2415	0.184	0.2702	-0.047
Mof_H 	H 	0.2109	0.215	0.2818	0.035
Mof_O 	O 	0.82132	0.47468	0.1518	-0.398
Mof_C 	C 	0.964	0.5509	0.0298	-0.01
Mof_H 	H 	0.9398	0.5859	0.0497	0.046
Mof_C 	C 	0.8946	0.6631	0.2749	0.019
Mof_H 	H 	0.9237	0.6329	0.2956	0.025
Mof_C 	C 	0.9425	0.7585	0.2702	-0.047
Mof_H 	H 	0.0041	0.7891	0.2818	0.035
Mof_O 	O 	0.65336	0.17868	0.1518	-0.398
Mof_C 	C 	0.5869	0.036	0.0298	-0.01
Mof_H 	H 	0.6461	0.0602	0.0497	0.046
Mof_C 	C 	0.7685	0.1054	0.2749	0.02
Mof_H 	H 	0.7092	0.0763	0.2956	0.025
Mof_C 	C 	0.816	0.0575	0.2702	-0.045
Mof_H 	H 	0.785	0.9959	0.2818	0.035
Mof_Fe	Fe	0.26445	0.52891	0.75	0.968
Mof_N 	N 	0.192	0.384	0.75	-0.168
Mof_C 	C 	0.09725	0.1945	0.75	0.034
Mof_C 	C 	0.04735	0.0947	0.75	0.04
Mof_Fe	Fe	0.47109	0.73555	0.75	0.968
Mof_N 	N 	0.616	0.808	0.75	-0.168
Mof_C 	C 	0.8055	0.90275	0.75	0.034
Mof_C 	C 	0.9053	0.95265	0.75	0.04
Mof_Fe	Fe	0.26445	0.73555	0.75	0.968
Mof_N 	N 	0.192	0.808	0.75	-0.168
Mof_C 	C 	0.09725	0.90275	0.75	0.034
Mof_C 	C 	0.04735	0.95265	0.75	0.04
Mof_Fe	Fe	0.73555	0.47109	0.25	0.968
Mof_N 	N 	0.808	0.616	0.25	-0.168
Mof_C 	C 	0.90275	0.8055	0.25	0.034
Mof_C 	C 	0.95265	0.9053	0.25	0.04
Mof_Fe	Fe	0.52891	0.26445	0.25	0.968
Mof_N 	N 	0.384	0.192	0.25	-0.168
Mof_C 	C 	0.1945	0.09725	0.25	0.034
Mof_C 	C 	0.0947	0.04735	0.25	0.04
Mof_Fe	Fe	0.73555	0.26445	0.25	0.968
Mof_N 	N 	0.808	0.192	0.25	-0.168
Mof_C 	C 	0.90275	0.09725	0.25	0.034
Mof_C 	C 	0.95265	0.04735	0.25	0.04
Mof_O 	O 	0.33333	0.66667	0.75	-0.439
Mof_O 	O 	0.66667	0.33333	0.25	-0.439
Mof_C 	C 	0.42527	0.57473	0.6262	0.419
Mof_C 	C 	0.4638	0.5362	0.56	-0.098
Mof_C 	C 	0.42527	0.85054	0.6262	0.419
Mof_C 	C 	0.4638	0.9276	0.56	-0.098
Mof_C 	C 	0.14946	0.57473	0.6262	0.419
Mof_C 	C 	0.0724	0.5362	0.56	-0.098
Mof_C 	C 	0.57473	0.42527	0.1262	0.419
Mof_C 	C 	0.5362	0.4638	0.06	-0.098
Mof_C 	C 	0.57473	0.14946	0.1262	0.419
Mof_C 	C 	0.5362	0.0724	0.06	-0.098
Mof_C 	C 	0.85054	0.42527	0.1262	0.419
Mof_C 	C 	0.9276	0.4638	0.06	-0.098
Mof_C 	C 	0.57473	0.42527	0.3738	0.419
Mof_C 	C 	0.5362	0.4638	0.44	-0.098
Mof_C 	C 	0.85054	0.42527	0.3738	0.419
Mof_C 	C 	0.9276	0.4638	0.44	-0.098
Mof_C 	C 	0.57473	0.14946	0.3738	0.419
Mof_C 	C 	0.5362	0.0724	0.44	-0.098
Mof_C 	C 	0.42527	0.57473	0.8738	0.419
Mof_C 	C 	0.4638	0.5362	0.94	-0.098
Mof_C 	C 	0.14946	0.57473	0.8738	0.419
Mof_C 	C 	0.0724	0.5362	0.94	-0.098
Mof_C 	C 	0.42527	0.85054	0.8738	0.419
Mof_C 	C 	0.4638	0.9276	0.94	-0.098
Mof_C 	C 	0.0937	0.04685	0.75	-0.106
Mof_H 	H 	0.1563	0.07815	0.75	0.061
Mof_C 	C 	0.95315	0.04685	0.75	-0.107
Mof_H 	H 	0.92185	0.07815	0.75	0.061
Mof_C 	C 	0.95315	0.9063	0.75	-0.106
Mof_H 	H 	0.92185	0.8437	0.75	0.061
Mof_C 	C 	0.9063	0.95315	0.25	-0.106
Mof_H 	H 	0.8437	0.92185	0.25	0.061
Mof_C 	C 	0.04685	0.95315	0.25	-0.107
Mof_H 	H 	0.07815	0.92185	0.25	0.061
Mof_C 	C 	0.04685	0.0937	0.25	-0.106
Mof_H 	H 	0.07815	0.1563	0.25	0.061
_end
