data_functionalizedCrystal
_audit_creation_method	'EQeq! by Chris Wilmer'
_symmetry_space_group_name_H-M	'P1'
_symmetry_Int_Tables_number	1
_symmetry_cell_setting	triclinic
loop_
_symmetry_equiv_pos_as_xyz
  x,y,z
_cell_length_a	16.8572
_cell_length_b	16.8572
_cell_length_c	11.9275
_cell_angle_alpha	90
_cell_angle_beta	90
_cell_angle_gamma	90
loop_
_atom_site_label
_atom_site_type_symbol
_atom_site_fract_x
_atom_site_fract_y
_atom_site_fract_z
_atom_site_charge
Mof_O 	O 	0.3938	0.5134	0.618	-0.473
Mof_C 	C 	0.2921	0.6136	0.7321	0.008
Mof_H 	H 	0.2681	0.5743	0.6861	0.031
Mof_C 	C 	0.2462	0.6592	0.8038	-0.085
Mof_H 	H 	0.1906	0.6509	0.8078	0.054
Mof_C 	C 	0.3187	0.5917	0.7978	0.027
Mof_H 	H 	0.3116	0.5358	0.797	0.028
Mof_C 	C 	0.2727	0.6388	0.8699	-0.042
Mof_H 	H 	0.2349	0.6147	0.9181	0.058
Mof_H 	H 	0.207	0.8649	0.7464	0.066
Mof_H 	H 	0.1149	0.8743	0.7765	0.069
Mof_H 	H 	0.1494	0.7895	0.741	0.068
Mof_O 	O 	0.6062	0.4866	0.618	-0.474
Mof_C 	C 	0.7079	0.3864	0.7321	0.007
Mof_H 	H 	0.7319	0.4257	0.6861	0.03
Mof_C 	C 	0.7538	0.3408	0.8038	-0.086
Mof_H 	H 	0.8094	0.3491	0.8078	0.053
Mof_C 	C 	0.6813	0.4083	0.7978	0.026
Mof_H 	H 	0.6884	0.4642	0.797	0.027
Mof_C 	C 	0.7273	0.3612	0.8699	-0.043
Mof_H 	H 	0.7651	0.3853	0.9181	0.057
Mof_H 	H 	0.793	0.1351	0.7464	0.065
Mof_H 	H 	0.8851	0.1257	0.7765	0.068
Mof_H 	H 	0.8506	0.2105	0.741	0.067
Mof_O 	O 	0.9866	0.8938	0.118	-0.486
Mof_C 	C 	0.8864	0.7921	0.2321	0.017
Mof_H 	H 	0.9257	0.7681	0.1861	0.018
Mof_C 	C 	0.8408	0.7462	0.3038	-0.092
Mof_H 	H 	0.8491	0.6906	0.3078	0.047
Mof_C 	C 	0.9083	0.8187	0.2978	0.014
Mof_H 	H 	0.9642	0.8116	0.297	0.024
Mof_C 	C 	0.8612	0.7727	0.3699	-0.043
Mof_H 	H 	0.8853	0.7349	0.4181	0.037
Mof_H 	H 	0.6351	0.707	0.2464	0.059
Mof_H 	H 	0.6257	0.6149	0.2765	0.062
Mof_H 	H 	0.7105	0.6494	0.241	0.06
Mof_O 	O 	0.0134	0.1062	0.118	-0.486
Mof_C 	C 	0.1136	0.2079	0.2321	0.017
Mof_H 	H 	0.0743	0.2319	0.1861	0.018
Mof_C 	C 	0.1592	0.2538	0.3038	-0.092
Mof_H 	H 	0.1509	0.3094	0.3078	0.047
Mof_C 	C 	0.0917	0.1813	0.2978	0.014
Mof_H 	H 	0.0358	0.1884	0.297	0.024
Mof_C 	C 	0.1388	0.2273	0.3699	-0.043
Mof_H 	H 	0.1147	0.2651	0.4181	0.037
Mof_H 	H 	0.3649	0.293	0.2464	0.059
Mof_H 	H 	0.3743	0.3851	0.2765	0.062
Mof_H 	H 	0.2895	0.3506	0.241	0.06
Mof_O 	O 	0.1062	0.0134	0.882	-0.447
Mof_C 	C 	0.2079	0.1136	0.7679	0.039
Mof_H 	H 	0.2319	0.0743	0.8139	0.028
Mof_C 	C 	0.2538	0.1592	0.6962	-0.1
Mof_H 	H 	0.3094	0.1509	0.6922	0.059
Mof_C 	C 	0.1813	0.0917	0.7022	0.004
Mof_H 	H 	0.1884	0.0358	0.703	0.029
Mof_C 	C 	0.2273	0.1388	0.6301	-0.061
Mof_H 	H 	0.2651	0.1147	0.5819	0.045
Mof_H 	H 	0.293	0.3649	0.7536	0.074
Mof_H 	H 	0.3851	0.3743	0.7235	0.072
Mof_H 	H 	0.3506	0.2895	0.759	0.071
Mof_O 	O 	0.8938	0.9866	0.882	-0.447
Mof_C 	C 	0.7921	0.8864	0.7679	0.039
Mof_H 	H 	0.7681	0.9257	0.8139	0.028
Mof_C 	C 	0.7462	0.8408	0.6962	-0.1
Mof_H 	H 	0.6906	0.8491	0.6922	0.059
Mof_C 	C 	0.8187	0.9083	0.7022	0.004
Mof_H 	H 	0.8116	0.9642	0.703	0.029
Mof_C 	C 	0.7727	0.8612	0.6301	-0.061
Mof_H 	H 	0.7349	0.8853	0.5819	0.045
Mof_H 	H 	0.707	0.6351	0.7536	0.074
Mof_H 	H 	0.6149	0.6257	0.7235	0.072
Mof_H 	H 	0.6494	0.7105	0.759	0.071
Mof_O 	O 	0.5134	0.3938	0.382	-0.476
Mof_C 	C 	0.6136	0.2921	0.2679	0.046
Mof_H 	H 	0.5743	0.2681	0.3139	0.015
Mof_C 	C 	0.6592	0.2462	0.1962	-0.102
Mof_H 	H 	0.6509	0.1906	0.1922	0.05
Mof_C 	C 	0.5917	0.3187	0.2022	-0.006
Mof_H 	H 	0.5358	0.3116	0.203	0.023
Mof_C 	C 	0.6388	0.2727	0.1301	-0.059
Mof_H 	H 	0.6147	0.2349	0.0819	0.024
Mof_H 	H 	0.8649	0.207	0.2536	0.068
Mof_H 	H 	0.8743	0.1149	0.2235	0.067
Mof_H 	H 	0.7895	0.1494	0.259	0.064
Mof_O 	O 	0.4866	0.6062	0.382	-0.476
Mof_C 	C 	0.3864	0.7079	0.2679	0.046
Mof_H 	H 	0.4257	0.7319	0.3139	0.015
Mof_C 	C 	0.3408	0.7538	0.1962	-0.102
Mof_H 	H 	0.3491	0.8094	0.1922	0.05
Mof_C 	C 	0.4083	0.6813	0.2022	-0.006
Mof_H 	H 	0.4642	0.6884	0.203	0.023
Mof_C 	C 	0.3612	0.7273	0.1301	-0.059
Mof_H 	H 	0.3853	0.7651	0.0819	0.024
Mof_H 	H 	0.1351	0.793	0.2536	0.068
Mof_H 	H 	0.1257	0.8851	0.2235	0.067
Mof_H 	H 	0.2105	0.8506	0.259	0.064
Mof_O 	O 	0.6062	0.4866	0.382	-0.476
Mof_C 	C 	0.7079	0.3864	0.2679	0.046
Mof_H 	H 	0.7319	0.4257	0.3139	0.015
Mof_C 	C 	0.7538	0.3408	0.1962	-0.102
Mof_H 	H 	0.8094	0.3491	0.1922	0.05
Mof_C 	C 	0.6813	0.4083	0.2022	-0.006
Mof_H 	H 	0.6884	0.4642	0.203	0.023
Mof_C 	C 	0.7273	0.3612	0.1301	-0.059
Mof_H 	H 	0.7651	0.3853	0.0819	0.024
Mof_H 	H 	0.793	0.1351	0.2536	0.068
Mof_H 	H 	0.8851	0.1257	0.2235	0.067
Mof_H 	H 	0.8506	0.2105	0.259	0.064
Mof_O 	O 	0.3938	0.5134	0.382	-0.476
Mof_C 	C 	0.2921	0.6136	0.2679	0.046
Mof_H 	H 	0.2681	0.5743	0.3139	0.015
Mof_C 	C 	0.2462	0.6592	0.1962	-0.102
Mof_H 	H 	0.1906	0.6509	0.1922	0.05
Mof_C 	C 	0.3187	0.5917	0.2022	-0.006
Mof_H 	H 	0.3116	0.5358	0.203	0.023
Mof_C 	C 	0.2727	0.6388	0.1301	-0.059
Mof_H 	H 	0.2349	0.6147	0.0819	0.024
Mof_H 	H 	0.207	0.8649	0.2536	0.068
Mof_H 	H 	0.1149	0.8743	0.2235	0.067
Mof_H 	H 	0.1494	0.7895	0.259	0.064
Mof_O 	O 	0.0134	0.1062	0.882	-0.447
Mof_C 	C 	0.1136	0.2079	0.7679	0.039
Mof_H 	H 	0.0743	0.2319	0.8139	0.028
Mof_C 	C 	0.1592	0.2538	0.6962	-0.1
Mof_H 	H 	0.1509	0.3094	0.6922	0.059
Mof_C 	C 	0.0917	0.1813	0.7022	0.004
Mof_H 	H 	0.0358	0.1884	0.703	0.029
Mof_C 	C 	0.1388	0.2273	0.6301	-0.061
Mof_H 	H 	0.1147	0.2651	0.5819	0.045
Mof_H 	H 	0.3649	0.293	0.7536	0.074
Mof_H 	H 	0.3743	0.3851	0.7235	0.072
Mof_H 	H 	0.2895	0.3506	0.759	0.071
Mof_O 	O 	0.9866	0.8938	0.882	-0.447
Mof_C 	C 	0.8864	0.7921	0.7679	0.039
Mof_H 	H 	0.9257	0.7681	0.8139	0.028
Mof_C 	C 	0.8408	0.7462	0.6962	-0.1
Mof_H 	H 	0.8491	0.6906	0.6922	0.059
Mof_C 	C 	0.9083	0.8187	0.7022	0.004
Mof_H 	H 	0.9642	0.8116	0.703	0.029
Mof_C 	C 	0.8612	0.7727	0.6301	-0.061
Mof_H 	H 	0.8853	0.7349	0.5819	0.045
Mof_H 	H 	0.6351	0.707	0.7536	0.074
Mof_H 	H 	0.6257	0.6149	0.7235	0.072
Mof_H 	H 	0.7105	0.6494	0.759	0.071
Mof_O 	O 	0.8938	0.9866	0.118	-0.486
Mof_C 	C 	0.7921	0.8864	0.2321	0.017
Mof_H 	H 	0.7681	0.9257	0.1861	0.018
Mof_C 	C 	0.7462	0.8408	0.3038	-0.092
Mof_H 	H 	0.6906	0.8491	0.3078	0.047
Mof_C 	C 	0.8187	0.9083	0.2978	0.014
Mof_H 	H 	0.8116	0.9642	0.297	0.024
Mof_C 	C 	0.7727	0.8612	0.3699	-0.043
Mof_H 	H 	0.7349	0.8853	0.4181	0.037
Mof_H 	H 	0.707	0.6351	0.2464	0.059
Mof_H 	H 	0.6149	0.6257	0.2765	0.062
Mof_H 	H 	0.6494	0.7105	0.241	0.06
Mof_O 	O 	0.1062	0.0134	0.118	-0.486
Mof_C 	C 	0.2079	0.1136	0.2321	0.017
Mof_H 	H 	0.2319	0.0743	0.1861	0.018
Mof_C 	C 	0.2538	0.1592	0.3038	-0.092
Mof_H 	H 	0.3094	0.1509	0.3078	0.047
Mof_C 	C 	0.1813	0.0917	0.2978	0.014
Mof_H 	H 	0.1884	0.0358	0.297	0.024
Mof_C 	C 	0.2273	0.1388	0.3699	-0.043
Mof_H 	H 	0.2651	0.1147	0.4181	0.037
Mof_H 	H 	0.293	0.3649	0.2464	0.059
Mof_H 	H 	0.3851	0.3743	0.2765	0.062
Mof_H 	H 	0.3506	0.2895	0.241	0.06
Mof_O 	O 	0.4866	0.6062	0.618	-0.474
Mof_C 	C 	0.3864	0.7079	0.7321	0.007
Mof_H 	H 	0.4257	0.7319	0.6861	0.03
Mof_C 	C 	0.3408	0.7538	0.8038	-0.086
Mof_H 	H 	0.3491	0.8094	0.8078	0.053
Mof_C 	C 	0.4083	0.6813	0.7978	0.026
Mof_H 	H 	0.4642	0.6884	0.797	0.027
Mof_C 	C 	0.3612	0.7273	0.8699	-0.043
Mof_H 	H 	0.3853	0.7651	0.9181	0.057
Mof_H 	H 	0.1351	0.793	0.7464	0.065
Mof_H 	H 	0.1257	0.8851	0.7765	0.068
Mof_H 	H 	0.2105	0.8506	0.741	0.067
Mof_O 	O 	0.5134	0.3938	0.618	-0.474
Mof_C 	C 	0.6136	0.2921	0.7321	0.007
Mof_H 	H 	0.5743	0.2681	0.6861	0.03
Mof_C 	C 	0.6592	0.2462	0.8038	-0.086
Mof_H 	H 	0.6509	0.1906	0.8078	0.053
Mof_C 	C 	0.5917	0.3187	0.7978	0.026
Mof_H 	H 	0.5358	0.3116	0.797	0.027
Mof_C 	C 	0.6388	0.2727	0.8699	-0.043
Mof_H 	H 	0.6147	0.2349	0.9181	0.057
Mof_H 	H 	0.8649	0.207	0.7464	0.065
Mof_H 	H 	0.8743	0.1149	0.7765	0.068
Mof_H 	H 	0.7895	0.1494	0.741	0.067
Mof_C 	C 	0.42165	0.57835	0.6499	0.411
Mof_C 	C 	0.37392	0.62608	0.7283	-0.137
Mof_C 	C 	0.28218	0.71782	0.8706	0.075
Mof_C 	C 	0.161	0.839	0.7809	-0.412
Mof_C 	C 	0.17999	0.82001	0.9085	0.178
Mof_C 	C 	0.23313	0.76687	0.9422	-0
Mof_N 	N 	0.23313	0.76687	0.0578	-0.187
Mof_C 	C 	0.57835	0.42165	0.6499	0.411
Mof_C 	C 	0.62608	0.37392	0.7283	-0.137
Mof_C 	C 	0.71782	0.28218	0.8706	0.075
Mof_C 	C 	0.839	0.161	0.7809	-0.412
Mof_C 	C 	0.82001	0.17999	0.9085	0.178
Mof_C 	C 	0.76687	0.23313	0.9422	-0
Mof_N 	N 	0.76687	0.23313	0.0578	-0.187
Mof_C 	C 	0.92165	0.92165	0.1499	0.408
Mof_C 	C 	0.87392	0.87392	0.2283	-0.143
Mof_C 	C 	0.78218	0.78218	0.3706	0.075
Mof_C 	C 	0.661	0.661	0.2809	-0.388
Mof_C 	C 	0.67999	0.67999	0.4085	0.132
Mof_C 	C 	0.73313	0.73313	0.4422	-0.041
Mof_N 	N 	0.73313	0.73313	0.5578	-0.159
Mof_C 	C 	0.07835	0.07835	0.1499	0.408
Mof_C 	C 	0.12608	0.12608	0.2283	-0.143
Mof_C 	C 	0.21782	0.21782	0.3706	0.075
Mof_C 	C 	0.339	0.339	0.2809	-0.388
Mof_C 	C 	0.32001	0.32001	0.4085	0.132
Mof_C 	C 	0.26687	0.26687	0.4422	-0.041
Mof_N 	N 	0.26687	0.26687	0.5578	-0.159
Mof_C 	C 	0.07835	0.07835	0.8501	0.407
Mof_C 	C 	0.12608	0.12608	0.7717	-0.138
Mof_C 	C 	0.21782	0.21782	0.6294	0.134
Mof_C 	C 	0.339	0.339	0.7191	-0.433
Mof_C 	C 	0.32001	0.32001	0.5915	0.19
Mof_C 	C 	0.92165	0.92165	0.8501	0.407
Mof_C 	C 	0.87392	0.87392	0.7717	-0.138
Mof_C 	C 	0.78218	0.78218	0.6294	0.134
Mof_C 	C 	0.661	0.661	0.7191	-0.433
Mof_C 	C 	0.67999	0.67999	0.5915	0.19
Mof_C 	C 	0.57835	0.42165	0.3501	0.411
Mof_C 	C 	0.62608	0.37392	0.2717	-0.147
Mof_C 	C 	0.71782	0.28218	0.1294	0.121
Mof_C 	C 	0.839	0.161	0.2191	-0.422
Mof_C 	C 	0.82001	0.17999	0.0915	0.177
Mof_C 	C 	0.42165	0.57835	0.3501	0.411
Mof_C 	C 	0.37392	0.62608	0.2717	-0.147
Mof_C 	C 	0.28218	0.71782	0.1294	0.121
Mof_C 	C 	0.161	0.839	0.2191	-0.422
Mof_C 	C 	0.17999	0.82001	0.0915	0.177
Mof_Zn	Zn	0.43701	0.43701	0.5	1.218
Mof_Zn	Zn	0.56299	0.56299	0.5	1.218
Mof_Zn	Zn	0.06299	0.93701	-0	1.198
Mof_Zn	Zn	0.93701	0.06299	-0	1.198
Mof_N 	N 	0.147	0.853	-0	-0.328
Mof_N 	N 	0.853	0.147	-0	-0.328
Mof_N 	N 	0.647	0.647	0.5	-0.288
Mof_N 	N 	0.353	0.353	0.5	-0.288
_end
