data_functionalizedCrystal
_audit_creation_method	'EQeq! by Chris Wilmer'
_symmetry_space_group_name_H-M	'P1'
_symmetry_Int_Tables_number	1
_symmetry_cell_setting	triclinic
loop_
_symmetry_equiv_pos_as_xyz
  x,y,z
_cell_length_a	14.892
_cell_length_b	14.892
_cell_length_c	19.1557
_cell_angle_alpha	90
_cell_angle_beta	90
_cell_angle_gamma	90
loop_
_atom_site_label
_atom_site_type_symbol
_atom_site_fract_x
_atom_site_fract_y
_atom_site_fract_z
_atom_site_charge
Mof_O 	O 	0.13298	0.18302	0.31971	-0.453
Mof_O 	O 	0.1198	0.21753	0.20582	-0.455
Mof_C 	C 	0.0954	0.1774	0.26092	0.367
Mof_C 	C 	0.01647	0.1152	0.2555	-0.072
Mof_C 	C 	0.9781	0.0789	0.31551	-0.013
Mof_H 	H 	0.9974	0.0986	0.3602	0.05
Mof_C 	C 	0.9861	0.0882	0.19005	-0.014
Mof_H 	H 	0.0099	0.1153	0.1491	0.048
Mof_C 	C 	0.2003	0.1723	0.4713	0.08
Mof_H 	H 	0.2292	0.1164	0.4547	0.006
Mof_H 	H 	0.1381	0.1738	0.4531	0.008
Mof_C 	C 	0.164	0.232	0.4734	-0.111
Mof_H 	H 	0.1446	0.1713	0.4585	0.018
Mof_H 	H 	0.1204	0.2758	0.4545	0.021
Mof_C 	C 	0.198	0.1731	0.5509	0.079
Mof_H 	H 	0.2244	0.1164	0.5688	-0.007
Mof_H 	H 	0.1355	0.177	0.5672	0.014
Mof_C 	C 	0.263	0.1626	0.5518	-0.113
Mof_H 	H 	0.3199	0.1375	0.5708	0.012
Mof_H 	H 	0.2133	0.1233	0.5667	0.035
Mof_O 	O 	0.36702	0.31698	0.31971	-0.454
Mof_O 	O 	0.3802	0.28247	0.20582	-0.456
Mof_C 	C 	0.4046	0.3226	0.26092	0.366
Mof_C 	C 	0.48353	0.3848	0.2555	-0.073
Mof_C 	C 	0.5219	0.4211	0.31551	-0.015
Mof_H 	H 	0.5026	0.4014	0.3602	0.049
Mof_C 	C 	0.5139	0.4118	0.19005	-0.015
Mof_H 	H 	0.4901	0.3847	0.1491	0.047
Mof_C 	C 	0.2997	0.3277	0.4713	0.079
Mof_H 	H 	0.2708	0.3836	0.4547	0.005
Mof_H 	H 	0.3619	0.3262	0.4531	0.008
Mof_C 	C 	0.336	0.268	0.4734	-0.111
Mof_H 	H 	0.3554	0.3287	0.4585	0.018
Mof_H 	H 	0.3796	0.2242	0.4545	0.021
Mof_C 	C 	0.302	0.3269	0.5509	0.079
Mof_H 	H 	0.2756	0.3836	0.5688	-0.007
Mof_H 	H 	0.3645	0.323	0.5672	0.014
Mof_C 	C 	0.237	0.3374	0.5518	-0.113
Mof_H 	H 	0.1801	0.3625	0.5708	0.012
Mof_H 	H 	0.2867	0.3767	0.5667	0.035
Mof_O 	O 	0.31698	0.13298	0.31971	-0.454
Mof_O 	O 	0.28247	0.1198	0.20582	-0.456
Mof_C 	C 	0.3226	0.0954	0.26092	0.366
Mof_C 	C 	0.3848	0.01647	0.2555	-0.073
Mof_C 	C 	0.4211	0.9781	0.31551	-0.015
Mof_H 	H 	0.4014	0.9974	0.3602	0.049
Mof_C 	C 	0.4118	0.9861	0.19005	-0.014
Mof_H 	H 	0.3847	0.0099	0.1491	0.046
Mof_C 	C 	0.3277	0.2003	0.4713	0.079
Mof_H 	H 	0.3836	0.2292	0.4547	0.005
Mof_H 	H 	0.3262	0.1381	0.4531	0.008
Mof_C 	C 	0.268	0.164	0.4734	-0.111
Mof_H 	H 	0.3287	0.1446	0.4585	0.018
Mof_H 	H 	0.2242	0.1204	0.4545	0.021
Mof_C 	C 	0.3269	0.198	0.5509	0.079
Mof_H 	H 	0.3836	0.2244	0.5688	-0.007
Mof_H 	H 	0.323	0.1355	0.5672	0.014
Mof_C 	C 	0.3374	0.263	0.5518	-0.113
Mof_H 	H 	0.3625	0.3199	0.5708	0.012
Mof_H 	H 	0.3767	0.2133	0.5667	0.035
Mof_O 	O 	0.18302	0.36702	0.31971	-0.454
Mof_O 	O 	0.21753	0.3802	0.20582	-0.456
Mof_C 	C 	0.1774	0.4046	0.26092	0.366
Mof_C 	C 	0.1152	0.48353	0.2555	-0.073
Mof_C 	C 	0.0789	0.5219	0.31551	-0.014
Mof_H 	H 	0.0986	0.5026	0.3602	0.049
Mof_C 	C 	0.0882	0.5139	0.19005	-0.014
Mof_H 	H 	0.1153	0.4901	0.1491	0.046
Mof_C 	C 	0.1723	0.2997	0.4713	0.079
Mof_H 	H 	0.1164	0.2708	0.4547	0.005
Mof_H 	H 	0.1738	0.3619	0.4531	0.008
Mof_C 	C 	0.232	0.336	0.4734	-0.111
Mof_H 	H 	0.1713	0.3554	0.4585	0.018
Mof_H 	H 	0.2758	0.3796	0.4545	0.021
Mof_C 	C 	0.1731	0.302	0.5509	0.079
Mof_H 	H 	0.1164	0.2756	0.5688	-0.007
Mof_H 	H 	0.177	0.3645	0.5672	0.014
Mof_C 	C 	0.1626	0.237	0.5518	-0.113
Mof_H 	H 	0.1375	0.1801	0.5708	0.012
Mof_H 	H 	0.1233	0.2867	0.5667	0.035
Mof_O 	O 	0.86702	0.68302	0.18029	-0.453
Mof_O 	O 	0.8802	0.71753	0.29418	-0.456
Mof_C 	C 	0.9046	0.6774	0.23908	0.366
Mof_C 	C 	0.98353	0.6152	0.2445	-0.072
Mof_C 	C 	0.0219	0.5789	0.18449	-0.015
Mof_H 	H 	0.0026	0.5986	0.1398	0.049
Mof_C 	C 	0.0139	0.5882	0.30995	-0.015
Mof_H 	H 	0.9901	0.6153	0.3509	0.047
Mof_C 	C 	0.7997	0.6723	0.0287	0.08
Mof_H 	H 	0.7708	0.6164	0.0453	0.005
Mof_H 	H 	0.8619	0.6738	0.0469	0.008
Mof_C 	C 	0.836	0.732	0.0266	-0.111
Mof_H 	H 	0.8554	0.6713	0.0415	0.018
Mof_H 	H 	0.8796	0.7758	0.0455	0.021
Mof_C 	C 	0.802	0.6731	0.9491	0.079
Mof_H 	H 	0.7756	0.6164	0.9312	-0.007
Mof_H 	H 	0.8645	0.677	0.9328	0.014
Mof_C 	C 	0.737	0.6626	0.9482	-0.113
Mof_H 	H 	0.6801	0.6375	0.9292	0.012
Mof_H 	H 	0.7867	0.6233	0.9333	0.035
Mof_O 	O 	0.63298	0.81698	0.18029	-0.454
Mof_O 	O 	0.6198	0.78247	0.29418	-0.456
Mof_C 	C 	0.5954	0.8226	0.23908	0.366
Mof_C 	C 	0.51647	0.8848	0.2445	-0.073
Mof_C 	C 	0.4781	0.9211	0.18449	-0.015
Mof_H 	H 	0.4974	0.9014	0.1398	0.049
Mof_C 	C 	0.4861	0.9118	0.30995	-0.015
Mof_H 	H 	0.5099	0.8847	0.3509	0.047
Mof_C 	C 	0.7003	0.8277	0.0287	0.08
Mof_H 	H 	0.7292	0.8836	0.0453	0.005
Mof_H 	H 	0.6381	0.8262	0.0469	0.008
Mof_C 	C 	0.664	0.768	0.0266	-0.111
Mof_H 	H 	0.6446	0.8287	0.0415	0.018
Mof_H 	H 	0.6204	0.7242	0.0455	0.021
Mof_C 	C 	0.698	0.8269	0.9491	0.079
Mof_H 	H 	0.7244	0.8836	0.9312	-0.007
Mof_H 	H 	0.6355	0.823	0.9328	0.014
Mof_C 	C 	0.763	0.8374	0.9482	-0.113
Mof_H 	H 	0.8199	0.8625	0.9292	0.012
Mof_H 	H 	0.7133	0.8767	0.9333	0.035
Mof_O 	O 	0.68302	0.63298	0.18029	-0.454
Mof_O 	O 	0.71753	0.6198	0.29418	-0.456
Mof_C 	C 	0.6774	0.5954	0.23908	0.366
Mof_C 	C 	0.6152	0.51647	0.2445	-0.073
Mof_C 	C 	0.5789	0.4781	0.18449	-0.015
Mof_H 	H 	0.5986	0.4974	0.1398	0.049
Mof_C 	C 	0.5882	0.4861	0.30995	-0.015
Mof_H 	H 	0.6153	0.5099	0.3509	0.047
Mof_C 	C 	0.6723	0.7003	0.0287	0.08
Mof_H 	H 	0.6164	0.7292	0.0453	0.005
Mof_H 	H 	0.6738	0.6381	0.0469	0.008
Mof_C 	C 	0.732	0.664	0.0266	-0.111
Mof_H 	H 	0.6713	0.6446	0.0415	0.018
Mof_H 	H 	0.7758	0.6204	0.0455	0.021
Mof_C 	C 	0.6731	0.698	0.9491	0.079
Mof_H 	H 	0.6164	0.7244	0.9312	-0.007
Mof_H 	H 	0.677	0.6355	0.9328	0.014
Mof_C 	C 	0.6626	0.763	0.9482	-0.113
Mof_H 	H 	0.6375	0.8199	0.9292	0.012
Mof_H 	H 	0.6233	0.7133	0.9333	0.035
Mof_O 	O 	0.81698	0.86702	0.18029	-0.453
Mof_O 	O 	0.78247	0.8802	0.29418	-0.456
Mof_C 	C 	0.8226	0.9046	0.23908	0.366
Mof_C 	C 	0.8848	0.98353	0.2445	-0.071
Mof_C 	C 	0.9211	0.0219	0.18449	-0.016
Mof_H 	H 	0.9014	0.0026	0.1398	0.049
Mof_C 	C 	0.9118	0.0139	0.30995	-0.016
Mof_H 	H 	0.8847	0.9901	0.3509	0.047
Mof_C 	C 	0.8277	0.7997	0.0287	0.08
Mof_H 	H 	0.8836	0.7708	0.0453	0.005
Mof_H 	H 	0.8262	0.8619	0.0469	0.008
Mof_C 	C 	0.768	0.836	0.0266	-0.111
Mof_H 	H 	0.8287	0.8554	0.0415	0.018
Mof_H 	H 	0.7242	0.8796	0.0455	0.021
Mof_C 	C 	0.8269	0.802	0.9491	0.079
Mof_H 	H 	0.8836	0.7756	0.9312	-0.007
Mof_H 	H 	0.823	0.8645	0.9328	0.014
Mof_C 	C 	0.8374	0.737	0.9482	-0.113
Mof_H 	H 	0.8625	0.6801	0.9292	0.012
Mof_H 	H 	0.8767	0.7867	0.9333	0.035
Mof_O 	O 	0.86702	0.81698	0.68029	-0.454
Mof_O 	O 	0.8802	0.78247	0.79418	-0.456
Mof_C 	C 	0.9046	0.8226	0.73908	0.366
Mof_C 	C 	0.98353	0.8848	0.7445	-0.073
Mof_C 	C 	0.0219	0.9211	0.68449	-0.014
Mof_H 	H 	0.0026	0.9014	0.6398	0.049
Mof_C 	C 	0.0139	0.9118	0.80995	-0.015
Mof_H 	H 	0.9901	0.8847	0.8509	0.047
Mof_C 	C 	0.7997	0.8277	0.5287	0.079
Mof_H 	H 	0.7708	0.8836	0.5453	0.005
Mof_H 	H 	0.8619	0.8262	0.5469	0.008
Mof_C 	C 	0.836	0.768	0.5266	-0.111
Mof_H 	H 	0.8554	0.8287	0.5415	0.018
Mof_H 	H 	0.8796	0.7242	0.5455	0.021
Mof_C 	C 	0.802	0.8269	0.4491	0.079
Mof_H 	H 	0.7756	0.8836	0.4312	-0.007
Mof_H 	H 	0.8645	0.823	0.4328	0.014
Mof_C 	C 	0.737	0.8374	0.4482	-0.113
Mof_H 	H 	0.6801	0.8625	0.4292	0.012
Mof_H 	H 	0.7867	0.8767	0.4333	0.035
Mof_O 	O 	0.63298	0.68302	0.68029	-0.454
Mof_O 	O 	0.6198	0.71753	0.79418	-0.456
Mof_C 	C 	0.5954	0.6774	0.73908	0.366
Mof_C 	C 	0.51647	0.6152	0.7445	-0.073
Mof_C 	C 	0.4781	0.5789	0.68449	-0.015
Mof_H 	H 	0.4974	0.5986	0.6398	0.049
Mof_C 	C 	0.4861	0.5882	0.80995	-0.015
Mof_H 	H 	0.5099	0.6153	0.8509	0.047
Mof_C 	C 	0.7003	0.6723	0.5287	0.079
Mof_H 	H 	0.7292	0.6164	0.5453	0.005
Mof_H 	H 	0.6381	0.6738	0.5469	0.008
Mof_C 	C 	0.664	0.732	0.5266	-0.111
Mof_H 	H 	0.6446	0.6713	0.5415	0.018
Mof_H 	H 	0.6204	0.7758	0.5455	0.021
Mof_C 	C 	0.698	0.6731	0.4491	0.079
Mof_H 	H 	0.7244	0.6164	0.4312	-0.007
Mof_H 	H 	0.6355	0.677	0.4328	0.014
Mof_C 	C 	0.763	0.6626	0.4482	-0.113
Mof_H 	H 	0.8199	0.6375	0.4292	0.012
Mof_H 	H 	0.7133	0.6233	0.4333	0.035
Mof_O 	O 	0.68302	0.86702	0.68029	-0.454
Mof_O 	O 	0.71753	0.8802	0.79418	-0.456
Mof_C 	C 	0.6774	0.9046	0.73908	0.366
Mof_C 	C 	0.6152	0.98353	0.7445	-0.073
Mof_C 	C 	0.5789	0.0219	0.68449	-0.015
Mof_H 	H 	0.5986	0.0026	0.6398	0.049
Mof_C 	C 	0.5882	0.0139	0.80995	-0.014
Mof_H 	H 	0.6153	0.9901	0.8509	0.046
Mof_C 	C 	0.6723	0.7997	0.5287	0.079
Mof_H 	H 	0.6164	0.7708	0.5453	0.005
Mof_H 	H 	0.6738	0.8619	0.5469	0.008
Mof_C 	C 	0.732	0.836	0.5266	-0.111
Mof_H 	H 	0.6713	0.8554	0.5415	0.018
Mof_H 	H 	0.7758	0.8796	0.5455	0.021
Mof_C 	C 	0.6731	0.802	0.4491	0.079
Mof_H 	H 	0.6164	0.7756	0.4312	-0.007
Mof_H 	H 	0.677	0.8645	0.4328	0.014
Mof_C 	C 	0.6626	0.737	0.4482	-0.113
Mof_H 	H 	0.6375	0.6801	0.4292	0.012
Mof_H 	H 	0.6233	0.7867	0.4333	0.035
Mof_O 	O 	0.81698	0.63298	0.68029	-0.454
Mof_O 	O 	0.78247	0.6198	0.79418	-0.456
Mof_C 	C 	0.8226	0.5954	0.73908	0.366
Mof_C 	C 	0.8848	0.51647	0.7445	-0.073
Mof_C 	C 	0.9211	0.4781	0.68449	-0.014
Mof_H 	H 	0.9014	0.4974	0.6398	0.049
Mof_C 	C 	0.9118	0.4861	0.80995	-0.014
Mof_H 	H 	0.8847	0.5099	0.8509	0.046
Mof_C 	C 	0.8277	0.7003	0.5287	0.079
Mof_H 	H 	0.8836	0.7292	0.5453	0.005
Mof_H 	H 	0.8262	0.6381	0.5469	0.008
Mof_C 	C 	0.768	0.664	0.5266	-0.111
Mof_H 	H 	0.8287	0.6446	0.5415	0.018
Mof_H 	H 	0.7242	0.6204	0.5455	0.021
Mof_C 	C 	0.8269	0.698	0.4491	0.079
Mof_H 	H 	0.8836	0.7244	0.4312	-0.007
Mof_H 	H 	0.823	0.6355	0.4328	0.014
Mof_C 	C 	0.8374	0.763	0.4482	-0.113
Mof_H 	H 	0.8625	0.8199	0.4292	0.012
Mof_H 	H 	0.8767	0.7133	0.4333	0.035
Mof_O 	O 	0.13298	0.31698	0.81971	-0.453
Mof_O 	O 	0.1198	0.28247	0.70582	-0.456
Mof_C 	C 	0.0954	0.3226	0.76092	0.366
Mof_C 	C 	0.01647	0.3848	0.7555	-0.072
Mof_C 	C 	0.9781	0.4211	0.81551	-0.015
Mof_H 	H 	0.9974	0.4014	0.8602	0.049
Mof_C 	C 	0.9861	0.4118	0.69005	-0.015
Mof_H 	H 	0.0099	0.3847	0.6491	0.047
Mof_C 	C 	0.2003	0.3277	0.9713	0.08
Mof_H 	H 	0.2292	0.3836	0.9547	0.005
Mof_H 	H 	0.1381	0.3262	0.9531	0.008
Mof_C 	C 	0.164	0.268	0.9734	-0.111
Mof_H 	H 	0.1446	0.3287	0.9585	0.018
Mof_H 	H 	0.1204	0.2242	0.9545	0.021
Mof_C 	C 	0.198	0.3269	0.0509	0.079
Mof_H 	H 	0.2244	0.3836	0.0688	-0.007
Mof_H 	H 	0.1355	0.323	0.0672	0.014
Mof_C 	C 	0.263	0.3374	0.0518	-0.113
Mof_H 	H 	0.3199	0.3625	0.0708	0.012
Mof_H 	H 	0.2133	0.3767	0.0667	0.035
Mof_O 	O 	0.36702	0.18302	0.81971	-0.454
Mof_O 	O 	0.3802	0.21753	0.70582	-0.456
Mof_C 	C 	0.4046	0.1774	0.76092	0.366
Mof_C 	C 	0.48353	0.1152	0.7555	-0.073
Mof_C 	C 	0.5219	0.0789	0.81551	-0.015
Mof_H 	H 	0.5026	0.0986	0.8602	0.049
Mof_C 	C 	0.5139	0.0882	0.69005	-0.015
Mof_H 	H 	0.4901	0.1153	0.6491	0.047
Mof_C 	C 	0.2997	0.1723	0.9713	0.08
Mof_H 	H 	0.2708	0.1164	0.9547	0.005
Mof_H 	H 	0.3619	0.1738	0.9531	0.008
Mof_C 	C 	0.336	0.232	0.9734	-0.111
Mof_H 	H 	0.3554	0.1713	0.9585	0.018
Mof_H 	H 	0.3796	0.2758	0.9545	0.021
Mof_C 	C 	0.302	0.1731	0.0509	0.079
Mof_H 	H 	0.2756	0.1164	0.0688	-0.007
Mof_H 	H 	0.3645	0.177	0.0672	0.014
Mof_C 	C 	0.237	0.1626	0.0518	-0.113
Mof_H 	H 	0.1801	0.1375	0.0708	0.012
Mof_H 	H 	0.2867	0.1233	0.0667	0.035
Mof_O 	O 	0.31698	0.36702	0.81971	-0.454
Mof_O 	O 	0.28247	0.3802	0.70582	-0.456
Mof_C 	C 	0.3226	0.4046	0.76092	0.366
Mof_C 	C 	0.3848	0.48353	0.7555	-0.073
Mof_C 	C 	0.4211	0.5219	0.81551	-0.015
Mof_H 	H 	0.4014	0.5026	0.8602	0.049
Mof_C 	C 	0.4118	0.5139	0.69005	-0.015
Mof_H 	H 	0.3847	0.4901	0.6491	0.047
Mof_C 	C 	0.3277	0.2997	0.9713	0.08
Mof_H 	H 	0.3836	0.2708	0.9547	0.005
Mof_H 	H 	0.3262	0.3619	0.9531	0.008
Mof_C 	C 	0.268	0.336	0.9734	-0.111
Mof_H 	H 	0.3287	0.3554	0.9585	0.018
Mof_H 	H 	0.2242	0.3796	0.9545	0.021
Mof_C 	C 	0.3269	0.302	0.0509	0.079
Mof_H 	H 	0.3836	0.2756	0.0688	-0.007
Mof_H 	H 	0.323	0.3645	0.0672	0.014
Mof_C 	C 	0.3374	0.237	0.0518	-0.113
Mof_H 	H 	0.3625	0.1801	0.0708	0.012
Mof_H 	H 	0.3767	0.2867	0.0667	0.035
Mof_O 	O 	0.18302	0.13298	0.81971	-0.453
Mof_O 	O 	0.21753	0.1198	0.70582	-0.456
Mof_C 	C 	0.1774	0.0954	0.76092	0.366
Mof_C 	C 	0.1152	0.01647	0.7555	-0.071
Mof_C 	C 	0.0789	0.9781	0.81551	-0.016
Mof_H 	H 	0.0986	0.9974	0.8602	0.049
Mof_C 	C 	0.0882	0.9861	0.69005	-0.016
Mof_H 	H 	0.1153	0.0099	0.6491	0.047
Mof_C 	C 	0.1723	0.2003	0.9713	0.08
Mof_H 	H 	0.1164	0.2292	0.9547	0.005
Mof_H 	H 	0.1738	0.1381	0.9531	0.008
Mof_C 	C 	0.232	0.164	0.9734	-0.111
Mof_H 	H 	0.1713	0.1446	0.9585	0.018
Mof_H 	H 	0.2758	0.1204	0.9545	0.021
Mof_C 	C 	0.1731	0.198	0.0509	0.079
Mof_H 	H 	0.1164	0.2244	0.0688	-0.007
Mof_H 	H 	0.177	0.1355	0.0672	0.014
Mof_C 	C 	0.1626	0.263	0.0518	-0.113
Mof_H 	H 	0.1375	0.3199	0.0708	0.012
Mof_H 	H 	0.1233	0.2133	0.0667	0.035
Mof_Zn	Zn	0.25	0.25	0.33862	1.212
Mof_Zn	Zn	0.25	0.25	0.18556	1.211
Mof_N 	N 	0.25	0.25	0.4453	-0.195
Mof_N 	N 	0.25	0.25	0.5789	-0.191
Mof_Zn	Zn	0.75	0.75	0.16138	1.212
Mof_Zn	Zn	0.75	0.75	0.31444	1.211
Mof_N 	N 	0.75	0.75	0.0547	-0.195
Mof_N 	N 	0.75	0.75	0.9211	-0.191
Mof_Zn	Zn	0.75	0.75	0.66138	1.212
Mof_Zn	Zn	0.75	0.75	0.81444	1.211
Mof_N 	N 	0.75	0.75	0.5547	-0.195
Mof_N 	N 	0.75	0.75	0.4211	-0.191
Mof_Zn	Zn	0.25	0.25	0.83862	1.212
Mof_Zn	Zn	0.25	0.25	0.68556	1.211
Mof_N 	N 	0.25	0.25	0.9453	-0.195
Mof_N 	N 	0.25	0.25	0.0789	-0.191
_end
