data_functionalizedCrystal
_audit_creation_method	'EQeq! by Chris Wilmer'
_symmetry_space_group_name_H-M	'P1'
_symmetry_Int_Tables_number	1
_symmetry_cell_setting	triclinic
loop_
_symmetry_equiv_pos_as_xyz
  x,y,z
_cell_length_a	15.1644
_cell_length_b	15.1644
_cell_length_c	19.043
_cell_angle_alpha	90
_cell_angle_beta	90
_cell_angle_gamma	90
loop_
_atom_site_label
_atom_site_type_symbol
_atom_site_fract_x
_atom_site_fract_y
_atom_site_fract_z
_atom_site_charge
Mof_C 	C 	0.2598	0.1759	0.43734	-0.012
Mof_H 	H 	0.2396	0.1532	0.3949	0.041
Mof_O 	O 	0.118	0.0606	0.44161	-0.477
Mof_C 	C 	0.9257	0.058	0.2915	0.117
Mof_C 	C 	0.963	0.0872	0.2899	0.09
Mof_C 	C 	0.012	0.0922	0.2914	0.016
Mof_C 	C 	0.7598	0.6759	0.93734	0.05
Mof_H 	H 	0.7396	0.6532	0.8949	0.049
Mof_O 	O 	0.618	0.5606	0.94161	-0.392
Mof_C 	C 	0.4257	0.558	0.7915	0.011
Mof_C 	C 	0.463	0.5872	0.7899	0.009
Mof_C 	C 	0.512	0.5922	0.7914	-0.001
Mof_C 	C 	0.7402	0.8241	0.43734	-0.022
Mof_H 	H 	0.7604	0.8468	0.3949	0.069
Mof_O 	O 	0.882	0.9394	0.44161	-0.369
Mof_C 	C 	0.0743	0.942	0.2915	-0.05
Mof_C 	C 	0.037	0.9128	0.2899	-0.049
Mof_C 	C 	0.988	0.9078	0.2914	-0.023
Mof_C 	C 	0.2402	0.3241	0.93734	0.022
Mof_H 	H 	0.2604	0.3468	0.8949	0.043
Mof_O 	O 	0.382	0.4394	0.94161	-0.398
Mof_C 	C 	0.5743	0.442	0.7915	0.013
Mof_C 	C 	0.537	0.4128	0.7899	0.006
Mof_C 	C 	0.488	0.4078	0.7914	-0.006
Mof_C 	C 	0.8241	0.2598	0.43734	-0.021
Mof_H 	H 	0.8468	0.2396	0.3949	0.061
Mof_O 	O 	0.9394	0.118	0.44161	-0.408
Mof_C 	C 	0.942	0.9257	0.2915	0.366
Mof_C 	C 	0.9128	0.963	0.2899	-0.171
Mof_C 	C 	0.9078	0.012	0.2914	-0.107
Mof_C 	C 	0.3241	0.7598	0.93734	0.041
Mof_H 	H 	0.3468	0.7396	0.8949	0.047
Mof_O 	O 	0.4394	0.618	0.94161	-0.394
Mof_C 	C 	0.442	0.4257	0.7915	0.011
Mof_C 	C 	0.4128	0.463	0.7899	0.006
Mof_C 	C 	0.4078	0.512	0.7914	-0.006
Mof_C 	C 	0.1759	0.7402	0.43734	-0.015
Mof_H 	H 	0.1532	0.7604	0.3949	0.051
Mof_O 	O 	0.0606	0.882	0.44161	-0.428
Mof_C 	C 	0.058	0.0743	0.2915	-0.335
Mof_C 	C 	0.0872	0.037	0.2899	0.23
Mof_C 	C 	0.0922	0.988	0.2914	0.091
Mof_C 	C 	0.6759	0.2402	0.93734	0.033
Mof_H 	H 	0.6532	0.2604	0.8949	0.044
Mof_O 	O 	0.5606	0.382	0.94161	-0.396
Mof_C 	C 	0.558	0.5743	0.7915	0.013
Mof_C 	C 	0.5872	0.537	0.7899	0.009
Mof_C 	C 	0.5922	0.488	0.7914	-0.002
Mof_C 	C 	0.7402	0.1759	0.06266	-0.013
Mof_H 	H 	0.7604	0.1532	0.1051	0.049
Mof_O 	O 	0.882	0.0606	0.05839	-0.423
Mof_C 	C 	0.0743	0.058	0.2085	-0.334
Mof_C 	C 	0.037	0.0872	0.2101	0.229
Mof_C 	C 	0.988	0.0922	0.2086	0.09
Mof_C 	C 	0.2402	0.6759	0.56266	-0.016
Mof_H 	H 	0.2604	0.6532	0.6051	0.054
Mof_O 	O 	0.382	0.5606	0.55839	-0.442
Mof_C 	C 	0.5743	0.558	0.7085	0.013
Mof_C 	C 	0.537	0.5872	0.7101	0.008
Mof_C 	C 	0.488	0.5922	0.7086	-0.001
Mof_C 	C 	0.2598	0.8241	0.06266	-0.018
Mof_H 	H 	0.2396	0.8468	0.1051	0.059
Mof_O 	O 	0.118	0.9394	0.05839	-0.403
Mof_C 	C 	0.9257	0.942	0.2085	0.364
Mof_C 	C 	0.963	0.9128	0.2101	-0.172
Mof_C 	C 	0.012	0.9078	0.2086	-0.107
Mof_C 	C 	0.7598	0.3241	0.56266	-0.009
Mof_H 	H 	0.7396	0.3468	0.6051	0.057
Mof_O 	O 	0.618	0.4394	0.55839	-0.44
Mof_C 	C 	0.4257	0.442	0.7085	0.011
Mof_C 	C 	0.463	0.4128	0.7101	0.005
Mof_C 	C 	0.512	0.4078	0.7086	-0.006
Mof_C 	C 	0.1759	0.2598	0.06266	-0.011
Mof_H 	H 	0.1532	0.2396	0.1051	0.039
Mof_O 	O 	0.0606	0.118	0.05839	-0.472
Mof_C 	C 	0.058	0.9257	0.2085	0.117
Mof_C 	C 	0.0872	0.963	0.2101	0.088
Mof_C 	C 	0.0922	0.012	0.2086	0.016
Mof_C 	C 	0.6759	0.7598	0.56266	0.001
Mof_H 	H 	0.6532	0.7396	0.6051	0.059
Mof_O 	O 	0.5606	0.618	0.55839	-0.438
Mof_C 	C 	0.558	0.4257	0.7085	0.011
Mof_C 	C 	0.5872	0.463	0.7101	0.008
Mof_C 	C 	0.5922	0.512	0.7086	-0.001
Mof_C 	C 	0.8241	0.7402	0.06266	-0.019
Mof_H 	H 	0.8468	0.7604	0.1051	0.067
Mof_O 	O 	0.9394	0.882	0.05839	-0.364
Mof_C 	C 	0.942	0.0743	0.2085	-0.051
Mof_C 	C 	0.9128	0.037	0.2101	-0.049
Mof_C 	C 	0.9078	0.988	0.2086	-0.023
Mof_C 	C 	0.3241	0.2402	0.56266	-0.027
Mof_H 	H 	0.3468	0.2604	0.6051	0.053
Mof_O 	O 	0.4394	0.382	0.55839	-0.444
Mof_C 	C 	0.442	0.5743	0.7085	0.013
Mof_C 	C 	0.4128	0.537	0.7101	0.005
Mof_C 	C 	0.4078	0.488	0.7086	-0.006
Mof_C 	C 	0.7402	0.8241	0.56266	-0.021
Mof_H 	H 	0.7604	0.8468	0.6051	0.071
Mof_O 	O 	0.882	0.9394	0.55839	-0.368
Mof_C 	C 	0.0743	0.942	0.7085	-0.05
Mof_C 	C 	0.037	0.9128	0.7101	-0.049
Mof_C 	C 	0.988	0.9078	0.7086	-0.022
Mof_C 	C 	0.2402	0.3241	0.06266	-0.025
Mof_H 	H 	0.2604	0.3468	0.1051	0.049
Mof_O 	O 	0.382	0.4394	0.05839	-0.439
Mof_C 	C 	0.5743	0.442	0.2085	0.012
Mof_C 	C 	0.537	0.4128	0.2101	0.004
Mof_C 	C 	0.488	0.4078	0.2086	-0.007
Mof_C 	C 	0.2598	0.1759	0.56266	-0.013
Mof_H 	H 	0.2396	0.1532	0.6051	0.042
Mof_O 	O 	0.118	0.0606	0.55839	-0.477
Mof_C 	C 	0.9257	0.058	0.7085	0.117
Mof_C 	C 	0.963	0.0872	0.7101	0.09
Mof_C 	C 	0.012	0.0922	0.7086	0.017
Mof_C 	C 	0.7598	0.6759	0.06266	0.003
Mof_H 	H 	0.7396	0.6532	0.1051	0.055
Mof_O 	O 	0.618	0.5606	0.05839	-0.433
Mof_C 	C 	0.4257	0.558	0.2085	0.01
Mof_C 	C 	0.463	0.5872	0.2101	0.007
Mof_C 	C 	0.512	0.5922	0.2086	-0.002
Mof_C 	C 	0.1759	0.7402	0.56266	-0.015
Mof_H 	H 	0.1532	0.7604	0.6051	0.052
Mof_O 	O 	0.0606	0.882	0.55839	-0.428
Mof_C 	C 	0.058	0.0743	0.7085	-0.335
Mof_C 	C 	0.0872	0.037	0.7101	0.23
Mof_C 	C 	0.0922	0.988	0.7086	0.092
Mof_C 	C 	0.6759	0.2402	0.06266	-0.014
Mof_H 	H 	0.6532	0.2604	0.1051	0.051
Mof_O 	O 	0.5606	0.382	0.05839	-0.437
Mof_C 	C 	0.558	0.5743	0.2085	0.012
Mof_C 	C 	0.5872	0.537	0.2101	0.007
Mof_C 	C 	0.5922	0.488	0.2086	-0.002
Mof_C 	C 	0.8241	0.2598	0.56266	-0.021
Mof_H 	H 	0.8468	0.2396	0.6051	0.063
Mof_O 	O 	0.9394	0.118	0.55839	-0.408
Mof_C 	C 	0.942	0.9257	0.7085	0.366
Mof_C 	C 	0.9128	0.963	0.7101	-0.171
Mof_C 	C 	0.9078	0.012	0.7086	-0.106
Mof_C 	C 	0.3241	0.7598	0.06266	-0.006
Mof_H 	H 	0.3468	0.7396	0.1051	0.053
Mof_O 	O 	0.4394	0.618	0.05839	-0.435
Mof_C 	C 	0.442	0.4257	0.2085	0.01
Mof_C 	C 	0.4128	0.463	0.2101	0.004
Mof_C 	C 	0.4078	0.512	0.2086	-0.006
Mof_C 	C 	0.2598	0.8241	0.93734	0.028
Mof_H 	H 	0.2396	0.8468	0.8949	0.053
Mof_O 	O 	0.118	0.9394	0.94161	-0.363
Mof_C 	C 	0.9257	0.942	0.7915	0.365
Mof_C 	C 	0.963	0.9128	0.7899	-0.17
Mof_C 	C 	0.012	0.9078	0.7914	-0.105
Mof_C 	C 	0.7598	0.3241	0.43734	-0.009
Mof_H 	H 	0.7396	0.3468	0.3949	0.055
Mof_O 	O 	0.618	0.4394	0.44161	-0.441
Mof_C 	C 	0.4257	0.442	0.2915	0.01
Mof_C 	C 	0.463	0.4128	0.2899	0.005
Mof_C 	C 	0.512	0.4078	0.2914	-0.006
Mof_C 	C 	0.7402	0.1759	0.93734	0.033
Mof_H 	H 	0.7604	0.1532	0.8949	0.042
Mof_O 	O 	0.882	0.0606	0.94161	-0.383
Mof_C 	C 	0.0743	0.058	0.7915	-0.333
Mof_C 	C 	0.037	0.0872	0.7899	0.231
Mof_C 	C 	0.988	0.0922	0.7914	0.092
Mof_C 	C 	0.2402	0.6759	0.43734	-0.017
Mof_H 	H 	0.2604	0.6532	0.3949	0.053
Mof_O 	O 	0.382	0.5606	0.44161	-0.442
Mof_C 	C 	0.5743	0.558	0.2915	0.013
Mof_C 	C 	0.537	0.5872	0.2899	0.008
Mof_C 	C 	0.488	0.5922	0.2914	-0.002
Mof_C 	C 	0.8241	0.7402	0.93734	0.027
Mof_H 	H 	0.8468	0.7604	0.8949	0.061
Mof_O 	O 	0.9394	0.882	0.94161	-0.324
Mof_C 	C 	0.942	0.0743	0.7915	-0.05
Mof_C 	C 	0.9128	0.037	0.7899	-0.048
Mof_C 	C 	0.9078	0.988	0.7914	-0.022
Mof_C 	C 	0.3241	0.2402	0.43734	-0.028
Mof_H 	H 	0.3468	0.2604	0.3949	0.051
Mof_O 	O 	0.4394	0.382	0.44161	-0.444
Mof_C 	C 	0.442	0.5743	0.2915	0.012
Mof_C 	C 	0.4128	0.537	0.2899	0.005
Mof_C 	C 	0.4078	0.488	0.2914	-0.007
Mof_C 	C 	0.1759	0.2598	0.93734	0.035
Mof_H 	H 	0.1532	0.2396	0.8949	0.032
Mof_O 	O 	0.0606	0.118	0.94161	-0.432
Mof_C 	C 	0.058	0.9257	0.7915	0.117
Mof_C 	C 	0.0872	0.963	0.7899	0.09
Mof_C 	C 	0.0922	0.012	0.7914	0.017
Mof_C 	C 	0.6759	0.7598	0.43734	0
Mof_H 	H 	0.6532	0.7396	0.3949	0.057
Mof_O 	O 	0.5606	0.618	0.44161	-0.438
Mof_C 	C 	0.558	0.4257	0.2915	0.01
Mof_C 	C 	0.5872	0.463	0.2899	0.008
Mof_C 	C 	0.5922	0.512	0.2914	-0.002
Mof_Co	Co	2.01476e-33	0	0.42791	1.079
Mof_N 	N 	1.49538e-33	2.88227e-33	0.3176	-0.305
Mof_Co	Co	0.5	0.5	0.92791	1.155
Mof_N 	N 	0.5	0.5	0.8176	-0.198
Mof_Co	Co	-3.8114e-34	-7.20567e-34	0.07209	1.072
Mof_N 	N 	8.58809e-34	0	0.1824	-0.305
Mof_Co	Co	0.5	0.5	0.57209	1.151
Mof_N 	N 	0.5	0.5	0.6824	-0.197
Mof_Co	Co	2.69362e-33	0	0.57209	1.079
Mof_N 	N 	3.213e-33	0	0.6824	-0.306
Mof_Co	Co	0.5	0.5	0.07209	1.143
Mof_N 	N 	0.5	0.5	0.1824	-0.196
Mof_Co	Co	4.36896e-33	0	0.92791	1.083
Mof_N 	N 	3.84957e-33	0	0.8176	-0.307
Mof_Co	Co	0.5	0.5	0.42791	1.151
Mof_N 	N 	0.5	0.5	0.3176	-0.196
Mof_C 	C 	0.1486	0.0832	0.5	0.366
Mof_C 	C 	0.225	0.1447	0.5	-0.094
Mof_C 	C 	0.6486	0.5832	-0	0.323
Mof_C 	C 	0.725	0.6447	-0	-0.119
Mof_C 	C 	0.8514	0.9168	0.5	0.355
Mof_C 	C 	0.775	0.8553	0.5	-0.045
Mof_C 	C 	0.3514	0.4168	-0	0.315
Mof_C 	C 	0.275	0.3553	-0	-0.118
Mof_C 	C 	0.9168	0.1486	0.5	0.357
Mof_C 	C 	0.8553	0.225	0.5	-0.061
Mof_C 	C 	0.4168	0.6486	-0	0.32
Mof_C 	C 	0.3553	0.725	-0	-0.119
Mof_C 	C 	0.0832	0.8514	0.5	0.363
Mof_C 	C 	0.1447	0.775	0.5	-0.075
Mof_C 	C 	0.5832	0.3514	-0	0.318
Mof_C 	C 	0.6447	0.275	-0	-0.118
Mof_C 	C 	0.8514	0.0832	-0	0.314
Mof_C 	C 	0.775	0.1447	-0	-0.118
Mof_C 	C 	0.3514	0.5832	0.5	0.369
Mof_C 	C 	0.275	0.6447	0.5	-0.075
Mof_C 	C 	0.1486	0.9168	-0	0.307
Mof_C 	C 	0.225	0.8553	-0	-0.105
Mof_C 	C 	0.6486	0.4168	0.5	0.371
Mof_C 	C 	0.725	0.3553	0.5	-0.075
Mof_C 	C 	0.0832	0.1486	-0	0.318
Mof_C 	C 	0.1447	0.225	-0	-0.137
Mof_C 	C 	0.5832	0.6486	0.5	0.374
Mof_C 	C 	0.6447	0.725	0.5	-0.075
Mof_C 	C 	0.9168	0.8514	-0	0.305
Mof_C 	C 	0.8553	0.775	-0	-0.09
Mof_C 	C 	0.4168	0.3514	0.5	0.365
Mof_C 	C 	0.3553	0.275	0.5	-0.074
_end
