data_functionalizedCrystal
_audit_creation_method	'EQeq! by Chris Wilmer'
_symmetry_space_group_name_H-M	'P1'
_symmetry_Int_Tables_number	1
_symmetry_cell_setting	triclinic
loop_
_symmetry_equiv_pos_as_xyz
  x,y,z
_cell_length_a	14.6647
_cell_length_b	14.6645
_cell_length_c	14.6645
_cell_angle_alpha	109.471
_cell_angle_beta	109.471
_cell_angle_gamma	109.471
loop_
_atom_site_label
_atom_site_type_symbol
_atom_site_fract_x
_atom_site_fract_y
_atom_site_fract_z
_atom_site_charge
Mof_Zn	Zn	0.75	0.5	0.25	1.178
Mof_Zn	Zn	0.25	0.5	0.75	1.177
Mof_Zn	Zn	0.5	0.75	0.25	1.177
Mof_Zn	Zn	0.75	0.25	0.5	1.177
Mof_Zn	Zn	0.5	0.25	0.75	1.177
Mof_Zn	Zn	0.25	0.75	0.5	1.177
Mof_C 	C 	0.61505	0.2459	0.61505	0.132
Mof_C 	C 	2.34148e-17	0.6794	0.4916	-0.234
Mof_C 	C 	0.78836	0.31899	0.73235	-0.007
Mof_C 	C 	0.53063	0.21164	0.94399	-0.017
Mof_C 	C 	0.63085	0.38495	-0	0.137
Mof_C 	C 	0.1878	0.5084	0.5084	-0.237
Mof_C 	C 	0.5084	0.1878	0.5084	-0.238
Mof_C 	C 	0.7541	0.36915	0.36915	0.132
Mof_C 	C 	0.2459	0.61505	0.61505	0.13
Mof_C 	C 	0.05601	0.58664	0.26765	-0.002
Mof_C 	C 	0.73235	0.31899	0.78836	-0.007
Mof_C 	C 	0.78836	0.73235	0.31899	-0.007
Mof_C 	C 	0.6794	0.4916	-0	-0.232
Mof_C 	C 	0.26765	0.58664	0.05601	0.004
Mof_C 	C 	0.31899	0.78836	0.73235	-0.007
Mof_C 	C 	0.41336	0.46937	0.68101	-0.007
Mof_C 	C 	0.36915	0.36915	0.7541	0.131
Mof_C 	C 	0.6794	4.68296e-17	0.4916	-0.234
Mof_C 	C 	0.31899	0.73235	0.78836	-0.008
Mof_C 	C 	0.38495	0	0.63085	0.133
Mof_C 	C 	0.5084	0.5084	0.1878	-0.238
Mof_C 	C 	0.68101	0.46937	0.41336	-0.006
Mof_C 	C 	0.36915	0.7541	0.36915	0.132
Mof_C 	C 	0.4916	0	0.6794	-0.234
Mof_C 	C 	0.3206	0.8122	0.3206	-0.24
Mof_C 	C 	0.38495	0.63085	-0	0.134
Mof_C 	C 	0.58664	0.05601	0.26765	-0.002
Mof_C 	C 	-0	0.63085	0.38495	0.134
Mof_C 	C 	0.4916	0.6794	-0	-0.221
Mof_C 	C 	0.61505	0.61505	0.2459	0.131
Mof_C 	C 	0.58664	0.26765	0.05601	0.004
Mof_C 	C 	0.3206	0.3206	0.8122	-0.237
Mof_C 	C 	3.51222e-17	0.38495	0.63085	0.133
Mof_C 	C 	0.73235	0.78836	0.31899	-0.007
Mof_C 	C 	0.21164	0.53063	0.94399	-0.018
Mof_C 	C 	0.63085	0	0.38495	0.134
Mof_C 	C 	2.34148e-17	0.4916	0.6794	-0.234
Mof_C 	C 	0.68101	0.41336	0.46937	-0.007
Mof_C 	C 	0.94399	0.21164	0.53063	-0.011
Mof_C 	C 	0.46937	0.68101	0.41336	-0.007
Mof_C 	C 	0.21164	0.94399	0.53063	-0.012
Mof_C 	C 	0.26765	0.05601	0.58664	-0.002
Mof_C 	C 	0.46937	0.41336	0.68101	-0.007
Mof_C 	C 	0.53063	0.94399	0.21164	-0.011
Mof_C 	C 	0.94399	0.53063	0.21164	-0.012
Mof_C 	C 	0.8122	0.3206	0.3206	-0.237
Mof_C 	C 	0.05601	0.26765	0.58664	-0.002
Mof_C 	C 	0.41336	0.68101	0.46937	-0.007
Mof_N 	N 	0.37805	0.6511	0.09251	-0.295
Mof_N 	N 	0.62195	0.71446	0.27305	-0.294
Mof_N 	N 	0.62195	0.27305	0.71446	-0.294
Mof_N 	N 	0.71446	0.27305	0.62195	-0.294
Mof_N 	N 	0.55859	0.90749	0.28554	-0.294
Mof_N 	N 	0.44141	0.72695	0.3489	-0.293
Mof_N 	N 	0.71446	0.62195	0.27305	-0.294
Mof_N 	N 	0.55859	0.28554	0.90749	-0.296
Mof_N 	N 	0.27305	0.71446	0.62195	-0.294
Mof_N 	N 	0.37805	0.09251	0.6511	-0.295
Mof_N 	N 	0.28554	0.55859	0.90749	-0.296
Mof_N 	N 	0.6511	0.37805	0.09251	-0.296
Mof_N 	N 	0.90749	0.55859	0.28554	-0.294
Mof_N 	N 	0.27305	0.62195	0.71446	-0.294
Mof_N 	N 	0.72695	0.44141	0.3489	-0.293
Mof_N 	N 	0.09251	0.6511	0.37805	-0.295
Mof_N 	N 	0.09251	0.37805	0.6511	-0.295
Mof_N 	N 	0.72695	0.3489	0.44141	-0.294
Mof_N 	N 	0.44141	0.3489	0.72695	-0.294
Mof_N 	N 	0.3489	0.72695	0.44141	-0.294
Mof_N 	N 	0.6511	0.09251	0.37805	-0.294
Mof_N 	N 	0.28554	0.90749	0.55859	-0.295
Mof_N 	N 	0.90749	0.28554	0.55859	-0.294
Mof_N 	N 	0.3489	0.44141	0.72695	-0.294
Mof_H 	H 	0.91068	0.65404	0.47321	0.026
Mof_H 	H 	0.05238	0.77433	0.53695	0.043
Mof_H 	H 	0.03694	0.64706	0.54641	0.047
Mof_H 	H 	0.88246	0.35404	0.77885	-0.001
Mof_H 	H 	0.47158	0.11754	0.89639	0.001
Mof_H 	H 	0.21799	0.44985	0.52375	0.037
Mof_H 	H 	0.20699	0.52596	0.44488	0.034
Mof_H 	H 	0.09387	0.46762	0.4748	0.049
Mof_H 	H 	0.47649	0.09416	0.46599	0.051
Mof_H 	H 	0.52308	0.22038	0.45112	0.038
Mof_H 	H 	0.44386	0.20431	0.52631	0.033
Mof_H 	H 	0.10361	0.57519	0.22115	-0.001
Mof_H 	H 	0.77884	0.35404	0.88246	-0.002
Mof_H 	H 	0.88246	0.77885	0.35404	-0.001
Mof_H 	H 	0.64698	0.47397	0.91024	0.023
Mof_H 	H 	0.77432	0.5327	0.04494	0.045
Mof_H 	H 	0.65413	0.54991	0.04483	0.047
Mof_H 	H 	0.22116	0.57519	0.10362	-0
Mof_H 	H 	0.35404	0.88246	0.77885	-0.001
Mof_H 	H 	0.76559	0.07746	0.55255	0.034
Mof_H 	H 	0.68711	0.92199	0.47492	0.031
Mof_H 	H 	0.62272	0.00055	0.5291	0.049
Mof_H 	H 	0.35404	0.77885	0.88246	-0.002
Mof_H 	H 	0.52698	0.44112	0.1961	0.031
Mof_H 	H 	0.46131	0.48155	0.09566	0.05
Mof_H 	H 	0.45514	0.52075	0.22709	0.04
Mof_H 	H 	0.64596	0.52842	0.42481	0
Mof_H 	H 	0.53869	0.02024	0.63435	0.048
Mof_H 	H 	0.47302	0.91414	0.66912	0.027
Mof_H 	H 	0.54486	0.06561	0.77195	0.039
Mof_H 	H 	0.22568	0.75837	0.27062	0.046
Mof_H 	H 	0.35302	0.82699	0.26326	0.029
Mof_H 	H 	0.34587	0.89578	0.3907	0.046
Mof_H 	H 	0.47692	0.6973	0.92804	0.029
Mof_H 	H 	0.52351	0.61767	0.9895	0.041
Mof_H 	H 	0.55614	0.76045	0.08245	0.03
Mof_H 	H 	0.57519	0.22115	0.10362	0
Mof_H 	H 	0.31289	0.23487	0.78781	0.034
Mof_H 	H 	0.23441	0.31187	0.78696	0.034
Mof_H 	H 	0.37728	0.37783	0.90638	0.047
Mof_H 	H 	0.77884	0.88246	0.35404	-0.001
Mof_H 	H 	0.11754	0.47158	0.89639	0.001
Mof_H 	H 	0.9132	0.47292	0.66608	0.027
Mof_H 	H 	0.02359	0.54027	0.63668	0.048
Mof_H 	H 	0.06321	0.54338	0.77266	0.039
Mof_H 	H 	0.64596	0.42481	0.52842	0
Mof_H 	H 	0.52842	0.64596	0.42481	-0
Mof_H 	H 	0.11754	0.89639	0.47158	0
Mof_H 	H 	0.22116	0.10362	0.57519	0
Mof_H 	H 	0.52842	0.42481	0.64596	0
Mof_H 	H 	0.89639	0.47158	0.11754	0.001
Mof_H 	H 	0.79301	0.31897	0.23789	0.033
Mof_H 	H 	0.78201	0.23186	0.30576	0.037
Mof_H 	H 	0.90613	0.37374	0.38093	0.048
Mof_H 	H 	0.10361	0.22115	0.57519	0
Mof_H 	H 	0.42481	0.64596	0.52842	0
Mof_H 	H 	0.42481	0.52842	0.64596	0
Mof_H 	H 	0.57519	0.10362	0.22115	0.001
Mof_H 	H 	0.47158	0.89639	0.11754	0.003
Mof_H 	H 	0.89639	0.11754	0.47158	0.002
_end
