data_functionalizedCrystal
_audit_creation_method	'EQeq! by Chris Wilmer'
_symmetry_space_group_name_H-M	'P1'
_symmetry_Int_Tables_number	1
_symmetry_cell_setting	triclinic
loop_
_symmetry_equiv_pos_as_xyz
  x,y,z
_cell_length_a	25.556
_cell_length_b	25.556
_cell_length_c	22.751
_cell_angle_alpha	90
_cell_angle_beta	90
_cell_angle_gamma	90
loop_
_atom_site_label
_atom_site_type_symbol
_atom_site_fract_x
_atom_site_fract_y
_atom_site_fract_z
_atom_site_charge
Mof_C 	C 	0.3882	0.1313	0.6317	0.369
Mof_C 	C 	0.3777	0.1816	0.6587	-0.115
Mof_C 	C 	0.3236	0.2029	0.6579	0.026
Mof_H 	H 	0.2992	0.1827	0.6378	0.057
Mof_C 	C 	0.3027	0.2519	0.6847	-0.113
Mof_H 	H 	0.2687	0.2643	0.6803	0.079
Mof_C 	C 	0.389	0.2634	0.7188	-0.136
Mof_H 	H 	0.4127	0.2849	0.7382	0.089
Mof_C 	C 	0.4083	0.2147	0.691	0.059
Mof_H 	H 	0.4435	0.2061	0.6957	0.028
Mof_C 	C 	0.2588	0.5918	0.6367	0.046
Mof_H 	H 	0.2232	0.5969	0.6505	0.053
Mof_H 	H 	0.2573	0.5886	0.5943	0.023
Mof_C 	C 	0.2909	0.6424	0.6517	-0.107
Mof_H 	H 	0.2739	0.6736	0.6366	0.067
Mof_H 	H 	0.3262	0.6405	0.6362	0.088
Mof_C 	C 	0.2725	0.6016	0.9294	-0.092
Mof_H 	H 	0.277	0.6012	0.9717	0.067
Mof_H 	H 	0.2358	0.6065	0.9201	0.093
Mof_C 	C 	0.2627	0.5105	0.925	-0.068
Mof_H 	H 	0.265	0.5096	0.9676	0.06
Mof_H 	H 	0.2263	0.5146	0.9139	0.079
Mof_C 	C 	0.3228	0.6822	0.8067	0.124
Mof_C 	C 	0.3152	0.6873	0.7474	0.052
Mof_C 	C 	0.3673	0.8167	0.7053	0.117
Mof_C 	C 	0.3298	0.8462	0.6796	-0.19
Mof_H 	H 	0.2946	0.8382	0.6845	0.104
Mof_C 	C 	0.3451	0.8895	0.6452	0.145
Mof_H 	H 	0.3196	0.9095	0.6266	0.01
Mof_C 	C 	0.3934	0.9018	0.6389	-0.224
Mof_C 	C 	0.433	0.8743	0.6618	0.13
Mof_H 	H 	0.4678	0.8832	0.655	0.02
Mof_C 	C 	0.4193	0.8317	0.696	-0.172
Mof_H 	H 	0.4458	0.8122	0.7136	0.101
Mof_C 	C 	0.4032	0.9477	0.6103	0.377
Mof_C 	C 	0.4915	0.2297	0.5311	0.065
Mof_O 	O 	0.4563	0.0656	0.5407	-0.684
Mof_O 	O 	0.3585	0.1082	0.6031	-0.487
Mof_O 	O 	0.4391	0.1194	0.641	-0.276
Mof_O 	O 	0.4119	0.9913	0.9191	-0.476
Mof_O 	O 	0.4721	0.9464	0.9698	-0.496
Mof_O 	O 	0.3684	0.9808	0.5869	-0.426
Mof_O 	O 	0.4509	0.9657	0.5983	-0.388
Mof_S 	S 	0.5155	0.2801	0.5424	-0.033
Mof_K 	K 	0.2822	0.55128	0.78	-2.153
Mof_C 	C 	0.3422	0.2764	0.7173	0.076
Mof_C 	C 	0.3299	0.3249	0.7528	0.028
Mof_C 	C 	0.3095	0.3661	0.726	-0.141
Mof_H 	H 	0.3069	0.3645	0.6852	0.087
Mof_C 	C 	0.2987	0.4099	0.8138	0.077
Mof_C 	C 	0.3167	0.3706	0.8437	-0.103
Mof_H 	H 	0.3165	0.3697	0.8846	0.073
Mof_C 	C 	0.3364	0.33	0.8099	-0.032
Mof_C 	C 	0.3556	0.2845	0.8482	0.157
Mof_C 	C 	0.3278	0.2367	0.8454	-0.225
Mof_H 	H 	0.2977	0.2333	0.8228	0.119
Mof_C 	C 	0.3474	0.1952	0.8779	0.176
Mof_H 	H 	0.3312	0.1629	0.873	-0.008
Mof_C 	C 	0.3857	0.1973	0.9141	-0.239
Mof_C 	C 	0.4137	0.2434	0.9108	0.193
Mof_H 	H 	0.4445	0.246	0.9324	-0.027
Mof_C 	C 	0.3997	0.2833	0.8795	-0.269
Mof_H 	H 	0.4213	0.3125	0.8789	0.13
Mof_C 	C 	0.4036	0.1505	0.9526	0.471
Mof_C 	C 	0.2698	0.4564	0.6652	-0.006
Mof_H 	H 	0.2528	0.4251	0.6504	0.036
Mof_H 	H 	0.3058	0.456	0.6517	0.064
Mof_C 	C 	0.2421	0.5047	0.6398	-0.044
Mof_H 	H 	0.2397	0.5026	0.5973	0.045
Mof_H 	H 	0.2072	0.5084	0.656	0.073
Mof_C 	C 	0.3062	0.6427	0.9007	0.019
Mof_H 	H 	0.2967	0.6767	0.9165	0.03
Mof_H 	H 	0.3424	0.6362	0.911	0.05
Mof_C 	C 	0.2836	0.4642	0.9005	0.026
Mof_H 	H 	0.3202	0.4619	0.9115	0.05
Mof_H 	H 	0.2658	0.4346	0.9181	0.03
Mof_C 	C 	0.3311	0.7299	0.7152	-0.087
Mof_H 	H 	0.3263	0.7306	0.6747	0.067
Mof_C 	C 	0.3544	0.7716	0.7438	-0.022
Mof_C 	C 	0.3628	0.7727	0.8032	0.009
Mof_C 	C 	0.3491	0.7247	0.8362	-0.127
Mof_H 	H 	0.3574	0.7219	0.8759	0.082
Mof_C 	C 	0.3854	0.8165	0.8319	0.061
Mof_C 	C 	0.4295	0.8115	0.8692	-0.111
Mof_H 	H 	0.4472	0.7798	0.8722	0.075
Mof_C 	C 	0.4464	0.8564	0.9022	0.04
Mof_H 	H 	0.4748	0.8536	0.9276	0.033
Mof_C 	C 	0.4196	0.9054	0.8962	-0.128
Mof_C 	C 	0.379	0.909	0.8564	0.056
Mof_H 	H 	0.364	0.9414	0.8485	0.037
Mof_C 	C 	0.3601	0.8642	0.8279	-0.119
Mof_H 	H 	0.3297	0.8666	0.8055	0.083
Mof_C 	C 	0.4392	0.9514	0.9315	0.422
Mof_C 	C 	0.2923	0.4099	0.7519	0.102
Mof_N 	N 	0.4832	0.1836	0.5026	-0.284
Mof_O 	O 	0.2801	0.4601	0.8421	-0.09
Mof_O 	O 	0.2939	0.5532	0.9016	-0.054
Mof_O 	O 	0.3018	0.6444	0.8382	-0.112
Mof_O 	O 	0.2907	0.6414	0.722	-0.045
Mof_O 	O 	0.2757	0.5478	0.6579	-0.082
Mof_O 	O 	0.2691	0.4554	0.7269	-0.09
Mof_O 	O 	0.3763	0.1109	0.9434	-0.52
Mof_O 	O 	0.4391	0.1574	0.9872	-0.53
Mof_Zn	Zn	0.46017	0.11686	0.47792	1.214
Mof_Zn	Zn	0.38301	0.05009	0.55712	1.233
Mof_C 	C 	0.2852	0.5504	0.7814	1.504
Mof_C 	C 	0.6118	0.8687	0.6317	0.368
Mof_C 	C 	0.6223	0.8184	0.6587	-0.114
Mof_C 	C 	0.6764	0.7971	0.6579	0.025
Mof_H 	H 	0.7008	0.8173	0.6378	0.057
Mof_C 	C 	0.6973	0.7481	0.6847	-0.113
Mof_H 	H 	0.7313	0.7357	0.6803	0.078
Mof_C 	C 	0.611	0.7366	0.7188	-0.136
Mof_H 	H 	0.5873	0.7151	0.7382	0.088
Mof_C 	C 	0.5917	0.7853	0.691	0.058
Mof_H 	H 	0.5565	0.7939	0.6957	0.028
Mof_C 	C 	0.7412	0.4082	0.6367	0.044
Mof_H 	H 	0.7768	0.4031	0.6505	0.053
Mof_H 	H 	0.7427	0.4114	0.5943	0.023
Mof_C 	C 	0.7091	0.3576	0.6517	-0.106
Mof_H 	H 	0.7261	0.3264	0.6366	0.067
Mof_H 	H 	0.6738	0.3595	0.6362	0.088
Mof_C 	C 	0.7275	0.3984	0.9294	-0.092
Mof_H 	H 	0.723	0.3988	0.9717	0.067
Mof_H 	H 	0.7642	0.3935	0.9201	0.094
Mof_C 	C 	0.7373	0.4895	0.925	-0.068
Mof_H 	H 	0.735	0.4904	0.9676	0.06
Mof_H 	H 	0.7737	0.4854	0.9139	0.079
Mof_C 	C 	0.6772	0.3178	0.8067	0.125
Mof_C 	C 	0.6848	0.3127	0.7474	0.051
Mof_C 	C 	0.6327	0.1833	0.7053	0.123
Mof_C 	C 	0.6702	0.1538	0.6796	-0.199
Mof_H 	H 	0.7054	0.1618	0.6845	0.107
Mof_C 	C 	0.6549	0.1105	0.6452	0.155
Mof_H 	H 	0.6804	0.0905	0.6266	0.002
Mof_C 	C 	0.6066	0.0982	0.6389	-0.238
Mof_C 	C 	0.567	0.1257	0.6618	0.139
Mof_H 	H 	0.5322	0.1168	0.655	0.015
Mof_C 	C 	0.5807	0.1683	0.696	-0.181
Mof_H 	H 	0.5542	0.1878	0.7136	0.103
Mof_C 	C 	0.5968	0.0523	0.6103	0.385
Mof_C 	C 	0.5085	0.7703	0.5311	0.065
Mof_O 	O 	0.5437	0.9344	0.5407	-0.67
Mof_O 	O 	0.6415	0.8918	0.6031	-0.481
Mof_O 	O 	0.5609	0.8806	0.641	-0.271
Mof_O 	O 	0.5881	0.0087	0.9191	-0.504
Mof_O 	O 	0.5279	0.0536	0.9698	-0.511
Mof_O 	O 	0.6316	0.0192	0.5869	-0.451
Mof_O 	O 	0.5491	0.0343	0.5983	-0.407
Mof_S 	S 	0.4845	0.7199	0.5424	-0.033
Mof_K 	K 	0.7178	0.44872	0.78	-2.153
Mof_C 	C 	0.6578	0.7236	0.7173	0.076
Mof_C 	C 	0.6701	0.6751	0.7528	0.028
Mof_C 	C 	0.6905	0.6339	0.726	-0.14
Mof_H 	H 	0.6931	0.6355	0.6852	0.086
Mof_C 	C 	0.7013	0.5901	0.8138	0.077
Mof_C 	C 	0.6833	0.6294	0.8437	-0.103
Mof_H 	H 	0.6835	0.6303	0.8846	0.073
Mof_C 	C 	0.6636	0.67	0.8099	-0.031
Mof_C 	C 	0.6444	0.7155	0.8482	0.156
Mof_C 	C 	0.6722	0.7633	0.8454	-0.223
Mof_H 	H 	0.7023	0.7667	0.8228	0.119
Mof_C 	C 	0.6526	0.8048	0.8779	0.174
Mof_H 	H 	0.6688	0.8371	0.873	-0.006
Mof_C 	C 	0.6143	0.8027	0.9141	-0.236
Mof_C 	C 	0.5863	0.7566	0.9108	0.192
Mof_H 	H 	0.5555	0.754	0.9324	-0.026
Mof_C 	C 	0.6003	0.7167	0.8795	-0.267
Mof_H 	H 	0.5787	0.6875	0.8789	0.13
Mof_C 	C 	0.5964	0.8495	0.9526	0.47
Mof_C 	C 	0.7302	0.5436	0.6652	-0.006
Mof_H 	H 	0.7472	0.5749	0.6504	0.036
Mof_H 	H 	0.6942	0.544	0.6517	0.064
Mof_C 	C 	0.7579	0.4953	0.6398	-0.045
Mof_H 	H 	0.7603	0.4974	0.5973	0.045
Mof_H 	H 	0.7928	0.4916	0.656	0.074
Mof_C 	C 	0.6938	0.3573	0.9007	0.019
Mof_H 	H 	0.7033	0.3233	0.9165	0.03
Mof_H 	H 	0.6576	0.3638	0.911	0.05
Mof_C 	C 	0.7164	0.5358	0.9005	0.026
Mof_H 	H 	0.6798	0.5381	0.9115	0.05
Mof_H 	H 	0.7342	0.5654	0.9181	0.03
Mof_C 	C 	0.6689	0.2701	0.7152	-0.086
Mof_H 	H 	0.6737	0.2694	0.6747	0.067
Mof_C 	C 	0.6456	0.2284	0.7438	-0.024
Mof_C 	C 	0.6372	0.2273	0.8032	0.009
Mof_C 	C 	0.6509	0.2753	0.8362	-0.127
Mof_H 	H 	0.6426	0.2781	0.8759	0.082
Mof_C 	C 	0.6146	0.1835	0.8319	0.063
Mof_C 	C 	0.5705	0.1885	0.8692	-0.115
Mof_H 	H 	0.5528	0.2202	0.8722	0.076
Mof_C 	C 	0.5536	0.1436	0.9022	0.042
Mof_H 	H 	0.5252	0.1464	0.9276	0.031
Mof_C 	C 	0.5804	0.0946	0.8962	-0.137
Mof_C 	C 	0.621	0.091	0.8564	0.06
Mof_H 	H 	0.636	0.0586	0.8485	0.025
Mof_C 	C 	0.6399	0.1358	0.8279	-0.126
Mof_H 	H 	0.6703	0.1334	0.8055	0.083
Mof_C 	C 	0.5608	0.0486	0.9315	0.424
Mof_C 	C 	0.7077	0.5901	0.7519	0.102
Mof_N 	N 	0.5168	0.8164	0.5026	-0.284
Mof_O 	O 	0.7199	0.5399	0.8421	-0.09
Mof_O 	O 	0.7061	0.4468	0.9016	-0.054
Mof_O 	O 	0.6982	0.3556	0.8382	-0.112
Mof_O 	O 	0.7093	0.3586	0.722	-0.045
Mof_O 	O 	0.7243	0.4522	0.6579	-0.081
Mof_O 	O 	0.7309	0.5446	0.7269	-0.089
Mof_O 	O 	0.6237	0.8891	0.9434	-0.514
Mof_O 	O 	0.5609	0.8426	0.9872	-0.53
Mof_Zn	Zn	0.53983	0.88314	0.47792	1.215
Mof_Zn	Zn	0.61699	0.94991	0.55712	1.242
Mof_C 	C 	0.7148	0.4496	0.7814	1.505
Mof_C 	C 	0.3687	0.1118	0.1317	0.37
Mof_C 	C 	0.3184	0.1223	0.1587	-0.118
Mof_C 	C 	0.2971	0.1764	0.1579	0.026
Mof_H 	H 	0.3173	0.2008	0.1378	0.056
Mof_C 	C 	0.2481	0.1973	0.1847	-0.115
Mof_H 	H 	0.2357	0.2313	0.1803	0.078
Mof_C 	C 	0.2366	0.111	0.2188	-0.139
Mof_H 	H 	0.2151	0.0873	0.2382	0.083
Mof_C 	C 	0.2853	0.0917	0.191	0.058
Mof_H 	H 	0.2939	0.0565	0.1957	0.021
Mof_C 	C 	0.9082	0.2412	0.1367	0.044
Mof_H 	H 	0.9031	0.2768	0.1505	0.054
Mof_H 	H 	0.9114	0.2427	0.0943	0.025
Mof_C 	C 	0.8576	0.2091	0.1517	-0.106
Mof_H 	H 	0.8264	0.2261	0.1366	0.067
Mof_H 	H 	0.8595	0.1738	0.1362	0.088
Mof_C 	C 	0.8984	0.2275	0.4294	-0.09
Mof_H 	H 	0.8988	0.223	0.4717	0.067
Mof_H 	H 	0.8935	0.2642	0.4201	0.093
Mof_C 	C 	0.9895	0.2373	0.425	-0.016
Mof_H 	H 	0.9904	0.235	0.4676	0.05
Mof_H 	H 	0.9854	0.2737	0.4139	0.071
Mof_C 	C 	0.8178	0.1772	0.3067	0.124
Mof_C 	C 	0.8127	0.1848	0.2474	0.051
Mof_C 	C 	0.6833	0.1327	0.2053	0.122
Mof_C 	C 	0.6538	0.1702	0.1796	-0.198
Mof_H 	H 	0.6618	0.2054	0.1845	0.107
Mof_C 	C 	0.6105	0.1549	0.1452	0.155
Mof_H 	H 	0.5905	0.1804	0.1266	0.004
Mof_C 	C 	0.5982	0.1066	0.1389	-0.238
Mof_C 	C 	0.6257	0.067	0.1618	0.139
Mof_H 	H 	0.6168	0.0322	0.155	0.008
Mof_C 	C 	0.6683	0.0807	0.196	-0.181
Mof_H 	H 	0.6878	0.0542	0.2136	0.098
Mof_C 	C 	0.5523	0.0968	0.1103	0.383
Mof_C 	C 	0.2703	0.0085	0.0311	0.029
Mof_O 	O 	0.4344	0.0437	0.0407	-0.686
Mof_O 	O 	0.3918	0.1415	0.1031	-0.485
Mof_O 	O 	0.3806	0.0609	0.141	-0.282
Mof_O 	O 	0.5087	0.0881	0.4191	-0.494
Mof_O 	O 	0.5536	0.0279	0.4698	-0.514
Mof_O 	O 	0.5192	0.1316	0.0869	-0.44
Mof_O 	O 	0.5343	0.0491	0.0983	-0.407
Mof_S 	S 	0.2199	0.9845	0.0424	0.008
Mof_K 	K 	0.94872	0.2178	0.28	-2.167
Mof_C 	C 	0.2236	0.1578	0.2173	0.075
Mof_C 	C 	0.1751	0.1701	0.2528	0.027
Mof_C 	C 	0.1339	0.1905	0.226	-0.142
Mof_H 	H 	0.1355	0.1931	0.1852	0.085
Mof_C 	C 	0.0901	0.2013	0.3138	0.071
Mof_C 	C 	0.1294	0.1833	0.3437	-0.1
Mof_H 	H 	0.1303	0.1835	0.3846	0.07
Mof_C 	C 	0.17	0.1636	0.3099	-0.035
Mof_C 	C 	0.2155	0.1444	0.3482	0.157
Mof_C 	C 	0.2633	0.1722	0.3454	-0.226
Mof_H 	H 	0.2667	0.2023	0.3228	0.12
Mof_C 	C 	0.3048	0.1526	0.3779	0.177
Mof_H 	H 	0.3371	0.1688	0.373	-0.008
Mof_C 	C 	0.3027	0.1143	0.4141	-0.242
Mof_C 	C 	0.2566	0.0863	0.4108	0.194
Mof_H 	H 	0.254	0.0555	0.4324	-0.032
Mof_C 	C 	0.2167	0.1003	0.3795	-0.271
Mof_H 	H 	0.1875	0.0787	0.3789	0.125
Mof_C 	C 	0.3495	0.0964	0.4526	0.471
Mof_C 	C 	0.0436	0.2302	0.1652	-0.038
Mof_H 	H 	0.0749	0.2472	0.1504	0.042
Mof_H 	H 	0.044	0.1942	0.1517	0.065
Mof_C 	C 	0.9953	0.2579	0.1398	-0.014
Mof_H 	H 	0.9974	0.2603	0.0973	0.043
Mof_H 	H 	0.9916	0.2928	0.156	0.072
Mof_C 	C 	0.8573	0.1938	0.4007	0.02
Mof_H 	H 	0.8233	0.2033	0.4165	0.029
Mof_H 	H 	0.8638	0.1576	0.411	0.05
Mof_C 	C 	0.0358	0.2164	0.4005	-0.028
Mof_H 	H 	0.0381	0.1798	0.4115	0.057
Mof_H 	H 	0.0654	0.2342	0.4181	0.042
Mof_C 	C 	0.7701	0.1689	0.2152	-0.086
Mof_H 	H 	0.7694	0.1737	0.1747	0.067
Mof_C 	C 	0.7284	0.1456	0.2438	-0.024
Mof_C 	C 	0.7273	0.1372	0.3032	0.009
Mof_C 	C 	0.7753	0.1509	0.3362	-0.127
Mof_H 	H 	0.7781	0.1426	0.3759	0.081
Mof_C 	C 	0.6835	0.1146	0.3319	0.062
Mof_C 	C 	0.6885	0.0705	0.3692	-0.116
Mof_H 	H 	0.7202	0.0528	0.3722	0.071
Mof_C 	C 	0.6436	0.0536	0.4022	0.041
Mof_H 	H 	0.6464	0.0252	0.4276	0.025
Mof_C 	C 	0.5946	0.0804	0.3962	-0.136
Mof_C 	C 	0.591	0.121	0.3564	0.059
Mof_H 	H 	0.5586	0.136	0.3485	0.03
Mof_C 	C 	0.6358	0.1399	0.3279	-0.124
Mof_H 	H 	0.6334	0.1703	0.3055	0.084
Mof_C 	C 	0.5486	0.0608	0.4315	0.424
Mof_C 	C 	0.0901	0.2077	0.2519	0.1
Mof_N 	N 	0.3164	0.0168	0.0026	-0.284
Mof_O 	O 	0.0399	0.2199	0.3421	-0.086
Mof_O 	O 	0.9468	0.2061	0.4016	-0.058
Mof_O 	O 	0.8556	0.1982	0.3382	-0.111
Mof_O 	O 	0.8586	0.2093	0.222	-0.044
Mof_O 	O 	0.9522	0.2243	0.1579	-0.08
Mof_O 	O 	0.0446	0.2309	0.2269	-0.092
Mof_O 	O 	0.3891	0.1237	0.4434	-0.519
Mof_O 	O 	0.3426	0.0609	0.4872	-0.538
Mof_Zn	Zn	0.38314	0.03983	0.97792	1.21
Mof_Zn	Zn	0.44991	0.11699	0.05712	1.238
Mof_C 	C 	0.9496	0.2148	0.2814	1.524
Mof_C 	C 	0.6313	0.8882	0.1317	0.366
Mof_C 	C 	0.6816	0.8777	0.1587	-0.112
Mof_C 	C 	0.7029	0.8236	0.1579	0.025
Mof_H 	H 	0.6827	0.7992	0.1378	0.057
Mof_C 	C 	0.7519	0.8027	0.1847	-0.113
Mof_H 	H 	0.7643	0.7687	0.1803	0.078
Mof_C 	C 	0.7634	0.889	0.2188	-0.134
Mof_H 	H 	0.7849	0.9127	0.2382	0.092
Mof_C 	C 	0.7147	0.9083	0.191	0.057
Mof_H 	H 	0.7061	0.9435	0.1957	0.034
Mof_C 	C 	0.0918	0.7588	0.1367	0.045
Mof_H 	H 	0.0969	0.7232	0.1505	0.051
Mof_H 	H 	0.0886	0.7573	0.0943	0.022
Mof_C 	C 	0.1424	0.7909	0.1517	-0.107
Mof_H 	H 	0.1736	0.7739	0.1366	0.067
Mof_H 	H 	0.1405	0.8262	0.1362	0.088
Mof_C 	C 	0.1016	0.7725	0.4294	-0.093
Mof_H 	H 	0.1012	0.777	0.4717	0.067
Mof_H 	H 	0.1065	0.7358	0.4201	0.093
Mof_C 	C 	0.0105	0.7627	0.425	-0.12
Mof_H 	H 	0.0096	0.765	0.4676	0.069
Mof_H 	H 	0.0146	0.7263	0.4139	0.086
Mof_C 	C 	0.1822	0.8228	0.3067	0.125
Mof_C 	C 	0.1873	0.8152	0.2474	0.052
Mof_C 	C 	0.3167	0.8673	0.2053	0.118
Mof_C 	C 	0.3462	0.8298	0.1796	-0.191
Mof_H 	H 	0.3382	0.7946	0.1845	0.104
Mof_C 	C 	0.3895	0.8451	0.1452	0.145
Mof_H 	H 	0.4095	0.8196	0.1266	0.008
Mof_C 	C 	0.4018	0.8934	0.1389	-0.224
Mof_C 	C 	0.3743	0.933	0.1618	0.131
Mof_H 	H 	0.3832	0.9678	0.155	0.027
Mof_C 	C 	0.3317	0.9193	0.196	-0.171
Mof_H 	H 	0.3122	0.9458	0.2136	0.105
Mof_C 	C 	0.4477	0.9032	0.1103	0.378
Mof_C 	C 	0.7297	0.9915	0.0311	0.102
Mof_O 	O 	0.5656	0.9563	0.0407	-0.668
Mof_O 	O 	0.6082	0.8585	0.1031	-0.483
Mof_O 	O 	0.6194	0.9391	0.141	-0.266
Mof_O 	O 	0.4913	0.9119	0.4191	-0.486
Mof_O 	O 	0.4464	0.9721	0.4698	-0.494
Mof_O 	O 	0.4808	0.8684	0.0869	-0.437
Mof_O 	O 	0.4657	0.9509	0.0983	-0.388
Mof_S 	S 	0.7801	0.0155	0.0424	-0.073
Mof_K 	K 	0.05128	0.7822	0.28	-2.139
Mof_C 	C 	0.7764	0.8422	0.2173	0.077
Mof_C 	C 	0.8249	0.8299	0.2528	0.028
Mof_C 	C 	0.8661	0.8095	0.226	-0.139
Mof_H 	H 	0.8645	0.8069	0.1852	0.088
Mof_C 	C 	0.9099	0.7987	0.3138	0.083
Mof_C 	C 	0.8706	0.8167	0.3437	-0.105
Mof_H 	H 	0.8697	0.8165	0.3846	0.075
Mof_C 	C 	0.83	0.8364	0.3099	-0.028
Mof_C 	C 	0.7845	0.8556	0.3482	0.156
Mof_C 	C 	0.7367	0.8278	0.3454	-0.222
Mof_H 	H 	0.7333	0.7977	0.3228	0.118
Mof_C 	C 	0.6952	0.8474	0.3779	0.173
Mof_H 	H 	0.6629	0.8312	0.373	-0.006
Mof_C 	C 	0.6973	0.8857	0.4141	-0.234
Mof_C 	C 	0.7434	0.9137	0.4108	0.191
Mof_H 	H 	0.746	0.9445	0.4324	-0.021
Mof_C 	C 	0.7833	0.8997	0.3795	-0.265
Mof_H 	H 	0.8125	0.9213	0.3789	0.135
Mof_C 	C 	0.6505	0.9036	0.4526	0.47
Mof_C 	C 	0.9564	0.7698	0.1652	0.025
Mof_H 	H 	0.9251	0.7528	0.1504	0.03
Mof_H 	H 	0.956	0.8058	0.1517	0.062
Mof_C 	C 	0.0047	0.7421	0.1398	-0.074
Mof_H 	H 	0.0026	0.7397	0.0973	0.048
Mof_H 	H 	0.0084	0.7072	0.156	0.074
Mof_C 	C 	0.1427	0.8062	0.4007	0.019
Mof_H 	H 	0.1767	0.7967	0.4165	0.03
Mof_H 	H 	0.1362	0.8424	0.411	0.051
Mof_C 	C 	0.9642	0.7836	0.4005	0.081
Mof_H 	H 	0.9619	0.8202	0.4115	0.042
Mof_H 	H 	0.9346	0.7658	0.4181	0.017
Mof_C 	C 	0.2299	0.8311	0.2152	-0.086
Mof_H 	H 	0.2306	0.8263	0.1747	0.068
Mof_C 	C 	0.2716	0.8544	0.2438	-0.021
Mof_C 	C 	0.2727	0.8628	0.3032	0.01
Mof_C 	C 	0.2247	0.8491	0.3362	-0.126
Mof_H 	H 	0.2219	0.8574	0.3759	0.083
Mof_C 	C 	0.3165	0.8854	0.3319	0.062
Mof_C 	C 	0.3115	0.9295	0.3692	-0.11
Mof_H 	H 	0.2798	0.9472	0.3722	0.08
Mof_C 	C 	0.3564	0.9464	0.4022	0.041
Mof_H 	H 	0.3536	0.9748	0.4276	0.039
Mof_C 	C 	0.4054	0.9196	0.3962	-0.128
Mof_C 	C 	0.409	0.879	0.3564	0.057
Mof_H 	H 	0.4414	0.864	0.3485	0.032
Mof_C 	C 	0.3642	0.8601	0.3279	-0.121
Mof_H 	H 	0.3666	0.8297	0.3055	0.083
Mof_C 	C 	0.4514	0.9392	0.4315	0.423
Mof_C 	C 	0.9099	0.7923	0.2519	0.104
Mof_N 	N 	0.6836	0.9832	0.0026	-0.283
Mof_O 	O 	0.9601	0.7801	0.3421	-0.094
Mof_O 	O 	0.0532	0.7939	0.4016	-0.05
Mof_O 	O 	0.1444	0.8018	0.3382	-0.112
Mof_O 	O 	0.1414	0.7907	0.222	-0.046
Mof_O 	O 	0.0478	0.7757	0.1579	-0.082
Mof_O 	O 	0.9554	0.7691	0.2269	-0.087
Mof_O 	O 	0.6109	0.8763	0.4434	-0.515
Mof_O 	O 	0.6574	0.9391	0.4872	-0.523
Mof_Zn	Zn	0.61686	0.96017	0.97792	1.219
Mof_Zn	Zn	0.55009	0.88301	0.05712	1.238
Mof_C 	C 	0.0504	0.7852	0.2814	1.485
Mof_Zn	Zn	0.5	0	0.53099	1.229
Mof_Zn	Zn	0.5	0	0.03099	1.229
Mof_C 	C 	0.1313	0.6118	0.3683	0.368
Mof_C 	C 	0.1816	0.6223	0.3413	-0.116
Mof_C 	C 	0.2029	0.6764	0.3421	0.025
Mof_H 	H 	0.1827	0.7008	0.3622	0.056
Mof_C 	C 	0.2519	0.6973	0.3153	-0.114
Mof_H 	H 	0.2643	0.7313	0.3197	0.078
Mof_C 	C 	0.2634	0.611	0.2812	-0.137
Mof_H 	H 	0.2849	0.5873	0.2618	0.088
Mof_C 	C 	0.2147	0.5917	0.309	0.058
Mof_H 	H 	0.2061	0.5565	0.3043	0.027
Mof_C 	C 	0.5918	0.7412	0.3633	0.044
Mof_H 	H 	0.5969	0.7768	0.3495	0.053
Mof_H 	H 	0.5886	0.7427	0.4057	0.023
Mof_C 	C 	0.6424	0.7091	0.3483	-0.106
Mof_H 	H 	0.6736	0.7261	0.3634	0.067
Mof_H 	H 	0.6405	0.6738	0.3638	0.088
Mof_C 	C 	0.6016	0.7275	0.0706	-0.091
Mof_H 	H 	0.6012	0.723	0.0283	0.067
Mof_H 	H 	0.6065	0.7642	0.0799	0.094
Mof_C 	C 	0.5105	0.7373	0.075	-0.068
Mof_H 	H 	0.5096	0.735	0.0324	0.06
Mof_H 	H 	0.5146	0.7737	0.0861	0.079
Mof_C 	C 	0.6822	0.6772	0.1933	0.124
Mof_C 	C 	0.6873	0.6848	0.2526	0.052
Mof_C 	C 	0.8167	0.6327	0.2947	0.117
Mof_C 	C 	0.8462	0.6702	0.3204	-0.19
Mof_H 	H 	0.8382	0.7054	0.3155	0.104
Mof_C 	C 	0.8895	0.6549	0.3548	0.145
Mof_H 	H 	0.9095	0.6804	0.3734	0.01
Mof_C 	C 	0.9018	0.6066	0.3611	-0.224
Mof_C 	C 	0.8743	0.567	0.3382	0.13
Mof_H 	H 	0.8832	0.5322	0.345	0.02
Mof_C 	C 	0.8317	0.5807	0.304	-0.172
Mof_H 	H 	0.8122	0.5542	0.2864	0.101
Mof_C 	C 	0.9477	0.5968	0.3897	0.377
Mof_C 	C 	0.2297	0.5085	0.4689	0.065
Mof_O 	O 	0.0656	0.5437	0.4593	-0.684
Mof_O 	O 	0.1082	0.6415	0.3969	-0.487
Mof_O 	O 	0.1194	0.5609	0.359	-0.276
Mof_O 	O 	0.9913	0.5881	0.0809	-0.476
Mof_O 	O 	0.9464	0.5279	0.0302	-0.496
Mof_O 	O 	0.9808	0.6316	0.4131	-0.426
Mof_O 	O 	0.9657	0.5491	0.4017	-0.388
Mof_S 	S 	0.2801	0.4845	0.4576	-0.033
Mof_K 	K 	0.55128	0.7178	0.22	-2.153
Mof_C 	C 	0.2764	0.6578	0.2827	0.076
Mof_C 	C 	0.3249	0.6701	0.2472	0.028
Mof_C 	C 	0.3661	0.6905	0.274	-0.141
Mof_H 	H 	0.3645	0.6931	0.3148	0.087
Mof_C 	C 	0.4099	0.7013	0.1862	0.077
Mof_C 	C 	0.3706	0.6833	0.1563	-0.103
Mof_H 	H 	0.3697	0.6835	0.1154	0.073
Mof_C 	C 	0.33	0.6636	0.1901	-0.031
Mof_C 	C 	0.2845	0.6444	0.1518	0.157
Mof_C 	C 	0.2367	0.6722	0.1546	-0.225
Mof_H 	H 	0.2333	0.7023	0.1772	0.119
Mof_C 	C 	0.1952	0.6526	0.1221	0.176
Mof_H 	H 	0.1629	0.6688	0.127	-0.008
Mof_C 	C 	0.1973	0.6143	0.0859	-0.239
Mof_C 	C 	0.2434	0.5863	0.0892	0.193
Mof_H 	H 	0.246	0.5555	0.0676	-0.027
Mof_C 	C 	0.2833	0.6003	0.1205	-0.269
Mof_H 	H 	0.3125	0.5787	0.1211	0.13
Mof_C 	C 	0.1505	0.5964	0.0474	0.471
Mof_C 	C 	0.4564	0.7302	0.3348	-0.006
Mof_H 	H 	0.4251	0.7472	0.3496	0.036
Mof_H 	H 	0.456	0.6942	0.3483	0.064
Mof_C 	C 	0.5047	0.7579	0.3602	-0.045
Mof_H 	H 	0.5026	0.7603	0.4027	0.045
Mof_H 	H 	0.5084	0.7928	0.344	0.074
Mof_C 	C 	0.6427	0.6938	0.0993	0.019
Mof_H 	H 	0.6767	0.7033	0.0835	0.03
Mof_H 	H 	0.6362	0.6576	0.089	0.05
Mof_C 	C 	0.4642	0.7164	0.0995	0.026
Mof_H 	H 	0.4619	0.6798	0.0885	0.05
Mof_H 	H 	0.4346	0.7342	0.0819	0.03
Mof_C 	C 	0.7299	0.6689	0.2848	-0.087
Mof_H 	H 	0.7306	0.6737	0.3253	0.067
Mof_C 	C 	0.7716	0.6456	0.2562	-0.022
Mof_C 	C 	0.7727	0.6372	0.1968	0.009
Mof_C 	C 	0.7247	0.6509	0.1638	-0.127
Mof_H 	H 	0.7219	0.6426	0.1241	0.082
Mof_C 	C 	0.8165	0.6146	0.1681	0.061
Mof_C 	C 	0.8115	0.5705	0.1308	-0.111
Mof_H 	H 	0.7798	0.5528	0.1278	0.075
Mof_C 	C 	0.8564	0.5536	0.0978	0.04
Mof_H 	H 	0.8536	0.5252	0.0724	0.033
Mof_C 	C 	0.9054	0.5804	0.1038	-0.128
Mof_C 	C 	0.909	0.621	0.1436	0.056
Mof_H 	H 	0.9414	0.636	0.1515	0.037
Mof_C 	C 	0.8642	0.6399	0.1721	-0.119
Mof_H 	H 	0.8666	0.6703	0.1945	0.083
Mof_C 	C 	0.9514	0.5608	0.0685	0.422
Mof_C 	C 	0.4099	0.7077	0.2481	0.102
Mof_N 	N 	0.1836	0.5168	0.4974	-0.284
Mof_O 	O 	0.4601	0.7199	0.1579	-0.09
Mof_O 	O 	0.5532	0.7061	0.0984	-0.054
Mof_O 	O 	0.6444	0.6982	0.1618	-0.111
Mof_O 	O 	0.6414	0.7093	0.278	-0.045
Mof_O 	O 	0.5478	0.7243	0.3421	-0.081
Mof_O 	O 	0.4554	0.7309	0.2731	-0.089
Mof_O 	O 	0.1109	0.6237	0.0566	-0.52
Mof_O 	O 	0.1574	0.5609	0.0128	-0.53
Mof_Zn	Zn	0.11686	0.53983	0.52208	1.214
Mof_Zn	Zn	0.05009	0.61699	0.44288	1.233
Mof_C 	C 	0.5504	0.7148	0.2186	1.505
Mof_C 	C 	0.8687	0.3882	0.3683	0.368
Mof_C 	C 	0.8184	0.3777	0.3413	-0.114
Mof_C 	C 	0.7971	0.3236	0.3421	0.025
Mof_H 	H 	0.8173	0.2992	0.3622	0.057
Mof_C 	C 	0.7481	0.3027	0.3153	-0.113
Mof_H 	H 	0.7357	0.2687	0.3197	0.078
Mof_C 	C 	0.7366	0.389	0.2812	-0.136
Mof_H 	H 	0.7151	0.4127	0.2618	0.088
Mof_C 	C 	0.7853	0.4083	0.309	0.058
Mof_H 	H 	0.7939	0.4435	0.3043	0.028
Mof_C 	C 	0.4082	0.2588	0.3633	0.045
Mof_H 	H 	0.4031	0.2232	0.3495	0.052
Mof_H 	H 	0.4114	0.2573	0.4057	0.023
Mof_C 	C 	0.3576	0.2909	0.3483	-0.107
Mof_H 	H 	0.3264	0.2739	0.3634	0.067
Mof_H 	H 	0.3595	0.3262	0.3638	0.088
Mof_C 	C 	0.3984	0.2725	0.0706	-0.092
Mof_H 	H 	0.3988	0.277	0.0283	0.067
Mof_H 	H 	0.3935	0.2358	0.0799	0.093
Mof_C 	C 	0.4895	0.2627	0.075	-0.068
Mof_H 	H 	0.4904	0.265	0.0324	0.06
Mof_H 	H 	0.4854	0.2263	0.0861	0.079
Mof_C 	C 	0.3178	0.3228	0.1933	0.125
Mof_C 	C 	0.3127	0.3152	0.2526	0.051
Mof_C 	C 	0.1833	0.3673	0.2947	0.123
Mof_C 	C 	0.1538	0.3298	0.3204	-0.199
Mof_H 	H 	0.1618	0.2946	0.3155	0.107
Mof_C 	C 	0.1105	0.3451	0.3548	0.155
Mof_H 	H 	0.0905	0.3196	0.3734	0.002
Mof_C 	C 	0.0982	0.3934	0.3611	-0.239
Mof_C 	C 	0.1257	0.433	0.3382	0.139
Mof_H 	H 	0.1168	0.4678	0.345	0.015
Mof_C 	C 	0.1683	0.4193	0.304	-0.181
Mof_H 	H 	0.1878	0.4458	0.2864	0.103
Mof_C 	C 	0.0523	0.4032	0.3897	0.385
Mof_C 	C 	0.7703	0.4915	0.4689	0.065
Mof_O 	O 	0.9344	0.4563	0.4593	-0.67
Mof_O 	O 	0.8918	0.3585	0.3969	-0.481
Mof_O 	O 	0.8806	0.4391	0.359	-0.271
Mof_O 	O 	0.0087	0.4119	0.0809	-0.504
Mof_O 	O 	0.0536	0.4721	0.0302	-0.511
Mof_O 	O 	0.0192	0.3684	0.4131	-0.451
Mof_O 	O 	0.0343	0.4509	0.4017	-0.407
Mof_S 	S 	0.7199	0.5155	0.4576	-0.033
Mof_K 	K 	0.44872	0.2822	0.22	-2.153
Mof_C 	C 	0.7236	0.3422	0.2827	0.076
Mof_C 	C 	0.6751	0.3299	0.2472	0.028
Mof_C 	C 	0.6339	0.3095	0.274	-0.14
Mof_H 	H 	0.6355	0.3069	0.3148	0.086
Mof_C 	C 	0.5901	0.2987	0.1862	0.077
Mof_C 	C 	0.6294	0.3167	0.1563	-0.103
Mof_H 	H 	0.6303	0.3165	0.1154	0.073
Mof_C 	C 	0.67	0.3364	0.1901	-0.031
Mof_C 	C 	0.7155	0.3556	0.1518	0.156
Mof_C 	C 	0.7633	0.3278	0.1546	-0.223
Mof_H 	H 	0.7667	0.2977	0.1772	0.119
Mof_C 	C 	0.8048	0.3474	0.1221	0.174
Mof_H 	H 	0.8371	0.3312	0.127	-0.006
Mof_C 	C 	0.8027	0.3857	0.0859	-0.236
Mof_C 	C 	0.7566	0.4137	0.0892	0.192
Mof_H 	H 	0.754	0.4445	0.0676	-0.026
Mof_C 	C 	0.7167	0.3997	0.1205	-0.267
Mof_H 	H 	0.6875	0.4213	0.1211	0.13
Mof_C 	C 	0.8495	0.4036	0.0474	0.47
Mof_C 	C 	0.5436	0.2698	0.3348	-0.006
Mof_H 	H 	0.5749	0.2528	0.3496	0.036
Mof_H 	H 	0.544	0.3058	0.3483	0.064
Mof_C 	C 	0.4953	0.2421	0.3602	-0.044
Mof_H 	H 	0.4974	0.2397	0.4027	0.045
Mof_H 	H 	0.4916	0.2072	0.344	0.073
Mof_C 	C 	0.3573	0.3062	0.0993	0.02
Mof_H 	H 	0.3233	0.2967	0.0835	0.029
Mof_H 	H 	0.3638	0.3424	0.089	0.05
Mof_C 	C 	0.5358	0.2836	0.0995	0.026
Mof_H 	H 	0.5381	0.3202	0.0885	0.05
Mof_H 	H 	0.5654	0.2658	0.0819	0.03
Mof_C 	C 	0.2701	0.3311	0.2848	-0.085
Mof_H 	H 	0.2694	0.3263	0.3253	0.067
Mof_C 	C 	0.2284	0.3544	0.2562	-0.024
Mof_C 	C 	0.2273	0.3628	0.1968	0.009
Mof_C 	C 	0.2753	0.3491	0.1638	-0.127
Mof_H 	H 	0.2781	0.3574	0.1241	0.082
Mof_C 	C 	0.1835	0.3854	0.1681	0.063
Mof_C 	C 	0.1885	0.4295	0.1308	-0.115
Mof_H 	H 	0.2202	0.4472	0.1278	0.076
Mof_C 	C 	0.1436	0.4464	0.0978	0.042
Mof_H 	H 	0.1464	0.4748	0.0724	0.031
Mof_C 	C 	0.0946	0.4196	0.1038	-0.137
Mof_C 	C 	0.091	0.379	0.1436	0.06
Mof_H 	H 	0.0586	0.364	0.1515	0.025
Mof_C 	C 	0.1358	0.3601	0.1721	-0.126
Mof_H 	H 	0.1334	0.3297	0.1945	0.084
Mof_C 	C 	0.0486	0.4392	0.0685	0.424
Mof_C 	C 	0.5901	0.2923	0.2481	0.102
Mof_N 	N 	0.8164	0.4832	0.4974	-0.284
Mof_O 	O 	0.5399	0.2801	0.1579	-0.091
Mof_O 	O 	0.4468	0.2939	0.0984	-0.054
Mof_O 	O 	0.3556	0.3018	0.1618	-0.112
Mof_O 	O 	0.3586	0.2907	0.278	-0.045
Mof_O 	O 	0.4522	0.2757	0.3421	-0.082
Mof_O 	O 	0.5446	0.2691	0.2731	-0.09
Mof_O 	O 	0.8891	0.3763	0.0566	-0.515
Mof_O 	O 	0.8426	0.4391	0.0128	-0.53
Mof_Zn	Zn	0.88314	0.46017	0.52208	1.215
Mof_Zn	Zn	0.94991	0.38301	0.44288	1.242
Mof_C 	C 	0.4496	0.2852	0.2186	1.504
Mof_C 	C 	0.1118	0.6313	0.8683	0.37
Mof_C 	C 	0.1223	0.6816	0.8413	-0.119
Mof_C 	C 	0.1764	0.7029	0.8421	0.026
Mof_H 	H 	0.2008	0.6827	0.8622	0.056
Mof_C 	C 	0.1973	0.7519	0.8153	-0.115
Mof_H 	H 	0.2313	0.7643	0.8197	0.079
Mof_C 	C 	0.111	0.7634	0.7812	-0.14
Mof_H 	H 	0.0873	0.7849	0.7618	0.086
Mof_C 	C 	0.0917	0.7147	0.809	0.059
Mof_H 	H 	0.0565	0.7061	0.8043	0.021
Mof_C 	C 	0.2412	0.0918	0.8633	0.045
Mof_H 	H 	0.2768	0.0969	0.8495	0.051
Mof_H 	H 	0.2427	0.0886	0.9057	0.021
Mof_C 	C 	0.2091	0.1424	0.8483	-0.106
Mof_H 	H 	0.2261	0.1736	0.8634	0.066
Mof_H 	H 	0.1738	0.1405	0.8638	0.085
Mof_C 	C 	0.2275	0.1016	0.5706	-0.095
Mof_H 	H 	0.223	0.1012	0.5283	0.067
Mof_H 	H 	0.2642	0.1065	0.5799	0.094
Mof_C 	C 	0.2373	0.0105	0.575	-0.122
Mof_H 	H 	0.235	0.0096	0.5324	0.068
Mof_H 	H 	0.2737	0.0146	0.5861	0.087
Mof_C 	C 	0.1772	0.1822	0.6933	0.123
Mof_C 	C 	0.1848	0.1873	0.7526	0.05
Mof_C 	C 	0.1327	0.3167	0.7947	0.122
Mof_C 	C 	0.1702	0.3462	0.8204	-0.198
Mof_H 	H 	0.2054	0.3382	0.8155	0.107
Mof_C 	C 	0.1549	0.3895	0.8548	0.154
Mof_H 	H 	0.1804	0.4095	0.8734	0.004
Mof_C 	C 	0.1066	0.4018	0.8611	-0.238
Mof_C 	C 	0.067	0.3743	0.8382	0.138
Mof_H 	H 	0.0322	0.3832	0.845	0.008
Mof_C 	C 	0.0807	0.3317	0.804	-0.181
Mof_H 	H 	0.0542	0.3122	0.7864	0.098
Mof_C 	C 	0.0968	0.4477	0.8897	0.383
Mof_C 	C 	0.0085	0.7297	0.9689	0.027
Mof_O 	O 	0.0437	0.5656	0.9593	-0.686
Mof_O 	O 	0.1415	0.6082	0.8969	-0.485
Mof_O 	O 	0.0609	0.6194	0.859	-0.282
Mof_O 	O 	0.0881	0.4913	0.5809	-0.494
Mof_O 	O 	0.0279	0.4464	0.5302	-0.514
Mof_O 	O 	0.1316	0.4808	0.9131	-0.44
Mof_O 	O 	0.0491	0.4657	0.9017	-0.407
Mof_S 	S 	0.9845	0.7801	0.9576	0.016
Mof_K 	K 	0.2178	0.05128	0.72	-2.135
Mof_C 	C 	0.1578	0.7764	0.7827	0.078
Mof_C 	C 	0.1701	0.8249	0.7472	0.026
Mof_C 	C 	0.1905	0.8661	0.774	-0.14
Mof_H 	H 	0.1931	0.8645	0.8148	0.086
Mof_C 	C 	0.2013	0.9099	0.6862	0.082
Mof_C 	C 	0.1833	0.8706	0.6563	-0.105
Mof_H 	H 	0.1835	0.8697	0.6154	0.074
Mof_C 	C 	0.1636	0.83	0.6901	-0.031
Mof_C 	C 	0.1444	0.7845	0.6518	0.158
Mof_C 	C 	0.1722	0.7367	0.6546	-0.227
Mof_H 	H 	0.2023	0.7333	0.6772	0.12
Mof_C 	C 	0.1526	0.6952	0.6221	0.177
Mof_H 	H 	0.1688	0.6629	0.627	-0.008
Mof_C 	C 	0.1143	0.6973	0.5859	-0.242
Mof_C 	C 	0.0863	0.7434	0.5892	0.195
Mof_H 	H 	0.0555	0.746	0.5676	-0.032
Mof_C 	C 	0.1003	0.7833	0.6205	-0.272
Mof_H 	H 	0.0787	0.8125	0.6211	0.129
Mof_C 	C 	0.0964	0.6505	0.5474	0.471
Mof_C 	C 	0.2302	0.9564	0.8348	0.028
Mof_H 	H 	0.2472	0.9251	0.8496	0.029
Mof_H 	H 	0.1942	0.956	0.8483	0.058
Mof_C 	C 	0.2579	0.0047	0.8602	-0.076
Mof_H 	H 	0.2603	0.0026	0.9027	0.047
Mof_H 	H 	0.2928	0.0084	0.844	0.075
Mof_C 	C 	0.1938	0.1427	0.5993	0.022
Mof_H 	H 	0.2033	0.1767	0.5835	0.028
Mof_H 	H 	0.1576	0.1362	0.589	0.045
Mof_C 	C 	0.2164	0.9642	0.5995	0.084
Mof_H 	H 	0.1798	0.9619	0.5885	0.038
Mof_H 	H 	0.2342	0.9346	0.5819	0.016
Mof_C 	C 	0.1689	0.2299	0.7848	-0.086
Mof_H 	H 	0.1737	0.2306	0.8253	0.066
Mof_C 	C 	0.1456	0.2716	0.7562	-0.025
Mof_C 	C 	0.1372	0.2727	0.6968	0.008
Mof_C 	C 	0.1509	0.2247	0.6638	-0.128
Mof_H 	H 	0.1426	0.2219	0.6241	0.081
Mof_C 	C 	0.1146	0.3165	0.6681	0.061
Mof_C 	C 	0.0705	0.3115	0.6308	-0.116
Mof_H 	H 	0.0528	0.2798	0.6278	0.07
Mof_C 	C 	0.0536	0.3564	0.5978	0.041
Mof_H 	H 	0.0252	0.3536	0.5724	0.025
Mof_C 	C 	0.0804	0.4054	0.6038	-0.136
Mof_C 	C 	0.121	0.409	0.6436	0.059
Mof_H 	H 	0.136	0.4414	0.6515	0.03
Mof_C 	C 	0.1399	0.3642	0.6721	-0.124
Mof_H 	H 	0.1703	0.3666	0.6945	0.084
Mof_C 	C 	0.0608	0.4514	0.5685	0.424
Mof_C 	C 	0.2077	0.9099	0.7481	0.102
Mof_N 	N 	0.0168	0.6836	0.9974	-0.284
Mof_O 	O 	0.2199	0.9601	0.6579	-0.096
Mof_O 	O 	0.2061	0.0532	0.5984	-0.052
Mof_O 	O 	0.1982	0.1444	0.6618	-0.114
Mof_O 	O 	0.2093	0.1414	0.778	-0.047
Mof_O 	O 	0.2243	0.0478	0.8421	-0.084
Mof_O 	O 	0.2309	0.9554	0.7731	-0.088
Mof_O 	O 	0.1237	0.6109	0.5566	-0.519
Mof_O 	O 	0.0609	0.6574	0.5128	-0.538
Mof_Zn	Zn	0.03983	0.61686	0.02208	1.21
Mof_Zn	Zn	0.11699	0.55009	0.94288	1.238
Mof_C 	C 	0.2148	0.0504	0.7186	1.479
Mof_C 	C 	0.8882	0.3687	0.8683	0.366
Mof_C 	C 	0.8777	0.3184	0.8413	-0.112
Mof_C 	C 	0.8236	0.2971	0.8421	0.024
Mof_H 	H 	0.7992	0.3173	0.8622	0.057
Mof_C 	C 	0.8027	0.2481	0.8153	-0.112
Mof_H 	H 	0.7687	0.2357	0.8197	0.078
Mof_C 	C 	0.889	0.2366	0.7812	-0.133
Mof_H 	H 	0.9127	0.2151	0.7618	0.09
Mof_C 	C 	0.9083	0.2853	0.809	0.056
Mof_H 	H 	0.9435	0.2939	0.8043	0.034
Mof_C 	C 	0.7588	0.9082	0.8633	0.044
Mof_H 	H 	0.7232	0.9031	0.8495	0.054
Mof_H 	H 	0.7573	0.9114	0.9057	0.026
Mof_C 	C 	0.7909	0.8576	0.8483	-0.107
Mof_H 	H 	0.7739	0.8264	0.8634	0.068
Mof_H 	H 	0.8262	0.8595	0.8638	0.092
Mof_C 	C 	0.7725	0.8984	0.5706	-0.088
Mof_H 	H 	0.777	0.8988	0.5283	0.067
Mof_H 	H 	0.7358	0.8935	0.5799	0.093
Mof_C 	C 	0.7627	0.9895	0.575	-0.015
Mof_H 	H 	0.765	0.9904	0.5324	0.051
Mof_H 	H 	0.7263	0.9854	0.5861	0.071
Mof_C 	C 	0.8228	0.8178	0.6933	0.126
Mof_C 	C 	0.8152	0.8127	0.7526	0.053
Mof_C 	C 	0.8673	0.6833	0.7947	0.118
Mof_C 	C 	0.8298	0.6538	0.8204	-0.191
Mof_H 	H 	0.7946	0.6618	0.8155	0.105
Mof_C 	C 	0.8451	0.6105	0.8548	0.146
Mof_H 	H 	0.8196	0.5905	0.8734	0.007
Mof_C 	C 	0.8934	0.5982	0.8611	-0.224
Mof_C 	C 	0.933	0.6257	0.8382	0.131
Mof_H 	H 	0.9678	0.6168	0.845	0.027
Mof_C 	C 	0.9193	0.6683	0.804	-0.172
Mof_H 	H 	0.9458	0.6878	0.7864	0.106
Mof_C 	C 	0.9032	0.5523	0.8897	0.378
Mof_C 	C 	0.9915	0.2703	0.9689	0.103
Mof_O 	O 	0.9563	0.4344	0.9593	-0.668
Mof_O 	O 	0.8585	0.3918	0.8969	-0.483
Mof_O 	O 	0.9391	0.3806	0.859	-0.266
Mof_O 	O 	0.9119	0.5087	0.5809	-0.486
Mof_O 	O 	0.9721	0.5536	0.5302	-0.494
Mof_O 	O 	0.8684	0.5192	0.9131	-0.437
Mof_O 	O 	0.9509	0.5343	0.9017	-0.388
Mof_S 	S 	0.0155	0.2199	0.9576	-0.081
Mof_K 	K 	0.7822	0.94872	0.72	-2.171
Mof_C 	C 	0.8422	0.2236	0.7827	0.075
Mof_C 	C 	0.8299	0.1751	0.7472	0.029
Mof_C 	C 	0.8095	0.1339	0.774	-0.141
Mof_H 	H 	0.8069	0.1355	0.8148	0.087
Mof_C 	C 	0.7987	0.0901	0.6862	0.072
Mof_C 	C 	0.8167	0.1294	0.6563	-0.1
Mof_H 	H 	0.8165	0.1303	0.6154	0.071
Mof_C 	C 	0.8364	0.17	0.6901	-0.032
Mof_C 	C 	0.8556	0.2155	0.6518	0.156
Mof_C 	C 	0.8278	0.2633	0.6546	-0.222
Mof_H 	H 	0.7977	0.2667	0.6772	0.118
Mof_C 	C 	0.8474	0.3048	0.6221	0.172
Mof_H 	H 	0.8312	0.3371	0.627	-0.005
Mof_C 	C 	0.8857	0.3027	0.5859	-0.233
Mof_C 	C 	0.9137	0.2566	0.5892	0.19
Mof_H 	H 	0.9445	0.254	0.5676	-0.021
Mof_C 	C 	0.8997	0.2167	0.6205	-0.265
Mof_H 	H 	0.9213	0.1875	0.6211	0.131
Mof_C 	C 	0.9036	0.3495	0.5474	0.47
Mof_C 	C 	0.7698	0.0436	0.8348	-0.04
Mof_H 	H 	0.7528	0.0749	0.8496	0.044
Mof_H 	H 	0.8058	0.044	0.8483	0.07
Mof_C 	C 	0.7421	0.9953	0.8602	-0.013
Mof_H 	H 	0.7397	0.9974	0.9027	0.043
Mof_H 	H 	0.7072	0.9916	0.844	0.072
Mof_C 	C 	0.8062	0.8573	0.5993	0.016
Mof_H 	H 	0.7967	0.8233	0.5835	0.031
Mof_H 	H 	0.8424	0.8638	0.589	0.055
Mof_C 	C 	0.7836	0.0358	0.5995	-0.031
Mof_H 	H 	0.8202	0.0381	0.5885	0.061
Mof_H 	H 	0.7658	0.0654	0.5819	0.044
Mof_C 	C 	0.8311	0.7701	0.7848	-0.086
Mof_H 	H 	0.8263	0.7694	0.8253	0.068
Mof_C 	C 	0.8544	0.7284	0.7562	-0.021
Mof_C 	C 	0.8628	0.7273	0.6968	0.01
Mof_C 	C 	0.8491	0.7753	0.6638	-0.125
Mof_H 	H 	0.8574	0.7781	0.6241	0.084
Mof_C 	C 	0.8854	0.6835	0.6681	0.063
Mof_C 	C 	0.9295	0.6885	0.6308	-0.111
Mof_H 	H 	0.9472	0.7202	0.6278	0.081
Mof_C 	C 	0.9464	0.6436	0.5978	0.041
Mof_H 	H 	0.9748	0.6464	0.5724	0.039
Mof_C 	C 	0.9196	0.5946	0.6038	-0.129
Mof_C 	C 	0.879	0.591	0.6436	0.057
Mof_H 	H 	0.864	0.5586	0.6515	0.032
Mof_C 	C 	0.8601	0.6358	0.6721	-0.121
Mof_H 	H 	0.8297	0.6334	0.6945	0.083
Mof_C 	C 	0.9392	0.5486	0.5685	0.423
Mof_C 	C 	0.7923	0.0901	0.7481	0.101
Mof_N 	N 	0.9832	0.3164	0.9974	-0.283
Mof_O 	O 	0.7801	0.0399	0.6579	-0.085
Mof_O 	O 	0.7939	0.9468	0.5984	-0.056
Mof_O 	O 	0.8018	0.8556	0.6618	-0.109
Mof_O 	O 	0.7907	0.8586	0.778	-0.043
Mof_O 	O 	0.7757	0.9522	0.8421	-0.078
Mof_O 	O 	0.7691	0.0446	0.7731	-0.091
Mof_O 	O 	0.8763	0.3891	0.5566	-0.515
Mof_O 	O 	0.9391	0.3426	0.5128	-0.523
Mof_Zn	Zn	0.96017	0.38314	0.02208	1.218
Mof_Zn	Zn	0.88301	0.44991	0.94288	1.238
Mof_C 	C 	0.7852	0.9496	0.7186	1.53
Mof_Zn	Zn	8.36104e-33	0.5	0.46901	1.229
Mof_Zn	Zn	1.003e-32	0.5	0.96901	1.229
_end
