data_functionalizedCrystal
_audit_creation_method	'EQeq! by Chris Wilmer'
_symmetry_space_group_name_H-M	'P1'
_symmetry_Int_Tables_number	1
_symmetry_cell_setting	triclinic
loop_
_symmetry_equiv_pos_as_xyz
  x,y,z
_cell_length_a	15.398
_cell_length_b	15.398
_cell_length_c	25.456
_cell_angle_alpha	90
_cell_angle_beta	90
_cell_angle_gamma	120
loop_
_atom_site_label
_atom_site_type_symbol
_atom_site_fract_x
_atom_site_fract_y
_atom_site_fract_z
_atom_site_charge
Mof_C 	C 	0.555	0.0133	0.7874	0.137
Mof_H 	H 	0.6188	0.0537	0.7736	0.008
Mof_C 	C 	0.1113	0.1195	0.1304	0.359
Mof_C 	C 	0.2605	0.1141	0.1199	0.141
Mof_C 	C 	0.2114	0.0327	0.0849	-0.312
Mof_H 	H 	0.2463	0.0061	0.0679	0.152
Mof_C 	C 	0.1127	0.9948	0.0767	0.361
Mof_C 	C 	0.0582	0.0355	0.0997	-0.384
Mof_H 	H 	0.9895	0.0072	0.0944	0.197
Mof_C 	C 	0.1018	0.2599	0.1599	0.299
Mof_C 	C 	0.1117	0.2975	0.2088	-0.31
Mof_H 	H 	0.0845	0.254	0.2371	0.161
Mof_C 	C 	0.3715	0.1584	0.1296	0.246
Mof_C 	C 	0.1611	0.3988	0.2173	0.183
Mof_H 	H 	0.1716	0.4238	0.2514	-0.025
Mof_C 	C 	0.1743	0.6825	0.9308	0.394
Mof_C 	C 	0.1534	0.7507	0.9616	-0.286
Mof_C 	C 	0.1109	0.798	0.0443	-0.433
Mof_H 	H 	0.1047	0.7908	0.0806	0.196
Mof_C 	C 	0.5447	0.0042	0.8417	-0.22
Mof_H 	H 	0.5993	0.0418	0.8636	0.12
Mof_C 	C 	0.0922	0.8617	0.0213	0.436
Mof_C 	C 	0.1419	0.8249	0.94	0.259
Mof_H 	H 	0.1557	0.8387	0.9044	-0.044
Mof_C 	C 	0.4527	0.9388	0.8624	0.18
Mof_C 	C 	0.2097	0.1586	0.1414	-0.308
Mof_H 	H 	0.2427	0.2144	0.1632	0.151
Mof_C 	C 	0.3766	0.8939	0.828	-0.229
Mof_H 	H 	0.3127	0.8509	0.841	0.122
Mof_C 	C 	0.1407	0.7383	0.0149	0.255
Mof_H 	H 	0.1516	0.6911	0.0319	-0.042
Mof_Cd	Cd	0.3498	0.77856	0.19415	0.469
Mof_Cd	Cd	0.49186	0.99375	0.66359	0.201
Mof_N 	N 	0.4805	0.9685	0.7548	-0.169
Mof_O 	O 	0.1678	0.6835	0.8808	-0.298
Mof_C 	C 	0.1944	0.4625	0.1761	-0.192
Mof_O 	O 	0.4099	0.2247	0.1632	-0.263
Mof_C 	C 	0.1162	0.3122	0.1202	-0.081
Mof_H 	H 	0.0967	0.2843	0.0869	0.064
Mof_O 	O 	0.418	0.1261	0.1051	-0.276
Mof_C 	C 	0.2506	0.5759	0.1826	0.36
Mof_C 	C 	0.1647	0.4184	0.1288	0.019
Mof_H 	H 	0.1762	0.4595	0.0998	0.015
Mof_O 	O 	0.0542	0.1551	0.1539	-0.321
Mof_O 	O 	0.2556	0.6116	0.2272	-0.321
Mof_O 	O 	0.2012	0.6293	0.9512	-0.298
Mof_O 	O 	0.0512	0.9096	0.0466	-0.361
Mof_O 	O 	0.2891	0.6313	0.1444	-0.297
Mof_O 	O 	0.3422	0.988	0.6623	0.039
Mof_H 	H 	0.3339	0.0479	0.6747	-0.696
Mof_H 	H 	0.2743	0.9287	0.6699	0.723
Mof_O 	O 	0.3971	0.8338	0.6533	-0.684
Mof_H 	H 	0.3919	0.8114	0.6222	0.352
Mof_H 	H 	0.4103	0.7994	0.6749	0.319
Mof_C 	C 	0.1107	0.8812	0.9684	-0.4
Mof_H 	H 	0.1024	0.9307	0.9522	0.184
Mof_C 	C 	0.3885	0.9082	0.7742	0.138
Mof_H 	H 	0.3335	0.8764	0.7519	-0.025
Mof_O 	O 	0.6259	0.9618	0.666	-0.108
Mof_C 	C 	0.4392	0.9618	0.9206	-0.128
Mof_H 	H 	0.481	0.0324	0.929	0.063
Mof_H 	H 	0.3698	0.9405	0.9287	0.013
Mof_C 	C 	0.4727	0.9008	0.9474	-0.026
Mof_H 	H 	0.5412	0.9218	0.9374	0.053
Mof_H 	H 	0.4306	0.831	0.9376	0.017
Mof_C 	C 	0.4665	0.9131	0.0092	0.026
Mof_C 	C 	0.4413	0.9664	0.0441	-0.083
Mof_H 	H 	0.4464	0.0268	0.0337	0.076
Mof_C 	C 	0.4084	0.9296	0.0944	-0.015
Mof_H 	H 	0.3915	0.9653	0.1177	0.041
Mof_N 	N 	0.4007	0.8395	0.1099	-0.064
Mof_C 	C 	0.4259	0.7861	0.075	-0.014
Mof_H 	H 	0.4208	0.7258	0.0854	0.048
Mof_C 	C 	0.4588	0.8229	0.0247	-0.052
Mof_H 	H 	0.4757	0.7872	0.0014	0.049
Mof_C 	C 	0.4215	0.9	0.9191	-0.072
Mof_H 	H 	0.3638	0.9056	0.9293	0.072
Mof_H 	H 	0.4028	0.8298	0.9208	0.046
Mof_C 	C 	0.5026	0.9569	0.9541	-0.036
Mof_H 	H 	0.5197	0.0266	0.9546	0.033
Mof_H 	H 	0.5615	0.9532	0.9442	-0.009
Mof_C 	C 	0.1647	0.3271	0.1206	-0.173
Mof_H 	H 	0.1765	0.303	0.0895	0.095
Mof_C 	C 	0.2091	0.4313	0.1295	0.085
Mof_H 	H 	0.2476	0.4773	0.1037	0.009
Mof_C 	C 	0.4614	0.906	0.0094	0.023
Mof_C 	C 	0.392	0.9248	0.0341	-0.025
Mof_H 	H 	0.3591	0.9513	0.015	0.037
Mof_C 	C 	0.3717	0.9039	0.0872	0.047
Mof_H 	H 	0.3252	0.9165	0.1038	0.015
Mof_N 	N 	0.4208	0.8642	0.1157	-0.055
Mof_C 	C 	0.4902	0.8454	0.091	0.036
Mof_H 	H 	0.5231	0.8189	0.11	0.028
Mof_C 	C 	0.5105	0.8663	0.0378	-0.05
Mof_H 	H 	0.557	0.8537	0.0213	0.038
Mof_C 	C 	0.9867	0.5417	0.45407	0.136
Mof_H 	H 	0.9463	0.5651	0.44027	0.007
Mof_C 	C 	0.8805	0.9918	0.79707	0.359
Mof_C 	C 	0.8859	0.1464	0.78657	0.141
Mof_C 	C 	0.9673	0.1787	0.75157	-0.316
Mof_H 	H 	0.9939	0.2402	0.73457	0.152
Mof_C 	C 	0.0052	0.1179	0.74337	0.365
Mof_C 	C 	0.9645	0.0227	0.76637	-0.386
Mof_H 	H 	0.9928	0.9823	0.76107	0.197
Mof_C 	C 	0.7401	0.8419	0.82657	0.299
Mof_C 	C 	0.7025	0.8142	0.87547	-0.31
Mof_H 	H 	0.746	0.8305	0.90377	0.16
Mof_C 	C 	0.8416	0.2131	0.79627	0.245
Mof_C 	C 	0.6012	0.7623	0.88397	0.183
Mof_H 	H 	0.5762	0.7478	0.91807	-0.025
Mof_C 	C 	0.3175	0.4918	0.59747	0.395
Mof_C 	C 	0.2493	0.4027	0.62827	-0.29
Mof_C 	C 	0.202	0.3129	0.71097	-0.437
Mof_H 	H 	0.2092	0.3139	0.74727	0.197
Mof_C 	C 	0.9958	0.5405	0.50837	-0.22
Mof_H 	H 	0.9582	0.5575	0.53027	0.12
Mof_C 	C 	0.1383	0.2305	0.68797	0.44
Mof_C 	C 	0.1751	0.317	0.60667	0.263
Mof_H 	H 	0.1613	0.317	0.57107	-0.045
Mof_C 	C 	0.0612	0.5139	0.52907	0.18
Mof_C 	C 	0.8414	0.0511	0.80807	-0.31
Mof_H 	H 	0.7856	0.0283	0.82987	0.152
Mof_C 	C 	0.1061	0.4827	0.49467	-0.228
Mof_H 	H 	0.1491	0.4618	0.50767	0.122
Mof_C 	C 	0.2617	0.4024	0.68157	0.259
Mof_H 	H 	0.3089	0.4605	0.69857	-0.043
Mof_Cd	Cd	0.22144	0.57124	0.86082	0.469
Mof_Cd	Cd	0.00625	0.49811	0.33026	0.202
Mof_N 	N 	0.0315	0.512	0.42147	-0.17
Mof_O 	O 	0.3165	0.4843	0.54747	-0.299
Mof_C 	C 	0.5375	0.7319	0.84277	-0.192
Mof_O 	O 	0.7753	0.1852	0.82987	-0.263
Mof_C 	C 	0.6878	0.804	0.78687	-0.081
Mof_H 	H 	0.7157	0.8124	0.75357	0.064
Mof_O 	O 	0.8739	0.2919	0.77177	-0.276
Mof_C 	C 	0.4241	0.6747	0.84927	0.36
Mof_C 	C 	0.5816	0.7463	0.79547	0.019
Mof_H 	H 	0.5405	0.7167	0.76647	0.015
Mof_O 	O 	0.8449	0.8991	0.82057	-0.322
Mof_O 	O 	0.3884	0.644	0.89387	-0.321
Mof_O 	O 	0.3707	0.5719	0.61787	-0.299
Mof_O 	O 	0.0904	0.1416	0.71327	-0.362
Mof_O 	O 	0.3687	0.6578	0.81107	-0.297
Mof_O 	O 	0.012	0.3542	0.32897	0.038
Mof_H 	H 	0.9521	0.286	0.34137	-0.692
Mof_H 	H 	0.0713	0.3456	0.33657	0.726
Mof_O 	O 	0.1662	0.5633	0.31997	-0.684
Mof_H 	H 	0.1886	0.5805	0.28887	0.352
Mof_H 	H 	0.2006	0.6109	0.34157	0.319
Mof_C 	C 	0.1188	0.2295	0.63507	-0.404
Mof_H 	H 	0.0693	0.1717	0.61887	0.186
Mof_C 	C 	0.0918	0.4803	0.44087	0.138
Mof_H 	H 	0.1236	0.4571	0.41857	-0.025
Mof_O 	O 	0.0382	0.6641	0.33267	-0.108
Mof_C 	C 	0.0382	0.4774	0.58727	-0.127
Mof_H 	H 	0.9676	0.4486	0.59567	0.063
Mof_H 	H 	0.0595	0.4293	0.59537	0.012
Mof_C 	C 	0.0992	0.5719	0.61407	-0.026
Mof_H 	H 	0.0782	0.6194	0.60407	0.054
Mof_H 	H 	0.169	0.5996	0.60427	0.017
Mof_C 	C 	0.0869	0.5534	0.67587	0.026
Mof_C 	C 	0.0336	0.4749	0.71077	-0.09
Mof_H 	H 	0.9732	0.4196	0.70037	0.078
Mof_C 	C 	0.0704	0.4788	0.76107	-0.018
Mof_H 	H 	0.0347	0.4262	0.78437	0.042
Mof_N 	N 	0.1605	0.5612	0.77657	-0.063
Mof_C 	C 	0.2139	0.6398	0.74167	-0.015
Mof_H 	H 	0.2742	0.695	0.75207	0.048
Mof_C 	C 	0.1771	0.6359	0.69137	-0.053
Mof_H 	H 	0.2128	0.6885	0.66807	0.049
Mof_C 	C 	0.1	0.5215	0.58577	-0.073
Mof_H 	H 	0.0944	0.4582	0.59597	0.072
Mof_H 	H 	0.1702	0.573	0.58747	0.046
Mof_C 	C 	0.0431	0.5457	0.62077	-0.037
Mof_H 	H 	0.9734	0.4931	0.62127	0.033
Mof_H 	H 	0.0468	0.6083	0.61087	-0.01
Mof_C 	C 	0.6729	0.8376	0.78727	-0.173
Mof_H 	H 	0.697	0.8735	0.75617	0.095
Mof_C 	C 	0.5687	0.7778	0.79617	0.085
Mof_H 	H 	0.5227	0.7703	0.77037	0.009
Mof_C 	C 	0.094	0.5554	0.67607	0.023
Mof_C 	C 	0.0752	0.4672	0.70077	-0.018
Mof_H 	H 	0.0487	0.4078	0.68167	0.035
Mof_C 	C 	0.0961	0.4678	0.75387	0.05
Mof_H 	H 	0.0835	0.4087	0.77047	0.014
Mof_N 	N 	0.1358	0.5566	0.78237	-0.056
Mof_C 	C 	0.1546	0.6448	0.75767	0.037
Mof_H 	H 	0.1811	0.7042	0.77667	0.027
Mof_C 	C 	0.1337	0.6442	0.70447	-0.05
Mof_H 	H 	0.1463	0.7033	0.68797	0.038
Mof_C 	C 	0.4583	0.445	0.12073	0.136
Mof_H 	H 	0.4349	0.3812	0.10693	0.007
Mof_C 	C 	0.0082	0.8887	0.46373	0.358
Mof_C 	C 	0.8536	0.7395	0.45323	0.14
Mof_C 	C 	0.8213	0.7886	0.41823	-0.314
Mof_H 	H 	0.7598	0.7537	0.40123	0.152
Mof_C 	C 	0.8821	0.8873	0.41003	0.363
Mof_C 	C 	0.9773	0.9418	0.43303	-0.384
Mof_H 	H 	0.0177	0.0105	0.42773	0.196
Mof_C 	C 	0.1581	0.8982	0.49323	0.299
Mof_C 	C 	0.1858	0.8883	0.54213	-0.31
Mof_H 	H 	0.1695	0.9155	0.57043	0.16
Mof_C 	C 	0.7869	0.6285	0.46293	0.246
Mof_C 	C 	0.2377	0.8389	0.55063	0.183
Mof_H 	H 	0.2522	0.8284	0.58473	-0.025
Mof_C 	C 	0.5082	0.8257	0.26413	0.395
Mof_C 	C 	0.5973	0.8466	0.29493	-0.29
Mof_C 	C 	0.6871	0.8891	0.37763	-0.436
Mof_H 	H 	0.6861	0.8953	0.41393	0.197
Mof_C 	C 	0.4595	0.4553	0.17503	-0.22
Mof_H 	H 	0.4425	0.4007	0.19693	0.12
Mof_C 	C 	0.7695	0.9078	0.35463	0.44
Mof_C 	C 	0.683	0.8581	0.27333	0.262
Mof_H 	H 	0.683	0.8443	0.23773	-0.045
Mof_C 	C 	0.4861	0.5473	0.19573	0.18
Mof_C 	C 	0.9489	0.7903	0.47473	-0.308
Mof_H 	H 	0.9717	0.7573	0.49653	0.151
Mof_C 	C 	0.5173	0.6234	0.16133	-0.228
Mof_H 	H 	0.5382	0.6873	0.17433	0.122
Mof_C 	C 	0.5976	0.8593	0.34823	0.259
Mof_H 	H 	0.5395	0.8484	0.36523	-0.043
Mof_Cd	Cd	0.42876	0.6502	0.52748	0.469
Mof_Cd	Cd	0.50189	0.50814	0.99692	0.201
Mof_N 	N 	0.488	0.5195	0.08813	-0.169
Mof_O 	O 	0.5157	0.8322	0.21413	-0.299
Mof_C 	C 	0.2681	0.8056	0.50943	-0.192
Mof_O 	O 	0.8148	0.5901	0.49653	-0.263
Mof_C 	C 	0.196	0.8838	0.45353	-0.081
Mof_H 	H 	0.1876	0.9033	0.42023	0.064
Mof_O 	O 	0.7081	0.582	0.43843	-0.276
Mof_C 	C 	0.3253	0.7494	0.51593	0.36
Mof_C 	C 	0.2537	0.8353	0.46213	0.019
Mof_H 	H 	0.2833	0.8238	0.43313	0.015
Mof_O 	O 	0.1009	0.9458	0.48723	-0.321
Mof_O 	O 	0.356	0.7444	0.56053	-0.321
Mof_O 	O 	0.4281	0.7988	0.28453	-0.299
Mof_O 	O 	0.8584	0.9488	0.37993	-0.362
Mof_O 	O 	0.3422	0.7109	0.47773	-0.297
Mof_O 	O 	0.6458	0.6578	0.99563	0.038
Mof_H 	H 	0.714	0.6661	0.00803	-0.69
Mof_H 	H 	0.6544	0.7257	0.00323	0.722
Mof_O 	O 	0.4367	0.6029	0.98663	-0.683
Mof_H 	H 	0.4195	0.6081	0.95553	0.351
Mof_H 	H 	0.3891	0.5897	0.00823	0.319
Mof_C 	C 	0.7705	0.8893	0.30173	-0.404
Mof_H 	H 	0.8283	0.8976	0.28553	0.186
Mof_C 	C 	0.5197	0.6115	0.10753	0.138
Mof_H 	H 	0.5429	0.6665	0.08523	-0.025
Mof_O 	O 	0.3359	0.3741	0.99933	-0.108
Mof_C 	C 	0.5226	0.5608	0.25393	-0.127
Mof_H 	H 	0.5514	0.519	0.26233	0.063
Mof_H 	H 	0.5707	0.6302	0.26203	0.012
Mof_C 	C 	0.4281	0.5273	0.28073	-0.026
Mof_H 	H 	0.3806	0.4588	0.27073	0.054
Mof_H 	H 	0.4004	0.5694	0.27093	0.017
Mof_C 	C 	0.4466	0.5335	0.34253	0.026
Mof_C 	C 	0.5251	0.5587	0.37743	-0.089
Mof_H 	H 	0.5804	0.5536	0.36703	0.078
Mof_C 	C 	0.5212	0.5916	0.42773	-0.018
Mof_H 	H 	0.5738	0.6085	0.45103	0.042
Mof_N 	N 	0.4388	0.5993	0.44323	-0.064
Mof_C 	C 	0.3602	0.5741	0.40833	-0.015
Mof_H 	H 	0.305	0.5792	0.41873	0.048
Mof_C 	C 	0.3641	0.5412	0.35803	-0.053
Mof_H 	H 	0.3115	0.5243	0.33473	0.049
Mof_C 	C 	0.4785	0.5785	0.25243	-0.073
Mof_H 	H 	0.5418	0.6362	0.26263	0.072
Mof_H 	H 	0.427	0.5972	0.25413	0.046
Mof_C 	C 	0.4543	0.4974	0.28743	-0.037
Mof_H 	H 	0.5069	0.4803	0.28793	0.033
Mof_H 	H 	0.3917	0.4385	0.27753	-0.01
Mof_C 	C 	0.1624	0.8353	0.45393	-0.173
Mof_H 	H 	0.1265	0.8235	0.42283	0.095
Mof_C 	C 	0.2222	0.7909	0.46283	0.085
Mof_H 	H 	0.2297	0.7524	0.43703	0.009
Mof_C 	C 	0.4446	0.5386	0.34273	0.023
Mof_C 	C 	0.5328	0.608	0.36743	-0.019
Mof_H 	H 	0.5922	0.6409	0.34833	0.035
Mof_C 	C 	0.5322	0.6283	0.42053	0.05
Mof_H 	H 	0.5913	0.6748	0.43713	0.014
Mof_N 	N 	0.4434	0.5792	0.44903	-0.055
Mof_C 	C 	0.3552	0.5098	0.42433	0.037
Mof_H 	H 	0.2958	0.4769	0.44333	0.027
Mof_C 	C 	0.3558	0.4895	0.37113	-0.05
Mof_H 	H 	0.2967	0.443	0.35463	0.038
Mof_C 	C 	0.0133	0.555	0.2126	0.136
Mof_H 	H 	0.0537	0.6188	0.2264	0.007
Mof_C 	C 	0.1195	0.1113	0.8696	0.358
Mof_C 	C 	0.1141	0.2605	0.8801	0.14
Mof_C 	C 	0.0327	0.2114	0.9151	-0.313
Mof_H 	H 	0.0061	0.2463	0.9321	0.151
Mof_C 	C 	0.9948	0.1127	0.9233	0.361
Mof_C 	C 	0.0355	0.0582	0.9003	-0.384
Mof_H 	H 	0.0072	0.9895	0.9056	0.197
Mof_C 	C 	0.2599	0.1018	0.8401	0.299
Mof_C 	C 	0.2975	0.1117	0.7912	-0.31
Mof_H 	H 	0.254	0.0845	0.7629	0.161
Mof_C 	C 	0.1584	0.3715	0.8704	0.246
Mof_C 	C 	0.3988	0.1611	0.7827	0.183
Mof_H 	H 	0.4238	0.1716	0.7486	-0.025
Mof_C 	C 	0.6825	0.1743	0.0692	0.394
Mof_C 	C 	0.7507	0.1534	0.0384	-0.286
Mof_C 	C 	0.798	0.1109	0.9557	-0.433
Mof_H 	H 	0.7908	0.1047	0.9194	0.196
Mof_C 	C 	0.0042	0.5447	0.1583	-0.22
Mof_H 	H 	0.0418	0.5993	0.1364	0.12
Mof_C 	C 	0.8617	0.0922	0.9787	0.436
Mof_C 	C 	0.8249	0.1419	0.06	0.259
Mof_H 	H 	0.8387	0.1557	0.0956	-0.044
Mof_C 	C 	0.9388	0.4527	0.1376	0.18
Mof_C 	C 	0.1586	0.2097	0.8586	-0.308
Mof_H 	H 	0.2144	0.2427	0.8368	0.151
Mof_C 	C 	0.8939	0.3766	0.172	-0.229
Mof_H 	H 	0.8509	0.3127	0.159	0.122
Mof_C 	C 	0.7383	0.1407	0.9851	0.255
Mof_H 	H 	0.6911	0.1516	0.9681	-0.042
Mof_Cd	Cd	0.77856	0.3498	0.80585	0.469
Mof_Cd	Cd	0.99375	0.49186	0.33641	0.201
Mof_N 	N 	0.9685	0.4805	0.2452	-0.169
Mof_O 	O 	0.6835	0.1678	0.1192	-0.298
Mof_C 	C 	0.4625	0.1944	0.8239	-0.192
Mof_O 	O 	0.2247	0.4099	0.8368	-0.263
Mof_C 	C 	0.3122	0.1162	0.8798	-0.081
Mof_H 	H 	0.2843	0.0967	0.9131	0.064
Mof_O 	O 	0.1261	0.418	0.8949	-0.276
Mof_C 	C 	0.5759	0.2506	0.8174	0.36
Mof_C 	C 	0.4184	0.1647	0.8712	0.019
Mof_H 	H 	0.4595	0.1762	0.9002	0.015
Mof_O 	O 	0.1551	0.0542	0.8461	-0.321
Mof_O 	O 	0.6116	0.2556	0.7728	-0.321
Mof_O 	O 	0.6293	0.2012	0.0488	-0.298
Mof_O 	O 	0.9096	0.0512	0.9534	-0.361
Mof_O 	O 	0.6313	0.2891	0.8556	-0.297
Mof_O 	O 	0.988	0.3422	0.3377	0.039
Mof_H 	H 	0.0479	0.3339	0.3253	-0.696
Mof_H 	H 	0.9287	0.2743	0.3301	0.723
Mof_O 	O 	0.8338	0.3971	0.3467	-0.684
Mof_H 	H 	0.8114	0.3919	0.3778	0.352
Mof_H 	H 	0.7994	0.4103	0.3251	0.319
Mof_C 	C 	0.8812	0.1107	0.0316	-0.4
Mof_H 	H 	0.9307	0.1024	0.0478	0.184
Mof_C 	C 	0.9082	0.3885	0.2258	0.138
Mof_H 	H 	0.8764	0.3335	0.2481	-0.025
Mof_O 	O 	0.9618	0.6259	0.334	-0.108
Mof_C 	C 	0.9618	0.4392	0.0794	-0.128
Mof_H 	H 	0.0324	0.481	0.071	0.063
Mof_H 	H 	0.9405	0.3698	0.0713	0.013
Mof_C 	C 	0.9008	0.4727	0.0526	-0.026
Mof_H 	H 	0.9218	0.5412	0.0626	0.053
Mof_H 	H 	0.831	0.4306	0.0624	0.017
Mof_C 	C 	0.9131	0.4665	0.9908	0.026
Mof_C 	C 	0.9664	0.4413	0.9559	-0.083
Mof_H 	H 	0.0268	0.4464	0.9663	0.076
Mof_C 	C 	0.9296	0.4084	0.9056	-0.015
Mof_H 	H 	0.9653	0.3915	0.8823	0.041
Mof_N 	N 	0.8395	0.4007	0.8901	-0.064
Mof_C 	C 	0.7861	0.4259	0.925	-0.014
Mof_H 	H 	0.7258	0.4208	0.9146	0.048
Mof_C 	C 	0.8229	0.4588	0.9753	-0.052
Mof_H 	H 	0.7872	0.4757	0.9986	0.049
Mof_C 	C 	0.9	0.4215	0.0809	-0.072
Mof_H 	H 	0.9056	0.3638	0.0707	0.072
Mof_H 	H 	0.8298	0.4028	0.0792	0.046
Mof_C 	C 	0.9569	0.5026	0.0459	-0.036
Mof_H 	H 	0.0266	0.5197	0.0454	0.033
Mof_H 	H 	0.9532	0.5615	0.0558	-0.009
Mof_C 	C 	0.3271	0.1647	0.8794	-0.173
Mof_H 	H 	0.303	0.1765	0.9105	0.095
Mof_C 	C 	0.4313	0.2091	0.8705	0.085
Mof_H 	H 	0.4773	0.2476	0.8963	0.009
Mof_C 	C 	0.906	0.4614	0.9906	0.023
Mof_C 	C 	0.9248	0.392	0.9659	-0.025
Mof_H 	H 	0.9513	0.3591	0.985	0.037
Mof_C 	C 	0.9039	0.3717	0.9128	0.047
Mof_H 	H 	0.9165	0.3252	0.8962	0.015
Mof_N 	N 	0.8642	0.4208	0.8843	-0.055
Mof_C 	C 	0.8454	0.4902	0.909	0.036
Mof_H 	H 	0.8189	0.5231	0.89	0.028
Mof_C 	C 	0.8663	0.5105	0.9622	-0.05
Mof_H 	H 	0.8537	0.557	0.9787	0.038
Mof_C 	C 	0.5417	0.9867	0.54593	0.136
Mof_H 	H 	0.5651	0.9463	0.55973	0.007
Mof_C 	C 	0.9918	0.8805	0.20293	0.359
Mof_C 	C 	0.1464	0.8859	0.21343	0.141
Mof_C 	C 	0.1787	0.9673	0.24843	-0.316
Mof_H 	H 	0.2402	0.9939	0.26543	0.152
Mof_C 	C 	0.1179	0.0052	0.25663	0.365
Mof_C 	C 	0.0227	0.9645	0.23363	-0.386
Mof_H 	H 	0.9823	0.9928	0.23893	0.197
Mof_C 	C 	0.8419	0.7401	0.17343	0.299
Mof_C 	C 	0.8142	0.7025	0.12453	-0.31
Mof_H 	H 	0.8305	0.746	0.09623	0.16
Mof_C 	C 	0.2131	0.8416	0.20373	0.245
Mof_C 	C 	0.7623	0.6012	0.11603	0.183
Mof_H 	H 	0.7478	0.5762	0.08193	-0.025
Mof_C 	C 	0.4918	0.3175	0.40253	0.395
Mof_C 	C 	0.4027	0.2493	0.37173	-0.29
Mof_C 	C 	0.3129	0.202	0.28903	-0.437
Mof_H 	H 	0.3139	0.2092	0.25273	0.197
Mof_C 	C 	0.5405	0.9958	0.49163	-0.22
Mof_H 	H 	0.5575	0.9582	0.46973	0.12
Mof_C 	C 	0.2305	0.1383	0.31203	0.44
Mof_C 	C 	0.317	0.1751	0.39333	0.263
Mof_H 	H 	0.317	0.1613	0.42893	-0.045
Mof_C 	C 	0.5139	0.0612	0.47093	0.18
Mof_C 	C 	0.0511	0.8414	0.19193	-0.31
Mof_H 	H 	0.0283	0.7856	0.17013	0.152
Mof_C 	C 	0.4827	0.1061	0.50533	-0.228
Mof_H 	H 	0.4618	0.1491	0.49233	0.122
Mof_C 	C 	0.4024	0.2617	0.31843	0.259
Mof_H 	H 	0.4605	0.3089	0.30143	-0.043
Mof_Cd	Cd	0.57124	0.22144	0.13918	0.469
Mof_Cd	Cd	0.49811	0.00625	0.66974	0.202
Mof_N 	N 	0.512	0.0315	0.57853	-0.17
Mof_O 	O 	0.4843	0.3165	0.45253	-0.299
Mof_C 	C 	0.7319	0.5375	0.15723	-0.192
Mof_O 	O 	0.1852	0.7753	0.17013	-0.263
Mof_C 	C 	0.804	0.6878	0.21313	-0.081
Mof_H 	H 	0.8124	0.7157	0.24643	0.064
Mof_O 	O 	0.2919	0.8739	0.22823	-0.276
Mof_C 	C 	0.6747	0.4241	0.15073	0.36
Mof_C 	C 	0.7463	0.5816	0.20453	0.019
Mof_H 	H 	0.7167	0.5405	0.23353	0.015
Mof_O 	O 	0.8991	0.8449	0.17943	-0.322
Mof_O 	O 	0.644	0.3884	0.10613	-0.321
Mof_O 	O 	0.5719	0.3707	0.38213	-0.299
Mof_O 	O 	0.1416	0.0904	0.28673	-0.362
Mof_O 	O 	0.6578	0.3687	0.18893	-0.297
Mof_O 	O 	0.3542	0.012	0.67103	0.038
Mof_H 	H 	0.286	0.9521	0.65863	-0.692
Mof_H 	H 	0.3456	0.0713	0.66343	0.726
Mof_O 	O 	0.5633	0.1662	0.68003	-0.684
Mof_H 	H 	0.5805	0.1886	0.71113	0.352
Mof_H 	H 	0.6109	0.2006	0.65843	0.319
Mof_C 	C 	0.2295	0.1188	0.36493	-0.404
Mof_H 	H 	0.1717	0.0693	0.38113	0.186
Mof_C 	C 	0.4803	0.0918	0.55913	0.138
Mof_H 	H 	0.4571	0.1236	0.58143	-0.025
Mof_O 	O 	0.6641	0.0382	0.66733	-0.108
Mof_C 	C 	0.4774	0.0382	0.41273	-0.127
Mof_H 	H 	0.4486	0.9676	0.40433	0.063
Mof_H 	H 	0.4293	0.0595	0.40463	0.012
Mof_C 	C 	0.5719	0.0992	0.38593	-0.026
Mof_H 	H 	0.6194	0.0782	0.39593	0.054
Mof_H 	H 	0.5996	0.169	0.39573	0.017
Mof_C 	C 	0.5534	0.0869	0.32413	0.026
Mof_C 	C 	0.4749	0.0336	0.28923	-0.09
Mof_H 	H 	0.4196	0.9732	0.29963	0.078
Mof_C 	C 	0.4788	0.0704	0.23893	-0.018
Mof_H 	H 	0.4262	0.0347	0.21563	0.042
Mof_N 	N 	0.5612	0.1605	0.22343	-0.063
Mof_C 	C 	0.6398	0.2139	0.25833	-0.015
Mof_H 	H 	0.695	0.2742	0.24793	0.048
Mof_C 	C 	0.6359	0.1771	0.30863	-0.053
Mof_H 	H 	0.6885	0.2128	0.33193	0.049
Mof_C 	C 	0.5215	0.1	0.41423	-0.073
Mof_H 	H 	0.4582	0.0944	0.40403	0.072
Mof_H 	H 	0.573	0.1702	0.41253	0.046
Mof_C 	C 	0.5457	0.0431	0.37923	-0.037
Mof_H 	H 	0.4931	0.9734	0.37873	0.033
Mof_H 	H 	0.6083	0.0468	0.38913	-0.01
Mof_C 	C 	0.8376	0.6729	0.21273	-0.173
Mof_H 	H 	0.8735	0.697	0.24383	0.095
Mof_C 	C 	0.7778	0.5687	0.20383	0.085
Mof_H 	H 	0.7703	0.5227	0.22963	0.009
Mof_C 	C 	0.5554	0.094	0.32393	0.023
Mof_C 	C 	0.4672	0.0752	0.29923	-0.018
Mof_H 	H 	0.4078	0.0487	0.31833	0.035
Mof_C 	C 	0.4678	0.0961	0.24613	0.05
Mof_H 	H 	0.4087	0.0835	0.22953	0.014
Mof_N 	N 	0.5566	0.1358	0.21763	-0.056
Mof_C 	C 	0.6448	0.1546	0.24233	0.037
Mof_H 	H 	0.7042	0.1811	0.22333	0.027
Mof_C 	C 	0.6442	0.1337	0.29553	-0.05
Mof_H 	H 	0.7033	0.1463	0.31203	0.038
Mof_C 	C 	0.445	0.4583	0.87927	0.136
Mof_H 	H 	0.3812	0.4349	0.89307	0.007
Mof_C 	C 	0.8887	0.0082	0.53627	0.358
Mof_C 	C 	0.7395	0.8536	0.54677	0.14
Mof_C 	C 	0.7886	0.8213	0.58177	-0.314
Mof_H 	H 	0.7537	0.7598	0.59877	0.152
Mof_C 	C 	0.8873	0.8821	0.58997	0.363
Mof_C 	C 	0.9418	0.9773	0.56697	-0.384
Mof_H 	H 	0.0105	0.0177	0.57227	0.196
Mof_C 	C 	0.8982	0.1581	0.50677	0.299
Mof_C 	C 	0.8883	0.1858	0.45787	-0.31
Mof_H 	H 	0.9155	0.1695	0.42957	0.16
Mof_C 	C 	0.6285	0.7869	0.53707	0.246
Mof_C 	C 	0.8389	0.2377	0.44937	0.183
Mof_H 	H 	0.8284	0.2522	0.41527	-0.025
Mof_C 	C 	0.8257	0.5082	0.73587	0.395
Mof_C 	C 	0.8466	0.5973	0.70507	-0.29
Mof_C 	C 	0.8891	0.6871	0.62237	-0.436
Mof_H 	H 	0.8953	0.6861	0.58607	0.197
Mof_C 	C 	0.4553	0.4595	0.82497	-0.22
Mof_H 	H 	0.4007	0.4425	0.80307	0.12
Mof_C 	C 	0.9078	0.7695	0.64537	0.44
Mof_C 	C 	0.8581	0.683	0.72667	0.262
Mof_H 	H 	0.8443	0.683	0.76227	-0.045
Mof_C 	C 	0.5473	0.4861	0.80427	0.18
Mof_C 	C 	0.7903	0.9489	0.52527	-0.308
Mof_H 	H 	0.7573	0.9717	0.50347	0.151
Mof_C 	C 	0.6234	0.5173	0.83867	-0.228
Mof_H 	H 	0.6873	0.5382	0.82567	0.122
Mof_C 	C 	0.8593	0.5976	0.65177	0.259
Mof_H 	H 	0.8484	0.5395	0.63477	-0.043
Mof_Cd	Cd	0.6502	0.42876	0.47252	0.469
Mof_Cd	Cd	0.50814	0.50189	0.00308	0.201
Mof_N 	N 	0.5195	0.488	0.91187	-0.169
Mof_O 	O 	0.8322	0.5157	0.78587	-0.299
Mof_C 	C 	0.8056	0.2681	0.49057	-0.192
Mof_O 	O 	0.5901	0.8148	0.50347	-0.263
Mof_C 	C 	0.8838	0.196	0.54647	-0.081
Mof_H 	H 	0.9033	0.1876	0.57977	0.064
Mof_O 	O 	0.582	0.7081	0.56157	-0.276
Mof_C 	C 	0.7494	0.3253	0.48407	0.36
Mof_C 	C 	0.8353	0.2537	0.53787	0.019
Mof_H 	H 	0.8238	0.2833	0.56687	0.015
Mof_O 	O 	0.9458	0.1009	0.51277	-0.321
Mof_O 	O 	0.7444	0.356	0.43947	-0.321
Mof_O 	O 	0.7988	0.4281	0.71547	-0.299
Mof_O 	O 	0.9488	0.8584	0.62007	-0.362
Mof_O 	O 	0.7109	0.3422	0.52227	-0.297
Mof_O 	O 	0.6578	0.6458	0.00437	0.038
Mof_H 	H 	0.6661	0.714	0.99197	-0.69
Mof_H 	H 	0.7257	0.6544	0.99677	0.722
Mof_O 	O 	0.6029	0.4367	0.01337	-0.683
Mof_H 	H 	0.6081	0.4195	0.04447	0.351
Mof_H 	H 	0.5897	0.3891	0.99177	0.319
Mof_C 	C 	0.8893	0.7705	0.69827	-0.404
Mof_H 	H 	0.8976	0.8283	0.71447	0.186
Mof_C 	C 	0.6115	0.5197	0.89247	0.138
Mof_H 	H 	0.6665	0.5429	0.91477	-0.025
Mof_O 	O 	0.3741	0.3359	0.00067	-0.108
Mof_C 	C 	0.5608	0.5226	0.74607	-0.127
Mof_H 	H 	0.519	0.5514	0.73767	0.063
Mof_H 	H 	0.6302	0.5707	0.73797	0.012
Mof_C 	C 	0.5273	0.4281	0.71927	-0.026
Mof_H 	H 	0.4588	0.3806	0.72927	0.054
Mof_H 	H 	0.5694	0.4004	0.72907	0.017
Mof_C 	C 	0.5335	0.4466	0.65747	0.026
Mof_C 	C 	0.5587	0.5251	0.62257	-0.089
Mof_H 	H 	0.5536	0.5804	0.63297	0.078
Mof_C 	C 	0.5916	0.5212	0.57227	-0.018
Mof_H 	H 	0.6085	0.5738	0.54897	0.042
Mof_N 	N 	0.5993	0.4388	0.55677	-0.064
Mof_C 	C 	0.5741	0.3602	0.59167	-0.015
Mof_H 	H 	0.5792	0.305	0.58127	0.048
Mof_C 	C 	0.5412	0.3641	0.64197	-0.053
Mof_H 	H 	0.5243	0.3115	0.66527	0.049
Mof_C 	C 	0.5785	0.4785	0.74757	-0.073
Mof_H 	H 	0.6362	0.5418	0.73737	0.072
Mof_H 	H 	0.5972	0.427	0.74587	0.046
Mof_C 	C 	0.4974	0.4543	0.71257	-0.037
Mof_H 	H 	0.4803	0.5069	0.71207	0.033
Mof_H 	H 	0.4385	0.3917	0.72247	-0.01
Mof_C 	C 	0.8353	0.1624	0.54607	-0.173
Mof_H 	H 	0.8235	0.1265	0.57717	0.095
Mof_C 	C 	0.7909	0.2222	0.53717	0.085
Mof_H 	H 	0.7524	0.2297	0.56297	0.009
Mof_C 	C 	0.5386	0.4446	0.65727	0.023
Mof_C 	C 	0.608	0.5328	0.63257	-0.019
Mof_H 	H 	0.6409	0.5922	0.65167	0.035
Mof_C 	C 	0.6283	0.5322	0.57947	0.05
Mof_H 	H 	0.6748	0.5913	0.56287	0.014
Mof_N 	N 	0.5792	0.4434	0.55097	-0.055
Mof_C 	C 	0.5098	0.3552	0.57567	0.037
Mof_H 	H 	0.4769	0.2958	0.55667	0.027
Mof_C 	C 	0.4895	0.3558	0.62887	-0.05
Mof_H 	H 	0.443	0.2967	0.64537	0.038
_end
