data_functionalizedCrystal
_audit_creation_method	'EQeq! by Chris Wilmer'
_symmetry_space_group_name_H-M	'P1'
_symmetry_Int_Tables_number	1
_symmetry_cell_setting	triclinic
loop_
_symmetry_equiv_pos_as_xyz
  x,y,z
_cell_length_a	17.019
_cell_length_b	17.019
_cell_length_c	17.019
_cell_angle_alpha	90
_cell_angle_beta	90
_cell_angle_gamma	90
loop_
_atom_site_label
_atom_site_type_symbol
_atom_site_fract_x
_atom_site_fract_y
_atom_site_fract_z
_atom_site_charge
Mof_N 	N 	0.02753	0.68223	0.40948	-0.416
Mof_C 	C 	0.0977	0.6849	0.37	0.06
Mof_H 	H 	0.1386	0.7197	0.3802	-0.034
Mof_H 	H 	0.9008	0.6079	0.4566	0.096
Mof_N 	N 	0.0977	0.63	0.3151	-0.16
Mof_H 	H 	0.9002	0.6095	0.4563	0.1
Mof_N 	N 	0.52753	0.18223	0.90948	-0.301
Mof_C 	C 	0.5977	0.1849	0.87	0.08
Mof_H 	H 	0.6386	0.2197	0.8802	-0.022
Mof_H 	H 	0.4008	0.1079	0.9566	0.077
Mof_N 	N 	0.5977	0.13	0.8151	-0.159
Mof_H 	H 	0.4002	0.1095	0.9563	0.079
Mof_N 	N 	0.97247	0.31777	0.40948	-0.226
Mof_C 	C 	0.9023	0.3151	0.37	0.083
Mof_H 	H 	0.8614	0.2803	0.3802	-0.036
Mof_H 	H 	0.0992	0.3921	0.4566	0.043
Mof_N 	N 	0.9023	0.37	0.3151	-0.155
Mof_H 	H 	0.0998	0.3905	0.4563	0.045
Mof_N 	N 	0.47247	0.81777	0.90948	-0.308
Mof_C 	C 	0.4023	0.8151	0.87	0.093
Mof_H 	H 	0.3614	0.7803	0.8802	-0.024
Mof_H 	H 	0.5992	0.8921	0.9566	0.102
Mof_N 	N 	0.4023	0.87	0.8151	-0.154
Mof_H 	H 	0.5998	0.8905	0.9563	0.106
Mof_N 	N 	0.97247	0.68223	0.59052	-0.225
Mof_C 	C 	0.9023	0.6849	0.63	0.091
Mof_H 	H 	0.8614	0.7197	0.6198	-0.034
Mof_H 	H 	0.0992	0.6079	0.5434	0.043
Mof_N 	N 	0.9023	0.63	0.6849	-0.154
Mof_H 	H 	0.0998	0.6095	0.5437	0.045
Mof_N 	N 	0.47247	0.18223	0.09052	-0.336
Mof_C 	C 	0.4023	0.1849	0.13	0.05
Mof_H 	H 	0.3614	0.2197	0.1198	-0.051
Mof_H 	H 	0.5992	0.1079	0.0434	0.04
Mof_N 	N 	0.4023	0.13	0.1849	-0.162
Mof_H 	H 	0.5998	0.1095	0.0437	0.042
Mof_N 	N 	0.02753	0.31777	0.59052	-0.418
Mof_C 	C 	0.0977	0.3151	0.63	0.058
Mof_H 	H 	0.1386	0.2803	0.6198	-0.035
Mof_H 	H 	0.9008	0.3921	0.5434	0.095
Mof_N 	N 	0.0977	0.37	0.6849	-0.161
Mof_H 	H 	0.9002	0.3905	0.5437	0.099
Mof_N 	N 	0.52753	0.81777	0.09052	-0.34
Mof_C 	C 	0.5977	0.8151	0.13	0.07
Mof_H 	H 	0.6386	0.7803	0.1198	-0.042
Mof_H 	H 	0.4008	0.8921	0.0434	0.059
Mof_N 	N 	0.5977	0.87	0.1849	-0.155
Mof_H 	H 	0.4002	0.8905	0.0437	0.062
Mof_N 	N 	0.40948	0.02753	0.68223	-0.417
Mof_C 	C 	0.37	0.0977	0.6849	0.059
Mof_H 	H 	0.3802	0.1386	0.7197	-0.035
Mof_H 	H 	0.4566	0.9008	0.6079	0.095
Mof_N 	N 	0.3151	0.0977	0.63	-0.161
Mof_H 	H 	0.4563	0.9002	0.6095	0.099
Mof_N 	N 	0.90948	0.52753	0.18223	-0.302
Mof_C 	C 	0.87	0.5977	0.1849	0.079
Mof_H 	H 	0.8802	0.6386	0.2197	-0.023
Mof_H 	H 	0.9566	0.4008	0.1079	0.076
Mof_N 	N 	0.8151	0.5977	0.13	-0.16
Mof_H 	H 	0.9563	0.4002	0.1095	0.078
Mof_N 	N 	0.40948	0.97247	0.31777	-0.226
Mof_C 	C 	0.37	0.9023	0.3151	0.083
Mof_H 	H 	0.3802	0.8614	0.2803	-0.036
Mof_H 	H 	0.4566	0.0992	0.3921	0.043
Mof_N 	N 	0.3151	0.9023	0.37	-0.155
Mof_H 	H 	0.4563	0.0998	0.3905	0.045
Mof_N 	N 	0.90948	0.47247	0.81777	-0.308
Mof_C 	C 	0.87	0.4023	0.8151	0.093
Mof_H 	H 	0.8802	0.3614	0.7803	-0.024
Mof_H 	H 	0.9566	0.5992	0.8921	0.102
Mof_N 	N 	0.8151	0.4023	0.87	-0.154
Mof_H 	H 	0.9563	0.5998	0.8905	0.106
Mof_N 	N 	0.59052	0.97247	0.68223	-0.225
Mof_C 	C 	0.63	0.9023	0.6849	0.091
Mof_H 	H 	0.6198	0.8614	0.7197	-0.034
Mof_H 	H 	0.5434	0.0992	0.6079	0.043
Mof_N 	N 	0.6849	0.9023	0.63	-0.154
Mof_H 	H 	0.5437	0.0998	0.6095	0.045
Mof_N 	N 	0.09052	0.47247	0.18223	-0.336
Mof_C 	C 	0.13	0.4023	0.1849	0.05
Mof_H 	H 	0.1198	0.3614	0.2197	-0.051
Mof_H 	H 	0.0434	0.5992	0.1079	0.04
Mof_N 	N 	0.1849	0.4023	0.13	-0.162
Mof_H 	H 	0.0437	0.5998	0.1095	0.042
Mof_N 	N 	0.59052	0.02753	0.31777	-0.418
Mof_C 	C 	0.63	0.0977	0.3151	0.058
Mof_H 	H 	0.6198	0.1386	0.2803	-0.035
Mof_H 	H 	0.5434	0.9008	0.3921	0.095
Mof_N 	N 	0.6849	0.0977	0.37	-0.161
Mof_H 	H 	0.5437	0.9002	0.3905	0.099
Mof_N 	N 	0.09052	0.52753	0.81777	-0.34
Mof_C 	C 	0.13	0.5977	0.8151	0.07
Mof_H 	H 	0.1198	0.6386	0.7803	-0.042
Mof_H 	H 	0.0434	0.4008	0.8921	0.059
Mof_N 	N 	0.1849	0.5977	0.87	-0.155
Mof_H 	H 	0.0437	0.4002	0.8905	0.062
Mof_N 	N 	0.68223	0.40948	0.02753	-0.417
Mof_C 	C 	0.6849	0.37	0.0977	0.059
Mof_H 	H 	0.7197	0.3802	0.1386	-0.035
Mof_H 	H 	0.6079	0.4566	0.9008	0.095
Mof_N 	N 	0.63	0.3151	0.0977	-0.161
Mof_H 	H 	0.6095	0.4563	0.9002	0.099
Mof_N 	N 	0.18223	0.90948	0.52753	-0.302
Mof_C 	C 	0.1849	0.87	0.5977	0.079
Mof_H 	H 	0.2197	0.8802	0.6386	-0.023
Mof_H 	H 	0.1079	0.9566	0.4008	0.076
Mof_N 	N 	0.13	0.8151	0.5977	-0.16
Mof_H 	H 	0.1095	0.9563	0.4002	0.078
Mof_N 	N 	0.31777	0.40948	0.97247	-0.226
Mof_C 	C 	0.3151	0.37	0.9023	0.083
Mof_H 	H 	0.2803	0.3802	0.8614	-0.036
Mof_H 	H 	0.3921	0.4566	0.0992	0.043
Mof_N 	N 	0.37	0.3151	0.9023	-0.155
Mof_H 	H 	0.3905	0.4563	0.0998	0.045
Mof_N 	N 	0.81777	0.90948	0.47247	-0.308
Mof_C 	C 	0.8151	0.87	0.4023	0.093
Mof_H 	H 	0.7803	0.8802	0.3614	-0.024
Mof_H 	H 	0.8921	0.9566	0.5992	0.102
Mof_N 	N 	0.87	0.8151	0.4023	-0.154
Mof_H 	H 	0.8905	0.9563	0.5998	0.106
Mof_N 	N 	0.68223	0.59052	0.97247	-0.225
Mof_C 	C 	0.6849	0.63	0.9023	0.091
Mof_H 	H 	0.7197	0.6198	0.8614	-0.034
Mof_H 	H 	0.6079	0.5434	0.0992	0.043
Mof_N 	N 	0.63	0.6849	0.9023	-0.154
Mof_H 	H 	0.6095	0.5437	0.0998	0.045
Mof_N 	N 	0.18223	0.09052	0.47247	-0.336
Mof_C 	C 	0.1849	0.13	0.4023	0.05
Mof_H 	H 	0.2197	0.1198	0.3614	-0.051
Mof_H 	H 	0.1079	0.0434	0.5992	0.04
Mof_N 	N 	0.13	0.1849	0.4023	-0.162
Mof_H 	H 	0.1095	0.0437	0.5998	0.042
Mof_N 	N 	0.31777	0.59052	0.02753	-0.418
Mof_C 	C 	0.3151	0.63	0.0977	0.058
Mof_H 	H 	0.2803	0.6198	0.1386	-0.035
Mof_H 	H 	0.3921	0.5434	0.9008	0.095
Mof_N 	N 	0.37	0.6849	0.0977	-0.161
Mof_H 	H 	0.3905	0.5437	0.9002	0.099
Mof_N 	N 	0.81777	0.09052	0.52753	-0.34
Mof_C 	C 	0.8151	0.13	0.5977	0.07
Mof_H 	H 	0.7803	0.1198	0.6386	-0.042
Mof_H 	H 	0.8921	0.0434	0.4008	0.059
Mof_N 	N 	0.87	0.1849	0.5977	-0.155
Mof_H 	H 	0.8905	0.0437	0.4002	0.062
Mof_N 	N 	0.68223	0.02753	0.40948	-0.382
Mof_H 	H 	0.7197	0.1386	0.3802	0.053
Mof_H 	H 	0.6079	0.9008	0.4566	0.095
Mof_H 	H 	0.6095	0.9002	0.4563	0.099
Mof_N 	N 	0.18223	0.52753	0.90948	-0.264
Mof_H 	H 	0.2197	0.6386	0.8802	0.071
Mof_H 	H 	0.1079	0.4008	0.9566	0.076
Mof_H 	H 	0.1095	0.4002	0.9563	0.078
Mof_N 	N 	0.31777	0.97247	0.40948	-0.187
Mof_H 	H 	0.2803	0.8614	0.3802	0.059
Mof_H 	H 	0.3921	0.0992	0.4566	0.043
Mof_H 	H 	0.3905	0.0998	0.4563	0.045
Mof_N 	N 	0.81777	0.47247	0.90948	-0.267
Mof_H 	H 	0.7803	0.3614	0.8802	0.075
Mof_H 	H 	0.8921	0.5992	0.9566	0.102
Mof_H 	H 	0.8905	0.5998	0.9563	0.106
Mof_N 	N 	0.68223	0.97247	0.59052	-0.185
Mof_H 	H 	0.7197	0.8614	0.6198	0.064
Mof_H 	H 	0.6079	0.0992	0.5434	0.043
Mof_H 	H 	0.6095	0.0998	0.5437	0.045
Mof_N 	N 	0.18223	0.47247	0.09052	-0.302
Mof_H 	H 	0.2197	0.3614	0.1198	0.034
Mof_H 	H 	0.1079	0.5992	0.0434	0.041
Mof_H 	H 	0.1095	0.5998	0.0437	0.042
Mof_N 	N 	0.31777	0.02753	0.59052	-0.382
Mof_H 	H 	0.2803	0.1386	0.6198	0.053
Mof_H 	H 	0.3921	0.9008	0.5434	0.095
Mof_H 	H 	0.3905	0.9002	0.5437	0.099
Mof_N 	N 	0.81777	0.52753	0.09052	-0.303
Mof_H 	H 	0.7803	0.6386	0.1198	0.05
Mof_H 	H 	0.8921	0.4008	0.0434	0.059
Mof_H 	H 	0.8905	0.4002	0.0437	0.063
Mof_N 	N 	0.02753	0.40948	0.68223	-0.382
Mof_H 	H 	0.1386	0.3802	0.7197	0.053
Mof_H 	H 	0.9008	0.4566	0.6079	0.095
Mof_H 	H 	0.9002	0.4563	0.6095	0.099
Mof_N 	N 	0.52753	0.90948	0.18223	-0.264
Mof_H 	H 	0.6386	0.8802	0.2197	0.071
Mof_H 	H 	0.4008	0.9566	0.1079	0.076
Mof_H 	H 	0.4002	0.9563	0.1095	0.078
Mof_N 	N 	0.97247	0.40948	0.31777	-0.187
Mof_H 	H 	0.8614	0.3802	0.2803	0.059
Mof_H 	H 	0.0992	0.4566	0.3921	0.043
Mof_H 	H 	0.0998	0.4563	0.3905	0.045
Mof_N 	N 	0.47247	0.90948	0.81777	-0.267
Mof_H 	H 	0.3614	0.8802	0.7803	0.075
Mof_H 	H 	0.5992	0.9566	0.8921	0.102
Mof_H 	H 	0.5998	0.9563	0.8905	0.106
Mof_N 	N 	0.97247	0.59052	0.68223	-0.185
Mof_H 	H 	0.8614	0.6198	0.7197	0.064
Mof_H 	H 	0.0992	0.5434	0.6079	0.043
Mof_H 	H 	0.0998	0.5437	0.6095	0.045
Mof_N 	N 	0.47247	0.09052	0.18223	-0.302
Mof_H 	H 	0.3614	0.1198	0.2197	0.034
Mof_H 	H 	0.5992	0.0434	0.1079	0.041
Mof_H 	H 	0.5998	0.0437	0.1095	0.042
Mof_N 	N 	0.02753	0.59052	0.31777	-0.382
Mof_H 	H 	0.1386	0.6198	0.2803	0.053
Mof_H 	H 	0.9008	0.5434	0.3921	0.095
Mof_H 	H 	0.9002	0.5437	0.3905	0.099
Mof_N 	N 	0.52753	0.09052	0.81777	-0.303
Mof_H 	H 	0.6386	0.1198	0.7803	0.05
Mof_H 	H 	0.4008	0.0434	0.8921	0.059
Mof_H 	H 	0.4002	0.0437	0.8905	0.063
Mof_N 	N 	0.40948	0.68223	0.02753	-0.382
Mof_H 	H 	0.3802	0.7197	0.1386	0.053
Mof_H 	H 	0.4566	0.6079	0.9008	0.095
Mof_H 	H 	0.4563	0.6095	0.9002	0.099
Mof_N 	N 	0.90948	0.18223	0.52753	-0.264
Mof_H 	H 	0.8802	0.2197	0.6386	0.071
Mof_H 	H 	0.9566	0.1079	0.4008	0.076
Mof_H 	H 	0.9563	0.1095	0.4002	0.078
Mof_N 	N 	0.40948	0.31777	0.97247	-0.187
Mof_H 	H 	0.3802	0.2803	0.8614	0.059
Mof_H 	H 	0.4566	0.3921	0.0992	0.043
Mof_H 	H 	0.4563	0.3905	0.0998	0.045
Mof_N 	N 	0.90948	0.81777	0.47247	-0.267
Mof_H 	H 	0.8802	0.7803	0.3614	0.075
Mof_H 	H 	0.9566	0.8921	0.5992	0.102
Mof_H 	H 	0.9563	0.8905	0.5998	0.106
Mof_N 	N 	0.59052	0.68223	0.97247	-0.185
Mof_H 	H 	0.6198	0.7197	0.8614	0.064
Mof_H 	H 	0.5434	0.6079	0.0992	0.043
Mof_H 	H 	0.5437	0.6095	0.0998	0.045
Mof_N 	N 	0.09052	0.18223	0.47247	-0.302
Mof_H 	H 	0.1198	0.2197	0.3614	0.034
Mof_H 	H 	0.0434	0.1079	0.5992	0.041
Mof_H 	H 	0.0437	0.1095	0.5998	0.042
Mof_N 	N 	0.59052	0.31777	0.02753	-0.382
Mof_H 	H 	0.6198	0.2803	0.1386	0.053
Mof_H 	H 	0.5434	0.3921	0.9008	0.095
Mof_H 	H 	0.5437	0.3905	0.9002	0.099
Mof_N 	N 	0.09052	0.81777	0.52753	-0.303
Mof_H 	H 	0.1198	0.7803	0.6386	0.05
Mof_H 	H 	0.0434	0.8921	0.4008	0.059
Mof_H 	H 	0.0437	0.8905	0.4002	0.063
Mof_Zn	Zn	6.99562e-33	0.75	0.5	1.141
Mof_Zn	Zn	1.8747e-33	0.25	0.5	1.139
Mof_Zn	Zn	0.5	0	0.75	1.141
Mof_Zn	Zn	0.5	0	0.25	1.139
Mof_Zn	Zn	0.75	0.5	-0	1.141
Mof_Zn	Zn	0.25	0.5	-0	1.139
Mof_Zn	Zn	0.75	0	0.5	1.141
Mof_Zn	Zn	0.25	0	0.5	1.139
Mof_Zn	Zn	7.93297e-33	0.5	0.75	1.141
Mof_Zn	Zn	9.3735e-34	0.5	0.25	1.139
Mof_Zn	Zn	0.5	0.75	-0	1.141
Mof_Zn	Zn	0.5	0.25	-0	1.139
Mof_C 	C 	0.9882	0.62382	0.37619	0.443
Mof_C 	C 	0.907	0.5987	0.4013	-0.738
Mof_H 	H 	0.8685	0.62775	0.37225	0.226
Mof_C 	C 	0.4882	0.12381	0.87618	0.219
Mof_C 	C 	0.407	0.0987	0.9013	-0.574
Mof_H 	H 	0.3685	0.12775	0.87225	0.169
Mof_C 	C 	0.0118	0.37618	0.37619	-0.004
Mof_C 	C 	0.093	0.4013	0.4013	-0.42
Mof_H 	H 	0.1315	0.37225	0.37225	0.121
Mof_C 	C 	0.5118	0.87618	0.87618	0.269
Mof_C 	C 	0.593	0.9013	0.9013	-0.657
Mof_H 	H 	0.6315	0.87225	0.87225	0.221
Mof_C 	C 	0.0118	0.62382	0.62381	-0
Mof_C 	C 	0.093	0.5987	0.5987	-0.423
Mof_H 	H 	0.1315	0.62775	0.62775	0.124
Mof_C 	C 	0.5118	0.12381	0.12381	0.175
Mof_C 	C 	0.593	0.0987	0.0987	-0.515
Mof_H 	H 	0.6315	0.12775	0.12775	0.139
Mof_C 	C 	0.9882	0.37618	0.62381	0.443
Mof_C 	C 	0.907	0.4013	0.5987	-0.738
Mof_H 	H 	0.8685	0.37225	0.62775	0.226
Mof_C 	C 	0.4882	0.87618	0.12381	0.219
Mof_C 	C 	0.407	0.9013	0.0987	-0.574
Mof_H 	H 	0.3685	0.87225	0.12775	0.169
Mof_C 	C 	0.37619	0.9882	0.62382	0.443
Mof_C 	C 	0.4013	0.907	0.5987	-0.738
Mof_H 	H 	0.37225	0.8685	0.62775	0.226
Mof_C 	C 	0.87618	0.4882	0.12381	0.219
Mof_C 	C 	0.9013	0.407	0.0987	-0.574
Mof_H 	H 	0.87225	0.3685	0.12775	0.169
Mof_C 	C 	0.37619	0.0118	0.37618	-0.004
Mof_C 	C 	0.4013	0.093	0.4013	-0.42
Mof_H 	H 	0.37225	0.1315	0.37225	0.121
Mof_C 	C 	0.87618	0.5118	0.87618	0.269
Mof_C 	C 	0.9013	0.593	0.9013	-0.657
Mof_H 	H 	0.87225	0.6315	0.87225	0.221
Mof_C 	C 	0.62381	0.0118	0.62382	-0
Mof_C 	C 	0.5987	0.093	0.5987	-0.423
Mof_H 	H 	0.62775	0.1315	0.62775	0.124
Mof_C 	C 	0.12381	0.5118	0.12381	0.175
Mof_C 	C 	0.0987	0.593	0.0987	-0.515
Mof_H 	H 	0.12775	0.6315	0.12775	0.139
Mof_C 	C 	0.62381	0.9882	0.37618	0.443
Mof_C 	C 	0.5987	0.907	0.4013	-0.738
Mof_H 	H 	0.62775	0.8685	0.37225	0.226
Mof_C 	C 	0.12381	0.4882	0.87618	0.219
Mof_C 	C 	0.0987	0.407	0.9013	-0.574
Mof_H 	H 	0.12775	0.3685	0.87225	0.169
Mof_C 	C 	0.62382	0.37619	0.9882	0.443
Mof_C 	C 	0.5987	0.4013	0.907	-0.738
Mof_H 	H 	0.62775	0.37225	0.8685	0.226
Mof_C 	C 	0.12381	0.87618	0.4882	0.219
Mof_C 	C 	0.0987	0.9013	0.407	-0.574
Mof_H 	H 	0.12775	0.87225	0.3685	0.169
Mof_C 	C 	0.37618	0.37619	0.0118	-0.004
Mof_C 	C 	0.4013	0.4013	0.093	-0.42
Mof_H 	H 	0.37225	0.37225	0.1315	0.121
Mof_C 	C 	0.87618	0.87618	0.5118	0.269
Mof_C 	C 	0.9013	0.9013	0.593	-0.657
Mof_H 	H 	0.87225	0.87225	0.6315	0.221
Mof_C 	C 	0.62382	0.62381	0.0118	-0
Mof_C 	C 	0.5987	0.5987	0.093	-0.423
Mof_H 	H 	0.62775	0.62775	0.1315	0.124
Mof_C 	C 	0.12381	0.12381	0.5118	0.175
Mof_C 	C 	0.0987	0.0987	0.593	-0.515
Mof_H 	H 	0.12775	0.12775	0.6315	0.139
Mof_C 	C 	0.37618	0.62381	0.9882	0.443
Mof_C 	C 	0.4013	0.5987	0.907	-0.738
Mof_H 	H 	0.37225	0.62775	0.8685	0.226
Mof_C 	C 	0.87618	0.12381	0.4882	0.219
Mof_C 	C 	0.9013	0.0987	0.407	-0.574
Mof_H 	H 	0.87225	0.12775	0.3685	0.169
_end
