data_functionalizedCrystal
_audit_creation_method	'EQeq! by Chris Wilmer'
_symmetry_space_group_name_H-M	'P1'
_symmetry_Int_Tables_number	1
_symmetry_cell_setting	triclinic
loop_
_symmetry_equiv_pos_as_xyz
  x,y,z
_cell_length_a	21.3799
_cell_length_b	21.4597
_cell_length_c	27.944
_cell_angle_alpha	90
_cell_angle_beta	90
_cell_angle_gamma	90
loop_
_atom_site_label
_atom_site_type_symbol
_atom_site_fract_x
_atom_site_fract_y
_atom_site_fract_z
_atom_site_charge
Mof_C 	C 	0.77457	0.22502	0.25067	-0.005
Mof_C 	C 	0.85811	0.17215	0.28851	-0.03
Mof_H 	H 	0.8841	0.1679	0.315	0.063
Mof_C 	C 	0.814	0.21656	0.28946	0.008
Mof_C 	C 	0.9607	0.0368	0.1011	0.034
Mof_C 	C 	0.9593	0.0395	0.052	0.005
Mof_C 	C 	0.91591	0.08392	0.25049	0.388
Mof_O 	O 	0.92671	0.05725	0.21112	-0.454
Mof_O 	O 	0.94273	0.07342	0.2886	-0.455
Mof_C 	C 	0.86675	0.13325	0.25105	-0.069
Mof_C 	C 	0.8287	0.14163	0.21149	-0.031
Mof_H 	H 	0.8342	0.1163	0.1848	0.06
Mof_C 	C 	0.7837	0.18595	0.21077	0.006
Mof_C 	C 	0.0522	0.0138	0.1016	0.001
Mof_C 	C 	0.0124	0.0532	0.1007	-0.006
Mof_C 	C 	0.0149	0.0538	0.0521	-0.011
Mof_C 	C 	0.9462	0.9861	0.052	0.027
Mof_C 	C 	0.27457	0.72502	0.25067	-0.003
Mof_C 	C 	0.35811	0.67215	0.28851	-0.028
Mof_H 	H 	0.3841	0.6679	0.315	0.062
Mof_C 	C 	0.314	0.71656	0.28946	0.008
Mof_C 	C 	0.4607	0.5368	0.1011	0.022
Mof_C 	C 	0.4593	0.5395	0.052	-0.01
Mof_C 	C 	0.41591	0.58392	0.25049	0.391
Mof_O 	O 	0.42671	0.55725	0.21112	-0.46
Mof_O 	O 	0.44273	0.57342	0.2886	-0.465
Mof_C 	C 	0.36675	0.63325	0.25105	-0.072
Mof_C 	C 	0.3287	0.64163	0.21149	-0.03
Mof_H 	H 	0.3342	0.6163	0.1848	0.061
Mof_C 	C 	0.2837	0.68595	0.21077	0.005
Mof_C 	C 	0.5522	0.5138	0.1016	0.023
Mof_C 	C 	0.5124	0.5532	0.1007	0.018
Mof_C 	C 	0.5149	0.5538	0.0521	-0.007
Mof_C 	C 	0.4462	0.4861	0.052	-0.011
Mof_C 	C 	0.22543	0.77498	0.25067	-0.004
Mof_C 	C 	0.14189	0.82785	0.28851	-0.028
Mof_H 	H 	0.1159	0.8321	0.315	0.059
Mof_C 	C 	0.186	0.78344	0.28946	0.004
Mof_C 	C 	0.0393	0.9632	0.1011	0.035
Mof_C 	C 	0.0407	0.9605	0.052	0.008
Mof_C 	C 	0.08409	0.91608	0.25049	0.388
Mof_O 	O 	0.07329	0.94275	0.21112	-0.45
Mof_O 	O 	0.05727	0.92658	0.2886	-0.461
Mof_C 	C 	0.13325	0.86675	0.25105	-0.07
Mof_C 	C 	0.1713	0.85837	0.21149	-0.033
Mof_H 	H 	0.1658	0.8837	0.1848	0.066
Mof_C 	C 	0.2163	0.81405	0.21077	0.01
Mof_C 	C 	0.9478	0.9862	0.1016	0.05
Mof_C 	C 	0.9876	0.9468	0.1007	0.041
Mof_C 	C 	0.9851	0.9462	0.0521	0.026
Mof_C 	C 	0.0538	0.0139	0.052	-0.02
Mof_C 	C 	0.72543	0.27498	0.25067	-0.003
Mof_C 	C 	0.64189	0.32785	0.28851	-0.026
Mof_H 	H 	0.6159	0.3321	0.315	0.06
Mof_C 	C 	0.686	0.28344	0.28946	0.004
Mof_C 	C 	0.5393	0.4632	0.1011	0.022
Mof_C 	C 	0.5407	0.4605	0.052	-0.01
Mof_C 	C 	0.58409	0.41608	0.25049	0.391
Mof_O 	O 	0.57329	0.44275	0.21112	-0.459
Mof_O 	O 	0.55727	0.42658	0.2886	-0.466
Mof_C 	C 	0.63325	0.36675	0.25105	-0.071
Mof_C 	C 	0.6713	0.35837	0.21149	-0.031
Mof_H 	H 	0.6658	0.3837	0.1848	0.064
Mof_C 	C 	0.7163	0.31405	0.21077	0.009
Mof_C 	C 	0.4478	0.4862	0.1016	0.022
Mof_C 	C 	0.4876	0.4468	0.1007	0.016
Mof_C 	C 	0.4851	0.4462	0.0521	-0.008
Mof_C 	C 	0.5538	0.5139	0.052	-0.008
Mof_C 	C 	0.22543	0.22502	0.24933	-0.002
Mof_C 	C 	0.14189	0.17215	0.21149	-0.022
Mof_H 	H 	0.1159	0.1679	0.185	0.054
Mof_C 	C 	0.186	0.21656	0.21054	-0.003
Mof_C 	C 	0.0393	0.0368	0.3989	-0.066
Mof_C 	C 	0.0407	0.0395	0.448	-0.207
Mof_C 	C 	0.08409	0.08392	0.24951	0.391
Mof_O 	O 	0.07329	0.05725	0.28888	-0.476
Mof_O 	O 	0.05727	0.07342	0.2114	-0.48
Mof_C 	C 	0.13325	0.13325	0.24895	-0.083
Mof_C 	C 	0.1713	0.14163	0.28851	-0.026
Mof_H 	H 	0.1658	0.1163	0.3152	0.055
Mof_C 	C 	0.2163	0.18595	0.28923	-0.002
Mof_C 	C 	0.9478	0.0138	0.3984	-0.035
Mof_C 	C 	0.9876	0.0532	0.3993	0.089
Mof_C 	C 	0.9851	0.0538	0.4479	0.197
Mof_C 	C 	0.0538	0.9861	0.448	0.201
Mof_C 	C 	0.72543	0.72502	0.24933	-0.002
Mof_C 	C 	0.64189	0.67215	0.21149	-0.029
Mof_H 	H 	0.6159	0.6679	0.185	0.064
Mof_C 	C 	0.686	0.71656	0.21054	0.011
Mof_C 	C 	0.5393	0.5368	0.3989	0.023
Mof_C 	C 	0.5407	0.5395	0.448	-0.009
Mof_C 	C 	0.58409	0.58392	0.24951	0.39
Mof_O 	O 	0.57329	0.55725	0.28888	-0.458
Mof_O 	O 	0.55727	0.57342	0.2114	-0.465
Mof_C 	C 	0.63325	0.63325	0.24895	-0.068
Mof_C 	C 	0.6713	0.64163	0.28851	-0.033
Mof_H 	H 	0.6658	0.6163	0.3152	0.065
Mof_C 	C 	0.7163	0.68595	0.28923	0.013
Mof_C 	C 	0.4478	0.5138	0.3984	0.022
Mof_C 	C 	0.4876	0.5532	0.3993	0.017
Mof_C 	C 	0.4851	0.5538	0.4479	-0.007
Mof_C 	C 	0.5538	0.4861	0.448	-0.008
Mof_C 	C 	0.77457	0.77498	0.24933	-0.005
Mof_C 	C 	0.85811	0.82785	0.21149	-0.034
Mof_H 	H 	0.8841	0.8321	0.185	0.069
Mof_C 	C 	0.814	0.78344	0.21054	0.016
Mof_C 	C 	0.9607	0.9632	0.3989	0.112
Mof_C 	C 	0.9593	0.9605	0.448	0.207
Mof_C 	C 	0.91591	0.91608	0.24951	0.385
Mof_O 	O 	0.92671	0.94275	0.28888	-0.432
Mof_O 	O 	0.94273	0.92658	0.2114	-0.44
Mof_C 	C 	0.86675	0.86675	0.24895	-0.058
Mof_C 	C 	0.8287	0.85837	0.28851	-0.036
Mof_H 	H 	0.8342	0.8837	0.3152	0.07
Mof_C 	C 	0.7837	0.81405	0.28923	0.017
Mof_C 	C 	0.0522	0.9862	0.3984	0.099
Mof_C 	C 	0.0124	0.9468	0.3993	-0.043
Mof_C 	C 	0.0149	0.9462	0.4479	-0.175
Mof_C 	C 	0.9462	0.0139	0.448	-0.185
Mof_C 	C 	0.27457	0.27498	0.24933	-0.004
Mof_C 	C 	0.35811	0.32785	0.21149	-0.025
Mof_H 	H 	0.3841	0.3321	0.185	0.058
Mof_C 	C 	0.314	0.28344	0.21054	0.001
Mof_C 	C 	0.4607	0.4632	0.3989	0.021
Mof_C 	C 	0.4593	0.4605	0.448	-0.011
Mof_C 	C 	0.41591	0.41608	0.24951	0.391
Mof_O 	O 	0.42671	0.44275	0.28888	-0.46
Mof_O 	O 	0.44273	0.42658	0.2114	-0.467
Mof_C 	C 	0.36675	0.36675	0.24895	-0.075
Mof_C 	C 	0.3287	0.35837	0.28851	-0.029
Mof_H 	H 	0.3342	0.3837	0.3152	0.06
Mof_C 	C 	0.2837	0.31405	0.28923	0.002
Mof_C 	C 	0.5522	0.4862	0.3984	0.022
Mof_C 	C 	0.5124	0.4468	0.3993	0.017
Mof_C 	C 	0.5149	0.4462	0.4479	-0.008
Mof_C 	C 	0.4462	0.5139	0.448	-0.01
Mof_C 	C 	0.22543	0.77498	0.74933	-0.004
Mof_C 	C 	0.14189	0.82785	0.71149	-0.028
Mof_H 	H 	0.1159	0.8321	0.685	0.059
Mof_C 	C 	0.186	0.78344	0.71054	0.004
Mof_C 	C 	0.0393	0.9632	0.8989	0.035
Mof_C 	C 	0.0407	0.9605	0.948	0.008
Mof_C 	C 	0.08409	0.91608	0.74951	0.388
Mof_O 	O 	0.07329	0.94275	0.78888	-0.45
Mof_O 	O 	0.05727	0.92658	0.7114	-0.461
Mof_C 	C 	0.13325	0.86675	0.74895	-0.07
Mof_C 	C 	0.1713	0.85837	0.78851	-0.033
Mof_H 	H 	0.1658	0.8837	0.8152	0.066
Mof_C 	C 	0.2163	0.81405	0.78923	0.01
Mof_C 	C 	0.9478	0.9862	0.8984	0.05
Mof_C 	C 	0.9876	0.9468	0.8993	0.041
Mof_C 	C 	0.9851	0.9462	0.9479	0.026
Mof_C 	C 	0.0538	0.0139	0.948	-0.02
Mof_C 	C 	0.72543	0.27498	0.74933	-0.003
Mof_C 	C 	0.64189	0.32785	0.71149	-0.026
Mof_H 	H 	0.6159	0.3321	0.685	0.06
Mof_C 	C 	0.686	0.28344	0.71054	0.004
Mof_C 	C 	0.5393	0.4632	0.8989	0.022
Mof_C 	C 	0.5407	0.4605	0.948	-0.01
Mof_C 	C 	0.58409	0.41608	0.74951	0.391
Mof_O 	O 	0.57329	0.44275	0.78888	-0.459
Mof_O 	O 	0.55727	0.42658	0.7114	-0.466
Mof_C 	C 	0.63325	0.36675	0.74895	-0.071
Mof_C 	C 	0.6713	0.35837	0.78851	-0.031
Mof_H 	H 	0.6658	0.3837	0.8152	0.064
Mof_C 	C 	0.7163	0.31405	0.78923	0.009
Mof_C 	C 	0.4478	0.4862	0.8984	0.022
Mof_C 	C 	0.4876	0.4468	0.8993	0.016
Mof_C 	C 	0.4851	0.4462	0.9479	-0.008
Mof_C 	C 	0.5538	0.5139	0.948	-0.008
Mof_C 	C 	0.77457	0.22502	0.74933	-0.004
Mof_C 	C 	0.85811	0.17215	0.71149	-0.029
Mof_H 	H 	0.8841	0.1679	0.685	0.064
Mof_C 	C 	0.814	0.21656	0.71054	0.009
Mof_C 	C 	0.9607	0.0368	0.8989	0.034
Mof_C 	C 	0.9593	0.0395	0.948	0.005
Mof_C 	C 	0.91591	0.08392	0.74951	0.388
Mof_O 	O 	0.92671	0.05725	0.78888	-0.454
Mof_O 	O 	0.94273	0.07342	0.7114	-0.455
Mof_C 	C 	0.86675	0.13325	0.74895	-0.069
Mof_C 	C 	0.8287	0.14163	0.78851	-0.031
Mof_H 	H 	0.8342	0.1163	0.8152	0.06
Mof_C 	C 	0.7837	0.18595	0.78923	0.006
Mof_C 	C 	0.0522	0.0138	0.8984	0.001
Mof_C 	C 	0.0124	0.0532	0.8993	-0.006
Mof_C 	C 	0.0149	0.0538	0.9479	-0.011
Mof_C 	C 	0.9462	0.9861	0.948	0.027
Mof_C 	C 	0.27457	0.72502	0.74933	-0.003
Mof_C 	C 	0.35811	0.67215	0.71149	-0.028
Mof_H 	H 	0.3841	0.6679	0.685	0.062
Mof_C 	C 	0.314	0.71656	0.71054	0.008
Mof_C 	C 	0.4607	0.5368	0.8989	0.022
Mof_C 	C 	0.4593	0.5395	0.948	-0.01
Mof_C 	C 	0.41591	0.58392	0.74951	0.391
Mof_O 	O 	0.42671	0.55725	0.78888	-0.46
Mof_O 	O 	0.44273	0.57342	0.7114	-0.465
Mof_C 	C 	0.36675	0.63325	0.74895	-0.072
Mof_C 	C 	0.3287	0.64163	0.78851	-0.03
Mof_H 	H 	0.3342	0.6163	0.8152	0.061
Mof_C 	C 	0.2837	0.68595	0.78923	0.005
Mof_C 	C 	0.5522	0.5138	0.8984	0.023
Mof_C 	C 	0.5124	0.5532	0.8993	0.018
Mof_C 	C 	0.5149	0.5538	0.9479	-0.007
Mof_C 	C 	0.4462	0.4861	0.948	-0.011
Mof_C 	C 	0.77457	0.77498	0.75067	-0.005
Mof_C 	C 	0.85811	0.82785	0.78851	-0.034
Mof_H 	H 	0.8841	0.8321	0.815	0.069
Mof_C 	C 	0.814	0.78344	0.78946	0.016
Mof_C 	C 	0.9607	0.9632	0.6011	0.112
Mof_C 	C 	0.9593	0.9605	0.552	0.207
Mof_C 	C 	0.91591	0.91608	0.75049	0.385
Mof_O 	O 	0.92671	0.94275	0.71112	-0.432
Mof_O 	O 	0.94273	0.92658	0.7886	-0.44
Mof_C 	C 	0.86675	0.86675	0.75105	-0.058
Mof_C 	C 	0.8287	0.85837	0.71149	-0.036
Mof_H 	H 	0.8342	0.8837	0.6848	0.07
Mof_C 	C 	0.7837	0.81405	0.71077	0.017
Mof_C 	C 	0.0522	0.9862	0.6016	0.099
Mof_C 	C 	0.0124	0.9468	0.6007	-0.043
Mof_C 	C 	0.0149	0.9462	0.5521	-0.175
Mof_C 	C 	0.9462	0.0139	0.552	-0.185
Mof_C 	C 	0.27457	0.27498	0.75067	-0.004
Mof_C 	C 	0.35811	0.32785	0.78851	-0.025
Mof_H 	H 	0.3841	0.3321	0.815	0.058
Mof_C 	C 	0.314	0.28344	0.78946	0.001
Mof_C 	C 	0.4607	0.4632	0.6011	0.021
Mof_C 	C 	0.4593	0.4605	0.552	-0.011
Mof_C 	C 	0.41591	0.41608	0.75049	0.391
Mof_O 	O 	0.42671	0.44275	0.71112	-0.46
Mof_O 	O 	0.44273	0.42658	0.7886	-0.467
Mof_C 	C 	0.36675	0.36675	0.75105	-0.075
Mof_C 	C 	0.3287	0.35837	0.71149	-0.029
Mof_H 	H 	0.3342	0.3837	0.6848	0.06
Mof_C 	C 	0.2837	0.31405	0.71077	0.002
Mof_C 	C 	0.5522	0.4862	0.6016	0.022
Mof_C 	C 	0.5124	0.4468	0.6007	0.017
Mof_C 	C 	0.5149	0.4462	0.5521	-0.008
Mof_C 	C 	0.4462	0.5139	0.552	-0.01
Mof_C 	C 	0.22543	0.22502	0.75067	-0.002
Mof_C 	C 	0.14189	0.17215	0.78851	-0.022
Mof_H 	H 	0.1159	0.1679	0.815	0.054
Mof_C 	C 	0.186	0.21656	0.78946	-0.003
Mof_C 	C 	0.0393	0.0368	0.6011	-0.066
Mof_C 	C 	0.0407	0.0395	0.552	-0.207
Mof_C 	C 	0.08409	0.08392	0.75049	0.391
Mof_O 	O 	0.07329	0.05725	0.71112	-0.476
Mof_O 	O 	0.05727	0.07342	0.7886	-0.48
Mof_C 	C 	0.13325	0.13325	0.75105	-0.083
Mof_C 	C 	0.1713	0.14163	0.71149	-0.026
Mof_H 	H 	0.1658	0.1163	0.6848	0.055
Mof_C 	C 	0.2163	0.18595	0.71077	-0.002
Mof_C 	C 	0.9478	0.0138	0.6016	-0.035
Mof_C 	C 	0.9876	0.0532	0.6007	0.089
Mof_C 	C 	0.9851	0.0538	0.5521	0.197
Mof_C 	C 	0.0538	0.9861	0.552	0.201
Mof_C 	C 	0.72543	0.72502	0.75067	-0.002
Mof_C 	C 	0.64189	0.67215	0.78851	-0.029
Mof_H 	H 	0.6159	0.6679	0.815	0.064
Mof_C 	C 	0.686	0.71656	0.78946	0.011
Mof_C 	C 	0.5393	0.5368	0.6011	0.023
Mof_C 	C 	0.5407	0.5395	0.552	-0.009
Mof_C 	C 	0.58409	0.58392	0.75049	0.39
Mof_O 	O 	0.57329	0.55725	0.71112	-0.458
Mof_O 	O 	0.55727	0.57342	0.7886	-0.465
Mof_C 	C 	0.63325	0.63325	0.75105	-0.068
Mof_C 	C 	0.6713	0.64163	0.71149	-0.033
Mof_H 	H 	0.6658	0.6163	0.6848	0.065
Mof_C 	C 	0.7163	0.68595	0.71077	0.013
Mof_C 	C 	0.4478	0.5138	0.6016	0.022
Mof_C 	C 	0.4876	0.5532	0.6007	0.017
Mof_C 	C 	0.4851	0.5538	0.5521	-0.007
Mof_C 	C 	0.5538	0.4861	0.552	-0.008
Mof_N 	N 	6.15019e-34	0	0.1255	-0.288
Mof_C 	C 	1.29668e-34	0	0.02646	-0.061
Mof_Zn	Zn	2.94047e-33	1.96894e-33	0.19825	1.199
Mof_N 	N 	0.5	0.5	0.1255	-0.244
Mof_C 	C 	0.5	0.5	0.02646	0.015
Mof_Zn	Zn	0.5	0.5	0.19825	1.218
Mof_N 	N 	1.83526e-33	-3.93788e-33	0.3745	-0.289
Mof_C 	C 	2.32061e-33	0	0.47354	-0.063
Mof_Zn	Zn	1.47874e-33	0	0.30175	1.199
Mof_N 	N 	0.5	0.5	0.3745	-0.244
Mof_C 	C 	0.5	0.5	0.47354	0.015
Mof_Zn	Zn	0.5	0.5	0.30175	1.218
Mof_N 	N 	4.28553e-33	0	0.8745	-0.288
Mof_C 	C 	4.77088e-33	0	0.97354	-0.061
Mof_Zn	Zn	1.18048e-32	0	0.80175	1.199
Mof_N 	N 	0.5	0.5	0.8745	-0.244
Mof_C 	C 	0.5	0.5	0.97354	0.015
Mof_Zn	Zn	0.5	0.5	0.80175	1.218
Mof_N 	N 	3.06529e-33	0	0.6255	-0.289
Mof_C 	C 	2.57994e-33	0	0.52646	-0.063
Mof_Zn	Zn	1.12976e-32	0	0.69825	1.199
Mof_N 	N 	0.5	0.5	0.6255	-0.244
Mof_C 	C 	0.5	0.5	0.52646	0.015
Mof_Zn	Zn	0.5	0.5	0.69825	1.218
_end
