data_functionalizedCrystal
_audit_creation_method	'EQeq! by Chris Wilmer'
_symmetry_space_group_name_H-M	'P1'
_symmetry_Int_Tables_number	1
_symmetry_cell_setting	triclinic
loop_
_symmetry_equiv_pos_as_xyz
  x,y,z
_cell_length_a	8.669
_cell_length_b	17.932
_cell_length_c	9.097
_cell_angle_alpha	90
_cell_angle_beta	108.32
_cell_angle_gamma	90
loop_
_atom_site_label
_atom_site_type_symbol
_atom_site_fract_x
_atom_site_fract_y
_atom_site_fract_z
_atom_site_charge
Mof_Ga	Ga	0.1327	0.6082	0.666	4.611
Mof_Ga	Ga	0.0692	0.7938	0.7993	4.685
Mof_Ga	Ga	0.513	0.8257	0.699	4.444
Mof_P 	P 	0.3395	0.9298	0.8718	1.233
Mof_P 	P 	0.2983	0.7126	0.4823	1.2
Mof_P 	P 	0.2539	0.664	0.007	1.124
Mof_O 	O 	0.1058	0.6436	0.0566	-1.374
Mof_O 	O 	0.2491	0.6096	0.8748	-1.242
Mof_O 	O 	0.2804	0.0085	0.8324	-1.099
Mof_O 	O 	0.2657	0.6411	0.5546	-1.329
Mof_O 	O 	0.1913	0.8803	0.8216	-1.302
Mof_O 	O 	0.4241	0.9223	0.0466	-1.268
Mof_O 	O 	0.2477	0.7453	0.9539	-1.253
Mof_O 	O 	0.4501	0.7004	0.4379	-1.37
Mof_O 	O 	0.4109	0.6512	0.1376	-1.14
Mof_O 	O 	0.3249	0.7779	0.5981	-1.419
Mof_O 	O 	0.1508	0.7344	0.3432	-1.381
Mof_O 	O 	0.4608	0.9095	0.7856	-1.41
Mof_O 	O 	0.0298	0.7056	0.6794	-1.745
Mof_Ga	Ga	0.3673	0.1082	0.834	4.616
Mof_Ga	Ga	0.4308	0.2938	0.7007	4.738
Mof_Ga	Ga	0.987	0.3257	0.801	4.393
Mof_P 	P 	0.1605	0.4298	0.6282	1.248
Mof_P 	P 	0.2017	0.2126	0.0177	1.184
Mof_P 	P 	0.2461	0.164	0.493	1.127
Mof_O 	O 	0.3942	0.1436	0.4434	-1.382
Mof_O 	O 	0.2509	0.1096	0.6252	-1.24
Mof_O 	O 	0.2196	0.5085	0.6676	-1.108
Mof_O 	O 	0.2343	0.1411	0.9454	-1.32
Mof_O 	O 	0.3087	0.3803	0.6784	-1.305
Mof_O 	O 	0.0759	0.4223	0.4534	-1.265
Mof_O 	O 	0.2523	0.2453	0.5461	-1.254
Mof_O 	O 	0.0499	0.2004	0.0621	-1.351
Mof_O 	O 	0.0891	0.1512	0.3624	-1.123
Mof_O 	O 	0.1751	0.2779	0.9019	-1.397
Mof_O 	O 	0.3492	0.2344	0.1568	-1.385
Mof_O 	O 	0.0392	0.4095	0.7144	-1.389
Mof_O 	O 	0.4702	0.2056	0.8206	-1.751
Mof_Ga	Ga	0.8673	0.3918	0.334	4.61
Mof_Ga	Ga	0.9308	0.2062	0.2007	4.684
Mof_Ga	Ga	0.487	0.1743	0.301	4.444
Mof_P 	P 	0.6605	0.0702	0.1282	1.233
Mof_P 	P 	0.7017	0.2874	0.5177	1.2
Mof_P 	P 	0.7461	0.336	0.993	1.124
Mof_O 	O 	0.8942	0.3564	0.9434	-1.374
Mof_O 	O 	0.7509	0.3904	0.1252	-1.242
Mof_O 	O 	0.7196	0.9915	0.1676	-1.099
Mof_O 	O 	0.7343	0.3589	0.4454	-1.329
Mof_O 	O 	0.8087	0.1197	0.1784	-1.302
Mof_O 	O 	0.5759	0.0777	0.9534	-1.268
Mof_O 	O 	0.7523	0.2547	0.0461	-1.253
Mof_O 	O 	0.5499	0.2996	0.5621	-1.37
Mof_O 	O 	0.5891	0.3488	0.8624	-1.14
Mof_O 	O 	0.6751	0.2221	0.4019	-1.419
Mof_O 	O 	0.8492	0.2656	0.6568	-1.381
Mof_O 	O 	0.5392	0.0905	0.2144	-1.41
Mof_O 	O 	0.9702	0.2944	0.3206	-1.745
Mof_Ga	Ga	0.6327	0.8918	0.166	4.616
Mof_Ga	Ga	0.5692	0.7062	0.2993	4.738
Mof_Ga	Ga	0.013	0.6743	0.199	4.393
Mof_P 	P 	0.8395	0.5702	0.3718	1.248
Mof_P 	P 	0.7983	0.7874	0.9823	1.184
Mof_P 	P 	0.7539	0.836	0.507	1.127
Mof_O 	O 	0.6058	0.8564	0.5566	-1.382
Mof_O 	O 	0.7491	0.8904	0.3748	-1.24
Mof_O 	O 	0.7804	0.4915	0.3324	-1.108
Mof_O 	O 	0.7657	0.8589	0.0546	-1.32
Mof_O 	O 	0.6913	0.6197	0.3216	-1.305
Mof_O 	O 	0.9241	0.5777	0.5466	-1.265
Mof_O 	O 	0.7477	0.7547	0.4539	-1.254
Mof_O 	O 	0.9501	0.7996	0.9379	-1.351
Mof_O 	O 	0.9109	0.8488	0.6376	-1.123
Mof_O 	O 	0.8249	0.7221	0.0981	-1.397
Mof_O 	O 	0.6508	0.7656	0.8432	-1.385
Mof_O 	O 	0.9608	0.5905	0.2856	-1.389
Mof_O 	O 	0.5298	0.7944	0.1794	-1.751
_end
