data_functionalizedCrystal
_audit_creation_method	'EQeq! by Chris Wilmer'
_symmetry_space_group_name_H-M	'P1'
_symmetry_Int_Tables_number	1
_symmetry_cell_setting	triclinic
loop_
_symmetry_equiv_pos_as_xyz
  x,y,z
_cell_length_a	18.3555
_cell_length_b	18.3555
_cell_length_c	52.4245
_cell_angle_alpha	90
_cell_angle_beta	90
_cell_angle_gamma	120
loop_
_atom_site_label
_atom_site_type_symbol
_atom_site_fract_x
_atom_site_fract_y
_atom_site_fract_z
_atom_site_charge
Mof_O 	O 	0.7468	0.1069	0.13316	-0.41
Mof_O 	O 	0.7044	0.1472	0.16784	-0.407
Mof_C 	C 	0.6927	0.1166	0.14551	0.338
Mof_C 	C 	0.6011	0.072	0.10722	-0.101
Mof_H 	H 	0.6417	0.0633	0.0986	0.073
Mof_C 	C 	0.6137	0.0964	0.13269	-0.053
Mof_C 	C 	0.4398	0.9601	0.05771	-2.49
Mof_H 	H 	0.3921	0.9342	0.0689	1.069
Mof_C 	C 	0.5195	0.0132	0.06756	0.345
Mof_C 	C 	0.5886	0.0506	0.05133	1.881
Mof_H 	H 	0.6437	0.0873	0.0581	-0.634
Mof_C 	C 	0.5779	0.0349	0.02527	-1.413
Mof_H 	H 	0.6343	0.0666	0.0136	0.469
Mof_C 	C 	0.4982	0.9818	0.01542	0.191
Mof_C 	C 	0.4291	0.9444	0.03164	1.139
Mof_C 	C 	0.3494	0.8913	0.0218	-0.076
Mof_H 	H 	0.3131	0.9145	0.0268	-0.201
Mof_H 	H 	0.3271	0.8363	0.0305	0.151
Mof_C 	C 	0.6613	0.1244	0.00427	-2.406
Mof_H 	H 	0.7197	0.162	0.0079	0.668
Mof_H 	H 	0.6289	0.1495	0.0097	0.33
Mof_C 	C 	0.6713	0.7815	0.27822	2.287
Mof_H 	H 	0.645	0.7334	0.2672	-0.836
Mof_C 	C 	0.7617	0.9307	0.28395	-2.609
Mof_H 	H 	0.7977	0.9855	0.2769	1.102
Mof_C 	C 	0.7482	0.921	0.31012	1.558
Mof_H 	H 	0.7704	0.9605	0.3207	0.572
Mof_C 	C 	0.6963	0.8415	0.32035	-0.067
Mof_C 	C 	0.6579	0.7718	0.3044	-1.325
Mof_C 	C 	0.6059	0.6924	0.31463	1.416
Mof_H 	H 	0.6283	0.6573	0.3095	-0.314
Mof_H 	H 	0.5519	0.6701	0.3066	-0.274
Mof_C 	C 	0.5925	0.6827	0.3408	-0.058
Mof_H 	H 	0.5554	0.6244	0.3447	0.241
Mof_H 	H 	0.6452	0.7019	0.3494	-0.03
Mof_O 	O 	0.41347	0.44023	0.46649	-0.409
Mof_O 	O 	0.37107	0.48053	0.50117	-0.406
Mof_C 	C 	0.35937	0.44993	0.47884	0.335
Mof_C 	C 	0.26777	0.40533	0.44055	-0.114
Mof_H 	H 	0.30837	0.39663	0.43193	0.078
Mof_C 	C 	0.28037	0.42973	0.46602	-0.045
Mof_C 	C 	0.10647	0.29343	0.39104	-2.745
Mof_H 	H 	0.05877	0.26753	0.40223	1.184
Mof_C 	C 	0.18617	0.34653	0.40089	0.35
Mof_C 	C 	0.25527	0.38393	0.38466	2.102
Mof_H 	H 	0.31037	0.42063	0.39143	-0.709
Mof_C 	C 	0.24457	0.36823	0.3586	-1.597
Mof_H 	H 	0.30097	0.39993	0.34693	0.534
Mof_C 	C 	0.16487	0.31513	0.34875	0.19
Mof_C 	C 	0.09577	0.27773	0.36497	1.233
Mof_C 	C 	0.01607	0.22463	0.35513	-0.092
Mof_H 	H 	0.97977	0.24783	0.36013	-0.262
Mof_H 	H 	0.99377	0.16963	0.36383	0.162
Mof_C 	C 	0.32797	0.45773	0.3376	-2.742
Mof_H 	H 	0.38637	0.49533	0.34123	0.761
Mof_H 	H 	0.29557	0.48283	0.34303	0.376
Mof_C 	C 	0.33797	0.11483	0.61155	2.315
Mof_H 	H 	0.31167	0.06673	0.60053	-0.846
Mof_C 	C 	0.42837	0.26403	0.61728	-2.617
Mof_H 	H 	0.46437	0.31883	0.61023	1.105
Mof_C 	C 	0.41487	0.25433	0.64345	1.584
Mof_H 	H 	0.43707	0.29383	0.65403	0.556
Mof_C 	C 	0.36297	0.17483	0.65368	-0.067
Mof_C 	C 	0.32457	0.10513	0.63773	-1.334
Mof_C 	C 	0.27257	0.02573	0.64796	1.447
Mof_H 	H 	0.29497	0.99063	0.64283	-0.324
Mof_H 	H 	0.21857	0.00343	0.63993	-0.275
Mof_C 	C 	0.25917	0.01603	0.67413	-0.061
Mof_H 	H 	0.22207	0.95773	0.67803	0.235
Mof_H 	H 	0.31187	0.03523	0.68273	-0.033
Mof_O 	O 	0.08013	0.77357	0.79983	-0.411
Mof_O 	O 	0.03773	0.81387	0.83451	-0.407
Mof_C 	C 	0.02603	0.78327	0.81218	0.315
Mof_C 	C 	0.93443	0.73867	0.77389	-0.124
Mof_H 	H 	0.97503	0.72997	0.76527	0.085
Mof_C 	C 	0.94703	0.76307	0.79936	-0.023
Mof_C 	C 	0.77313	0.62677	0.72438	-2.703
Mof_H 	H 	0.72543	0.60087	0.73557	1.166
Mof_C 	C 	0.85283	0.67987	0.73423	0.342
Mof_C 	C 	0.92193	0.71727	0.718	2.092
Mof_H 	H 	0.97703	0.75397	0.72477	-0.704
Mof_C 	C 	0.91123	0.70157	0.69194	-1.586
Mof_H 	H 	0.96763	0.73327	0.68027	0.535
Mof_C 	C 	0.83153	0.64847	0.68209	0.191
Mof_C 	C 	0.76243	0.61107	0.69831	1.23
Mof_C 	C 	0.68273	0.55797	0.68847	-0.105
Mof_H 	H 	0.64643	0.58117	0.69347	-0.243
Mof_H 	H 	0.66043	0.50297	0.69717	0.175
Mof_C 	C 	0.99463	0.79107	0.67094	-2.747
Mof_H 	H 	0.05303	0.82867	0.67457	0.756
Mof_H 	H 	0.96223	0.81617	0.67637	0.377
Mof_C 	C 	0.00463	0.44817	0.94489	2.072
Mof_H 	H 	0.97833	0.40007	0.93387	-0.75
Mof_C 	C 	0.09503	0.59737	0.95062	-2.353
Mof_H 	H 	0.13103	0.65217	0.94357	0.995
Mof_C 	C 	0.08153	0.58767	0.97679	1.45
Mof_H 	H 	0.10373	0.62717	0.98737	0.464
Mof_C 	C 	0.02963	0.50817	0.98702	-0.087
Mof_C 	C 	0.99123	0.43847	0.97107	-1.219
Mof_C 	C 	0.93923	0.35907	0.9813	1.203
Mof_H 	H 	0.96163	0.32397	0.97617	-0.268
Mof_H 	H 	0.88523	0.33677	0.97327	-0.249
Mof_C 	C 	0.92583	0.34937	0.00747	-0.045
Mof_H 	H 	0.88873	0.29107	0.01137	0.21
Mof_H 	H 	0.97853	0.36857	0.01607	-0.017
Mof_O 	O 	0.8931	0.6399	0.13316	-0.411
Mof_O 	O 	0.8528	0.5572	0.16784	-0.408
Mof_C 	C 	0.8834	0.5761	0.14551	0.337
Mof_C 	C 	0.928	0.5291	0.10722	-0.102
Mof_H 	H 	0.9367	0.5784	0.0986	0.072
Mof_C 	C 	0.9036	0.5173	0.13269	-0.053
Mof_C 	C 	0.0399	0.4797	0.05771	-2.484
Mof_H 	H 	0.0658	0.4579	0.0689	1.066
Mof_C 	C 	0.9868	0.5063	0.06756	0.345
Mof_C 	C 	0.9494	0.538	0.05133	1.886
Mof_H 	H 	0.9127	0.5564	0.0581	-0.636
Mof_C 	C 	0.9651	0.543	0.02527	-1.414
Mof_H 	H 	0.9334	0.5677	0.0136	0.469
Mof_C 	C 	0.0182	0.5164	0.01542	0.191
Mof_C 	C 	0.0556	0.4847	0.03164	1.139
Mof_C 	C 	0.1087	0.4581	0.0218	-0.076
Mof_H 	H 	0.0855	0.3986	0.0268	-0.202
Mof_H 	H 	0.1637	0.4908	0.0305	0.151
Mof_C 	C 	0.8756	0.5369	0.00427	-2.411
Mof_H 	H 	0.838	0.5577	0.0079	0.665
Mof_H 	H 	0.8505	0.4794	0.0097	0.33
Mof_C 	C 	0.2185	0.8898	0.27822	2.24
Mof_H 	H 	0.2666	0.9116	0.2672	-0.817
Mof_C 	C 	0.0693	0.831	0.28395	-2.54
Mof_H 	H 	0.0145	0.8122	0.2769	1.076
Mof_C 	C 	0.079	0.8272	0.31012	1.534
Mof_H 	H 	0.0395	0.8099	0.3207	0.548
Mof_C 	C 	0.1585	0.8548	0.32035	-0.066
Mof_C 	C 	0.2282	0.8861	0.3044	-1.29
Mof_C 	C 	0.3076	0.9135	0.31463	1.416
Mof_H 	H 	0.3427	0.971	0.3095	-0.309
Mof_H 	H 	0.3299	0.8818	0.3066	-0.262
Mof_C 	C 	0.3173	0.9098	0.3408	-0.064
Mof_H 	H 	0.3756	0.931	0.3447	0.246
Mof_H 	H 	0.2981	0.9433	0.3494	-0.026
Mof_O 	O 	0.55977	0.97323	0.46649	-0.408
Mof_O 	O 	0.51947	0.89053	0.50117	-0.406
Mof_C 	C 	0.55007	0.90943	0.47884	0.334
Mof_C 	C 	0.59467	0.86243	0.44055	-0.115
Mof_H 	H 	0.60337	0.91173	0.43193	0.079
Mof_C 	C 	0.57027	0.85063	0.46602	-0.045
Mof_C 	C 	0.70657	0.81303	0.39104	-2.738
Mof_H 	H 	0.73247	0.79123	0.40223	1.179
Mof_C 	C 	0.65347	0.83963	0.40089	0.355
Mof_C 	C 	0.61607	0.87133	0.38466	2.108
Mof_H 	H 	0.57937	0.88973	0.39143	-0.709
Mof_C 	C 	0.63177	0.87633	0.3586	-1.597
Mof_H 	H 	0.60007	0.90103	0.34693	0.539
Mof_C 	C 	0.68487	0.84973	0.34875	0.189
Mof_C 	C 	0.72227	0.81803	0.36497	1.25
Mof_C 	C 	0.77537	0.79143	0.35513	-0.101
Mof_H 	H 	0.75217	0.73193	0.36013	-0.239
Mof_H 	H 	0.83037	0.82413	0.36383	0.173
Mof_C 	C 	0.54227	0.87023	0.3376	-2.753
Mof_H 	H 	0.50467	0.89103	0.34123	0.764
Mof_H 	H 	0.51717	0.81273	0.34303	0.378
Mof_C 	C 	0.88517	0.22313	0.61155	2.313
Mof_H 	H 	0.93327	0.24493	0.60053	-0.845
Mof_C 	C 	0.73597	0.16433	0.61728	-2.628
Mof_H 	H 	0.68117	0.14553	0.61023	1.109
Mof_C 	C 	0.74567	0.16053	0.64345	1.574
Mof_H 	H 	0.70617	0.14323	0.65403	0.567
Mof_C 	C 	0.82517	0.18813	0.65368	-0.059
Mof_C 	C 	0.89487	0.21943	0.63773	-1.329
Mof_C 	C 	0.97427	0.24683	0.64796	1.398
Mof_H 	H 	0.00937	0.30433	0.64283	-0.315
Mof_H 	H 	0.99657	0.21513	0.63993	-0.276
Mof_C 	C 	0.98397	0.24313	0.67413	-0.056
Mof_H 	H 	0.04227	0.26433	0.67803	0.228
Mof_H 	H 	0.96477	0.27663	0.68273	-0.037
Mof_O 	O 	0.22643	0.30657	0.79983	-0.41
Mof_O 	O 	0.18613	0.22387	0.83451	-0.405
Mof_C 	C 	0.21673	0.24277	0.81218	0.333
Mof_C 	C 	0.26133	0.19577	0.77389	-0.118
Mof_H 	H 	0.27003	0.24507	0.76527	0.079
Mof_C 	C 	0.23693	0.18397	0.79936	-0.04
Mof_C 	C 	0.37323	0.14637	0.72438	-2.725
Mof_H 	H 	0.39913	0.12457	0.73557	1.175
Mof_C 	C 	0.32013	0.17297	0.73423	0.343
Mof_C 	C 	0.28273	0.20467	0.718	2.077
Mof_H 	H 	0.24603	0.22307	0.72477	-0.7
Mof_C 	C 	0.29843	0.20967	0.69194	-1.582
Mof_H 	H 	0.26673	0.23437	0.68027	0.533
Mof_C 	C 	0.35153	0.18307	0.68209	0.19
Mof_C 	C 	0.38893	0.15137	0.69831	1.223
Mof_C 	C 	0.44203	0.12477	0.68847	-0.109
Mof_H 	H 	0.41883	0.06527	0.69347	-0.244
Mof_H 	H 	0.49703	0.15747	0.69717	0.175
Mof_C 	C 	0.20893	0.20357	0.67094	-2.723
Mof_H 	H 	0.17133	0.22437	0.67457	0.755
Mof_H 	H 	0.18383	0.14607	0.67637	0.373
Mof_C 	C 	0.55183	0.55647	0.94489	2.381
Mof_H 	H 	0.59993	0.57827	0.93387	-0.871
Mof_C 	C 	0.40263	0.49767	0.95062	-2.7
Mof_H 	H 	0.34783	0.47887	0.94357	1.14
Mof_C 	C 	0.41233	0.49387	0.97679	1.64
Mof_H 	H 	0.37283	0.47657	0.98737	0.579
Mof_C 	C 	0.49183	0.52147	0.98702	-0.081
Mof_C 	C 	0.56153	0.55277	0.97107	-1.376
Mof_C 	C 	0.64093	0.58017	0.9813	1.483
Mof_H 	H 	0.67603	0.63767	0.97617	-0.328
Mof_H 	H 	0.66323	0.54847	0.97327	-0.286
Mof_C 	C 	0.65063	0.57647	0.00747	-0.064
Mof_H 	H 	0.70893	0.59767	0.01137	0.252
Mof_H 	H 	0.63143	0.60997	0.01607	-0.037
Mof_O 	O 	0.3601	0.2532	0.13316	-0.409
Mof_O 	O 	0.4428	0.2956	0.16784	-0.406
Mof_C 	C 	0.4239	0.3073	0.14551	0.334
Mof_C 	C 	0.4709	0.3989	0.10722	-0.118
Mof_H 	H 	0.4216	0.3583	0.0986	0.08
Mof_C 	C 	0.4827	0.3863	0.13269	-0.042
Mof_C 	C 	0.5203	0.5602	0.05771	-2.823
Mof_H 	H 	0.5421	0.6079	0.0689	1.216
Mof_C 	C 	0.4937	0.4805	0.06756	0.367
Mof_C 	C 	0.462	0.4114	0.05133	2.168
Mof_H 	H 	0.4436	0.3563	0.0581	-0.732
Mof_C 	C 	0.457	0.4221	0.02527	-1.648
Mof_H 	H 	0.4323	0.3657	0.0136	0.555
Mof_C 	C 	0.4836	0.5018	0.01542	0.209
Mof_C 	C 	0.5153	0.5709	0.03164	1.273
Mof_C 	C 	0.5419	0.6506	0.0218	-0.112
Mof_H 	H 	0.6014	0.6869	0.0268	-0.256
Mof_H 	H 	0.5092	0.6729	0.0305	0.183
Mof_C 	C 	0.4631	0.3387	0.00427	-2.846
Mof_H 	H 	0.4423	0.2803	0.0079	0.794
Mof_H 	H 	0.5206	0.3711	0.0097	0.389
Mof_C 	C 	0.1102	0.3287	0.27822	2.296
Mof_H 	H 	0.0884	0.355	0.2672	-0.838
Mof_C 	C 	0.169	0.2383	0.28395	-2.596
Mof_H 	H 	0.1878	0.2023	0.2769	1.094
Mof_C 	C 	0.1728	0.2518	0.31012	1.577
Mof_H 	H 	0.1901	0.2296	0.3207	0.55
Mof_C 	C 	0.1452	0.3037	0.32035	-0.069
Mof_C 	C 	0.1139	0.3421	0.3044	-1.312
Mof_C 	C 	0.0865	0.3941	0.31463	1.417
Mof_H 	H 	0.029	0.3717	0.3095	-0.311
Mof_H 	H 	0.1182	0.4481	0.3066	-0.269
Mof_C 	C 	0.0902	0.4075	0.3408	-0.062
Mof_H 	H 	0.069	0.4446	0.3447	0.245
Mof_H 	H 	0.0567	0.3548	0.3494	-0.033
Mof_O 	O 	0.02677	0.58653	0.46649	-0.408
Mof_O 	O 	0.10947	0.62893	0.50117	-0.407
Mof_C 	C 	0.09057	0.64063	0.47884	0.335
Mof_C 	C 	0.13757	0.73223	0.44055	-0.114
Mof_H 	H 	0.08827	0.69163	0.43193	0.079
Mof_C 	C 	0.14937	0.71963	0.46602	-0.045
Mof_C 	C 	0.18697	0.89353	0.39104	-2.741
Mof_H 	H 	0.20877	0.94123	0.40223	1.184
Mof_C 	C 	0.16037	0.81383	0.40089	0.343
Mof_C 	C 	0.12867	0.74473	0.38466	2.105
Mof_H 	H 	0.11027	0.68963	0.39143	-0.709
Mof_C 	C 	0.12367	0.75543	0.3586	-1.594
Mof_H 	H 	0.09897	0.69903	0.34693	0.535
Mof_C 	C 	0.15027	0.83513	0.34875	0.183
Mof_C 	C 	0.18197	0.90423	0.36497	1.245
Mof_C 	C 	0.20857	0.98393	0.35513	-0.083
Mof_H 	H 	0.26807	0.02023	0.36013	-0.25
Mof_H 	H 	0.17587	0.00623	0.36383	0.16
Mof_C 	C 	0.12977	0.67203	0.3376	-2.751
Mof_H 	H 	0.10897	0.61363	0.34123	0.763
Mof_H 	H 	0.18727	0.70443	0.34303	0.378
Mof_C 	C 	0.77687	0.66203	0.61155	2.305
Mof_H 	H 	0.75507	0.68833	0.60053	-0.843
Mof_C 	C 	0.83567	0.57163	0.61728	-2.628
Mof_H 	H 	0.85447	0.53563	0.61023	1.109
Mof_C 	C 	0.83947	0.58513	0.64345	1.582
Mof_H 	H 	0.85677	0.56293	0.65403	0.562
Mof_C 	C 	0.81187	0.63703	0.65368	-0.066
Mof_C 	C 	0.78057	0.67543	0.63773	-1.333
Mof_C 	C 	0.75317	0.72743	0.64796	1.399
Mof_H 	H 	0.69567	0.70503	0.64283	-0.311
Mof_H 	H 	0.78487	0.78143	0.63993	-0.277
Mof_C 	C 	0.75687	0.74083	0.67413	-0.059
Mof_H 	H 	0.73567	0.77793	0.67803	0.241
Mof_H 	H 	0.72337	0.68813	0.68273	-0.034
Mof_O 	O 	0.69343	0.91987	0.79983	-0.409
Mof_O 	O 	0.77613	0.96227	0.83451	-0.404
Mof_C 	C 	0.75723	0.97397	0.81218	0.314
Mof_C 	C 	0.80423	0.06557	0.77389	-0.128
Mof_H 	H 	0.75493	0.02497	0.76527	0.087
Mof_C 	C 	0.81603	0.05297	0.79936	-0.016
Mof_C 	C 	0.85363	0.22687	0.72438	-2.653
Mof_H 	H 	0.87543	0.27457	0.73557	1.145
Mof_C 	C 	0.82703	0.14717	0.73423	0.338
Mof_C 	C 	0.79533	0.07807	0.718	2.038
Mof_H 	H 	0.77693	0.02297	0.72477	-0.686
Mof_C 	C 	0.79033	0.08877	0.69194	-1.554
Mof_H 	H 	0.76563	0.03237	0.68027	0.526
Mof_C 	C 	0.81693	0.16847	0.68209	0.186
Mof_C 	C 	0.84863	0.23757	0.69831	1.194
Mof_C 	C 	0.87523	0.31727	0.68847	-0.113
Mof_H 	H 	0.93473	0.35357	0.69347	-0.246
Mof_H 	H 	0.84253	0.33957	0.69717	0.175
Mof_C 	C 	0.79643	0.00537	0.67094	-2.678
Mof_H 	H 	0.77563	0.94697	0.67457	0.738
Mof_H 	H 	0.85393	0.03777	0.67637	0.37
Mof_C 	C 	0.44353	0.99537	0.94489	2.07
Mof_H 	H 	0.42173	0.02167	0.93387	-0.75
Mof_C 	C 	0.50233	0.90497	0.95062	-2.357
Mof_H 	H 	0.52113	0.86897	0.94357	0.996
Mof_C 	C 	0.50613	0.91847	0.97679	1.445
Mof_H 	H 	0.52343	0.89627	0.98737	0.469
Mof_C 	C 	0.47853	0.97037	0.98702	-0.087
Mof_C 	C 	0.44723	0.00877	0.97107	-1.223
Mof_C 	C 	0.41983	0.06077	0.9813	1.208
Mof_H 	H 	0.36233	0.03837	0.97617	-0.269
Mof_H 	H 	0.45153	0.11477	0.97327	-0.249
Mof_C 	C 	0.42353	0.07417	0.00747	-0.045
Mof_H 	H 	0.40233	0.11127	0.01137	0.21
Mof_H 	H 	0.39003	0.02147	0.01607	-0.017
Mof_O 	O 	0.1069	0.7468	0.86684	-0.411
Mof_O 	O 	0.1472	0.7044	0.83216	-0.408
Mof_C 	C 	0.1166	0.6927	0.85449	0.337
Mof_C 	C 	0.072	0.6011	0.89278	-0.102
Mof_H 	H 	0.0633	0.6417	0.9014	0.072
Mof_C 	C 	0.0964	0.6137	0.86731	-0.054
Mof_C 	C 	0.9601	0.4398	0.94229	-2.49
Mof_H 	H 	0.9342	0.3921	0.9311	1.069
Mof_C 	C 	0.0132	0.5195	0.93244	0.345
Mof_C 	C 	0.0506	0.5886	0.94867	1.881
Mof_H 	H 	0.0873	0.6437	0.9419	-0.634
Mof_C 	C 	0.0349	0.5779	0.97473	-1.413
Mof_H 	H 	0.0666	0.6343	0.9864	0.469
Mof_C 	C 	0.9818	0.4982	0.98458	0.191
Mof_C 	C 	0.9444	0.4291	0.96836	1.139
Mof_C 	C 	0.8913	0.3494	0.9782	-0.076
Mof_H 	H 	0.9145	0.3131	0.9732	-0.201
Mof_H 	H 	0.8363	0.3271	0.9695	0.151
Mof_C 	C 	0.1244	0.6613	0.99573	-2.406
Mof_H 	H 	0.162	0.7197	0.9921	0.668
Mof_H 	H 	0.1495	0.6289	0.9903	0.33
Mof_C 	C 	0.7815	0.6713	0.72178	2.287
Mof_H 	H 	0.7334	0.645	0.7328	-0.836
Mof_C 	C 	0.9307	0.7617	0.71605	-2.609
Mof_H 	H 	0.9855	0.7977	0.7231	1.102
Mof_C 	C 	0.921	0.7482	0.68988	1.558
Mof_H 	H 	0.9605	0.7704	0.6793	0.572
Mof_C 	C 	0.8415	0.6963	0.67965	-0.067
Mof_C 	C 	0.7718	0.6579	0.6956	-1.325
Mof_C 	C 	0.6924	0.6059	0.68537	1.416
Mof_H 	H 	0.6573	0.6283	0.6905	-0.314
Mof_H 	H 	0.6701	0.5519	0.6934	-0.274
Mof_C 	C 	0.6827	0.5925	0.6592	-0.058
Mof_H 	H 	0.6244	0.5554	0.6553	0.241
Mof_H 	H 	0.7019	0.6452	0.6506	-0.03
Mof_O 	O 	0.77357	0.08013	0.20017	-0.411
Mof_O 	O 	0.81387	0.03773	0.16549	-0.407
Mof_C 	C 	0.78327	0.02603	0.18782	0.315
Mof_C 	C 	0.73867	0.93443	0.22611	-0.124
Mof_H 	H 	0.72997	0.97503	0.23473	0.085
Mof_C 	C 	0.76307	0.94703	0.20064	-0.023
Mof_C 	C 	0.62677	0.77313	0.27562	-2.703
Mof_H 	H 	0.60087	0.72543	0.26443	1.166
Mof_C 	C 	0.67987	0.85283	0.26577	0.342
Mof_C 	C 	0.71727	0.92193	0.282	2.092
Mof_H 	H 	0.75397	0.97703	0.27523	-0.704
Mof_C 	C 	0.70157	0.91123	0.30806	-1.586
Mof_H 	H 	0.73327	0.96763	0.31973	0.535
Mof_C 	C 	0.64847	0.83153	0.31791	0.191
Mof_C 	C 	0.61107	0.76243	0.30169	1.23
Mof_C 	C 	0.55797	0.68273	0.31153	-0.105
Mof_H 	H 	0.58117	0.64643	0.30653	-0.243
Mof_H 	H 	0.50297	0.66043	0.30283	0.175
Mof_C 	C 	0.79107	0.99463	0.32906	-2.747
Mof_H 	H 	0.82867	0.05303	0.32543	0.756
Mof_H 	H 	0.81617	0.96223	0.32363	0.377
Mof_C 	C 	0.44817	0.00463	0.05511	2.072
Mof_H 	H 	0.40007	0.97833	0.06613	-0.75
Mof_C 	C 	0.59737	0.09503	0.04938	-2.353
Mof_H 	H 	0.65217	0.13103	0.05643	0.995
Mof_C 	C 	0.58767	0.08153	0.02321	1.45
Mof_H 	H 	0.62717	0.10373	0.01263	0.464
Mof_C 	C 	0.50817	0.02963	0.01298	-0.087
Mof_C 	C 	0.43847	0.99123	0.02893	-1.219
Mof_C 	C 	0.35907	0.93923	0.0187	1.203
Mof_H 	H 	0.32397	0.96163	0.02383	-0.268
Mof_H 	H 	0.33677	0.88523	0.02673	-0.249
Mof_C 	C 	0.34937	0.92583	0.99253	-0.045
Mof_H 	H 	0.29107	0.88873	0.98863	0.21
Mof_H 	H 	0.36857	0.97853	0.98393	-0.017
Mof_O 	O 	0.44023	0.41347	0.53351	-0.409
Mof_O 	O 	0.48053	0.37107	0.49883	-0.406
Mof_C 	C 	0.44993	0.35937	0.52116	0.335
Mof_C 	C 	0.40533	0.26777	0.55945	-0.114
Mof_H 	H 	0.39663	0.30837	0.56807	0.078
Mof_C 	C 	0.42973	0.28037	0.53398	-0.045
Mof_C 	C 	0.29343	0.10647	0.60896	-2.745
Mof_H 	H 	0.26753	0.05877	0.59777	1.184
Mof_C 	C 	0.34653	0.18617	0.59911	0.35
Mof_C 	C 	0.38393	0.25527	0.61534	2.102
Mof_H 	H 	0.42063	0.31037	0.60857	-0.709
Mof_C 	C 	0.36823	0.24457	0.6414	-1.597
Mof_H 	H 	0.39993	0.30097	0.65307	0.534
Mof_C 	C 	0.31513	0.16487	0.65125	0.19
Mof_C 	C 	0.27773	0.09577	0.63503	1.233
Mof_C 	C 	0.22463	0.01607	0.64487	-0.092
Mof_H 	H 	0.24783	0.97977	0.63987	-0.262
Mof_H 	H 	0.16963	0.99377	0.63617	0.162
Mof_C 	C 	0.45773	0.32797	0.6624	-2.742
Mof_H 	H 	0.49533	0.38637	0.65877	0.761
Mof_H 	H 	0.48283	0.29557	0.65697	0.376
Mof_C 	C 	0.11483	0.33797	0.38845	2.315
Mof_H 	H 	0.06673	0.31167	0.39947	-0.846
Mof_C 	C 	0.26403	0.42837	0.38272	-2.617
Mof_H 	H 	0.31883	0.46437	0.38977	1.105
Mof_C 	C 	0.25433	0.41487	0.35655	1.584
Mof_H 	H 	0.29383	0.43707	0.34597	0.556
Mof_C 	C 	0.17483	0.36297	0.34632	-0.067
Mof_C 	C 	0.10513	0.32457	0.36227	-1.334
Mof_C 	C 	0.02573	0.27257	0.35204	1.447
Mof_H 	H 	0.99063	0.29497	0.35717	-0.324
Mof_H 	H 	0.00343	0.21857	0.36007	-0.275
Mof_C 	C 	0.01603	0.25917	0.32587	-0.061
Mof_H 	H 	0.95773	0.22207	0.32197	0.235
Mof_H 	H 	0.03523	0.31187	0.31727	-0.033
Mof_O 	O 	0.6399	0.8931	0.86684	-0.411
Mof_O 	O 	0.5572	0.8528	0.83216	-0.408
Mof_C 	C 	0.5761	0.8834	0.85449	0.337
Mof_C 	C 	0.5291	0.928	0.89278	-0.102
Mof_H 	H 	0.5784	0.9367	0.9014	0.072
Mof_C 	C 	0.5173	0.9036	0.86731	-0.053
Mof_C 	C 	0.4797	0.0399	0.94229	-2.484
Mof_H 	H 	0.4579	0.0658	0.9311	1.066
Mof_C 	C 	0.5063	0.9868	0.93244	0.345
Mof_C 	C 	0.538	0.9494	0.94867	1.886
Mof_H 	H 	0.5564	0.9127	0.9419	-0.636
Mof_C 	C 	0.543	0.9651	0.97473	-1.414
Mof_H 	H 	0.5677	0.9334	0.9864	0.469
Mof_C 	C 	0.5164	0.0182	0.98458	0.191
Mof_C 	C 	0.4847	0.0556	0.96836	1.139
Mof_C 	C 	0.4581	0.1087	0.9782	-0.076
Mof_H 	H 	0.3986	0.0855	0.9732	-0.202
Mof_H 	H 	0.4908	0.1637	0.9695	0.151
Mof_C 	C 	0.5369	0.8756	0.99573	-2.411
Mof_H 	H 	0.5577	0.838	0.9921	0.665
Mof_H 	H 	0.4794	0.8505	0.9903	0.33
Mof_C 	C 	0.8898	0.2185	0.72178	2.24
Mof_H 	H 	0.9116	0.2666	0.7328	-0.817
Mof_C 	C 	0.831	0.0693	0.71605	-2.54
Mof_H 	H 	0.8122	0.0145	0.7231	1.076
Mof_C 	C 	0.8272	0.079	0.68988	1.534
Mof_H 	H 	0.8099	0.0395	0.6793	0.548
Mof_C 	C 	0.8548	0.1585	0.67965	-0.066
Mof_C 	C 	0.8861	0.2282	0.6956	-1.29
Mof_C 	C 	0.9135	0.3076	0.68537	1.416
Mof_H 	H 	0.971	0.3427	0.6905	-0.309
Mof_H 	H 	0.8818	0.3299	0.6934	-0.262
Mof_C 	C 	0.9098	0.3173	0.6592	-0.064
Mof_H 	H 	0.931	0.3756	0.6553	0.246
Mof_H 	H 	0.9433	0.2981	0.6506	-0.026
Mof_O 	O 	0.30657	0.22643	0.20017	-0.41
Mof_O 	O 	0.22387	0.18613	0.16549	-0.405
Mof_C 	C 	0.24277	0.21673	0.18782	0.333
Mof_C 	C 	0.19577	0.26133	0.22611	-0.118
Mof_H 	H 	0.24507	0.27003	0.23473	0.079
Mof_C 	C 	0.18397	0.23693	0.20064	-0.04
Mof_C 	C 	0.14637	0.37323	0.27562	-2.725
Mof_H 	H 	0.12457	0.39913	0.26443	1.175
Mof_C 	C 	0.17297	0.32013	0.26577	0.343
Mof_C 	C 	0.20467	0.28273	0.282	2.077
Mof_H 	H 	0.22307	0.24603	0.27523	-0.7
Mof_C 	C 	0.20967	0.29843	0.30806	-1.582
Mof_H 	H 	0.23437	0.26673	0.31973	0.533
Mof_C 	C 	0.18307	0.35153	0.31791	0.19
Mof_C 	C 	0.15137	0.38893	0.30169	1.223
Mof_C 	C 	0.12477	0.44203	0.31153	-0.109
Mof_H 	H 	0.06527	0.41883	0.30653	-0.244
Mof_H 	H 	0.15747	0.49703	0.30283	0.175
Mof_C 	C 	0.20357	0.20893	0.32906	-2.723
Mof_H 	H 	0.22437	0.17133	0.32543	0.755
Mof_H 	H 	0.14607	0.18383	0.32363	0.373
Mof_C 	C 	0.55647	0.55183	0.05511	2.381
Mof_H 	H 	0.57827	0.59993	0.06613	-0.871
Mof_C 	C 	0.49767	0.40263	0.04938	-2.7
Mof_H 	H 	0.47887	0.34783	0.05643	1.14
Mof_C 	C 	0.49387	0.41233	0.02321	1.64
Mof_H 	H 	0.47657	0.37283	0.01263	0.579
Mof_C 	C 	0.52147	0.49183	0.01298	-0.081
Mof_C 	C 	0.55277	0.56153	0.02893	-1.376
Mof_C 	C 	0.58017	0.64093	0.0187	1.483
Mof_H 	H 	0.63767	0.67603	0.02383	-0.328
Mof_H 	H 	0.54847	0.66323	0.02673	-0.286
Mof_C 	C 	0.57647	0.65063	0.99253	-0.064
Mof_H 	H 	0.59767	0.70893	0.98863	0.252
Mof_H 	H 	0.60997	0.63143	0.98393	-0.037
Mof_O 	O 	0.97323	0.55977	0.53351	-0.408
Mof_O 	O 	0.89053	0.51947	0.49883	-0.406
Mof_C 	C 	0.90943	0.55007	0.52116	0.334
Mof_C 	C 	0.86243	0.59467	0.55945	-0.115
Mof_H 	H 	0.91173	0.60337	0.56807	0.079
Mof_C 	C 	0.85063	0.57027	0.53398	-0.045
Mof_C 	C 	0.81303	0.70657	0.60896	-2.738
Mof_H 	H 	0.79123	0.73247	0.59777	1.179
Mof_C 	C 	0.83963	0.65347	0.59911	0.355
Mof_C 	C 	0.87133	0.61607	0.61534	2.108
Mof_H 	H 	0.88973	0.57937	0.60857	-0.709
Mof_C 	C 	0.87633	0.63177	0.6414	-1.597
Mof_H 	H 	0.90103	0.60007	0.65307	0.539
Mof_C 	C 	0.84973	0.68487	0.65125	0.189
Mof_C 	C 	0.81803	0.72227	0.63503	1.25
Mof_C 	C 	0.79143	0.77537	0.64487	-0.101
Mof_H 	H 	0.73193	0.75217	0.63987	-0.239
Mof_H 	H 	0.82413	0.83037	0.63617	0.173
Mof_C 	C 	0.87023	0.54227	0.6624	-2.753
Mof_H 	H 	0.89103	0.50467	0.65877	0.764
Mof_H 	H 	0.81273	0.51717	0.65697	0.378
Mof_C 	C 	0.22313	0.88517	0.38845	2.313
Mof_H 	H 	0.24493	0.93327	0.39947	-0.845
Mof_C 	C 	0.16433	0.73597	0.38272	-2.628
Mof_H 	H 	0.14553	0.68117	0.38977	1.109
Mof_C 	C 	0.16053	0.74567	0.35655	1.574
Mof_H 	H 	0.14323	0.70617	0.34597	0.567
Mof_C 	C 	0.18813	0.82517	0.34632	-0.059
Mof_C 	C 	0.21943	0.89487	0.36227	-1.329
Mof_C 	C 	0.24683	0.97427	0.35204	1.398
Mof_H 	H 	0.30433	0.00937	0.35717	-0.315
Mof_H 	H 	0.21513	0.99657	0.36007	-0.276
Mof_C 	C 	0.24313	0.98397	0.32587	-0.056
Mof_H 	H 	0.26433	0.04227	0.32197	0.228
Mof_H 	H 	0.27663	0.96477	0.31727	-0.037
Mof_O 	O 	0.2532	0.3601	0.86684	-0.409
Mof_O 	O 	0.2956	0.4428	0.83216	-0.406
Mof_C 	C 	0.3073	0.4239	0.85449	0.334
Mof_C 	C 	0.3989	0.4709	0.89278	-0.118
Mof_H 	H 	0.3583	0.4216	0.9014	0.08
Mof_C 	C 	0.3863	0.4827	0.86731	-0.042
Mof_C 	C 	0.5602	0.5203	0.94229	-2.823
Mof_H 	H 	0.6079	0.5421	0.9311	1.216
Mof_C 	C 	0.4805	0.4937	0.93244	0.367
Mof_C 	C 	0.4114	0.462	0.94867	2.168
Mof_H 	H 	0.3563	0.4436	0.9419	-0.732
Mof_C 	C 	0.4221	0.457	0.97473	-1.648
Mof_H 	H 	0.3657	0.4323	0.9864	0.555
Mof_C 	C 	0.5018	0.4836	0.98458	0.209
Mof_C 	C 	0.5709	0.5153	0.96836	1.273
Mof_C 	C 	0.6506	0.5419	0.9782	-0.112
Mof_H 	H 	0.6869	0.6014	0.9732	-0.256
Mof_H 	H 	0.6729	0.5092	0.9695	0.183
Mof_C 	C 	0.3387	0.4631	0.99573	-2.846
Mof_H 	H 	0.2803	0.4423	0.9921	0.794
Mof_H 	H 	0.3711	0.5206	0.9903	0.389
Mof_C 	C 	0.3287	0.1102	0.72178	2.296
Mof_H 	H 	0.355	0.0884	0.7328	-0.838
Mof_C 	C 	0.2383	0.169	0.71605	-2.596
Mof_H 	H 	0.2023	0.1878	0.7231	1.094
Mof_C 	C 	0.2518	0.1728	0.68988	1.577
Mof_H 	H 	0.2296	0.1901	0.6793	0.55
Mof_C 	C 	0.3037	0.1452	0.67965	-0.069
Mof_C 	C 	0.3421	0.1139	0.6956	-1.312
Mof_C 	C 	0.3941	0.0865	0.68537	1.417
Mof_H 	H 	0.3717	0.029	0.6905	-0.311
Mof_H 	H 	0.4481	0.1182	0.6934	-0.269
Mof_C 	C 	0.4075	0.0902	0.6592	-0.062
Mof_H 	H 	0.4446	0.069	0.6553	0.245
Mof_H 	H 	0.3548	0.0567	0.6506	-0.033
Mof_O 	O 	0.91987	0.69343	0.20017	-0.409
Mof_O 	O 	0.96227	0.77613	0.16549	-0.404
Mof_C 	C 	0.97397	0.75723	0.18782	0.314
Mof_C 	C 	0.06557	0.80423	0.22611	-0.128
Mof_H 	H 	0.02497	0.75493	0.23473	0.087
Mof_C 	C 	0.05297	0.81603	0.20064	-0.016
Mof_C 	C 	0.22687	0.85363	0.27562	-2.653
Mof_H 	H 	0.27457	0.87543	0.26443	1.145
Mof_C 	C 	0.14717	0.82703	0.26577	0.338
Mof_C 	C 	0.07807	0.79533	0.282	2.038
Mof_H 	H 	0.02297	0.77693	0.27523	-0.686
Mof_C 	C 	0.08877	0.79033	0.30806	-1.554
Mof_H 	H 	0.03237	0.76563	0.31973	0.526
Mof_C 	C 	0.16847	0.81693	0.31791	0.186
Mof_C 	C 	0.23757	0.84863	0.30169	1.194
Mof_C 	C 	0.31727	0.87523	0.31153	-0.113
Mof_H 	H 	0.35357	0.93473	0.30653	-0.246
Mof_H 	H 	0.33957	0.84253	0.30283	0.175
Mof_C 	C 	0.00537	0.79643	0.32906	-2.678
Mof_H 	H 	0.94697	0.77563	0.32543	0.738
Mof_H 	H 	0.03777	0.85393	0.32363	0.37
Mof_C 	C 	0.99537	0.44353	0.05511	2.07
Mof_H 	H 	0.02167	0.42173	0.06613	-0.75
Mof_C 	C 	0.90497	0.50233	0.04938	-2.357
Mof_H 	H 	0.86897	0.52113	0.05643	0.996
Mof_C 	C 	0.91847	0.50613	0.02321	1.445
Mof_H 	H 	0.89627	0.52343	0.01263	0.469
Mof_C 	C 	0.97037	0.47853	0.01298	-0.087
Mof_C 	C 	0.00877	0.44723	0.02893	-1.223
Mof_C 	C 	0.06077	0.41983	0.0187	1.208
Mof_H 	H 	0.03837	0.36233	0.02383	-0.269
Mof_H 	H 	0.11477	0.45153	0.02673	-0.249
Mof_C 	C 	0.07417	0.42353	0.99253	-0.045
Mof_H 	H 	0.11127	0.40233	0.98863	0.21
Mof_H 	H 	0.02147	0.39003	0.98393	-0.017
Mof_O 	O 	0.58653	0.02677	0.53351	-0.408
Mof_O 	O 	0.62893	0.10947	0.49883	-0.407
Mof_C 	C 	0.64063	0.09057	0.52116	0.335
Mof_C 	C 	0.73223	0.13757	0.55945	-0.114
Mof_H 	H 	0.69163	0.08827	0.56807	0.079
Mof_C 	C 	0.71963	0.14937	0.53398	-0.045
Mof_C 	C 	0.89353	0.18697	0.60896	-2.741
Mof_H 	H 	0.94123	0.20877	0.59777	1.184
Mof_C 	C 	0.81383	0.16037	0.59911	0.343
Mof_C 	C 	0.74473	0.12867	0.61534	2.105
Mof_H 	H 	0.68963	0.11027	0.60857	-0.709
Mof_C 	C 	0.75543	0.12367	0.6414	-1.594
Mof_H 	H 	0.69903	0.09897	0.65307	0.535
Mof_C 	C 	0.83513	0.15027	0.65125	0.183
Mof_C 	C 	0.90423	0.18197	0.63503	1.245
Mof_C 	C 	0.98393	0.20857	0.64487	-0.083
Mof_H 	H 	0.02023	0.26807	0.63987	-0.25
Mof_H 	H 	0.00623	0.17587	0.63617	0.16
Mof_C 	C 	0.67203	0.12977	0.6624	-2.751
Mof_H 	H 	0.61363	0.10897	0.65877	0.763
Mof_H 	H 	0.70443	0.18727	0.65697	0.378
Mof_C 	C 	0.66203	0.77687	0.38845	2.305
Mof_H 	H 	0.68833	0.75507	0.39947	-0.843
Mof_C 	C 	0.57163	0.83567	0.38272	-2.628
Mof_H 	H 	0.53563	0.85447	0.38977	1.109
Mof_C 	C 	0.58513	0.83947	0.35655	1.582
Mof_H 	H 	0.56293	0.85677	0.34597	0.562
Mof_C 	C 	0.63703	0.81187	0.34632	-0.066
Mof_C 	C 	0.67543	0.78057	0.36227	-1.333
Mof_C 	C 	0.72743	0.75317	0.35204	1.399
Mof_H 	H 	0.70503	0.69567	0.35717	-0.311
Mof_H 	H 	0.78143	0.78487	0.36007	-0.277
Mof_C 	C 	0.74083	0.75687	0.32587	-0.059
Mof_H 	H 	0.77793	0.73567	0.32197	0.241
Mof_H 	H 	0.68813	0.72337	0.31727	-0.034
Mof_O 	O 	0.2532	0.8931	0.86684	-0.411
Mof_O 	O 	0.2956	0.8528	0.83216	-0.408
Mof_C 	C 	0.3073	0.8834	0.85449	0.337
Mof_C 	C 	0.3989	0.928	0.89278	-0.102
Mof_H 	H 	0.3583	0.9367	0.9014	0.072
Mof_C 	C 	0.3863	0.9036	0.86731	-0.054
Mof_C 	C 	0.5602	0.0399	0.94229	-2.49
Mof_H 	H 	0.6079	0.0658	0.9311	1.069
Mof_C 	C 	0.4805	0.9868	0.93244	0.345
Mof_C 	C 	0.4114	0.9494	0.94867	1.881
Mof_H 	H 	0.3563	0.9127	0.9419	-0.634
Mof_C 	C 	0.4221	0.9651	0.97473	-1.413
Mof_H 	H 	0.3657	0.9334	0.9864	0.469
Mof_C 	C 	0.5018	0.0182	0.98458	0.191
Mof_C 	C 	0.5709	0.0556	0.96836	1.139
Mof_C 	C 	0.6506	0.1087	0.9782	-0.076
Mof_H 	H 	0.6869	0.0855	0.9732	-0.201
Mof_H 	H 	0.6729	0.1637	0.9695	0.151
Mof_C 	C 	0.3387	0.8756	0.99573	-2.406
Mof_H 	H 	0.2803	0.838	0.9921	0.668
Mof_H 	H 	0.3711	0.8505	0.9903	0.33
Mof_C 	C 	0.3287	0.2185	0.72178	2.287
Mof_H 	H 	0.355	0.2666	0.7328	-0.836
Mof_C 	C 	0.2383	0.0693	0.71605	-2.609
Mof_H 	H 	0.2023	0.0145	0.7231	1.102
Mof_C 	C 	0.2518	0.079	0.68988	1.558
Mof_H 	H 	0.2296	0.0395	0.6793	0.572
Mof_C 	C 	0.3037	0.1585	0.67965	-0.067
Mof_C 	C 	0.3421	0.2282	0.6956	-1.325
Mof_C 	C 	0.3941	0.3076	0.68537	1.416
Mof_H 	H 	0.3717	0.3427	0.6905	-0.314
Mof_H 	H 	0.4481	0.3299	0.6934	-0.274
Mof_C 	C 	0.4075	0.3173	0.6592	-0.058
Mof_H 	H 	0.4446	0.3756	0.6553	0.241
Mof_H 	H 	0.3548	0.2981	0.6506	-0.03
Mof_O 	O 	0.91987	0.22643	0.20017	-0.411
Mof_O 	O 	0.96227	0.18613	0.16549	-0.407
Mof_C 	C 	0.97397	0.21673	0.18782	0.315
Mof_C 	C 	0.06557	0.26133	0.22611	-0.124
Mof_H 	H 	0.02497	0.27003	0.23473	0.085
Mof_C 	C 	0.05297	0.23693	0.20064	-0.023
Mof_C 	C 	0.22687	0.37323	0.27562	-2.703
Mof_H 	H 	0.27457	0.39913	0.26443	1.166
Mof_C 	C 	0.14717	0.32013	0.26577	0.342
Mof_C 	C 	0.07807	0.28273	0.282	2.092
Mof_H 	H 	0.02297	0.24603	0.27523	-0.704
Mof_C 	C 	0.08877	0.29843	0.30806	-1.586
Mof_H 	H 	0.03237	0.26673	0.31973	0.535
Mof_C 	C 	0.16847	0.35153	0.31791	0.191
Mof_C 	C 	0.23757	0.38893	0.30169	1.23
Mof_C 	C 	0.31727	0.44203	0.31153	-0.105
Mof_H 	H 	0.35357	0.41883	0.30653	-0.243
Mof_H 	H 	0.33957	0.49703	0.30283	0.175
Mof_C 	C 	0.00537	0.20893	0.32906	-2.747
Mof_H 	H 	0.94697	0.17133	0.32543	0.756
Mof_H 	H 	0.03777	0.18383	0.32363	0.377
Mof_C 	C 	0.99537	0.55183	0.05511	2.072
Mof_H 	H 	0.02167	0.59993	0.06613	-0.75
Mof_C 	C 	0.90497	0.40263	0.04938	-2.353
Mof_H 	H 	0.86897	0.34783	0.05643	0.995
Mof_C 	C 	0.91847	0.41233	0.02321	1.45
Mof_H 	H 	0.89627	0.37283	0.01263	0.464
Mof_C 	C 	0.97037	0.49183	0.01298	-0.087
Mof_C 	C 	0.00877	0.56153	0.02893	-1.219
Mof_C 	C 	0.06077	0.64093	0.0187	1.203
Mof_H 	H 	0.03837	0.67603	0.02383	-0.268
Mof_H 	H 	0.11477	0.66323	0.02673	-0.249
Mof_C 	C 	0.07417	0.65063	0.99253	-0.045
Mof_H 	H 	0.11127	0.70893	0.98863	0.21
Mof_H 	H 	0.02147	0.63143	0.98393	-0.017
Mof_O 	O 	0.58653	0.55977	0.53351	-0.409
Mof_O 	O 	0.62893	0.51947	0.49883	-0.406
Mof_C 	C 	0.64063	0.55007	0.52116	0.335
Mof_C 	C 	0.73223	0.59467	0.55945	-0.114
Mof_H 	H 	0.69163	0.60337	0.56807	0.078
Mof_C 	C 	0.71963	0.57027	0.53398	-0.045
Mof_C 	C 	0.89353	0.70657	0.60896	-2.745
Mof_H 	H 	0.94123	0.73247	0.59777	1.184
Mof_C 	C 	0.81383	0.65347	0.59911	0.35
Mof_C 	C 	0.74473	0.61607	0.61534	2.102
Mof_H 	H 	0.68963	0.57937	0.60857	-0.709
Mof_C 	C 	0.75543	0.63177	0.6414	-1.597
Mof_H 	H 	0.69903	0.60007	0.65307	0.534
Mof_C 	C 	0.83513	0.68487	0.65125	0.19
Mof_C 	C 	0.90423	0.72227	0.63503	1.233
Mof_C 	C 	0.98393	0.77537	0.64487	-0.092
Mof_H 	H 	0.02023	0.75217	0.63987	-0.262
Mof_H 	H 	0.00623	0.83037	0.63617	0.162
Mof_C 	C 	0.67203	0.54227	0.6624	-2.742
Mof_H 	H 	0.61363	0.50467	0.65877	0.761
Mof_H 	H 	0.70443	0.51717	0.65697	0.376
Mof_C 	C 	0.66203	0.88517	0.38845	2.315
Mof_H 	H 	0.68833	0.93327	0.39947	-0.846
Mof_C 	C 	0.57163	0.73597	0.38272	-2.617
Mof_H 	H 	0.53563	0.68117	0.38977	1.105
Mof_C 	C 	0.58513	0.74567	0.35655	1.584
Mof_H 	H 	0.56293	0.70617	0.34597	0.556
Mof_C 	C 	0.63703	0.82517	0.34632	-0.067
Mof_C 	C 	0.67543	0.89487	0.36227	-1.334
Mof_C 	C 	0.72743	0.97427	0.35204	1.447
Mof_H 	H 	0.70503	0.00937	0.35717	-0.324
Mof_H 	H 	0.78143	0.99657	0.36007	-0.275
Mof_C 	C 	0.74083	0.98397	0.32587	-0.061
Mof_H 	H 	0.77793	0.04227	0.32197	0.235
Mof_H 	H 	0.68813	0.96477	0.31727	-0.033
Mof_O 	O 	0.1069	0.3601	0.86684	-0.411
Mof_O 	O 	0.1472	0.4428	0.83216	-0.408
Mof_C 	C 	0.1166	0.4239	0.85449	0.337
Mof_C 	C 	0.072	0.4709	0.89278	-0.102
Mof_H 	H 	0.0633	0.4216	0.9014	0.072
Mof_C 	C 	0.0964	0.4827	0.86731	-0.053
Mof_C 	C 	0.9601	0.5203	0.94229	-2.484
Mof_H 	H 	0.9342	0.5421	0.9311	1.066
Mof_C 	C 	0.0132	0.4937	0.93244	0.345
Mof_C 	C 	0.0506	0.462	0.94867	1.886
Mof_H 	H 	0.0873	0.4436	0.9419	-0.636
Mof_C 	C 	0.0349	0.457	0.97473	-1.414
Mof_H 	H 	0.0666	0.4323	0.9864	0.469
Mof_C 	C 	0.9818	0.4836	0.98458	0.191
Mof_C 	C 	0.9444	0.5153	0.96836	1.139
Mof_C 	C 	0.8913	0.5419	0.9782	-0.076
Mof_H 	H 	0.9145	0.6014	0.9732	-0.202
Mof_H 	H 	0.8363	0.5092	0.9695	0.151
Mof_C 	C 	0.1244	0.4631	0.99573	-2.411
Mof_H 	H 	0.162	0.4423	0.9921	0.665
Mof_H 	H 	0.1495	0.5206	0.9903	0.33
Mof_C 	C 	0.7815	0.1102	0.72178	2.24
Mof_H 	H 	0.7334	0.0884	0.7328	-0.817
Mof_C 	C 	0.9307	0.169	0.71605	-2.54
Mof_H 	H 	0.9855	0.1878	0.7231	1.076
Mof_C 	C 	0.921	0.1728	0.68988	1.534
Mof_H 	H 	0.9605	0.1901	0.6793	0.548
Mof_C 	C 	0.8415	0.1452	0.67965	-0.066
Mof_C 	C 	0.7718	0.1139	0.6956	-1.29
Mof_C 	C 	0.6924	0.0865	0.68537	1.416
Mof_H 	H 	0.6573	0.029	0.6905	-0.309
Mof_H 	H 	0.6701	0.1182	0.6934	-0.262
Mof_C 	C 	0.6827	0.0902	0.6592	-0.064
Mof_H 	H 	0.6244	0.069	0.6553	0.246
Mof_H 	H 	0.7019	0.0567	0.6506	-0.026
Mof_O 	O 	0.77357	0.69343	0.20017	-0.41
Mof_O 	O 	0.81387	0.77613	0.16549	-0.405
Mof_C 	C 	0.78327	0.75723	0.18782	0.333
Mof_C 	C 	0.73867	0.80423	0.22611	-0.118
Mof_H 	H 	0.72997	0.75493	0.23473	0.079
Mof_C 	C 	0.76307	0.81603	0.20064	-0.04
Mof_C 	C 	0.62677	0.85363	0.27562	-2.725
Mof_H 	H 	0.60087	0.87543	0.26443	1.175
Mof_C 	C 	0.67987	0.82703	0.26577	0.343
Mof_C 	C 	0.71727	0.79533	0.282	2.077
Mof_H 	H 	0.75397	0.77693	0.27523	-0.7
Mof_C 	C 	0.70157	0.79033	0.30806	-1.582
Mof_H 	H 	0.73327	0.76563	0.31973	0.533
Mof_C 	C 	0.64847	0.81693	0.31791	0.19
Mof_C 	C 	0.61107	0.84863	0.30169	1.223
Mof_C 	C 	0.55797	0.87523	0.31153	-0.109
Mof_H 	H 	0.58117	0.93473	0.30653	-0.244
Mof_H 	H 	0.50297	0.84253	0.30283	0.175
Mof_C 	C 	0.79107	0.79643	0.32906	-2.723
Mof_H 	H 	0.82867	0.77563	0.32543	0.755
Mof_H 	H 	0.81617	0.85393	0.32363	0.373
Mof_C 	C 	0.44817	0.44353	0.05511	2.381
Mof_H 	H 	0.40007	0.42173	0.06613	-0.871
Mof_C 	C 	0.59737	0.50233	0.04938	-2.7
Mof_H 	H 	0.65217	0.52113	0.05643	1.14
Mof_C 	C 	0.58767	0.50613	0.02321	1.64
Mof_H 	H 	0.62717	0.52343	0.01263	0.579
Mof_C 	C 	0.50817	0.47853	0.01298	-0.081
Mof_C 	C 	0.43847	0.44723	0.02893	-1.376
Mof_C 	C 	0.35907	0.41983	0.0187	1.483
Mof_H 	H 	0.32397	0.36233	0.02383	-0.328
Mof_H 	H 	0.33677	0.45153	0.02673	-0.286
Mof_C 	C 	0.34937	0.42353	0.99253	-0.064
Mof_H 	H 	0.29107	0.40233	0.98863	0.252
Mof_H 	H 	0.36857	0.39003	0.98393	-0.037
Mof_O 	O 	0.44023	0.02677	0.53351	-0.408
Mof_O 	O 	0.48053	0.10947	0.49883	-0.406
Mof_C 	C 	0.44993	0.09057	0.52116	0.334
Mof_C 	C 	0.40533	0.13757	0.55945	-0.115
Mof_H 	H 	0.39663	0.08827	0.56807	0.079
Mof_C 	C 	0.42973	0.14937	0.53398	-0.045
Mof_C 	C 	0.29343	0.18697	0.60896	-2.738
Mof_H 	H 	0.26753	0.20877	0.59777	1.179
Mof_C 	C 	0.34653	0.16037	0.59911	0.355
Mof_C 	C 	0.38393	0.12867	0.61534	2.108
Mof_H 	H 	0.42063	0.11027	0.60857	-0.709
Mof_C 	C 	0.36823	0.12367	0.6414	-1.597
Mof_H 	H 	0.39993	0.09897	0.65307	0.539
Mof_C 	C 	0.31513	0.15027	0.65125	0.189
Mof_C 	C 	0.27773	0.18197	0.63503	1.25
Mof_C 	C 	0.22463	0.20857	0.64487	-0.101
Mof_H 	H 	0.24783	0.26807	0.63987	-0.239
Mof_H 	H 	0.16963	0.17587	0.63617	0.173
Mof_C 	C 	0.45773	0.12977	0.6624	-2.753
Mof_H 	H 	0.49533	0.10897	0.65877	0.764
Mof_H 	H 	0.48283	0.18727	0.65697	0.378
Mof_C 	C 	0.11483	0.77687	0.38845	2.313
Mof_H 	H 	0.06673	0.75507	0.39947	-0.845
Mof_C 	C 	0.26403	0.83567	0.38272	-2.628
Mof_H 	H 	0.31883	0.85447	0.38977	1.109
Mof_C 	C 	0.25433	0.83947	0.35655	1.574
Mof_H 	H 	0.29383	0.85677	0.34597	0.567
Mof_C 	C 	0.17483	0.81187	0.34632	-0.059
Mof_C 	C 	0.10513	0.78057	0.36227	-1.329
Mof_C 	C 	0.02573	0.75317	0.35204	1.398
Mof_H 	H 	0.99063	0.69567	0.35717	-0.315
Mof_H 	H 	0.00343	0.78487	0.36007	-0.276
Mof_C 	C 	0.01603	0.75687	0.32587	-0.056
Mof_H 	H 	0.95773	0.73567	0.32197	0.228
Mof_H 	H 	0.03523	0.72337	0.31727	-0.037
Mof_O 	O 	0.6399	0.7468	0.86684	-0.409
Mof_O 	O 	0.5572	0.7044	0.83216	-0.406
Mof_C 	C 	0.5761	0.6927	0.85449	0.334
Mof_C 	C 	0.5291	0.6011	0.89278	-0.118
Mof_H 	H 	0.5784	0.6417	0.9014	0.08
Mof_C 	C 	0.5173	0.6137	0.86731	-0.042
Mof_C 	C 	0.4797	0.4398	0.94229	-2.823
Mof_H 	H 	0.4579	0.3921	0.9311	1.216
Mof_C 	C 	0.5063	0.5195	0.93244	0.367
Mof_C 	C 	0.538	0.5886	0.94867	2.168
Mof_H 	H 	0.5564	0.6437	0.9419	-0.732
Mof_C 	C 	0.543	0.5779	0.97473	-1.648
Mof_H 	H 	0.5677	0.6343	0.9864	0.555
Mof_C 	C 	0.5164	0.4982	0.98458	0.209
Mof_C 	C 	0.4847	0.4291	0.96836	1.273
Mof_C 	C 	0.4581	0.3494	0.9782	-0.112
Mof_H 	H 	0.3986	0.3131	0.9732	-0.256
Mof_H 	H 	0.4908	0.3271	0.9695	0.183
Mof_C 	C 	0.5369	0.6613	0.99573	-2.846
Mof_H 	H 	0.5577	0.7197	0.9921	0.794
Mof_H 	H 	0.4794	0.6289	0.9903	0.389
Mof_C 	C 	0.8898	0.6713	0.72178	2.296
Mof_H 	H 	0.9116	0.645	0.7328	-0.838
Mof_C 	C 	0.831	0.7617	0.71605	-2.596
Mof_H 	H 	0.8122	0.7977	0.7231	1.094
Mof_C 	C 	0.8272	0.7482	0.68988	1.577
Mof_H 	H 	0.8099	0.7704	0.6793	0.55
Mof_C 	C 	0.8548	0.6963	0.67965	-0.069
Mof_C 	C 	0.8861	0.6579	0.6956	-1.312
Mof_C 	C 	0.9135	0.6059	0.68537	1.417
Mof_H 	H 	0.971	0.6283	0.6905	-0.311
Mof_H 	H 	0.8818	0.5519	0.6934	-0.269
Mof_C 	C 	0.9098	0.5925	0.6592	-0.062
Mof_H 	H 	0.931	0.5554	0.6553	0.245
Mof_H 	H 	0.9433	0.6452	0.6506	-0.033
Mof_O 	O 	0.30657	0.08013	0.20017	-0.409
Mof_O 	O 	0.22387	0.03773	0.16549	-0.404
Mof_C 	C 	0.24277	0.02603	0.18782	0.314
Mof_C 	C 	0.19577	0.93443	0.22611	-0.128
Mof_H 	H 	0.24507	0.97503	0.23473	0.087
Mof_C 	C 	0.18397	0.94703	0.20064	-0.016
Mof_C 	C 	0.14637	0.77313	0.27562	-2.653
Mof_H 	H 	0.12457	0.72543	0.26443	1.145
Mof_C 	C 	0.17297	0.85283	0.26577	0.338
Mof_C 	C 	0.20467	0.92193	0.282	2.038
Mof_H 	H 	0.22307	0.97703	0.27523	-0.686
Mof_C 	C 	0.20967	0.91123	0.30806	-1.554
Mof_H 	H 	0.23437	0.96763	0.31973	0.526
Mof_C 	C 	0.18307	0.83153	0.31791	0.186
Mof_C 	C 	0.15137	0.76243	0.30169	1.194
Mof_C 	C 	0.12477	0.68273	0.31153	-0.113
Mof_H 	H 	0.06527	0.64643	0.30653	-0.246
Mof_H 	H 	0.15747	0.66043	0.30283	0.175
Mof_C 	C 	0.20357	0.99463	0.32906	-2.678
Mof_H 	H 	0.22437	0.05303	0.32543	0.738
Mof_H 	H 	0.14607	0.96223	0.32363	0.37
Mof_C 	C 	0.55647	0.00463	0.05511	2.07
Mof_H 	H 	0.57827	0.97833	0.06613	-0.75
Mof_C 	C 	0.49767	0.09503	0.04938	-2.357
Mof_H 	H 	0.47887	0.13103	0.05643	0.996
Mof_C 	C 	0.49387	0.08153	0.02321	1.445
Mof_H 	H 	0.47657	0.10373	0.01263	0.469
Mof_C 	C 	0.52147	0.02963	0.01298	-0.087
Mof_C 	C 	0.55277	0.99123	0.02893	-1.223
Mof_C 	C 	0.58017	0.93923	0.0187	1.208
Mof_H 	H 	0.63767	0.96163	0.02383	-0.269
Mof_H 	H 	0.54847	0.88523	0.02673	-0.249
Mof_C 	C 	0.57647	0.92583	0.99253	-0.045
Mof_H 	H 	0.59767	0.88873	0.98863	0.21
Mof_H 	H 	0.60997	0.97853	0.98393	-0.017
Mof_O 	O 	0.97323	0.41347	0.53351	-0.408
Mof_O 	O 	0.89053	0.37107	0.49883	-0.407
Mof_C 	C 	0.90943	0.35937	0.52116	0.335
Mof_C 	C 	0.86243	0.26777	0.55945	-0.114
Mof_H 	H 	0.91173	0.30837	0.56807	0.079
Mof_C 	C 	0.85063	0.28037	0.53398	-0.045
Mof_C 	C 	0.81303	0.10647	0.60896	-2.741
Mof_H 	H 	0.79123	0.05877	0.59777	1.184
Mof_C 	C 	0.83963	0.18617	0.59911	0.343
Mof_C 	C 	0.87133	0.25527	0.61534	2.105
Mof_H 	H 	0.88973	0.31037	0.60857	-0.709
Mof_C 	C 	0.87633	0.24457	0.6414	-1.594
Mof_H 	H 	0.90103	0.30097	0.65307	0.535
Mof_C 	C 	0.84973	0.16487	0.65125	0.183
Mof_C 	C 	0.81803	0.09577	0.63503	1.245
Mof_C 	C 	0.79143	0.01607	0.64487	-0.083
Mof_H 	H 	0.73193	0.97977	0.63987	-0.25
Mof_H 	H 	0.82413	0.99377	0.63617	0.16
Mof_C 	C 	0.87023	0.32797	0.6624	-2.751
Mof_H 	H 	0.89103	0.38637	0.65877	0.763
Mof_H 	H 	0.81273	0.29557	0.65697	0.378
Mof_C 	C 	0.22313	0.33797	0.38845	2.305
Mof_H 	H 	0.24493	0.31167	0.39947	-0.843
Mof_C 	C 	0.16433	0.42837	0.38272	-2.628
Mof_H 	H 	0.14553	0.46437	0.38977	1.109
Mof_C 	C 	0.16053	0.41487	0.35655	1.582
Mof_H 	H 	0.14323	0.43707	0.34597	0.562
Mof_C 	C 	0.18813	0.36297	0.34632	-0.066
Mof_C 	C 	0.21943	0.32457	0.36227	-1.333
Mof_C 	C 	0.24683	0.27257	0.35204	1.399
Mof_H 	H 	0.30433	0.29497	0.35717	-0.311
Mof_H 	H 	0.21513	0.21857	0.36007	-0.277
Mof_C 	C 	0.24313	0.25917	0.32587	-0.059
Mof_H 	H 	0.26433	0.22207	0.32197	0.241
Mof_H 	H 	0.27663	0.31187	0.31727	-0.034
Mof_O 	O 	0.8931	0.2532	0.13316	-0.411
Mof_O 	O 	0.8528	0.2956	0.16784	-0.408
Mof_C 	C 	0.8834	0.3073	0.14551	0.337
Mof_C 	C 	0.928	0.3989	0.10722	-0.102
Mof_H 	H 	0.9367	0.3583	0.0986	0.072
Mof_C 	C 	0.9036	0.3863	0.13269	-0.054
Mof_C 	C 	0.0399	0.5602	0.05771	-2.49
Mof_H 	H 	0.0658	0.6079	0.0689	1.069
Mof_C 	C 	0.9868	0.4805	0.06756	0.345
Mof_C 	C 	0.9494	0.4114	0.05133	1.881
Mof_H 	H 	0.9127	0.3563	0.0581	-0.634
Mof_C 	C 	0.9651	0.4221	0.02527	-1.413
Mof_H 	H 	0.9334	0.3657	0.0136	0.469
Mof_C 	C 	0.0182	0.5018	0.01542	0.191
Mof_C 	C 	0.0556	0.5709	0.03164	1.139
Mof_C 	C 	0.1087	0.6506	0.0218	-0.076
Mof_H 	H 	0.0855	0.6869	0.0268	-0.201
Mof_H 	H 	0.1637	0.6729	0.0305	0.151
Mof_C 	C 	0.8756	0.3387	0.00427	-2.406
Mof_H 	H 	0.838	0.2803	0.0079	0.668
Mof_H 	H 	0.8505	0.3711	0.0097	0.33
Mof_C 	C 	0.2185	0.3287	0.27822	2.287
Mof_H 	H 	0.2666	0.355	0.2672	-0.836
Mof_C 	C 	0.0693	0.2383	0.28395	-2.609
Mof_H 	H 	0.0145	0.2023	0.2769	1.102
Mof_C 	C 	0.079	0.2518	0.31012	1.558
Mof_H 	H 	0.0395	0.2296	0.3207	0.572
Mof_C 	C 	0.1585	0.3037	0.32035	-0.067
Mof_C 	C 	0.2282	0.3421	0.3044	-1.325
Mof_C 	C 	0.3076	0.3941	0.31463	1.416
Mof_H 	H 	0.3427	0.3717	0.3095	-0.314
Mof_H 	H 	0.3299	0.4481	0.3066	-0.274
Mof_C 	C 	0.3173	0.4075	0.3408	-0.058
Mof_H 	H 	0.3756	0.4446	0.3447	0.241
Mof_H 	H 	0.2981	0.3548	0.3494	-0.03
Mof_O 	O 	0.55977	0.58653	0.46649	-0.409
Mof_O 	O 	0.51947	0.62893	0.50117	-0.406
Mof_C 	C 	0.55007	0.64063	0.47884	0.335
Mof_C 	C 	0.59467	0.73223	0.44055	-0.114
Mof_H 	H 	0.60337	0.69163	0.43193	0.078
Mof_C 	C 	0.57027	0.71963	0.46602	-0.045
Mof_C 	C 	0.70657	0.89353	0.39104	-2.745
Mof_H 	H 	0.73247	0.94123	0.40223	1.184
Mof_C 	C 	0.65347	0.81383	0.40089	0.35
Mof_C 	C 	0.61607	0.74473	0.38466	2.102
Mof_H 	H 	0.57937	0.68963	0.39143	-0.709
Mof_C 	C 	0.63177	0.75543	0.3586	-1.597
Mof_H 	H 	0.60007	0.69903	0.34693	0.534
Mof_C 	C 	0.68487	0.83513	0.34875	0.19
Mof_C 	C 	0.72227	0.90423	0.36497	1.233
Mof_C 	C 	0.77537	0.98393	0.35513	-0.092
Mof_H 	H 	0.75217	0.02023	0.36013	-0.262
Mof_H 	H 	0.83037	0.00623	0.36383	0.162
Mof_C 	C 	0.54227	0.67203	0.3376	-2.742
Mof_H 	H 	0.50467	0.61363	0.34123	0.761
Mof_H 	H 	0.51717	0.70443	0.34303	0.376
Mof_C 	C 	0.88517	0.66203	0.61155	2.315
Mof_H 	H 	0.93327	0.68833	0.60053	-0.846
Mof_C 	C 	0.73597	0.57163	0.61728	-2.617
Mof_H 	H 	0.68117	0.53563	0.61023	1.105
Mof_C 	C 	0.74567	0.58513	0.64345	1.584
Mof_H 	H 	0.70617	0.56293	0.65403	0.556
Mof_C 	C 	0.82517	0.63703	0.65368	-0.067
Mof_C 	C 	0.89487	0.67543	0.63773	-1.334
Mof_C 	C 	0.97427	0.72743	0.64796	1.447
Mof_H 	H 	0.00937	0.70503	0.64283	-0.324
Mof_H 	H 	0.99657	0.78143	0.63993	-0.275
Mof_C 	C 	0.98397	0.74083	0.67413	-0.061
Mof_H 	H 	0.04227	0.77793	0.67803	0.235
Mof_H 	H 	0.96477	0.68813	0.68273	-0.033
Mof_O 	O 	0.22643	0.91987	0.79983	-0.411
Mof_O 	O 	0.18613	0.96227	0.83451	-0.407
Mof_C 	C 	0.21673	0.97397	0.81218	0.315
Mof_C 	C 	0.26133	0.06557	0.77389	-0.124
Mof_H 	H 	0.27003	0.02497	0.76527	0.085
Mof_C 	C 	0.23693	0.05297	0.79936	-0.023
Mof_C 	C 	0.37323	0.22687	0.72438	-2.703
Mof_H 	H 	0.39913	0.27457	0.73557	1.166
Mof_C 	C 	0.32013	0.14717	0.73423	0.342
Mof_C 	C 	0.28273	0.07807	0.718	2.092
Mof_H 	H 	0.24603	0.02297	0.72477	-0.704
Mof_C 	C 	0.29843	0.08877	0.69194	-1.586
Mof_H 	H 	0.26673	0.03237	0.68027	0.535
Mof_C 	C 	0.35153	0.16847	0.68209	0.191
Mof_C 	C 	0.38893	0.23757	0.69831	1.23
Mof_C 	C 	0.44203	0.31727	0.68847	-0.105
Mof_H 	H 	0.41883	0.35357	0.69347	-0.243
Mof_H 	H 	0.49703	0.33957	0.69717	0.175
Mof_C 	C 	0.20893	0.00537	0.67094	-2.747
Mof_H 	H 	0.17133	0.94697	0.67457	0.756
Mof_H 	H 	0.18383	0.03777	0.67637	0.377
Mof_C 	C 	0.55183	0.99537	0.94489	2.072
Mof_H 	H 	0.59993	0.02167	0.93387	-0.75
Mof_C 	C 	0.40263	0.90497	0.95062	-2.353
Mof_H 	H 	0.34783	0.86897	0.94357	0.995
Mof_C 	C 	0.41233	0.91847	0.97679	1.45
Mof_H 	H 	0.37283	0.89627	0.98737	0.464
Mof_C 	C 	0.49183	0.97037	0.98702	-0.087
Mof_C 	C 	0.56153	0.00877	0.97107	-1.219
Mof_C 	C 	0.64093	0.06077	0.9813	1.203
Mof_H 	H 	0.67603	0.03837	0.97617	-0.268
Mof_H 	H 	0.66323	0.11477	0.97327	-0.249
Mof_C 	C 	0.65063	0.07417	0.00747	-0.045
Mof_H 	H 	0.70893	0.11127	0.01137	0.21
Mof_H 	H 	0.63143	0.02147	0.01607	-0.017
Mof_O 	O 	0.3601	0.1069	0.13316	-0.411
Mof_O 	O 	0.4428	0.1472	0.16784	-0.408
Mof_C 	C 	0.4239	0.1166	0.14551	0.337
Mof_C 	C 	0.4709	0.072	0.10722	-0.102
Mof_H 	H 	0.4216	0.0633	0.0986	0.072
Mof_C 	C 	0.4827	0.0964	0.13269	-0.053
Mof_C 	C 	0.5203	0.9601	0.05771	-2.484
Mof_H 	H 	0.5421	0.9342	0.0689	1.066
Mof_C 	C 	0.4937	0.0132	0.06756	0.345
Mof_C 	C 	0.462	0.0506	0.05133	1.886
Mof_H 	H 	0.4436	0.0873	0.0581	-0.636
Mof_C 	C 	0.457	0.0349	0.02527	-1.414
Mof_H 	H 	0.4323	0.0666	0.0136	0.469
Mof_C 	C 	0.4836	0.9818	0.01542	0.191
Mof_C 	C 	0.5153	0.9444	0.03164	1.139
Mof_C 	C 	0.5419	0.8913	0.0218	-0.076
Mof_H 	H 	0.6014	0.9145	0.0268	-0.202
Mof_H 	H 	0.5092	0.8363	0.0305	0.151
Mof_C 	C 	0.4631	0.1244	0.00427	-2.411
Mof_H 	H 	0.4423	0.162	0.0079	0.665
Mof_H 	H 	0.5206	0.1495	0.0097	0.33
Mof_C 	C 	0.1102	0.7815	0.27822	2.24
Mof_H 	H 	0.0884	0.7334	0.2672	-0.817
Mof_C 	C 	0.169	0.9307	0.28395	-2.54
Mof_H 	H 	0.1878	0.9855	0.2769	1.076
Mof_C 	C 	0.1728	0.921	0.31012	1.534
Mof_H 	H 	0.1901	0.9605	0.3207	0.548
Mof_C 	C 	0.1452	0.8415	0.32035	-0.066
Mof_C 	C 	0.1139	0.7718	0.3044	-1.29
Mof_C 	C 	0.0865	0.6924	0.31463	1.416
Mof_H 	H 	0.029	0.6573	0.3095	-0.309
Mof_H 	H 	0.1182	0.6701	0.3066	-0.262
Mof_C 	C 	0.0902	0.6827	0.3408	-0.064
Mof_H 	H 	0.069	0.6244	0.3447	0.246
Mof_H 	H 	0.0567	0.7019	0.3494	-0.026
Mof_O 	O 	0.02677	0.44023	0.46649	-0.408
Mof_O 	O 	0.10947	0.48053	0.50117	-0.406
Mof_C 	C 	0.09057	0.44993	0.47884	0.334
Mof_C 	C 	0.13757	0.40533	0.44055	-0.115
Mof_H 	H 	0.08827	0.39663	0.43193	0.079
Mof_C 	C 	0.14937	0.42973	0.46602	-0.045
Mof_C 	C 	0.18697	0.29343	0.39104	-2.738
Mof_H 	H 	0.20877	0.26753	0.40223	1.179
Mof_C 	C 	0.16037	0.34653	0.40089	0.355
Mof_C 	C 	0.12867	0.38393	0.38466	2.108
Mof_H 	H 	0.11027	0.42063	0.39143	-0.709
Mof_C 	C 	0.12367	0.36823	0.3586	-1.597
Mof_H 	H 	0.09897	0.39993	0.34693	0.539
Mof_C 	C 	0.15027	0.31513	0.34875	0.189
Mof_C 	C 	0.18197	0.27773	0.36497	1.25
Mof_C 	C 	0.20857	0.22463	0.35513	-0.101
Mof_H 	H 	0.26807	0.24783	0.36013	-0.239
Mof_H 	H 	0.17587	0.16963	0.36383	0.173
Mof_C 	C 	0.12977	0.45773	0.3376	-2.753
Mof_H 	H 	0.10897	0.49533	0.34123	0.764
Mof_H 	H 	0.18727	0.48283	0.34303	0.378
Mof_C 	C 	0.77687	0.11483	0.61155	2.313
Mof_H 	H 	0.75507	0.06673	0.60053	-0.845
Mof_C 	C 	0.83567	0.26403	0.61728	-2.628
Mof_H 	H 	0.85447	0.31883	0.61023	1.109
Mof_C 	C 	0.83947	0.25433	0.64345	1.574
Mof_H 	H 	0.85677	0.29383	0.65403	0.567
Mof_C 	C 	0.81187	0.17483	0.65368	-0.059
Mof_C 	C 	0.78057	0.10513	0.63773	-1.329
Mof_C 	C 	0.75317	0.02573	0.64796	1.398
Mof_H 	H 	0.69567	0.99063	0.64283	-0.315
Mof_H 	H 	0.78487	0.00343	0.63993	-0.276
Mof_C 	C 	0.75687	0.01603	0.67413	-0.056
Mof_H 	H 	0.73567	0.95773	0.67803	0.228
Mof_H 	H 	0.72337	0.03523	0.68273	-0.037
Mof_O 	O 	0.69343	0.77357	0.79983	-0.41
Mof_O 	O 	0.77613	0.81387	0.83451	-0.405
Mof_C 	C 	0.75723	0.78327	0.81218	0.333
Mof_C 	C 	0.80423	0.73867	0.77389	-0.118
Mof_H 	H 	0.75493	0.72997	0.76527	0.079
Mof_C 	C 	0.81603	0.76307	0.79936	-0.04
Mof_C 	C 	0.85363	0.62677	0.72438	-2.725
Mof_H 	H 	0.87543	0.60087	0.73557	1.175
Mof_C 	C 	0.82703	0.67987	0.73423	0.343
Mof_C 	C 	0.79533	0.71727	0.718	2.077
Mof_H 	H 	0.77693	0.75397	0.72477	-0.7
Mof_C 	C 	0.79033	0.70157	0.69194	-1.582
Mof_H 	H 	0.76563	0.73327	0.68027	0.533
Mof_C 	C 	0.81693	0.64847	0.68209	0.19
Mof_C 	C 	0.84863	0.61107	0.69831	1.223
Mof_C 	C 	0.87523	0.55797	0.68847	-0.109
Mof_H 	H 	0.93473	0.58117	0.69347	-0.244
Mof_H 	H 	0.84253	0.50297	0.69717	0.175
Mof_C 	C 	0.79643	0.79107	0.67094	-2.723
Mof_H 	H 	0.77563	0.82867	0.67457	0.755
Mof_H 	H 	0.85393	0.81617	0.67637	0.373
Mof_C 	C 	0.44353	0.44817	0.94489	2.381
Mof_H 	H 	0.42173	0.40007	0.93387	-0.871
Mof_C 	C 	0.50233	0.59737	0.95062	-2.7
Mof_H 	H 	0.52113	0.65217	0.94357	1.14
Mof_C 	C 	0.50613	0.58767	0.97679	1.64
Mof_H 	H 	0.52343	0.62717	0.98737	0.579
Mof_C 	C 	0.47853	0.50817	0.98702	-0.081
Mof_C 	C 	0.44723	0.43847	0.97107	-1.376
Mof_C 	C 	0.41983	0.35907	0.9813	1.483
Mof_H 	H 	0.36233	0.32397	0.97617	-0.328
Mof_H 	H 	0.45153	0.33677	0.97327	-0.286
Mof_C 	C 	0.42353	0.34937	0.00747	-0.064
Mof_H 	H 	0.40233	0.29107	0.01137	0.252
Mof_H 	H 	0.39003	0.36857	0.01607	-0.037
Mof_O 	O 	0.7468	0.6399	0.13316	-0.409
Mof_O 	O 	0.7044	0.5572	0.16784	-0.406
Mof_C 	C 	0.6927	0.5761	0.14551	0.334
Mof_C 	C 	0.6011	0.5291	0.10722	-0.118
Mof_H 	H 	0.6417	0.5784	0.0986	0.08
Mof_C 	C 	0.6137	0.5173	0.13269	-0.042
Mof_C 	C 	0.4398	0.4797	0.05771	-2.823
Mof_H 	H 	0.3921	0.4579	0.0689	1.216
Mof_C 	C 	0.5195	0.5063	0.06756	0.367
Mof_C 	C 	0.5886	0.538	0.05133	2.168
Mof_H 	H 	0.6437	0.5564	0.0581	-0.732
Mof_C 	C 	0.5779	0.543	0.02527	-1.648
Mof_H 	H 	0.6343	0.5677	0.0136	0.555
Mof_C 	C 	0.4982	0.5164	0.01542	0.209
Mof_C 	C 	0.4291	0.4847	0.03164	1.273
Mof_C 	C 	0.3494	0.4581	0.0218	-0.112
Mof_H 	H 	0.3131	0.3986	0.0268	-0.256
Mof_H 	H 	0.3271	0.4908	0.0305	0.183
Mof_C 	C 	0.6613	0.5369	0.00427	-2.846
Mof_H 	H 	0.7197	0.5577	0.0079	0.794
Mof_H 	H 	0.6289	0.4794	0.0097	0.389
Mof_C 	C 	0.6713	0.8898	0.27822	2.296
Mof_H 	H 	0.645	0.9116	0.2672	-0.838
Mof_C 	C 	0.7617	0.831	0.28395	-2.596
Mof_H 	H 	0.7977	0.8122	0.2769	1.094
Mof_C 	C 	0.7482	0.8272	0.31012	1.577
Mof_H 	H 	0.7704	0.8099	0.3207	0.55
Mof_C 	C 	0.6963	0.8548	0.32035	-0.069
Mof_C 	C 	0.6579	0.8861	0.3044	-1.312
Mof_C 	C 	0.6059	0.9135	0.31463	1.417
Mof_H 	H 	0.6283	0.971	0.3095	-0.311
Mof_H 	H 	0.5519	0.8818	0.3066	-0.269
Mof_C 	C 	0.5925	0.9098	0.3408	-0.062
Mof_H 	H 	0.5554	0.931	0.3447	0.245
Mof_H 	H 	0.6452	0.9433	0.3494	-0.033
Mof_O 	O 	0.41347	0.97323	0.46649	-0.408
Mof_O 	O 	0.37107	0.89053	0.50117	-0.407
Mof_C 	C 	0.35937	0.90943	0.47884	0.335
Mof_C 	C 	0.26777	0.86243	0.44055	-0.114
Mof_H 	H 	0.30837	0.91173	0.43193	0.079
Mof_C 	C 	0.28037	0.85063	0.46602	-0.045
Mof_C 	C 	0.10647	0.81303	0.39104	-2.741
Mof_H 	H 	0.05877	0.79123	0.40223	1.184
Mof_C 	C 	0.18617	0.83963	0.40089	0.343
Mof_C 	C 	0.25527	0.87133	0.38466	2.105
Mof_H 	H 	0.31037	0.88973	0.39143	-0.709
Mof_C 	C 	0.24457	0.87633	0.3586	-1.594
Mof_H 	H 	0.30097	0.90103	0.34693	0.535
Mof_C 	C 	0.16487	0.84973	0.34875	0.183
Mof_C 	C 	0.09577	0.81803	0.36497	1.245
Mof_C 	C 	0.01607	0.79143	0.35513	-0.083
Mof_H 	H 	0.97977	0.73193	0.36013	-0.25
Mof_H 	H 	0.99377	0.82413	0.36383	0.16
Mof_C 	C 	0.32797	0.87023	0.3376	-2.751
Mof_H 	H 	0.38637	0.89103	0.34123	0.763
Mof_H 	H 	0.29557	0.81273	0.34303	0.378
Mof_C 	C 	0.33797	0.22313	0.61155	2.305
Mof_H 	H 	0.31167	0.24493	0.60053	-0.843
Mof_C 	C 	0.42837	0.16433	0.61728	-2.628
Mof_H 	H 	0.46437	0.14553	0.61023	1.109
Mof_C 	C 	0.41487	0.16053	0.64345	1.582
Mof_H 	H 	0.43707	0.14323	0.65403	0.562
Mof_C 	C 	0.36297	0.18813	0.65368	-0.066
Mof_C 	C 	0.32457	0.21943	0.63773	-1.333
Mof_C 	C 	0.27257	0.24683	0.64796	1.399
Mof_H 	H 	0.29497	0.30433	0.64283	-0.311
Mof_H 	H 	0.21857	0.21513	0.63993	-0.277
Mof_C 	C 	0.25917	0.24313	0.67413	-0.059
Mof_H 	H 	0.22207	0.26433	0.67803	0.241
Mof_H 	H 	0.31187	0.27663	0.68273	-0.034
Mof_O 	O 	0.08013	0.30657	0.79983	-0.409
Mof_O 	O 	0.03773	0.22387	0.83451	-0.404
Mof_C 	C 	0.02603	0.24277	0.81218	0.314
Mof_C 	C 	0.93443	0.19577	0.77389	-0.128
Mof_H 	H 	0.97503	0.24507	0.76527	0.087
Mof_C 	C 	0.94703	0.18397	0.79936	-0.016
Mof_C 	C 	0.77313	0.14637	0.72438	-2.653
Mof_H 	H 	0.72543	0.12457	0.73557	1.145
Mof_C 	C 	0.85283	0.17297	0.73423	0.338
Mof_C 	C 	0.92193	0.20467	0.718	2.038
Mof_H 	H 	0.97703	0.22307	0.72477	-0.686
Mof_C 	C 	0.91123	0.20967	0.69194	-1.554
Mof_H 	H 	0.96763	0.23437	0.68027	0.526
Mof_C 	C 	0.83153	0.18307	0.68209	0.186
Mof_C 	C 	0.76243	0.15137	0.69831	1.194
Mof_C 	C 	0.68273	0.12477	0.68847	-0.113
Mof_H 	H 	0.64643	0.06527	0.69347	-0.246
Mof_H 	H 	0.66043	0.15747	0.69717	0.175
Mof_C 	C 	0.99463	0.20357	0.67094	-2.678
Mof_H 	H 	0.05303	0.22437	0.67457	0.738
Mof_H 	H 	0.96223	0.14607	0.67637	0.37
Mof_C 	C 	0.00463	0.55647	0.94489	2.07
Mof_H 	H 	0.97833	0.57827	0.93387	-0.75
Mof_C 	C 	0.09503	0.49767	0.95062	-2.357
Mof_H 	H 	0.13103	0.47887	0.94357	0.996
Mof_C 	C 	0.08153	0.49387	0.97679	1.445
Mof_H 	H 	0.10373	0.47657	0.98737	0.469
Mof_C 	C 	0.02963	0.52147	0.98702	-0.087
Mof_C 	C 	0.99123	0.55277	0.97107	-1.223
Mof_C 	C 	0.93923	0.58017	0.9813	1.208
Mof_H 	H 	0.96163	0.63767	0.97617	-0.269
Mof_H 	H 	0.88523	0.54847	0.97327	-0.249
Mof_C 	C 	0.92583	0.57647	0.00747	-0.045
Mof_H 	H 	0.88873	0.59767	0.01137	0.21
Mof_H 	H 	0.97853	0.60997	0.01607	-0.017
Mof_Cu	Cu	0.8582	0.1418	0.1462	0.905
Mof_Cu	Cu	0.52487	0.47513	0.47953	0.906
Mof_Cu	Cu	0.19153	0.80847	0.81287	0.905
Mof_Cu	Cu	0.8582	0.7164	0.1462	0.906
Mof_Cu	Cu	0.52487	0.04973	0.47953	0.905
Mof_Cu	Cu	0.19153	0.38307	0.81287	0.905
Mof_Cu	Cu	0.2836	0.1418	0.1462	0.906
Mof_Cu	Cu	0.95027	0.47513	0.47953	0.905
Mof_Cu	Cu	0.61693	0.80847	0.81287	0.905
Mof_Cu	Cu	0.1418	0.8582	0.8538	0.905
Mof_Cu	Cu	0.80847	0.19153	0.18713	0.905
Mof_Cu	Cu	0.47513	0.52487	0.52047	0.906
Mof_Cu	Cu	0.7164	0.8582	0.8538	0.906
Mof_Cu	Cu	0.38307	0.19153	0.18713	0.905
Mof_Cu	Cu	0.04973	0.52487	0.52047	0.905
Mof_Cu	Cu	0.1418	0.2836	0.8538	0.906
Mof_Cu	Cu	0.80847	0.61693	0.18713	0.905
Mof_Cu	Cu	0.47513	0.95027	0.52047	0.905
Mof_C 	C 	0.5301	0.0602	0.09426	0.167
Mof_C 	C 	0.5549	0.1098	0.14529	-0.005
Mof_H 	H 	0.56395	0.1279	0.1625	0.056
Mof_C 	C 	0.19677	0.39353	0.42759	0.191
Mof_C 	C 	0.22157	0.44313	0.47862	-0.012
Mof_H 	H 	0.23062	0.46123	0.49583	0.059
Mof_C 	C 	0.86343	0.72687	0.76093	0.194
Mof_C 	C 	0.88823	0.77647	0.81196	-0.022
Mof_H 	H 	0.89728	0.79457	0.82917	0.066
Mof_C 	C 	0.9398	0.4699	0.09426	0.167
Mof_C 	C 	0.8902	0.4451	0.14529	-0.005
Mof_H 	H 	0.8721	0.43605	0.1625	0.056
Mof_C 	C 	0.60647	0.80323	0.42759	0.191
Mof_C 	C 	0.55687	0.77843	0.47862	-0.012
Mof_H 	H 	0.53877	0.76938	0.49583	0.059
Mof_C 	C 	0.27313	0.13657	0.76093	0.194
Mof_C 	C 	0.22353	0.11177	0.81196	-0.022
Mof_H 	H 	0.20543	0.10272	0.82917	0.066
Mof_C 	C 	0.5301	0.4699	0.09426	0.199
Mof_C 	C 	0.5549	0.4451	0.14529	-0.014
Mof_H 	H 	0.56395	0.43605	0.1625	0.06
Mof_C 	C 	0.19677	0.80323	0.42759	0.19
Mof_C 	C 	0.22157	0.77843	0.47862	-0.011
Mof_H 	H 	0.23062	0.76938	0.49583	0.059
Mof_C 	C 	0.86343	0.13657	0.76093	0.199
Mof_C 	C 	0.88823	0.11177	0.81196	-0.032
Mof_H 	H 	0.89728	0.10272	0.82917	0.073
Mof_C 	C 	0.0602	0.5301	0.90574	0.167
Mof_C 	C 	0.1098	0.5549	0.85471	-0.005
Mof_H 	H 	0.1279	0.56395	0.8375	0.056
Mof_C 	C 	0.72687	0.86343	0.23907	0.194
Mof_C 	C 	0.77647	0.88823	0.18804	-0.022
Mof_H 	H 	0.79457	0.89728	0.17083	0.066
Mof_C 	C 	0.39353	0.19677	0.57241	0.191
Mof_C 	C 	0.44313	0.22157	0.52138	-0.012
Mof_H 	H 	0.46123	0.23062	0.50417	0.059
Mof_C 	C 	0.4699	0.9398	0.90574	0.167
Mof_C 	C 	0.4451	0.8902	0.85471	-0.005
Mof_H 	H 	0.43605	0.8721	0.8375	0.056
Mof_C 	C 	0.13657	0.27313	0.23907	0.194
Mof_C 	C 	0.11177	0.22353	0.18804	-0.022
Mof_H 	H 	0.10272	0.20543	0.17083	0.066
Mof_C 	C 	0.80323	0.60647	0.57241	0.191
Mof_C 	C 	0.77843	0.55687	0.52138	-0.012
Mof_H 	H 	0.76938	0.53877	0.50417	0.059
Mof_C 	C 	0.4699	0.5301	0.90574	0.199
Mof_C 	C 	0.4451	0.5549	0.85471	-0.014
Mof_H 	H 	0.43605	0.56395	0.8375	0.06
Mof_C 	C 	0.13657	0.86343	0.23907	0.199
Mof_C 	C 	0.11177	0.88823	0.18804	-0.032
Mof_H 	H 	0.10272	0.89728	0.17083	0.073
Mof_C 	C 	0.80323	0.19677	0.57241	0.19
Mof_C 	C 	0.77843	0.22157	0.52138	-0.011
Mof_H 	H 	0.76938	0.23062	0.50417	0.059
Mof_C 	C 	0.7233	0.86165	0.268	-0.892
Mof_C 	C 	0.38997	0.19498	0.60133	-0.913
Mof_C 	C 	0.05663	0.52832	0.93467	-0.866
Mof_C 	C 	0.13835	0.86165	0.268	-0.883
Mof_C 	C 	0.80502	0.19498	0.60133	-0.894
Mof_C 	C 	0.47168	0.52832	0.93467	-0.951
Mof_C 	C 	0.13835	0.2767	0.268	-0.892
Mof_C 	C 	0.80502	0.61003	0.60133	-0.913
Mof_C 	C 	0.47168	0.94337	0.93467	-0.866
Mof_C 	C 	0.86165	0.7233	0.732	-0.892
Mof_C 	C 	0.52832	0.05663	0.06533	-0.866
Mof_C 	C 	0.19498	0.38997	0.39867	-0.913
Mof_C 	C 	0.86165	0.13835	0.732	-0.883
Mof_C 	C 	0.52832	0.47168	0.06533	-0.951
Mof_C 	C 	0.19498	0.80502	0.39867	-0.894
Mof_C 	C 	0.2767	0.13835	0.732	-0.892
Mof_C 	C 	0.94337	0.47168	0.06533	-0.866
Mof_C 	C 	0.61003	0.80502	0.39867	-0.913
_end
