data_functionalizedCrystal
_audit_creation_method	'EQeq! by Chris Wilmer'
_symmetry_space_group_name_H-M	'P1'
_symmetry_Int_Tables_number	1
_symmetry_cell_setting	triclinic
loop_
_symmetry_equiv_pos_as_xyz
  x,y,z
_cell_length_a	33.5078
_cell_length_b	33.5078
_cell_length_c	33.456
_cell_angle_alpha	90
_cell_angle_beta	90
_cell_angle_gamma	90
loop_
_atom_site_label
_atom_site_type_symbol
_atom_site_fract_x
_atom_site_fract_y
_atom_site_fract_z
_atom_site_charge
Mof_O 	O 	0.32367	0.04175	0.45748	-0.472
Mof_O 	O 	0.25709	0.04131	0.458	-0.49
Mof_C 	C 	0.29024	0.05307	0.44492	0.416
Mof_C 	C 	0.28979	0.08271	0.41167	-0.154
Mof_C 	C 	0.32416	0.09718	0.39509	0.078
Mof_H 	H 	0.3486	0.0891	0.4054	0.015
Mof_C 	C 	0.32326	0.12335	0.36363	-0.138
Mof_H 	H 	0.3471	0.1324	0.3527	0.078
Mof_C 	C 	0.28758	0.13657	0.34784	0.061
Mof_C 	C 	0.25258	0.122	0.36478	-0.138
Mof_H 	H 	0.2281	0.1303	0.3548	0.074
Mof_C 	C 	0.25374	0.0957	0.39591	0.074
Mof_H 	H 	0.23	0.0863	0.4067	0.012
Mof_C 	C 	0.28585	0.16516	0.31388	0.042
Mof_C 	C 	0.31193	0.16236	0.282	-0.135
Mof_H 	H 	0.3309	0.1421	0.2816	0.075
Mof_C 	C 	0.25282	0.2216	0.28247	0.03
Mof_C 	C 	0.25677	0.19481	0.31341	-0.107
Mof_H 	H 	0.2393	0.1966	0.3349	0.065
Mof_C 	C 	0.41513	0.99	0.46763	0.014
Mof_H 	H 	0.4011	0.9834	0.4446	0.012
Mof_C 	C 	0.4554	0.9898	0.46632	-0.068
Mof_H 	H 	0.4688	0.9822	0.4432	0.042
Mof_C 	C 	0.4156	0.028	0.4809	-0.035
Mof_H 	H 	0.4017	0.047	0.4661	0.03
Mof_C 	C 	0.45552	0.0291	0.481	-0.025
Mof_H 	H 	0.469	0.0502	0.4691	0.027
Mof_O 	O 	0.82367	0.54175	0.95748	-0.46
Mof_O 	O 	0.75709	0.54131	0.958	-0.476
Mof_C 	C 	0.79024	0.55307	0.94492	0.413
Mof_C 	C 	0.78979	0.58271	0.91167	-0.148
Mof_C 	C 	0.82416	0.59718	0.89509	0.076
Mof_H 	H 	0.8486	0.5891	0.9054	0.019
Mof_C 	C 	0.82326	0.62335	0.86363	-0.134
Mof_H 	H 	0.8471	0.6324	0.8527	0.079
Mof_C 	C 	0.78758	0.63657	0.84784	0.059
Mof_C 	C 	0.75258	0.622	0.86478	-0.133
Mof_H 	H 	0.7281	0.6303	0.8548	0.076
Mof_C 	C 	0.75374	0.5957	0.89591	0.072
Mof_H 	H 	0.73	0.5863	0.9067	0.018
Mof_C 	C 	0.78585	0.66516	0.81388	0.046
Mof_C 	C 	0.81193	0.66236	0.782	-0.137
Mof_H 	H 	0.8309	0.6421	0.7816	0.078
Mof_C 	C 	0.75282	0.7216	0.78247	0.032
Mof_C 	C 	0.75677	0.69481	0.81341	-0.107
Mof_H 	H 	0.7393	0.6966	0.8349	0.067
Mof_C 	C 	0.91513	0.49	0.96763	0.081
Mof_H 	H 	0.9011	0.4834	0.9446	-0.014
Mof_C 	C 	0.9554	0.4898	0.96632	-0.002
Mof_H 	H 	0.9688	0.4822	0.9432	0.021
Mof_C 	C 	0.9156	0.528	0.9809	-0.083
Mof_H 	H 	0.9017	0.547	0.9661	0.052
Mof_C 	C 	0.95552	0.5291	0.981	-0.083
Mof_H 	H 	0.969	0.5502	0.9691	0.057
Mof_O 	O 	0.67633	0.95825	0.45748	-0.466
Mof_O 	O 	0.74291	0.95869	0.458	-0.482
Mof_C 	C 	0.70976	0.94693	0.44492	0.414
Mof_C 	C 	0.71021	0.91729	0.41167	-0.151
Mof_C 	C 	0.67584	0.90282	0.39509	0.076
Mof_H 	H 	0.6514	0.9109	0.4054	0.016
Mof_C 	C 	0.67674	0.87665	0.36363	-0.136
Mof_H 	H 	0.6529	0.8676	0.3527	0.077
Mof_C 	C 	0.71242	0.86343	0.34784	0.06
Mof_C 	C 	0.74742	0.878	0.36478	-0.135
Mof_H 	H 	0.7719	0.8697	0.3548	0.076
Mof_C 	C 	0.74626	0.9043	0.39591	0.073
Mof_H 	H 	0.77	0.9137	0.4067	0.016
Mof_C 	C 	0.71415	0.83484	0.31388	0.044
Mof_C 	C 	0.68807	0.83764	0.282	-0.136
Mof_H 	H 	0.6691	0.8579	0.2816	0.077
Mof_C 	C 	0.74718	0.7784	0.28247	0.031
Mof_C 	C 	0.74323	0.80519	0.31341	-0.107
Mof_H 	H 	0.7607	0.8034	0.3349	0.065
Mof_C 	C 	0.58487	0.01	0.46763	0.055
Mof_H 	H 	0.5989	0.0166	0.4446	-0.01
Mof_C 	C 	0.5446	0.0102	0.46632	-0.024
Mof_H 	H 	0.5312	0.0178	0.4432	0.021
Mof_C 	C 	0.5844	0.972	0.4809	-0.008
Mof_H 	H 	0.5983	0.953	0.4661	0.023
Mof_C 	C 	0.54448	0.9709	0.481	0.001
Mof_H 	H 	0.531	0.9498	0.4691	0.02
Mof_O 	O 	0.17633	0.45825	0.95748	-0.461
Mof_O 	O 	0.24291	0.45869	0.958	-0.476
Mof_C 	C 	0.20976	0.44693	0.94492	0.413
Mof_C 	C 	0.21021	0.41729	0.91167	-0.148
Mof_C 	C 	0.17584	0.40282	0.89509	0.075
Mof_H 	H 	0.1514	0.4109	0.9054	0.017
Mof_C 	C 	0.17674	0.37665	0.86363	-0.135
Mof_H 	H 	0.1529	0.3676	0.8527	0.076
Mof_C 	C 	0.21242	0.36343	0.84784	0.059
Mof_C 	C 	0.24742	0.378	0.86478	-0.134
Mof_H 	H 	0.2719	0.3697	0.8548	0.076
Mof_C 	C 	0.24626	0.4043	0.89591	0.072
Mof_H 	H 	0.27	0.4137	0.9067	0.018
Mof_C 	C 	0.21415	0.33484	0.81388	0.044
Mof_C 	C 	0.18807	0.33764	0.782	-0.136
Mof_H 	H 	0.1691	0.3579	0.7816	0.076
Mof_C 	C 	0.24718	0.2784	0.78247	0.031
Mof_C 	C 	0.24323	0.30519	0.81341	-0.107
Mof_H 	H 	0.2607	0.3034	0.8349	0.066
Mof_C 	C 	0.08487	0.51	0.96763	0.072
Mof_H 	H 	0.0989	0.5166	0.9446	-0.011
Mof_C 	C 	0.0446	0.5102	0.96632	0.01
Mof_H 	H 	0.0312	0.5178	0.9432	0.011
Mof_C 	C 	0.0844	0.472	0.9809	-0.079
Mof_H 	H 	0.0983	0.453	0.9661	0.05
Mof_C 	C 	0.04448	0.4709	0.981	-0.08
Mof_H 	H 	0.031	0.4498	0.9691	0.048
Mof_O 	O 	0.95825	0.32367	0.45748	-0.466
Mof_O 	O 	0.95869	0.25709	0.458	-0.483
Mof_C 	C 	0.94693	0.29024	0.44492	0.414
Mof_C 	C 	0.91729	0.28979	0.41167	-0.151
Mof_C 	C 	0.90282	0.32416	0.39509	0.076
Mof_H 	H 	0.9109	0.3486	0.4054	0.016
Mof_C 	C 	0.87665	0.32326	0.36363	-0.137
Mof_H 	H 	0.8676	0.3471	0.3527	0.077
Mof_C 	C 	0.86343	0.28758	0.34784	0.06
Mof_C 	C 	0.878	0.25258	0.36478	-0.136
Mof_H 	H 	0.8697	0.2281	0.3548	0.075
Mof_C 	C 	0.9043	0.25374	0.39591	0.073
Mof_H 	H 	0.9137	0.23	0.4067	0.015
Mof_C 	C 	0.83484	0.28585	0.31388	0.044
Mof_C 	C 	0.83764	0.31193	0.282	-0.136
Mof_H 	H 	0.8579	0.3309	0.2816	0.077
Mof_C 	C 	0.7784	0.25282	0.28247	0.031
Mof_C 	C 	0.80519	0.25677	0.31341	-0.107
Mof_H 	H 	0.8034	0.2393	0.3349	0.065
Mof_C 	C 	0.01	0.41513	0.46763	0.055
Mof_H 	H 	0.0166	0.4011	0.4446	-0.01
Mof_C 	C 	0.0102	0.4554	0.46632	-0.024
Mof_H 	H 	0.0178	0.4688	0.4432	0.02
Mof_C 	C 	0.972	0.4156	0.4809	-0.008
Mof_H 	H 	0.953	0.4017	0.4661	0.023
Mof_C 	C 	0.9709	0.45552	0.481	0.001
Mof_H 	H 	0.9498	0.469	0.4691	0.02
Mof_O 	O 	0.45825	0.82367	0.95748	-0.46
Mof_O 	O 	0.45869	0.75709	0.958	-0.476
Mof_C 	C 	0.44693	0.79024	0.94492	0.413
Mof_C 	C 	0.41729	0.78979	0.91167	-0.148
Mof_C 	C 	0.40282	0.82416	0.89509	0.075
Mof_H 	H 	0.4109	0.8486	0.9054	0.018
Mof_C 	C 	0.37665	0.82326	0.86363	-0.135
Mof_H 	H 	0.3676	0.8471	0.8527	0.078
Mof_C 	C 	0.36343	0.78758	0.84784	0.059
Mof_C 	C 	0.378	0.75258	0.86478	-0.133
Mof_H 	H 	0.3697	0.7281	0.8548	0.076
Mof_C 	C 	0.4043	0.75374	0.89591	0.072
Mof_H 	H 	0.4137	0.73	0.9067	0.018
Mof_C 	C 	0.33484	0.78585	0.81388	0.046
Mof_C 	C 	0.33764	0.81193	0.782	-0.137
Mof_H 	H 	0.3579	0.8309	0.7816	0.078
Mof_C 	C 	0.2784	0.75282	0.78247	0.032
Mof_C 	C 	0.30519	0.75677	0.81341	-0.108
Mof_H 	H 	0.3034	0.7393	0.8349	0.067
Mof_C 	C 	0.51	0.91513	0.96763	0.081
Mof_H 	H 	0.5166	0.9011	0.9446	-0.014
Mof_C 	C 	0.5102	0.9554	0.96632	-0.002
Mof_H 	H 	0.5178	0.9688	0.9432	0.021
Mof_C 	C 	0.472	0.9156	0.9809	-0.083
Mof_H 	H 	0.453	0.9017	0.9661	0.052
Mof_C 	C 	0.4709	0.95552	0.981	-0.083
Mof_H 	H 	0.4498	0.969	0.9691	0.057
Mof_O 	O 	0.04175	0.67633	0.45748	-0.473
Mof_O 	O 	0.04131	0.74291	0.458	-0.491
Mof_C 	C 	0.05307	0.70976	0.44492	0.415
Mof_C 	C 	0.08271	0.71021	0.41167	-0.155
Mof_C 	C 	0.09718	0.67584	0.39509	0.077
Mof_H 	H 	0.0891	0.6514	0.4054	0.014
Mof_C 	C 	0.12335	0.67674	0.36363	-0.139
Mof_H 	H 	0.1324	0.6529	0.3527	0.077
Mof_C 	C 	0.13657	0.71242	0.34784	0.06
Mof_C 	C 	0.122	0.74742	0.36478	-0.138
Mof_H 	H 	0.1303	0.7719	0.3548	0.075
Mof_C 	C 	0.0957	0.74626	0.39591	0.074
Mof_H 	H 	0.0863	0.77	0.4067	0.013
Mof_C 	C 	0.16516	0.71415	0.31388	0.042
Mof_C 	C 	0.16236	0.68807	0.282	-0.135
Mof_H 	H 	0.1421	0.6691	0.2816	0.075
Mof_C 	C 	0.2216	0.74718	0.28247	0.03
Mof_C 	C 	0.19481	0.74323	0.31341	-0.106
Mof_H 	H 	0.1966	0.7607	0.3349	0.065
Mof_C 	C 	0.99	0.58487	0.46763	0.014
Mof_H 	H 	0.9834	0.5989	0.4446	0.012
Mof_C 	C 	0.9898	0.5446	0.46632	-0.068
Mof_H 	H 	0.9822	0.5312	0.4432	0.042
Mof_C 	C 	0.028	0.5844	0.4809	-0.035
Mof_H 	H 	0.047	0.5983	0.4661	0.03
Mof_C 	C 	0.0291	0.54448	0.481	-0.025
Mof_H 	H 	0.0502	0.531	0.4691	0.027
Mof_O 	O 	0.54175	0.17633	0.95748	-0.461
Mof_O 	O 	0.54131	0.24291	0.958	-0.476
Mof_C 	C 	0.55307	0.20976	0.94492	0.413
Mof_C 	C 	0.58271	0.21021	0.91167	-0.148
Mof_C 	C 	0.59718	0.17584	0.89509	0.075
Mof_H 	H 	0.5891	0.1514	0.9054	0.017
Mof_C 	C 	0.62335	0.17674	0.86363	-0.135
Mof_H 	H 	0.6324	0.1529	0.8527	0.077
Mof_C 	C 	0.63657	0.21242	0.84784	0.059
Mof_C 	C 	0.622	0.24742	0.86478	-0.134
Mof_H 	H 	0.6303	0.2719	0.8548	0.076
Mof_C 	C 	0.5957	0.24626	0.89591	0.072
Mof_H 	H 	0.5863	0.27	0.9067	0.018
Mof_C 	C 	0.66516	0.21415	0.81388	0.045
Mof_C 	C 	0.66236	0.18807	0.782	-0.136
Mof_H 	H 	0.6421	0.1691	0.7816	0.076
Mof_C 	C 	0.7216	0.24718	0.78247	0.031
Mof_C 	C 	0.69481	0.24323	0.81341	-0.107
Mof_H 	H 	0.6966	0.2607	0.8349	0.067
Mof_C 	C 	0.49	0.08487	0.96763	0.072
Mof_H 	H 	0.4834	0.0989	0.9446	-0.011
Mof_C 	C 	0.4898	0.0446	0.96632	0.009
Mof_H 	H 	0.4822	0.0312	0.9432	0.011
Mof_C 	C 	0.528	0.0844	0.9809	-0.079
Mof_H 	H 	0.547	0.0983	0.9661	0.05
Mof_C 	C 	0.5291	0.04448	0.981	-0.08
Mof_H 	H 	0.5502	0.031	0.9691	0.049
Mof_O 	O 	0.67633	0.04175	0.54252	-0.473
Mof_O 	O 	0.74291	0.04131	0.542	-0.49
Mof_C 	C 	0.70976	0.05307	0.55508	0.415
Mof_C 	C 	0.71021	0.08271	0.58833	-0.155
Mof_C 	C 	0.67584	0.09718	0.60491	0.077
Mof_H 	H 	0.6514	0.0891	0.5946	0.014
Mof_C 	C 	0.67674	0.12335	0.63637	-0.139
Mof_H 	H 	0.6529	0.1324	0.6473	0.077
Mof_C 	C 	0.71242	0.13657	0.65216	0.061
Mof_C 	C 	0.74742	0.122	0.63522	-0.138
Mof_H 	H 	0.7719	0.1303	0.6452	0.076
Mof_C 	C 	0.74626	0.0957	0.60409	0.074
Mof_H 	H 	0.77	0.0863	0.5933	0.013
Mof_C 	C 	0.71415	0.16516	0.68612	0.043
Mof_C 	C 	0.68807	0.16236	0.718	-0.135
Mof_H 	H 	0.6691	0.1421	0.7184	0.076
Mof_C 	C 	0.74718	0.2216	0.71753	0.03
Mof_C 	C 	0.74323	0.19481	0.68659	-0.106
Mof_H 	H 	0.7607	0.1966	0.6651	0.065
Mof_C 	C 	0.58487	0.99	0.53237	0.014
Mof_H 	H 	0.5989	0.9834	0.5554	0.012
Mof_C 	C 	0.5446	0.9898	0.53368	-0.068
Mof_H 	H 	0.5312	0.9822	0.5568	0.042
Mof_C 	C 	0.5844	0.028	0.5191	-0.035
Mof_H 	H 	0.5983	0.047	0.5339	0.03
Mof_C 	C 	0.54448	0.0291	0.519	-0.025
Mof_H 	H 	0.531	0.0502	0.5309	0.027
Mof_O 	O 	0.17633	0.54175	0.04252	-0.477
Mof_O 	O 	0.24291	0.54131	0.042	-0.495
Mof_C 	C 	0.20976	0.55307	0.05508	0.415
Mof_C 	C 	0.21021	0.58271	0.08833	-0.157
Mof_C 	C 	0.17584	0.59718	0.10491	0.078
Mof_H 	H 	0.1514	0.5891	0.0946	0.012
Mof_C 	C 	0.17674	0.62335	0.13637	-0.141
Mof_H 	H 	0.1529	0.6324	0.1473	0.076
Mof_C 	C 	0.21242	0.63657	0.15216	0.061
Mof_C 	C 	0.24742	0.622	0.13522	-0.14
Mof_H 	H 	0.2719	0.6303	0.1452	0.075
Mof_C 	C 	0.24626	0.5957	0.10409	0.075
Mof_H 	H 	0.27	0.5863	0.0933	0.011
Mof_C 	C 	0.21415	0.66516	0.18612	0.041
Mof_C 	C 	0.18807	0.66236	0.218	-0.135
Mof_H 	H 	0.1691	0.6421	0.2184	0.075
Mof_C 	C 	0.24718	0.7216	0.21753	0.029
Mof_C 	C 	0.24323	0.69481	0.18659	-0.106
Mof_H 	H 	0.2607	0.6966	0.1651	0.064
Mof_C 	C 	0.08487	0.49	0.03237	-0.016
Mof_H 	H 	0.0989	0.4834	0.0554	0.017
Mof_C 	C 	0.0446	0.4898	0.03368	-0.085
Mof_H 	H 	0.0312	0.4822	0.0568	0.04
Mof_C 	C 	0.0844	0.528	0.0191	0.048
Mof_H 	H 	0.0983	0.547	0.0339	-0.001
Mof_C 	C 	0.04448	0.5291	0.019	0.065
Mof_H 	H 	0.031	0.5502	0.0309	-0.01
Mof_O 	O 	0.32367	0.95825	0.54252	-0.466
Mof_O 	O 	0.25709	0.95869	0.542	-0.482
Mof_C 	C 	0.29024	0.94693	0.55508	0.414
Mof_C 	C 	0.28979	0.91729	0.58833	-0.151
Mof_C 	C 	0.32416	0.90282	0.60491	0.077
Mof_H 	H 	0.3486	0.9109	0.5946	0.016
Mof_C 	C 	0.32326	0.87665	0.63637	-0.137
Mof_H 	H 	0.3471	0.8676	0.6473	0.077
Mof_C 	C 	0.28758	0.86343	0.65216	0.06
Mof_C 	C 	0.25258	0.878	0.63522	-0.135
Mof_H 	H 	0.2281	0.8697	0.6452	0.076
Mof_C 	C 	0.25374	0.9043	0.60409	0.073
Mof_H 	H 	0.23	0.9137	0.5933	0.015
Mof_C 	C 	0.28585	0.83484	0.68612	0.045
Mof_C 	C 	0.31193	0.83764	0.718	-0.137
Mof_H 	H 	0.3309	0.8579	0.7184	0.078
Mof_C 	C 	0.25282	0.7784	0.71753	0.031
Mof_C 	C 	0.25677	0.80519	0.68659	-0.107
Mof_H 	H 	0.2393	0.8034	0.6651	0.065
Mof_C 	C 	0.41513	0.01	0.53237	0.055
Mof_H 	H 	0.4011	0.0166	0.5554	-0.01
Mof_C 	C 	0.4554	0.0102	0.53368	-0.024
Mof_H 	H 	0.4688	0.0178	0.5568	0.021
Mof_C 	C 	0.4156	0.972	0.5191	-0.008
Mof_H 	H 	0.4017	0.953	0.5339	0.023
Mof_C 	C 	0.45552	0.9709	0.519	0.001
Mof_H 	H 	0.469	0.9498	0.5309	0.02
Mof_O 	O 	0.82367	0.45825	0.04252	-0.476
Mof_O 	O 	0.75709	0.45869	0.042	-0.495
Mof_C 	C 	0.79024	0.44693	0.05508	0.415
Mof_C 	C 	0.78979	0.41729	0.08833	-0.157
Mof_C 	C 	0.82416	0.40282	0.10491	0.078
Mof_H 	H 	0.8486	0.4109	0.0946	0.014
Mof_C 	C 	0.82326	0.37665	0.13637	-0.14
Mof_H 	H 	0.8471	0.3676	0.1473	0.077
Mof_C 	C 	0.78758	0.36343	0.15216	0.061
Mof_C 	C 	0.75258	0.378	0.13522	-0.139
Mof_H 	H 	0.7281	0.3697	0.1452	0.075
Mof_C 	C 	0.75374	0.4043	0.10409	0.075
Mof_H 	H 	0.73	0.4137	0.0933	0.011
Mof_C 	C 	0.78585	0.33484	0.18612	0.042
Mof_C 	C 	0.81193	0.33764	0.218	-0.136
Mof_H 	H 	0.8309	0.3579	0.2184	0.077
Mof_C 	C 	0.75282	0.2784	0.21753	0.03
Mof_C 	C 	0.75677	0.30519	0.18659	-0.107
Mof_H 	H 	0.7393	0.3034	0.1651	0.064
Mof_C 	C 	0.91513	0.51	0.03237	-0.007
Mof_H 	H 	0.9011	0.5166	0.0554	0.015
Mof_C 	C 	0.9554	0.5102	0.03368	-0.096
Mof_H 	H 	0.9688	0.5178	0.0568	0.05
Mof_C 	C 	0.9156	0.472	0.0191	0.043
Mof_H 	H 	0.9017	0.453	0.0339	0.001
Mof_C 	C 	0.95552	0.4709	0.019	0.061
Mof_H 	H 	0.969	0.4498	0.0309	-0.002
Mof_O 	O 	0.04175	0.32367	0.54252	-0.473
Mof_O 	O 	0.04131	0.25709	0.542	-0.491
Mof_C 	C 	0.05307	0.29024	0.55508	0.415
Mof_C 	C 	0.08271	0.28979	0.58833	-0.155
Mof_C 	C 	0.09718	0.32416	0.60491	0.078
Mof_H 	H 	0.0891	0.3486	0.5946	0.014
Mof_C 	C 	0.12335	0.32326	0.63637	-0.139
Mof_H 	H 	0.1324	0.3471	0.6473	0.077
Mof_C 	C 	0.13657	0.28758	0.65216	0.061
Mof_C 	C 	0.122	0.25258	0.63522	-0.138
Mof_H 	H 	0.1303	0.2281	0.6452	0.075
Mof_C 	C 	0.0957	0.25374	0.60409	0.074
Mof_H 	H 	0.0863	0.23	0.5933	0.012
Mof_C 	C 	0.16516	0.28585	0.68612	0.042
Mof_C 	C 	0.16236	0.31193	0.718	-0.136
Mof_H 	H 	0.1421	0.3309	0.7184	0.076
Mof_C 	C 	0.2216	0.25282	0.71753	0.03
Mof_C 	C 	0.19481	0.25677	0.68659	-0.107
Mof_H 	H 	0.1966	0.2393	0.6651	0.065
Mof_C 	C 	0.99	0.41513	0.53237	0.014
Mof_H 	H 	0.9834	0.4011	0.5554	0.012
Mof_C 	C 	0.9898	0.4554	0.53368	-0.068
Mof_H 	H 	0.9822	0.4688	0.5568	0.042
Mof_C 	C 	0.028	0.4156	0.5191	-0.035
Mof_H 	H 	0.047	0.4017	0.5339	0.03
Mof_C 	C 	0.0291	0.45552	0.519	-0.025
Mof_H 	H 	0.0502	0.469	0.5309	0.027
Mof_O 	O 	0.54175	0.82367	0.04252	-0.476
Mof_O 	O 	0.54131	0.75709	0.042	-0.495
Mof_C 	C 	0.55307	0.79024	0.05508	0.415
Mof_C 	C 	0.58271	0.78979	0.08833	-0.157
Mof_C 	C 	0.59718	0.82416	0.10491	0.078
Mof_H 	H 	0.5891	0.8486	0.0946	0.014
Mof_C 	C 	0.62335	0.82326	0.13637	-0.14
Mof_H 	H 	0.6324	0.8471	0.1473	0.078
Mof_C 	C 	0.63657	0.78758	0.15216	0.061
Mof_C 	C 	0.622	0.75258	0.13522	-0.139
Mof_H 	H 	0.6303	0.7281	0.1452	0.075
Mof_C 	C 	0.5957	0.75374	0.10409	0.075
Mof_H 	H 	0.5863	0.73	0.0933	0.011
Mof_C 	C 	0.66516	0.78585	0.18612	0.042
Mof_C 	C 	0.66236	0.81193	0.218	-0.136
Mof_H 	H 	0.6421	0.8309	0.2184	0.077
Mof_C 	C 	0.7216	0.75282	0.21753	0.03
Mof_C 	C 	0.69481	0.75677	0.18659	-0.107
Mof_H 	H 	0.6966	0.7393	0.1651	0.064
Mof_C 	C 	0.49	0.91513	0.03237	-0.007
Mof_H 	H 	0.4834	0.9011	0.0554	0.015
Mof_C 	C 	0.4898	0.9554	0.03368	-0.096
Mof_H 	H 	0.4822	0.9688	0.0568	0.05
Mof_C 	C 	0.528	0.9156	0.0191	0.043
Mof_H 	H 	0.547	0.9017	0.0339	0.002
Mof_C 	C 	0.5291	0.95552	0.019	0.061
Mof_H 	H 	0.5502	0.969	0.0309	-0.001
Mof_O 	O 	0.95825	0.67633	0.54252	-0.466
Mof_O 	O 	0.95869	0.74291	0.542	-0.481
Mof_C 	C 	0.94693	0.70976	0.55508	0.414
Mof_C 	C 	0.91729	0.71021	0.58833	-0.15
Mof_C 	C 	0.90282	0.67584	0.60491	0.076
Mof_H 	H 	0.9109	0.6514	0.5946	0.016
Mof_C 	C 	0.87665	0.67674	0.63637	-0.136
Mof_H 	H 	0.8676	0.6529	0.6473	0.077
Mof_C 	C 	0.86343	0.71242	0.65216	0.06
Mof_C 	C 	0.878	0.74742	0.63522	-0.135
Mof_H 	H 	0.8697	0.7719	0.6452	0.077
Mof_C 	C 	0.9043	0.74626	0.60409	0.073
Mof_H 	H 	0.9137	0.77	0.5933	0.017
Mof_C 	C 	0.83484	0.71415	0.68612	0.045
Mof_C 	C 	0.83764	0.68807	0.718	-0.136
Mof_H 	H 	0.8579	0.6691	0.7184	0.078
Mof_C 	C 	0.7784	0.74718	0.71753	0.032
Mof_C 	C 	0.80519	0.74323	0.68659	-0.107
Mof_H 	H 	0.8034	0.7607	0.6651	0.066
Mof_C 	C 	0.01	0.58487	0.53237	0.055
Mof_H 	H 	0.0166	0.5989	0.5554	-0.01
Mof_C 	C 	0.0102	0.5446	0.53368	-0.024
Mof_H 	H 	0.0178	0.5312	0.5568	0.021
Mof_C 	C 	0.972	0.5844	0.5191	-0.009
Mof_H 	H 	0.953	0.5983	0.5339	0.023
Mof_C 	C 	0.9709	0.54448	0.519	0.001
Mof_H 	H 	0.9498	0.531	0.5309	0.02
Mof_O 	O 	0.45825	0.17633	0.04252	-0.477
Mof_O 	O 	0.45869	0.24291	0.042	-0.495
Mof_C 	C 	0.44693	0.20976	0.05508	0.415
Mof_C 	C 	0.41729	0.21021	0.08833	-0.157
Mof_C 	C 	0.40282	0.17584	0.10491	0.078
Mof_H 	H 	0.4109	0.1514	0.0946	0.012
Mof_C 	C 	0.37665	0.17674	0.13637	-0.141
Mof_H 	H 	0.3676	0.1529	0.1473	0.075
Mof_C 	C 	0.36343	0.21242	0.15216	0.061
Mof_C 	C 	0.378	0.24742	0.13522	-0.14
Mof_H 	H 	0.3697	0.2719	0.1452	0.075
Mof_C 	C 	0.4043	0.24626	0.10409	0.075
Mof_H 	H 	0.4137	0.27	0.0933	0.011
Mof_C 	C 	0.33484	0.21415	0.18612	0.041
Mof_C 	C 	0.33764	0.18807	0.218	-0.135
Mof_H 	H 	0.3579	0.1691	0.2184	0.075
Mof_C 	C 	0.2784	0.24718	0.21753	0.029
Mof_C 	C 	0.30519	0.24323	0.18659	-0.107
Mof_H 	H 	0.3034	0.2607	0.1651	0.063
Mof_C 	C 	0.51	0.08487	0.03237	-0.016
Mof_H 	H 	0.5166	0.0989	0.0554	0.017
Mof_C 	C 	0.5102	0.0446	0.03368	-0.085
Mof_H 	H 	0.5178	0.0312	0.0568	0.04
Mof_C 	C 	0.472	0.0844	0.0191	0.048
Mof_H 	H 	0.453	0.0983	0.0339	-0.001
Mof_C 	C 	0.4709	0.04448	0.019	0.065
Mof_H 	H 	0.4498	0.031	0.0309	-0.01
Mof_O 	O 	0.67633	0.95825	0.54252	-0.466
Mof_O 	O 	0.74291	0.95869	0.542	-0.481
Mof_C 	C 	0.70976	0.94693	0.55508	0.414
Mof_C 	C 	0.71021	0.91729	0.58833	-0.15
Mof_C 	C 	0.67584	0.90282	0.60491	0.076
Mof_H 	H 	0.6514	0.9109	0.5946	0.016
Mof_C 	C 	0.67674	0.87665	0.63637	-0.136
Mof_H 	H 	0.6529	0.8676	0.6473	0.077
Mof_C 	C 	0.71242	0.86343	0.65216	0.06
Mof_C 	C 	0.74742	0.878	0.63522	-0.135
Mof_H 	H 	0.7719	0.8697	0.6452	0.077
Mof_C 	C 	0.74626	0.9043	0.60409	0.073
Mof_H 	H 	0.77	0.9137	0.5933	0.017
Mof_C 	C 	0.71415	0.83484	0.68612	0.045
Mof_C 	C 	0.68807	0.83764	0.718	-0.136
Mof_H 	H 	0.6691	0.8579	0.7184	0.078
Mof_C 	C 	0.74718	0.7784	0.71753	0.032
Mof_C 	C 	0.74323	0.80519	0.68659	-0.107
Mof_H 	H 	0.7607	0.8034	0.6651	0.066
Mof_C 	C 	0.58487	0.01	0.53237	0.055
Mof_H 	H 	0.5989	0.0166	0.5554	-0.01
Mof_C 	C 	0.5446	0.0102	0.53368	-0.024
Mof_H 	H 	0.5312	0.0178	0.5568	0.021
Mof_C 	C 	0.5844	0.972	0.5191	-0.009
Mof_H 	H 	0.5983	0.953	0.5339	0.023
Mof_C 	C 	0.54448	0.9709	0.519	0.001
Mof_H 	H 	0.531	0.9498	0.5309	0.02
Mof_O 	O 	0.17633	0.45825	0.04252	-0.477
Mof_O 	O 	0.24291	0.45869	0.042	-0.495
Mof_C 	C 	0.20976	0.44693	0.05508	0.415
Mof_C 	C 	0.21021	0.41729	0.08833	-0.157
Mof_C 	C 	0.17584	0.40282	0.10491	0.078
Mof_H 	H 	0.1514	0.4109	0.0946	0.012
Mof_C 	C 	0.17674	0.37665	0.13637	-0.141
Mof_H 	H 	0.1529	0.3676	0.1473	0.075
Mof_C 	C 	0.21242	0.36343	0.15216	0.061
Mof_C 	C 	0.24742	0.378	0.13522	-0.14
Mof_H 	H 	0.2719	0.3697	0.1452	0.075
Mof_C 	C 	0.24626	0.4043	0.10409	0.075
Mof_H 	H 	0.27	0.4137	0.0933	0.011
Mof_C 	C 	0.21415	0.33484	0.18612	0.041
Mof_C 	C 	0.18807	0.33764	0.218	-0.135
Mof_H 	H 	0.1691	0.3579	0.2184	0.075
Mof_C 	C 	0.24718	0.2784	0.21753	0.029
Mof_C 	C 	0.24323	0.30519	0.18659	-0.107
Mof_H 	H 	0.2607	0.3034	0.1651	0.063
Mof_C 	C 	0.08487	0.51	0.03237	-0.016
Mof_H 	H 	0.0989	0.5166	0.0554	0.017
Mof_C 	C 	0.0446	0.5102	0.03368	-0.085
Mof_H 	H 	0.0312	0.5178	0.0568	0.04
Mof_C 	C 	0.0844	0.472	0.0191	0.048
Mof_H 	H 	0.0983	0.453	0.0339	-0.001
Mof_C 	C 	0.04448	0.4709	0.019	0.065
Mof_H 	H 	0.031	0.4498	0.0309	-0.01
Mof_O 	O 	0.32367	0.04175	0.54252	-0.473
Mof_O 	O 	0.25709	0.04131	0.542	-0.491
Mof_C 	C 	0.29024	0.05307	0.55508	0.415
Mof_C 	C 	0.28979	0.08271	0.58833	-0.155
Mof_C 	C 	0.32416	0.09718	0.60491	0.078
Mof_H 	H 	0.3486	0.0891	0.5946	0.014
Mof_C 	C 	0.32326	0.12335	0.63637	-0.139
Mof_H 	H 	0.3471	0.1324	0.6473	0.077
Mof_C 	C 	0.28758	0.13657	0.65216	0.061
Mof_C 	C 	0.25258	0.122	0.63522	-0.138
Mof_H 	H 	0.2281	0.1303	0.6452	0.075
Mof_C 	C 	0.25374	0.0957	0.60409	0.074
Mof_H 	H 	0.23	0.0863	0.5933	0.012
Mof_C 	C 	0.28585	0.16516	0.68612	0.042
Mof_C 	C 	0.31193	0.16236	0.718	-0.136
Mof_H 	H 	0.3309	0.1421	0.7184	0.076
Mof_C 	C 	0.25282	0.2216	0.71753	0.03
Mof_C 	C 	0.25677	0.19481	0.68659	-0.107
Mof_H 	H 	0.2393	0.1966	0.6651	0.065
Mof_C 	C 	0.41513	0.99	0.53237	0.014
Mof_H 	H 	0.4011	0.9834	0.5554	0.012
Mof_C 	C 	0.4554	0.9898	0.53368	-0.068
Mof_H 	H 	0.4688	0.9822	0.5568	0.042
Mof_C 	C 	0.4156	0.028	0.5191	-0.035
Mof_H 	H 	0.4017	0.047	0.5339	0.03
Mof_C 	C 	0.45552	0.0291	0.519	-0.025
Mof_H 	H 	0.469	0.0502	0.5309	0.027
Mof_O 	O 	0.82367	0.54175	0.04252	-0.476
Mof_O 	O 	0.75709	0.54131	0.042	-0.495
Mof_C 	C 	0.79024	0.55307	0.05508	0.415
Mof_C 	C 	0.78979	0.58271	0.08833	-0.157
Mof_C 	C 	0.82416	0.59718	0.10491	0.078
Mof_H 	H 	0.8486	0.5891	0.0946	0.014
Mof_C 	C 	0.82326	0.62335	0.13637	-0.14
Mof_H 	H 	0.8471	0.6324	0.1473	0.078
Mof_C 	C 	0.78758	0.63657	0.15216	0.061
Mof_C 	C 	0.75258	0.622	0.13522	-0.139
Mof_H 	H 	0.7281	0.6303	0.1452	0.075
Mof_C 	C 	0.75374	0.5957	0.10409	0.075
Mof_H 	H 	0.73	0.5863	0.0933	0.011
Mof_C 	C 	0.78585	0.66516	0.18612	0.042
Mof_C 	C 	0.81193	0.66236	0.218	-0.136
Mof_H 	H 	0.8309	0.6421	0.2184	0.077
Mof_C 	C 	0.75282	0.7216	0.21753	0.03
Mof_C 	C 	0.75677	0.69481	0.18659	-0.107
Mof_H 	H 	0.7393	0.6966	0.1651	0.064
Mof_C 	C 	0.91513	0.49	0.03237	-0.007
Mof_H 	H 	0.9011	0.4834	0.0554	0.015
Mof_C 	C 	0.9554	0.4898	0.03368	-0.096
Mof_H 	H 	0.9688	0.4822	0.0568	0.05
Mof_C 	C 	0.9156	0.528	0.0191	0.043
Mof_H 	H 	0.9017	0.547	0.0339	0.002
Mof_C 	C 	0.95552	0.5291	0.019	0.061
Mof_H 	H 	0.969	0.5502	0.0309	-0.001
Mof_O 	O 	0.04175	0.67633	0.54252	-0.473
Mof_O 	O 	0.04131	0.74291	0.542	-0.49
Mof_C 	C 	0.05307	0.70976	0.55508	0.415
Mof_C 	C 	0.08271	0.71021	0.58833	-0.155
Mof_C 	C 	0.09718	0.67584	0.60491	0.077
Mof_H 	H 	0.0891	0.6514	0.5946	0.014
Mof_C 	C 	0.12335	0.67674	0.63637	-0.139
Mof_H 	H 	0.1324	0.6529	0.6473	0.077
Mof_C 	C 	0.13657	0.71242	0.65216	0.061
Mof_C 	C 	0.122	0.74742	0.63522	-0.138
Mof_H 	H 	0.1303	0.7719	0.6452	0.076
Mof_C 	C 	0.0957	0.74626	0.60409	0.074
Mof_H 	H 	0.0863	0.77	0.5933	0.013
Mof_C 	C 	0.16516	0.71415	0.68612	0.043
Mof_C 	C 	0.16236	0.68807	0.718	-0.135
Mof_H 	H 	0.1421	0.6691	0.7184	0.076
Mof_C 	C 	0.2216	0.74718	0.71753	0.03
Mof_C 	C 	0.19481	0.74323	0.68659	-0.106
Mof_H 	H 	0.1966	0.7607	0.6651	0.065
Mof_C 	C 	0.99	0.58487	0.53237	0.014
Mof_H 	H 	0.9834	0.5989	0.5554	0.012
Mof_C 	C 	0.9898	0.5446	0.53368	-0.068
Mof_H 	H 	0.9822	0.5312	0.5568	0.042
Mof_C 	C 	0.028	0.5844	0.5191	-0.035
Mof_H 	H 	0.047	0.5983	0.5339	0.03
Mof_C 	C 	0.0291	0.54448	0.519	-0.025
Mof_H 	H 	0.0502	0.531	0.5309	0.027
Mof_O 	O 	0.54175	0.17633	0.04252	-0.477
Mof_O 	O 	0.54131	0.24291	0.042	-0.495
Mof_C 	C 	0.55307	0.20976	0.05508	0.415
Mof_C 	C 	0.58271	0.21021	0.08833	-0.157
Mof_C 	C 	0.59718	0.17584	0.10491	0.078
Mof_H 	H 	0.5891	0.1514	0.0946	0.012
Mof_C 	C 	0.62335	0.17674	0.13637	-0.141
Mof_H 	H 	0.6324	0.1529	0.1473	0.076
Mof_C 	C 	0.63657	0.21242	0.15216	0.061
Mof_C 	C 	0.622	0.24742	0.13522	-0.14
Mof_H 	H 	0.6303	0.2719	0.1452	0.075
Mof_C 	C 	0.5957	0.24626	0.10409	0.075
Mof_H 	H 	0.5863	0.27	0.0933	0.011
Mof_C 	C 	0.66516	0.21415	0.18612	0.041
Mof_C 	C 	0.66236	0.18807	0.218	-0.135
Mof_H 	H 	0.6421	0.1691	0.2184	0.075
Mof_C 	C 	0.7216	0.24718	0.21753	0.029
Mof_C 	C 	0.69481	0.24323	0.18659	-0.106
Mof_H 	H 	0.6966	0.2607	0.1651	0.064
Mof_C 	C 	0.49	0.08487	0.03237	-0.016
Mof_H 	H 	0.4834	0.0989	0.0554	0.017
Mof_C 	C 	0.4898	0.0446	0.03368	-0.085
Mof_H 	H 	0.4822	0.0312	0.0568	0.04
Mof_C 	C 	0.528	0.0844	0.0191	0.048
Mof_H 	H 	0.547	0.0983	0.0339	-0.001
Mof_C 	C 	0.5291	0.04448	0.019	0.065
Mof_H 	H 	0.5502	0.031	0.0309	-0.01
Mof_O 	O 	0.95825	0.32367	0.54252	-0.466
Mof_O 	O 	0.95869	0.25709	0.542	-0.482
Mof_C 	C 	0.94693	0.29024	0.55508	0.414
Mof_C 	C 	0.91729	0.28979	0.58833	-0.151
Mof_C 	C 	0.90282	0.32416	0.60491	0.077
Mof_H 	H 	0.9109	0.3486	0.5946	0.016
Mof_C 	C 	0.87665	0.32326	0.63637	-0.137
Mof_H 	H 	0.8676	0.3471	0.6473	0.077
Mof_C 	C 	0.86343	0.28758	0.65216	0.06
Mof_C 	C 	0.878	0.25258	0.63522	-0.135
Mof_H 	H 	0.8697	0.2281	0.6452	0.076
Mof_C 	C 	0.9043	0.25374	0.60409	0.073
Mof_H 	H 	0.9137	0.23	0.5933	0.015
Mof_C 	C 	0.83484	0.28585	0.68612	0.045
Mof_C 	C 	0.83764	0.31193	0.718	-0.137
Mof_H 	H 	0.8579	0.3309	0.7184	0.078
Mof_C 	C 	0.7784	0.25282	0.71753	0.031
Mof_C 	C 	0.80519	0.25677	0.68659	-0.107
Mof_H 	H 	0.8034	0.2393	0.6651	0.065
Mof_C 	C 	0.01	0.41513	0.53237	0.055
Mof_H 	H 	0.0166	0.4011	0.5554	-0.01
Mof_C 	C 	0.0102	0.4554	0.53368	-0.024
Mof_H 	H 	0.0178	0.4688	0.5568	0.021
Mof_C 	C 	0.972	0.4156	0.5191	-0.008
Mof_H 	H 	0.953	0.4017	0.5339	0.023
Mof_C 	C 	0.9709	0.45552	0.519	0.001
Mof_H 	H 	0.9498	0.469	0.5309	0.02
Mof_O 	O 	0.45825	0.82367	0.04252	-0.476
Mof_O 	O 	0.45869	0.75709	0.042	-0.495
Mof_C 	C 	0.44693	0.79024	0.05508	0.415
Mof_C 	C 	0.41729	0.78979	0.08833	-0.157
Mof_C 	C 	0.40282	0.82416	0.10491	0.078
Mof_H 	H 	0.4109	0.8486	0.0946	0.014
Mof_C 	C 	0.37665	0.82326	0.13637	-0.14
Mof_H 	H 	0.3676	0.8471	0.1473	0.077
Mof_C 	C 	0.36343	0.78758	0.15216	0.061
Mof_C 	C 	0.378	0.75258	0.13522	-0.139
Mof_H 	H 	0.3697	0.7281	0.1452	0.075
Mof_C 	C 	0.4043	0.75374	0.10409	0.075
Mof_H 	H 	0.4137	0.73	0.0933	0.011
Mof_C 	C 	0.33484	0.78585	0.18612	0.042
Mof_C 	C 	0.33764	0.81193	0.218	-0.136
Mof_H 	H 	0.3579	0.8309	0.2184	0.077
Mof_C 	C 	0.2784	0.75282	0.21753	0.03
Mof_C 	C 	0.30519	0.75677	0.18659	-0.107
Mof_H 	H 	0.3034	0.7393	0.1651	0.064
Mof_C 	C 	0.51	0.91513	0.03237	-0.007
Mof_H 	H 	0.5166	0.9011	0.0554	0.015
Mof_C 	C 	0.5102	0.9554	0.03368	-0.096
Mof_H 	H 	0.5178	0.9688	0.0568	0.05
Mof_C 	C 	0.472	0.9156	0.0191	0.043
Mof_H 	H 	0.453	0.9017	0.0339	0.001
Mof_C 	C 	0.4709	0.95552	0.019	0.061
Mof_H 	H 	0.4498	0.969	0.0309	-0.002
Mof_O 	O 	0.32367	0.95825	0.45748	-0.466
Mof_O 	O 	0.25709	0.95869	0.458	-0.483
Mof_C 	C 	0.29024	0.94693	0.44492	0.414
Mof_C 	C 	0.28979	0.91729	0.41167	-0.151
Mof_C 	C 	0.32416	0.90282	0.39509	0.076
Mof_H 	H 	0.3486	0.9109	0.4054	0.016
Mof_C 	C 	0.32326	0.87665	0.36363	-0.137
Mof_H 	H 	0.3471	0.8676	0.3527	0.077
Mof_C 	C 	0.28758	0.86343	0.34784	0.06
Mof_C 	C 	0.25258	0.878	0.36478	-0.136
Mof_H 	H 	0.2281	0.8697	0.3548	0.075
Mof_C 	C 	0.25374	0.9043	0.39591	0.073
Mof_H 	H 	0.23	0.9137	0.4067	0.015
Mof_C 	C 	0.28585	0.83484	0.31388	0.044
Mof_C 	C 	0.31193	0.83764	0.282	-0.136
Mof_H 	H 	0.3309	0.8579	0.2816	0.077
Mof_C 	C 	0.25282	0.7784	0.28247	0.031
Mof_C 	C 	0.25677	0.80519	0.31341	-0.107
Mof_H 	H 	0.2393	0.8034	0.3349	0.065
Mof_C 	C 	0.41513	0.01	0.46763	0.055
Mof_H 	H 	0.4011	0.0166	0.4446	-0.01
Mof_C 	C 	0.4554	0.0102	0.46632	-0.024
Mof_H 	H 	0.4688	0.0178	0.4432	0.02
Mof_C 	C 	0.4156	0.972	0.4809	-0.008
Mof_H 	H 	0.4017	0.953	0.4661	0.023
Mof_C 	C 	0.45552	0.9709	0.481	0.001
Mof_H 	H 	0.469	0.9498	0.4691	0.02
Mof_O 	O 	0.82367	0.45825	0.95748	-0.46
Mof_O 	O 	0.75709	0.45869	0.958	-0.476
Mof_C 	C 	0.79024	0.44693	0.94492	0.413
Mof_C 	C 	0.78979	0.41729	0.91167	-0.148
Mof_C 	C 	0.82416	0.40282	0.89509	0.075
Mof_H 	H 	0.8486	0.4109	0.9054	0.018
Mof_C 	C 	0.82326	0.37665	0.86363	-0.135
Mof_H 	H 	0.8471	0.3676	0.8527	0.078
Mof_C 	C 	0.78758	0.36343	0.84784	0.059
Mof_C 	C 	0.75258	0.378	0.86478	-0.133
Mof_H 	H 	0.7281	0.3697	0.8548	0.076
Mof_C 	C 	0.75374	0.4043	0.89591	0.072
Mof_H 	H 	0.73	0.4137	0.9067	0.018
Mof_C 	C 	0.78585	0.33484	0.81388	0.046
Mof_C 	C 	0.81193	0.33764	0.782	-0.137
Mof_H 	H 	0.8309	0.3579	0.7816	0.078
Mof_C 	C 	0.75282	0.2784	0.78247	0.032
Mof_C 	C 	0.75677	0.30519	0.81341	-0.108
Mof_H 	H 	0.7393	0.3034	0.8349	0.067
Mof_C 	C 	0.91513	0.51	0.96763	0.081
Mof_H 	H 	0.9011	0.5166	0.9446	-0.014
Mof_C 	C 	0.9554	0.5102	0.96632	-0.002
Mof_H 	H 	0.9688	0.5178	0.9432	0.021
Mof_C 	C 	0.9156	0.472	0.9809	-0.083
Mof_H 	H 	0.9017	0.453	0.9661	0.052
Mof_C 	C 	0.95552	0.4709	0.981	-0.083
Mof_H 	H 	0.969	0.4498	0.9691	0.057
Mof_O 	O 	0.67633	0.04175	0.45748	-0.473
Mof_O 	O 	0.74291	0.04131	0.458	-0.491
Mof_C 	C 	0.70976	0.05307	0.44492	0.415
Mof_C 	C 	0.71021	0.08271	0.41167	-0.155
Mof_C 	C 	0.67584	0.09718	0.39509	0.077
Mof_H 	H 	0.6514	0.0891	0.4054	0.014
Mof_C 	C 	0.67674	0.12335	0.36363	-0.139
Mof_H 	H 	0.6529	0.1324	0.3527	0.077
Mof_C 	C 	0.71242	0.13657	0.34784	0.06
Mof_C 	C 	0.74742	0.122	0.36478	-0.138
Mof_H 	H 	0.7719	0.1303	0.3548	0.075
Mof_C 	C 	0.74626	0.0957	0.39591	0.074
Mof_H 	H 	0.77	0.0863	0.4067	0.013
Mof_C 	C 	0.71415	0.16516	0.31388	0.042
Mof_C 	C 	0.68807	0.16236	0.282	-0.135
Mof_H 	H 	0.6691	0.1421	0.2816	0.075
Mof_C 	C 	0.74718	0.2216	0.28247	0.03
Mof_C 	C 	0.74323	0.19481	0.31341	-0.106
Mof_H 	H 	0.7607	0.1966	0.3349	0.065
Mof_C 	C 	0.58487	0.99	0.46763	0.014
Mof_H 	H 	0.5989	0.9834	0.4446	0.012
Mof_C 	C 	0.5446	0.9898	0.46632	-0.068
Mof_H 	H 	0.5312	0.9822	0.4432	0.042
Mof_C 	C 	0.5844	0.028	0.4809	-0.035
Mof_H 	H 	0.5983	0.047	0.4661	0.03
Mof_C 	C 	0.54448	0.0291	0.481	-0.025
Mof_H 	H 	0.531	0.0502	0.4691	0.027
Mof_O 	O 	0.17633	0.54175	0.95748	-0.461
Mof_O 	O 	0.24291	0.54131	0.958	-0.476
Mof_C 	C 	0.20976	0.55307	0.94492	0.413
Mof_C 	C 	0.21021	0.58271	0.91167	-0.148
Mof_C 	C 	0.17584	0.59718	0.89509	0.075
Mof_H 	H 	0.1514	0.5891	0.9054	0.017
Mof_C 	C 	0.17674	0.62335	0.86363	-0.135
Mof_H 	H 	0.1529	0.6324	0.8527	0.077
Mof_C 	C 	0.21242	0.63657	0.84784	0.059
Mof_C 	C 	0.24742	0.622	0.86478	-0.134
Mof_H 	H 	0.2719	0.6303	0.8548	0.076
Mof_C 	C 	0.24626	0.5957	0.89591	0.072
Mof_H 	H 	0.27	0.5863	0.9067	0.018
Mof_C 	C 	0.21415	0.66516	0.81388	0.045
Mof_C 	C 	0.18807	0.66236	0.782	-0.136
Mof_H 	H 	0.1691	0.6421	0.7816	0.076
Mof_C 	C 	0.24718	0.7216	0.78247	0.031
Mof_C 	C 	0.24323	0.69481	0.81341	-0.107
Mof_H 	H 	0.2607	0.6966	0.8349	0.067
Mof_C 	C 	0.08487	0.49	0.96763	0.072
Mof_H 	H 	0.0989	0.4834	0.9446	-0.011
Mof_C 	C 	0.0446	0.4898	0.96632	0.009
Mof_H 	H 	0.0312	0.4822	0.9432	0.011
Mof_C 	C 	0.0844	0.528	0.9809	-0.079
Mof_H 	H 	0.0983	0.547	0.9661	0.05
Mof_C 	C 	0.04448	0.5291	0.981	-0.08
Mof_H 	H 	0.031	0.5502	0.9691	0.049
Mof_O 	O 	0.95825	0.67633	0.45748	-0.466
Mof_O 	O 	0.95869	0.74291	0.458	-0.482
Mof_C 	C 	0.94693	0.70976	0.44492	0.414
Mof_C 	C 	0.91729	0.71021	0.41167	-0.151
Mof_C 	C 	0.90282	0.67584	0.39509	0.076
Mof_H 	H 	0.9109	0.6514	0.4054	0.016
Mof_C 	C 	0.87665	0.67674	0.36363	-0.136
Mof_H 	H 	0.8676	0.6529	0.3527	0.077
Mof_C 	C 	0.86343	0.71242	0.34784	0.06
Mof_C 	C 	0.878	0.74742	0.36478	-0.135
Mof_H 	H 	0.8697	0.7719	0.3548	0.076
Mof_C 	C 	0.9043	0.74626	0.39591	0.073
Mof_H 	H 	0.9137	0.77	0.4067	0.016
Mof_C 	C 	0.83484	0.71415	0.31388	0.044
Mof_C 	C 	0.83764	0.68807	0.282	-0.136
Mof_H 	H 	0.8579	0.6691	0.2816	0.077
Mof_C 	C 	0.7784	0.74718	0.28247	0.031
Mof_C 	C 	0.80519	0.74323	0.31341	-0.107
Mof_H 	H 	0.8034	0.7607	0.3349	0.065
Mof_C 	C 	0.01	0.58487	0.46763	0.055
Mof_H 	H 	0.0166	0.5989	0.4446	-0.01
Mof_C 	C 	0.0102	0.5446	0.46632	-0.024
Mof_H 	H 	0.0178	0.5312	0.4432	0.021
Mof_C 	C 	0.972	0.5844	0.4809	-0.008
Mof_H 	H 	0.953	0.5983	0.4661	0.023
Mof_C 	C 	0.9709	0.54448	0.481	0.001
Mof_H 	H 	0.9498	0.531	0.4691	0.02
Mof_O 	O 	0.45825	0.17633	0.95748	-0.461
Mof_O 	O 	0.45869	0.24291	0.958	-0.476
Mof_C 	C 	0.44693	0.20976	0.94492	0.413
Mof_C 	C 	0.41729	0.21021	0.91167	-0.148
Mof_C 	C 	0.40282	0.17584	0.89509	0.075
Mof_H 	H 	0.4109	0.1514	0.9054	0.017
Mof_C 	C 	0.37665	0.17674	0.86363	-0.135
Mof_H 	H 	0.3676	0.1529	0.8527	0.076
Mof_C 	C 	0.36343	0.21242	0.84784	0.059
Mof_C 	C 	0.378	0.24742	0.86478	-0.134
Mof_H 	H 	0.3697	0.2719	0.8548	0.076
Mof_C 	C 	0.4043	0.24626	0.89591	0.072
Mof_H 	H 	0.4137	0.27	0.9067	0.018
Mof_C 	C 	0.33484	0.21415	0.81388	0.044
Mof_C 	C 	0.33764	0.18807	0.782	-0.136
Mof_H 	H 	0.3579	0.1691	0.7816	0.076
Mof_C 	C 	0.2784	0.24718	0.78247	0.031
Mof_C 	C 	0.30519	0.24323	0.81341	-0.107
Mof_H 	H 	0.3034	0.2607	0.8349	0.066
Mof_C 	C 	0.51	0.08487	0.96763	0.072
Mof_H 	H 	0.5166	0.0989	0.9446	-0.011
Mof_C 	C 	0.5102	0.0446	0.96632	0.01
Mof_H 	H 	0.5178	0.0312	0.9432	0.011
Mof_C 	C 	0.472	0.0844	0.9809	-0.079
Mof_H 	H 	0.453	0.0983	0.9661	0.05
Mof_C 	C 	0.4709	0.04448	0.981	-0.08
Mof_H 	H 	0.4498	0.031	0.9691	0.048
Mof_O 	O 	0.04175	0.32367	0.45748	-0.473
Mof_O 	O 	0.04131	0.25709	0.458	-0.491
Mof_C 	C 	0.05307	0.29024	0.44492	0.415
Mof_C 	C 	0.08271	0.28979	0.41167	-0.155
Mof_C 	C 	0.09718	0.32416	0.39509	0.077
Mof_H 	H 	0.0891	0.3486	0.4054	0.014
Mof_C 	C 	0.12335	0.32326	0.36363	-0.139
Mof_H 	H 	0.1324	0.3471	0.3527	0.077
Mof_C 	C 	0.13657	0.28758	0.34784	0.06
Mof_C 	C 	0.122	0.25258	0.36478	-0.139
Mof_H 	H 	0.1303	0.2281	0.3548	0.074
Mof_C 	C 	0.0957	0.25374	0.39591	0.074
Mof_H 	H 	0.0863	0.23	0.4067	0.012
Mof_C 	C 	0.16516	0.28585	0.31388	0.042
Mof_C 	C 	0.16236	0.31193	0.282	-0.135
Mof_H 	H 	0.1421	0.3309	0.2816	0.075
Mof_C 	C 	0.2216	0.25282	0.28247	0.03
Mof_C 	C 	0.19481	0.25677	0.31341	-0.107
Mof_H 	H 	0.1966	0.2393	0.3349	0.065
Mof_C 	C 	0.99	0.41513	0.46763	0.014
Mof_H 	H 	0.9834	0.4011	0.4446	0.012
Mof_C 	C 	0.9898	0.4554	0.46632	-0.068
Mof_H 	H 	0.9822	0.4688	0.4432	0.042
Mof_C 	C 	0.028	0.4156	0.4809	-0.035
Mof_H 	H 	0.047	0.4017	0.4661	0.03
Mof_C 	C 	0.0291	0.45552	0.481	-0.025
Mof_H 	H 	0.0502	0.469	0.4691	0.027
Mof_O 	O 	0.54175	0.82367	0.95748	-0.46
Mof_O 	O 	0.54131	0.75709	0.958	-0.476
Mof_C 	C 	0.55307	0.79024	0.94492	0.413
Mof_C 	C 	0.58271	0.78979	0.91167	-0.148
Mof_C 	C 	0.59718	0.82416	0.89509	0.076
Mof_H 	H 	0.5891	0.8486	0.9054	0.019
Mof_C 	C 	0.62335	0.82326	0.86363	-0.134
Mof_H 	H 	0.6324	0.8471	0.8527	0.079
Mof_C 	C 	0.63657	0.78758	0.84784	0.059
Mof_C 	C 	0.622	0.75258	0.86478	-0.133
Mof_H 	H 	0.6303	0.7281	0.8548	0.076
Mof_C 	C 	0.5957	0.75374	0.89591	0.072
Mof_H 	H 	0.5863	0.73	0.9067	0.018
Mof_C 	C 	0.66516	0.78585	0.81388	0.046
Mof_C 	C 	0.66236	0.81193	0.782	-0.137
Mof_H 	H 	0.6421	0.8309	0.7816	0.078
Mof_C 	C 	0.7216	0.75282	0.78247	0.032
Mof_C 	C 	0.69481	0.75677	0.81341	-0.107
Mof_H 	H 	0.6966	0.7393	0.8349	0.067
Mof_C 	C 	0.49	0.91513	0.96763	0.081
Mof_H 	H 	0.4834	0.9011	0.9446	-0.014
Mof_C 	C 	0.4898	0.9554	0.96632	-0.002
Mof_H 	H 	0.4822	0.9688	0.9432	0.021
Mof_C 	C 	0.528	0.9156	0.9809	-0.083
Mof_H 	H 	0.547	0.9017	0.9661	0.052
Mof_C 	C 	0.5291	0.95552	0.981	-0.083
Mof_H 	H 	0.5502	0.969	0.9691	0.057
Mof_Zn	Zn	0.33389	-5.37619e-33	0.5	1.215
Mof_Zn	Zn	0.2457	-5.37619e-33	0.5	1.198
Mof_N 	N 	0.39415	-5.37619e-33	0.5	-0.247
Mof_C 	C 	0.47766	-5.37619e-33	0.5	0.012
Mof_Zn	Zn	0.83389	0.5	-0	1.212
Mof_Zn	Zn	0.7457	0.5	-0	1.194
Mof_N 	N 	0.89415	0.5	-0	-0.257
Mof_C 	C 	0.97766	0.5	-0	0.022
Mof_Zn	Zn	0.66611	-5.37619e-33	0.5	1.215
Mof_Zn	Zn	0.7543	-5.37619e-33	0.5	1.198
Mof_N 	N 	0.60585	-5.37619e-33	0.5	-0.247
Mof_C 	C 	0.52234	-5.37619e-33	0.5	0.012
Mof_Zn	Zn	0.16611	0.5	-0	1.211
Mof_Zn	Zn	0.2543	0.5	-0	1.194
Mof_N 	N 	0.10585	0.5	-0	-0.255
Mof_C 	C 	0.02234	0.5	-0	-0.026
Mof_Zn	Zn	-1.42568e-32	0.33389	0.5	1.215
Mof_Zn	Zn	-8.88058e-33	0.2457	0.5	1.198
Mof_N 	N 	-3.50439e-33	0.39415	0.5	-0.247
Mof_C 	C 	-8.88058e-33	0.47766	0.5	0.012
Mof_Zn	Zn	0.5	0.83389	-0	1.212
Mof_Zn	Zn	0.5	0.7457	-0	1.194
Mof_N 	N 	0.5	0.89415	-0	-0.257
Mof_C 	C 	0.5	0.97766	-0	0.022
Mof_Zn	Zn	-1.42568e-32	0.66611	0.5	1.215
Mof_Zn	Zn	-1.42568e-32	0.7543	0.5	1.198
Mof_N 	N 	-3.50439e-33	0.60585	0.5	-0.247
Mof_C 	C 	-8.88058e-33	0.52234	0.5	0.012
Mof_Zn	Zn	0.5	0.16611	-0	1.211
Mof_Zn	Zn	0.5	0.2543	-0	1.194
Mof_N 	N 	0.5	0.10585	-0	-0.255
Mof_C 	C 	0.5	0.02234	-0	-0.026
Mof_C 	C 	0.3103	0.1897	0.25	0.089
Mof_C 	C 	0.28013	0.21987	0.25	-0.049
Mof_C 	C 	0.6897	0.8103	0.25	0.091
Mof_C 	C 	0.71987	0.78013	0.25	-0.049
Mof_C 	C 	0.8103	0.3103	0.25	0.091
Mof_C 	C 	0.78013	0.28013	0.25	-0.049
Mof_C 	C 	0.1897	0.6897	0.25	0.089
Mof_C 	C 	0.21987	0.71987	0.25	-0.048
Mof_C 	C 	0.6897	0.1897	0.75	0.091
Mof_C 	C 	0.71987	0.21987	0.75	-0.048
Mof_C 	C 	0.3103	0.8103	0.75	0.093
Mof_C 	C 	0.28013	0.78013	0.75	-0.049
Mof_C 	C 	0.1897	0.3103	0.75	0.091
Mof_C 	C 	0.21987	0.28013	0.75	-0.049
Mof_C 	C 	0.8103	0.6897	0.75	0.093
Mof_C 	C 	0.78013	0.71987	0.75	-0.049
Mof_C 	C 	0.6897	0.8103	0.75	0.093
Mof_C 	C 	0.71987	0.78013	0.75	-0.049
Mof_C 	C 	0.1897	0.3103	0.25	0.089
Mof_C 	C 	0.21987	0.28013	0.25	-0.049
Mof_C 	C 	0.3103	0.1897	0.75	0.091
Mof_C 	C 	0.28013	0.21987	0.75	-0.049
Mof_C 	C 	0.1897	0.6897	0.75	0.091
Mof_C 	C 	0.21987	0.71987	0.75	-0.048
Mof_C 	C 	0.8103	0.3103	0.75	0.093
Mof_C 	C 	0.78013	0.28013	0.75	-0.049
Mof_C 	C 	0.3103	0.8103	0.25	0.091
Mof_C 	C 	0.28013	0.78013	0.25	-0.049
Mof_C 	C 	0.6897	0.1897	0.25	0.089
Mof_C 	C 	0.71987	0.21987	0.25	-0.048
Mof_C 	C 	0.8103	0.6897	0.25	0.091
Mof_C 	C 	0.78013	0.71987	0.25	-0.049
_end
