data_functionalizedCrystal
_audit_creation_method	'EQeq! by Chris Wilmer'
_symmetry_space_group_name_H-M	'P1'
_symmetry_Int_Tables_number	1
_symmetry_cell_setting	triclinic
loop_
_symmetry_equiv_pos_as_xyz
  x,y,z
_cell_length_a	18.508
_cell_length_b	18.508
_cell_length_c	31.112
_cell_angle_alpha	90
_cell_angle_beta	90
_cell_angle_gamma	90
loop_
_atom_site_label
_atom_site_type_symbol
_atom_site_fract_x
_atom_site_fract_y
_atom_site_fract_z
_atom_site_charge
Mof_C 	C 	0.564	0.1673	0.84881	-0.184
Mof_H 	H 	0.6084	0.153	0.8616	0.13
Mof_O 	O 	0.6913	0.2029	0.80727	-0.367
Mof_O 	O 	0.6308	0.2638	0.75541	-0.358
Mof_C 	C 	0.635	0.2259	0.7894	0.304
Mof_C 	C 	0.5642	0.2092	0.8111	0.042
Mof_O 	O 	0.8608	0.1707	0.8275	-0.09
Mof_C 	C 	0.5459	0.0656	0.9211	0.064
Mof_H 	H 	0.5951	0.0857	0.9248	0.045
Mof_H 	H 	0.5484	0.0247	0.9006	0.018
Mof_C 	C 	0.5171	0.0328	0.9619	-0.012
Mof_H 	H 	0.4558	0.1698	0.02	-0.019
Mof_H 	H 	0.4333	0.1589	0.9709	0.069
Mof_O 	O 	0.3547	0.1365	0.0122	-0.129
Mof_C 	C 	0.3275	0.1937	0.035	0.196
Mof_C 	C 	0.2563	0.1834	0.049	-0.228
Mof_H 	H 	0.2317	0.1397	0.0424	0.133
Mof_C 	C 	0.2215	0.2369	0.0725	0.067
Mof_C 	C 	0.2573	0.2994	0.083	-0.053
Mof_H 	H 	0.2334	0.3351	0.0997	0.077
Mof_C 	C 	0.3272	0.3112	0.0698	0.034
Mof_C 	C 	0.3623	0.2593	0.0462	-0.153
Mof_H 	H 	0.4107	0.2675	0.0372	0.106
Mof_C 	C 	0.3598	0.3809	0.0829	0.118
Mof_O 	O 	0.38	0.4107	0.0503	-0.094
Mof_O 	O 	0.359	0.391	0.1218	-0.1
Mof_C 	C 	0.2266	0.1454	0.0877	0.219
Mof_O 	O 	0.2825	0.1074	0.0913	-0.193
Mof_O 	O 	0.1627	0.127	0.0955	-0.112
Mof_C 	C 	0.064	0.6673	0.34881	-0.185
Mof_H 	H 	0.1084	0.653	0.3616	0.129
Mof_O 	O 	0.1913	0.7029	0.30727	-0.368
Mof_O 	O 	0.1308	0.7638	0.25541	-0.359
Mof_C 	C 	0.135	0.7259	0.2894	0.303
Mof_C 	C 	0.0642	0.7092	0.3111	0.041
Mof_O 	O 	0.3608	0.6707	0.3275	-0.09
Mof_C 	C 	0.0459	0.5656	0.4211	0.064
Mof_H 	H 	0.0951	0.5857	0.4248	0.045
Mof_H 	H 	0.0484	0.5247	0.4006	0.018
Mof_C 	C 	0.0171	0.5328	0.4619	-0.012
Mof_H 	H 	0.9558	0.6698	0.52	-0.018
Mof_H 	H 	0.9333	0.6589	0.4709	0.069
Mof_O 	O 	0.8547	0.6365	0.5122	-0.127
Mof_C 	C 	0.8275	0.6937	0.535	0.196
Mof_C 	C 	0.7563	0.6834	0.549	-0.227
Mof_H 	H 	0.7317	0.6397	0.5424	0.133
Mof_C 	C 	0.7215	0.7369	0.5725	0.067
Mof_C 	C 	0.7573	0.7994	0.583	-0.053
Mof_H 	H 	0.7334	0.8351	0.5997	0.077
Mof_C 	C 	0.8272	0.8112	0.5698	0.034
Mof_C 	C 	0.8623	0.7593	0.5462	-0.153
Mof_H 	H 	0.9107	0.7675	0.5372	0.106
Mof_C 	C 	0.8598	0.8809	0.5829	0.118
Mof_O 	O 	0.88	0.9107	0.5503	-0.094
Mof_O 	O 	0.859	0.891	0.6218	-0.1
Mof_C 	C 	0.7266	0.6454	0.5877	0.219
Mof_O 	O 	0.7825	0.6074	0.5913	-0.193
Mof_O 	O 	0.6627	0.627	0.5955	-0.112
Mof_C 	C 	0.436	0.8327	0.84881	-0.185
Mof_H 	H 	0.3916	0.847	0.8616	0.129
Mof_O 	O 	0.3087	0.7971	0.80727	-0.368
Mof_O 	O 	0.3692	0.7362	0.75541	-0.359
Mof_C 	C 	0.365	0.7741	0.7894	0.303
Mof_C 	C 	0.4358	0.7908	0.8111	0.041
Mof_O 	O 	0.1392	0.8293	0.8275	-0.091
Mof_C 	C 	0.4541	0.9344	0.9211	0.064
Mof_H 	H 	0.4049	0.9143	0.9248	0.045
Mof_H 	H 	0.4516	0.9753	0.9006	0.018
Mof_C 	C 	0.4829	0.9672	0.9619	-0.012
Mof_H 	H 	0.5442	0.8302	0.02	-0.019
Mof_H 	H 	0.5667	0.8411	0.9709	0.069
Mof_O 	O 	0.6453	0.8635	0.0122	-0.129
Mof_C 	C 	0.6725	0.8063	0.035	0.196
Mof_C 	C 	0.7437	0.8166	0.049	-0.228
Mof_H 	H 	0.7683	0.8603	0.0424	0.133
Mof_C 	C 	0.7785	0.7631	0.0725	0.067
Mof_C 	C 	0.7427	0.7006	0.083	-0.053
Mof_H 	H 	0.7666	0.6649	0.0997	0.077
Mof_C 	C 	0.6728	0.6888	0.0698	0.034
Mof_C 	C 	0.6377	0.7407	0.0462	-0.153
Mof_H 	H 	0.5893	0.7325	0.0372	0.106
Mof_C 	C 	0.6402	0.6191	0.0829	0.118
Mof_O 	O 	0.62	0.5893	0.0503	-0.094
Mof_O 	O 	0.641	0.609	0.1218	-0.1
Mof_C 	C 	0.7734	0.8546	0.0877	0.219
Mof_O 	O 	0.7175	0.8926	0.0913	-0.193
Mof_O 	O 	0.8373	0.873	0.0955	-0.112
Mof_C 	C 	0.936	0.3327	0.34881	-0.185
Mof_H 	H 	0.8916	0.347	0.3616	0.129
Mof_O 	O 	0.8087	0.2971	0.30727	-0.368
Mof_O 	O 	0.8692	0.2362	0.25541	-0.359
Mof_C 	C 	0.865	0.2741	0.2894	0.303
Mof_C 	C 	0.9358	0.2908	0.3111	0.041
Mof_O 	O 	0.6392	0.3293	0.3275	-0.091
Mof_C 	C 	0.9541	0.4344	0.4211	0.064
Mof_H 	H 	0.9049	0.4143	0.4248	0.045
Mof_H 	H 	0.9516	0.4753	0.4006	0.018
Mof_C 	C 	0.9829	0.4672	0.4619	-0.013
Mof_H 	H 	0.0442	0.3302	0.52	-0.019
Mof_H 	H 	0.0667	0.3411	0.4709	0.069
Mof_O 	O 	0.1453	0.3635	0.5122	-0.127
Mof_C 	C 	0.1725	0.3063	0.535	0.196
Mof_C 	C 	0.2437	0.3166	0.549	-0.227
Mof_H 	H 	0.2683	0.3603	0.5424	0.133
Mof_C 	C 	0.2785	0.2631	0.5725	0.067
Mof_C 	C 	0.2427	0.2006	0.583	-0.053
Mof_H 	H 	0.2666	0.1649	0.5997	0.077
Mof_C 	C 	0.1728	0.1888	0.5698	0.034
Mof_C 	C 	0.1377	0.2407	0.5462	-0.153
Mof_H 	H 	0.0893	0.2325	0.5372	0.106
Mof_C 	C 	0.1402	0.1191	0.5829	0.118
Mof_O 	O 	0.12	0.0893	0.5503	-0.094
Mof_O 	O 	0.141	0.109	0.6218	-0.1
Mof_C 	C 	0.2734	0.3546	0.5877	0.219
Mof_O 	O 	0.2175	0.3926	0.5913	-0.193
Mof_O 	O 	0.3373	0.373	0.5955	-0.112
Mof_C 	C 	0.8327	0.564	0.84881	-0.185
Mof_H 	H 	0.847	0.6084	0.8616	0.129
Mof_O 	O 	0.7971	0.6913	0.80727	-0.368
Mof_O 	O 	0.7362	0.6308	0.75541	-0.359
Mof_C 	C 	0.7741	0.635	0.7894	0.303
Mof_C 	C 	0.7908	0.5642	0.8111	0.041
Mof_O 	O 	0.8293	0.8608	0.8275	-0.09
Mof_C 	C 	0.9344	0.5459	0.9211	0.064
Mof_H 	H 	0.9143	0.5951	0.9248	0.045
Mof_H 	H 	0.9753	0.5484	0.9006	0.018
Mof_C 	C 	0.9672	0.5171	0.9619	-0.012
Mof_H 	H 	0.8302	0.4558	0.02	-0.019
Mof_H 	H 	0.8411	0.4333	0.9709	0.069
Mof_O 	O 	0.8635	0.3547	0.0122	-0.129
Mof_C 	C 	0.8063	0.3275	0.035	0.196
Mof_C 	C 	0.8166	0.2563	0.049	-0.228
Mof_H 	H 	0.8603	0.2317	0.0424	0.133
Mof_C 	C 	0.7631	0.2215	0.0725	0.067
Mof_C 	C 	0.7006	0.2573	0.083	-0.053
Mof_H 	H 	0.6649	0.2334	0.0997	0.077
Mof_C 	C 	0.6888	0.3272	0.0698	0.034
Mof_C 	C 	0.7407	0.3623	0.0462	-0.153
Mof_H 	H 	0.7325	0.4107	0.0372	0.106
Mof_C 	C 	0.6191	0.3598	0.0829	0.118
Mof_O 	O 	0.5893	0.38	0.0503	-0.094
Mof_O 	O 	0.609	0.359	0.1218	-0.1
Mof_C 	C 	0.8546	0.2266	0.0877	0.219
Mof_O 	O 	0.8926	0.2825	0.0913	-0.193
Mof_O 	O 	0.873	0.1627	0.0955	-0.112
Mof_C 	C 	0.3327	0.064	0.34881	-0.185
Mof_H 	H 	0.347	0.1084	0.3616	0.129
Mof_O 	O 	0.2971	0.1913	0.30727	-0.368
Mof_O 	O 	0.2362	0.1308	0.25541	-0.359
Mof_C 	C 	0.2741	0.135	0.2894	0.303
Mof_C 	C 	0.2908	0.0642	0.3111	0.041
Mof_O 	O 	0.3293	0.3608	0.3275	-0.091
Mof_C 	C 	0.4344	0.0459	0.4211	0.064
Mof_H 	H 	0.4143	0.0951	0.4248	0.045
Mof_H 	H 	0.4753	0.0484	0.4006	0.018
Mof_C 	C 	0.4672	0.0171	0.4619	-0.012
Mof_H 	H 	0.3302	0.9558	0.52	-0.018
Mof_H 	H 	0.3411	0.9333	0.4709	0.069
Mof_O 	O 	0.3635	0.8547	0.5122	-0.127
Mof_C 	C 	0.3063	0.8275	0.535	0.196
Mof_C 	C 	0.3166	0.7563	0.549	-0.227
Mof_H 	H 	0.3603	0.7317	0.5424	0.133
Mof_C 	C 	0.2631	0.7215	0.5725	0.067
Mof_C 	C 	0.2006	0.7573	0.583	-0.053
Mof_H 	H 	0.1649	0.7334	0.5997	0.077
Mof_C 	C 	0.1888	0.8272	0.5698	0.034
Mof_C 	C 	0.2407	0.8623	0.5462	-0.153
Mof_H 	H 	0.2325	0.9107	0.5372	0.106
Mof_C 	C 	0.1191	0.8598	0.5829	0.118
Mof_O 	O 	0.0893	0.88	0.5503	-0.094
Mof_O 	O 	0.109	0.859	0.6218	-0.1
Mof_C 	C 	0.3546	0.7266	0.5877	0.219
Mof_O 	O 	0.3926	0.7825	0.5913	-0.193
Mof_O 	O 	0.373	0.6627	0.5955	-0.112
Mof_C 	C 	0.1673	0.436	0.84881	-0.185
Mof_H 	H 	0.153	0.3916	0.8616	0.129
Mof_O 	O 	0.2029	0.3087	0.80727	-0.368
Mof_O 	O 	0.2638	0.3692	0.75541	-0.359
Mof_C 	C 	0.2259	0.365	0.7894	0.303
Mof_C 	C 	0.2092	0.4358	0.8111	0.041
Mof_O 	O 	0.1707	0.1392	0.8275	-0.091
Mof_C 	C 	0.0656	0.4541	0.9211	0.064
Mof_H 	H 	0.0857	0.4049	0.9248	0.045
Mof_H 	H 	0.0247	0.4516	0.9006	0.018
Mof_C 	C 	0.0328	0.4829	0.9619	-0.012
Mof_H 	H 	0.1698	0.5442	0.02	-0.019
Mof_H 	H 	0.1589	0.5667	0.9709	0.069
Mof_O 	O 	0.1365	0.6453	0.0122	-0.129
Mof_C 	C 	0.1937	0.6725	0.035	0.196
Mof_C 	C 	0.1834	0.7437	0.049	-0.228
Mof_H 	H 	0.1397	0.7683	0.0424	0.133
Mof_C 	C 	0.2369	0.7785	0.0725	0.067
Mof_C 	C 	0.2994	0.7427	0.083	-0.053
Mof_H 	H 	0.3351	0.7666	0.0997	0.077
Mof_C 	C 	0.3112	0.6728	0.0698	0.034
Mof_C 	C 	0.2593	0.6377	0.0462	-0.153
Mof_H 	H 	0.2675	0.5893	0.0372	0.106
Mof_C 	C 	0.3809	0.6402	0.0829	0.118
Mof_O 	O 	0.4107	0.62	0.0503	-0.094
Mof_O 	O 	0.391	0.641	0.1218	-0.1
Mof_C 	C 	0.1454	0.7734	0.0877	0.219
Mof_O 	O 	0.1074	0.7175	0.0913	-0.193
Mof_O 	O 	0.127	0.8373	0.0955	-0.112
Mof_C 	C 	0.6673	0.936	0.34881	-0.185
Mof_H 	H 	0.653	0.8916	0.3616	0.129
Mof_O 	O 	0.7029	0.8087	0.30727	-0.368
Mof_O 	O 	0.7638	0.8692	0.25541	-0.359
Mof_C 	C 	0.7259	0.865	0.2894	0.303
Mof_C 	C 	0.7092	0.9358	0.3111	0.041
Mof_O 	O 	0.6707	0.6392	0.3275	-0.09
Mof_C 	C 	0.5656	0.9541	0.4211	0.064
Mof_H 	H 	0.5857	0.9049	0.4248	0.045
Mof_H 	H 	0.5247	0.9516	0.4006	0.018
Mof_C 	C 	0.5328	0.9829	0.4619	-0.013
Mof_H 	H 	0.6698	0.0442	0.52	-0.019
Mof_H 	H 	0.6589	0.0667	0.4709	0.069
Mof_O 	O 	0.6365	0.1453	0.5122	-0.127
Mof_C 	C 	0.6937	0.1725	0.535	0.196
Mof_C 	C 	0.6834	0.2437	0.549	-0.227
Mof_H 	H 	0.6397	0.2683	0.5424	0.133
Mof_C 	C 	0.7369	0.2785	0.5725	0.067
Mof_C 	C 	0.7994	0.2427	0.583	-0.053
Mof_H 	H 	0.8351	0.2666	0.5997	0.077
Mof_C 	C 	0.8112	0.1728	0.5698	0.034
Mof_C 	C 	0.7593	0.1377	0.5462	-0.153
Mof_H 	H 	0.7675	0.0893	0.5372	0.106
Mof_C 	C 	0.8809	0.1402	0.5829	0.118
Mof_O 	O 	0.9107	0.12	0.5503	-0.094
Mof_O 	O 	0.891	0.141	0.6218	-0.1
Mof_C 	C 	0.6454	0.2734	0.5877	0.219
Mof_O 	O 	0.6074	0.2175	0.5913	-0.193
Mof_O 	O 	0.627	0.3373	0.5955	-0.112
Mof_C 	C 	0.436	0.1673	0.15119	-0.185
Mof_H 	H 	0.3916	0.153	0.1384	0.129
Mof_O 	O 	0.3087	0.2029	0.19273	-0.368
Mof_O 	O 	0.3692	0.2638	0.24459	-0.359
Mof_C 	C 	0.365	0.2259	0.2106	0.303
Mof_C 	C 	0.4358	0.2092	0.1889	0.041
Mof_O 	O 	0.1392	0.1707	0.1725	-0.091
Mof_C 	C 	0.4541	0.0656	0.0789	0.064
Mof_H 	H 	0.4049	0.0857	0.0752	0.045
Mof_H 	H 	0.4516	0.0247	0.0994	0.018
Mof_C 	C 	0.4829	0.0328	0.0381	-0.013
Mof_H 	H 	0.5442	0.1698	0.98	-0.018
Mof_H 	H 	0.5667	0.1589	0.0291	0.07
Mof_O 	O 	0.6453	0.1365	0.9878	-0.124
Mof_C 	C 	0.6725	0.1937	0.965	0.195
Mof_C 	C 	0.7437	0.1834	0.951	-0.226
Mof_H 	H 	0.7683	0.1397	0.9576	0.132
Mof_C 	C 	0.7785	0.2369	0.9275	0.066
Mof_C 	C 	0.7427	0.2994	0.917	-0.052
Mof_H 	H 	0.7666	0.3351	0.9003	0.077
Mof_C 	C 	0.6728	0.3112	0.9302	0.034
Mof_C 	C 	0.6377	0.2593	0.9538	-0.152
Mof_H 	H 	0.5893	0.2675	0.9628	0.106
Mof_C 	C 	0.6402	0.3809	0.9171	0.119
Mof_O 	O 	0.62	0.4107	0.9497	-0.094
Mof_O 	O 	0.641	0.391	0.8782	-0.1
Mof_C 	C 	0.7734	0.1454	0.9123	0.219
Mof_O 	O 	0.7175	0.1074	0.9087	-0.193
Mof_O 	O 	0.8373	0.127	0.9045	-0.112
Mof_C 	C 	0.936	0.6673	0.65119	-0.185
Mof_H 	H 	0.8916	0.653	0.6384	0.129
Mof_O 	O 	0.8087	0.7029	0.69273	-0.368
Mof_O 	O 	0.8692	0.7638	0.74459	-0.359
Mof_C 	C 	0.865	0.7259	0.7106	0.303
Mof_C 	C 	0.9358	0.7092	0.6889	0.041
Mof_O 	O 	0.6392	0.6707	0.6725	-0.091
Mof_C 	C 	0.9541	0.5656	0.5789	0.064
Mof_H 	H 	0.9049	0.5857	0.5752	0.045
Mof_H 	H 	0.9516	0.5247	0.5994	0.018
Mof_C 	C 	0.9829	0.5328	0.5381	-0.013
Mof_H 	H 	0.0442	0.6698	0.48	-0.019
Mof_H 	H 	0.0667	0.6589	0.5291	0.069
Mof_O 	O 	0.1453	0.6365	0.4878	-0.127
Mof_C 	C 	0.1725	0.6937	0.465	0.196
Mof_C 	C 	0.2437	0.6834	0.451	-0.227
Mof_H 	H 	0.2683	0.6397	0.4576	0.133
Mof_C 	C 	0.2785	0.7369	0.4275	0.067
Mof_C 	C 	0.2427	0.7994	0.417	-0.053
Mof_H 	H 	0.2666	0.8351	0.4003	0.077
Mof_C 	C 	0.1728	0.8112	0.4302	0.034
Mof_C 	C 	0.1377	0.7593	0.4538	-0.153
Mof_H 	H 	0.0893	0.7675	0.4628	0.106
Mof_C 	C 	0.1402	0.8809	0.4171	0.118
Mof_O 	O 	0.12	0.9107	0.4497	-0.094
Mof_O 	O 	0.141	0.891	0.3782	-0.1
Mof_C 	C 	0.2734	0.6454	0.4123	0.219
Mof_O 	O 	0.2175	0.6074	0.4087	-0.193
Mof_O 	O 	0.3373	0.627	0.4045	-0.112
Mof_C 	C 	0.564	0.8327	0.15119	-0.185
Mof_H 	H 	0.6084	0.847	0.1384	0.129
Mof_O 	O 	0.6913	0.7971	0.19273	-0.368
Mof_O 	O 	0.6308	0.7362	0.24459	-0.359
Mof_C 	C 	0.635	0.7741	0.2106	0.303
Mof_C 	C 	0.5642	0.7908	0.1889	0.041
Mof_O 	O 	0.8608	0.8293	0.1725	-0.091
Mof_C 	C 	0.5459	0.9344	0.0789	0.064
Mof_H 	H 	0.5951	0.9143	0.0752	0.045
Mof_H 	H 	0.5484	0.9753	0.0994	0.018
Mof_C 	C 	0.5171	0.9672	0.0381	-0.012
Mof_H 	H 	0.4558	0.8302	0.98	-0.018
Mof_H 	H 	0.4333	0.8411	0.0291	0.07
Mof_O 	O 	0.3547	0.8635	0.9878	-0.124
Mof_C 	C 	0.3275	0.8063	0.965	0.195
Mof_C 	C 	0.2563	0.8166	0.951	-0.226
Mof_H 	H 	0.2317	0.8603	0.9576	0.132
Mof_C 	C 	0.2215	0.7631	0.9275	0.066
Mof_C 	C 	0.2573	0.7006	0.917	-0.052
Mof_H 	H 	0.2334	0.6649	0.9003	0.077
Mof_C 	C 	0.3272	0.6888	0.9302	0.034
Mof_C 	C 	0.3623	0.7407	0.9538	-0.152
Mof_H 	H 	0.4107	0.7325	0.9628	0.106
Mof_C 	C 	0.3598	0.6191	0.9171	0.119
Mof_O 	O 	0.38	0.5893	0.9497	-0.094
Mof_O 	O 	0.359	0.609	0.8782	-0.1
Mof_C 	C 	0.2266	0.8546	0.9123	0.219
Mof_O 	O 	0.2825	0.8926	0.9087	-0.193
Mof_O 	O 	0.1627	0.873	0.9045	-0.112
Mof_C 	C 	0.064	0.3327	0.65119	-0.185
Mof_H 	H 	0.1084	0.347	0.6384	0.129
Mof_O 	O 	0.1913	0.2971	0.69273	-0.368
Mof_O 	O 	0.1308	0.2362	0.74459	-0.359
Mof_C 	C 	0.135	0.2741	0.7106	0.303
Mof_C 	C 	0.0642	0.2908	0.6889	0.041
Mof_O 	O 	0.3608	0.3293	0.6725	-0.091
Mof_C 	C 	0.0459	0.4344	0.5789	0.064
Mof_H 	H 	0.0951	0.4143	0.5752	0.045
Mof_H 	H 	0.0484	0.4753	0.5994	0.018
Mof_C 	C 	0.0171	0.4672	0.5381	-0.012
Mof_H 	H 	0.9558	0.3302	0.48	-0.018
Mof_H 	H 	0.9333	0.3411	0.5291	0.069
Mof_O 	O 	0.8547	0.3635	0.4878	-0.127
Mof_C 	C 	0.8275	0.3063	0.465	0.196
Mof_C 	C 	0.7563	0.3166	0.451	-0.227
Mof_H 	H 	0.7317	0.3603	0.4576	0.133
Mof_C 	C 	0.7215	0.2631	0.4275	0.067
Mof_C 	C 	0.7573	0.2006	0.417	-0.053
Mof_H 	H 	0.7334	0.1649	0.4003	0.077
Mof_C 	C 	0.8272	0.1888	0.4302	0.034
Mof_C 	C 	0.8623	0.2407	0.4538	-0.153
Mof_H 	H 	0.9107	0.2325	0.4628	0.106
Mof_C 	C 	0.8598	0.1191	0.4171	0.118
Mof_O 	O 	0.88	0.0893	0.4497	-0.094
Mof_O 	O 	0.859	0.109	0.3782	-0.1
Mof_C 	C 	0.7266	0.3546	0.4123	0.219
Mof_O 	O 	0.7825	0.3926	0.4087	-0.193
Mof_O 	O 	0.6627	0.373	0.4045	-0.112
Mof_C 	C 	0.1673	0.564	0.15119	-0.185
Mof_H 	H 	0.153	0.6084	0.1384	0.129
Mof_O 	O 	0.2029	0.6913	0.19273	-0.368
Mof_O 	O 	0.2638	0.6308	0.24459	-0.359
Mof_C 	C 	0.2259	0.635	0.2106	0.303
Mof_C 	C 	0.2092	0.5642	0.1889	0.041
Mof_O 	O 	0.1707	0.8608	0.1725	-0.091
Mof_C 	C 	0.0656	0.5459	0.0789	0.064
Mof_H 	H 	0.0857	0.5951	0.0752	0.045
Mof_H 	H 	0.0247	0.5484	0.0994	0.018
Mof_C 	C 	0.0328	0.5171	0.0381	-0.013
Mof_H 	H 	0.1698	0.4558	0.98	-0.018
Mof_H 	H 	0.1589	0.4333	0.0291	0.07
Mof_O 	O 	0.1365	0.3547	0.9878	-0.124
Mof_C 	C 	0.1937	0.3275	0.965	0.195
Mof_C 	C 	0.1834	0.2563	0.951	-0.226
Mof_H 	H 	0.1397	0.2317	0.9576	0.132
Mof_C 	C 	0.2369	0.2215	0.9275	0.066
Mof_C 	C 	0.2994	0.2573	0.917	-0.052
Mof_H 	H 	0.3351	0.2334	0.9003	0.077
Mof_C 	C 	0.3112	0.3272	0.9302	0.034
Mof_C 	C 	0.2593	0.3623	0.9538	-0.152
Mof_H 	H 	0.2675	0.4107	0.9628	0.106
Mof_C 	C 	0.3809	0.3598	0.9171	0.119
Mof_O 	O 	0.4107	0.38	0.9497	-0.094
Mof_O 	O 	0.391	0.359	0.8782	-0.1
Mof_C 	C 	0.1454	0.2266	0.9123	0.219
Mof_O 	O 	0.1074	0.2825	0.9087	-0.193
Mof_O 	O 	0.127	0.1627	0.9045	-0.112
Mof_C 	C 	0.6673	0.064	0.65119	-0.185
Mof_H 	H 	0.653	0.1084	0.6384	0.129
Mof_O 	O 	0.7029	0.1913	0.69273	-0.368
Mof_O 	O 	0.7638	0.1308	0.74459	-0.359
Mof_C 	C 	0.7259	0.135	0.7106	0.303
Mof_C 	C 	0.7092	0.0642	0.6889	0.041
Mof_O 	O 	0.6707	0.3608	0.6725	-0.09
Mof_C 	C 	0.5656	0.0459	0.5789	0.064
Mof_H 	H 	0.5857	0.0951	0.5752	0.045
Mof_H 	H 	0.5247	0.0484	0.5994	0.018
Mof_C 	C 	0.5328	0.0171	0.5381	-0.012
Mof_H 	H 	0.6698	0.9558	0.48	-0.018
Mof_H 	H 	0.6589	0.9333	0.5291	0.069
Mof_O 	O 	0.6365	0.8547	0.4878	-0.127
Mof_C 	C 	0.6937	0.8275	0.465	0.196
Mof_C 	C 	0.6834	0.7563	0.451	-0.227
Mof_H 	H 	0.6397	0.7317	0.4576	0.133
Mof_C 	C 	0.7369	0.7215	0.4275	0.067
Mof_C 	C 	0.7994	0.7573	0.417	-0.053
Mof_H 	H 	0.8351	0.7334	0.4003	0.077
Mof_C 	C 	0.8112	0.8272	0.4302	0.034
Mof_C 	C 	0.7593	0.8623	0.4538	-0.153
Mof_H 	H 	0.7675	0.9107	0.4628	0.106
Mof_C 	C 	0.8809	0.8598	0.4171	0.118
Mof_O 	O 	0.9107	0.88	0.4497	-0.094
Mof_O 	O 	0.891	0.859	0.3782	-0.1
Mof_C 	C 	0.6454	0.7266	0.4123	0.219
Mof_O 	O 	0.6074	0.7825	0.4087	-0.193
Mof_O 	O 	0.627	0.6627	0.4045	-0.112
Mof_C 	C 	0.8327	0.436	0.15119	-0.185
Mof_H 	H 	0.847	0.3916	0.1384	0.129
Mof_O 	O 	0.7971	0.3087	0.19273	-0.368
Mof_O 	O 	0.7362	0.3692	0.24459	-0.359
Mof_C 	C 	0.7741	0.365	0.2106	0.303
Mof_C 	C 	0.7908	0.4358	0.1889	0.041
Mof_O 	O 	0.8293	0.1392	0.1725	-0.091
Mof_C 	C 	0.9344	0.4541	0.0789	0.064
Mof_H 	H 	0.9143	0.4049	0.0752	0.045
Mof_H 	H 	0.9753	0.4516	0.0994	0.018
Mof_C 	C 	0.9672	0.4829	0.0381	-0.012
Mof_H 	H 	0.8302	0.5442	0.98	-0.018
Mof_H 	H 	0.8411	0.5667	0.0291	0.07
Mof_O 	O 	0.8635	0.6453	0.9878	-0.124
Mof_C 	C 	0.8063	0.6725	0.965	0.195
Mof_C 	C 	0.8166	0.7437	0.951	-0.226
Mof_H 	H 	0.8603	0.7683	0.9576	0.132
Mof_C 	C 	0.7631	0.7785	0.9275	0.066
Mof_C 	C 	0.7006	0.7427	0.917	-0.052
Mof_H 	H 	0.6649	0.7666	0.9003	0.077
Mof_C 	C 	0.6888	0.6728	0.9302	0.034
Mof_C 	C 	0.7407	0.6377	0.9538	-0.152
Mof_H 	H 	0.7325	0.5893	0.9628	0.106
Mof_C 	C 	0.6191	0.6402	0.9171	0.119
Mof_O 	O 	0.5893	0.62	0.9497	-0.094
Mof_O 	O 	0.609	0.641	0.8782	-0.1
Mof_C 	C 	0.8546	0.7734	0.9123	0.219
Mof_O 	O 	0.8926	0.7175	0.9087	-0.193
Mof_O 	O 	0.873	0.8373	0.9045	-0.112
Mof_C 	C 	0.3327	0.936	0.65119	-0.185
Mof_H 	H 	0.347	0.8916	0.6384	0.129
Mof_O 	O 	0.2971	0.8087	0.69273	-0.368
Mof_O 	O 	0.2362	0.8692	0.74459	-0.359
Mof_C 	C 	0.2741	0.865	0.7106	0.303
Mof_C 	C 	0.2908	0.9358	0.6889	0.041
Mof_O 	O 	0.3293	0.6392	0.6725	-0.091
Mof_C 	C 	0.4344	0.9541	0.5789	0.064
Mof_H 	H 	0.4143	0.9049	0.5752	0.045
Mof_H 	H 	0.4753	0.9516	0.5994	0.018
Mof_C 	C 	0.4672	0.9829	0.5381	-0.013
Mof_H 	H 	0.3302	0.0442	0.48	-0.019
Mof_H 	H 	0.3411	0.0667	0.5291	0.069
Mof_O 	O 	0.3635	0.1453	0.4878	-0.127
Mof_C 	C 	0.3063	0.1725	0.465	0.196
Mof_C 	C 	0.3166	0.2437	0.451	-0.227
Mof_H 	H 	0.3603	0.2683	0.4576	0.133
Mof_C 	C 	0.2631	0.2785	0.4275	0.067
Mof_C 	C 	0.2006	0.2427	0.417	-0.053
Mof_H 	H 	0.1649	0.2666	0.4003	0.077
Mof_C 	C 	0.1888	0.1728	0.4302	0.034
Mof_C 	C 	0.2407	0.1377	0.4538	-0.153
Mof_H 	H 	0.2325	0.0893	0.4628	0.106
Mof_C 	C 	0.1191	0.1402	0.4171	0.118
Mof_O 	O 	0.0893	0.12	0.4497	-0.094
Mof_O 	O 	0.109	0.141	0.3782	-0.1
Mof_C 	C 	0.3546	0.2734	0.4123	0.219
Mof_O 	O 	0.3926	0.2175	0.4087	-0.193
Mof_O 	O 	0.373	0.3373	0.4045	-0.112
Mof_C 	C 	0.436	0.8327	0.15119	-0.185
Mof_H 	H 	0.3916	0.847	0.1384	0.129
Mof_O 	O 	0.3087	0.7971	0.19273	-0.368
Mof_O 	O 	0.3692	0.7362	0.24459	-0.359
Mof_C 	C 	0.365	0.7741	0.2106	0.303
Mof_C 	C 	0.4358	0.7908	0.1889	0.041
Mof_O 	O 	0.1392	0.8293	0.1725	-0.091
Mof_C 	C 	0.4541	0.9344	0.0789	0.064
Mof_H 	H 	0.4049	0.9143	0.0752	0.045
Mof_H 	H 	0.4516	0.9753	0.0994	0.018
Mof_C 	C 	0.4829	0.9672	0.0381	-0.012
Mof_H 	H 	0.5442	0.8302	0.98	-0.018
Mof_H 	H 	0.5667	0.8411	0.0291	0.07
Mof_O 	O 	0.6453	0.8635	0.9878	-0.124
Mof_C 	C 	0.6725	0.8063	0.965	0.195
Mof_C 	C 	0.7437	0.8166	0.951	-0.226
Mof_H 	H 	0.7683	0.8603	0.9576	0.132
Mof_C 	C 	0.7785	0.7631	0.9275	0.066
Mof_C 	C 	0.7427	0.7006	0.917	-0.052
Mof_H 	H 	0.7666	0.6649	0.9003	0.077
Mof_C 	C 	0.6728	0.6888	0.9302	0.034
Mof_C 	C 	0.6377	0.7407	0.9538	-0.152
Mof_H 	H 	0.5893	0.7325	0.9628	0.106
Mof_C 	C 	0.6402	0.6191	0.9171	0.119
Mof_O 	O 	0.62	0.5893	0.9497	-0.094
Mof_O 	O 	0.641	0.609	0.8782	-0.1
Mof_C 	C 	0.7734	0.8546	0.9123	0.219
Mof_O 	O 	0.7175	0.8926	0.9087	-0.193
Mof_O 	O 	0.8373	0.873	0.9045	-0.112
Mof_C 	C 	0.936	0.3327	0.65119	-0.185
Mof_H 	H 	0.8916	0.347	0.6384	0.129
Mof_O 	O 	0.8087	0.2971	0.69273	-0.368
Mof_O 	O 	0.8692	0.2362	0.74459	-0.359
Mof_C 	C 	0.865	0.2741	0.7106	0.303
Mof_C 	C 	0.9358	0.2908	0.6889	0.041
Mof_O 	O 	0.6392	0.3293	0.6725	-0.091
Mof_C 	C 	0.9541	0.4344	0.5789	0.064
Mof_H 	H 	0.9049	0.4143	0.5752	0.045
Mof_H 	H 	0.9516	0.4753	0.5994	0.018
Mof_C 	C 	0.9829	0.4672	0.5381	-0.013
Mof_H 	H 	0.0442	0.3302	0.48	-0.019
Mof_H 	H 	0.0667	0.3411	0.5291	0.069
Mof_O 	O 	0.1453	0.3635	0.4878	-0.127
Mof_C 	C 	0.1725	0.3063	0.465	0.196
Mof_C 	C 	0.2437	0.3166	0.451	-0.227
Mof_H 	H 	0.2683	0.3603	0.4576	0.133
Mof_C 	C 	0.2785	0.2631	0.4275	0.067
Mof_C 	C 	0.2427	0.2006	0.417	-0.053
Mof_H 	H 	0.2666	0.1649	0.4003	0.077
Mof_C 	C 	0.1728	0.1888	0.4302	0.034
Mof_C 	C 	0.1377	0.2407	0.4538	-0.153
Mof_H 	H 	0.0893	0.2325	0.4628	0.106
Mof_C 	C 	0.1402	0.1191	0.4171	0.118
Mof_O 	O 	0.12	0.0893	0.4497	-0.094
Mof_O 	O 	0.141	0.109	0.3782	-0.1
Mof_C 	C 	0.2734	0.3546	0.4123	0.219
Mof_O 	O 	0.2175	0.3926	0.4087	-0.193
Mof_O 	O 	0.3373	0.373	0.4045	-0.112
Mof_C 	C 	0.564	0.1673	0.15119	-0.185
Mof_H 	H 	0.6084	0.153	0.1384	0.129
Mof_O 	O 	0.6913	0.2029	0.19273	-0.368
Mof_O 	O 	0.6308	0.2638	0.24459	-0.359
Mof_C 	C 	0.635	0.2259	0.2106	0.303
Mof_C 	C 	0.5642	0.2092	0.1889	0.041
Mof_O 	O 	0.8608	0.1707	0.1725	-0.091
Mof_C 	C 	0.5459	0.0656	0.0789	0.064
Mof_H 	H 	0.5951	0.0857	0.0752	0.045
Mof_H 	H 	0.5484	0.0247	0.0994	0.018
Mof_C 	C 	0.5171	0.0328	0.0381	-0.013
Mof_H 	H 	0.4558	0.1698	0.98	-0.018
Mof_H 	H 	0.4333	0.1589	0.0291	0.07
Mof_O 	O 	0.3547	0.1365	0.9878	-0.124
Mof_C 	C 	0.3275	0.1937	0.965	0.195
Mof_C 	C 	0.2563	0.1834	0.951	-0.226
Mof_H 	H 	0.2317	0.1397	0.9576	0.132
Mof_C 	C 	0.2215	0.2369	0.9275	0.066
Mof_C 	C 	0.2573	0.2994	0.917	-0.052
Mof_H 	H 	0.2334	0.3351	0.9003	0.077
Mof_C 	C 	0.3272	0.3112	0.9302	0.034
Mof_C 	C 	0.3623	0.2593	0.9538	-0.152
Mof_H 	H 	0.4107	0.2675	0.9628	0.106
Mof_C 	C 	0.3598	0.3809	0.9171	0.119
Mof_O 	O 	0.38	0.4107	0.9497	-0.094
Mof_O 	O 	0.359	0.391	0.8782	-0.1
Mof_C 	C 	0.2266	0.1454	0.9123	0.219
Mof_O 	O 	0.2825	0.1074	0.9087	-0.193
Mof_O 	O 	0.1627	0.127	0.9045	-0.112
Mof_C 	C 	0.064	0.6673	0.65119	-0.185
Mof_H 	H 	0.1084	0.653	0.6384	0.129
Mof_O 	O 	0.1913	0.7029	0.69273	-0.368
Mof_O 	O 	0.1308	0.7638	0.74459	-0.359
Mof_C 	C 	0.135	0.7259	0.7106	0.303
Mof_C 	C 	0.0642	0.7092	0.6889	0.041
Mof_O 	O 	0.3608	0.6707	0.6725	-0.09
Mof_C 	C 	0.0459	0.5656	0.5789	0.064
Mof_H 	H 	0.0951	0.5857	0.5752	0.045
Mof_H 	H 	0.0484	0.5247	0.5994	0.018
Mof_C 	C 	0.0171	0.5328	0.5381	-0.012
Mof_H 	H 	0.9558	0.6698	0.48	-0.018
Mof_H 	H 	0.9333	0.6589	0.5291	0.069
Mof_O 	O 	0.8547	0.6365	0.4878	-0.127
Mof_C 	C 	0.8275	0.6937	0.465	0.196
Mof_C 	C 	0.7563	0.6834	0.451	-0.227
Mof_H 	H 	0.7317	0.6397	0.4576	0.133
Mof_C 	C 	0.7215	0.7369	0.4275	0.067
Mof_C 	C 	0.7573	0.7994	0.417	-0.053
Mof_H 	H 	0.7334	0.8351	0.4003	0.077
Mof_C 	C 	0.8272	0.8112	0.4302	0.034
Mof_C 	C 	0.8623	0.7593	0.4538	-0.153
Mof_H 	H 	0.9107	0.7675	0.4628	0.106
Mof_C 	C 	0.8598	0.8809	0.4171	0.118
Mof_O 	O 	0.88	0.9107	0.4497	-0.094
Mof_O 	O 	0.859	0.891	0.3782	-0.1
Mof_C 	C 	0.7266	0.6454	0.4123	0.219
Mof_O 	O 	0.7825	0.6074	0.4087	-0.193
Mof_O 	O 	0.6627	0.627	0.4045	-0.112
Mof_C 	C 	0.1673	0.436	0.15119	-0.185
Mof_H 	H 	0.153	0.3916	0.1384	0.129
Mof_O 	O 	0.2029	0.3087	0.19273	-0.368
Mof_O 	O 	0.2638	0.3692	0.24459	-0.359
Mof_C 	C 	0.2259	0.365	0.2106	0.303
Mof_C 	C 	0.2092	0.4358	0.1889	0.041
Mof_O 	O 	0.1707	0.1392	0.1725	-0.091
Mof_C 	C 	0.0656	0.4541	0.0789	0.064
Mof_H 	H 	0.0857	0.4049	0.0752	0.045
Mof_H 	H 	0.0247	0.4516	0.0994	0.018
Mof_C 	C 	0.0328	0.4829	0.0381	-0.013
Mof_H 	H 	0.1698	0.5442	0.98	-0.018
Mof_H 	H 	0.1589	0.5667	0.0291	0.07
Mof_O 	O 	0.1365	0.6453	0.9878	-0.124
Mof_C 	C 	0.1937	0.6725	0.965	0.195
Mof_C 	C 	0.1834	0.7437	0.951	-0.226
Mof_H 	H 	0.1397	0.7683	0.9576	0.132
Mof_C 	C 	0.2369	0.7785	0.9275	0.066
Mof_C 	C 	0.2994	0.7427	0.917	-0.052
Mof_H 	H 	0.3351	0.7666	0.9003	0.077
Mof_C 	C 	0.3112	0.6728	0.9302	0.034
Mof_C 	C 	0.2593	0.6377	0.9538	-0.152
Mof_H 	H 	0.2675	0.5893	0.9628	0.106
Mof_C 	C 	0.3809	0.6402	0.9171	0.119
Mof_O 	O 	0.4107	0.62	0.9497	-0.094
Mof_O 	O 	0.391	0.641	0.8782	-0.1
Mof_C 	C 	0.1454	0.7734	0.9123	0.219
Mof_O 	O 	0.1074	0.7175	0.9087	-0.193
Mof_O 	O 	0.127	0.8373	0.9045	-0.112
Mof_C 	C 	0.6673	0.936	0.65119	-0.185
Mof_H 	H 	0.653	0.8916	0.6384	0.129
Mof_O 	O 	0.7029	0.8087	0.69273	-0.368
Mof_O 	O 	0.7638	0.8692	0.74459	-0.359
Mof_C 	C 	0.7259	0.865	0.7106	0.303
Mof_C 	C 	0.7092	0.9358	0.6889	0.041
Mof_O 	O 	0.6707	0.6392	0.6725	-0.091
Mof_C 	C 	0.5656	0.9541	0.5789	0.064
Mof_H 	H 	0.5857	0.9049	0.5752	0.045
Mof_H 	H 	0.5247	0.9516	0.5994	0.018
Mof_C 	C 	0.5328	0.9829	0.5381	-0.013
Mof_H 	H 	0.6698	0.0442	0.48	-0.019
Mof_H 	H 	0.6589	0.0667	0.5291	0.069
Mof_O 	O 	0.6365	0.1453	0.4878	-0.127
Mof_C 	C 	0.6937	0.1725	0.465	0.196
Mof_C 	C 	0.6834	0.2437	0.451	-0.227
Mof_H 	H 	0.6397	0.2683	0.4576	0.133
Mof_C 	C 	0.7369	0.2785	0.4275	0.067
Mof_C 	C 	0.7994	0.2427	0.417	-0.053
Mof_H 	H 	0.8351	0.2666	0.4003	0.077
Mof_C 	C 	0.8112	0.1728	0.4302	0.034
Mof_C 	C 	0.7593	0.1377	0.4538	-0.153
Mof_H 	H 	0.7675	0.0893	0.4628	0.106
Mof_C 	C 	0.8809	0.1402	0.4171	0.118
Mof_O 	O 	0.9107	0.12	0.4497	-0.094
Mof_O 	O 	0.891	0.141	0.3782	-0.1
Mof_C 	C 	0.6454	0.2734	0.4123	0.219
Mof_O 	O 	0.6074	0.2175	0.4087	-0.193
Mof_O 	O 	0.627	0.3373	0.4045	-0.112
Mof_C 	C 	0.8327	0.564	0.15119	-0.185
Mof_H 	H 	0.847	0.6084	0.1384	0.129
Mof_O 	O 	0.7971	0.6913	0.19273	-0.368
Mof_O 	O 	0.7362	0.6308	0.24459	-0.359
Mof_C 	C 	0.7741	0.635	0.2106	0.303
Mof_C 	C 	0.7908	0.5642	0.1889	0.041
Mof_O 	O 	0.8293	0.8608	0.1725	-0.091
Mof_C 	C 	0.9344	0.5459	0.0789	0.064
Mof_H 	H 	0.9143	0.5951	0.0752	0.045
Mof_H 	H 	0.9753	0.5484	0.0994	0.018
Mof_C 	C 	0.9672	0.5171	0.0381	-0.012
Mof_H 	H 	0.8302	0.4558	0.98	-0.018
Mof_H 	H 	0.8411	0.4333	0.0291	0.07
Mof_O 	O 	0.8635	0.3547	0.9878	-0.124
Mof_C 	C 	0.8063	0.3275	0.965	0.195
Mof_C 	C 	0.8166	0.2563	0.951	-0.226
Mof_H 	H 	0.8603	0.2317	0.9576	0.132
Mof_C 	C 	0.7631	0.2215	0.9275	0.066
Mof_C 	C 	0.7006	0.2573	0.917	-0.052
Mof_H 	H 	0.6649	0.2334	0.9003	0.077
Mof_C 	C 	0.6888	0.3272	0.9302	0.034
Mof_C 	C 	0.7407	0.3623	0.9538	-0.152
Mof_H 	H 	0.7325	0.4107	0.9628	0.106
Mof_C 	C 	0.6191	0.3598	0.9171	0.119
Mof_O 	O 	0.5893	0.38	0.9497	-0.094
Mof_O 	O 	0.609	0.359	0.8782	-0.1
Mof_C 	C 	0.8546	0.2266	0.9123	0.219
Mof_O 	O 	0.8926	0.2825	0.9087	-0.193
Mof_O 	O 	0.873	0.1627	0.9045	-0.112
Mof_C 	C 	0.3327	0.064	0.65119	-0.185
Mof_H 	H 	0.347	0.1084	0.6384	0.129
Mof_O 	O 	0.2971	0.1913	0.69273	-0.368
Mof_O 	O 	0.2362	0.1308	0.74459	-0.359
Mof_C 	C 	0.2741	0.135	0.7106	0.303
Mof_C 	C 	0.2908	0.0642	0.6889	0.041
Mof_O 	O 	0.3293	0.3608	0.6725	-0.091
Mof_C 	C 	0.4344	0.0459	0.5789	0.064
Mof_H 	H 	0.4143	0.0951	0.5752	0.045
Mof_H 	H 	0.4753	0.0484	0.5994	0.018
Mof_C 	C 	0.4672	0.0171	0.5381	-0.012
Mof_H 	H 	0.3302	0.9558	0.48	-0.018
Mof_H 	H 	0.3411	0.9333	0.5291	0.069
Mof_O 	O 	0.3635	0.8547	0.4878	-0.127
Mof_C 	C 	0.3063	0.8275	0.465	0.196
Mof_C 	C 	0.3166	0.7563	0.451	-0.227
Mof_H 	H 	0.3603	0.7317	0.4576	0.133
Mof_C 	C 	0.2631	0.7215	0.4275	0.067
Mof_C 	C 	0.2006	0.7573	0.417	-0.053
Mof_H 	H 	0.1649	0.7334	0.4003	0.077
Mof_C 	C 	0.1888	0.8272	0.4302	0.034
Mof_C 	C 	0.2407	0.8623	0.4538	-0.153
Mof_H 	H 	0.2325	0.9107	0.4628	0.106
Mof_C 	C 	0.1191	0.8598	0.4171	0.118
Mof_O 	O 	0.0893	0.88	0.4497	-0.094
Mof_O 	O 	0.109	0.859	0.3782	-0.1
Mof_C 	C 	0.3546	0.7266	0.4123	0.219
Mof_O 	O 	0.3926	0.7825	0.4087	-0.193
Mof_O 	O 	0.373	0.6627	0.4045	-0.112
Mof_C 	C 	0.564	0.8327	0.84881	-0.185
Mof_H 	H 	0.6084	0.847	0.8616	0.129
Mof_O 	O 	0.6913	0.7971	0.80727	-0.368
Mof_O 	O 	0.6308	0.7362	0.75541	-0.359
Mof_C 	C 	0.635	0.7741	0.7894	0.303
Mof_C 	C 	0.5642	0.7908	0.8111	0.041
Mof_O 	O 	0.8608	0.8293	0.8275	-0.09
Mof_C 	C 	0.5459	0.9344	0.9211	0.064
Mof_H 	H 	0.5951	0.9143	0.9248	0.045
Mof_H 	H 	0.5484	0.9753	0.9006	0.018
Mof_C 	C 	0.5171	0.9672	0.9619	-0.012
Mof_H 	H 	0.4558	0.8302	0.02	-0.019
Mof_H 	H 	0.4333	0.8411	0.9709	0.069
Mof_O 	O 	0.3547	0.8635	0.0122	-0.129
Mof_C 	C 	0.3275	0.8063	0.035	0.196
Mof_C 	C 	0.2563	0.8166	0.049	-0.228
Mof_H 	H 	0.2317	0.8603	0.0424	0.133
Mof_C 	C 	0.2215	0.7631	0.0725	0.067
Mof_C 	C 	0.2573	0.7006	0.083	-0.053
Mof_H 	H 	0.2334	0.6649	0.0997	0.077
Mof_C 	C 	0.3272	0.6888	0.0698	0.034
Mof_C 	C 	0.3623	0.7407	0.0462	-0.153
Mof_H 	H 	0.4107	0.7325	0.0372	0.106
Mof_C 	C 	0.3598	0.6191	0.0829	0.118
Mof_O 	O 	0.38	0.5893	0.0503	-0.094
Mof_O 	O 	0.359	0.609	0.1218	-0.1
Mof_C 	C 	0.2266	0.8546	0.0877	0.219
Mof_O 	O 	0.2825	0.8926	0.0913	-0.193
Mof_O 	O 	0.1627	0.873	0.0955	-0.112
Mof_C 	C 	0.064	0.3327	0.34881	-0.185
Mof_H 	H 	0.1084	0.347	0.3616	0.129
Mof_O 	O 	0.1913	0.2971	0.30727	-0.368
Mof_O 	O 	0.1308	0.2362	0.25541	-0.359
Mof_C 	C 	0.135	0.2741	0.2894	0.303
Mof_C 	C 	0.0642	0.2908	0.3111	0.041
Mof_O 	O 	0.3608	0.3293	0.3275	-0.091
Mof_C 	C 	0.0459	0.4344	0.4211	0.064
Mof_H 	H 	0.0951	0.4143	0.4248	0.045
Mof_H 	H 	0.0484	0.4753	0.4006	0.018
Mof_C 	C 	0.0171	0.4672	0.4619	-0.012
Mof_H 	H 	0.9558	0.3302	0.52	-0.018
Mof_H 	H 	0.9333	0.3411	0.4709	0.069
Mof_O 	O 	0.8547	0.3635	0.5122	-0.127
Mof_C 	C 	0.8275	0.3063	0.535	0.196
Mof_C 	C 	0.7563	0.3166	0.549	-0.227
Mof_H 	H 	0.7317	0.3603	0.5424	0.133
Mof_C 	C 	0.7215	0.2631	0.5725	0.067
Mof_C 	C 	0.7573	0.2006	0.583	-0.053
Mof_H 	H 	0.7334	0.1649	0.5997	0.077
Mof_C 	C 	0.8272	0.1888	0.5698	0.034
Mof_C 	C 	0.8623	0.2407	0.5462	-0.153
Mof_H 	H 	0.9107	0.2325	0.5372	0.106
Mof_C 	C 	0.8598	0.1191	0.5829	0.118
Mof_O 	O 	0.88	0.0893	0.5503	-0.094
Mof_O 	O 	0.859	0.109	0.6218	-0.1
Mof_C 	C 	0.7266	0.3546	0.5877	0.219
Mof_O 	O 	0.7825	0.3926	0.5913	-0.193
Mof_O 	O 	0.6627	0.373	0.5955	-0.112
Mof_C 	C 	0.436	0.1673	0.84881	-0.185
Mof_H 	H 	0.3916	0.153	0.8616	0.129
Mof_O 	O 	0.3087	0.2029	0.80727	-0.368
Mof_O 	O 	0.3692	0.2638	0.75541	-0.359
Mof_C 	C 	0.365	0.2259	0.7894	0.303
Mof_C 	C 	0.4358	0.2092	0.8111	0.041
Mof_O 	O 	0.1392	0.1707	0.8275	-0.091
Mof_C 	C 	0.4541	0.0656	0.9211	0.064
Mof_H 	H 	0.4049	0.0857	0.9248	0.045
Mof_H 	H 	0.4516	0.0247	0.9006	0.018
Mof_C 	C 	0.4829	0.0328	0.9619	-0.012
Mof_H 	H 	0.5442	0.1698	0.02	-0.019
Mof_H 	H 	0.5667	0.1589	0.9709	0.069
Mof_O 	O 	0.6453	0.1365	0.0122	-0.129
Mof_C 	C 	0.6725	0.1937	0.035	0.196
Mof_C 	C 	0.7437	0.1834	0.049	-0.228
Mof_H 	H 	0.7683	0.1397	0.0424	0.133
Mof_C 	C 	0.7785	0.2369	0.0725	0.067
Mof_C 	C 	0.7427	0.2994	0.083	-0.053
Mof_H 	H 	0.7666	0.3351	0.0997	0.077
Mof_C 	C 	0.6728	0.3112	0.0698	0.034
Mof_C 	C 	0.6377	0.2593	0.0462	-0.153
Mof_H 	H 	0.5893	0.2675	0.0372	0.106
Mof_C 	C 	0.6402	0.3809	0.0829	0.118
Mof_O 	O 	0.62	0.4107	0.0503	-0.094
Mof_O 	O 	0.641	0.391	0.1218	-0.1
Mof_C 	C 	0.7734	0.1454	0.0877	0.219
Mof_O 	O 	0.7175	0.1074	0.0913	-0.193
Mof_O 	O 	0.8373	0.127	0.0955	-0.112
Mof_C 	C 	0.936	0.6673	0.34881	-0.185
Mof_H 	H 	0.8916	0.653	0.3616	0.129
Mof_O 	O 	0.8087	0.7029	0.30727	-0.368
Mof_O 	O 	0.8692	0.7638	0.25541	-0.359
Mof_C 	C 	0.865	0.7259	0.2894	0.303
Mof_C 	C 	0.9358	0.7092	0.3111	0.041
Mof_O 	O 	0.6392	0.6707	0.3275	-0.09
Mof_C 	C 	0.9541	0.5656	0.4211	0.064
Mof_H 	H 	0.9049	0.5857	0.4248	0.045
Mof_H 	H 	0.9516	0.5247	0.4006	0.018
Mof_C 	C 	0.9829	0.5328	0.4619	-0.013
Mof_H 	H 	0.0442	0.6698	0.52	-0.019
Mof_H 	H 	0.0667	0.6589	0.4709	0.069
Mof_O 	O 	0.1453	0.6365	0.5122	-0.127
Mof_C 	C 	0.1725	0.6937	0.535	0.196
Mof_C 	C 	0.2437	0.6834	0.549	-0.227
Mof_H 	H 	0.2683	0.6397	0.5424	0.133
Mof_C 	C 	0.2785	0.7369	0.5725	0.067
Mof_C 	C 	0.2427	0.7994	0.583	-0.053
Mof_H 	H 	0.2666	0.8351	0.5997	0.077
Mof_C 	C 	0.1728	0.8112	0.5698	0.034
Mof_C 	C 	0.1377	0.7593	0.5462	-0.153
Mof_H 	H 	0.0893	0.7675	0.5372	0.106
Mof_C 	C 	0.1402	0.8809	0.5829	0.118
Mof_O 	O 	0.12	0.9107	0.5503	-0.094
Mof_O 	O 	0.141	0.891	0.6218	-0.1
Mof_C 	C 	0.2734	0.6454	0.5877	0.219
Mof_O 	O 	0.2175	0.6074	0.5913	-0.193
Mof_O 	O 	0.3373	0.627	0.5955	-0.112
Mof_C 	C 	0.8327	0.436	0.84881	-0.185
Mof_H 	H 	0.847	0.3916	0.8616	0.129
Mof_O 	O 	0.7971	0.3087	0.80727	-0.368
Mof_O 	O 	0.7362	0.3692	0.75541	-0.359
Mof_C 	C 	0.7741	0.365	0.7894	0.303
Mof_C 	C 	0.7908	0.4358	0.8111	0.041
Mof_O 	O 	0.8293	0.1392	0.8275	-0.091
Mof_C 	C 	0.9344	0.4541	0.9211	0.064
Mof_H 	H 	0.9143	0.4049	0.9248	0.045
Mof_H 	H 	0.9753	0.4516	0.9006	0.018
Mof_C 	C 	0.9672	0.4829	0.9619	-0.012
Mof_H 	H 	0.8302	0.5442	0.02	-0.019
Mof_H 	H 	0.8411	0.5667	0.9709	0.069
Mof_O 	O 	0.8635	0.6453	0.0122	-0.129
Mof_C 	C 	0.8063	0.6725	0.035	0.196
Mof_C 	C 	0.8166	0.7437	0.049	-0.228
Mof_H 	H 	0.8603	0.7683	0.0424	0.133
Mof_C 	C 	0.7631	0.7785	0.0725	0.067
Mof_C 	C 	0.7006	0.7427	0.083	-0.053
Mof_H 	H 	0.6649	0.7666	0.0997	0.077
Mof_C 	C 	0.6888	0.6728	0.0698	0.034
Mof_C 	C 	0.7407	0.6377	0.0462	-0.153
Mof_H 	H 	0.7325	0.5893	0.0372	0.106
Mof_C 	C 	0.6191	0.6402	0.0829	0.118
Mof_O 	O 	0.5893	0.62	0.0503	-0.094
Mof_O 	O 	0.609	0.641	0.1218	-0.1
Mof_C 	C 	0.8546	0.7734	0.0877	0.219
Mof_O 	O 	0.8926	0.7175	0.0913	-0.193
Mof_O 	O 	0.873	0.8373	0.0955	-0.112
Mof_C 	C 	0.3327	0.936	0.34881	-0.185
Mof_H 	H 	0.347	0.8916	0.3616	0.129
Mof_O 	O 	0.2971	0.8087	0.30727	-0.368
Mof_O 	O 	0.2362	0.8692	0.25541	-0.359
Mof_C 	C 	0.2741	0.865	0.2894	0.303
Mof_C 	C 	0.2908	0.9358	0.3111	0.041
Mof_O 	O 	0.3293	0.6392	0.3275	-0.091
Mof_C 	C 	0.4344	0.9541	0.4211	0.064
Mof_H 	H 	0.4143	0.9049	0.4248	0.045
Mof_H 	H 	0.4753	0.9516	0.4006	0.018
Mof_C 	C 	0.4672	0.9829	0.4619	-0.013
Mof_H 	H 	0.3302	0.0442	0.52	-0.019
Mof_H 	H 	0.3411	0.0667	0.4709	0.069
Mof_O 	O 	0.3635	0.1453	0.5122	-0.127
Mof_C 	C 	0.3063	0.1725	0.535	0.196
Mof_C 	C 	0.3166	0.2437	0.549	-0.227
Mof_H 	H 	0.3603	0.2683	0.5424	0.133
Mof_C 	C 	0.2631	0.2785	0.5725	0.067
Mof_C 	C 	0.2006	0.2427	0.583	-0.053
Mof_H 	H 	0.1649	0.2666	0.5997	0.077
Mof_C 	C 	0.1888	0.1728	0.5698	0.034
Mof_C 	C 	0.2407	0.1377	0.5462	-0.153
Mof_H 	H 	0.2325	0.0893	0.5372	0.106
Mof_C 	C 	0.1191	0.1402	0.5829	0.118
Mof_O 	O 	0.0893	0.12	0.5503	-0.094
Mof_O 	O 	0.109	0.141	0.6218	-0.1
Mof_C 	C 	0.3546	0.2734	0.5877	0.219
Mof_O 	O 	0.3926	0.2175	0.5913	-0.193
Mof_O 	O 	0.373	0.3373	0.5955	-0.112
Mof_C 	C 	0.1673	0.564	0.84881	-0.185
Mof_H 	H 	0.153	0.6084	0.8616	0.129
Mof_O 	O 	0.2029	0.6913	0.80727	-0.368
Mof_O 	O 	0.2638	0.6308	0.75541	-0.359
Mof_C 	C 	0.2259	0.635	0.7894	0.303
Mof_C 	C 	0.2092	0.5642	0.8111	0.041
Mof_O 	O 	0.1707	0.8608	0.8275	-0.09
Mof_C 	C 	0.0656	0.5459	0.9211	0.064
Mof_H 	H 	0.0857	0.5951	0.9248	0.045
Mof_H 	H 	0.0247	0.5484	0.9006	0.018
Mof_C 	C 	0.0328	0.5171	0.9619	-0.012
Mof_H 	H 	0.1698	0.4558	0.02	-0.019
Mof_H 	H 	0.1589	0.4333	0.9709	0.069
Mof_O 	O 	0.1365	0.3547	0.0122	-0.129
Mof_C 	C 	0.1937	0.3275	0.035	0.196
Mof_C 	C 	0.1834	0.2563	0.049	-0.228
Mof_H 	H 	0.1397	0.2317	0.0424	0.133
Mof_C 	C 	0.2369	0.2215	0.0725	0.067
Mof_C 	C 	0.2994	0.2573	0.083	-0.053
Mof_H 	H 	0.3351	0.2334	0.0997	0.077
Mof_C 	C 	0.3112	0.3272	0.0698	0.034
Mof_C 	C 	0.2593	0.3623	0.0462	-0.153
Mof_H 	H 	0.2675	0.4107	0.0372	0.106
Mof_C 	C 	0.3809	0.3598	0.0829	0.118
Mof_O 	O 	0.4107	0.38	0.0503	-0.094
Mof_O 	O 	0.391	0.359	0.1218	-0.1
Mof_C 	C 	0.1454	0.2266	0.0877	0.219
Mof_O 	O 	0.1074	0.2825	0.0913	-0.193
Mof_O 	O 	0.127	0.1627	0.0955	-0.112
Mof_C 	C 	0.6673	0.064	0.34881	-0.185
Mof_H 	H 	0.653	0.1084	0.3616	0.129
Mof_O 	O 	0.7029	0.1913	0.30727	-0.368
Mof_O 	O 	0.7638	0.1308	0.25541	-0.359
Mof_C 	C 	0.7259	0.135	0.2894	0.303
Mof_C 	C 	0.7092	0.0642	0.3111	0.041
Mof_O 	O 	0.6707	0.3608	0.3275	-0.09
Mof_C 	C 	0.5656	0.0459	0.4211	0.064
Mof_H 	H 	0.5857	0.0951	0.4248	0.045
Mof_H 	H 	0.5247	0.0484	0.4006	0.018
Mof_C 	C 	0.5328	0.0171	0.4619	-0.012
Mof_H 	H 	0.6698	0.9558	0.52	-0.018
Mof_H 	H 	0.6589	0.9333	0.4709	0.069
Mof_O 	O 	0.6365	0.8547	0.5122	-0.127
Mof_C 	C 	0.6937	0.8275	0.535	0.196
Mof_C 	C 	0.6834	0.7563	0.549	-0.227
Mof_H 	H 	0.6397	0.7317	0.5424	0.133
Mof_C 	C 	0.7369	0.7215	0.5725	0.067
Mof_C 	C 	0.7994	0.7573	0.583	-0.053
Mof_H 	H 	0.8351	0.7334	0.5997	0.077
Mof_C 	C 	0.8112	0.8272	0.5698	0.034
Mof_C 	C 	0.7593	0.8623	0.5462	-0.153
Mof_H 	H 	0.7675	0.9107	0.5372	0.106
Mof_C 	C 	0.8809	0.8598	0.5829	0.118
Mof_O 	O 	0.9107	0.88	0.5503	-0.094
Mof_O 	O 	0.891	0.859	0.6218	-0.1
Mof_C 	C 	0.6454	0.7266	0.5877	0.219
Mof_O 	O 	0.6074	0.7825	0.5913	-0.193
Mof_O 	O 	0.627	0.6627	0.5955	-0.112
Mof_Cu	Cu	0.78583	0.21417	0.78021	0.931
Mof_Cu	Cu	0.28583	0.71417	0.28021	0.931
Mof_Cu	Cu	0.21417	0.78583	0.78021	0.931
Mof_Cu	Cu	0.71417	0.28583	0.28021	0.931
Mof_Cu	Cu	0.78583	0.78583	0.78021	0.931
Mof_Cu	Cu	0.28583	0.28583	0.28021	0.931
Mof_Cu	Cu	0.21417	0.21417	0.78021	0.931
Mof_Cu	Cu	0.71417	0.71417	0.28021	0.931
Mof_Cu	Cu	0.21417	0.21417	0.21979	0.931
Mof_Cu	Cu	0.71417	0.71417	0.71979	0.931
Mof_Cu	Cu	0.78583	0.78583	0.21979	0.931
Mof_Cu	Cu	0.28583	0.28583	0.71979	0.931
Mof_Cu	Cu	0.21417	0.78583	0.21979	0.931
Mof_Cu	Cu	0.71417	0.28583	0.71979	0.931
Mof_Cu	Cu	0.78583	0.21417	0.21979	0.931
Mof_Cu	Cu	0.28583	0.71417	0.71979	0.931
Mof_C 	C 	0.5	0.1471	0.867	0.263
Mof_O 	O 	0.5	0.1123	0.9048	-0.295
Mof_C 	C 	0.5	0.2281	0.7926	-0.073
Mof_H 	H 	0.5	0.2548	0.7665	0.109
Mof_C 	C 	7.05044e-33	0.6471	0.367	0.262
Mof_O 	O 	7.28868e-33	0.6123	0.4048	-0.295
Mof_C 	C 	1.84418e-33	0.7281	0.2926	-0.074
Mof_H 	H 	1.11543e-32	0.7548	0.2665	0.109
Mof_C 	C 	0.5	0.8529	0.867	0.262
Mof_O 	O 	0.5	0.8877	0.9048	-0.295
Mof_C 	C 	0.5	0.7719	0.7926	-0.073
Mof_H 	H 	0.5	0.7452	0.7665	0.109
Mof_C 	C 	2.31311e-33	0.3529	0.367	0.262
Mof_O 	O 	2.55135e-33	0.3877	0.4048	-0.295
Mof_C 	C 	-2.89314e-33	0.2719	0.2926	-0.074
Mof_H 	H 	1.67968e-33	0.2452	0.2665	0.109
Mof_C 	C 	0.8529	0.5	0.867	0.262
Mof_O 	O 	0.8877	0.5	0.9048	-0.295
Mof_C 	C 	0.7719	0.5	0.7926	-0.073
Mof_H 	H 	0.7452	0.5	0.7665	0.109
Mof_C 	C 	0.3529	4.73733e-33	0.367	0.262
Mof_O 	O 	0.3877	0	0.4048	-0.295
Mof_C 	C 	0.2719	0	0.2926	-0.074
Mof_H 	H 	0.2452	4.73733e-33	0.2665	0.109
Mof_C 	C 	0.1471	0.5	0.867	0.263
Mof_O 	O 	0.1123	0.5	0.9048	-0.295
Mof_C 	C 	0.2281	0.5	0.7926	-0.073
Mof_H 	H 	0.2548	0.5	0.7665	0.109
Mof_C 	C 	0.6471	4.73733e-33	0.367	0.262
Mof_O 	O 	0.6123	0	0.4048	-0.295
Mof_C 	C 	0.7281	0	0.2926	-0.074
Mof_H 	H 	0.7548	4.73733e-33	0.2665	0.109
Mof_C 	C 	0.5	0.1471	0.133	0.263
Mof_O 	O 	0.5	0.1123	0.0952	-0.295
Mof_C 	C 	0.5	0.2281	0.2074	-0.073
Mof_H 	H 	0.5	0.2548	0.2335	0.109
Mof_C 	C 	1.34643e-32	0.6471	0.633	0.262
Mof_O 	O 	1.32261e-32	0.6123	0.5952	-0.295
Mof_C 	C 	4.45857e-33	0.7281	0.7074	-0.074
Mof_H 	H 	1.40977e-32	0.7548	0.7335	0.109
Mof_C 	C 	0.5	0.8529	0.133	0.262
Mof_O 	O 	0.5	0.8877	0.0952	-0.295
Mof_C 	C 	0.5	0.7719	0.2074	-0.073
Mof_H 	H 	0.5	0.7452	0.2335	0.109
Mof_C 	C 	-5.48502e-33	0.3529	0.633	0.262
Mof_O 	O 	3.7514e-33	0.3877	0.5952	-0.295
Mof_C 	C 	-5.01609e-33	0.2719	0.7074	-0.074
Mof_H 	H 	1.40977e-32	0.2452	0.7335	0.109
Mof_C 	C 	0.1471	0.5	0.133	0.263
Mof_O 	O 	0.1123	0.5	0.0952	-0.295
Mof_C 	C 	0.2281	0.5	0.2074	-0.073
Mof_H 	H 	0.2548	0.5	0.2335	0.109
Mof_C 	C 	0.6471	0	0.633	0.262
Mof_O 	O 	0.6123	0	0.5952	-0.295
Mof_C 	C 	0.7281	-9.47466e-33	0.7074	-0.074
Mof_H 	H 	0.7548	9.47466e-33	0.7335	0.109
Mof_C 	C 	0.8529	0.5	0.133	0.262
Mof_O 	O 	0.8877	0.5	0.0952	-0.295
Mof_C 	C 	0.7719	0.5	0.2074	-0.073
Mof_H 	H 	0.7452	0.5	0.2335	0.109
Mof_C 	C 	0.3529	0	0.633	0.262
Mof_O 	O 	0.3877	0	0.5952	-0.295
Mof_C 	C 	0.2719	-9.47466e-33	0.7074	-0.074
Mof_H 	H 	0.2452	9.47466e-33	0.7335	0.109
Mof_C 	C 	0.4645	0.0654	-0	0.017
Mof_C 	C 	0.4293	0.1378	-0	-0.006
Mof_C 	C 	0.9645	0.5654	0.5	0.018
Mof_C 	C 	0.9293	0.6378	0.5	-0.005
Mof_C 	C 	0.5355	0.9346	-0	0.017
Mof_C 	C 	0.5707	0.8622	-0	-0.006
Mof_C 	C 	0.0355	0.4346	0.5	0.017
Mof_C 	C 	0.0707	0.3622	0.5	-0.004
Mof_C 	C 	0.9346	0.4645	-0	0.017
Mof_C 	C 	0.8622	0.4293	-0	-0.006
Mof_C 	C 	0.4346	0.9645	0.5	0.018
Mof_C 	C 	0.3622	0.9293	0.5	-0.005
Mof_C 	C 	0.0654	0.5355	-0	0.017
Mof_C 	C 	0.1378	0.5707	-0	-0.006
Mof_C 	C 	0.5654	0.0355	0.5	0.017
Mof_C 	C 	0.6378	0.0707	0.5	-0.004
Mof_C 	C 	0.5355	0.0654	-0	0.017
Mof_C 	C 	0.5707	0.1378	-0	-0.006
Mof_C 	C 	0.0355	0.5654	0.5	0.017
Mof_C 	C 	0.0707	0.6378	0.5	-0.004
Mof_C 	C 	0.4645	0.9346	-0	0.017
Mof_C 	C 	0.4293	0.8622	-0	-0.006
Mof_C 	C 	0.9645	0.4346	0.5	0.018
Mof_C 	C 	0.9293	0.3622	0.5	-0.005
Mof_C 	C 	0.0654	0.4645	-0	0.017
Mof_C 	C 	0.1378	0.4293	-0	-0.006
Mof_C 	C 	0.5654	0.9645	0.5	0.018
Mof_C 	C 	0.6378	0.9293	0.5	-0.005
Mof_C 	C 	0.9346	0.5355	-0	0.017
Mof_C 	C 	0.8622	0.5707	-0	-0.006
Mof_C 	C 	0.4346	0.0355	0.5	0.017
Mof_C 	C 	0.3622	0.0707	0.5	-0.004
_end
