data_functionalizedCrystal
_audit_creation_method	'EQeq! by Chris Wilmer'
_symmetry_space_group_name_H-M	'P1'
_symmetry_Int_Tables_number	1
_symmetry_cell_setting	triclinic
loop_
_symmetry_equiv_pos_as_xyz
  x,y,z
_cell_length_a	15.46
_cell_length_b	15.46
_cell_length_c	12.475
_cell_angle_alpha	90
_cell_angle_beta	90
_cell_angle_gamma	120
loop_
_atom_site_label
_atom_site_type_symbol
_atom_site_fract_x
_atom_site_fract_y
_atom_site_fract_z
_atom_site_charge
Mof_O 	O 	0.2291	0.4746	0.1383	-0.632
Mof_O 	O 	0.1432	0.5536	0.1353	-0.582
Mof_C 	C 	0.1573	0.4805	0.1105	0.523
Mof_C 	C 	0.0876	0.4032	0.0315	-0.11
Mof_C 	C 	0.1144	0.3378	0.9858	0.171
Mof_H 	H 	0.1746	0.3389	0.0069	-0.021
Mof_C 	C 	0.0534	0.2697	0.9085	-0.025
Mof_C 	C 	0.9658	0.2669	0.8771	-0.016
Mof_H 	H 	0.9242	0.2203	0.8243	-0.001
Mof_O 	O 	0.08	0.2049	0.8632	-0.159
Mof_C 	C 	0.078	0.3071	0.048	-0.242
Mof_H 	H 	0.1303	0.3022	0.0839	0.096
Mof_C 	C 	0.078	0.397	0.048	-0.088
Mof_C 	C 	0.942	0.053	0.926	-0.531
Mof_H 	H 	0.9478	0.9954	0.9449	0.184
Mof_H 	H 	0.8748	0.0314	0.905	0.221
Mof_H 	H 	0.9866	0.0872	0.8675	0.166
Mof_H 	H 	0.983	0.4466	0.0314	0.018
Mof_C 	C 	0.178	0.216	0.878	-0.262
Mof_H 	H 	0.1744	0.2038	0.9535	0.087
Mof_H 	H 	0.1729	0.1595	0.84	0.006
Mof_H 	H 	0.2409	0.2743	0.861	0.074
Mof_H 	H 	0.0309	0.2385	0.7325	0.138
Mof_H 	H 	0.1474	0.287	0.7315	0.273
Mof_H 	H 	0.0794	0.1722	0.7106	0.398
Mof_C 	C 	0.9391	0.3322	0.9228	0.036
Mof_O 	O 	0.5254	0.7545	0.1383	-0.632
Mof_O 	O 	0.4464	0.5896	0.1353	-0.583
Mof_C 	C 	0.5195	0.6768	0.1105	0.522
Mof_C 	C 	0.5968	0.6844	0.0315	-0.115
Mof_C 	C 	0.6622	0.7766	0.9858	0.173
Mof_H 	H 	0.6611	0.8357	0.0069	-0.022
Mof_C 	C 	0.7303	0.7837	0.9085	-0.017
Mof_C 	C 	0.7331	0.6989	0.8771	-0.036
Mof_H 	H 	0.7797	0.7039	0.8243	0.003
Mof_O 	O 	0.7951	0.8751	0.8632	-0.159
Mof_C 	C 	0.6929	0.7709	0.048	-0.245
Mof_H 	H 	0.6978	0.8281	0.0839	0.098
Mof_C 	C 	0.603	0.681	0.048	-0.089
Mof_C 	C 	0.947	0.889	0.926	-0.514
Mof_H 	H 	0.0046	0.9524	0.9449	0.169
Mof_H 	H 	0.9686	0.8434	0.905	0.216
Mof_H 	H 	0.9128	0.8994	0.8675	0.155
Mof_H 	H 	0.5534	0.5364	0.0314	0.011
Mof_C 	C 	0.784	0.962	0.878	-0.257
Mof_H 	H 	0.7962	0.9706	0.9535	0.085
Mof_H 	H 	0.8405	0.0134	0.84	0.003
Mof_H 	H 	0.7257	0.9666	0.861	0.073
Mof_H 	H 	0.7615	0.7924	0.7325	0.126
Mof_H 	H 	0.713	0.8604	0.7315	0.286
Mof_H 	H 	0.8278	0.9072	0.7106	0.411
Mof_C 	C 	0.6678	0.6069	0.9228	0.009
Mof_O 	O 	0.2455	0.7709	0.1383	-0.632
Mof_O 	O 	0.4104	0.8568	0.1353	-0.581
Mof_C 	C 	0.3232	0.8427	0.1105	0.52
Mof_C 	C 	0.3156	0.9124	0.0315	-0.13
Mof_C 	C 	0.2234	0.8856	0.9858	0.19
Mof_H 	H 	0.1643	0.8254	0.0069	-0.026
Mof_C 	C 	0.2163	0.9466	0.9085	-0.024
Mof_C 	C 	0.3011	0.0342	0.8771	-0.031
Mof_H 	H 	0.2961	0.0758	0.8243	-0
Mof_O 	O 	0.1249	0.92	0.8632	-0.152
Mof_C 	C 	0.2291	0.922	0.048	-0.264
Mof_H 	H 	0.1719	0.8697	0.0839	0.103
Mof_C 	C 	0.319	0.922	0.048	-0.091
Mof_C 	C 	0.111	0.058	0.926	-0.526
Mof_H 	H 	0.0476	0.0522	0.9449	0.176
Mof_H 	H 	0.1566	0.1252	0.905	0.218
Mof_H 	H 	0.1006	0.0134	0.8675	0.156
Mof_H 	H 	0.4636	0.017	0.0314	-0.003
Mof_C 	C 	0.038	0.822	0.878	-0.286
Mof_H 	H 	0.0294	0.8256	0.9535	0.091
Mof_H 	H 	0.9866	0.8271	0.84	0.018
Mof_H 	H 	0.0334	0.7591	0.861	0.079
Mof_H 	H 	0.2076	0.9691	0.7325	0.107
Mof_H 	H 	0.1396	0.8526	0.7315	0.292
Mof_H 	H 	0.0928	0.9206	0.7106	0.41
Mof_C 	C 	0.3931	0.0609	0.9228	0.011
Mof_O 	O 	0.2291	0.4746	0.3617	-0.634
Mof_O 	O 	0.1432	0.5536	0.3647	-0.584
Mof_C 	C 	0.1573	0.4805	0.3895	0.523
Mof_C 	C 	0.0876	0.4032	0.4685	-0.08
Mof_C 	C 	0.1144	0.3378	0.5142	0.137
Mof_H 	H 	0.1746	0.3389	0.4931	-0.017
Mof_C 	C 	0.0534	0.2697	0.5915	0.003
Mof_C 	C 	0.9658	0.2669	0.6229	0
Mof_H 	H 	0.9242	0.2203	0.6757	-0.001
Mof_O 	O 	0.08	0.2049	0.6368	-0.15
Mof_C 	C 	0.078	0.3071	0.452	-0.206
Mof_H 	H 	0.1303	0.3022	0.4161	0.085
Mof_C 	C 	0.078	0.397	0.452	-0.08
Mof_C 	C 	0.942	0.053	0.574	-0.542
Mof_H 	H 	0.9478	0.9954	0.5551	0.189
Mof_H 	H 	0.8748	0.0314	0.595	0.224
Mof_H 	H 	0.9866	0.0872	0.6325	0.17
Mof_H 	H 	0.983	0.4466	0.4686	-0.005
Mof_C 	C 	0.178	0.216	0.622	-0.285
Mof_H 	H 	0.1744	0.2038	0.5465	0.098
Mof_H 	H 	0.1729	0.1595	0.66	0.014
Mof_H 	H 	0.2409	0.2743	0.639	0.081
Mof_H 	H 	0.0309	0.2385	0.7675	0.33
Mof_H 	H 	0.1474	0.287	0.7685	0.219
Mof_H 	H 	0.0794	0.1722	0.7894	0.395
Mof_C 	C 	0.9391	0.3322	0.5772	0.048
Mof_O 	O 	0.5254	0.7545	0.3617	-0.634
Mof_O 	O 	0.4464	0.5896	0.3647	-0.583
Mof_C 	C 	0.5195	0.6768	0.3895	0.523
Mof_C 	C 	0.5968	0.6844	0.4685	-0.086
Mof_C 	C 	0.6622	0.7766	0.5142	0.131
Mof_H 	H 	0.6611	0.8357	0.4931	-0.014
Mof_C 	C 	0.7303	0.7837	0.5915	0.011
Mof_C 	C 	0.7331	0.6989	0.6229	-0.009
Mof_H 	H 	0.7797	0.7039	0.6757	0.001
Mof_O 	O 	0.7951	0.8751	0.6368	-0.148
Mof_C 	C 	0.6929	0.7709	0.452	-0.2
Mof_H 	H 	0.6978	0.8281	0.4161	0.084
Mof_C 	C 	0.603	0.681	0.452	-0.081
Mof_C 	C 	0.947	0.889	0.574	-0.517
Mof_H 	H 	0.0046	0.9524	0.5551	0.175
Mof_H 	H 	0.9686	0.8434	0.595	0.217
Mof_H 	H 	0.9128	0.8994	0.6325	0.158
Mof_H 	H 	0.5534	0.5364	0.4686	-0.002
Mof_C 	C 	0.784	0.962	0.622	-0.279
Mof_H 	H 	0.7962	0.9706	0.5465	0.096
Mof_H 	H 	0.8405	0.0134	0.66	0.008
Mof_H 	H 	0.7257	0.9666	0.639	0.08
Mof_H 	H 	0.7615	0.7924	0.7675	0.358
Mof_H 	H 	0.713	0.8604	0.7685	0.221
Mof_H 	H 	0.8278	0.9072	0.7894	0.408
Mof_C 	C 	0.6678	0.6069	0.5772	0.041
Mof_O 	O 	0.2455	0.7709	0.3617	-0.634
Mof_O 	O 	0.4104	0.8568	0.3647	-0.582
Mof_C 	C 	0.3232	0.8427	0.3895	0.523
Mof_C 	C 	0.3156	0.9124	0.4685	-0.089
Mof_C 	C 	0.2234	0.8856	0.5142	0.132
Mof_H 	H 	0.1643	0.8254	0.4931	-0.015
Mof_C 	C 	0.2163	0.9466	0.5915	0.016
Mof_C 	C 	0.3011	0.0342	0.6229	-0.006
Mof_H 	H 	0.2961	0.0758	0.6757	0
Mof_O 	O 	0.1249	0.92	0.6368	-0.14
Mof_C 	C 	0.2291	0.922	0.452	-0.199
Mof_H 	H 	0.1719	0.8697	0.4161	0.083
Mof_C 	C 	0.319	0.922	0.452	-0.08
Mof_C 	C 	0.111	0.058	0.574	-0.524
Mof_H 	H 	0.0476	0.0522	0.5551	0.176
Mof_H 	H 	0.1566	0.1252	0.595	0.218
Mof_H 	H 	0.1006	0.0134	0.6325	0.156
Mof_H 	H 	0.4636	0.017	0.4686	-0.015
Mof_C 	C 	0.038	0.822	0.622	-0.315
Mof_H 	H 	0.0294	0.8256	0.5465	0.106
Mof_H 	H 	0.9866	0.8271	0.66	0.026
Mof_H 	H 	0.0334	0.7591	0.639	0.088
Mof_H 	H 	0.2076	0.9691	0.7675	0.38
Mof_H 	H 	0.1396	0.8526	0.7685	0.215
Mof_H 	H 	0.0928	0.9206	0.7894	0.406
Mof_C 	C 	0.3931	0.0609	0.5772	0.034
Mof_O 	O 	0.4746	0.2291	0.8617	-0.635
Mof_O 	O 	0.5536	0.1432	0.8647	-0.584
Mof_C 	C 	0.4805	0.1573	0.8895	0.525
Mof_C 	C 	0.4032	0.0876	0.9685	-0.068
Mof_C 	C 	0.3378	0.1144	0.0142	0.056
Mof_H 	H 	0.3389	0.1746	0.9931	0.006
Mof_C 	C 	0.2697	0.0534	0.0915	0.008
Mof_C 	C 	0.2669	0.9658	0.1229	0.046
Mof_H 	H 	0.2203	0.9242	0.1757	-0.015
Mof_O 	O 	0.2049	0.08	0.1368	-0.15
Mof_C 	C 	0.3071	0.078	0.952	-0.11
Mof_H 	H 	0.3022	0.1303	0.9161	0.056
Mof_C 	C 	0.397	0.078	0.952	-0.072
Mof_C 	C 	0.053	0.942	0.074	-0.517
Mof_H 	H 	0.9954	0.9478	0.0551	0.184
Mof_H 	H 	0.0314	0.8748	0.095	0.217
Mof_H 	H 	0.0872	0.9866	0.1325	0.163
Mof_H 	H 	0.4466	0.983	0.9686	0.002
Mof_C 	C 	0.216	0.178	0.122	-0.287
Mof_H 	H 	0.2038	0.1744	0.0465	0.101
Mof_H 	H 	0.1595	0.1729	0.16	0.015
Mof_H 	H 	0.2743	0.2409	0.139	0.083
Mof_H 	H 	0.2385	0.0309	0.2675	0.334
Mof_H 	H 	0.287	0.1474	0.2685	0.215
Mof_H 	H 	0.1722	0.0794	0.2894	0.394
Mof_C 	C 	0.3322	0.9391	0.0772	0.103
Mof_O 	O 	0.7545	0.5254	0.8617	-0.634
Mof_O 	O 	0.5896	0.4464	0.8647	-0.584
Mof_C 	C 	0.6768	0.5195	0.8895	0.526
Mof_C 	C 	0.6844	0.5968	0.9685	-0.069
Mof_C 	C 	0.7766	0.6622	0.0142	0.048
Mof_H 	H 	0.8357	0.6611	0.9931	0.009
Mof_C 	C 	0.7837	0.7303	0.0915	0.02
Mof_C 	C 	0.6989	0.7331	0.1229	0.028
Mof_H 	H 	0.7039	0.7797	0.1757	-0.012
Mof_O 	O 	0.8751	0.7951	0.1368	-0.151
Mof_C 	C 	0.7709	0.6929	0.952	-0.101
Mof_H 	H 	0.8281	0.6978	0.9161	0.054
Mof_C 	C 	0.681	0.603	0.952	-0.072
Mof_C 	C 	0.889	0.947	0.074	-0.496
Mof_H 	H 	0.9524	0.0046	0.0551	0.167
Mof_H 	H 	0.8434	0.9686	0.095	0.21
Mof_H 	H 	0.8994	0.9128	0.1325	0.151
Mof_H 	H 	0.5364	0.5534	0.9686	0.006
Mof_C 	C 	0.962	0.784	0.122	-0.28
Mof_H 	H 	0.9706	0.7962	0.0465	0.099
Mof_H 	H 	0.0134	0.8405	0.16	0.011
Mof_H 	H 	0.9666	0.7257	0.139	0.081
Mof_H 	H 	0.7924	0.7615	0.2675	0.329
Mof_H 	H 	0.8604	0.713	0.2685	0.226
Mof_H 	H 	0.9072	0.8278	0.2894	0.407
Mof_C 	C 	0.6069	0.6678	0.0772	0.079
Mof_O 	O 	0.7709	0.2455	0.8617	-0.634
Mof_O 	O 	0.8568	0.4104	0.8647	-0.582
Mof_C 	C 	0.8427	0.3232	0.8895	0.524
Mof_C 	C 	0.9124	0.3156	0.9685	-0.087
Mof_C 	C 	0.8856	0.2234	0.0142	0.069
Mof_H 	H 	0.8254	0.1643	0.9931	0.004
Mof_C 	C 	0.9466	0.2163	0.0915	0.012
Mof_C 	C 	0.0342	0.3011	0.1229	0.025
Mof_H 	H 	0.0758	0.2961	0.1757	-0.013
Mof_O 	O 	0.92	0.1249	0.1368	-0.145
Mof_C 	C 	0.922	0.2291	0.952	-0.125
Mof_H 	H 	0.8697	0.1719	0.9161	0.061
Mof_C 	C 	0.922	0.319	0.952	-0.076
Mof_C 	C 	0.058	0.111	0.074	-0.511
Mof_H 	H 	0.0522	0.0476	0.0551	0.174
Mof_H 	H 	0.1252	0.1566	0.095	0.213
Mof_H 	H 	0.0134	0.1006	0.1325	0.152
Mof_H 	H 	0.017	0.4636	0.9686	0.001
Mof_C 	C 	0.822	0.038	0.122	-0.311
Mof_H 	H 	0.8256	0.0294	0.0465	0.105
Mof_H 	H 	0.8271	0.9866	0.16	0.027
Mof_H 	H 	0.7591	0.0334	0.139	0.087
Mof_H 	H 	0.9691	0.2076	0.2675	0.293
Mof_H 	H 	0.8526	0.1396	0.2685	0.237
Mof_H 	H 	0.9206	0.0928	0.2894	0.408
Mof_C 	C 	0.0609	0.3931	0.0772	0.074
Mof_O 	O 	0.4746	0.2291	0.6383	-0.634
Mof_O 	O 	0.5536	0.1432	0.6353	-0.584
Mof_C 	C 	0.4805	0.1573	0.6105	0.525
Mof_C 	C 	0.4032	0.0876	0.5315	-0.084
Mof_C 	C 	0.3378	0.1144	0.4858	0.106
Mof_H 	H 	0.3389	0.1746	0.5069	-0.006
Mof_C 	C 	0.2697	0.0534	0.4085	-0.006
Mof_C 	C 	0.2669	0.9658	0.3771	0.019
Mof_H 	H 	0.2203	0.9242	0.3243	-0.013
Mof_O 	O 	0.2049	0.08	0.3632	-0.163
Mof_C 	C 	0.3071	0.078	0.548	-0.162
Mof_H 	H 	0.3022	0.1303	0.5839	0.072
Mof_C 	C 	0.397	0.078	0.548	-0.078
Mof_C 	C 	0.053	0.942	0.426	-0.547
Mof_H 	H 	0.9954	0.9478	0.4449	0.191
Mof_H 	H 	0.0314	0.8748	0.405	0.226
Mof_H 	H 	0.0872	0.9866	0.3675	0.17
Mof_H 	H 	0.4466	0.983	0.5314	-0.005
Mof_C 	C 	0.216	0.178	0.378	-0.262
Mof_H 	H 	0.2038	0.1744	0.4535	0.09
Mof_H 	H 	0.1595	0.1729	0.34	0.006
Mof_H 	H 	0.2743	0.2409	0.361	0.076
Mof_H 	H 	0.2385	0.0309	0.2325	0.128
Mof_H 	H 	0.287	0.1474	0.2315	0.275
Mof_H 	H 	0.1722	0.0794	0.2106	0.396
Mof_C 	C 	0.3322	0.9391	0.4228	0.044
Mof_O 	O 	0.7545	0.5254	0.6383	-0.633
Mof_O 	O 	0.5896	0.4464	0.6353	-0.583
Mof_C 	C 	0.6768	0.5195	0.6105	0.524
Mof_C 	C 	0.6844	0.5968	0.5315	-0.09
Mof_C 	C 	0.7766	0.6622	0.4858	0.099
Mof_H 	H 	0.8357	0.6611	0.5069	-0.004
Mof_C 	C 	0.7837	0.7303	0.4085	0.001
Mof_C 	C 	0.6989	0.7331	0.3771	0.011
Mof_H 	H 	0.7039	0.7797	0.3243	-0.012
Mof_O 	O 	0.8751	0.7951	0.3632	-0.162
Mof_C 	C 	0.7709	0.6929	0.548	-0.154
Mof_H 	H 	0.8281	0.6978	0.5839	0.07
Mof_C 	C 	0.681	0.603	0.548	-0.079
Mof_C 	C 	0.889	0.947	0.426	-0.521
Mof_H 	H 	0.9524	0.0046	0.4449	0.176
Mof_H 	H 	0.8434	0.9686	0.405	0.218
Mof_H 	H 	0.8994	0.9128	0.3675	0.158
Mof_H 	H 	0.5364	0.5534	0.5314	-0.002
Mof_C 	C 	0.962	0.784	0.378	-0.252
Mof_H 	H 	0.9706	0.7962	0.4535	0.087
Mof_H 	H 	0.0134	0.8405	0.34	-0.001
Mof_H 	H 	0.9666	0.7257	0.361	0.074
Mof_H 	H 	0.7924	0.7615	0.2325	0.15
Mof_H 	H 	0.8604	0.713	0.2315	0.279
Mof_H 	H 	0.9072	0.8278	0.2106	0.409
Mof_C 	C 	0.6069	0.6678	0.4228	0.039
Mof_O 	O 	0.7709	0.2455	0.6383	-0.634
Mof_O 	O 	0.8568	0.4104	0.6353	-0.582
Mof_C 	C 	0.8427	0.3232	0.6105	0.524
Mof_C 	C 	0.9124	0.3156	0.5315	-0.094
Mof_C 	C 	0.8856	0.2234	0.4858	0.102
Mof_H 	H 	0.8254	0.1643	0.5069	-0.005
Mof_C 	C 	0.9466	0.2163	0.4085	0.008
Mof_C 	C 	0.0342	0.3011	0.3771	0.013
Mof_H 	H 	0.0758	0.2961	0.3243	-0.012
Mof_O 	O 	0.92	0.1249	0.3632	-0.152
Mof_C 	C 	0.922	0.2291	0.548	-0.156
Mof_H 	H 	0.8697	0.1719	0.5839	0.071
Mof_C 	C 	0.922	0.319	0.548	-0.078
Mof_C 	C 	0.058	0.111	0.426	-0.524
Mof_H 	H 	0.0522	0.0476	0.4449	0.176
Mof_H 	H 	0.1252	0.1566	0.405	0.218
Mof_H 	H 	0.0134	0.1006	0.3675	0.155
Mof_H 	H 	0.017	0.4636	0.5314	-0.017
Mof_C 	C 	0.822	0.038	0.378	-0.292
Mof_H 	H 	0.8256	0.0294	0.4535	0.098
Mof_H 	H 	0.8271	0.9866	0.34	0.018
Mof_H 	H 	0.7591	0.0334	0.361	0.082
Mof_H 	H 	0.9691	0.2076	0.2325	0.19
Mof_H 	H 	0.8526	0.1396	0.2315	0.269
Mof_H 	H 	0.9206	0.0928	0.2106	0.408
Mof_C 	C 	0.0609	0.3931	0.4228	0.031
Mof_Fe	Fe	0.204	0.663	0.25	2.439
Mof_Co	Co	0.213	0.657	0.25	-0.618
Mof_Fe	Fe	0.337	0.541	0.25	2.439
Mof_Co	Co	0.343	0.556	0.25	-0.618
Mof_Fe	Fe	0.459	0.796	0.25	2.439
Mof_Co	Co	0.444	0.787	0.25	-0.617
Mof_Fe	Fe	0.663	0.204	0.75	2.439
Mof_Co	Co	0.657	0.213	0.75	-0.618
Mof_Fe	Fe	0.541	0.337	0.75	2.439
Mof_Co	Co	0.556	0.343	0.75	-0.617
Mof_Fe	Fe	0.796	0.459	0.75	2.438
Mof_Co	Co	0.787	0.444	0.75	-0.617
Mof_O 	O 	0.33333	0.66667	0.25	-0.858
Mof_O 	O 	0.66667	0.33333	0.75	-0.858
Mof_C 	C 	-0	0.4003	-0	0.006
Mof_H 	H 	-0	0.4644	-0	0.004
Mof_C 	C 	-0	0.403	-0	0.02
Mof_C 	C 	2.20135e-17	0.2231	-0	0.147
Mof_O 	O 	-1.10068e-17	0.1338	-0	-0.044
Mof_C 	C 	0.5997	0.5997	-0	0.009
Mof_H 	H 	0.5356	0.5356	-0	0.005
Mof_C 	C 	0.597	0.597	-0	0.023
Mof_C 	C 	0.7769	0.7769	-0	0.143
Mof_O 	O 	0.8662	0.8662	-0	-0.045
Mof_C 	C 	0.4003	0	-0	0.005
Mof_H 	H 	0.4644	0	-0	0.02
Mof_C 	C 	0.403	0	-0	0.018
Mof_C 	C 	0.2231	0	-0	0.146
Mof_O 	O 	0.1338	0	-0	-0.044
Mof_C 	C 	-5.38257e-18	0.4003	0.5	0.007
Mof_H 	H 	3.86445e-17	0.4644	0.5	0.038
Mof_C 	C 	3.86445e-17	0.403	0.5	0.02
Mof_C 	C 	-5.38257e-18	0.2231	0.5	0.129
Mof_O 	O 	-5.38257e-18	0.1338	0.5	-0.04
Mof_C 	C 	0.5997	0.5997	0.5	0.008
Mof_H 	H 	0.5356	0.5356	0.5	0.023
Mof_C 	C 	0.597	0.597	0.5	0.021
Mof_C 	C 	0.7769	0.7769	0.5	0.135
Mof_O 	O 	0.8662	0.8662	0.5	-0.043
Mof_C 	C 	0.4003	0	0.5	0.007
Mof_H 	H 	0.4644	0	0.5	0.037
Mof_C 	C 	0.403	0	0.5	0.02
Mof_C 	C 	0.2231	0	0.5	0.129
Mof_O 	O 	0.1338	0	0.5	-0.039
Mof_C 	C 	0.086	0.228	0.75	-1.382
Mof_C 	C 	0.772	0.858	0.75	-1.424
Mof_C 	C 	0.142	0.914	0.75	-1.428
Mof_C 	C 	0.228	0.086	0.25	-1.374
Mof_C 	C 	0.858	0.772	0.25	-1.417
Mof_C 	C 	0.914	0.142	0.25	-1.424
_end
