data_functionalizedCrystal
_audit_creation_method	'EQeq! by Chris Wilmer'
_symmetry_space_group_name_H-M	'P1'
_symmetry_Int_Tables_number	1
_symmetry_cell_setting	triclinic
loop_
_symmetry_equiv_pos_as_xyz
  x,y,z
_cell_length_a	6.6018
_cell_length_b	13.8911
_cell_length_c	15.954
_cell_angle_alpha	90
_cell_angle_beta	90
_cell_angle_gamma	91.699
loop_
_atom_site_label
_atom_site_type_symbol
_atom_site_fract_x
_atom_site_fract_y
_atom_site_fract_z
_atom_site_charge
Mof_Al	Al	-0	0	-0	1.611
Mof_Al	Al	0.5	0.5	0.5	7.895
Mof_Al	Al	0.5	0	-0	2.348
Mof_Al	Al	1.48974e-18	0.5	0.5	5.617
Mof_H 	H 	0.23813	0.88517	0.9804	0.465
Mof_H 	H 	0.56779	0.29523	0.69077	-0.058
Mof_H 	H 	0.56265	0.19253	0.80503	0.13
Mof_H 	H 	0.96248	0.29519	0.6919	0.164
Mof_H 	H 	0.95703	0.19248	0.80616	0.349
Mof_H 	H 	0.26187	0.61483	0.4804	1.262
Mof_H 	H 	0.93221	0.20477	0.19077	0.318
Mof_H 	H 	0.93735	0.30747	0.30503	0.165
Mof_H 	H 	0.53752	0.20481	0.1919	0.094
Mof_H 	H 	0.54297	0.30752	0.30616	-0.064
Mof_H 	H 	0.76187	0.11483	0.0196	0.587
Mof_H 	H 	0.43221	0.70477	0.30923	-0.093
Mof_H 	H 	0.43735	0.80747	0.19497	0.083
Mof_H 	H 	0.03752	0.70481	0.3081	-0.328
Mof_H 	H 	0.04297	0.80752	0.19384	-0.145
Mof_H 	H 	0.73813	0.38517	0.5196	1.296
Mof_H 	H 	0.06779	0.79523	0.80923	-0.101
Mof_H 	H 	0.06265	0.69253	0.69497	-0.328
Mof_H 	H 	0.46248	0.79519	0.8081	0.121
Mof_H 	H 	0.45703	0.69248	0.69384	-0.099
Mof_C 	C 	0.2693	0.37623	0.61	1.139
Mof_C 	C 	0.26582	0.30695	0.68157	-0.411
Mof_C 	C 	0.44494	0.27512	0.71437	0.25
Mof_C 	C 	0.25613	0.11969	0.89287	0.44
Mof_C 	C 	0.25931	0.18206	0.81668	0.092
Mof_C 	C 	0.44192	0.21318	0.78237	-0.238
Mof_C 	C 	0.08321	0.27511	0.71506	-0.031
Mof_C 	C 	0.07988	0.21317	0.78306	-0.495
Mof_C 	C 	0.2307	0.12377	0.11	0.428
Mof_C 	C 	0.23418	0.19305	0.18157	0.044
Mof_C 	C 	0.05506	0.22488	0.21437	-0.506
Mof_C 	C 	0.24387	0.38031	0.39287	1.243
Mof_C 	C 	0.24069	0.31794	0.31668	-0.445
Mof_C 	C 	0.05808	0.28682	0.28237	-0.042
Mof_C 	C 	0.41679	0.22489	0.21506	-0.246
Mof_C 	C 	0.42012	0.28683	0.28306	0.241
Mof_C 	C 	0.7307	0.62377	0.39	1.21
Mof_C 	C 	0.73418	0.69305	0.31843	-0.559
Mof_C 	C 	0.55506	0.72488	0.28563	0.292
Mof_C 	C 	0.74387	0.88031	0.10713	0.552
Mof_C 	C 	0.74069	0.81794	0.18332	-0.07
Mof_C 	C 	0.55808	0.78682	0.21763	-0.179
Mof_C 	C 	0.91679	0.72489	0.28494	0.552
Mof_C 	C 	0.92012	0.78683	0.21694	0.089
Mof_C 	C 	0.7693	0.87623	0.89	0.495
Mof_C 	C 	0.76582	0.80695	0.81843	0.016
Mof_C 	C 	0.94494	0.77512	0.78563	0.04
Mof_C 	C 	0.75613	0.61969	0.60713	1.337
Mof_C 	C 	0.75931	0.68206	0.68332	-0.605
Mof_C 	C 	0.94192	0.71318	0.71763	0.622
Mof_C 	C 	0.58321	0.77511	0.78494	-0.221
Mof_C 	C 	0.57988	0.71317	0.71694	0.361
Mof_O 	O 	0.24358	0.94189	0.99311	-0.924
Mof_O 	O 	0.08563	0.09601	0.92261	-0.585
Mof_O 	O 	0.10121	0.40175	0.58183	-1.429
Mof_O 	O 	0.42422	0.09396	0.92074	-0.621
Mof_O 	O 	0.44025	0.4038	0.5827	-1.762
Mof_O 	O 	0.25642	0.55811	0.49311	-3.519
Mof_O 	O 	0.41437	0.40399	0.42261	-1.832
Mof_O 	O 	0.39879	0.09825	0.08183	-0.747
Mof_O 	O 	0.07578	0.40604	0.42074	-1.589
Mof_O 	O 	0.05975	0.0962	0.0827	-0.767
Mof_O 	O 	0.75642	0.05811	0.00689	-1.41
Mof_O 	O 	0.91437	0.90399	0.07739	-0.448
Mof_O 	O 	0.89879	0.59825	0.41817	-1.234
Mof_O 	O 	0.57578	0.90604	0.07926	-0.686
Mof_O 	O 	0.55975	0.5962	0.4173	-1.775
Mof_O 	O 	0.74358	0.44189	0.50689	-3.431
Mof_O 	O 	0.58563	0.59601	0.57739	-1.835
Mof_O 	O 	0.60121	0.90175	0.91817	-0.448
Mof_O 	O 	0.92422	0.59396	0.57926	-1.374
Mof_O 	O 	0.94025	0.9038	0.9173	-0.268
_end
