data_functionalizedCrystal
_audit_creation_method	'EQeq! by Chris Wilmer'
_symmetry_space_group_name_H-M	'P1'
_symmetry_Int_Tables_number	1
_symmetry_cell_setting	triclinic
loop_
_symmetry_equiv_pos_as_xyz
  x,y,z
_cell_length_a	14.8303
_cell_length_b	17.913
_cell_length_c	29.8943
_cell_angle_alpha	96.803
_cell_angle_beta	93.488
_cell_angle_gamma	110.229
loop_
_atom_site_label
_atom_site_type_symbol
_atom_site_fract_x
_atom_site_fract_y
_atom_site_fract_z
_atom_site_charge
Mof_Zn	Zn	0.05321	0.34645	0.90652	1.159
Mof_Zn	Zn	0.72123	0.75351	0.56217	1.158
Mof_Zn	Zn	0.78247	0.34833	0.39967	1.162
Mof_Zn	Zn	0.46019	0.17367	0.21633	1.156
Mof_N 	N 	0.9443	0.2677	0.8592	-0.272
Mof_C 	C 	0.8716	0.2913	0.8455	0.066
Mof_H 	H 	0.8718	0.3426	0.8581	-0.02
Mof_C 	C 	0.7973	0.2432	0.8137	-0.117
Mof_H 	H 	0.7457	0.2606	0.8055	0.066
Mof_C 	C 	0.797	0.1698	0.7936	0.054
Mof_C 	C 	0.8719	0.1469	0.807	-0.129
Mof_H 	H 	0.8746	0.0969	0.7938	0.074
Mof_C 	C 	0.9448	0.1977	0.8405	0.07
Mof_H 	H 	0.9962	0.1809	0.8499	-0.022
Mof_N 	N 	0.6972	0.8334	0.6115	-0.276
Mof_C 	C 	0.7571	0.8683	0.6487	0.074
Mof_H 	H 	0.8112	0.8527	0.6545	-0.007
Mof_C 	C 	0.744	0.9263	0.6793	-0.131
Mof_H 	H 	0.7885	0.9501	0.7057	0.09
Mof_C 	C 	0.6656	0.9497	0.6714	0.043
Mof_C 	C 	0.6025	0.9133	0.6329	-0.122
Mof_H 	H 	0.5474	0.9275	0.6267	0.074
Mof_C 	C 	0.6203	0.8558	0.6034	0.057
Mof_H 	H 	0.5773	0.8314	0.5766	-0.014
Mof_N 	N 	0.2964	0.124	0.738	-0.289
Mof_C 	C 	0.3719	0.1642	0.7671	0.073
Mof_H 	H 	0.3658	0.2013	0.7911	-0.021
Mof_C 	C 	0.4613	0.1551	0.7646	-0.129
Mof_H 	H 	0.5149	0.1856	0.7862	0.071
Mof_C 	C 	0.4702	0.1006	0.7297	0.058
Mof_C 	C 	0.3914	0.0568	0.7012	-0.136
Mof_H 	H 	0.3943	0.0174	0.6776	0.07
Mof_C 	C 	0.3038	0.0703	0.7067	0.078
Mof_H 	H 	0.248	0.0386	0.6866	-0.027
Mof_C 	C 	0.7163	0.1186	0.7596	0.094
Mof_N 	N 	0.7256	0.055	0.7357	-0.143
Mof_C 	C 	0.6533	0.0145	0.7034	0.078
Mof_N 	N 	0.5698	0.0288	0.6978	-0.144
Mof_C 	C 	0.5642	0.0883	0.7267	0.091
Mof_N 	N 	0.6368	0.1386	0.7569	-0.14
Mof_N 	N 	0.5875	0.6606	0.5533	-0.279
Mof_C 	C 	0.5292	0.6344	0.516	0.09
Mof_H 	H 	0.5468	0.66	0.4901	-0.031
Mof_C 	C 	0.4421	0.5703	0.5127	-0.122
Mof_H 	H 	0.4005	0.553	0.4851	0.065
Mof_C 	C 	0.4167	0.5323	0.5495	0.044
Mof_C 	C 	0.4744	0.5605	0.5893	-0.124
Mof_H 	H 	0.4575	0.5369	0.6159	0.079
Mof_C 	C 	0.5609	0.6268	0.5895	0.065
Mof_H 	H 	0.602	0.6479	0.6172	-0.007
Mof_N 	N 	0.9069	0.3805	0.4448	-0.273
Mof_C 	C 	0.9894	0.4405	0.4412	0.083
Mof_H 	H 	0.9894	0.4767	0.4204	0.026
Mof_C 	C 	0.075	0.4507	0.4671	-0.121
Mof_H 	H 	0.133	0.4932	0.4639	0.118
Mof_C 	C 	0.075	0.3993	0.4972	0.058
Mof_C 	C 	0.9883	0.3412	0.5023	-0.125
Mof_H 	H 	0.9855	0.3064	0.5242	0.072
Mof_C 	C 	0.9058	0.3335	0.4757	0.076
Mof_H 	H 	0.8465	0.2932	0.4796	-0.034
Mof_N 	N 	0.1949	0.2174	0.6866	-0.294
Mof_C 	C 	0.2717	0.2839	0.6886	0.088
Mof_H 	H 	0.3169	0.3	0.715	0.001
Mof_C 	C 	0.2894	0.3309	0.6544	-0.113
Mof_H 	H 	0.3462	0.3775	0.6568	0.103
Mof_C 	C 	0.2227	0.3086	0.6169	0.065
Mof_C 	C 	0.1443	0.2399	0.6144	-0.129
Mof_H 	H 	0.098	0.2222	0.5884	0.079
Mof_C 	C 	0.1328	0.1965	0.6497	0.075
Mof_H 	H 	0.0773	0.149	0.6476	-0.026
Mof_C 	C 	0.3239	0.4654	0.5484	0.079
Mof_N 	N 	0.2484	0.463	0.5204	-0.152
Mof_C 	C 	0.1642	0.4042	0.5256	0.078
Mof_N 	N 	0.1521	0.3525	0.5544	-0.138
Mof_C 	C 	0.2326	0.3599	0.5814	0.087
Mof_N 	N 	0.3211	0.4164	0.5782	-0.142
Mof_N 	N 	0.8168	0.2717	0.3525	-0.274
Mof_C 	C 	0.7525	0.2075	0.3283	0.073
Mof_H 	H 	0.6878	0.1909	0.3357	-0.018
Mof_C 	C 	0.7747	0.1623	0.2922	-0.128
Mof_H 	H 	0.7252	0.1179	0.2744	0.075
Mof_C 	C 	0.8682	0.1827	0.2826	0.055
Mof_C 	C 	0.9366	0.2508	0.3081	-0.112
Mof_H 	H 	0.0021	0.2681	0.3017	0.084
Mof_C 	C 	0.9089	0.2927	0.3422	0.063
Mof_H 	H 	0.9566	0.3388	0.3596	0.003
Mof_N 	N 	0.645	0.8763	0.0844	-0.369
Mof_C 	C 	0.7351	0.8753	0.0875	0.05
Mof_H 	H 	0.7498	0.8376	0.0669	-0.029
Mof_C 	C 	0.8075	0.9274	0.1196	-0.115
Mof_H 	H 	0.8712	0.9264	0.1205	0.069
Mof_C 	C 	0.7854	0.982	0.1509	0.029
Mof_C 	C 	0.6908	0.9803	0.1473	-0.109
Mof_H 	H 	0.6728	0.0159	0.1679	0.084
Mof_C 	C 	0.6236	0.9279	0.1142	0.05
Mof_H 	H 	0.5595	0.9281	0.1122	-0.015
Mof_N 	N 	0.315	0.1592	0.2096	-0.272
Mof_C 	C 	0.2507	0.0991	0.1797	0.051
Mof_H 	H 	0.2736	0.0656	0.16	-0.014
Mof_C 	C 	0.1521	0.0847	0.1771	-0.115
Mof_H 	H 	0.1081	0.0426	0.1555	0.069
Mof_C 	C 	0.1192	0.1331	0.2066	0.048
Mof_C 	C 	0.1868	0.195	0.2371	-0.12
Mof_H 	H 	0.1663	0.2289	0.2577	0.071
Mof_C 	C 	0.2828	0.2062	0.2372	0.053
Mof_H 	H 	0.3283	0.2492	0.2577	-0.018
Mof_C 	C 	0.8955	0.1369	0.2455	0.099
Mof_N 	N 	0.9909	0.1597	0.241	-0.137
Mof_C 	C 	0.0126	0.115	0.2086	0.105
Mof_N 	N 	0.9518	0.0562	0.1779	-0.145
Mof_C 	C 	0.8602	0.0418	0.1841	0.089
Mof_N 	N 	0.8272	0.0777	0.2185	-0.143
Mof_N 	N 	0.5136	0.2451	0.1675	-0.272
Mof_C 	C 	0.5858	0.2322	0.145	0.063
Mof_H 	H 	0.6098	0.1917	0.1521	-0.009
Mof_C 	C 	0.6236	0.2775	0.1122	-0.105
Mof_H 	H 	0.6716	0.267	0.0955	0.087
Mof_C 	C 	0.591	0.3393	0.1034	0.054
Mof_C 	C 	0.5172	0.3495	0.1257	-0.132
Mof_H 	H 	0.4915	0.3892	0.119	0.075
Mof_C 	C 	0.4814	0.3032	0.157	0.076
Mof_H 	H 	0.431	0.3116	0.1726	-0.019
Mof_N 	N 	0.9631	0.3815	0.9487	-0.269
Mof_C 	C 	0.9396	0.4471	0.9439	0.059
Mof_H 	H 	0.9738	0.4836	0.9249	-0.01
Mof_C 	C 	0.8674	0.4624	0.9661	-0.12
Mof_H 	H 	0.8522	0.5088	0.9621	0.067
Mof_C 	C 	0.818	0.4109	0.9937	0.05
Mof_C 	C 	0.8437	0.344	0.9996	-0.113
Mof_H 	H 	0.8118	0.3075	0.0192	0.089
Mof_C 	C 	0.9165	0.3325	0.9763	0.072
Mof_H 	H 	0.9341	0.2873	0.9803	-0.014
Mof_N 	N 	0.5765	0.7066	0.0268	-0.369
Mof_C 	C 	0.5612	0.668	0.0613	0.096
Mof_H 	H 	0.5341	0.6888	0.0856	-0.084
Mof_C 	C 	0.5813	0.5984	0.0655	-0.149
Mof_H 	H 	0.57	0.5728	0.0917	0.092
Mof_C 	C 	0.6185	0.5692	0.029	0.077
Mof_C 	C 	0.6339	0.6077	0.9931	-0.15
Mof_H 	H 	0.6602	0.5882	0.968	0.083
Mof_C 	C 	0.6107	0.677	0.9926	0.106
Mof_H 	H 	0.6201	0.7034	0.9665	-0.051
Mof_C 	C 	0.6328	0.3912	0.0699	0.091
Mof_N 	N 	0.7007	0.3736	0.0472	-0.137
Mof_C 	C 	0.7376	0.4227	0.0178	0.089
Mof_N 	N 	0.7127	0.485	0.009	-0.149
Mof_C 	C 	0.6459	0.4963	0.0343	0.083
Mof_N 	N 	0.6033	0.4508	0.0644	-0.14
Mof_I 	I 	0.1264	0.2753	0.9489	-0.053
Mof_I 	I 	0.1354	0.4712	0.86699	-0.216
Mof_I 	I 	0.7413	0.8197	0.49058	-0.212
Mof_I 	I 	0.8387	0.6986	0.60065	-0.174
Mof_Zn	Zn	0.1782	0.1599	0.7431	0.61
Mof_I 	I 	0.21307	0.26641	0.81186	-0.455
Mof_I 	I 	0.02177	0.04208	0.72234	0.042
Mof_I 	I 	0.7874	0.46444	0.35854	-0.147
Mof_I 	I 	0.6405	0.2611	0.43751	-0.232
Mof_Zn	Zn	0.5633	0.8217	0.0201	1.508
Mof_I 	I 	0.3964	0.8021	0.0369	-0.124
Mof_I 	I 	0.6505	0.8849	0.9518	0.635
Mof_I 	I 	0.5302	0.265	0.29443	-0.293
Mof_I 	I 	0.4796	0.0452	0.1911	-0.046
Mof_I 	I 	0.1221	0.2541	0.9519	-0.313
Mof_I 	I 	0.1433	0.4608	0.8692	-0.107
Mof_I 	I 	0.7426	0.8113	0.49057	-0.166
Mof_I 	I 	0.8404	0.7033	0.60189	-0.16
Mof_Zn	Zn	0.1657	0.1418	0.7339	0.611
Mof_I 	I 	0.1833	0.2314	0.8108	0.041
Mof_I 	I 	0.0183	0.0151	0.709	-0.43
Mof_I 	I 	0.8062	0.4665	0.3567	-0.163
Mof_I 	I 	0.6477	0.2715	0.4367	-0.125
Mof_Zn	Zn	0.543	0.8096	0.0276	-0.681
Mof_I 	I 	0.3839	0.7797	0.066	-0.563
Mof_I 	I 	0.5904	0.8765	0.96098	-0.942
Mof_I 	I 	0.5284	0.2428	0.2909	-0.072
Mof_I 	I 	0.4716	0.0288	0.1834	-0.275
Mof_Zn	Zn	0.5294	0.7968	0.0474	1.159
Mof_I 	I 	0.3784	0.7521	0.0958	0.18
Mof_I 	I 	0.5295	0.8586	0.9786	-0.318
Mof_Zn	Zn	0.94679	0.65355	0.09348	1.158
Mof_Zn	Zn	0.27877	0.24649	0.43783	1.157
Mof_Zn	Zn	0.21753	0.65167	0.60033	1.161
Mof_Zn	Zn	0.53981	0.82633	0.78367	1.155
Mof_N 	N 	0.0557	0.7323	0.1408	-0.273
Mof_C 	C 	0.1284	0.7087	0.1545	0.065
Mof_H 	H 	0.1282	0.6574	0.1419	-0.02
Mof_C 	C 	0.2027	0.7568	0.1863	-0.117
Mof_H 	H 	0.2543	0.7394	0.1945	0.066
Mof_C 	C 	0.203	0.8302	0.2064	0.054
Mof_C 	C 	0.1281	0.8531	0.193	-0.129
Mof_H 	H 	0.1254	0.9031	0.2062	0.074
Mof_C 	C 	0.0552	0.8023	0.1595	0.07
Mof_H 	H 	0.0038	0.8191	0.1501	-0.022
Mof_N 	N 	0.3028	0.1666	0.3885	-0.276
Mof_C 	C 	0.2429	0.1317	0.3513	0.074
Mof_H 	H 	0.1888	0.1473	0.3455	-0.007
Mof_C 	C 	0.256	0.0737	0.3207	-0.131
Mof_H 	H 	0.2115	0.0499	0.2943	0.09
Mof_C 	C 	0.3344	0.0503	0.3286	0.043
Mof_C 	C 	0.3975	0.0867	0.3671	-0.122
Mof_H 	H 	0.4526	0.0725	0.3733	0.074
Mof_C 	C 	0.3797	0.1442	0.3966	0.057
Mof_H 	H 	0.4227	0.1686	0.4234	-0.014
Mof_N 	N 	0.7036	0.876	0.262	-0.289
Mof_C 	C 	0.6281	0.8358	0.2329	0.073
Mof_H 	H 	0.6342	0.7987	0.2089	-0.021
Mof_C 	C 	0.5387	0.8449	0.2354	-0.129
Mof_H 	H 	0.4851	0.8144	0.2138	0.071
Mof_C 	C 	0.5298	0.8994	0.2703	0.058
Mof_C 	C 	0.6086	0.9432	0.2988	-0.136
Mof_H 	H 	0.6057	0.9826	0.3224	0.07
Mof_C 	C 	0.6962	0.9297	0.2933	0.078
Mof_H 	H 	0.752	0.9614	0.3134	-0.027
Mof_C 	C 	0.2837	0.8814	0.2404	0.094
Mof_N 	N 	0.2744	0.945	0.2643	-0.143
Mof_C 	C 	0.3467	0.9855	0.2966	0.078
Mof_N 	N 	0.4302	0.9712	0.3022	-0.144
Mof_C 	C 	0.4358	0.9117	0.2733	0.091
Mof_N 	N 	0.3632	0.8614	0.2431	-0.14
Mof_N 	N 	0.4125	0.3394	0.4467	-0.279
Mof_C 	C 	0.4708	0.3656	0.484	0.09
Mof_H 	H 	0.4532	0.34	0.5099	-0.031
Mof_C 	C 	0.5579	0.4297	0.4873	-0.122
Mof_H 	H 	0.5995	0.447	0.5149	0.065
Mof_C 	C 	0.5833	0.4677	0.4505	0.044
Mof_C 	C 	0.5256	0.4395	0.4107	-0.124
Mof_H 	H 	0.5425	0.4631	0.3841	0.079
Mof_C 	C 	0.4391	0.3732	0.4105	0.065
Mof_H 	H 	0.398	0.3521	0.3828	-0.007
Mof_N 	N 	0.0931	0.6195	0.5552	-0.273
Mof_C 	C 	0.0106	0.5595	0.5588	0.083
Mof_H 	H 	0.0106	0.5233	0.5796	0.026
Mof_C 	C 	0.925	0.5493	0.5329	-0.121
Mof_H 	H 	0.867	0.5068	0.5361	0.118
Mof_C 	C 	0.925	0.6007	0.5028	0.058
Mof_C 	C 	0.0117	0.6588	0.4977	-0.125
Mof_H 	H 	0.0145	0.6936	0.4758	0.072
Mof_C 	C 	0.0942	0.6665	0.5243	0.076
Mof_H 	H 	0.1535	0.7068	0.5204	-0.034
Mof_N 	N 	0.8051	0.7826	0.3134	-0.294
Mof_C 	C 	0.7283	0.7161	0.3114	0.088
Mof_H 	H 	0.6831	0.7	0.285	0.001
Mof_C 	C 	0.7106	0.6691	0.3456	-0.113
Mof_H 	H 	0.6538	0.6225	0.3432	0.103
Mof_C 	C 	0.7773	0.6914	0.3831	0.065
Mof_C 	C 	0.8557	0.7601	0.3856	-0.129
Mof_H 	H 	0.902	0.7778	0.4116	0.079
Mof_C 	C 	0.8672	0.8035	0.3503	0.075
Mof_H 	H 	0.9227	0.851	0.3524	-0.026
Mof_C 	C 	0.6761	0.5346	0.4516	0.079
Mof_N 	N 	0.7516	0.537	0.4796	-0.152
Mof_C 	C 	0.8358	0.5958	0.4744	0.078
Mof_N 	N 	0.8479	0.6475	0.4456	-0.138
Mof_C 	C 	0.7674	0.6401	0.4186	0.087
Mof_N 	N 	0.6789	0.5836	0.4218	-0.142
Mof_N 	N 	0.1832	0.7283	0.6475	-0.274
Mof_C 	C 	0.2475	0.7925	0.6717	0.073
Mof_H 	H 	0.3122	0.8091	0.6643	-0.018
Mof_C 	C 	0.2253	0.8377	0.7078	-0.128
Mof_H 	H 	0.2748	0.8821	0.7256	0.075
Mof_C 	C 	0.1318	0.8173	0.7174	0.055
Mof_C 	C 	0.0634	0.7492	0.6919	-0.112
Mof_H 	H 	0.9979	0.7319	0.6983	0.084
Mof_C 	C 	0.0911	0.7073	0.6578	0.063
Mof_H 	H 	0.0434	0.6612	0.6404	0.003
Mof_N 	N 	0.355	0.1237	0.9156	-0.369
Mof_C 	C 	0.2649	0.1247	0.9125	0.05
Mof_H 	H 	0.2502	0.1624	0.9331	-0.029
Mof_C 	C 	0.1925	0.0726	0.8804	-0.115
Mof_H 	H 	0.1288	0.0736	0.8795	0.069
Mof_C 	C 	0.2146	0.018	0.8491	0.029
Mof_C 	C 	0.3092	0.0197	0.8527	-0.109
Mof_H 	H 	0.3272	0.9841	0.8321	0.084
Mof_C 	C 	0.3764	0.0721	0.8858	0.05
Mof_H 	H 	0.4405	0.0719	0.8878	-0.015
Mof_N 	N 	0.685	0.8408	0.7904	-0.272
Mof_C 	C 	0.7493	0.9009	0.8203	0.051
Mof_H 	H 	0.7264	0.9344	0.84	-0.014
Mof_C 	C 	0.8479	0.9153	0.8229	-0.115
Mof_H 	H 	0.8919	0.9574	0.8445	0.069
Mof_C 	C 	0.8808	0.8669	0.7934	0.048
Mof_C 	C 	0.8132	0.805	0.7629	-0.12
Mof_H 	H 	0.8337	0.7711	0.7423	0.071
Mof_C 	C 	0.7172	0.7938	0.7628	0.053
Mof_H 	H 	0.6717	0.7508	0.7423	-0.018
Mof_C 	C 	0.1045	0.8631	0.7545	0.099
Mof_N 	N 	0.0091	0.8403	0.759	-0.137
Mof_C 	C 	0.9874	0.885	0.7914	0.105
Mof_N 	N 	0.0482	0.9438	0.8221	-0.145
Mof_C 	C 	0.1398	0.9582	0.8159	0.089
Mof_N 	N 	0.1728	0.9223	0.7815	-0.143
Mof_N 	N 	0.4864	0.7549	0.8325	-0.272
Mof_C 	C 	0.4142	0.7678	0.855	0.063
Mof_H 	H 	0.3902	0.8083	0.8479	-0.009
Mof_C 	C 	0.3764	0.7225	0.8878	-0.105
Mof_H 	H 	0.3284	0.733	0.9045	0.087
Mof_C 	C 	0.409	0.6607	0.8966	0.054
Mof_C 	C 	0.4828	0.6505	0.8743	-0.132
Mof_H 	H 	0.5085	0.6108	0.881	0.075
Mof_C 	C 	0.5186	0.6968	0.843	0.076
Mof_H 	H 	0.569	0.6884	0.8274	-0.019
Mof_N 	N 	0.0369	0.6185	0.0513	-0.269
Mof_C 	C 	0.0604	0.5529	0.0561	0.059
Mof_H 	H 	0.0262	0.5164	0.0751	-0.01
Mof_C 	C 	0.1326	0.5376	0.0339	-0.12
Mof_H 	H 	0.1478	0.4912	0.0379	0.067
Mof_C 	C 	0.182	0.5891	0.0063	0.05
Mof_C 	C 	0.1563	0.656	0.0004	-0.113
Mof_H 	H 	0.1882	0.6925	0.9808	0.089
Mof_C 	C 	0.0835	0.6675	0.0237	0.072
Mof_H 	H 	0.0659	0.7127	0.0197	-0.014
Mof_N 	N 	0.4235	0.2934	0.9732	-0.369
Mof_C 	C 	0.4388	0.332	0.9387	0.096
Mof_H 	H 	0.4659	0.3112	0.9144	-0.084
Mof_C 	C 	0.4187	0.4016	0.9345	-0.149
Mof_H 	H 	0.43	0.4272	0.9083	0.092
Mof_C 	C 	0.3815	0.4308	0.971	0.077
Mof_C 	C 	0.3661	0.3923	0.0069	-0.15
Mof_H 	H 	0.3398	0.4118	0.032	0.083
Mof_C 	C 	0.3893	0.323	0.0074	0.106
Mof_H 	H 	0.3799	0.2966	0.0335	-0.051
Mof_C 	C 	0.3672	0.6088	0.9301	0.091
Mof_N 	N 	0.2993	0.6264	0.9528	-0.137
Mof_C 	C 	0.2624	0.5773	0.9822	0.089
Mof_N 	N 	0.2873	0.515	0.991	-0.149
Mof_C 	C 	0.3541	0.5037	0.9657	0.083
Mof_N 	N 	0.3967	0.5492	0.9356	-0.14
Mof_I 	I 	0.8736	0.7247	0.0511	-0.053
Mof_I 	I 	0.8646	0.5288	0.13301	-0.216
Mof_I 	I 	0.2587	0.1803	0.50942	-0.212
Mof_I 	I 	0.1613	0.3014	0.39935	-0.174
Mof_Zn	Zn	0.8218	0.8401	0.2569	0.61
Mof_I 	I 	0.78693	0.73359	0.18814	-0.455
Mof_I 	I 	0.97823	0.95792	0.27766	0.042
Mof_I 	I 	0.2126	0.53556	0.64146	-0.147
Mof_I 	I 	0.3595	0.7389	0.56249	-0.232
Mof_Zn	Zn	0.4367	0.1783	0.9799	1.508
Mof_I 	I 	0.6036	0.1979	0.9631	-0.124
Mof_I 	I 	0.3495	0.1151	0.0482	0.635
Mof_I 	I 	0.4698	0.735	0.70557	-0.293
Mof_I 	I 	0.5204	0.9548	0.8089	-0.046
Mof_I 	I 	0.8779	0.7459	0.0481	-0.313
Mof_I 	I 	0.8567	0.5392	0.1308	-0.107
Mof_I 	I 	0.2574	0.1887	0.50943	-0.166
Mof_I 	I 	0.1596	0.2967	0.39811	-0.16
Mof_Zn	Zn	0.8343	0.8582	0.2661	0.611
Mof_I 	I 	0.8167	0.7686	0.1892	0.041
Mof_I 	I 	0.9817	0.9849	0.291	-0.43
Mof_I 	I 	0.1938	0.5335	0.6433	-0.163
Mof_I 	I 	0.3523	0.7285	0.5633	-0.125
Mof_Zn	Zn	0.457	0.1904	0.9724	-0.681
Mof_I 	I 	0.6161	0.2203	0.934	-0.563
Mof_I 	I 	0.4096	0.1235	0.03902	-0.942
Mof_I 	I 	0.4716	0.7572	0.7091	-0.072
Mof_I 	I 	0.5284	0.9712	0.8166	-0.275
Mof_Zn	Zn	0.4706	0.2032	0.9526	1.159
Mof_I 	I 	0.6216	0.2479	0.9042	0.18
Mof_I 	I 	0.4705	0.1414	0.0214	-0.318
Mof_C 	C 	0.397	0.517	0.2894	1.291
Mof_C 	C 	0.44	0.598	0.3237	4.195
Mof_H 	H 	0.5083	0.6364	0.3271	-1.335
Mof_C 	C 	0.383	0.55	0.3645	-0.006
Mof_H 	H 	0.4111	0.5521	0.3961	-0.071
Mof_C 	C 	0.348	0.476	0.326	-0.188
Mof_H 	H 	0.3456	0.4213	0.331	-0.538
Mof_C 	C 	0.253	0.494	0.3113	0.681
Mof_H 	H 	0.1847	0.4551	0.3081	-0.188
Mof_C 	C 	0.302	0.54	0.2761	-0.138
Mof_H 	H 	0.2721	0.5365	0.2446	0.078
Mof_C 	C 	0.35	0.619	0.3097	0.277
Mof_H 	H 	0.3519	0.6731	0.3037	-0.107
Mof_C 	C 	0.302	0.576	0.35	-1.977
Mof_C 	C 	0.452	0.49	0.2556	0.645
Mof_O 	O 	0.5509	0.5215	0.2645	-0.291
Mof_O 	O 	0.422	0.4371	0.223	-0.502
Mof_C 	C 	0.6202	0.4995	0.236	0.387
Mof_H 	H 	0.6866	0.5302	0.2495	-0.082
Mof_H 	H 	0.6079	0.4418	0.2344	-0.072
Mof_H 	H 	0.6113	0.5122	0.2054	-0.056
Mof_C 	C 	0.269	0.597	0.3896	5.446
Mof_O 	O 	0.273	0.677	0.3918	1.198
Mof_O 	O 	0.187	0.565	0.3988	-1.701
Mof_C 	C 	0.221	0.707	0.4269	-1.03
Mof_H 	H 	0.2297	0.7627	0.4248	0.264
Mof_H 	H 	0.1523	0.6736	0.4219	0.38
Mof_H 	H 	0.2477	0.7029	0.4571	0.34
Mof_C 	C 	0.413	0.003	0.536	0.974
Mof_H 	H 	0.4513	0.9708	0.5465	-0.256
Mof_H 	H 	0.3446	0.9664	0.5296	-0.22
Mof_C 	C 	0.45	0.038	0.4933	-0.613
Mof_H 	H 	0.4359	0.0867	0.4899	0.203
Mof_H 	H 	0.4233	0.9976	0.4656	0.277
Mof_C 	C 	0.56	0.057	0.5041	0.568
Mof_H 	H 	0.581	0.0153	0.4875	-0.442
Mof_H 	H 	0.5987	0.1102	0.4966	-0.137
Mof_C 	C 	0.57	0.056	0.556	-0.55
Mof_H 	H 	0.639	0.0687	0.5668	0.153
Mof_H 	H 	0.5333	0.0009	0.5621	0.185
Mof_C 	C 	0.532	0.117	0.5815	-0.106
Mof_H 	H 	0.557	0.1302	0.614	0.026
Mof_H 	H 	0.5494	0.1677	0.568	0.611
Mof_C 	C 	0.422	0.072	0.5749	-0.546
Mof_H 	H 	0.3863	0.1062	0.5654	0.194
Mof_H 	H 	0.3976	0.051	0.6028	0.17
Mof_C 	C 	0.355	0.672	0.415	2.622
Mof_H 	H 	0.365	0.6528	0.4437	-0.818
Mof_H 	H 	0.2897	0.6395	0.3997	-4.295
Mof_C 	C 	0.433	0.668	0.384	-1.149
Mof_H 	H 	0.4065	0.6209	0.3594	-0.111
Mof_H 	H 	0.4888	0.6624	0.4014	0.328
Mof_C 	C 	0.466	0.747	0.3629	0.401
Mof_H 	H 	0.5038	0.7414	0.3372	-0.095
Mof_H 	H 	0.4089	0.7577	0.351	-0.157
Mof_C 	C 	0.529	0.818	0.398	-0.114
Mof_H 	H 	0.5943	0.8165	0.4041	0.052
Mof_H 	H 	0.535	0.8699	0.3873	0.106
Mof_C 	C 	0.478	0.811	0.441	-0.734
Mof_H 	H 	0.4869	0.8653	0.4575	0.087
Mof_H 	H 	0.503	0.7817	0.4615	0.26
Mof_C 	C 	0.369	0.764	0.423	-1.232
Mof_H 	H 	0.3525	0.7812	0.3944	0.313
Mof_H 	H 	0.327	0.7738	0.4456	0.396
Mof_C 	C 	0.369	0.531	0.28	1.564
Mof_H 	H 	0.2994	0.5222	0.2785	-0.454
Mof_H 	H 	0.4015	0.5669	0.3087	-3.201
Mof_C 	C 	0.383	0.449	0.28	-3.2
Mof_H 	H 	0.3488	0.4118	0.2525	1.023
Mof_H 	H 	0.3578	0.4247	0.3069	1.367
Mof_C 	C 	0.493	0.466	0.282	1.012
Mof_H 	H 	0.527	0.5059	0.309	-0.304
Mof_H 	H 	0.5054	0.416	0.2847	-0.239
Mof_C 	C 	0.535	0.499	0.239	-0.774
Mof_H 	H 	0.6052	0.5095	0.2413	0.065
Mof_H 	H 	0.5035	0.459	0.2119	0.344
Mof_C 	C 	0.517	0.577	0.235	0.705
Mof_H 	H 	0.56	0.6207	0.2584	-0.169
Mof_H 	H 	0.5336	0.5934	0.2048	-0.174
Mof_C 	C 	0.412	0.569	0.24	-1.516
Mof_H 	H 	0.3716	0.5366	0.2115	0.435
Mof_H 	H 	0.4076	0.6233	0.2417	0.447
Mof_C 	C 	0.603	0.483	0.7106	1.291
Mof_C 	C 	0.56	0.402	0.6763	4.195
Mof_H 	H 	0.4917	0.3636	0.6729	-1.335
Mof_C 	C 	0.617	0.45	0.6355	-0.006
Mof_H 	H 	0.5889	0.4479	0.6039	-0.071
Mof_C 	C 	0.652	0.524	0.674	-0.188
Mof_H 	H 	0.6544	0.5787	0.669	-0.538
Mof_C 	C 	0.747	0.506	0.6887	0.681
Mof_H 	H 	0.8153	0.5449	0.6919	-0.188
Mof_C 	C 	0.698	0.46	0.7239	-0.138
Mof_H 	H 	0.7279	0.4635	0.7554	0.078
Mof_C 	C 	0.65	0.381	0.6903	0.277
Mof_H 	H 	0.6481	0.3269	0.6963	-0.107
Mof_C 	C 	0.698	0.424	0.65	-1.977
Mof_C 	C 	0.548	0.51	0.7444	0.645
Mof_O 	O 	0.4491	0.4785	0.7355	-0.291
Mof_O 	O 	0.578	0.5629	0.777	-0.502
Mof_C 	C 	0.3798	0.5005	0.764	0.387
Mof_H 	H 	0.3134	0.4698	0.7505	-0.082
Mof_H 	H 	0.3921	0.5582	0.7656	-0.072
Mof_H 	H 	0.3887	0.4878	0.7946	-0.056
Mof_C 	C 	0.731	0.403	0.6104	5.446
Mof_O 	O 	0.727	0.323	0.6082	1.198
Mof_O 	O 	0.813	0.435	0.6012	-1.701
Mof_C 	C 	0.779	0.293	0.5731	-1.03
Mof_H 	H 	0.7703	0.2373	0.5752	0.264
Mof_H 	H 	0.8477	0.3264	0.5781	0.38
Mof_H 	H 	0.7523	0.2971	0.5429	0.34
Mof_C 	C 	0.587	0.997	0.464	0.974
Mof_H 	H 	0.5487	0.0292	0.4535	-0.256
Mof_H 	H 	0.6554	0.0336	0.4704	-0.22
Mof_C 	C 	0.55	0.962	0.5067	-0.613
Mof_H 	H 	0.5641	0.9133	0.5101	0.203
Mof_H 	H 	0.5767	0.0024	0.5344	0.277
Mof_C 	C 	0.44	0.943	0.4959	0.568
Mof_H 	H 	0.419	0.9847	0.5125	-0.442
Mof_H 	H 	0.4013	0.8898	0.5034	-0.137
Mof_C 	C 	0.43	0.944	0.444	-0.55
Mof_H 	H 	0.361	0.9313	0.4332	0.153
Mof_H 	H 	0.4667	0.9991	0.4379	0.185
Mof_C 	C 	0.468	0.883	0.4185	-0.106
Mof_H 	H 	0.443	0.8698	0.386	0.026
Mof_H 	H 	0.4506	0.8323	0.432	0.611
Mof_C 	C 	0.578	0.928	0.4251	-0.546
Mof_H 	H 	0.6137	0.8938	0.4346	0.194
Mof_H 	H 	0.6024	0.949	0.3972	0.17
Mof_C 	C 	0.645	0.328	0.585	2.622
Mof_H 	H 	0.635	0.3472	0.5563	-0.818
Mof_H 	H 	0.7103	0.3605	0.6003	-4.295
Mof_C 	C 	0.567	0.332	0.616	-1.149
Mof_H 	H 	0.5935	0.3791	0.6406	-0.111
Mof_H 	H 	0.5112	0.3376	0.5986	0.328
Mof_C 	C 	0.534	0.253	0.6371	0.401
Mof_H 	H 	0.4962	0.2586	0.6628	-0.095
Mof_H 	H 	0.5911	0.2423	0.649	-0.157
Mof_C 	C 	0.471	0.182	0.602	-0.114
Mof_H 	H 	0.4057	0.1835	0.5959	0.052
Mof_H 	H 	0.465	0.1301	0.6127	0.106
Mof_C 	C 	0.522	0.189	0.559	-0.734
Mof_H 	H 	0.5131	0.1347	0.5425	0.087
Mof_H 	H 	0.497	0.2183	0.5385	0.26
Mof_C 	C 	0.631	0.236	0.577	-1.232
Mof_H 	H 	0.6475	0.2188	0.6056	0.313
Mof_H 	H 	0.673	0.2262	0.5544	0.396
Mof_C 	C 	0.631	0.469	0.72	1.564
Mof_H 	H 	0.7006	0.4778	0.7215	-0.454
Mof_H 	H 	0.5985	0.4331	0.6913	-3.201
Mof_C 	C 	0.617	0.551	0.72	-3.2
Mof_H 	H 	0.6512	0.5882	0.7475	1.023
Mof_H 	H 	0.6422	0.5753	0.6931	1.367
Mof_C 	C 	0.507	0.534	0.718	1.012
Mof_H 	H 	0.473	0.4941	0.691	-0.304
Mof_H 	H 	0.4946	0.584	0.7153	-0.239
Mof_C 	C 	0.465	0.501	0.761	-0.774
Mof_H 	H 	0.3948	0.4905	0.7587	0.065
Mof_H 	H 	0.4965	0.541	0.7881	0.344
Mof_C 	C 	0.483	0.423	0.765	0.705
Mof_H 	H 	0.44	0.3793	0.7416	-0.169
Mof_H 	H 	0.4664	0.4066	0.7952	-0.174
Mof_C 	C 	0.588	0.431	0.76	-1.516
Mof_H 	H 	0.6284	0.4634	0.7885	0.435
Mof_H 	H 	0.5924	0.3767	0.7583	0.447
_end
