data_functionalizedCrystal
_audit_creation_method	'EQeq! by Chris Wilmer'
_symmetry_space_group_name_H-M	'P1'
_symmetry_Int_Tables_number	1
_symmetry_cell_setting	triclinic
loop_
_symmetry_equiv_pos_as_xyz
  x,y,z
_cell_length_a	33.5429
_cell_length_b	34.1738
_cell_length_c	24.3555
_cell_angle_alpha	90
_cell_angle_beta	90
_cell_angle_gamma	90
loop_
_atom_site_label
_atom_site_type_symbol
_atom_site_fract_x
_atom_site_fract_y
_atom_site_fract_z
_atom_site_charge
Mof_Cd	Cd	0.50106	0.31729	0.31878	0.483
Mof_Cd	Cd	0.60792	0.24828	0.5354	0.485
Mof_Mg	Mg	0.55738	0.28181	0.42334	1.479
Mof_O 	O 	0.82349	0.02346	0.7062	-0.427
Mof_O 	O 	0.57188	0.28986	0.5872	-0.289
Mof_O 	O 	0.55421	0.30135	0.5012	-0.482
Mof_O 	O 	0.80656	0.05045	0.7845	-0.237
Mof_O 	O 	0.71386	0.52783	0.5135	-0.291
Mof_O 	O 	0.68868	0.5125	0.5947	-0.481
Mof_O 	O 	0.2986	0.1179	0.5809	-0.263
Mof_O 	O 	0.2904	0.0898	0.5004	-0.242
Mof_O 	O 	0.49831	0.26685	0.4277	-0.476
Mof_O 	O 	0.46114	0.27225	0.353	-0.317
Mof_O 	O 	0.62932	0.21976	0.619	-0.286
Mof_O 	O 	0.6563	0.19973	0.5415	-0.274
Mof_O 	O 	0.36583	0.45343	0.6708	-0.46
Mof_O 	O 	0.3991	0.45859	0.7509	-0.296
Mof_O 	O 	0.53997	0.33752	0.3935	-0.444
Mof_O 	O 	0.55085	0.36645	0.3143	-0.273
Mof_C 	C 	0.4268	0.4189	0.6823	-0.076
Mof_C 	C 	0.4537	0.4026	0.7191	0.018
Mof_H 	H 	0.4517	0.4085	0.7563	0.044
Mof_C 	C 	0.4683	0.2593	0.3996	0.411
Mof_C 	C 	0.4827	0.3782	0.7015	-0.087
Mof_H 	H 	0.5002	0.3673	0.7268	0.066
Mof_C 	C 	0.3076	0.1153	0.5327	0.311
Mof_C 	C 	0.5165	0.3434	0.626	-0.036
Mof_H 	H 	0.5342	0.3322	0.6508	0.066
Mof_C 	C 	0.5511	0.3066	0.5518	0.388
Mof_C 	C 	0.5195	0.3346	0.5713	-0.086
Mof_C 	C 	0.487	0.3692	0.6449	0.029
Mof_C 	C 	0.4293	0.4106	0.6278	-0.038
Mof_H 	H 	0.4111	0.4217	0.6035	0.064
Mof_C 	C 	0.4594	0.3852	0.6075	0.032
Mof_C 	C 	0.4632	0.3762	0.552	-0.09
Mof_H 	H 	0.4452	0.387	0.5272	0.073
Mof_C 	C 	0.4927	0.3517	0.5326	0.014
Mof_H 	H 	0.4951	0.3465	0.4953	0.045
Mof_C 	C 	0.3944	0.4456	0.7022	0.364
Mof_C 	C 	0.7764	0.0735	0.6955	0.409
Mof_C 	C 	0.7786	0.0725	0.6386	0.123
Mof_H 	H 	0.7965	0.0557	0.6216	0.02
Mof_C 	C 	0.7506	0.0979	0.7215	-0.372
Mof_H 	H 	0.7499	0.0987	0.7596	-0.132
Mof_C 	C 	0.755	0.0956	0.6079	0.171
Mof_H 	H 	0.7562	0.0945	0.5698	0.185
Mof_C 	C 	0.7279	0.1219	0.6346	0.285
Mof_C 	C 	0.7025	0.1474	0.6029	0.171
Mof_H 	H 	0.7037	0.147	0.5648	-0.058
Mof_C 	C 	0.6767	0.172	0.6291	-0.025
Mof_C 	C 	0.6729	0.1714	0.6863	-0.045
Mof_H 	H 	0.6544	0.1875	0.7036	0.068
Mof_C 	C 	0.6967	0.147	0.7167	-1.349
Mof_H 	H 	0.6945	0.1467	0.7548	1.378
Mof_C 	C 	0.7246	0.1222	0.6905	0.323
Mof_C 	C 	0.8031	0.048	0.7338	0.254
Mof_C 	C 	0.6527	0.1986	0.593	0.41
Mof_C 	C 	0.6909	0.5084	0.5439	0.383
Mof_C 	C 	0.6639	0.4786	0.5175	-0.089
Mof_C 	C 	0.6384	0.4553	0.5514	0.019
Mof_H 	H 	0.638	0.4594	0.5891	0.039
Mof_C 	C 	0.6151	0.4276	0.5288	-0.092
Mof_H 	H 	0.5994	0.412	0.5514	0.073
Mof_C 	C 	0.6141	0.4218	0.4712	0.031
Mof_C 	C 	0.5881	0.3938	0.4449	-0.036
Mof_H 	H 	0.5724	0.3775	0.4665	0.058
Mof_C 	C 	0.586	0.3908	0.3906	-0.079
Mof_C 	C 	0.5576	0.363	0.3643	0.343
Mof_C 	C 	0.6102	0.4149	0.3572	0.014
Mof_H 	H 	0.6085	0.4128	0.3192	0.046
Mof_C 	C 	0.6361	0.4413	0.3801	-0.086
Mof_H 	H 	0.6523	0.4566	0.3577	0.066
Mof_C 	C 	0.6381	0.4452	0.4367	0.029
Mof_C 	C 	0.6636	0.4732	0.4622	-0.033
Mof_H 	H 	0.6804	0.4882	0.4403	0.062
Mof_C 	C 	0.4362	0.2302	0.4128	-0.064
Mof_C 	C 	0.3776	0.1775	0.4493	0.017
Mof_C 	C 	0.402	0.1965	0.4902	-0.017
Mof_C 	C 	0.3821	0.1858	0.3941	-0.03
Mof_H 	H 	0.3657	0.1737	0.3684	0.033
Mof_C 	C 	0.4106	0.2119	0.3772	0.082
Mof_H 	H 	0.4127	0.2174	0.3399	0.063
Mof_C 	C 	0.348	0.1504	0.4701	0.05
Mof_H 	H 	0.3322	0.1367	0.4452	-0.067
Mof_C 	C 	0.4328	0.2233	0.469	0.039
Mof_H 	H 	0.4502	0.2356	0.4933	-0.085
Mof_C 	C 	0.3431	0.1445	0.5211	-0.075
Mof_C 	C 	0.3956	0.1882	0.5451	-0.124
Mof_H 	H 	0.4114	0.2005	0.5713	0.077
Mof_C 	C 	0.3677	0.1635	0.5616	0.125
Mof_H 	H 	0.3642	0.1583	0.5988	0.018
Mof_C 	C 	0.441	0.2331	0.4952	0.115
Mof_H 	H 	0.4596	0.2477	0.5147	0.047
Mof_C 	C 	0.4392	0.2353	0.4335	-0.093
Mof_C 	C 	0.4132	0.2138	0.4067	0.053
Mof_H 	H 	0.413	0.2142	0.3685	-0.081
Mof_C 	C 	0.385	0.1897	0.4355	-0.013
Mof_C 	C 	0.3872	0.1873	0.492	0.046
Mof_C 	C 	0.4156	0.2104	0.5207	-0.051
Mof_H 	H 	0.4163	0.2092	0.5589	0.015
Mof_C 	C 	0.3594	0.1623	0.5185	0.039
Mof_H 	H 	0.3595	0.1615	0.5566	-0.053
Mof_C 	C 	0.3324	0.1394	0.4914	-0.063
Mof_C 	C 	0.3314	0.1422	0.4334	0.14
Mof_H 	H 	0.3127	0.1277	0.4139	0.022
Mof_C 	C 	0.3574	0.166	0.4053	-0.124
Mof_H 	H 	0.357	0.1667	0.3671	0.055
Mof_C 	C 	0.7704	0.0763	0.723	-0.211
Mof_C 	C 	0.7468	0.0975	0.7609	0.228
Mof_H 	H 	0.7503	0.0939	0.7985	0.016
Mof_C 	C 	0.7193	0.1228	0.7424	0.96
Mof_H 	H 	0.7027	0.1353	0.7674	-1.237
Mof_C 	C 	0.7653	0.0815	0.6667	-0.144
Mof_H 	H 	0.7802	0.0663	0.6425	-0.112
Mof_C 	C 	0.74	0.1073	0.6467	-0.366
Mof_C 	C 	0.7151	0.1305	0.6886	-0.178
Mof_C 	C 	0.6883	0.1565	0.6623	0.642
Mof_H 	H 	0.6719	0.1709	0.6856	0
Mof_C 	C 	0.6833	0.1631	0.6103	-0.481
Mof_C 	C 	0.7095	0.1417	0.5722	0.102
Mof_H 	H 	0.708	0.1466	0.5347	0.052
Mof_C 	C 	0.7351	0.1152	0.591	-0.24
Mof_H 	H 	0.7505	0.1014	0.5658	-0.142
Mof_Cd	Cd	0.50106	0.81729	0.81878	0.484
Mof_Cd	Cd	0.60792	0.74828	0.0354	0.491
Mof_Mg	Mg	0.55738	0.78181	0.92334	1.48
Mof_O 	O 	0.82349	0.52346	0.2062	-0.425
Mof_O 	O 	0.57188	0.78986	0.0872	-0.289
Mof_O 	O 	0.55421	0.80135	0.0012	-0.474
Mof_O 	O 	0.80656	0.55045	0.2845	-0.232
Mof_O 	O 	0.71386	0.02783	0.0135	-0.282
Mof_O 	O 	0.68868	0.0125	0.0947	-0.476
Mof_O 	O 	0.2986	0.6179	0.0809	-0.263
Mof_O 	O 	0.2904	0.5898	0.0004	-0.237
Mof_O 	O 	0.49831	0.76685	0.9277	-0.478
Mof_O 	O 	0.46114	0.77225	0.853	-0.317
Mof_O 	O 	0.62932	0.71976	0.119	-0.286
Mof_O 	O 	0.6563	0.69973	0.0415	-0.271
Mof_O 	O 	0.36583	0.95343	0.1708	-0.459
Mof_O 	O 	0.3991	0.95859	0.2509	-0.294
Mof_O 	O 	0.53997	0.83752	0.8935	-0.446
Mof_O 	O 	0.55085	0.86645	0.8143	-0.274
Mof_C 	C 	0.4268	0.9189	0.1823	-0.069
Mof_C 	C 	0.4537	0.9026	0.2191	0.012
Mof_H 	H 	0.4517	0.9085	0.2563	0.047
Mof_C 	C 	0.4683	0.7593	0.8996	0.417
Mof_C 	C 	0.4827	0.8782	0.2015	-0.08
Mof_H 	H 	0.5002	0.8673	0.2268	0.067
Mof_C 	C 	0.3076	0.6153	0.0327	0.32
Mof_C 	C 	0.5165	0.8434	0.126	-0.023
Mof_H 	H 	0.5342	0.8322	0.1508	0.062
Mof_C 	C 	0.5511	0.8066	0.0518	0.393
Mof_C 	C 	0.5195	0.8346	0.0713	-0.102
Mof_C 	C 	0.487	0.8692	0.1449	0.019
Mof_C 	C 	0.4293	0.9106	0.1278	-0.047
Mof_H 	H 	0.4111	0.9217	0.1035	0.068
Mof_C 	C 	0.4594	0.8852	0.1075	0.047
Mof_C 	C 	0.4632	0.8762	0.052	-0.115
Mof_H 	H 	0.4452	0.887	0.0272	0.085
Mof_C 	C 	0.4927	0.8517	0.0326	0.056
Mof_H 	H 	0.4951	0.8465	0.9953	0.021
Mof_C 	C 	0.3944	0.9456	0.2022	0.362
Mof_C 	C 	0.7764	0.5735	0.1955	0.441
Mof_C 	C 	0.7786	0.5725	0.1386	0.124
Mof_H 	H 	0.7965	0.5557	0.1216	0.02
Mof_C 	C 	0.7506	0.5979	0.2215	-0.398
Mof_H 	H 	0.7499	0.5987	0.2596	-0.137
Mof_C 	C 	0.755	0.5956	0.1079	0.187
Mof_H 	H 	0.7562	0.5945	0.0698	0.195
Mof_C 	C 	0.7279	0.6219	0.1346	0.305
Mof_C 	C 	0.7025	0.6474	0.1029	0.179
Mof_H 	H 	0.7037	0.647	0.0648	-0.056
Mof_C 	C 	0.6767	0.672	0.1291	-0.025
Mof_C 	C 	0.6729	0.6714	0.1863	-0.053
Mof_H 	H 	0.6544	0.6875	0.2036	0.071
Mof_C 	C 	0.6967	0.647	0.2167	-1.43
Mof_H 	H 	0.6945	0.6467	0.2548	1.462
Mof_C 	C 	0.7246	0.6222	0.1905	0.341
Mof_C 	C 	0.8031	0.548	0.2338	0.247
Mof_C 	C 	0.6527	0.6986	0.093	0.416
Mof_C 	C 	0.6909	0.0084	0.0439	0.37
Mof_C 	C 	0.6639	0.9786	0.0175	-0.049
Mof_C 	C 	0.6384	0.9553	0.0514	-0.02
Mof_H 	H 	0.638	0.9594	0.0891	0.053
Mof_C 	C 	0.6151	0.9276	0.0288	-0.04
Mof_H 	H 	0.5994	0.912	0.0514	0.058
Mof_C 	C 	0.6141	0.9218	0.9712	-0.013
Mof_C 	C 	0.5881	0.8938	0.9449	-0.008
Mof_H 	H 	0.5724	0.8775	0.9665	0.045
Mof_C 	C 	0.586	0.8908	0.8906	-0.098
Mof_C 	C 	0.5576	0.863	0.8643	0.35
Mof_C 	C 	0.6102	0.9149	0.8572	0.035
Mof_H 	H 	0.6085	0.9128	0.8192	0.038
Mof_C 	C 	0.6361	0.9413	0.8801	-0.113
Mof_H 	H 	0.6523	0.9566	0.8577	0.075
Mof_C 	C 	0.6381	0.9452	0.9367	0.062
Mof_C 	C 	0.6636	0.9732	0.9622	-0.08
Mof_H 	H 	0.6804	0.9882	0.9403	0.075
Mof_C 	C 	0.4362	0.7302	0.9128	-0.084
Mof_C 	C 	0.3776	0.6775	0.9493	0.015
Mof_C 	C 	0.402	0.6965	0.9902	-0.055
Mof_C 	C 	0.3821	0.6858	0.8941	-0.038
Mof_H 	H 	0.3657	0.6737	0.8684	0.022
Mof_C 	C 	0.4106	0.7119	0.8772	0.081
Mof_H 	H 	0.4127	0.7174	0.8399	0.063
Mof_C 	C 	0.348	0.6504	0.9701	0.011
Mof_H 	H 	0.3322	0.6367	0.9452	-0.058
Mof_C 	C 	0.4328	0.7233	0.969	0.064
Mof_H 	H 	0.4502	0.7356	0.9933	-0.117
Mof_C 	C 	0.3431	0.6445	0.0211	-0.089
Mof_C 	C 	0.3956	0.6882	0.0451	-0.101
Mof_H 	H 	0.4114	0.7005	0.0713	0.024
Mof_C 	C 	0.3677	0.6635	0.0616	0.126
Mof_H 	H 	0.3642	0.6583	0.0988	0.023
Mof_C 	C 	0.441	0.7331	0.9952	0.116
Mof_H 	H 	0.4596	0.7477	0.0147	0.068
Mof_C 	C 	0.4392	0.7353	0.9335	-0.089
Mof_C 	C 	0.4132	0.7138	0.9067	0.059
Mof_H 	H 	0.413	0.7142	0.8685	-0.08
Mof_C 	C 	0.385	0.6897	0.9355	0.002
Mof_C 	C 	0.3872	0.6873	0.992	0.042
Mof_C 	C 	0.4156	0.7104	0.0207	-0.048
Mof_H 	H 	0.4163	0.7092	0.0589	0.06
Mof_C 	C 	0.3594	0.6623	0.0185	0.091
Mof_H 	H 	0.3595	0.6615	0.0566	-0.073
Mof_C 	C 	0.3324	0.6394	0.9914	-0.062
Mof_C 	C 	0.3314	0.6422	0.9334	0.144
Mof_H 	H 	0.3127	0.6277	0.9139	0.015
Mof_C 	C 	0.3574	0.666	0.9053	-0.124
Mof_H 	H 	0.357	0.6667	0.8671	0.067
Mof_C 	C 	0.7704	0.5763	0.223	-0.221
Mof_C 	C 	0.7468	0.5975	0.2609	0.236
Mof_H 	H 	0.7503	0.5939	0.2985	0.016
Mof_C 	C 	0.7193	0.6228	0.2424	1.027
Mof_H 	H 	0.7027	0.6353	0.2674	-1.318
Mof_C 	C 	0.7653	0.5815	0.1667	-0.155
Mof_H 	H 	0.7802	0.5663	0.1425	-0.115
Mof_C 	C 	0.74	0.6073	0.1467	-0.393
Mof_C 	C 	0.7151	0.6305	0.1886	-0.188
Mof_C 	C 	0.6883	0.6565	0.1623	0.679
Mof_H 	H 	0.6719	0.6709	0.1856	0.004
Mof_C 	C 	0.6833	0.6631	0.1103	-0.505
Mof_C 	C 	0.7095	0.6417	0.0722	0.1
Mof_H 	H 	0.708	0.6466	0.0347	0.057
Mof_C 	C 	0.7351	0.6152	0.091	-0.249
Mof_H 	H 	0.7505	0.6014	0.0658	-0.153
Mof_Cd	Cd	0.00106	0.31729	0.81878	0.484
Mof_Cd	Cd	0.10792	0.24828	0.0354	0.491
Mof_Mg	Mg	0.05738	0.28181	0.92334	1.48
Mof_O 	O 	0.32349	0.02346	0.2062	-0.425
Mof_O 	O 	0.07188	0.28986	0.0872	-0.289
Mof_O 	O 	0.05421	0.30135	0.0012	-0.474
Mof_O 	O 	0.30656	0.05045	0.2845	-0.232
Mof_O 	O 	0.21386	0.52783	0.0135	-0.282
Mof_O 	O 	0.18868	0.5125	0.0947	-0.476
Mof_O 	O 	0.7986	0.1179	0.0809	-0.263
Mof_O 	O 	0.7904	0.0898	0.0004	-0.237
Mof_O 	O 	0.99831	0.26685	0.9277	-0.478
Mof_O 	O 	0.96114	0.27225	0.853	-0.317
Mof_O 	O 	0.12932	0.21976	0.119	-0.286
Mof_O 	O 	0.1563	0.19973	0.0415	-0.271
Mof_O 	O 	0.86583	0.45343	0.1708	-0.459
Mof_O 	O 	0.8991	0.45859	0.2509	-0.294
Mof_O 	O 	0.03997	0.33752	0.8935	-0.446
Mof_O 	O 	0.05085	0.36645	0.8143	-0.274
Mof_C 	C 	0.9268	0.4189	0.1823	-0.069
Mof_C 	C 	0.9537	0.4026	0.2191	0.012
Mof_H 	H 	0.9517	0.4085	0.2563	0.047
Mof_C 	C 	0.9683	0.2593	0.8996	0.417
Mof_C 	C 	0.9827	0.3782	0.2015	-0.08
Mof_H 	H 	0.0002	0.3673	0.2268	0.067
Mof_C 	C 	0.8076	0.1153	0.0327	0.32
Mof_C 	C 	0.0165	0.3434	0.126	-0.023
Mof_H 	H 	0.0342	0.3322	0.1508	0.062
Mof_C 	C 	0.0511	0.3066	0.0518	0.393
Mof_C 	C 	0.0195	0.3346	0.0713	-0.102
Mof_C 	C 	0.987	0.3692	0.1449	0.019
Mof_C 	C 	0.9293	0.4106	0.1278	-0.047
Mof_H 	H 	0.9111	0.4217	0.1035	0.068
Mof_C 	C 	0.9594	0.3852	0.1075	0.047
Mof_C 	C 	0.9632	0.3762	0.052	-0.115
Mof_H 	H 	0.9452	0.387	0.0272	0.085
Mof_C 	C 	0.9927	0.3517	0.0326	0.056
Mof_H 	H 	0.9951	0.3465	0.9953	0.021
Mof_C 	C 	0.8944	0.4456	0.2022	0.362
Mof_C 	C 	0.2764	0.0735	0.1955	0.441
Mof_C 	C 	0.2786	0.0725	0.1386	0.124
Mof_H 	H 	0.2965	0.0557	0.1216	0.02
Mof_C 	C 	0.2506	0.0979	0.2215	-0.398
Mof_H 	H 	0.2499	0.0987	0.2596	-0.137
Mof_C 	C 	0.255	0.0956	0.1079	0.187
Mof_H 	H 	0.2562	0.0945	0.0698	0.195
Mof_C 	C 	0.2279	0.1219	0.1346	0.305
Mof_C 	C 	0.2025	0.1474	0.1029	0.179
Mof_H 	H 	0.2037	0.147	0.0648	-0.056
Mof_C 	C 	0.1767	0.172	0.1291	-0.025
Mof_C 	C 	0.1729	0.1714	0.1863	-0.053
Mof_H 	H 	0.1544	0.1875	0.2036	0.071
Mof_C 	C 	0.1967	0.147	0.2167	-1.429
Mof_H 	H 	0.1945	0.1467	0.2548	1.462
Mof_C 	C 	0.2246	0.1222	0.1905	0.341
Mof_C 	C 	0.3031	0.048	0.2338	0.247
Mof_C 	C 	0.1527	0.1986	0.093	0.416
Mof_C 	C 	0.1909	0.5084	0.0439	0.37
Mof_C 	C 	0.1639	0.4786	0.0175	-0.049
Mof_C 	C 	0.1384	0.4553	0.0514	-0.02
Mof_H 	H 	0.138	0.4594	0.0891	0.053
Mof_C 	C 	0.1151	0.4276	0.0288	-0.04
Mof_H 	H 	0.0994	0.412	0.0514	0.058
Mof_C 	C 	0.1141	0.4218	0.9712	-0.013
Mof_C 	C 	0.0881	0.3938	0.9449	-0.008
Mof_H 	H 	0.0724	0.3775	0.9665	0.045
Mof_C 	C 	0.086	0.3908	0.8906	-0.098
Mof_C 	C 	0.0576	0.363	0.8643	0.35
Mof_C 	C 	0.1102	0.4149	0.8572	0.035
Mof_H 	H 	0.1085	0.4128	0.8192	0.038
Mof_C 	C 	0.1361	0.4413	0.8801	-0.113
Mof_H 	H 	0.1523	0.4566	0.8577	0.075
Mof_C 	C 	0.1381	0.4452	0.9367	0.062
Mof_C 	C 	0.1636	0.4732	0.9622	-0.08
Mof_H 	H 	0.1804	0.4882	0.9403	0.075
Mof_C 	C 	0.9362	0.2302	0.9128	-0.084
Mof_C 	C 	0.8776	0.1775	0.9493	0.015
Mof_C 	C 	0.902	0.1965	0.9902	-0.054
Mof_C 	C 	0.8821	0.1858	0.8941	-0.038
Mof_H 	H 	0.8657	0.1737	0.8684	0.022
Mof_C 	C 	0.9106	0.2119	0.8772	0.081
Mof_H 	H 	0.9127	0.2174	0.8399	0.063
Mof_C 	C 	0.848	0.1504	0.9701	0.011
Mof_H 	H 	0.8322	0.1367	0.9452	-0.058
Mof_C 	C 	0.9328	0.2233	0.969	0.064
Mof_H 	H 	0.9502	0.2356	0.9933	-0.117
Mof_C 	C 	0.8431	0.1445	0.0211	-0.089
Mof_C 	C 	0.8956	0.1882	0.0451	-0.101
Mof_H 	H 	0.9114	0.2005	0.0713	0.024
Mof_C 	C 	0.8677	0.1635	0.0616	0.126
Mof_H 	H 	0.8642	0.1583	0.0988	0.023
Mof_C 	C 	0.941	0.2331	0.9952	0.116
Mof_H 	H 	0.9596	0.2477	0.0147	0.068
Mof_C 	C 	0.9392	0.2353	0.9335	-0.089
Mof_C 	C 	0.9132	0.2138	0.9067	0.059
Mof_H 	H 	0.913	0.2142	0.8685	-0.08
Mof_C 	C 	0.885	0.1897	0.9355	0.002
Mof_C 	C 	0.8872	0.1873	0.992	0.042
Mof_C 	C 	0.9156	0.2104	0.0207	-0.048
Mof_H 	H 	0.9163	0.2092	0.0589	0.06
Mof_C 	C 	0.8594	0.1623	0.0185	0.091
Mof_H 	H 	0.8595	0.1615	0.0566	-0.073
Mof_C 	C 	0.8324	0.1394	0.9914	-0.062
Mof_C 	C 	0.8314	0.1422	0.9334	0.144
Mof_H 	H 	0.8127	0.1277	0.9139	0.015
Mof_C 	C 	0.8574	0.166	0.9053	-0.124
Mof_H 	H 	0.857	0.1667	0.8671	0.067
Mof_C 	C 	0.2704	0.0763	0.223	-0.221
Mof_C 	C 	0.2468	0.0975	0.2609	0.236
Mof_H 	H 	0.2503	0.0939	0.2985	0.016
Mof_C 	C 	0.2193	0.1228	0.2424	1.027
Mof_H 	H 	0.2027	0.1353	0.2674	-1.317
Mof_C 	C 	0.2653	0.0815	0.1667	-0.155
Mof_H 	H 	0.2802	0.0663	0.1425	-0.115
Mof_C 	C 	0.24	0.1073	0.1467	-0.393
Mof_C 	C 	0.2151	0.1305	0.1886	-0.188
Mof_C 	C 	0.1883	0.1565	0.1623	0.679
Mof_H 	H 	0.1719	0.1709	0.1856	0.004
Mof_C 	C 	0.1833	0.1631	0.1103	-0.505
Mof_C 	C 	0.2095	0.1417	0.0722	0.1
Mof_H 	H 	0.208	0.1466	0.0347	0.057
Mof_C 	C 	0.2351	0.1152	0.091	-0.249
Mof_H 	H 	0.2505	0.1014	0.0658	-0.153
Mof_Cd	Cd	0.00106	0.81729	0.31878	0.484
Mof_Cd	Cd	0.10792	0.74828	0.5354	0.486
Mof_Mg	Mg	0.05738	0.78181	0.42334	1.48
Mof_O 	O 	0.32349	0.52346	0.7062	-0.426
Mof_O 	O 	0.07188	0.78986	0.5872	-0.288
Mof_O 	O 	0.05421	0.80135	0.5012	-0.481
Mof_O 	O 	0.30656	0.55045	0.7845	-0.236
Mof_O 	O 	0.21386	0.02783	0.5135	-0.29
Mof_O 	O 	0.18868	0.0125	0.5947	-0.48
Mof_O 	O 	0.7986	0.6179	0.5809	-0.262
Mof_O 	O 	0.7904	0.5898	0.5004	-0.241
Mof_O 	O 	0.99831	0.76685	0.4277	-0.475
Mof_O 	O 	0.96114	0.77225	0.353	-0.316
Mof_O 	O 	0.12932	0.71976	0.619	-0.285
Mof_O 	O 	0.1563	0.69973	0.5415	-0.273
Mof_O 	O 	0.86583	0.95343	0.6708	-0.459
Mof_O 	O 	0.8991	0.95859	0.7509	-0.295
Mof_O 	O 	0.03997	0.83752	0.3935	-0.443
Mof_O 	O 	0.05085	0.86645	0.3143	-0.272
Mof_C 	C 	0.9268	0.9189	0.6823	-0.075
Mof_C 	C 	0.9537	0.9026	0.7191	0.018
Mof_H 	H 	0.9517	0.9085	0.7563	0.044
Mof_C 	C 	0.9683	0.7593	0.3996	0.411
Mof_C 	C 	0.9827	0.8782	0.7015	-0.087
Mof_H 	H 	0.0002	0.8673	0.7268	0.066
Mof_C 	C 	0.8076	0.6153	0.5327	0.311
Mof_C 	C 	0.0165	0.8434	0.626	-0.036
Mof_H 	H 	0.0342	0.8322	0.6508	0.066
Mof_C 	C 	0.0511	0.8066	0.5518	0.388
Mof_C 	C 	0.0195	0.8346	0.5713	-0.086
Mof_C 	C 	0.987	0.8692	0.6449	0.029
Mof_C 	C 	0.9293	0.9106	0.6278	-0.038
Mof_H 	H 	0.9111	0.9217	0.6035	0.064
Mof_C 	C 	0.9594	0.8852	0.6075	0.032
Mof_C 	C 	0.9632	0.8762	0.552	-0.09
Mof_H 	H 	0.9452	0.887	0.5272	0.073
Mof_C 	C 	0.9927	0.8517	0.5326	0.014
Mof_H 	H 	0.9951	0.8465	0.4953	0.045
Mof_C 	C 	0.8944	0.9456	0.7022	0.364
Mof_C 	C 	0.2764	0.5735	0.6955	0.409
Mof_C 	C 	0.2786	0.5725	0.6386	0.123
Mof_H 	H 	0.2965	0.5557	0.6216	0.02
Mof_C 	C 	0.2506	0.5979	0.7215	-0.372
Mof_H 	H 	0.2499	0.5987	0.7596	-0.132
Mof_C 	C 	0.255	0.5956	0.6079	0.171
Mof_H 	H 	0.2562	0.5945	0.5698	0.185
Mof_C 	C 	0.2279	0.6219	0.6346	0.285
Mof_C 	C 	0.2025	0.6474	0.6029	0.171
Mof_H 	H 	0.2037	0.647	0.5648	-0.058
Mof_C 	C 	0.1767	0.672	0.6291	-0.025
Mof_C 	C 	0.1729	0.6714	0.6863	-0.045
Mof_H 	H 	0.1544	0.6875	0.7036	0.068
Mof_C 	C 	0.1967	0.647	0.7167	-1.349
Mof_H 	H 	0.1945	0.6467	0.7548	1.378
Mof_C 	C 	0.2246	0.6222	0.6905	0.323
Mof_C 	C 	0.3031	0.548	0.7338	0.254
Mof_C 	C 	0.1527	0.6986	0.593	0.41
Mof_C 	C 	0.1909	0.0084	0.5439	0.383
Mof_C 	C 	0.1639	0.9786	0.5175	-0.089
Mof_C 	C 	0.1384	0.9553	0.5514	0.019
Mof_H 	H 	0.138	0.9594	0.5891	0.039
Mof_C 	C 	0.1151	0.9276	0.5288	-0.092
Mof_H 	H 	0.0994	0.912	0.5514	0.073
Mof_C 	C 	0.1141	0.9218	0.4712	0.031
Mof_C 	C 	0.0881	0.8938	0.4449	-0.036
Mof_H 	H 	0.0724	0.8775	0.4665	0.058
Mof_C 	C 	0.086	0.8908	0.3906	-0.079
Mof_C 	C 	0.0576	0.863	0.3643	0.343
Mof_C 	C 	0.1102	0.9149	0.3572	0.014
Mof_H 	H 	0.1085	0.9128	0.3192	0.046
Mof_C 	C 	0.1361	0.9413	0.3801	-0.086
Mof_H 	H 	0.1523	0.9566	0.3577	0.066
Mof_C 	C 	0.1381	0.9452	0.4367	0.029
Mof_C 	C 	0.1636	0.9732	0.4622	-0.033
Mof_H 	H 	0.1804	0.9882	0.4403	0.062
Mof_C 	C 	0.9362	0.7302	0.4128	-0.064
Mof_C 	C 	0.8776	0.6775	0.4493	0.017
Mof_C 	C 	0.902	0.6965	0.4902	-0.017
Mof_C 	C 	0.8821	0.6858	0.3941	-0.03
Mof_H 	H 	0.8657	0.6737	0.3684	0.033
Mof_C 	C 	0.9106	0.7119	0.3772	0.082
Mof_H 	H 	0.9127	0.7174	0.3399	0.063
Mof_C 	C 	0.848	0.6504	0.4701	0.05
Mof_H 	H 	0.8322	0.6367	0.4452	-0.067
Mof_C 	C 	0.9328	0.7233	0.469	0.039
Mof_H 	H 	0.9502	0.7356	0.4933	-0.085
Mof_C 	C 	0.8431	0.6445	0.5211	-0.075
Mof_C 	C 	0.8956	0.6882	0.5451	-0.124
Mof_H 	H 	0.9114	0.7005	0.5713	0.077
Mof_C 	C 	0.8677	0.6635	0.5616	0.125
Mof_H 	H 	0.8642	0.6583	0.5988	0.018
Mof_C 	C 	0.941	0.7331	0.4952	0.115
Mof_H 	H 	0.9596	0.7477	0.5147	0.047
Mof_C 	C 	0.9392	0.7353	0.4335	-0.093
Mof_C 	C 	0.9132	0.7138	0.4067	0.053
Mof_H 	H 	0.913	0.7142	0.3685	-0.081
Mof_C 	C 	0.885	0.6897	0.4355	-0.013
Mof_C 	C 	0.8872	0.6873	0.492	0.046
Mof_C 	C 	0.9156	0.7104	0.5207	-0.051
Mof_H 	H 	0.9163	0.7092	0.5589	0.015
Mof_C 	C 	0.8594	0.6623	0.5185	0.039
Mof_H 	H 	0.8595	0.6615	0.5566	-0.053
Mof_C 	C 	0.8324	0.6394	0.4914	-0.063
Mof_C 	C 	0.8314	0.6422	0.4334	0.14
Mof_H 	H 	0.8127	0.6277	0.4139	0.022
Mof_C 	C 	0.8574	0.666	0.4053	-0.124
Mof_H 	H 	0.857	0.6667	0.3671	0.055
Mof_C 	C 	0.2704	0.5763	0.723	-0.211
Mof_C 	C 	0.2468	0.5975	0.7609	0.228
Mof_H 	H 	0.2503	0.5939	0.7985	0.016
Mof_C 	C 	0.2193	0.6228	0.7424	0.96
Mof_H 	H 	0.2027	0.6353	0.7674	-1.237
Mof_C 	C 	0.2653	0.5815	0.6667	-0.144
Mof_H 	H 	0.2802	0.5663	0.6425	-0.112
Mof_C 	C 	0.24	0.6073	0.6467	-0.366
Mof_C 	C 	0.2151	0.6305	0.6886	-0.178
Mof_C 	C 	0.1883	0.6565	0.6623	0.642
Mof_H 	H 	0.1719	0.6709	0.6856	0
Mof_C 	C 	0.1833	0.6631	0.6103	-0.481
Mof_C 	C 	0.2095	0.6417	0.5722	0.102
Mof_H 	H 	0.208	0.6466	0.5347	0.052
Mof_C 	C 	0.2351	0.6152	0.591	-0.24
Mof_H 	H 	0.2505	0.6014	0.5658	-0.142
Mof_Cd	Cd	0.49894	0.68271	0.31878	0.484
Mof_Cd	Cd	0.39208	0.75172	0.5354	0.486
Mof_Mg	Mg	0.44262	0.71819	0.42334	1.48
Mof_O 	O 	0.17651	0.97654	0.7062	-0.426
Mof_O 	O 	0.42812	0.71014	0.5872	-0.288
Mof_O 	O 	0.44579	0.69865	0.5012	-0.481
Mof_O 	O 	0.19344	0.94955	0.7845	-0.236
Mof_O 	O 	0.28614	0.47217	0.5135	-0.29
Mof_O 	O 	0.31132	0.4875	0.5947	-0.48
Mof_O 	O 	0.7014	0.8821	0.5809	-0.262
Mof_O 	O 	0.7096	0.9102	0.5004	-0.241
Mof_O 	O 	0.50169	0.73315	0.4277	-0.475
Mof_O 	O 	0.53886	0.72775	0.353	-0.316
Mof_O 	O 	0.37068	0.78024	0.619	-0.285
Mof_O 	O 	0.3437	0.80027	0.5415	-0.273
Mof_O 	O 	0.63417	0.54657	0.6708	-0.459
Mof_O 	O 	0.6009	0.54141	0.7509	-0.295
Mof_O 	O 	0.46003	0.66248	0.3935	-0.443
Mof_O 	O 	0.44915	0.63355	0.3143	-0.272
Mof_C 	C 	0.5732	0.5811	0.6823	-0.075
Mof_C 	C 	0.5463	0.5974	0.7191	0.018
Mof_H 	H 	0.5483	0.5915	0.7563	0.044
Mof_C 	C 	0.5317	0.7407	0.3996	0.411
Mof_C 	C 	0.5173	0.6218	0.7015	-0.087
Mof_H 	H 	0.4998	0.6327	0.7268	0.066
Mof_C 	C 	0.6924	0.8847	0.5327	0.311
Mof_C 	C 	0.4835	0.6566	0.626	-0.036
Mof_H 	H 	0.4658	0.6678	0.6508	0.066
Mof_C 	C 	0.4489	0.6934	0.5518	0.388
Mof_C 	C 	0.4805	0.6654	0.5713	-0.086
Mof_C 	C 	0.513	0.6308	0.6449	0.029
Mof_C 	C 	0.5707	0.5894	0.6278	-0.038
Mof_H 	H 	0.5889	0.5783	0.6035	0.064
Mof_C 	C 	0.5406	0.6148	0.6075	0.032
Mof_C 	C 	0.5368	0.6238	0.552	-0.09
Mof_H 	H 	0.5548	0.613	0.5272	0.073
Mof_C 	C 	0.5073	0.6483	0.5326	0.014
Mof_H 	H 	0.5049	0.6535	0.4953	0.045
Mof_C 	C 	0.6056	0.5544	0.7022	0.364
Mof_C 	C 	0.2236	0.9265	0.6955	0.409
Mof_C 	C 	0.2214	0.9275	0.6386	0.123
Mof_H 	H 	0.2035	0.9443	0.6216	0.02
Mof_C 	C 	0.2494	0.9021	0.7215	-0.372
Mof_H 	H 	0.2501	0.9013	0.7596	-0.132
Mof_C 	C 	0.245	0.9044	0.6079	0.171
Mof_H 	H 	0.2438	0.9055	0.5698	0.185
Mof_C 	C 	0.2721	0.8781	0.6346	0.285
Mof_C 	C 	0.2975	0.8526	0.6029	0.171
Mof_H 	H 	0.2963	0.853	0.5648	-0.058
Mof_C 	C 	0.3233	0.828	0.6291	-0.025
Mof_C 	C 	0.3271	0.8286	0.6863	-0.045
Mof_H 	H 	0.3456	0.8125	0.7036	0.068
Mof_C 	C 	0.3033	0.853	0.7167	-1.349
Mof_H 	H 	0.3055	0.8533	0.7548	1.378
Mof_C 	C 	0.2754	0.8778	0.6905	0.323
Mof_C 	C 	0.1969	0.952	0.7338	0.254
Mof_C 	C 	0.3473	0.8014	0.593	0.41
Mof_C 	C 	0.3091	0.4916	0.5439	0.383
Mof_C 	C 	0.3361	0.5214	0.5175	-0.089
Mof_C 	C 	0.3616	0.5447	0.5514	0.019
Mof_H 	H 	0.362	0.5406	0.5891	0.039
Mof_C 	C 	0.3849	0.5724	0.5288	-0.092
Mof_H 	H 	0.4006	0.588	0.5514	0.073
Mof_C 	C 	0.3859	0.5782	0.4712	0.031
Mof_C 	C 	0.4119	0.6062	0.4449	-0.036
Mof_H 	H 	0.4276	0.6225	0.4665	0.058
Mof_C 	C 	0.414	0.6092	0.3906	-0.079
Mof_C 	C 	0.4424	0.637	0.3643	0.343
Mof_C 	C 	0.3898	0.5851	0.3572	0.014
Mof_H 	H 	0.3915	0.5872	0.3192	0.046
Mof_C 	C 	0.3639	0.5587	0.3801	-0.086
Mof_H 	H 	0.3477	0.5434	0.3577	0.066
Mof_C 	C 	0.3619	0.5548	0.4367	0.029
Mof_C 	C 	0.3364	0.5268	0.4622	-0.033
Mof_H 	H 	0.3196	0.5118	0.4403	0.062
Mof_C 	C 	0.5638	0.7698	0.4128	-0.064
Mof_C 	C 	0.6224	0.8225	0.4493	0.017
Mof_C 	C 	0.598	0.8035	0.4902	-0.017
Mof_C 	C 	0.6179	0.8142	0.3941	-0.03
Mof_H 	H 	0.6343	0.8263	0.3684	0.033
Mof_C 	C 	0.5894	0.7881	0.3772	0.082
Mof_H 	H 	0.5873	0.7826	0.3399	0.063
Mof_C 	C 	0.652	0.8496	0.4701	0.05
Mof_H 	H 	0.6678	0.8633	0.4452	-0.067
Mof_C 	C 	0.5672	0.7767	0.469	0.039
Mof_H 	H 	0.5498	0.7644	0.4933	-0.085
Mof_C 	C 	0.6569	0.8555	0.5211	-0.075
Mof_C 	C 	0.6044	0.8118	0.5451	-0.124
Mof_H 	H 	0.5886	0.7995	0.5713	0.077
Mof_C 	C 	0.6323	0.8365	0.5616	0.125
Mof_H 	H 	0.6358	0.8417	0.5988	0.018
Mof_C 	C 	0.559	0.7669	0.4952	0.115
Mof_H 	H 	0.5404	0.7523	0.5147	0.047
Mof_C 	C 	0.5608	0.7647	0.4335	-0.093
Mof_C 	C 	0.5868	0.7862	0.4067	0.053
Mof_H 	H 	0.587	0.7858	0.3685	-0.081
Mof_C 	C 	0.615	0.8103	0.4355	-0.013
Mof_C 	C 	0.6128	0.8127	0.492	0.046
Mof_C 	C 	0.5844	0.7896	0.5207	-0.051
Mof_H 	H 	0.5837	0.7908	0.5589	0.015
Mof_C 	C 	0.6406	0.8377	0.5185	0.039
Mof_H 	H 	0.6405	0.8385	0.5566	-0.053
Mof_C 	C 	0.6676	0.8606	0.4914	-0.063
Mof_C 	C 	0.6686	0.8578	0.4334	0.14
Mof_H 	H 	0.6873	0.8723	0.4139	0.022
Mof_C 	C 	0.6426	0.834	0.4053	-0.124
Mof_H 	H 	0.643	0.8333	0.3671	0.055
Mof_C 	C 	0.2296	0.9237	0.723	-0.211
Mof_C 	C 	0.2532	0.9025	0.7609	0.228
Mof_H 	H 	0.2497	0.9061	0.7985	0.016
Mof_C 	C 	0.2807	0.8772	0.7424	0.96
Mof_H 	H 	0.2973	0.8647	0.7674	-1.237
Mof_C 	C 	0.2347	0.9185	0.6667	-0.144
Mof_H 	H 	0.2198	0.9337	0.6425	-0.112
Mof_C 	C 	0.26	0.8927	0.6467	-0.366
Mof_C 	C 	0.2849	0.8695	0.6886	-0.178
Mof_C 	C 	0.3117	0.8435	0.6623	0.642
Mof_H 	H 	0.3281	0.8291	0.6856	0
Mof_C 	C 	0.3167	0.8369	0.6103	-0.481
Mof_C 	C 	0.2905	0.8583	0.5722	0.102
Mof_H 	H 	0.292	0.8534	0.5347	0.052
Mof_C 	C 	0.2649	0.8848	0.591	-0.24
Mof_H 	H 	0.2495	0.8986	0.5658	-0.142
Mof_Cd	Cd	0.49894	0.18271	0.81878	0.484
Mof_Cd	Cd	0.39208	0.25172	0.0354	0.491
Mof_Mg	Mg	0.44262	0.21819	0.92334	1.48
Mof_O 	O 	0.17651	0.47654	0.2062	-0.425
Mof_O 	O 	0.42812	0.21014	0.0872	-0.289
Mof_O 	O 	0.44579	0.19865	0.0012	-0.474
Mof_O 	O 	0.19344	0.44955	0.2845	-0.232
Mof_O 	O 	0.28614	0.97217	0.0135	-0.282
Mof_O 	O 	0.31132	0.9875	0.0947	-0.476
Mof_O 	O 	0.7014	0.3821	0.0809	-0.263
Mof_O 	O 	0.7096	0.4102	0.0004	-0.237
Mof_O 	O 	0.50169	0.23315	0.9277	-0.478
Mof_O 	O 	0.53886	0.22775	0.853	-0.317
Mof_O 	O 	0.37068	0.28024	0.119	-0.286
Mof_O 	O 	0.3437	0.30027	0.0415	-0.271
Mof_O 	O 	0.63417	0.04657	0.1708	-0.459
Mof_O 	O 	0.6009	0.04141	0.2509	-0.294
Mof_O 	O 	0.46003	0.16248	0.8935	-0.446
Mof_O 	O 	0.44915	0.13355	0.8143	-0.274
Mof_C 	C 	0.5732	0.0811	0.1823	-0.069
Mof_C 	C 	0.5463	0.0974	0.2191	0.012
Mof_H 	H 	0.5483	0.0915	0.2563	0.047
Mof_C 	C 	0.5317	0.2407	0.8996	0.417
Mof_C 	C 	0.5173	0.1218	0.2015	-0.08
Mof_H 	H 	0.4998	0.1327	0.2268	0.067
Mof_C 	C 	0.6924	0.3847	0.0327	0.32
Mof_C 	C 	0.4835	0.1566	0.126	-0.023
Mof_H 	H 	0.4658	0.1678	0.1508	0.062
Mof_C 	C 	0.4489	0.1934	0.0518	0.393
Mof_C 	C 	0.4805	0.1654	0.0713	-0.102
Mof_C 	C 	0.513	0.1308	0.1449	0.019
Mof_C 	C 	0.5707	0.0894	0.1278	-0.047
Mof_H 	H 	0.5889	0.0783	0.1035	0.068
Mof_C 	C 	0.5406	0.1148	0.1075	0.047
Mof_C 	C 	0.5368	0.1238	0.052	-0.115
Mof_H 	H 	0.5548	0.113	0.0272	0.085
Mof_C 	C 	0.5073	0.1483	0.0326	0.056
Mof_H 	H 	0.5049	0.1535	0.9953	0.021
Mof_C 	C 	0.6056	0.0544	0.2022	0.362
Mof_C 	C 	0.2236	0.4265	0.1955	0.441
Mof_C 	C 	0.2214	0.4275	0.1386	0.124
Mof_H 	H 	0.2035	0.4443	0.1216	0.02
Mof_C 	C 	0.2494	0.4021	0.2215	-0.398
Mof_H 	H 	0.2501	0.4013	0.2596	-0.137
Mof_C 	C 	0.245	0.4044	0.1079	0.187
Mof_H 	H 	0.2438	0.4055	0.0698	0.195
Mof_C 	C 	0.2721	0.3781	0.1346	0.305
Mof_C 	C 	0.2975	0.3526	0.1029	0.179
Mof_H 	H 	0.2963	0.353	0.0648	-0.056
Mof_C 	C 	0.3233	0.328	0.1291	-0.025
Mof_C 	C 	0.3271	0.3286	0.1863	-0.053
Mof_H 	H 	0.3456	0.3125	0.2036	0.071
Mof_C 	C 	0.3033	0.353	0.2167	-1.43
Mof_H 	H 	0.3055	0.3533	0.2548	1.462
Mof_C 	C 	0.2754	0.3778	0.1905	0.341
Mof_C 	C 	0.1969	0.452	0.2338	0.247
Mof_C 	C 	0.3473	0.3014	0.093	0.416
Mof_C 	C 	0.3091	0.9916	0.0439	0.37
Mof_C 	C 	0.3361	0.0214	0.0175	-0.049
Mof_C 	C 	0.3616	0.0447	0.0514	-0.02
Mof_H 	H 	0.362	0.0406	0.0891	0.053
Mof_C 	C 	0.3849	0.0724	0.0288	-0.04
Mof_H 	H 	0.4006	0.088	0.0514	0.058
Mof_C 	C 	0.3859	0.0782	0.9712	-0.013
Mof_C 	C 	0.4119	0.1062	0.9449	-0.008
Mof_H 	H 	0.4276	0.1225	0.9665	0.045
Mof_C 	C 	0.414	0.1092	0.8906	-0.098
Mof_C 	C 	0.4424	0.137	0.8643	0.35
Mof_C 	C 	0.3898	0.0851	0.8572	0.035
Mof_H 	H 	0.3915	0.0872	0.8192	0.038
Mof_C 	C 	0.3639	0.0587	0.8801	-0.113
Mof_H 	H 	0.3477	0.0434	0.8577	0.075
Mof_C 	C 	0.3619	0.0548	0.9367	0.062
Mof_C 	C 	0.3364	0.0268	0.9622	-0.08
Mof_H 	H 	0.3196	0.0118	0.9403	0.075
Mof_C 	C 	0.5638	0.2698	0.9128	-0.084
Mof_C 	C 	0.6224	0.3225	0.9493	0.015
Mof_C 	C 	0.598	0.3035	0.9902	-0.055
Mof_C 	C 	0.6179	0.3142	0.8941	-0.038
Mof_H 	H 	0.6343	0.3263	0.8684	0.022
Mof_C 	C 	0.5894	0.2881	0.8772	0.081
Mof_H 	H 	0.5873	0.2826	0.8399	0.063
Mof_C 	C 	0.652	0.3496	0.9701	0.011
Mof_H 	H 	0.6678	0.3633	0.9452	-0.058
Mof_C 	C 	0.5672	0.2767	0.969	0.064
Mof_H 	H 	0.5498	0.2644	0.9933	-0.117
Mof_C 	C 	0.6569	0.3555	0.0211	-0.089
Mof_C 	C 	0.6044	0.3118	0.0451	-0.101
Mof_H 	H 	0.5886	0.2995	0.0713	0.024
Mof_C 	C 	0.6323	0.3365	0.0616	0.126
Mof_H 	H 	0.6358	0.3417	0.0988	0.023
Mof_C 	C 	0.559	0.2669	0.9952	0.116
Mof_H 	H 	0.5404	0.2523	0.0147	0.068
Mof_C 	C 	0.5608	0.2647	0.9335	-0.089
Mof_C 	C 	0.5868	0.2862	0.9067	0.059
Mof_H 	H 	0.587	0.2858	0.8685	-0.08
Mof_C 	C 	0.615	0.3103	0.9355	0.002
Mof_C 	C 	0.6128	0.3127	0.992	0.042
Mof_C 	C 	0.5844	0.2896	0.0207	-0.048
Mof_H 	H 	0.5837	0.2908	0.0589	0.06
Mof_C 	C 	0.6406	0.3377	0.0185	0.091
Mof_H 	H 	0.6405	0.3385	0.0566	-0.073
Mof_C 	C 	0.6676	0.3606	0.9914	-0.062
Mof_C 	C 	0.6686	0.3578	0.9334	0.144
Mof_H 	H 	0.6873	0.3723	0.9139	0.015
Mof_C 	C 	0.6426	0.334	0.9053	-0.124
Mof_H 	H 	0.643	0.3333	0.8671	0.067
Mof_C 	C 	0.2296	0.4237	0.223	-0.221
Mof_C 	C 	0.2532	0.4025	0.2609	0.236
Mof_H 	H 	0.2497	0.4061	0.2985	0.016
Mof_C 	C 	0.2807	0.3772	0.2424	1.027
Mof_H 	H 	0.2973	0.3647	0.2674	-1.318
Mof_C 	C 	0.2347	0.4185	0.1667	-0.155
Mof_H 	H 	0.2198	0.4337	0.1425	-0.115
Mof_C 	C 	0.26	0.3927	0.1467	-0.393
Mof_C 	C 	0.2849	0.3695	0.1886	-0.188
Mof_C 	C 	0.3117	0.3435	0.1623	0.679
Mof_H 	H 	0.3281	0.3291	0.1856	0.004
Mof_C 	C 	0.3167	0.3369	0.1103	-0.505
Mof_C 	C 	0.2905	0.3583	0.0722	0.1
Mof_H 	H 	0.292	0.3534	0.0347	0.057
Mof_C 	C 	0.2649	0.3848	0.091	-0.249
Mof_H 	H 	0.2495	0.3986	0.0658	-0.153
Mof_Cd	Cd	0.99894	0.68271	0.81878	0.484
Mof_Cd	Cd	0.89208	0.75172	0.0354	0.491
Mof_Mg	Mg	0.94262	0.71819	0.92334	1.48
Mof_O 	O 	0.67651	0.97654	0.2062	-0.425
Mof_O 	O 	0.92812	0.71014	0.0872	-0.289
Mof_O 	O 	0.94579	0.69865	0.0012	-0.474
Mof_O 	O 	0.69344	0.94955	0.2845	-0.232
Mof_O 	O 	0.78614	0.47217	0.0135	-0.282
Mof_O 	O 	0.81132	0.4875	0.0947	-0.476
Mof_O 	O 	0.2014	0.8821	0.0809	-0.263
Mof_O 	O 	0.2096	0.9102	0.0004	-0.237
Mof_O 	O 	0.00169	0.73315	0.9277	-0.478
Mof_O 	O 	0.03886	0.72775	0.853	-0.317
Mof_O 	O 	0.87068	0.78024	0.119	-0.286
Mof_O 	O 	0.8437	0.80027	0.0415	-0.271
Mof_O 	O 	0.13417	0.54657	0.1708	-0.459
Mof_O 	O 	0.1009	0.54141	0.2509	-0.294
Mof_O 	O 	0.96003	0.66248	0.8935	-0.446
Mof_O 	O 	0.94915	0.63355	0.8143	-0.274
Mof_C 	C 	0.0732	0.5811	0.1823	-0.069
Mof_C 	C 	0.0463	0.5974	0.2191	0.012
Mof_H 	H 	0.0483	0.5915	0.2563	0.047
Mof_C 	C 	0.0317	0.7407	0.8996	0.417
Mof_C 	C 	0.0173	0.6218	0.2015	-0.08
Mof_H 	H 	0.9998	0.6327	0.2268	0.067
Mof_C 	C 	0.1924	0.8847	0.0327	0.32
Mof_C 	C 	0.9835	0.6566	0.126	-0.023
Mof_H 	H 	0.9658	0.6678	0.1508	0.062
Mof_C 	C 	0.9489	0.6934	0.0518	0.393
Mof_C 	C 	0.9805	0.6654	0.0713	-0.102
Mof_C 	C 	0.013	0.6308	0.1449	0.019
Mof_C 	C 	0.0707	0.5894	0.1278	-0.047
Mof_H 	H 	0.0889	0.5783	0.1035	0.068
Mof_C 	C 	0.0406	0.6148	0.1075	0.047
Mof_C 	C 	0.0368	0.6238	0.052	-0.115
Mof_H 	H 	0.0548	0.613	0.0272	0.085
Mof_C 	C 	0.0073	0.6483	0.0326	0.056
Mof_H 	H 	0.0049	0.6535	0.9953	0.021
Mof_C 	C 	0.1056	0.5544	0.2022	0.362
Mof_C 	C 	0.7236	0.9265	0.1955	0.441
Mof_C 	C 	0.7214	0.9275	0.1386	0.124
Mof_H 	H 	0.7035	0.9443	0.1216	0.02
Mof_C 	C 	0.7494	0.9021	0.2215	-0.398
Mof_H 	H 	0.7501	0.9013	0.2596	-0.137
Mof_C 	C 	0.745	0.9044	0.1079	0.187
Mof_H 	H 	0.7438	0.9055	0.0698	0.195
Mof_C 	C 	0.7721	0.8781	0.1346	0.305
Mof_C 	C 	0.7975	0.8526	0.1029	0.179
Mof_H 	H 	0.7963	0.853	0.0648	-0.056
Mof_C 	C 	0.8233	0.828	0.1291	-0.025
Mof_C 	C 	0.8271	0.8286	0.1863	-0.053
Mof_H 	H 	0.8456	0.8125	0.2036	0.071
Mof_C 	C 	0.8033	0.853	0.2167	-1.429
Mof_H 	H 	0.8055	0.8533	0.2548	1.462
Mof_C 	C 	0.7754	0.8778	0.1905	0.341
Mof_C 	C 	0.6969	0.952	0.2338	0.247
Mof_C 	C 	0.8473	0.8014	0.093	0.416
Mof_C 	C 	0.8091	0.4916	0.0439	0.37
Mof_C 	C 	0.8361	0.5214	0.0175	-0.049
Mof_C 	C 	0.8616	0.5447	0.0514	-0.02
Mof_H 	H 	0.862	0.5406	0.0891	0.053
Mof_C 	C 	0.8849	0.5724	0.0288	-0.04
Mof_H 	H 	0.9006	0.588	0.0514	0.058
Mof_C 	C 	0.8859	0.5782	0.9712	-0.013
Mof_C 	C 	0.9119	0.6062	0.9449	-0.008
Mof_H 	H 	0.9276	0.6225	0.9665	0.045
Mof_C 	C 	0.914	0.6092	0.8906	-0.098
Mof_C 	C 	0.9424	0.637	0.8643	0.35
Mof_C 	C 	0.8898	0.5851	0.8572	0.035
Mof_H 	H 	0.8915	0.5872	0.8192	0.038
Mof_C 	C 	0.8639	0.5587	0.8801	-0.113
Mof_H 	H 	0.8477	0.5434	0.8577	0.075
Mof_C 	C 	0.8619	0.5548	0.9367	0.062
Mof_C 	C 	0.8364	0.5268	0.9622	-0.08
Mof_H 	H 	0.8196	0.5118	0.9403	0.075
Mof_C 	C 	0.0638	0.7698	0.9128	-0.084
Mof_C 	C 	0.1224	0.8225	0.9493	0.015
Mof_C 	C 	0.098	0.8035	0.9902	-0.054
Mof_C 	C 	0.1179	0.8142	0.8941	-0.038
Mof_H 	H 	0.1343	0.8263	0.8684	0.022
Mof_C 	C 	0.0894	0.7881	0.8772	0.081
Mof_H 	H 	0.0873	0.7826	0.8399	0.063
Mof_C 	C 	0.152	0.8496	0.9701	0.011
Mof_H 	H 	0.1678	0.8633	0.9452	-0.058
Mof_C 	C 	0.0672	0.7767	0.969	0.064
Mof_H 	H 	0.0498	0.7644	0.9933	-0.117
Mof_C 	C 	0.1569	0.8555	0.0211	-0.089
Mof_C 	C 	0.1044	0.8118	0.0451	-0.101
Mof_H 	H 	0.0886	0.7995	0.0713	0.024
Mof_C 	C 	0.1323	0.8365	0.0616	0.126
Mof_H 	H 	0.1358	0.8417	0.0988	0.023
Mof_C 	C 	0.059	0.7669	0.9952	0.116
Mof_H 	H 	0.0404	0.7523	0.0147	0.068
Mof_C 	C 	0.0608	0.7647	0.9335	-0.089
Mof_C 	C 	0.0868	0.7862	0.9067	0.059
Mof_H 	H 	0.087	0.7858	0.8685	-0.08
Mof_C 	C 	0.115	0.8103	0.9355	0.002
Mof_C 	C 	0.1128	0.8127	0.992	0.042
Mof_C 	C 	0.0844	0.7896	0.0207	-0.048
Mof_H 	H 	0.0837	0.7908	0.0589	0.06
Mof_C 	C 	0.1406	0.8377	0.0185	0.091
Mof_H 	H 	0.1405	0.8385	0.0566	-0.073
Mof_C 	C 	0.1676	0.8606	0.9914	-0.062
Mof_C 	C 	0.1686	0.8578	0.9334	0.144
Mof_H 	H 	0.1873	0.8723	0.9139	0.015
Mof_C 	C 	0.1426	0.834	0.9053	-0.124
Mof_H 	H 	0.143	0.8333	0.8671	0.067
Mof_C 	C 	0.7296	0.9237	0.223	-0.221
Mof_C 	C 	0.7532	0.9025	0.2609	0.236
Mof_H 	H 	0.7497	0.9061	0.2985	0.016
Mof_C 	C 	0.7807	0.8772	0.2424	1.027
Mof_H 	H 	0.7973	0.8647	0.2674	-1.317
Mof_C 	C 	0.7347	0.9185	0.1667	-0.155
Mof_H 	H 	0.7198	0.9337	0.1425	-0.115
Mof_C 	C 	0.76	0.8927	0.1467	-0.393
Mof_C 	C 	0.7849	0.8695	0.1886	-0.188
Mof_C 	C 	0.8117	0.8435	0.1623	0.679
Mof_H 	H 	0.8281	0.8291	0.1856	0.004
Mof_C 	C 	0.8167	0.8369	0.1103	-0.505
Mof_C 	C 	0.7905	0.8583	0.0722	0.1
Mof_H 	H 	0.792	0.8534	0.0347	0.057
Mof_C 	C 	0.7649	0.8848	0.091	-0.249
Mof_H 	H 	0.7495	0.8986	0.0658	-0.153
Mof_Cd	Cd	0.99894	0.18271	0.31878	0.484
Mof_Cd	Cd	0.89208	0.25172	0.5354	0.486
Mof_Mg	Mg	0.94262	0.21819	0.42334	1.48
Mof_O 	O 	0.67651	0.47654	0.7062	-0.426
Mof_O 	O 	0.92812	0.21014	0.5872	-0.288
Mof_O 	O 	0.94579	0.19865	0.5012	-0.481
Mof_O 	O 	0.69344	0.44955	0.7845	-0.236
Mof_O 	O 	0.78614	0.97217	0.5135	-0.29
Mof_O 	O 	0.81132	0.9875	0.5947	-0.48
Mof_O 	O 	0.2014	0.3821	0.5809	-0.262
Mof_O 	O 	0.2096	0.4102	0.5004	-0.241
Mof_O 	O 	0.00169	0.23315	0.4277	-0.475
Mof_O 	O 	0.03886	0.22775	0.353	-0.316
Mof_O 	O 	0.87068	0.28024	0.619	-0.285
Mof_O 	O 	0.8437	0.30027	0.5415	-0.273
Mof_O 	O 	0.13417	0.04657	0.6708	-0.459
Mof_O 	O 	0.1009	0.04141	0.7509	-0.295
Mof_O 	O 	0.96003	0.16248	0.3935	-0.443
Mof_O 	O 	0.94915	0.13355	0.3143	-0.272
Mof_C 	C 	0.0732	0.0811	0.6823	-0.075
Mof_C 	C 	0.0463	0.0974	0.7191	0.018
Mof_H 	H 	0.0483	0.0915	0.7563	0.044
Mof_C 	C 	0.0317	0.2407	0.3996	0.411
Mof_C 	C 	0.0173	0.1218	0.7015	-0.087
Mof_H 	H 	0.9998	0.1327	0.7268	0.066
Mof_C 	C 	0.1924	0.3847	0.5327	0.311
Mof_C 	C 	0.9835	0.1566	0.626	-0.036
Mof_H 	H 	0.9658	0.1678	0.6508	0.066
Mof_C 	C 	0.9489	0.1934	0.5518	0.388
Mof_C 	C 	0.9805	0.1654	0.5713	-0.086
Mof_C 	C 	0.013	0.1308	0.6449	0.029
Mof_C 	C 	0.0707	0.0894	0.6278	-0.038
Mof_H 	H 	0.0889	0.0783	0.6035	0.064
Mof_C 	C 	0.0406	0.1148	0.6075	0.032
Mof_C 	C 	0.0368	0.1238	0.552	-0.09
Mof_H 	H 	0.0548	0.113	0.5272	0.073
Mof_C 	C 	0.0073	0.1483	0.5326	0.014
Mof_H 	H 	0.0049	0.1535	0.4953	0.045
Mof_C 	C 	0.1056	0.0544	0.7022	0.364
Mof_C 	C 	0.7236	0.4265	0.6955	0.409
Mof_C 	C 	0.7214	0.4275	0.6386	0.123
Mof_H 	H 	0.7035	0.4443	0.6216	0.02
Mof_C 	C 	0.7494	0.4021	0.7215	-0.372
Mof_H 	H 	0.7501	0.4013	0.7596	-0.132
Mof_C 	C 	0.745	0.4044	0.6079	0.171
Mof_H 	H 	0.7438	0.4055	0.5698	0.185
Mof_C 	C 	0.7721	0.3781	0.6346	0.285
Mof_C 	C 	0.7975	0.3526	0.6029	0.171
Mof_H 	H 	0.7963	0.353	0.5648	-0.058
Mof_C 	C 	0.8233	0.328	0.6291	-0.025
Mof_C 	C 	0.8271	0.3286	0.6863	-0.045
Mof_H 	H 	0.8456	0.3125	0.7036	0.068
Mof_C 	C 	0.8033	0.353	0.7167	-1.349
Mof_H 	H 	0.8055	0.3533	0.7548	1.378
Mof_C 	C 	0.7754	0.3778	0.6905	0.323
Mof_C 	C 	0.6969	0.452	0.7338	0.254
Mof_C 	C 	0.8473	0.3014	0.593	0.41
Mof_C 	C 	0.8091	0.9916	0.5439	0.383
Mof_C 	C 	0.8361	0.0214	0.5175	-0.089
Mof_C 	C 	0.8616	0.0447	0.5514	0.019
Mof_H 	H 	0.862	0.0406	0.5891	0.039
Mof_C 	C 	0.8849	0.0724	0.5288	-0.092
Mof_H 	H 	0.9006	0.088	0.5514	0.073
Mof_C 	C 	0.8859	0.0782	0.4712	0.031
Mof_C 	C 	0.9119	0.1062	0.4449	-0.036
Mof_H 	H 	0.9276	0.1225	0.4665	0.058
Mof_C 	C 	0.914	0.1092	0.3906	-0.079
Mof_C 	C 	0.9424	0.137	0.3643	0.343
Mof_C 	C 	0.8898	0.0851	0.3572	0.014
Mof_H 	H 	0.8915	0.0872	0.3192	0.046
Mof_C 	C 	0.8639	0.0587	0.3801	-0.086
Mof_H 	H 	0.8477	0.0434	0.3577	0.066
Mof_C 	C 	0.8619	0.0548	0.4367	0.029
Mof_C 	C 	0.8364	0.0268	0.4622	-0.033
Mof_H 	H 	0.8196	0.0118	0.4403	0.062
Mof_C 	C 	0.0638	0.2698	0.4128	-0.064
Mof_C 	C 	0.1224	0.3225	0.4493	0.017
Mof_C 	C 	0.098	0.3035	0.4902	-0.017
Mof_C 	C 	0.1179	0.3142	0.3941	-0.03
Mof_H 	H 	0.1343	0.3263	0.3684	0.033
Mof_C 	C 	0.0894	0.2881	0.3772	0.082
Mof_H 	H 	0.0873	0.2826	0.3399	0.063
Mof_C 	C 	0.152	0.3496	0.4701	0.05
Mof_H 	H 	0.1678	0.3633	0.4452	-0.067
Mof_C 	C 	0.0672	0.2767	0.469	0.039
Mof_H 	H 	0.0498	0.2644	0.4933	-0.085
Mof_C 	C 	0.1569	0.3555	0.5211	-0.075
Mof_C 	C 	0.1044	0.3118	0.5451	-0.124
Mof_H 	H 	0.0886	0.2995	0.5713	0.077
Mof_C 	C 	0.1323	0.3365	0.5616	0.125
Mof_H 	H 	0.1358	0.3417	0.5988	0.018
Mof_C 	C 	0.059	0.2669	0.4952	0.115
Mof_H 	H 	0.0404	0.2523	0.5147	0.047
Mof_C 	C 	0.0608	0.2647	0.4335	-0.093
Mof_C 	C 	0.0868	0.2862	0.4067	0.053
Mof_H 	H 	0.087	0.2858	0.3685	-0.081
Mof_C 	C 	0.115	0.3103	0.4355	-0.013
Mof_C 	C 	0.1128	0.3127	0.492	0.046
Mof_C 	C 	0.0844	0.2896	0.5207	-0.051
Mof_H 	H 	0.0837	0.2908	0.5589	0.015
Mof_C 	C 	0.1406	0.3377	0.5185	0.039
Mof_H 	H 	0.1405	0.3385	0.5566	-0.053
Mof_C 	C 	0.1676	0.3606	0.4914	-0.063
Mof_C 	C 	0.1686	0.3578	0.4334	0.14
Mof_H 	H 	0.1873	0.3723	0.4139	0.022
Mof_C 	C 	0.1426	0.334	0.4053	-0.124
Mof_H 	H 	0.143	0.3333	0.3671	0.055
Mof_C 	C 	0.7296	0.4237	0.723	-0.211
Mof_C 	C 	0.7532	0.4025	0.7609	0.228
Mof_H 	H 	0.7497	0.4061	0.7985	0.016
Mof_C 	C 	0.7807	0.3772	0.7424	0.96
Mof_H 	H 	0.7973	0.3647	0.7674	-1.237
Mof_C 	C 	0.7347	0.4185	0.6667	-0.144
Mof_H 	H 	0.7198	0.4337	0.6425	-0.112
Mof_C 	C 	0.76	0.3927	0.6467	-0.366
Mof_C 	C 	0.7849	0.3695	0.6886	-0.178
Mof_C 	C 	0.8117	0.3435	0.6623	0.642
Mof_H 	H 	0.8281	0.3291	0.6856	0
Mof_C 	C 	0.8167	0.3369	0.6103	-0.481
Mof_C 	C 	0.7905	0.3583	0.5722	0.102
Mof_H 	H 	0.792	0.3534	0.5347	0.052
Mof_C 	C 	0.7649	0.3848	0.591	-0.24
Mof_H 	H 	0.7495	0.3986	0.5658	-0.142
Mof_Cd	Cd	0.75106	0.93271	0.56878	0.484
Mof_Cd	Cd	0.85792	0.00172	0.7854	0.485
Mof_Mg	Mg	0.80738	0.96819	0.67334	1.48
Mof_O 	O 	0.07349	0.22654	0.9562	-0.435
Mof_O 	O 	0.82188	0.96014	0.8372	-0.29
Mof_O 	O 	0.80421	0.94865	0.7512	-0.482
Mof_O 	O 	0.05656	0.19955	0.0345	-0.241
Mof_O 	O 	0.96386	0.72217	0.7635	-0.29
Mof_O 	O 	0.93868	0.7375	0.8447	-0.479
Mof_O 	O 	0.5486	0.1321	0.8309	-0.263
Mof_O 	O 	0.5404	0.1602	0.7504	-0.241
Mof_O 	O 	0.74831	0.98315	0.6777	-0.475
Mof_O 	O 	0.71114	0.97775	0.603	-0.316
Mof_O 	O 	0.87932	0.03024	0.869	-0.271
Mof_O 	O 	0.9063	0.05027	0.7915	-0.266
Mof_O 	O 	0.61583	0.79657	0.9208	-0.455
Mof_O 	O 	0.6491	0.79141	0.0009	-0.28
Mof_O 	O 	0.78997	0.91248	0.6435	-0.443
Mof_O 	O 	0.80085	0.88355	0.5643	-0.272
Mof_C 	C 	0.6768	0.8311	0.9323	-0.048
Mof_C 	C 	0.7037	0.8474	0.9691	-0.035
Mof_H 	H 	0.7017	0.8415	0.0063	0.071
Mof_C 	C 	0.7183	0.9907	0.6496	0.411
Mof_C 	C 	0.7327	0.8718	0.9515	-0.054
Mof_H 	H 	0.7502	0.8827	0.9768	0.053
Mof_C 	C 	0.5576	0.1347	0.7827	0.312
Mof_C 	C 	0.7665	0.9066	0.876	-0.022
Mof_H 	H 	0.7842	0.9178	0.9008	0.06
Mof_C 	C 	0.8011	0.9434	0.8018	0.391
Mof_C 	C 	0.7695	0.9154	0.8213	-0.095
Mof_C 	C 	0.737	0.8808	0.8949	0.009
Mof_C 	C 	0.6793	0.8394	0.8778	-0.059
Mof_H 	H 	0.6611	0.8283	0.8535	0.071
Mof_C 	C 	0.7094	0.8648	0.8575	0.049
Mof_C 	C 	0.7132	0.8738	0.802	-0.103
Mof_H 	H 	0.6952	0.863	0.7772	0.077
Mof_C 	C 	0.7427	0.8983	0.7826	0.024
Mof_H 	H 	0.7451	0.9035	0.7453	0.041
Mof_C 	C 	0.6444	0.8044	0.9522	0.339
Mof_C 	C 	0.0264	0.1765	0.9455	0.183
Mof_C 	C 	0.0286	0.1775	0.8886	0.113
Mof_H 	H 	0.0465	0.1943	0.8716	0.026
Mof_C 	C 	0.0006	0.1521	0.9715	-0.195
Mof_H 	H 	0.9999	0.1513	0.0096	-0.071
Mof_C 	C 	0.005	0.1544	0.8579	0.056
Mof_H 	H 	0.0062	0.1555	0.8198	0.117
Mof_C 	C 	0.9779	0.1281	0.8846	0.143
Mof_C 	C 	0.9525	0.1026	0.8529	0.117
Mof_H 	H 	0.9537	0.103	0.8148	-0.072
Mof_C 	C 	0.9267	0.078	0.8791	-0.028
Mof_C 	C 	0.9229	0.0786	0.9363	0.018
Mof_H 	H 	0.9044	0.0625	0.9536	0.05
Mof_C 	C 	0.9467	0.103	0.9667	-0.768
Mof_H 	H 	0.9445	0.1033	0.0048	0.766
Mof_C 	C 	0.9746	0.1278	0.9405	0.201
Mof_C 	C 	0.0531	0.202	0.9838	0.288
Mof_C 	C 	0.9027	0.0514	0.843	0.362
Mof_C 	C 	0.9409	0.7416	0.7939	0.384
Mof_C 	C 	0.9139	0.7714	0.7675	-0.089
Mof_C 	C 	0.8884	0.7947	0.8014	0.019
Mof_H 	H 	0.888	0.7906	0.8391	0.039
Mof_C 	C 	0.8651	0.8224	0.7788	-0.092
Mof_H 	H 	0.8494	0.838	0.8014	0.073
Mof_C 	C 	0.8641	0.8282	0.7212	0.031
Mof_C 	C 	0.8381	0.8562	0.6949	-0.036
Mof_H 	H 	0.8224	0.8725	0.7165	0.058
Mof_C 	C 	0.836	0.8592	0.6406	-0.079
Mof_C 	C 	0.8076	0.887	0.6143	0.343
Mof_C 	C 	0.8602	0.8351	0.6072	0.014
Mof_H 	H 	0.8585	0.8372	0.5692	0.046
Mof_C 	C 	0.8861	0.8087	0.6301	-0.086
Mof_H 	H 	0.9023	0.7934	0.6077	0.066
Mof_C 	C 	0.8881	0.8048	0.6867	0.029
Mof_C 	C 	0.9136	0.7768	0.7122	-0.033
Mof_H 	H 	0.9304	0.7618	0.6903	0.062
Mof_C 	C 	0.6862	0.0198	0.6628	-0.063
Mof_C 	C 	0.6276	0.0725	0.6993	0.018
Mof_C 	C 	0.652	0.0535	0.7402	-0.016
Mof_C 	C 	0.6321	0.0642	0.6441	-0.03
Mof_H 	H 	0.6157	0.0763	0.6184	0.034
Mof_C 	C 	0.6606	0.0381	0.6272	0.082
Mof_H 	H 	0.6627	0.0326	0.5899	0.063
Mof_C 	C 	0.598	0.0996	0.7201	0.05
Mof_H 	H 	0.5822	0.1133	0.6952	-0.067
Mof_C 	C 	0.6828	0.0267	0.719	0.038
Mof_H 	H 	0.7002	0.0144	0.7433	-0.085
Mof_C 	C 	0.5931	0.1055	0.7711	-0.075
Mof_C 	C 	0.6456	0.0618	0.7951	-0.126
Mof_H 	H 	0.6614	0.0495	0.8213	0.078
Mof_C 	C 	0.6177	0.0865	0.8116	0.125
Mof_H 	H 	0.6142	0.0917	0.8488	0.016
Mof_C 	C 	0.691	0.0169	0.7452	0.115
Mof_H 	H 	0.7096	0.0023	0.7647	0.046
Mof_C 	C 	0.6892	0.0147	0.6835	-0.093
Mof_C 	C 	0.6632	0.0362	0.6567	0.053
Mof_H 	H 	0.663	0.0358	0.6185	-0.081
Mof_C 	C 	0.635	0.0603	0.6855	-0.014
Mof_C 	C 	0.6372	0.0627	0.742	0.046
Mof_C 	C 	0.6656	0.0396	0.7707	-0.05
Mof_H 	H 	0.6663	0.0408	0.8089	0.013
Mof_C 	C 	0.6094	0.0877	0.7685	0.038
Mof_H 	H 	0.6095	0.0885	0.8066	-0.053
Mof_C 	C 	0.5824	0.1106	0.7414	-0.064
Mof_C 	C 	0.5814	0.1078	0.6834	0.14
Mof_H 	H 	0.5627	0.1223	0.6639	0.022
Mof_C 	C 	0.6074	0.084	0.6553	-0.124
Mof_H 	H 	0.607	0.0833	0.6171	0.055
Mof_C 	C 	0.0204	0.1737	0.973	-0.151
Mof_C 	C 	0.9968	0.1525	0.0109	0.164
Mof_H 	H 	0.0003	0.1561	0.0485	0.022
Mof_C 	C 	0.9693	0.1272	0.9924	0.436
Mof_H 	H 	0.9527	0.1147	0.0174	-0.624
Mof_C 	C 	0.0153	0.1685	0.9167	-0.05
Mof_H 	H 	0.0302	0.1837	0.8925	-0.094
Mof_C 	C 	0.99	0.1427	0.8967	-0.192
Mof_C 	C 	0.9651	0.1195	0.9386	-0.088
Mof_C 	C 	0.9383	0.0935	0.9123	0.355
Mof_H 	H 	0.9219	0.0791	0.9356	-0.022
Mof_C 	C 	0.9333	0.0869	0.8603	-0.299
Mof_C 	C 	0.9595	0.1083	0.8222	0.109
Mof_H 	H 	0.958	0.1034	0.7847	0.05
Mof_C 	C 	0.9851	0.1348	0.841	-0.161
Mof_H 	H 	0.0005	0.1486	0.8158	-0.061
Mof_Cd	Cd	0.75106	0.43271	0.06878	0.485
Mof_Cd	Cd	0.85792	0.50172	0.2854	0.486
Mof_Mg	Mg	0.80738	0.46819	0.17334	1.48
Mof_O 	O 	0.07349	0.72654	0.4562	-0.425
Mof_O 	O 	0.82188	0.46014	0.3372	-0.287
Mof_O 	O 	0.80421	0.44865	0.2512	-0.481
Mof_O 	O 	0.05656	0.69955	0.5345	-0.234
Mof_O 	O 	0.96386	0.22217	0.2635	-0.29
Mof_O 	O 	0.93868	0.2375	0.3447	-0.48
Mof_O 	O 	0.5486	0.6321	0.3309	-0.262
Mof_O 	O 	0.5404	0.6602	0.2504	-0.241
Mof_O 	O 	0.74831	0.48315	0.1777	-0.475
Mof_O 	O 	0.71114	0.47775	0.103	-0.315
Mof_O 	O 	0.87932	0.53024	0.369	-0.285
Mof_O 	O 	0.9063	0.55027	0.2915	-0.273
Mof_O 	O 	0.61583	0.29657	0.4208	-0.459
Mof_O 	O 	0.6491	0.29141	0.5009	-0.295
Mof_O 	O 	0.78997	0.41248	0.1435	-0.443
Mof_O 	O 	0.80085	0.38355	0.0643	-0.27
Mof_C 	C 	0.6768	0.3311	0.4323	-0.077
Mof_C 	C 	0.7037	0.3474	0.4691	0.02
Mof_H 	H 	0.7017	0.3415	0.5063	0.044
Mof_C 	C 	0.7183	0.4907	0.1496	0.412
Mof_C 	C 	0.7327	0.3718	0.4515	-0.09
Mof_H 	H 	0.7502	0.3827	0.4768	0.07
Mof_C 	C 	0.5576	0.6347	0.2827	0.312
Mof_C 	C 	0.7665	0.4066	0.376	-0.037
Mof_H 	H 	0.7842	0.4178	0.4008	0.067
Mof_C 	C 	0.8011	0.4434	0.3018	0.387
Mof_C 	C 	0.7695	0.4154	0.3213	-0.085
Mof_C 	C 	0.737	0.3808	0.3949	0.031
Mof_C 	C 	0.6793	0.3394	0.3778	-0.036
Mof_H 	H 	0.6611	0.3283	0.3535	0.064
Mof_C 	C 	0.7094	0.3648	0.3575	0.031
Mof_C 	C 	0.7132	0.3738	0.302	-0.089
Mof_H 	H 	0.6952	0.363	0.2772	0.072
Mof_C 	C 	0.7427	0.3983	0.2826	0.013
Mof_H 	H 	0.7451	0.4035	0.2453	0.045
Mof_C 	C 	0.6444	0.3044	0.4522	0.364
Mof_C 	C 	0.0264	0.6765	0.4455	0.419
Mof_C 	C 	0.0286	0.6775	0.3886	0.123
Mof_H 	H 	0.0465	0.6943	0.3716	0.02
Mof_C 	C 	0.0006	0.6521	0.4715	-0.38
Mof_H 	H 	0.9999	0.6513	0.5096	-0.133
Mof_C 	C 	0.005	0.6544	0.3579	0.176
Mof_H 	H 	0.0062	0.6555	0.3198	0.188
Mof_C 	C 	0.9779	0.6281	0.3846	0.291
Mof_C 	C 	0.9525	0.6026	0.3529	0.173
Mof_H 	H 	0.9537	0.603	0.3148	-0.057
Mof_C 	C 	0.9267	0.578	0.3791	-0.025
Mof_C 	C 	0.9229	0.5786	0.4363	-0.047
Mof_H 	H 	0.9044	0.5625	0.4536	0.069
Mof_C 	C 	0.9467	0.603	0.4667	-1.373
Mof_H 	H 	0.9445	0.6033	0.5048	1.403
Mof_C 	C 	0.9746	0.6278	0.4405	0.328
Mof_C 	C 	0.0531	0.702	0.4838	0.251
Mof_C 	C 	0.9027	0.5514	0.343	0.412
Mof_C 	C 	0.9409	0.2416	0.2939	0.383
Mof_C 	C 	0.9139	0.2714	0.2675	-0.09
Mof_C 	C 	0.8884	0.2947	0.3014	0.019
Mof_H 	H 	0.888	0.2906	0.3391	0.039
Mof_C 	C 	0.8651	0.3224	0.2788	-0.093
Mof_H 	H 	0.8494	0.338	0.3014	0.073
Mof_C 	C 	0.8641	0.3282	0.2212	0.032
Mof_C 	C 	0.8381	0.3562	0.1949	-0.037
Mof_H 	H 	0.8224	0.3725	0.2165	0.059
Mof_C 	C 	0.836	0.3592	0.1406	-0.077
Mof_C 	C 	0.8076	0.387	0.1143	0.342
Mof_C 	C 	0.8602	0.3351	0.1072	0.013
Mof_H 	H 	0.8585	0.3372	0.0692	0.048
Mof_C 	C 	0.8861	0.3087	0.1301	-0.084
Mof_H 	H 	0.9023	0.2934	0.1077	0.066
Mof_C 	C 	0.8881	0.3048	0.1867	0.028
Mof_C 	C 	0.9136	0.2768	0.2122	-0.032
Mof_H 	H 	0.9304	0.2618	0.1903	0.062
Mof_C 	C 	0.6862	0.5198	0.1628	-0.064
Mof_C 	C 	0.6276	0.5725	0.1993	0.017
Mof_C 	C 	0.652	0.5535	0.2402	-0.016
Mof_C 	C 	0.6321	0.5642	0.1441	-0.03
Mof_H 	H 	0.6157	0.5763	0.1184	0.035
Mof_C 	C 	0.6606	0.5381	0.1272	0.081
Mof_H 	H 	0.6627	0.5326	0.0899	0.066
Mof_C 	C 	0.598	0.5996	0.2201	0.05
Mof_H 	H 	0.5822	0.6133	0.1952	-0.067
Mof_C 	C 	0.6828	0.5267	0.219	0.039
Mof_H 	H 	0.7002	0.5144	0.2433	-0.085
Mof_C 	C 	0.5931	0.6055	0.2711	-0.076
Mof_C 	C 	0.6456	0.5618	0.2951	-0.124
Mof_H 	H 	0.6614	0.5495	0.3213	0.077
Mof_C 	C 	0.6177	0.5865	0.3116	0.125
Mof_H 	H 	0.6142	0.5917	0.3488	0.018
Mof_C 	C 	0.691	0.5169	0.2452	0.115
Mof_H 	H 	0.7096	0.5023	0.2647	0.047
Mof_C 	C 	0.6892	0.5147	0.1835	-0.093
Mof_C 	C 	0.6632	0.5362	0.1567	0.055
Mof_H 	H 	0.663	0.5358	0.1185	-0.082
Mof_C 	C 	0.635	0.5603	0.1855	-0.013
Mof_C 	C 	0.6372	0.5627	0.242	0.046
Mof_C 	C 	0.6656	0.5396	0.2707	-0.051
Mof_H 	H 	0.6663	0.5408	0.3089	0.015
Mof_C 	C 	0.6094	0.5877	0.2685	0.039
Mof_H 	H 	0.6095	0.5885	0.3066	-0.053
Mof_C 	C 	0.5824	0.6106	0.2414	-0.063
Mof_C 	C 	0.5814	0.6078	0.1834	0.14
Mof_H 	H 	0.5627	0.6223	0.1639	0.022
Mof_C 	C 	0.6074	0.584	0.1553	-0.123
Mof_H 	H 	0.607	0.5833	0.1171	0.055
Mof_C 	C 	0.0204	0.6737	0.473	-0.213
Mof_C 	C 	0.9968	0.6525	0.5109	0.23
Mof_H 	H 	0.0003	0.6561	0.5485	0.016
Mof_C 	C 	0.9693	0.6272	0.4924	0.98
Mof_H 	H 	0.9527	0.6147	0.5174	-1.261
Mof_C 	C 	0.0153	0.6685	0.4167	-0.148
Mof_H 	H 	0.0302	0.6837	0.3925	-0.112
Mof_C 	C 	0.99	0.6427	0.3967	-0.374
Mof_C 	C 	0.9651	0.6195	0.4386	-0.181
Mof_C 	C 	0.9383	0.5935	0.4123	0.653
Mof_H 	H 	0.9219	0.5791	0.4356	0.002
Mof_C 	C 	0.9333	0.5869	0.3603	-0.488
Mof_C 	C 	0.9595	0.6083	0.3222	0.102
Mof_H 	H 	0.958	0.6034	0.2847	0.052
Mof_C 	C 	0.9851	0.6348	0.341	-0.243
Mof_H 	H 	0.0005	0.6486	0.3158	-0.146
Mof_Cd	Cd	0.25106	0.93271	0.06878	0.485
Mof_Cd	Cd	0.35792	0.00172	0.2854	0.486
Mof_Mg	Mg	0.30738	0.96819	0.17334	1.48
Mof_O 	O 	0.57349	0.22654	0.4562	-0.425
Mof_O 	O 	0.32188	0.96014	0.3372	-0.287
Mof_O 	O 	0.30421	0.94865	0.2512	-0.481
Mof_O 	O 	0.55656	0.19955	0.5345	-0.234
Mof_O 	O 	0.46386	0.72217	0.2635	-0.29
Mof_O 	O 	0.43868	0.7375	0.3447	-0.48
Mof_O 	O 	0.0486	0.1321	0.3309	-0.262
Mof_O 	O 	0.0404	0.1602	0.2504	-0.241
Mof_O 	O 	0.24831	0.98315	0.1777	-0.475
Mof_O 	O 	0.21114	0.97775	0.103	-0.315
Mof_O 	O 	0.37932	0.03024	0.369	-0.285
Mof_O 	O 	0.4063	0.05027	0.2915	-0.273
Mof_O 	O 	0.11583	0.79657	0.4208	-0.459
Mof_O 	O 	0.1491	0.79141	0.5009	-0.295
Mof_O 	O 	0.28997	0.91248	0.1435	-0.443
Mof_O 	O 	0.30085	0.88355	0.0643	-0.27
Mof_C 	C 	0.1768	0.8311	0.4323	-0.077
Mof_C 	C 	0.2037	0.8474	0.4691	0.02
Mof_H 	H 	0.2017	0.8415	0.5063	0.044
Mof_C 	C 	0.2183	0.9907	0.1496	0.412
Mof_C 	C 	0.2327	0.8718	0.4515	-0.09
Mof_H 	H 	0.2502	0.8827	0.4768	0.07
Mof_C 	C 	0.0576	0.1347	0.2827	0.312
Mof_C 	C 	0.2665	0.9066	0.376	-0.037
Mof_H 	H 	0.2842	0.9178	0.4008	0.067
Mof_C 	C 	0.3011	0.9434	0.3018	0.387
Mof_C 	C 	0.2695	0.9154	0.3213	-0.085
Mof_C 	C 	0.237	0.8808	0.3949	0.031
Mof_C 	C 	0.1793	0.8394	0.3778	-0.036
Mof_H 	H 	0.1611	0.8283	0.3535	0.064
Mof_C 	C 	0.2094	0.8648	0.3575	0.031
Mof_C 	C 	0.2132	0.8738	0.302	-0.089
Mof_H 	H 	0.1952	0.863	0.2772	0.072
Mof_C 	C 	0.2427	0.8983	0.2826	0.013
Mof_H 	H 	0.2451	0.9035	0.2453	0.045
Mof_C 	C 	0.1444	0.8044	0.4522	0.364
Mof_C 	C 	0.5264	0.1765	0.4455	0.419
Mof_C 	C 	0.5286	0.1775	0.3886	0.123
Mof_H 	H 	0.5465	0.1943	0.3716	0.02
Mof_C 	C 	0.5006	0.1521	0.4715	-0.38
Mof_H 	H 	0.4999	0.1513	0.5096	-0.133
Mof_C 	C 	0.505	0.1544	0.3579	0.176
Mof_H 	H 	0.5062	0.1555	0.3198	0.188
Mof_C 	C 	0.4779	0.1281	0.3846	0.291
Mof_C 	C 	0.4525	0.1026	0.3529	0.173
Mof_H 	H 	0.4537	0.103	0.3148	-0.057
Mof_C 	C 	0.4267	0.078	0.3791	-0.025
Mof_C 	C 	0.4229	0.0786	0.4363	-0.047
Mof_H 	H 	0.4044	0.0625	0.4536	0.069
Mof_C 	C 	0.4467	0.103	0.4667	-1.374
Mof_H 	H 	0.4445	0.1033	0.5048	1.404
Mof_C 	C 	0.4746	0.1278	0.4405	0.328
Mof_C 	C 	0.5531	0.202	0.4838	0.251
Mof_C 	C 	0.4027	0.0514	0.343	0.412
Mof_C 	C 	0.4409	0.7416	0.2939	0.383
Mof_C 	C 	0.4139	0.7714	0.2675	-0.09
Mof_C 	C 	0.3884	0.7947	0.3014	0.019
Mof_H 	H 	0.388	0.7906	0.3391	0.039
Mof_C 	C 	0.3651	0.8224	0.2788	-0.093
Mof_H 	H 	0.3494	0.838	0.3014	0.073
Mof_C 	C 	0.3641	0.8282	0.2212	0.032
Mof_C 	C 	0.3381	0.8562	0.1949	-0.037
Mof_H 	H 	0.3224	0.8725	0.2165	0.059
Mof_C 	C 	0.336	0.8592	0.1406	-0.077
Mof_C 	C 	0.3076	0.887	0.1143	0.342
Mof_C 	C 	0.3602	0.8351	0.1072	0.013
Mof_H 	H 	0.3585	0.8372	0.0692	0.048
Mof_C 	C 	0.3861	0.8087	0.1301	-0.084
Mof_H 	H 	0.4023	0.7934	0.1077	0.066
Mof_C 	C 	0.3881	0.8048	0.1867	0.028
Mof_C 	C 	0.4136	0.7768	0.2122	-0.032
Mof_H 	H 	0.4304	0.7618	0.1903	0.062
Mof_C 	C 	0.1862	0.0198	0.1628	-0.064
Mof_C 	C 	0.1276	0.0725	0.1993	0.017
Mof_C 	C 	0.152	0.0535	0.2402	-0.016
Mof_C 	C 	0.1321	0.0642	0.1441	-0.03
Mof_H 	H 	0.1157	0.0763	0.1184	0.035
Mof_C 	C 	0.1606	0.0381	0.1272	0.081
Mof_H 	H 	0.1627	0.0326	0.0899	0.066
Mof_C 	C 	0.098	0.0996	0.2201	0.05
Mof_H 	H 	0.0822	0.1133	0.1952	-0.067
Mof_C 	C 	0.1828	0.0267	0.219	0.039
Mof_H 	H 	0.2002	0.0144	0.2433	-0.085
Mof_C 	C 	0.0931	0.1055	0.2711	-0.076
Mof_C 	C 	0.1456	0.0618	0.2951	-0.124
Mof_H 	H 	0.1614	0.0495	0.3213	0.077
Mof_C 	C 	0.1177	0.0865	0.3116	0.125
Mof_H 	H 	0.1142	0.0917	0.3488	0.018
Mof_C 	C 	0.191	0.0169	0.2452	0.115
Mof_H 	H 	0.2096	0.0023	0.2647	0.047
Mof_C 	C 	0.1892	0.0147	0.1835	-0.093
Mof_C 	C 	0.1632	0.0362	0.1567	0.055
Mof_H 	H 	0.163	0.0358	0.1185	-0.082
Mof_C 	C 	0.135	0.0603	0.1855	-0.013
Mof_C 	C 	0.1372	0.0627	0.242	0.046
Mof_C 	C 	0.1656	0.0396	0.2707	-0.051
Mof_H 	H 	0.1663	0.0408	0.3089	0.015
Mof_C 	C 	0.1094	0.0877	0.2685	0.039
Mof_H 	H 	0.1095	0.0885	0.3066	-0.053
Mof_C 	C 	0.0824	0.1106	0.2414	-0.063
Mof_C 	C 	0.0814	0.1078	0.1834	0.14
Mof_H 	H 	0.0627	0.1223	0.1639	0.022
Mof_C 	C 	0.1074	0.084	0.1553	-0.123
Mof_H 	H 	0.107	0.0833	0.1171	0.055
Mof_C 	C 	0.5204	0.1737	0.473	-0.213
Mof_C 	C 	0.4968	0.1525	0.5109	0.23
Mof_H 	H 	0.5003	0.1561	0.5485	0.016
Mof_C 	C 	0.4693	0.1272	0.4924	0.981
Mof_H 	H 	0.4527	0.1147	0.5174	-1.262
Mof_C 	C 	0.5153	0.1685	0.4167	-0.148
Mof_H 	H 	0.5302	0.1837	0.3925	-0.112
Mof_C 	C 	0.49	0.1427	0.3967	-0.374
Mof_C 	C 	0.4651	0.1195	0.4386	-0.181
Mof_C 	C 	0.4383	0.0935	0.4123	0.653
Mof_H 	H 	0.4219	0.0791	0.4356	0.002
Mof_C 	C 	0.4333	0.0869	0.3603	-0.489
Mof_C 	C 	0.4595	0.1083	0.3222	0.102
Mof_H 	H 	0.458	0.1034	0.2847	0.052
Mof_C 	C 	0.4851	0.1348	0.341	-0.243
Mof_H 	H 	0.5005	0.1486	0.3158	-0.146
Mof_Cd	Cd	0.25106	0.43271	0.56878	0.484
Mof_Cd	Cd	0.35792	0.50172	0.7854	0.485
Mof_Mg	Mg	0.30738	0.46819	0.67334	1.48
Mof_O 	O 	0.57349	0.72654	0.9562	-0.435
Mof_O 	O 	0.32188	0.46014	0.8372	-0.29
Mof_O 	O 	0.30421	0.44865	0.7512	-0.482
Mof_O 	O 	0.55656	0.69955	0.0345	-0.241
Mof_O 	O 	0.46386	0.22217	0.7635	-0.29
Mof_O 	O 	0.43868	0.2375	0.8447	-0.479
Mof_O 	O 	0.0486	0.6321	0.8309	-0.263
Mof_O 	O 	0.0404	0.6602	0.7504	-0.241
Mof_O 	O 	0.24831	0.48315	0.6777	-0.475
Mof_O 	O 	0.21114	0.47775	0.603	-0.316
Mof_O 	O 	0.37932	0.53024	0.869	-0.271
Mof_O 	O 	0.4063	0.55027	0.7915	-0.266
Mof_O 	O 	0.11583	0.29657	0.9208	-0.455
Mof_O 	O 	0.1491	0.29141	0.0009	-0.28
Mof_O 	O 	0.28997	0.41248	0.6435	-0.443
Mof_O 	O 	0.30085	0.38355	0.5643	-0.272
Mof_C 	C 	0.1768	0.3311	0.9323	-0.048
Mof_C 	C 	0.2037	0.3474	0.9691	-0.035
Mof_H 	H 	0.2017	0.3415	0.0063	0.071
Mof_C 	C 	0.2183	0.4907	0.6496	0.411
Mof_C 	C 	0.2327	0.3718	0.9515	-0.054
Mof_H 	H 	0.2502	0.3827	0.9768	0.053
Mof_C 	C 	0.0576	0.6347	0.7827	0.312
Mof_C 	C 	0.2665	0.4066	0.876	-0.022
Mof_H 	H 	0.2842	0.4178	0.9008	0.06
Mof_C 	C 	0.3011	0.4434	0.8018	0.391
Mof_C 	C 	0.2695	0.4154	0.8213	-0.095
Mof_C 	C 	0.237	0.3808	0.8949	0.008
Mof_C 	C 	0.1793	0.3394	0.8778	-0.059
Mof_H 	H 	0.1611	0.3283	0.8535	0.071
Mof_C 	C 	0.2094	0.3648	0.8575	0.049
Mof_C 	C 	0.2132	0.3738	0.802	-0.103
Mof_H 	H 	0.1952	0.363	0.7772	0.077
Mof_C 	C 	0.2427	0.3983	0.7826	0.024
Mof_H 	H 	0.2451	0.4035	0.7453	0.041
Mof_C 	C 	0.1444	0.3044	0.9522	0.339
Mof_C 	C 	0.5264	0.6765	0.9455	0.181
Mof_C 	C 	0.5286	0.6775	0.8886	0.113
Mof_H 	H 	0.5465	0.6943	0.8716	0.026
Mof_C 	C 	0.5006	0.6521	0.9715	-0.193
Mof_H 	H 	0.4999	0.6513	0.0096	-0.07
Mof_C 	C 	0.505	0.6544	0.8579	0.055
Mof_H 	H 	0.5062	0.6555	0.8198	0.116
Mof_C 	C 	0.4779	0.6281	0.8846	0.142
Mof_C 	C 	0.4525	0.6026	0.8529	0.117
Mof_H 	H 	0.4537	0.603	0.8148	-0.072
Mof_C 	C 	0.4267	0.578	0.8791	-0.028
Mof_C 	C 	0.4229	0.5786	0.9363	0.019
Mof_H 	H 	0.4044	0.5625	0.9536	0.05
Mof_C 	C 	0.4467	0.603	0.9667	-0.762
Mof_H 	H 	0.4445	0.6033	0.0048	0.76
Mof_C 	C 	0.4746	0.6278	0.9405	0.2
Mof_C 	C 	0.5531	0.702	0.9838	0.288
Mof_C 	C 	0.4027	0.5514	0.843	0.361
Mof_C 	C 	0.4409	0.2416	0.7939	0.384
Mof_C 	C 	0.4139	0.2714	0.7675	-0.089
Mof_C 	C 	0.3884	0.2947	0.8014	0.019
Mof_H 	H 	0.388	0.2906	0.8391	0.04
Mof_C 	C 	0.3651	0.3224	0.7788	-0.092
Mof_H 	H 	0.3494	0.338	0.8014	0.073
Mof_C 	C 	0.3641	0.3282	0.7212	0.031
Mof_C 	C 	0.3381	0.3562	0.6949	-0.036
Mof_H 	H 	0.3224	0.3725	0.7165	0.058
Mof_C 	C 	0.336	0.3592	0.6406	-0.079
Mof_C 	C 	0.3076	0.387	0.6143	0.343
Mof_C 	C 	0.3602	0.3351	0.6072	0.014
Mof_H 	H 	0.3585	0.3372	0.5692	0.046
Mof_C 	C 	0.3861	0.3087	0.6301	-0.086
Mof_H 	H 	0.4023	0.2934	0.6077	0.066
Mof_C 	C 	0.3881	0.3048	0.6867	0.029
Mof_C 	C 	0.4136	0.2768	0.7122	-0.033
Mof_H 	H 	0.4304	0.2618	0.6903	0.062
Mof_C 	C 	0.1862	0.5198	0.6628	-0.063
Mof_C 	C 	0.1276	0.5725	0.6993	0.018
Mof_C 	C 	0.152	0.5535	0.7402	-0.016
Mof_C 	C 	0.1321	0.5642	0.6441	-0.03
Mof_H 	H 	0.1157	0.5763	0.6184	0.034
Mof_C 	C 	0.1606	0.5381	0.6272	0.082
Mof_H 	H 	0.1627	0.5326	0.5899	0.063
Mof_C 	C 	0.098	0.5996	0.7201	0.05
Mof_H 	H 	0.0822	0.6133	0.6952	-0.067
Mof_C 	C 	0.1828	0.5267	0.719	0.038
Mof_H 	H 	0.2002	0.5144	0.7433	-0.085
Mof_C 	C 	0.0931	0.6055	0.7711	-0.075
Mof_C 	C 	0.1456	0.5618	0.7951	-0.126
Mof_H 	H 	0.1614	0.5495	0.8213	0.078
Mof_C 	C 	0.1177	0.5865	0.8116	0.125
Mof_H 	H 	0.1142	0.5917	0.8488	0.016
Mof_C 	C 	0.191	0.5169	0.7452	0.115
Mof_H 	H 	0.2096	0.5023	0.7647	0.046
Mof_C 	C 	0.1892	0.5147	0.6835	-0.093
Mof_C 	C 	0.1632	0.5362	0.6567	0.053
Mof_H 	H 	0.163	0.5358	0.6185	-0.081
Mof_C 	C 	0.135	0.5603	0.6855	-0.014
Mof_C 	C 	0.1372	0.5627	0.742	0.046
Mof_C 	C 	0.1656	0.5396	0.7707	-0.05
Mof_H 	H 	0.1663	0.5408	0.8089	0.013
Mof_C 	C 	0.1094	0.5877	0.7685	0.038
Mof_H 	H 	0.1095	0.5885	0.8066	-0.053
Mof_C 	C 	0.0824	0.6106	0.7414	-0.064
Mof_C 	C 	0.0814	0.6078	0.6834	0.14
Mof_H 	H 	0.0627	0.6223	0.6639	0.022
Mof_C 	C 	0.1074	0.584	0.6553	-0.124
Mof_H 	H 	0.107	0.5833	0.6171	0.055
Mof_C 	C 	0.5204	0.6737	0.973	-0.15
Mof_C 	C 	0.4968	0.6525	0.0109	0.163
Mof_H 	H 	0.5003	0.6561	0.0485	0.022
Mof_C 	C 	0.4693	0.6272	0.9924	0.431
Mof_H 	H 	0.4527	0.6147	0.0174	-0.618
Mof_C 	C 	0.5153	0.6685	0.9167	-0.049
Mof_H 	H 	0.5302	0.6837	0.8925	-0.094
Mof_C 	C 	0.49	0.6427	0.8967	-0.19
Mof_C 	C 	0.4651	0.6195	0.9386	-0.087
Mof_C 	C 	0.4383	0.5935	0.9123	0.351
Mof_H 	H 	0.4219	0.5791	0.9356	-0.023
Mof_C 	C 	0.4333	0.5869	0.8603	-0.298
Mof_C 	C 	0.4595	0.6083	0.8222	0.109
Mof_H 	H 	0.458	0.6034	0.7847	0.05
Mof_C 	C 	0.4851	0.6348	0.841	-0.16
Mof_H 	H 	0.5005	0.6486	0.8158	-0.06
Mof_Cd	Cd	0.74894	0.56729	0.56878	0.484
Mof_Cd	Cd	0.64208	0.49828	0.7854	0.485
Mof_Mg	Mg	0.69262	0.53181	0.67334	1.48
Mof_O 	O 	0.42651	0.27346	0.9562	-0.435
Mof_O 	O 	0.67812	0.53986	0.8372	-0.29
Mof_O 	O 	0.69579	0.55135	0.7512	-0.482
Mof_O 	O 	0.44344	0.30045	0.0345	-0.241
Mof_O 	O 	0.53614	0.77783	0.7635	-0.29
Mof_O 	O 	0.56132	0.7625	0.8447	-0.479
Mof_O 	O 	0.9514	0.3679	0.8309	-0.263
Mof_O 	O 	0.9596	0.3398	0.7504	-0.241
Mof_O 	O 	0.75169	0.51685	0.6777	-0.475
Mof_O 	O 	0.78886	0.52225	0.603	-0.316
Mof_O 	O 	0.62068	0.46976	0.869	-0.271
Mof_O 	O 	0.5937	0.44973	0.7915	-0.266
Mof_O 	O 	0.88417	0.70343	0.9208	-0.455
Mof_O 	O 	0.8509	0.70859	0.0009	-0.28
Mof_O 	O 	0.71003	0.58752	0.6435	-0.443
Mof_O 	O 	0.69915	0.61645	0.5643	-0.272
Mof_C 	C 	0.8232	0.6689	0.9323	-0.048
Mof_C 	C 	0.7963	0.6526	0.9691	-0.035
Mof_H 	H 	0.7983	0.6585	0.0063	0.071
Mof_C 	C 	0.7817	0.5093	0.6496	0.411
Mof_C 	C 	0.7673	0.6282	0.9515	-0.054
Mof_H 	H 	0.7498	0.6173	0.9768	0.053
Mof_C 	C 	0.9424	0.3653	0.7827	0.312
Mof_C 	C 	0.7335	0.5934	0.876	-0.022
Mof_H 	H 	0.7158	0.5822	0.9008	0.06
Mof_C 	C 	0.6989	0.5566	0.8018	0.391
Mof_C 	C 	0.7305	0.5846	0.8213	-0.095
Mof_C 	C 	0.763	0.6192	0.8949	0.008
Mof_C 	C 	0.8207	0.6606	0.8778	-0.059
Mof_H 	H 	0.8389	0.6717	0.8535	0.071
Mof_C 	C 	0.7906	0.6352	0.8575	0.049
Mof_C 	C 	0.7868	0.6262	0.802	-0.103
Mof_H 	H 	0.8048	0.637	0.7772	0.077
Mof_C 	C 	0.7573	0.6017	0.7826	0.024
Mof_H 	H 	0.7549	0.5965	0.7453	0.041
Mof_C 	C 	0.8556	0.6956	0.9522	0.339
Mof_C 	C 	0.4736	0.3235	0.9455	0.181
Mof_C 	C 	0.4714	0.3225	0.8886	0.113
Mof_H 	H 	0.4535	0.3057	0.8716	0.026
Mof_C 	C 	0.4994	0.3479	0.9715	-0.193
Mof_H 	H 	0.5001	0.3487	0.0096	-0.07
Mof_C 	C 	0.495	0.3456	0.8579	0.055
Mof_H 	H 	0.4938	0.3445	0.8198	0.116
Mof_C 	C 	0.5221	0.3719	0.8846	0.142
Mof_C 	C 	0.5475	0.3974	0.8529	0.117
Mof_H 	H 	0.5463	0.397	0.8148	-0.072
Mof_C 	C 	0.5733	0.422	0.8791	-0.028
Mof_C 	C 	0.5771	0.4214	0.9363	0.019
Mof_H 	H 	0.5956	0.4375	0.9536	0.05
Mof_C 	C 	0.5533	0.397	0.9667	-0.762
Mof_H 	H 	0.5555	0.3967	0.0048	0.76
Mof_C 	C 	0.5254	0.3722	0.9405	0.2
Mof_C 	C 	0.4469	0.298	0.9838	0.288
Mof_C 	C 	0.5973	0.4486	0.843	0.361
Mof_C 	C 	0.5591	0.7584	0.7939	0.384
Mof_C 	C 	0.5861	0.7286	0.7675	-0.089
Mof_C 	C 	0.6116	0.7053	0.8014	0.019
Mof_H 	H 	0.612	0.7094	0.8391	0.04
Mof_C 	C 	0.6349	0.6776	0.7788	-0.092
Mof_H 	H 	0.6506	0.662	0.8014	0.073
Mof_C 	C 	0.6359	0.6718	0.7212	0.031
Mof_C 	C 	0.6619	0.6438	0.6949	-0.036
Mof_H 	H 	0.6776	0.6275	0.7165	0.058
Mof_C 	C 	0.664	0.6408	0.6406	-0.079
Mof_C 	C 	0.6924	0.613	0.6143	0.343
Mof_C 	C 	0.6398	0.6649	0.6072	0.014
Mof_H 	H 	0.6415	0.6628	0.5692	0.046
Mof_C 	C 	0.6139	0.6913	0.6301	-0.086
Mof_H 	H 	0.5977	0.7066	0.6077	0.066
Mof_C 	C 	0.6119	0.6952	0.6867	0.029
Mof_C 	C 	0.5864	0.7232	0.7122	-0.033
Mof_H 	H 	0.5696	0.7382	0.6903	0.062
Mof_C 	C 	0.8138	0.4802	0.6628	-0.063
Mof_C 	C 	0.8724	0.4275	0.6993	0.018
Mof_C 	C 	0.848	0.4465	0.7402	-0.016
Mof_C 	C 	0.8679	0.4358	0.6441	-0.03
Mof_H 	H 	0.8843	0.4237	0.6184	0.034
Mof_C 	C 	0.8394	0.4619	0.6272	0.082
Mof_H 	H 	0.8373	0.4674	0.5899	0.063
Mof_C 	C 	0.902	0.4004	0.7201	0.05
Mof_H 	H 	0.9178	0.3867	0.6952	-0.067
Mof_C 	C 	0.8172	0.4733	0.719	0.038
Mof_H 	H 	0.7998	0.4856	0.7433	-0.085
Mof_C 	C 	0.9069	0.3945	0.7711	-0.075
Mof_C 	C 	0.8544	0.4382	0.7951	-0.126
Mof_H 	H 	0.8386	0.4505	0.8213	0.078
Mof_C 	C 	0.8823	0.4135	0.8116	0.125
Mof_H 	H 	0.8858	0.4083	0.8488	0.016
Mof_C 	C 	0.809	0.4831	0.7452	0.115
Mof_H 	H 	0.7904	0.4977	0.7647	0.046
Mof_C 	C 	0.8108	0.4853	0.6835	-0.093
Mof_C 	C 	0.8368	0.4638	0.6567	0.053
Mof_H 	H 	0.837	0.4642	0.6185	-0.081
Mof_C 	C 	0.865	0.4397	0.6855	-0.014
Mof_C 	C 	0.8628	0.4373	0.742	0.046
Mof_C 	C 	0.8344	0.4604	0.7707	-0.05
Mof_H 	H 	0.8337	0.4592	0.8089	0.013
Mof_C 	C 	0.8906	0.4123	0.7685	0.038
Mof_H 	H 	0.8905	0.4115	0.8066	-0.053
Mof_C 	C 	0.9176	0.3894	0.7414	-0.064
Mof_C 	C 	0.9186	0.3922	0.6834	0.14
Mof_H 	H 	0.9373	0.3777	0.6639	0.022
Mof_C 	C 	0.8926	0.416	0.6553	-0.124
Mof_H 	H 	0.893	0.4167	0.6171	0.055
Mof_C 	C 	0.4796	0.3263	0.973	-0.15
Mof_C 	C 	0.5032	0.3475	0.0109	0.163
Mof_H 	H 	0.4997	0.3439	0.0485	0.022
Mof_C 	C 	0.5307	0.3728	0.9924	0.431
Mof_H 	H 	0.5473	0.3853	0.0174	-0.618
Mof_C 	C 	0.4847	0.3315	0.9167	-0.049
Mof_H 	H 	0.4698	0.3163	0.8925	-0.094
Mof_C 	C 	0.51	0.3573	0.8967	-0.19
Mof_C 	C 	0.5349	0.3805	0.9386	-0.087
Mof_C 	C 	0.5617	0.4065	0.9123	0.351
Mof_H 	H 	0.5781	0.4209	0.9356	-0.023
Mof_C 	C 	0.5667	0.4131	0.8603	-0.298
Mof_C 	C 	0.5405	0.3917	0.8222	0.109
Mof_H 	H 	0.542	0.3966	0.7847	0.05
Mof_C 	C 	0.5149	0.3652	0.841	-0.16
Mof_H 	H 	0.4995	0.3514	0.8158	-0.06
Mof_Cd	Cd	0.74894	0.06729	0.06878	0.485
Mof_Cd	Cd	0.64208	0.99828	0.2854	0.486
Mof_Mg	Mg	0.69262	0.03181	0.17334	1.48
Mof_O 	O 	0.42651	0.77346	0.4562	-0.425
Mof_O 	O 	0.67812	0.03986	0.3372	-0.287
Mof_O 	O 	0.69579	0.05135	0.2512	-0.481
Mof_O 	O 	0.44344	0.80045	0.5345	-0.234
Mof_O 	O 	0.53614	0.27783	0.2635	-0.29
Mof_O 	O 	0.56132	0.2625	0.3447	-0.48
Mof_O 	O 	0.9514	0.8679	0.3309	-0.262
Mof_O 	O 	0.9596	0.8398	0.2504	-0.241
Mof_O 	O 	0.75169	0.01685	0.1777	-0.475
Mof_O 	O 	0.78886	0.02225	0.103	-0.315
Mof_O 	O 	0.62068	0.96976	0.369	-0.285
Mof_O 	O 	0.5937	0.94973	0.2915	-0.273
Mof_O 	O 	0.88417	0.20343	0.4208	-0.459
Mof_O 	O 	0.8509	0.20859	0.5009	-0.295
Mof_O 	O 	0.71003	0.08752	0.1435	-0.443
Mof_O 	O 	0.69915	0.11645	0.0643	-0.27
Mof_C 	C 	0.8232	0.1689	0.4323	-0.077
Mof_C 	C 	0.7963	0.1526	0.4691	0.02
Mof_H 	H 	0.7983	0.1585	0.5063	0.044
Mof_C 	C 	0.7817	0.0093	0.1496	0.412
Mof_C 	C 	0.7673	0.1282	0.4515	-0.09
Mof_H 	H 	0.7498	0.1173	0.4768	0.07
Mof_C 	C 	0.9424	0.8653	0.2827	0.312
Mof_C 	C 	0.7335	0.0934	0.376	-0.037
Mof_H 	H 	0.7158	0.0822	0.4008	0.067
Mof_C 	C 	0.6989	0.0566	0.3018	0.387
Mof_C 	C 	0.7305	0.0846	0.3213	-0.085
Mof_C 	C 	0.763	0.1192	0.3949	0.031
Mof_C 	C 	0.8207	0.1606	0.3778	-0.036
Mof_H 	H 	0.8389	0.1717	0.3535	0.064
Mof_C 	C 	0.7906	0.1352	0.3575	0.031
Mof_C 	C 	0.7868	0.1262	0.302	-0.089
Mof_H 	H 	0.8048	0.137	0.2772	0.072
Mof_C 	C 	0.7573	0.1017	0.2826	0.013
Mof_H 	H 	0.7549	0.0965	0.2453	0.045
Mof_C 	C 	0.8556	0.1956	0.4522	0.364
Mof_C 	C 	0.4736	0.8235	0.4455	0.419
Mof_C 	C 	0.4714	0.8225	0.3886	0.123
Mof_H 	H 	0.4535	0.8057	0.3716	0.02
Mof_C 	C 	0.4994	0.8479	0.4715	-0.38
Mof_H 	H 	0.5001	0.8487	0.5096	-0.133
Mof_C 	C 	0.495	0.8456	0.3579	0.176
Mof_H 	H 	0.4938	0.8445	0.3198	0.188
Mof_C 	C 	0.5221	0.8719	0.3846	0.291
Mof_C 	C 	0.5475	0.8974	0.3529	0.173
Mof_H 	H 	0.5463	0.897	0.3148	-0.057
Mof_C 	C 	0.5733	0.922	0.3791	-0.025
Mof_C 	C 	0.5771	0.9214	0.4363	-0.047
Mof_H 	H 	0.5956	0.9375	0.4536	0.069
Mof_C 	C 	0.5533	0.897	0.4667	-1.374
Mof_H 	H 	0.5555	0.8967	0.5048	1.404
Mof_C 	C 	0.5254	0.8722	0.4405	0.328
Mof_C 	C 	0.4469	0.798	0.4838	0.251
Mof_C 	C 	0.5973	0.9486	0.343	0.412
Mof_C 	C 	0.5591	0.2584	0.2939	0.383
Mof_C 	C 	0.5861	0.2286	0.2675	-0.09
Mof_C 	C 	0.6116	0.2053	0.3014	0.019
Mof_H 	H 	0.612	0.2094	0.3391	0.039
Mof_C 	C 	0.6349	0.1776	0.2788	-0.093
Mof_H 	H 	0.6506	0.162	0.3014	0.073
Mof_C 	C 	0.6359	0.1718	0.2212	0.032
Mof_C 	C 	0.6619	0.1438	0.1949	-0.037
Mof_H 	H 	0.6776	0.1275	0.2165	0.059
Mof_C 	C 	0.664	0.1408	0.1406	-0.077
Mof_C 	C 	0.6924	0.113	0.1143	0.342
Mof_C 	C 	0.6398	0.1649	0.1072	0.013
Mof_H 	H 	0.6415	0.1628	0.0692	0.048
Mof_C 	C 	0.6139	0.1913	0.1301	-0.084
Mof_H 	H 	0.5977	0.2066	0.1077	0.066
Mof_C 	C 	0.6119	0.1952	0.1867	0.028
Mof_C 	C 	0.5864	0.2232	0.2122	-0.032
Mof_H 	H 	0.5696	0.2382	0.1903	0.062
Mof_C 	C 	0.8138	0.9802	0.1628	-0.064
Mof_C 	C 	0.8724	0.9275	0.1993	0.017
Mof_C 	C 	0.848	0.9465	0.2402	-0.016
Mof_C 	C 	0.8679	0.9358	0.1441	-0.03
Mof_H 	H 	0.8843	0.9237	0.1184	0.035
Mof_C 	C 	0.8394	0.9619	0.1272	0.081
Mof_H 	H 	0.8373	0.9674	0.0899	0.066
Mof_C 	C 	0.902	0.9004	0.2201	0.05
Mof_H 	H 	0.9178	0.8867	0.1952	-0.067
Mof_C 	C 	0.8172	0.9733	0.219	0.039
Mof_H 	H 	0.7998	0.9856	0.2433	-0.085
Mof_C 	C 	0.9069	0.8945	0.2711	-0.076
Mof_C 	C 	0.8544	0.9382	0.2951	-0.124
Mof_H 	H 	0.8386	0.9505	0.3213	0.077
Mof_C 	C 	0.8823	0.9135	0.3116	0.125
Mof_H 	H 	0.8858	0.9083	0.3488	0.018
Mof_C 	C 	0.809	0.9831	0.2452	0.115
Mof_H 	H 	0.7904	0.9977	0.2647	0.047
Mof_C 	C 	0.8108	0.9853	0.1835	-0.093
Mof_C 	C 	0.8368	0.9638	0.1567	0.055
Mof_H 	H 	0.837	0.9642	0.1185	-0.082
Mof_C 	C 	0.865	0.9397	0.1855	-0.013
Mof_C 	C 	0.8628	0.9373	0.242	0.046
Mof_C 	C 	0.8344	0.9604	0.2707	-0.051
Mof_H 	H 	0.8337	0.9592	0.3089	0.015
Mof_C 	C 	0.8906	0.9123	0.2685	0.039
Mof_H 	H 	0.8905	0.9115	0.3066	-0.053
Mof_C 	C 	0.9176	0.8894	0.2414	-0.063
Mof_C 	C 	0.9186	0.8922	0.1834	0.14
Mof_H 	H 	0.9373	0.8777	0.1639	0.022
Mof_C 	C 	0.8926	0.916	0.1553	-0.123
Mof_H 	H 	0.893	0.9167	0.1171	0.055
Mof_C 	C 	0.4796	0.8263	0.473	-0.213
Mof_C 	C 	0.5032	0.8475	0.5109	0.23
Mof_H 	H 	0.4997	0.8439	0.5485	0.016
Mof_C 	C 	0.5307	0.8728	0.4924	0.981
Mof_H 	H 	0.5473	0.8853	0.5174	-1.262
Mof_C 	C 	0.4847	0.8315	0.4167	-0.148
Mof_H 	H 	0.4698	0.8163	0.3925	-0.112
Mof_C 	C 	0.51	0.8573	0.3967	-0.374
Mof_C 	C 	0.5349	0.8805	0.4386	-0.181
Mof_C 	C 	0.5617	0.9065	0.4123	0.653
Mof_H 	H 	0.5781	0.9209	0.4356	0.002
Mof_C 	C 	0.5667	0.9131	0.3603	-0.489
Mof_C 	C 	0.5405	0.8917	0.3222	0.102
Mof_H 	H 	0.542	0.8966	0.2847	0.052
Mof_C 	C 	0.5149	0.8652	0.341	-0.243
Mof_H 	H 	0.4995	0.8514	0.3158	-0.146
Mof_Cd	Cd	0.24894	0.56729	0.06878	0.485
Mof_Cd	Cd	0.14208	0.49828	0.2854	0.486
Mof_Mg	Mg	0.19262	0.53181	0.17334	1.48
Mof_O 	O 	0.92651	0.27346	0.4562	-0.425
Mof_O 	O 	0.17812	0.53986	0.3372	-0.287
Mof_O 	O 	0.19579	0.55135	0.2512	-0.481
Mof_O 	O 	0.94344	0.30045	0.5345	-0.234
Mof_O 	O 	0.03614	0.77783	0.2635	-0.29
Mof_O 	O 	0.06132	0.7625	0.3447	-0.48
Mof_O 	O 	0.4514	0.3679	0.3309	-0.262
Mof_O 	O 	0.4596	0.3398	0.2504	-0.241
Mof_O 	O 	0.25169	0.51685	0.1777	-0.475
Mof_O 	O 	0.28886	0.52225	0.103	-0.315
Mof_O 	O 	0.12068	0.46976	0.369	-0.285
Mof_O 	O 	0.0937	0.44973	0.2915	-0.273
Mof_O 	O 	0.38417	0.70343	0.4208	-0.459
Mof_O 	O 	0.3509	0.70859	0.5009	-0.295
Mof_O 	O 	0.21003	0.58752	0.1435	-0.443
Mof_O 	O 	0.19915	0.61645	0.0643	-0.27
Mof_C 	C 	0.3232	0.6689	0.4323	-0.077
Mof_C 	C 	0.2963	0.6526	0.4691	0.02
Mof_H 	H 	0.2983	0.6585	0.5063	0.044
Mof_C 	C 	0.2817	0.5093	0.1496	0.412
Mof_C 	C 	0.2673	0.6282	0.4515	-0.09
Mof_H 	H 	0.2498	0.6173	0.4768	0.07
Mof_C 	C 	0.4424	0.3653	0.2827	0.312
Mof_C 	C 	0.2335	0.5934	0.376	-0.037
Mof_H 	H 	0.2158	0.5822	0.4008	0.067
Mof_C 	C 	0.1989	0.5566	0.3018	0.387
Mof_C 	C 	0.2305	0.5846	0.3213	-0.085
Mof_C 	C 	0.263	0.6192	0.3949	0.031
Mof_C 	C 	0.3207	0.6606	0.3778	-0.036
Mof_H 	H 	0.3389	0.6717	0.3535	0.064
Mof_C 	C 	0.2906	0.6352	0.3575	0.031
Mof_C 	C 	0.2868	0.6262	0.302	-0.089
Mof_H 	H 	0.3048	0.637	0.2772	0.072
Mof_C 	C 	0.2573	0.6017	0.2826	0.013
Mof_H 	H 	0.2549	0.5965	0.2453	0.045
Mof_C 	C 	0.3556	0.6956	0.4522	0.364
Mof_C 	C 	0.9736	0.3235	0.4455	0.419
Mof_C 	C 	0.9714	0.3225	0.3886	0.123
Mof_H 	H 	0.9535	0.3057	0.3716	0.02
Mof_C 	C 	0.9994	0.3479	0.4715	-0.38
Mof_H 	H 	0.0001	0.3487	0.5096	-0.133
Mof_C 	C 	0.995	0.3456	0.3579	0.176
Mof_H 	H 	0.9938	0.3445	0.3198	0.188
Mof_C 	C 	0.0221	0.3719	0.3846	0.291
Mof_C 	C 	0.0475	0.3974	0.3529	0.173
Mof_H 	H 	0.0463	0.397	0.3148	-0.057
Mof_C 	C 	0.0733	0.422	0.3791	-0.025
Mof_C 	C 	0.0771	0.4214	0.4363	-0.047
Mof_H 	H 	0.0956	0.4375	0.4536	0.069
Mof_C 	C 	0.0533	0.397	0.4667	-1.373
Mof_H 	H 	0.0555	0.3967	0.5048	1.403
Mof_C 	C 	0.0254	0.3722	0.4405	0.328
Mof_C 	C 	0.9469	0.298	0.4838	0.251
Mof_C 	C 	0.0973	0.4486	0.343	0.412
Mof_C 	C 	0.0591	0.7584	0.2939	0.383
Mof_C 	C 	0.0861	0.7286	0.2675	-0.09
Mof_C 	C 	0.1116	0.7053	0.3014	0.019
Mof_H 	H 	0.112	0.7094	0.3391	0.039
Mof_C 	C 	0.1349	0.6776	0.2788	-0.093
Mof_H 	H 	0.1506	0.662	0.3014	0.073
Mof_C 	C 	0.1359	0.6718	0.2212	0.032
Mof_C 	C 	0.1619	0.6438	0.1949	-0.037
Mof_H 	H 	0.1776	0.6275	0.2165	0.059
Mof_C 	C 	0.164	0.6408	0.1406	-0.077
Mof_C 	C 	0.1924	0.613	0.1143	0.342
Mof_C 	C 	0.1398	0.6649	0.1072	0.013
Mof_H 	H 	0.1415	0.6628	0.0692	0.048
Mof_C 	C 	0.1139	0.6913	0.1301	-0.084
Mof_H 	H 	0.0977	0.7066	0.1077	0.066
Mof_C 	C 	0.1119	0.6952	0.1867	0.028
Mof_C 	C 	0.0864	0.7232	0.2122	-0.032
Mof_H 	H 	0.0696	0.7382	0.1903	0.062
Mof_C 	C 	0.3138	0.4802	0.1628	-0.064
Mof_C 	C 	0.3724	0.4275	0.1993	0.017
Mof_C 	C 	0.348	0.4465	0.2402	-0.016
Mof_C 	C 	0.3679	0.4358	0.1441	-0.03
Mof_H 	H 	0.3843	0.4237	0.1184	0.035
Mof_C 	C 	0.3394	0.4619	0.1272	0.081
Mof_H 	H 	0.3373	0.4674	0.0899	0.066
Mof_C 	C 	0.402	0.4004	0.2201	0.05
Mof_H 	H 	0.4178	0.3867	0.1952	-0.067
Mof_C 	C 	0.3172	0.4733	0.219	0.039
Mof_H 	H 	0.2998	0.4856	0.2433	-0.085
Mof_C 	C 	0.4069	0.3945	0.2711	-0.076
Mof_C 	C 	0.3544	0.4382	0.2951	-0.124
Mof_H 	H 	0.3386	0.4505	0.3213	0.077
Mof_C 	C 	0.3823	0.4135	0.3116	0.125
Mof_H 	H 	0.3858	0.4083	0.3488	0.018
Mof_C 	C 	0.309	0.4831	0.2452	0.115
Mof_H 	H 	0.2904	0.4977	0.2647	0.047
Mof_C 	C 	0.3108	0.4853	0.1835	-0.093
Mof_C 	C 	0.3368	0.4638	0.1567	0.055
Mof_H 	H 	0.337	0.4642	0.1185	-0.082
Mof_C 	C 	0.365	0.4397	0.1855	-0.013
Mof_C 	C 	0.3628	0.4373	0.242	0.046
Mof_C 	C 	0.3344	0.4604	0.2707	-0.051
Mof_H 	H 	0.3337	0.4592	0.3089	0.015
Mof_C 	C 	0.3906	0.4123	0.2685	0.039
Mof_H 	H 	0.3905	0.4115	0.3066	-0.053
Mof_C 	C 	0.4176	0.3894	0.2414	-0.063
Mof_C 	C 	0.4186	0.3922	0.1834	0.14
Mof_H 	H 	0.4373	0.3777	0.1639	0.022
Mof_C 	C 	0.3926	0.416	0.1553	-0.123
Mof_H 	H 	0.393	0.4167	0.1171	0.055
Mof_C 	C 	0.9796	0.3263	0.473	-0.213
Mof_C 	C 	0.0032	0.3475	0.5109	0.23
Mof_H 	H 	0.9997	0.3439	0.5485	0.016
Mof_C 	C 	0.0307	0.3728	0.4924	0.98
Mof_H 	H 	0.0473	0.3853	0.5174	-1.261
Mof_C 	C 	0.9847	0.3315	0.4167	-0.148
Mof_H 	H 	0.9698	0.3163	0.3925	-0.112
Mof_C 	C 	0.01	0.3573	0.3967	-0.374
Mof_C 	C 	0.0349	0.3805	0.4386	-0.181
Mof_C 	C 	0.0617	0.4065	0.4123	0.653
Mof_H 	H 	0.0781	0.4209	0.4356	0.002
Mof_C 	C 	0.0667	0.4131	0.3603	-0.488
Mof_C 	C 	0.0405	0.3917	0.3222	0.102
Mof_H 	H 	0.042	0.3966	0.2847	0.052
Mof_C 	C 	0.0149	0.3652	0.341	-0.243
Mof_H 	H 	0.9995	0.3514	0.3158	-0.146
Mof_Cd	Cd	0.24894	0.06729	0.56878	0.484
Mof_Cd	Cd	0.14208	0.99828	0.7854	0.485
Mof_Mg	Mg	0.19262	0.03181	0.67334	1.48
Mof_O 	O 	0.92651	0.77346	0.9562	-0.435
Mof_O 	O 	0.17812	0.03986	0.8372	-0.29
Mof_O 	O 	0.19579	0.05135	0.7512	-0.482
Mof_O 	O 	0.94344	0.80045	0.0345	-0.241
Mof_O 	O 	0.03614	0.27783	0.7635	-0.29
Mof_O 	O 	0.06132	0.2625	0.8447	-0.479
Mof_O 	O 	0.4514	0.8679	0.8309	-0.263
Mof_O 	O 	0.4596	0.8398	0.7504	-0.241
Mof_O 	O 	0.25169	0.01685	0.6777	-0.475
Mof_O 	O 	0.28886	0.02225	0.603	-0.316
Mof_O 	O 	0.12068	0.96976	0.869	-0.271
Mof_O 	O 	0.0937	0.94973	0.7915	-0.266
Mof_O 	O 	0.38417	0.20343	0.9208	-0.455
Mof_O 	O 	0.3509	0.20859	0.0009	-0.28
Mof_O 	O 	0.21003	0.08752	0.6435	-0.443
Mof_O 	O 	0.19915	0.11645	0.5643	-0.272
Mof_C 	C 	0.3232	0.1689	0.9323	-0.048
Mof_C 	C 	0.2963	0.1526	0.9691	-0.035
Mof_H 	H 	0.2983	0.1585	0.0063	0.071
Mof_C 	C 	0.2817	0.0093	0.6496	0.411
Mof_C 	C 	0.2673	0.1282	0.9515	-0.054
Mof_H 	H 	0.2498	0.1173	0.9768	0.053
Mof_C 	C 	0.4424	0.8653	0.7827	0.312
Mof_C 	C 	0.2335	0.0934	0.876	-0.022
Mof_H 	H 	0.2158	0.0822	0.9008	0.06
Mof_C 	C 	0.1989	0.0566	0.8018	0.391
Mof_C 	C 	0.2305	0.0846	0.8213	-0.095
Mof_C 	C 	0.263	0.1192	0.8949	0.009
Mof_C 	C 	0.3207	0.1606	0.8778	-0.059
Mof_H 	H 	0.3389	0.1717	0.8535	0.071
Mof_C 	C 	0.2906	0.1352	0.8575	0.049
Mof_C 	C 	0.2868	0.1262	0.802	-0.103
Mof_H 	H 	0.3048	0.137	0.7772	0.077
Mof_C 	C 	0.2573	0.1017	0.7826	0.024
Mof_H 	H 	0.2549	0.0965	0.7453	0.041
Mof_C 	C 	0.3556	0.1956	0.9522	0.339
Mof_C 	C 	0.9736	0.8235	0.9455	0.183
Mof_C 	C 	0.9714	0.8225	0.8886	0.113
Mof_H 	H 	0.9535	0.8057	0.8716	0.026
Mof_C 	C 	0.9994	0.8479	0.9715	-0.195
Mof_H 	H 	0.0001	0.8487	0.0096	-0.071
Mof_C 	C 	0.995	0.8456	0.8579	0.056
Mof_H 	H 	0.9938	0.8445	0.8198	0.117
Mof_C 	C 	0.0221	0.8719	0.8846	0.143
Mof_C 	C 	0.0475	0.8974	0.8529	0.117
Mof_H 	H 	0.0463	0.897	0.8148	-0.072
Mof_C 	C 	0.0733	0.922	0.8791	-0.028
Mof_C 	C 	0.0771	0.9214	0.9363	0.018
Mof_H 	H 	0.0956	0.9375	0.9536	0.05
Mof_C 	C 	0.0533	0.897	0.9667	-0.768
Mof_H 	H 	0.0555	0.8967	0.0048	0.766
Mof_C 	C 	0.0254	0.8722	0.9405	0.201
Mof_C 	C 	0.9469	0.798	0.9838	0.288
Mof_C 	C 	0.0973	0.9486	0.843	0.362
Mof_C 	C 	0.0591	0.2584	0.7939	0.384
Mof_C 	C 	0.0861	0.2286	0.7675	-0.089
Mof_C 	C 	0.1116	0.2053	0.8014	0.019
Mof_H 	H 	0.112	0.2094	0.8391	0.039
Mof_C 	C 	0.1349	0.1776	0.7788	-0.092
Mof_H 	H 	0.1506	0.162	0.8014	0.073
Mof_C 	C 	0.1359	0.1718	0.7212	0.031
Mof_C 	C 	0.1619	0.1438	0.6949	-0.036
Mof_H 	H 	0.1776	0.1275	0.7165	0.058
Mof_C 	C 	0.164	0.1408	0.6406	-0.079
Mof_C 	C 	0.1924	0.113	0.6143	0.343
Mof_C 	C 	0.1398	0.1649	0.6072	0.014
Mof_H 	H 	0.1415	0.1628	0.5692	0.046
Mof_C 	C 	0.1139	0.1913	0.6301	-0.086
Mof_H 	H 	0.0977	0.2066	0.6077	0.066
Mof_C 	C 	0.1119	0.1952	0.6867	0.029
Mof_C 	C 	0.0864	0.2232	0.7122	-0.033
Mof_H 	H 	0.0696	0.2382	0.6903	0.062
Mof_C 	C 	0.3138	0.9802	0.6628	-0.063
Mof_C 	C 	0.3724	0.9275	0.6993	0.018
Mof_C 	C 	0.348	0.9465	0.7402	-0.016
Mof_C 	C 	0.3679	0.9358	0.6441	-0.03
Mof_H 	H 	0.3843	0.9237	0.6184	0.034
Mof_C 	C 	0.3394	0.9619	0.6272	0.082
Mof_H 	H 	0.3373	0.9674	0.5899	0.063
Mof_C 	C 	0.402	0.9004	0.7201	0.05
Mof_H 	H 	0.4178	0.8867	0.6952	-0.067
Mof_C 	C 	0.3172	0.9733	0.719	0.038
Mof_H 	H 	0.2998	0.9856	0.7433	-0.085
Mof_C 	C 	0.4069	0.8945	0.7711	-0.075
Mof_C 	C 	0.3544	0.9382	0.7951	-0.126
Mof_H 	H 	0.3386	0.9505	0.8213	0.078
Mof_C 	C 	0.3823	0.9135	0.8116	0.125
Mof_H 	H 	0.3858	0.9083	0.8488	0.016
Mof_C 	C 	0.309	0.9831	0.7452	0.115
Mof_H 	H 	0.2904	0.9977	0.7647	0.046
Mof_C 	C 	0.3108	0.9853	0.6835	-0.093
Mof_C 	C 	0.3368	0.9638	0.6567	0.053
Mof_H 	H 	0.337	0.9642	0.6185	-0.081
Mof_C 	C 	0.365	0.9397	0.6855	-0.014
Mof_C 	C 	0.3628	0.9373	0.742	0.046
Mof_C 	C 	0.3344	0.9604	0.7707	-0.05
Mof_H 	H 	0.3337	0.9592	0.8089	0.013
Mof_C 	C 	0.3906	0.9123	0.7685	0.038
Mof_H 	H 	0.3905	0.9115	0.8066	-0.053
Mof_C 	C 	0.4176	0.8894	0.7414	-0.064
Mof_C 	C 	0.4186	0.8922	0.6834	0.14
Mof_H 	H 	0.4373	0.8777	0.6639	0.022
Mof_C 	C 	0.3926	0.916	0.6553	-0.124
Mof_H 	H 	0.393	0.9167	0.6171	0.055
Mof_C 	C 	0.9796	0.8263	0.973	-0.151
Mof_C 	C 	0.0032	0.8475	0.0109	0.164
Mof_H 	H 	0.9997	0.8439	0.0485	0.022
Mof_C 	C 	0.0307	0.8728	0.9924	0.436
Mof_H 	H 	0.0473	0.8853	0.0174	-0.624
Mof_C 	C 	0.9847	0.8315	0.9167	-0.05
Mof_H 	H 	0.9698	0.8163	0.8925	-0.094
Mof_C 	C 	0.01	0.8573	0.8967	-0.192
Mof_C 	C 	0.0349	0.8805	0.9386	-0.088
Mof_C 	C 	0.0617	0.9065	0.9123	0.355
Mof_H 	H 	0.0781	0.9209	0.9356	-0.022
Mof_C 	C 	0.0667	0.9131	0.8603	-0.299
Mof_C 	C 	0.0405	0.8917	0.8222	0.109
Mof_H 	H 	0.042	0.8966	0.7847	0.05
Mof_C 	C 	0.0149	0.8652	0.841	-0.161
Mof_H 	H 	0.9995	0.8514	0.8158	-0.061
_end
