data_functionalizedCrystal
_audit_creation_method	'EQeq! by Chris Wilmer'
_symmetry_space_group_name_H-M	'P1'
_symmetry_Int_Tables_number	1
_symmetry_cell_setting	triclinic
loop_
_symmetry_equiv_pos_as_xyz
  x,y,z
_cell_length_a	11.116
_cell_length_b	11.116
_cell_length_c	8.627
_cell_angle_alpha	90
_cell_angle_beta	90
_cell_angle_gamma	90
loop_
_atom_site_label
_atom_site_type_symbol
_atom_site_fract_x
_atom_site_fract_y
_atom_site_fract_z
_atom_site_charge
Mof_C 	C 	0.0385	0.3677	0.3733	-0.095
Mof_H 	H 	0.0652	0.4076	0.2836	0.048
Mof_C 	C 	0.0379	0.2448	0.3785	-0.003
Mof_H 	H 	0.0657	0.2023	0.2914	-0.003
Mof_C 	C 	0.9615	0.6323	0.3733	-0.031
Mof_H 	H 	0.9348	0.5924	0.2836	0.031
Mof_C 	C 	0.9621	0.7552	0.3785	0.053
Mof_H 	H 	0.9343	0.7977	0.2914	-0.015
Mof_C 	C 	0.6323	0.0385	0.3733	-0.082
Mof_H 	H 	0.5924	0.0652	0.2836	0.044
Mof_C 	C 	0.7552	0.0379	0.3785	0
Mof_H 	H 	0.7977	0.0657	0.2914	-0.002
Mof_C 	C 	0.3677	0.9615	0.3733	-0.017
Mof_H 	H 	0.4076	0.9348	0.2836	0.027
Mof_C 	C 	0.2448	0.9621	0.3785	0.061
Mof_H 	H 	0.2023	0.9343	0.2914	-0.018
Mof_C 	C 	0.9615	0.3677	0.6267	-0.017
Mof_H 	H 	0.9348	0.4076	0.7164	0.027
Mof_C 	C 	0.9621	0.2448	0.6215	0.061
Mof_H 	H 	0.9343	0.2023	0.7086	-0.018
Mof_C 	C 	0.0385	0.6323	0.6267	-0.082
Mof_H 	H 	0.0652	0.5924	0.7164	0.044
Mof_C 	C 	0.0379	0.7552	0.6215	0
Mof_H 	H 	0.0657	0.7977	0.7086	-0.002
Mof_C 	C 	0.3677	0.0385	0.6267	-0.095
Mof_H 	H 	0.4076	0.0652	0.7164	0.048
Mof_C 	C 	0.2448	0.0379	0.6215	-0.003
Mof_H 	H 	0.2023	0.0657	0.7086	-0.003
Mof_C 	C 	0.6323	0.9615	0.6267	-0.031
Mof_H 	H 	0.5924	0.9348	0.7164	0.031
Mof_C 	C 	0.7552	0.9621	0.6215	0.053
Mof_H 	H 	0.7977	0.9343	0.7086	-0.015
Mof_C 	C 	0.9615	0.6323	0.6267	-0.031
Mof_H 	H 	0.9348	0.5924	0.7164	0.031
Mof_C 	C 	0.9621	0.7552	0.6215	0.053
Mof_H 	H 	0.9343	0.7977	0.7086	-0.015
Mof_C 	C 	0.0385	0.3677	0.6267	-0.095
Mof_H 	H 	0.0652	0.4076	0.7164	0.048
Mof_C 	C 	0.0379	0.2448	0.6215	-0.003
Mof_H 	H 	0.0657	0.2023	0.7086	-0.003
Mof_C 	C 	0.3677	0.9615	0.6267	-0.017
Mof_H 	H 	0.4076	0.9348	0.7164	0.027
Mof_C 	C 	0.2448	0.9621	0.6215	0.061
Mof_H 	H 	0.2023	0.9343	0.7086	-0.018
Mof_C 	C 	0.6323	0.0385	0.6267	-0.082
Mof_H 	H 	0.5924	0.0652	0.7164	0.044
Mof_C 	C 	0.7552	0.0379	0.6215	0
Mof_H 	H 	0.7977	0.0657	0.7086	-0.002
Mof_C 	C 	0.0385	0.6323	0.3733	-0.082
Mof_H 	H 	0.0652	0.5924	0.2836	0.044
Mof_C 	C 	0.0379	0.7552	0.3785	0
Mof_H 	H 	0.0657	0.7977	0.2914	-0.002
Mof_C 	C 	0.9615	0.3677	0.3733	-0.017
Mof_H 	H 	0.9348	0.4076	0.2836	0.027
Mof_C 	C 	0.9621	0.2448	0.3785	0.061
Mof_H 	H 	0.9343	0.2023	0.2914	-0.018
Mof_C 	C 	0.6323	0.9615	0.3733	-0.031
Mof_H 	H 	0.5924	0.9348	0.2836	0.031
Mof_C 	C 	0.7552	0.9621	0.3785	0.053
Mof_H 	H 	0.7977	0.9343	0.2914	-0.015
Mof_C 	C 	0.3677	0.0385	0.3733	-0.095
Mof_H 	H 	0.4076	0.0652	0.2836	0.048
Mof_C 	C 	0.2448	0.0379	0.3785	-0.003
Mof_H 	H 	0.2023	0.0657	0.2914	-0.003
Mof_Cu	Cu	1.45493e-33	0	0.5	0.842
Mof_N 	N 	-4.46523e-33	0.1826	0.5	-0.237
Mof_C 	C 	-4.46523e-33	0.4336	0.5	0.026
Mof_N 	N 	-1.50515e-33	0.8174	0.5	-0.233
Mof_C 	C 	1.03352e-32	0.5664	0.5	0.027
Mof_N 	N 	0.8174	0	0.5	-0.233
Mof_C 	C 	0.5664	0	0.5	0.027
Mof_N 	N 	0.1826	0	0.5	-0.237
Mof_C 	C 	0.4336	0	0.5	0.026
_end
