data_functionalizedCrystal
_audit_creation_method	'EQeq! by Chris Wilmer'
_symmetry_space_group_name_H-M	'P1'
_symmetry_Int_Tables_number	1
_symmetry_cell_setting	triclinic
loop_
_symmetry_equiv_pos_as_xyz
  x,y,z
_cell_length_a	18.6273
_cell_length_b	18.6273
_cell_length_c	18.6273
_cell_angle_alpha	60
_cell_angle_beta	60
_cell_angle_gamma	60
loop_
_atom_site_label
_atom_site_type_symbol
_atom_site_fract_x
_atom_site_fract_y
_atom_site_fract_z
_atom_site_charge
Mof_Cu	Cu	0.57057	0	0.42943	0.799
Mof_Cu	Cu	4.97514e-17	0.57057	-0	0.695
Mof_Cu	Cu	0.42943	-2.48757e-17	0.57057	0.799
Mof_Cu	Cu	2.48757e-17	0.42943	-0	0.683
Mof_Cu	Cu	0.57057	0.42943	-0	0.8
Mof_Cu	Cu	2.48757e-17	0	0.42943	0.683
Mof_Cu	Cu	0.42943	0.57057	-0	0.8
Mof_Cu	Cu	6.21893e-17	-2.48757e-17	0.57057	0.696
Mof_Cu	Cu	0.57057	0	-0	0.696
Mof_Cu	Cu	1.24379e-17	0.42943	0.57057	0.8
Mof_Cu	Cu	0.42943	0	-0	0.683
Mof_Cu	Cu	-7.46271e-17	0.57057	0.42943	0.8
Mof_H 	H 	0.728	0.728	0.5116	0.092
Mof_H 	H 	0.728	0.728	0.0324	0.054
Mof_H 	H 	0.5116	0.0324	0.728	0.028
Mof_H 	H 	0.0324	0.5116	0.728	0.028
Mof_H 	H 	0.728	0.5116	0.0324	0.028
Mof_H 	H 	0.728	0.0324	0.5116	0.028
Mof_H 	H 	0.5116	0.728	0.728	0.092
Mof_H 	H 	0.0324	0.728	0.728	0.054
Mof_H 	H 	0.728	0.0324	0.728	0.054
Mof_H 	H 	0.728	0.5116	0.728	0.092
Mof_H 	H 	0.5116	0.728	0.0324	0.028
Mof_H 	H 	0.0324	0.728	0.5116	0.028
Mof_H 	H 	0.272	0.272	0.4884	0.005
Mof_H 	H 	0.272	0.272	0.9676	0.051
Mof_H 	H 	0.9676	0.4884	0.272	0.074
Mof_H 	H 	0.4884	0.9676	0.272	0.074
Mof_H 	H 	0.4884	0.272	0.9676	0.074
Mof_H 	H 	0.9676	0.272	0.4884	0.074
Mof_H 	H 	0.272	0.4884	0.272	0.005
Mof_H 	H 	0.272	0.9676	0.272	0.051
Mof_H 	H 	0.9676	0.272	0.272	0.051
Mof_H 	H 	0.4884	0.272	0.272	0.005
Mof_H 	H 	0.272	0.4884	0.9676	0.074
Mof_H 	H 	0.272	0.9676	0.4884	0.074
Mof_C 	C 	0.257	0.969	0.387	-0.083
Mof_C 	C 	0.969	0.257	0.387	-0.083
Mof_C 	C 	0.387	0.387	0.257	-0.175
Mof_C 	C 	0.387	0.387	0.969	-0.065
Mof_C 	C 	0.257	0.387	0.387	-0.175
Mof_C 	C 	0.969	0.387	0.387	-0.065
Mof_C 	C 	0.387	0.257	0.969	-0.083
Mof_C 	C 	0.387	0.969	0.257	-0.083
Mof_C 	C 	0.257	0.387	0.969	-0.083
Mof_C 	C 	0.969	0.387	0.257	-0.083
Mof_C 	C 	0.387	0.969	0.387	-0.065
Mof_C 	C 	0.387	0.257	0.387	-0.175
Mof_C 	C 	0.031	0.743	0.613	-0.115
Mof_C 	C 	0.743	0.031	0.613	-0.115
Mof_C 	C 	0.613	0.613	0.743	-0.041
Mof_C 	C 	0.613	0.613	0.031	-0.14
Mof_C 	C 	0.613	0.743	0.613	-0.041
Mof_C 	C 	0.613	0.031	0.613	-0.14
Mof_C 	C 	0.743	0.613	0.031	-0.115
Mof_C 	C 	0.031	0.613	0.743	-0.115
Mof_C 	C 	0.613	0.743	0.031	-0.115
Mof_C 	C 	0.613	0.031	0.743	-0.115
Mof_C 	C 	0.031	0.613	0.613	-0.14
Mof_C 	C 	0.743	0.613	0.613	-0.041
Mof_C 	C 	0.5687	0.5687	0.8377	0.349
Mof_C 	C 	0.5687	0.5687	0.0249	0.378
Mof_C 	C 	0.8377	0.0249	0.5687	0.357
Mof_C 	C 	0.0249	0.8377	0.5687	0.357
Mof_C 	C 	0.5687	0.8377	0.0249	0.357
Mof_C 	C 	0.5687	0.0249	0.8377	0.357
Mof_C 	C 	0.8377	0.5687	0.5687	0.349
Mof_C 	C 	0.0249	0.5687	0.5687	0.378
Mof_C 	C 	0.5687	0.0249	0.5687	0.378
Mof_C 	C 	0.5687	0.8377	0.5687	0.349
Mof_C 	C 	0.8377	0.5687	0.0249	0.357
Mof_C 	C 	0.0249	0.5687	0.8377	0.357
Mof_C 	C 	0.4313	0.4313	0.1623	0.384
Mof_C 	C 	0.4313	0.4313	0.9751	0.352
Mof_C 	C 	0.9751	0.1623	0.4313	0.353
Mof_C 	C 	0.1623	0.9751	0.4313	0.353
Mof_C 	C 	0.1623	0.4313	0.9751	0.353
Mof_C 	C 	0.9751	0.4313	0.1623	0.353
Mof_C 	C 	0.4313	0.1623	0.4313	0.384
Mof_C 	C 	0.4313	0.9751	0.4313	0.352
Mof_C 	C 	0.9751	0.4313	0.4313	0.352
Mof_C 	C 	0.1623	0.4313	0.4313	0.384
Mof_C 	C 	0.4313	0.1623	0.9751	0.353
Mof_C 	C 	0.4313	0.9751	0.1623	0.353
Mof_C 	C 	0.3006	0.9684	0.4304	0.038
Mof_C 	C 	0.9684	0.3006	0.3006	0.04
Mof_C 	C 	0.4304	0.3006	0.3006	0.081
Mof_C 	C 	0.3006	0.4304	0.9684	0.038
Mof_C 	C 	0.3006	0.4304	0.3006	0.081
Mof_C 	C 	0.9684	0.3006	0.4304	0.038
Mof_C 	C 	0.4304	0.3006	0.9684	0.038
Mof_C 	C 	0.3006	0.9684	0.3006	0.04
Mof_C 	C 	0.3006	0.3006	0.9684	0.04
Mof_C 	C 	0.9684	0.4304	0.3006	0.038
Mof_C 	C 	0.4304	0.9684	0.3006	0.038
Mof_C 	C 	0.3006	0.3006	0.4304	0.081
Mof_C 	C 	0.0316	0.6994	0.5696	0.059
Mof_C 	C 	0.6994	0.0316	0.6994	0.053
Mof_C 	C 	0.6994	0.5696	0.6994	0.026
Mof_C 	C 	0.5696	0.6994	0.0316	0.059
Mof_C 	C 	0.5696	0.6994	0.6994	0.026
Mof_C 	C 	0.6994	0.0316	0.5696	0.059
Mof_C 	C 	0.6994	0.5696	0.0316	0.059
Mof_C 	C 	0.0316	0.6994	0.6994	0.053
Mof_C 	C 	0.6994	0.6994	0.0316	0.053
Mof_C 	C 	0.5696	0.0316	0.6994	0.059
Mof_C 	C 	0.0316	0.5696	0.6994	0.059
Mof_C 	C 	0.6994	0.6994	0.5696	0.026
Mof_O 	O 	0.61201	0.49247	0.87425	-0.285
Mof_O 	O 	0.49247	0.61201	0.02127	-0.464
Mof_O 	O 	0.87425	0.02127	0.61201	-0.347
Mof_O 	O 	0.02127	0.87425	0.49247	-0.367
Mof_O 	O 	0.61201	0.87425	0.02127	-0.347
Mof_O 	O 	0.49247	0.02127	0.87425	-0.367
Mof_O 	O 	0.87425	0.61201	0.49247	-0.285
Mof_O 	O 	0.02127	0.49247	0.61201	-0.464
Mof_O 	O 	0.61201	0.02127	0.49247	-0.464
Mof_O 	O 	0.49247	0.87425	0.61201	-0.285
Mof_O 	O 	0.87425	0.49247	0.02127	-0.367
Mof_O 	O 	0.02127	0.61201	0.87425	-0.347
Mof_O 	O 	0.50753	0.38799	0.12575	-0.476
Mof_O 	O 	0.38799	0.50753	0.97873	-0.294
Mof_O 	O 	0.97873	0.12575	0.38799	-0.354
Mof_O 	O 	0.12575	0.97873	0.50753	-0.335
Mof_O 	O 	0.12575	0.38799	0.97873	-0.354
Mof_O 	O 	0.97873	0.50753	0.12575	-0.335
Mof_O 	O 	0.38799	0.12575	0.50753	-0.476
Mof_O 	O 	0.50753	0.97873	0.38799	-0.294
Mof_O 	O 	0.97873	0.38799	0.50753	-0.294
Mof_O 	O 	0.12575	0.50753	0.38799	-0.476
Mof_O 	O 	0.50753	0.12575	0.97873	-0.335
Mof_O 	O 	0.38799	0.97873	0.12575	-0.354
Mof_O 	O 	0.38799	0.50753	0.12575	-0.476
Mof_O 	O 	0.50753	0.38799	0.97873	-0.294
Mof_O 	O 	0.12575	0.97873	0.38799	-0.354
Mof_O 	O 	0.97873	0.12575	0.50753	-0.335
Mof_O 	O 	0.38799	0.12575	0.97873	-0.354
Mof_O 	O 	0.50753	0.97873	0.12575	-0.335
Mof_O 	O 	0.12575	0.38799	0.50753	-0.476
Mof_O 	O 	0.97873	0.50753	0.38799	-0.294
Mof_O 	O 	0.38799	0.97873	0.50753	-0.294
Mof_O 	O 	0.50753	0.12575	0.38799	-0.476
Mof_O 	O 	0.12575	0.50753	0.97873	-0.335
Mof_O 	O 	0.97873	0.38799	0.12575	-0.354
Mof_O 	O 	0.49247	0.61201	0.87425	-0.285
Mof_O 	O 	0.61201	0.49247	0.02127	-0.464
Mof_O 	O 	0.02127	0.87425	0.61201	-0.347
Mof_O 	O 	0.87425	0.02127	0.49247	-0.367
Mof_O 	O 	0.87425	0.61201	0.02127	-0.347
Mof_O 	O 	0.02127	0.49247	0.87425	-0.367
Mof_O 	O 	0.61201	0.87425	0.49247	-0.285
Mof_O 	O 	0.49247	0.02127	0.61201	-0.464
Mof_O 	O 	0.02127	0.61201	0.49247	-0.464
Mof_O 	O 	0.87425	0.49247	0.61201	-0.285
Mof_O 	O 	0.49247	0.87425	0.02127	-0.367
Mof_O 	O 	0.61201	0.02127	0.87425	-0.347
_end
