data_functionalizedCrystal
_audit_creation_method	'EQeq! by Chris Wilmer'
_symmetry_space_group_name_H-M	'P1'
_symmetry_Int_Tables_number	1
_symmetry_cell_setting	triclinic
loop_
_symmetry_equiv_pos_as_xyz
  x,y,z
_cell_length_a	16.7913
_cell_length_b	16.7913
_cell_length_c	20.6558
_cell_angle_alpha	90
_cell_angle_beta	90
_cell_angle_gamma	120
loop_
_atom_site_label
_atom_site_type_symbol
_atom_site_fract_x
_atom_site_fract_y
_atom_site_fract_z
_atom_site_charge
Mof_O 	O 	0.52369	0.1787	0.18089	-0.508
Mof_C 	C 	0.5647	0.0946	0.1009	-0.11
Mof_C 	C 	0.4883	0.0676	0.0661	0.067
Mof_C 	C 	0.464	0.002	0.013	0.002
Mof_C 	C 	0.6151	0.0147	0.0287	-0.094
Mof_C 	C 	0.6264	0.0656	0.0827	0.123
Mof_H 	H 	0.6552	0.9928	0.0147	0.048
Mof_H 	H 	0.6798	0.085	0.1093	0.031
Mof_H 	H 	0.4452	0.086	0.0798	-0.077
Mof_O 	O 	0.8213	0.34499	0.18089	-0.507
Mof_C 	C 	0.9054	0.4701	0.1009	-0.11
Mof_C 	C 	0.9324	0.4207	0.0661	0.069
Mof_C 	C 	0.998	0.462	0.013	0.001
Mof_C 	C 	0.9853	0.6004	0.0287	-0.094
Mof_C 	C 	0.9344	0.5608	0.0827	0.123
Mof_H 	H 	0.0072	0.6624	0.0147	0.048
Mof_H 	H 	0.915	0.5948	0.1093	0.031
Mof_H 	H 	0.914	0.3592	0.0798	-0.077
Mof_O 	O 	0.65501	0.47631	0.18089	-0.507
Mof_C 	C 	0.5299	0.4353	0.1009	-0.109
Mof_C 	C 	0.5793	0.5117	0.0661	0.069
Mof_C 	C 	0.538	0.536	0.013	0.004
Mof_C 	C 	0.3996	0.3849	0.0287	-0.096
Mof_C 	C 	0.4392	0.3736	0.0827	0.122
Mof_H 	H 	0.3376	0.3448	0.0147	0.049
Mof_H 	H 	0.4052	0.3202	0.1093	0.031
Mof_H 	H 	0.6408	0.5548	0.0798	-0.076
Mof_O 	O 	0.47631	0.8213	0.68089	-0.507
Mof_C 	C 	0.4353	0.9054	0.6009	-0.109
Mof_C 	C 	0.5117	0.9324	0.5661	0.067
Mof_C 	C 	0.536	0.998	0.513	0.007
Mof_C 	C 	0.3849	0.9853	0.5287	-0.098
Mof_C 	C 	0.3736	0.9344	0.5827	0.122
Mof_H 	H 	0.3448	0.0072	0.5147	0.049
Mof_H 	H 	0.3202	0.915	0.6093	0.03
Mof_H 	H 	0.5548	0.914	0.5798	-0.075
Mof_O 	O 	0.1787	0.65501	0.68089	-0.507
Mof_C 	C 	0.0946	0.5299	0.6009	-0.109
Mof_C 	C 	0.0676	0.5793	0.5661	0.067
Mof_C 	C 	0.002	0.538	0.513	0.007
Mof_C 	C 	0.0147	0.3996	0.5287	-0.097
Mof_C 	C 	0.0656	0.4392	0.5827	0.122
Mof_H 	H 	0.9928	0.3376	0.5147	0.049
Mof_H 	H 	0.085	0.4052	0.6093	0.03
Mof_H 	H 	0.086	0.6408	0.5798	-0.075
Mof_O 	O 	0.34499	0.52369	0.68089	-0.507
Mof_C 	C 	0.4701	0.5647	0.6009	-0.108
Mof_C 	C 	0.4207	0.4883	0.5661	0.067
Mof_C 	C 	0.462	0.464	0.513	0.007
Mof_C 	C 	0.6004	0.6151	0.5287	-0.097
Mof_C 	C 	0.5608	0.6264	0.5827	0.122
Mof_H 	H 	0.6624	0.6552	0.5147	0.048
Mof_H 	H 	0.5948	0.6798	0.6093	0.03
Mof_H 	H 	0.3592	0.4452	0.5798	-0.075
Mof_O 	O 	0.1787	0.52369	0.81911	-0.507
Mof_C 	C 	0.0946	0.5647	0.8991	-0.107
Mof_C 	C 	0.0676	0.4883	0.9339	0.064
Mof_C 	C 	0.002	0.464	0.987	0.01
Mof_C 	C 	0.0147	0.6151	0.9713	-0.098
Mof_C 	C 	0.0656	0.6264	0.9173	0.122
Mof_H 	H 	0.9928	0.6552	0.9853	0.047
Mof_H 	H 	0.085	0.6798	0.8907	0.03
Mof_H 	H 	0.086	0.4452	0.9202	-0.074
Mof_O 	O 	0.34499	0.8213	0.81911	-0.507
Mof_C 	C 	0.4701	0.9054	0.8991	-0.107
Mof_C 	C 	0.4207	0.9324	0.9339	0.064
Mof_C 	C 	0.462	0.998	0.987	0.012
Mof_C 	C 	0.6004	0.9853	0.9713	-0.099
Mof_C 	C 	0.5608	0.9344	0.9173	0.122
Mof_H 	H 	0.6624	0.0072	0.9853	0.047
Mof_H 	H 	0.5948	0.915	0.8907	0.03
Mof_H 	H 	0.3592	0.914	0.9202	-0.074
Mof_O 	O 	0.47631	0.65501	0.81911	-0.507
Mof_C 	C 	0.4353	0.5299	0.8991	-0.107
Mof_C 	C 	0.5117	0.5793	0.9339	0.064
Mof_C 	C 	0.536	0.538	0.987	0.012
Mof_C 	C 	0.3849	0.3996	0.9713	-0.098
Mof_C 	C 	0.3736	0.4392	0.9173	0.122
Mof_H 	H 	0.3448	0.3376	0.9853	0.047
Mof_H 	H 	0.3202	0.4052	0.8907	0.03
Mof_H 	H 	0.5548	0.6408	0.9202	-0.074
Mof_O 	O 	0.8213	0.47631	0.31911	-0.507
Mof_C 	C 	0.9054	0.4353	0.3991	-0.108
Mof_C 	C 	0.9324	0.5117	0.4339	0.067
Mof_C 	C 	0.998	0.536	0.487	0.006
Mof_C 	C 	0.9853	0.3849	0.4713	-0.096
Mof_C 	C 	0.9344	0.3736	0.4173	0.122
Mof_H 	H 	0.0072	0.3448	0.4853	0.048
Mof_H 	H 	0.915	0.3202	0.3907	0.031
Mof_H 	H 	0.914	0.5548	0.4202	-0.076
Mof_O 	O 	0.65501	0.1787	0.31911	-0.507
Mof_C 	C 	0.5299	0.0946	0.3991	-0.108
Mof_C 	C 	0.5793	0.0676	0.4339	0.066
Mof_C 	C 	0.538	0.002	0.487	0.006
Mof_C 	C 	0.3996	0.0147	0.4713	-0.095
Mof_C 	C 	0.4392	0.0656	0.4173	0.122
Mof_H 	H 	0.3376	0.9928	0.4853	0.047
Mof_H 	H 	0.4052	0.085	0.3907	0.03
Mof_H 	H 	0.6408	0.086	0.4202	-0.076
Mof_O 	O 	0.52369	0.34499	0.31911	-0.507
Mof_C 	C 	0.5647	0.4701	0.3991	-0.108
Mof_C 	C 	0.4883	0.4207	0.4339	0.067
Mof_C 	C 	0.464	0.462	0.487	0.006
Mof_C 	C 	0.6151	0.6004	0.4713	-0.097
Mof_C 	C 	0.6264	0.5608	0.4173	0.122
Mof_H 	H 	0.6552	0.6624	0.4853	0.048
Mof_H 	H 	0.6798	0.5948	0.3907	0.03
Mof_H 	H 	0.4452	0.3592	0.4202	-0.075
Mof_O 	O 	0.47631	0.8213	0.81911	-0.507
Mof_C 	C 	0.4353	0.9054	0.8991	-0.107
Mof_C 	C 	0.5117	0.9324	0.9339	0.064
Mof_C 	C 	0.536	0.998	0.987	0.012
Mof_C 	C 	0.3849	0.9853	0.9713	-0.099
Mof_C 	C 	0.3736	0.9344	0.9173	0.122
Mof_H 	H 	0.3448	0.0072	0.9853	0.048
Mof_H 	H 	0.3202	0.915	0.8907	0.03
Mof_H 	H 	0.5548	0.914	0.9202	-0.074
Mof_O 	O 	0.1787	0.65501	0.81911	-0.507
Mof_C 	C 	0.0946	0.5299	0.8991	-0.107
Mof_C 	C 	0.0676	0.5793	0.9339	0.065
Mof_C 	C 	0.002	0.538	0.987	0.01
Mof_C 	C 	0.0147	0.3996	0.9713	-0.098
Mof_C 	C 	0.0656	0.4392	0.9173	0.122
Mof_H 	H 	0.9928	0.3376	0.9853	0.046
Mof_H 	H 	0.085	0.4052	0.8907	0.03
Mof_H 	H 	0.086	0.6408	0.9202	-0.075
Mof_O 	O 	0.34499	0.52369	0.81911	-0.507
Mof_C 	C 	0.4701	0.5647	0.8991	-0.107
Mof_C 	C 	0.4207	0.4883	0.9339	0.064
Mof_C 	C 	0.462	0.464	0.987	0.012
Mof_C 	C 	0.6004	0.6151	0.9713	-0.098
Mof_C 	C 	0.5608	0.6264	0.9173	0.122
Mof_H 	H 	0.6624	0.6552	0.9853	0.047
Mof_H 	H 	0.5948	0.6798	0.8907	0.03
Mof_H 	H 	0.3592	0.4452	0.9202	-0.074
Mof_O 	O 	0.52369	0.1787	0.31911	-0.507
Mof_C 	C 	0.5647	0.0946	0.3991	-0.108
Mof_C 	C 	0.4883	0.0676	0.4339	0.066
Mof_C 	C 	0.464	0.002	0.487	0.006
Mof_C 	C 	0.6151	0.0147	0.4713	-0.096
Mof_C 	C 	0.6264	0.0656	0.4173	0.122
Mof_H 	H 	0.6552	0.9928	0.4853	0.047
Mof_H 	H 	0.6798	0.085	0.3907	0.03
Mof_H 	H 	0.4452	0.086	0.4202	-0.076
Mof_O 	O 	0.8213	0.34499	0.31911	-0.507
Mof_C 	C 	0.9054	0.4701	0.3991	-0.108
Mof_C 	C 	0.9324	0.4207	0.4339	0.067
Mof_C 	C 	0.998	0.462	0.487	0.006
Mof_C 	C 	0.9853	0.6004	0.4713	-0.096
Mof_C 	C 	0.9344	0.5608	0.4173	0.122
Mof_H 	H 	0.0072	0.6624	0.4853	0.048
Mof_H 	H 	0.915	0.5948	0.3907	0.03
Mof_H 	H 	0.914	0.3592	0.4202	-0.076
Mof_O 	O 	0.65501	0.47631	0.31911	-0.507
Mof_C 	C 	0.5299	0.4353	0.3991	-0.108
Mof_C 	C 	0.5793	0.5117	0.4339	0.067
Mof_C 	C 	0.538	0.536	0.487	0.006
Mof_C 	C 	0.3996	0.3849	0.4713	-0.097
Mof_C 	C 	0.4392	0.3736	0.4173	0.122
Mof_H 	H 	0.3376	0.3448	0.4853	0.048
Mof_H 	H 	0.4052	0.3202	0.3907	0.03
Mof_H 	H 	0.6408	0.5548	0.4202	-0.075
Mof_O 	O 	0.8213	0.47631	0.18089	-0.507
Mof_C 	C 	0.9054	0.4353	0.1009	-0.109
Mof_C 	C 	0.9324	0.5117	0.0661	0.069
Mof_C 	C 	0.998	0.536	0.013	0.002
Mof_C 	C 	0.9853	0.3849	0.0287	-0.094
Mof_C 	C 	0.9344	0.3736	0.0827	0.123
Mof_H 	H 	0.0072	0.3448	0.0147	0.049
Mof_H 	H 	0.915	0.3202	0.1093	0.031
Mof_H 	H 	0.914	0.5548	0.0798	-0.077
Mof_O 	O 	0.65501	0.1787	0.18089	-0.507
Mof_C 	C 	0.5299	0.0946	0.1009	-0.109
Mof_C 	C 	0.5793	0.0676	0.0661	0.068
Mof_C 	C 	0.538	0.002	0.013	0.003
Mof_C 	C 	0.3996	0.0147	0.0287	-0.093
Mof_C 	C 	0.4392	0.0656	0.0827	0.123
Mof_H 	H 	0.3376	0.9928	0.0147	0.047
Mof_H 	H 	0.4052	0.085	0.1093	0.031
Mof_H 	H 	0.6408	0.086	0.0798	-0.077
Mof_O 	O 	0.52369	0.34499	0.18089	-0.507
Mof_C 	C 	0.5647	0.4701	0.1009	-0.109
Mof_C 	C 	0.4883	0.4207	0.0661	0.069
Mof_C 	C 	0.464	0.462	0.013	0.004
Mof_C 	C 	0.6151	0.6004	0.0287	-0.096
Mof_C 	C 	0.6264	0.5608	0.0827	0.122
Mof_H 	H 	0.6552	0.6624	0.0147	0.049
Mof_H 	H 	0.6798	0.5948	0.1093	0.031
Mof_H 	H 	0.4452	0.3592	0.0798	-0.076
Mof_O 	O 	0.1787	0.52369	0.68089	-0.507
Mof_C 	C 	0.0946	0.5647	0.6009	-0.108
Mof_C 	C 	0.0676	0.4883	0.5661	0.067
Mof_C 	C 	0.002	0.464	0.513	0.007
Mof_C 	C 	0.0147	0.6151	0.5287	-0.097
Mof_C 	C 	0.0656	0.6264	0.5827	0.122
Mof_H 	H 	0.9928	0.6552	0.5147	0.049
Mof_H 	H 	0.085	0.6798	0.6093	0.03
Mof_H 	H 	0.086	0.4452	0.5798	-0.075
Mof_O 	O 	0.34499	0.8213	0.68089	-0.507
Mof_C 	C 	0.4701	0.9054	0.6009	-0.109
Mof_C 	C 	0.4207	0.9324	0.5661	0.067
Mof_C 	C 	0.462	0.998	0.513	0.007
Mof_C 	C 	0.6004	0.9853	0.5287	-0.098
Mof_C 	C 	0.5608	0.9344	0.5827	0.122
Mof_H 	H 	0.6624	0.0072	0.5147	0.049
Mof_H 	H 	0.5948	0.915	0.6093	0.03
Mof_H 	H 	0.3592	0.914	0.5798	-0.075
Mof_O 	O 	0.47631	0.65501	0.68089	-0.507
Mof_C 	C 	0.4353	0.5299	0.6009	-0.108
Mof_C 	C 	0.5117	0.5793	0.5661	0.067
Mof_C 	C 	0.536	0.538	0.513	0.007
Mof_C 	C 	0.3849	0.3996	0.5287	-0.097
Mof_C 	C 	0.3736	0.4392	0.5827	0.122
Mof_H 	H 	0.3448	0.3376	0.5147	0.048
Mof_H 	H 	0.3202	0.4052	0.6093	0.03
Mof_H 	H 	0.5548	0.6408	0.5798	-0.075
Mof_Mg	Mg	0.53311	0.26655	0.25	1.483
Mof_N 	N 	0.3809	0.19045	0.25	-0.229
Mof_C 	C 	0.1931	0.09655	0.25	0.077
Mof_C 	C 	0.0887	0.04435	0.25	0.098
Mof_Mg	Mg	0.73345	0.26655	0.25	1.483
Mof_N 	N 	0.80955	0.19045	0.25	-0.229
Mof_C 	C 	0.90345	0.09655	0.25	0.076
Mof_C 	C 	0.95565	0.04435	0.25	0.099
Mof_Mg	Mg	0.73344	0.46689	0.25	1.483
Mof_N 	N 	0.80955	0.6191	0.25	-0.229
Mof_C 	C 	0.90345	0.8069	0.25	0.077
Mof_C 	C 	0.95565	0.9113	0.25	0.098
Mof_Mg	Mg	0.46689	0.73345	0.75	1.483
Mof_N 	N 	0.6191	0.80955	0.75	-0.229
Mof_C 	C 	0.8069	0.90345	0.75	0.077
Mof_C 	C 	0.9113	0.95565	0.75	0.097
Mof_Mg	Mg	0.26655	0.73344	0.75	1.483
Mof_N 	N 	0.19045	0.80955	0.75	-0.229
Mof_C 	C 	0.09655	0.90345	0.75	0.077
Mof_C 	C 	0.04435	0.95565	0.75	0.098
Mof_Mg	Mg	0.26656	0.53311	0.75	1.483
Mof_N 	N 	0.19045	0.3809	0.75	-0.229
Mof_C 	C 	0.09655	0.1931	0.75	0.077
Mof_C 	C 	0.04435	0.0887	0.75	0.098
Mof_O 	O 	0.66667	0.33333	0.25	-0.782
Mof_O 	O 	0.33333	0.66667	0.75	-0.782
Mof_N 	N 	0.0465	0.9535	0.25	-0.142
Mof_N 	N 	0.0465	0.093	0.25	-0.142
Mof_N 	N 	0.907	0.9535	0.25	-0.142
Mof_N 	N 	0.9535	0.0465	0.75	-0.142
Mof_N 	N 	0.9535	0.907	0.75	-0.142
Mof_N 	N 	0.093	0.0465	0.75	-0.142
Mof_C 	C 	0.3324	0.2331	0.25	0.097
Mof_H 	H 	0.365	0.2984	0.25	0.002
Mof_C 	C 	0.2398	0.1896	0.25	-0.148
Mof_H 	H 	0.2082	0.2233	0.25	0.087
Mof_C 	C 	0.7669	0.0993	0.25	0.097
Mof_H 	H 	0.7016	0.0666	0.25	0.002
Mof_C 	C 	0.8104	0.0502	0.25	-0.146
Mof_H 	H 	0.7767	0.9849	0.25	0.086
Mof_C 	C 	0.9007	0.6676	0.25	0.097
Mof_H 	H 	0.9334	0.635	0.25	0.002
Mof_C 	C 	0.9498	0.7602	0.25	-0.147
Mof_H 	H 	0.0151	0.7918	0.25	0.086
Mof_C 	C 	0.6676	0.7669	0.75	0.098
Mof_H 	H 	0.635	0.7016	0.75	0.002
Mof_C 	C 	0.7602	0.8104	0.75	-0.149
Mof_H 	H 	0.7918	0.7767	0.75	0.087
Mof_C 	C 	0.2331	0.9007	0.75	0.097
Mof_H 	H 	0.2984	0.9334	0.75	0.002
Mof_C 	C 	0.1896	0.9498	0.75	-0.148
Mof_H 	H 	0.2233	0.0151	0.75	0.086
Mof_C 	C 	0.0993	0.3324	0.75	0.097
Mof_H 	H 	0.0666	0.365	0.75	0.002
Mof_C 	C 	0.0502	0.2398	0.75	-0.148
Mof_H 	H 	0.9849	0.2082	0.75	0.086
Mof_C 	C 	0.2331	0.3324	0.75	0.098
Mof_H 	H 	0.2984	0.365	0.75	0.002
Mof_C 	C 	0.1896	0.2398	0.75	-0.148
Mof_H 	H 	0.2233	0.2082	0.75	0.087
Mof_C 	C 	0.0993	0.7669	0.75	0.097
Mof_H 	H 	0.0666	0.7016	0.75	0.002
Mof_C 	C 	0.0502	0.8104	0.75	-0.148
Mof_H 	H 	0.9849	0.7767	0.75	0.086
Mof_C 	C 	0.6676	0.9007	0.75	0.097
Mof_H 	H 	0.635	0.9334	0.75	0.002
Mof_C 	C 	0.7602	0.9498	0.75	-0.148
Mof_H 	H 	0.7918	0.0151	0.75	0.086
Mof_C 	C 	0.7669	0.6676	0.25	0.097
Mof_H 	H 	0.7016	0.635	0.25	0.002
Mof_C 	C 	0.8104	0.7602	0.25	-0.148
Mof_H 	H 	0.7767	0.7918	0.25	0.087
Mof_C 	C 	0.9007	0.2331	0.25	0.097
Mof_H 	H 	0.9334	0.2984	0.25	0.002
Mof_C 	C 	0.9498	0.1896	0.25	-0.147
Mof_H 	H 	0.0151	0.2233	0.25	0.086
Mof_C 	C 	0.3324	0.0993	0.25	0.097
Mof_H 	H 	0.365	0.0666	0.25	0.002
Mof_C 	C 	0.2398	0.0502	0.25	-0.147
Mof_H 	H 	0.2082	0.9849	0.25	0.086
Mof_C 	C 	0.57675	0.1535	0.1584	0.478
Mof_C 	C 	0.8465	0.42325	0.1584	0.479
Mof_C 	C 	0.57675	0.42325	0.1584	0.478
Mof_C 	C 	0.42325	0.8465	0.6584	0.478
Mof_C 	C 	0.1535	0.57675	0.6584	0.478
Mof_C 	C 	0.42325	0.57675	0.6584	0.478
Mof_C 	C 	0.1535	0.57675	0.8416	0.477
Mof_C 	C 	0.42325	0.8465	0.8416	0.477
Mof_C 	C 	0.42325	0.57675	0.8416	0.477
Mof_C 	C 	0.8465	0.42325	0.3416	0.478
Mof_C 	C 	0.57675	0.1535	0.3416	0.478
Mof_C 	C 	0.57675	0.42325	0.3416	0.478
Mof_C 	C 	0.5366	0	-0	-0.004
Mof_C 	C 	4.50816e-17	0.5366	-0	-0
Mof_C 	C 	0.4634	0.4634	-0	-0.003
Mof_C 	C 	0.4634	0	0.5	-0.002
Mof_C 	C 	-3.02433e-17	0.4634	0.5	-0.001
Mof_C 	C 	0.5366	0.5366	0.5	-0.001
Mof_C 	C 	0.4634	0	-0	-0.003
Mof_C 	C 	-4.50816e-17	0.4634	-0	-0
Mof_C 	C 	0.5366	0.5366	-0	-0.003
Mof_C 	C 	0.5366	0	0.5	-0.002
Mof_C 	C 	5.99198e-17	0.5366	0.5	-0.001
Mof_C 	C 	0.4634	0.4634	0.5	-0.001
_end
