data_functionalizedCrystal
_audit_creation_method	'EQeq! by Chris Wilmer'
_symmetry_space_group_name_H-M	'P1'
_symmetry_Int_Tables_number	1
_symmetry_cell_setting	triclinic
loop_
_symmetry_equiv_pos_as_xyz
  x,y,z
_cell_length_a	22.248
_cell_length_b	22.248
_cell_length_c	27.46
_cell_angle_alpha	90
_cell_angle_beta	90
_cell_angle_gamma	120
loop_
_atom_site_label
_atom_site_type_symbol
_atom_site_fract_x
_atom_site_fract_y
_atom_site_fract_z
_atom_site_charge
Mof_Sn	Sn	0.30507	0.45607	0.98153	0.954
Mof_O 	O 	0.70801	0.47598	0.9532	-0.367
Mof_O 	O 	0.76794	0.57574	0.99427	-0.367
Mof_O 	O 	0.40977	0.4786	0.95844	-0.398
Mof_O 	O 	0.45598	0.58448	0.99176	-0.344
Mof_N 	N 	0.60324	0.49911	0.94043	-0.179
Mof_C 	C 	0.54427	0.50225	0.93603	0.073
Mof_C 	C 	0.53089	0.54267	0.96775	-0.116
Mof_C 	C 	0.46063	0.53721	0.97325	0.339
Mof_C 	C 	0.5836	0.58729	0.99927	-0.002
Mof_H 	H 	0.5767	0.6174	0.0201	0.013
Mof_C 	C 	0.64634	0.58767	0.00026	-0.077
Mof_H 	H 	0.6836	0.6192	0.0204	0.048
Mof_C 	C 	0.6527	0.54092	0.97119	-0.02
Mof_C 	C 	0.71504	0.53048	0.97292	0.312
Mof_C 	C 	0.30698	0.5386	0.94135	-0.47
Mof_H 	H 	0.318	0.577	0.9643	0.149
Mof_H 	H 	0.3458	0.5555	0.9178	0.146
Mof_C 	C 	0.2423	0.5241	0.91345	0.062
Mof_H 	H 	0.2039	0.511	0.9368	0.002
Mof_H 	H 	0.229	0.484	0.8915	-0.012
Mof_C 	C 	0.2515	0.5865	0.8828	-0.056
Mof_H 	H 	0.2632	0.6261	0.9048	0.032
Mof_H 	H 	0.2909	0.6007	0.8601	0.036
Mof_C 	C 	0.1865	0.5705	0.8534	-0.335
Mof_H 	H 	0.1951	0.6118	0.835	0.124
Mof_H 	H 	0.1474	0.5571	0.8757	0.105
Mof_H 	H 	0.1755	0.5323	0.8307	0.114
Mof_C 	C 	0.3293	0.4488	0.0526	-0.492
Mof_H 	H 	0.3608	0.4295	0.0509	0.162
Mof_H 	H 	0.3583	0.4974	0.0637	0.634
Mof_C 	C 	0.2815	0.4117	0.0949	0.115
Mof_H 	H 	0.3091	0.4209	0.1251	-0.546
Mof_H 	H 	0.2491	0.4295	0.0995	0.024
Mof_C 	C 	0.2407	0.3345	0.0856	-0.985
Mof_H 	H 	0.273	0.3178	0.0769	0.189
Mof_H 	H 	0.2088	0.325	0.0579	0.291
Mof_C 	C 	0.1982	0.2948	0.1312	0.536
Mof_H 	H 	0.1779	0.2448	0.1261	-0.18
Mof_H 	H 	0.161	0.3055	0.1367	-0.174
Mof_H 	H 	0.2288	0.309	0.1597	-0.46
Mof_O 	O 	0.6562	0.3286	0.9141	-0.183
Mof_C 	C 	0.7126	0.3352	0.9279	0.164
Mof_N 	N 	0.7289	0.285	0.9192	-0.029
Mof_C 	C 	0.6829	0.2236	0.8911	-0.228
Mof_C 	C 	0.7898	0.2861	0.9399	-0.146
Mof_C 	C 	0.26	0.361	0.936	-0.148
Mof_H 	H 	0.2091	0.3338	0.9406	0.24
Mof_H 	H 	0.2696	0.3736	0.9011	0.84
Mof_C 	C 	0.292	0.319	0.951	-0.043
Mof_H 	H 	0.2789	0.3057	0.9851	-0.27
Mof_H 	H 	0.3426	0.3499	0.9496	-0.123
Mof_C 	C 	0.2745	0.2541	0.9227	-0.391
Mof_H 	H 	0.2896	0.2663	0.8884	0.124
Mof_H 	H 	0.2237	0.2222	0.9229	0.43
Mof_C 	C 	0.284	0.2016	0.9188	-0.34
Mof_H 	H 	0.2581	0.1599	0.8988	0.087
Mof_H 	H 	0.2846	0.1879	0.9527	0.147
Mof_H 	H 	0.3321	0.2281	0.9067	0.128
Mof_C 	C 	0.5646	0.347	0.9858	-0.175
Mof_H 	H 	0.5557	0.299	0.9842	-0.002
Mof_H 	H 	0.601	0.3721	0.0107	0.135
Mof_C 	C 	0.4994	0.3453	0.0025	0.036
Mof_H 	H 	0.5098	0.3933	0.0087	-0.008
Mof_H 	H 	0.4647	0.326	0.976	0.019
Mof_C 	C 	0.4685	0.303	0.0476	-0.103
Mof_H 	H 	0.5064	0.312	0.0706	0.042
Mof_H 	H 	0.4448	0.2532	0.0389	-0.377
Mof_C 	C 	0.4159	0.3185	0.0738	-1.23
Mof_H 	H 	0.3853	0.279	0.0945	0.386
Mof_H 	H 	0.3881	0.326	0.0495	0.397
Mof_H 	H 	0.4411	0.3602	0.0939	0.221
Mof_C 	C 	0.3398	0.4635	0.0593	-0.253
Mof_H 	H 	0.385	0.465	0.0608	-0.018
Mof_H 	H 	0.3452	0.5062	0.0747	-0.358
Mof_C 	C 	0.2841	0.3992	0.0858	0.262
Mof_H 	H 	0.2402	0.4004	0.086	-0.021
Mof_H 	H 	0.2757	0.3572	0.0677	0.221
Mof_C 	C 	0.3038	0.3938	0.1378	0.884
Mof_H 	H 	0.3221	0.4397	0.1535	-0.034
Mof_H 	H 	0.3419	0.3831	0.137	-0.255
Mof_C 	C 	0.2449	0.339	0.1701	-0.3
Mof_H 	H 	0.2608	0.3447	0.204	0.04
Mof_H 	H 	0.2323	0.2924	0.1588	0.409
Mof_H 	H 	0.2043	0.3452	0.1681	0.138
Mof_C 	C 	0.264	0.3598	0.9491	0.428
Mof_H 	H 	0.2171	0.3324	0.9635	-0.235
Mof_H 	H 	0.2562	0.3679	0.9148	-0.953
Mof_C 	C 	0.29	0.311	0.946	-0.13
Mof_H 	H 	0.293	0.2965	0.9798	0.325
Mof_H 	H 	0.3382	0.3368	0.9334	0.163
Mof_C 	C 	0.2504	0.2463	0.9159	0.167
Mof_H 	H 	0.2491	0.2593	0.8816	-0.067
Mof_H 	H 	0.202	0.2195	0.9279	-0.363
Mof_C 	C 	0.311	0.2173	0.945	-0.064
Mof_H 	H 	0.294	0.1725	0.9289	0.087
Mof_H 	H 	0.2999	0.2099	0.9799	-0.01
Mof_H 	H 	0.3608	0.2461	0.9406	0.031
Mof_C 	C 	0.5626	0.349	0.9851	-0.174
Mof_H 	H 	0.5332	0.2986	0.9798	0.14
Mof_H 	H 	0.6017	0.3562	0.0061	-0.031
Mof_C 	C 	0.5202	0.3731	0.0132	0.031
Mof_H 	H 	0.5518	0.4199	0.0265	-0.007
Mof_H 	H 	0.4879	0.3772	0.9904	-0.013
Mof_C 	C 	0.4791	0.3259	0.0542	-0.221
Mof_H 	H 	0.4675	0.3526	0.0775	0.334
Mof_H 	H 	0.5087	0.3114	0.0716	0.077
Mof_C 	C 	0.4126	0.2617	0.0393	1.451
Mof_H 	H 	0.4082	0.2214	0.057	-0.263
Mof_H 	H 	0.4136	0.2542	0.0042	-0.371
Mof_H 	H 	0.3729	0.2677	0.047	-0.386
Mof_H 	H 	0.7446	0.3761	0.9448	-0.039
Mof_H 	H 	0.642	0.2261	0.881	0.085
Mof_H 	H 	0.6684	0.1821	0.911	0.105
Mof_H 	H 	0.7075	0.2212	0.8621	0.095
Mof_H 	H 	0.8216	0.2905	0.9137	0.029
Mof_H 	H 	0.7754	0.243	0.9579	0.04
Mof_H 	H 	0.8134	0.3257	0.9621	0.072
Mof_Sn	Sn	0.54393	0.849	0.31486	0.952
Mof_O 	O 	0.52402	0.23203	0.28653	-0.368
Mof_O 	O 	0.42426	0.1922	0.3276	-0.368
Mof_O 	O 	0.5214	0.93117	0.29177	-0.399
Mof_O 	O 	0.41552	0.8715	0.32509	-0.345
Mof_N 	N 	0.50089	0.10413	0.27376	-0.18
Mof_C 	C 	0.49775	0.04202	0.26936	0.072
Mof_C 	C 	0.45733	0.98822	0.30108	-0.117
Mof_C 	C 	0.46279	0.92342	0.30658	0.338
Mof_C 	C 	0.41271	0.99631	0.3326	-0.002
Mof_H 	H 	0.3826	0.9593	0.35343	0.011
Mof_C 	C 	0.41233	0.05867	0.33359	-0.079
Mof_H 	H 	0.3808	0.0644	0.35373	0.047
Mof_C 	C 	0.45908	0.11178	0.30452	-0.021
Mof_C 	C 	0.46952	0.18456	0.30625	0.311
Mof_C 	C 	0.4614	0.76838	0.27468	-0.471
Mof_H 	H 	0.423	0.741	0.29763	0.148
Mof_H 	H 	0.4445	0.7903	0.25113	0.145
Mof_C 	C 	0.4759	0.7182	0.24678	0.061
Mof_H 	H 	0.489	0.6929	0.27013	0.001
Mof_H 	H 	0.516	0.745	0.22483	-0.013
Mof_C 	C 	0.4135	0.665	0.21613	-0.057
Mof_H 	H 	0.3739	0.6371	0.23813	0.031
Mof_H 	H 	0.3993	0.6902	0.19343	0.035
Mof_C 	C 	0.4295	0.616	0.18673	-0.335
Mof_H 	H 	0.3882	0.5833	0.16833	0.123
Mof_H 	H 	0.4429	0.5903	0.20903	0.104
Mof_H 	H 	0.4677	0.6432	0.16403	0.113
Mof_C 	C 	0.5512	0.8805	0.38593	-0.493
Mof_H 	H 	0.5705	0.9313	0.38423	0.161
Mof_H 	H 	0.5026	0.8609	0.39703	0.632
Mof_C 	C 	0.5883	0.8698	0.42823	0.114
Mof_H 	H 	0.5791	0.8882	0.45843	-0.547
Mof_H 	H 	0.5705	0.8196	0.43283	0.022
Mof_C 	C 	0.6655	0.9062	0.41893	-0.986
Mof_H 	H 	0.6822	0.9552	0.41023	0.188
Mof_H 	H 	0.675	0.8838	0.39123	0.29
Mof_C 	C 	0.7052	0.9034	0.46453	0.535
Mof_H 	H 	0.7552	0.9331	0.45943	-0.181
Mof_H 	H 	0.6945	0.8555	0.47003	-0.176
Mof_H 	H 	0.691	0.9198	0.49303	-0.461
Mof_O 	O 	0.6714	0.3276	0.24743	-0.184
Mof_C 	C 	0.6648	0.3774	0.26123	0.163
Mof_N 	N 	0.715	0.4439	0.25253	-0.03
Mof_C 	C 	0.7764	0.4593	0.22443	-0.229
Mof_C 	C 	0.7139	0.5037	0.27323	-0.147
Mof_C 	C 	0.639	0.899	0.26933	-0.149
Mof_H 	H 	0.6662	0.8753	0.27393	0.239
Mof_H 	H 	0.6264	0.896	0.23443	0.839
Mof_C 	C 	0.681	0.973	0.28433	-0.043
Mof_H 	H 	0.6943	0.9732	0.31843	-0.271
Mof_H 	H 	0.6501	0.9927	0.28293	-0.123
Mof_C 	C 	0.7459	0.0204	0.25603	-0.392
Mof_H 	H 	0.7337	0.0233	0.22173	0.124
Mof_H 	H 	0.7778	0.0015	0.25623	0.431
Mof_C 	C 	0.7984	0.0824	0.25213	-0.339
Mof_H 	H 	0.8401	0.0982	0.23213	0.087
Mof_H 	H 	0.8121	0.0967	0.28603	0.146
Mof_H 	H 	0.7719	0.104	0.24003	0.127
Mof_C 	C 	0.653	0.2176	0.31913	-0.175
Mof_H 	H 	0.701	0.2567	0.31753	-0.002
Mof_H 	H 	0.6279	0.2289	0.34403	0.135
Mof_C 	C 	0.6547	0.1541	0.33583	0.036
Mof_H 	H 	0.6067	0.1165	0.34203	-0.008
Mof_H 	H 	0.674	0.1387	0.30933	0.019
Mof_C 	C 	0.697	0.1655	0.38093	-0.104
Mof_H 	H 	0.688	0.1944	0.40393	0.042
Mof_H 	H 	0.7468	0.1916	0.37223	-0.377
Mof_C 	C 	0.6815	0.0974	0.40713	-1.23
Mof_H 	H 	0.721	0.1063	0.42783	0.386
Mof_H 	H 	0.674	0.0621	0.38283	0.398
Mof_H 	H 	0.6398	0.0809	0.42723	0.221
Mof_C 	C 	0.5365	0.8763	0.39263	-0.253
Mof_H 	H 	0.535	0.92	0.39413	-0.018
Mof_H 	H 	0.4938	0.839	0.40803	-0.357
Mof_C 	C 	0.6008	0.8849	0.41913	0.262
Mof_H 	H 	0.5996	0.8398	0.41933	-0.021
Mof_H 	H 	0.6428	0.9185	0.40103	0.221
Mof_C 	C 	0.6062	0.91	0.47113	0.884
Mof_H 	H 	0.5603	0.8824	0.48683	-0.034
Mof_H 	H 	0.6169	0.9588	0.47033	-0.255
Mof_C 	C 	0.661	0.9059	0.50343	-0.3
Mof_H 	H 	0.6553	0.9161	0.53733	0.04
Mof_H 	H 	0.7076	0.9399	0.49213	0.409
Mof_H 	H 	0.6548	0.8591	0.50143	0.138
Mof_C 	C 	0.6402	0.9042	0.28243	0.428
Mof_H 	H 	0.6676	0.8847	0.29683	-0.235
Mof_H 	H 	0.6321	0.8883	0.24813	-0.953
Mof_C 	C 	0.689	0.979	0.27933	-0.13
Mof_H 	H 	0.7035	0.9965	0.31313	0.325
Mof_H 	H 	0.6632	0.0014	0.26673	0.162
Mof_C 	C 	0.7537	0.0041	0.24923	0.166
Mof_H 	H 	0.7407	0.9898	0.21493	-0.067
Mof_H 	H 	0.7805	0.9825	0.26123	-0.363
Mof_C 	C 	0.7827	0.0937	0.27833	-0.063
Mof_H 	H 	0.8275	0.1215	0.26223	0.087
Mof_H 	H 	0.7901	0.09	0.31323	-0.011
Mof_H 	H 	0.7539	0.1147	0.27393	0.031
Mof_C 	C 	0.651	0.2136	0.31843	-0.174
Mof_H 	H 	0.7014	0.2346	0.31313	0.139
Mof_H 	H 	0.6438	0.2455	0.33943	-0.032
Mof_C 	C 	0.6269	0.1471	0.34653	0.032
Mof_H 	H 	0.5801	0.1319	0.35983	-0.008
Mof_H 	H 	0.6228	0.1107	0.32373	-0.013
Mof_C 	C 	0.6741	0.1532	0.38753	-0.221
Mof_H 	H 	0.6474	0.1149	0.41083	0.334
Mof_H 	H 	0.6886	0.1973	0.40493	0.077
Mof_C 	C 	0.7383	0.1509	0.37263	1.451
Mof_H 	H 	0.7786	0.1868	0.39033	-0.263
Mof_H 	H 	0.7458	0.1594	0.33753	-0.371
Mof_H 	H 	0.7323	0.1052	0.38033	-0.386
Mof_H 	H 	0.6239	0.3685	0.27813	-0.039
Mof_H 	H 	0.7739	0.4159	0.21433	0.085
Mof_H 	H 	0.8179	0.4863	0.24433	0.104
Mof_H 	H 	0.7788	0.4863	0.19543	0.095
Mof_H 	H 	0.7095	0.5311	0.24703	0.029
Mof_H 	H 	0.757	0.5324	0.29123	0.04
Mof_H 	H 	0.6743	0.4877	0.29543	0.072
Mof_Sn	Sn	0.151	0.69493	0.6482	0.952
Mof_O 	O 	0.76797	0.29199	0.61987	-0.368
Mof_O 	O 	0.8078	0.23206	0.66094	-0.368
Mof_O 	O 	0.06883	0.59023	0.62511	-0.399
Mof_O 	O 	0.1285	0.54402	0.65843	-0.345
Mof_N 	N 	0.89587	0.39676	0.6071	-0.18
Mof_C 	C 	0.95798	0.45573	0.6027	0.072
Mof_C 	C 	0.01178	0.46911	0.63442	-0.118
Mof_C 	C 	0.07658	0.53937	0.63992	0.338
Mof_C 	C 	0.00369	0.4164	0.66594	-0.001
Mof_H 	H 	0.0407	0.4233	0.68677	0.011
Mof_C 	C 	0.94133	0.35366	0.66693	-0.08
Mof_H 	H 	0.9356	0.3164	0.68707	0.047
Mof_C 	C 	0.88822	0.3473	0.63786	-0.02
Mof_C 	C 	0.81544	0.28496	0.63959	0.311
Mof_C 	C 	0.23162	0.69302	0.60802	-0.471
Mof_H 	H 	0.259	0.682	0.63097	0.148
Mof_H 	H 	0.2097	0.6542	0.58447	0.145
Mof_C 	C 	0.2818	0.7577	0.58012	0.061
Mof_H 	H 	0.3071	0.7961	0.60347	0.001
Mof_H 	H 	0.255	0.771	0.55817	-0.013
Mof_C 	C 	0.335	0.7485	0.54947	-0.057
Mof_H 	H 	0.3629	0.7368	0.57147	0.031
Mof_H 	H 	0.3098	0.7091	0.52677	0.035
Mof_C 	C 	0.384	0.8135	0.52007	-0.335
Mof_H 	H 	0.4167	0.8049	0.50167	0.123
Mof_H 	H 	0.4097	0.8526	0.54237	0.104
Mof_H 	H 	0.3568	0.8245	0.49737	0.113
Mof_C 	C 	0.1195	0.6707	0.71927	-0.493
Mof_H 	H 	0.0687	0.6392	0.71757	0.161
Mof_H 	H 	0.1391	0.6417	0.73037	0.632
Mof_C 	C 	0.1302	0.7185	0.76157	0.114
Mof_H 	H 	0.1118	0.6909	0.79177	-0.547
Mof_H 	H 	0.1804	0.7509	0.76617	0.023
Mof_C 	C 	0.0938	0.7593	0.75227	-0.986
Mof_H 	H 	0.0448	0.727	0.74357	0.188
Mof_H 	H 	0.1162	0.7912	0.72457	0.29
Mof_C 	C 	0.0966	0.8018	0.79787	0.535
Mof_H 	H 	0.0669	0.8221	0.79277	-0.181
Mof_H 	H 	0.1445	0.839	0.80337	-0.175
Mof_H 	H 	0.0802	0.7712	0.82637	-0.461
Mof_O 	O 	0.6724	0.3438	0.58077	-0.184
Mof_C 	C 	0.6226	0.2874	0.59457	0.163
Mof_N 	N 	0.5561	0.2711	0.58587	-0.03
Mof_C 	C 	0.5407	0.3171	0.55777	-0.229
Mof_C 	C 	0.4963	0.2102	0.60657	-0.147
Mof_C 	C 	0.101	0.74	0.60267	-0.149
Mof_H 	H 	0.1247	0.7909	0.60727	0.239
Mof_H 	H 	0.104	0.7304	0.56777	0.839
Mof_C 	C 	0.027	0.708	0.61767	-0.043
Mof_H 	H 	0.0268	0.7211	0.65177	-0.271
Mof_H 	H 	0.0073	0.6574	0.61627	-0.123
Mof_C 	C 	0.9796	0.7255	0.58937	-0.392
Mof_H 	H 	0.9767	0.7104	0.55507	0.124
Mof_H 	H 	0.9985	0.7763	0.58957	0.431
Mof_C 	C 	0.9176	0.716	0.58547	-0.339
Mof_H 	H 	0.9018	0.7419	0.56547	0.087
Mof_H 	H 	0.9033	0.7154	0.61937	0.146
Mof_H 	H 	0.896	0.6679	0.57337	0.127
Mof_C 	C 	0.7824	0.4354	0.65247	-0.175
Mof_H 	H 	0.7433	0.4443	0.65087	-0.002
Mof_H 	H 	0.7711	0.399	0.67737	0.135
Mof_C 	C 	0.8459	0.5006	0.66917	0.036
Mof_H 	H 	0.8835	0.4902	0.67537	-0.008
Mof_H 	H 	0.8613	0.5353	0.64267	0.019
Mof_C 	C 	0.8345	0.5315	0.71427	-0.104
Mof_H 	H 	0.8056	0.4936	0.73727	0.042
Mof_H 	H 	0.8084	0.5552	0.70557	-0.377
Mof_C 	C 	0.9026	0.5841	0.74047	-1.23
Mof_H 	H 	0.8937	0.6147	0.76117	0.386
Mof_H 	H 	0.9379	0.6119	0.71617	0.397
Mof_H 	H 	0.9191	0.5589	0.76057	0.221
Mof_C 	C 	0.1237	0.6602	0.72597	-0.253
Mof_H 	H 	0.08	0.615	0.72747	-0.018
Mof_H 	H 	0.161	0.6548	0.74137	-0.357
Mof_C 	C 	0.1151	0.7159	0.75247	0.262
Mof_H 	H 	0.1602	0.7598	0.75267	-0.021
Mof_H 	H 	0.0815	0.7243	0.73437	0.221
Mof_C 	C 	0.09	0.6962	0.80447	0.884
Mof_H 	H 	0.1176	0.6779	0.82017	-0.034
Mof_H 	H 	0.0412	0.6581	0.80367	-0.255
Mof_C 	C 	0.0941	0.7551	0.83677	-0.3
Mof_H 	H 	0.0839	0.7392	0.87067	0.04
Mof_H 	H 	0.0601	0.7677	0.82547	0.409
Mof_H 	H 	0.1409	0.7957	0.83477	0.138
Mof_C 	C 	0.0958	0.736	0.61577	0.429
Mof_H 	H 	0.1153	0.7829	0.63017	-0.235
Mof_H 	H 	0.1117	0.7438	0.58147	-0.954
Mof_C 	C 	0.021	0.71	0.61267	-0.13
Mof_H 	H 	0.0035	0.707	0.64647	0.325
Mof_H 	H 	0.9986	0.6618	0.60007	0.162
Mof_C 	C 	0.9959	0.7496	0.58257	0.166
Mof_H 	H 	0.0102	0.7509	0.54827	-0.067
Mof_H 	H 	0.0175	0.798	0.59457	-0.363
Mof_C 	C 	0.9063	0.689	0.61167	-0.063
Mof_H 	H 	0.8785	0.706	0.59557	0.087
Mof_H 	H 	0.91	0.7001	0.64657	-0.011
Mof_H 	H 	0.8853	0.6392	0.60727	0.031
Mof_C 	C 	0.7864	0.4374	0.65177	-0.174
Mof_H 	H 	0.7654	0.4668	0.64647	0.139
Mof_H 	H 	0.7545	0.3983	0.67277	-0.032
Mof_C 	C 	0.8529	0.4798	0.67987	0.032
Mof_H 	H 	0.8681	0.4482	0.69317	-0.008
Mof_H 	H 	0.8893	0.5121	0.65707	-0.013
Mof_C 	C 	0.8468	0.5209	0.72087	-0.221
Mof_H 	H 	0.8851	0.5325	0.74417	0.334
Mof_H 	H 	0.8027	0.4913	0.73827	0.077
Mof_C 	C 	0.8491	0.5874	0.70597	1.452
Mof_H 	H 	0.8132	0.5918	0.72367	-0.263
Mof_H 	H 	0.8406	0.5864	0.67087	-0.371
Mof_H 	H 	0.8948	0.6271	0.71367	-0.386
Mof_H 	H 	0.6315	0.2554	0.61147	-0.039
Mof_H 	H 	0.5841	0.358	0.54767	0.085
Mof_H 	H 	0.5137	0.3316	0.57767	0.105
Mof_H 	H 	0.5137	0.2925	0.52877	0.095
Mof_H 	H 	0.4689	0.1784	0.58037	0.029
Mof_H 	H 	0.4676	0.2246	0.62457	0.04
Mof_H 	H 	0.5123	0.1866	0.62877	0.072
Mof_Sn	Sn	0.69493	0.54393	0.48153	0.952
Mof_O 	O 	0.29199	0.52402	0.4532	-0.368
Mof_O 	O 	0.23206	0.42426	0.49427	-0.368
Mof_O 	O 	0.59023	0.5214	0.45844	-0.399
Mof_O 	O 	0.54402	0.41552	0.49176	-0.345
Mof_N 	N 	0.39676	0.50089	0.44043	-0.18
Mof_C 	C 	0.45573	0.49775	0.43603	0.073
Mof_C 	C 	0.46911	0.45733	0.46775	-0.118
Mof_C 	C 	0.53937	0.46279	0.47325	0.338
Mof_C 	C 	0.4164	0.41271	0.49927	-0.002
Mof_H 	H 	0.4233	0.3826	0.5201	0.012
Mof_C 	C 	0.35366	0.41233	0.50026	-0.079
Mof_H 	H 	0.3164	0.3808	0.5204	0.047
Mof_C 	C 	0.3473	0.45908	0.47119	-0.021
Mof_C 	C 	0.28496	0.46952	0.47292	0.311
Mof_C 	C 	0.69302	0.4614	0.44135	-0.471
Mof_H 	H 	0.682	0.423	0.4643	0.148
Mof_H 	H 	0.6542	0.4445	0.4178	0.145
Mof_C 	C 	0.7577	0.4759	0.41345	0.061
Mof_H 	H 	0.7961	0.489	0.4368	0.001
Mof_H 	H 	0.771	0.516	0.3915	-0.013
Mof_C 	C 	0.7485	0.4135	0.3828	-0.057
Mof_H 	H 	0.7368	0.3739	0.4048	0.031
Mof_H 	H 	0.7091	0.3993	0.3601	0.035
Mof_C 	C 	0.8135	0.4295	0.3534	-0.335
Mof_H 	H 	0.8049	0.3882	0.335	0.123
Mof_H 	H 	0.8526	0.4429	0.3757	0.104
Mof_H 	H 	0.8245	0.4677	0.3307	0.113
Mof_C 	C 	0.6707	0.5512	0.5526	-0.493
Mof_H 	H 	0.6392	0.5705	0.5509	0.161
Mof_H 	H 	0.6417	0.5026	0.5637	0.632
Mof_C 	C 	0.7185	0.5883	0.5949	0.114
Mof_H 	H 	0.6909	0.5791	0.6251	-0.547
Mof_H 	H 	0.7509	0.5705	0.5995	0.023
Mof_C 	C 	0.7593	0.6655	0.5856	-0.986
Mof_H 	H 	0.727	0.6822	0.5769	0.188
Mof_H 	H 	0.7912	0.675	0.5579	0.29
Mof_C 	C 	0.8018	0.7052	0.6312	0.535
Mof_H 	H 	0.8221	0.7552	0.6261	-0.181
Mof_H 	H 	0.839	0.6945	0.6367	-0.175
Mof_H 	H 	0.7712	0.691	0.6597	-0.461
Mof_O 	O 	0.3438	0.6714	0.4141	-0.184
Mof_C 	C 	0.2874	0.6648	0.4279	0.163
Mof_N 	N 	0.2711	0.715	0.4192	-0.03
Mof_C 	C 	0.3171	0.7764	0.3911	-0.229
Mof_C 	C 	0.2102	0.7139	0.4399	-0.147
Mof_C 	C 	0.74	0.639	0.436	-0.149
Mof_H 	H 	0.7909	0.6662	0.4406	0.238
Mof_H 	H 	0.7304	0.6264	0.4011	0.838
Mof_C 	C 	0.708	0.681	0.451	-0.044
Mof_H 	H 	0.7211	0.6943	0.4851	-0.271
Mof_H 	H 	0.6574	0.6501	0.4496	-0.124
Mof_C 	C 	0.7255	0.7459	0.4227	-0.39
Mof_H 	H 	0.7104	0.7337	0.3884	0.124
Mof_H 	H 	0.7763	0.7778	0.4229	0.43
Mof_C 	C 	0.716	0.7984	0.4188	-0.341
Mof_H 	H 	0.7419	0.8401	0.3988	0.088
Mof_H 	H 	0.7154	0.8121	0.4527	0.147
Mof_H 	H 	0.6679	0.7719	0.4067	0.128
Mof_C 	C 	0.4354	0.653	0.4858	-0.175
Mof_H 	H 	0.4443	0.701	0.4842	-0.002
Mof_H 	H 	0.399	0.6279	0.5107	0.135
Mof_C 	C 	0.5006	0.6547	0.5025	0.036
Mof_H 	H 	0.4902	0.6067	0.5087	-0.008
Mof_H 	H 	0.5353	0.674	0.476	0.019
Mof_C 	C 	0.5315	0.697	0.5476	-0.104
Mof_H 	H 	0.4936	0.688	0.5706	0.042
Mof_H 	H 	0.5552	0.7468	0.5389	-0.377
Mof_C 	C 	0.5841	0.6815	0.5738	-1.23
Mof_H 	H 	0.6147	0.721	0.5945	0.387
Mof_H 	H 	0.6119	0.674	0.5495	0.398
Mof_H 	H 	0.5589	0.6398	0.5939	0.221
Mof_C 	C 	0.6602	0.5365	0.5593	-0.253
Mof_H 	H 	0.615	0.535	0.5608	-0.018
Mof_H 	H 	0.6548	0.4938	0.5747	-0.357
Mof_C 	C 	0.7159	0.6008	0.5858	0.262
Mof_H 	H 	0.7598	0.5996	0.586	-0.021
Mof_H 	H 	0.7243	0.6428	0.5677	0.221
Mof_C 	C 	0.6962	0.6062	0.6378	0.884
Mof_H 	H 	0.6779	0.5603	0.6535	-0.034
Mof_H 	H 	0.6581	0.6169	0.637	-0.255
Mof_C 	C 	0.7551	0.661	0.6701	-0.3
Mof_H 	H 	0.7392	0.6553	0.704	0.04
Mof_H 	H 	0.7677	0.7076	0.6588	0.409
Mof_H 	H 	0.7957	0.6548	0.6681	0.138
Mof_C 	C 	0.736	0.6402	0.4491	0.428
Mof_H 	H 	0.7829	0.6676	0.4635	-0.235
Mof_H 	H 	0.7438	0.6321	0.4148	-0.952
Mof_C 	C 	0.71	0.689	0.446	-0.13
Mof_H 	H 	0.707	0.7035	0.4798	0.325
Mof_H 	H 	0.6618	0.6632	0.4334	0.163
Mof_C 	C 	0.7496	0.7537	0.4159	0.167
Mof_H 	H 	0.7509	0.7407	0.3816	-0.067
Mof_H 	H 	0.798	0.7805	0.4279	-0.363
Mof_C 	C 	0.689	0.7827	0.445	-0.064
Mof_H 	H 	0.706	0.8275	0.4289	0.088
Mof_H 	H 	0.7001	0.7901	0.4799	-0.011
Mof_H 	H 	0.6392	0.7539	0.4406	0.031
Mof_C 	C 	0.4374	0.651	0.4851	-0.174
Mof_H 	H 	0.4668	0.7014	0.4798	0.139
Mof_H 	H 	0.3983	0.6438	0.5061	-0.032
Mof_C 	C 	0.4798	0.6269	0.5132	0.032
Mof_H 	H 	0.4482	0.5801	0.5265	-0.008
Mof_H 	H 	0.5121	0.6228	0.4904	-0.013
Mof_C 	C 	0.5209	0.6741	0.5542	-0.221
Mof_H 	H 	0.5325	0.6474	0.5775	0.334
Mof_H 	H 	0.4913	0.6886	0.5716	0.077
Mof_C 	C 	0.5874	0.7383	0.5393	1.451
Mof_H 	H 	0.5918	0.7786	0.557	-0.263
Mof_H 	H 	0.5864	0.7458	0.5042	-0.371
Mof_H 	H 	0.6271	0.7323	0.547	-0.386
Mof_H 	H 	0.2554	0.6239	0.4448	-0.039
Mof_H 	H 	0.358	0.7739	0.381	0.085
Mof_H 	H 	0.3316	0.8179	0.411	0.105
Mof_H 	H 	0.2925	0.7788	0.3621	0.095
Mof_H 	H 	0.1784	0.7095	0.4137	0.029
Mof_H 	H 	0.2246	0.757	0.4579	0.04
Mof_H 	H 	0.1866	0.6743	0.4621	0.072
Mof_Sn	Sn	0.45607	0.151	0.81486	0.952
Mof_O 	O 	0.47598	0.76797	0.78653	-0.368
Mof_O 	O 	0.57574	0.8078	0.8276	-0.368
Mof_O 	O 	0.4786	0.06883	0.79177	-0.399
Mof_O 	O 	0.58448	0.1285	0.82509	-0.345
Mof_N 	N 	0.49911	0.89587	0.77376	-0.18
Mof_C 	C 	0.50225	0.95798	0.76936	0.072
Mof_C 	C 	0.54267	0.01178	0.80108	-0.118
Mof_C 	C 	0.53721	0.07658	0.80658	0.338
Mof_C 	C 	0.58729	0.00369	0.8326	-0.002
Mof_H 	H 	0.6174	0.0407	0.85343	0.011
Mof_C 	C 	0.58767	0.94133	0.83359	-0.079
Mof_H 	H 	0.6192	0.9356	0.85373	0.047
Mof_C 	C 	0.54092	0.88822	0.80452	-0.021
Mof_C 	C 	0.53048	0.81544	0.80625	0.311
Mof_C 	C 	0.5386	0.23162	0.77468	-0.471
Mof_H 	H 	0.577	0.259	0.79763	0.148
Mof_H 	H 	0.5555	0.2097	0.75113	0.145
Mof_C 	C 	0.5241	0.2818	0.74678	0.061
Mof_H 	H 	0.511	0.3071	0.77013	0.001
Mof_H 	H 	0.484	0.255	0.72483	-0.013
Mof_C 	C 	0.5865	0.335	0.71613	-0.057
Mof_H 	H 	0.6261	0.3629	0.73813	0.031
Mof_H 	H 	0.6007	0.3098	0.69343	0.035
Mof_C 	C 	0.5705	0.384	0.68673	-0.335
Mof_H 	H 	0.6118	0.4167	0.66833	0.123
Mof_H 	H 	0.5571	0.4097	0.70903	0.104
Mof_H 	H 	0.5323	0.3568	0.66403	0.113
Mof_C 	C 	0.4488	0.1195	0.88593	-0.493
Mof_H 	H 	0.4295	0.0687	0.88423	0.161
Mof_H 	H 	0.4974	0.1391	0.89703	0.632
Mof_C 	C 	0.4117	0.1302	0.92823	0.114
Mof_H 	H 	0.4209	0.1118	0.95843	-0.545
Mof_H 	H 	0.4295	0.1804	0.93283	0.022
Mof_C 	C 	0.3345	0.0938	0.91893	-0.985
Mof_H 	H 	0.3178	0.0448	0.91023	0.188
Mof_H 	H 	0.325	0.1162	0.89123	0.29
Mof_C 	C 	0.2948	0.0966	0.96453	0.534
Mof_H 	H 	0.2448	0.0669	0.95943	-0.181
Mof_H 	H 	0.3055	0.1445	0.97003	-0.175
Mof_H 	H 	0.309	0.0802	0.99303	-0.461
Mof_O 	O 	0.3286	0.6724	0.74743	-0.184
Mof_C 	C 	0.3352	0.6226	0.76123	0.163
Mof_N 	N 	0.285	0.5561	0.75253	-0.03
Mof_C 	C 	0.2236	0.5407	0.72443	-0.229
Mof_C 	C 	0.2861	0.4963	0.77323	-0.147
Mof_C 	C 	0.361	0.101	0.76933	-0.149
Mof_H 	H 	0.3338	0.1247	0.77393	0.239
Mof_H 	H 	0.3736	0.104	0.73443	0.839
Mof_C 	C 	0.319	0.027	0.78433	-0.043
Mof_H 	H 	0.3057	0.0268	0.81843	-0.271
Mof_H 	H 	0.3499	0.0073	0.78293	-0.123
Mof_C 	C 	0.2541	0.9796	0.75603	-0.392
Mof_H 	H 	0.2663	0.9767	0.72173	0.124
Mof_H 	H 	0.2222	0.9985	0.75623	0.431
Mof_C 	C 	0.2016	0.9176	0.75213	-0.339
Mof_H 	H 	0.1599	0.9018	0.73213	0.087
Mof_H 	H 	0.1879	0.9033	0.78603	0.146
Mof_H 	H 	0.2281	0.896	0.74003	0.127
Mof_C 	C 	0.347	0.7824	0.81913	-0.175
Mof_H 	H 	0.299	0.7433	0.81753	-0.002
Mof_H 	H 	0.3721	0.7711	0.84403	0.135
Mof_C 	C 	0.3453	0.8459	0.83583	0.036
Mof_H 	H 	0.3933	0.8835	0.84203	-0.008
Mof_H 	H 	0.326	0.8613	0.80933	0.019
Mof_C 	C 	0.303	0.8345	0.88093	-0.104
Mof_H 	H 	0.312	0.8056	0.90393	0.042
Mof_H 	H 	0.2532	0.8084	0.87223	-0.377
Mof_C 	C 	0.3185	0.9026	0.90713	-1.23
Mof_H 	H 	0.279	0.8937	0.92783	0.386
Mof_H 	H 	0.326	0.9379	0.88283	0.397
Mof_H 	H 	0.3602	0.9191	0.92723	0.221
Mof_C 	C 	0.4635	0.1237	0.89263	-0.253
Mof_H 	H 	0.465	0.08	0.89413	-0.018
Mof_H 	H 	0.5062	0.161	0.90803	-0.357
Mof_C 	C 	0.3992	0.1151	0.91913	0.262
Mof_H 	H 	0.4004	0.1602	0.91933	-0.021
Mof_H 	H 	0.3572	0.0815	0.90103	0.221
Mof_C 	C 	0.3938	0.09	0.97113	0.881
Mof_H 	H 	0.4397	0.1176	0.98683	-0.034
Mof_H 	H 	0.3831	0.0412	0.97033	-0.254
Mof_C 	C 	0.339	0.0941	0.00343	-0.299
Mof_H 	H 	0.3447	0.0839	0.03733	0.039
Mof_H 	H 	0.2924	0.0601	0.99213	0.41
Mof_H 	H 	0.3452	0.1409	0.00143	0.138
Mof_C 	C 	0.3598	0.0958	0.78243	0.428
Mof_H 	H 	0.3324	0.1153	0.79683	-0.235
Mof_H 	H 	0.3679	0.1117	0.74813	-0.953
Mof_C 	C 	0.311	0.021	0.77933	-0.13
Mof_H 	H 	0.2965	0.0035	0.81313	0.325
Mof_H 	H 	0.3368	0.9986	0.76673	0.162
Mof_C 	C 	0.2463	0.9959	0.74923	0.166
Mof_H 	H 	0.2593	0.0102	0.71493	-0.067
Mof_H 	H 	0.2195	0.0175	0.76123	-0.363
Mof_C 	C 	0.2173	0.9063	0.77833	-0.064
Mof_H 	H 	0.1725	0.8785	0.76223	0.087
Mof_H 	H 	0.2099	0.91	0.81323	-0.011
Mof_H 	H 	0.2461	0.8853	0.77393	0.031
Mof_C 	C 	0.349	0.7864	0.81843	-0.174
Mof_H 	H 	0.2986	0.7654	0.81313	0.139
Mof_H 	H 	0.3562	0.7545	0.83943	-0.032
Mof_C 	C 	0.3731	0.8529	0.84653	0.032
Mof_H 	H 	0.4199	0.8681	0.85983	-0.008
Mof_H 	H 	0.3772	0.8893	0.82373	-0.013
Mof_C 	C 	0.3259	0.8468	0.88753	-0.221
Mof_H 	H 	0.3526	0.8851	0.91083	0.334
Mof_H 	H 	0.3114	0.8027	0.90493	0.077
Mof_C 	C 	0.2617	0.8491	0.87263	1.452
Mof_H 	H 	0.2214	0.8132	0.89033	-0.263
Mof_H 	H 	0.2542	0.8406	0.83753	-0.371
Mof_H 	H 	0.2677	0.8948	0.88033	-0.386
Mof_H 	H 	0.3761	0.6315	0.77813	-0.039
Mof_H 	H 	0.2261	0.5841	0.71433	0.085
Mof_H 	H 	0.1821	0.5137	0.74433	0.105
Mof_H 	H 	0.2212	0.5137	0.69543	0.095
Mof_H 	H 	0.2905	0.4689	0.74703	0.029
Mof_H 	H 	0.243	0.4676	0.79123	0.04
Mof_H 	H 	0.3257	0.5123	0.79543	0.072
Mof_Sn	Sn	0.849	0.30507	0.1482	0.952
Mof_O 	O 	0.23203	0.70801	0.11987	-0.368
Mof_O 	O 	0.1922	0.76794	0.16094	-0.368
Mof_O 	O 	0.93117	0.40977	0.12511	-0.399
Mof_O 	O 	0.8715	0.45598	0.15843	-0.345
Mof_N 	N 	0.10413	0.60324	0.1071	-0.18
Mof_C 	C 	0.04202	0.54427	0.1027	0.073
Mof_C 	C 	0.98822	0.53089	0.13442	-0.118
Mof_C 	C 	0.92342	0.46063	0.13992	0.338
Mof_C 	C 	0.99631	0.5836	0.16594	-0.002
Mof_H 	H 	0.9593	0.5767	0.18677	0.011
Mof_C 	C 	0.05867	0.64634	0.16693	-0.079
Mof_H 	H 	0.0644	0.6836	0.18707	0.047
Mof_C 	C 	0.11178	0.6527	0.13786	-0.021
Mof_C 	C 	0.18456	0.71504	0.13959	0.311
Mof_C 	C 	0.76838	0.30698	0.10802	-0.471
Mof_H 	H 	0.741	0.318	0.13097	0.148
Mof_H 	H 	0.7903	0.3458	0.08447	0.145
Mof_C 	C 	0.7182	0.2423	0.08012	0.061
Mof_H 	H 	0.6929	0.2039	0.10347	0.001
Mof_H 	H 	0.745	0.229	0.05817	-0.013
Mof_C 	C 	0.665	0.2515	0.04947	-0.057
Mof_H 	H 	0.6371	0.2632	0.07147	0.031
Mof_H 	H 	0.6902	0.2909	0.02677	0.035
Mof_C 	C 	0.616	0.1865	0.02007	-0.336
Mof_H 	H 	0.5833	0.1951	0.00167	0.123
Mof_H 	H 	0.5903	0.1474	0.04237	0.104
Mof_H 	H 	0.6432	0.1755	0.99737	0.113
Mof_C 	C 	0.8805	0.3293	0.21927	-0.493
Mof_H 	H 	0.9313	0.3608	0.21757	0.161
Mof_H 	H 	0.8609	0.3583	0.23037	0.632
Mof_C 	C 	0.8698	0.2815	0.26157	0.114
Mof_H 	H 	0.8882	0.3091	0.29177	-0.547
Mof_H 	H 	0.8196	0.2491	0.26617	0.023
Mof_C 	C 	0.9062	0.2407	0.25227	-0.986
Mof_H 	H 	0.9552	0.273	0.24357	0.188
Mof_H 	H 	0.8838	0.2088	0.22457	0.29
Mof_C 	C 	0.9034	0.1982	0.29787	0.535
Mof_H 	H 	0.9331	0.1779	0.29277	-0.181
Mof_H 	H 	0.8555	0.161	0.30337	-0.175
Mof_H 	H 	0.9198	0.2288	0.32637	-0.461
Mof_O 	O 	0.3276	0.6562	0.08077	-0.184
Mof_C 	C 	0.3774	0.7126	0.09457	0.163
Mof_N 	N 	0.4439	0.7289	0.08587	-0.03
Mof_C 	C 	0.4593	0.6829	0.05777	-0.23
Mof_C 	C 	0.5037	0.7898	0.10657	-0.147
Mof_C 	C 	0.899	0.26	0.10267	-0.149
Mof_H 	H 	0.8753	0.2091	0.10727	0.239
Mof_H 	H 	0.896	0.2696	0.06777	0.839
Mof_C 	C 	0.973	0.292	0.11767	-0.043
Mof_H 	H 	0.9732	0.2789	0.15177	-0.271
Mof_H 	H 	0.9927	0.3426	0.11627	-0.123
Mof_C 	C 	0.0204	0.2745	0.08937	-0.392
Mof_H 	H 	0.0233	0.2896	0.05507	0.124
Mof_H 	H 	0.0015	0.2237	0.08957	0.431
Mof_C 	C 	0.0824	0.284	0.08547	-0.339
Mof_H 	H 	0.0982	0.2581	0.06547	0.087
Mof_H 	H 	0.0967	0.2846	0.11937	0.146
Mof_H 	H 	0.104	0.3321	0.07337	0.127
Mof_C 	C 	0.2176	0.5646	0.15247	-0.175
Mof_H 	H 	0.2567	0.5557	0.15087	-0.002
Mof_H 	H 	0.2289	0.601	0.17737	0.135
Mof_C 	C 	0.1541	0.4994	0.16917	0.036
Mof_H 	H 	0.1165	0.5098	0.17537	-0.008
Mof_H 	H 	0.1387	0.4647	0.14267	0.019
Mof_C 	C 	0.1655	0.4685	0.21427	-0.104
Mof_H 	H 	0.1944	0.5064	0.23727	0.042
Mof_H 	H 	0.1916	0.4448	0.20557	-0.377
Mof_C 	C 	0.0974	0.4159	0.24047	-1.23
Mof_H 	H 	0.1063	0.3853	0.26117	0.387
Mof_H 	H 	0.0621	0.3881	0.21617	0.398
Mof_H 	H 	0.0809	0.4411	0.26057	0.221
Mof_C 	C 	0.8763	0.3398	0.22597	-0.253
Mof_H 	H 	0.92	0.385	0.22747	-0.018
Mof_H 	H 	0.839	0.3452	0.24137	-0.357
Mof_C 	C 	0.8849	0.2841	0.25247	0.262
Mof_H 	H 	0.8398	0.2402	0.25267	-0.021
Mof_H 	H 	0.9185	0.2757	0.23437	0.221
Mof_C 	C 	0.91	0.3038	0.30447	0.884
Mof_H 	H 	0.8824	0.3221	0.32017	-0.034
Mof_H 	H 	0.9588	0.3419	0.30367	-0.255
Mof_C 	C 	0.9059	0.2449	0.33677	-0.3
Mof_H 	H 	0.9161	0.2608	0.37067	0.04
Mof_H 	H 	0.9399	0.2323	0.32547	0.409
Mof_H 	H 	0.8591	0.2043	0.33477	0.138
Mof_C 	C 	0.9042	0.264	0.11577	0.428
Mof_H 	H 	0.8847	0.2171	0.13017	-0.235
Mof_H 	H 	0.8883	0.2562	0.08147	-0.953
Mof_C 	C 	0.979	0.29	0.11267	-0.13
Mof_H 	H 	0.9965	0.293	0.14647	0.325
Mof_H 	H 	0.0014	0.3382	0.10007	0.162
Mof_C 	C 	0.0041	0.2504	0.08257	0.166
Mof_H 	H 	0.9898	0.2491	0.04827	-0.067
Mof_H 	H 	0.9825	0.202	0.09457	-0.363
Mof_C 	C 	0.0937	0.311	0.11167	-0.064
Mof_H 	H 	0.1215	0.294	0.09557	0.087
Mof_H 	H 	0.09	0.2999	0.14657	-0.011
Mof_H 	H 	0.1147	0.3608	0.10727	0.031
Mof_C 	C 	0.2136	0.5626	0.15177	-0.174
Mof_H 	H 	0.2346	0.5332	0.14647	0.139
Mof_H 	H 	0.2455	0.6017	0.17277	-0.032
Mof_C 	C 	0.1471	0.5202	0.17987	0.032
Mof_H 	H 	0.1319	0.5518	0.19317	-0.008
Mof_H 	H 	0.1107	0.4879	0.15707	-0.013
Mof_C 	C 	0.1532	0.4791	0.22087	-0.221
Mof_H 	H 	0.1149	0.4675	0.24417	0.334
Mof_H 	H 	0.1973	0.5087	0.23827	0.077
Mof_C 	C 	0.1509	0.4126	0.20597	1.451
Mof_H 	H 	0.1868	0.4082	0.22367	-0.263
Mof_H 	H 	0.1594	0.4136	0.17087	-0.371
Mof_H 	H 	0.1052	0.3729	0.21367	-0.386
Mof_H 	H 	0.3685	0.7446	0.11147	-0.039
Mof_H 	H 	0.4159	0.642	0.04767	0.085
Mof_H 	H 	0.4863	0.6684	0.07767	0.105
Mof_H 	H 	0.4863	0.7075	0.02877	0.095
Mof_H 	H 	0.5311	0.8216	0.08037	0.029
Mof_H 	H 	0.5324	0.7754	0.12457	0.04
Mof_H 	H 	0.4877	0.8134	0.12877	0.072
Mof_Sn	Sn	0.45607	0.30507	0.3518	0.952
Mof_O 	O 	0.47598	0.70801	0.38013	-0.368
Mof_O 	O 	0.57574	0.76794	0.33906	-0.368
Mof_O 	O 	0.4786	0.40977	0.37489	-0.399
Mof_O 	O 	0.58448	0.45598	0.34157	-0.345
Mof_N 	N 	0.49911	0.60324	0.3929	-0.18
Mof_C 	C 	0.50225	0.54427	0.3973	0.073
Mof_C 	C 	0.54267	0.53089	0.36558	-0.118
Mof_C 	C 	0.53721	0.46063	0.36008	0.338
Mof_C 	C 	0.58729	0.5836	0.33406	-0.002
Mof_H 	H 	0.6174	0.5767	0.31323	0.012
Mof_C 	C 	0.58767	0.64634	0.33307	-0.079
Mof_H 	H 	0.6192	0.6836	0.31293	0.047
Mof_C 	C 	0.54092	0.6527	0.36214	-0.021
Mof_C 	C 	0.53048	0.71504	0.36041	0.311
Mof_C 	C 	0.5386	0.30698	0.39198	-0.471
Mof_H 	H 	0.577	0.318	0.36903	0.148
Mof_H 	H 	0.5555	0.3458	0.41553	0.145
Mof_C 	C 	0.5241	0.2423	0.41988	0.061
Mof_H 	H 	0.511	0.2039	0.39653	0.001
Mof_H 	H 	0.484	0.229	0.44183	-0.013
Mof_C 	C 	0.5865	0.2515	0.45053	-0.057
Mof_H 	H 	0.6261	0.2632	0.42853	0.031
Mof_H 	H 	0.6007	0.2909	0.47323	0.035
Mof_C 	C 	0.5705	0.1865	0.47993	-0.335
Mof_H 	H 	0.6118	0.1951	0.49833	0.123
Mof_H 	H 	0.5571	0.1474	0.45763	0.104
Mof_H 	H 	0.5323	0.1755	0.50263	0.113
Mof_C 	C 	0.4488	0.3293	0.28073	-0.493
Mof_H 	H 	0.4295	0.3608	0.28243	0.161
Mof_H 	H 	0.4974	0.3583	0.26963	0.632
Mof_C 	C 	0.4117	0.2815	0.23843	0.114
Mof_H 	H 	0.4209	0.3091	0.20823	-0.547
Mof_H 	H 	0.4295	0.2491	0.23383	0.023
Mof_C 	C 	0.3345	0.2407	0.24773	-0.986
Mof_H 	H 	0.3178	0.273	0.25643	0.188
Mof_H 	H 	0.325	0.2088	0.27543	0.29
Mof_C 	C 	0.2948	0.1982	0.20213	0.535
Mof_H 	H 	0.2448	0.1779	0.20723	-0.181
Mof_H 	H 	0.3055	0.161	0.19663	-0.175
Mof_H 	H 	0.309	0.2288	0.17363	-0.461
Mof_O 	O 	0.3286	0.6562	0.41923	-0.184
Mof_C 	C 	0.3352	0.7126	0.40543	0.163
Mof_N 	N 	0.285	0.7289	0.41413	-0.03
Mof_C 	C 	0.2236	0.6829	0.44223	-0.229
Mof_C 	C 	0.2861	0.7898	0.39343	-0.147
Mof_C 	C 	0.361	0.26	0.39733	-0.149
Mof_H 	H 	0.3338	0.2091	0.39273	0.238
Mof_H 	H 	0.3736	0.2696	0.43223	0.838
Mof_C 	C 	0.319	0.292	0.38233	-0.044
Mof_H 	H 	0.3057	0.2789	0.34823	-0.271
Mof_H 	H 	0.3499	0.3426	0.38373	-0.124
Mof_C 	C 	0.2541	0.2745	0.41063	-0.39
Mof_H 	H 	0.2663	0.2896	0.44493	0.124
Mof_H 	H 	0.2222	0.2237	0.41043	0.43
Mof_C 	C 	0.2016	0.284	0.41453	-0.341
Mof_H 	H 	0.1599	0.2581	0.43453	0.088
Mof_H 	H 	0.1879	0.2846	0.38063	0.147
Mof_H 	H 	0.2281	0.3321	0.42663	0.128
Mof_C 	C 	0.347	0.5646	0.34753	-0.175
Mof_H 	H 	0.299	0.5557	0.34913	-0.002
Mof_H 	H 	0.3721	0.601	0.32263	0.135
Mof_C 	C 	0.3453	0.4994	0.33083	0.036
Mof_H 	H 	0.3933	0.5098	0.32463	-0.008
Mof_H 	H 	0.326	0.4647	0.35733	0.019
Mof_C 	C 	0.303	0.4685	0.28573	-0.104
Mof_H 	H 	0.312	0.5064	0.26273	0.042
Mof_H 	H 	0.2532	0.4448	0.29443	-0.377
Mof_C 	C 	0.3185	0.4159	0.25953	-1.23
Mof_H 	H 	0.279	0.3853	0.23883	0.387
Mof_H 	H 	0.326	0.3881	0.28383	0.398
Mof_H 	H 	0.3602	0.4411	0.23943	0.221
Mof_C 	C 	0.4635	0.3398	0.27403	-0.253
Mof_H 	H 	0.465	0.385	0.27253	-0.018
Mof_H 	H 	0.5062	0.3452	0.25863	-0.357
Mof_C 	C 	0.3992	0.2841	0.24753	0.262
Mof_H 	H 	0.4004	0.2402	0.24733	-0.021
Mof_H 	H 	0.3572	0.2757	0.26563	0.221
Mof_C 	C 	0.3938	0.3038	0.19553	0.884
Mof_H 	H 	0.4397	0.3221	0.17983	-0.034
Mof_H 	H 	0.3831	0.3419	0.19633	-0.255
Mof_C 	C 	0.339	0.2449	0.16323	-0.3
Mof_H 	H 	0.3447	0.2608	0.12933	0.04
Mof_H 	H 	0.2924	0.2323	0.17453	0.409
Mof_H 	H 	0.3452	0.2043	0.16523	0.138
Mof_C 	C 	0.3598	0.264	0.38423	0.428
Mof_H 	H 	0.3324	0.2171	0.36983	-0.235
Mof_H 	H 	0.3679	0.2562	0.41853	-0.952
Mof_C 	C 	0.311	0.29	0.38733	-0.13
Mof_H 	H 	0.2965	0.293	0.35353	0.325
Mof_H 	H 	0.3368	0.3382	0.39993	0.163
Mof_C 	C 	0.2463	0.2504	0.41743	0.167
Mof_H 	H 	0.2593	0.2491	0.45173	-0.067
Mof_H 	H 	0.2195	0.202	0.40543	-0.363
Mof_C 	C 	0.2173	0.311	0.38833	-0.064
Mof_H 	H 	0.1725	0.294	0.40443	0.088
Mof_H 	H 	0.2099	0.2999	0.35343	-0.011
Mof_H 	H 	0.2461	0.3608	0.39273	0.031
Mof_C 	C 	0.349	0.5626	0.34823	-0.174
Mof_H 	H 	0.2986	0.5332	0.35353	0.139
Mof_H 	H 	0.3562	0.6017	0.32723	-0.032
Mof_C 	C 	0.3731	0.5202	0.32013	0.032
Mof_H 	H 	0.4199	0.5518	0.30683	-0.008
Mof_H 	H 	0.3772	0.4879	0.34293	-0.013
Mof_C 	C 	0.3259	0.4791	0.27913	-0.221
Mof_H 	H 	0.3526	0.4675	0.25583	0.334
Mof_H 	H 	0.3114	0.5087	0.26173	0.077
Mof_C 	C 	0.2617	0.4126	0.29403	1.451
Mof_H 	H 	0.2214	0.4082	0.27633	-0.263
Mof_H 	H 	0.2542	0.4136	0.32913	-0.371
Mof_H 	H 	0.2677	0.3729	0.28633	-0.386
Mof_H 	H 	0.3761	0.7446	0.38853	-0.039
Mof_H 	H 	0.2261	0.642	0.45233	0.085
Mof_H 	H 	0.1821	0.6684	0.42233	0.105
Mof_H 	H 	0.2212	0.7075	0.47123	0.095
Mof_H 	H 	0.2905	0.8216	0.41963	0.029
Mof_H 	H 	0.243	0.7754	0.37543	0.04
Mof_H 	H 	0.3257	0.8134	0.37123	0.072
Mof_Sn	Sn	0.849	0.54393	0.01847	0.953
Mof_O 	O 	0.23203	0.52402	0.0468	-0.368
Mof_O 	O 	0.1922	0.42426	0.00573	-0.368
Mof_O 	O 	0.93117	0.5214	0.04156	-0.399
Mof_O 	O 	0.8715	0.41552	0.00824	-0.345
Mof_N 	N 	0.10413	0.50089	0.05957	-0.18
Mof_C 	C 	0.04202	0.49775	0.06397	0.072
Mof_C 	C 	0.98822	0.45733	0.03225	-0.117
Mof_C 	C 	0.92342	0.46279	0.02675	0.338
Mof_C 	C 	0.99631	0.41271	0.00073	-0.002
Mof_H 	H 	0.9593	0.3826	0.9799	0.011
Mof_C 	C 	0.05867	0.41233	0.99974	-0.078
Mof_H 	H 	0.0644	0.3808	0.9796	0.047
Mof_C 	C 	0.11178	0.45908	0.02881	-0.022
Mof_C 	C 	0.18456	0.46952	0.02708	0.311
Mof_C 	C 	0.76838	0.4614	0.05865	-0.471
Mof_H 	H 	0.741	0.423	0.0357	0.148
Mof_H 	H 	0.7903	0.4445	0.0822	0.145
Mof_C 	C 	0.7182	0.4759	0.08655	0.061
Mof_H 	H 	0.6929	0.489	0.0632	0.001
Mof_H 	H 	0.745	0.516	0.1085	-0.013
Mof_C 	C 	0.665	0.4135	0.1172	-0.057
Mof_H 	H 	0.6371	0.3739	0.0952	0.031
Mof_H 	H 	0.6902	0.3993	0.1399	0.035
Mof_C 	C 	0.616	0.4295	0.1466	-0.335
Mof_H 	H 	0.5833	0.3882	0.165	0.123
Mof_H 	H 	0.5903	0.4429	0.1243	0.104
Mof_H 	H 	0.6432	0.4677	0.1693	0.113
Mof_C 	C 	0.8805	0.5512	0.9474	-0.493
Mof_H 	H 	0.9313	0.5705	0.9491	0.161
Mof_H 	H 	0.8609	0.5026	0.9363	0.633
Mof_C 	C 	0.8698	0.5883	0.9051	0.114
Mof_H 	H 	0.8882	0.5791	0.8749	-0.547
Mof_H 	H 	0.8196	0.5705	0.9005	0.023
Mof_C 	C 	0.9062	0.6655	0.9144	-0.986
Mof_H 	H 	0.9552	0.6822	0.9231	0.187
Mof_H 	H 	0.8838	0.675	0.9421	0.29
Mof_C 	C 	0.9034	0.7052	0.8688	0.535
Mof_H 	H 	0.9331	0.7552	0.8739	-0.181
Mof_H 	H 	0.8555	0.6945	0.8633	-0.176
Mof_H 	H 	0.9198	0.691	0.8403	-0.461
Mof_O 	O 	0.3276	0.6714	0.0859	-0.184
Mof_C 	C 	0.3774	0.6648	0.0721	0.163
Mof_N 	N 	0.4439	0.715	0.0808	-0.03
Mof_C 	C 	0.4593	0.7764	0.1089	-0.229
Mof_C 	C 	0.5037	0.7139	0.0601	-0.147
Mof_C 	C 	0.899	0.639	0.064	-0.149
Mof_H 	H 	0.8753	0.6662	0.0594	0.239
Mof_H 	H 	0.896	0.6264	0.0989	0.84
Mof_C 	C 	0.973	0.681	0.049	-0.043
Mof_H 	H 	0.9732	0.6943	0.0149	-0.271
Mof_H 	H 	0.9927	0.6501	0.0504	-0.123
Mof_C 	C 	0.0204	0.7459	0.0773	-0.392
Mof_H 	H 	0.0233	0.7337	0.1116	0.124
Mof_H 	H 	0.0015	0.7778	0.0771	0.431
Mof_C 	C 	0.0824	0.7984	0.0812	-0.338
Mof_H 	H 	0.0982	0.8401	0.1012	0.087
Mof_H 	H 	0.0967	0.8121	0.0473	0.146
Mof_H 	H 	0.104	0.7719	0.0933	0.127
Mof_C 	C 	0.2176	0.653	0.0142	-0.175
Mof_H 	H 	0.2567	0.701	0.0158	-0.002
Mof_H 	H 	0.2289	0.6279	0.9893	0.135
Mof_C 	C 	0.1541	0.6547	0.9975	0.036
Mof_H 	H 	0.1165	0.6067	0.9913	-0.008
Mof_H 	H 	0.1387	0.674	0.024	0.019
Mof_C 	C 	0.1655	0.697	0.9524	-0.104
Mof_H 	H 	0.1944	0.688	0.9294	0.042
Mof_H 	H 	0.1916	0.7468	0.9611	-0.377
Mof_C 	C 	0.0974	0.6815	0.9262	-1.23
Mof_H 	H 	0.1063	0.721	0.9055	0.386
Mof_H 	H 	0.0621	0.674	0.9505	0.398
Mof_H 	H 	0.0809	0.6398	0.9061	0.221
Mof_C 	C 	0.8763	0.5365	0.9407	-0.253
Mof_H 	H 	0.92	0.535	0.9392	-0.018
Mof_H 	H 	0.839	0.4938	0.9253	-0.358
Mof_C 	C 	0.8849	0.6008	0.9142	0.262
Mof_H 	H 	0.8398	0.5996	0.914	-0.021
Mof_H 	H 	0.9185	0.6428	0.9323	0.221
Mof_C 	C 	0.91	0.6062	0.8622	0.884
Mof_H 	H 	0.8824	0.5603	0.8465	-0.034
Mof_H 	H 	0.9588	0.6169	0.863	-0.256
Mof_C 	C 	0.9059	0.661	0.8299	-0.3
Mof_H 	H 	0.9161	0.6553	0.796	0.04
Mof_H 	H 	0.9399	0.7076	0.8412	0.409
Mof_H 	H 	0.8591	0.6548	0.8319	0.138
Mof_C 	C 	0.9042	0.6402	0.0509	0.429
Mof_H 	H 	0.8847	0.6676	0.0365	-0.236
Mof_H 	H 	0.8883	0.6321	0.0852	-0.954
Mof_C 	C 	0.979	0.689	0.054	-0.13
Mof_H 	H 	0.9965	0.7035	0.0202	0.325
Mof_H 	H 	0.0014	0.6632	0.0666	0.162
Mof_C 	C 	0.0041	0.7537	0.0841	0.166
Mof_H 	H 	0.9898	0.7407	0.1184	-0.067
Mof_H 	H 	0.9825	0.7805	0.0721	-0.363
Mof_C 	C 	0.0937	0.7827	0.055	-0.063
Mof_H 	H 	0.1215	0.8275	0.0711	0.087
Mof_H 	H 	0.09	0.7901	0.0201	-0.011
Mof_H 	H 	0.1147	0.7539	0.0594	0.031
Mof_C 	C 	0.2136	0.651	0.0149	-0.174
Mof_H 	H 	0.2346	0.7014	0.0202	0.14
Mof_H 	H 	0.2455	0.6438	0.9939	-0.032
Mof_C 	C 	0.1471	0.6269	0.9868	0.032
Mof_H 	H 	0.1319	0.5801	0.9735	-0.008
Mof_H 	H 	0.1107	0.6228	0.0096	-0.013
Mof_C 	C 	0.1532	0.6741	0.9458	-0.22
Mof_H 	H 	0.1149	0.6474	0.9225	0.334
Mof_H 	H 	0.1973	0.6886	0.9284	0.077
Mof_C 	C 	0.1509	0.7383	0.9607	1.45
Mof_H 	H 	0.1868	0.7786	0.943	-0.263
Mof_H 	H 	0.1594	0.7458	0.9958	-0.371
Mof_H 	H 	0.1052	0.7323	0.953	-0.385
Mof_H 	H 	0.3685	0.6239	0.0552	-0.039
Mof_H 	H 	0.4159	0.7739	0.119	0.085
Mof_H 	H 	0.4863	0.8179	0.089	0.105
Mof_H 	H 	0.4863	0.7788	0.1379	0.095
Mof_H 	H 	0.5311	0.7095	0.0863	0.029
Mof_H 	H 	0.5324	0.757	0.0421	0.04
Mof_H 	H 	0.4877	0.6743	0.0379	0.072
Mof_Sn	Sn	0.69493	0.151	0.68514	0.952
Mof_O 	O 	0.29199	0.76797	0.71347	-0.368
Mof_O 	O 	0.23206	0.8078	0.6724	-0.368
Mof_O 	O 	0.59023	0.06883	0.70823	-0.399
Mof_O 	O 	0.54402	0.1285	0.67491	-0.345
Mof_N 	N 	0.39676	0.89587	0.72624	-0.18
Mof_C 	C 	0.45573	0.95798	0.73064	0.072
Mof_C 	C 	0.46911	0.01178	0.69892	-0.118
Mof_C 	C 	0.53937	0.07658	0.69342	0.338
Mof_C 	C 	0.4164	0.00369	0.6674	-0.002
Mof_H 	H 	0.4233	0.0407	0.64657	0.011
Mof_C 	C 	0.35366	0.94133	0.66641	-0.079
Mof_H 	H 	0.3164	0.9356	0.64627	0.047
Mof_C 	C 	0.3473	0.88822	0.69548	-0.021
Mof_C 	C 	0.28496	0.81544	0.69375	0.311
Mof_C 	C 	0.69302	0.23162	0.72532	-0.471
Mof_H 	H 	0.682	0.259	0.70237	0.148
Mof_H 	H 	0.6542	0.2097	0.74887	0.145
Mof_C 	C 	0.7577	0.2818	0.75322	0.061
Mof_H 	H 	0.7961	0.3071	0.72987	0.001
Mof_H 	H 	0.771	0.255	0.77517	-0.013
Mof_C 	C 	0.7485	0.335	0.78387	-0.057
Mof_H 	H 	0.7368	0.3629	0.76187	0.031
Mof_H 	H 	0.7091	0.3098	0.80657	0.035
Mof_C 	C 	0.8135	0.384	0.81327	-0.335
Mof_H 	H 	0.8049	0.4167	0.83167	0.123
Mof_H 	H 	0.8526	0.4097	0.79097	0.104
Mof_H 	H 	0.8245	0.3568	0.83597	0.113
Mof_C 	C 	0.6707	0.1195	0.61407	-0.493
Mof_H 	H 	0.6392	0.0687	0.61577	0.161
Mof_H 	H 	0.6417	0.1391	0.60297	0.632
Mof_C 	C 	0.7185	0.1302	0.57177	0.114
Mof_H 	H 	0.6909	0.1118	0.54157	-0.547
Mof_H 	H 	0.7509	0.1804	0.56717	0.023
Mof_C 	C 	0.7593	0.0938	0.58107	-0.986
Mof_H 	H 	0.727	0.0448	0.58977	0.188
Mof_H 	H 	0.7912	0.1162	0.60877	0.29
Mof_C 	C 	0.8018	0.0966	0.53547	0.535
Mof_H 	H 	0.8221	0.0669	0.54057	-0.181
Mof_H 	H 	0.839	0.1445	0.52997	-0.175
Mof_H 	H 	0.7712	0.0802	0.50697	-0.461
Mof_O 	O 	0.3438	0.6724	0.75257	-0.184
Mof_C 	C 	0.2874	0.6226	0.73877	0.163
Mof_N 	N 	0.2711	0.5561	0.74747	-0.03
Mof_C 	C 	0.3171	0.5407	0.77557	-0.229
Mof_C 	C 	0.2102	0.4963	0.72677	-0.147
Mof_C 	C 	0.74	0.101	0.73067	-0.149
Mof_H 	H 	0.7909	0.1247	0.72607	0.239
Mof_H 	H 	0.7304	0.104	0.76557	0.839
Mof_C 	C 	0.708	0.027	0.71567	-0.043
Mof_H 	H 	0.7211	0.0268	0.68157	-0.271
Mof_H 	H 	0.6574	0.0073	0.71707	-0.123
Mof_C 	C 	0.7255	0.9796	0.74397	-0.392
Mof_H 	H 	0.7104	0.9767	0.77827	0.124
Mof_H 	H 	0.7763	0.9985	0.74377	0.43
Mof_C 	C 	0.716	0.9176	0.74787	-0.339
Mof_H 	H 	0.7419	0.9018	0.76787	0.087
Mof_H 	H 	0.7154	0.9033	0.71397	0.146
Mof_H 	H 	0.6679	0.896	0.75997	0.127
Mof_C 	C 	0.4354	0.7824	0.68087	-0.175
Mof_H 	H 	0.4443	0.7433	0.68247	-0.002
Mof_H 	H 	0.399	0.7711	0.65597	0.135
Mof_C 	C 	0.5006	0.8459	0.66417	0.036
Mof_H 	H 	0.4902	0.8835	0.65797	-0.008
Mof_H 	H 	0.5353	0.8613	0.69067	0.019
Mof_C 	C 	0.5315	0.8345	0.61907	-0.104
Mof_H 	H 	0.4936	0.8056	0.59607	0.042
Mof_H 	H 	0.5552	0.8084	0.62777	-0.377
Mof_C 	C 	0.5841	0.9026	0.59287	-1.23
Mof_H 	H 	0.6147	0.8937	0.57217	0.386
Mof_H 	H 	0.6119	0.9379	0.61717	0.398
Mof_H 	H 	0.5589	0.9191	0.57277	0.221
Mof_C 	C 	0.6602	0.1237	0.60737	-0.253
Mof_H 	H 	0.615	0.08	0.60587	-0.018
Mof_H 	H 	0.6548	0.161	0.59197	-0.357
Mof_C 	C 	0.7159	0.1151	0.58087	0.262
Mof_H 	H 	0.7598	0.1602	0.58067	-0.021
Mof_H 	H 	0.7243	0.0815	0.59897	0.221
Mof_C 	C 	0.6962	0.09	0.52887	0.884
Mof_H 	H 	0.6779	0.1176	0.51317	-0.034
Mof_H 	H 	0.6581	0.0412	0.52967	-0.255
Mof_C 	C 	0.7551	0.0941	0.49657	-0.3
Mof_H 	H 	0.7392	0.0839	0.46267	0.04
Mof_H 	H 	0.7677	0.0601	0.50787	0.409
Mof_H 	H 	0.7957	0.1409	0.49857	0.138
Mof_C 	C 	0.736	0.0958	0.71757	0.428
Mof_H 	H 	0.7829	0.1153	0.70317	-0.235
Mof_H 	H 	0.7438	0.1117	0.75187	-0.953
Mof_C 	C 	0.71	0.021	0.72067	-0.13
Mof_H 	H 	0.707	0.0035	0.68687	0.325
Mof_H 	H 	0.6618	0.9986	0.73327	0.162
Mof_C 	C 	0.7496	0.9959	0.75077	0.166
Mof_H 	H 	0.7509	0.0102	0.78507	-0.067
Mof_H 	H 	0.798	0.0175	0.73877	-0.363
Mof_C 	C 	0.689	0.9063	0.72167	-0.064
Mof_H 	H 	0.706	0.8785	0.73777	0.087
Mof_H 	H 	0.7001	0.91	0.68677	-0.011
Mof_H 	H 	0.6392	0.8853	0.72607	0.031
Mof_C 	C 	0.4374	0.7864	0.68157	-0.174
Mof_H 	H 	0.4668	0.7654	0.68687	0.139
Mof_H 	H 	0.3983	0.7545	0.66057	-0.032
Mof_C 	C 	0.4798	0.8529	0.65347	0.032
Mof_H 	H 	0.4482	0.8681	0.64017	-0.008
Mof_H 	H 	0.5121	0.8893	0.67627	-0.013
Mof_C 	C 	0.5209	0.8468	0.61247	-0.221
Mof_H 	H 	0.5325	0.8851	0.58917	0.334
Mof_H 	H 	0.4913	0.8027	0.59507	0.077
Mof_C 	C 	0.5874	0.8491	0.62737	1.451
Mof_H 	H 	0.5918	0.8132	0.60967	-0.263
Mof_H 	H 	0.5864	0.8406	0.66247	-0.371
Mof_H 	H 	0.6271	0.8948	0.61967	-0.386
Mof_H 	H 	0.2554	0.6315	0.72187	-0.039
Mof_H 	H 	0.358	0.5841	0.78567	0.085
Mof_H 	H 	0.3316	0.5137	0.75567	0.105
Mof_H 	H 	0.2925	0.5137	0.80457	0.095
Mof_H 	H 	0.1784	0.4689	0.75297	0.029
Mof_H 	H 	0.2246	0.4676	0.70877	0.04
Mof_H 	H 	0.1866	0.5123	0.70457	0.072
Mof_Sn	Sn	0.54393	0.69493	0.8518	0.952
Mof_O 	O 	0.52402	0.29199	0.88013	-0.368
Mof_O 	O 	0.42426	0.23206	0.83906	-0.368
Mof_O 	O 	0.5214	0.59023	0.87489	-0.399
Mof_O 	O 	0.41552	0.54402	0.84157	-0.345
Mof_N 	N 	0.50089	0.39676	0.8929	-0.18
Mof_C 	C 	0.49775	0.45573	0.8973	0.073
Mof_C 	C 	0.45733	0.46911	0.86558	-0.118
Mof_C 	C 	0.46279	0.53937	0.86008	0.338
Mof_C 	C 	0.41271	0.4164	0.83406	-0.002
Mof_H 	H 	0.3826	0.4233	0.81323	0.012
Mof_C 	C 	0.41233	0.35366	0.83307	-0.079
Mof_H 	H 	0.3808	0.3164	0.81293	0.047
Mof_C 	C 	0.45908	0.3473	0.86214	-0.021
Mof_C 	C 	0.46952	0.28496	0.86041	0.311
Mof_C 	C 	0.4614	0.69302	0.89198	-0.471
Mof_H 	H 	0.423	0.682	0.86903	0.148
Mof_H 	H 	0.4445	0.6542	0.91553	0.145
Mof_C 	C 	0.4759	0.7577	0.91988	0.061
Mof_H 	H 	0.489	0.7961	0.89653	0.001
Mof_H 	H 	0.516	0.771	0.94183	-0.013
Mof_C 	C 	0.4135	0.7485	0.95053	-0.056
Mof_H 	H 	0.3739	0.7368	0.92853	0.031
Mof_H 	H 	0.3993	0.7091	0.97323	0.035
Mof_C 	C 	0.4295	0.8135	0.97993	-0.336
Mof_H 	H 	0.3882	0.8049	0.99833	0.123
Mof_H 	H 	0.4429	0.8526	0.95763	0.105
Mof_H 	H 	0.4677	0.8245	0.00263	0.113
Mof_C 	C 	0.5512	0.6707	0.78073	-0.493
Mof_H 	H 	0.5705	0.6392	0.78243	0.161
Mof_H 	H 	0.5026	0.6417	0.76963	0.632
Mof_C 	C 	0.5883	0.7185	0.73843	0.114
Mof_H 	H 	0.5791	0.6909	0.70823	-0.547
Mof_H 	H 	0.5705	0.7509	0.73383	0.023
Mof_C 	C 	0.6655	0.7593	0.74773	-0.986
Mof_H 	H 	0.6822	0.727	0.75643	0.188
Mof_H 	H 	0.675	0.7912	0.77543	0.29
Mof_C 	C 	0.7052	0.8018	0.70213	0.535
Mof_H 	H 	0.7552	0.8221	0.70723	-0.181
Mof_H 	H 	0.6945	0.839	0.69663	-0.175
Mof_H 	H 	0.691	0.7712	0.67363	-0.461
Mof_O 	O 	0.6714	0.3438	0.91923	-0.184
Mof_C 	C 	0.6648	0.2874	0.90543	0.163
Mof_N 	N 	0.715	0.2711	0.91413	-0.031
Mof_C 	C 	0.7764	0.3171	0.94223	-0.229
Mof_C 	C 	0.7139	0.2102	0.89343	-0.147
Mof_C 	C 	0.639	0.74	0.89733	-0.149
Mof_H 	H 	0.6662	0.7909	0.89273	0.238
Mof_H 	H 	0.6264	0.7304	0.93223	0.838
Mof_C 	C 	0.681	0.708	0.88233	-0.044
Mof_H 	H 	0.6943	0.7211	0.84823	-0.271
Mof_H 	H 	0.6501	0.6574	0.88373	-0.124
Mof_C 	C 	0.7459	0.7255	0.91063	-0.39
Mof_H 	H 	0.7337	0.7104	0.94493	0.124
Mof_H 	H 	0.7778	0.7763	0.91043	0.43
Mof_C 	C 	0.7984	0.716	0.91453	-0.341
Mof_H 	H 	0.8401	0.7419	0.93453	0.087
Mof_H 	H 	0.8121	0.7154	0.88063	0.147
Mof_H 	H 	0.7719	0.6679	0.92663	0.128
Mof_C 	C 	0.653	0.4354	0.84753	-0.175
Mof_H 	H 	0.701	0.4443	0.84913	-0.002
Mof_H 	H 	0.6279	0.399	0.82263	0.135
Mof_C 	C 	0.6547	0.5006	0.83083	0.036
Mof_H 	H 	0.6067	0.4902	0.82463	-0.008
Mof_H 	H 	0.674	0.5353	0.85733	0.019
Mof_C 	C 	0.697	0.5315	0.78573	-0.104
Mof_H 	H 	0.688	0.4936	0.76273	0.042
Mof_H 	H 	0.7468	0.5552	0.79443	-0.377
Mof_C 	C 	0.6815	0.5841	0.75953	-1.23
Mof_H 	H 	0.721	0.6147	0.73883	0.387
Mof_H 	H 	0.674	0.6119	0.78383	0.398
Mof_H 	H 	0.6398	0.5589	0.73943	0.221
Mof_C 	C 	0.5365	0.6602	0.77403	-0.253
Mof_H 	H 	0.535	0.615	0.77253	-0.018
Mof_H 	H 	0.4938	0.6548	0.75863	-0.357
Mof_C 	C 	0.6008	0.7159	0.74753	0.262
Mof_H 	H 	0.5996	0.7598	0.74733	-0.021
Mof_H 	H 	0.6428	0.7243	0.76563	0.221
Mof_C 	C 	0.6062	0.6962	0.69553	0.884
Mof_H 	H 	0.5603	0.6779	0.67983	-0.034
Mof_H 	H 	0.6169	0.6581	0.69633	-0.255
Mof_C 	C 	0.661	0.7551	0.66323	-0.3
Mof_H 	H 	0.6553	0.7392	0.62933	0.04
Mof_H 	H 	0.7076	0.7677	0.67453	0.409
Mof_H 	H 	0.6548	0.7957	0.66523	0.138
Mof_C 	C 	0.6402	0.736	0.88423	0.428
Mof_H 	H 	0.6676	0.7829	0.86983	-0.235
Mof_H 	H 	0.6321	0.7438	0.91853	-0.953
Mof_C 	C 	0.689	0.71	0.88733	-0.13
Mof_H 	H 	0.7035	0.707	0.85353	0.325
Mof_H 	H 	0.6632	0.6618	0.89993	0.163
Mof_C 	C 	0.7537	0.7496	0.91743	0.167
Mof_H 	H 	0.7407	0.7509	0.95173	-0.068
Mof_H 	H 	0.7805	0.798	0.90543	-0.363
Mof_C 	C 	0.7827	0.689	0.88833	-0.065
Mof_H 	H 	0.8275	0.706	0.90443	0.088
Mof_H 	H 	0.7901	0.7001	0.85343	-0.011
Mof_H 	H 	0.7539	0.6392	0.89273	0.031
Mof_C 	C 	0.651	0.4374	0.84823	-0.174
Mof_H 	H 	0.7014	0.4668	0.85353	0.139
Mof_H 	H 	0.6438	0.3983	0.82723	-0.032
Mof_C 	C 	0.6269	0.4798	0.82013	0.032
Mof_H 	H 	0.5801	0.4482	0.80683	-0.008
Mof_H 	H 	0.6228	0.5121	0.84293	-0.013
Mof_C 	C 	0.6741	0.5209	0.77913	-0.221
Mof_H 	H 	0.6474	0.5325	0.75583	0.334
Mof_H 	H 	0.6886	0.4913	0.76173	0.077
Mof_C 	C 	0.7383	0.5874	0.79403	1.451
Mof_H 	H 	0.7786	0.5918	0.77633	-0.263
Mof_H 	H 	0.7458	0.5864	0.82913	-0.371
Mof_H 	H 	0.7323	0.6271	0.78633	-0.386
Mof_H 	H 	0.6239	0.2554	0.88853	-0.039
Mof_H 	H 	0.7739	0.358	0.95233	0.085
Mof_H 	H 	0.8179	0.3316	0.92233	0.104
Mof_H 	H 	0.7788	0.2925	0.97123	0.095
Mof_H 	H 	0.7095	0.1784	0.91963	0.029
Mof_H 	H 	0.757	0.2246	0.87543	0.04
Mof_H 	H 	0.6743	0.1866	0.87123	0.072
Mof_Sn	Sn	0.151	0.45607	0.51847	0.952
Mof_O 	O 	0.76797	0.47598	0.5468	-0.368
Mof_O 	O 	0.8078	0.57574	0.50573	-0.368
Mof_O 	O 	0.06883	0.4786	0.54156	-0.399
Mof_O 	O 	0.1285	0.58448	0.50824	-0.345
Mof_N 	N 	0.89587	0.49911	0.55957	-0.18
Mof_C 	C 	0.95798	0.50225	0.56397	0.072
Mof_C 	C 	0.01178	0.54267	0.53225	-0.117
Mof_C 	C 	0.07658	0.53721	0.52675	0.338
Mof_C 	C 	0.00369	0.58729	0.50073	-0.002
Mof_H 	H 	0.0407	0.6174	0.4799	0.011
Mof_C 	C 	0.94133	0.58767	0.49974	-0.079
Mof_H 	H 	0.9356	0.6192	0.4796	0.047
Mof_C 	C 	0.88822	0.54092	0.52881	-0.021
Mof_C 	C 	0.81544	0.53048	0.52708	0.311
Mof_C 	C 	0.23162	0.5386	0.55865	-0.471
Mof_H 	H 	0.259	0.577	0.5357	0.148
Mof_H 	H 	0.2097	0.5555	0.5822	0.145
Mof_C 	C 	0.2818	0.5241	0.58655	0.061
Mof_H 	H 	0.3071	0.511	0.5632	0.001
Mof_H 	H 	0.255	0.484	0.6085	-0.013
Mof_C 	C 	0.335	0.5865	0.6172	-0.057
Mof_H 	H 	0.3629	0.6261	0.5952	0.031
Mof_H 	H 	0.3098	0.6007	0.6399	0.035
Mof_C 	C 	0.384	0.5705	0.6466	-0.335
Mof_H 	H 	0.4167	0.6118	0.665	0.123
Mof_H 	H 	0.4097	0.5571	0.6243	0.104
Mof_H 	H 	0.3568	0.5323	0.6693	0.113
Mof_C 	C 	0.1195	0.4488	0.4474	-0.493
Mof_H 	H 	0.0687	0.4295	0.4491	0.161
Mof_H 	H 	0.1391	0.4974	0.4363	0.632
Mof_C 	C 	0.1302	0.4117	0.4051	0.114
Mof_H 	H 	0.1118	0.4209	0.3749	-0.547
Mof_H 	H 	0.1804	0.4295	0.4005	0.022
Mof_C 	C 	0.0938	0.3345	0.4144	-0.986
Mof_H 	H 	0.0448	0.3178	0.4231	0.188
Mof_H 	H 	0.1162	0.325	0.4421	0.29
Mof_C 	C 	0.0966	0.2948	0.3688	0.535
Mof_H 	H 	0.0669	0.2448	0.3739	-0.181
Mof_H 	H 	0.1445	0.3055	0.3633	-0.176
Mof_H 	H 	0.0802	0.309	0.3403	-0.461
Mof_O 	O 	0.6724	0.3286	0.5859	-0.184
Mof_C 	C 	0.6226	0.3352	0.5721	0.163
Mof_N 	N 	0.5561	0.285	0.5808	-0.03
Mof_C 	C 	0.5407	0.2236	0.6089	-0.229
Mof_C 	C 	0.4963	0.2861	0.5601	-0.147
Mof_C 	C 	0.101	0.361	0.564	-0.149
Mof_H 	H 	0.1247	0.3338	0.5594	0.239
Mof_H 	H 	0.104	0.3736	0.5989	0.839
Mof_C 	C 	0.027	0.319	0.549	-0.043
Mof_H 	H 	0.0268	0.3057	0.5149	-0.271
Mof_H 	H 	0.0073	0.3499	0.5504	-0.123
Mof_C 	C 	0.9796	0.2541	0.5773	-0.392
Mof_H 	H 	0.9767	0.2663	0.6116	0.124
Mof_H 	H 	0.9985	0.2222	0.5771	0.431
Mof_C 	C 	0.9176	0.2016	0.5812	-0.339
Mof_H 	H 	0.9018	0.1599	0.6012	0.087
Mof_H 	H 	0.9033	0.1879	0.5473	0.146
Mof_H 	H 	0.896	0.2281	0.5933	0.127
Mof_C 	C 	0.7824	0.347	0.5142	-0.175
Mof_H 	H 	0.7433	0.299	0.5158	-0.002
Mof_H 	H 	0.7711	0.3721	0.4893	0.135
Mof_C 	C 	0.8459	0.3453	0.4975	0.036
Mof_H 	H 	0.8835	0.3933	0.4913	-0.008
Mof_H 	H 	0.8613	0.326	0.524	0.019
Mof_C 	C 	0.8345	0.303	0.4524	-0.104
Mof_H 	H 	0.8056	0.312	0.4294	0.042
Mof_H 	H 	0.8084	0.2532	0.4611	-0.377
Mof_C 	C 	0.9026	0.3185	0.4262	-1.23
Mof_H 	H 	0.8937	0.279	0.4055	0.387
Mof_H 	H 	0.9379	0.326	0.4505	0.398
Mof_H 	H 	0.9191	0.3602	0.4061	0.221
Mof_C 	C 	0.1237	0.4635	0.4407	-0.253
Mof_H 	H 	0.08	0.465	0.4392	-0.018
Mof_H 	H 	0.161	0.5062	0.4253	-0.357
Mof_C 	C 	0.1151	0.3992	0.4142	0.262
Mof_H 	H 	0.1602	0.4004	0.414	-0.021
Mof_H 	H 	0.0815	0.3572	0.4323	0.221
Mof_C 	C 	0.09	0.3938	0.3622	0.884
Mof_H 	H 	0.1176	0.4397	0.3465	-0.034
Mof_H 	H 	0.0412	0.3831	0.363	-0.255
Mof_C 	C 	0.0941	0.339	0.3299	-0.3
Mof_H 	H 	0.0839	0.3447	0.296	0.04
Mof_H 	H 	0.0601	0.2924	0.3412	0.409
Mof_H 	H 	0.1409	0.3452	0.3319	0.138
Mof_C 	C 	0.0958	0.3598	0.5509	0.428
Mof_H 	H 	0.1153	0.3324	0.5365	-0.235
Mof_H 	H 	0.1117	0.3679	0.5852	-0.954
Mof_C 	C 	0.021	0.311	0.554	-0.13
Mof_H 	H 	0.0035	0.2965	0.5202	0.325
Mof_H 	H 	0.9986	0.3368	0.5666	0.162
Mof_C 	C 	0.9959	0.2463	0.5841	0.166
Mof_H 	H 	0.0102	0.2593	0.6184	-0.067
Mof_H 	H 	0.0175	0.2195	0.5721	-0.363
Mof_C 	C 	0.9063	0.2173	0.555	-0.063
Mof_H 	H 	0.8785	0.1725	0.5711	0.087
Mof_H 	H 	0.91	0.2099	0.5201	-0.011
Mof_H 	H 	0.8853	0.2461	0.5594	0.031
Mof_C 	C 	0.7864	0.349	0.5149	-0.174
Mof_H 	H 	0.7654	0.2986	0.5202	0.139
Mof_H 	H 	0.7545	0.3562	0.4939	-0.032
Mof_C 	C 	0.8529	0.3731	0.4868	0.032
Mof_H 	H 	0.8681	0.4199	0.4735	-0.008
Mof_H 	H 	0.8893	0.3772	0.5096	-0.013
Mof_C 	C 	0.8468	0.3259	0.4458	-0.221
Mof_H 	H 	0.8851	0.3526	0.4225	0.334
Mof_H 	H 	0.8027	0.3114	0.4284	0.077
Mof_C 	C 	0.8491	0.2617	0.4607	1.451
Mof_H 	H 	0.8132	0.2214	0.443	-0.263
Mof_H 	H 	0.8406	0.2542	0.4958	-0.371
Mof_H 	H 	0.8948	0.2677	0.453	-0.386
Mof_H 	H 	0.6315	0.3761	0.5552	-0.039
Mof_H 	H 	0.5841	0.2261	0.619	0.085
Mof_H 	H 	0.5137	0.1821	0.589	0.105
Mof_H 	H 	0.5137	0.2212	0.6379	0.095
Mof_H 	H 	0.4689	0.2905	0.5863	0.029
Mof_H 	H 	0.4676	0.243	0.5421	0.04
Mof_H 	H 	0.5123	0.3257	0.5379	0.072
Mof_Sn	Sn	0.30507	0.849	0.18514	0.952
Mof_O 	O 	0.70801	0.23203	0.21347	-0.368
Mof_O 	O 	0.76794	0.1922	0.1724	-0.368
Mof_O 	O 	0.40977	0.93117	0.20823	-0.399
Mof_O 	O 	0.45598	0.8715	0.17491	-0.345
Mof_N 	N 	0.60324	0.10413	0.22624	-0.18
Mof_C 	C 	0.54427	0.04202	0.23064	0.072
Mof_C 	C 	0.53089	0.98822	0.19892	-0.118
Mof_C 	C 	0.46063	0.92342	0.19342	0.338
Mof_C 	C 	0.5836	0.99631	0.1674	-0.002
Mof_H 	H 	0.5767	0.9593	0.14657	0.011
Mof_C 	C 	0.64634	0.05867	0.16641	-0.08
Mof_H 	H 	0.6836	0.0644	0.14627	0.047
Mof_C 	C 	0.6527	0.11178	0.19548	-0.021
Mof_C 	C 	0.71504	0.18456	0.19375	0.311
Mof_C 	C 	0.30698	0.76838	0.22532	-0.471
Mof_H 	H 	0.318	0.741	0.20237	0.148
Mof_H 	H 	0.3458	0.7903	0.24887	0.145
Mof_C 	C 	0.2423	0.7182	0.25322	0.061
Mof_H 	H 	0.2039	0.6929	0.22987	0.001
Mof_H 	H 	0.229	0.745	0.27517	-0.013
Mof_C 	C 	0.2515	0.665	0.28387	-0.057
Mof_H 	H 	0.2632	0.6371	0.26187	0.031
Mof_H 	H 	0.2909	0.6902	0.30657	0.035
Mof_C 	C 	0.1865	0.616	0.31327	-0.335
Mof_H 	H 	0.1951	0.5833	0.33167	0.123
Mof_H 	H 	0.1474	0.5903	0.29097	0.104
Mof_H 	H 	0.1755	0.6432	0.33597	0.113
Mof_C 	C 	0.3293	0.8805	0.11407	-0.493
Mof_H 	H 	0.3608	0.9313	0.11577	0.161
Mof_H 	H 	0.3583	0.8609	0.10297	0.632
Mof_C 	C 	0.2815	0.8698	0.07177	0.114
Mof_H 	H 	0.3091	0.8882	0.04157	-0.547
Mof_H 	H 	0.2491	0.8196	0.06717	0.022
Mof_C 	C 	0.2407	0.9062	0.08107	-0.986
Mof_H 	H 	0.273	0.9552	0.08977	0.188
Mof_H 	H 	0.2088	0.8838	0.10877	0.29
Mof_C 	C 	0.1982	0.9034	0.03547	0.535
Mof_H 	H 	0.1779	0.9331	0.04057	-0.181
Mof_H 	H 	0.161	0.8555	0.02997	-0.175
Mof_H 	H 	0.2288	0.9198	0.00697	-0.461
Mof_O 	O 	0.6562	0.3276	0.25257	-0.184
Mof_C 	C 	0.7126	0.3774	0.23877	0.163
Mof_N 	N 	0.7289	0.4439	0.24747	-0.03
Mof_C 	C 	0.6829	0.4593	0.27557	-0.229
Mof_C 	C 	0.7898	0.5037	0.22677	-0.147
Mof_C 	C 	0.26	0.899	0.23067	-0.149
Mof_H 	H 	0.2091	0.8753	0.22607	0.239
Mof_H 	H 	0.2696	0.896	0.26557	0.839
Mof_C 	C 	0.292	0.973	0.21567	-0.043
Mof_H 	H 	0.2789	0.9732	0.18157	-0.271
Mof_H 	H 	0.3426	0.9927	0.21707	-0.123
Mof_C 	C 	0.2745	0.0204	0.24397	-0.392
Mof_H 	H 	0.2896	0.0233	0.27827	0.124
Mof_H 	H 	0.2237	0.0015	0.24377	0.431
Mof_C 	C 	0.284	0.0824	0.24787	-0.339
Mof_H 	H 	0.2581	0.0982	0.26787	0.087
Mof_H 	H 	0.2846	0.0967	0.21397	0.146
Mof_H 	H 	0.3321	0.104	0.25997	0.127
Mof_C 	C 	0.5646	0.2176	0.18087	-0.175
Mof_H 	H 	0.5557	0.2567	0.18247	-0.002
Mof_H 	H 	0.601	0.2289	0.15597	0.135
Mof_C 	C 	0.4994	0.1541	0.16417	0.036
Mof_H 	H 	0.5098	0.1165	0.15797	-0.008
Mof_H 	H 	0.4647	0.1387	0.19067	0.019
Mof_C 	C 	0.4685	0.1655	0.11907	-0.104
Mof_H 	H 	0.5064	0.1944	0.09607	0.042
Mof_H 	H 	0.4448	0.1916	0.12777	-0.377
Mof_C 	C 	0.4159	0.0974	0.09287	-1.23
Mof_H 	H 	0.3853	0.1063	0.07217	0.386
Mof_H 	H 	0.3881	0.0621	0.11717	0.397
Mof_H 	H 	0.4411	0.0809	0.07277	0.221
Mof_C 	C 	0.3398	0.8763	0.10737	-0.253
Mof_H 	H 	0.385	0.92	0.10587	-0.018
Mof_H 	H 	0.3452	0.839	0.09197	-0.357
Mof_C 	C 	0.2841	0.8849	0.08087	0.262
Mof_H 	H 	0.2402	0.8398	0.08067	-0.021
Mof_H 	H 	0.2757	0.9185	0.09897	0.221
Mof_C 	C 	0.3038	0.91	0.02887	0.883
Mof_H 	H 	0.3221	0.8824	0.01317	-0.034
Mof_H 	H 	0.3419	0.9588	0.02967	-0.255
Mof_C 	C 	0.2449	0.9059	0.99657	-0.3
Mof_H 	H 	0.2608	0.9161	0.96267	0.04
Mof_H 	H 	0.2323	0.9399	0.00787	0.41
Mof_H 	H 	0.2043	0.8591	0.99857	0.138
Mof_C 	C 	0.264	0.9042	0.21757	0.428
Mof_H 	H 	0.2171	0.8847	0.20317	-0.235
Mof_H 	H 	0.2562	0.8883	0.25187	-0.954
Mof_C 	C 	0.29	0.979	0.22067	-0.13
Mof_H 	H 	0.293	0.9965	0.18687	0.325
Mof_H 	H 	0.3382	0.0014	0.23327	0.162
Mof_C 	C 	0.2504	0.0041	0.25077	0.166
Mof_H 	H 	0.2491	0.9898	0.28507	-0.067
Mof_H 	H 	0.202	0.9825	0.23877	-0.363
Mof_C 	C 	0.311	0.0937	0.22167	-0.064
Mof_H 	H 	0.294	0.1215	0.23777	0.087
Mof_H 	H 	0.2999	0.09	0.18677	-0.011
Mof_H 	H 	0.3608	0.1147	0.22607	0.031
Mof_C 	C 	0.5626	0.2136	0.18157	-0.174
Mof_H 	H 	0.5332	0.2346	0.18687	0.139
Mof_H 	H 	0.6017	0.2455	0.16057	-0.032
Mof_C 	C 	0.5202	0.1471	0.15347	0.032
Mof_H 	H 	0.5518	0.1319	0.14017	-0.008
Mof_H 	H 	0.4879	0.1107	0.17627	-0.013
Mof_C 	C 	0.4791	0.1532	0.11247	-0.221
Mof_H 	H 	0.4675	0.1149	0.08917	0.334
Mof_H 	H 	0.5087	0.1973	0.09507	0.077
Mof_C 	C 	0.4126	0.1509	0.12737	1.451
Mof_H 	H 	0.4082	0.1868	0.10967	-0.263
Mof_H 	H 	0.4136	0.1594	0.16247	-0.371
Mof_H 	H 	0.3729	0.1052	0.11967	-0.386
Mof_H 	H 	0.7446	0.3685	0.22187	-0.039
Mof_H 	H 	0.642	0.4159	0.28567	0.085
Mof_H 	H 	0.6684	0.4863	0.25567	0.104
Mof_H 	H 	0.7075	0.4863	0.30457	0.095
Mof_H 	H 	0.8216	0.5311	0.25297	0.029
Mof_H 	H 	0.7754	0.5324	0.20877	0.04
Mof_H 	H 	0.8134	0.4877	0.20457	0.072
Mof_Sn	Sn	0.60439	0.39561	0.91667	1.049
Mof_Sn	Sn	0.60439	0.20879	0.25	1.049
Mof_Sn	Sn	0.79121	0.39561	0.58333	1.049
Mof_Sn	Sn	0.39561	0.60439	0.41667	1.049
Mof_Sn	Sn	0.39561	0.79121	0.75	1.049
Mof_Sn	Sn	0.20879	0.60439	0.08333	1.049
_end
