data_functionalizedCrystal
_audit_creation_method	'EQeq! by Chris Wilmer'
_symmetry_space_group_name_H-M	'P1'
_symmetry_Int_Tables_number	1
_symmetry_cell_setting	triclinic
loop_
_symmetry_equiv_pos_as_xyz
  x,y,z
_cell_length_a	23.9063
_cell_length_b	27.4059
_cell_length_c	30.321
_cell_angle_alpha	90
_cell_angle_beta	90
_cell_angle_gamma	90
loop_
_atom_site_label
_atom_site_type_symbol
_atom_site_fract_x
_atom_site_fract_y
_atom_site_fract_z
_atom_site_charge
Mof_Yb	Yb	0.25664	0.24127	0.63826	2.049
Mof_O 	O 	0.2586	0.2334	0.7147	-1.702
Mof_O 	O 	0.3867	0.6722	0.3041	-0.479
Mof_O 	O 	0.2647	0.1854	0.5851	-0.481
Mof_O 	O 	0.183	0.2974	0.6573	-0.623
Mof_O 	O 	0.1931	0.2765	0.589	-0.433
Mof_O 	O 	0.814	0.6885	0.6522	-0.491
Mof_O 	O 	0.3055	0.3162	0.6502	-0.594
Mof_O 	O 	0.8867	0.3561	0.3051	-0.511
Mof_C 	C 	0.8502	0.6087	0.6433	-0.22
Mof_C 	C 	0.1684	0.3013	0.618	0.426
Mof_C 	C 	0.4181	0.5755	0.4418	0.06
Mof_C 	C 	0.3871	0.4105	0.5333	-0.142
Mof_H 	H 	0.3949	0.4132	0.5033	0.084
Mof_C 	C 	0.8802	0.4056	0.3685	-0.254
Mof_C 	C 	0.4889	0.5622	0.5532	0.004
Mof_C 	C 	0.3984	0.449	0.56	0.07
Mof_O 	O 	0.1806	0.7419	0.7034	-0.403
Mof_C 	C 	0.8917	0.5822	0.575	-0.187
Mof_H 	H 	0.9017	0.5888	0.546	0.09
Mof_C 	C 	0.2626	0.0869	0.5699	0.083
Mof_H 	H 	0.2703	0.0984	0.5981	0.013
Mof_C 	C 	0.463	0.5208	0.5688	-0.082
Mof_H 	H 	0.4715	0.5097	0.597	0.055
Mof_C 	C 	0.9285	0.4978	0.565	-0.025
Mof_C 	C 	0.9756	0.4233	0.5161	-0.036
Mof_H 	H 	0.9917	0.3982	0.4998	0.041
Mof_C 	C 	0.2165	0.9359	0.5437	-0.103
Mof_H 	H 	0.1983	0.9502	0.5676	0.069
Mof_C 	C 	0.2569	0.1735	0.5456	0.423
Mof_C 	C 	0.2471	0.0195	0.5202	0.06
Mof_C 	C 	0.8669	0.6182	0.6003	0.124
Mof_H 	H 	0.8613	0.649	0.5883	-0
Mof_O 	O 	0.3952	0.7925	0.3064	-0.376
Mof_C 	C 	0.9018	0.5369	0.5923	0.113
Mof_C 	C 	0.2598	0.0378	0.5627	-0.141
Mof_H 	H 	0.2663	0.0162	0.5858	0.079
Mof_C 	C 	0.3797	0.6205	0.3637	-0.136
Mof_C 	C 	0.3225	0.3178	0.6105	0.369
Mof_C 	C 	0.9154	0.4389	0.4517	0.162
Mof_C 	C 	0.242	0.1025	0.4945	0.06
Mof_H 	H 	0.2361	0.1244	0.4715	0.021
Mof_C 	C 	0.4734	0.5795	0.5109	-0.084
Mof_H 	H 	0.49	0.6077	0.5	0.059
Mof_C 	C 	0.2156	0.8859	0.5397	0.034
Mof_C 	C 	0.9119	0.4895	0.5217	-0.043
Mof_H 	H 	0.8847	0.5094	0.5093	0.042
Mof_O 	O 	0.6585	0.7084	0.6529	-0.519
Mof_C 	C 	0.2433	0.9659	0.5137	0.024
Mof_C 	C 	0.1221	0.335	0.605	-0.241
Mof_C 	C 	0.0389	0.3983	0.5768	0.151
Mof_C 	C 	0.9706	0.4678	0.5834	-0.045
Mof_H 	H 	0.983	0.4736	0.612	0.041
Mof_C 	C 	0.4097	0.5125	0.5016	-0.092
Mof_H 	H 	0.3838	0.4956	0.4846	0.064
Mof_O 	O 	0.093	0.7634	0.6978	-0.406
Mof_C 	C 	0.4242	0.4948	0.5433	0.016
Mof_O 	O 	0.3136	0.2824	0.5847	-0.392
Mof_C 	C 	0.0834	0.3525	0.6337	0.166
Mof_H 	H 	0.0849	0.3432	0.6632	-0.064
Mof_O 	O 	0.2532	0.202	0.5145	-0.246
Mof_C 	C 	0.3477	0.7937	0.3163	0.388
Mof_C 	C 	0.5311	0.5883	0.5797	0.104
Mof_C 	C 	0.9935	0.4301	0.5597	-0.038
Mof_C 	C 	0.1933	0.8551	0.5759	0.059
Mof_C 	C 	0.8862	0.5277	0.6347	-0.19
Mof_H 	H 	0.8933	0.4972	0.6469	0.093
Mof_O 	O 	0.312	0.7699	0.2966	-0.405
Mof_C 	C 	0.2387	0.0525	0.4877	-0.132
Mof_H 	H 	0.2302	0.0412	0.4596	0.068
Mof_C 	C 	0.2416	0.8653	0.5032	-0.101
Mof_H 	H 	0.2424	0.8315	0.5005	0.068
Mof_C 	C 	0.3512	0.3625	0.5939	-0.16
Mof_O 	O 	0.7982	0.6341	0.7053	-0.496
Mof_C 	C 	0.3643	0.3673	0.5489	0.065
Mof_H 	H 	0.3577	0.3415	0.5296	0.033
Mof_C 	C 	0.8186	0.646	0.6687	0.493
Mof_C 	C 	0.1425	0.7652	0.684	0.331
Mof_C 	C 	0.3547	0.6465	0.324	0.414
Mof_C 	C 	0.269	0.9449	0.4759	-0.101
Mof_H 	H 	0.2871	0.9647	0.4554	0.065
Mof_C 	C 	0.2545	0.1188	0.5369	-0.15
Mof_C 	C 	0.4338	0.5553	0.4854	0.024
Mof_C 	C 	0.3439	0.5931	0.3891	0.049
Mof_H 	H 	0.307	0.5889	0.3802	0.028
Mof_O 	O 	0.3049	0.6357	0.3151	-0.289
Mof_C 	C 	0.8599	0.5635	0.6603	0.125
Mof_H 	H 	0.849	0.5563	0.689	-0.009
Mof_C 	C 	0.1588	0.7975	0.6467	-0.108
Mof_C 	C 	0.3866	0.4437	0.6054	-0.157
Mof_H 	H 	0.3956	0.4687	0.6249	0.073
Mof_C 	C 	0.5819	0.6598	0.6003	0.158
Mof_H 	H 	0.589	0.6927	0.5951	-0.009
Mof_C 	C 	0.9354	0.4517	0.496	-0.039
Mof_C 	C 	0.4353	0.6228	0.3766	0.062
Mof_H 	H 	0.4604	0.6398	0.3588	0.014
Mof_C 	C 	0.3616	0.4013	0.6209	0.083
Mof_H 	H 	0.3516	0.3993	0.6505	-0.047
Mof_O 	O 	0.6826	0.6389	0.6837	-0.523
Mof_C 	C 	0.1425	0.8616	0.5936	-0.121
Mof_H 	H 	0.1206	0.8876	0.5841	0.077
Mof_C 	C 	0.6107	0.6375	0.6314	-0.239
Mof_C 	C 	0.1217	0.8304	0.6261	0.041
Mof_H 	H 	0.0842	0.8312	0.6339	0.025
Mof_C 	C 	0.5651	0.5617	0.6086	-0.179
Mof_H 	H 	0.562	0.5279	0.6103	0.092
Mof_C 	C 	0.5421	0.637	0.5752	-0.203
Mof_H 	H 	0.5221	0.6551	0.5547	0.102
Mof_C 	C 	0.2669	0.8942	0.4697	0.032
Mof_C 	C 	0.3629	0.5714	0.4283	-0.126
Mof_H 	H 	0.3378	0.5539	0.4456	0.078
Mof_C 	C 	0.4554	0.6006	0.4149	-0.136
Mof_H 	H 	0.4931	0.6026	0.4223	0.079
Mof_C 	C 	0.0429	0.383	0.6201	-0.238
Mof_H 	H 	0.0167	0.3941	0.6405	0.103
Mof_O 	O 	0.8107	0.3983	0.3133	-0.287
Mof_C 	C 	0.859	0.3859	0.3246	0.47
Mof_C 	C 	0.3287	0.8228	0.3569	-0.116
Mof_C 	C 	0.9291	0.3944	0.3827	0.171
Mof_H 	H 	0.9514	0.3738	0.3658	-0.023
Mof_C 	C 	0.8725	0.4549	0.4329	-0.237
Mof_H 	H 	0.8538	0.4808	0.4461	0.109
Mof_C 	C 	0.9504	0.4124	0.4233	-0.217
Mof_H 	H 	0.9875	0.4066	0.4311	0.106
Mof_C 	C 	0.8503	0.4361	0.3923	0.162
Mof_H 	H 	0.8148	0.4455	0.3829	-0.02
Mof_C 	C 	0.6043	0.5871	0.6351	0.12
Mof_H 	H 	0.6259	0.5699	0.6553	-0.013
Mof_C 	C 	0.3683	0.8541	0.3805	0.03
Mof_H 	H 	0.4056	0.8571	0.372	0.031
Mof_C 	C 	0.2566	0.8425	0.4052	-0.117
Mof_H 	H 	0.2194	0.8386	0.4135	0.077
Mof_C 	C 	0.2918	0.8712	0.4312	0.052
Mof_C 	C 	0.2751	0.8202	0.368	0.055
Mof_H 	H 	0.2502	0.8031	0.3502	0.03
Mof_C 	C 	0.6525	0.664	0.6582	0.494
Mof_C 	C 	0.2283	0.8223	0.5946	-0.116
Mof_H 	H 	0.2645	0.819	0.5837	0.075
Mof_C 	C 	0.2111	0.7931	0.6302	0.044
Mof_H 	H 	0.2358	0.7706	0.6424	0.032
Mof_C 	C 	0.3456	0.8798	0.4177	-0.11
Mof_H 	H 	0.3675	0.9024	0.4327	0.074
Mof_C 	C 	0.1194	0.351	0.5627	0.154
Mof_H 	H 	0.1443	0.339	0.5418	-0.003
Mof_C 	C 	0.0804	0.3847	0.5509	-0.23
Mof_H 	H 	0.0831	0.3989	0.5231	0.104
Mof_H 	H 	0.2437	0.3199	0.7798	1.715
Mof_H 	H 	0.2142	0.3165	0.7338	1.687
Mof_H 	H 	0.2791	0.324	0.7364	1.673
Mof_H 	H 	0.2671	0.7095	0.23	-0.106
Mof_H 	H 	0.2701	0.7005	0.2749	0.247
Mof_H 	H 	0.4892	0.7309	0.2729	0.131
Mof_H 	H 	0.2652	0.7076	0.2299	-0.06
Mof_H 	H 	0.2284	0.6784	0.7695	0.326
Mof_H 	H 	0.2234	0.6684	0.7248	-0.002
Mof_H 	H 	0.2694	0.6991	0.2749	0.257
Mof_H 	H 	0.4894	0.7283	0.2729	0.132
Mof_Yb	Yb	0.74336	0.75873	0.13827	2.048
Mof_O 	O 	0.7414	0.7666	0.2147	-1.703
Mof_O 	O 	0.6133	0.3278	0.8041	-0.48
Mof_O 	O 	0.7353	0.8146	0.0851	-0.482
Mof_O 	O 	0.817	0.7026	0.1573	-0.624
Mof_O 	O 	0.8069	0.7235	0.089	-0.434
Mof_O 	O 	0.186	0.3115	0.1522	-0.491
Mof_O 	O 	0.6945	0.6838	0.1502	-0.594
Mof_O 	O 	0.1133	0.6439	0.8051	-0.511
Mof_C 	C 	0.1498	0.3913	0.1433	-0.219
Mof_C 	C 	0.8316	0.6987	0.118	0.425
Mof_C 	C 	0.5819	0.4245	0.9418	0.058
Mof_C 	C 	0.6129	0.5895	0.0333	-0.141
Mof_H 	H 	0.6051	0.5868	0.0033	0.083
Mof_C 	C 	0.1198	0.5944	0.8685	-0.252
Mof_C 	C 	0.5111	0.4378	0.0532	0.006
Mof_C 	C 	0.6016	0.551	0.06	0.069
Mof_O 	O 	0.8194	0.2581	0.2034	-0.403
Mof_C 	C 	0.1083	0.4178	0.075	-0.186
Mof_H 	H 	0.0983	0.4112	0.046	0.089
Mof_C 	C 	0.7374	0.9131	0.0699	0.084
Mof_H 	H 	0.7297	0.9016	0.0981	0.012
Mof_C 	C 	0.537	0.4792	0.0688	-0.084
Mof_H 	H 	0.5285	0.4903	0.097	0.055
Mof_C 	C 	0.0715	0.5022	0.065	-0.023
Mof_C 	C 	0.0244	0.5767	0.0161	-0.041
Mof_H 	H 	0.0083	0.6018	0.9998	0.043
Mof_C 	C 	0.7835	0.0641	0.0437	-0.102
Mof_H 	H 	0.8017	0.0498	0.0676	0.069
Mof_C 	C 	0.7431	0.8265	0.0456	0.423
Mof_C 	C 	0.7529	0.9805	0.0202	0.06
Mof_C 	C 	0.1331	0.3818	0.1003	0.123
Mof_H 	H 	0.1387	0.351	0.0883	-0
Mof_O 	O 	0.6048	0.2075	0.8064	-0.376
Mof_C 	C 	0.0982	0.4631	0.0923	0.112
Mof_C 	C 	0.7402	0.9622	0.0627	-0.141
Mof_H 	H 	0.7337	0.9838	0.0858	0.079
Mof_C 	C 	0.6203	0.3795	0.8637	-0.135
Mof_C 	C 	0.6775	0.6822	0.1105	0.369
Mof_C 	C 	0.0846	0.5611	0.9517	0.159
Mof_C 	C 	0.758	0.8975	0.9945	0.061
Mof_H 	H 	0.7639	0.8756	0.9715	0.02
Mof_C 	C 	0.5266	0.4205	0.0109	-0.088
Mof_H 	H 	0.51	0.3923	-0	0.06
Mof_C 	C 	0.7844	0.1141	0.0397	0.034
Mof_C 	C 	0.0881	0.5105	0.0217	-0.046
Mof_H 	H 	0.1153	0.4906	0.0093	0.043
Mof_O 	O 	0.3415	0.2916	0.1529	-0.519
Mof_C 	C 	0.7567	0.0341	0.0137	0.022
Mof_C 	C 	0.8779	0.665	0.105	-0.24
Mof_C 	C 	0.9611	0.6017	0.0768	0.149
Mof_C 	C 	0.0294	0.5322	0.0834	-0.048
Mof_H 	H 	0.017	0.5264	0.112	0.042
Mof_C 	C 	0.5903	0.4875	0.0016	-0.097
Mof_H 	H 	0.6162	0.5044	0.9846	0.066
Mof_O 	O 	0.907	0.2366	0.1978	-0.406
Mof_C 	C 	0.5758	0.5052	0.0433	0.019
Mof_O 	O 	0.6864	0.7176	0.0847	-0.392
Mof_C 	C 	0.9166	0.6475	0.1337	0.165
Mof_H 	H 	0.9151	0.6568	0.1632	-0.063
Mof_O 	O 	0.7468	0.798	0.0145	-0.246
Mof_C 	C 	0.6523	0.2063	0.8163	0.388
Mof_C 	C 	0.4689	0.4117	0.0797	0.103
Mof_C 	C 	0.0065	0.5699	0.0597	-0.035
Mof_C 	C 	0.8067	0.1449	0.0759	0.059
Mof_C 	C 	0.1138	0.4723	0.1347	-0.189
Mof_H 	H 	0.1067	0.5028	0.1469	0.093
Mof_O 	O 	0.688	0.2301	0.7966	-0.405
Mof_C 	C 	0.7613	0.9475	0.9877	-0.132
Mof_H 	H 	0.7698	0.9588	0.9596	0.068
Mof_C 	C 	0.7584	0.1347	0.0032	-0.103
Mof_H 	H 	0.7576	0.1685	0.0005	0.068
Mof_C 	C 	0.6488	0.6375	0.0939	-0.159
Mof_O 	O 	0.2018	0.3659	0.2053	-0.496
Mof_C 	C 	0.6357	0.6327	0.0489	0.064
Mof_H 	H 	0.6423	0.6585	0.0296	0.033
Mof_C 	C 	0.1814	0.354	0.1687	0.492
Mof_C 	C 	0.8575	0.2348	0.184	0.331
Mof_C 	C 	0.6453	0.3535	0.824	0.414
Mof_C 	C 	0.731	0.0551	0.9759	-0.1
Mof_H 	H 	0.7129	0.0353	0.9554	0.065
Mof_C 	C 	0.7455	0.8812	0.0369	-0.151
Mof_C 	C 	0.5662	0.4447	0.9854	0.028
Mof_C 	C 	0.6561	0.4069	0.8891	0.048
Mof_H 	H 	0.693	0.4111	0.8802	0.028
Mof_O 	O 	0.6951	0.3643	0.8151	-0.289
Mof_C 	C 	0.1401	0.4365	0.1603	0.124
Mof_H 	H 	0.151	0.4437	0.189	-0.009
Mof_C 	C 	0.8412	0.2025	0.1467	-0.108
Mof_C 	C 	0.6134	0.5563	0.1054	-0.156
Mof_H 	H 	0.6044	0.5313	0.1249	0.073
Mof_C 	C 	0.4181	0.3402	0.1003	0.157
Mof_H 	H 	0.411	0.3073	0.0951	-0.009
Mof_C 	C 	0.0646	0.5483	0.996	-0.034
Mof_C 	C 	0.5647	0.3772	0.8766	0.062
Mof_H 	H 	0.5396	0.3602	0.8588	0.015
Mof_C 	C 	0.6384	0.5987	0.1209	0.082
Mof_H 	H 	0.6484	0.6007	0.1505	-0.047
Mof_O 	O 	0.3174	0.3611	0.1837	-0.523
Mof_C 	C 	0.8575	0.1384	0.0936	-0.121
Mof_H 	H 	0.8794	0.1124	0.0841	0.077
Mof_C 	C 	0.3893	0.3625	0.1314	-0.238
Mof_C 	C 	0.8783	0.1696	0.1261	0.041
Mof_H 	H 	0.9158	0.1688	0.1339	0.025
Mof_C 	C 	0.4349	0.4383	0.1086	-0.178
Mof_H 	H 	0.438	0.4721	0.1103	0.092
Mof_C 	C 	0.4579	0.363	0.0752	-0.202
Mof_H 	H 	0.4779	0.3449	0.0547	0.101
Mof_C 	C 	0.7331	0.1058	0.9697	0.033
Mof_C 	C 	0.6371	0.4286	0.9283	-0.125
Mof_H 	H 	0.6622	0.4461	0.9456	0.077
Mof_C 	C 	0.5446	0.3994	0.9149	-0.134
Mof_H 	H 	0.5069	0.3974	0.9223	0.079
Mof_C 	C 	0.9571	0.617	0.1201	-0.236
Mof_H 	H 	0.9833	0.6059	0.1405	0.102
Mof_O 	O 	0.1893	0.6017	0.8133	-0.287
Mof_C 	C 	0.141	0.6141	0.8246	0.469
Mof_C 	C 	0.6713	0.1772	0.8569	-0.116
Mof_C 	C 	0.0709	0.6056	0.8827	0.169
Mof_H 	H 	0.0486	0.6262	0.8658	-0.023
Mof_C 	C 	0.1275	0.5451	0.9329	-0.234
Mof_H 	H 	0.1462	0.5192	0.9461	0.108
Mof_C 	C 	0.0496	0.5876	0.9233	-0.215
Mof_H 	H 	0.0125	0.5934	0.9311	0.106
Mof_C 	C 	0.1497	0.5639	0.8923	0.16
Mof_H 	H 	0.1852	0.5545	0.8829	-0.019
Mof_C 	C 	0.3957	0.4129	0.1351	0.12
Mof_H 	H 	0.3741	0.4301	0.1553	-0.013
Mof_C 	C 	0.6317	0.1459	0.8805	0.03
Mof_H 	H 	0.5944	0.1429	0.872	0.032
Mof_C 	C 	0.7434	0.1575	0.9052	-0.117
Mof_H 	H 	0.7806	0.1614	0.9135	0.077
Mof_C 	C 	0.7082	0.1288	0.9312	0.052
Mof_C 	C 	0.7249	0.1798	0.868	0.055
Mof_H 	H 	0.7498	0.1969	0.8502	0.03
Mof_C 	C 	0.3475	0.336	0.1582	0.494
Mof_C 	C 	0.7717	0.1777	0.0946	-0.116
Mof_H 	H 	0.7355	0.181	0.0837	0.075
Mof_C 	C 	0.7889	0.2069	0.1302	0.044
Mof_H 	H 	0.7642	0.2294	0.1424	0.032
Mof_C 	C 	0.6544	0.1202	0.9177	-0.11
Mof_H 	H 	0.6325	0.0976	0.9327	0.074
Mof_C 	C 	0.8806	0.649	0.0627	0.153
Mof_H 	H 	0.8557	0.661	0.0418	-0.003
Mof_C 	C 	0.9196	0.6153	0.0509	-0.228
Mof_H 	H 	0.9169	0.6011	0.0231	0.103
Mof_H 	H 	0.7563	0.6801	0.2798	1.715
Mof_H 	H 	0.7858	0.6835	0.2338	1.687
Mof_H 	H 	0.7209	0.676	0.2364	1.673
Mof_H 	H 	0.7329	0.2905	0.73	-0.106
Mof_H 	H 	0.7299	0.2995	0.7749	0.247
Mof_H 	H 	0.5108	0.2691	0.7729	0.131
Mof_H 	H 	0.7348	0.2924	0.7299	-0.06
Mof_H 	H 	0.7716	0.3216	0.2695	0.326
Mof_H 	H 	0.7766	0.3316	0.2248	-0.002
Mof_H 	H 	0.7306	0.3009	0.7749	0.257
Mof_H 	H 	0.5106	0.2717	0.7729	0.132
Mof_Yb	Yb	0.74336	0.74127	0.86173	2.048
Mof_O 	O 	0.7414	0.7334	0.7853	-1.703
Mof_O 	O 	0.6133	0.1722	0.1959	-0.48
Mof_O 	O 	0.7353	0.6854	0.9149	-0.482
Mof_O 	O 	0.817	0.7974	0.8427	-0.624
Mof_O 	O 	0.8069	0.7765	0.911	-0.434
Mof_O 	O 	0.186	0.1885	0.8478	-0.491
Mof_O 	O 	0.6945	0.8162	0.8498	-0.594
Mof_O 	O 	0.1133	0.8561	0.1949	-0.511
Mof_C 	C 	0.1498	0.1087	0.8567	-0.22
Mof_C 	C 	0.8316	0.8013	0.882	0.426
Mof_C 	C 	0.5819	0.0755	0.0582	0.063
Mof_C 	C 	0.6129	0.9105	0.9667	-0.144
Mof_H 	H 	0.6051	0.9132	0.9967	0.085
Mof_C 	C 	0.1198	0.9056	0.1315	-0.256
Mof_C 	C 	0.5111	0.0622	0.9468	0.001
Mof_C 	C 	0.6016	0.949	0.94	0.072
Mof_O 	O 	0.8194	0.2419	0.7966	-0.403
Mof_C 	C 	0.1083	0.0822	0.925	-0.188
Mof_H 	H 	0.0983	0.0888	0.954	0.091
Mof_C 	C 	0.7374	0.5869	0.9301	0.083
Mof_H 	H 	0.7297	0.5984	0.9019	0.013
Mof_C 	C 	0.537	0.0208	0.9312	-0.078
Mof_H 	H 	0.5285	0.0097	0.903	0.053
Mof_C 	C 	0.0715	0.9978	0.935	-0.027
Mof_C 	C 	0.0244	0.9233	0.9839	-0.031
Mof_H 	H 	0.0083	0.8982	0.0002	0.038
Mof_C 	C 	0.7835	0.4359	0.9563	-0.102
Mof_H 	H 	0.8017	0.4502	0.9324	0.069
Mof_C 	C 	0.7431	0.6735	0.9544	0.423
Mof_C 	C 	0.7529	0.5195	0.9798	0.061
Mof_C 	C 	0.1331	0.1182	0.8997	0.125
Mof_H 	H 	0.1387	0.149	0.9117	-0
Mof_O 	O 	0.6048	0.2925	0.1936	-0.376
Mof_C 	C 	0.0982	0.0369	0.9077	0.114
Mof_C 	C 	0.7402	0.5378	0.9373	-0.141
Mof_H 	H 	0.7337	0.5162	0.9142	0.079
Mof_C 	C 	0.6203	0.1205	0.1363	-0.137
Mof_C 	C 	0.6775	0.8178	0.8895	0.369
Mof_C 	C 	0.0846	0.9389	0.0483	0.164
Mof_C 	C 	0.758	0.6025	0.0055	0.059
Mof_H 	H 	0.7639	0.6244	0.0285	0.021
Mof_C 	C 	0.5266	0.0795	0.9891	-0.078
Mof_H 	H 	0.51	0.1077	-0	0.056
Mof_C 	C 	0.7844	0.3859	0.9603	0.034
Mof_C 	C 	0.0881	0.9895	0.9783	-0.039
Mof_H 	H 	0.1153	0.0094	0.9907	0.041
Mof_O 	O 	0.3415	0.2084	0.8471	-0.519
Mof_C 	C 	0.7567	0.4659	0.9863	0.024
Mof_C 	C 	0.8779	0.835	0.895	-0.242
Mof_C 	C 	0.9611	0.8983	0.9232	0.153
Mof_C 	C 	0.0294	0.9678	0.9166	-0.043
Mof_H 	H 	0.017	0.9736	0.888	0.041
Mof_C 	C 	0.5903	0.0125	0.9984	-0.085
Mof_H 	H 	0.6162	0.9956	0.0154	0.061
Mof_O 	O 	0.907	0.2634	0.8022	-0.406
Mof_C 	C 	0.5758	0.9948	0.9567	0.013
Mof_O 	O 	0.6864	0.7824	0.9153	-0.392
Mof_C 	C 	0.9166	0.8525	0.8663	0.168
Mof_H 	H 	0.9151	0.8432	0.8368	-0.064
Mof_O 	O 	0.7468	0.702	0.9855	-0.245
Mof_C 	C 	0.6523	0.2937	0.1837	0.388
Mof_C 	C 	0.4689	0.0883	0.9203	0.106
Mof_C 	C 	0.0065	0.9301	0.9403	-0.04
Mof_C 	C 	0.8067	0.3551	0.9241	0.06
Mof_C 	C 	0.1138	0.0277	0.8653	-0.191
Mof_H 	H 	0.1067	0.9972	0.8531	0.094
Mof_O 	O 	0.688	0.2699	0.2034	-0.405
Mof_C 	C 	0.7613	0.5525	0.0123	-0.133
Mof_H 	H 	0.7698	0.5412	0.0404	0.068
Mof_C 	C 	0.7584	0.3653	0.9968	-0.1
Mof_H 	H 	0.7576	0.3315	0.9995	0.068
Mof_C 	C 	0.6488	0.8625	0.9061	-0.161
Mof_O 	O 	0.2018	0.1341	0.7947	-0.496
Mof_C 	C 	0.6357	0.8673	0.9511	0.066
Mof_H 	H 	0.6423	0.8415	0.9704	0.032
Mof_C 	C 	0.1814	0.146	0.8313	0.493
Mof_C 	C 	0.8575	0.2652	0.816	0.332
Mof_C 	C 	0.6453	0.1465	0.176	0.415
Mof_C 	C 	0.731	0.4449	0.0241	-0.102
Mof_H 	H 	0.7129	0.4647	0.0446	0.065
Mof_C 	C 	0.7455	0.6188	0.9631	-0.149
Mof_C 	C 	0.5662	0.0553	0.0146	0.018
Mof_C 	C 	0.6561	0.0931	0.1109	0.05
Mof_H 	H 	0.693	0.0889	0.1198	0.027
Mof_O 	O 	0.6951	0.1357	0.1849	-0.289
Mof_C 	C 	0.1401	0.0635	0.8397	0.126
Mof_H 	H 	0.151	0.0563	0.811	-0.01
Mof_C 	C 	0.8412	0.2975	0.8533	-0.108
Mof_C 	C 	0.6134	0.9437	0.8946	-0.159
Mof_H 	H 	0.6044	0.9687	0.8751	0.073
Mof_C 	C 	0.4181	0.1598	0.8997	0.16
Mof_H 	H 	0.411	0.1927	0.9049	-0.009
Mof_C 	C 	0.0646	0.9517	0.004	-0.043
Mof_C 	C 	0.5647	0.1228	0.1234	0.064
Mof_H 	H 	0.5396	0.1398	0.1412	0.014
Mof_C 	C 	0.6384	0.9013	0.8791	0.084
Mof_H 	H 	0.6484	0.8993	0.8495	-0.048
Mof_O 	O 	0.3174	0.1389	0.8163	-0.523
Mof_C 	C 	0.8575	0.3616	0.9064	-0.121
Mof_H 	H 	0.8794	0.3876	0.9159	0.077
Mof_C 	C 	0.3893	0.1375	0.8686	-0.24
Mof_C 	C 	0.8783	0.3304	0.8739	0.041
Mof_H 	H 	0.9158	0.3312	0.8661	0.025
Mof_C 	C 	0.4349	0.0617	0.8914	-0.181
Mof_H 	H 	0.438	0.0279	0.8897	0.093
Mof_C 	C 	0.4579	0.137	0.9248	-0.205
Mof_H 	H 	0.4779	0.1551	0.9453	0.103
Mof_C 	C 	0.7331	0.3942	0.0303	0.031
Mof_C 	C 	0.6371	0.0714	0.0717	-0.128
Mof_H 	H 	0.6622	0.0539	0.0544	0.079
Mof_C 	C 	0.5446	0.1006	0.0851	-0.138
Mof_H 	H 	0.5069	0.1026	0.0777	0.08
Mof_C 	C 	0.9571	0.883	0.8799	-0.239
Mof_H 	H 	0.9833	0.8941	0.8595	0.103
Mof_O 	O 	0.1893	0.8983	0.1867	-0.287
Mof_C 	C 	0.141	0.8859	0.1754	0.47
Mof_C 	C 	0.6713	0.3228	0.1431	-0.116
Mof_C 	C 	0.0709	0.8944	0.1173	0.173
Mof_H 	H 	0.0486	0.8738	0.1342	-0.024
Mof_C 	C 	0.1275	0.9549	0.0671	-0.239
Mof_H 	H 	0.1462	0.9808	0.0539	0.11
Mof_C 	C 	0.0496	0.9124	0.0767	-0.219
Mof_H 	H 	0.0125	0.9066	0.0689	0.107
Mof_C 	C 	0.1497	0.9361	0.1077	0.164
Mof_H 	H 	0.1852	0.9455	0.1171	-0.021
Mof_C 	C 	0.3957	0.0871	0.8649	0.122
Mof_H 	H 	0.3741	0.0699	0.8447	-0.013
Mof_C 	C 	0.6317	0.3541	0.1195	0.03
Mof_H 	H 	0.5944	0.3571	0.128	0.031
Mof_C 	C 	0.7434	0.3425	0.0948	-0.118
Mof_H 	H 	0.7806	0.3386	0.0865	0.077
Mof_C 	C 	0.7082	0.3712	0.0688	0.052
Mof_C 	C 	0.7249	0.3202	0.132	0.055
Mof_H 	H 	0.7498	0.3031	0.1498	0.03
Mof_C 	C 	0.3475	0.164	0.8418	0.494
Mof_C 	C 	0.7717	0.3223	0.9054	-0.116
Mof_H 	H 	0.7355	0.319	0.9163	0.076
Mof_C 	C 	0.7889	0.2931	0.8698	0.044
Mof_H 	H 	0.7642	0.2706	0.8576	0.032
Mof_C 	C 	0.6544	0.3798	0.0823	-0.111
Mof_H 	H 	0.6325	0.4024	0.0673	0.074
Mof_C 	C 	0.8806	0.851	0.9373	0.155
Mof_H 	H 	0.8557	0.839	0.9582	-0.004
Mof_C 	C 	0.9196	0.8847	0.9491	-0.231
Mof_H 	H 	0.9169	0.8989	0.9769	0.105
Mof_H 	H 	0.7563	0.8199	0.7202	1.715
Mof_H 	H 	0.7858	0.8165	0.7662	1.686
Mof_H 	H 	0.7209	0.824	0.7636	1.673
Mof_H 	H 	0.7329	0.2095	0.27	-0.106
Mof_H 	H 	0.7299	0.2005	0.2251	0.247
Mof_H 	H 	0.5108	0.2309	0.2271	0.131
Mof_H 	H 	0.7348	0.2076	0.2701	-0.06
Mof_H 	H 	0.7716	0.1784	0.7305	0.326
Mof_H 	H 	0.7766	0.1684	0.7752	-0.002
Mof_H 	H 	0.7306	0.1991	0.2251	0.257
Mof_H 	H 	0.5106	0.2283	0.2271	0.132
Mof_Yb	Yb	0.25664	0.25873	0.36173	2.048
Mof_O 	O 	0.2586	0.2666	0.2853	-1.703
Mof_O 	O 	0.3867	0.8278	0.6959	-0.48
Mof_O 	O 	0.2647	0.3146	0.4149	-0.482
Mof_O 	O 	0.183	0.2026	0.3427	-0.624
Mof_O 	O 	0.1931	0.2235	0.411	-0.434
Mof_O 	O 	0.814	0.8115	0.3478	-0.491
Mof_O 	O 	0.3055	0.1838	0.3498	-0.594
Mof_O 	O 	0.8867	0.1439	0.6949	-0.511
Mof_C 	C 	0.8502	0.8913	0.3567	-0.22
Mof_C 	C 	0.1684	0.1987	0.382	0.426
Mof_C 	C 	0.4181	0.9245	0.5582	0.061
Mof_C 	C 	0.3871	0.0895	0.4667	-0.142
Mof_H 	H 	0.3949	0.0868	0.4967	0.084
Mof_C 	C 	0.8802	0.0944	0.6315	-0.254
Mof_C 	C 	0.4889	0.9378	0.4468	0.004
Mof_C 	C 	0.3984	0.051	0.44	0.071
Mof_O 	O 	0.1806	0.7581	0.2966	-0.403
Mof_C 	C 	0.8917	0.9178	0.425	-0.187
Mof_H 	H 	0.9017	0.9112	0.454	0.09
Mof_C 	C 	0.2626	0.4131	0.4301	0.084
Mof_H 	H 	0.2703	0.4016	0.4019	0.013
Mof_C 	C 	0.463	0.9792	0.4312	-0.081
Mof_H 	H 	0.4715	0.9903	0.403	0.054
Mof_C 	C 	0.9285	0.0022	0.435	-0.025
Mof_C 	C 	0.9756	0.0767	0.4839	-0.036
Mof_H 	H 	0.9917	0.1018	0.5002	0.041
Mof_C 	C 	0.2165	0.5641	0.4563	-0.102
Mof_H 	H 	0.1983	0.5498	0.4324	0.069
Mof_C 	C 	0.2569	0.3265	0.4544	0.423
Mof_C 	C 	0.2471	0.4805	0.4798	0.06
Mof_C 	C 	0.8669	0.8818	0.3997	0.124
Mof_H 	H 	0.8613	0.851	0.4117	-0
Mof_O 	O 	0.3952	0.7075	0.6936	-0.376
Mof_C 	C 	0.9018	0.9631	0.4077	0.113
Mof_C 	C 	0.2598	0.4622	0.4373	-0.141
Mof_H 	H 	0.2663	0.4838	0.4142	0.079
Mof_C 	C 	0.3797	0.8795	0.6363	-0.136
Mof_C 	C 	0.3225	0.1822	0.3895	0.369
Mof_C 	C 	0.9154	0.0611	0.5483	0.162
Mof_C 	C 	0.242	0.3975	0.5055	0.06
Mof_H 	H 	0.2361	0.3756	0.5285	0.021
Mof_C 	C 	0.4734	0.9205	0.4891	-0.084
Mof_H 	H 	0.49	0.8923	0.5	0.059
Mof_C 	C 	0.2156	0.6141	0.4603	0.034
Mof_C 	C 	0.9119	0.0105	0.4783	-0.043
Mof_H 	H 	0.8847	0.9906	0.4907	0.042
Mof_O 	O 	0.6585	0.7916	0.3471	-0.519
Mof_C 	C 	0.2433	0.5341	0.4863	0.023
Mof_C 	C 	0.1221	0.165	0.395	-0.241
Mof_C 	C 	0.0389	0.1017	0.4232	0.15
Mof_C 	C 	0.9706	0.0322	0.4166	-0.045
Mof_H 	H 	0.983	0.0264	0.388	0.041
Mof_C 	C 	0.4097	0.9875	0.4984	-0.091
Mof_H 	H 	0.3838	0.0044	0.5154	0.063
Mof_O 	O 	0.093	0.7366	0.3022	-0.406
Mof_C 	C 	0.4242	0.0052	0.4567	0.016
Mof_O 	O 	0.3136	0.2176	0.4153	-0.392
Mof_C 	C 	0.0834	0.1475	0.3663	0.166
Mof_H 	H 	0.0849	0.1568	0.3368	-0.064
Mof_O 	O 	0.2532	0.298	0.4855	-0.246
Mof_C 	C 	0.3477	0.7063	0.6837	0.388
Mof_C 	C 	0.5311	0.9117	0.4203	0.104
Mof_C 	C 	0.9935	0.0699	0.4403	-0.038
Mof_C 	C 	0.1933	0.6449	0.4241	0.059
Mof_C 	C 	0.8862	0.9723	0.3653	-0.19
Mof_H 	H 	0.8933	0.0028	0.3531	0.094
Mof_O 	O 	0.312	0.7301	0.7034	-0.405
Mof_C 	C 	0.2387	0.4475	0.5123	-0.132
Mof_H 	H 	0.2302	0.4588	0.5404	0.068
Mof_C 	C 	0.2416	0.6347	0.4968	-0.101
Mof_H 	H 	0.2424	0.6685	0.4995	0.068
Mof_C 	C 	0.3512	0.1375	0.4061	-0.16
Mof_O 	O 	0.7982	0.8659	0.2947	-0.496
Mof_C 	C 	0.3643	0.1327	0.4511	0.065
Mof_H 	H 	0.3577	0.1585	0.4704	0.032
Mof_C 	C 	0.8186	0.854	0.3313	0.493
Mof_C 	C 	0.1425	0.7348	0.316	0.332
Mof_C 	C 	0.3547	0.8535	0.676	0.414
Mof_C 	C 	0.269	0.5551	0.5241	-0.101
Mof_H 	H 	0.2871	0.5353	0.5446	0.065
Mof_C 	C 	0.2545	0.3812	0.4631	-0.15
Mof_C 	C 	0.4338	0.9447	0.5146	0.023
Mof_C 	C 	0.3439	0.9069	0.6109	0.049
Mof_H 	H 	0.307	0.9111	0.6198	0.028
Mof_O 	O 	0.3049	0.8643	0.6849	-0.289
Mof_C 	C 	0.8599	0.9365	0.3397	0.125
Mof_H 	H 	0.849	0.9437	0.311	-0.009
Mof_C 	C 	0.1588	0.7025	0.3533	-0.108
Mof_C 	C 	0.3866	0.0563	0.3946	-0.158
Mof_H 	H 	0.3956	0.0313	0.3751	0.073
Mof_C 	C 	0.5819	0.8402	0.3997	0.158
Mof_H 	H 	0.589	0.8073	0.4049	-0.009
Mof_C 	C 	0.9354	0.0483	0.504	-0.039
Mof_C 	C 	0.4353	0.8772	0.6234	0.063
Mof_H 	H 	0.4604	0.8602	0.6412	0.014
Mof_C 	C 	0.3616	0.0987	0.3791	0.083
Mof_H 	H 	0.3516	0.1007	0.3495	-0.048
Mof_O 	O 	0.6826	0.8611	0.3163	-0.523
Mof_C 	C 	0.1425	0.6384	0.4064	-0.121
Mof_H 	H 	0.1206	0.6124	0.4159	0.077
Mof_C 	C 	0.6107	0.8625	0.3686	-0.239
Mof_C 	C 	0.1217	0.6696	0.3739	0.041
Mof_H 	H 	0.0842	0.6688	0.3661	0.025
Mof_C 	C 	0.5651	0.9383	0.3914	-0.179
Mof_H 	H 	0.562	0.9721	0.3897	0.092
Mof_C 	C 	0.5421	0.863	0.4248	-0.203
Mof_H 	H 	0.5221	0.8449	0.4453	0.102
Mof_C 	C 	0.2669	0.6058	0.5303	0.032
Mof_C 	C 	0.3629	0.9286	0.5717	-0.126
Mof_H 	H 	0.3378	0.9461	0.5544	0.078
Mof_C 	C 	0.4554	0.8994	0.5851	-0.136
Mof_H 	H 	0.4931	0.8974	0.5777	0.079
Mof_C 	C 	0.0429	0.117	0.3799	-0.238
Mof_H 	H 	0.0167	0.1059	0.3595	0.103
Mof_O 	O 	0.8107	0.1017	0.6867	-0.287
Mof_C 	C 	0.859	0.1141	0.6754	0.47
Mof_C 	C 	0.3287	0.6772	0.6431	-0.116
Mof_C 	C 	0.9291	0.1056	0.6173	0.171
Mof_H 	H 	0.9514	0.1262	0.6342	-0.023
Mof_C 	C 	0.8725	0.0451	0.5671	-0.237
Mof_H 	H 	0.8538	0.0192	0.5539	0.109
Mof_C 	C 	0.9504	0.0876	0.5767	-0.217
Mof_H 	H 	0.9875	0.0934	0.5689	0.106
Mof_C 	C 	0.8503	0.0639	0.6077	0.162
Mof_H 	H 	0.8148	0.0545	0.6171	-0.02
Mof_C 	C 	0.6043	0.9129	0.3649	0.121
Mof_H 	H 	0.6259	0.9301	0.3447	-0.013
Mof_C 	C 	0.3683	0.6459	0.6195	0.03
Mof_H 	H 	0.4056	0.6429	0.628	0.031
Mof_C 	C 	0.2566	0.6575	0.5948	-0.117
Mof_H 	H 	0.2194	0.6614	0.5865	0.077
Mof_C 	C 	0.2918	0.6288	0.5688	0.052
Mof_C 	C 	0.2751	0.6798	0.632	0.055
Mof_H 	H 	0.2502	0.6969	0.6498	0.03
Mof_C 	C 	0.6525	0.836	0.3418	0.494
Mof_C 	C 	0.2283	0.6777	0.4054	-0.116
Mof_H 	H 	0.2645	0.681	0.4163	0.075
Mof_C 	C 	0.2111	0.7069	0.3698	0.044
Mof_H 	H 	0.2358	0.7294	0.3576	0.032
Mof_C 	C 	0.3456	0.6202	0.5823	-0.11
Mof_H 	H 	0.3675	0.5976	0.5673	0.074
Mof_C 	C 	0.1194	0.149	0.4373	0.154
Mof_H 	H 	0.1443	0.161	0.4582	-0.003
Mof_C 	C 	0.0804	0.1153	0.4491	-0.229
Mof_H 	H 	0.0831	0.1011	0.4769	0.104
Mof_H 	H 	0.2437	0.1801	0.2202	1.715
Mof_H 	H 	0.2142	0.1835	0.2662	1.686
Mof_H 	H 	0.2791	0.176	0.2636	1.673
Mof_H 	H 	0.2671	0.7905	0.77	-0.106
Mof_H 	H 	0.2701	0.7995	0.7251	0.247
Mof_H 	H 	0.4892	0.7691	0.7271	0.131
Mof_H 	H 	0.2652	0.7924	0.7701	-0.06
Mof_H 	H 	0.2284	0.8216	0.2305	0.326
Mof_H 	H 	0.2234	0.8316	0.2752	-0.002
Mof_H 	H 	0.2694	0.8009	0.7251	0.257
Mof_H 	H 	0.4894	0.7717	0.7271	0.132
Mof_Yb	Yb	0.74336	0.75873	0.36173	2.048
Mof_O 	O 	0.7414	0.7666	0.2853	-1.703
Mof_O 	O 	0.6133	0.3278	0.6959	-0.48
Mof_O 	O 	0.7353	0.8146	0.4149	-0.482
Mof_O 	O 	0.817	0.7026	0.3427	-0.624
Mof_O 	O 	0.8069	0.7235	0.411	-0.434
Mof_O 	O 	0.186	0.3115	0.3478	-0.491
Mof_O 	O 	0.6945	0.6838	0.3498	-0.594
Mof_O 	O 	0.1133	0.6439	0.6949	-0.511
Mof_C 	C 	0.1498	0.3913	0.3567	-0.22
Mof_C 	C 	0.8316	0.6987	0.382	0.426
Mof_C 	C 	0.5819	0.4245	0.5582	0.06
Mof_C 	C 	0.6129	0.5895	0.4667	-0.142
Mof_H 	H 	0.6051	0.5868	0.4967	0.084
Mof_C 	C 	0.1198	0.5944	0.6315	-0.254
Mof_C 	C 	0.5111	0.4378	0.4468	0.004
Mof_C 	C 	0.6016	0.551	0.44	0.07
Mof_O 	O 	0.8194	0.2581	0.2966	-0.403
Mof_C 	C 	0.1083	0.4178	0.425	-0.187
Mof_H 	H 	0.0983	0.4112	0.454	0.09
Mof_C 	C 	0.7374	0.9131	0.4301	0.083
Mof_H 	H 	0.7297	0.9016	0.4019	0.013
Mof_C 	C 	0.537	0.4792	0.4312	-0.082
Mof_H 	H 	0.5285	0.4903	0.403	0.055
Mof_C 	C 	0.0715	0.5022	0.435	-0.025
Mof_C 	C 	0.0244	0.5767	0.4839	-0.036
Mof_H 	H 	0.0083	0.6018	0.5002	0.041
Mof_C 	C 	0.7835	0.0641	0.4563	-0.102
Mof_H 	H 	0.8017	0.0498	0.4324	0.069
Mof_C 	C 	0.7431	0.8265	0.4544	0.423
Mof_C 	C 	0.7529	0.9805	0.4798	0.06
Mof_C 	C 	0.1331	0.3818	0.3997	0.124
Mof_H 	H 	0.1387	0.351	0.4117	-0
Mof_O 	O 	0.6048	0.2075	0.6936	-0.376
Mof_C 	C 	0.0982	0.4631	0.4077	0.113
Mof_C 	C 	0.7402	0.9622	0.4373	-0.141
Mof_H 	H 	0.7337	0.9838	0.4142	0.079
Mof_C 	C 	0.6203	0.3795	0.6363	-0.136
Mof_C 	C 	0.6775	0.6822	0.3895	0.369
Mof_C 	C 	0.0846	0.5611	0.5483	0.162
Mof_C 	C 	0.758	0.8975	0.5055	0.06
Mof_H 	H 	0.7639	0.8756	0.5285	0.021
Mof_C 	C 	0.5266	0.4205	0.4891	-0.084
Mof_H 	H 	0.51	0.3923	0.5	0.059
Mof_C 	C 	0.7844	0.1141	0.4603	0.034
Mof_C 	C 	0.0881	0.5105	0.4783	-0.043
Mof_H 	H 	0.1153	0.4906	0.4907	0.042
Mof_O 	O 	0.3415	0.2916	0.3471	-0.519
Mof_C 	C 	0.7567	0.0341	0.4863	0.023
Mof_C 	C 	0.8779	0.665	0.395	-0.242
Mof_C 	C 	0.9611	0.6017	0.4232	0.151
Mof_C 	C 	0.0294	0.5322	0.4166	-0.045
Mof_H 	H 	0.017	0.5264	0.388	0.041
Mof_C 	C 	0.5903	0.4875	0.4984	-0.092
Mof_H 	H 	0.6162	0.5044	0.5154	0.064
Mof_O 	O 	0.907	0.2366	0.3022	-0.406
Mof_C 	C 	0.5758	0.5052	0.4567	0.016
Mof_O 	O 	0.6864	0.7176	0.4153	-0.392
Mof_C 	C 	0.9166	0.6475	0.3663	0.166
Mof_H 	H 	0.9151	0.6568	0.3368	-0.064
Mof_O 	O 	0.7468	0.798	0.4855	-0.246
Mof_C 	C 	0.6523	0.2063	0.6837	0.388
Mof_C 	C 	0.4689	0.4117	0.4203	0.104
Mof_C 	C 	0.0065	0.5699	0.4403	-0.038
Mof_C 	C 	0.8067	0.1449	0.4241	0.059
Mof_C 	C 	0.1138	0.4723	0.3653	-0.19
Mof_H 	H 	0.1067	0.5028	0.3531	0.093
Mof_O 	O 	0.688	0.2301	0.7034	-0.405
Mof_C 	C 	0.7613	0.9475	0.5123	-0.132
Mof_H 	H 	0.7698	0.9588	0.5404	0.068
Mof_C 	C 	0.7584	0.1347	0.4968	-0.101
Mof_H 	H 	0.7576	0.1685	0.4995	0.068
Mof_C 	C 	0.6488	0.6375	0.4061	-0.16
Mof_O 	O 	0.2018	0.3659	0.2947	-0.496
Mof_C 	C 	0.6357	0.6327	0.4511	0.065
Mof_H 	H 	0.6423	0.6585	0.4704	0.033
Mof_C 	C 	0.1814	0.354	0.3313	0.493
Mof_C 	C 	0.8575	0.2348	0.316	0.332
Mof_C 	C 	0.6453	0.3535	0.676	0.414
Mof_C 	C 	0.731	0.0551	0.5241	-0.101
Mof_H 	H 	0.7129	0.0353	0.5446	0.065
Mof_C 	C 	0.7455	0.8812	0.4631	-0.15
Mof_C 	C 	0.5662	0.4447	0.5146	0.024
Mof_C 	C 	0.6561	0.4069	0.6109	0.049
Mof_H 	H 	0.693	0.4111	0.6198	0.028
Mof_O 	O 	0.6951	0.3643	0.6849	-0.289
Mof_C 	C 	0.1401	0.4365	0.3397	0.125
Mof_H 	H 	0.151	0.4437	0.311	-0.009
Mof_C 	C 	0.8412	0.2025	0.3533	-0.108
Mof_C 	C 	0.6134	0.5563	0.3946	-0.157
Mof_H 	H 	0.6044	0.5313	0.3751	0.073
Mof_C 	C 	0.4181	0.3402	0.3997	0.158
Mof_H 	H 	0.411	0.3073	0.4049	-0.009
Mof_C 	C 	0.0646	0.5483	0.504	-0.039
Mof_C 	C 	0.5647	0.3772	0.6234	0.062
Mof_H 	H 	0.5396	0.3602	0.6412	0.014
Mof_C 	C 	0.6384	0.5987	0.3791	0.083
Mof_H 	H 	0.6484	0.6007	0.3495	-0.047
Mof_O 	O 	0.3174	0.3611	0.3163	-0.523
Mof_C 	C 	0.8575	0.1384	0.4064	-0.121
Mof_H 	H 	0.8794	0.1124	0.4159	0.077
Mof_C 	C 	0.3893	0.3625	0.3686	-0.239
Mof_C 	C 	0.8783	0.1696	0.3739	0.041
Mof_H 	H 	0.9158	0.1688	0.3661	0.025
Mof_C 	C 	0.4349	0.4383	0.3914	-0.179
Mof_H 	H 	0.438	0.4721	0.3897	0.092
Mof_C 	C 	0.4579	0.363	0.4248	-0.203
Mof_H 	H 	0.4779	0.3449	0.4453	0.102
Mof_C 	C 	0.7331	0.1058	0.5303	0.032
Mof_C 	C 	0.6371	0.4286	0.5717	-0.126
Mof_H 	H 	0.6622	0.4461	0.5544	0.078
Mof_C 	C 	0.5446	0.3994	0.5851	-0.136
Mof_H 	H 	0.5069	0.3974	0.5777	0.079
Mof_C 	C 	0.9571	0.617	0.3799	-0.238
Mof_H 	H 	0.9833	0.6059	0.3595	0.103
Mof_O 	O 	0.1893	0.6017	0.6867	-0.287
Mof_C 	C 	0.141	0.6141	0.6754	0.47
Mof_C 	C 	0.6713	0.1772	0.6431	-0.116
Mof_C 	C 	0.0709	0.6056	0.6173	0.171
Mof_H 	H 	0.0486	0.6262	0.6342	-0.023
Mof_C 	C 	0.1275	0.5451	0.5671	-0.237
Mof_H 	H 	0.1462	0.5192	0.5539	0.109
Mof_C 	C 	0.0496	0.5876	0.5767	-0.217
Mof_H 	H 	0.0125	0.5934	0.5689	0.106
Mof_C 	C 	0.1497	0.5639	0.6077	0.162
Mof_H 	H 	0.1852	0.5545	0.6171	-0.02
Mof_C 	C 	0.3957	0.4129	0.3649	0.12
Mof_H 	H 	0.3741	0.4301	0.3447	-0.013
Mof_C 	C 	0.6317	0.1459	0.6195	0.03
Mof_H 	H 	0.5944	0.1429	0.628	0.031
Mof_C 	C 	0.7434	0.1575	0.5948	-0.117
Mof_H 	H 	0.7806	0.1614	0.5865	0.077
Mof_C 	C 	0.7082	0.1288	0.5688	0.052
Mof_C 	C 	0.7249	0.1798	0.632	0.055
Mof_H 	H 	0.7498	0.1969	0.6498	0.03
Mof_C 	C 	0.3475	0.336	0.3418	0.494
Mof_C 	C 	0.7717	0.1777	0.4054	-0.116
Mof_H 	H 	0.7355	0.181	0.4163	0.075
Mof_C 	C 	0.7889	0.2069	0.3698	0.044
Mof_H 	H 	0.7642	0.2294	0.3576	0.032
Mof_C 	C 	0.6544	0.1202	0.5823	-0.11
Mof_H 	H 	0.6325	0.0976	0.5673	0.074
Mof_C 	C 	0.8806	0.649	0.4373	0.154
Mof_H 	H 	0.8557	0.661	0.4582	-0.003
Mof_C 	C 	0.9196	0.6153	0.4491	-0.23
Mof_H 	H 	0.9169	0.6011	0.4769	0.104
Mof_H 	H 	0.7563	0.6801	0.2202	1.715
Mof_H 	H 	0.7858	0.6835	0.2662	1.687
Mof_H 	H 	0.7209	0.676	0.2636	1.673
Mof_H 	H 	0.7329	0.2905	0.77	-0.106
Mof_H 	H 	0.7299	0.2995	0.7251	0.247
Mof_H 	H 	0.5108	0.2691	0.7271	0.131
Mof_H 	H 	0.7348	0.2924	0.7701	-0.06
Mof_H 	H 	0.7716	0.3216	0.2305	0.326
Mof_H 	H 	0.7766	0.3316	0.2752	-0.002
Mof_H 	H 	0.7306	0.3009	0.7251	0.257
Mof_H 	H 	0.5106	0.2717	0.7271	0.132
Mof_Yb	Yb	0.25664	0.24127	0.86173	2.048
Mof_O 	O 	0.2586	0.2334	0.7853	-1.703
Mof_O 	O 	0.3867	0.6722	0.1959	-0.48
Mof_O 	O 	0.2647	0.1854	0.9149	-0.482
Mof_O 	O 	0.183	0.2974	0.8427	-0.624
Mof_O 	O 	0.1931	0.2765	0.911	-0.434
Mof_O 	O 	0.814	0.6885	0.8478	-0.491
Mof_O 	O 	0.3055	0.3162	0.8498	-0.594
Mof_O 	O 	0.8867	0.3561	0.1949	-0.511
Mof_C 	C 	0.8502	0.6087	0.8567	-0.22
Mof_C 	C 	0.1684	0.3013	0.882	0.426
Mof_C 	C 	0.4181	0.5755	0.0582	0.063
Mof_C 	C 	0.3871	0.4105	0.9667	-0.143
Mof_H 	H 	0.3949	0.4132	0.9967	0.085
Mof_C 	C 	0.8802	0.4056	0.1315	-0.256
Mof_C 	C 	0.4889	0.5622	0.9468	0.001
Mof_C 	C 	0.3984	0.449	0.94	0.072
Mof_O 	O 	0.1806	0.7419	0.7966	-0.403
Mof_C 	C 	0.8917	0.5822	0.925	-0.188
Mof_H 	H 	0.9017	0.5888	0.954	0.091
Mof_C 	C 	0.2626	0.0869	0.9301	0.083
Mof_H 	H 	0.2703	0.0984	0.9019	0.013
Mof_C 	C 	0.463	0.5208	0.9312	-0.079
Mof_H 	H 	0.4715	0.5097	0.903	0.054
Mof_C 	C 	0.9285	0.4978	0.935	-0.027
Mof_C 	C 	0.9756	0.4233	0.9839	-0.03
Mof_H 	H 	0.9917	0.3982	0.0002	0.038
Mof_C 	C 	0.2165	0.9359	0.9563	-0.102
Mof_H 	H 	0.1983	0.9502	0.9324	0.069
Mof_C 	C 	0.2569	0.1735	0.9544	0.423
Mof_C 	C 	0.2471	0.0195	0.9798	0.061
Mof_C 	C 	0.8669	0.6182	0.8997	0.125
Mof_H 	H 	0.8613	0.649	0.9117	-0
Mof_O 	O 	0.3952	0.7925	0.1936	-0.376
Mof_C 	C 	0.9018	0.5369	0.9077	0.115
Mof_C 	C 	0.2598	0.0378	0.9373	-0.141
Mof_H 	H 	0.2663	0.0162	0.9142	0.079
Mof_C 	C 	0.3797	0.6205	0.1363	-0.137
Mof_C 	C 	0.3225	0.3178	0.8895	0.369
Mof_C 	C 	0.9154	0.4389	0.0483	0.165
Mof_C 	C 	0.242	0.1025	0.0055	0.059
Mof_H 	H 	0.2361	0.1244	0.0285	0.021
Mof_C 	C 	0.4734	0.5795	0.9891	-0.079
Mof_H 	H 	0.49	0.6077	-0	0.057
Mof_C 	C 	0.2156	0.8859	0.9603	0.034
Mof_C 	C 	0.9119	0.4895	0.9783	-0.039
Mof_H 	H 	0.8847	0.5094	0.9907	0.041
Mof_O 	O 	0.6585	0.7084	0.8471	-0.519
Mof_C 	C 	0.2433	0.9659	0.9863	0.024
Mof_C 	C 	0.1221	0.335	0.895	-0.243
Mof_C 	C 	0.0389	0.3983	0.9232	0.153
Mof_C 	C 	0.9706	0.4678	0.9166	-0.043
Mof_H 	H 	0.983	0.4736	0.888	0.04
Mof_C 	C 	0.4097	0.5125	0.9984	-0.086
Mof_H 	H 	0.3838	0.4956	0.0154	0.061
Mof_O 	O 	0.093	0.7634	0.8022	-0.406
Mof_C 	C 	0.4242	0.4948	0.9567	0.013
Mof_O 	O 	0.3136	0.2824	0.9153	-0.392
Mof_C 	C 	0.0834	0.3525	0.8663	0.168
Mof_H 	H 	0.0849	0.3432	0.8368	-0.064
Mof_O 	O 	0.2532	0.202	0.9855	-0.245
Mof_C 	C 	0.3477	0.7937	0.1837	0.388
Mof_C 	C 	0.5311	0.5883	0.9203	0.106
Mof_C 	C 	0.9935	0.4301	0.9403	-0.041
Mof_C 	C 	0.1933	0.8551	0.9241	0.06
Mof_C 	C 	0.8862	0.5277	0.8653	-0.191
Mof_H 	H 	0.8933	0.4972	0.8531	0.094
Mof_O 	O 	0.312	0.7699	0.2034	-0.405
Mof_C 	C 	0.2387	0.0525	0.0123	-0.133
Mof_H 	H 	0.2302	0.0412	0.0404	0.068
Mof_C 	C 	0.2416	0.8653	0.9968	-0.1
Mof_H 	H 	0.2424	0.8315	0.9995	0.068
Mof_C 	C 	0.3512	0.3625	0.9061	-0.16
Mof_O 	O 	0.7982	0.6341	0.7947	-0.496
Mof_C 	C 	0.3643	0.3673	0.9511	0.066
Mof_H 	H 	0.3577	0.3415	0.9704	0.032
Mof_C 	C 	0.8186	0.646	0.8313	0.493
Mof_C 	C 	0.1425	0.7652	0.816	0.332
Mof_C 	C 	0.3547	0.6465	0.176	0.415
Mof_C 	C 	0.269	0.9449	0.0241	-0.102
Mof_H 	H 	0.2871	0.9647	0.0446	0.065
Mof_C 	C 	0.2545	0.1188	0.9631	-0.149
Mof_C 	C 	0.4338	0.5553	0.0146	0.018
Mof_C 	C 	0.3439	0.5931	0.1109	0.05
Mof_H 	H 	0.307	0.5889	0.1198	0.027
Mof_O 	O 	0.3049	0.6357	0.1849	-0.289
Mof_C 	C 	0.8599	0.5635	0.8397	0.126
Mof_H 	H 	0.849	0.5563	0.811	-0.01
Mof_C 	C 	0.1588	0.7975	0.8533	-0.108
Mof_C 	C 	0.3866	0.4437	0.8946	-0.159
Mof_H 	H 	0.3956	0.4687	0.8751	0.073
Mof_C 	C 	0.5819	0.6598	0.8997	0.159
Mof_H 	H 	0.589	0.6927	0.9049	-0.009
Mof_C 	C 	0.9354	0.4517	0.004	-0.044
Mof_C 	C 	0.4353	0.6228	0.1234	0.064
Mof_H 	H 	0.4604	0.6398	0.1412	0.014
Mof_C 	C 	0.3616	0.4013	0.8791	0.084
Mof_H 	H 	0.3516	0.3993	0.8495	-0.048
Mof_O 	O 	0.6826	0.6389	0.8163	-0.523
Mof_C 	C 	0.1425	0.8616	0.9064	-0.121
Mof_H 	H 	0.1206	0.8876	0.9159	0.077
Mof_C 	C 	0.6107	0.6375	0.8686	-0.24
Mof_C 	C 	0.1217	0.8304	0.8739	0.041
Mof_H 	H 	0.0842	0.8312	0.8661	0.025
Mof_C 	C 	0.5651	0.5617	0.8914	-0.181
Mof_H 	H 	0.562	0.5279	0.8897	0.093
Mof_C 	C 	0.5421	0.637	0.9248	-0.204
Mof_H 	H 	0.5221	0.6551	0.9453	0.103
Mof_C 	C 	0.2669	0.8942	0.0303	0.031
Mof_C 	C 	0.3629	0.5714	0.0717	-0.128
Mof_H 	H 	0.3378	0.5539	0.0544	0.078
Mof_C 	C 	0.4554	0.6006	0.0851	-0.138
Mof_H 	H 	0.4931	0.6026	0.0777	0.08
Mof_C 	C 	0.0429	0.383	0.8799	-0.24
Mof_H 	H 	0.0167	0.3941	0.8595	0.104
Mof_O 	O 	0.8107	0.3983	0.1867	-0.287
Mof_C 	C 	0.859	0.3859	0.1754	0.47
Mof_C 	C 	0.3287	0.8228	0.1431	-0.116
Mof_C 	C 	0.9291	0.3944	0.1173	0.173
Mof_H 	H 	0.9514	0.3738	0.1342	-0.024
Mof_C 	C 	0.8725	0.4549	0.0671	-0.24
Mof_H 	H 	0.8538	0.4808	0.0539	0.11
Mof_C 	C 	0.9504	0.4124	0.0767	-0.22
Mof_H 	H 	0.9875	0.4066	0.0689	0.107
Mof_C 	C 	0.8503	0.4361	0.1077	0.164
Mof_H 	H 	0.8148	0.4455	0.1171	-0.021
Mof_C 	C 	0.6043	0.5871	0.8649	0.121
Mof_H 	H 	0.6259	0.5699	0.8447	-0.013
Mof_C 	C 	0.3683	0.8541	0.1195	0.03
Mof_H 	H 	0.4056	0.8571	0.128	0.031
Mof_C 	C 	0.2566	0.8425	0.0948	-0.118
Mof_H 	H 	0.2194	0.8386	0.0865	0.077
Mof_C 	C 	0.2918	0.8712	0.0688	0.052
Mof_C 	C 	0.2751	0.8202	0.132	0.055
Mof_H 	H 	0.2502	0.8031	0.1498	0.03
Mof_C 	C 	0.6525	0.664	0.8418	0.494
Mof_C 	C 	0.2283	0.8223	0.9054	-0.116
Mof_H 	H 	0.2645	0.819	0.9163	0.076
Mof_C 	C 	0.2111	0.7931	0.8698	0.044
Mof_H 	H 	0.2358	0.7706	0.8576	0.032
Mof_C 	C 	0.3456	0.8798	0.0823	-0.111
Mof_H 	H 	0.3675	0.9024	0.0673	0.074
Mof_C 	C 	0.1194	0.351	0.9373	0.156
Mof_H 	H 	0.1443	0.339	0.9582	-0.004
Mof_C 	C 	0.0804	0.3847	0.9491	-0.232
Mof_H 	H 	0.0831	0.3989	0.9769	0.105
Mof_H 	H 	0.2437	0.3199	0.7202	1.715
Mof_H 	H 	0.2142	0.3165	0.7662	1.687
Mof_H 	H 	0.2791	0.324	0.7636	1.673
Mof_H 	H 	0.2671	0.7095	0.27	-0.106
Mof_H 	H 	0.2701	0.7005	0.2251	0.247
Mof_H 	H 	0.4892	0.7309	0.2271	0.131
Mof_H 	H 	0.2652	0.7076	0.2701	-0.06
Mof_H 	H 	0.2284	0.6784	0.7305	0.326
Mof_H 	H 	0.2234	0.6684	0.7752	-0.002
Mof_H 	H 	0.2694	0.6991	0.2251	0.257
Mof_H 	H 	0.4894	0.7283	0.2271	0.132
Mof_Yb	Yb	0.25664	0.25873	0.13827	2.048
Mof_O 	O 	0.2586	0.2666	0.2147	-1.703
Mof_O 	O 	0.3867	0.8278	0.8041	-0.48
Mof_O 	O 	0.2647	0.3146	0.0851	-0.482
Mof_O 	O 	0.183	0.2026	0.1573	-0.624
Mof_O 	O 	0.1931	0.2235	0.089	-0.434
Mof_O 	O 	0.814	0.8115	0.1522	-0.491
Mof_O 	O 	0.3055	0.1838	0.1502	-0.594
Mof_O 	O 	0.8867	0.1439	0.8051	-0.511
Mof_C 	C 	0.8502	0.8913	0.1433	-0.219
Mof_C 	C 	0.1684	0.1987	0.118	0.425
Mof_C 	C 	0.4181	0.9245	0.9418	0.059
Mof_C 	C 	0.3871	0.0895	0.0333	-0.141
Mof_H 	H 	0.3949	0.0868	0.0033	0.084
Mof_C 	C 	0.8802	0.0944	0.8685	-0.252
Mof_C 	C 	0.4889	0.9378	0.0532	0.005
Mof_C 	C 	0.3984	0.051	0.06	0.069
Mof_O 	O 	0.1806	0.7581	0.2034	-0.403
Mof_C 	C 	0.8917	0.9178	0.075	-0.186
Mof_H 	H 	0.9017	0.9112	0.046	0.089
Mof_C 	C 	0.2626	0.4131	0.0699	0.084
Mof_H 	H 	0.2703	0.4016	0.0981	0.012
Mof_C 	C 	0.463	0.9792	0.0688	-0.083
Mof_H 	H 	0.4715	0.9903	0.097	0.055
Mof_C 	C 	0.9285	0.0022	0.065	-0.022
Mof_C 	C 	0.9756	0.0767	0.0161	-0.042
Mof_H 	H 	0.9917	0.1018	0.9998	0.043
Mof_C 	C 	0.2165	0.5641	0.0437	-0.102
Mof_H 	H 	0.1983	0.5498	0.0676	0.069
Mof_C 	C 	0.2569	0.3265	0.0456	0.423
Mof_C 	C 	0.2471	0.4805	0.0202	0.059
Mof_C 	C 	0.8669	0.8818	0.1003	0.123
Mof_H 	H 	0.8613	0.851	0.0883	-0
Mof_O 	O 	0.3952	0.7075	0.8064	-0.376
Mof_C 	C 	0.9018	0.9631	0.0923	0.111
Mof_C 	C 	0.2598	0.4622	0.0627	-0.141
Mof_H 	H 	0.2663	0.4838	0.0858	0.079
Mof_C 	C 	0.3797	0.8795	0.8637	-0.136
Mof_C 	C 	0.3225	0.1822	0.1105	0.369
Mof_C 	C 	0.9154	0.0611	0.9517	0.158
Mof_C 	C 	0.242	0.3975	0.9945	0.061
Mof_H 	H 	0.2361	0.3756	0.9715	0.02
Mof_C 	C 	0.4734	0.9205	0.0109	-0.087
Mof_H 	H 	0.49	0.8923	-0	0.06
Mof_C 	C 	0.2156	0.6141	0.0397	0.034
Mof_C 	C 	0.9119	0.0105	0.0217	-0.047
Mof_H 	H 	0.8847	0.9906	0.0093	0.043
Mof_O 	O 	0.6585	0.7916	0.1529	-0.519
Mof_C 	C 	0.2433	0.5341	0.0137	0.023
Mof_C 	C 	0.1221	0.165	0.105	-0.24
Mof_C 	C 	0.0389	0.1017	0.0768	0.148
Mof_C 	C 	0.9706	0.0322	0.0834	-0.048
Mof_H 	H 	0.983	0.0264	0.112	0.042
Mof_C 	C 	0.4097	0.9875	0.0016	-0.095
Mof_H 	H 	0.3838	0.0044	0.9846	0.066
Mof_O 	O 	0.093	0.7366	0.1978	-0.406
Mof_C 	C 	0.4242	0.0052	0.0433	0.018
Mof_O 	O 	0.3136	0.2176	0.0847	-0.392
Mof_C 	C 	0.0834	0.1475	0.1337	0.164
Mof_H 	H 	0.0849	0.1568	0.1632	-0.063
Mof_O 	O 	0.2532	0.298	0.0145	-0.246
Mof_C 	C 	0.3477	0.7063	0.8163	0.388
Mof_C 	C 	0.5311	0.9117	0.0797	0.103
Mof_C 	C 	0.9935	0.0699	0.0597	-0.034
Mof_C 	C 	0.1933	0.6449	0.0759	0.059
Mof_C 	C 	0.8862	0.9723	0.1347	-0.189
Mof_H 	H 	0.8933	0.0028	0.1469	0.093
Mof_O 	O 	0.312	0.7301	0.7966	-0.405
Mof_C 	C 	0.2387	0.4475	0.9877	-0.132
Mof_H 	H 	0.2302	0.4588	0.9596	0.068
Mof_C 	C 	0.2416	0.6347	0.0032	-0.102
Mof_H 	H 	0.2424	0.6685	0.0005	0.068
Mof_C 	C 	0.3512	0.1375	0.0939	-0.16
Mof_O 	O 	0.7982	0.8659	0.2053	-0.496
Mof_C 	C 	0.3643	0.1327	0.0489	0.064
Mof_H 	H 	0.3577	0.1585	0.0296	0.032
Mof_C 	C 	0.8186	0.854	0.1687	0.492
Mof_C 	C 	0.1425	0.7348	0.184	0.331
Mof_C 	C 	0.3547	0.8535	0.824	0.414
Mof_C 	C 	0.269	0.5551	0.9759	-0.1
Mof_H 	H 	0.2871	0.5353	0.9554	0.065
Mof_C 	C 	0.2545	0.3812	0.0369	-0.151
Mof_C 	C 	0.4338	0.9447	0.9854	0.027
Mof_C 	C 	0.3439	0.9069	0.8891	0.048
Mof_H 	H 	0.307	0.9111	0.8802	0.028
Mof_O 	O 	0.3049	0.8643	0.8151	-0.289
Mof_C 	C 	0.8599	0.9365	0.1603	0.124
Mof_H 	H 	0.849	0.9437	0.189	-0.009
Mof_C 	C 	0.1588	0.7025	0.1467	-0.108
Mof_C 	C 	0.3866	0.0563	0.1054	-0.157
Mof_H 	H 	0.3956	0.0313	0.1249	0.073
Mof_C 	C 	0.5819	0.8402	0.1003	0.158
Mof_H 	H 	0.589	0.8073	0.0951	-0.009
Mof_C 	C 	0.9354	0.0483	0.996	-0.033
Mof_C 	C 	0.4353	0.8772	0.8766	0.062
Mof_H 	H 	0.4604	0.8602	0.8588	0.015
Mof_C 	C 	0.3616	0.0987	0.1209	0.083
Mof_H 	H 	0.3516	0.1007	0.1505	-0.047
Mof_O 	O 	0.6826	0.8611	0.1837	-0.523
Mof_C 	C 	0.1425	0.6384	0.0936	-0.121
Mof_H 	H 	0.1206	0.6124	0.0841	0.077
Mof_C 	C 	0.6107	0.8625	0.1314	-0.238
Mof_C 	C 	0.1217	0.6696	0.1261	0.041
Mof_H 	H 	0.0842	0.6688	0.1339	0.025
Mof_C 	C 	0.5651	0.9383	0.1086	-0.179
Mof_H 	H 	0.562	0.9721	0.1103	0.092
Mof_C 	C 	0.5421	0.863	0.0752	-0.202
Mof_H 	H 	0.5221	0.8449	0.0547	0.102
Mof_C 	C 	0.2669	0.6058	0.9697	0.033
Mof_C 	C 	0.3629	0.9286	0.9283	-0.125
Mof_H 	H 	0.3378	0.9461	0.9456	0.078
Mof_C 	C 	0.4554	0.8994	0.9149	-0.135
Mof_H 	H 	0.4931	0.8974	0.9223	0.079
Mof_C 	C 	0.0429	0.117	0.1201	-0.235
Mof_H 	H 	0.0167	0.1059	0.1405	0.102
Mof_O 	O 	0.8107	0.1017	0.8133	-0.287
Mof_C 	C 	0.859	0.1141	0.8246	0.469
Mof_C 	C 	0.3287	0.6772	0.8569	-0.116
Mof_C 	C 	0.9291	0.1056	0.8827	0.169
Mof_H 	H 	0.9514	0.1262	0.8658	-0.023
Mof_C 	C 	0.8725	0.0451	0.9329	-0.233
Mof_H 	H 	0.8538	0.0192	0.9461	0.108
Mof_C 	C 	0.9504	0.0876	0.9233	-0.215
Mof_H 	H 	0.9875	0.0934	0.9311	0.105
Mof_C 	C 	0.8503	0.0639	0.8923	0.16
Mof_H 	H 	0.8148	0.0545	0.8829	-0.019
Mof_C 	C 	0.6043	0.9129	0.1351	0.12
Mof_H 	H 	0.6259	0.9301	0.1553	-0.013
Mof_C 	C 	0.3683	0.6459	0.8805	0.03
Mof_H 	H 	0.4056	0.6429	0.872	0.032
Mof_C 	C 	0.2566	0.6575	0.9052	-0.117
Mof_H 	H 	0.2194	0.6614	0.9135	0.077
Mof_C 	C 	0.2918	0.6288	0.9312	0.052
Mof_C 	C 	0.2751	0.6798	0.868	0.055
Mof_H 	H 	0.2502	0.6969	0.8502	0.03
Mof_C 	C 	0.6525	0.836	0.1582	0.494
Mof_C 	C 	0.2283	0.6777	0.0946	-0.116
Mof_H 	H 	0.2645	0.681	0.0837	0.075
Mof_C 	C 	0.2111	0.7069	0.1302	0.044
Mof_H 	H 	0.2358	0.7294	0.1424	0.032
Mof_C 	C 	0.3456	0.6202	0.9177	-0.11
Mof_H 	H 	0.3675	0.5976	0.9327	0.074
Mof_C 	C 	0.1194	0.149	0.0627	0.152
Mof_H 	H 	0.1443	0.161	0.0418	-0.003
Mof_C 	C 	0.0804	0.1153	0.0509	-0.227
Mof_H 	H 	0.0831	0.1011	0.0231	0.103
Mof_H 	H 	0.2437	0.1801	0.2798	1.715
Mof_H 	H 	0.2142	0.1835	0.2338	1.686
Mof_H 	H 	0.2791	0.176	0.2364	1.673
Mof_H 	H 	0.2671	0.7905	0.73	-0.106
Mof_H 	H 	0.2701	0.7995	0.7749	0.247
Mof_H 	H 	0.4892	0.7691	0.7729	0.131
Mof_H 	H 	0.2652	0.7924	0.7299	-0.06
Mof_H 	H 	0.2284	0.8216	0.2695	0.326
Mof_H 	H 	0.2234	0.8316	0.2248	-0.002
Mof_H 	H 	0.2694	0.8009	0.7749	0.257
Mof_H 	H 	0.4894	0.7717	0.7729	0.132
Mof_Yb	Yb	0.74336	0.74127	0.63826	2.048
Mof_O 	O 	0.7414	0.7334	0.7147	-1.703
Mof_O 	O 	0.6133	0.1722	0.3041	-0.48
Mof_O 	O 	0.7353	0.6854	0.5851	-0.482
Mof_O 	O 	0.817	0.7974	0.6573	-0.624
Mof_O 	O 	0.8069	0.7765	0.589	-0.434
Mof_O 	O 	0.186	0.1885	0.6522	-0.491
Mof_O 	O 	0.6945	0.8162	0.6502	-0.594
Mof_O 	O 	0.1133	0.8561	0.3051	-0.511
Mof_C 	C 	0.1498	0.1087	0.6433	-0.22
Mof_C 	C 	0.8316	0.8013	0.618	0.426
Mof_C 	C 	0.5819	0.0755	0.4418	0.06
Mof_C 	C 	0.6129	0.9105	0.5333	-0.142
Mof_H 	H 	0.6051	0.9132	0.5033	0.084
Mof_C 	C 	0.1198	0.9056	0.3685	-0.254
Mof_C 	C 	0.5111	0.0622	0.5532	0.004
Mof_C 	C 	0.6016	0.949	0.56	0.07
Mof_O 	O 	0.8194	0.2419	0.7034	-0.403
Mof_C 	C 	0.1083	0.0822	0.575	-0.187
Mof_H 	H 	0.0983	0.0888	0.546	0.09
Mof_C 	C 	0.7374	0.5869	0.5699	0.084
Mof_H 	H 	0.7297	0.5984	0.5981	0.013
Mof_C 	C 	0.537	0.0208	0.5688	-0.082
Mof_H 	H 	0.5285	0.0097	0.597	0.055
Mof_C 	C 	0.0715	0.9978	0.565	-0.025
Mof_C 	C 	0.0244	0.9233	0.5161	-0.036
Mof_H 	H 	0.0083	0.8982	0.4998	0.041
Mof_C 	C 	0.7835	0.4359	0.5437	-0.102
Mof_H 	H 	0.8017	0.4502	0.5676	0.069
Mof_C 	C 	0.7431	0.6735	0.5456	0.423
Mof_C 	C 	0.7529	0.5195	0.5202	0.06
Mof_C 	C 	0.1331	0.1182	0.6003	0.124
Mof_H 	H 	0.1387	0.149	0.5883	-0
Mof_O 	O 	0.6048	0.2925	0.3064	-0.376
Mof_C 	C 	0.0982	0.0369	0.5923	0.113
Mof_C 	C 	0.7402	0.5378	0.5627	-0.141
Mof_H 	H 	0.7337	0.5162	0.5858	0.079
Mof_C 	C 	0.6203	0.1205	0.3637	-0.136
Mof_C 	C 	0.6775	0.8178	0.6105	0.369
Mof_C 	C 	0.0846	0.9389	0.4517	0.162
Mof_C 	C 	0.758	0.6025	0.4945	0.06
Mof_H 	H 	0.7639	0.6244	0.4715	0.021
Mof_C 	C 	0.5266	0.0795	0.5109	-0.085
Mof_H 	H 	0.51	0.1077	0.5	0.059
Mof_C 	C 	0.7844	0.3859	0.5397	0.034
Mof_C 	C 	0.0881	0.9895	0.5217	-0.042
Mof_H 	H 	0.1153	0.0094	0.5093	0.042
Mof_O 	O 	0.3415	0.2084	0.6529	-0.519
Mof_C 	C 	0.7567	0.4659	0.5137	0.023
Mof_C 	C 	0.8779	0.835	0.605	-0.241
Mof_C 	C 	0.9611	0.8983	0.5768	0.151
Mof_C 	C 	0.0294	0.9678	0.5834	-0.045
Mof_H 	H 	0.017	0.9736	0.612	0.041
Mof_C 	C 	0.5903	0.0125	0.5016	-0.092
Mof_H 	H 	0.6162	0.9956	0.4846	0.064
Mof_O 	O 	0.907	0.2634	0.6978	-0.406
Mof_C 	C 	0.5758	0.9948	0.5433	0.016
Mof_O 	O 	0.6864	0.7824	0.5847	-0.392
Mof_C 	C 	0.9166	0.8525	0.6337	0.166
Mof_H 	H 	0.9151	0.8432	0.6632	-0.064
Mof_O 	O 	0.7468	0.702	0.5145	-0.246
Mof_C 	C 	0.6523	0.2937	0.3163	0.388
Mof_C 	C 	0.4689	0.0883	0.5797	0.104
Mof_C 	C 	0.0065	0.9301	0.5597	-0.038
Mof_C 	C 	0.8067	0.3551	0.5759	0.059
Mof_C 	C 	0.1138	0.0277	0.6347	-0.19
Mof_H 	H 	0.1067	0.9972	0.6469	0.094
Mof_O 	O 	0.688	0.2699	0.2966	-0.405
Mof_C 	C 	0.7613	0.5525	0.4877	-0.132
Mof_H 	H 	0.7698	0.5412	0.4596	0.068
Mof_C 	C 	0.7584	0.3653	0.5032	-0.101
Mof_H 	H 	0.7576	0.3315	0.5005	0.068
Mof_C 	C 	0.6488	0.8625	0.5939	-0.16
Mof_O 	O 	0.2018	0.1341	0.7053	-0.496
Mof_C 	C 	0.6357	0.8673	0.5489	0.065
Mof_H 	H 	0.6423	0.8415	0.5296	0.033
Mof_C 	C 	0.1814	0.146	0.6687	0.493
Mof_C 	C 	0.8575	0.2652	0.684	0.332
Mof_C 	C 	0.6453	0.1465	0.324	0.414
Mof_C 	C 	0.731	0.4449	0.4759	-0.101
Mof_H 	H 	0.7129	0.4647	0.4554	0.065
Mof_C 	C 	0.7455	0.6188	0.5369	-0.15
Mof_C 	C 	0.5662	0.0553	0.4854	0.024
Mof_C 	C 	0.6561	0.0931	0.3891	0.049
Mof_H 	H 	0.693	0.0889	0.3802	0.028
Mof_O 	O 	0.6951	0.1357	0.3151	-0.289
Mof_C 	C 	0.1401	0.0635	0.6603	0.125
Mof_H 	H 	0.151	0.0563	0.689	-0.009
Mof_C 	C 	0.8412	0.2975	0.6467	-0.108
Mof_C 	C 	0.6134	0.9437	0.6054	-0.157
Mof_H 	H 	0.6044	0.9687	0.6249	0.073
Mof_C 	C 	0.4181	0.1598	0.6003	0.158
Mof_H 	H 	0.411	0.1927	0.5951	-0.009
Mof_C 	C 	0.0646	0.9517	0.496	-0.039
Mof_C 	C 	0.5647	0.1228	0.3766	0.062
Mof_H 	H 	0.5396	0.1398	0.3588	0.014
Mof_C 	C 	0.6384	0.9013	0.6209	0.083
Mof_H 	H 	0.6484	0.8993	0.6505	-0.047
Mof_O 	O 	0.3174	0.1389	0.6837	-0.523
Mof_C 	C 	0.8575	0.3616	0.5936	-0.121
Mof_H 	H 	0.8794	0.3876	0.5841	0.077
Mof_C 	C 	0.3893	0.1375	0.6314	-0.239
Mof_C 	C 	0.8783	0.3304	0.6261	0.041
Mof_H 	H 	0.9158	0.3312	0.6339	0.025
Mof_C 	C 	0.4349	0.0617	0.6086	-0.179
Mof_H 	H 	0.438	0.0279	0.6103	0.092
Mof_C 	C 	0.4579	0.137	0.5752	-0.203
Mof_H 	H 	0.4779	0.1551	0.5547	0.102
Mof_C 	C 	0.7331	0.3942	0.4697	0.032
Mof_C 	C 	0.6371	0.0714	0.4283	-0.126
Mof_H 	H 	0.6622	0.0539	0.4456	0.078
Mof_C 	C 	0.5446	0.1006	0.4149	-0.136
Mof_H 	H 	0.5069	0.1026	0.4223	0.079
Mof_C 	C 	0.9571	0.883	0.6201	-0.238
Mof_H 	H 	0.9833	0.8941	0.6405	0.103
Mof_O 	O 	0.1893	0.8983	0.3133	-0.287
Mof_C 	C 	0.141	0.8859	0.3246	0.47
Mof_C 	C 	0.6713	0.3228	0.3569	-0.116
Mof_C 	C 	0.0709	0.8944	0.3827	0.171
Mof_H 	H 	0.0486	0.8738	0.3658	-0.023
Mof_C 	C 	0.1275	0.9549	0.4329	-0.237
Mof_H 	H 	0.1462	0.9808	0.4461	0.109
Mof_C 	C 	0.0496	0.9124	0.4233	-0.217
Mof_H 	H 	0.0125	0.9066	0.4311	0.106
Mof_C 	C 	0.1497	0.9361	0.3923	0.162
Mof_H 	H 	0.1852	0.9455	0.3829	-0.02
Mof_C 	C 	0.3957	0.0871	0.6351	0.12
Mof_H 	H 	0.3741	0.0699	0.6553	-0.013
Mof_C 	C 	0.6317	0.3541	0.3805	0.03
Mof_H 	H 	0.5944	0.3571	0.372	0.031
Mof_C 	C 	0.7434	0.3425	0.4052	-0.117
Mof_H 	H 	0.7806	0.3386	0.4135	0.077
Mof_C 	C 	0.7082	0.3712	0.4312	0.052
Mof_C 	C 	0.7249	0.3202	0.368	0.055
Mof_H 	H 	0.7498	0.3031	0.3502	0.03
Mof_C 	C 	0.3475	0.164	0.6582	0.494
Mof_C 	C 	0.7717	0.3223	0.5946	-0.116
Mof_H 	H 	0.7355	0.319	0.5837	0.075
Mof_C 	C 	0.7889	0.2931	0.6302	0.044
Mof_H 	H 	0.7642	0.2706	0.6424	0.032
Mof_C 	C 	0.6544	0.3798	0.4177	-0.11
Mof_H 	H 	0.6325	0.4024	0.4327	0.074
Mof_C 	C 	0.8806	0.851	0.5627	0.154
Mof_H 	H 	0.8557	0.839	0.5418	-0.003
Mof_C 	C 	0.9196	0.8847	0.5509	-0.23
Mof_H 	H 	0.9169	0.8989	0.5231	0.104
Mof_H 	H 	0.7563	0.8199	0.7798	1.715
Mof_H 	H 	0.7858	0.8165	0.7338	1.686
Mof_H 	H 	0.7209	0.824	0.7364	1.673
Mof_H 	H 	0.7329	0.2095	0.23	-0.106
Mof_H 	H 	0.7299	0.2005	0.2749	0.247
Mof_H 	H 	0.5108	0.2309	0.2729	0.131
Mof_H 	H 	0.7348	0.2076	0.2299	-0.06
Mof_H 	H 	0.7716	0.1784	0.7695	0.326
Mof_H 	H 	0.7766	0.1684	0.7248	-0.002
Mof_H 	H 	0.7306	0.1991	0.2749	0.257
Mof_H 	H 	0.5106	0.2283	0.2729	0.132
Mof_Yb	Yb	0.37599	0.72856	0.25	0.924
Mof_O 	O 	0.2847	0.6942	0.25	-0.776
Mof_O 	O 	0.4689	0.7284	0.25	-0.707
Mof_Yb	Yb	0.3653	0.7155	0.25	0.736
Mof_Yb	Yb	0.62401	0.27144	0.75	0.924
Mof_O 	O 	0.7153	0.3058	0.75	-0.776
Mof_O 	O 	0.5311	0.2716	0.75	-0.707
Mof_Yb	Yb	0.6347	0.2845	0.75	0.736
Mof_Yb	Yb	0.62401	0.22856	0.25	0.924
Mof_O 	O 	0.7153	0.1942	0.25	-0.776
Mof_O 	O 	0.5311	0.2284	0.25	-0.707
Mof_Yb	Yb	0.6347	0.2155	0.25	0.736
Mof_Yb	Yb	0.37599	0.77144	0.75	0.924
Mof_O 	O 	0.2847	0.8058	0.75	-0.776
Mof_O 	O 	0.4689	0.7716	0.75	-0.707
Mof_Yb	Yb	0.3653	0.7845	0.75	0.736
Mof_Yb	Yb	0.11904	0.6986	0.75	1.76
Mof_Yb	Yb	0.72601	0.65221	0.75	1.738
Mof_C 	C 	0.2474	0.3086	0.75	-10.173
Mof_C 	C 	0.2553	0.2567	0.75	3.981
Mof_O 	O 	0.2085	0.6645	0.75	-0.726
Mof_Yb	Yb	0.1473	0.6771	0.75	-0.013
Mof_Yb	Yb	0.88096	0.3014	0.25	1.76
Mof_Yb	Yb	0.27399	0.34779	0.25	1.738
Mof_C 	C 	0.7526	0.6914	0.25	-10.173
Mof_C 	C 	0.7447	0.7433	0.25	3.981
Mof_O 	O 	0.7915	0.3355	0.25	-0.726
Mof_Yb	Yb	0.8527	0.3229	0.25	-0.013
Mof_Yb	Yb	0.88096	0.1986	0.75	1.76
Mof_Yb	Yb	0.27399	0.15221	0.75	1.738
Mof_C 	C 	0.7526	0.8086	0.75	-10.172
Mof_C 	C 	0.7447	0.7567	0.75	3.981
Mof_O 	O 	0.7915	0.1645	0.75	-0.726
Mof_Yb	Yb	0.8527	0.1771	0.75	-0.013
Mof_Yb	Yb	0.11904	0.8014	0.25	1.76
Mof_Yb	Yb	0.72601	0.84779	0.25	1.738
Mof_C 	C 	0.2474	0.1914	0.25	-10.172
Mof_C 	C 	0.2553	0.2433	0.25	3.981
Mof_O 	O 	0.2085	0.8355	0.25	-0.726
Mof_Yb	Yb	0.1473	0.8229	0.25	-0.013
_end
