data_functionalizedCrystal
_audit_creation_method	'EQeq! by Chris Wilmer'
_symmetry_space_group_name_H-M	'P1'
_symmetry_Int_Tables_number	1
_symmetry_cell_setting	triclinic
loop_
_symmetry_equiv_pos_as_xyz
  x,y,z
_cell_length_a	18.4951
_cell_length_b	18.4951
_cell_length_c	46.337
_cell_angle_alpha	90
_cell_angle_beta	90
_cell_angle_gamma	120
loop_
_atom_site_label
_atom_site_type_symbol
_atom_site_fract_x
_atom_site_fract_y
_atom_site_fract_z
_atom_site_charge
Mof_O 	O 	0.6356	0.7429	0.3674	-0.135
Mof_O 	O 	0.5573	0.7049	0.3278	-0.172
Mof_O 	O 	0.365	0.2514	0.6278	-0.198
Mof_O 	O 	0.4461	0.2932	0.6682	-0.166
Mof_C 	C 	0.5708	0.6907	0.3533	0.107
Mof_C 	C 	0.5155	0.6168	0.3713	-0.012
Mof_C 	C 	0.5288	0.6054	0.4	-0.006
Mof_H 	H 	0.5725	0.6476	0.4105	0.05
Mof_C 	C 	0.469	0.4022	0.603	-0.037
Mof_H 	H 	0.4205	0.3638	0.5935	0.003
Mof_C 	C 	0.4834	0.3857	0.6309	-0.005
Mof_C 	C 	0.4267	0.3009	0.64378	0.098
Mof_O 	O 	0.30227	0.07623	0.70073	-0.135
Mof_O 	O 	0.22397	0.03823	0.66113	-0.172
Mof_O 	O 	0.03167	0.58473	0.96113	-0.198
Mof_O 	O 	0.11277	0.62653	0.00153	-0.166
Mof_C 	C 	0.23747	0.02403	0.68663	0.107
Mof_C 	C 	0.18217	0.95013	0.70463	-0.012
Mof_C 	C 	0.19547	0.93873	0.73333	-0.006
Mof_H 	H 	0.23917	0.98093	0.74383	0.05
Mof_C 	C 	0.13567	0.73553	0.93633	-0.037
Mof_H 	H 	0.08717	0.69713	0.92683	0.003
Mof_C 	C 	0.15007	0.71903	0.96423	-0.005
Mof_C 	C 	0.09337	0.63423	0.97711	0.098
Mof_O 	O 	0.96893	0.40957	0.03407	-0.135
Mof_O 	O 	0.89063	0.37157	0.99447	-0.172
Mof_O 	O 	0.69833	0.91807	0.29447	-0.198
Mof_O 	O 	0.77943	0.95987	0.33487	-0.166
Mof_C 	C 	0.90413	0.35737	0.01997	0.107
Mof_C 	C 	0.84883	0.28347	0.03797	-0.012
Mof_C 	C 	0.86213	0.27207	0.06667	-0.006
Mof_H 	H 	0.90583	0.31427	0.07717	0.05
Mof_C 	C 	0.80233	0.06887	0.26967	-0.037
Mof_H 	H 	0.75383	0.03047	0.26017	0.003
Mof_C 	C 	0.81673	0.05237	0.29757	-0.005
Mof_C 	C 	0.76003	0.96757	0.31045	0.098
Mof_O 	O 	0.2571	0.8927	0.3674	-0.135
Mof_O 	O 	0.2951	0.8524	0.3278	-0.172
Mof_O 	O 	0.7486	0.1136	0.6278	-0.198
Mof_O 	O 	0.7068	0.1529	0.6682	-0.166
Mof_C 	C 	0.3093	0.8801	0.3533	0.107
Mof_C 	C 	0.3832	0.8987	0.3713	-0.012
Mof_C 	C 	0.3946	0.9234	0.4	-0.006
Mof_H 	H 	0.3524	0.9249	0.4105	0.05
Mof_C 	C 	0.5978	0.0668	0.603	-0.037
Mof_H 	H 	0.6362	0.0567	0.5935	0.003
Mof_C 	C 	0.6143	0.0977	0.6309	-0.005
Mof_C 	C 	0.6991	0.1258	0.64378	0.098
Mof_O 	O 	0.92377	0.22603	0.70073	-0.135
Mof_O 	O 	0.96177	0.18573	0.66113	-0.172
Mof_O 	O 	0.41527	0.44693	0.96113	-0.198
Mof_O 	O 	0.37347	0.48623	0.00153	-0.166
Mof_C 	C 	0.97597	0.21343	0.68663	0.107
Mof_C 	C 	0.04987	0.23203	0.70463	-0.012
Mof_C 	C 	0.06127	0.25673	0.73333	-0.006
Mof_H 	H 	0.01907	0.25823	0.74383	0.05
Mof_C 	C 	0.26447	0.40013	0.93633	-0.037
Mof_H 	H 	0.30287	0.39003	0.92683	0.003
Mof_C 	C 	0.28097	0.43103	0.96423	-0.005
Mof_C 	C 	0.36577	0.45913	0.97711	0.098
Mof_O 	O 	0.59043	0.55937	0.03407	-0.135
Mof_O 	O 	0.62843	0.51907	0.99447	-0.172
Mof_O 	O 	0.08193	0.78027	0.29447	-0.198
Mof_O 	O 	0.04013	0.81957	0.33487	-0.166
Mof_C 	C 	0.64263	0.54677	0.01997	0.107
Mof_C 	C 	0.71653	0.56537	0.03797	-0.012
Mof_C 	C 	0.72793	0.59007	0.06667	-0.006
Mof_H 	H 	0.68573	0.59157	0.07717	0.05
Mof_C 	C 	0.93113	0.73347	0.26967	-0.037
Mof_H 	H 	0.96953	0.72337	0.26017	0.003
Mof_C 	C 	0.94763	0.76437	0.29757	-0.005
Mof_C 	C 	0.03243	0.79247	0.31045	0.098
Mof_O 	O 	0.1073	0.3644	0.3674	-0.135
Mof_O 	O 	0.1476	0.4427	0.3278	-0.172
Mof_O 	O 	0.8864	0.635	0.6278	-0.197
Mof_O 	O 	0.8471	0.5539	0.6682	-0.165
Mof_C 	C 	0.1199	0.4292	0.3533	0.108
Mof_C 	C 	0.1013	0.4845	0.3713	-0.011
Mof_C 	C 	0.0766	0.4712	0.4	-0.005
Mof_H 	H 	0.0751	0.4275	0.4105	0.051
Mof_C 	C 	0.9332	0.531	0.603	-0.036
Mof_H 	H 	0.9433	0.5795	0.5935	0.004
Mof_C 	C 	0.9023	0.5166	0.6309	-0.004
Mof_C 	C 	0.8742	0.5733	0.64378	0.099
Mof_O 	O 	0.77397	0.69773	0.70073	-0.134
Mof_O 	O 	0.81427	0.77603	0.66113	-0.171
Mof_O 	O 	0.55307	0.96833	0.96113	-0.197
Mof_O 	O 	0.51377	0.88723	0.00153	-0.165
Mof_C 	C 	0.78657	0.76253	0.68663	0.108
Mof_C 	C 	0.76797	0.81783	0.70463	-0.011
Mof_C 	C 	0.74327	0.80453	0.73333	-0.005
Mof_H 	H 	0.74177	0.76083	0.74383	0.051
Mof_C 	C 	0.59987	0.86433	0.93633	-0.036
Mof_H 	H 	0.60997	0.91283	0.92683	0.004
Mof_C 	C 	0.56897	0.84993	0.96423	-0.004
Mof_C 	C 	0.54087	0.90663	0.97711	0.099
Mof_O 	O 	0.44063	0.03107	0.03407	-0.134
Mof_O 	O 	0.48093	0.10937	0.99447	-0.171
Mof_O 	O 	0.21973	0.30167	0.29447	-0.197
Mof_O 	O 	0.18043	0.22057	0.33487	-0.165
Mof_C 	C 	0.45323	0.09587	0.01997	0.108
Mof_C 	C 	0.43463	0.15117	0.03797	-0.011
Mof_C 	C 	0.40993	0.13787	0.06667	-0.005
Mof_H 	H 	0.40843	0.09417	0.07717	0.051
Mof_C 	C 	0.26653	0.19767	0.26967	-0.036
Mof_H 	H 	0.27663	0.24617	0.26017	0.004
Mof_C 	C 	0.23563	0.18327	0.29757	-0.004
Mof_C 	C 	0.20753	0.23997	0.31045	0.099
Mof_O 	O 	0.7429	0.6356	0.6326	-0.134
Mof_O 	O 	0.7049	0.5573	0.6722	-0.171
Mof_O 	O 	0.2514	0.365	0.3722	-0.197
Mof_O 	O 	0.2932	0.4461	0.3318	-0.165
Mof_C 	C 	0.6907	0.5708	0.6467	0.108
Mof_C 	C 	0.6168	0.5155	0.6287	-0.011
Mof_C 	C 	0.6054	0.5288	0.6	-0.005
Mof_H 	H 	0.6476	0.5725	0.5895	0.051
Mof_C 	C 	0.4022	0.469	0.397	-0.036
Mof_H 	H 	0.3638	0.4205	0.4065	0.004
Mof_C 	C 	0.3857	0.4834	0.3691	-0.004
Mof_C 	C 	0.3009	0.4267	0.35622	0.099
Mof_O 	O 	0.40957	0.96893	0.96593	-0.134
Mof_O 	O 	0.37157	0.89063	0.00553	-0.171
Mof_O 	O 	0.91807	0.69833	0.70553	-0.197
Mof_O 	O 	0.95987	0.77943	0.66513	-0.165
Mof_C 	C 	0.35737	0.90413	0.98003	0.108
Mof_C 	C 	0.28347	0.84883	0.96203	-0.011
Mof_C 	C 	0.27207	0.86213	0.93333	-0.005
Mof_H 	H 	0.31427	0.90583	0.92283	0.051
Mof_C 	C 	0.06887	0.80233	0.73033	-0.036
Mof_H 	H 	0.03047	0.75383	0.73983	0.004
Mof_C 	C 	0.05237	0.81673	0.70243	-0.004
Mof_C 	C 	0.96757	0.76003	0.68955	0.099
Mof_O 	O 	0.07623	0.30227	0.29927	-0.134
Mof_O 	O 	0.03823	0.22397	0.33887	-0.171
Mof_O 	O 	0.58473	0.03167	0.03887	-0.197
Mof_O 	O 	0.62653	0.11277	0.99847	-0.165
Mof_C 	C 	0.02403	0.23747	0.31337	0.108
Mof_C 	C 	0.95013	0.18217	0.29537	-0.011
Mof_C 	C 	0.93873	0.19547	0.26667	-0.005
Mof_H 	H 	0.98093	0.23917	0.25617	0.051
Mof_C 	C 	0.73553	0.13567	0.06367	-0.036
Mof_H 	H 	0.69713	0.08717	0.07317	0.004
Mof_C 	C 	0.71903	0.15007	0.03577	-0.004
Mof_C 	C 	0.63423	0.09337	0.02289	0.099
Mof_O 	O 	0.8927	0.2571	0.6326	-0.134
Mof_O 	O 	0.8524	0.2951	0.6722	-0.171
Mof_O 	O 	0.1136	0.7486	0.3722	-0.197
Mof_O 	O 	0.1529	0.7068	0.3318	-0.165
Mof_C 	C 	0.8801	0.3093	0.6467	0.108
Mof_C 	C 	0.8987	0.3832	0.6287	-0.011
Mof_C 	C 	0.9234	0.3946	0.6	-0.005
Mof_H 	H 	0.9249	0.3524	0.5895	0.051
Mof_C 	C 	0.0668	0.5978	0.397	-0.036
Mof_H 	H 	0.0567	0.6362	0.4065	0.004
Mof_C 	C 	0.0977	0.6143	0.3691	-0.004
Mof_C 	C 	0.1258	0.6991	0.35622	0.099
Mof_O 	O 	0.55937	0.59043	0.96593	-0.134
Mof_O 	O 	0.51907	0.62843	0.00553	-0.171
Mof_O 	O 	0.78027	0.08193	0.70553	-0.197
Mof_O 	O 	0.81957	0.04013	0.66513	-0.165
Mof_C 	C 	0.54677	0.64263	0.98003	0.108
Mof_C 	C 	0.56537	0.71653	0.96203	-0.011
Mof_C 	C 	0.59007	0.72793	0.93333	-0.005
Mof_H 	H 	0.59157	0.68573	0.92283	0.051
Mof_C 	C 	0.73347	0.93113	0.73033	-0.036
Mof_H 	H 	0.72337	0.96953	0.73983	0.004
Mof_C 	C 	0.76437	0.94763	0.70243	-0.004
Mof_C 	C 	0.79247	0.03243	0.68955	0.099
Mof_O 	O 	0.22603	0.92377	0.29927	-0.134
Mof_O 	O 	0.18573	0.96177	0.33887	-0.171
Mof_O 	O 	0.44693	0.41527	0.03887	-0.197
Mof_O 	O 	0.48623	0.37347	0.99847	-0.165
Mof_C 	C 	0.21343	0.97597	0.31337	0.108
Mof_C 	C 	0.23203	0.04987	0.29537	-0.011
Mof_C 	C 	0.25673	0.06127	0.26667	-0.005
Mof_H 	H 	0.25823	0.01907	0.25617	0.051
Mof_C 	C 	0.40013	0.26447	0.06367	-0.036
Mof_H 	H 	0.39003	0.30287	0.07317	0.004
Mof_C 	C 	0.43103	0.28097	0.03577	-0.004
Mof_C 	C 	0.45913	0.36577	0.02289	0.099
Mof_O 	O 	0.3644	0.1073	0.6326	-0.134
Mof_O 	O 	0.4427	0.1476	0.6722	-0.171
Mof_O 	O 	0.635	0.8864	0.3722	-0.197
Mof_O 	O 	0.5539	0.8471	0.3318	-0.165
Mof_C 	C 	0.4292	0.1199	0.6467	0.108
Mof_C 	C 	0.4845	0.1013	0.6287	-0.011
Mof_C 	C 	0.4712	0.0766	0.6	-0.005
Mof_H 	H 	0.4275	0.0751	0.5895	0.051
Mof_C 	C 	0.531	0.9332	0.397	-0.036
Mof_H 	H 	0.5795	0.9433	0.4065	0.004
Mof_C 	C 	0.5166	0.9023	0.3691	-0.004
Mof_C 	C 	0.5733	0.8742	0.35622	0.099
Mof_O 	O 	0.03107	0.44063	0.96593	-0.134
Mof_O 	O 	0.10937	0.48093	0.00553	-0.171
Mof_O 	O 	0.30167	0.21973	0.70553	-0.197
Mof_O 	O 	0.22057	0.18043	0.66513	-0.165
Mof_C 	C 	0.09587	0.45323	0.98003	0.108
Mof_C 	C 	0.15117	0.43463	0.96203	-0.011
Mof_C 	C 	0.13787	0.40993	0.93333	-0.005
Mof_H 	H 	0.09417	0.40843	0.92283	0.051
Mof_C 	C 	0.19767	0.26653	0.73033	-0.036
Mof_H 	H 	0.24617	0.27663	0.73983	0.004
Mof_C 	C 	0.18327	0.23563	0.70243	-0.004
Mof_C 	C 	0.23997	0.20753	0.68955	0.099
Mof_O 	O 	0.69773	0.77397	0.29927	-0.134
Mof_O 	O 	0.77603	0.81427	0.33887	-0.171
Mof_O 	O 	0.96833	0.55307	0.03887	-0.197
Mof_O 	O 	0.88723	0.51377	0.99847	-0.165
Mof_C 	C 	0.76253	0.78657	0.31337	0.108
Mof_C 	C 	0.81783	0.76797	0.29537	-0.011
Mof_C 	C 	0.80453	0.74327	0.26667	-0.005
Mof_H 	H 	0.76083	0.74177	0.25617	0.051
Mof_C 	C 	0.86433	0.59987	0.06367	-0.036
Mof_H 	H 	0.91283	0.60997	0.07317	0.004
Mof_C 	C 	0.84993	0.56897	0.03577	-0.004
Mof_C 	C 	0.90663	0.54087	0.02289	0.099
Mof_O 	O 	0.3644	0.2571	0.6326	-0.134
Mof_O 	O 	0.4427	0.2951	0.6722	-0.171
Mof_O 	O 	0.635	0.7486	0.3722	-0.197
Mof_O 	O 	0.5539	0.7068	0.3318	-0.165
Mof_C 	C 	0.4292	0.3093	0.6467	0.108
Mof_C 	C 	0.4845	0.3832	0.6287	-0.011
Mof_C 	C 	0.4712	0.3946	0.6	-0.005
Mof_H 	H 	0.4275	0.3524	0.5895	0.051
Mof_C 	C 	0.531	0.5978	0.397	-0.036
Mof_H 	H 	0.5795	0.6362	0.4065	0.004
Mof_C 	C 	0.5166	0.6143	0.3691	-0.004
Mof_C 	C 	0.5733	0.6991	0.35622	0.099
Mof_O 	O 	0.03107	0.59043	0.96593	-0.134
Mof_O 	O 	0.10937	0.62843	0.00553	-0.171
Mof_O 	O 	0.30167	0.08193	0.70553	-0.197
Mof_O 	O 	0.22057	0.04013	0.66513	-0.165
Mof_C 	C 	0.09587	0.64263	0.98003	0.108
Mof_C 	C 	0.15117	0.71653	0.96203	-0.011
Mof_C 	C 	0.13787	0.72793	0.93333	-0.005
Mof_H 	H 	0.09417	0.68573	0.92283	0.051
Mof_C 	C 	0.19767	0.93113	0.73033	-0.036
Mof_H 	H 	0.24617	0.96953	0.73983	0.004
Mof_C 	C 	0.18327	0.94763	0.70243	-0.004
Mof_C 	C 	0.23997	0.03243	0.68955	0.099
Mof_O 	O 	0.69773	0.92377	0.29927	-0.134
Mof_O 	O 	0.77603	0.96177	0.33887	-0.171
Mof_O 	O 	0.96833	0.41527	0.03887	-0.197
Mof_O 	O 	0.88723	0.37347	0.99847	-0.165
Mof_C 	C 	0.76253	0.97597	0.31337	0.108
Mof_C 	C 	0.81783	0.04987	0.29537	-0.011
Mof_C 	C 	0.80453	0.06127	0.26667	-0.005
Mof_H 	H 	0.76083	0.01907	0.25617	0.051
Mof_C 	C 	0.86433	0.26447	0.06367	-0.036
Mof_H 	H 	0.91283	0.30287	0.07317	0.004
Mof_C 	C 	0.84993	0.28097	0.03577	-0.004
Mof_C 	C 	0.90663	0.36577	0.02289	0.099
Mof_O 	O 	0.7429	0.1073	0.6326	-0.134
Mof_O 	O 	0.7049	0.1476	0.6722	-0.171
Mof_O 	O 	0.2514	0.8864	0.3722	-0.197
Mof_O 	O 	0.2932	0.8471	0.3318	-0.165
Mof_C 	C 	0.6907	0.1199	0.6467	0.108
Mof_C 	C 	0.6168	0.1013	0.6287	-0.011
Mof_C 	C 	0.6054	0.0766	0.6	-0.005
Mof_H 	H 	0.6476	0.0751	0.5895	0.051
Mof_C 	C 	0.4022	0.9332	0.397	-0.036
Mof_H 	H 	0.3638	0.9433	0.4065	0.004
Mof_C 	C 	0.3857	0.9023	0.3691	-0.004
Mof_C 	C 	0.3009	0.8742	0.35622	0.099
Mof_O 	O 	0.40957	0.44063	0.96593	-0.134
Mof_O 	O 	0.37157	0.48093	0.00553	-0.171
Mof_O 	O 	0.91807	0.21973	0.70553	-0.197
Mof_O 	O 	0.95987	0.18043	0.66513	-0.165
Mof_C 	C 	0.35737	0.45323	0.98003	0.108
Mof_C 	C 	0.28347	0.43463	0.96203	-0.011
Mof_C 	C 	0.27207	0.40993	0.93333	-0.005
Mof_H 	H 	0.31427	0.40843	0.92283	0.051
Mof_C 	C 	0.06887	0.26653	0.73033	-0.036
Mof_H 	H 	0.03047	0.27663	0.73983	0.004
Mof_C 	C 	0.05237	0.23563	0.70243	-0.004
Mof_C 	C 	0.96757	0.20753	0.68955	0.099
Mof_O 	O 	0.07623	0.77397	0.29927	-0.134
Mof_O 	O 	0.03823	0.81427	0.33887	-0.171
Mof_O 	O 	0.58473	0.55307	0.03887	-0.197
Mof_O 	O 	0.62653	0.51377	0.99847	-0.165
Mof_C 	C 	0.02403	0.78657	0.31337	0.108
Mof_C 	C 	0.95013	0.76797	0.29537	-0.011
Mof_C 	C 	0.93873	0.74327	0.26667	-0.005
Mof_H 	H 	0.98093	0.74177	0.25617	0.051
Mof_C 	C 	0.73553	0.59987	0.06367	-0.036
Mof_H 	H 	0.69713	0.60997	0.07317	0.004
Mof_C 	C 	0.71903	0.56897	0.03577	-0.004
Mof_C 	C 	0.63423	0.54087	0.02289	0.099
Mof_O 	O 	0.8927	0.6356	0.6326	-0.134
Mof_O 	O 	0.8524	0.5573	0.6722	-0.171
Mof_O 	O 	0.1136	0.365	0.3722	-0.197
Mof_O 	O 	0.1529	0.4461	0.3318	-0.165
Mof_C 	C 	0.8801	0.5708	0.6467	0.108
Mof_C 	C 	0.8987	0.5155	0.6287	-0.011
Mof_C 	C 	0.9234	0.5288	0.6	-0.005
Mof_H 	H 	0.9249	0.5725	0.5895	0.051
Mof_C 	C 	0.0668	0.469	0.397	-0.036
Mof_H 	H 	0.0567	0.4205	0.4065	0.004
Mof_C 	C 	0.0977	0.4834	0.3691	-0.004
Mof_C 	C 	0.1258	0.4267	0.35622	0.099
Mof_O 	O 	0.55937	0.96893	0.96593	-0.134
Mof_O 	O 	0.51907	0.89063	0.00553	-0.171
Mof_O 	O 	0.78027	0.69833	0.70553	-0.197
Mof_O 	O 	0.81957	0.77943	0.66513	-0.165
Mof_C 	C 	0.54677	0.90413	0.98003	0.108
Mof_C 	C 	0.56537	0.84883	0.96203	-0.011
Mof_C 	C 	0.59007	0.86213	0.93333	-0.005
Mof_H 	H 	0.59157	0.90583	0.92283	0.051
Mof_C 	C 	0.73347	0.80233	0.73033	-0.036
Mof_H 	H 	0.72337	0.75383	0.73983	0.004
Mof_C 	C 	0.76437	0.81673	0.70243	-0.004
Mof_C 	C 	0.79247	0.76003	0.68955	0.099
Mof_O 	O 	0.22603	0.30227	0.29927	-0.134
Mof_O 	O 	0.18573	0.22397	0.33887	-0.171
Mof_O 	O 	0.44693	0.03167	0.03887	-0.197
Mof_O 	O 	0.48623	0.11277	0.99847	-0.165
Mof_C 	C 	0.21343	0.23747	0.31337	0.108
Mof_C 	C 	0.23203	0.18217	0.29537	-0.011
Mof_C 	C 	0.25673	0.19547	0.26667	-0.005
Mof_H 	H 	0.25823	0.23917	0.25617	0.051
Mof_C 	C 	0.40013	0.13567	0.06367	-0.036
Mof_H 	H 	0.39003	0.08717	0.07317	0.004
Mof_C 	C 	0.43103	0.15007	0.03577	-0.004
Mof_C 	C 	0.45913	0.09337	0.02289	0.099
Mof_O 	O 	0.2571	0.3644	0.3674	-0.134
Mof_O 	O 	0.2951	0.4427	0.3278	-0.171
Mof_O 	O 	0.7486	0.635	0.6278	-0.197
Mof_O 	O 	0.7068	0.5539	0.6682	-0.165
Mof_C 	C 	0.3093	0.4292	0.3533	0.108
Mof_C 	C 	0.3832	0.4845	0.3713	-0.011
Mof_C 	C 	0.3946	0.4712	0.4	-0.005
Mof_H 	H 	0.3524	0.4275	0.4105	0.051
Mof_C 	C 	0.5978	0.531	0.603	-0.036
Mof_H 	H 	0.6362	0.5795	0.5935	0.004
Mof_C 	C 	0.6143	0.5166	0.6309	-0.004
Mof_C 	C 	0.6991	0.5733	0.64378	0.099
Mof_O 	O 	0.92377	0.69773	0.70073	-0.134
Mof_O 	O 	0.96177	0.77603	0.66113	-0.171
Mof_O 	O 	0.41527	0.96833	0.96113	-0.197
Mof_O 	O 	0.37347	0.88723	0.00153	-0.165
Mof_C 	C 	0.97597	0.76253	0.68663	0.108
Mof_C 	C 	0.04987	0.81783	0.70463	-0.011
Mof_C 	C 	0.06127	0.80453	0.73333	-0.005
Mof_H 	H 	0.01907	0.76083	0.74383	0.051
Mof_C 	C 	0.26447	0.86433	0.93633	-0.036
Mof_H 	H 	0.30287	0.91283	0.92683	0.004
Mof_C 	C 	0.28097	0.84993	0.96423	-0.004
Mof_C 	C 	0.36577	0.90663	0.97711	0.099
Mof_O 	O 	0.59043	0.03107	0.03407	-0.134
Mof_O 	O 	0.62843	0.10937	0.99447	-0.171
Mof_O 	O 	0.08193	0.30167	0.29447	-0.197
Mof_O 	O 	0.04013	0.22057	0.33487	-0.165
Mof_C 	C 	0.64263	0.09587	0.01997	0.108
Mof_C 	C 	0.71653	0.15117	0.03797	-0.011
Mof_C 	C 	0.72793	0.13787	0.06667	-0.005
Mof_H 	H 	0.68573	0.09417	0.07717	0.051
Mof_C 	C 	0.93113	0.19767	0.26967	-0.036
Mof_H 	H 	0.96953	0.24617	0.26017	0.004
Mof_C 	C 	0.94763	0.18327	0.29757	-0.004
Mof_C 	C 	0.03243	0.23997	0.31045	0.099
Mof_O 	O 	0.1073	0.7429	0.3674	-0.134
Mof_O 	O 	0.1476	0.7049	0.3278	-0.171
Mof_O 	O 	0.8864	0.2514	0.6278	-0.197
Mof_O 	O 	0.8471	0.2932	0.6682	-0.165
Mof_C 	C 	0.1199	0.6907	0.3533	0.108
Mof_C 	C 	0.1013	0.6168	0.3713	-0.011
Mof_C 	C 	0.0766	0.6054	0.4	-0.005
Mof_H 	H 	0.0751	0.6476	0.4105	0.051
Mof_C 	C 	0.9332	0.4022	0.603	-0.036
Mof_H 	H 	0.9433	0.3638	0.5935	0.004
Mof_C 	C 	0.9023	0.3857	0.6309	-0.004
Mof_C 	C 	0.8742	0.3009	0.64378	0.099
Mof_O 	O 	0.77397	0.07623	0.70073	-0.134
Mof_O 	O 	0.81427	0.03823	0.66113	-0.171
Mof_O 	O 	0.55307	0.58473	0.96113	-0.197
Mof_O 	O 	0.51377	0.62653	0.00153	-0.165
Mof_C 	C 	0.78657	0.02403	0.68663	0.108
Mof_C 	C 	0.76797	0.95013	0.70463	-0.011
Mof_C 	C 	0.74327	0.93873	0.73333	-0.005
Mof_H 	H 	0.74177	0.98093	0.74383	0.051
Mof_C 	C 	0.59987	0.73553	0.93633	-0.036
Mof_H 	H 	0.60997	0.69713	0.92683	0.004
Mof_C 	C 	0.56897	0.71903	0.96423	-0.004
Mof_C 	C 	0.54087	0.63423	0.97711	0.099
Mof_O 	O 	0.44063	0.40957	0.03407	-0.134
Mof_O 	O 	0.48093	0.37157	0.99447	-0.171
Mof_O 	O 	0.21973	0.91807	0.29447	-0.197
Mof_O 	O 	0.18043	0.95987	0.33487	-0.165
Mof_C 	C 	0.45323	0.35737	0.01997	0.108
Mof_C 	C 	0.43463	0.28347	0.03797	-0.011
Mof_C 	C 	0.40993	0.27207	0.06667	-0.005
Mof_H 	H 	0.40843	0.31427	0.07717	0.051
Mof_C 	C 	0.26653	0.06887	0.26967	-0.036
Mof_H 	H 	0.27663	0.03047	0.26017	0.004
Mof_C 	C 	0.23563	0.05237	0.29757	-0.004
Mof_C 	C 	0.20753	0.96757	0.31045	0.099
Mof_O 	O 	0.6356	0.8927	0.3674	-0.134
Mof_O 	O 	0.5573	0.8524	0.3278	-0.171
Mof_O 	O 	0.365	0.1136	0.6278	-0.197
Mof_O 	O 	0.4461	0.1529	0.6682	-0.165
Mof_C 	C 	0.5708	0.8801	0.3533	0.108
Mof_C 	C 	0.5155	0.8987	0.3713	-0.011
Mof_C 	C 	0.5288	0.9234	0.4	-0.005
Mof_H 	H 	0.5725	0.9249	0.4105	0.051
Mof_C 	C 	0.469	0.0668	0.603	-0.036
Mof_H 	H 	0.4205	0.0567	0.5935	0.004
Mof_C 	C 	0.4834	0.0977	0.6309	-0.004
Mof_C 	C 	0.4267	0.1258	0.64378	0.099
Mof_O 	O 	0.30227	0.22603	0.70073	-0.134
Mof_O 	O 	0.22397	0.18573	0.66113	-0.171
Mof_O 	O 	0.03167	0.44693	0.96113	-0.197
Mof_O 	O 	0.11277	0.48623	0.00153	-0.165
Mof_C 	C 	0.23747	0.21343	0.68663	0.108
Mof_C 	C 	0.18217	0.23203	0.70463	-0.011
Mof_C 	C 	0.19547	0.25673	0.73333	-0.005
Mof_H 	H 	0.23917	0.25823	0.74383	0.051
Mof_C 	C 	0.13567	0.40013	0.93633	-0.036
Mof_H 	H 	0.08717	0.39003	0.92683	0.004
Mof_C 	C 	0.15007	0.43103	0.96423	-0.004
Mof_C 	C 	0.09337	0.45913	0.97711	0.099
Mof_O 	O 	0.96893	0.55937	0.03407	-0.134
Mof_O 	O 	0.89063	0.51907	0.99447	-0.171
Mof_O 	O 	0.69833	0.78027	0.29447	-0.197
Mof_O 	O 	0.77943	0.81957	0.33487	-0.165
Mof_C 	C 	0.90413	0.54677	0.01997	0.108
Mof_C 	C 	0.84883	0.56537	0.03797	-0.011
Mof_C 	C 	0.86213	0.59007	0.06667	-0.005
Mof_H 	H 	0.90583	0.59157	0.07717	0.051
Mof_C 	C 	0.80233	0.73347	0.26967	-0.036
Mof_H 	H 	0.75383	0.72337	0.26017	0.004
Mof_C 	C 	0.81673	0.76437	0.29757	-0.004
Mof_C 	C 	0.76003	0.79247	0.31045	0.099
Mof_Cu	Cu	0.71464	0.85732	0.357	0.886
Mof_Cu	Cu	0.38131	0.19065	0.69033	0.886
Mof_Cu	Cu	0.04797	0.52399	0.02367	0.886
Mof_Cu	Cu	0.14268	0.85732	0.357	0.886
Mof_Cu	Cu	0.80935	0.19065	0.69033	0.886
Mof_Cu	Cu	0.47601	0.52399	0.02367	0.886
Mof_Cu	Cu	0.14268	0.28536	0.357	0.886
Mof_Cu	Cu	0.80935	0.61869	0.69033	0.886
Mof_Cu	Cu	0.47601	0.95203	0.02367	0.886
Mof_Cu	Cu	0.85732	0.71464	0.643	0.886
Mof_Cu	Cu	0.52399	0.04797	0.97633	0.886
Mof_Cu	Cu	0.19065	0.38131	0.30967	0.886
Mof_Cu	Cu	0.85732	0.14268	0.643	0.886
Mof_Cu	Cu	0.52399	0.47601	0.97633	0.886
Mof_Cu	Cu	0.19065	0.80935	0.30967	0.886
Mof_Cu	Cu	0.28536	0.14268	0.643	0.886
Mof_Cu	Cu	0.95203	0.47601	0.97633	0.886
Mof_Cu	Cu	0.61869	0.80935	0.30967	0.886
Mof_C 	C 	0.4451	0.5549	0.3573	-0.037
Mof_H 	H 	0.4446	0.5554	0.3373	0.064
Mof_C 	C 	0.4821	0.5179	0.444	-0.009
Mof_C 	C 	0.5238	0.4762	0.453	0.013
Mof_C 	C 	0.5332	0.4668	0.4821	-0.02
Mof_C 	C 	0.501	0.499	0.5024	0.009
Mof_C 	C 	0.4594	0.5406	0.4935	-0.013
Mof_C 	C 	0.4505	0.5495	0.4643	0.017
Mof_C 	C 	0.4689	0.5311	0.413	0.007
Mof_C 	C 	0.4097	0.5903	0.4549	-0.09
Mof_H 	H 	0.4019	0.5981	0.4355	0.07
Mof_C 	C 	0.3774	0.6226	0.4746	-0.034
Mof_H 	H 	0.3499	0.6501	0.4692	0.029
Mof_C 	C 	0.3865	0.6135	0.5037	-0.038
Mof_H 	H 	0.3659	0.6341	0.5178	0.014
Mof_C 	C 	0.427	0.573	0.5134	-0.042
Mof_H 	H 	0.434	0.566	0.5328	0.09
Mof_C 	C 	0.5555	0.4445	0.4326	-0.084
Mof_H 	H 	0.5483	0.4517	0.4131	0.067
Mof_C 	C 	0.597	0.403	0.4412	-0.047
Mof_H 	H 	0.6178	0.3822	0.4272	0.046
Mof_C 	C 	0.6063	0.3937	0.4702	-0.04
Mof_H 	H 	0.6342	0.3658	0.4758	0.038
Mof_C 	C 	0.5748	0.4252	0.4905	-0.042
Mof_H 	H 	0.5816	0.4184	0.51	0.09
Mof_C 	C 	0.5105	0.4895	0.534	-0.012
Mof_C 	C 	0.5172	0.4828	0.5573	-0.008
Mof_C 	C 	0.526	0.474	0.5883	0.005
Mof_C 	C 	0.5567	0.4433	0.645	-0.006
Mof_H 	H 	0.5697	0.4303	0.663	0.004
Mof_C 	C 	0.11177	0.88823	0.69063	-0.037
Mof_H 	H 	0.11127	0.88873	0.67063	0.064
Mof_C 	C 	0.14877	0.85123	0.77733	-0.009
Mof_C 	C 	0.19047	0.80953	0.78633	0.013
Mof_C 	C 	0.19987	0.80013	0.81543	-0.02
Mof_C 	C 	0.16767	0.83233	0.83573	0.009
Mof_C 	C 	0.12607	0.87393	0.82683	-0.013
Mof_C 	C 	0.11717	0.88283	0.79763	0.016
Mof_C 	C 	0.13557	0.86443	0.74633	0.007
Mof_C 	C 	0.07637	0.92363	0.78823	-0.09
Mof_H 	H 	0.06857	0.93143	0.76883	0.07
Mof_C 	C 	0.04407	0.95593	0.80793	-0.035
Mof_H 	H 	0.01657	0.98343	0.80253	0.029
Mof_C 	C 	0.05317	0.94683	0.83703	-0.038
Mof_H 	H 	0.03257	0.96743	0.85113	0.014
Mof_C 	C 	0.09367	0.90633	0.84673	-0.042
Mof_H 	H 	0.10067	0.89933	0.86613	0.09
Mof_C 	C 	0.22217	0.77783	0.76593	-0.084
Mof_H 	H 	0.21497	0.78503	0.74643	0.067
Mof_C 	C 	0.26367	0.73633	0.77453	-0.047
Mof_H 	H 	0.28447	0.71553	0.76053	0.046
Mof_C 	C 	0.27297	0.72703	0.80353	-0.04
Mof_H 	H 	0.30087	0.69913	0.80913	0.038
Mof_C 	C 	0.24147	0.75853	0.82383	-0.042
Mof_H 	H 	0.24827	0.75173	0.84333	0.09
Mof_C 	C 	0.17717	0.82283	0.86733	-0.012
Mof_C 	C 	0.18387	0.81613	0.89063	-0.008
Mof_C 	C 	0.19267	0.80733	0.92163	0.005
Mof_C 	C 	0.22337	0.77663	0.97833	-0.006
Mof_H 	H 	0.23637	0.76363	0.99633	0.004
Mof_C 	C 	0.77843	0.22157	0.02397	-0.037
Mof_H 	H 	0.77793	0.22207	0.00397	0.064
Mof_C 	C 	0.81543	0.18457	0.11067	-0.009
Mof_C 	C 	0.85713	0.14287	0.11967	0.013
Mof_C 	C 	0.86653	0.13347	0.14877	-0.02
Mof_C 	C 	0.83433	0.16567	0.16907	0.009
Mof_C 	C 	0.79273	0.20727	0.16017	-0.013
Mof_C 	C 	0.78383	0.21617	0.13097	0.017
Mof_C 	C 	0.80223	0.19777	0.07967	0.007
Mof_C 	C 	0.74303	0.25697	0.12157	-0.09
Mof_H 	H 	0.73523	0.26477	0.10217	0.07
Mof_C 	C 	0.71073	0.28927	0.14127	-0.034
Mof_H 	H 	0.68323	0.31677	0.13587	0.029
Mof_C 	C 	0.71983	0.28017	0.17037	-0.038
Mof_H 	H 	0.69923	0.30077	0.18447	0.014
Mof_C 	C 	0.76033	0.23967	0.18007	-0.042
Mof_H 	H 	0.76733	0.23267	0.19947	0.09
Mof_C 	C 	0.88883	0.11117	0.09927	-0.084
Mof_H 	H 	0.88163	0.11837	0.07977	0.067
Mof_C 	C 	0.93033	0.06967	0.10787	-0.047
Mof_H 	H 	0.95113	0.04887	0.09387	0.046
Mof_C 	C 	0.93963	0.06037	0.13687	-0.04
Mof_H 	H 	0.96753	0.03247	0.14247	0.038
Mof_C 	C 	0.90813	0.09187	0.15717	-0.042
Mof_H 	H 	0.91493	0.08507	0.17667	0.09
Mof_C 	C 	0.84383	0.15617	0.20067	-0.012
Mof_C 	C 	0.85053	0.14947	0.22397	-0.008
Mof_C 	C 	0.85933	0.14067	0.25497	0.005
Mof_C 	C 	0.89003	0.10997	0.31167	-0.006
Mof_H 	H 	0.90303	0.09697	0.32967	0.004
Mof_C 	C 	0.4451	0.8902	0.3573	-0.037
Mof_H 	H 	0.4446	0.8892	0.3373	0.064
Mof_C 	C 	0.4821	0.9642	0.444	-0.009
Mof_C 	C 	0.5238	0.0476	0.453	0.013
Mof_C 	C 	0.5332	0.0664	0.4821	-0.02
Mof_C 	C 	0.501	0.002	0.5024	0.009
Mof_C 	C 	0.4594	0.9188	0.4935	-0.013
Mof_C 	C 	0.4505	0.901	0.4643	0.017
Mof_C 	C 	0.4689	0.9378	0.413	0.007
Mof_C 	C 	0.4097	0.8194	0.4549	-0.091
Mof_H 	H 	0.4019	0.8038	0.4355	0.07
Mof_C 	C 	0.3774	0.7548	0.4746	-0.034
Mof_H 	H 	0.3499	0.6998	0.4692	0.029
Mof_C 	C 	0.3865	0.773	0.5037	-0.038
Mof_H 	H 	0.3659	0.7318	0.5178	0.014
Mof_C 	C 	0.427	0.854	0.5134	-0.042
Mof_H 	H 	0.434	0.868	0.5328	0.09
Mof_C 	C 	0.5555	0.111	0.4326	-0.084
Mof_H 	H 	0.5483	0.0966	0.4131	0.067
Mof_C 	C 	0.597	0.194	0.4412	-0.047
Mof_H 	H 	0.6178	0.2356	0.4272	0.046
Mof_C 	C 	0.6063	0.2126	0.4702	-0.04
Mof_H 	H 	0.6342	0.2684	0.4758	0.038
Mof_C 	C 	0.5748	0.1496	0.4905	-0.042
Mof_H 	H 	0.5816	0.1632	0.51	0.09
Mof_C 	C 	0.5105	0.021	0.534	-0.012
Mof_C 	C 	0.5172	0.0344	0.5573	-0.008
Mof_C 	C 	0.526	0.052	0.5883	0.005
Mof_C 	C 	0.5567	0.1134	0.645	-0.006
Mof_H 	H 	0.5697	0.1394	0.663	0.004
Mof_C 	C 	0.11177	0.22353	0.69063	-0.037
Mof_H 	H 	0.11127	0.22253	0.67063	0.064
Mof_C 	C 	0.14877	0.29753	0.77733	-0.009
Mof_C 	C 	0.19047	0.38093	0.78633	0.013
Mof_C 	C 	0.19987	0.39973	0.81543	-0.02
Mof_C 	C 	0.16767	0.33533	0.83573	0.009
Mof_C 	C 	0.12607	0.25213	0.82683	-0.013
Mof_C 	C 	0.11717	0.23433	0.79763	0.017
Mof_C 	C 	0.13557	0.27113	0.74633	0.007
Mof_C 	C 	0.07637	0.15273	0.78823	-0.091
Mof_H 	H 	0.06857	0.13713	0.76883	0.07
Mof_C 	C 	0.04407	0.08813	0.80793	-0.034
Mof_H 	H 	0.01657	0.03313	0.80253	0.029
Mof_C 	C 	0.05317	0.10633	0.83703	-0.038
Mof_H 	H 	0.03257	0.06513	0.85113	0.014
Mof_C 	C 	0.09367	0.18733	0.84673	-0.042
Mof_H 	H 	0.10067	0.20133	0.86613	0.09
Mof_C 	C 	0.22217	0.44433	0.76593	-0.084
Mof_H 	H 	0.21497	0.42993	0.74643	0.067
Mof_C 	C 	0.26367	0.52733	0.77453	-0.047
Mof_H 	H 	0.28447	0.56893	0.76053	0.046
Mof_C 	C 	0.27297	0.54593	0.80353	-0.04
Mof_H 	H 	0.30087	0.60173	0.80913	0.038
Mof_C 	C 	0.24147	0.48293	0.82383	-0.042
Mof_H 	H 	0.24827	0.49653	0.84333	0.09
Mof_C 	C 	0.17717	0.35433	0.86733	-0.012
Mof_C 	C 	0.18387	0.36773	0.89063	-0.008
Mof_C 	C 	0.19267	0.38533	0.92163	0.005
Mof_C 	C 	0.22337	0.44673	0.97833	-0.006
Mof_H 	H 	0.23637	0.47273	0.99633	0.004
Mof_C 	C 	0.77843	0.55687	0.02397	-0.037
Mof_H 	H 	0.77793	0.55587	0.00397	0.064
Mof_C 	C 	0.81543	0.63087	0.11067	-0.009
Mof_C 	C 	0.85713	0.71427	0.11967	0.013
Mof_C 	C 	0.86653	0.73307	0.14877	-0.02
Mof_C 	C 	0.83433	0.66867	0.16907	0.009
Mof_C 	C 	0.79273	0.58547	0.16017	-0.013
Mof_C 	C 	0.78383	0.56767	0.13097	0.017
Mof_C 	C 	0.80223	0.60447	0.07967	0.007
Mof_C 	C 	0.74303	0.48607	0.12157	-0.091
Mof_H 	H 	0.73523	0.47047	0.10217	0.07
Mof_C 	C 	0.71073	0.42147	0.14127	-0.034
Mof_H 	H 	0.68323	0.36647	0.13587	0.029
Mof_C 	C 	0.71983	0.43967	0.17037	-0.038
Mof_H 	H 	0.69923	0.39847	0.18447	0.014
Mof_C 	C 	0.76033	0.52067	0.18007	-0.042
Mof_H 	H 	0.76733	0.53467	0.19947	0.09
Mof_C 	C 	0.88883	0.77767	0.09927	-0.084
Mof_H 	H 	0.88163	0.76327	0.07977	0.067
Mof_C 	C 	0.93033	0.86067	0.10787	-0.047
Mof_H 	H 	0.95113	0.90227	0.09387	0.046
Mof_C 	C 	0.93963	0.87927	0.13687	-0.04
Mof_H 	H 	0.96753	0.93507	0.14247	0.038
Mof_C 	C 	0.90813	0.81627	0.15717	-0.042
Mof_H 	H 	0.91493	0.82987	0.17667	0.09
Mof_C 	C 	0.84383	0.68767	0.20067	-0.012
Mof_C 	C 	0.85053	0.70107	0.22397	-0.008
Mof_C 	C 	0.85933	0.71867	0.25497	0.005
Mof_C 	C 	0.89003	0.78007	0.31167	-0.006
Mof_H 	H 	0.90303	0.80607	0.32967	0.004
Mof_C 	C 	0.1098	0.5549	0.3573	-0.037
Mof_H 	H 	0.1108	0.5554	0.3373	0.064
Mof_C 	C 	0.0358	0.5179	0.444	-0.009
Mof_C 	C 	0.9524	0.4762	0.453	0.013
Mof_C 	C 	0.9336	0.4668	0.4821	-0.02
Mof_C 	C 	0.998	0.499	0.5024	0.009
Mof_C 	C 	0.0812	0.5406	0.4935	-0.013
Mof_C 	C 	0.099	0.5495	0.4643	0.017
Mof_C 	C 	0.0622	0.5311	0.413	0.007
Mof_C 	C 	0.1806	0.5903	0.4549	-0.091
Mof_H 	H 	0.1962	0.5981	0.4355	0.07
Mof_C 	C 	0.2452	0.6226	0.4746	-0.034
Mof_H 	H 	0.3002	0.6501	0.4692	0.029
Mof_C 	C 	0.227	0.6135	0.5037	-0.038
Mof_H 	H 	0.2682	0.6341	0.5178	0.014
Mof_C 	C 	0.146	0.573	0.5134	-0.042
Mof_H 	H 	0.132	0.566	0.5328	0.09
Mof_C 	C 	0.889	0.4445	0.4326	-0.084
Mof_H 	H 	0.9034	0.4517	0.4131	0.067
Mof_C 	C 	0.806	0.403	0.4412	-0.047
Mof_H 	H 	0.7644	0.3822	0.4272	0.046
Mof_C 	C 	0.7874	0.3937	0.4702	-0.04
Mof_H 	H 	0.7316	0.3658	0.4758	0.038
Mof_C 	C 	0.8504	0.4252	0.4905	-0.042
Mof_H 	H 	0.8368	0.4184	0.51	0.09
Mof_C 	C 	0.979	0.4895	0.534	-0.012
Mof_C 	C 	0.9656	0.4828	0.5573	-0.008
Mof_C 	C 	0.948	0.474	0.5883	0.005
Mof_C 	C 	0.8866	0.4433	0.645	-0.006
Mof_H 	H 	0.8606	0.4303	0.663	0.004
Mof_C 	C 	0.77647	0.88823	0.69063	-0.037
Mof_H 	H 	0.77747	0.88873	0.67063	0.064
Mof_C 	C 	0.70247	0.85123	0.77733	-0.009
Mof_C 	C 	0.61907	0.80953	0.78633	0.013
Mof_C 	C 	0.60027	0.80013	0.81543	-0.02
Mof_C 	C 	0.66467	0.83233	0.83573	0.009
Mof_C 	C 	0.74787	0.87393	0.82683	-0.013
Mof_C 	C 	0.76567	0.88283	0.79763	0.017
Mof_C 	C 	0.72887	0.86443	0.74633	0.007
Mof_C 	C 	0.84727	0.92363	0.78823	-0.091
Mof_H 	H 	0.86287	0.93143	0.76883	0.07
Mof_C 	C 	0.91187	0.95593	0.80793	-0.034
Mof_H 	H 	0.96687	0.98343	0.80253	0.029
Mof_C 	C 	0.89367	0.94683	0.83703	-0.038
Mof_H 	H 	0.93487	0.96743	0.85113	0.014
Mof_C 	C 	0.81267	0.90633	0.84673	-0.042
Mof_H 	H 	0.79867	0.89933	0.86613	0.09
Mof_C 	C 	0.55567	0.77783	0.76593	-0.084
Mof_H 	H 	0.57007	0.78503	0.74643	0.067
Mof_C 	C 	0.47267	0.73633	0.77453	-0.047
Mof_H 	H 	0.43107	0.71553	0.76053	0.046
Mof_C 	C 	0.45407	0.72703	0.80353	-0.04
Mof_H 	H 	0.39827	0.69913	0.80913	0.038
Mof_C 	C 	0.51707	0.75853	0.82383	-0.042
Mof_H 	H 	0.50347	0.75173	0.84333	0.09
Mof_C 	C 	0.64567	0.82283	0.86733	-0.012
Mof_C 	C 	0.63227	0.81613	0.89063	-0.008
Mof_C 	C 	0.61467	0.80733	0.92163	0.005
Mof_C 	C 	0.55327	0.77663	0.97833	-0.006
Mof_H 	H 	0.52727	0.76363	0.99633	0.004
Mof_C 	C 	0.44313	0.22157	0.02397	-0.037
Mof_H 	H 	0.44413	0.22207	0.00397	0.064
Mof_C 	C 	0.36913	0.18457	0.11067	-0.009
Mof_C 	C 	0.28573	0.14287	0.11967	0.013
Mof_C 	C 	0.26693	0.13347	0.14877	-0.02
Mof_C 	C 	0.33133	0.16567	0.16907	0.009
Mof_C 	C 	0.41453	0.20727	0.16017	-0.013
Mof_C 	C 	0.43233	0.21617	0.13097	0.017
Mof_C 	C 	0.39553	0.19777	0.07967	0.007
Mof_C 	C 	0.51393	0.25697	0.12157	-0.091
Mof_H 	H 	0.52953	0.26477	0.10217	0.07
Mof_C 	C 	0.57853	0.28927	0.14127	-0.034
Mof_H 	H 	0.63353	0.31677	0.13587	0.029
Mof_C 	C 	0.56033	0.28017	0.17037	-0.038
Mof_H 	H 	0.60153	0.30077	0.18447	0.014
Mof_C 	C 	0.47933	0.23967	0.18007	-0.042
Mof_H 	H 	0.46533	0.23267	0.19947	0.09
Mof_C 	C 	0.22233	0.11117	0.09927	-0.084
Mof_H 	H 	0.23673	0.11837	0.07977	0.067
Mof_C 	C 	0.13933	0.06967	0.10787	-0.047
Mof_H 	H 	0.09773	0.04887	0.09387	0.046
Mof_C 	C 	0.12073	0.06037	0.13687	-0.04
Mof_H 	H 	0.06493	0.03247	0.14247	0.038
Mof_C 	C 	0.18373	0.09187	0.15717	-0.042
Mof_H 	H 	0.17013	0.08507	0.17667	0.09
Mof_C 	C 	0.31233	0.15617	0.20067	-0.012
Mof_C 	C 	0.29893	0.14947	0.22397	-0.008
Mof_C 	C 	0.28133	0.14067	0.25497	0.005
Mof_C 	C 	0.21993	0.10997	0.31167	-0.006
Mof_H 	H 	0.19393	0.09697	0.32967	0.004
Mof_C 	C 	0.5549	0.4451	0.6427	-0.037
Mof_H 	H 	0.5554	0.4446	0.6627	0.064
Mof_C 	C 	0.5179	0.4821	0.556	-0.009
Mof_C 	C 	0.4762	0.5238	0.547	0.013
Mof_C 	C 	0.4668	0.5332	0.5179	-0.02
Mof_C 	C 	0.499	0.501	0.4976	0.009
Mof_C 	C 	0.5406	0.4594	0.5065	-0.013
Mof_C 	C 	0.5495	0.4505	0.5357	0.017
Mof_C 	C 	0.5311	0.4689	0.587	0.007
Mof_C 	C 	0.5903	0.4097	0.5451	-0.09
Mof_H 	H 	0.5981	0.4019	0.5645	0.07
Mof_C 	C 	0.6226	0.3774	0.5254	-0.034
Mof_H 	H 	0.6501	0.3499	0.5308	0.029
Mof_C 	C 	0.6135	0.3865	0.4963	-0.038
Mof_H 	H 	0.6341	0.3659	0.4822	0.014
Mof_C 	C 	0.573	0.427	0.4866	-0.042
Mof_H 	H 	0.566	0.434	0.4672	0.09
Mof_C 	C 	0.4445	0.5555	0.5674	-0.084
Mof_H 	H 	0.4517	0.5483	0.5869	0.067
Mof_C 	C 	0.403	0.597	0.5588	-0.047
Mof_H 	H 	0.3822	0.6178	0.5728	0.046
Mof_C 	C 	0.3937	0.6063	0.5298	-0.04
Mof_H 	H 	0.3658	0.6342	0.5242	0.038
Mof_C 	C 	0.4252	0.5748	0.5095	-0.042
Mof_H 	H 	0.4184	0.5816	0.49	0.09
Mof_C 	C 	0.4895	0.5105	0.466	-0.012
Mof_C 	C 	0.4828	0.5172	0.4427	-0.008
Mof_C 	C 	0.474	0.526	0.4117	0.005
Mof_C 	C 	0.4433	0.5567	0.355	-0.006
Mof_H 	H 	0.4303	0.5697	0.337	0.004
Mof_C 	C 	0.22157	0.77843	0.97603	-0.037
Mof_H 	H 	0.22207	0.77793	0.99603	0.064
Mof_C 	C 	0.18457	0.81543	0.88933	-0.009
Mof_C 	C 	0.14287	0.85713	0.88033	0.013
Mof_C 	C 	0.13347	0.86653	0.85123	-0.02
Mof_C 	C 	0.16567	0.83433	0.83093	0.009
Mof_C 	C 	0.20727	0.79273	0.83983	-0.013
Mof_C 	C 	0.21617	0.78383	0.86903	0.017
Mof_C 	C 	0.19777	0.80223	0.92033	0.007
Mof_C 	C 	0.25697	0.74303	0.87843	-0.09
Mof_H 	H 	0.26477	0.73523	0.89783	0.07
Mof_C 	C 	0.28927	0.71073	0.85873	-0.034
Mof_H 	H 	0.31677	0.68323	0.86413	0.029
Mof_C 	C 	0.28017	0.71983	0.82963	-0.038
Mof_H 	H 	0.30077	0.69923	0.81553	0.014
Mof_C 	C 	0.23967	0.76033	0.81993	-0.042
Mof_H 	H 	0.23267	0.76733	0.80053	0.09
Mof_C 	C 	0.11117	0.88883	0.90073	-0.084
Mof_H 	H 	0.11837	0.88163	0.92023	0.067
Mof_C 	C 	0.06967	0.93033	0.89213	-0.047
Mof_H 	H 	0.04887	0.95113	0.90613	0.046
Mof_C 	C 	0.06037	0.93963	0.86313	-0.04
Mof_H 	H 	0.03247	0.96753	0.85753	0.038
Mof_C 	C 	0.09187	0.90813	0.84283	-0.042
Mof_H 	H 	0.08507	0.91493	0.82333	0.09
Mof_C 	C 	0.15617	0.84383	0.79933	-0.012
Mof_C 	C 	0.14947	0.85053	0.77603	-0.008
Mof_C 	C 	0.14067	0.85933	0.74503	0.005
Mof_C 	C 	0.10997	0.89003	0.68833	-0.006
Mof_H 	H 	0.09697	0.90303	0.67033	0.004
Mof_C 	C 	0.88823	0.11177	0.30937	-0.037
Mof_H 	H 	0.88873	0.11127	0.32937	0.064
Mof_C 	C 	0.85123	0.14877	0.22267	-0.009
Mof_C 	C 	0.80953	0.19047	0.21367	0.013
Mof_C 	C 	0.80013	0.19987	0.18457	-0.02
Mof_C 	C 	0.83233	0.16767	0.16427	0.009
Mof_C 	C 	0.87393	0.12607	0.17317	-0.013
Mof_C 	C 	0.88283	0.11717	0.20237	0.016
Mof_C 	C 	0.86443	0.13557	0.25367	0.007
Mof_C 	C 	0.92363	0.07637	0.21177	-0.09
Mof_H 	H 	0.93143	0.06857	0.23117	0.07
Mof_C 	C 	0.95593	0.04407	0.19207	-0.035
Mof_H 	H 	0.98343	0.01657	0.19747	0.029
Mof_C 	C 	0.94683	0.05317	0.16297	-0.038
Mof_H 	H 	0.96743	0.03257	0.14887	0.014
Mof_C 	C 	0.90633	0.09367	0.15327	-0.042
Mof_H 	H 	0.89933	0.10067	0.13387	0.09
Mof_C 	C 	0.77783	0.22217	0.23407	-0.084
Mof_H 	H 	0.78503	0.21497	0.25357	0.067
Mof_C 	C 	0.73633	0.26367	0.22547	-0.047
Mof_H 	H 	0.71553	0.28447	0.23947	0.046
Mof_C 	C 	0.72703	0.27297	0.19647	-0.04
Mof_H 	H 	0.69913	0.30087	0.19087	0.038
Mof_C 	C 	0.75853	0.24147	0.17617	-0.042
Mof_H 	H 	0.75173	0.24827	0.15667	0.09
Mof_C 	C 	0.82283	0.17717	0.13267	-0.012
Mof_C 	C 	0.81613	0.18387	0.10937	-0.008
Mof_C 	C 	0.80733	0.19267	0.07837	0.005
Mof_C 	C 	0.77663	0.22337	0.02167	-0.006
Mof_H 	H 	0.76363	0.23637	0.00367	0.004
Mof_C 	C 	0.8902	0.4451	0.6427	-0.037
Mof_H 	H 	0.8892	0.4446	0.6627	0.064
Mof_C 	C 	0.9642	0.4821	0.556	-0.009
Mof_C 	C 	0.0476	0.5238	0.547	0.013
Mof_C 	C 	0.0664	0.5332	0.5179	-0.02
Mof_C 	C 	0.002	0.501	0.4976	0.009
Mof_C 	C 	0.9188	0.4594	0.5065	-0.013
Mof_C 	C 	0.901	0.4505	0.5357	0.017
Mof_C 	C 	0.9378	0.4689	0.587	0.007
Mof_C 	C 	0.8194	0.4097	0.5451	-0.091
Mof_H 	H 	0.8038	0.4019	0.5645	0.07
Mof_C 	C 	0.7548	0.3774	0.5254	-0.034
Mof_H 	H 	0.6998	0.3499	0.5308	0.029
Mof_C 	C 	0.773	0.3865	0.4963	-0.038
Mof_H 	H 	0.7318	0.3659	0.4822	0.014
Mof_C 	C 	0.854	0.427	0.4866	-0.042
Mof_H 	H 	0.868	0.434	0.4672	0.09
Mof_C 	C 	0.111	0.5555	0.5674	-0.084
Mof_H 	H 	0.0966	0.5483	0.5869	0.067
Mof_C 	C 	0.194	0.597	0.5588	-0.047
Mof_H 	H 	0.2356	0.6178	0.5728	0.046
Mof_C 	C 	0.2126	0.6063	0.5298	-0.04
Mof_H 	H 	0.2684	0.6342	0.5242	0.038
Mof_C 	C 	0.1496	0.5748	0.5095	-0.042
Mof_H 	H 	0.1632	0.5816	0.49	0.09
Mof_C 	C 	0.021	0.5105	0.466	-0.012
Mof_C 	C 	0.0344	0.5172	0.4427	-0.008
Mof_C 	C 	0.052	0.526	0.4117	0.005
Mof_C 	C 	0.1134	0.5567	0.355	-0.006
Mof_H 	H 	0.1394	0.5697	0.337	0.004
Mof_C 	C 	0.55687	0.77843	0.97603	-0.037
Mof_H 	H 	0.55587	0.77793	0.99603	0.064
Mof_C 	C 	0.63087	0.81543	0.88933	-0.009
Mof_C 	C 	0.71427	0.85713	0.88033	0.013
Mof_C 	C 	0.73307	0.86653	0.85123	-0.02
Mof_C 	C 	0.66867	0.83433	0.83093	0.009
Mof_C 	C 	0.58547	0.79273	0.83983	-0.013
Mof_C 	C 	0.56767	0.78383	0.86903	0.017
Mof_C 	C 	0.60447	0.80223	0.92033	0.007
Mof_C 	C 	0.48607	0.74303	0.87843	-0.091
Mof_H 	H 	0.47047	0.73523	0.89783	0.07
Mof_C 	C 	0.42147	0.71073	0.85873	-0.034
Mof_H 	H 	0.36647	0.68323	0.86413	0.029
Mof_C 	C 	0.43967	0.71983	0.82963	-0.038
Mof_H 	H 	0.39847	0.69923	0.81553	0.014
Mof_C 	C 	0.52067	0.76033	0.81993	-0.042
Mof_H 	H 	0.53467	0.76733	0.80053	0.09
Mof_C 	C 	0.77767	0.88883	0.90073	-0.084
Mof_H 	H 	0.76327	0.88163	0.92023	0.067
Mof_C 	C 	0.86067	0.93033	0.89213	-0.047
Mof_H 	H 	0.90227	0.95113	0.90613	0.046
Mof_C 	C 	0.87927	0.93963	0.86313	-0.04
Mof_H 	H 	0.93507	0.96753	0.85753	0.038
Mof_C 	C 	0.81627	0.90813	0.84283	-0.042
Mof_H 	H 	0.82987	0.91493	0.82333	0.09
Mof_C 	C 	0.68767	0.84383	0.79933	-0.012
Mof_C 	C 	0.70107	0.85053	0.77603	-0.008
Mof_C 	C 	0.71867	0.85933	0.74503	0.005
Mof_C 	C 	0.78007	0.89003	0.68833	-0.006
Mof_H 	H 	0.80607	0.90303	0.67033	0.004
Mof_C 	C 	0.22353	0.11177	0.30937	-0.037
Mof_H 	H 	0.22253	0.11127	0.32937	0.064
Mof_C 	C 	0.29753	0.14877	0.22267	-0.009
Mof_C 	C 	0.38093	0.19047	0.21367	0.013
Mof_C 	C 	0.39973	0.19987	0.18457	-0.02
Mof_C 	C 	0.33533	0.16767	0.16427	0.009
Mof_C 	C 	0.25213	0.12607	0.17317	-0.013
Mof_C 	C 	0.23433	0.11717	0.20237	0.017
Mof_C 	C 	0.27113	0.13557	0.25367	0.007
Mof_C 	C 	0.15273	0.07637	0.21177	-0.091
Mof_H 	H 	0.13713	0.06857	0.23117	0.07
Mof_C 	C 	0.08813	0.04407	0.19207	-0.034
Mof_H 	H 	0.03313	0.01657	0.19747	0.029
Mof_C 	C 	0.10633	0.05317	0.16297	-0.038
Mof_H 	H 	0.06513	0.03257	0.14887	0.014
Mof_C 	C 	0.18733	0.09367	0.15327	-0.042
Mof_H 	H 	0.20133	0.10067	0.13387	0.09
Mof_C 	C 	0.44433	0.22217	0.23407	-0.084
Mof_H 	H 	0.42993	0.21497	0.25357	0.067
Mof_C 	C 	0.52733	0.26367	0.22547	-0.047
Mof_H 	H 	0.56893	0.28447	0.23947	0.046
Mof_C 	C 	0.54593	0.27297	0.19647	-0.04
Mof_H 	H 	0.60173	0.30087	0.19087	0.038
Mof_C 	C 	0.48293	0.24147	0.17617	-0.042
Mof_H 	H 	0.49653	0.24827	0.15667	0.09
Mof_C 	C 	0.35433	0.17717	0.13267	-0.012
Mof_C 	C 	0.36773	0.18387	0.10937	-0.008
Mof_C 	C 	0.38533	0.19267	0.07837	0.005
Mof_C 	C 	0.44673	0.22337	0.02167	-0.006
Mof_H 	H 	0.47273	0.23637	0.00367	0.004
Mof_C 	C 	0.5549	0.1098	0.6427	-0.037
Mof_H 	H 	0.5554	0.1108	0.6627	0.064
Mof_C 	C 	0.5179	0.0358	0.556	-0.009
Mof_C 	C 	0.4762	0.9524	0.547	0.013
Mof_C 	C 	0.4668	0.9336	0.5179	-0.02
Mof_C 	C 	0.499	0.998	0.4976	0.009
Mof_C 	C 	0.5406	0.0812	0.5065	-0.013
Mof_C 	C 	0.5495	0.099	0.5357	0.017
Mof_C 	C 	0.5311	0.0622	0.587	0.007
Mof_C 	C 	0.5903	0.1806	0.5451	-0.091
Mof_H 	H 	0.5981	0.1962	0.5645	0.07
Mof_C 	C 	0.6226	0.2452	0.5254	-0.034
Mof_H 	H 	0.6501	0.3002	0.5308	0.029
Mof_C 	C 	0.6135	0.227	0.4963	-0.038
Mof_H 	H 	0.6341	0.2682	0.4822	0.014
Mof_C 	C 	0.573	0.146	0.4866	-0.042
Mof_H 	H 	0.566	0.132	0.4672	0.09
Mof_C 	C 	0.4445	0.889	0.5674	-0.084
Mof_H 	H 	0.4517	0.9034	0.5869	0.067
Mof_C 	C 	0.403	0.806	0.5588	-0.047
Mof_H 	H 	0.3822	0.7644	0.5728	0.046
Mof_C 	C 	0.3937	0.7874	0.5298	-0.04
Mof_H 	H 	0.3658	0.7316	0.5242	0.038
Mof_C 	C 	0.4252	0.8504	0.5095	-0.042
Mof_H 	H 	0.4184	0.8368	0.49	0.09
Mof_C 	C 	0.4895	0.979	0.466	-0.012
Mof_C 	C 	0.4828	0.9656	0.4427	-0.008
Mof_C 	C 	0.474	0.948	0.4117	0.005
Mof_C 	C 	0.4433	0.8866	0.355	-0.006
Mof_H 	H 	0.4303	0.8606	0.337	0.004
Mof_C 	C 	0.22157	0.44313	0.97603	-0.037
Mof_H 	H 	0.22207	0.44413	0.99603	0.064
Mof_C 	C 	0.18457	0.36913	0.88933	-0.009
Mof_C 	C 	0.14287	0.28573	0.88033	0.013
Mof_C 	C 	0.13347	0.26693	0.85123	-0.02
Mof_C 	C 	0.16567	0.33133	0.83093	0.009
Mof_C 	C 	0.20727	0.41453	0.83983	-0.013
Mof_C 	C 	0.21617	0.43233	0.86903	0.017
Mof_C 	C 	0.19777	0.39553	0.92033	0.007
Mof_C 	C 	0.25697	0.51393	0.87843	-0.091
Mof_H 	H 	0.26477	0.52953	0.89783	0.07
Mof_C 	C 	0.28927	0.57853	0.85873	-0.034
Mof_H 	H 	0.31677	0.63353	0.86413	0.029
Mof_C 	C 	0.28017	0.56033	0.82963	-0.038
Mof_H 	H 	0.30077	0.60153	0.81553	0.014
Mof_C 	C 	0.23967	0.47933	0.81993	-0.042
Mof_H 	H 	0.23267	0.46533	0.80053	0.09
Mof_C 	C 	0.11117	0.22233	0.90073	-0.084
Mof_H 	H 	0.11837	0.23673	0.92023	0.067
Mof_C 	C 	0.06967	0.13933	0.89213	-0.047
Mof_H 	H 	0.04887	0.09773	0.90613	0.046
Mof_C 	C 	0.06037	0.12073	0.86313	-0.04
Mof_H 	H 	0.03247	0.06493	0.85753	0.038
Mof_C 	C 	0.09187	0.18373	0.84283	-0.042
Mof_H 	H 	0.08507	0.17013	0.82333	0.09
Mof_C 	C 	0.15617	0.31233	0.79933	-0.012
Mof_C 	C 	0.14947	0.29893	0.77603	-0.008
Mof_C 	C 	0.14067	0.28133	0.74503	0.005
Mof_C 	C 	0.10997	0.21993	0.68833	-0.006
Mof_H 	H 	0.09697	0.19393	0.67033	0.004
Mof_C 	C 	0.88823	0.77647	0.30937	-0.037
Mof_H 	H 	0.88873	0.77747	0.32937	0.064
Mof_C 	C 	0.85123	0.70247	0.22267	-0.009
Mof_C 	C 	0.80953	0.61907	0.21367	0.013
Mof_C 	C 	0.80013	0.60027	0.18457	-0.02
Mof_C 	C 	0.83233	0.66467	0.16427	0.009
Mof_C 	C 	0.87393	0.74787	0.17317	-0.013
Mof_C 	C 	0.88283	0.76567	0.20237	0.017
Mof_C 	C 	0.86443	0.72887	0.25367	0.007
Mof_C 	C 	0.92363	0.84727	0.21177	-0.091
Mof_H 	H 	0.93143	0.86287	0.23117	0.07
Mof_C 	C 	0.95593	0.91187	0.19207	-0.034
Mof_H 	H 	0.98343	0.96687	0.19747	0.029
Mof_C 	C 	0.94683	0.89367	0.16297	-0.038
Mof_H 	H 	0.96743	0.93487	0.14887	0.014
Mof_C 	C 	0.90633	0.81267	0.15327	-0.042
Mof_H 	H 	0.89933	0.79867	0.13387	0.09
Mof_C 	C 	0.77783	0.55567	0.23407	-0.084
Mof_H 	H 	0.78503	0.57007	0.25357	0.067
Mof_C 	C 	0.73633	0.47267	0.22547	-0.047
Mof_H 	H 	0.71553	0.43107	0.23947	0.046
Mof_C 	C 	0.72703	0.45407	0.19647	-0.04
Mof_H 	H 	0.69913	0.39827	0.19087	0.038
Mof_C 	C 	0.75853	0.51707	0.17617	-0.042
Mof_H 	H 	0.75173	0.50347	0.15667	0.09
Mof_C 	C 	0.82283	0.64567	0.13267	-0.012
Mof_C 	C 	0.81613	0.63227	0.10937	-0.008
Mof_C 	C 	0.80733	0.61467	0.07837	0.005
Mof_C 	C 	0.77663	0.55327	0.02167	-0.006
Mof_H 	H 	0.76363	0.52727	0.00367	0.004
_end
