data_functionalizedCrystal
_audit_creation_method	'EQeq! by Chris Wilmer'
_symmetry_space_group_name_H-M	'P1'
_symmetry_Int_Tables_number	1
_symmetry_cell_setting	triclinic
loop_
_symmetry_equiv_pos_as_xyz
  x,y,z
_cell_length_a	14.748
_cell_length_b	14.7478
_cell_length_c	14.7478
_cell_angle_alpha	109.471
_cell_angle_beta	109.471
_cell_angle_gamma	109.471
loop_
_atom_site_label
_atom_site_type_symbol
_atom_site_fract_x
_atom_site_fract_y
_atom_site_fract_z
_atom_site_charge
Mof_Zn	Zn	0.75	0.5	0.25	1.175
Mof_Zn	Zn	0.25	0.5	0.75	1.174
Mof_Zn	Zn	0.5	0.75	0.25	1.174
Mof_Zn	Zn	0.75	0.25	0.5	1.174
Mof_Zn	Zn	0.5	0.25	0.75	1.174
Mof_Zn	Zn	0.25	0.75	0.5	1.174
Mof_C 	C 	0.61505	0.2459	0.61505	0.125
Mof_C 	C 	1.03591e-16	0.6794	0.4916	-0.231
Mof_C 	C 	0.78836	0.31899	0.73235	-0.008
Mof_C 	C 	0.53063	0.21164	0.94399	-0.018
Mof_C 	C 	0.63085	0.38495	-0	0.131
Mof_C 	C 	0.1878	0.5084	0.5084	-0.233
Mof_C 	C 	0.5084	0.1878	0.5084	-0.234
Mof_C 	C 	0.7541	0.36915	0.36915	0.126
Mof_C 	C 	0.2459	0.61505	0.61505	0.124
Mof_C 	C 	0.05601	0.58664	0.26765	-0.003
Mof_C 	C 	0.73235	0.31899	0.78836	-0.008
Mof_C 	C 	0.78836	0.73235	0.31899	-0.008
Mof_C 	C 	0.6794	0.4916	-0	-0.228
Mof_C 	C 	0.26765	0.58664	0.05601	0.003
Mof_C 	C 	0.31899	0.78836	0.73235	-0.009
Mof_C 	C 	0.41336	0.46937	0.68101	-0.008
Mof_C 	C 	0.36915	0.36915	0.7541	0.125
Mof_C 	C 	0.6794	0	0.4916	-0.229
Mof_C 	C 	0.31899	0.73235	0.78836	-0.009
Mof_C 	C 	0.38495	-9.20812e-17	0.63085	0.127
Mof_C 	C 	0.5084	0.5084	0.1878	-0.234
Mof_C 	C 	0.68101	0.46937	0.41336	-0.008
Mof_C 	C 	0.36915	0.7541	0.36915	0.126
Mof_C 	C 	0.4916	0	0.6794	-0.23
Mof_C 	C 	0.3206	0.8122	0.3206	-0.235
Mof_C 	C 	0.38495	0.63085	-0	0.128
Mof_C 	C 	0.58664	0.05601	0.26765	-0.003
Mof_C 	C 	3.45304e-17	0.63085	0.38495	0.128
Mof_C 	C 	0.4916	0.6794	-0	-0.216
Mof_C 	C 	0.61505	0.61505	0.2459	0.125
Mof_C 	C 	0.58664	0.26765	0.05601	0.002
Mof_C 	C 	0.3206	0.3206	0.8122	-0.233
Mof_C 	C 	-0	0.38495	0.63085	0.127
Mof_C 	C 	0.73235	0.78836	0.31899	-0.008
Mof_C 	C 	0.21164	0.53063	0.94399	-0.019
Mof_C 	C 	0.63085	-2.30203e-17	0.38495	0.128
Mof_C 	C 	1.38122e-16	0.4916	0.6794	-0.23
Mof_C 	C 	0.68101	0.41336	0.46937	-0.008
Mof_C 	C 	0.94399	0.21164	0.53063	-0.013
Mof_C 	C 	0.46937	0.68101	0.41336	-0.009
Mof_C 	C 	0.21164	0.94399	0.53063	-0.014
Mof_C 	C 	0.26765	0.05601	0.58664	-0.003
Mof_C 	C 	0.46937	0.41336	0.68101	-0.008
Mof_C 	C 	0.53063	0.94399	0.21164	-0.012
Mof_C 	C 	0.94399	0.53063	0.21164	-0.013
Mof_C 	C 	0.8122	0.3206	0.3206	-0.233
Mof_C 	C 	0.05601	0.26765	0.58664	-0.003
Mof_C 	C 	0.41336	0.68101	0.46937	-0.008
Mof_N 	N 	0.37805	0.6511	0.09251	-0.291
Mof_N 	N 	0.62195	0.71446	0.27305	-0.291
Mof_N 	N 	0.62195	0.27305	0.71446	-0.291
Mof_N 	N 	0.71446	0.27305	0.62195	-0.291
Mof_N 	N 	0.55859	0.90749	0.28554	-0.291
Mof_N 	N 	0.44141	0.72695	0.3489	-0.29
Mof_N 	N 	0.71446	0.62195	0.27305	-0.291
Mof_N 	N 	0.55859	0.28554	0.90749	-0.293
Mof_N 	N 	0.27305	0.71446	0.62195	-0.291
Mof_N 	N 	0.37805	0.09251	0.6511	-0.291
Mof_N 	N 	0.28554	0.55859	0.90749	-0.292
Mof_N 	N 	0.6511	0.37805	0.09251	-0.292
Mof_N 	N 	0.90749	0.55859	0.28554	-0.291
Mof_N 	N 	0.27305	0.62195	0.71446	-0.291
Mof_N 	N 	0.72695	0.44141	0.3489	-0.29
Mof_N 	N 	0.09251	0.6511	0.37805	-0.292
Mof_N 	N 	0.09251	0.37805	0.6511	-0.291
Mof_N 	N 	0.72695	0.3489	0.44141	-0.29
Mof_N 	N 	0.44141	0.3489	0.72695	-0.29
Mof_N 	N 	0.3489	0.72695	0.44141	-0.291
Mof_N 	N 	0.6511	0.09251	0.37805	-0.291
Mof_N 	N 	0.28554	0.90749	0.55859	-0.292
Mof_N 	N 	0.90749	0.28554	0.55859	-0.291
Mof_N 	N 	0.3489	0.44141	0.72695	-0.291
Mof_H 	H 	0.91119	0.65418	0.47331	0.026
Mof_H 	H 	0.05209	0.77379	0.5367	0.042
Mof_H 	H 	0.03673	0.64724	0.5461	0.046
Mof_H 	H 	0.88193	0.35384	0.77858	-0.001
Mof_H 	H 	0.47191	0.11807	0.89666	0.002
Mof_H 	H 	0.21782	0.45018	0.52366	0.036
Mof_H 	H 	0.20688	0.52586	0.44524	0.033
Mof_H 	H 	0.0944	0.46785	0.47499	0.049
Mof_H 	H 	0.10335	0.57525	0.22142	-0
Mof_H 	H 	0.77858	0.35384	0.88193	-0.002
Mof_H 	H 	0.88193	0.77858	0.35384	-0
Mof_H 	H 	0.64716	0.47407	0.91074	0.023
Mof_H 	H 	0.77379	0.53247	0.04468	0.044
Mof_H 	H 	0.65427	0.54958	0.04457	0.046
Mof_H 	H 	0.22142	0.57526	0.10335	0
Mof_H 	H 	0.35384	0.88193	0.77858	-0.001
Mof_H 	H 	0.42474	0.52809	0.64616	0
Mof_H 	H 	0.7651	0.07702	0.55221	0.033
Mof_H 	H 	0.68707	0.92243	0.47501	0.031
Mof_H 	H 	0.62304	0.00055	0.52889	0.049
Mof_H 	H 	0.35384	0.77858	0.88193	-0.002
Mof_H 	H 	0.52687	0.4415	0.19605	0.031
Mof_H 	H 	0.46158	0.48171	0.09618	0.05
Mof_H 	H 	0.45544	0.52068	0.22687	0.04
Mof_H 	H 	0.64616	0.52809	0.42474	0.001
Mof_H 	H 	0.53842	0.02013	0.63461	0.047
Mof_H 	H 	0.47313	0.91463	0.66918	0.027
Mof_H 	H 	0.54456	0.06524	0.77143	0.038
Mof_H 	H 	0.22621	0.75868	0.2709	0.045
Mof_H 	H 	0.35284	0.82691	0.26358	0.029
Mof_H 	H 	0.34573	0.89531	0.39031	0.045
Mof_H 	H 	0.57526	0.10335	0.22142	0.001
Mof_H 	H 	0.477	0.6972	0.92845	0.029
Mof_H 	H 	0.52333	0.61802	0.98956	0.04
Mof_H 	H 	0.55578	0.76	0.08199	0.029
Mof_H 	H 	0.57526	0.22142	0.10335	0.001
Mof_H 	H 	0.31293	0.23536	0.78794	0.034
Mof_H 	H 	0.2349	0.31192	0.7871	0.034
Mof_H 	H 	0.37696	0.37751	0.90585	0.046
Mof_H 	H 	0.77858	0.88193	0.35384	-0
Mof_H 	H 	0.11807	0.47191	0.89666	0.002
Mof_H 	H 	0.91369	0.47302	0.66616	0.026
Mof_H 	H 	0.02346	0.54	0.63692	0.047
Mof_H 	H 	0.06285	0.54309	0.77214	0.039
Mof_H 	H 	0.64616	0.42474	0.52809	0
Mof_H 	H 	0.89665	0.11807	0.47191	0.002
Mof_H 	H 	0.52809	0.64616	0.42475	0
Mof_H 	H 	0.11807	0.89666	0.47191	0.001
Mof_H 	H 	0.22142	0.10335	0.57526	0.001
Mof_H 	H 	0.52809	0.42475	0.64616	0.001
Mof_H 	H 	0.47191	0.89666	0.11807	0.003
Mof_H 	H 	0.89665	0.47191	0.11807	0.001
Mof_H 	H 	0.79312	0.31898	0.23835	0.033
Mof_H 	H 	0.78218	0.23237	0.30585	0.036
Mof_H 	H 	0.9056	0.37344	0.38058	0.048
Mof_H 	H 	0.10335	0.22142	0.57525	0.001
Mof_H 	H 	0.42474	0.64616	0.52809	0.001
Mof_H 	H 	0.47667	0.09469	0.46623	0.05
Mof_H 	H 	0.523	0.2202	0.45145	0.037
Mof_H 	H 	0.44422	0.20422	0.52621	0.032
_end
