data_functionalizedCrystal
_audit_creation_method	'EQeq! by Chris Wilmer'
_symmetry_space_group_name_H-M	'P1'
_symmetry_Int_Tables_number	1
_symmetry_cell_setting	triclinic
loop_
_symmetry_equiv_pos_as_xyz
  x,y,z
_cell_length_a	16.6179
_cell_length_b	16.6179
_cell_length_c	22.266
_cell_angle_alpha	90
_cell_angle_beta	90
_cell_angle_gamma	90
loop_
_atom_site_label
_atom_site_type_symbol
_atom_site_fract_x
_atom_site_fract_y
_atom_site_fract_z
_atom_site_charge
Mof_C 	C 	0.9707	0.9381	0.6866	-1.061
Mof_H 	H 	0.9461	0.8935	0.6671	0.742
Mof_C 	C 	0.9735	0.9348	0.7486	-0.505
Mof_H 	H 	0.9568	0.8865	0.7677	-0.047
Mof_C 	C 	0.983	0.9307	0.8831	-4.56
Mof_C 	C 	0.046	0.06	0.8779	0.801
Mof_C 	C 	0.946	0.8563	0.8663	12.069
Mof_H 	H 	0.8991	0.8672	0.8407	-8.41
Mof_H 	H 	0.9286	0.8275	0.9024	-1.219
Mof_H 	H 	0.9847	0.8232	0.8441	-0.609
Mof_C 	C 	0.082	0.133	0.855	-1.091
Mof_H 	H 	0.1003	0.1235	0.8137	-0.773
Mof_H 	H 	0.1274	0.1481	0.8802	0.127
Mof_H 	H 	0.0416	0.1759	0.8552	-3.046
Mof_C 	C 	0.0293	0.0619	0.6866	0.962
Mof_H 	H 	0.0539	0.1065	0.6671	-0.556
Mof_C 	C 	0.0265	0.0652	0.7486	2.462
Mof_H 	H 	0.0432	0.1135	0.7677	-1.04
Mof_C 	C 	0.017	0.0693	0.8831	0.428
Mof_C 	C 	0.954	0.94	0.8779	-0.101
Mof_C 	C 	0.054	0.1437	0.8663	-2.814
Mof_H 	H 	0.1009	0.1328	0.8407	2.133
Mof_H 	H 	0.0714	0.1725	0.9024	2.299
Mof_H 	H 	0.0153	0.1768	0.8441	6.074
Mof_C 	C 	0.918	0.867	0.855	6.485
Mof_H 	H 	0.8997	0.8765	0.8137	2.951
Mof_H 	H 	0.8726	0.8519	0.8802	-0.263
Mof_H 	H 	0.9584	0.8241	0.8552	-8.526
Mof_C 	C 	0.0619	0.9707	0.6866	-4.681
Mof_H 	H 	0.1065	0.9461	0.6671	1.758
Mof_C 	C 	0.0652	0.9735	0.7486	-4.255
Mof_H 	H 	0.1135	0.9568	0.7677	1.629
Mof_C 	C 	0.0693	0.983	0.8831	-5.013
Mof_C 	C 	0.94	0.046	0.8779	0.972
Mof_C 	C 	0.1437	0.946	0.8663	7.871
Mof_H 	H 	0.1328	0.8991	0.8407	-3.386
Mof_H 	H 	0.1725	0.9286	0.9024	0.31
Mof_H 	H 	0.1768	0.9847	0.8441	-2.876
Mof_C 	C 	0.867	0.082	0.855	1.51
Mof_H 	H 	0.8765	0.1003	0.8137	2.752
Mof_H 	H 	0.8519	0.1274	0.8802	6.548
Mof_H 	H 	0.8241	0.0416	0.8552	-8.465
Mof_C 	C 	0.9381	0.0293	0.6866	4.5
Mof_H 	H 	0.8935	0.0539	0.6671	-1.569
Mof_C 	C 	0.9348	0.0265	0.7486	5.966
Mof_H 	H 	0.8865	0.0432	0.7677	-2.657
Mof_C 	C 	0.9307	0.017	0.8831	1.042
Mof_C 	C 	0.06	0.954	0.8779	-0.26
Mof_C 	C 	0.8563	0.054	0.8663	1.223
Mof_H 	H 	0.8672	0.1009	0.8407	-2.778
Mof_H 	H 	0.8275	0.0714	0.9024	0.827
Mof_H 	H 	0.8232	0.0153	0.8441	8.53
Mof_C 	C 	0.133	0.918	0.855	3.816
Mof_H 	H 	0.1235	0.8997	0.8137	-0.625
Mof_H 	H 	0.1481	0.8726	0.8802	-6.68
Mof_H 	H 	0.1759	0.9584	0.8552	-3.164
Mof_C 	C 	0.0293	0.9381	0.3134	4.422
Mof_H 	H 	0.0539	0.8935	0.3329	-1.49
Mof_C 	C 	0.0265	0.9348	0.2514	5.942
Mof_H 	H 	0.0432	0.8865	0.2323	-2.648
Mof_C 	C 	0.017	0.9307	0.1169	0.595
Mof_C 	C 	0.954	0.06	0.1221	-0.049
Mof_C 	C 	0.054	0.8563	0.1337	2.16
Mof_H 	H 	0.1009	0.8672	0.1593	-3.398
Mof_H 	H 	0.0714	0.8275	0.0976	1.297
Mof_H 	H 	0.0153	0.8232	0.1559	8.955
Mof_C 	C 	0.918	0.133	0.145	4.279
Mof_H 	H 	0.8997	0.1235	0.1863	-0.329
Mof_H 	H 	0.8726	0.1481	0.1198	-6.388
Mof_H 	H 	0.9584	0.1759	0.1448	-4.28
Mof_C 	C 	0.9707	0.0619	0.3134	-4.65
Mof_H 	H 	0.9461	0.1065	0.3329	1.798
Mof_C 	C 	0.9735	0.0652	0.2514	-4.136
Mof_H 	H 	0.9568	0.1135	0.2323	1.572
Mof_C 	C 	0.983	0.0693	0.1169	-5.313
Mof_C 	C 	0.046	0.94	0.1221	1.154
Mof_C 	C 	0.946	0.1437	0.1337	8.641
Mof_H 	H 	0.8991	0.1328	0.1593	-3.996
Mof_H 	H 	0.9286	0.1725	0.0976	0.783
Mof_H 	H 	0.9847	0.1768	0.1559	-2.182
Mof_C 	C 	0.082	0.867	0.145	2.028
Mof_H 	H 	0.1003	0.8765	0.1863	2.966
Mof_H 	H 	0.1274	0.8519	0.1198	6.501
Mof_H 	H 	0.0416	0.8241	0.1448	-9.464
Mof_C 	C 	0.9381	0.9707	0.3134	-1.072
Mof_H 	H 	0.8935	0.9461	0.3329	0.792
Mof_C 	C 	0.9348	0.9735	0.2514	-0.44
Mof_H 	H 	0.8865	0.9568	0.2323	-0.074
Mof_C 	C 	0.9307	0.983	0.1169	-4.874
Mof_C 	C 	0.06	0.046	0.1221	0.989
Mof_C 	C 	0.8563	0.946	0.1337	12.741
Mof_H 	H 	0.8672	0.8991	0.1593	-8.895
Mof_H 	H 	0.8275	0.9286	0.0976	-0.711
Mof_H 	H 	0.8232	0.9847	0.1559	0.028
Mof_C 	C 	0.133	0.082	0.145	-0.507
Mof_H 	H 	0.1235	0.1003	0.1863	-0.473
Mof_H 	H 	0.1481	0.1274	0.1198	0.246
Mof_H 	H 	0.1759	0.0416	0.1448	-4.176
Mof_C 	C 	0.0619	0.0293	0.3134	0.923
Mof_H 	H 	0.1065	0.0539	0.3329	-0.489
Mof_C 	C 	0.0652	0.0265	0.2514	2.492
Mof_H 	H 	0.1135	0.0432	0.2323	-1.06
Mof_C 	C 	0.0693	0.017	0.1169	-0.005
Mof_C 	C 	0.94	0.954	0.1221	0.104
Mof_C 	C 	0.1437	0.054	0.1337	-1.779
Mof_H 	H 	0.1328	0.1009	0.1593	1.388
Mof_H 	H 	0.1725	0.0714	0.0976	2.734
Mof_H 	H 	0.1768	0.0153	0.1559	6.557
Mof_C 	C 	0.867	0.918	0.145	6.881
Mof_H 	H 	0.8765	0.8997	0.1863	3.16
Mof_H 	H 	0.8519	0.8726	0.1198	-0.137
Mof_H 	H 	0.8241	0.9584	0.1448	-9.512
Mof_C 	C 	0.0293	0.0619	0.3134	0.923
Mof_H 	H 	0.0539	0.1065	0.3329	-0.489
Mof_C 	C 	0.0265	0.0652	0.2514	2.492
Mof_H 	H 	0.0432	0.1135	0.2323	-1.06
Mof_C 	C 	0.017	0.0693	0.1169	-0.005
Mof_C 	C 	0.954	0.94	0.1221	0.104
Mof_C 	C 	0.054	0.1437	0.1337	-1.779
Mof_H 	H 	0.1009	0.1328	0.1593	1.388
Mof_H 	H 	0.0714	0.1725	0.0976	2.734
Mof_H 	H 	0.0153	0.1768	0.1559	6.557
Mof_C 	C 	0.918	0.867	0.145	6.881
Mof_H 	H 	0.8997	0.8765	0.1863	3.16
Mof_H 	H 	0.8726	0.8519	0.1198	-0.137
Mof_H 	H 	0.9584	0.8241	0.1448	-9.512
Mof_C 	C 	0.9707	0.9381	0.3134	-1.072
Mof_H 	H 	0.9461	0.8935	0.3329	0.792
Mof_C 	C 	0.9735	0.9348	0.2514	-0.44
Mof_H 	H 	0.9568	0.8865	0.2323	-0.074
Mof_C 	C 	0.983	0.9307	0.1169	-4.874
Mof_C 	C 	0.046	0.06	0.1221	0.989
Mof_C 	C 	0.946	0.8563	0.1337	12.741
Mof_H 	H 	0.8991	0.8672	0.1593	-8.895
Mof_H 	H 	0.9286	0.8275	0.0976	-0.711
Mof_H 	H 	0.9847	0.8232	0.1559	0.028
Mof_C 	C 	0.082	0.133	0.145	-0.507
Mof_H 	H 	0.1003	0.1235	0.1863	-0.473
Mof_H 	H 	0.1274	0.1481	0.1198	0.246
Mof_H 	H 	0.0416	0.1759	0.1448	-4.176
Mof_C 	C 	0.9381	0.0293	0.3134	4.422
Mof_H 	H 	0.8935	0.0539	0.3329	-1.49
Mof_C 	C 	0.9348	0.0265	0.2514	5.942
Mof_H 	H 	0.8865	0.0432	0.2323	-2.648
Mof_C 	C 	0.9307	0.017	0.1169	0.595
Mof_C 	C 	0.06	0.954	0.1221	-0.049
Mof_C 	C 	0.8563	0.054	0.1337	2.16
Mof_H 	H 	0.8672	0.1009	0.1593	-3.398
Mof_H 	H 	0.8275	0.0714	0.0976	1.297
Mof_H 	H 	0.8232	0.0153	0.1559	8.955
Mof_C 	C 	0.133	0.918	0.145	4.279
Mof_H 	H 	0.1235	0.8997	0.1863	-0.329
Mof_H 	H 	0.1481	0.8726	0.1198	-6.388
Mof_H 	H 	0.1759	0.9584	0.1448	-4.28
Mof_C 	C 	0.0619	0.9707	0.3134	-4.65
Mof_H 	H 	0.1065	0.9461	0.3329	1.798
Mof_C 	C 	0.0652	0.9735	0.2514	-4.136
Mof_H 	H 	0.1135	0.9568	0.2323	1.572
Mof_C 	C 	0.0693	0.983	0.1169	-5.313
Mof_C 	C 	0.94	0.046	0.1221	1.154
Mof_C 	C 	0.1437	0.946	0.1337	8.641
Mof_H 	H 	0.1328	0.8991	0.1593	-3.996
Mof_H 	H 	0.1725	0.9286	0.0976	0.783
Mof_H 	H 	0.1768	0.9847	0.1559	-2.182
Mof_C 	C 	0.867	0.082	0.145	2.028
Mof_H 	H 	0.8765	0.1003	0.1863	2.966
Mof_H 	H 	0.8519	0.1274	0.1198	6.501
Mof_H 	H 	0.8241	0.0416	0.1448	-9.464
Mof_C 	C 	0.9707	0.0619	0.6866	-4.681
Mof_H 	H 	0.9461	0.1065	0.6671	1.758
Mof_C 	C 	0.9735	0.0652	0.7486	-4.255
Mof_H 	H 	0.9568	0.1135	0.7677	1.629
Mof_C 	C 	0.983	0.0693	0.8831	-5.013
Mof_C 	C 	0.046	0.94	0.8779	0.972
Mof_C 	C 	0.946	0.1437	0.8663	7.871
Mof_H 	H 	0.8991	0.1328	0.8407	-3.386
Mof_H 	H 	0.9286	0.1725	0.9024	0.31
Mof_H 	H 	0.9847	0.1768	0.8441	-2.876
Mof_C 	C 	0.082	0.867	0.855	1.51
Mof_H 	H 	0.1003	0.8765	0.8137	2.752
Mof_H 	H 	0.1274	0.8519	0.8802	6.548
Mof_H 	H 	0.0416	0.8241	0.8552	-8.465
Mof_C 	C 	0.0293	0.9381	0.6866	4.5
Mof_H 	H 	0.0539	0.8935	0.6671	-1.569
Mof_C 	C 	0.0265	0.9348	0.7486	5.966
Mof_H 	H 	0.0432	0.8865	0.7677	-2.657
Mof_C 	C 	0.017	0.9307	0.8831	1.042
Mof_C 	C 	0.954	0.06	0.8779	-0.26
Mof_C 	C 	0.054	0.8563	0.8663	1.223
Mof_H 	H 	0.1009	0.8672	0.8407	-2.778
Mof_H 	H 	0.0714	0.8275	0.9024	0.827
Mof_H 	H 	0.0153	0.8232	0.8441	8.53
Mof_C 	C 	0.918	0.133	0.855	3.816
Mof_H 	H 	0.8997	0.1235	0.8137	-0.625
Mof_H 	H 	0.8726	0.1481	0.8802	-6.68
Mof_H 	H 	0.9584	0.1759	0.8552	-3.164
Mof_C 	C 	0.0619	0.0293	0.6866	0.962
Mof_H 	H 	0.1065	0.0539	0.6671	-0.556
Mof_C 	C 	0.0652	0.0265	0.7486	2.462
Mof_H 	H 	0.1135	0.0432	0.7677	-1.04
Mof_C 	C 	0.0693	0.017	0.8831	0.428
Mof_C 	C 	0.94	0.954	0.8779	-0.101
Mof_C 	C 	0.1437	0.054	0.8663	-2.814
Mof_H 	H 	0.1328	0.1009	0.8407	2.133
Mof_H 	H 	0.1725	0.0714	0.9024	2.299
Mof_H 	H 	0.1768	0.0153	0.8441	6.074
Mof_C 	C 	0.867	0.918	0.855	6.485
Mof_H 	H 	0.8765	0.8997	0.8137	2.951
Mof_H 	H 	0.8519	0.8726	0.8802	-0.263
Mof_H 	H 	0.8241	0.9584	0.8552	-8.526
Mof_C 	C 	0.9381	0.9707	0.6866	-1.062
Mof_H 	H 	0.8935	0.9461	0.6671	0.741
Mof_C 	C 	0.9348	0.9735	0.7486	-0.505
Mof_H 	H 	0.8865	0.9568	0.7677	-0.047
Mof_C 	C 	0.9307	0.983	0.8831	-4.56
Mof_C 	C 	0.06	0.046	0.8779	0.801
Mof_C 	C 	0.8563	0.946	0.8663	12.069
Mof_H 	H 	0.8672	0.8991	0.8407	-8.41
Mof_H 	H 	0.8275	0.9286	0.9024	-1.219
Mof_H 	H 	0.8232	0.9847	0.8441	-0.609
Mof_C 	C 	0.133	0.082	0.855	-1.091
Mof_H 	H 	0.1235	0.1003	0.8137	-0.773
Mof_H 	H 	0.1481	0.1274	0.8802	0.127
Mof_H 	H 	0.1759	0.0416	0.8552	-3.046
Mof_Zn	Zn	0.5	0.5	0.5	1.177
Mof_Zn	Zn	2.84163e-33	-8.21081e-33	0.56564	0.507
Mof_N 	N 	3.25639e-33	-8.21081e-33	0.6482	-1.596
Mof_C 	C 	-1.2474e-32	-8.21081e-33	0.7858	-6.298
Mof_C 	C 	-3.98031e-33	-8.21081e-33	0.8421	2.936
Mof_Zn	Zn	-6.02869e-33	0	0.43436	0.509
Mof_N 	N 	-2.33805e-33	0	0.3518	-1.565
Mof_C 	C 	-5.08202e-33	-6.15811e-33	0.2142	-6.691
Mof_C 	C 	7.9325e-34	0	0.1579	3.297
Mof_O 	O 	0.91578	0.91578	0.5524	0.553
Mof_C 	C 	0.79937	0.79937	0.5531	0.088
Mof_H 	H 	0.8193	0.8193	0.5903	0.188
Mof_C 	C 	0.7387	0.7387	0.5508	-0.032
Mof_H 	H 	0.718	0.718	0.5875	0.128
Mof_C 	C 	0.0387	0.0387	0.9426	1.474
Mof_O 	O 	0.08422	0.08422	0.5524	-0.929
Mof_C 	C 	0.20063	0.20063	0.5531	-0.009
Mof_H 	H 	0.1807	0.1807	0.5903	-0.136
Mof_C 	C 	0.2613	0.2613	0.5508	-0.272
Mof_H 	H 	0.282	0.282	0.5875	-0.036
Mof_C 	C 	0.9613	0.9613	0.9426	-2.631
Mof_O 	O 	0.08422	0.91578	0.5524	-0.215
Mof_C 	C 	0.20063	0.79937	0.5531	0.041
Mof_H 	H 	0.1807	0.8193	0.5903	0.021
Mof_C 	C 	0.2613	0.7387	0.5508	-0.156
Mof_H 	H 	0.282	0.718	0.5875	0.046
Mof_C 	C 	0.9613	0.0387	0.9426	-1.055
Mof_O 	O 	0.91578	0.08422	0.5524	-0.215
Mof_C 	C 	0.79937	0.20063	0.5531	0.041
Mof_H 	H 	0.8193	0.1807	0.5903	0.021
Mof_C 	C 	0.7387	0.2613	0.5508	-0.156
Mof_H 	H 	0.718	0.282	0.5875	0.046
Mof_C 	C 	0.0387	0.9613	0.9426	-1.055
Mof_O 	O 	0.08422	0.91578	0.4476	-0.196
Mof_C 	C 	0.20063	0.79937	0.4469	0.078
Mof_H 	H 	0.1807	0.8193	0.4097	0.092
Mof_C 	C 	0.2613	0.7387	0.4492	-0.147
Mof_H 	H 	0.282	0.718	0.4125	0.188
Mof_C 	C 	0.9613	0.0387	0.0574	-1.598
Mof_O 	O 	0.91578	0.08422	0.4476	-0.196
Mof_C 	C 	0.79937	0.20063	0.4469	0.078
Mof_H 	H 	0.8193	0.1807	0.4097	0.092
Mof_C 	C 	0.7387	0.2613	0.4492	-0.147
Mof_H 	H 	0.718	0.282	0.4125	0.188
Mof_C 	C 	0.0387	0.9613	0.0574	-1.598
Mof_O 	O 	0.91578	0.91578	0.4476	0.57
Mof_C 	C 	0.79937	0.79937	0.4469	0.124
Mof_H 	H 	0.8193	0.8193	0.4097	0.257
Mof_C 	C 	0.7387	0.7387	0.4492	-0.023
Mof_H 	H 	0.718	0.718	0.4125	0.269
Mof_C 	C 	0.0387	0.0387	0.0574	0.839
Mof_O 	O 	0.08422	0.08422	0.4476	-0.908
Mof_C 	C 	0.20063	0.20063	0.4469	0.029
Mof_H 	H 	0.1807	0.1807	0.4097	-0.064
Mof_C 	C 	0.2613	0.2613	0.4492	-0.263
Mof_H 	H 	0.282	0.282	0.4125	0.108
Mof_C 	C 	0.9613	0.9613	0.0574	-3.085
Mof_N 	N 	0.6209	0.5	0.5	-0.281
Mof_N 	N 	0.3791	0.5	0.5	-0.29
Mof_N 	N 	0.5	0.6209	0.5	-0.281
Mof_N 	N 	0.5	0.3791	0.5	-0.29
Mof_C 	C 	0.8942	0.8942	0.5	0.351
Mof_C 	C 	0.8272	0.8272	0.5	0.173
Mof_C 	C 	0.7102	0.7102	0.5	0.152
Mof_C 	C 	0.6459	0.6459	0.5	-0.104
Mof_C 	C 	0.1058	0.1058	0.5	0.18
Mof_C 	C 	0.1728	0.1728	0.5	-0.285
Mof_C 	C 	0.2898	0.2898	0.5	0.15
Mof_C 	C 	0.3541	0.3541	0.5	-0.186
Mof_C 	C 	0.1058	0.8942	0.5	0.264
Mof_C 	C 	0.1728	0.8272	0.5	-0.064
Mof_C 	C 	0.2898	0.7102	0.5	0.153
Mof_C 	C 	0.3541	0.6459	0.5	-0.146
Mof_C 	C 	0.8942	0.1058	0.5	0.264
Mof_C 	C 	0.8272	0.1728	0.5	-0.064
Mof_C 	C 	0.7102	0.2898	0.5	0.153
Mof_C 	C 	0.6459	0.3541	0.5	-0.146
Mof_C 	C 	0.6715	0.5664	0.5	0.146
Mof_C 	C 	0.755	0.5411	0.5	-0.005
Mof_H 	H 	0.8009	0.5752	0.5	0.24
Mof_C 	C 	0.3285	0.4336	0.5	0.078
Mof_C 	C 	0.245	0.4589	0.5	-0.124
Mof_H 	H 	0.1991	0.4248	0.5	-0.068
Mof_C 	C 	0.4336	0.6715	0.5	0.146
Mof_C 	C 	0.4589	0.755	0.5	-0.016
Mof_H 	H 	0.4248	0.8009	0.5	0.243
Mof_C 	C 	0.5664	0.3285	0.5	0.077
Mof_C 	C 	0.5411	0.245	0.5	-0.112
Mof_H 	H 	0.5752	0.1991	0.5	-0.074
Mof_C 	C 	0.3285	0.5664	0.5	0.077
Mof_C 	C 	0.245	0.5411	0.5	-0.112
Mof_H 	H 	0.1991	0.5752	0.5	-0.074
Mof_C 	C 	0.6715	0.4336	0.5	0.146
Mof_C 	C 	0.755	0.4589	0.5	-0.016
Mof_H 	H 	0.8009	0.4248	0.5	0.243
Mof_C 	C 	0.5664	0.6715	0.5	0.146
Mof_C 	C 	0.5411	0.755	0.5	-0.005
Mof_H 	H 	0.5752	0.8009	0.5	0.24
Mof_C 	C 	0.4336	0.3285	0.5	0.078
Mof_C 	C 	0.4589	0.245	0.5	-0.124
Mof_H 	H 	0.4248	0.1991	0.5	-0.068
Mof_N 	N 	-2.80908e-32	0.957	0.946	8.331
Mof_N 	N 	-1.16692e-32	0.043	0.946	3.893
Mof_N 	N 	0.043	-1.64216e-32	0.946	3.893
Mof_N 	N 	0.957	-1.64216e-32	0.946	8.331
Mof_N 	N 	2.32398e-33	0.957	0.054	9.311
Mof_N 	N 	-1.26824e-33	0.043	0.054	5.028
Mof_N 	N 	0.957	-5.13176e-34	0.054	9.311
Mof_N 	N 	0.043	-5.13176e-34	0.054	5.028
Mof_C 	C 	0.076	0.076	-0	66.417
Mof_C 	C 	0.181	0.181	-0	-33.084
Mof_C 	C 	0.924	0.924	-0	77.902
Mof_C 	C 	0.819	0.819	-0	-34.843
Mof_C 	C 	0.924	0.076	-0	72.31
Mof_C 	C 	0.819	0.181	-0	-33.965
Mof_C 	C 	0.076	0.924	-0	72.31
Mof_C 	C 	0.181	0.819	-0	-33.965
Mof_B 	B 	0.979	0.905	-0	-48.565
Mof_F 	F 	0.019	0.831	-0	9.1
Mof_F 	F 	0.912	0.854	-0	21.809
Mof_C 	C 	0.096	0.17	-0	-31.265
Mof_H 	H 	0.2151	0.135	-0	26.806
Mof_C 	C 	0.213	0.259	-0	12.014
Mof_H 	H 	0.2696	0.2665	-0	-3.201
Mof_C 	C 	0.162	0.327	-0	-22.906
Mof_H 	H 	0.1837	0.3793	-0	8.474
Mof_C 	C 	0.078	0.316	-0	38.041
Mof_H 	H 	0.0431	0.3613	-0	-11.542
Mof_C 	C 	0.045	0.238	-0	-66.358
Mof_H 	H 	0.9885	0.2304	-0	31.245
Mof_B 	B 	0.021	0.095	-0	-42.388
Mof_F 	F 	0.981	0.169	-0	18.891
Mof_F 	F 	0.088	0.146	-0	20.995
Mof_C 	C 	0.904	0.83	-0	-35.974
Mof_H 	H 	0.7849	0.865	-0	29.964
Mof_C 	C 	0.787	0.741	-0	13.043
Mof_H 	H 	0.7304	0.7335	-0	-3.376
Mof_C 	C 	0.838	0.673	-0	-25.309
Mof_H 	H 	0.8163	0.6207	-0	9.658
Mof_C 	C 	0.922	0.684	-0	43.53
Mof_H 	H 	0.9569	0.6387	-0	-11.975
Mof_C 	C 	0.955	0.762	-0	-74.425
Mof_H 	H 	0.0115	0.7696	-0	38.421
Mof_B 	B 	0.095	0.979	-0	-44.039
Mof_F 	F 	0.169	0.019	-0	7.883
Mof_F 	F 	0.146	0.912	-0	18.73
Mof_C 	C 	0.83	0.096	-0	-34.736
Mof_H 	H 	0.865	0.2151	-0	27.882
Mof_C 	C 	0.741	0.213	-0	13.95
Mof_H 	H 	0.7335	0.2696	-0	-3.4
Mof_C 	C 	0.673	0.162	-0	-26.318
Mof_H 	H 	0.6207	0.1837	-0	9.707
Mof_C 	C 	0.684	0.078	-0	43.897
Mof_H 	H 	0.6387	0.0431	-0	-13.286
Mof_C 	C 	0.762	0.045	-0	-76.029
Mof_H 	H 	0.7696	0.9885	-0	36.069
Mof_B 	B 	0.905	0.021	-0	-46.791
Mof_F 	F 	0.831	0.981	-0	20.524
Mof_F 	F 	0.854	0.088	-0	24.154
Mof_C 	C 	0.17	0.904	-0	-32.614
Mof_H 	H 	0.135	0.7849	-0	28.924
Mof_C 	C 	0.259	0.787	-0	11.094
Mof_H 	H 	0.2665	0.7304	-0	-3.175
Mof_C 	C 	0.327	0.838	-0	-21.884
Mof_H 	H 	0.3793	0.8163	-0	8.419
Mof_C 	C 	0.316	0.922	-0	37.639
Mof_H 	H 	0.3613	0.9569	-0	-10.234
Mof_C 	C 	0.238	0.955	-0	-64.741
Mof_H 	H 	0.2304	0.0115	-0	33.468
Mof_B 	B 	0.021	0.905	-0	-46.791
Mof_F 	F 	0.981	0.831	-0	20.524
Mof_F 	F 	0.088	0.854	-0	24.154
Mof_C 	C 	0.904	0.17	-0	-32.614
Mof_H 	H 	0.7849	0.135	-0	28.924
Mof_C 	C 	0.787	0.259	-0	11.094
Mof_H 	H 	0.7304	0.2665	-0	-3.175
Mof_C 	C 	0.838	0.327	-0	-21.884
Mof_H 	H 	0.8163	0.3793	-0	8.419
Mof_C 	C 	0.922	0.316	-0	37.639
Mof_H 	H 	0.9569	0.3613	-0	-10.234
Mof_C 	C 	0.955	0.238	-0	-64.741
Mof_H 	H 	0.0115	0.2304	-0	33.468
Mof_B 	B 	0.979	0.095	-0	-44.039
Mof_F 	F 	0.019	0.169	-0	7.883
Mof_F 	F 	0.912	0.146	-0	18.73
Mof_C 	C 	0.096	0.83	-0	-34.736
Mof_H 	H 	0.2151	0.865	-0	27.882
Mof_C 	C 	0.213	0.741	-0	13.95
Mof_H 	H 	0.2696	0.7335	-0	-3.4
Mof_C 	C 	0.162	0.673	-0	-26.318
Mof_H 	H 	0.1837	0.6207	-0	9.707
Mof_C 	C 	0.078	0.684	-0	43.897
Mof_H 	H 	0.0431	0.6387	-0	-13.286
Mof_C 	C 	0.045	0.762	-0	-76.029
Mof_H 	H 	0.9885	0.7696	-0	36.069
Mof_B 	B 	0.905	0.979	-0	-48.565
Mof_F 	F 	0.831	0.019	-0	9.1
Mof_F 	F 	0.854	0.912	-0	21.809
Mof_C 	C 	0.17	0.096	-0	-31.265
Mof_H 	H 	0.135	0.2151	-0	26.806
Mof_C 	C 	0.259	0.213	-0	12.014
Mof_H 	H 	0.2665	0.2696	-0	-3.201
Mof_C 	C 	0.327	0.162	-0	-22.906
Mof_H 	H 	0.3793	0.1837	-0	8.474
Mof_C 	C 	0.316	0.078	-0	38.041
Mof_H 	H 	0.3613	0.0431	-0	-11.542
Mof_C 	C 	0.238	0.045	-0	-66.358
Mof_H 	H 	0.2304	0.9885	-0	31.245
Mof_B 	B 	0.095	0.021	-0	-42.388
Mof_F 	F 	0.169	0.981	-0	18.891
Mof_F 	F 	0.146	0.088	-0	20.995
Mof_C 	C 	0.83	0.904	-0	-35.974
Mof_H 	H 	0.865	0.7849	-0	29.964
Mof_C 	C 	0.741	0.787	-0	13.043
Mof_H 	H 	0.7335	0.7304	-0	-3.376
Mof_C 	C 	0.673	0.838	-0	-25.309
Mof_H 	H 	0.6207	0.8163	-0	9.658
Mof_C 	C 	0.684	0.922	-0	43.53
Mof_H 	H 	0.6387	0.9569	-0	-11.975
Mof_C 	C 	0.762	0.955	-0	-74.425
Mof_H 	H 	0.7696	0.0115	-0	38.421
_end
