data_functionalizedCrystal
_audit_creation_method	'EQeq! by Chris Wilmer'
_symmetry_space_group_name_H-M	'P1'
_symmetry_Int_Tables_number	1
_symmetry_cell_setting	triclinic
loop_
_symmetry_equiv_pos_as_xyz
  x,y,z
_cell_length_a	37.1384
_cell_length_b	37.1384
_cell_length_c	74.478
_cell_angle_alpha	90
_cell_angle_beta	90
_cell_angle_gamma	120
loop_
_atom_site_label
_atom_site_type_symbol
_atom_site_fract_x
_atom_site_fract_y
_atom_site_fract_z
_atom_site_charge
Mof_O 	O 	0.47688	0.59632	0.54387	-0.385
Mof_O 	O 	0.49892	0.57449	0.57524	-0.386
Mof_C 	C 	0.4673	0.6234	0.5468	0.123
Mof_O 	O 	0.44745	0.62632	0.56011	-0.374
Mof_C 	C 	0.4784	0.6591	0.53401	-0.022
Mof_C 	C 	0.4743	0.6938	0.53718	-0.021
Mof_C 	C 	0.4988	0.6573	0.5187	-0.01
Mof_O 	O 	0.46974	0.60381	0.59171	-0.375
Mof_H 	H 	0.4604	0.695	0.5477	0.024
Mof_C 	C 	0.4905	0.7265	0.525	-0.013
Mof_C 	C 	0.515	0.69	0.50651	-0.065
Mof_H 	H 	0.5016	0.6336	0.5165	0.032
Mof_C 	C 	0.5108	0.7247	0.50968	0.062
Mof_H 	H 	0.5289	0.6888	0.496	0.037
Mof_C 	C 	0.5744	0.8073	0.4803	-0.06
Mof_H 	H 	0.5865	0.827	0.4897	0.068
Mof_C 	C 	0.5925	0.8164	0.4633	0.012
Mof_H 	H 	0.6169	0.8423	0.4612	0.032
Mof_C 	C 	0.6338	0.7855	0.3913	-0.062
Mof_H 	H 	0.6281	0.7609	0.3975	0.052
Mof_C 	C 	0.6501	0.7924	0.3735	0.002
Mof_C 	C 	0.6528	0.7612	0.3647	0.005
Mof_C 	C 	0.6554	0.7336	0.3589	-0.04
Mof_C 	C 	0.6636	0.7012	0.35365	0.024
Mof_C 	C 	0.6824	0.7001	0.3377	-0.209
Mof_C 	C 	0.6484	0.6679	0.36549	0.139
Mof_C 	C 	0.6861	0.6656	0.33359	0.275
Mof_H 	H 	0.6927	0.7229	0.3296	0.097
Mof_H 	H 	0.6355	0.6687	0.3764	-0.023
Mof_C 	C 	0.6521	0.6334	0.36138	-0.232
Mof_C 	C 	0.7109	0.6696	0.31752	-0.368
Mof_C 	C 	0.671	0.6322	0.34543	-0.073
Mof_C 	C 	0.6344	0.5953	0.3742	0.22
Mof_C 	C 	0.743	0.7076	0.31147	0.118
Mof_C 	C 	0.7016	0.6332	0.30848	0.168
Mof_H 	H 	0.6735	0.6086	0.3426	0.037
Mof_C 	C 	0.6063	0.5917	0.38741	-0.189
Mof_C 	C 	0.6461	0.5653	0.37266	-0.089
Mof_C 	C 	0.7658	0.7092	0.29638	0.06
Mof_H 	H 	0.7494	0.7325	0.3177	0.011
Mof_H 	H 	0.6797	0.6073	0.3126	-0.043
Mof_C 	C 	0.7244	0.6348	0.29338	0.117
Mof_C 	C 	0.5899	0.5579	0.39908	-0.134
Mof_H 	H 	0.5983	0.6122	0.3885	0.086
Mof_H 	H 	0.6653	0.5678	0.3636	0.052
Mof_C 	C 	0.6297	0.5315	0.38433	-0.147
Mof_C 	C 	0.7565	0.6728	0.28734	-0.194
Mof_H 	H 	0.7877	0.7352	0.2922	0.028
Mof_H 	H 	0.718	0.61	0.2872	-0.048
Mof_C 	C 	0.6016	0.5279	0.39754	0.147
Mof_H 	H 	0.5707	0.5554	0.4081	0.074
Mof_H 	H 	0.6377	0.511	0.3833	0.084
Mof_C 	C 	0.7883	0.678	0.273	0.107
Mof_C 	C 	0.592	0.4953	0.4114	0.128
Mof_O 	O 	0.81938	0.71268	0.26848	-0.387
Mof_O 	O 	0.78376	0.64242	0.26872	-0.37
Mof_C 	C 	0.7156	0.6826	0.34048	-0.212
Mof_C 	C 	0.7164	0.7186	0.34627	0.093
Mof_H 	H 	0.7292	0.7429	0.3391	-0.013
Mof_C 	C 	0.6985	0.7189	0.36261	0.034
Mof_C 	C 	0.6797	0.6833	0.37316	-0.276
Mof_H 	H 	0.6675	0.6836	0.3843	0.119
Mof_C 	C 	0.6789	0.6473	0.36738	0.277
Mof_C 	C 	0.6968	0.647	0.35104	-0.049
Mof_H 	H 	0.6963	0.6224	0.3471	0.038
Mof_C 	C 	0.6957	0.755	0.3688	0.016
Mof_C 	C 	0.6997	0.7852	0.3763	-0.077
Mof_C 	C 	0.6945	0.817	0.3846	0.158
Mof_C 	C 	0.6789	0.8057	0.4022	-0.172
Mof_H 	H 	0.674	0.7807	0.4078	0.088
Mof_C 	C 	0.6092	0.8221	0.4892	-0.088
Mof_H 	H 	0.6204	0.8408	0.4991	0.048
Mof_C 	C 	0.6306	0.8315	0.473	-0.024
Mof_H 	H 	0.6571	0.856	0.4721	0.031
Mof_C 	C 	0.6144	0.8063	0.4587	-0.018
Mof_C 	C 	0.5767	0.7672	0.4605	0.003
Mof_H 	H 	0.5666	0.748	0.4508	0.032
Mof_C 	C 	0.5553	0.7579	0.4767	-0.048
Mof_H 	H 	0.5296	0.7326	0.478	0.092
Mof_C 	C 	0.798	0.6783	0.2752	0.152
Mof_C 	C 	0.7763	0.6802	0.29215	0.187
Mof_C 	C 	0.7907	0.7176	0.30128	-0.089
Mof_H 	H 	0.814	0.7422	0.2969	0.058
Mof_C 	C 	0.7709	0.7189	0.3169	-0.316
Mof_H 	H 	0.7807	0.7445	0.3231	0.126
Mof_C 	C 	0.7368	0.6829	0.32338	0.357
Mof_C 	C 	0.7224	0.6456	0.31425	-0.105
Mof_H 	H 	0.6991	0.621	0.3187	0.034
Mof_C 	C 	0.7422	0.6442	0.29863	-0.166
Mof_H 	H 	0.7325	0.6187	0.2924	0.09
Mof_C 	C 	0.6272	0.5402	0.40202	-0.181
Mof_C 	C 	0.6156	0.5702	0.40448	0.092
Mof_H 	H 	0.5956	0.5663	0.4134	0.01
Mof_C 	C 	0.6333	0.6058	0.39394	0.09
Mof_H 	H 	0.6254	0.6263	0.3956	-0.007
Mof_C 	C 	0.6625	0.6116	0.38092	-0.204
Mof_C 	C 	0.6741	0.5816	0.37846	-0.004
Mof_H 	H 	0.694	0.5855	0.3696	0.016
Mof_C 	C 	0.6564	0.546	0.389	0.16
Mof_H 	H 	0.6643	0.5255	0.3873	-0.036
Mof_C 	C 	0.5992	0.5009	0.4125	0.132
Mof_C 	C 	0.4965	0.6664	0.5372	-0.014
Mof_C 	C 	0.4908	0.6997	0.5414	-0.011
Mof_H 	H 	0.4739	0.6978	0.5513	0.035
Mof_C 	C 	0.5099	0.7357	0.5311	-0
Mof_C 	C 	0.5347	0.7384	0.51657	0.029
Mof_C 	C 	0.5404	0.7051	0.51237	-0.041
Mof_H 	H 	0.5573	0.707	0.5025	0.03
Mof_C 	C 	0.5213	0.6691	0.52269	-0.007
Mof_H 	H 	0.5252	0.6464	0.5198	0.025
Mof_C 	C 	0.4724	0.6266	0.548	0.14
Mof_C 	C 	0.5391	0.7496	0.4527	0.001
Mof_C 	C 	0.521	0.7405	0.4696	-0.151
Mof_H 	H 	0.527	0.7299	0.4433	0.024
Mof_H 	H 	0.4966	0.7146	0.4718	0.064
Mof_O 	O 	0.40368	0.88056	0.54387	-0.384
Mof_O 	O 	0.42551	0.92443	0.57524	-0.385
Mof_C 	C 	0.3766	0.8439	0.5468	0.124
Mof_O 	O 	0.37368	0.82113	0.56011	-0.373
Mof_C 	C 	0.3409	0.8193	0.53401	-0.021
Mof_C 	C 	0.3062	0.7805	0.53718	-0.02
Mof_C 	C 	0.3427	0.8415	0.5187	-0.009
Mof_O 	O 	0.39619	0.86593	0.59171	-0.374
Mof_H 	H 	0.305	0.7654	0.5477	0.025
Mof_C 	C 	0.2735	0.764	0.525	-0.012
Mof_C 	C 	0.31	0.825	0.50651	-0.064
Mof_H 	H 	0.3664	0.868	0.5165	0.033
Mof_C 	C 	0.2753	0.7861	0.50968	0.063
Mof_H 	H 	0.3112	0.8401	0.496	0.038
Mof_C 	C 	0.1927	0.7671	0.4803	-0.059
Mof_H 	H 	0.173	0.7595	0.4897	0.069
Mof_C 	C 	0.1836	0.7761	0.4633	0.013
Mof_H 	H 	0.1577	0.7746	0.4612	0.033
Mof_C 	C 	0.2145	0.8483	0.3913	-0.061
Mof_H 	H 	0.2391	0.8672	0.3975	0.053
Mof_C 	C 	0.2076	0.8577	0.3735	0.003
Mof_C 	C 	0.2388	0.8916	0.3647	0.006
Mof_C 	C 	0.2664	0.9218	0.3589	-0.039
Mof_C 	C 	0.2988	0.9624	0.35365	0.025
Mof_C 	C 	0.2999	0.9823	0.3377	-0.208
Mof_C 	C 	0.3321	0.9805	0.36549	0.14
Mof_C 	C 	0.3344	0.0205	0.33359	0.276
Mof_H 	H 	0.2771	0.9698	0.3296	0.098
Mof_H 	H 	0.3313	0.9668	0.3764	-0.022
Mof_C 	C 	0.3666	0.0187	0.36138	-0.231
Mof_C 	C 	0.3304	0.0413	0.31752	-0.368
Mof_C 	C 	0.3678	0.0388	0.34543	-0.072
Mof_C 	C 	0.4047	0.0391	0.3742	0.221
Mof_C 	C 	0.2924	0.0354	0.31147	0.119
Mof_C 	C 	0.3668	0.0684	0.30848	0.169
Mof_H 	H 	0.3914	0.0649	0.3426	0.038
Mof_C 	C 	0.4083	0.0146	0.38741	-0.188
Mof_C 	C 	0.4347	0.0808	0.37266	-0.088
Mof_C 	C 	0.2908	0.0566	0.29638	0.061
Mof_H 	H 	0.2675	0.0169	0.3177	0.012
Mof_H 	H 	0.3927	0.0724	0.3126	-0.042
Mof_C 	C 	0.3652	0.0896	0.29338	0.118
Mof_C 	C 	0.4421	0.032	0.39908	-0.133
Mof_H 	H 	0.3878	0.9861	0.3885	0.087
Mof_H 	H 	0.4322	0.0975	0.3636	0.052
Mof_C 	C 	0.4685	0.0982	0.38433	-0.147
Mof_C 	C 	0.3272	0.0837	0.28734	-0.194
Mof_H 	H 	0.2648	0.0525	0.2922	0.028
Mof_H 	H 	0.39	0.108	0.2872	-0.048
Mof_C 	C 	0.4721	0.0737	0.39754	0.147
Mof_H 	H 	0.4446	0.0153	0.4081	0.074
Mof_H 	H 	0.489	0.1267	0.3833	0.084
Mof_C 	C 	0.322	0.1103	0.273	0.107
Mof_C 	C 	0.5047	0.0967	0.4114	0.128
Mof_O 	O 	0.28732	0.1067	0.26848	-0.387
Mof_O 	O 	0.35758	0.14134	0.26872	-0.37
Mof_C 	C 	0.3174	0.033	0.34048	-0.212
Mof_C 	C 	0.2814	0.9978	0.34627	0.093
Mof_H 	H 	0.2571	0.9863	0.3391	-0.013
Mof_C 	C 	0.2811	0.9796	0.36261	0.034
Mof_C 	C 	0.3167	0.9964	0.37316	-0.276
Mof_H 	H 	0.3164	0.9839	0.3843	0.119
Mof_C 	C 	0.3527	0.0316	0.36738	0.277
Mof_C 	C 	0.353	0.0498	0.35104	-0.049
Mof_H 	H 	0.3776	0.0739	0.3471	0.038
Mof_C 	C 	0.245	0.9407	0.3688	0.016
Mof_C 	C 	0.2148	0.9145	0.3763	-0.077
Mof_C 	C 	0.183	0.8775	0.3846	0.158
Mof_C 	C 	0.1943	0.8732	0.4022	-0.172
Mof_H 	H 	0.2193	0.8933	0.4078	0.088
Mof_C 	C 	0.1779	0.7871	0.4892	-0.088
Mof_H 	H 	0.1592	0.7796	0.4991	0.048
Mof_C 	C 	0.1685	0.7991	0.473	-0.024
Mof_H 	H 	0.144	0.8011	0.4721	0.031
Mof_C 	C 	0.1937	0.8081	0.4587	-0.018
Mof_C 	C 	0.2328	0.8095	0.4605	0.003
Mof_H 	H 	0.252	0.8186	0.4508	0.032
Mof_C 	C 	0.2421	0.7974	0.4767	-0.048
Mof_H 	H 	0.2674	0.797	0.478	0.092
Mof_C 	C 	0.3217	0.1197	0.2752	0.152
Mof_C 	C 	0.3198	0.0961	0.29215	0.187
Mof_C 	C 	0.2824	0.0731	0.30128	-0.089
Mof_H 	H 	0.2578	0.0718	0.2969	0.058
Mof_C 	C 	0.2811	0.052	0.3169	-0.316
Mof_H 	H 	0.2555	0.0362	0.3231	0.126
Mof_C 	C 	0.3171	0.0539	0.32338	0.357
Mof_C 	C 	0.3544	0.0768	0.31425	-0.105
Mof_H 	H 	0.379	0.0781	0.3187	0.034
Mof_C 	C 	0.3558	0.098	0.29863	-0.166
Mof_H 	H 	0.3813	0.1138	0.2924	0.09
Mof_C 	C 	0.4598	0.087	0.40202	-0.181
Mof_C 	C 	0.4298	0.0454	0.40448	0.092
Mof_H 	H 	0.4337	0.0293	0.4134	0.01
Mof_C 	C 	0.3942	0.0275	0.39394	0.09
Mof_H 	H 	0.3737	0.9991	0.3956	-0.007
Mof_C 	C 	0.3884	0.0509	0.38092	-0.204
Mof_C 	C 	0.4184	0.0925	0.37846	-0.004
Mof_H 	H 	0.4145	0.1085	0.3696	0.016
Mof_C 	C 	0.454	0.1104	0.389	0.16
Mof_H 	H 	0.4745	0.1388	0.3873	-0.036
Mof_C 	C 	0.4991	0.0983	0.4125	0.132
Mof_C 	C 	0.3336	0.8301	0.5372	-0.014
Mof_C 	C 	0.3003	0.7911	0.5414	-0.011
Mof_H 	H 	0.3022	0.7761	0.5513	0.035
Mof_C 	C 	0.2643	0.7742	0.5311	-0
Mof_C 	C 	0.2616	0.7963	0.51657	0.029
Mof_C 	C 	0.2949	0.8353	0.51237	-0.041
Mof_H 	H 	0.293	0.8503	0.5025	0.03
Mof_C 	C 	0.3309	0.8522	0.52269	-0.007
Mof_H 	H 	0.3536	0.8788	0.5198	0.025
Mof_C 	C 	0.3734	0.8458	0.548	0.14
Mof_C 	C 	0.2504	0.7895	0.4527	0.001
Mof_C 	C 	0.2595	0.7805	0.4696	-0.151
Mof_H 	H 	0.2701	0.7971	0.4433	0.024
Mof_H 	H 	0.2854	0.782	0.4718	0.064
Mof_O 	O 	0.11944	0.52312	0.54387	-0.384
Mof_O 	O 	0.07557	0.50108	0.57524	-0.385
Mof_C 	C 	0.1561	0.5327	0.5468	0.124
Mof_O 	O 	0.17887	0.55255	0.56011	-0.373
Mof_C 	C 	0.1807	0.5216	0.53401	-0.021
Mof_C 	C 	0.2195	0.5257	0.53718	-0.02
Mof_C 	C 	0.1585	0.5012	0.5187	-0.009
Mof_O 	O 	0.13407	0.53026	0.59171	-0.374
Mof_H 	H 	0.2346	0.5396	0.5477	0.025
Mof_C 	C 	0.236	0.5095	0.525	-0.012
Mof_C 	C 	0.175	0.485	0.50651	-0.064
Mof_H 	H 	0.132	0.4984	0.5165	0.033
Mof_C 	C 	0.2139	0.4892	0.50968	0.063
Mof_H 	H 	0.1599	0.4711	0.496	0.038
Mof_C 	C 	0.2329	0.4256	0.4803	-0.059
Mof_H 	H 	0.2405	0.4135	0.4897	0.069
Mof_C 	C 	0.2239	0.4075	0.4633	0.013
Mof_H 	H 	0.2254	0.3831	0.4612	0.033
Mof_C 	C 	0.1517	0.3662	0.3913	-0.061
Mof_H 	H 	0.1328	0.3719	0.3975	0.053
Mof_C 	C 	0.1423	0.3499	0.3735	0.003
Mof_C 	C 	0.1084	0.3472	0.3647	0.006
Mof_C 	C 	0.0782	0.3446	0.3589	-0.039
Mof_C 	C 	0.0376	0.3364	0.35365	0.025
Mof_C 	C 	0.0177	0.3176	0.3377	-0.208
Mof_C 	C 	0.0195	0.3516	0.36549	0.14
Mof_C 	C 	0.9795	0.3139	0.33359	0.276
Mof_H 	H 	0.0302	0.3073	0.3296	0.098
Mof_H 	H 	0.0332	0.3645	0.3764	-0.022
Mof_C 	C 	0.9813	0.3479	0.36138	-0.231
Mof_C 	C 	0.9587	0.2891	0.31752	-0.368
Mof_C 	C 	0.9612	0.329	0.34543	-0.072
Mof_C 	C 	0.9609	0.3656	0.3742	0.221
Mof_C 	C 	0.9646	0.257	0.31147	0.119
Mof_C 	C 	0.9316	0.2984	0.30848	0.169
Mof_H 	H 	0.9351	0.3265	0.3426	0.038
Mof_C 	C 	0.9854	0.3937	0.38741	-0.188
Mof_C 	C 	0.9192	0.3539	0.37266	-0.088
Mof_C 	C 	0.9434	0.2342	0.29638	0.061
Mof_H 	H 	0.9831	0.2506	0.3177	0.012
Mof_H 	H 	0.9276	0.3203	0.3126	-0.042
Mof_C 	C 	0.9104	0.2756	0.29338	0.118
Mof_C 	C 	0.968	0.4101	0.39908	-0.133
Mof_H 	H 	0.0139	0.4017	0.3885	0.087
Mof_H 	H 	0.9025	0.3347	0.3636	0.052
Mof_C 	C 	0.9018	0.3703	0.38433	-0.147
Mof_C 	C 	0.9163	0.2435	0.28734	-0.194
Mof_H 	H 	0.9475	0.2123	0.2922	0.028
Mof_H 	H 	0.892	0.282	0.2872	-0.048
Mof_C 	C 	0.9263	0.3984	0.39754	0.147
Mof_H 	H 	0.9847	0.4293	0.4081	0.074
Mof_H 	H 	0.8733	0.3623	0.3833	0.084
Mof_C 	C 	0.8897	0.2117	0.273	0.107
Mof_C 	C 	0.9033	0.408	0.4114	0.128
Mof_O 	O 	0.8933	0.18062	0.26848	-0.387
Mof_O 	O 	0.85866	0.21624	0.26872	-0.37
Mof_C 	C 	0.967	0.2844	0.34048	-0.212
Mof_C 	C 	0.0022	0.2836	0.34627	0.093
Mof_H 	H 	0.0137	0.2708	0.3391	-0.013
Mof_C 	C 	0.0204	0.3015	0.36261	0.034
Mof_C 	C 	0.0036	0.3203	0.37316	-0.276
Mof_H 	H 	0.0161	0.3325	0.3843	0.119
Mof_C 	C 	0.9684	0.3211	0.36738	0.277
Mof_C 	C 	0.9502	0.3032	0.35104	-0.049
Mof_H 	H 	0.9261	0.3037	0.3471	0.038
Mof_C 	C 	0.0593	0.3043	0.3688	0.016
Mof_C 	C 	0.0855	0.3003	0.3763	-0.077
Mof_C 	C 	0.1225	0.3055	0.3846	0.158
Mof_C 	C 	0.1268	0.3211	0.4022	-0.172
Mof_H 	H 	0.1067	0.326	0.4078	0.088
Mof_C 	C 	0.2129	0.3908	0.4892	-0.088
Mof_H 	H 	0.2204	0.3796	0.4991	0.048
Mof_C 	C 	0.2009	0.3694	0.473	-0.024
Mof_H 	H 	0.1989	0.3429	0.4721	0.031
Mof_C 	C 	0.1919	0.3856	0.4587	-0.018
Mof_C 	C 	0.1905	0.4233	0.4605	0.003
Mof_H 	H 	0.1814	0.4334	0.4508	0.032
Mof_C 	C 	0.2026	0.4447	0.4767	-0.048
Mof_H 	H 	0.203	0.4704	0.478	0.092
Mof_C 	C 	0.8803	0.202	0.2752	0.152
Mof_C 	C 	0.9039	0.2237	0.29215	0.187
Mof_C 	C 	0.9269	0.2093	0.30128	-0.089
Mof_H 	H 	0.9282	0.186	0.2969	0.058
Mof_C 	C 	0.948	0.2291	0.3169	-0.316
Mof_H 	H 	0.9638	0.2193	0.3231	0.126
Mof_C 	C 	0.9461	0.2632	0.32338	0.357
Mof_C 	C 	0.9232	0.2776	0.31425	-0.105
Mof_H 	H 	0.9219	0.3009	0.3187	0.034
Mof_C 	C 	0.902	0.2578	0.29863	-0.166
Mof_H 	H 	0.8862	0.2675	0.2924	0.09
Mof_C 	C 	0.913	0.3728	0.40202	-0.181
Mof_C 	C 	0.9546	0.3844	0.40448	0.092
Mof_H 	H 	0.9707	0.4044	0.4134	0.01
Mof_C 	C 	0.9725	0.3667	0.39394	0.09
Mof_H 	H 	0.0009	0.3746	0.3956	-0.007
Mof_C 	C 	0.9491	0.3375	0.38092	-0.204
Mof_C 	C 	0.9075	0.3259	0.37846	-0.004
Mof_H 	H 	0.8915	0.306	0.3696	0.016
Mof_C 	C 	0.8896	0.3436	0.389	0.16
Mof_H 	H 	0.8612	0.3357	0.3873	-0.036
Mof_C 	C 	0.9017	0.4008	0.4125	0.132
Mof_C 	C 	0.1699	0.5035	0.5372	-0.014
Mof_C 	C 	0.2089	0.5092	0.5414	-0.011
Mof_H 	H 	0.2239	0.5261	0.5513	0.035
Mof_C 	C 	0.2258	0.4901	0.5311	-0
Mof_C 	C 	0.2037	0.4653	0.51657	0.029
Mof_C 	C 	0.1647	0.4596	0.51237	-0.041
Mof_H 	H 	0.1497	0.4427	0.5025	0.03
Mof_C 	C 	0.1478	0.4787	0.52269	-0.007
Mof_H 	H 	0.1212	0.4748	0.5198	0.025
Mof_C 	C 	0.1542	0.5276	0.548	0.14
Mof_C 	C 	0.2105	0.4609	0.4527	0.001
Mof_C 	C 	0.2195	0.479	0.4696	-0.151
Mof_H 	H 	0.2029	0.473	0.4433	0.024
Mof_H 	H 	0.218	0.5034	0.4718	0.064
Mof_O 	O 	0.52312	0.40368	0.04387	-0.384
Mof_O 	O 	0.50108	0.42551	0.07524	-0.385
Mof_C 	C 	0.5327	0.3766	0.0468	0.124
Mof_O 	O 	0.55255	0.37368	0.06011	-0.373
Mof_C 	C 	0.5216	0.3409	0.03401	-0.021
Mof_C 	C 	0.5257	0.3062	0.03718	-0.02
Mof_C 	C 	0.5012	0.3427	0.0187	-0.009
Mof_O 	O 	0.53026	0.39619	0.09171	-0.374
Mof_H 	H 	0.5396	0.305	0.0477	0.025
Mof_C 	C 	0.5095	0.2735	0.025	-0.012
Mof_C 	C 	0.485	0.31	0.00651	-0.064
Mof_H 	H 	0.4984	0.3664	0.0165	0.033
Mof_C 	C 	0.4892	0.2753	0.00968	0.063
Mof_H 	H 	0.4711	0.3112	0.996	0.038
Mof_C 	C 	0.4256	0.1927	0.9803	-0.059
Mof_H 	H 	0.4135	0.173	0.9897	0.069
Mof_C 	C 	0.4075	0.1836	0.9633	0.013
Mof_H 	H 	0.3831	0.1577	0.9612	0.033
Mof_C 	C 	0.3662	0.2145	0.8913	-0.061
Mof_H 	H 	0.3719	0.2391	0.8975	0.053
Mof_C 	C 	0.3499	0.2076	0.8735	0.003
Mof_C 	C 	0.3472	0.2388	0.8647	0.006
Mof_C 	C 	0.3446	0.2664	0.8589	-0.039
Mof_C 	C 	0.3364	0.2988	0.85365	0.025
Mof_C 	C 	0.3176	0.2999	0.8377	-0.208
Mof_C 	C 	0.3516	0.3321	0.86549	0.14
Mof_C 	C 	0.3139	0.3344	0.83359	0.276
Mof_H 	H 	0.3073	0.2771	0.8296	0.098
Mof_H 	H 	0.3645	0.3313	0.8764	-0.022
Mof_C 	C 	0.3479	0.3666	0.86138	-0.231
Mof_C 	C 	0.2891	0.3304	0.81752	-0.367
Mof_C 	C 	0.329	0.3678	0.84543	-0.072
Mof_C 	C 	0.3656	0.4047	0.8742	0.221
Mof_C 	C 	0.257	0.2924	0.81147	0.119
Mof_C 	C 	0.2984	0.3668	0.80848	0.169
Mof_H 	H 	0.3265	0.3914	0.8426	0.038
Mof_C 	C 	0.3937	0.4083	0.88741	-0.188
Mof_C 	C 	0.3539	0.4347	0.87266	-0.088
Mof_C 	C 	0.2342	0.2908	0.79638	0.061
Mof_H 	H 	0.2506	0.2675	0.8177	0.012
Mof_H 	H 	0.3203	0.3927	0.8126	-0.042
Mof_C 	C 	0.2756	0.3652	0.79338	0.118
Mof_C 	C 	0.4101	0.4421	0.89908	-0.133
Mof_H 	H 	0.4017	0.3878	0.8885	0.087
Mof_H 	H 	0.3347	0.4322	0.8636	0.052
Mof_C 	C 	0.3703	0.4685	0.88433	-0.147
Mof_C 	C 	0.2435	0.3272	0.78734	-0.194
Mof_H 	H 	0.2123	0.2648	0.7922	0.028
Mof_H 	H 	0.282	0.39	0.7872	-0.048
Mof_C 	C 	0.3984	0.4721	0.89754	0.147
Mof_H 	H 	0.4293	0.4446	0.9081	0.074
Mof_H 	H 	0.3623	0.489	0.8833	0.084
Mof_C 	C 	0.2117	0.322	0.773	0.107
Mof_C 	C 	0.408	0.5047	0.9114	0.128
Mof_O 	O 	0.18062	0.28732	0.76848	-0.387
Mof_O 	O 	0.21624	0.35758	0.76872	-0.37
Mof_C 	C 	0.2844	0.3174	0.84048	-0.212
Mof_C 	C 	0.2836	0.2814	0.84627	0.093
Mof_H 	H 	0.2708	0.2571	0.8391	-0.013
Mof_C 	C 	0.3015	0.2811	0.86261	0.034
Mof_C 	C 	0.3203	0.3167	0.87316	-0.276
Mof_H 	H 	0.3325	0.3164	0.8843	0.119
Mof_C 	C 	0.3211	0.3527	0.86738	0.277
Mof_C 	C 	0.3032	0.353	0.85104	-0.049
Mof_H 	H 	0.3037	0.3776	0.8471	0.038
Mof_C 	C 	0.3043	0.245	0.8688	0.016
Mof_C 	C 	0.3003	0.2148	0.8763	-0.077
Mof_C 	C 	0.3055	0.183	0.8846	0.158
Mof_C 	C 	0.3211	0.1943	0.9022	-0.172
Mof_H 	H 	0.326	0.2193	0.9078	0.088
Mof_C 	C 	0.3908	0.1779	0.9892	-0.088
Mof_H 	H 	0.3796	0.1592	0.9991	0.048
Mof_C 	C 	0.3694	0.1685	0.973	-0.024
Mof_H 	H 	0.3429	0.144	0.9721	0.031
Mof_C 	C 	0.3856	0.1937	0.9587	-0.018
Mof_C 	C 	0.4233	0.2328	0.9605	0.003
Mof_H 	H 	0.4334	0.252	0.9508	0.032
Mof_C 	C 	0.4447	0.2421	0.9767	-0.048
Mof_H 	H 	0.4704	0.2674	0.978	0.092
Mof_C 	C 	0.202	0.3217	0.7752	0.152
Mof_C 	C 	0.2237	0.3198	0.79215	0.187
Mof_C 	C 	0.2093	0.2824	0.80128	-0.089
Mof_H 	H 	0.186	0.2578	0.7969	0.058
Mof_C 	C 	0.2291	0.2811	0.8169	-0.316
Mof_H 	H 	0.2193	0.2555	0.8231	0.126
Mof_C 	C 	0.2632	0.3171	0.82338	0.357
Mof_C 	C 	0.2776	0.3544	0.81425	-0.105
Mof_H 	H 	0.3009	0.379	0.8187	0.034
Mof_C 	C 	0.2578	0.3558	0.79863	-0.166
Mof_H 	H 	0.2675	0.3813	0.7924	0.09
Mof_C 	C 	0.3728	0.4598	0.90202	-0.181
Mof_C 	C 	0.3844	0.4298	0.90448	0.092
Mof_H 	H 	0.4044	0.4337	0.9134	0.01
Mof_C 	C 	0.3667	0.3942	0.89394	0.09
Mof_H 	H 	0.3746	0.3737	0.8956	-0.007
Mof_C 	C 	0.3375	0.3884	0.88092	-0.204
Mof_C 	C 	0.3259	0.4184	0.87846	-0.004
Mof_H 	H 	0.306	0.4145	0.8696	0.016
Mof_C 	C 	0.3436	0.454	0.889	0.16
Mof_H 	H 	0.3357	0.4745	0.8873	-0.036
Mof_C 	C 	0.4008	0.4991	0.9125	0.132
Mof_C 	C 	0.5035	0.3336	0.0372	-0.014
Mof_C 	C 	0.5092	0.3003	0.0414	-0.011
Mof_H 	H 	0.5261	0.3022	0.0513	0.035
Mof_C 	C 	0.4901	0.2643	0.0311	-0
Mof_C 	C 	0.4653	0.2616	0.01657	0.029
Mof_C 	C 	0.4596	0.2949	0.01237	-0.041
Mof_H 	H 	0.4427	0.293	0.0025	0.03
Mof_C 	C 	0.4787	0.3309	0.02269	-0.007
Mof_H 	H 	0.4748	0.3536	0.0198	0.025
Mof_C 	C 	0.5276	0.3734	0.048	0.14
Mof_C 	C 	0.4609	0.2504	0.9527	0.001
Mof_C 	C 	0.479	0.2595	0.9696	-0.151
Mof_H 	H 	0.473	0.2701	0.9433	0.024
Mof_H 	H 	0.5034	0.2854	0.9718	0.064
Mof_O 	O 	0.59632	0.11944	0.04387	-0.384
Mof_O 	O 	0.57449	0.07557	0.07524	-0.385
Mof_C 	C 	0.6234	0.1561	0.0468	0.124
Mof_O 	O 	0.62632	0.17887	0.06011	-0.373
Mof_C 	C 	0.6591	0.1807	0.03401	-0.021
Mof_C 	C 	0.6938	0.2195	0.03718	-0.02
Mof_C 	C 	0.6573	0.1585	0.0187	-0.009
Mof_O 	O 	0.60381	0.13407	0.09171	-0.374
Mof_H 	H 	0.695	0.2346	0.0477	0.025
Mof_C 	C 	0.7265	0.236	0.025	-0.012
Mof_C 	C 	0.69	0.175	0.00651	-0.064
Mof_H 	H 	0.6336	0.132	0.0165	0.033
Mof_C 	C 	0.7247	0.2139	0.00968	0.063
Mof_H 	H 	0.6888	0.1599	0.996	0.038
Mof_C 	C 	0.8073	0.2329	0.9803	-0.059
Mof_H 	H 	0.827	0.2405	0.9897	0.069
Mof_C 	C 	0.8164	0.2239	0.9633	0.013
Mof_H 	H 	0.8423	0.2254	0.9612	0.033
Mof_C 	C 	0.7855	0.1517	0.8913	-0.061
Mof_H 	H 	0.7609	0.1328	0.8975	0.053
Mof_C 	C 	0.7924	0.1423	0.8735	0.003
Mof_C 	C 	0.7612	0.1084	0.8647	0.006
Mof_C 	C 	0.7336	0.0782	0.8589	-0.039
Mof_C 	C 	0.7012	0.0376	0.85365	0.025
Mof_C 	C 	0.7001	0.0177	0.8377	-0.208
Mof_C 	C 	0.6679	0.0195	0.86549	0.14
Mof_C 	C 	0.6656	0.9795	0.83359	0.276
Mof_H 	H 	0.7229	0.0302	0.8296	0.098
Mof_H 	H 	0.6687	0.0332	0.8764	-0.022
Mof_C 	C 	0.6334	0.9813	0.86138	-0.231
Mof_C 	C 	0.6696	0.9587	0.81752	-0.368
Mof_C 	C 	0.6322	0.9612	0.84543	-0.072
Mof_C 	C 	0.5953	0.9609	0.8742	0.221
Mof_C 	C 	0.7076	0.9646	0.81147	0.119
Mof_C 	C 	0.6332	0.9316	0.80848	0.169
Mof_H 	H 	0.6086	0.9351	0.8426	0.038
Mof_C 	C 	0.5917	0.9854	0.88741	-0.188
Mof_C 	C 	0.5653	0.9192	0.87266	-0.088
Mof_C 	C 	0.7092	0.9434	0.79638	0.061
Mof_H 	H 	0.7325	0.9831	0.8177	0.012
Mof_H 	H 	0.6073	0.9276	0.8126	-0.042
Mof_C 	C 	0.6348	0.9104	0.79338	0.118
Mof_C 	C 	0.5579	0.968	0.89908	-0.133
Mof_H 	H 	0.6122	0.0139	0.8885	0.087
Mof_H 	H 	0.5678	0.9025	0.8636	0.052
Mof_C 	C 	0.5315	0.9018	0.88433	-0.147
Mof_C 	C 	0.6728	0.9163	0.78734	-0.194
Mof_H 	H 	0.7352	0.9475	0.7922	0.028
Mof_H 	H 	0.61	0.892	0.7872	-0.048
Mof_C 	C 	0.5279	0.9263	0.89754	0.147
Mof_H 	H 	0.5554	0.9847	0.9081	0.074
Mof_H 	H 	0.511	0.8733	0.8833	0.084
Mof_C 	C 	0.678	0.8897	0.773	0.107
Mof_C 	C 	0.4953	0.9033	0.9114	0.128
Mof_O 	O 	0.71268	0.8933	0.76848	-0.387
Mof_O 	O 	0.64242	0.85866	0.76872	-0.37
Mof_C 	C 	0.6826	0.967	0.84048	-0.212
Mof_C 	C 	0.7186	0.0022	0.84627	0.093
Mof_H 	H 	0.7429	0.0137	0.8391	-0.013
Mof_C 	C 	0.7189	0.0204	0.86261	0.034
Mof_C 	C 	0.6833	0.0036	0.87316	-0.276
Mof_H 	H 	0.6836	0.0161	0.8843	0.119
Mof_C 	C 	0.6473	0.9684	0.86738	0.277
Mof_C 	C 	0.647	0.9502	0.85104	-0.049
Mof_H 	H 	0.6224	0.9261	0.8471	0.038
Mof_C 	C 	0.755	0.0593	0.8688	0.016
Mof_C 	C 	0.7852	0.0855	0.8763	-0.077
Mof_C 	C 	0.817	0.1225	0.8846	0.158
Mof_C 	C 	0.8057	0.1268	0.9022	-0.172
Mof_H 	H 	0.7807	0.1067	0.9078	0.088
Mof_C 	C 	0.8221	0.2129	0.9892	-0.088
Mof_H 	H 	0.8408	0.2204	0.9991	0.048
Mof_C 	C 	0.8315	0.2009	0.973	-0.024
Mof_H 	H 	0.856	0.1989	0.9721	0.031
Mof_C 	C 	0.8063	0.1919	0.9587	-0.018
Mof_C 	C 	0.7672	0.1905	0.9605	0.003
Mof_H 	H 	0.748	0.1814	0.9508	0.032
Mof_C 	C 	0.7579	0.2026	0.9767	-0.048
Mof_H 	H 	0.7326	0.203	0.978	0.092
Mof_C 	C 	0.6783	0.8803	0.7752	0.152
Mof_C 	C 	0.6802	0.9039	0.79215	0.187
Mof_C 	C 	0.7176	0.9269	0.80128	-0.089
Mof_H 	H 	0.7422	0.9282	0.7969	0.058
Mof_C 	C 	0.7189	0.948	0.8169	-0.316
Mof_H 	H 	0.7445	0.9638	0.8231	0.126
Mof_C 	C 	0.6829	0.9461	0.82338	0.357
Mof_C 	C 	0.6456	0.9232	0.81425	-0.105
Mof_H 	H 	0.621	0.9219	0.8187	0.034
Mof_C 	C 	0.6442	0.902	0.79863	-0.166
Mof_H 	H 	0.6187	0.8862	0.7924	0.09
Mof_C 	C 	0.5402	0.913	0.90202	-0.181
Mof_C 	C 	0.5702	0.9546	0.90448	0.092
Mof_H 	H 	0.5663	0.9707	0.9134	0.01
Mof_C 	C 	0.6058	0.9725	0.89394	0.09
Mof_H 	H 	0.6263	0.0009	0.8956	-0.007
Mof_C 	C 	0.6116	0.9491	0.88092	-0.204
Mof_C 	C 	0.5816	0.9075	0.87846	-0.004
Mof_H 	H 	0.5855	0.8915	0.8696	0.016
Mof_C 	C 	0.546	0.8896	0.889	0.16
Mof_H 	H 	0.5255	0.8612	0.8873	-0.036
Mof_C 	C 	0.5009	0.9017	0.9125	0.132
Mof_C 	C 	0.6664	0.1699	0.0372	-0.014
Mof_C 	C 	0.6997	0.2089	0.0414	-0.011
Mof_H 	H 	0.6978	0.2239	0.0513	0.035
Mof_C 	C 	0.7357	0.2258	0.0311	-0
Mof_C 	C 	0.7384	0.2037	0.01657	0.029
Mof_C 	C 	0.7051	0.1647	0.01237	-0.041
Mof_H 	H 	0.707	0.1497	0.0025	0.03
Mof_C 	C 	0.6691	0.1478	0.02269	-0.007
Mof_H 	H 	0.6464	0.1212	0.0198	0.025
Mof_C 	C 	0.6266	0.1542	0.048	0.14
Mof_C 	C 	0.7496	0.2105	0.9527	0.001
Mof_C 	C 	0.7405	0.2195	0.9696	-0.151
Mof_H 	H 	0.7299	0.2029	0.9433	0.024
Mof_H 	H 	0.7146	0.218	0.9718	0.064
Mof_O 	O 	0.88056	0.47688	0.04387	-0.384
Mof_O 	O 	0.92443	0.49892	0.07524	-0.385
Mof_C 	C 	0.8439	0.4673	0.0468	0.124
Mof_O 	O 	0.82113	0.44745	0.06011	-0.373
Mof_C 	C 	0.8193	0.4784	0.03401	-0.021
Mof_C 	C 	0.7805	0.4743	0.03718	-0.02
Mof_C 	C 	0.8415	0.4988	0.0187	-0.009
Mof_O 	O 	0.86593	0.46974	0.09171	-0.374
Mof_H 	H 	0.7654	0.4604	0.0477	0.025
Mof_C 	C 	0.764	0.4905	0.025	-0.012
Mof_C 	C 	0.825	0.515	0.00651	-0.064
Mof_H 	H 	0.868	0.5016	0.0165	0.033
Mof_C 	C 	0.7861	0.5108	0.00968	0.063
Mof_H 	H 	0.8401	0.5289	0.996	0.038
Mof_C 	C 	0.7671	0.5744	0.9803	-0.059
Mof_H 	H 	0.7595	0.5865	0.9897	0.069
Mof_C 	C 	0.7761	0.5925	0.9633	0.013
Mof_H 	H 	0.7746	0.6169	0.9612	0.033
Mof_C 	C 	0.8483	0.6338	0.8913	-0.061
Mof_H 	H 	0.8672	0.6281	0.8975	0.053
Mof_C 	C 	0.8577	0.6501	0.8735	0.003
Mof_C 	C 	0.8916	0.6528	0.8647	0.006
Mof_C 	C 	0.9218	0.6554	0.8589	-0.039
Mof_C 	C 	0.9624	0.6636	0.85365	0.025
Mof_C 	C 	0.9823	0.6824	0.8377	-0.208
Mof_C 	C 	0.9805	0.6484	0.86549	0.14
Mof_C 	C 	0.0205	0.6861	0.83359	0.276
Mof_H 	H 	0.9698	0.6927	0.8296	0.098
Mof_H 	H 	0.9668	0.6355	0.8764	-0.022
Mof_C 	C 	0.0187	0.6521	0.86138	-0.231
Mof_C 	C 	0.0413	0.7109	0.81752	-0.368
Mof_C 	C 	0.0388	0.671	0.84543	-0.072
Mof_C 	C 	0.0391	0.6344	0.8742	0.221
Mof_C 	C 	0.0354	0.743	0.81147	0.119
Mof_C 	C 	0.0684	0.7016	0.80848	0.169
Mof_H 	H 	0.0649	0.6735	0.8426	0.038
Mof_C 	C 	0.0146	0.6063	0.88741	-0.188
Mof_C 	C 	0.0808	0.6461	0.87266	-0.088
Mof_C 	C 	0.0566	0.7658	0.79638	0.061
Mof_H 	H 	0.0169	0.7494	0.8177	0.012
Mof_H 	H 	0.0724	0.6797	0.8126	-0.042
Mof_C 	C 	0.0896	0.7244	0.79338	0.118
Mof_C 	C 	0.032	0.5899	0.89908	-0.133
Mof_H 	H 	0.9861	0.5983	0.8885	0.087
Mof_H 	H 	0.0975	0.6653	0.8636	0.052
Mof_C 	C 	0.0982	0.6297	0.88433	-0.147
Mof_C 	C 	0.0837	0.7565	0.78734	-0.194
Mof_H 	H 	0.0525	0.7877	0.7922	0.028
Mof_H 	H 	0.108	0.718	0.7872	-0.048
Mof_C 	C 	0.0737	0.6016	0.89754	0.147
Mof_H 	H 	0.0153	0.5707	0.9081	0.074
Mof_H 	H 	0.1267	0.6377	0.8833	0.084
Mof_C 	C 	0.1103	0.7883	0.773	0.107
Mof_C 	C 	0.0967	0.592	0.9114	0.128
Mof_O 	O 	0.1067	0.81938	0.76848	-0.387
Mof_O 	O 	0.14134	0.78376	0.76872	-0.37
Mof_C 	C 	0.033	0.7156	0.84048	-0.212
Mof_C 	C 	0.9978	0.7164	0.84627	0.093
Mof_H 	H 	0.9863	0.7292	0.8391	-0.013
Mof_C 	C 	0.9796	0.6985	0.86261	0.034
Mof_C 	C 	0.9964	0.6797	0.87316	-0.276
Mof_H 	H 	0.9839	0.6675	0.8843	0.119
Mof_C 	C 	0.0316	0.6789	0.86738	0.277
Mof_C 	C 	0.0498	0.6968	0.85104	-0.049
Mof_H 	H 	0.0739	0.6963	0.8471	0.038
Mof_C 	C 	0.9407	0.6957	0.8688	0.016
Mof_C 	C 	0.9145	0.6997	0.8763	-0.077
Mof_C 	C 	0.8775	0.6945	0.8846	0.158
Mof_C 	C 	0.8732	0.6789	0.9022	-0.172
Mof_H 	H 	0.8933	0.674	0.9078	0.088
Mof_C 	C 	0.7871	0.6092	0.9892	-0.088
Mof_H 	H 	0.7796	0.6204	0.9991	0.048
Mof_C 	C 	0.7991	0.6306	0.973	-0.024
Mof_H 	H 	0.8011	0.6571	0.9721	0.031
Mof_C 	C 	0.8081	0.6144	0.9587	-0.018
Mof_C 	C 	0.8095	0.5767	0.9605	0.003
Mof_H 	H 	0.8186	0.5666	0.9508	0.032
Mof_C 	C 	0.7974	0.5553	0.9767	-0.048
Mof_H 	H 	0.797	0.5296	0.978	0.092
Mof_C 	C 	0.1197	0.798	0.7752	0.152
Mof_C 	C 	0.0961	0.7763	0.79215	0.187
Mof_C 	C 	0.0731	0.7907	0.80128	-0.089
Mof_H 	H 	0.0718	0.814	0.7969	0.058
Mof_C 	C 	0.052	0.7709	0.8169	-0.316
Mof_H 	H 	0.0362	0.7807	0.8231	0.126
Mof_C 	C 	0.0539	0.7368	0.82338	0.357
Mof_C 	C 	0.0768	0.7224	0.81425	-0.105
Mof_H 	H 	0.0781	0.6991	0.8187	0.034
Mof_C 	C 	0.098	0.7422	0.79863	-0.166
Mof_H 	H 	0.1138	0.7325	0.7924	0.09
Mof_C 	C 	0.087	0.6272	0.90202	-0.181
Mof_C 	C 	0.0454	0.6156	0.90448	0.092
Mof_H 	H 	0.0293	0.5956	0.9134	0.01
Mof_C 	C 	0.0275	0.6333	0.89394	0.09
Mof_H 	H 	0.9991	0.6254	0.8956	-0.007
Mof_C 	C 	0.0509	0.6625	0.88092	-0.204
Mof_C 	C 	0.0925	0.6741	0.87846	-0.004
Mof_H 	H 	0.1085	0.694	0.8696	0.016
Mof_C 	C 	0.1104	0.6564	0.889	0.16
Mof_H 	H 	0.1388	0.6643	0.8873	-0.036
Mof_C 	C 	0.0983	0.5992	0.9125	0.132
Mof_C 	C 	0.8301	0.4965	0.0372	-0.014
Mof_C 	C 	0.7911	0.4908	0.0414	-0.011
Mof_H 	H 	0.7761	0.4739	0.0513	0.035
Mof_C 	C 	0.7742	0.5099	0.0311	-0
Mof_C 	C 	0.7963	0.5347	0.01657	0.029
Mof_C 	C 	0.8353	0.5404	0.01237	-0.041
Mof_H 	H 	0.8503	0.5573	0.0025	0.03
Mof_C 	C 	0.8522	0.5213	0.02269	-0.007
Mof_H 	H 	0.8788	0.5252	0.0198	0.025
Mof_C 	C 	0.8458	0.4724	0.048	0.14
Mof_C 	C 	0.7895	0.5391	0.9527	0.001
Mof_C 	C 	0.7805	0.521	0.9696	-0.151
Mof_H 	H 	0.7971	0.527	0.9433	0.024
Mof_H 	H 	0.782	0.4966	0.9718	0.064
Mof_O 	O 	0.59632	0.47688	0.45613	-0.384
Mof_O 	O 	0.57449	0.49892	0.42476	-0.385
Mof_C 	C 	0.6234	0.4673	0.4532	0.124
Mof_O 	O 	0.62632	0.44745	0.43989	-0.373
Mof_C 	C 	0.6591	0.4784	0.46599	-0.021
Mof_C 	C 	0.6938	0.4743	0.46282	-0.02
Mof_C 	C 	0.6573	0.4988	0.4813	-0.009
Mof_O 	O 	0.60381	0.46974	0.40829	-0.374
Mof_H 	H 	0.695	0.4604	0.4523	0.025
Mof_C 	C 	0.7265	0.4905	0.475	-0.012
Mof_C 	C 	0.69	0.515	0.49349	-0.064
Mof_H 	H 	0.6336	0.5016	0.4835	0.033
Mof_C 	C 	0.7247	0.5108	0.49032	0.063
Mof_H 	H 	0.6888	0.5289	0.504	0.038
Mof_C 	C 	0.8073	0.5744	0.5197	-0.059
Mof_H 	H 	0.827	0.5865	0.5103	0.069
Mof_C 	C 	0.8164	0.5925	0.5367	0.013
Mof_H 	H 	0.8423	0.6169	0.5388	0.033
Mof_C 	C 	0.7855	0.6338	0.6087	-0.061
Mof_H 	H 	0.7609	0.6281	0.6025	0.053
Mof_C 	C 	0.7924	0.6501	0.6265	0.003
Mof_C 	C 	0.7612	0.6528	0.6353	0.006
Mof_C 	C 	0.7336	0.6554	0.6411	-0.039
Mof_C 	C 	0.7012	0.6636	0.64635	0.025
Mof_C 	C 	0.7001	0.6824	0.6623	-0.208
Mof_C 	C 	0.6679	0.6484	0.63451	0.14
Mof_C 	C 	0.6656	0.6861	0.66641	0.276
Mof_H 	H 	0.7229	0.6927	0.6704	0.098
Mof_H 	H 	0.6687	0.6355	0.6236	-0.022
Mof_C 	C 	0.6334	0.6521	0.63862	-0.231
Mof_C 	C 	0.6696	0.7109	0.68248	-0.367
Mof_C 	C 	0.6322	0.671	0.65457	-0.072
Mof_C 	C 	0.5953	0.6344	0.6258	0.221
Mof_C 	C 	0.7076	0.743	0.68853	0.119
Mof_C 	C 	0.6332	0.7016	0.69152	0.169
Mof_H 	H 	0.6086	0.6735	0.6574	0.038
Mof_C 	C 	0.5917	0.6063	0.61259	-0.188
Mof_C 	C 	0.5653	0.6461	0.62734	-0.088
Mof_C 	C 	0.7092	0.7658	0.70362	0.061
Mof_H 	H 	0.7325	0.7494	0.6823	0.012
Mof_H 	H 	0.6073	0.6797	0.6874	-0.042
Mof_C 	C 	0.6348	0.7244	0.70662	0.118
Mof_C 	C 	0.5579	0.5899	0.60092	-0.133
Mof_H 	H 	0.6122	0.5983	0.6115	0.087
Mof_H 	H 	0.5678	0.6653	0.6364	0.052
Mof_C 	C 	0.5315	0.6297	0.61567	-0.147
Mof_C 	C 	0.6728	0.7565	0.71266	-0.194
Mof_H 	H 	0.7352	0.7877	0.7078	0.028
Mof_H 	H 	0.61	0.718	0.7128	-0.048
Mof_C 	C 	0.5279	0.6016	0.60246	0.147
Mof_H 	H 	0.5554	0.5707	0.5919	0.074
Mof_H 	H 	0.511	0.6377	0.6167	0.084
Mof_C 	C 	0.678	0.7883	0.727	0.107
Mof_C 	C 	0.4953	0.592	0.5886	0.128
Mof_O 	O 	0.71268	0.81938	0.73152	-0.387
Mof_O 	O 	0.64242	0.78376	0.73128	-0.37
Mof_C 	C 	0.6826	0.7156	0.65952	-0.212
Mof_C 	C 	0.7186	0.7164	0.65373	0.093
Mof_H 	H 	0.7429	0.7292	0.6609	-0.013
Mof_C 	C 	0.7189	0.6985	0.63739	0.034
Mof_C 	C 	0.6833	0.6797	0.62684	-0.276
Mof_H 	H 	0.6836	0.6675	0.6157	0.119
Mof_C 	C 	0.6473	0.6789	0.63262	0.277
Mof_C 	C 	0.647	0.6968	0.64896	-0.049
Mof_H 	H 	0.6224	0.6963	0.6529	0.038
Mof_C 	C 	0.755	0.6957	0.6312	0.016
Mof_C 	C 	0.7852	0.6997	0.6237	-0.077
Mof_C 	C 	0.817	0.6945	0.6154	0.158
Mof_C 	C 	0.8057	0.6789	0.5978	-0.172
Mof_H 	H 	0.7807	0.674	0.5922	0.088
Mof_C 	C 	0.8221	0.6092	0.5108	-0.088
Mof_H 	H 	0.8408	0.6204	0.5009	0.048
Mof_C 	C 	0.8315	0.6306	0.527	-0.024
Mof_H 	H 	0.856	0.6571	0.5279	0.031
Mof_C 	C 	0.8063	0.6144	0.5413	-0.018
Mof_C 	C 	0.7672	0.5767	0.5395	0.003
Mof_H 	H 	0.748	0.5666	0.5492	0.032
Mof_C 	C 	0.7579	0.5553	0.5233	-0.048
Mof_H 	H 	0.7326	0.5296	0.522	0.092
Mof_C 	C 	0.6783	0.798	0.7248	0.152
Mof_C 	C 	0.6802	0.7763	0.70785	0.187
Mof_C 	C 	0.7176	0.7907	0.69872	-0.089
Mof_H 	H 	0.7422	0.814	0.7031	0.058
Mof_C 	C 	0.7189	0.7709	0.6831	-0.316
Mof_H 	H 	0.7445	0.7807	0.6769	0.126
Mof_C 	C 	0.6829	0.7368	0.67662	0.357
Mof_C 	C 	0.6456	0.7224	0.68575	-0.105
Mof_H 	H 	0.621	0.6991	0.6813	0.034
Mof_C 	C 	0.6442	0.7422	0.70137	-0.166
Mof_H 	H 	0.6187	0.7325	0.7076	0.09
Mof_C 	C 	0.5402	0.6272	0.59798	-0.181
Mof_C 	C 	0.5702	0.6156	0.59552	0.092
Mof_H 	H 	0.5663	0.5956	0.5866	0.01
Mof_C 	C 	0.6058	0.6333	0.60606	0.09
Mof_H 	H 	0.6263	0.6254	0.6044	-0.007
Mof_C 	C 	0.6116	0.6625	0.61908	-0.204
Mof_C 	C 	0.5816	0.6741	0.62154	-0.004
Mof_H 	H 	0.5855	0.694	0.6304	0.016
Mof_C 	C 	0.546	0.6564	0.611	0.16
Mof_H 	H 	0.5255	0.6643	0.6127	-0.036
Mof_C 	C 	0.5009	0.5992	0.5875	0.132
Mof_C 	C 	0.6664	0.4965	0.4628	-0.014
Mof_C 	C 	0.6997	0.4908	0.4586	-0.011
Mof_H 	H 	0.6978	0.4739	0.4487	0.035
Mof_C 	C 	0.7357	0.5099	0.4689	-0
Mof_C 	C 	0.7384	0.5347	0.48343	0.029
Mof_C 	C 	0.7051	0.5404	0.48763	-0.041
Mof_H 	H 	0.707	0.5573	0.4975	0.03
Mof_C 	C 	0.6691	0.5213	0.47731	-0.007
Mof_H 	H 	0.6464	0.5252	0.4802	0.025
Mof_C 	C 	0.6266	0.4724	0.452	0.14
Mof_C 	C 	0.7496	0.5391	0.5473	0.001
Mof_C 	C 	0.7405	0.521	0.5304	-0.151
Mof_H 	H 	0.7299	0.527	0.5567	0.024
Mof_H 	H 	0.7146	0.4966	0.5282	0.064
Mof_O 	O 	0.88056	0.40368	0.45613	-0.384
Mof_O 	O 	0.92443	0.42551	0.42476	-0.385
Mof_C 	C 	0.8439	0.3766	0.4532	0.124
Mof_O 	O 	0.82113	0.37368	0.43989	-0.373
Mof_C 	C 	0.8193	0.3409	0.46599	-0.021
Mof_C 	C 	0.7805	0.3062	0.46282	-0.02
Mof_C 	C 	0.8415	0.3427	0.4813	-0.009
Mof_O 	O 	0.86593	0.39619	0.40829	-0.374
Mof_H 	H 	0.7654	0.305	0.4523	0.025
Mof_C 	C 	0.764	0.2735	0.475	-0.012
Mof_C 	C 	0.825	0.31	0.49349	-0.064
Mof_H 	H 	0.868	0.3664	0.4835	0.033
Mof_C 	C 	0.7861	0.2753	0.49032	0.063
Mof_H 	H 	0.8401	0.3112	0.504	0.038
Mof_C 	C 	0.7671	0.1927	0.5197	-0.059
Mof_H 	H 	0.7595	0.173	0.5103	0.069
Mof_C 	C 	0.7761	0.1836	0.5367	0.013
Mof_H 	H 	0.7746	0.1577	0.5388	0.033
Mof_C 	C 	0.8483	0.2145	0.6087	-0.061
Mof_H 	H 	0.8672	0.2391	0.6025	0.053
Mof_C 	C 	0.8577	0.2076	0.6265	0.003
Mof_C 	C 	0.8916	0.2388	0.6353	0.006
Mof_C 	C 	0.9218	0.2664	0.6411	-0.039
Mof_C 	C 	0.9624	0.2988	0.64635	0.025
Mof_C 	C 	0.9823	0.2999	0.6623	-0.208
Mof_C 	C 	0.9805	0.3321	0.63451	0.14
Mof_C 	C 	0.0205	0.3344	0.66641	0.276
Mof_H 	H 	0.9698	0.2771	0.6704	0.098
Mof_H 	H 	0.9668	0.3313	0.6236	-0.022
Mof_C 	C 	0.0187	0.3666	0.63862	-0.231
Mof_C 	C 	0.0413	0.3304	0.68248	-0.368
Mof_C 	C 	0.0388	0.3678	0.65457	-0.072
Mof_C 	C 	0.0391	0.4047	0.6258	0.221
Mof_C 	C 	0.0354	0.2924	0.68853	0.119
Mof_C 	C 	0.0684	0.3668	0.69152	0.169
Mof_H 	H 	0.0649	0.3914	0.6574	0.038
Mof_C 	C 	0.0146	0.4083	0.61259	-0.188
Mof_C 	C 	0.0808	0.4347	0.62734	-0.088
Mof_C 	C 	0.0566	0.2908	0.70362	0.061
Mof_H 	H 	0.0169	0.2675	0.6823	0.012
Mof_H 	H 	0.0724	0.3927	0.6874	-0.042
Mof_C 	C 	0.0896	0.3652	0.70662	0.118
Mof_C 	C 	0.032	0.4421	0.60092	-0.133
Mof_H 	H 	0.9861	0.3878	0.6115	0.087
Mof_H 	H 	0.0975	0.4322	0.6364	0.052
Mof_C 	C 	0.0982	0.4685	0.61567	-0.147
Mof_C 	C 	0.0837	0.3272	0.71266	-0.194
Mof_H 	H 	0.0525	0.2648	0.7078	0.028
Mof_H 	H 	0.108	0.39	0.7128	-0.048
Mof_C 	C 	0.0737	0.4721	0.60246	0.147
Mof_H 	H 	0.0153	0.4446	0.5919	0.074
Mof_H 	H 	0.1267	0.489	0.6167	0.084
Mof_C 	C 	0.1103	0.322	0.727	0.107
Mof_C 	C 	0.0967	0.5047	0.5886	0.128
Mof_O 	O 	0.1067	0.28732	0.73152	-0.387
Mof_O 	O 	0.14134	0.35758	0.73128	-0.37
Mof_C 	C 	0.033	0.3174	0.65952	-0.212
Mof_C 	C 	0.9978	0.2814	0.65373	0.093
Mof_H 	H 	0.9863	0.2571	0.6609	-0.013
Mof_C 	C 	0.9796	0.2811	0.63739	0.034
Mof_C 	C 	0.9964	0.3167	0.62684	-0.276
Mof_H 	H 	0.9839	0.3164	0.6157	0.119
Mof_C 	C 	0.0316	0.3527	0.63262	0.277
Mof_C 	C 	0.0498	0.353	0.64896	-0.049
Mof_H 	H 	0.0739	0.3776	0.6529	0.038
Mof_C 	C 	0.9407	0.245	0.6312	0.016
Mof_C 	C 	0.9145	0.2148	0.6237	-0.077
Mof_C 	C 	0.8775	0.183	0.6154	0.158
Mof_C 	C 	0.8732	0.1943	0.5978	-0.172
Mof_H 	H 	0.8933	0.2193	0.5922	0.088
Mof_C 	C 	0.7871	0.1779	0.5108	-0.088
Mof_H 	H 	0.7796	0.1592	0.5009	0.048
Mof_C 	C 	0.7991	0.1685	0.527	-0.024
Mof_H 	H 	0.8011	0.144	0.5279	0.031
Mof_C 	C 	0.8081	0.1937	0.5413	-0.018
Mof_C 	C 	0.8095	0.2328	0.5395	0.003
Mof_H 	H 	0.8186	0.252	0.5492	0.032
Mof_C 	C 	0.7974	0.2421	0.5233	-0.048
Mof_H 	H 	0.797	0.2674	0.522	0.092
Mof_C 	C 	0.1197	0.3217	0.7248	0.152
Mof_C 	C 	0.0961	0.3198	0.70785	0.187
Mof_C 	C 	0.0731	0.2824	0.69872	-0.089
Mof_H 	H 	0.0718	0.2578	0.7031	0.058
Mof_C 	C 	0.052	0.2811	0.6831	-0.316
Mof_H 	H 	0.0362	0.2555	0.6769	0.126
Mof_C 	C 	0.0539	0.3171	0.67662	0.357
Mof_C 	C 	0.0768	0.3544	0.68575	-0.105
Mof_H 	H 	0.0781	0.379	0.6813	0.034
Mof_C 	C 	0.098	0.3558	0.70137	-0.166
Mof_H 	H 	0.1138	0.3813	0.7076	0.09
Mof_C 	C 	0.087	0.4598	0.59798	-0.181
Mof_C 	C 	0.0454	0.4298	0.59552	0.092
Mof_H 	H 	0.0293	0.4337	0.5866	0.01
Mof_C 	C 	0.0275	0.3942	0.60606	0.09
Mof_H 	H 	0.9991	0.3737	0.6044	-0.007
Mof_C 	C 	0.0509	0.3884	0.61908	-0.204
Mof_C 	C 	0.0925	0.4184	0.62154	-0.004
Mof_H 	H 	0.1085	0.4145	0.6304	0.016
Mof_C 	C 	0.1104	0.454	0.611	0.16
Mof_H 	H 	0.1388	0.4745	0.6127	-0.036
Mof_C 	C 	0.0983	0.4991	0.5875	0.132
Mof_C 	C 	0.8301	0.3336	0.4628	-0.014
Mof_C 	C 	0.7911	0.3003	0.4586	-0.011
Mof_H 	H 	0.7761	0.3022	0.4487	0.035
Mof_C 	C 	0.7742	0.2643	0.4689	-0
Mof_C 	C 	0.7963	0.2616	0.48343	0.029
Mof_C 	C 	0.8353	0.2949	0.48763	-0.041
Mof_H 	H 	0.8503	0.293	0.4975	0.03
Mof_C 	C 	0.8522	0.3309	0.47731	-0.007
Mof_H 	H 	0.8788	0.3536	0.4802	0.025
Mof_C 	C 	0.8458	0.3734	0.452	0.14
Mof_C 	C 	0.7895	0.2504	0.5473	0.001
Mof_C 	C 	0.7805	0.2595	0.5304	-0.151
Mof_H 	H 	0.7971	0.2701	0.5567	0.024
Mof_H 	H 	0.782	0.2854	0.5282	0.064
Mof_O 	O 	0.52312	0.11944	0.45613	-0.384
Mof_O 	O 	0.50108	0.07557	0.42476	-0.385
Mof_C 	C 	0.5327	0.1561	0.4532	0.124
Mof_O 	O 	0.55255	0.17887	0.43989	-0.373
Mof_C 	C 	0.5216	0.1807	0.46599	-0.021
Mof_C 	C 	0.5257	0.2195	0.46282	-0.02
Mof_C 	C 	0.5012	0.1585	0.4813	-0.009
Mof_O 	O 	0.53026	0.13407	0.40829	-0.374
Mof_H 	H 	0.5396	0.2346	0.4523	0.025
Mof_C 	C 	0.5095	0.236	0.475	-0.012
Mof_C 	C 	0.485	0.175	0.49349	-0.064
Mof_H 	H 	0.4984	0.132	0.4835	0.033
Mof_C 	C 	0.4892	0.2139	0.49032	0.063
Mof_H 	H 	0.4711	0.1599	0.504	0.038
Mof_C 	C 	0.4256	0.2329	0.5197	-0.059
Mof_H 	H 	0.4135	0.2405	0.5103	0.069
Mof_C 	C 	0.4075	0.2239	0.5367	0.013
Mof_H 	H 	0.3831	0.2254	0.5388	0.033
Mof_C 	C 	0.3662	0.1517	0.6087	-0.061
Mof_H 	H 	0.3719	0.1328	0.6025	0.053
Mof_C 	C 	0.3499	0.1423	0.6265	0.003
Mof_C 	C 	0.3472	0.1084	0.6353	0.006
Mof_C 	C 	0.3446	0.0782	0.6411	-0.039
Mof_C 	C 	0.3364	0.0376	0.64635	0.025
Mof_C 	C 	0.3176	0.0177	0.6623	-0.208
Mof_C 	C 	0.3516	0.0195	0.63451	0.14
Mof_C 	C 	0.3139	0.9795	0.66641	0.276
Mof_H 	H 	0.3073	0.0302	0.6704	0.098
Mof_H 	H 	0.3645	0.0332	0.6236	-0.022
Mof_C 	C 	0.3479	0.9813	0.63862	-0.231
Mof_C 	C 	0.2891	0.9587	0.68248	-0.368
Mof_C 	C 	0.329	0.9612	0.65457	-0.072
Mof_C 	C 	0.3656	0.9609	0.6258	0.221
Mof_C 	C 	0.257	0.9646	0.68853	0.119
Mof_C 	C 	0.2984	0.9316	0.69152	0.169
Mof_H 	H 	0.3265	0.9351	0.6574	0.038
Mof_C 	C 	0.3937	0.9854	0.61259	-0.188
Mof_C 	C 	0.3539	0.9192	0.62734	-0.088
Mof_C 	C 	0.2342	0.9434	0.70362	0.061
Mof_H 	H 	0.2506	0.9831	0.6823	0.012
Mof_H 	H 	0.3203	0.9276	0.6874	-0.042
Mof_C 	C 	0.2756	0.9104	0.70662	0.118
Mof_C 	C 	0.4101	0.968	0.60092	-0.133
Mof_H 	H 	0.4017	0.0139	0.6115	0.087
Mof_H 	H 	0.3347	0.9025	0.6364	0.052
Mof_C 	C 	0.3703	0.9018	0.61567	-0.147
Mof_C 	C 	0.2435	0.9163	0.71266	-0.194
Mof_H 	H 	0.2123	0.9475	0.7078	0.028
Mof_H 	H 	0.282	0.892	0.7128	-0.048
Mof_C 	C 	0.3984	0.9263	0.60246	0.147
Mof_H 	H 	0.4293	0.9847	0.5919	0.074
Mof_H 	H 	0.3623	0.8733	0.6167	0.084
Mof_C 	C 	0.2117	0.8897	0.727	0.107
Mof_C 	C 	0.408	0.9033	0.5886	0.128
Mof_O 	O 	0.18062	0.8933	0.73152	-0.387
Mof_O 	O 	0.21624	0.85866	0.73128	-0.37
Mof_C 	C 	0.2844	0.967	0.65952	-0.212
Mof_C 	C 	0.2836	0.0022	0.65373	0.093
Mof_H 	H 	0.2708	0.0137	0.6609	-0.013
Mof_C 	C 	0.3015	0.0204	0.63739	0.034
Mof_C 	C 	0.3203	0.0036	0.62684	-0.276
Mof_H 	H 	0.3325	0.0161	0.6157	0.119
Mof_C 	C 	0.3211	0.9684	0.63262	0.277
Mof_C 	C 	0.3032	0.9502	0.64896	-0.049
Mof_H 	H 	0.3037	0.9261	0.6529	0.038
Mof_C 	C 	0.3043	0.0593	0.6312	0.016
Mof_C 	C 	0.3003	0.0855	0.6237	-0.077
Mof_C 	C 	0.3055	0.1225	0.6154	0.158
Mof_C 	C 	0.3211	0.1268	0.5978	-0.172
Mof_H 	H 	0.326	0.1067	0.5922	0.088
Mof_C 	C 	0.3908	0.2129	0.5108	-0.088
Mof_H 	H 	0.3796	0.2204	0.5009	0.048
Mof_C 	C 	0.3694	0.2009	0.527	-0.024
Mof_H 	H 	0.3429	0.1989	0.5279	0.031
Mof_C 	C 	0.3856	0.1919	0.5413	-0.018
Mof_C 	C 	0.4233	0.1905	0.5395	0.003
Mof_H 	H 	0.4334	0.1814	0.5492	0.032
Mof_C 	C 	0.4447	0.2026	0.5233	-0.048
Mof_H 	H 	0.4704	0.203	0.522	0.092
Mof_C 	C 	0.202	0.8803	0.7248	0.152
Mof_C 	C 	0.2237	0.9039	0.70785	0.187
Mof_C 	C 	0.2093	0.9269	0.69872	-0.089
Mof_H 	H 	0.186	0.9282	0.7031	0.058
Mof_C 	C 	0.2291	0.948	0.6831	-0.316
Mof_H 	H 	0.2193	0.9638	0.6769	0.126
Mof_C 	C 	0.2632	0.9461	0.67662	0.357
Mof_C 	C 	0.2776	0.9232	0.68575	-0.105
Mof_H 	H 	0.3009	0.9219	0.6813	0.034
Mof_C 	C 	0.2578	0.902	0.70137	-0.166
Mof_H 	H 	0.2675	0.8862	0.7076	0.09
Mof_C 	C 	0.3728	0.913	0.59798	-0.181
Mof_C 	C 	0.3844	0.9546	0.59552	0.092
Mof_H 	H 	0.4044	0.9707	0.5866	0.01
Mof_C 	C 	0.3667	0.9725	0.60606	0.09
Mof_H 	H 	0.3746	0.0009	0.6044	-0.007
Mof_C 	C 	0.3375	0.9491	0.61908	-0.204
Mof_C 	C 	0.3259	0.9075	0.62154	-0.004
Mof_H 	H 	0.306	0.8915	0.6304	0.016
Mof_C 	C 	0.3436	0.8896	0.611	0.16
Mof_H 	H 	0.3357	0.8612	0.6127	-0.036
Mof_C 	C 	0.4008	0.9017	0.5875	0.132
Mof_C 	C 	0.5035	0.1699	0.4628	-0.014
Mof_C 	C 	0.5092	0.2089	0.4586	-0.011
Mof_H 	H 	0.5261	0.2239	0.4487	0.035
Mof_C 	C 	0.4901	0.2258	0.4689	-0
Mof_C 	C 	0.4653	0.2037	0.48343	0.029
Mof_C 	C 	0.4596	0.1647	0.48763	-0.041
Mof_H 	H 	0.4427	0.1497	0.4975	0.03
Mof_C 	C 	0.4787	0.1478	0.47731	-0.007
Mof_H 	H 	0.4748	0.1212	0.4802	0.025
Mof_C 	C 	0.5276	0.1542	0.452	0.14
Mof_C 	C 	0.4609	0.2105	0.5473	0.001
Mof_C 	C 	0.479	0.2195	0.5304	-0.151
Mof_H 	H 	0.473	0.2029	0.5567	0.024
Mof_H 	H 	0.5034	0.218	0.5282	0.064
Mof_O 	O 	0.40368	0.52312	0.95613	-0.384
Mof_O 	O 	0.42551	0.50108	0.92476	-0.385
Mof_C 	C 	0.3766	0.5327	0.9532	0.124
Mof_O 	O 	0.37368	0.55255	0.93989	-0.373
Mof_C 	C 	0.3409	0.5216	0.96599	-0.021
Mof_C 	C 	0.3062	0.5257	0.96282	-0.02
Mof_C 	C 	0.3427	0.5012	0.9813	-0.009
Mof_O 	O 	0.39619	0.53026	0.90829	-0.374
Mof_H 	H 	0.305	0.5396	0.9523	0.025
Mof_C 	C 	0.2735	0.5095	0.975	-0.012
Mof_C 	C 	0.31	0.485	0.99349	-0.064
Mof_H 	H 	0.3664	0.4984	0.9835	0.033
Mof_C 	C 	0.2753	0.4892	0.99032	0.063
Mof_H 	H 	0.3112	0.4711	0.004	0.038
Mof_C 	C 	0.1927	0.4256	0.0197	-0.059
Mof_H 	H 	0.173	0.4135	0.0103	0.069
Mof_C 	C 	0.1836	0.4075	0.0367	0.013
Mof_H 	H 	0.1577	0.3831	0.0388	0.033
Mof_C 	C 	0.2145	0.3662	0.1087	-0.061
Mof_H 	H 	0.2391	0.3719	0.1025	0.053
Mof_C 	C 	0.2076	0.3499	0.1265	0.003
Mof_C 	C 	0.2388	0.3472	0.1353	0.006
Mof_C 	C 	0.2664	0.3446	0.1411	-0.039
Mof_C 	C 	0.2988	0.3364	0.14635	0.025
Mof_C 	C 	0.2999	0.3176	0.1623	-0.208
Mof_C 	C 	0.3321	0.3516	0.13451	0.14
Mof_C 	C 	0.3344	0.3139	0.16641	0.276
Mof_H 	H 	0.2771	0.3073	0.1704	0.098
Mof_H 	H 	0.3313	0.3645	0.1236	-0.022
Mof_C 	C 	0.3666	0.3479	0.13862	-0.231
Mof_C 	C 	0.3304	0.2891	0.18248	-0.367
Mof_C 	C 	0.3678	0.329	0.15457	-0.072
Mof_C 	C 	0.4047	0.3656	0.1258	0.221
Mof_C 	C 	0.2924	0.257	0.18853	0.119
Mof_C 	C 	0.3668	0.2984	0.19152	0.169
Mof_H 	H 	0.3914	0.3265	0.1574	0.038
Mof_C 	C 	0.4083	0.3937	0.11259	-0.188
Mof_C 	C 	0.4347	0.3539	0.12734	-0.088
Mof_C 	C 	0.2908	0.2342	0.20362	0.061
Mof_H 	H 	0.2675	0.2506	0.1823	0.012
Mof_H 	H 	0.3927	0.3203	0.1874	-0.042
Mof_C 	C 	0.3652	0.2756	0.20662	0.118
Mof_C 	C 	0.4421	0.4101	0.10092	-0.133
Mof_H 	H 	0.3878	0.4017	0.1115	0.087
Mof_H 	H 	0.4322	0.3347	0.1364	0.052
Mof_C 	C 	0.4685	0.3703	0.11567	-0.147
Mof_C 	C 	0.3272	0.2435	0.21266	-0.194
Mof_H 	H 	0.2648	0.2123	0.2078	0.028
Mof_H 	H 	0.39	0.282	0.2128	-0.048
Mof_C 	C 	0.4721	0.3984	0.10246	0.147
Mof_H 	H 	0.4446	0.4293	0.0919	0.074
Mof_H 	H 	0.489	0.3623	0.1167	0.084
Mof_C 	C 	0.322	0.2117	0.227	0.107
Mof_C 	C 	0.5047	0.408	0.0886	0.128
Mof_O 	O 	0.28732	0.18062	0.23152	-0.387
Mof_O 	O 	0.35758	0.21624	0.23128	-0.37
Mof_C 	C 	0.3174	0.2844	0.15952	-0.212
Mof_C 	C 	0.2814	0.2836	0.15373	0.093
Mof_H 	H 	0.2571	0.2708	0.1609	-0.013
Mof_C 	C 	0.2811	0.3015	0.13739	0.034
Mof_C 	C 	0.3167	0.3203	0.12684	-0.276
Mof_H 	H 	0.3164	0.3325	0.1157	0.119
Mof_C 	C 	0.3527	0.3211	0.13262	0.277
Mof_C 	C 	0.353	0.3032	0.14896	-0.049
Mof_H 	H 	0.3776	0.3037	0.1529	0.038
Mof_C 	C 	0.245	0.3043	0.1312	0.016
Mof_C 	C 	0.2148	0.3003	0.1237	-0.077
Mof_C 	C 	0.183	0.3055	0.1154	0.158
Mof_C 	C 	0.1943	0.3211	0.0978	-0.172
Mof_H 	H 	0.2193	0.326	0.0922	0.088
Mof_C 	C 	0.1779	0.3908	0.0108	-0.088
Mof_H 	H 	0.1592	0.3796	0.0009	0.048
Mof_C 	C 	0.1685	0.3694	0.027	-0.024
Mof_H 	H 	0.144	0.3429	0.0279	0.031
Mof_C 	C 	0.1937	0.3856	0.0413	-0.018
Mof_C 	C 	0.2328	0.4233	0.0395	0.003
Mof_H 	H 	0.252	0.4334	0.0492	0.032
Mof_C 	C 	0.2421	0.4447	0.0233	-0.048
Mof_H 	H 	0.2674	0.4704	0.022	0.092
Mof_C 	C 	0.3217	0.202	0.2248	0.152
Mof_C 	C 	0.3198	0.2237	0.20785	0.187
Mof_C 	C 	0.2824	0.2093	0.19872	-0.089
Mof_H 	H 	0.2578	0.186	0.2031	0.058
Mof_C 	C 	0.2811	0.2291	0.1831	-0.316
Mof_H 	H 	0.2555	0.2193	0.1769	0.126
Mof_C 	C 	0.3171	0.2632	0.17662	0.357
Mof_C 	C 	0.3544	0.2776	0.18575	-0.105
Mof_H 	H 	0.379	0.3009	0.1813	0.034
Mof_C 	C 	0.3558	0.2578	0.20137	-0.166
Mof_H 	H 	0.3813	0.2675	0.2076	0.09
Mof_C 	C 	0.4598	0.3728	0.09798	-0.181
Mof_C 	C 	0.4298	0.3844	0.09552	0.092
Mof_H 	H 	0.4337	0.4044	0.0866	0.01
Mof_C 	C 	0.3942	0.3667	0.10606	0.09
Mof_H 	H 	0.3737	0.3746	0.1044	-0.007
Mof_C 	C 	0.3884	0.3375	0.11908	-0.204
Mof_C 	C 	0.4184	0.3259	0.12154	-0.004
Mof_H 	H 	0.4145	0.306	0.1304	0.016
Mof_C 	C 	0.454	0.3436	0.111	0.16
Mof_H 	H 	0.4745	0.3357	0.1127	-0.036
Mof_C 	C 	0.4991	0.4008	0.0875	0.132
Mof_C 	C 	0.3336	0.5035	0.9628	-0.014
Mof_C 	C 	0.3003	0.5092	0.9586	-0.011
Mof_H 	H 	0.3022	0.5261	0.9487	0.035
Mof_C 	C 	0.2643	0.4901	0.9689	-0
Mof_C 	C 	0.2616	0.4653	0.98343	0.029
Mof_C 	C 	0.2949	0.4596	0.98763	-0.041
Mof_H 	H 	0.293	0.4427	0.9975	0.03
Mof_C 	C 	0.3309	0.4787	0.97731	-0.007
Mof_H 	H 	0.3536	0.4748	0.9802	0.025
Mof_C 	C 	0.3734	0.5276	0.952	0.14
Mof_C 	C 	0.2504	0.4609	0.0473	0.001
Mof_C 	C 	0.2595	0.479	0.0304	-0.151
Mof_H 	H 	0.2701	0.473	0.0567	0.024
Mof_H 	H 	0.2854	0.5034	0.0282	0.064
Mof_O 	O 	0.11944	0.59632	0.95613	-0.384
Mof_O 	O 	0.07557	0.57449	0.92476	-0.385
Mof_C 	C 	0.1561	0.6234	0.9532	0.124
Mof_O 	O 	0.17887	0.62632	0.93989	-0.373
Mof_C 	C 	0.1807	0.6591	0.96599	-0.021
Mof_C 	C 	0.2195	0.6938	0.96282	-0.02
Mof_C 	C 	0.1585	0.6573	0.9813	-0.009
Mof_O 	O 	0.13407	0.60381	0.90829	-0.374
Mof_H 	H 	0.2346	0.695	0.9523	0.025
Mof_C 	C 	0.236	0.7265	0.975	-0.012
Mof_C 	C 	0.175	0.69	0.99349	-0.064
Mof_H 	H 	0.132	0.6336	0.9835	0.033
Mof_C 	C 	0.2139	0.7247	0.99032	0.063
Mof_H 	H 	0.1599	0.6888	0.004	0.038
Mof_C 	C 	0.2329	0.8073	0.0197	-0.059
Mof_H 	H 	0.2405	0.827	0.0103	0.069
Mof_C 	C 	0.2239	0.8164	0.0367	0.013
Mof_H 	H 	0.2254	0.8423	0.0388	0.033
Mof_C 	C 	0.1517	0.7855	0.1087	-0.061
Mof_H 	H 	0.1328	0.7609	0.1025	0.053
Mof_C 	C 	0.1423	0.7924	0.1265	0.003
Mof_C 	C 	0.1084	0.7612	0.1353	0.006
Mof_C 	C 	0.0782	0.7336	0.1411	-0.039
Mof_C 	C 	0.0376	0.7012	0.14635	0.025
Mof_C 	C 	0.0177	0.7001	0.1623	-0.208
Mof_C 	C 	0.0195	0.6679	0.13451	0.14
Mof_C 	C 	0.9795	0.6656	0.16641	0.276
Mof_H 	H 	0.0302	0.7229	0.1704	0.098
Mof_H 	H 	0.0332	0.6687	0.1236	-0.022
Mof_C 	C 	0.9813	0.6334	0.13862	-0.231
Mof_C 	C 	0.9587	0.6696	0.18248	-0.368
Mof_C 	C 	0.9612	0.6322	0.15457	-0.072
Mof_C 	C 	0.9609	0.5953	0.1258	0.221
Mof_C 	C 	0.9646	0.7076	0.18853	0.119
Mof_C 	C 	0.9316	0.6332	0.19152	0.169
Mof_H 	H 	0.9351	0.6086	0.1574	0.038
Mof_C 	C 	0.9854	0.5917	0.11259	-0.188
Mof_C 	C 	0.9192	0.5653	0.12734	-0.088
Mof_C 	C 	0.9434	0.7092	0.20362	0.061
Mof_H 	H 	0.9831	0.7325	0.1823	0.012
Mof_H 	H 	0.9276	0.6073	0.1874	-0.042
Mof_C 	C 	0.9104	0.6348	0.20662	0.118
Mof_C 	C 	0.968	0.5579	0.10092	-0.133
Mof_H 	H 	0.0139	0.6122	0.1115	0.087
Mof_H 	H 	0.9025	0.5678	0.1364	0.052
Mof_C 	C 	0.9018	0.5315	0.11567	-0.147
Mof_C 	C 	0.9163	0.6728	0.21266	-0.194
Mof_H 	H 	0.9475	0.7352	0.2078	0.028
Mof_H 	H 	0.892	0.61	0.2128	-0.048
Mof_C 	C 	0.9263	0.5279	0.10246	0.147
Mof_H 	H 	0.9847	0.5554	0.0919	0.074
Mof_H 	H 	0.8733	0.511	0.1167	0.084
Mof_C 	C 	0.8897	0.678	0.227	0.107
Mof_C 	C 	0.9033	0.4953	0.0886	0.128
Mof_O 	O 	0.8933	0.71268	0.23152	-0.387
Mof_O 	O 	0.85866	0.64242	0.23128	-0.37
Mof_C 	C 	0.967	0.6826	0.15952	-0.212
Mof_C 	C 	0.0022	0.7186	0.15373	0.093
Mof_H 	H 	0.0137	0.7429	0.1609	-0.013
Mof_C 	C 	0.0204	0.7189	0.13739	0.034
Mof_C 	C 	0.0036	0.6833	0.12684	-0.276
Mof_H 	H 	0.0161	0.6836	0.1157	0.119
Mof_C 	C 	0.9684	0.6473	0.13262	0.277
Mof_C 	C 	0.9502	0.647	0.14896	-0.049
Mof_H 	H 	0.9261	0.6224	0.1529	0.038
Mof_C 	C 	0.0593	0.755	0.1312	0.016
Mof_C 	C 	0.0855	0.7852	0.1237	-0.077
Mof_C 	C 	0.1225	0.817	0.1154	0.158
Mof_C 	C 	0.1268	0.8057	0.0978	-0.172
Mof_H 	H 	0.1067	0.7807	0.0922	0.088
Mof_C 	C 	0.2129	0.8221	0.0108	-0.088
Mof_H 	H 	0.2204	0.8408	0.0009	0.048
Mof_C 	C 	0.2009	0.8315	0.027	-0.024
Mof_H 	H 	0.1989	0.856	0.0279	0.031
Mof_C 	C 	0.1919	0.8063	0.0413	-0.018
Mof_C 	C 	0.1905	0.7672	0.0395	0.003
Mof_H 	H 	0.1814	0.748	0.0492	0.032
Mof_C 	C 	0.2026	0.7579	0.0233	-0.048
Mof_H 	H 	0.203	0.7326	0.022	0.092
Mof_C 	C 	0.8803	0.6783	0.2248	0.152
Mof_C 	C 	0.9039	0.6802	0.20785	0.187
Mof_C 	C 	0.9269	0.7176	0.19872	-0.089
Mof_H 	H 	0.9282	0.7422	0.2031	0.058
Mof_C 	C 	0.948	0.7189	0.1831	-0.316
Mof_H 	H 	0.9638	0.7445	0.1769	0.126
Mof_C 	C 	0.9461	0.6829	0.17662	0.357
Mof_C 	C 	0.9232	0.6456	0.18575	-0.105
Mof_H 	H 	0.9219	0.621	0.1813	0.034
Mof_C 	C 	0.902	0.6442	0.20137	-0.166
Mof_H 	H 	0.8862	0.6187	0.2076	0.09
Mof_C 	C 	0.913	0.5402	0.09798	-0.181
Mof_C 	C 	0.9546	0.5702	0.09552	0.092
Mof_H 	H 	0.9707	0.5663	0.0866	0.01
Mof_C 	C 	0.9725	0.6058	0.10606	0.09
Mof_H 	H 	0.0009	0.6263	0.1044	-0.007
Mof_C 	C 	0.9491	0.6116	0.11908	-0.204
Mof_C 	C 	0.9075	0.5816	0.12154	-0.004
Mof_H 	H 	0.8915	0.5855	0.1304	0.016
Mof_C 	C 	0.8896	0.546	0.111	0.16
Mof_H 	H 	0.8612	0.5255	0.1127	-0.036
Mof_C 	C 	0.9017	0.5009	0.0875	0.132
Mof_C 	C 	0.1699	0.6664	0.9628	-0.014
Mof_C 	C 	0.2089	0.6997	0.9586	-0.011
Mof_H 	H 	0.2239	0.6978	0.9487	0.035
Mof_C 	C 	0.2258	0.7357	0.9689	-0
Mof_C 	C 	0.2037	0.7384	0.98343	0.029
Mof_C 	C 	0.1647	0.7051	0.98763	-0.041
Mof_H 	H 	0.1497	0.707	0.9975	0.03
Mof_C 	C 	0.1478	0.6691	0.97731	-0.007
Mof_H 	H 	0.1212	0.6464	0.9802	0.025
Mof_C 	C 	0.1542	0.6266	0.952	0.14
Mof_C 	C 	0.2105	0.7496	0.0473	0.001
Mof_C 	C 	0.2195	0.7405	0.0304	-0.151
Mof_H 	H 	0.2029	0.7299	0.0567	0.024
Mof_H 	H 	0.218	0.7146	0.0282	0.064
Mof_O 	O 	0.47688	0.88056	0.95613	-0.384
Mof_O 	O 	0.49892	0.92443	0.92476	-0.385
Mof_C 	C 	0.4673	0.8439	0.9532	0.124
Mof_O 	O 	0.44745	0.82113	0.93989	-0.373
Mof_C 	C 	0.4784	0.8193	0.96599	-0.021
Mof_C 	C 	0.4743	0.7805	0.96282	-0.02
Mof_C 	C 	0.4988	0.8415	0.9813	-0.009
Mof_O 	O 	0.46974	0.86593	0.90829	-0.374
Mof_H 	H 	0.4604	0.7654	0.9523	0.025
Mof_C 	C 	0.4905	0.764	0.975	-0.012
Mof_C 	C 	0.515	0.825	0.99349	-0.064
Mof_H 	H 	0.5016	0.868	0.9835	0.033
Mof_C 	C 	0.5108	0.7861	0.99032	0.063
Mof_H 	H 	0.5289	0.8401	0.004	0.038
Mof_C 	C 	0.5744	0.7671	0.0197	-0.059
Mof_H 	H 	0.5865	0.7595	0.0103	0.069
Mof_C 	C 	0.5925	0.7761	0.0367	0.013
Mof_H 	H 	0.6169	0.7746	0.0388	0.033
Mof_C 	C 	0.6338	0.8483	0.1087	-0.061
Mof_H 	H 	0.6281	0.8672	0.1025	0.053
Mof_C 	C 	0.6501	0.8577	0.1265	0.003
Mof_C 	C 	0.6528	0.8916	0.1353	0.006
Mof_C 	C 	0.6554	0.9218	0.1411	-0.039
Mof_C 	C 	0.6636	0.9624	0.14635	0.025
Mof_C 	C 	0.6824	0.9823	0.1623	-0.208
Mof_C 	C 	0.6484	0.9805	0.13451	0.14
Mof_C 	C 	0.6861	0.0205	0.16641	0.276
Mof_H 	H 	0.6927	0.9698	0.1704	0.098
Mof_H 	H 	0.6355	0.9668	0.1236	-0.022
Mof_C 	C 	0.6521	0.0187	0.13862	-0.231
Mof_C 	C 	0.7109	0.0413	0.18248	-0.368
Mof_C 	C 	0.671	0.0388	0.15457	-0.072
Mof_C 	C 	0.6344	0.0391	0.1258	0.221
Mof_C 	C 	0.743	0.0354	0.18853	0.119
Mof_C 	C 	0.7016	0.0684	0.19152	0.169
Mof_H 	H 	0.6735	0.0649	0.1574	0.038
Mof_C 	C 	0.6063	0.0146	0.11259	-0.188
Mof_C 	C 	0.6461	0.0808	0.12734	-0.088
Mof_C 	C 	0.7658	0.0566	0.20362	0.061
Mof_H 	H 	0.7494	0.0169	0.1823	0.012
Mof_H 	H 	0.6797	0.0724	0.1874	-0.042
Mof_C 	C 	0.7244	0.0896	0.20662	0.118
Mof_C 	C 	0.5899	0.032	0.10092	-0.133
Mof_H 	H 	0.5983	0.9861	0.1115	0.087
Mof_H 	H 	0.6653	0.0975	0.1364	0.052
Mof_C 	C 	0.6297	0.0982	0.11567	-0.147
Mof_C 	C 	0.7565	0.0837	0.21266	-0.194
Mof_H 	H 	0.7877	0.0525	0.2078	0.028
Mof_H 	H 	0.718	0.108	0.2128	-0.048
Mof_C 	C 	0.6016	0.0737	0.10246	0.147
Mof_H 	H 	0.5707	0.0153	0.0919	0.074
Mof_H 	H 	0.6377	0.1267	0.1167	0.084
Mof_C 	C 	0.7883	0.1103	0.227	0.107
Mof_C 	C 	0.592	0.0967	0.0886	0.128
Mof_O 	O 	0.81938	0.1067	0.23152	-0.387
Mof_O 	O 	0.78376	0.14134	0.23128	-0.37
Mof_C 	C 	0.7156	0.033	0.15952	-0.212
Mof_C 	C 	0.7164	0.9978	0.15373	0.093
Mof_H 	H 	0.7292	0.9863	0.1609	-0.013
Mof_C 	C 	0.6985	0.9796	0.13739	0.034
Mof_C 	C 	0.6797	0.9964	0.12684	-0.276
Mof_H 	H 	0.6675	0.9839	0.1157	0.119
Mof_C 	C 	0.6789	0.0316	0.13262	0.277
Mof_C 	C 	0.6968	0.0498	0.14896	-0.049
Mof_H 	H 	0.6963	0.0739	0.1529	0.038
Mof_C 	C 	0.6957	0.9407	0.1312	0.016
Mof_C 	C 	0.6997	0.9145	0.1237	-0.077
Mof_C 	C 	0.6945	0.8775	0.1154	0.158
Mof_C 	C 	0.6789	0.8732	0.0978	-0.172
Mof_H 	H 	0.674	0.8933	0.0922	0.088
Mof_C 	C 	0.6092	0.7871	0.0108	-0.088
Mof_H 	H 	0.6204	0.7796	0.0009	0.048
Mof_C 	C 	0.6306	0.7991	0.027	-0.024
Mof_H 	H 	0.6571	0.8011	0.0279	0.031
Mof_C 	C 	0.6144	0.8081	0.0413	-0.018
Mof_C 	C 	0.5767	0.8095	0.0395	0.003
Mof_H 	H 	0.5666	0.8186	0.0492	0.032
Mof_C 	C 	0.5553	0.7974	0.0233	-0.048
Mof_H 	H 	0.5296	0.797	0.022	0.092
Mof_C 	C 	0.798	0.1197	0.2248	0.152
Mof_C 	C 	0.7763	0.0961	0.20785	0.187
Mof_C 	C 	0.7907	0.0731	0.19872	-0.089
Mof_H 	H 	0.814	0.0718	0.2031	0.058
Mof_C 	C 	0.7709	0.052	0.1831	-0.316
Mof_H 	H 	0.7807	0.0362	0.1769	0.126
Mof_C 	C 	0.7368	0.0539	0.17662	0.357
Mof_C 	C 	0.7224	0.0768	0.18575	-0.105
Mof_H 	H 	0.6991	0.0781	0.1813	0.034
Mof_C 	C 	0.7422	0.098	0.20137	-0.166
Mof_H 	H 	0.7325	0.1138	0.2076	0.09
Mof_C 	C 	0.6272	0.087	0.09798	-0.181
Mof_C 	C 	0.6156	0.0454	0.09552	0.092
Mof_H 	H 	0.5956	0.0293	0.0866	0.01
Mof_C 	C 	0.6333	0.0275	0.10606	0.09
Mof_H 	H 	0.6254	0.9991	0.1044	-0.007
Mof_C 	C 	0.6625	0.0509	0.11908	-0.204
Mof_C 	C 	0.6741	0.0925	0.12154	-0.004
Mof_H 	H 	0.694	0.1085	0.1304	0.016
Mof_C 	C 	0.6564	0.1104	0.111	0.16
Mof_H 	H 	0.6643	0.1388	0.1127	-0.036
Mof_C 	C 	0.5992	0.0983	0.0875	0.132
Mof_C 	C 	0.4965	0.8301	0.9628	-0.014
Mof_C 	C 	0.4908	0.7911	0.9586	-0.011
Mof_H 	H 	0.4739	0.7761	0.9487	0.035
Mof_C 	C 	0.5099	0.7742	0.9689	-0
Mof_C 	C 	0.5347	0.7963	0.98343	0.029
Mof_C 	C 	0.5404	0.8353	0.98763	-0.041
Mof_H 	H 	0.5573	0.8503	0.9975	0.03
Mof_C 	C 	0.5213	0.8522	0.97731	-0.007
Mof_H 	H 	0.5252	0.8788	0.9802	0.025
Mof_C 	C 	0.4724	0.8458	0.952	0.14
Mof_C 	C 	0.5391	0.7895	0.0473	0.001
Mof_C 	C 	0.521	0.7805	0.0304	-0.151
Mof_H 	H 	0.527	0.7971	0.0567	0.024
Mof_H 	H 	0.4966	0.782	0.0282	0.064
Mof_O 	O 	0.52312	0.40368	0.45613	-0.384
Mof_O 	O 	0.50108	0.42551	0.42476	-0.385
Mof_C 	C 	0.5327	0.3766	0.4532	0.124
Mof_O 	O 	0.55255	0.37368	0.43989	-0.373
Mof_C 	C 	0.5216	0.3409	0.46599	-0.021
Mof_C 	C 	0.5257	0.3062	0.46282	-0.02
Mof_C 	C 	0.5012	0.3427	0.4813	-0.009
Mof_O 	O 	0.53026	0.39619	0.40829	-0.374
Mof_H 	H 	0.5396	0.305	0.4523	0.025
Mof_C 	C 	0.5095	0.2735	0.475	-0.012
Mof_C 	C 	0.485	0.31	0.49349	-0.064
Mof_H 	H 	0.4984	0.3664	0.4835	0.033
Mof_C 	C 	0.4892	0.2753	0.49032	0.063
Mof_H 	H 	0.4711	0.3112	0.504	0.038
Mof_C 	C 	0.4256	0.1927	0.5197	-0.059
Mof_H 	H 	0.4135	0.173	0.5103	0.069
Mof_C 	C 	0.4075	0.1836	0.5367	0.013
Mof_H 	H 	0.3831	0.1577	0.5388	0.033
Mof_C 	C 	0.3662	0.2145	0.6087	-0.061
Mof_H 	H 	0.3719	0.2391	0.6025	0.053
Mof_C 	C 	0.3499	0.2076	0.6265	0.003
Mof_C 	C 	0.3472	0.2388	0.6353	0.006
Mof_C 	C 	0.3446	0.2664	0.6411	-0.039
Mof_C 	C 	0.3364	0.2988	0.64635	0.025
Mof_C 	C 	0.3176	0.2999	0.6623	-0.208
Mof_C 	C 	0.3516	0.3321	0.63451	0.14
Mof_C 	C 	0.3139	0.3344	0.66641	0.276
Mof_H 	H 	0.3073	0.2771	0.6704	0.098
Mof_H 	H 	0.3645	0.3313	0.6236	-0.022
Mof_C 	C 	0.3479	0.3666	0.63862	-0.231
Mof_C 	C 	0.2891	0.3304	0.68248	-0.367
Mof_C 	C 	0.329	0.3678	0.65457	-0.072
Mof_C 	C 	0.3656	0.4047	0.6258	0.221
Mof_C 	C 	0.257	0.2924	0.68853	0.119
Mof_C 	C 	0.2984	0.3668	0.69152	0.169
Mof_H 	H 	0.3265	0.3914	0.6574	0.038
Mof_C 	C 	0.3937	0.4083	0.61259	-0.188
Mof_C 	C 	0.3539	0.4347	0.62734	-0.088
Mof_C 	C 	0.2342	0.2908	0.70362	0.061
Mof_H 	H 	0.2506	0.2675	0.6823	0.012
Mof_H 	H 	0.3203	0.3927	0.6874	-0.042
Mof_C 	C 	0.2756	0.3652	0.70662	0.118
Mof_C 	C 	0.4101	0.4421	0.60092	-0.133
Mof_H 	H 	0.4017	0.3878	0.6115	0.087
Mof_H 	H 	0.3347	0.4322	0.6364	0.052
Mof_C 	C 	0.3703	0.4685	0.61567	-0.147
Mof_C 	C 	0.2435	0.3272	0.71266	-0.194
Mof_H 	H 	0.2123	0.2648	0.7078	0.028
Mof_H 	H 	0.282	0.39	0.7128	-0.048
Mof_C 	C 	0.3984	0.4721	0.60246	0.147
Mof_H 	H 	0.4293	0.4446	0.5919	0.074
Mof_H 	H 	0.3623	0.489	0.6167	0.084
Mof_C 	C 	0.2117	0.322	0.727	0.107
Mof_C 	C 	0.408	0.5047	0.5886	0.128
Mof_O 	O 	0.18062	0.28732	0.73152	-0.387
Mof_O 	O 	0.21624	0.35758	0.73128	-0.37
Mof_C 	C 	0.2844	0.3174	0.65952	-0.212
Mof_C 	C 	0.2836	0.2814	0.65373	0.093
Mof_H 	H 	0.2708	0.2571	0.6609	-0.013
Mof_C 	C 	0.3015	0.2811	0.63739	0.034
Mof_C 	C 	0.3203	0.3167	0.62684	-0.276
Mof_H 	H 	0.3325	0.3164	0.6157	0.119
Mof_C 	C 	0.3211	0.3527	0.63262	0.277
Mof_C 	C 	0.3032	0.353	0.64896	-0.049
Mof_H 	H 	0.3037	0.3776	0.6529	0.038
Mof_C 	C 	0.3043	0.245	0.6312	0.016
Mof_C 	C 	0.3003	0.2148	0.6237	-0.077
Mof_C 	C 	0.3055	0.183	0.6154	0.158
Mof_C 	C 	0.3211	0.1943	0.5978	-0.172
Mof_H 	H 	0.326	0.2193	0.5922	0.088
Mof_C 	C 	0.3908	0.1779	0.5108	-0.088
Mof_H 	H 	0.3796	0.1592	0.5009	0.048
Mof_C 	C 	0.3694	0.1685	0.527	-0.024
Mof_H 	H 	0.3429	0.144	0.5279	0.031
Mof_C 	C 	0.3856	0.1937	0.5413	-0.018
Mof_C 	C 	0.4233	0.2328	0.5395	0.003
Mof_H 	H 	0.4334	0.252	0.5492	0.032
Mof_C 	C 	0.4447	0.2421	0.5233	-0.048
Mof_H 	H 	0.4704	0.2674	0.522	0.092
Mof_C 	C 	0.202	0.3217	0.7248	0.152
Mof_C 	C 	0.2237	0.3198	0.70785	0.187
Mof_C 	C 	0.2093	0.2824	0.69872	-0.089
Mof_H 	H 	0.186	0.2578	0.7031	0.058
Mof_C 	C 	0.2291	0.2811	0.6831	-0.316
Mof_H 	H 	0.2193	0.2555	0.6769	0.126
Mof_C 	C 	0.2632	0.3171	0.67662	0.357
Mof_C 	C 	0.2776	0.3544	0.68575	-0.105
Mof_H 	H 	0.3009	0.379	0.6813	0.034
Mof_C 	C 	0.2578	0.3558	0.70137	-0.166
Mof_H 	H 	0.2675	0.3813	0.7076	0.09
Mof_C 	C 	0.3728	0.4598	0.59798	-0.181
Mof_C 	C 	0.3844	0.4298	0.59552	0.092
Mof_H 	H 	0.4044	0.4337	0.5866	0.01
Mof_C 	C 	0.3667	0.3942	0.60606	0.09
Mof_H 	H 	0.3746	0.3737	0.6044	-0.007
Mof_C 	C 	0.3375	0.3884	0.61908	-0.204
Mof_C 	C 	0.3259	0.4184	0.62154	-0.004
Mof_H 	H 	0.306	0.4145	0.6304	0.016
Mof_C 	C 	0.3436	0.454	0.611	0.16
Mof_H 	H 	0.3357	0.4745	0.6127	-0.036
Mof_C 	C 	0.4008	0.4991	0.5875	0.132
Mof_C 	C 	0.5035	0.3336	0.4628	-0.014
Mof_C 	C 	0.5092	0.3003	0.4586	-0.011
Mof_H 	H 	0.5261	0.3022	0.4487	0.035
Mof_C 	C 	0.4901	0.2643	0.4689	-0
Mof_C 	C 	0.4653	0.2616	0.48343	0.029
Mof_C 	C 	0.4596	0.2949	0.48763	-0.041
Mof_H 	H 	0.4427	0.293	0.4975	0.03
Mof_C 	C 	0.4787	0.3309	0.47731	-0.007
Mof_H 	H 	0.4748	0.3536	0.4802	0.025
Mof_C 	C 	0.5276	0.3734	0.452	0.14
Mof_C 	C 	0.4609	0.2504	0.5473	0.001
Mof_C 	C 	0.479	0.2595	0.5304	-0.151
Mof_H 	H 	0.473	0.2701	0.5567	0.024
Mof_H 	H 	0.5034	0.2854	0.5282	0.064
Mof_O 	O 	0.59632	0.11944	0.45613	-0.384
Mof_O 	O 	0.57449	0.07557	0.42476	-0.385
Mof_C 	C 	0.6234	0.1561	0.4532	0.124
Mof_O 	O 	0.62632	0.17887	0.43989	-0.373
Mof_C 	C 	0.6591	0.1807	0.46599	-0.021
Mof_C 	C 	0.6938	0.2195	0.46282	-0.02
Mof_C 	C 	0.6573	0.1585	0.4813	-0.009
Mof_O 	O 	0.60381	0.13407	0.40829	-0.374
Mof_H 	H 	0.695	0.2346	0.4523	0.025
Mof_C 	C 	0.7265	0.236	0.475	-0.012
Mof_C 	C 	0.69	0.175	0.49349	-0.064
Mof_H 	H 	0.6336	0.132	0.4835	0.033
Mof_C 	C 	0.7247	0.2139	0.49032	0.063
Mof_H 	H 	0.6888	0.1599	0.504	0.038
Mof_C 	C 	0.8073	0.2329	0.5197	-0.059
Mof_H 	H 	0.827	0.2405	0.5103	0.069
Mof_C 	C 	0.8164	0.2239	0.5367	0.013
Mof_H 	H 	0.8423	0.2254	0.5388	0.033
Mof_C 	C 	0.7855	0.1517	0.6087	-0.061
Mof_H 	H 	0.7609	0.1328	0.6025	0.053
Mof_C 	C 	0.7924	0.1423	0.6265	0.003
Mof_C 	C 	0.7612	0.1084	0.6353	0.006
Mof_C 	C 	0.7336	0.0782	0.6411	-0.039
Mof_C 	C 	0.7012	0.0376	0.64635	0.025
Mof_C 	C 	0.7001	0.0177	0.6623	-0.208
Mof_C 	C 	0.6679	0.0195	0.63451	0.14
Mof_C 	C 	0.6656	0.9795	0.66641	0.276
Mof_H 	H 	0.7229	0.0302	0.6704	0.098
Mof_H 	H 	0.6687	0.0332	0.6236	-0.022
Mof_C 	C 	0.6334	0.9813	0.63862	-0.231
Mof_C 	C 	0.6696	0.9587	0.68248	-0.368
Mof_C 	C 	0.6322	0.9612	0.65457	-0.072
Mof_C 	C 	0.5953	0.9609	0.6258	0.221
Mof_C 	C 	0.7076	0.9646	0.68853	0.119
Mof_C 	C 	0.6332	0.9316	0.69152	0.169
Mof_H 	H 	0.6086	0.9351	0.6574	0.038
Mof_C 	C 	0.5917	0.9854	0.61259	-0.188
Mof_C 	C 	0.5653	0.9192	0.62734	-0.088
Mof_C 	C 	0.7092	0.9434	0.70362	0.061
Mof_H 	H 	0.7325	0.9831	0.6823	0.012
Mof_H 	H 	0.6073	0.9276	0.6874	-0.042
Mof_C 	C 	0.6348	0.9104	0.70662	0.118
Mof_C 	C 	0.5579	0.968	0.60092	-0.133
Mof_H 	H 	0.6122	0.0139	0.6115	0.087
Mof_H 	H 	0.5678	0.9025	0.6364	0.052
Mof_C 	C 	0.5315	0.9018	0.61567	-0.147
Mof_C 	C 	0.6728	0.9163	0.71266	-0.194
Mof_H 	H 	0.7352	0.9475	0.7078	0.028
Mof_H 	H 	0.61	0.892	0.7128	-0.048
Mof_C 	C 	0.5279	0.9263	0.60246	0.147
Mof_H 	H 	0.5554	0.9847	0.5919	0.074
Mof_H 	H 	0.511	0.8733	0.6167	0.084
Mof_C 	C 	0.678	0.8897	0.727	0.107
Mof_C 	C 	0.4953	0.9033	0.5886	0.128
Mof_O 	O 	0.71268	0.8933	0.73152	-0.387
Mof_O 	O 	0.64242	0.85866	0.73128	-0.37
Mof_C 	C 	0.6826	0.967	0.65952	-0.212
Mof_C 	C 	0.7186	0.0022	0.65373	0.093
Mof_H 	H 	0.7429	0.0137	0.6609	-0.013
Mof_C 	C 	0.7189	0.0204	0.63739	0.034
Mof_C 	C 	0.6833	0.0036	0.62684	-0.276
Mof_H 	H 	0.6836	0.0161	0.6157	0.119
Mof_C 	C 	0.6473	0.9684	0.63262	0.277
Mof_C 	C 	0.647	0.9502	0.64896	-0.049
Mof_H 	H 	0.6224	0.9261	0.6529	0.038
Mof_C 	C 	0.755	0.0593	0.6312	0.016
Mof_C 	C 	0.7852	0.0855	0.6237	-0.077
Mof_C 	C 	0.817	0.1225	0.6154	0.158
Mof_C 	C 	0.8057	0.1268	0.5978	-0.172
Mof_H 	H 	0.7807	0.1067	0.5922	0.088
Mof_C 	C 	0.8221	0.2129	0.5108	-0.088
Mof_H 	H 	0.8408	0.2204	0.5009	0.048
Mof_C 	C 	0.8315	0.2009	0.527	-0.024
Mof_H 	H 	0.856	0.1989	0.5279	0.031
Mof_C 	C 	0.8063	0.1919	0.5413	-0.018
Mof_C 	C 	0.7672	0.1905	0.5395	0.003
Mof_H 	H 	0.748	0.1814	0.5492	0.032
Mof_C 	C 	0.7579	0.2026	0.5233	-0.048
Mof_H 	H 	0.7326	0.203	0.522	0.092
Mof_C 	C 	0.6783	0.8803	0.7248	0.152
Mof_C 	C 	0.6802	0.9039	0.70785	0.187
Mof_C 	C 	0.7176	0.9269	0.69872	-0.089
Mof_H 	H 	0.7422	0.9282	0.7031	0.058
Mof_C 	C 	0.7189	0.948	0.6831	-0.316
Mof_H 	H 	0.7445	0.9638	0.6769	0.126
Mof_C 	C 	0.6829	0.9461	0.67662	0.357
Mof_C 	C 	0.6456	0.9232	0.68575	-0.105
Mof_H 	H 	0.621	0.9219	0.6813	0.034
Mof_C 	C 	0.6442	0.902	0.70137	-0.166
Mof_H 	H 	0.6187	0.8862	0.7076	0.09
Mof_C 	C 	0.5402	0.913	0.59798	-0.181
Mof_C 	C 	0.5702	0.9546	0.59552	0.092
Mof_H 	H 	0.5663	0.9707	0.5866	0.01
Mof_C 	C 	0.6058	0.9725	0.60606	0.09
Mof_H 	H 	0.6263	0.0009	0.6044	-0.007
Mof_C 	C 	0.6116	0.9491	0.61908	-0.204
Mof_C 	C 	0.5816	0.9075	0.62154	-0.004
Mof_H 	H 	0.5855	0.8915	0.6304	0.016
Mof_C 	C 	0.546	0.8896	0.611	0.16
Mof_H 	H 	0.5255	0.8612	0.6127	-0.036
Mof_C 	C 	0.5009	0.9017	0.5875	0.132
Mof_C 	C 	0.6664	0.1699	0.4628	-0.014
Mof_C 	C 	0.6997	0.2089	0.4586	-0.011
Mof_H 	H 	0.6978	0.2239	0.4487	0.035
Mof_C 	C 	0.7357	0.2258	0.4689	-0
Mof_C 	C 	0.7384	0.2037	0.48343	0.029
Mof_C 	C 	0.7051	0.1647	0.48763	-0.041
Mof_H 	H 	0.707	0.1497	0.4975	0.03
Mof_C 	C 	0.6691	0.1478	0.47731	-0.007
Mof_H 	H 	0.6464	0.1212	0.4802	0.025
Mof_C 	C 	0.6266	0.1542	0.452	0.14
Mof_C 	C 	0.7496	0.2105	0.5473	0.001
Mof_C 	C 	0.7405	0.2195	0.5304	-0.151
Mof_H 	H 	0.7299	0.2029	0.5567	0.024
Mof_H 	H 	0.7146	0.218	0.5282	0.064
Mof_O 	O 	0.88056	0.47688	0.45613	-0.384
Mof_O 	O 	0.92443	0.49892	0.42476	-0.385
Mof_C 	C 	0.8439	0.4673	0.4532	0.124
Mof_O 	O 	0.82113	0.44745	0.43989	-0.373
Mof_C 	C 	0.8193	0.4784	0.46599	-0.021
Mof_C 	C 	0.7805	0.4743	0.46282	-0.02
Mof_C 	C 	0.8415	0.4988	0.4813	-0.009
Mof_O 	O 	0.86593	0.46974	0.40829	-0.374
Mof_H 	H 	0.7654	0.4604	0.4523	0.025
Mof_C 	C 	0.764	0.4905	0.475	-0.012
Mof_C 	C 	0.825	0.515	0.49349	-0.064
Mof_H 	H 	0.868	0.5016	0.4835	0.033
Mof_C 	C 	0.7861	0.5108	0.49032	0.063
Mof_H 	H 	0.8401	0.5289	0.504	0.038
Mof_C 	C 	0.7671	0.5744	0.5197	-0.059
Mof_H 	H 	0.7595	0.5865	0.5103	0.069
Mof_C 	C 	0.7761	0.5925	0.5367	0.013
Mof_H 	H 	0.7746	0.6169	0.5388	0.033
Mof_C 	C 	0.8483	0.6338	0.6087	-0.061
Mof_H 	H 	0.8672	0.6281	0.6025	0.053
Mof_C 	C 	0.8577	0.6501	0.6265	0.003
Mof_C 	C 	0.8916	0.6528	0.6353	0.006
Mof_C 	C 	0.9218	0.6554	0.6411	-0.039
Mof_C 	C 	0.9624	0.6636	0.64635	0.025
Mof_C 	C 	0.9823	0.6824	0.6623	-0.208
Mof_C 	C 	0.9805	0.6484	0.63451	0.14
Mof_C 	C 	0.0205	0.6861	0.66641	0.276
Mof_H 	H 	0.9698	0.6927	0.6704	0.098
Mof_H 	H 	0.9668	0.6355	0.6236	-0.022
Mof_C 	C 	0.0187	0.6521	0.63862	-0.231
Mof_C 	C 	0.0413	0.7109	0.68248	-0.368
Mof_C 	C 	0.0388	0.671	0.65457	-0.072
Mof_C 	C 	0.0391	0.6344	0.6258	0.221
Mof_C 	C 	0.0354	0.743	0.68853	0.119
Mof_C 	C 	0.0684	0.7016	0.69152	0.169
Mof_H 	H 	0.0649	0.6735	0.6574	0.038
Mof_C 	C 	0.0146	0.6063	0.61259	-0.188
Mof_C 	C 	0.0808	0.6461	0.62734	-0.088
Mof_C 	C 	0.0566	0.7658	0.70362	0.061
Mof_H 	H 	0.0169	0.7494	0.6823	0.012
Mof_H 	H 	0.0724	0.6797	0.6874	-0.042
Mof_C 	C 	0.0896	0.7244	0.70662	0.118
Mof_C 	C 	0.032	0.5899	0.60092	-0.133
Mof_H 	H 	0.9861	0.5983	0.6115	0.087
Mof_H 	H 	0.0975	0.6653	0.6364	0.052
Mof_C 	C 	0.0982	0.6297	0.61567	-0.147
Mof_C 	C 	0.0837	0.7565	0.71266	-0.194
Mof_H 	H 	0.0525	0.7877	0.7078	0.028
Mof_H 	H 	0.108	0.718	0.7128	-0.048
Mof_C 	C 	0.0737	0.6016	0.60246	0.147
Mof_H 	H 	0.0153	0.5707	0.5919	0.074
Mof_H 	H 	0.1267	0.6377	0.6167	0.084
Mof_C 	C 	0.1103	0.7883	0.727	0.107
Mof_C 	C 	0.0967	0.592	0.5886	0.128
Mof_O 	O 	0.1067	0.81938	0.73152	-0.387
Mof_O 	O 	0.14134	0.78376	0.73128	-0.37
Mof_C 	C 	0.033	0.7156	0.65952	-0.212
Mof_C 	C 	0.9978	0.7164	0.65373	0.093
Mof_H 	H 	0.9863	0.7292	0.6609	-0.013
Mof_C 	C 	0.9796	0.6985	0.63739	0.034
Mof_C 	C 	0.9964	0.6797	0.62684	-0.276
Mof_H 	H 	0.9839	0.6675	0.6157	0.119
Mof_C 	C 	0.0316	0.6789	0.63262	0.277
Mof_C 	C 	0.0498	0.6968	0.64896	-0.049
Mof_H 	H 	0.0739	0.6963	0.6529	0.038
Mof_C 	C 	0.9407	0.6957	0.6312	0.016
Mof_C 	C 	0.9145	0.6997	0.6237	-0.077
Mof_C 	C 	0.8775	0.6945	0.6154	0.158
Mof_C 	C 	0.8732	0.6789	0.5978	-0.172
Mof_H 	H 	0.8933	0.674	0.5922	0.088
Mof_C 	C 	0.7871	0.6092	0.5108	-0.088
Mof_H 	H 	0.7796	0.6204	0.5009	0.048
Mof_C 	C 	0.7991	0.6306	0.527	-0.024
Mof_H 	H 	0.8011	0.6571	0.5279	0.031
Mof_C 	C 	0.8081	0.6144	0.5413	-0.018
Mof_C 	C 	0.8095	0.5767	0.5395	0.003
Mof_H 	H 	0.8186	0.5666	0.5492	0.032
Mof_C 	C 	0.7974	0.5553	0.5233	-0.048
Mof_H 	H 	0.797	0.5296	0.522	0.092
Mof_C 	C 	0.1197	0.798	0.7248	0.152
Mof_C 	C 	0.0961	0.7763	0.70785	0.187
Mof_C 	C 	0.0731	0.7907	0.69872	-0.089
Mof_H 	H 	0.0718	0.814	0.7031	0.058
Mof_C 	C 	0.052	0.7709	0.6831	-0.316
Mof_H 	H 	0.0362	0.7807	0.6769	0.126
Mof_C 	C 	0.0539	0.7368	0.67662	0.357
Mof_C 	C 	0.0768	0.7224	0.68575	-0.105
Mof_H 	H 	0.0781	0.6991	0.6813	0.034
Mof_C 	C 	0.098	0.7422	0.70137	-0.166
Mof_H 	H 	0.1138	0.7325	0.7076	0.09
Mof_C 	C 	0.087	0.6272	0.59798	-0.181
Mof_C 	C 	0.0454	0.6156	0.59552	0.092
Mof_H 	H 	0.0293	0.5956	0.5866	0.01
Mof_C 	C 	0.0275	0.6333	0.60606	0.09
Mof_H 	H 	0.9991	0.6254	0.6044	-0.007
Mof_C 	C 	0.0509	0.6625	0.61908	-0.204
Mof_C 	C 	0.0925	0.6741	0.62154	-0.004
Mof_H 	H 	0.1085	0.694	0.6304	0.016
Mof_C 	C 	0.1104	0.6564	0.611	0.16
Mof_H 	H 	0.1388	0.6643	0.6127	-0.036
Mof_C 	C 	0.0983	0.5992	0.5875	0.132
Mof_C 	C 	0.8301	0.4965	0.4628	-0.014
Mof_C 	C 	0.7911	0.4908	0.4586	-0.011
Mof_H 	H 	0.7761	0.4739	0.4487	0.035
Mof_C 	C 	0.7742	0.5099	0.4689	-0
Mof_C 	C 	0.7963	0.5347	0.48343	0.029
Mof_C 	C 	0.8353	0.5404	0.48763	-0.041
Mof_H 	H 	0.8503	0.5573	0.4975	0.03
Mof_C 	C 	0.8522	0.5213	0.47731	-0.007
Mof_H 	H 	0.8788	0.5252	0.4802	0.025
Mof_C 	C 	0.8458	0.4724	0.452	0.14
Mof_C 	C 	0.7895	0.5391	0.5473	0.001
Mof_C 	C 	0.7805	0.521	0.5304	-0.151
Mof_H 	H 	0.7971	0.527	0.5567	0.024
Mof_H 	H 	0.782	0.4966	0.5282	0.064
Mof_O 	O 	0.47688	0.59632	0.95613	-0.384
Mof_O 	O 	0.49892	0.57449	0.92476	-0.385
Mof_C 	C 	0.4673	0.6234	0.9532	0.124
Mof_O 	O 	0.44745	0.62632	0.93989	-0.373
Mof_C 	C 	0.4784	0.6591	0.96599	-0.021
Mof_C 	C 	0.4743	0.6938	0.96282	-0.02
Mof_C 	C 	0.4988	0.6573	0.9813	-0.009
Mof_O 	O 	0.46974	0.60381	0.90829	-0.374
Mof_H 	H 	0.4604	0.695	0.9523	0.025
Mof_C 	C 	0.4905	0.7265	0.975	-0.012
Mof_C 	C 	0.515	0.69	0.99349	-0.064
Mof_H 	H 	0.5016	0.6336	0.9835	0.033
Mof_C 	C 	0.5108	0.7247	0.99032	0.063
Mof_H 	H 	0.5289	0.6888	0.004	0.038
Mof_C 	C 	0.5744	0.8073	0.0197	-0.059
Mof_H 	H 	0.5865	0.827	0.0103	0.069
Mof_C 	C 	0.5925	0.8164	0.0367	0.013
Mof_H 	H 	0.6169	0.8423	0.0388	0.033
Mof_C 	C 	0.6338	0.7855	0.1087	-0.061
Mof_H 	H 	0.6281	0.7609	0.1025	0.053
Mof_C 	C 	0.6501	0.7924	0.1265	0.003
Mof_C 	C 	0.6528	0.7612	0.1353	0.006
Mof_C 	C 	0.6554	0.7336	0.1411	-0.039
Mof_C 	C 	0.6636	0.7012	0.14635	0.025
Mof_C 	C 	0.6824	0.7001	0.1623	-0.208
Mof_C 	C 	0.6484	0.6679	0.13451	0.14
Mof_C 	C 	0.6861	0.6656	0.16641	0.276
Mof_H 	H 	0.6927	0.7229	0.1704	0.098
Mof_H 	H 	0.6355	0.6687	0.1236	-0.022
Mof_C 	C 	0.6521	0.6334	0.13862	-0.231
Mof_C 	C 	0.7109	0.6696	0.18248	-0.367
Mof_C 	C 	0.671	0.6322	0.15457	-0.072
Mof_C 	C 	0.6344	0.5953	0.1258	0.221
Mof_C 	C 	0.743	0.7076	0.18853	0.119
Mof_C 	C 	0.7016	0.6332	0.19152	0.169
Mof_H 	H 	0.6735	0.6086	0.1574	0.038
Mof_C 	C 	0.6063	0.5917	0.11259	-0.188
Mof_C 	C 	0.6461	0.5653	0.12734	-0.088
Mof_C 	C 	0.7658	0.7092	0.20362	0.061
Mof_H 	H 	0.7494	0.7325	0.1823	0.012
Mof_H 	H 	0.6797	0.6073	0.1874	-0.042
Mof_C 	C 	0.7244	0.6348	0.20662	0.118
Mof_C 	C 	0.5899	0.5579	0.10092	-0.133
Mof_H 	H 	0.5983	0.6122	0.1115	0.087
Mof_H 	H 	0.6653	0.5678	0.1364	0.052
Mof_C 	C 	0.6297	0.5315	0.11567	-0.147
Mof_C 	C 	0.7565	0.6728	0.21266	-0.194
Mof_H 	H 	0.7877	0.7352	0.2078	0.028
Mof_H 	H 	0.718	0.61	0.2128	-0.048
Mof_C 	C 	0.6016	0.5279	0.10246	0.147
Mof_H 	H 	0.5707	0.5554	0.0919	0.074
Mof_H 	H 	0.6377	0.511	0.1167	0.084
Mof_C 	C 	0.7883	0.678	0.227	0.107
Mof_C 	C 	0.592	0.4953	0.0886	0.128
Mof_O 	O 	0.81938	0.71268	0.23152	-0.387
Mof_O 	O 	0.78376	0.64242	0.23128	-0.37
Mof_C 	C 	0.7156	0.6826	0.15952	-0.212
Mof_C 	C 	0.7164	0.7186	0.15373	0.093
Mof_H 	H 	0.7292	0.7429	0.1609	-0.013
Mof_C 	C 	0.6985	0.7189	0.13739	0.034
Mof_C 	C 	0.6797	0.6833	0.12684	-0.276
Mof_H 	H 	0.6675	0.6836	0.1157	0.119
Mof_C 	C 	0.6789	0.6473	0.13262	0.277
Mof_C 	C 	0.6968	0.647	0.14896	-0.049
Mof_H 	H 	0.6963	0.6224	0.1529	0.038
Mof_C 	C 	0.6957	0.755	0.1312	0.016
Mof_C 	C 	0.6997	0.7852	0.1237	-0.077
Mof_C 	C 	0.6945	0.817	0.1154	0.158
Mof_C 	C 	0.6789	0.8057	0.0978	-0.172
Mof_H 	H 	0.674	0.7807	0.0922	0.088
Mof_C 	C 	0.6092	0.8221	0.0108	-0.088
Mof_H 	H 	0.6204	0.8408	0.0009	0.048
Mof_C 	C 	0.6306	0.8315	0.027	-0.024
Mof_H 	H 	0.6571	0.856	0.0279	0.031
Mof_C 	C 	0.6144	0.8063	0.0413	-0.018
Mof_C 	C 	0.5767	0.7672	0.0395	0.003
Mof_H 	H 	0.5666	0.748	0.0492	0.032
Mof_C 	C 	0.5553	0.7579	0.0233	-0.048
Mof_H 	H 	0.5296	0.7326	0.022	0.092
Mof_C 	C 	0.798	0.6783	0.2248	0.152
Mof_C 	C 	0.7763	0.6802	0.20785	0.187
Mof_C 	C 	0.7907	0.7176	0.19872	-0.089
Mof_H 	H 	0.814	0.7422	0.2031	0.058
Mof_C 	C 	0.7709	0.7189	0.1831	-0.316
Mof_H 	H 	0.7807	0.7445	0.1769	0.126
Mof_C 	C 	0.7368	0.6829	0.17662	0.357
Mof_C 	C 	0.7224	0.6456	0.18575	-0.105
Mof_H 	H 	0.6991	0.621	0.1813	0.034
Mof_C 	C 	0.7422	0.6442	0.20137	-0.166
Mof_H 	H 	0.7325	0.6187	0.2076	0.09
Mof_C 	C 	0.6272	0.5402	0.09798	-0.181
Mof_C 	C 	0.6156	0.5702	0.09552	0.092
Mof_H 	H 	0.5956	0.5663	0.0866	0.01
Mof_C 	C 	0.6333	0.6058	0.10606	0.09
Mof_H 	H 	0.6254	0.6263	0.1044	-0.007
Mof_C 	C 	0.6625	0.6116	0.11908	-0.204
Mof_C 	C 	0.6741	0.5816	0.12154	-0.004
Mof_H 	H 	0.694	0.5855	0.1304	0.016
Mof_C 	C 	0.6564	0.546	0.111	0.16
Mof_H 	H 	0.6643	0.5255	0.1127	-0.036
Mof_C 	C 	0.5992	0.5009	0.0875	0.132
Mof_C 	C 	0.4965	0.6664	0.9628	-0.014
Mof_C 	C 	0.4908	0.6997	0.9586	-0.011
Mof_H 	H 	0.4739	0.6978	0.9487	0.035
Mof_C 	C 	0.5099	0.7357	0.9689	-0
Mof_C 	C 	0.5347	0.7384	0.98343	0.029
Mof_C 	C 	0.5404	0.7051	0.98763	-0.041
Mof_H 	H 	0.5573	0.707	0.9975	0.03
Mof_C 	C 	0.5213	0.6691	0.97731	-0.007
Mof_H 	H 	0.5252	0.6464	0.9802	0.025
Mof_C 	C 	0.4724	0.6266	0.952	0.14
Mof_C 	C 	0.5391	0.7496	0.0473	0.001
Mof_C 	C 	0.521	0.7405	0.0304	-0.151
Mof_H 	H 	0.527	0.7299	0.0567	0.024
Mof_H 	H 	0.4966	0.7146	0.0282	0.064
Mof_O 	O 	0.40368	0.88056	0.95613	-0.384
Mof_O 	O 	0.42551	0.92443	0.92476	-0.385
Mof_C 	C 	0.3766	0.8439	0.9532	0.124
Mof_O 	O 	0.37368	0.82113	0.93989	-0.373
Mof_C 	C 	0.3409	0.8193	0.96599	-0.021
Mof_C 	C 	0.3062	0.7805	0.96282	-0.02
Mof_C 	C 	0.3427	0.8415	0.9813	-0.009
Mof_O 	O 	0.39619	0.86593	0.90829	-0.374
Mof_H 	H 	0.305	0.7654	0.9523	0.025
Mof_C 	C 	0.2735	0.764	0.975	-0.012
Mof_C 	C 	0.31	0.825	0.99349	-0.064
Mof_H 	H 	0.3664	0.868	0.9835	0.033
Mof_C 	C 	0.2753	0.7861	0.99032	0.063
Mof_H 	H 	0.3112	0.8401	0.004	0.038
Mof_C 	C 	0.1927	0.7671	0.0197	-0.059
Mof_H 	H 	0.173	0.7595	0.0103	0.069
Mof_C 	C 	0.1836	0.7761	0.0367	0.013
Mof_H 	H 	0.1577	0.7746	0.0388	0.033
Mof_C 	C 	0.2145	0.8483	0.1087	-0.061
Mof_H 	H 	0.2391	0.8672	0.1025	0.053
Mof_C 	C 	0.2076	0.8577	0.1265	0.003
Mof_C 	C 	0.2388	0.8916	0.1353	0.006
Mof_C 	C 	0.2664	0.9218	0.1411	-0.039
Mof_C 	C 	0.2988	0.9624	0.14635	0.025
Mof_C 	C 	0.2999	0.9823	0.1623	-0.208
Mof_C 	C 	0.3321	0.9805	0.13451	0.14
Mof_C 	C 	0.3344	0.0205	0.16641	0.276
Mof_H 	H 	0.2771	0.9698	0.1704	0.098
Mof_H 	H 	0.3313	0.9668	0.1236	-0.022
Mof_C 	C 	0.3666	0.0187	0.13862	-0.231
Mof_C 	C 	0.3304	0.0413	0.18248	-0.368
Mof_C 	C 	0.3678	0.0388	0.15457	-0.072
Mof_C 	C 	0.4047	0.0391	0.1258	0.221
Mof_C 	C 	0.2924	0.0354	0.18853	0.119
Mof_C 	C 	0.3668	0.0684	0.19152	0.169
Mof_H 	H 	0.3914	0.0649	0.1574	0.038
Mof_C 	C 	0.4083	0.0146	0.11259	-0.188
Mof_C 	C 	0.4347	0.0808	0.12734	-0.088
Mof_C 	C 	0.2908	0.0566	0.20362	0.061
Mof_H 	H 	0.2675	0.0169	0.1823	0.012
Mof_H 	H 	0.3927	0.0724	0.1874	-0.042
Mof_C 	C 	0.3652	0.0896	0.20662	0.118
Mof_C 	C 	0.4421	0.032	0.10092	-0.133
Mof_H 	H 	0.3878	0.9861	0.1115	0.087
Mof_H 	H 	0.4322	0.0975	0.1364	0.052
Mof_C 	C 	0.4685	0.0982	0.11567	-0.147
Mof_C 	C 	0.3272	0.0837	0.21266	-0.194
Mof_H 	H 	0.2648	0.0525	0.2078	0.028
Mof_H 	H 	0.39	0.108	0.2128	-0.048
Mof_C 	C 	0.4721	0.0737	0.10246	0.147
Mof_H 	H 	0.4446	0.0153	0.0919	0.074
Mof_H 	H 	0.489	0.1267	0.1167	0.084
Mof_C 	C 	0.322	0.1103	0.227	0.107
Mof_C 	C 	0.5047	0.0967	0.0886	0.128
Mof_O 	O 	0.28732	0.1067	0.23152	-0.387
Mof_O 	O 	0.35758	0.14134	0.23128	-0.37
Mof_C 	C 	0.3174	0.033	0.15952	-0.212
Mof_C 	C 	0.2814	0.9978	0.15373	0.093
Mof_H 	H 	0.2571	0.9863	0.1609	-0.013
Mof_C 	C 	0.2811	0.9796	0.13739	0.034
Mof_C 	C 	0.3167	0.9964	0.12684	-0.276
Mof_H 	H 	0.3164	0.9839	0.1157	0.119
Mof_C 	C 	0.3527	0.0316	0.13262	0.277
Mof_C 	C 	0.353	0.0498	0.14896	-0.049
Mof_H 	H 	0.3776	0.0739	0.1529	0.038
Mof_C 	C 	0.245	0.9407	0.1312	0.016
Mof_C 	C 	0.2148	0.9145	0.1237	-0.077
Mof_C 	C 	0.183	0.8775	0.1154	0.158
Mof_C 	C 	0.1943	0.8732	0.0978	-0.172
Mof_H 	H 	0.2193	0.8933	0.0922	0.088
Mof_C 	C 	0.1779	0.7871	0.0108	-0.088
Mof_H 	H 	0.1592	0.7796	0.0009	0.048
Mof_C 	C 	0.1685	0.7991	0.027	-0.024
Mof_H 	H 	0.144	0.8011	0.0279	0.031
Mof_C 	C 	0.1937	0.8081	0.0413	-0.018
Mof_C 	C 	0.2328	0.8095	0.0395	0.003
Mof_H 	H 	0.252	0.8186	0.0492	0.032
Mof_C 	C 	0.2421	0.7974	0.0233	-0.048
Mof_H 	H 	0.2674	0.797	0.022	0.092
Mof_C 	C 	0.3217	0.1197	0.2248	0.152
Mof_C 	C 	0.3198	0.0961	0.20785	0.187
Mof_C 	C 	0.2824	0.0731	0.19872	-0.089
Mof_H 	H 	0.2578	0.0718	0.2031	0.058
Mof_C 	C 	0.2811	0.052	0.1831	-0.316
Mof_H 	H 	0.2555	0.0362	0.1769	0.126
Mof_C 	C 	0.3171	0.0539	0.17662	0.357
Mof_C 	C 	0.3544	0.0768	0.18575	-0.105
Mof_H 	H 	0.379	0.0781	0.1813	0.034
Mof_C 	C 	0.3558	0.098	0.20137	-0.166
Mof_H 	H 	0.3813	0.1138	0.2076	0.09
Mof_C 	C 	0.4598	0.087	0.09798	-0.181
Mof_C 	C 	0.4298	0.0454	0.09552	0.092
Mof_H 	H 	0.4337	0.0293	0.0866	0.01
Mof_C 	C 	0.3942	0.0275	0.10606	0.09
Mof_H 	H 	0.3737	0.9991	0.1044	-0.007
Mof_C 	C 	0.3884	0.0509	0.11908	-0.204
Mof_C 	C 	0.4184	0.0925	0.12154	-0.004
Mof_H 	H 	0.4145	0.1085	0.1304	0.016
Mof_C 	C 	0.454	0.1104	0.111	0.16
Mof_H 	H 	0.4745	0.1388	0.1127	-0.036
Mof_C 	C 	0.4991	0.0983	0.0875	0.132
Mof_C 	C 	0.3336	0.8301	0.9628	-0.014
Mof_C 	C 	0.3003	0.7911	0.9586	-0.011
Mof_H 	H 	0.3022	0.7761	0.9487	0.035
Mof_C 	C 	0.2643	0.7742	0.9689	-0
Mof_C 	C 	0.2616	0.7963	0.98343	0.029
Mof_C 	C 	0.2949	0.8353	0.98763	-0.041
Mof_H 	H 	0.293	0.8503	0.9975	0.03
Mof_C 	C 	0.3309	0.8522	0.97731	-0.007
Mof_H 	H 	0.3536	0.8788	0.9802	0.025
Mof_C 	C 	0.3734	0.8458	0.952	0.14
Mof_C 	C 	0.2504	0.7895	0.0473	0.001
Mof_C 	C 	0.2595	0.7805	0.0304	-0.151
Mof_H 	H 	0.2701	0.7971	0.0567	0.024
Mof_H 	H 	0.2854	0.782	0.0282	0.064
Mof_O 	O 	0.11944	0.52312	0.95613	-0.384
Mof_O 	O 	0.07557	0.50108	0.92476	-0.385
Mof_C 	C 	0.1561	0.5327	0.9532	0.124
Mof_O 	O 	0.17887	0.55255	0.93989	-0.373
Mof_C 	C 	0.1807	0.5216	0.96599	-0.021
Mof_C 	C 	0.2195	0.5257	0.96282	-0.02
Mof_C 	C 	0.1585	0.5012	0.9813	-0.009
Mof_O 	O 	0.13407	0.53026	0.90829	-0.374
Mof_H 	H 	0.2346	0.5396	0.9523	0.025
Mof_C 	C 	0.236	0.5095	0.975	-0.012
Mof_C 	C 	0.175	0.485	0.99349	-0.064
Mof_H 	H 	0.132	0.4984	0.9835	0.033
Mof_C 	C 	0.2139	0.4892	0.99032	0.063
Mof_H 	H 	0.1599	0.4711	0.004	0.038
Mof_C 	C 	0.2329	0.4256	0.0197	-0.059
Mof_H 	H 	0.2405	0.4135	0.0103	0.069
Mof_C 	C 	0.2239	0.4075	0.0367	0.013
Mof_H 	H 	0.2254	0.3831	0.0388	0.033
Mof_C 	C 	0.1517	0.3662	0.1087	-0.061
Mof_H 	H 	0.1328	0.3719	0.1025	0.053
Mof_C 	C 	0.1423	0.3499	0.1265	0.003
Mof_C 	C 	0.1084	0.3472	0.1353	0.006
Mof_C 	C 	0.0782	0.3446	0.1411	-0.039
Mof_C 	C 	0.0376	0.3364	0.14635	0.025
Mof_C 	C 	0.0177	0.3176	0.1623	-0.208
Mof_C 	C 	0.0195	0.3516	0.13451	0.14
Mof_C 	C 	0.9795	0.3139	0.16641	0.276
Mof_H 	H 	0.0302	0.3073	0.1704	0.098
Mof_H 	H 	0.0332	0.3645	0.1236	-0.022
Mof_C 	C 	0.9813	0.3479	0.13862	-0.231
Mof_C 	C 	0.9587	0.2891	0.18248	-0.368
Mof_C 	C 	0.9612	0.329	0.15457	-0.072
Mof_C 	C 	0.9609	0.3656	0.1258	0.221
Mof_C 	C 	0.9646	0.257	0.18853	0.119
Mof_C 	C 	0.9316	0.2984	0.19152	0.169
Mof_H 	H 	0.9351	0.3265	0.1574	0.038
Mof_C 	C 	0.9854	0.3937	0.11259	-0.188
Mof_C 	C 	0.9192	0.3539	0.12734	-0.088
Mof_C 	C 	0.9434	0.2342	0.20362	0.061
Mof_H 	H 	0.9831	0.2506	0.1823	0.012
Mof_H 	H 	0.9276	0.3203	0.1874	-0.042
Mof_C 	C 	0.9104	0.2756	0.20662	0.118
Mof_C 	C 	0.968	0.4101	0.10092	-0.133
Mof_H 	H 	0.0139	0.4017	0.1115	0.087
Mof_H 	H 	0.9025	0.3347	0.1364	0.052
Mof_C 	C 	0.9018	0.3703	0.11567	-0.147
Mof_C 	C 	0.9163	0.2435	0.21266	-0.194
Mof_H 	H 	0.9475	0.2123	0.2078	0.028
Mof_H 	H 	0.892	0.282	0.2128	-0.048
Mof_C 	C 	0.9263	0.3984	0.10246	0.147
Mof_H 	H 	0.9847	0.4293	0.0919	0.074
Mof_H 	H 	0.8733	0.3623	0.1167	0.084
Mof_C 	C 	0.8897	0.2117	0.227	0.107
Mof_C 	C 	0.9033	0.408	0.0886	0.128
Mof_O 	O 	0.8933	0.18062	0.23152	-0.387
Mof_O 	O 	0.85866	0.21624	0.23128	-0.37
Mof_C 	C 	0.967	0.2844	0.15952	-0.212
Mof_C 	C 	0.0022	0.2836	0.15373	0.093
Mof_H 	H 	0.0137	0.2708	0.1609	-0.013
Mof_C 	C 	0.0204	0.3015	0.13739	0.034
Mof_C 	C 	0.0036	0.3203	0.12684	-0.276
Mof_H 	H 	0.0161	0.3325	0.1157	0.119
Mof_C 	C 	0.9684	0.3211	0.13262	0.277
Mof_C 	C 	0.9502	0.3032	0.14896	-0.049
Mof_H 	H 	0.9261	0.3037	0.1529	0.038
Mof_C 	C 	0.0593	0.3043	0.1312	0.016
Mof_C 	C 	0.0855	0.3003	0.1237	-0.077
Mof_C 	C 	0.1225	0.3055	0.1154	0.158
Mof_C 	C 	0.1268	0.3211	0.0978	-0.172
Mof_H 	H 	0.1067	0.326	0.0922	0.088
Mof_C 	C 	0.2129	0.3908	0.0108	-0.088
Mof_H 	H 	0.2204	0.3796	0.0009	0.048
Mof_C 	C 	0.2009	0.3694	0.027	-0.024
Mof_H 	H 	0.1989	0.3429	0.0279	0.031
Mof_C 	C 	0.1919	0.3856	0.0413	-0.018
Mof_C 	C 	0.1905	0.4233	0.0395	0.003
Mof_H 	H 	0.1814	0.4334	0.0492	0.032
Mof_C 	C 	0.2026	0.4447	0.0233	-0.048
Mof_H 	H 	0.203	0.4704	0.022	0.092
Mof_C 	C 	0.8803	0.202	0.2248	0.152
Mof_C 	C 	0.9039	0.2237	0.20785	0.187
Mof_C 	C 	0.9269	0.2093	0.19872	-0.089
Mof_H 	H 	0.9282	0.186	0.2031	0.058
Mof_C 	C 	0.948	0.2291	0.1831	-0.316
Mof_H 	H 	0.9638	0.2193	0.1769	0.126
Mof_C 	C 	0.9461	0.2632	0.17662	0.357
Mof_C 	C 	0.9232	0.2776	0.18575	-0.105
Mof_H 	H 	0.9219	0.3009	0.1813	0.034
Mof_C 	C 	0.902	0.2578	0.20137	-0.166
Mof_H 	H 	0.8862	0.2675	0.2076	0.09
Mof_C 	C 	0.913	0.3728	0.09798	-0.181
Mof_C 	C 	0.9546	0.3844	0.09552	0.092
Mof_H 	H 	0.9707	0.4044	0.0866	0.01
Mof_C 	C 	0.9725	0.3667	0.10606	0.09
Mof_H 	H 	0.0009	0.3746	0.1044	-0.007
Mof_C 	C 	0.9491	0.3375	0.11908	-0.204
Mof_C 	C 	0.9075	0.3259	0.12154	-0.004
Mof_H 	H 	0.8915	0.306	0.1304	0.016
Mof_C 	C 	0.8896	0.3436	0.111	0.16
Mof_H 	H 	0.8612	0.3357	0.1127	-0.036
Mof_C 	C 	0.9017	0.4008	0.0875	0.132
Mof_C 	C 	0.1699	0.5035	0.9628	-0.014
Mof_C 	C 	0.2089	0.5092	0.9586	-0.011
Mof_H 	H 	0.2239	0.5261	0.9487	0.035
Mof_C 	C 	0.2258	0.4901	0.9689	-0
Mof_C 	C 	0.2037	0.4653	0.98343	0.029
Mof_C 	C 	0.1647	0.4596	0.98763	-0.041
Mof_H 	H 	0.1497	0.4427	0.9975	0.03
Mof_C 	C 	0.1478	0.4787	0.97731	-0.007
Mof_H 	H 	0.1212	0.4748	0.9802	0.025
Mof_C 	C 	0.1542	0.5276	0.952	0.14
Mof_C 	C 	0.2105	0.4609	0.0473	0.001
Mof_C 	C 	0.2195	0.479	0.0304	-0.151
Mof_H 	H 	0.2029	0.473	0.0567	0.024
Mof_H 	H 	0.218	0.5034	0.0282	0.064
Mof_O 	O 	0.40368	0.52312	0.54387	-0.384
Mof_O 	O 	0.42551	0.50108	0.57524	-0.385
Mof_C 	C 	0.3766	0.5327	0.5468	0.124
Mof_O 	O 	0.37368	0.55255	0.56011	-0.373
Mof_C 	C 	0.3409	0.5216	0.53401	-0.021
Mof_C 	C 	0.3062	0.5257	0.53718	-0.02
Mof_C 	C 	0.3427	0.5012	0.5187	-0.009
Mof_O 	O 	0.39619	0.53026	0.59171	-0.374
Mof_H 	H 	0.305	0.5396	0.5477	0.025
Mof_C 	C 	0.2735	0.5095	0.525	-0.012
Mof_C 	C 	0.31	0.485	0.50651	-0.064
Mof_H 	H 	0.3664	0.4984	0.5165	0.033
Mof_C 	C 	0.2753	0.4892	0.50968	0.063
Mof_H 	H 	0.3112	0.4711	0.496	0.038
Mof_C 	C 	0.1927	0.4256	0.4803	-0.059
Mof_H 	H 	0.173	0.4135	0.4897	0.069
Mof_C 	C 	0.1836	0.4075	0.4633	0.013
Mof_H 	H 	0.1577	0.3831	0.4612	0.033
Mof_C 	C 	0.2145	0.3662	0.3913	-0.061
Mof_H 	H 	0.2391	0.3719	0.3975	0.053
Mof_C 	C 	0.2076	0.3499	0.3735	0.003
Mof_C 	C 	0.2388	0.3472	0.3647	0.006
Mof_C 	C 	0.2664	0.3446	0.3589	-0.039
Mof_C 	C 	0.2988	0.3364	0.35365	0.025
Mof_C 	C 	0.2999	0.3176	0.3377	-0.208
Mof_C 	C 	0.3321	0.3516	0.36549	0.14
Mof_C 	C 	0.3344	0.3139	0.33359	0.276
Mof_H 	H 	0.2771	0.3073	0.3296	0.098
Mof_H 	H 	0.3313	0.3645	0.3764	-0.022
Mof_C 	C 	0.3666	0.3479	0.36138	-0.231
Mof_C 	C 	0.3304	0.2891	0.31752	-0.367
Mof_C 	C 	0.3678	0.329	0.34543	-0.072
Mof_C 	C 	0.4047	0.3656	0.3742	0.221
Mof_C 	C 	0.2924	0.257	0.31147	0.119
Mof_C 	C 	0.3668	0.2984	0.30848	0.169
Mof_H 	H 	0.3914	0.3265	0.3426	0.038
Mof_C 	C 	0.4083	0.3937	0.38741	-0.188
Mof_C 	C 	0.4347	0.3539	0.37266	-0.088
Mof_C 	C 	0.2908	0.2342	0.29638	0.061
Mof_H 	H 	0.2675	0.2506	0.3177	0.012
Mof_H 	H 	0.3927	0.3203	0.3126	-0.042
Mof_C 	C 	0.3652	0.2756	0.29338	0.118
Mof_C 	C 	0.4421	0.4101	0.39908	-0.133
Mof_H 	H 	0.3878	0.4017	0.3885	0.087
Mof_H 	H 	0.4322	0.3347	0.3636	0.052
Mof_C 	C 	0.4685	0.3703	0.38433	-0.147
Mof_C 	C 	0.3272	0.2435	0.28734	-0.194
Mof_H 	H 	0.2648	0.2123	0.2922	0.028
Mof_H 	H 	0.39	0.282	0.2872	-0.048
Mof_C 	C 	0.4721	0.3984	0.39754	0.147
Mof_H 	H 	0.4446	0.4293	0.4081	0.074
Mof_H 	H 	0.489	0.3623	0.3833	0.084
Mof_C 	C 	0.322	0.2117	0.273	0.107
Mof_C 	C 	0.5047	0.408	0.4114	0.128
Mof_O 	O 	0.28732	0.18062	0.26848	-0.387
Mof_O 	O 	0.35758	0.21624	0.26872	-0.37
Mof_C 	C 	0.3174	0.2844	0.34048	-0.212
Mof_C 	C 	0.2814	0.2836	0.34627	0.093
Mof_H 	H 	0.2571	0.2708	0.3391	-0.013
Mof_C 	C 	0.2811	0.3015	0.36261	0.034
Mof_C 	C 	0.3167	0.3203	0.37316	-0.276
Mof_H 	H 	0.3164	0.3325	0.3843	0.119
Mof_C 	C 	0.3527	0.3211	0.36738	0.277
Mof_C 	C 	0.353	0.3032	0.35104	-0.049
Mof_H 	H 	0.3776	0.3037	0.3471	0.038
Mof_C 	C 	0.245	0.3043	0.3688	0.016
Mof_C 	C 	0.2148	0.3003	0.3763	-0.077
Mof_C 	C 	0.183	0.3055	0.3846	0.158
Mof_C 	C 	0.1943	0.3211	0.4022	-0.172
Mof_H 	H 	0.2193	0.326	0.4078	0.088
Mof_C 	C 	0.1779	0.3908	0.4892	-0.088
Mof_H 	H 	0.1592	0.3796	0.4991	0.048
Mof_C 	C 	0.1685	0.3694	0.473	-0.024
Mof_H 	H 	0.144	0.3429	0.4721	0.031
Mof_C 	C 	0.1937	0.3856	0.4587	-0.018
Mof_C 	C 	0.2328	0.4233	0.4605	0.003
Mof_H 	H 	0.252	0.4334	0.4508	0.032
Mof_C 	C 	0.2421	0.4447	0.4767	-0.048
Mof_H 	H 	0.2674	0.4704	0.478	0.092
Mof_C 	C 	0.3217	0.202	0.2752	0.152
Mof_C 	C 	0.3198	0.2237	0.29215	0.187
Mof_C 	C 	0.2824	0.2093	0.30128	-0.089
Mof_H 	H 	0.2578	0.186	0.2969	0.058
Mof_C 	C 	0.2811	0.2291	0.3169	-0.316
Mof_H 	H 	0.2555	0.2193	0.3231	0.126
Mof_C 	C 	0.3171	0.2632	0.32338	0.357
Mof_C 	C 	0.3544	0.2776	0.31425	-0.105
Mof_H 	H 	0.379	0.3009	0.3187	0.034
Mof_C 	C 	0.3558	0.2578	0.29863	-0.166
Mof_H 	H 	0.3813	0.2675	0.2924	0.09
Mof_C 	C 	0.4598	0.3728	0.40202	-0.181
Mof_C 	C 	0.4298	0.3844	0.40448	0.092
Mof_H 	H 	0.4337	0.4044	0.4134	0.01
Mof_C 	C 	0.3942	0.3667	0.39394	0.09
Mof_H 	H 	0.3737	0.3746	0.3956	-0.007
Mof_C 	C 	0.3884	0.3375	0.38092	-0.204
Mof_C 	C 	0.4184	0.3259	0.37846	-0.004
Mof_H 	H 	0.4145	0.306	0.3696	0.016
Mof_C 	C 	0.454	0.3436	0.389	0.16
Mof_H 	H 	0.4745	0.3357	0.3873	-0.036
Mof_C 	C 	0.4991	0.4008	0.4125	0.132
Mof_C 	C 	0.3336	0.5035	0.5372	-0.014
Mof_C 	C 	0.3003	0.5092	0.5414	-0.011
Mof_H 	H 	0.3022	0.5261	0.5513	0.035
Mof_C 	C 	0.2643	0.4901	0.5311	-0
Mof_C 	C 	0.2616	0.4653	0.51657	0.029
Mof_C 	C 	0.2949	0.4596	0.51237	-0.041
Mof_H 	H 	0.293	0.4427	0.5025	0.03
Mof_C 	C 	0.3309	0.4787	0.52269	-0.007
Mof_H 	H 	0.3536	0.4748	0.5198	0.025
Mof_C 	C 	0.3734	0.5276	0.548	0.14
Mof_C 	C 	0.2504	0.4609	0.4527	0.001
Mof_C 	C 	0.2595	0.479	0.4696	-0.151
Mof_H 	H 	0.2701	0.473	0.4433	0.024
Mof_H 	H 	0.2854	0.5034	0.4718	0.064
Mof_O 	O 	0.11944	0.59632	0.54387	-0.384
Mof_O 	O 	0.07557	0.57449	0.57524	-0.385
Mof_C 	C 	0.1561	0.6234	0.5468	0.124
Mof_O 	O 	0.17887	0.62632	0.56011	-0.373
Mof_C 	C 	0.1807	0.6591	0.53401	-0.021
Mof_C 	C 	0.2195	0.6938	0.53718	-0.02
Mof_C 	C 	0.1585	0.6573	0.5187	-0.009
Mof_O 	O 	0.13407	0.60381	0.59171	-0.374
Mof_H 	H 	0.2346	0.695	0.5477	0.025
Mof_C 	C 	0.236	0.7265	0.525	-0.012
Mof_C 	C 	0.175	0.69	0.50651	-0.064
Mof_H 	H 	0.132	0.6336	0.5165	0.033
Mof_C 	C 	0.2139	0.7247	0.50968	0.063
Mof_H 	H 	0.1599	0.6888	0.496	0.038
Mof_C 	C 	0.2329	0.8073	0.4803	-0.059
Mof_H 	H 	0.2405	0.827	0.4897	0.069
Mof_C 	C 	0.2239	0.8164	0.4633	0.013
Mof_H 	H 	0.2254	0.8423	0.4612	0.033
Mof_C 	C 	0.1517	0.7855	0.3913	-0.061
Mof_H 	H 	0.1328	0.7609	0.3975	0.053
Mof_C 	C 	0.1423	0.7924	0.3735	0.003
Mof_C 	C 	0.1084	0.7612	0.3647	0.006
Mof_C 	C 	0.0782	0.7336	0.3589	-0.039
Mof_C 	C 	0.0376	0.7012	0.35365	0.025
Mof_C 	C 	0.0177	0.7001	0.3377	-0.208
Mof_C 	C 	0.0195	0.6679	0.36549	0.14
Mof_C 	C 	0.9795	0.6656	0.33359	0.276
Mof_H 	H 	0.0302	0.7229	0.3296	0.098
Mof_H 	H 	0.0332	0.6687	0.3764	-0.022
Mof_C 	C 	0.9813	0.6334	0.36138	-0.231
Mof_C 	C 	0.9587	0.6696	0.31752	-0.368
Mof_C 	C 	0.9612	0.6322	0.34543	-0.072
Mof_C 	C 	0.9609	0.5953	0.3742	0.221
Mof_C 	C 	0.9646	0.7076	0.31147	0.119
Mof_C 	C 	0.9316	0.6332	0.30848	0.169
Mof_H 	H 	0.9351	0.6086	0.3426	0.038
Mof_C 	C 	0.9854	0.5917	0.38741	-0.188
Mof_C 	C 	0.9192	0.5653	0.37266	-0.088
Mof_C 	C 	0.9434	0.7092	0.29638	0.061
Mof_H 	H 	0.9831	0.7325	0.3177	0.012
Mof_H 	H 	0.9276	0.6073	0.3126	-0.042
Mof_C 	C 	0.9104	0.6348	0.29338	0.118
Mof_C 	C 	0.968	0.5579	0.39908	-0.133
Mof_H 	H 	0.0139	0.6122	0.3885	0.087
Mof_H 	H 	0.9025	0.5678	0.3636	0.052
Mof_C 	C 	0.9018	0.5315	0.38433	-0.147
Mof_C 	C 	0.9163	0.6728	0.28734	-0.194
Mof_H 	H 	0.9475	0.7352	0.2922	0.028
Mof_H 	H 	0.892	0.61	0.2872	-0.048
Mof_C 	C 	0.9263	0.5279	0.39754	0.147
Mof_H 	H 	0.9847	0.5554	0.4081	0.074
Mof_H 	H 	0.8733	0.511	0.3833	0.084
Mof_C 	C 	0.8897	0.678	0.273	0.107
Mof_C 	C 	0.9033	0.4953	0.4114	0.128
Mof_O 	O 	0.8933	0.71268	0.26848	-0.387
Mof_O 	O 	0.85866	0.64242	0.26872	-0.37
Mof_C 	C 	0.967	0.6826	0.34048	-0.212
Mof_C 	C 	0.0022	0.7186	0.34627	0.093
Mof_H 	H 	0.0137	0.7429	0.3391	-0.013
Mof_C 	C 	0.0204	0.7189	0.36261	0.034
Mof_C 	C 	0.0036	0.6833	0.37316	-0.276
Mof_H 	H 	0.0161	0.6836	0.3843	0.119
Mof_C 	C 	0.9684	0.6473	0.36738	0.277
Mof_C 	C 	0.9502	0.647	0.35104	-0.049
Mof_H 	H 	0.9261	0.6224	0.3471	0.038
Mof_C 	C 	0.0593	0.755	0.3688	0.016
Mof_C 	C 	0.0855	0.7852	0.3763	-0.077
Mof_C 	C 	0.1225	0.817	0.3846	0.158
Mof_C 	C 	0.1268	0.8057	0.4022	-0.172
Mof_H 	H 	0.1067	0.7807	0.4078	0.088
Mof_C 	C 	0.2129	0.8221	0.4892	-0.088
Mof_H 	H 	0.2204	0.8408	0.4991	0.048
Mof_C 	C 	0.2009	0.8315	0.473	-0.024
Mof_H 	H 	0.1989	0.856	0.4721	0.031
Mof_C 	C 	0.1919	0.8063	0.4587	-0.018
Mof_C 	C 	0.1905	0.7672	0.4605	0.003
Mof_H 	H 	0.1814	0.748	0.4508	0.032
Mof_C 	C 	0.2026	0.7579	0.4767	-0.048
Mof_H 	H 	0.203	0.7326	0.478	0.092
Mof_C 	C 	0.8803	0.6783	0.2752	0.152
Mof_C 	C 	0.9039	0.6802	0.29215	0.187
Mof_C 	C 	0.9269	0.7176	0.30128	-0.089
Mof_H 	H 	0.9282	0.7422	0.2969	0.058
Mof_C 	C 	0.948	0.7189	0.3169	-0.316
Mof_H 	H 	0.9638	0.7445	0.3231	0.126
Mof_C 	C 	0.9461	0.6829	0.32338	0.357
Mof_C 	C 	0.9232	0.6456	0.31425	-0.105
Mof_H 	H 	0.9219	0.621	0.3187	0.034
Mof_C 	C 	0.902	0.6442	0.29863	-0.166
Mof_H 	H 	0.8862	0.6187	0.2924	0.09
Mof_C 	C 	0.913	0.5402	0.40202	-0.181
Mof_C 	C 	0.9546	0.5702	0.40448	0.092
Mof_H 	H 	0.9707	0.5663	0.4134	0.01
Mof_C 	C 	0.9725	0.6058	0.39394	0.09
Mof_H 	H 	0.0009	0.6263	0.3956	-0.007
Mof_C 	C 	0.9491	0.6116	0.38092	-0.204
Mof_C 	C 	0.9075	0.5816	0.37846	-0.004
Mof_H 	H 	0.8915	0.5855	0.3696	0.016
Mof_C 	C 	0.8896	0.546	0.389	0.16
Mof_H 	H 	0.8612	0.5255	0.3873	-0.036
Mof_C 	C 	0.9017	0.5009	0.4125	0.132
Mof_C 	C 	0.1699	0.6664	0.5372	-0.014
Mof_C 	C 	0.2089	0.6997	0.5414	-0.011
Mof_H 	H 	0.2239	0.6978	0.5513	0.035
Mof_C 	C 	0.2258	0.7357	0.5311	-0
Mof_C 	C 	0.2037	0.7384	0.51657	0.029
Mof_C 	C 	0.1647	0.7051	0.51237	-0.041
Mof_H 	H 	0.1497	0.707	0.5025	0.03
Mof_C 	C 	0.1478	0.6691	0.52269	-0.007
Mof_H 	H 	0.1212	0.6464	0.5198	0.025
Mof_C 	C 	0.1542	0.6266	0.548	0.14
Mof_C 	C 	0.2105	0.7496	0.4527	0.001
Mof_C 	C 	0.2195	0.7405	0.4696	-0.151
Mof_H 	H 	0.2029	0.7299	0.4433	0.024
Mof_H 	H 	0.218	0.7146	0.4718	0.064
Mof_O 	O 	0.47688	0.88056	0.54387	-0.384
Mof_O 	O 	0.49892	0.92443	0.57524	-0.385
Mof_C 	C 	0.4673	0.8439	0.5468	0.124
Mof_O 	O 	0.44745	0.82113	0.56011	-0.373
Mof_C 	C 	0.4784	0.8193	0.53401	-0.021
Mof_C 	C 	0.4743	0.7805	0.53718	-0.02
Mof_C 	C 	0.4988	0.8415	0.5187	-0.009
Mof_O 	O 	0.46974	0.86593	0.59171	-0.374
Mof_H 	H 	0.4604	0.7654	0.5477	0.025
Mof_C 	C 	0.4905	0.764	0.525	-0.012
Mof_C 	C 	0.515	0.825	0.50651	-0.064
Mof_H 	H 	0.5016	0.868	0.5165	0.033
Mof_C 	C 	0.5108	0.7861	0.50968	0.063
Mof_H 	H 	0.5289	0.8401	0.496	0.038
Mof_C 	C 	0.5744	0.7671	0.4803	-0.059
Mof_H 	H 	0.5865	0.7595	0.4897	0.069
Mof_C 	C 	0.5925	0.7761	0.4633	0.013
Mof_H 	H 	0.6169	0.7746	0.4612	0.033
Mof_C 	C 	0.6338	0.8483	0.3913	-0.061
Mof_H 	H 	0.6281	0.8672	0.3975	0.053
Mof_C 	C 	0.6501	0.8577	0.3735	0.003
Mof_C 	C 	0.6528	0.8916	0.3647	0.006
Mof_C 	C 	0.6554	0.9218	0.3589	-0.039
Mof_C 	C 	0.6636	0.9624	0.35365	0.025
Mof_C 	C 	0.6824	0.9823	0.3377	-0.208
Mof_C 	C 	0.6484	0.9805	0.36549	0.14
Mof_C 	C 	0.6861	0.0205	0.33359	0.276
Mof_H 	H 	0.6927	0.9698	0.3296	0.098
Mof_H 	H 	0.6355	0.9668	0.3764	-0.022
Mof_C 	C 	0.6521	0.0187	0.36138	-0.231
Mof_C 	C 	0.7109	0.0413	0.31752	-0.368
Mof_C 	C 	0.671	0.0388	0.34543	-0.072
Mof_C 	C 	0.6344	0.0391	0.3742	0.221
Mof_C 	C 	0.743	0.0354	0.31147	0.119
Mof_C 	C 	0.7016	0.0684	0.30848	0.169
Mof_H 	H 	0.6735	0.0649	0.3426	0.038
Mof_C 	C 	0.6063	0.0146	0.38741	-0.188
Mof_C 	C 	0.6461	0.0808	0.37266	-0.088
Mof_C 	C 	0.7658	0.0566	0.29638	0.061
Mof_H 	H 	0.7494	0.0169	0.3177	0.012
Mof_H 	H 	0.6797	0.0724	0.3126	-0.042
Mof_C 	C 	0.7244	0.0896	0.29338	0.118
Mof_C 	C 	0.5899	0.032	0.39908	-0.133
Mof_H 	H 	0.5983	0.9861	0.3885	0.087
Mof_H 	H 	0.6653	0.0975	0.3636	0.052
Mof_C 	C 	0.6297	0.0982	0.38433	-0.147
Mof_C 	C 	0.7565	0.0837	0.28734	-0.194
Mof_H 	H 	0.7877	0.0525	0.2922	0.028
Mof_H 	H 	0.718	0.108	0.2872	-0.048
Mof_C 	C 	0.6016	0.0737	0.39754	0.147
Mof_H 	H 	0.5707	0.0153	0.4081	0.074
Mof_H 	H 	0.6377	0.1267	0.3833	0.084
Mof_C 	C 	0.7883	0.1103	0.273	0.107
Mof_C 	C 	0.592	0.0967	0.4114	0.128
Mof_O 	O 	0.81938	0.1067	0.26848	-0.387
Mof_O 	O 	0.78376	0.14134	0.26872	-0.37
Mof_C 	C 	0.7156	0.033	0.34048	-0.212
Mof_C 	C 	0.7164	0.9978	0.34627	0.093
Mof_H 	H 	0.7292	0.9863	0.3391	-0.013
Mof_C 	C 	0.6985	0.9796	0.36261	0.034
Mof_C 	C 	0.6797	0.9964	0.37316	-0.276
Mof_H 	H 	0.6675	0.9839	0.3843	0.119
Mof_C 	C 	0.6789	0.0316	0.36738	0.277
Mof_C 	C 	0.6968	0.0498	0.35104	-0.049
Mof_H 	H 	0.6963	0.0739	0.3471	0.038
Mof_C 	C 	0.6957	0.9407	0.3688	0.016
Mof_C 	C 	0.6997	0.9145	0.3763	-0.077
Mof_C 	C 	0.6945	0.8775	0.3846	0.158
Mof_C 	C 	0.6789	0.8732	0.4022	-0.172
Mof_H 	H 	0.674	0.8933	0.4078	0.088
Mof_C 	C 	0.6092	0.7871	0.4892	-0.088
Mof_H 	H 	0.6204	0.7796	0.4991	0.048
Mof_C 	C 	0.6306	0.7991	0.473	-0.024
Mof_H 	H 	0.6571	0.8011	0.4721	0.031
Mof_C 	C 	0.6144	0.8081	0.4587	-0.018
Mof_C 	C 	0.5767	0.8095	0.4605	0.003
Mof_H 	H 	0.5666	0.8186	0.4508	0.032
Mof_C 	C 	0.5553	0.7974	0.4767	-0.048
Mof_H 	H 	0.5296	0.797	0.478	0.092
Mof_C 	C 	0.798	0.1197	0.2752	0.152
Mof_C 	C 	0.7763	0.0961	0.29215	0.187
Mof_C 	C 	0.7907	0.0731	0.30128	-0.089
Mof_H 	H 	0.814	0.0718	0.2969	0.058
Mof_C 	C 	0.7709	0.052	0.3169	-0.316
Mof_H 	H 	0.7807	0.0362	0.3231	0.126
Mof_C 	C 	0.7368	0.0539	0.32338	0.357
Mof_C 	C 	0.7224	0.0768	0.31425	-0.105
Mof_H 	H 	0.6991	0.0781	0.3187	0.034
Mof_C 	C 	0.7422	0.098	0.29863	-0.166
Mof_H 	H 	0.7325	0.1138	0.2924	0.09
Mof_C 	C 	0.6272	0.087	0.40202	-0.181
Mof_C 	C 	0.6156	0.0454	0.40448	0.092
Mof_H 	H 	0.5956	0.0293	0.4134	0.01
Mof_C 	C 	0.6333	0.0275	0.39394	0.09
Mof_H 	H 	0.6254	0.9991	0.3956	-0.007
Mof_C 	C 	0.6625	0.0509	0.38092	-0.204
Mof_C 	C 	0.6741	0.0925	0.37846	-0.004
Mof_H 	H 	0.694	0.1085	0.3696	0.016
Mof_C 	C 	0.6564	0.1104	0.389	0.16
Mof_H 	H 	0.6643	0.1388	0.3873	-0.036
Mof_C 	C 	0.5992	0.0983	0.4125	0.132
Mof_C 	C 	0.4965	0.8301	0.5372	-0.014
Mof_C 	C 	0.4908	0.7911	0.5414	-0.011
Mof_H 	H 	0.4739	0.7761	0.5513	0.035
Mof_C 	C 	0.5099	0.7742	0.5311	-0
Mof_C 	C 	0.5347	0.7963	0.51657	0.029
Mof_C 	C 	0.5404	0.8353	0.51237	-0.041
Mof_H 	H 	0.5573	0.8503	0.5025	0.03
Mof_C 	C 	0.5213	0.8522	0.52269	-0.007
Mof_H 	H 	0.5252	0.8788	0.5198	0.025
Mof_C 	C 	0.4724	0.8458	0.548	0.14
Mof_C 	C 	0.5391	0.7895	0.4527	0.001
Mof_C 	C 	0.521	0.7805	0.4696	-0.151
Mof_H 	H 	0.527	0.7971	0.4433	0.024
Mof_H 	H 	0.4966	0.782	0.4718	0.064
Mof_O 	O 	0.59632	0.47688	0.04387	-0.384
Mof_O 	O 	0.57449	0.49892	0.07524	-0.385
Mof_C 	C 	0.6234	0.4673	0.0468	0.124
Mof_O 	O 	0.62632	0.44745	0.06011	-0.373
Mof_C 	C 	0.6591	0.4784	0.03401	-0.021
Mof_C 	C 	0.6938	0.4743	0.03718	-0.02
Mof_C 	C 	0.6573	0.4988	0.0187	-0.009
Mof_O 	O 	0.60381	0.46974	0.09171	-0.374
Mof_H 	H 	0.695	0.4604	0.0477	0.025
Mof_C 	C 	0.7265	0.4905	0.025	-0.012
Mof_C 	C 	0.69	0.515	0.00651	-0.064
Mof_H 	H 	0.6336	0.5016	0.0165	0.033
Mof_C 	C 	0.7247	0.5108	0.00968	0.063
Mof_H 	H 	0.6888	0.5289	0.996	0.038
Mof_C 	C 	0.8073	0.5744	0.9803	-0.059
Mof_H 	H 	0.827	0.5865	0.9897	0.069
Mof_C 	C 	0.8164	0.5925	0.9633	0.013
Mof_H 	H 	0.8423	0.6169	0.9612	0.033
Mof_C 	C 	0.7855	0.6338	0.8913	-0.061
Mof_H 	H 	0.7609	0.6281	0.8975	0.053
Mof_C 	C 	0.7924	0.6501	0.8735	0.003
Mof_C 	C 	0.7612	0.6528	0.8647	0.006
Mof_C 	C 	0.7336	0.6554	0.8589	-0.039
Mof_C 	C 	0.7012	0.6636	0.85365	0.025
Mof_C 	C 	0.7001	0.6824	0.8377	-0.208
Mof_C 	C 	0.6679	0.6484	0.86549	0.14
Mof_C 	C 	0.6656	0.6861	0.83359	0.276
Mof_H 	H 	0.7229	0.6927	0.8296	0.098
Mof_H 	H 	0.6687	0.6355	0.8764	-0.022
Mof_C 	C 	0.6334	0.6521	0.86138	-0.231
Mof_C 	C 	0.6696	0.7109	0.81752	-0.367
Mof_C 	C 	0.6322	0.671	0.84543	-0.072
Mof_C 	C 	0.5953	0.6344	0.8742	0.221
Mof_C 	C 	0.7076	0.743	0.81147	0.119
Mof_C 	C 	0.6332	0.7016	0.80848	0.169
Mof_H 	H 	0.6086	0.6735	0.8426	0.038
Mof_C 	C 	0.5917	0.6063	0.88741	-0.188
Mof_C 	C 	0.5653	0.6461	0.87266	-0.088
Mof_C 	C 	0.7092	0.7658	0.79638	0.061
Mof_H 	H 	0.7325	0.7494	0.8177	0.012
Mof_H 	H 	0.6073	0.6797	0.8126	-0.042
Mof_C 	C 	0.6348	0.7244	0.79338	0.118
Mof_C 	C 	0.5579	0.5899	0.89908	-0.133
Mof_H 	H 	0.6122	0.5983	0.8885	0.087
Mof_H 	H 	0.5678	0.6653	0.8636	0.052
Mof_C 	C 	0.5315	0.6297	0.88433	-0.147
Mof_C 	C 	0.6728	0.7565	0.78734	-0.194
Mof_H 	H 	0.7352	0.7877	0.7922	0.028
Mof_H 	H 	0.61	0.718	0.7872	-0.048
Mof_C 	C 	0.5279	0.6016	0.89754	0.147
Mof_H 	H 	0.5554	0.5707	0.9081	0.074
Mof_H 	H 	0.511	0.6377	0.8833	0.084
Mof_C 	C 	0.678	0.7883	0.773	0.107
Mof_C 	C 	0.4953	0.592	0.9114	0.128
Mof_O 	O 	0.71268	0.81938	0.76848	-0.387
Mof_O 	O 	0.64242	0.78376	0.76872	-0.37
Mof_C 	C 	0.6826	0.7156	0.84048	-0.212
Mof_C 	C 	0.7186	0.7164	0.84627	0.093
Mof_H 	H 	0.7429	0.7292	0.8391	-0.013
Mof_C 	C 	0.7189	0.6985	0.86261	0.034
Mof_C 	C 	0.6833	0.6797	0.87316	-0.276
Mof_H 	H 	0.6836	0.6675	0.8843	0.119
Mof_C 	C 	0.6473	0.6789	0.86738	0.277
Mof_C 	C 	0.647	0.6968	0.85104	-0.049
Mof_H 	H 	0.6224	0.6963	0.8471	0.038
Mof_C 	C 	0.755	0.6957	0.8688	0.016
Mof_C 	C 	0.7852	0.6997	0.8763	-0.077
Mof_C 	C 	0.817	0.6945	0.8846	0.158
Mof_C 	C 	0.8057	0.6789	0.9022	-0.172
Mof_H 	H 	0.7807	0.674	0.9078	0.088
Mof_C 	C 	0.8221	0.6092	0.9892	-0.088
Mof_H 	H 	0.8408	0.6204	0.9991	0.048
Mof_C 	C 	0.8315	0.6306	0.973	-0.024
Mof_H 	H 	0.856	0.6571	0.9721	0.031
Mof_C 	C 	0.8063	0.6144	0.9587	-0.018
Mof_C 	C 	0.7672	0.5767	0.9605	0.003
Mof_H 	H 	0.748	0.5666	0.9508	0.032
Mof_C 	C 	0.7579	0.5553	0.9767	-0.048
Mof_H 	H 	0.7326	0.5296	0.978	0.092
Mof_C 	C 	0.6783	0.798	0.7752	0.152
Mof_C 	C 	0.6802	0.7763	0.79215	0.187
Mof_C 	C 	0.7176	0.7907	0.80128	-0.089
Mof_H 	H 	0.7422	0.814	0.7969	0.058
Mof_C 	C 	0.7189	0.7709	0.8169	-0.316
Mof_H 	H 	0.7445	0.7807	0.8231	0.126
Mof_C 	C 	0.6829	0.7368	0.82338	0.357
Mof_C 	C 	0.6456	0.7224	0.81425	-0.105
Mof_H 	H 	0.621	0.6991	0.8187	0.034
Mof_C 	C 	0.6442	0.7422	0.79863	-0.166
Mof_H 	H 	0.6187	0.7325	0.7924	0.09
Mof_C 	C 	0.5402	0.6272	0.90202	-0.181
Mof_C 	C 	0.5702	0.6156	0.90448	0.092
Mof_H 	H 	0.5663	0.5956	0.9134	0.01
Mof_C 	C 	0.6058	0.6333	0.89394	0.09
Mof_H 	H 	0.6263	0.6254	0.8956	-0.007
Mof_C 	C 	0.6116	0.6625	0.88092	-0.204
Mof_C 	C 	0.5816	0.6741	0.87846	-0.004
Mof_H 	H 	0.5855	0.694	0.8696	0.016
Mof_C 	C 	0.546	0.6564	0.889	0.16
Mof_H 	H 	0.5255	0.6643	0.8873	-0.036
Mof_C 	C 	0.5009	0.5992	0.9125	0.132
Mof_C 	C 	0.6664	0.4965	0.0372	-0.014
Mof_C 	C 	0.6997	0.4908	0.0414	-0.011
Mof_H 	H 	0.6978	0.4739	0.0513	0.035
Mof_C 	C 	0.7357	0.5099	0.0311	-0
Mof_C 	C 	0.7384	0.5347	0.01657	0.029
Mof_C 	C 	0.7051	0.5404	0.01237	-0.041
Mof_H 	H 	0.707	0.5573	0.0025	0.03
Mof_C 	C 	0.6691	0.5213	0.02269	-0.007
Mof_H 	H 	0.6464	0.5252	0.0198	0.025
Mof_C 	C 	0.6266	0.4724	0.048	0.14
Mof_C 	C 	0.7496	0.5391	0.9527	0.001
Mof_C 	C 	0.7405	0.521	0.9696	-0.151
Mof_H 	H 	0.7299	0.527	0.9433	0.024
Mof_H 	H 	0.7146	0.4966	0.9718	0.064
Mof_O 	O 	0.88056	0.40368	0.04387	-0.384
Mof_O 	O 	0.92443	0.42551	0.07524	-0.385
Mof_C 	C 	0.8439	0.3766	0.0468	0.124
Mof_O 	O 	0.82113	0.37368	0.06011	-0.373
Mof_C 	C 	0.8193	0.3409	0.03401	-0.021
Mof_C 	C 	0.7805	0.3062	0.03718	-0.02
Mof_C 	C 	0.8415	0.3427	0.0187	-0.009
Mof_O 	O 	0.86593	0.39619	0.09171	-0.374
Mof_H 	H 	0.7654	0.305	0.0477	0.025
Mof_C 	C 	0.764	0.2735	0.025	-0.012
Mof_C 	C 	0.825	0.31	0.00651	-0.064
Mof_H 	H 	0.868	0.3664	0.0165	0.033
Mof_C 	C 	0.7861	0.2753	0.00968	0.063
Mof_H 	H 	0.8401	0.3112	0.996	0.038
Mof_C 	C 	0.7671	0.1927	0.9803	-0.059
Mof_H 	H 	0.7595	0.173	0.9897	0.069
Mof_C 	C 	0.7761	0.1836	0.9633	0.013
Mof_H 	H 	0.7746	0.1577	0.9612	0.033
Mof_C 	C 	0.8483	0.2145	0.8913	-0.061
Mof_H 	H 	0.8672	0.2391	0.8975	0.053
Mof_C 	C 	0.8577	0.2076	0.8735	0.003
Mof_C 	C 	0.8916	0.2388	0.8647	0.006
Mof_C 	C 	0.9218	0.2664	0.8589	-0.039
Mof_C 	C 	0.9624	0.2988	0.85365	0.025
Mof_C 	C 	0.9823	0.2999	0.8377	-0.208
Mof_C 	C 	0.9805	0.3321	0.86549	0.14
Mof_C 	C 	0.0205	0.3344	0.83359	0.276
Mof_H 	H 	0.9698	0.2771	0.8296	0.098
Mof_H 	H 	0.9668	0.3313	0.8764	-0.022
Mof_C 	C 	0.0187	0.3666	0.86138	-0.231
Mof_C 	C 	0.0413	0.3304	0.81752	-0.368
Mof_C 	C 	0.0388	0.3678	0.84543	-0.072
Mof_C 	C 	0.0391	0.4047	0.8742	0.221
Mof_C 	C 	0.0354	0.2924	0.81147	0.119
Mof_C 	C 	0.0684	0.3668	0.80848	0.169
Mof_H 	H 	0.0649	0.3914	0.8426	0.038
Mof_C 	C 	0.0146	0.4083	0.88741	-0.188
Mof_C 	C 	0.0808	0.4347	0.87266	-0.088
Mof_C 	C 	0.0566	0.2908	0.79638	0.061
Mof_H 	H 	0.0169	0.2675	0.8177	0.012
Mof_H 	H 	0.0724	0.3927	0.8126	-0.042
Mof_C 	C 	0.0896	0.3652	0.79338	0.118
Mof_C 	C 	0.032	0.4421	0.89908	-0.133
Mof_H 	H 	0.9861	0.3878	0.8885	0.087
Mof_H 	H 	0.0975	0.4322	0.8636	0.052
Mof_C 	C 	0.0982	0.4685	0.88433	-0.147
Mof_C 	C 	0.0837	0.3272	0.78734	-0.194
Mof_H 	H 	0.0525	0.2648	0.7922	0.028
Mof_H 	H 	0.108	0.39	0.7872	-0.048
Mof_C 	C 	0.0737	0.4721	0.89754	0.147
Mof_H 	H 	0.0153	0.4446	0.9081	0.074
Mof_H 	H 	0.1267	0.489	0.8833	0.084
Mof_C 	C 	0.1103	0.322	0.773	0.107
Mof_C 	C 	0.0967	0.5047	0.9114	0.128
Mof_O 	O 	0.1067	0.28732	0.76848	-0.387
Mof_O 	O 	0.14134	0.35758	0.76872	-0.37
Mof_C 	C 	0.033	0.3174	0.84048	-0.212
Mof_C 	C 	0.9978	0.2814	0.84627	0.093
Mof_H 	H 	0.9863	0.2571	0.8391	-0.013
Mof_C 	C 	0.9796	0.2811	0.86261	0.034
Mof_C 	C 	0.9964	0.3167	0.87316	-0.276
Mof_H 	H 	0.9839	0.3164	0.8843	0.119
Mof_C 	C 	0.0316	0.3527	0.86738	0.277
Mof_C 	C 	0.0498	0.353	0.85104	-0.049
Mof_H 	H 	0.0739	0.3776	0.8471	0.038
Mof_C 	C 	0.9407	0.245	0.8688	0.016
Mof_C 	C 	0.9145	0.2148	0.8763	-0.077
Mof_C 	C 	0.8775	0.183	0.8846	0.158
Mof_C 	C 	0.8732	0.1943	0.9022	-0.172
Mof_H 	H 	0.8933	0.2193	0.9078	0.088
Mof_C 	C 	0.7871	0.1779	0.9892	-0.088
Mof_H 	H 	0.7796	0.1592	0.9991	0.048
Mof_C 	C 	0.7991	0.1685	0.973	-0.024
Mof_H 	H 	0.8011	0.144	0.9721	0.031
Mof_C 	C 	0.8081	0.1937	0.9587	-0.018
Mof_C 	C 	0.8095	0.2328	0.9605	0.003
Mof_H 	H 	0.8186	0.252	0.9508	0.032
Mof_C 	C 	0.7974	0.2421	0.9767	-0.048
Mof_H 	H 	0.797	0.2674	0.978	0.092
Mof_C 	C 	0.1197	0.3217	0.7752	0.152
Mof_C 	C 	0.0961	0.3198	0.79215	0.187
Mof_C 	C 	0.0731	0.2824	0.80128	-0.089
Mof_H 	H 	0.0718	0.2578	0.7969	0.058
Mof_C 	C 	0.052	0.2811	0.8169	-0.316
Mof_H 	H 	0.0362	0.2555	0.8231	0.126
Mof_C 	C 	0.0539	0.3171	0.82338	0.357
Mof_C 	C 	0.0768	0.3544	0.81425	-0.105
Mof_H 	H 	0.0781	0.379	0.8187	0.034
Mof_C 	C 	0.098	0.3558	0.79863	-0.166
Mof_H 	H 	0.1138	0.3813	0.7924	0.09
Mof_C 	C 	0.087	0.4598	0.90202	-0.181
Mof_C 	C 	0.0454	0.4298	0.90448	0.092
Mof_H 	H 	0.0293	0.4337	0.9134	0.01
Mof_C 	C 	0.0275	0.3942	0.89394	0.09
Mof_H 	H 	0.9991	0.3737	0.8956	-0.007
Mof_C 	C 	0.0509	0.3884	0.88092	-0.204
Mof_C 	C 	0.0925	0.4184	0.87846	-0.004
Mof_H 	H 	0.1085	0.4145	0.8696	0.016
Mof_C 	C 	0.1104	0.454	0.889	0.16
Mof_H 	H 	0.1388	0.4745	0.8873	-0.036
Mof_C 	C 	0.0983	0.4991	0.9125	0.132
Mof_C 	C 	0.8301	0.3336	0.0372	-0.014
Mof_C 	C 	0.7911	0.3003	0.0414	-0.011
Mof_H 	H 	0.7761	0.3022	0.0513	0.035
Mof_C 	C 	0.7742	0.2643	0.0311	-0
Mof_C 	C 	0.7963	0.2616	0.01657	0.029
Mof_C 	C 	0.8353	0.2949	0.01237	-0.041
Mof_H 	H 	0.8503	0.293	0.0025	0.03
Mof_C 	C 	0.8522	0.3309	0.02269	-0.007
Mof_H 	H 	0.8788	0.3536	0.0198	0.025
Mof_C 	C 	0.8458	0.3734	0.048	0.14
Mof_C 	C 	0.7895	0.2504	0.9527	0.001
Mof_C 	C 	0.7805	0.2595	0.9696	-0.151
Mof_H 	H 	0.7971	0.2701	0.9433	0.024
Mof_H 	H 	0.782	0.2854	0.9718	0.064
Mof_O 	O 	0.52312	0.11944	0.04387	-0.384
Mof_O 	O 	0.50108	0.07557	0.07524	-0.385
Mof_C 	C 	0.5327	0.1561	0.0468	0.124
Mof_O 	O 	0.55255	0.17887	0.06011	-0.373
Mof_C 	C 	0.5216	0.1807	0.03401	-0.021
Mof_C 	C 	0.5257	0.2195	0.03718	-0.02
Mof_C 	C 	0.5012	0.1585	0.0187	-0.009
Mof_O 	O 	0.53026	0.13407	0.09171	-0.374
Mof_H 	H 	0.5396	0.2346	0.0477	0.025
Mof_C 	C 	0.5095	0.236	0.025	-0.012
Mof_C 	C 	0.485	0.175	0.00651	-0.064
Mof_H 	H 	0.4984	0.132	0.0165	0.033
Mof_C 	C 	0.4892	0.2139	0.00968	0.063
Mof_H 	H 	0.4711	0.1599	0.996	0.038
Mof_C 	C 	0.4256	0.2329	0.9803	-0.059
Mof_H 	H 	0.4135	0.2405	0.9897	0.069
Mof_C 	C 	0.4075	0.2239	0.9633	0.013
Mof_H 	H 	0.3831	0.2254	0.9612	0.033
Mof_C 	C 	0.3662	0.1517	0.8913	-0.061
Mof_H 	H 	0.3719	0.1328	0.8975	0.053
Mof_C 	C 	0.3499	0.1423	0.8735	0.003
Mof_C 	C 	0.3472	0.1084	0.8647	0.006
Mof_C 	C 	0.3446	0.0782	0.8589	-0.039
Mof_C 	C 	0.3364	0.0376	0.85365	0.025
Mof_C 	C 	0.3176	0.0177	0.8377	-0.208
Mof_C 	C 	0.3516	0.0195	0.86549	0.14
Mof_C 	C 	0.3139	0.9795	0.83359	0.276
Mof_H 	H 	0.3073	0.0302	0.8296	0.098
Mof_H 	H 	0.3645	0.0332	0.8764	-0.022
Mof_C 	C 	0.3479	0.9813	0.86138	-0.231
Mof_C 	C 	0.2891	0.9587	0.81752	-0.368
Mof_C 	C 	0.329	0.9612	0.84543	-0.072
Mof_C 	C 	0.3656	0.9609	0.8742	0.221
Mof_C 	C 	0.257	0.9646	0.81147	0.119
Mof_C 	C 	0.2984	0.9316	0.80848	0.169
Mof_H 	H 	0.3265	0.9351	0.8426	0.038
Mof_C 	C 	0.3937	0.9854	0.88741	-0.188
Mof_C 	C 	0.3539	0.9192	0.87266	-0.088
Mof_C 	C 	0.2342	0.9434	0.79638	0.061
Mof_H 	H 	0.2506	0.9831	0.8177	0.012
Mof_H 	H 	0.3203	0.9276	0.8126	-0.042
Mof_C 	C 	0.2756	0.9104	0.79338	0.118
Mof_C 	C 	0.4101	0.968	0.89908	-0.133
Mof_H 	H 	0.4017	0.0139	0.8885	0.087
Mof_H 	H 	0.3347	0.9025	0.8636	0.052
Mof_C 	C 	0.3703	0.9018	0.88433	-0.147
Mof_C 	C 	0.2435	0.9163	0.78734	-0.194
Mof_H 	H 	0.2123	0.9475	0.7922	0.028
Mof_H 	H 	0.282	0.892	0.7872	-0.048
Mof_C 	C 	0.3984	0.9263	0.89754	0.147
Mof_H 	H 	0.4293	0.9847	0.9081	0.074
Mof_H 	H 	0.3623	0.8733	0.8833	0.084
Mof_C 	C 	0.2117	0.8897	0.773	0.107
Mof_C 	C 	0.408	0.9033	0.9114	0.128
Mof_O 	O 	0.18062	0.8933	0.76848	-0.387
Mof_O 	O 	0.21624	0.85866	0.76872	-0.37
Mof_C 	C 	0.2844	0.967	0.84048	-0.212
Mof_C 	C 	0.2836	0.0022	0.84627	0.093
Mof_H 	H 	0.2708	0.0137	0.8391	-0.013
Mof_C 	C 	0.3015	0.0204	0.86261	0.034
Mof_C 	C 	0.3203	0.0036	0.87316	-0.276
Mof_H 	H 	0.3325	0.0161	0.8843	0.119
Mof_C 	C 	0.3211	0.9684	0.86738	0.277
Mof_C 	C 	0.3032	0.9502	0.85104	-0.049
Mof_H 	H 	0.3037	0.9261	0.8471	0.038
Mof_C 	C 	0.3043	0.0593	0.8688	0.016
Mof_C 	C 	0.3003	0.0855	0.8763	-0.077
Mof_C 	C 	0.3055	0.1225	0.8846	0.158
Mof_C 	C 	0.3211	0.1268	0.9022	-0.172
Mof_H 	H 	0.326	0.1067	0.9078	0.088
Mof_C 	C 	0.3908	0.2129	0.9892	-0.088
Mof_H 	H 	0.3796	0.2204	0.9991	0.048
Mof_C 	C 	0.3694	0.2009	0.973	-0.024
Mof_H 	H 	0.3429	0.1989	0.9721	0.031
Mof_C 	C 	0.3856	0.1919	0.9587	-0.018
Mof_C 	C 	0.4233	0.1905	0.9605	0.003
Mof_H 	H 	0.4334	0.1814	0.9508	0.032
Mof_C 	C 	0.4447	0.2026	0.9767	-0.048
Mof_H 	H 	0.4704	0.203	0.978	0.092
Mof_C 	C 	0.202	0.8803	0.7752	0.152
Mof_C 	C 	0.2237	0.9039	0.79215	0.187
Mof_C 	C 	0.2093	0.9269	0.80128	-0.089
Mof_H 	H 	0.186	0.9282	0.7969	0.058
Mof_C 	C 	0.2291	0.948	0.8169	-0.316
Mof_H 	H 	0.2193	0.9638	0.8231	0.126
Mof_C 	C 	0.2632	0.9461	0.82338	0.357
Mof_C 	C 	0.2776	0.9232	0.81425	-0.105
Mof_H 	H 	0.3009	0.9219	0.8187	0.034
Mof_C 	C 	0.2578	0.902	0.79863	-0.166
Mof_H 	H 	0.2675	0.8862	0.7924	0.09
Mof_C 	C 	0.3728	0.913	0.90202	-0.181
Mof_C 	C 	0.3844	0.9546	0.90448	0.092
Mof_H 	H 	0.4044	0.9707	0.9134	0.01
Mof_C 	C 	0.3667	0.9725	0.89394	0.09
Mof_H 	H 	0.3746	0.0009	0.8956	-0.007
Mof_C 	C 	0.3375	0.9491	0.88092	-0.204
Mof_C 	C 	0.3259	0.9075	0.87846	-0.004
Mof_H 	H 	0.306	0.8915	0.8696	0.016
Mof_C 	C 	0.3436	0.8896	0.889	0.16
Mof_H 	H 	0.3357	0.8612	0.8873	-0.036
Mof_C 	C 	0.4008	0.9017	0.9125	0.132
Mof_C 	C 	0.5035	0.1699	0.0372	-0.014
Mof_C 	C 	0.5092	0.2089	0.0414	-0.011
Mof_H 	H 	0.5261	0.2239	0.0513	0.035
Mof_C 	C 	0.4901	0.2258	0.0311	-0
Mof_C 	C 	0.4653	0.2037	0.01657	0.029
Mof_C 	C 	0.4596	0.1647	0.01237	-0.041
Mof_H 	H 	0.4427	0.1497	0.0025	0.03
Mof_C 	C 	0.4787	0.1478	0.02269	-0.007
Mof_H 	H 	0.4748	0.1212	0.0198	0.025
Mof_C 	C 	0.5276	0.1542	0.048	0.14
Mof_C 	C 	0.4609	0.2105	0.9527	0.001
Mof_C 	C 	0.479	0.2195	0.9696	-0.151
Mof_H 	H 	0.473	0.2029	0.9433	0.024
Mof_H 	H 	0.5034	0.218	0.9718	0.064
Mof_Cu	Cu	0.45344	0.54656	0.55818	0.904
Mof_Cu	Cu	0.41934	0.58066	0.57717	0.9
Mof_Cu	Cu	0.45344	0.90688	0.55818	0.904
Mof_Cu	Cu	0.41934	0.83868	0.57717	0.9
Mof_Cu	Cu	0.09312	0.54656	0.55818	0.904
Mof_Cu	Cu	0.16132	0.58066	0.57717	0.9
Mof_Cu	Cu	0.54656	0.45344	0.05818	0.904
Mof_Cu	Cu	0.58066	0.41934	0.07717	0.9
Mof_Cu	Cu	0.54656	0.09312	0.05818	0.904
Mof_Cu	Cu	0.58066	0.16132	0.07717	0.9
Mof_Cu	Cu	0.90688	0.45344	0.05818	0.904
Mof_Cu	Cu	0.83868	0.41934	0.07717	0.9
Mof_Cu	Cu	0.54656	0.45344	0.44182	0.904
Mof_Cu	Cu	0.58066	0.41934	0.42283	0.9
Mof_Cu	Cu	0.90688	0.45344	0.44182	0.904
Mof_Cu	Cu	0.83868	0.41934	0.42283	0.9
Mof_Cu	Cu	0.54656	0.09312	0.44182	0.904
Mof_Cu	Cu	0.58066	0.16132	0.42283	0.9
Mof_Cu	Cu	0.45344	0.54656	0.94182	0.904
Mof_Cu	Cu	0.41934	0.58066	0.92283	0.9
Mof_Cu	Cu	0.09312	0.54656	0.94182	0.904
Mof_Cu	Cu	0.16132	0.58066	0.92283	0.9
Mof_Cu	Cu	0.45344	0.90688	0.94182	0.904
Mof_Cu	Cu	0.41934	0.83868	0.92283	0.9
Mof_N 	N 	0.5199	0.75995	0.5006	-0.127
Mof_C 	C 	0.5387	0.76935	0.4834	0.124
Mof_C 	C 	0.5749	0.78745	0.4495	-0.046
Mof_C 	C 	0.5893	0.79465	0.431	-0.004
Mof_C 	C 	0.6085	0.80425	0.4171	-0.032
Mof_C 	C 	0.6263	0.81315	0.3995	0.038
Mof_C 	C 	0.6581	0.82905	0.3647	-0.031
Mof_H 	H 	0.6689	0.83445	0.3528	0.037
Mof_C 	C 	0.7019	0.85095	0.3763	-0.228
Mof_H 	H 	0.7124	0.8562	0.3643	0.107
Mof_C 	C 	0.6711	0.83555	0.4109	0.11
Mof_C 	C 	0.6558	0.8279	0.4286	-0.063
Mof_C 	C 	0.6341	0.81705	0.4412	0.015
Mof_C 	C 	0.5715	0.78575	0.491	0.077
Mof_N 	N 	0.5493	0.77465	0.5073	-0.107
Mof_N 	N 	0.24005	0.75995	0.5006	-0.127
Mof_C 	C 	0.23065	0.76935	0.4834	0.124
Mof_C 	C 	0.21255	0.78745	0.4495	-0.046
Mof_C 	C 	0.20535	0.79465	0.431	-0.004
Mof_C 	C 	0.19575	0.80425	0.4171	-0.032
Mof_C 	C 	0.18685	0.81315	0.3995	0.038
Mof_C 	C 	0.17095	0.82905	0.3647	-0.031
Mof_H 	H 	0.16555	0.83445	0.3528	0.037
Mof_C 	C 	0.14905	0.85095	0.3763	-0.228
Mof_H 	H 	0.1438	0.8562	0.3643	0.107
Mof_C 	C 	0.16445	0.83555	0.4109	0.11
Mof_C 	C 	0.1721	0.8279	0.4286	-0.063
Mof_C 	C 	0.18295	0.81705	0.4412	0.015
Mof_C 	C 	0.21425	0.78575	0.491	0.077
Mof_N 	N 	0.22535	0.77465	0.5073	-0.107
Mof_N 	N 	0.24005	0.4801	0.5006	-0.127
Mof_C 	C 	0.23065	0.4613	0.4834	0.124
Mof_C 	C 	0.21255	0.4251	0.4495	-0.046
Mof_C 	C 	0.20535	0.4107	0.431	-0.004
Mof_C 	C 	0.19575	0.3915	0.4171	-0.032
Mof_C 	C 	0.18685	0.3737	0.3995	0.038
Mof_C 	C 	0.17095	0.3419	0.3647	-0.031
Mof_H 	H 	0.16555	0.3311	0.3528	0.037
Mof_C 	C 	0.14905	0.2981	0.3763	-0.228
Mof_H 	H 	0.1438	0.2876	0.3643	0.107
Mof_C 	C 	0.16445	0.3289	0.4109	0.11
Mof_C 	C 	0.1721	0.3442	0.4286	-0.063
Mof_C 	C 	0.18295	0.3659	0.4412	0.015
Mof_C 	C 	0.21425	0.4285	0.491	0.077
Mof_N 	N 	0.22535	0.4507	0.5073	-0.107
Mof_N 	N 	0.4801	0.24005	0.0006	-0.127
Mof_C 	C 	0.4613	0.23065	0.9834	0.124
Mof_C 	C 	0.4251	0.21255	0.9495	-0.046
Mof_C 	C 	0.4107	0.20535	0.931	-0.004
Mof_C 	C 	0.3915	0.19575	0.9171	-0.032
Mof_C 	C 	0.3737	0.18685	0.8995	0.038
Mof_C 	C 	0.3419	0.17095	0.8647	-0.031
Mof_H 	H 	0.3311	0.16555	0.8528	0.037
Mof_C 	C 	0.2981	0.14905	0.8763	-0.228
Mof_H 	H 	0.2876	0.1438	0.8643	0.107
Mof_C 	C 	0.3289	0.16445	0.9109	0.11
Mof_C 	C 	0.3442	0.1721	0.9286	-0.063
Mof_C 	C 	0.3659	0.18295	0.9412	0.015
Mof_C 	C 	0.4285	0.21425	0.991	0.077
Mof_N 	N 	0.4507	0.22535	0.0073	-0.107
Mof_N 	N 	0.75995	0.24005	0.0006	-0.127
Mof_C 	C 	0.76935	0.23065	0.9834	0.124
Mof_C 	C 	0.78745	0.21255	0.9495	-0.046
Mof_C 	C 	0.79465	0.20535	0.931	-0.004
Mof_C 	C 	0.80425	0.19575	0.9171	-0.032
Mof_C 	C 	0.81315	0.18685	0.8995	0.038
Mof_C 	C 	0.82905	0.17095	0.8647	-0.031
Mof_H 	H 	0.83445	0.16555	0.8528	0.037
Mof_C 	C 	0.85095	0.14905	0.8763	-0.228
Mof_H 	H 	0.8562	0.1438	0.8643	0.107
Mof_C 	C 	0.83555	0.16445	0.9109	0.11
Mof_C 	C 	0.8279	0.1721	0.9286	-0.063
Mof_C 	C 	0.81705	0.18295	0.9412	0.015
Mof_C 	C 	0.78575	0.21425	0.991	0.077
Mof_N 	N 	0.77465	0.22535	0.0073	-0.107
Mof_N 	N 	0.75995	0.5199	0.0006	-0.127
Mof_C 	C 	0.76935	0.5387	0.9834	0.124
Mof_C 	C 	0.78745	0.5749	0.9495	-0.046
Mof_C 	C 	0.79465	0.5893	0.931	-0.004
Mof_C 	C 	0.80425	0.6085	0.9171	-0.032
Mof_C 	C 	0.81315	0.6263	0.8995	0.038
Mof_C 	C 	0.82905	0.6581	0.8647	-0.031
Mof_H 	H 	0.83445	0.6689	0.8528	0.037
Mof_C 	C 	0.85095	0.7019	0.8763	-0.228
Mof_H 	H 	0.8562	0.7124	0.8643	0.107
Mof_C 	C 	0.83555	0.6711	0.9109	0.11
Mof_C 	C 	0.8279	0.6558	0.9286	-0.063
Mof_C 	C 	0.81705	0.6341	0.9412	0.015
Mof_C 	C 	0.78575	0.5715	0.991	0.077
Mof_N 	N 	0.77465	0.5493	0.0073	-0.107
Mof_N 	N 	0.75995	0.5199	0.4994	-0.127
Mof_C 	C 	0.76935	0.5387	0.5166	0.124
Mof_C 	C 	0.78745	0.5749	0.5505	-0.046
Mof_C 	C 	0.79465	0.5893	0.569	-0.004
Mof_C 	C 	0.80425	0.6085	0.5829	-0.032
Mof_C 	C 	0.81315	0.6263	0.6005	0.038
Mof_C 	C 	0.82905	0.6581	0.6353	-0.031
Mof_H 	H 	0.83445	0.6689	0.6472	0.037
Mof_C 	C 	0.85095	0.7019	0.6237	-0.228
Mof_H 	H 	0.8562	0.7124	0.6357	0.107
Mof_C 	C 	0.83555	0.6711	0.5891	0.11
Mof_C 	C 	0.8279	0.6558	0.5714	-0.063
Mof_C 	C 	0.81705	0.6341	0.5588	0.015
Mof_C 	C 	0.78575	0.5715	0.509	0.077
Mof_N 	N 	0.77465	0.5493	0.4927	-0.107
Mof_N 	N 	0.75995	0.24005	0.4994	-0.127
Mof_C 	C 	0.76935	0.23065	0.5166	0.124
Mof_C 	C 	0.78745	0.21255	0.5505	-0.046
Mof_C 	C 	0.79465	0.20535	0.569	-0.004
Mof_C 	C 	0.80425	0.19575	0.5829	-0.032
Mof_C 	C 	0.81315	0.18685	0.6005	0.038
Mof_C 	C 	0.82905	0.17095	0.6353	-0.031
Mof_H 	H 	0.83445	0.16555	0.6472	0.037
Mof_C 	C 	0.85095	0.14905	0.6237	-0.228
Mof_H 	H 	0.8562	0.1438	0.6357	0.107
Mof_C 	C 	0.83555	0.16445	0.5891	0.11
Mof_C 	C 	0.8279	0.1721	0.5714	-0.063
Mof_C 	C 	0.81705	0.18295	0.5588	0.015
Mof_C 	C 	0.78575	0.21425	0.509	0.077
Mof_N 	N 	0.77465	0.22535	0.4927	-0.107
Mof_N 	N 	0.4801	0.24005	0.4994	-0.127
Mof_C 	C 	0.4613	0.23065	0.5166	0.124
Mof_C 	C 	0.4251	0.21255	0.5505	-0.046
Mof_C 	C 	0.4107	0.20535	0.569	-0.004
Mof_C 	C 	0.3915	0.19575	0.5829	-0.032
Mof_C 	C 	0.3737	0.18685	0.6005	0.038
Mof_C 	C 	0.3419	0.17095	0.6353	-0.031
Mof_H 	H 	0.3311	0.16555	0.6472	0.037
Mof_C 	C 	0.2981	0.14905	0.6237	-0.228
Mof_H 	H 	0.2876	0.1438	0.6357	0.107
Mof_C 	C 	0.3289	0.16445	0.5891	0.11
Mof_C 	C 	0.3442	0.1721	0.5714	-0.063
Mof_C 	C 	0.3659	0.18295	0.5588	0.015
Mof_C 	C 	0.4285	0.21425	0.509	0.077
Mof_N 	N 	0.4507	0.22535	0.4927	-0.107
Mof_N 	N 	0.24005	0.4801	0.9994	-0.127
Mof_C 	C 	0.23065	0.4613	0.0166	0.124
Mof_C 	C 	0.21255	0.4251	0.0505	-0.046
Mof_C 	C 	0.20535	0.4107	0.069	-0.004
Mof_C 	C 	0.19575	0.3915	0.0829	-0.032
Mof_C 	C 	0.18685	0.3737	0.1005	0.038
Mof_C 	C 	0.17095	0.3419	0.1353	-0.031
Mof_H 	H 	0.16555	0.3311	0.1472	0.037
Mof_C 	C 	0.14905	0.2981	0.1237	-0.228
Mof_H 	H 	0.1438	0.2876	0.1357	0.107
Mof_C 	C 	0.16445	0.3289	0.0891	0.11
Mof_C 	C 	0.1721	0.3442	0.0714	-0.063
Mof_C 	C 	0.18295	0.3659	0.0588	0.015
Mof_C 	C 	0.21425	0.4285	0.009	0.077
Mof_N 	N 	0.22535	0.4507	0.9927	-0.107
Mof_N 	N 	0.24005	0.75995	0.9994	-0.127
Mof_C 	C 	0.23065	0.76935	0.0166	0.124
Mof_C 	C 	0.21255	0.78745	0.0505	-0.046
Mof_C 	C 	0.20535	0.79465	0.069	-0.004
Mof_C 	C 	0.19575	0.80425	0.0829	-0.032
Mof_C 	C 	0.18685	0.81315	0.1005	0.038
Mof_C 	C 	0.17095	0.82905	0.1353	-0.031
Mof_H 	H 	0.16555	0.83445	0.1472	0.037
Mof_C 	C 	0.14905	0.85095	0.1237	-0.228
Mof_H 	H 	0.1438	0.8562	0.1357	0.107
Mof_C 	C 	0.16445	0.83555	0.0891	0.11
Mof_C 	C 	0.1721	0.8279	0.0714	-0.063
Mof_C 	C 	0.18295	0.81705	0.0588	0.015
Mof_C 	C 	0.21425	0.78575	0.009	0.077
Mof_N 	N 	0.22535	0.77465	0.9927	-0.107
Mof_N 	N 	0.5199	0.75995	0.9994	-0.127
Mof_C 	C 	0.5387	0.76935	0.0166	0.124
Mof_C 	C 	0.5749	0.78745	0.0505	-0.046
Mof_C 	C 	0.5893	0.79465	0.069	-0.004
Mof_C 	C 	0.6085	0.80425	0.0829	-0.032
Mof_C 	C 	0.6263	0.81315	0.1005	0.038
Mof_C 	C 	0.6581	0.82905	0.1353	-0.031
Mof_H 	H 	0.6689	0.83445	0.1472	0.037
Mof_C 	C 	0.7019	0.85095	0.1237	-0.228
Mof_H 	H 	0.7124	0.8562	0.1357	0.107
Mof_C 	C 	0.6711	0.83555	0.0891	0.11
Mof_C 	C 	0.6558	0.8279	0.0714	-0.063
Mof_C 	C 	0.6341	0.81705	0.0588	0.015
Mof_C 	C 	0.5715	0.78575	0.009	0.077
Mof_N 	N 	0.5493	0.77465	0.9927	-0.107
Mof_Cu	Cu	0.8588	0.7176	0.25	0.899
Mof_Cu	Cu	0.8179	0.6358	0.25	0.891
Mof_Cu	Cu	0.2824	0.1412	0.25	0.899
Mof_Cu	Cu	0.3642	0.1821	0.25	0.891
Mof_Cu	Cu	0.8588	0.1412	0.25	0.899
Mof_Cu	Cu	0.8179	0.1821	0.25	0.891
Mof_Cu	Cu	0.1412	0.2824	0.75	0.899
Mof_Cu	Cu	0.1821	0.3642	0.75	0.891
Mof_Cu	Cu	0.7176	0.8588	0.75	0.899
Mof_Cu	Cu	0.6358	0.8179	0.75	0.891
Mof_Cu	Cu	0.1412	0.8588	0.75	0.899
Mof_Cu	Cu	0.1821	0.8179	0.75	0.891
_end
