data_functionalizedCrystal
_audit_creation_method	'EQeq! by Chris Wilmer'
_symmetry_space_group_name_H-M	'P1'
_symmetry_Int_Tables_number	1
_symmetry_cell_setting	triclinic
loop_
_symmetry_equiv_pos_as_xyz
  x,y,z
_cell_length_a	14.8498
_cell_length_b	20.9133
_cell_length_c	35.2975
_cell_angle_alpha	90
_cell_angle_beta	90
_cell_angle_gamma	90
loop_
_atom_site_label
_atom_site_type_symbol
_atom_site_fract_x
_atom_site_fract_y
_atom_site_fract_z
_atom_site_charge
Mof_O 	O 	0.7547	0.4144	0.5504	-0.504
Mof_O 	O 	0.6028	0.5514	0.3805	-0.495
Mof_O 	O 	0.889	0.4493	0.5394	-0.556
Mof_O 	O 	0.7402	0.5811	0.3671	-0.493
Mof_C 	C 	0.6843	0.553	0.3892	0.294
Mof_C 	C 	0.8094	0.4454	0.5303	0.346
Mof_C 	C 	0.8295	0.521	0.4733	0.051
Mof_C 	C 	0.7775	0.4784	0.4942	-0.041
Mof_C 	C 	0.6938	0.4592	0.4808	-0.004
Mof_H 	H 	0.6583	0.4301	0.4951	0.022
Mof_C 	C 	0.662	0.4827	0.4465	-0.019
Mof_H 	H 	0.6047	0.4696	0.4373	0.021
Mof_C 	C 	0.7139	0.5253	0.4256	-0.007
Mof_C 	C 	0.7976	0.5445	0.439	-0.054
Mof_H 	H 	0.8331	0.5736	0.4248	0.056
Mof_N 	N 	0.9144	0.5418	0.4859	-0.148
Mof_H 	H 	0.9427	0.5671	0.4688	0.084
Mof_H 	H 	0.9095	0.565	0.5074	0.099
Mof_N 	N 	0.9308	0.507	0.4761	-0.168
Mof_H 	H 	0.9568	0.4692	0.4797	0.118
Mof_H 	H 	0.9567	0.5257	0.4563	0.091
Mof_C 	C 	0.8384	0.5008	0.4693	0.055
Mof_C 	C 	0.7749	0.4751	0.4939	-0.043
Mof_C 	C 	0.6847	0.473	0.4835	-0.006
Mof_H 	H 	0.6413	0.4554	0.5003	0.032
Mof_C 	C 	0.658	0.4966	0.4484	-0.022
Mof_H 	H 	0.5963	0.4951	0.4413	0.046
Mof_C 	C 	0.7214	0.5222	0.4238	-0.013
Mof_C 	C 	0.8116	0.5243	0.4342	-0.033
Mof_H 	H 	0.855	0.5419	0.4174	0.043
Mof_O 	O 	0.7547	0.9144	0.0504	-0.504
Mof_O 	O 	0.6028	0.0514	0.8805	-0.496
Mof_O 	O 	0.889	0.9493	0.0394	-0.556
Mof_O 	O 	0.7402	0.0811	0.8671	-0.493
Mof_C 	C 	0.6843	0.053	0.8892	0.294
Mof_C 	C 	0.8094	0.9454	0.0303	0.346
Mof_C 	C 	0.8295	0.021	0.9733	0.05
Mof_C 	C 	0.7775	0.9784	0.9942	-0.042
Mof_C 	C 	0.6938	0.9592	0.9808	-0.005
Mof_H 	H 	0.6583	0.9301	0.9951	0.021
Mof_C 	C 	0.662	0.9827	0.9465	-0.02
Mof_H 	H 	0.6047	0.9696	0.9373	0.02
Mof_C 	C 	0.7139	0.0253	0.9256	-0.008
Mof_C 	C 	0.7976	0.0445	0.939	-0.055
Mof_H 	H 	0.8331	0.0736	0.9248	0.055
Mof_N 	N 	0.9144	0.0418	0.9859	-0.148
Mof_H 	H 	0.9427	0.0671	0.9688	0.082
Mof_H 	H 	0.9095	0.065	0.0074	0.098
Mof_N 	N 	0.9308	0.007	0.9761	-0.17
Mof_H 	H 	0.9568	0.9692	0.9797	0.117
Mof_H 	H 	0.9567	0.0257	0.9563	0.09
Mof_C 	C 	0.8384	0.0008	0.9693	0.054
Mof_C 	C 	0.7749	0.9751	0.9939	-0.044
Mof_C 	C 	0.6847	0.973	0.9835	-0.007
Mof_H 	H 	0.6413	0.9554	0.0003	0.031
Mof_C 	C 	0.658	0.9966	0.9484	-0.023
Mof_H 	H 	0.5963	0.9951	0.9413	0.045
Mof_C 	C 	0.7214	0.0222	0.9238	-0.014
Mof_C 	C 	0.8116	0.0243	0.9342	-0.034
Mof_H 	H 	0.855	0.0419	0.9174	0.042
Mof_O 	O 	0.2547	0.4144	0.0504	-0.505
Mof_O 	O 	0.1028	0.5514	0.8805	-0.497
Mof_O 	O 	0.389	0.4493	0.0394	-0.557
Mof_O 	O 	0.2402	0.5811	0.8671	-0.494
Mof_C 	C 	0.1843	0.553	0.8892	0.293
Mof_C 	C 	0.3094	0.4454	0.0303	0.345
Mof_C 	C 	0.3295	0.521	0.9733	0.05
Mof_C 	C 	0.2775	0.4784	0.9942	-0.042
Mof_C 	C 	0.1938	0.4592	0.9808	-0.005
Mof_H 	H 	0.1583	0.4301	0.9951	0.021
Mof_C 	C 	0.162	0.4827	0.9465	-0.02
Mof_H 	H 	0.1047	0.4696	0.9373	0.02
Mof_C 	C 	0.2139	0.5253	0.9256	-0.008
Mof_C 	C 	0.2976	0.5445	0.939	-0.055
Mof_H 	H 	0.3331	0.5736	0.9248	0.055
Mof_N 	N 	0.4144	0.5418	0.9859	-0.149
Mof_H 	H 	0.4427	0.5671	0.9688	0.083
Mof_H 	H 	0.4095	0.565	0.0074	0.098
Mof_N 	N 	0.4308	0.507	0.9761	-0.169
Mof_H 	H 	0.4568	0.4692	0.9797	0.117
Mof_H 	H 	0.4567	0.5257	0.9563	0.091
Mof_C 	C 	0.3384	0.5008	0.9693	0.054
Mof_C 	C 	0.2749	0.4751	0.9939	-0.044
Mof_C 	C 	0.1847	0.473	0.9835	-0.007
Mof_H 	H 	0.1413	0.4554	0.0003	0.031
Mof_C 	C 	0.158	0.4966	0.9484	-0.023
Mof_H 	H 	0.0963	0.4951	0.9413	0.045
Mof_C 	C 	0.2214	0.5222	0.9238	-0.014
Mof_C 	C 	0.3116	0.5243	0.9342	-0.034
Mof_H 	H 	0.355	0.5419	0.9174	0.042
Mof_O 	O 	0.2547	0.9144	0.5504	-0.505
Mof_O 	O 	0.1028	0.0514	0.3805	-0.497
Mof_O 	O 	0.389	0.9493	0.5394	-0.557
Mof_O 	O 	0.2402	0.0811	0.3671	-0.494
Mof_C 	C 	0.1843	0.053	0.3892	0.293
Mof_C 	C 	0.3094	0.9454	0.5303	0.345
Mof_C 	C 	0.3295	0.021	0.4733	0.05
Mof_C 	C 	0.2775	0.9784	0.4942	-0.042
Mof_C 	C 	0.1938	0.9592	0.4808	-0.005
Mof_H 	H 	0.1583	0.9301	0.4951	0.021
Mof_C 	C 	0.162	0.9827	0.4465	-0.02
Mof_H 	H 	0.1047	0.9696	0.4373	0.02
Mof_C 	C 	0.2139	0.0253	0.4256	-0.008
Mof_C 	C 	0.2976	0.0445	0.439	-0.055
Mof_H 	H 	0.3331	0.0736	0.4248	0.055
Mof_N 	N 	0.4144	0.0418	0.4859	-0.149
Mof_H 	H 	0.4427	0.0671	0.4688	0.083
Mof_H 	H 	0.4095	0.065	0.5074	0.098
Mof_N 	N 	0.4308	0.007	0.4761	-0.169
Mof_H 	H 	0.4568	0.9692	0.4797	0.117
Mof_H 	H 	0.4567	0.0257	0.4563	0.091
Mof_C 	C 	0.3384	0.0008	0.4693	0.054
Mof_C 	C 	0.2749	0.9751	0.4939	-0.044
Mof_C 	C 	0.1847	0.973	0.4835	-0.007
Mof_H 	H 	0.1413	0.9554	0.5003	0.031
Mof_C 	C 	0.158	0.9966	0.4484	-0.023
Mof_H 	H 	0.0963	0.9951	0.4413	0.045
Mof_C 	C 	0.2214	0.0222	0.4238	-0.014
Mof_C 	C 	0.3116	0.0243	0.4342	-0.034
Mof_H 	H 	0.355	0.0419	0.4174	0.042
Mof_O 	O 	0.9953	0.3356	0.5504	-0.505
Mof_O 	O 	0.1472	0.1986	0.3805	-0.496
Mof_O 	O 	0.861	0.3007	0.5394	-0.557
Mof_O 	O 	0.0098	0.1689	0.3671	-0.494
Mof_C 	C 	0.0657	0.197	0.3892	0.293
Mof_C 	C 	0.9406	0.3046	0.5303	0.345
Mof_C 	C 	0.9205	0.229	0.4733	0.05
Mof_C 	C 	0.9725	0.2716	0.4942	-0.042
Mof_C 	C 	0.0562	0.2908	0.4808	-0.005
Mof_H 	H 	0.0917	0.3199	0.4951	0.021
Mof_C 	C 	0.088	0.2673	0.4465	-0.02
Mof_H 	H 	0.1453	0.2804	0.4373	0.02
Mof_C 	C 	0.0361	0.2247	0.4256	-0.008
Mof_C 	C 	0.9524	0.2055	0.439	-0.055
Mof_H 	H 	0.9169	0.1764	0.4248	0.055
Mof_N 	N 	0.8356	0.2082	0.4859	-0.149
Mof_H 	H 	0.8073	0.1829	0.4688	0.083
Mof_H 	H 	0.8405	0.185	0.5074	0.098
Mof_N 	N 	0.8192	0.243	0.4761	-0.169
Mof_H 	H 	0.7932	0.2808	0.4797	0.117
Mof_H 	H 	0.7933	0.2243	0.4563	0.091
Mof_C 	C 	0.9116	0.2492	0.4693	0.054
Mof_C 	C 	0.9751	0.2749	0.4939	-0.044
Mof_C 	C 	0.0653	0.277	0.4835	-0.007
Mof_H 	H 	0.1087	0.2946	0.5003	0.031
Mof_C 	C 	0.092	0.2534	0.4484	-0.023
Mof_H 	H 	0.1537	0.2549	0.4413	0.045
Mof_C 	C 	0.0286	0.2278	0.4238	-0.014
Mof_C 	C 	0.9384	0.2257	0.4342	-0.034
Mof_H 	H 	0.895	0.2081	0.4174	0.042
Mof_O 	O 	0.9953	0.8356	0.0504	-0.505
Mof_O 	O 	0.1472	0.6986	0.8805	-0.497
Mof_O 	O 	0.861	0.8007	0.0394	-0.557
Mof_O 	O 	0.0098	0.6689	0.8671	-0.494
Mof_C 	C 	0.0657	0.697	0.8892	0.293
Mof_C 	C 	0.9406	0.8046	0.0303	0.345
Mof_C 	C 	0.9205	0.729	0.9733	0.05
Mof_C 	C 	0.9725	0.7716	0.9942	-0.042
Mof_C 	C 	0.0562	0.7908	0.9808	-0.005
Mof_H 	H 	0.0917	0.8199	0.9951	0.021
Mof_C 	C 	0.088	0.7673	0.9465	-0.02
Mof_H 	H 	0.1453	0.7804	0.9373	0.02
Mof_C 	C 	0.0361	0.7247	0.9256	-0.008
Mof_C 	C 	0.9524	0.7055	0.939	-0.055
Mof_H 	H 	0.9169	0.6764	0.9248	0.055
Mof_N 	N 	0.8356	0.7082	0.9859	-0.149
Mof_H 	H 	0.8073	0.6829	0.9688	0.083
Mof_H 	H 	0.8405	0.685	0.0074	0.098
Mof_N 	N 	0.8192	0.743	0.9761	-0.169
Mof_H 	H 	0.7932	0.7808	0.9797	0.117
Mof_H 	H 	0.7933	0.7243	0.9563	0.091
Mof_C 	C 	0.9116	0.7492	0.9693	0.054
Mof_C 	C 	0.9751	0.7749	0.9939	-0.044
Mof_C 	C 	0.0653	0.777	0.9835	-0.007
Mof_H 	H 	0.1087	0.7946	0.0003	0.031
Mof_C 	C 	0.092	0.7534	0.9484	-0.023
Mof_H 	H 	0.1537	0.7549	0.9413	0.045
Mof_C 	C 	0.0286	0.7278	0.9238	-0.014
Mof_C 	C 	0.9384	0.7257	0.9342	-0.034
Mof_H 	H 	0.895	0.7081	0.9174	0.042
Mof_O 	O 	0.4953	0.3356	0.0504	-0.505
Mof_O 	O 	0.6472	0.1986	0.8805	-0.497
Mof_O 	O 	0.361	0.3007	0.0394	-0.557
Mof_O 	O 	0.5098	0.1689	0.8671	-0.494
Mof_C 	C 	0.5657	0.197	0.8892	0.293
Mof_C 	C 	0.4406	0.3046	0.0303	0.345
Mof_C 	C 	0.4205	0.229	0.9733	0.05
Mof_C 	C 	0.4725	0.2716	0.9942	-0.042
Mof_C 	C 	0.5562	0.2908	0.9808	-0.005
Mof_H 	H 	0.5917	0.3199	0.9951	0.021
Mof_C 	C 	0.588	0.2673	0.9465	-0.02
Mof_H 	H 	0.6453	0.2804	0.9373	0.02
Mof_C 	C 	0.5361	0.2247	0.9256	-0.008
Mof_C 	C 	0.4524	0.2055	0.939	-0.055
Mof_H 	H 	0.4169	0.1764	0.9248	0.055
Mof_N 	N 	0.3356	0.2082	0.9859	-0.149
Mof_H 	H 	0.3073	0.1829	0.9688	0.083
Mof_H 	H 	0.3405	0.185	0.0074	0.098
Mof_N 	N 	0.3192	0.243	0.9761	-0.169
Mof_H 	H 	0.2932	0.2808	0.9797	0.117
Mof_H 	H 	0.2933	0.2243	0.9563	0.091
Mof_C 	C 	0.4116	0.2492	0.9693	0.054
Mof_C 	C 	0.4751	0.2749	0.9939	-0.044
Mof_C 	C 	0.5653	0.277	0.9835	-0.007
Mof_H 	H 	0.6087	0.2946	0.0003	0.031
Mof_C 	C 	0.592	0.2534	0.9484	-0.023
Mof_H 	H 	0.6537	0.2549	0.9413	0.045
Mof_C 	C 	0.5286	0.2278	0.9238	-0.014
Mof_C 	C 	0.4384	0.2257	0.9342	-0.034
Mof_H 	H 	0.395	0.2081	0.9174	0.042
Mof_O 	O 	0.4953	0.8356	0.5504	-0.505
Mof_O 	O 	0.6472	0.6986	0.3805	-0.496
Mof_O 	O 	0.361	0.8007	0.5394	-0.557
Mof_O 	O 	0.5098	0.6689	0.3671	-0.494
Mof_C 	C 	0.5657	0.697	0.3892	0.293
Mof_C 	C 	0.4406	0.8046	0.5303	0.345
Mof_C 	C 	0.4205	0.729	0.4733	0.05
Mof_C 	C 	0.4725	0.7716	0.4942	-0.042
Mof_C 	C 	0.5562	0.7908	0.4808	-0.005
Mof_H 	H 	0.5917	0.8199	0.4951	0.021
Mof_C 	C 	0.588	0.7673	0.4465	-0.02
Mof_H 	H 	0.6453	0.7804	0.4373	0.02
Mof_C 	C 	0.5361	0.7247	0.4256	-0.008
Mof_C 	C 	0.4524	0.7055	0.439	-0.055
Mof_H 	H 	0.4169	0.6764	0.4248	0.055
Mof_N 	N 	0.3356	0.7082	0.4859	-0.149
Mof_H 	H 	0.3073	0.6829	0.4688	0.083
Mof_H 	H 	0.3405	0.685	0.5074	0.098
Mof_N 	N 	0.3192	0.743	0.4761	-0.169
Mof_H 	H 	0.2932	0.7808	0.4797	0.117
Mof_H 	H 	0.2933	0.7243	0.4563	0.091
Mof_C 	C 	0.4116	0.7492	0.4693	0.054
Mof_C 	C 	0.4751	0.7749	0.4939	-0.044
Mof_C 	C 	0.5653	0.777	0.4835	-0.007
Mof_H 	H 	0.6087	0.7946	0.5003	0.031
Mof_C 	C 	0.592	0.7534	0.4484	-0.023
Mof_H 	H 	0.6537	0.7549	0.4413	0.045
Mof_C 	C 	0.5286	0.7278	0.4238	-0.014
Mof_C 	C 	0.4384	0.7257	0.4342	-0.034
Mof_H 	H 	0.395	0.7081	0.4174	0.042
Mof_O 	O 	0.0047	0.5856	0.8004	-0.505
Mof_O 	O 	0.8528	0.4486	0.6305	-0.497
Mof_O 	O 	0.139	0.5507	0.7894	-0.557
Mof_O 	O 	0.9902	0.4189	0.6171	-0.494
Mof_C 	C 	0.9343	0.447	0.6392	0.293
Mof_C 	C 	0.0594	0.5546	0.7803	0.345
Mof_C 	C 	0.0795	0.479	0.7233	0.05
Mof_C 	C 	0.0275	0.5216	0.7442	-0.042
Mof_C 	C 	0.9438	0.5408	0.7308	-0.005
Mof_H 	H 	0.9083	0.5699	0.7451	0.021
Mof_C 	C 	0.912	0.5173	0.6965	-0.02
Mof_H 	H 	0.8547	0.5304	0.6873	0.02
Mof_C 	C 	0.9639	0.4747	0.6756	-0.008
Mof_C 	C 	0.0476	0.4555	0.689	-0.055
Mof_H 	H 	0.0831	0.4264	0.6748	0.055
Mof_N 	N 	0.1644	0.4582	0.7359	-0.149
Mof_H 	H 	0.1927	0.4329	0.7188	0.083
Mof_H 	H 	0.1595	0.435	0.7574	0.098
Mof_N 	N 	0.1808	0.493	0.7261	-0.169
Mof_H 	H 	0.2068	0.5308	0.7297	0.117
Mof_H 	H 	0.2067	0.4743	0.7063	0.091
Mof_C 	C 	0.0884	0.4992	0.7193	0.054
Mof_C 	C 	0.0249	0.5249	0.7439	-0.044
Mof_C 	C 	0.9347	0.527	0.7335	-0.007
Mof_H 	H 	0.8913	0.5446	0.7503	0.031
Mof_C 	C 	0.908	0.5034	0.6984	-0.023
Mof_H 	H 	0.8463	0.5049	0.6913	0.045
Mof_C 	C 	0.9714	0.4778	0.6738	-0.014
Mof_C 	C 	0.0616	0.4757	0.6842	-0.034
Mof_H 	H 	0.105	0.4581	0.6674	0.042
Mof_O 	O 	0.0047	0.0856	0.3004	-0.505
Mof_O 	O 	0.8528	0.9486	0.1305	-0.496
Mof_O 	O 	0.139	0.0507	0.2894	-0.557
Mof_O 	O 	0.9902	0.9189	0.1171	-0.494
Mof_C 	C 	0.9343	0.947	0.1392	0.293
Mof_C 	C 	0.0594	0.0546	0.2803	0.344
Mof_C 	C 	0.0795	0.979	0.2233	0.05
Mof_C 	C 	0.0275	0.0216	0.2442	-0.042
Mof_C 	C 	0.9438	0.0408	0.2308	-0.005
Mof_H 	H 	0.9083	0.0699	0.2451	0.021
Mof_C 	C 	0.912	0.0173	0.1965	-0.02
Mof_H 	H 	0.8547	0.0304	0.1873	0.02
Mof_C 	C 	0.9639	0.9747	0.1756	-0.007
Mof_C 	C 	0.0476	0.9555	0.189	-0.055
Mof_H 	H 	0.0831	0.9264	0.1748	0.055
Mof_N 	N 	0.1644	0.9582	0.2359	-0.149
Mof_H 	H 	0.1927	0.9329	0.2188	0.083
Mof_H 	H 	0.1595	0.935	0.2574	0.098
Mof_N 	N 	0.1808	0.993	0.2261	-0.17
Mof_H 	H 	0.2068	0.0308	0.2297	0.117
Mof_H 	H 	0.2067	0.9743	0.2063	0.091
Mof_C 	C 	0.0884	0.9992	0.2193	0.054
Mof_C 	C 	0.0249	0.0249	0.2439	-0.044
Mof_C 	C 	0.9347	0.027	0.2335	-0.007
Mof_H 	H 	0.8913	0.0446	0.2503	0.031
Mof_C 	C 	0.908	0.0034	0.1984	-0.023
Mof_H 	H 	0.8463	0.0049	0.1913	0.045
Mof_C 	C 	0.9714	0.9778	0.1738	-0.014
Mof_C 	C 	0.0616	0.9757	0.1842	-0.034
Mof_H 	H 	0.105	0.9581	0.1674	0.042
Mof_O 	O 	0.5047	0.5856	0.3004	-0.505
Mof_O 	O 	0.3528	0.4486	0.1305	-0.497
Mof_O 	O 	0.639	0.5507	0.2894	-0.557
Mof_O 	O 	0.4902	0.4189	0.1171	-0.494
Mof_C 	C 	0.4343	0.447	0.1392	0.293
Mof_C 	C 	0.5594	0.5546	0.2803	0.345
Mof_C 	C 	0.5795	0.479	0.2233	0.05
Mof_C 	C 	0.5275	0.5216	0.2442	-0.042
Mof_C 	C 	0.4438	0.5408	0.2308	-0.005
Mof_H 	H 	0.4083	0.5699	0.2451	0.021
Mof_C 	C 	0.412	0.5173	0.1965	-0.02
Mof_H 	H 	0.3547	0.5304	0.1873	0.02
Mof_C 	C 	0.4639	0.4747	0.1756	-0.008
Mof_C 	C 	0.5476	0.4555	0.189	-0.055
Mof_H 	H 	0.5831	0.4264	0.1748	0.055
Mof_N 	N 	0.6644	0.4582	0.2359	-0.149
Mof_H 	H 	0.6927	0.4329	0.2188	0.083
Mof_H 	H 	0.6595	0.435	0.2574	0.098
Mof_N 	N 	0.6808	0.493	0.2261	-0.169
Mof_H 	H 	0.7068	0.5308	0.2297	0.117
Mof_H 	H 	0.7067	0.4743	0.2063	0.091
Mof_C 	C 	0.5884	0.4992	0.2193	0.054
Mof_C 	C 	0.5249	0.5249	0.2439	-0.044
Mof_C 	C 	0.4347	0.527	0.2335	-0.007
Mof_H 	H 	0.3913	0.5446	0.2503	0.031
Mof_C 	C 	0.408	0.5034	0.1984	-0.023
Mof_H 	H 	0.3463	0.5049	0.1913	0.045
Mof_C 	C 	0.4714	0.4778	0.1738	-0.014
Mof_C 	C 	0.5616	0.4757	0.1842	-0.034
Mof_H 	H 	0.605	0.4581	0.1674	0.042
Mof_O 	O 	0.5047	0.0856	0.8004	-0.505
Mof_O 	O 	0.3528	0.9486	0.6305	-0.497
Mof_O 	O 	0.639	0.0507	0.7894	-0.557
Mof_O 	O 	0.4902	0.9189	0.6171	-0.494
Mof_C 	C 	0.4343	0.947	0.6392	0.293
Mof_C 	C 	0.5594	0.0546	0.7803	0.345
Mof_C 	C 	0.5795	0.979	0.7233	0.05
Mof_C 	C 	0.5275	0.0216	0.7442	-0.042
Mof_C 	C 	0.4438	0.0408	0.7308	-0.005
Mof_H 	H 	0.4083	0.0699	0.7451	0.021
Mof_C 	C 	0.412	0.0173	0.6965	-0.02
Mof_H 	H 	0.3547	0.0304	0.6873	0.02
Mof_C 	C 	0.4639	0.9747	0.6756	-0.008
Mof_C 	C 	0.5476	0.9555	0.689	-0.055
Mof_H 	H 	0.5831	0.9264	0.6748	0.055
Mof_N 	N 	0.6644	0.9582	0.7359	-0.149
Mof_H 	H 	0.6927	0.9329	0.7188	0.083
Mof_H 	H 	0.6595	0.935	0.7574	0.098
Mof_N 	N 	0.6808	0.993	0.7261	-0.169
Mof_H 	H 	0.7068	0.0308	0.7297	0.116
Mof_H 	H 	0.7067	0.9743	0.7063	0.091
Mof_C 	C 	0.5884	0.9992	0.7193	0.054
Mof_C 	C 	0.5249	0.0249	0.7439	-0.044
Mof_C 	C 	0.4347	0.027	0.7335	-0.007
Mof_H 	H 	0.3913	0.0446	0.7503	0.031
Mof_C 	C 	0.408	0.0034	0.6984	-0.023
Mof_H 	H 	0.3463	0.0049	0.6913	0.045
Mof_C 	C 	0.4714	0.9778	0.6738	-0.014
Mof_C 	C 	0.5616	0.9757	0.6842	-0.034
Mof_H 	H 	0.605	0.9581	0.6674	0.042
Mof_O 	O 	0.2453	0.6644	0.8004	-0.505
Mof_O 	O 	0.3972	0.8014	0.6305	-0.496
Mof_O 	O 	0.111	0.6993	0.7894	-0.557
Mof_O 	O 	0.2598	0.8311	0.6171	-0.494
Mof_C 	C 	0.3157	0.803	0.6392	0.293
Mof_C 	C 	0.1906	0.6954	0.7803	0.345
Mof_C 	C 	0.1705	0.771	0.7233	0.05
Mof_C 	C 	0.2225	0.7284	0.7442	-0.042
Mof_C 	C 	0.3062	0.7092	0.7308	-0.005
Mof_H 	H 	0.3417	0.6801	0.7451	0.021
Mof_C 	C 	0.338	0.7327	0.6965	-0.02
Mof_H 	H 	0.3953	0.7196	0.6873	0.02
Mof_C 	C 	0.2861	0.7753	0.6756	-0.008
Mof_C 	C 	0.2024	0.7945	0.689	-0.055
Mof_H 	H 	0.1669	0.8236	0.6748	0.055
Mof_N 	N 	0.0856	0.7918	0.7359	-0.149
Mof_H 	H 	0.0573	0.8171	0.7188	0.083
Mof_H 	H 	0.0905	0.815	0.7574	0.098
Mof_N 	N 	0.0692	0.757	0.7261	-0.169
Mof_H 	H 	0.0432	0.7192	0.7297	0.116
Mof_H 	H 	0.0433	0.7757	0.7063	0.09
Mof_C 	C 	0.1616	0.7508	0.7193	0.054
Mof_C 	C 	0.2251	0.7251	0.7439	-0.044
Mof_C 	C 	0.3153	0.723	0.7335	-0.007
Mof_H 	H 	0.3587	0.7054	0.7503	0.031
Mof_C 	C 	0.342	0.7466	0.6984	-0.023
Mof_H 	H 	0.4037	0.7451	0.6913	0.045
Mof_C 	C 	0.2786	0.7722	0.6738	-0.014
Mof_C 	C 	0.1884	0.7743	0.6842	-0.034
Mof_H 	H 	0.145	0.7919	0.6674	0.042
Mof_O 	O 	0.2453	0.1644	0.3004	-0.505
Mof_O 	O 	0.3972	0.3014	0.1305	-0.497
Mof_O 	O 	0.111	0.1993	0.2894	-0.557
Mof_O 	O 	0.2598	0.3311	0.1171	-0.494
Mof_C 	C 	0.3157	0.303	0.1392	0.293
Mof_C 	C 	0.1906	0.1954	0.2803	0.345
Mof_C 	C 	0.1705	0.271	0.2233	0.05
Mof_C 	C 	0.2225	0.2284	0.2442	-0.042
Mof_C 	C 	0.3062	0.2092	0.2308	-0.005
Mof_H 	H 	0.3417	0.1801	0.2451	0.021
Mof_C 	C 	0.338	0.2327	0.1965	-0.02
Mof_H 	H 	0.3953	0.2196	0.1873	0.02
Mof_C 	C 	0.2861	0.2753	0.1756	-0.008
Mof_C 	C 	0.2024	0.2945	0.189	-0.055
Mof_H 	H 	0.1669	0.3236	0.1748	0.055
Mof_N 	N 	0.0856	0.2918	0.2359	-0.149
Mof_H 	H 	0.0573	0.3171	0.2188	0.083
Mof_H 	H 	0.0905	0.315	0.2574	0.098
Mof_N 	N 	0.0692	0.257	0.2261	-0.169
Mof_H 	H 	0.0432	0.2192	0.2297	0.117
Mof_H 	H 	0.0433	0.2757	0.2063	0.091
Mof_C 	C 	0.1616	0.2508	0.2193	0.054
Mof_C 	C 	0.2251	0.2251	0.2439	-0.044
Mof_C 	C 	0.3153	0.223	0.2335	-0.007
Mof_H 	H 	0.3587	0.2054	0.2503	0.031
Mof_C 	C 	0.342	0.2466	0.1984	-0.023
Mof_H 	H 	0.4037	0.2451	0.1913	0.045
Mof_C 	C 	0.2786	0.2722	0.1738	-0.014
Mof_C 	C 	0.1884	0.2743	0.1842	-0.034
Mof_H 	H 	0.145	0.2919	0.1674	0.042
Mof_O 	O 	0.7453	0.6644	0.3004	-0.505
Mof_O 	O 	0.8972	0.8014	0.1305	-0.497
Mof_O 	O 	0.611	0.6993	0.2894	-0.557
Mof_O 	O 	0.7598	0.8311	0.1171	-0.494
Mof_C 	C 	0.8157	0.803	0.1392	0.293
Mof_C 	C 	0.6906	0.6954	0.2803	0.345
Mof_C 	C 	0.6705	0.771	0.2233	0.05
Mof_C 	C 	0.7225	0.7284	0.2442	-0.042
Mof_C 	C 	0.8062	0.7092	0.2308	-0.005
Mof_H 	H 	0.8417	0.6801	0.2451	0.021
Mof_C 	C 	0.838	0.7327	0.1965	-0.02
Mof_H 	H 	0.8953	0.7196	0.1873	0.02
Mof_C 	C 	0.7861	0.7753	0.1756	-0.008
Mof_C 	C 	0.7024	0.7945	0.189	-0.055
Mof_H 	H 	0.6669	0.8236	0.1748	0.055
Mof_N 	N 	0.5856	0.7918	0.2359	-0.149
Mof_H 	H 	0.5573	0.8171	0.2188	0.083
Mof_H 	H 	0.5905	0.815	0.2574	0.098
Mof_N 	N 	0.5692	0.757	0.2261	-0.169
Mof_H 	H 	0.5432	0.7192	0.2297	0.117
Mof_H 	H 	0.5433	0.7757	0.2063	0.091
Mof_C 	C 	0.6616	0.7508	0.2193	0.054
Mof_C 	C 	0.7251	0.7251	0.2439	-0.044
Mof_C 	C 	0.8153	0.723	0.2335	-0.007
Mof_H 	H 	0.8587	0.7054	0.2503	0.031
Mof_C 	C 	0.842	0.7466	0.1984	-0.023
Mof_H 	H 	0.9037	0.7451	0.1913	0.045
Mof_C 	C 	0.7786	0.7722	0.1738	-0.014
Mof_C 	C 	0.6884	0.7743	0.1842	-0.034
Mof_H 	H 	0.645	0.7919	0.1674	0.042
Mof_O 	O 	0.7453	0.1644	0.8004	-0.505
Mof_O 	O 	0.8972	0.3014	0.6305	-0.497
Mof_O 	O 	0.611	0.1993	0.7894	-0.557
Mof_O 	O 	0.7598	0.3311	0.6171	-0.494
Mof_C 	C 	0.8157	0.303	0.6392	0.293
Mof_C 	C 	0.6906	0.1954	0.7803	0.345
Mof_C 	C 	0.6705	0.271	0.7233	0.05
Mof_C 	C 	0.7225	0.2284	0.7442	-0.042
Mof_C 	C 	0.8062	0.2092	0.7308	-0.005
Mof_H 	H 	0.8417	0.1801	0.7451	0.021
Mof_C 	C 	0.838	0.2327	0.6965	-0.02
Mof_H 	H 	0.8953	0.2196	0.6873	0.02
Mof_C 	C 	0.7861	0.2753	0.6756	-0.008
Mof_C 	C 	0.7024	0.2945	0.689	-0.055
Mof_H 	H 	0.6669	0.3236	0.6748	0.055
Mof_N 	N 	0.5856	0.2918	0.7359	-0.149
Mof_H 	H 	0.5573	0.3171	0.7188	0.083
Mof_H 	H 	0.5905	0.315	0.7574	0.098
Mof_N 	N 	0.5692	0.257	0.7261	-0.169
Mof_H 	H 	0.5432	0.2192	0.7297	0.117
Mof_H 	H 	0.5433	0.2757	0.7063	0.091
Mof_C 	C 	0.6616	0.2508	0.7193	0.054
Mof_C 	C 	0.7251	0.2251	0.7439	-0.044
Mof_C 	C 	0.8153	0.223	0.7335	-0.007
Mof_H 	H 	0.8587	0.2054	0.7503	0.031
Mof_C 	C 	0.842	0.2466	0.6984	-0.023
Mof_H 	H 	0.9037	0.2451	0.6913	0.045
Mof_C 	C 	0.7786	0.2722	0.6738	-0.014
Mof_C 	C 	0.6884	0.2743	0.6842	-0.034
Mof_H 	H 	0.645	0.2919	0.6674	0.042
Mof_In	In	0.875	0.375	0.58384	2.554
Mof_In	In	0.875	0.875	0.08384	2.554
Mof_In	In	0.375	0.375	0.08384	2.554
Mof_In	In	0.375	0.875	0.58384	2.554
Mof_In	In	0.125	0.625	0.83384	2.554
Mof_In	In	0.125	0.125	0.33384	2.554
Mof_In	In	0.625	0.625	0.33384	2.554
Mof_In	In	0.625	0.125	0.83384	2.554
Mof_O 	O 	0.9953	0.4144	0.1996	-0.505
Mof_O 	O 	0.1472	0.5514	0.3695	-0.497
Mof_O 	O 	0.861	0.4493	0.2106	-0.557
Mof_O 	O 	0.0098	0.5811	0.3829	-0.494
Mof_C 	C 	0.0657	0.553	0.3608	0.293
Mof_C 	C 	0.9406	0.4454	0.2197	0.345
Mof_C 	C 	0.9205	0.521	0.2767	0.05
Mof_C 	C 	0.9725	0.4784	0.2558	-0.042
Mof_C 	C 	0.0562	0.4592	0.2692	-0.005
Mof_H 	H 	0.0917	0.4301	0.2549	0.021
Mof_C 	C 	0.088	0.4827	0.3035	-0.02
Mof_H 	H 	0.1453	0.4696	0.3127	0.02
Mof_C 	C 	0.0361	0.5253	0.3244	-0.008
Mof_C 	C 	0.9524	0.5445	0.311	-0.055
Mof_H 	H 	0.9169	0.5736	0.3252	0.055
Mof_N 	N 	0.8356	0.5418	0.2641	-0.149
Mof_H 	H 	0.8073	0.5671	0.2812	0.083
Mof_H 	H 	0.8405	0.565	0.2426	0.098
Mof_N 	N 	0.8192	0.507	0.2739	-0.169
Mof_H 	H 	0.7932	0.4692	0.2703	0.117
Mof_H 	H 	0.7933	0.5257	0.2937	0.091
Mof_C 	C 	0.9116	0.5008	0.2807	0.054
Mof_C 	C 	0.9751	0.4751	0.2561	-0.044
Mof_C 	C 	0.0653	0.473	0.2665	-0.007
Mof_H 	H 	0.1087	0.4554	0.2497	0.031
Mof_C 	C 	0.092	0.4966	0.3016	-0.023
Mof_H 	H 	0.1537	0.4951	0.3087	0.045
Mof_C 	C 	0.0286	0.5222	0.3262	-0.014
Mof_C 	C 	0.9384	0.5243	0.3158	-0.034
Mof_H 	H 	0.895	0.5419	0.3326	0.042
Mof_O 	O 	0.9953	0.9144	0.6996	-0.505
Mof_O 	O 	0.1472	0.0514	0.8695	-0.496
Mof_O 	O 	0.861	0.9493	0.7106	-0.557
Mof_O 	O 	0.0098	0.0811	0.8829	-0.494
Mof_C 	C 	0.0657	0.053	0.8608	0.293
Mof_C 	C 	0.9406	0.9454	0.7197	0.344
Mof_C 	C 	0.9205	0.021	0.7767	0.05
Mof_C 	C 	0.9725	0.9784	0.7558	-0.042
Mof_C 	C 	0.0562	0.9592	0.7692	-0.005
Mof_H 	H 	0.0917	0.9301	0.7549	0.021
Mof_C 	C 	0.088	0.9827	0.8035	-0.02
Mof_H 	H 	0.1453	0.9696	0.8127	0.02
Mof_C 	C 	0.0361	0.0253	0.8244	-0.007
Mof_C 	C 	0.9524	0.0445	0.811	-0.055
Mof_H 	H 	0.9169	0.0736	0.8252	0.055
Mof_N 	N 	0.8356	0.0418	0.7641	-0.149
Mof_H 	H 	0.8073	0.0671	0.7812	0.083
Mof_H 	H 	0.8405	0.065	0.7426	0.098
Mof_N 	N 	0.8192	0.007	0.7739	-0.17
Mof_H 	H 	0.7932	0.9692	0.7703	0.117
Mof_H 	H 	0.7933	0.0257	0.7937	0.091
Mof_C 	C 	0.9116	0.0008	0.7807	0.054
Mof_C 	C 	0.9751	0.9751	0.7561	-0.044
Mof_C 	C 	0.0653	0.973	0.7665	-0.007
Mof_H 	H 	0.1087	0.9554	0.7497	0.031
Mof_C 	C 	0.092	0.9966	0.8016	-0.023
Mof_H 	H 	0.1537	0.9951	0.8087	0.045
Mof_C 	C 	0.0286	0.0222	0.8262	-0.014
Mof_C 	C 	0.9384	0.0243	0.8158	-0.034
Mof_H 	H 	0.895	0.0419	0.8326	0.042
Mof_O 	O 	0.4953	0.4144	0.6996	-0.505
Mof_O 	O 	0.6472	0.5514	0.8695	-0.497
Mof_O 	O 	0.361	0.4493	0.7106	-0.557
Mof_O 	O 	0.5098	0.5811	0.8829	-0.494
Mof_C 	C 	0.5657	0.553	0.8608	0.293
Mof_C 	C 	0.4406	0.4454	0.7197	0.345
Mof_C 	C 	0.4205	0.521	0.7767	0.05
Mof_C 	C 	0.4725	0.4784	0.7558	-0.042
Mof_C 	C 	0.5562	0.4592	0.7692	-0.005
Mof_H 	H 	0.5917	0.4301	0.7549	0.021
Mof_C 	C 	0.588	0.4827	0.8035	-0.02
Mof_H 	H 	0.6453	0.4696	0.8127	0.02
Mof_C 	C 	0.5361	0.5253	0.8244	-0.008
Mof_C 	C 	0.4524	0.5445	0.811	-0.055
Mof_H 	H 	0.4169	0.5736	0.8252	0.055
Mof_N 	N 	0.3356	0.5418	0.7641	-0.149
Mof_H 	H 	0.3073	0.5671	0.7812	0.083
Mof_H 	H 	0.3405	0.565	0.7426	0.098
Mof_N 	N 	0.3192	0.507	0.7739	-0.169
Mof_H 	H 	0.2932	0.4692	0.7703	0.117
Mof_H 	H 	0.2933	0.5257	0.7937	0.091
Mof_C 	C 	0.4116	0.5008	0.7807	0.054
Mof_C 	C 	0.4751	0.4751	0.7561	-0.044
Mof_C 	C 	0.5653	0.473	0.7665	-0.007
Mof_H 	H 	0.6087	0.4554	0.7497	0.031
Mof_C 	C 	0.592	0.4966	0.8016	-0.023
Mof_H 	H 	0.6537	0.4951	0.8087	0.045
Mof_C 	C 	0.5286	0.5222	0.8262	-0.014
Mof_C 	C 	0.4384	0.5243	0.8158	-0.034
Mof_H 	H 	0.395	0.5419	0.8326	0.042
Mof_O 	O 	0.4953	0.9144	0.1996	-0.505
Mof_O 	O 	0.6472	0.0514	0.3695	-0.497
Mof_O 	O 	0.361	0.9493	0.2106	-0.557
Mof_O 	O 	0.5098	0.0811	0.3829	-0.494
Mof_C 	C 	0.5657	0.053	0.3608	0.293
Mof_C 	C 	0.4406	0.9454	0.2197	0.345
Mof_C 	C 	0.4205	0.021	0.2767	0.05
Mof_C 	C 	0.4725	0.9784	0.2558	-0.042
Mof_C 	C 	0.5562	0.9592	0.2692	-0.005
Mof_H 	H 	0.5917	0.9301	0.2549	0.021
Mof_C 	C 	0.588	0.9827	0.3035	-0.02
Mof_H 	H 	0.6453	0.9696	0.3127	0.02
Mof_C 	C 	0.5361	0.0253	0.3244	-0.008
Mof_C 	C 	0.4524	0.0445	0.311	-0.055
Mof_H 	H 	0.4169	0.0736	0.3252	0.055
Mof_N 	N 	0.3356	0.0418	0.2641	-0.149
Mof_H 	H 	0.3073	0.0671	0.2812	0.083
Mof_H 	H 	0.3405	0.065	0.2426	0.098
Mof_N 	N 	0.3192	0.007	0.2739	-0.169
Mof_H 	H 	0.2932	0.9692	0.2703	0.116
Mof_H 	H 	0.2933	0.0257	0.2937	0.091
Mof_C 	C 	0.4116	0.0008	0.2807	0.054
Mof_C 	C 	0.4751	0.9751	0.2561	-0.044
Mof_C 	C 	0.5653	0.973	0.2665	-0.007
Mof_H 	H 	0.6087	0.9554	0.2497	0.031
Mof_C 	C 	0.592	0.9966	0.3016	-0.023
Mof_H 	H 	0.6537	0.9951	0.3087	0.045
Mof_C 	C 	0.5286	0.0222	0.3262	-0.014
Mof_C 	C 	0.4384	0.0243	0.3158	-0.034
Mof_H 	H 	0.395	0.0419	0.3326	0.042
Mof_O 	O 	0.7547	0.3356	0.1996	-0.505
Mof_O 	O 	0.6028	0.1986	0.3695	-0.496
Mof_O 	O 	0.889	0.3007	0.2106	-0.557
Mof_O 	O 	0.7402	0.1689	0.3829	-0.494
Mof_C 	C 	0.6843	0.197	0.3608	0.293
Mof_C 	C 	0.8094	0.3046	0.2197	0.345
Mof_C 	C 	0.8295	0.229	0.2767	0.05
Mof_C 	C 	0.7775	0.2716	0.2558	-0.042
Mof_C 	C 	0.6938	0.2908	0.2692	-0.005
Mof_H 	H 	0.6583	0.3199	0.2549	0.021
Mof_C 	C 	0.662	0.2673	0.3035	-0.02
Mof_H 	H 	0.6047	0.2804	0.3127	0.02
Mof_C 	C 	0.7139	0.2247	0.3244	-0.008
Mof_C 	C 	0.7976	0.2055	0.311	-0.055
Mof_H 	H 	0.8331	0.1764	0.3252	0.055
Mof_N 	N 	0.9144	0.2082	0.2641	-0.149
Mof_H 	H 	0.9427	0.1829	0.2812	0.083
Mof_H 	H 	0.9095	0.185	0.2426	0.098
Mof_N 	N 	0.9308	0.243	0.2739	-0.169
Mof_H 	H 	0.9568	0.2808	0.2703	0.116
Mof_H 	H 	0.9567	0.2243	0.2937	0.09
Mof_C 	C 	0.8384	0.2492	0.2807	0.054
Mof_C 	C 	0.7749	0.2749	0.2561	-0.044
Mof_C 	C 	0.6847	0.277	0.2665	-0.007
Mof_H 	H 	0.6413	0.2946	0.2497	0.031
Mof_C 	C 	0.658	0.2534	0.3016	-0.023
Mof_H 	H 	0.5963	0.2549	0.3087	0.045
Mof_C 	C 	0.7214	0.2278	0.3262	-0.014
Mof_C 	C 	0.8116	0.2257	0.3158	-0.034
Mof_H 	H 	0.855	0.2081	0.3326	0.042
Mof_O 	O 	0.7547	0.8356	0.6996	-0.505
Mof_O 	O 	0.6028	0.6986	0.8695	-0.497
Mof_O 	O 	0.889	0.8007	0.7106	-0.557
Mof_O 	O 	0.7402	0.6689	0.8829	-0.494
Mof_C 	C 	0.6843	0.697	0.8608	0.293
Mof_C 	C 	0.8094	0.8046	0.7197	0.345
Mof_C 	C 	0.8295	0.729	0.7767	0.05
Mof_C 	C 	0.7775	0.7716	0.7558	-0.042
Mof_C 	C 	0.6938	0.7908	0.7692	-0.005
Mof_H 	H 	0.6583	0.8199	0.7549	0.021
Mof_C 	C 	0.662	0.7673	0.8035	-0.02
Mof_H 	H 	0.6047	0.7804	0.8127	0.02
Mof_C 	C 	0.7139	0.7247	0.8244	-0.008
Mof_C 	C 	0.7976	0.7055	0.811	-0.055
Mof_H 	H 	0.8331	0.6764	0.8252	0.055
Mof_N 	N 	0.9144	0.7082	0.7641	-0.149
Mof_H 	H 	0.9427	0.6829	0.7812	0.083
Mof_H 	H 	0.9095	0.685	0.7426	0.098
Mof_N 	N 	0.9308	0.743	0.7739	-0.169
Mof_H 	H 	0.9568	0.7808	0.7703	0.117
Mof_H 	H 	0.9567	0.7243	0.7937	0.091
Mof_C 	C 	0.8384	0.7492	0.7807	0.054
Mof_C 	C 	0.7749	0.7749	0.7561	-0.044
Mof_C 	C 	0.6847	0.777	0.7665	-0.007
Mof_H 	H 	0.6413	0.7946	0.7497	0.031
Mof_C 	C 	0.658	0.7534	0.8016	-0.023
Mof_H 	H 	0.5963	0.7549	0.8087	0.045
Mof_C 	C 	0.7214	0.7278	0.8262	-0.014
Mof_C 	C 	0.8116	0.7257	0.8158	-0.034
Mof_H 	H 	0.855	0.7081	0.8326	0.042
Mof_O 	O 	0.2547	0.3356	0.6996	-0.505
Mof_O 	O 	0.1028	0.1986	0.8695	-0.497
Mof_O 	O 	0.389	0.3007	0.7106	-0.557
Mof_O 	O 	0.2402	0.1689	0.8829	-0.494
Mof_C 	C 	0.1843	0.197	0.8608	0.293
Mof_C 	C 	0.3094	0.3046	0.7197	0.345
Mof_C 	C 	0.3295	0.229	0.7767	0.05
Mof_C 	C 	0.2775	0.2716	0.7558	-0.042
Mof_C 	C 	0.1938	0.2908	0.7692	-0.005
Mof_H 	H 	0.1583	0.3199	0.7549	0.021
Mof_C 	C 	0.162	0.2673	0.8035	-0.02
Mof_H 	H 	0.1047	0.2804	0.8127	0.02
Mof_C 	C 	0.2139	0.2247	0.8244	-0.008
Mof_C 	C 	0.2976	0.2055	0.811	-0.055
Mof_H 	H 	0.3331	0.1764	0.8252	0.055
Mof_N 	N 	0.4144	0.2082	0.7641	-0.149
Mof_H 	H 	0.4427	0.1829	0.7812	0.083
Mof_H 	H 	0.4095	0.185	0.7426	0.098
Mof_N 	N 	0.4308	0.243	0.7739	-0.169
Mof_H 	H 	0.4568	0.2808	0.7703	0.117
Mof_H 	H 	0.4567	0.2243	0.7937	0.091
Mof_C 	C 	0.3384	0.2492	0.7807	0.054
Mof_C 	C 	0.2749	0.2749	0.7561	-0.044
Mof_C 	C 	0.1847	0.277	0.7665	-0.007
Mof_H 	H 	0.1413	0.2946	0.7497	0.031
Mof_C 	C 	0.158	0.2534	0.8016	-0.023
Mof_H 	H 	0.0963	0.2549	0.8087	0.045
Mof_C 	C 	0.2214	0.2278	0.8262	-0.014
Mof_C 	C 	0.3116	0.2257	0.8158	-0.034
Mof_H 	H 	0.355	0.2081	0.8326	0.042
Mof_O 	O 	0.2547	0.8356	0.1996	-0.505
Mof_O 	O 	0.1028	0.6986	0.3695	-0.497
Mof_O 	O 	0.389	0.8007	0.2106	-0.557
Mof_O 	O 	0.2402	0.6689	0.3829	-0.494
Mof_C 	C 	0.1843	0.697	0.3608	0.293
Mof_C 	C 	0.3094	0.8046	0.2197	0.345
Mof_C 	C 	0.3295	0.729	0.2767	0.05
Mof_C 	C 	0.2775	0.7716	0.2558	-0.042
Mof_C 	C 	0.1938	0.7908	0.2692	-0.005
Mof_H 	H 	0.1583	0.8199	0.2549	0.021
Mof_C 	C 	0.162	0.7673	0.3035	-0.02
Mof_H 	H 	0.1047	0.7804	0.3127	0.02
Mof_C 	C 	0.2139	0.7247	0.3244	-0.008
Mof_C 	C 	0.2976	0.7055	0.311	-0.055
Mof_H 	H 	0.3331	0.6764	0.3252	0.055
Mof_N 	N 	0.4144	0.7082	0.2641	-0.149
Mof_H 	H 	0.4427	0.6829	0.2812	0.083
Mof_H 	H 	0.4095	0.685	0.2426	0.098
Mof_N 	N 	0.4308	0.743	0.2739	-0.169
Mof_H 	H 	0.4568	0.7808	0.2703	0.117
Mof_H 	H 	0.4567	0.7243	0.2937	0.091
Mof_C 	C 	0.3384	0.7492	0.2807	0.054
Mof_C 	C 	0.2749	0.7749	0.2561	-0.044
Mof_C 	C 	0.1847	0.777	0.2665	-0.007
Mof_H 	H 	0.1413	0.7946	0.2497	0.031
Mof_C 	C 	0.158	0.7534	0.3016	-0.023
Mof_H 	H 	0.0963	0.7549	0.3087	0.045
Mof_C 	C 	0.2214	0.7278	0.3262	-0.014
Mof_C 	C 	0.3116	0.7257	0.3158	-0.034
Mof_H 	H 	0.355	0.7081	0.3326	0.042
Mof_O 	O 	0.2453	0.5856	0.4496	-0.505
Mof_O 	O 	0.3972	0.4486	0.6195	-0.496
Mof_O 	O 	0.111	0.5507	0.4606	-0.557
Mof_O 	O 	0.2598	0.4189	0.6329	-0.494
Mof_C 	C 	0.3157	0.447	0.6108	0.293
Mof_C 	C 	0.1906	0.5546	0.4697	0.345
Mof_C 	C 	0.1705	0.479	0.5267	0.05
Mof_C 	C 	0.2225	0.5216	0.5058	-0.042
Mof_C 	C 	0.3062	0.5408	0.5192	-0.005
Mof_H 	H 	0.3417	0.5699	0.5049	0.021
Mof_C 	C 	0.338	0.5173	0.5535	-0.02
Mof_H 	H 	0.3953	0.5304	0.5627	0.02
Mof_C 	C 	0.2861	0.4747	0.5744	-0.008
Mof_C 	C 	0.2024	0.4555	0.561	-0.055
Mof_H 	H 	0.1669	0.4264	0.5752	0.055
Mof_N 	N 	0.0856	0.4582	0.5141	-0.149
Mof_H 	H 	0.0573	0.4329	0.5312	0.083
Mof_H 	H 	0.0905	0.435	0.4926	0.098
Mof_N 	N 	0.0692	0.493	0.5239	-0.169
Mof_H 	H 	0.0432	0.5308	0.5203	0.117
Mof_H 	H 	0.0433	0.4743	0.5437	0.09
Mof_C 	C 	0.1616	0.4992	0.5307	0.054
Mof_C 	C 	0.2251	0.5249	0.5061	-0.044
Mof_C 	C 	0.3153	0.527	0.5165	-0.007
Mof_H 	H 	0.3587	0.5446	0.4997	0.031
Mof_C 	C 	0.342	0.5034	0.5516	-0.023
Mof_H 	H 	0.4037	0.5049	0.5587	0.045
Mof_C 	C 	0.2786	0.4778	0.5762	-0.014
Mof_C 	C 	0.1884	0.4757	0.5658	-0.034
Mof_H 	H 	0.145	0.4581	0.5826	0.042
Mof_O 	O 	0.2453	0.0856	0.9496	-0.505
Mof_O 	O 	0.3972	0.9486	0.1195	-0.497
Mof_O 	O 	0.111	0.0507	0.9606	-0.557
Mof_O 	O 	0.2598	0.9189	0.1329	-0.494
Mof_C 	C 	0.3157	0.947	0.1108	0.293
Mof_C 	C 	0.1906	0.0546	0.9697	0.345
Mof_C 	C 	0.1705	0.979	0.0267	0.05
Mof_C 	C 	0.2225	0.0216	0.0058	-0.042
Mof_C 	C 	0.3062	0.0408	0.0192	-0.005
Mof_H 	H 	0.3417	0.0699	0.0049	0.021
Mof_C 	C 	0.338	0.0173	0.0535	-0.02
Mof_H 	H 	0.3953	0.0304	0.0627	0.02
Mof_C 	C 	0.2861	0.9747	0.0744	-0.008
Mof_C 	C 	0.2024	0.9555	0.061	-0.055
Mof_H 	H 	0.1669	0.9264	0.0752	0.055
Mof_N 	N 	0.0856	0.9582	0.0141	-0.148
Mof_H 	H 	0.0573	0.9329	0.0312	0.082
Mof_H 	H 	0.0905	0.935	0.9926	0.098
Mof_N 	N 	0.0692	0.993	0.0239	-0.17
Mof_H 	H 	0.0432	0.0308	0.0203	0.117
Mof_H 	H 	0.0433	0.9743	0.0437	0.09
Mof_C 	C 	0.1616	0.9992	0.0307	0.054
Mof_C 	C 	0.2251	0.0249	0.0061	-0.044
Mof_C 	C 	0.3153	0.027	0.0165	-0.007
Mof_H 	H 	0.3587	0.0446	0.9997	0.031
Mof_C 	C 	0.342	0.0034	0.0516	-0.023
Mof_H 	H 	0.4037	0.0049	0.0587	0.045
Mof_C 	C 	0.2786	0.9778	0.0762	-0.014
Mof_C 	C 	0.1884	0.9757	0.0658	-0.034
Mof_H 	H 	0.145	0.9581	0.0826	0.042
Mof_O 	O 	0.7453	0.5856	0.9496	-0.505
Mof_O 	O 	0.8972	0.4486	0.1195	-0.497
Mof_O 	O 	0.611	0.5507	0.9606	-0.557
Mof_O 	O 	0.7598	0.4189	0.1329	-0.494
Mof_C 	C 	0.8157	0.447	0.1108	0.293
Mof_C 	C 	0.6906	0.5546	0.9697	0.345
Mof_C 	C 	0.6705	0.479	0.0267	0.05
Mof_C 	C 	0.7225	0.5216	0.0058	-0.042
Mof_C 	C 	0.8062	0.5408	0.0192	-0.005
Mof_H 	H 	0.8417	0.5699	0.0049	0.021
Mof_C 	C 	0.838	0.5173	0.0535	-0.02
Mof_H 	H 	0.8953	0.5304	0.0627	0.02
Mof_C 	C 	0.7861	0.4747	0.0744	-0.008
Mof_C 	C 	0.7024	0.4555	0.061	-0.055
Mof_H 	H 	0.6669	0.4264	0.0752	0.055
Mof_N 	N 	0.5856	0.4582	0.0141	-0.149
Mof_H 	H 	0.5573	0.4329	0.0312	0.083
Mof_H 	H 	0.5905	0.435	0.9926	0.098
Mof_N 	N 	0.5692	0.493	0.0239	-0.169
Mof_H 	H 	0.5432	0.5308	0.0203	0.117
Mof_H 	H 	0.5433	0.4743	0.0437	0.091
Mof_C 	C 	0.6616	0.4992	0.0307	0.054
Mof_C 	C 	0.7251	0.5249	0.0061	-0.044
Mof_C 	C 	0.8153	0.527	0.0165	-0.007
Mof_H 	H 	0.8587	0.5446	0.9997	0.031
Mof_C 	C 	0.842	0.5034	0.0516	-0.023
Mof_H 	H 	0.9037	0.5049	0.0587	0.045
Mof_C 	C 	0.7786	0.4778	0.0762	-0.014
Mof_C 	C 	0.6884	0.4757	0.0658	-0.034
Mof_H 	H 	0.645	0.4581	0.0826	0.042
Mof_O 	O 	0.7453	0.0856	0.4496	-0.505
Mof_O 	O 	0.8972	0.9486	0.6195	-0.497
Mof_O 	O 	0.611	0.0507	0.4606	-0.557
Mof_O 	O 	0.7598	0.9189	0.6329	-0.494
Mof_C 	C 	0.8157	0.947	0.6108	0.293
Mof_C 	C 	0.6906	0.0546	0.4697	0.345
Mof_C 	C 	0.6705	0.979	0.5267	0.05
Mof_C 	C 	0.7225	0.0216	0.5058	-0.042
Mof_C 	C 	0.8062	0.0408	0.5192	-0.005
Mof_H 	H 	0.8417	0.0699	0.5049	0.021
Mof_C 	C 	0.838	0.0173	0.5535	-0.02
Mof_H 	H 	0.8953	0.0304	0.5627	0.02
Mof_C 	C 	0.7861	0.9747	0.5744	-0.008
Mof_C 	C 	0.7024	0.9555	0.561	-0.055
Mof_H 	H 	0.6669	0.9264	0.5752	0.055
Mof_N 	N 	0.5856	0.9582	0.5141	-0.149
Mof_H 	H 	0.5573	0.9329	0.5312	0.083
Mof_H 	H 	0.5905	0.935	0.4926	0.098
Mof_N 	N 	0.5692	0.993	0.5239	-0.169
Mof_H 	H 	0.5432	0.0308	0.5203	0.117
Mof_H 	H 	0.5433	0.9743	0.5437	0.091
Mof_C 	C 	0.6616	0.9992	0.5307	0.054
Mof_C 	C 	0.7251	0.0249	0.5061	-0.044
Mof_C 	C 	0.8153	0.027	0.5165	-0.007
Mof_H 	H 	0.8587	0.0446	0.4997	0.031
Mof_C 	C 	0.842	0.0034	0.5516	-0.023
Mof_H 	H 	0.9037	0.0049	0.5587	0.045
Mof_C 	C 	0.7786	0.9778	0.5762	-0.014
Mof_C 	C 	0.6884	0.9757	0.5658	-0.034
Mof_H 	H 	0.645	0.9581	0.5826	0.042
Mof_O 	O 	0.0047	0.6644	0.4496	-0.505
Mof_O 	O 	0.8528	0.8014	0.6195	-0.496
Mof_O 	O 	0.139	0.6993	0.4606	-0.557
Mof_O 	O 	0.9902	0.8311	0.6329	-0.494
Mof_C 	C 	0.9343	0.803	0.6108	0.293
Mof_C 	C 	0.0594	0.6954	0.4697	0.345
Mof_C 	C 	0.0795	0.771	0.5267	0.05
Mof_C 	C 	0.0275	0.7284	0.5058	-0.042
Mof_C 	C 	0.9438	0.7092	0.5192	-0.005
Mof_H 	H 	0.9083	0.6801	0.5049	0.021
Mof_C 	C 	0.912	0.7327	0.5535	-0.02
Mof_H 	H 	0.8547	0.7196	0.5627	0.02
Mof_C 	C 	0.9639	0.7753	0.5744	-0.008
Mof_C 	C 	0.0476	0.7945	0.561	-0.055
Mof_H 	H 	0.0831	0.8236	0.5752	0.055
Mof_N 	N 	0.1644	0.7918	0.5141	-0.149
Mof_H 	H 	0.1927	0.8171	0.5312	0.083
Mof_H 	H 	0.1595	0.815	0.4926	0.098
Mof_N 	N 	0.1808	0.757	0.5239	-0.169
Mof_H 	H 	0.2068	0.7192	0.5203	0.117
Mof_H 	H 	0.2067	0.7757	0.5437	0.091
Mof_C 	C 	0.0884	0.7508	0.5307	0.054
Mof_C 	C 	0.0249	0.7251	0.5061	-0.044
Mof_C 	C 	0.9347	0.723	0.5165	-0.007
Mof_H 	H 	0.8913	0.7054	0.4997	0.031
Mof_C 	C 	0.908	0.7466	0.5516	-0.023
Mof_H 	H 	0.8463	0.7451	0.5587	0.045
Mof_C 	C 	0.9714	0.7722	0.5762	-0.014
Mof_C 	C 	0.0616	0.7743	0.5658	-0.034
Mof_H 	H 	0.105	0.7919	0.5826	0.042
Mof_O 	O 	0.0047	0.1644	0.9496	-0.505
Mof_O 	O 	0.8528	0.3014	0.1195	-0.497
Mof_O 	O 	0.139	0.1993	0.9606	-0.557
Mof_O 	O 	0.9902	0.3311	0.1329	-0.494
Mof_C 	C 	0.9343	0.303	0.1108	0.293
Mof_C 	C 	0.0594	0.1954	0.9697	0.345
Mof_C 	C 	0.0795	0.271	0.0267	0.05
Mof_C 	C 	0.0275	0.2284	0.0058	-0.042
Mof_C 	C 	0.9438	0.2092	0.0192	-0.005
Mof_H 	H 	0.9083	0.1801	0.0049	0.021
Mof_C 	C 	0.912	0.2327	0.0535	-0.02
Mof_H 	H 	0.8547	0.2196	0.0627	0.02
Mof_C 	C 	0.9639	0.2753	0.0744	-0.008
Mof_C 	C 	0.0476	0.2945	0.061	-0.055
Mof_H 	H 	0.0831	0.3236	0.0752	0.055
Mof_N 	N 	0.1644	0.2918	0.0141	-0.149
Mof_H 	H 	0.1927	0.3171	0.0312	0.083
Mof_H 	H 	0.1595	0.315	0.9926	0.098
Mof_N 	N 	0.1808	0.257	0.0239	-0.169
Mof_H 	H 	0.2068	0.2192	0.0203	0.117
Mof_H 	H 	0.2067	0.2757	0.0437	0.091
Mof_C 	C 	0.0884	0.2508	0.0307	0.054
Mof_C 	C 	0.0249	0.2251	0.0061	-0.044
Mof_C 	C 	0.9347	0.223	0.0165	-0.007
Mof_H 	H 	0.8913	0.2054	0.9997	0.031
Mof_C 	C 	0.908	0.2466	0.0516	-0.023
Mof_H 	H 	0.8463	0.2451	0.0587	0.045
Mof_C 	C 	0.9714	0.2722	0.0762	-0.014
Mof_C 	C 	0.0616	0.2743	0.0658	-0.034
Mof_H 	H 	0.105	0.2919	0.0826	0.042
Mof_O 	O 	0.5047	0.6644	0.9496	-0.505
Mof_O 	O 	0.3528	0.8014	0.1195	-0.497
Mof_O 	O 	0.639	0.6993	0.9606	-0.557
Mof_O 	O 	0.4902	0.8311	0.1329	-0.494
Mof_C 	C 	0.4343	0.803	0.1108	0.293
Mof_C 	C 	0.5594	0.6954	0.9697	0.345
Mof_C 	C 	0.5795	0.771	0.0267	0.05
Mof_C 	C 	0.5275	0.7284	0.0058	-0.042
Mof_C 	C 	0.4438	0.7092	0.0192	-0.005
Mof_H 	H 	0.4083	0.6801	0.0049	0.021
Mof_C 	C 	0.412	0.7327	0.0535	-0.02
Mof_H 	H 	0.3547	0.7196	0.0627	0.02
Mof_C 	C 	0.4639	0.7753	0.0744	-0.008
Mof_C 	C 	0.5476	0.7945	0.061	-0.055
Mof_H 	H 	0.5831	0.8236	0.0752	0.055
Mof_N 	N 	0.6644	0.7918	0.0141	-0.149
Mof_H 	H 	0.6927	0.8171	0.0312	0.083
Mof_H 	H 	0.6595	0.815	0.9926	0.098
Mof_N 	N 	0.6808	0.757	0.0239	-0.169
Mof_H 	H 	0.7068	0.7192	0.0203	0.117
Mof_H 	H 	0.7067	0.7757	0.0437	0.091
Mof_C 	C 	0.5884	0.7508	0.0307	0.054
Mof_C 	C 	0.5249	0.7251	0.0061	-0.044
Mof_C 	C 	0.4347	0.723	0.0165	-0.007
Mof_H 	H 	0.3913	0.7054	0.9997	0.031
Mof_C 	C 	0.408	0.7466	0.0516	-0.023
Mof_H 	H 	0.3463	0.7451	0.0587	0.045
Mof_C 	C 	0.4714	0.7722	0.0762	-0.014
Mof_C 	C 	0.5616	0.7743	0.0658	-0.034
Mof_H 	H 	0.605	0.7919	0.0826	0.042
Mof_O 	O 	0.5047	0.1644	0.4496	-0.505
Mof_O 	O 	0.3528	0.3014	0.6195	-0.496
Mof_O 	O 	0.639	0.1993	0.4606	-0.557
Mof_O 	O 	0.4902	0.3311	0.6329	-0.494
Mof_C 	C 	0.4343	0.303	0.6108	0.293
Mof_C 	C 	0.5594	0.1954	0.4697	0.345
Mof_C 	C 	0.5795	0.271	0.5267	0.05
Mof_C 	C 	0.5275	0.2284	0.5058	-0.042
Mof_C 	C 	0.4438	0.2092	0.5192	-0.005
Mof_H 	H 	0.4083	0.1801	0.5049	0.021
Mof_C 	C 	0.412	0.2327	0.5535	-0.02
Mof_H 	H 	0.3547	0.2196	0.5627	0.02
Mof_C 	C 	0.4639	0.2753	0.5744	-0.008
Mof_C 	C 	0.5476	0.2945	0.561	-0.055
Mof_H 	H 	0.5831	0.3236	0.5752	0.055
Mof_N 	N 	0.6644	0.2918	0.5141	-0.149
Mof_H 	H 	0.6927	0.3171	0.5312	0.083
Mof_H 	H 	0.6595	0.315	0.4926	0.098
Mof_N 	N 	0.6808	0.257	0.5239	-0.169
Mof_H 	H 	0.7068	0.2192	0.5203	0.117
Mof_H 	H 	0.7067	0.2757	0.5437	0.091
Mof_C 	C 	0.5884	0.2508	0.5307	0.054
Mof_C 	C 	0.5249	0.2251	0.5061	-0.044
Mof_C 	C 	0.4347	0.223	0.5165	-0.007
Mof_H 	H 	0.3913	0.2054	0.4997	0.031
Mof_C 	C 	0.408	0.2466	0.5516	-0.023
Mof_H 	H 	0.3463	0.2451	0.5587	0.045
Mof_C 	C 	0.4714	0.2722	0.5762	-0.014
Mof_C 	C 	0.5616	0.2743	0.5658	-0.034
Mof_H 	H 	0.605	0.2919	0.5826	0.042
Mof_In	In	0.875	0.375	0.16616	2.554
Mof_In	In	0.875	0.875	0.66616	2.554
Mof_In	In	0.375	0.375	0.66616	2.554
Mof_In	In	0.375	0.875	0.16616	2.554
Mof_In	In	0.125	0.625	0.41616	2.554
Mof_In	In	0.125	0.125	0.91616	2.554
Mof_In	In	0.625	0.625	0.91616	2.554
Mof_In	In	0.625	0.125	0.41616	2.554
_end
