data_functionalizedCrystal
_audit_creation_method	'EQeq! by Chris Wilmer'
_symmetry_space_group_name_H-M	'P1'
_symmetry_Int_Tables_number	1
_symmetry_cell_setting	triclinic
loop_
_symmetry_equiv_pos_as_xyz
  x,y,z
_cell_length_a	14.685
_cell_length_b	14.685
_cell_length_c	8.9274
_cell_angle_alpha	90
_cell_angle_beta	90
_cell_angle_gamma	90
loop_
_atom_site_label
_atom_site_type_symbol
_atom_site_fract_x
_atom_site_fract_y
_atom_site_fract_z
_atom_site_charge
Mof_Zn	Zn	0.13179	0.01115	0.73908	1.228
Mof_Zn	Zn	0.00156	0.36891	0.55399	1.261
Mof_P 	P 	0.3537	0	0.6952	0.593
Mof_P 	P 	0.9866	0.147	0.5969	0.625
Mof_O 	O 	0.0777	0.0964	0.6031	-0.498
Mof_O 	O 	0.9462	0.1392	0.4428	-0.471
Mof_O 	O 	0.9229	0.1058	0.7133	-0.154
Mof_O 	O 	0.1121	0.0767	0.2159	-0.239
Mof_O 	O 	0.0036	0.2457	0.6361	-0.422
Mof_O 	O 	0.25	0.0083	0.6452	-0.395
Mof_O 	O 	0.359	0.9483	0.846	-0.226
Mof_O 	O 	0.3689	0.051	0.8562	-0.264
Mof_O 	O 	0.3995	0.0834	0.686	-0.195
Mof_O 	O 	0.3973	0.0743	0.579	-0.316
Mof_O 	O 	0.3873	0.9119	0.672	-0.172
Mof_O 	O 	0.387	0.9202	0.58	-0.25
Mof_Zn	Zn	0.86821	0.98885	0.73908	1.252
Mof_Zn	Zn	0.99844	0.63109	0.55399	1.288
Mof_P 	P 	0.6463	0	0.6952	0.566
Mof_P 	P 	0.0134	0.853	0.5969	0.497
Mof_O 	O 	0.9223	0.9036	0.6031	-0.409
Mof_O 	O 	0.0538	0.8608	0.4428	-0.461
Mof_O 	O 	0.0771	0.8942	0.7133	-0.145
Mof_O 	O 	0.8879	0.9233	0.2159	-0.216
Mof_O 	O 	0.9964	0.7543	0.6361	-0.331
Mof_O 	O 	0.75	0.9917	0.6452	-0.339
Mof_O 	O 	0.641	0.0517	0.846	-0.28
Mof_O 	O 	0.6311	0.949	0.8562	-0.202
Mof_O 	O 	0.6005	0.9166	0.686	-0.185
Mof_O 	O 	0.6027	0.9257	0.579	-0.285
Mof_O 	O 	0.6127	0.0881	0.672	-0.168
Mof_O 	O 	0.613	0.0798	0.58	-0.287
Mof_Zn	Zn	0.98885	0.13179	0.23908	1.238
Mof_Zn	Zn	0.63109	0.00156	0.05399	1.231
Mof_P 	P 	4.44931e-34	0.3537	0.1952	0.58
Mof_P 	P 	0.853	0.9866	0.0969	0.508
Mof_O 	O 	0.9036	0.0777	0.1031	-0.513
Mof_O 	O 	0.8608	0.9462	0.9428	-0.323
Mof_O 	O 	0.8942	0.9229	0.2133	-0.156
Mof_O 	O 	0.9233	0.1121	0.7159	-0.222
Mof_O 	O 	0.7543	0.0036	0.1361	-0.459
Mof_O 	O 	0.9917	0.25	0.1452	-0.385
Mof_O 	O 	0.0517	0.359	0.346	-0.347
Mof_O 	O 	0.949	0.3689	0.3562	-0.271
Mof_O 	O 	0.9166	0.3995	0.186	-0.186
Mof_O 	O 	0.9257	0.3973	0.079	-0.345
Mof_O 	O 	0.0881	0.3873	0.172	-0.16
Mof_O 	O 	0.0798	0.387	0.08	-0.355
Mof_Zn	Zn	0.01115	0.86821	0.23908	1.223
Mof_Zn	Zn	0.36891	0.99844	0.05399	1.255
Mof_P 	P 	3.723e-33	0.6463	0.1952	0.609
Mof_P 	P 	0.147	0.0134	0.0969	0.379
Mof_O 	O 	0.0964	0.9223	0.1031	-0.468
Mof_O 	O 	0.1392	0.0538	0.9428	-0.349
Mof_O 	O 	0.1058	0.0771	0.2133	-0.169
Mof_O 	O 	0.0767	0.8879	0.7159	-0.206
Mof_O 	O 	0.2457	0.9964	0.1361	-0.372
Mof_O 	O 	0.0083	0.75	0.1452	-0.441
Mof_O 	O 	0.9483	0.641	0.346	-0.292
Mof_O 	O 	0.051	0.6311	0.3562	-0.332
Mof_O 	O 	0.0834	0.6005	0.186	-0.196
Mof_O 	O 	0.0743	0.6027	0.079	-0.377
Mof_O 	O 	0.9119	0.6127	0.172	-0.164
Mof_O 	O 	0.9202	0.613	0.08	-0.315
Mof_Zn	Zn	0.63179	0.48885	0.73908	1.241
Mof_Zn	Zn	0.50156	0.13109	0.55399	1.274
Mof_P 	P 	0.8537	0.5	0.6952	0.649
Mof_P 	P 	0.4866	0.353	0.5969	0.561
Mof_O 	O 	0.5777	0.4036	0.6031	-0.453
Mof_O 	O 	0.4462	0.3608	0.4428	-0.467
Mof_O 	O 	0.4229	0.3942	0.7133	-0.15
Mof_O 	O 	0.6121	0.4233	0.2159	-0.228
Mof_O 	O 	0.5036	0.2543	0.6361	-0.378
Mof_O 	O 	0.75	0.4917	0.6452	-0.382
Mof_O 	O 	0.859	0.5517	0.846	-0.26
Mof_O 	O 	0.8689	0.449	0.8562	-0.236
Mof_O 	O 	0.8995	0.4166	0.686	-0.196
Mof_O 	O 	0.8973	0.4257	0.579	-0.296
Mof_O 	O 	0.8873	0.5881	0.672	-0.183
Mof_O 	O 	0.887	0.5798	0.58	-0.267
Mof_Zn	Zn	0.36821	0.51115	0.73908	1.241
Mof_Zn	Zn	0.49844	0.86891	0.55399	1.276
Mof_P 	P 	0.1463	0.5	0.6952	0.654
Mof_P 	P 	0.5134	0.647	0.5969	0.561
Mof_O 	O 	0.4223	0.5964	0.6031	-0.453
Mof_O 	O 	0.5538	0.6392	0.4428	-0.466
Mof_O 	O 	0.5771	0.6058	0.7133	-0.149
Mof_O 	O 	0.3879	0.5767	0.2159	-0.228
Mof_O 	O 	0.4964	0.7457	0.6361	-0.377
Mof_O 	O 	0.25	0.5083	0.6452	-0.383
Mof_O 	O 	0.141	0.4483	0.846	-0.269
Mof_O 	O 	0.1311	0.551	0.8562	-0.246
Mof_O 	O 	0.1005	0.5834	0.686	-0.218
Mof_O 	O 	0.1027	0.5743	0.579	-0.314
Mof_O 	O 	0.1127	0.4119	0.672	-0.195
Mof_O 	O 	0.113	0.4202	0.58	-0.273
Mof_Zn	Zn	0.48885	0.36821	0.23908	1.23
Mof_Zn	Zn	0.13109	0.49844	0.05399	1.241
Mof_P 	P 	0.5	0.1463	0.1952	0.67
Mof_P 	P 	0.353	0.5134	0.0969	0.441
Mof_O 	O 	0.4036	0.4223	0.1031	-0.492
Mof_O 	O 	0.3608	0.5538	0.9428	-0.334
Mof_O 	O 	0.3942	0.5771	0.2133	-0.163
Mof_O 	O 	0.4233	0.3879	0.7159	-0.214
Mof_O 	O 	0.2543	0.4964	0.1361	-0.418
Mof_O 	O 	0.4917	0.25	0.1452	-0.43
Mof_O 	O 	0.5517	0.141	0.346	-0.336
Mof_O 	O 	0.449	0.1311	0.3562	-0.317
Mof_O 	O 	0.4166	0.1005	0.186	-0.22
Mof_O 	O 	0.4257	0.1027	0.079	-0.375
Mof_O 	O 	0.5881	0.1127	0.172	-0.187
Mof_O 	O 	0.5798	0.113	0.08	-0.339
Mof_Zn	Zn	0.51115	0.63179	0.23908	1.23
Mof_Zn	Zn	0.86891	0.50156	0.05399	1.243
Mof_P 	P 	0.5	0.8537	0.1952	0.664
Mof_P 	P 	0.647	0.4866	0.0969	0.442
Mof_O 	O 	0.5964	0.5777	0.1031	-0.491
Mof_O 	O 	0.6392	0.4462	0.9428	-0.335
Mof_O 	O 	0.6058	0.4229	0.2133	-0.163
Mof_O 	O 	0.5767	0.6121	0.7159	-0.214
Mof_O 	O 	0.7457	0.5036	0.1361	-0.417
Mof_O 	O 	0.5083	0.75	0.1452	-0.429
Mof_O 	O 	0.4483	0.859	0.346	-0.327
Mof_O 	O 	0.551	0.8689	0.3562	-0.305
Mof_O 	O 	0.5834	0.8995	0.186	-0.197
Mof_O 	O 	0.5743	0.8973	0.079	-0.358
Mof_O 	O 	0.4119	0.8873	0.172	-0.175
Mof_O 	O 	0.4202	0.887	0.08	-0.335
_end
