data_functionalizedCrystal
_audit_creation_method	'EQeq! by Chris Wilmer'
_symmetry_space_group_name_H-M	'P1'
_symmetry_Int_Tables_number	1
_symmetry_cell_setting	triclinic
loop_
_symmetry_equiv_pos_as_xyz
  x,y,z
_cell_length_a	19.6369
_cell_length_b	20.2159
_cell_length_c	22.1129
_cell_angle_alpha	90
_cell_angle_beta	90
_cell_angle_gamma	90
loop_
_atom_site_label
_atom_site_type_symbol
_atom_site_fract_x
_atom_site_fract_y
_atom_site_fract_z
_atom_site_charge
Mof_Na	Na	0.41873	0.05156	0.41323	1.44
Mof_Na	Na	0.05376	0.93134	0.39225	2.166
Mof_N 	N 	0.295	0.01581	0.4117	-0.24
Mof_N 	N 	0.16921	0.97527	0.40697	-0.287
Mof_N 	N 	0.4255	0.17704	0.3965	-0.234
Mof_N 	N 	0.0714	0.80559	0.3888	-0.26
Mof_N 	N 	0.468	0.00983	0.31496	-0.242
Mof_N 	N 	0.0263	0.9736	0.28583	-0.266
Mof_C 	C 	0.28	0.9805	0.3544	-0.025
Mof_H 	H 	0.3136	0.9446	0.3486	-0.021
Mof_H 	H 	0.2842	0.0116	0.3201	-0.006
Mof_C 	C 	0.2079	0.9512	0.3552	-0.042
Mof_H 	H 	0.184	0.9633	0.3174	-0.036
Mof_H 	H 	0.2109	0.9023	0.357	-0.024
Mof_C 	C 	0.2792	0.9698	0.4616	-0.01
Mof_H 	H 	0.2916	0.9906	0.5006	-0.047
Mof_H 	H 	0.3067	0.929	0.4569	-0.039
Mof_C 	C 	0.2033	0.9517	0.4622	-0.033
Mof_H 	H 	0.1983	0.9031	0.4654	-0.027
Mof_H 	H 	0.1813	0.9719	0.4981	-0.005
Mof_C 	C 	0.2471	0.0719	0.4157	-0.023
Mof_H 	H 	0.2582	0.1048	0.3842	-0.015
Mof_H 	H 	0.2519	0.0935	0.4557	-0.015
Mof_C 	C 	0.1725	0.0477	0.4074	-0.029
Mof_H 	H 	0.1439	0.065	0.4407	-0.008
Mof_H 	H 	0.1541	0.0651	0.3688	-0.02
Mof_C 	C 	0.4961	0.2018	0.3937	-0.007
Mof_H 	H 	0.5197	0.1816	0.3588	-0.02
Mof_H 	H 	0.5207	0.1889	0.4309	-0.044
Mof_C 	C 	0.0028	0.7775	0.3873	-0.06
Mof_H 	H 	0.9755	0.7967	0.4206	-0.004
Mof_H 	H 	0.9807	0.7895	0.3486	-0.009
Mof_C 	C 	0.3906	0.2001	0.3421	-0.032
Mof_H 	H 	0.3432	0.1835	0.3422	-0.011
Mof_H 	H 	0.4138	0.182	0.306	-0.003
Mof_C 	C 	0.11	0.7765	0.3385	-0.013
Mof_H 	H 	0.0897	0.7907	0.2996	-0.023
Mof_H 	H 	0.1576	0.7925	0.3398	-0.017
Mof_C 	C 	0.3931	0.2077	0.4491	-0.025
Mof_H 	H 	0.4165	0.1931	0.4864	-0.047
Mof_H 	H 	0.345	0.1933	0.4515	-0.024
Mof_C 	C 	0.104	0.784	0.4448	-0.028
Mof_H 	H 	0.1508	0.8021	0.4466	-0.019
Mof_H 	H 	0.0783	0.8017	0.4798	-0.031
Mof_C 	C 	0.4783	0.9377	0.3134	-0.01
Mof_H 	H 	0.4338	0.9151	0.3179	-0.026
Mof_H 	H 	0.5076	0.9242	0.3476	-0.051
Mof_C 	C 	0.0118	0.9163	0.2468	-0.051
Mof_H 	H 	0.0548	0.8925	0.2381	-0.016
Mof_H 	H 	0.981	0.8855	0.2684	-0.026
Mof_C 	C 	0.4269	0.0277	0.2617	-0.013
Mof_H 	H 	0.4187	0.076	0.2617	-0.017
Mof_H 	H 	0.3822	0.0052	0.2641	-0.011
Mof_C 	C 	0.9621	0.0083	0.2967	-0.062
Mof_H 	H 	0.9315	0.9794	0.3205	-0.03
Mof_H 	H 	0.9712	0.0485	0.3209	-0.019
Mof_C 	C 	0.5353	0.041	0.3074	-0.038
Mof_H 	H 	0.5645	0.0294	0.3423	-0.045
Mof_H 	H 	0.5299	0.0897	0.3069	-0.015
Mof_C 	C 	0.0704	0.0188	0.2512	0.007
Mof_H 	H 	0.0812	0.0581	0.2762	-0.021
Mof_H 	H 	0.1137	0.9963	0.2412	-0.022
Mof_C 	C 	0.9779	0.0373	0.474	-0.05
Mof_C 	C 	0.9771	0.9844	0.4817	-0.086
Mof_H 	H 	0.9451	0.0654	0.4348	-0.035
Mof_C 	C 	0.9803	0.9046	0.5072	-0.339
Mof_H 	H 	0.9811	0.8593	0.5185	0.093
Mof_C 	C 	0.9353	0.9263	0.4629	0.115
Mof_H 	H 	0.9054	0.8957	0.4439	-0.027
Mof_C 	C 	0.9341	0.9926	0.4463	-0.379
Mof_H 	H 	0.9033	0.0073	0.416	0.102
Mof_H 	H 	0.9646	0.906	0.4286	-0.35
Mof_H 	H 	0.9072	0.9134	0.4795	-0.069
Mof_H 	H 	0.9771	0.0826	0.4627	0.057
Mof_C 	C 	0.0241	0.9493	0.5349	0.026
Mof_C 	C 	0.0645	0.0626	0.5497	0.211
Mof_H 	H 	0.0938	0.0394	0.5786	-0.023
Mof_Na	Na	0.08127	0.94844	0.91323	1.429
Mof_Na	Na	0.44624	0.06866	0.89225	2.186
Mof_N 	N 	0.205	0.98419	0.9117	-0.245
Mof_N 	N 	0.33079	0.02473	0.90697	-0.286
Mof_N 	N 	0.0745	0.82296	0.8965	-0.233
Mof_N 	N 	0.4286	0.19441	0.8888	-0.262
Mof_N 	N 	0.032	0.99017	0.81496	-0.248
Mof_N 	N 	0.4737	0.0264	0.78583	-0.268
Mof_C 	C 	0.22	0.0195	0.8544	-0.011
Mof_H 	H 	0.1864	0.0554	0.8486	-0.025
Mof_H 	H 	0.2158	0.9884	0.8201	-0.014
Mof_C 	C 	0.2921	0.0488	0.8552	-0.049
Mof_H 	H 	0.316	0.0367	0.8174	-0.034
Mof_H 	H 	0.2891	0.0977	0.857	-0.024
Mof_C 	C 	0.2208	0.0302	0.9616	-0.009
Mof_H 	H 	0.2084	0.0094	0.0006	-0.046
Mof_H 	H 	0.1933	0.071	0.9569	-0.04
Mof_C 	C 	0.2967	0.0483	0.9622	-0.035
Mof_H 	H 	0.3017	0.0969	0.9654	-0.028
Mof_H 	H 	0.3187	0.0281	0.9981	-0.005
Mof_C 	C 	0.2529	0.9281	0.9157	-0.022
Mof_H 	H 	0.2418	0.8952	0.8842	-0.015
Mof_H 	H 	0.2481	0.9065	0.9557	-0.016
Mof_C 	C 	0.3275	0.9523	0.9074	-0.035
Mof_H 	H 	0.3561	0.935	0.9407	-0.006
Mof_H 	H 	0.3459	0.9349	0.8688	-0.02
Mof_C 	C 	0.0039	0.7982	0.8937	-0.022
Mof_H 	H 	0.9803	0.8184	0.8588	-0.013
Mof_H 	H 	0.9793	0.8111	0.9309	-0.036
Mof_C 	C 	0.4972	0.2225	0.8873	-0.053
Mof_H 	H 	0.5245	0.2033	0.9206	-0.007
Mof_H 	H 	0.5193	0.2105	0.8486	-0.013
Mof_C 	C 	0.1094	0.7999	0.8421	-0.032
Mof_H 	H 	0.1568	0.8165	0.8422	-0.01
Mof_H 	H 	0.0862	0.818	0.806	-0.003
Mof_C 	C 	0.39	0.2235	0.8385	-0.013
Mof_H 	H 	0.4103	0.2093	0.7996	-0.023
Mof_H 	H 	0.3424	0.2075	0.8398	-0.017
Mof_C 	C 	0.1069	0.7923	0.9491	-0.025
Mof_H 	H 	0.0835	0.8069	0.9864	-0.047
Mof_H 	H 	0.155	0.8067	0.9515	-0.024
Mof_C 	C 	0.396	0.216	0.9448	-0.028
Mof_H 	H 	0.3492	0.1979	0.9466	-0.02
Mof_H 	H 	0.4217	0.1983	0.9798	-0.03
Mof_C 	C 	0.0217	0.0623	0.8134	0.006
Mof_H 	H 	0.0662	0.0849	0.8179	-0.029
Mof_H 	H 	0.9924	0.0758	0.8476	-0.057
Mof_C 	C 	0.4882	0.0837	0.7468	-0.037
Mof_H 	H 	0.4452	0.1075	0.7381	-0.02
Mof_H 	H 	0.519	0.1145	0.7684	-0.032
Mof_C 	C 	0.0731	0.9723	0.7617	-0.008
Mof_H 	H 	0.0813	0.924	0.7617	-0.019
Mof_H 	H 	0.1178	0.9948	0.7641	-0.014
Mof_C 	C 	0.5379	0.9917	0.7967	-0.049
Mof_H 	H 	0.5685	0.0206	0.8205	-0.038
Mof_H 	H 	0.5288	0.9515	0.8209	-0.021
Mof_C 	C 	0.9647	0.959	0.8074	-0.037
Mof_H 	H 	0.9355	0.9706	0.8423	-0.042
Mof_H 	H 	0.9701	0.9103	0.8069	-0.013
Mof_C 	C 	0.4296	0.9812	0.7512	-0.006
Mof_H 	H 	0.4188	0.9419	0.7762	-0.019
Mof_H 	H 	0.3863	0.0037	0.7412	-0.015
Mof_C 	C 	0.5221	0.9627	0.974	-0.026
Mof_C 	C 	0.5229	0.0156	0.9817	-0.108
Mof_H 	H 	0.5549	0.9346	0.9348	-0.039
Mof_C 	C 	0.5197	0.0954	0.0072	-0.362
Mof_H 	H 	0.5189	0.1407	0.0185	0.101
Mof_C 	C 	0.5647	0.0737	0.9629	0.144
Mof_H 	H 	0.5946	0.1043	0.9439	-0.034
Mof_C 	C 	0.5659	0.0074	0.9463	-0.422
Mof_H 	H 	0.5967	0.9927	0.916	0.122
Mof_H 	H 	0.5354	0.094	0.9286	-0.367
Mof_H 	H 	0.5928	0.0866	0.9795	-0.087
Mof_H 	H 	0.5229	0.9174	0.9627	0.043
Mof_C 	C 	0.4759	0.0507	0.0349	0.052
Mof_C 	C 	0.4355	0.9374	0.0497	0.242
Mof_H 	H 	0.4062	0.9606	0.0786	-0.03
Mof_Na	Na	0.58127	0.55156	0.08677	1.438
Mof_Na	Na	0.94624	0.43134	0.10775	2.177
Mof_N 	N 	0.705	0.51581	0.0883	-0.243
Mof_N 	N 	0.83079	0.47527	0.09303	-0.287
Mof_N 	N 	0.5745	0.67704	0.1035	-0.235
Mof_N 	N 	0.9286	0.30559	0.1112	-0.261
Mof_N 	N 	0.532	0.50983	0.18504	-0.243
Mof_N 	N 	0.9737	0.4736	0.21417	-0.268
Mof_C 	C 	0.72	0.4805	0.1456	-0.02
Mof_H 	H 	0.6864	0.4446	0.1514	-0.024
Mof_H 	H 	0.7158	0.5116	0.1799	-0.01
Mof_C 	C 	0.7921	0.4512	0.1448	-0.046
Mof_H 	H 	0.816	0.4633	0.1826	-0.036
Mof_H 	H 	0.7891	0.4023	0.143	-0.024
Mof_C 	C 	0.7208	0.4698	0.0384	-0.012
Mof_H 	H 	0.7084	0.4906	0.9994	-0.047
Mof_H 	H 	0.6933	0.429	0.0431	-0.04
Mof_C 	C 	0.7967	0.4517	0.0378	-0.034
Mof_H 	H 	0.8017	0.4031	0.0346	-0.028
Mof_H 	H 	0.8187	0.4719	0.0019	-0.006
Mof_C 	C 	0.7529	0.5719	0.0843	-0.022
Mof_H 	H 	0.7418	0.6048	0.1158	-0.015
Mof_H 	H 	0.7481	0.5935	0.0443	-0.016
Mof_C 	C 	0.8275	0.5477	0.0926	-0.032
Mof_H 	H 	0.8561	0.565	0.0593	-0.007
Mof_H 	H 	0.8459	0.5651	0.1312	-0.02
Mof_C 	C 	0.5039	0.7018	0.1063	-0.007
Mof_H 	H 	0.4803	0.6816	0.1412	-0.02
Mof_H 	H 	0.4793	0.6889	0.0691	-0.044
Mof_C 	C 	0.9972	0.2775	0.1127	-0.061
Mof_H 	H 	0.0245	0.2967	0.0794	-0.002
Mof_H 	H 	0.0193	0.2895	0.1514	-0.008
Mof_C 	C 	0.6094	0.7001	0.1579	-0.032
Mof_H 	H 	0.6568	0.6835	0.1578	-0.011
Mof_H 	H 	0.5862	0.682	0.194	-0.003
Mof_C 	C 	0.89	0.2765	0.1615	-0.013
Mof_H 	H 	0.9103	0.2907	0.2004	-0.024
Mof_H 	H 	0.8424	0.2925	0.1602	-0.017
Mof_C 	C 	0.6069	0.7077	0.0509	-0.025
Mof_H 	H 	0.5835	0.6931	0.0136	-0.047
Mof_H 	H 	0.655	0.6933	0.0485	-0.025
Mof_C 	C 	0.896	0.284	0.0552	-0.027
Mof_H 	H 	0.8492	0.3021	0.0534	-0.02
Mof_H 	H 	0.9217	0.3017	0.0202	-0.031
Mof_C 	C 	0.5217	0.4377	0.1866	-0.01
Mof_H 	H 	0.5662	0.4151	0.1821	-0.026
Mof_H 	H 	0.4924	0.4242	0.1524	-0.051
Mof_C 	C 	0.9882	0.4163	0.2532	-0.046
Mof_H 	H 	0.9452	0.3925	0.2619	-0.018
Mof_H 	H 	0.019	0.3855	0.2316	-0.028
Mof_C 	C 	0.5731	0.5277	0.2383	-0.013
Mof_H 	H 	0.5813	0.576	0.2383	-0.017
Mof_H 	H 	0.6178	0.5052	0.2359	-0.011
Mof_C 	C 	0.0379	0.5083	0.2033	-0.048
Mof_H 	H 	0.0685	0.4794	0.1795	-0.037
Mof_H 	H 	0.0288	0.5485	0.1791	-0.021
Mof_C 	C 	0.4647	0.541	0.1926	-0.039
Mof_H 	H 	0.4355	0.5294	0.1577	-0.044
Mof_H 	H 	0.4701	0.5897	0.1931	-0.015
Mof_C 	C 	0.9296	0.5188	0.2488	-0.003
Mof_H 	H 	0.9188	0.5581	0.2238	-0.02
Mof_H 	H 	0.8863	0.4963	0.2588	-0.016
Mof_C 	C 	0.0221	0.5373	0.026	-0.028
Mof_C 	C 	0.0229	0.4844	0.0183	-0.104
Mof_H 	H 	0.0549	0.5654	0.0652	-0.039
Mof_C 	C 	0.0197	0.4046	0.9928	-0.365
Mof_H 	H 	0.0189	0.3593	0.9815	0.102
Mof_C 	C 	0.0647	0.4263	0.0371	0.141
Mof_H 	H 	0.0946	0.3957	0.0561	-0.034
Mof_C 	C 	0.0659	0.4926	0.0537	-0.419
Mof_H 	H 	0.0967	0.5073	0.084	0.121
Mof_H 	H 	0.0354	0.406	0.0714	-0.364
Mof_H 	H 	0.0928	0.4134	0.0205	-0.084
Mof_H 	H 	0.0229	0.5826	0.0373	0.047
Mof_C 	C 	0.9759	0.4493	0.9651	0.05
Mof_C 	C 	0.9355	0.5626	0.9503	0.241
Mof_H 	H 	0.9062	0.5394	0.9214	-0.029
Mof_Na	Na	0.91873	0.44844	0.58677	1.439
Mof_Na	Na	0.55376	0.56866	0.60775	2.185
Mof_N 	N 	0.795	0.48419	0.5883	-0.243
Mof_N 	N 	0.66921	0.52473	0.59303	-0.287
Mof_N 	N 	0.9255	0.32296	0.6035	-0.235
Mof_N 	N 	0.5714	0.69441	0.6112	-0.262
Mof_N 	N 	0.968	0.49017	0.68504	-0.244
Mof_N 	N 	0.5263	0.5264	0.71417	-0.269
Mof_C 	C 	0.78	0.5195	0.6456	-0.02
Mof_H 	H 	0.8136	0.5554	0.6514	-0.024
Mof_H 	H 	0.7842	0.4884	0.6799	-0.01
Mof_C 	C 	0.7079	0.5488	0.6448	-0.046
Mof_H 	H 	0.684	0.5367	0.6826	-0.036
Mof_H 	H 	0.7109	0.5977	0.643	-0.025
Mof_C 	C 	0.7792	0.5302	0.5384	-0.009
Mof_H 	H 	0.7916	0.5094	0.4994	-0.048
Mof_H 	H 	0.8067	0.571	0.5431	-0.04
Mof_C 	C 	0.7033	0.5483	0.5378	-0.035
Mof_H 	H 	0.6983	0.5969	0.5346	-0.028
Mof_H 	H 	0.6813	0.5281	0.5019	-0.005
Mof_C 	C 	0.7471	0.4281	0.5843	-0.022
Mof_H 	H 	0.7582	0.3952	0.6158	-0.015
Mof_H 	H 	0.7519	0.4065	0.5443	-0.015
Mof_C 	C 	0.6725	0.4523	0.5926	-0.033
Mof_H 	H 	0.6439	0.435	0.5593	-0.006
Mof_H 	H 	0.6541	0.4349	0.6312	-0.02
Mof_C 	C 	0.9961	0.2982	0.6063	-0.009
Mof_H 	H 	0.0197	0.3184	0.6412	-0.019
Mof_H 	H 	0.0207	0.3111	0.5691	-0.043
Mof_C 	C 	0.5028	0.7225	0.6127	-0.053
Mof_H 	H 	0.4755	0.7033	0.5794	-0.007
Mof_H 	H 	0.4807	0.7105	0.6514	-0.013
Mof_C 	C 	0.8906	0.2999	0.6579	-0.032
Mof_H 	H 	0.8432	0.3165	0.6578	-0.011
Mof_H 	H 	0.9138	0.318	0.694	-0.003
Mof_C 	C 	0.61	0.7235	0.6615	-0.013
Mof_H 	H 	0.5897	0.7093	0.7004	-0.023
Mof_H 	H 	0.6576	0.7075	0.6602	-0.017
Mof_C 	C 	0.8931	0.2923	0.5509	-0.025
Mof_H 	H 	0.9165	0.3069	0.5136	-0.047
Mof_H 	H 	0.845	0.3067	0.5485	-0.024
Mof_C 	C 	0.604	0.716	0.5552	-0.028
Mof_H 	H 	0.6508	0.6979	0.5534	-0.02
Mof_H 	H 	0.5783	0.6983	0.5202	-0.03
Mof_C 	C 	0.9783	0.5623	0.6866	-0.002
Mof_H 	H 	0.9338	0.5849	0.6821	-0.028
Mof_H 	H 	0.0076	0.5758	0.6524	-0.054
Mof_C 	C 	0.5118	0.5837	0.7532	-0.037
Mof_H 	H 	0.5548	0.6075	0.7619	-0.02
Mof_H 	H 	0.481	0.6145	0.7316	-0.032
Mof_C 	C 	0.9269	0.4723	0.7383	-0.013
Mof_H 	H 	0.9187	0.424	0.7383	-0.017
Mof_H 	H 	0.8822	0.4948	0.7359	-0.011
Mof_C 	C 	0.4621	0.4917	0.7033	-0.05
Mof_H 	H 	0.4315	0.5206	0.6795	-0.037
Mof_H 	H 	0.4712	0.4515	0.6791	-0.021
Mof_C 	C 	0.0353	0.459	0.6926	-0.04
Mof_H 	H 	0.0645	0.4706	0.6577	-0.044
Mof_H 	H 	0.0299	0.4103	0.6931	-0.015
Mof_C 	C 	0.5704	0.4812	0.7488	-0.003
Mof_H 	H 	0.5812	0.4419	0.7238	-0.02
Mof_H 	H 	0.6137	0.5037	0.7588	-0.017
Mof_C 	C 	0.4779	0.4627	0.526	-0.027
Mof_C 	C 	0.4771	0.5156	0.5183	-0.108
Mof_H 	H 	0.4451	0.4346	0.5652	-0.04
Mof_C 	C 	0.4803	0.5954	0.4928	-0.36
Mof_H 	H 	0.4811	0.6407	0.4815	0.1
Mof_C 	C 	0.4353	0.5737	0.5371	0.141
Mof_H 	H 	0.4054	0.6043	0.5561	-0.033
Mof_C 	C 	0.4341	0.5074	0.5537	-0.418
Mof_H 	H 	0.4033	0.4927	0.584	0.12
Mof_H 	H 	0.4646	0.594	0.5714	-0.366
Mof_H 	H 	0.4072	0.5866	0.5205	-0.086
Mof_H 	H 	0.4771	0.4174	0.5373	0.044
Mof_C 	C 	0.5241	0.5507	0.4651	0.051
Mof_C 	C 	0.5645	0.4374	0.4503	0.24
Mof_H 	H 	0.5938	0.4606	0.4214	-0.029
Mof_Na	Na	0.58127	0.94844	0.58677	1.439
Mof_Na	Na	0.94624	0.06866	0.60775	2.165
Mof_N 	N 	0.705	0.98419	0.5883	-0.241
Mof_N 	N 	0.83079	0.02473	0.59303	-0.288
Mof_N 	N 	0.5745	0.82296	0.6035	-0.235
Mof_N 	N 	0.9286	0.19441	0.6112	-0.261
Mof_N 	N 	0.532	0.99017	0.68504	-0.243
Mof_N 	N 	0.9737	0.0264	0.71417	-0.267
Mof_C 	C 	0.72	0.0195	0.6456	-0.026
Mof_H 	H 	0.6864	0.0554	0.6514	-0.022
Mof_H 	H 	0.7158	0.9884	0.6799	-0.007
Mof_C 	C 	0.7921	0.0488	0.6448	-0.043
Mof_H 	H 	0.816	0.0367	0.6826	-0.037
Mof_H 	H 	0.7891	0.0977	0.643	-0.025
Mof_C 	C 	0.7208	0.0302	0.5384	-0.011
Mof_H 	H 	0.7084	0.0094	0.4994	-0.048
Mof_H 	H 	0.6933	0.071	0.5431	-0.04
Mof_C 	C 	0.7967	0.0483	0.5378	-0.034
Mof_H 	H 	0.8017	0.0969	0.5346	-0.028
Mof_H 	H 	0.8187	0.0281	0.5019	-0.006
Mof_C 	C 	0.7529	0.9281	0.5843	-0.023
Mof_H 	H 	0.7418	0.8952	0.6158	-0.015
Mof_H 	H 	0.7481	0.9065	0.5443	-0.015
Mof_C 	C 	0.8275	0.9523	0.5926	-0.029
Mof_H 	H 	0.8561	0.935	0.5593	-0.008
Mof_H 	H 	0.8459	0.9349	0.6312	-0.02
Mof_C 	C 	0.5039	0.7982	0.6063	-0.007
Mof_H 	H 	0.4803	0.8184	0.6412	-0.02
Mof_H 	H 	0.4793	0.8111	0.5691	-0.044
Mof_C 	C 	0.9972	0.2225	0.6127	-0.06
Mof_H 	H 	0.0245	0.2033	0.5794	-0.004
Mof_H 	H 	0.0193	0.2105	0.6514	-0.009
Mof_C 	C 	0.6094	0.7999	0.6579	-0.032
Mof_H 	H 	0.6568	0.8165	0.6578	-0.011
Mof_H 	H 	0.5862	0.818	0.694	-0.003
Mof_C 	C 	0.89	0.2235	0.6615	-0.013
Mof_H 	H 	0.9103	0.2093	0.7004	-0.023
Mof_H 	H 	0.8424	0.2075	0.6602	-0.017
Mof_C 	C 	0.6069	0.7923	0.5509	-0.025
Mof_H 	H 	0.5835	0.8069	0.5136	-0.047
Mof_H 	H 	0.655	0.8067	0.5485	-0.024
Mof_C 	C 	0.896	0.216	0.5552	-0.028
Mof_H 	H 	0.8492	0.1979	0.5534	-0.019
Mof_H 	H 	0.9217	0.1983	0.5202	-0.031
Mof_C 	C 	0.5217	0.0623	0.6866	-0.01
Mof_H 	H 	0.5662	0.0849	0.6821	-0.026
Mof_H 	H 	0.4924	0.0758	0.6524	-0.051
Mof_C 	C 	0.9882	0.0837	0.7532	-0.051
Mof_H 	H 	0.9452	0.1075	0.7619	-0.016
Mof_H 	H 	0.019	0.1145	0.7316	-0.026
Mof_C 	C 	0.5731	0.9723	0.7383	-0.013
Mof_H 	H 	0.5813	0.924	0.7383	-0.017
Mof_H 	H 	0.6178	0.9948	0.7359	-0.011
Mof_C 	C 	0.0379	0.9917	0.7033	-0.062
Mof_H 	H 	0.0685	0.0206	0.6795	-0.03
Mof_H 	H 	0.0288	0.9515	0.6791	-0.019
Mof_C 	C 	0.4647	0.959	0.6926	-0.038
Mof_H 	H 	0.4355	0.9706	0.6577	-0.045
Mof_H 	H 	0.4701	0.9103	0.6931	-0.015
Mof_C 	C 	0.9296	0.9812	0.7488	0.007
Mof_H 	H 	0.9188	0.9419	0.7238	-0.021
Mof_H 	H 	0.8863	0.0037	0.7588	-0.022
Mof_C 	C 	0.0221	0.9627	0.526	-0.05
Mof_C 	C 	0.0229	0.0156	0.5183	-0.086
Mof_H 	H 	0.0549	0.9346	0.5652	-0.035
Mof_C 	C 	0.0197	0.0954	0.4928	-0.339
Mof_H 	H 	0.0189	0.1407	0.4815	0.093
Mof_C 	C 	0.0647	0.0737	0.5371	0.115
Mof_H 	H 	0.0946	0.1043	0.5561	-0.027
Mof_C 	C 	0.0659	0.0074	0.5537	-0.379
Mof_H 	H 	0.0967	0.9927	0.584	0.102
Mof_H 	H 	0.0354	0.094	0.5714	-0.35
Mof_H 	H 	0.0928	0.0866	0.5205	-0.069
Mof_H 	H 	0.0229	0.9174	0.5373	0.057
Mof_C 	C 	0.9759	0.0507	0.4651	0.026
Mof_C 	C 	0.9355	0.9374	0.4503	0.211
Mof_H 	H 	0.9062	0.9606	0.4214	-0.023
Mof_Na	Na	0.91873	0.05156	0.08677	1.429
Mof_Na	Na	0.55376	0.93134	0.10775	2.186
Mof_N 	N 	0.795	0.01581	0.0883	-0.245
Mof_N 	N 	0.66921	0.97527	0.09303	-0.286
Mof_N 	N 	0.9255	0.17704	0.1035	-0.233
Mof_N 	N 	0.5714	0.80559	0.1112	-0.262
Mof_N 	N 	0.968	0.00983	0.18504	-0.248
Mof_N 	N 	0.5263	0.9736	0.21417	-0.268
Mof_C 	C 	0.78	0.9805	0.1456	-0.011
Mof_H 	H 	0.8136	0.9446	0.1514	-0.025
Mof_H 	H 	0.7842	0.0116	0.1799	-0.014
Mof_C 	C 	0.7079	0.9512	0.1448	-0.049
Mof_H 	H 	0.684	0.9633	0.1826	-0.034
Mof_H 	H 	0.7109	0.9023	0.143	-0.024
Mof_C 	C 	0.7792	0.9698	0.0384	-0.009
Mof_H 	H 	0.7916	0.9906	0.9994	-0.046
Mof_H 	H 	0.8067	0.929	0.0431	-0.04
Mof_C 	C 	0.7033	0.9517	0.0378	-0.035
Mof_H 	H 	0.6983	0.9031	0.0346	-0.028
Mof_H 	H 	0.6813	0.9719	0.0019	-0.005
Mof_C 	C 	0.7471	0.0719	0.0843	-0.022
Mof_H 	H 	0.7582	0.1048	0.1158	-0.015
Mof_H 	H 	0.7519	0.0935	0.0443	-0.016
Mof_C 	C 	0.6725	0.0477	0.0926	-0.035
Mof_H 	H 	0.6439	0.065	0.0593	-0.006
Mof_H 	H 	0.6541	0.0651	0.1312	-0.02
Mof_C 	C 	0.9961	0.2018	0.1063	-0.022
Mof_H 	H 	0.0197	0.1816	0.1412	-0.013
Mof_H 	H 	0.0207	0.1889	0.0691	-0.036
Mof_C 	C 	0.5028	0.7775	0.1127	-0.053
Mof_H 	H 	0.4755	0.7967	0.0794	-0.007
Mof_H 	H 	0.4807	0.7895	0.1514	-0.013
Mof_C 	C 	0.8906	0.2001	0.1579	-0.032
Mof_H 	H 	0.8432	0.1835	0.1578	-0.01
Mof_H 	H 	0.9138	0.182	0.194	-0.003
Mof_C 	C 	0.61	0.7765	0.1615	-0.013
Mof_H 	H 	0.5897	0.7907	0.2004	-0.023
Mof_H 	H 	0.6576	0.7925	0.1602	-0.017
Mof_C 	C 	0.8931	0.2077	0.0509	-0.025
Mof_H 	H 	0.9165	0.1931	0.0136	-0.047
Mof_H 	H 	0.845	0.1933	0.0485	-0.024
Mof_C 	C 	0.604	0.784	0.0552	-0.028
Mof_H 	H 	0.6508	0.8021	0.0534	-0.02
Mof_H 	H 	0.5783	0.8017	0.0202	-0.03
Mof_C 	C 	0.9783	0.9377	0.1866	0.006
Mof_H 	H 	0.9338	0.9151	0.1821	-0.029
Mof_H 	H 	0.0076	0.9242	0.1524	-0.057
Mof_C 	C 	0.5118	0.9163	0.2532	-0.037
Mof_H 	H 	0.5548	0.8925	0.2619	-0.02
Mof_H 	H 	0.481	0.8855	0.2316	-0.032
Mof_C 	C 	0.9269	0.0277	0.2383	-0.008
Mof_H 	H 	0.9187	0.076	0.2383	-0.019
Mof_H 	H 	0.8822	0.0052	0.2359	-0.014
Mof_C 	C 	0.4621	0.0083	0.2033	-0.049
Mof_H 	H 	0.4315	0.9794	0.1795	-0.038
Mof_H 	H 	0.4712	0.0485	0.1791	-0.021
Mof_C 	C 	0.0353	0.041	0.1926	-0.037
Mof_H 	H 	0.0645	0.0294	0.1577	-0.042
Mof_H 	H 	0.0299	0.0897	0.1931	-0.013
Mof_C 	C 	0.5704	0.0188	0.2488	-0.006
Mof_H 	H 	0.5812	0.0581	0.2238	-0.019
Mof_H 	H 	0.6137	0.9963	0.2588	-0.015
Mof_C 	C 	0.4779	0.0373	0.026	-0.026
Mof_C 	C 	0.4771	0.9844	0.0183	-0.108
Mof_H 	H 	0.4451	0.0654	0.0652	-0.039
Mof_C 	C 	0.4803	0.9046	0.9928	-0.362
Mof_H 	H 	0.4811	0.8593	0.9815	0.101
Mof_C 	C 	0.4353	0.9263	0.0371	0.144
Mof_H 	H 	0.4054	0.8957	0.0561	-0.034
Mof_C 	C 	0.4341	0.9926	0.0537	-0.422
Mof_H 	H 	0.4033	0.0073	0.084	0.122
Mof_H 	H 	0.4646	0.906	0.0714	-0.367
Mof_H 	H 	0.4072	0.9134	0.0205	-0.087
Mof_H 	H 	0.4771	0.0826	0.0373	0.043
Mof_C 	C 	0.5241	0.9493	0.9651	0.052
Mof_C 	C 	0.5645	0.0626	0.9503	0.242
Mof_H 	H 	0.5938	0.0394	0.9214	-0.03
Mof_Na	Na	0.41873	0.44844	0.91323	1.438
Mof_Na	Na	0.05376	0.56866	0.89225	2.177
Mof_N 	N 	0.295	0.48419	0.9117	-0.243
Mof_N 	N 	0.16921	0.52473	0.90697	-0.287
Mof_N 	N 	0.4255	0.32296	0.8965	-0.235
Mof_N 	N 	0.0714	0.69441	0.8888	-0.261
Mof_N 	N 	0.468	0.49017	0.81496	-0.243
Mof_N 	N 	0.0263	0.5264	0.78583	-0.268
Mof_C 	C 	0.28	0.5195	0.8544	-0.02
Mof_H 	H 	0.3136	0.5554	0.8486	-0.024
Mof_H 	H 	0.2842	0.4884	0.8201	-0.01
Mof_C 	C 	0.2079	0.5488	0.8552	-0.046
Mof_H 	H 	0.184	0.5367	0.8174	-0.036
Mof_H 	H 	0.2109	0.5977	0.857	-0.024
Mof_C 	C 	0.2792	0.5302	0.9616	-0.012
Mof_H 	H 	0.2916	0.5094	0.0006	-0.047
Mof_H 	H 	0.3067	0.571	0.9569	-0.04
Mof_C 	C 	0.2033	0.5483	0.9622	-0.034
Mof_H 	H 	0.1983	0.5969	0.9654	-0.028
Mof_H 	H 	0.1813	0.5281	0.9981	-0.006
Mof_C 	C 	0.2471	0.4281	0.9157	-0.022
Mof_H 	H 	0.2582	0.3952	0.8842	-0.015
Mof_H 	H 	0.2519	0.4065	0.9557	-0.016
Mof_C 	C 	0.1725	0.4523	0.9074	-0.032
Mof_H 	H 	0.1439	0.435	0.9407	-0.007
Mof_H 	H 	0.1541	0.4349	0.8688	-0.02
Mof_C 	C 	0.4961	0.2982	0.8937	-0.007
Mof_H 	H 	0.5197	0.3184	0.8588	-0.02
Mof_H 	H 	0.5207	0.3111	0.9309	-0.044
Mof_C 	C 	0.0028	0.7225	0.8873	-0.061
Mof_H 	H 	0.9755	0.7033	0.9206	-0.002
Mof_H 	H 	0.9807	0.7105	0.8486	-0.008
Mof_C 	C 	0.3906	0.2999	0.8421	-0.032
Mof_H 	H 	0.3432	0.3165	0.8422	-0.011
Mof_H 	H 	0.4138	0.318	0.806	-0.003
Mof_C 	C 	0.11	0.7235	0.8385	-0.013
Mof_H 	H 	0.0897	0.7093	0.7996	-0.024
Mof_H 	H 	0.1576	0.7075	0.8398	-0.017
Mof_C 	C 	0.3931	0.2923	0.9491	-0.025
Mof_H 	H 	0.4165	0.3069	0.9864	-0.047
Mof_H 	H 	0.345	0.3067	0.9515	-0.025
Mof_C 	C 	0.104	0.716	0.9448	-0.027
Mof_H 	H 	0.1508	0.6979	0.9466	-0.02
Mof_H 	H 	0.0783	0.6983	0.9798	-0.031
Mof_C 	C 	0.4783	0.5623	0.8134	-0.01
Mof_H 	H 	0.4338	0.5849	0.8179	-0.026
Mof_H 	H 	0.5076	0.5758	0.8476	-0.051
Mof_C 	C 	0.0118	0.5837	0.7468	-0.046
Mof_H 	H 	0.0548	0.6075	0.7381	-0.018
Mof_H 	H 	0.981	0.6145	0.7684	-0.028
Mof_C 	C 	0.4269	0.4723	0.7617	-0.013
Mof_H 	H 	0.4187	0.424	0.7617	-0.017
Mof_H 	H 	0.3822	0.4948	0.7641	-0.011
Mof_C 	C 	0.9621	0.4917	0.7967	-0.048
Mof_H 	H 	0.9315	0.5206	0.8205	-0.037
Mof_H 	H 	0.9712	0.4515	0.8209	-0.021
Mof_C 	C 	0.5353	0.459	0.8074	-0.039
Mof_H 	H 	0.5645	0.4706	0.8423	-0.044
Mof_H 	H 	0.5299	0.4103	0.8069	-0.015
Mof_C 	C 	0.0704	0.4812	0.7512	-0.003
Mof_H 	H 	0.0812	0.4419	0.7762	-0.02
Mof_H 	H 	0.1137	0.5037	0.7412	-0.016
Mof_C 	C 	0.9779	0.4627	0.974	-0.028
Mof_C 	C 	0.9771	0.5156	0.9817	-0.104
Mof_H 	H 	0.9451	0.4346	0.9348	-0.039
Mof_C 	C 	0.9803	0.5954	0.0072	-0.365
Mof_H 	H 	0.9811	0.6407	0.0185	0.102
Mof_C 	C 	0.9353	0.5737	0.9629	0.141
Mof_H 	H 	0.9054	0.6043	0.9439	-0.034
Mof_C 	C 	0.9341	0.5074	0.9463	-0.419
Mof_H 	H 	0.9033	0.4927	0.916	0.121
Mof_H 	H 	0.9646	0.594	0.9286	-0.364
Mof_H 	H 	0.9072	0.5866	0.9795	-0.084
Mof_H 	H 	0.9771	0.4174	0.9627	0.047
Mof_C 	C 	0.0241	0.5507	0.0349	0.05
Mof_C 	C 	0.0645	0.4374	0.0497	0.241
Mof_H 	H 	0.0938	0.4606	0.0786	-0.029
Mof_Na	Na	0.08127	0.55156	0.41323	1.439
Mof_Na	Na	0.44624	0.43134	0.39225	2.185
Mof_N 	N 	0.205	0.51581	0.4117	-0.243
Mof_N 	N 	0.33079	0.47527	0.40697	-0.287
Mof_N 	N 	0.0745	0.67704	0.3965	-0.235
Mof_N 	N 	0.4286	0.30559	0.3888	-0.262
Mof_N 	N 	0.032	0.50983	0.31496	-0.244
Mof_N 	N 	0.4737	0.4736	0.28583	-0.269
Mof_C 	C 	0.22	0.4805	0.3544	-0.02
Mof_H 	H 	0.1864	0.4446	0.3486	-0.024
Mof_H 	H 	0.2158	0.5116	0.3201	-0.01
Mof_C 	C 	0.2921	0.4512	0.3552	-0.046
Mof_H 	H 	0.316	0.4633	0.3174	-0.036
Mof_H 	H 	0.2891	0.4023	0.357	-0.025
Mof_C 	C 	0.2208	0.4698	0.4616	-0.009
Mof_H 	H 	0.2084	0.4906	0.5006	-0.048
Mof_H 	H 	0.1933	0.429	0.4569	-0.04
Mof_C 	C 	0.2967	0.4517	0.4622	-0.035
Mof_H 	H 	0.3017	0.4031	0.4654	-0.028
Mof_H 	H 	0.3187	0.4719	0.4981	-0.005
Mof_C 	C 	0.2529	0.5719	0.4157	-0.022
Mof_H 	H 	0.2418	0.6048	0.3842	-0.015
Mof_H 	H 	0.2481	0.5935	0.4557	-0.015
Mof_C 	C 	0.3275	0.5477	0.4074	-0.033
Mof_H 	H 	0.3561	0.565	0.4407	-0.006
Mof_H 	H 	0.3459	0.5651	0.3688	-0.02
Mof_C 	C 	0.0039	0.7018	0.3937	-0.009
Mof_H 	H 	0.9803	0.6816	0.3588	-0.019
Mof_H 	H 	0.9793	0.6889	0.4309	-0.043
Mof_C 	C 	0.4972	0.2775	0.3873	-0.053
Mof_H 	H 	0.5245	0.2967	0.4206	-0.007
Mof_H 	H 	0.5193	0.2895	0.3486	-0.013
Mof_C 	C 	0.1094	0.7001	0.3421	-0.032
Mof_H 	H 	0.1568	0.6835	0.3422	-0.011
Mof_H 	H 	0.0862	0.682	0.306	-0.003
Mof_C 	C 	0.39	0.2765	0.3385	-0.013
Mof_H 	H 	0.4103	0.2907	0.2996	-0.023
Mof_H 	H 	0.3424	0.2925	0.3398	-0.017
Mof_C 	C 	0.1069	0.7077	0.4491	-0.025
Mof_H 	H 	0.0835	0.6931	0.4864	-0.047
Mof_H 	H 	0.155	0.6933	0.4515	-0.024
Mof_C 	C 	0.396	0.284	0.4448	-0.028
Mof_H 	H 	0.3492	0.3021	0.4466	-0.02
Mof_H 	H 	0.4217	0.3017	0.4798	-0.03
Mof_C 	C 	0.0217	0.4377	0.3134	-0.002
Mof_H 	H 	0.0662	0.4151	0.3179	-0.028
Mof_H 	H 	0.9924	0.4242	0.3476	-0.054
Mof_C 	C 	0.4882	0.4163	0.2468	-0.037
Mof_H 	H 	0.4452	0.3925	0.2381	-0.02
Mof_H 	H 	0.519	0.3855	0.2684	-0.032
Mof_C 	C 	0.0731	0.5277	0.2617	-0.013
Mof_H 	H 	0.0813	0.576	0.2617	-0.017
Mof_H 	H 	0.1178	0.5052	0.2641	-0.011
Mof_C 	C 	0.5379	0.5083	0.2967	-0.05
Mof_H 	H 	0.5685	0.4794	0.3205	-0.037
Mof_H 	H 	0.5288	0.5485	0.3209	-0.021
Mof_C 	C 	0.9647	0.541	0.3074	-0.04
Mof_H 	H 	0.9355	0.5294	0.3423	-0.044
Mof_H 	H 	0.9701	0.5897	0.3069	-0.015
Mof_C 	C 	0.4296	0.5188	0.2512	-0.003
Mof_H 	H 	0.4188	0.5581	0.2762	-0.02
Mof_H 	H 	0.3863	0.4963	0.2412	-0.017
Mof_C 	C 	0.5221	0.5373	0.474	-0.027
Mof_C 	C 	0.5229	0.4844	0.4817	-0.108
Mof_H 	H 	0.5549	0.5654	0.4348	-0.04
Mof_C 	C 	0.5197	0.4046	0.5072	-0.36
Mof_H 	H 	0.5189	0.3593	0.5185	0.1
Mof_C 	C 	0.5647	0.4263	0.4629	0.141
Mof_H 	H 	0.5946	0.3957	0.4439	-0.033
Mof_C 	C 	0.5659	0.4926	0.4463	-0.418
Mof_H 	H 	0.5967	0.5073	0.416	0.12
Mof_H 	H 	0.5354	0.406	0.4286	-0.366
Mof_H 	H 	0.5928	0.4134	0.4795	-0.086
Mof_H 	H 	0.5229	0.5826	0.4627	0.044
Mof_C 	C 	0.4759	0.4493	0.5349	0.051
Mof_C 	C 	0.4355	0.5626	0.5497	0.24
Mof_H 	H 	0.4062	0.5394	0.5786	-0.029
_end
