data_functionalizedCrystal
_audit_creation_method	'EQeq! by Chris Wilmer'
_symmetry_space_group_name_H-M	'P1'
_symmetry_Int_Tables_number	1
_symmetry_cell_setting	triclinic
loop_
_symmetry_equiv_pos_as_xyz
  x,y,z
_cell_length_a	30.0915
_cell_length_b	30.0915
_cell_length_c	30.0915
_cell_angle_alpha	90
_cell_angle_beta	90
_cell_angle_gamma	90
loop_
_atom_site_label
_atom_site_type_symbol
_atom_site_fract_x
_atom_site_fract_y
_atom_site_fract_z
_atom_site_charge
Mof_Zn	Zn	0.21282	0.28718	0.21282	1.229
Mof_Zn	Zn	0.78718	0.71282	0.21282	1.229
Mof_Zn	Zn	0.28718	0.21282	0.21282	1.229
Mof_Zn	Zn	0.78718	0.28718	0.78718	1.229
Mof_Zn	Zn	0.28718	0.28718	0.28718	1.229
Mof_Zn	Zn	0.21282	0.71282	0.78718	1.229
Mof_Zn	Zn	0.21282	0.21282	0.28718	1.229
Mof_Zn	Zn	0.21282	0.78718	0.71282	1.229
Mof_Zn	Zn	0.78718	0.78718	0.28718	1.229
Mof_Zn	Zn	0.78718	0.21282	0.71282	1.229
Mof_Zn	Zn	0.28718	0.71282	0.71282	1.229
Mof_Zn	Zn	0.71282	0.21282	0.78718	1.229
Mof_Zn	Zn	0.71282	0.71282	0.28718	1.229
Mof_Zn	Zn	0.28718	0.78718	0.78718	1.229
Mof_Zn	Zn	0.71282	0.78718	0.21282	1.229
Mof_Zn	Zn	0.71282	0.28718	0.71282	1.229
Mof_Zn	Zn	0.28718	0.21282	0.78718	1.229
Mof_Zn	Zn	0.28718	0.71282	0.28718	1.229
Mof_Zn	Zn	0.71282	0.78718	0.78718	1.229
Mof_Zn	Zn	0.71282	0.28718	0.28718	1.229
Mof_Zn	Zn	0.21282	0.78718	0.28718	1.229
Mof_Zn	Zn	0.21282	0.28718	0.78718	1.229
Mof_Zn	Zn	0.28718	0.78718	0.21282	1.229
Mof_Zn	Zn	0.28718	0.28718	0.71282	1.229
Mof_Zn	Zn	0.71282	0.21282	0.21282	1.229
Mof_Zn	Zn	0.71282	0.71282	0.71282	1.229
Mof_Zn	Zn	0.21282	0.21282	0.71282	1.229
Mof_Zn	Zn	0.78718	0.21282	0.28718	1.229
Mof_Zn	Zn	0.78718	0.78718	0.71282	1.229
Mof_Zn	Zn	0.78718	0.28718	0.21282	1.229
Mof_Zn	Zn	0.21282	0.71282	0.21282	1.229
Mof_Zn	Zn	0.78718	0.71282	0.78718	1.229
Mof_O 	O 	0.25	0.25	0.25	-0.94
Mof_O 	O 	0.75	0.75	0.25	-0.94
Mof_O 	O 	0.75	0.25	0.75	-0.94
Mof_O 	O 	0.25	0.75	0.75	-0.94
Mof_O 	O 	0.25	0.25	0.75	-0.94
Mof_O 	O 	0.75	0.75	0.75	-0.94
Mof_O 	O 	0.75	0.25	0.25	-0.94
Mof_O 	O 	0.25	0.75	0.25	-0.94
Mof_O 	O 	0.1523	0.2754	0.2246	-0.539
Mof_C 	C 	0.0699	0.282	0.218	0.135
Mof_C 	C 	0.0248	0.2905	0.2095	-0.013
Mof_C 	C 	0.993	0.2659	0.2341	0.019
Mof_C 	C 	0.0533	0.273	0.227	-0.086
Mof_O 	O 	0.6523	0.2754	0.7246	-0.539
Mof_C 	C 	0.5699	0.282	0.718	0.135
Mof_C 	C 	0.5248	0.2905	0.7095	-0.013
Mof_C 	C 	0.493	0.2659	0.7341	0.019
Mof_C 	C 	0.5533	0.273	0.727	-0.086
Mof_O 	O 	0.8477	0.7246	0.2246	-0.539
Mof_C 	C 	0.9301	0.718	0.218	0.135
Mof_C 	C 	0.9752	0.7095	0.2095	-0.013
Mof_C 	C 	0.007	0.7341	0.2341	0.019
Mof_C 	C 	0.9467	0.727	0.227	-0.086
Mof_O 	O 	0.3477	0.7246	0.7246	-0.539
Mof_C 	C 	0.4301	0.718	0.718	0.135
Mof_C 	C 	0.4752	0.7095	0.7095	-0.013
Mof_C 	C 	0.507	0.7341	0.7341	0.019
Mof_C 	C 	0.4467	0.727	0.727	-0.086
Mof_O 	O 	0.3477	0.2246	0.2246	-0.539
Mof_C 	C 	0.4301	0.218	0.218	0.135
Mof_C 	C 	0.4752	0.2095	0.2095	-0.013
Mof_C 	C 	0.507	0.2341	0.2341	0.019
Mof_C 	C 	0.4467	0.227	0.227	-0.086
Mof_O 	O 	0.8477	0.2754	0.7754	-0.539
Mof_C 	C 	0.9301	0.282	0.782	0.135
Mof_C 	C 	0.9752	0.2905	0.7905	-0.013
Mof_C 	C 	0.007	0.2659	0.7659	0.019
Mof_C 	C 	0.9467	0.273	0.773	-0.086
Mof_O 	O 	0.3477	0.2754	0.2754	-0.539
Mof_C 	C 	0.4301	0.282	0.282	0.135
Mof_C 	C 	0.4752	0.2905	0.2905	-0.013
Mof_C 	C 	0.507	0.2659	0.2659	0.019
Mof_C 	C 	0.4467	0.273	0.273	-0.086
Mof_O 	O 	0.1523	0.7246	0.7754	-0.539
Mof_C 	C 	0.0699	0.718	0.782	0.135
Mof_C 	C 	0.0248	0.7095	0.7905	-0.013
Mof_C 	C 	0.993	0.7341	0.7659	0.019
Mof_C 	C 	0.0533	0.727	0.773	-0.086
Mof_O 	O 	0.1523	0.2246	0.2754	-0.539
Mof_C 	C 	0.0699	0.218	0.282	0.135
Mof_C 	C 	0.0248	0.2095	0.2905	-0.013
Mof_C 	C 	0.993	0.2341	0.2659	0.019
Mof_C 	C 	0.0533	0.227	0.273	-0.086
Mof_O 	O 	0.6523	0.7246	0.2754	-0.539
Mof_C 	C 	0.5699	0.718	0.282	0.135
Mof_C 	C 	0.5248	0.7095	0.2905	-0.013
Mof_C 	C 	0.493	0.7341	0.2659	0.019
Mof_C 	C 	0.5533	0.727	0.273	-0.086
Mof_O 	O 	0.2246	0.1523	0.2754	-0.539
Mof_C 	C 	0.218	0.0699	0.282	0.135
Mof_C 	C 	0.2095	0.0248	0.2905	-0.013
Mof_C 	C 	0.2341	0.993	0.2659	0.019
Mof_C 	C 	0.227	0.0533	0.273	-0.086
Mof_O 	O 	0.2246	0.6523	0.7754	-0.539
Mof_C 	C 	0.218	0.5699	0.782	0.135
Mof_C 	C 	0.2095	0.5248	0.7905	-0.013
Mof_C 	C 	0.2341	0.493	0.7659	0.019
Mof_C 	C 	0.227	0.5533	0.773	-0.086
Mof_O 	O 	0.2246	0.8477	0.7246	-0.539
Mof_C 	C 	0.218	0.9301	0.718	0.135
Mof_C 	C 	0.2095	0.9752	0.7095	-0.013
Mof_C 	C 	0.2341	0.007	0.7341	0.019
Mof_C 	C 	0.227	0.9467	0.727	-0.087
Mof_O 	O 	0.2246	0.3477	0.2246	-0.54
Mof_C 	C 	0.218	0.4301	0.218	0.134
Mof_C 	C 	0.2095	0.4752	0.2095	-0.014
Mof_C 	C 	0.2341	0.507	0.2341	0.018
Mof_C 	C 	0.227	0.4467	0.227	-0.087
Mof_O 	O 	0.7754	0.8477	0.2754	-0.54
Mof_C 	C 	0.782	0.9301	0.282	0.134
Mof_C 	C 	0.7905	0.9752	0.2905	-0.014
Mof_C 	C 	0.7659	0.007	0.2659	0.018
Mof_C 	C 	0.773	0.9467	0.273	-0.087
Mof_O 	O 	0.7754	0.3477	0.7754	-0.54
Mof_C 	C 	0.782	0.4301	0.782	0.134
Mof_C 	C 	0.7905	0.4752	0.7905	-0.014
Mof_C 	C 	0.7659	0.507	0.7659	0.018
Mof_C 	C 	0.773	0.4467	0.773	-0.087
Mof_O 	O 	0.2754	0.3477	0.2754	-0.54
Mof_C 	C 	0.282	0.4301	0.282	0.134
Mof_C 	C 	0.2905	0.4752	0.2905	-0.014
Mof_C 	C 	0.2659	0.507	0.2659	0.018
Mof_C 	C 	0.273	0.4467	0.273	-0.087
Mof_O 	O 	0.7754	0.1523	0.7246	-0.54
Mof_C 	C 	0.782	0.0699	0.718	0.134
Mof_C 	C 	0.7905	0.0248	0.7095	-0.014
Mof_C 	C 	0.7659	0.993	0.7341	0.018
Mof_C 	C 	0.773	0.0533	0.727	-0.087
Mof_O 	O 	0.7754	0.6523	0.2246	-0.54
Mof_C 	C 	0.782	0.5699	0.218	0.134
Mof_C 	C 	0.7905	0.5248	0.2095	-0.014
Mof_C 	C 	0.7659	0.493	0.2341	0.018
Mof_C 	C 	0.773	0.5533	0.227	-0.087
Mof_O 	O 	0.2754	0.1523	0.2246	-0.54
Mof_C 	C 	0.282	0.0699	0.218	0.134
Mof_C 	C 	0.2905	0.0248	0.2095	-0.014
Mof_C 	C 	0.2659	0.993	0.2341	0.018
Mof_C 	C 	0.273	0.0533	0.227	-0.087
Mof_O 	O 	0.2754	0.2246	0.1523	-0.54
Mof_C 	C 	0.282	0.218	0.0699	0.134
Mof_C 	C 	0.2905	0.2095	0.0248	-0.014
Mof_C 	C 	0.2659	0.2341	0.993	0.018
Mof_C 	C 	0.273	0.227	0.0533	-0.087
Mof_O 	O 	0.2754	0.7246	0.6523	-0.54
Mof_C 	C 	0.282	0.718	0.5699	0.134
Mof_C 	C 	0.2905	0.7095	0.5248	-0.014
Mof_C 	C 	0.2659	0.7341	0.493	0.018
Mof_C 	C 	0.273	0.727	0.5533	-0.087
Mof_O 	O 	0.7246	0.2246	0.8477	-0.54
Mof_C 	C 	0.718	0.218	0.9301	0.134
Mof_C 	C 	0.7095	0.2095	0.9752	-0.014
Mof_C 	C 	0.7341	0.2341	0.007	0.018
Mof_C 	C 	0.727	0.227	0.9467	-0.087
Mof_O 	O 	0.7246	0.7246	0.3477	-0.54
Mof_C 	C 	0.718	0.718	0.4301	0.134
Mof_C 	C 	0.7095	0.7095	0.4752	-0.014
Mof_C 	C 	0.7341	0.7341	0.507	0.018
Mof_C 	C 	0.727	0.727	0.4467	-0.087
Mof_O 	O 	0.2246	0.2246	0.3477	-0.54
Mof_C 	C 	0.218	0.218	0.4301	0.134
Mof_C 	C 	0.2095	0.2095	0.4752	-0.014
Mof_C 	C 	0.2341	0.2341	0.507	0.018
Mof_C 	C 	0.227	0.227	0.4467	-0.087
Mof_O 	O 	0.2754	0.7754	0.8477	-0.54
Mof_C 	C 	0.282	0.782	0.9301	0.134
Mof_C 	C 	0.2905	0.7905	0.9752	-0.014
Mof_C 	C 	0.2659	0.7659	0.007	0.018
Mof_C 	C 	0.273	0.773	0.9467	-0.087
Mof_O 	O 	0.2754	0.2754	0.3477	-0.54
Mof_C 	C 	0.282	0.282	0.4301	0.134
Mof_C 	C 	0.2905	0.2905	0.4752	-0.014
Mof_C 	C 	0.2659	0.2659	0.507	0.018
Mof_C 	C 	0.273	0.273	0.4467	-0.087
Mof_O 	O 	0.7246	0.7754	0.1523	-0.54
Mof_C 	C 	0.718	0.782	0.0699	0.134
Mof_C 	C 	0.7095	0.7905	0.0248	-0.014
Mof_C 	C 	0.7341	0.7659	0.993	0.018
Mof_C 	C 	0.727	0.773	0.0533	-0.087
Mof_O 	O 	0.7246	0.2754	0.6523	-0.54
Mof_C 	C 	0.718	0.282	0.5699	0.134
Mof_C 	C 	0.7095	0.2905	0.5248	-0.014
Mof_C 	C 	0.7341	0.2659	0.493	0.018
Mof_C 	C 	0.727	0.273	0.5533	-0.087
Mof_O 	O 	0.2246	0.2754	0.1523	-0.54
Mof_C 	C 	0.218	0.282	0.0699	0.134
Mof_C 	C 	0.2095	0.2905	0.0248	-0.014
Mof_C 	C 	0.2341	0.2659	0.993	0.018
Mof_C 	C 	0.227	0.273	0.0533	-0.087
Mof_O 	O 	0.2754	0.1523	0.7754	-0.54
Mof_C 	C 	0.282	0.0699	0.782	0.134
Mof_C 	C 	0.2905	0.0248	0.7905	-0.014
Mof_C 	C 	0.2659	0.993	0.7659	0.018
Mof_C 	C 	0.273	0.0533	0.773	-0.087
Mof_O 	O 	0.2754	0.6523	0.2754	-0.54
Mof_C 	C 	0.282	0.5699	0.282	0.134
Mof_C 	C 	0.2905	0.5248	0.2905	-0.014
Mof_C 	C 	0.2659	0.493	0.2659	0.018
Mof_C 	C 	0.273	0.5533	0.273	-0.087
Mof_O 	O 	0.7246	0.8477	0.7754	-0.54
Mof_C 	C 	0.718	0.9301	0.782	0.134
Mof_C 	C 	0.7095	0.9752	0.7905	-0.014
Mof_C 	C 	0.7341	0.007	0.7659	0.018
Mof_C 	C 	0.727	0.9467	0.773	-0.087
Mof_O 	O 	0.7246	0.3477	0.2754	-0.54
Mof_C 	C 	0.718	0.4301	0.282	0.134
Mof_C 	C 	0.7095	0.4752	0.2905	-0.014
Mof_C 	C 	0.7341	0.507	0.2659	0.018
Mof_C 	C 	0.727	0.4467	0.273	-0.087
Mof_O 	O 	0.2246	0.8477	0.2754	-0.54
Mof_C 	C 	0.218	0.9301	0.282	0.134
Mof_C 	C 	0.2095	0.9752	0.2905	-0.014
Mof_C 	C 	0.2341	0.007	0.2659	0.018
Mof_C 	C 	0.227	0.9467	0.273	-0.087
Mof_O 	O 	0.2754	0.8477	0.2246	-0.54
Mof_C 	C 	0.282	0.9301	0.218	0.134
Mof_C 	C 	0.2905	0.9752	0.2095	-0.014
Mof_C 	C 	0.2659	0.007	0.2341	0.018
Mof_C 	C 	0.273	0.9467	0.227	-0.087
Mof_O 	O 	0.2754	0.3477	0.7246	-0.54
Mof_C 	C 	0.282	0.4301	0.718	0.134
Mof_C 	C 	0.2905	0.4752	0.7095	-0.014
Mof_C 	C 	0.2659	0.507	0.7341	0.018
Mof_C 	C 	0.273	0.4467	0.727	-0.087
Mof_O 	O 	0.7246	0.1523	0.2246	-0.54
Mof_C 	C 	0.718	0.0699	0.218	0.134
Mof_C 	C 	0.7095	0.0248	0.2095	-0.014
Mof_C 	C 	0.7341	0.993	0.2341	0.018
Mof_C 	C 	0.727	0.0533	0.227	-0.087
Mof_O 	O 	0.7246	0.6523	0.7246	-0.54
Mof_C 	C 	0.718	0.5699	0.718	0.134
Mof_C 	C 	0.7095	0.5248	0.7095	-0.014
Mof_C 	C 	0.7341	0.493	0.7341	0.018
Mof_C 	C 	0.727	0.5533	0.727	-0.087
Mof_O 	O 	0.2246	0.6523	0.2246	-0.54
Mof_C 	C 	0.218	0.5699	0.218	0.134
Mof_C 	C 	0.2095	0.5248	0.2095	-0.014
Mof_C 	C 	0.2341	0.493	0.2341	0.018
Mof_C 	C 	0.227	0.5533	0.227	-0.087
Mof_O 	O 	0.1523	0.2246	0.7246	-0.54
Mof_C 	C 	0.0699	0.218	0.718	0.134
Mof_C 	C 	0.0248	0.2095	0.7095	-0.014
Mof_C 	C 	0.993	0.2341	0.7341	0.018
Mof_C 	C 	0.0533	0.227	0.727	-0.087
Mof_O 	O 	0.6523	0.2246	0.2246	-0.54
Mof_C 	C 	0.5699	0.218	0.218	0.134
Mof_C 	C 	0.5248	0.2095	0.2095	-0.014
Mof_C 	C 	0.493	0.2341	0.2341	0.018
Mof_C 	C 	0.5533	0.227	0.227	-0.087
Mof_O 	O 	0.8477	0.2246	0.2754	-0.54
Mof_C 	C 	0.9301	0.218	0.282	0.134
Mof_C 	C 	0.9752	0.2095	0.2905	-0.014
Mof_C 	C 	0.007	0.2341	0.2659	0.018
Mof_C 	C 	0.9467	0.227	0.273	-0.087
Mof_O 	O 	0.3477	0.2246	0.7754	-0.54
Mof_C 	C 	0.4301	0.218	0.782	0.134
Mof_C 	C 	0.4752	0.2095	0.7905	-0.014
Mof_C 	C 	0.507	0.2341	0.7659	0.018
Mof_C 	C 	0.4467	0.227	0.773	-0.087
Mof_O 	O 	0.8477	0.7754	0.7246	-0.54
Mof_C 	C 	0.9301	0.782	0.718	0.134
Mof_C 	C 	0.9752	0.7905	0.7095	-0.014
Mof_C 	C 	0.007	0.7659	0.7341	0.018
Mof_C 	C 	0.9467	0.773	0.727	-0.087
Mof_O 	O 	0.8477	0.2754	0.2246	-0.54
Mof_C 	C 	0.9301	0.282	0.218	0.134
Mof_C 	C 	0.9752	0.2905	0.2095	-0.014
Mof_C 	C 	0.007	0.2659	0.2341	0.018
Mof_C 	C 	0.9467	0.273	0.227	-0.087
Mof_O 	O 	0.3477	0.7754	0.2246	-0.54
Mof_C 	C 	0.4301	0.782	0.218	0.134
Mof_C 	C 	0.4752	0.7905	0.2095	-0.014
Mof_C 	C 	0.507	0.7659	0.2341	0.018
Mof_C 	C 	0.4467	0.773	0.227	-0.087
Mof_O 	O 	0.1523	0.7754	0.2754	-0.54
Mof_C 	C 	0.0699	0.782	0.282	0.134
Mof_C 	C 	0.0248	0.7905	0.2905	-0.014
Mof_C 	C 	0.993	0.7659	0.2659	0.018
Mof_C 	C 	0.0533	0.773	0.273	-0.087
Mof_O 	O 	0.6523	0.7754	0.7754	-0.54
Mof_C 	C 	0.5699	0.782	0.782	0.134
Mof_C 	C 	0.5248	0.7905	0.7905	-0.014
Mof_C 	C 	0.493	0.7659	0.7659	0.018
Mof_C 	C 	0.5533	0.773	0.773	-0.087
Mof_O 	O 	0.6523	0.2754	0.2754	-0.54
Mof_C 	C 	0.5699	0.282	0.282	0.134
Mof_C 	C 	0.5248	0.2905	0.2905	-0.014
Mof_C 	C 	0.493	0.2659	0.2659	0.018
Mof_C 	C 	0.5533	0.273	0.273	-0.087
Mof_O 	O 	0.2246	0.2754	0.8477	-0.54
Mof_C 	C 	0.218	0.282	0.9301	0.134
Mof_C 	C 	0.2095	0.2905	0.9752	-0.014
Mof_C 	C 	0.2341	0.2659	0.007	0.018
Mof_C 	C 	0.227	0.273	0.9467	-0.087
Mof_O 	O 	0.2246	0.7754	0.3477	-0.54
Mof_C 	C 	0.218	0.782	0.4301	0.134
Mof_C 	C 	0.2095	0.7905	0.4752	-0.014
Mof_C 	C 	0.2341	0.7659	0.507	0.018
Mof_C 	C 	0.227	0.773	0.4467	-0.087
Mof_O 	O 	0.2246	0.7246	0.1523	-0.54
Mof_C 	C 	0.218	0.718	0.0699	0.134
Mof_C 	C 	0.2095	0.7095	0.0248	-0.014
Mof_C 	C 	0.2341	0.7341	0.993	0.018
Mof_C 	C 	0.227	0.727	0.0533	-0.087
Mof_O 	O 	0.2246	0.2246	0.6523	-0.54
Mof_C 	C 	0.218	0.218	0.5699	0.134
Mof_C 	C 	0.2095	0.2095	0.5248	-0.014
Mof_C 	C 	0.2341	0.2341	0.493	0.018
Mof_C 	C 	0.227	0.227	0.5533	-0.087
Mof_O 	O 	0.7754	0.2754	0.1523	-0.54
Mof_C 	C 	0.782	0.282	0.0699	0.134
Mof_C 	C 	0.7905	0.2905	0.0248	-0.014
Mof_C 	C 	0.7659	0.2659	0.993	0.018
Mof_C 	C 	0.773	0.273	0.0533	-0.087
Mof_O 	O 	0.7754	0.7754	0.6523	-0.54
Mof_C 	C 	0.782	0.782	0.5699	0.134
Mof_C 	C 	0.7905	0.7905	0.5248	-0.014
Mof_C 	C 	0.7659	0.7659	0.493	0.018
Mof_C 	C 	0.773	0.773	0.5533	-0.087
Mof_O 	O 	0.2754	0.2754	0.6523	-0.54
Mof_C 	C 	0.282	0.282	0.5699	0.134
Mof_C 	C 	0.2905	0.2905	0.5248	-0.014
Mof_C 	C 	0.2659	0.2659	0.493	0.018
Mof_C 	C 	0.273	0.273	0.5533	-0.087
Mof_O 	O 	0.7754	0.7246	0.8477	-0.54
Mof_C 	C 	0.782	0.718	0.9301	0.134
Mof_C 	C 	0.7905	0.7095	0.9752	-0.014
Mof_C 	C 	0.7659	0.7341	0.007	0.018
Mof_C 	C 	0.773	0.727	0.9467	-0.087
Mof_O 	O 	0.7754	0.2246	0.3477	-0.54
Mof_C 	C 	0.782	0.218	0.4301	0.134
Mof_C 	C 	0.7905	0.2095	0.4752	-0.014
Mof_C 	C 	0.7659	0.2341	0.507	0.018
Mof_C 	C 	0.773	0.227	0.4467	-0.087
Mof_O 	O 	0.2754	0.2246	0.8477	-0.54
Mof_C 	C 	0.282	0.218	0.9301	0.134
Mof_C 	C 	0.2905	0.2095	0.9752	-0.014
Mof_C 	C 	0.2659	0.2341	0.007	0.018
Mof_C 	C 	0.273	0.227	0.9467	-0.087
Mof_O 	O 	0.8477	0.7246	0.7754	-0.54
Mof_C 	C 	0.9301	0.718	0.782	0.134
Mof_C 	C 	0.9752	0.7095	0.7905	-0.014
Mof_C 	C 	0.007	0.7341	0.7659	0.018
Mof_C 	C 	0.9467	0.727	0.773	-0.087
Mof_O 	O 	0.3477	0.7246	0.2754	-0.54
Mof_C 	C 	0.4301	0.718	0.282	0.134
Mof_C 	C 	0.4752	0.7095	0.2905	-0.014
Mof_C 	C 	0.507	0.7341	0.2659	0.018
Mof_C 	C 	0.4467	0.727	0.273	-0.087
Mof_O 	O 	0.1523	0.2754	0.7754	-0.54
Mof_C 	C 	0.0699	0.282	0.782	0.134
Mof_C 	C 	0.0248	0.2905	0.7905	-0.014
Mof_C 	C 	0.993	0.2659	0.7659	0.018
Mof_C 	C 	0.0533	0.273	0.773	-0.087
Mof_O 	O 	0.1523	0.7246	0.2246	-0.54
Mof_C 	C 	0.0699	0.718	0.218	0.134
Mof_C 	C 	0.0248	0.7095	0.2095	-0.014
Mof_C 	C 	0.993	0.7341	0.2341	0.018
Mof_C 	C 	0.0533	0.727	0.227	-0.087
Mof_O 	O 	0.6523	0.7246	0.7246	-0.54
Mof_C 	C 	0.5699	0.718	0.718	0.134
Mof_C 	C 	0.5248	0.7095	0.7095	-0.014
Mof_C 	C 	0.493	0.7341	0.7341	0.018
Mof_C 	C 	0.5533	0.727	0.727	-0.087
Mof_O 	O 	0.3477	0.2754	0.7246	-0.54
Mof_C 	C 	0.4301	0.282	0.718	0.134
Mof_C 	C 	0.4752	0.2905	0.7095	-0.014
Mof_C 	C 	0.507	0.2659	0.7341	0.018
Mof_C 	C 	0.4467	0.273	0.727	-0.087
Mof_O 	O 	0.7754	0.8477	0.7246	-0.54
Mof_C 	C 	0.782	0.9301	0.718	0.134
Mof_C 	C 	0.7905	0.9752	0.7095	-0.014
Mof_C 	C 	0.7659	0.007	0.7341	0.018
Mof_C 	C 	0.773	0.9467	0.727	-0.087
Mof_O 	O 	0.7754	0.3477	0.2246	-0.54
Mof_C 	C 	0.782	0.4301	0.218	0.134
Mof_C 	C 	0.7905	0.4752	0.2095	-0.014
Mof_C 	C 	0.7659	0.507	0.2341	0.018
Mof_C 	C 	0.773	0.4467	0.227	-0.087
Mof_O 	O 	0.7754	0.1523	0.2754	-0.54
Mof_C 	C 	0.782	0.0699	0.282	0.134
Mof_C 	C 	0.7905	0.0248	0.2905	-0.014
Mof_C 	C 	0.7659	0.993	0.2659	0.018
Mof_C 	C 	0.773	0.0533	0.273	-0.087
Mof_O 	O 	0.7754	0.6523	0.7754	-0.54
Mof_C 	C 	0.782	0.5699	0.782	0.134
Mof_C 	C 	0.7905	0.5248	0.7905	-0.014
Mof_C 	C 	0.7659	0.493	0.7659	0.018
Mof_C 	C 	0.773	0.5533	0.773	-0.087
Mof_O 	O 	0.2246	0.1523	0.7246	-0.54
Mof_C 	C 	0.218	0.0699	0.718	0.134
Mof_C 	C 	0.2095	0.0248	0.7095	-0.014
Mof_C 	C 	0.2341	0.993	0.7341	0.018
Mof_C 	C 	0.227	0.0533	0.727	-0.087
Mof_O 	O 	0.2246	0.3477	0.7754	-0.54
Mof_C 	C 	0.218	0.4301	0.782	0.134
Mof_C 	C 	0.2095	0.4752	0.7905	-0.014
Mof_C 	C 	0.2341	0.507	0.7659	0.018
Mof_C 	C 	0.227	0.4467	0.773	-0.087
Mof_O 	O 	0.7246	0.7754	0.8477	-0.54
Mof_C 	C 	0.718	0.782	0.9301	0.134
Mof_C 	C 	0.7095	0.7905	0.9752	-0.014
Mof_C 	C 	0.7341	0.7659	0.007	0.018
Mof_C 	C 	0.727	0.773	0.9467	-0.087
Mof_O 	O 	0.7246	0.2754	0.3477	-0.54
Mof_C 	C 	0.718	0.282	0.4301	0.134
Mof_C 	C 	0.7095	0.2905	0.4752	-0.014
Mof_C 	C 	0.7341	0.2659	0.507	0.018
Mof_C 	C 	0.727	0.273	0.4467	-0.087
Mof_O 	O 	0.2754	0.7754	0.1523	-0.54
Mof_C 	C 	0.282	0.782	0.0699	0.134
Mof_C 	C 	0.2905	0.7905	0.0248	-0.014
Mof_C 	C 	0.2659	0.7659	0.993	0.018
Mof_C 	C 	0.273	0.773	0.0533	-0.087
Mof_O 	O 	0.7246	0.2246	0.1523	-0.54
Mof_C 	C 	0.718	0.218	0.0699	0.134
Mof_C 	C 	0.7095	0.2095	0.0248	-0.014
Mof_C 	C 	0.7341	0.2341	0.993	0.018
Mof_C 	C 	0.727	0.227	0.0533	-0.087
Mof_O 	O 	0.7246	0.7246	0.6523	-0.54
Mof_C 	C 	0.718	0.718	0.5699	0.134
Mof_C 	C 	0.7095	0.7095	0.5248	-0.014
Mof_C 	C 	0.7341	0.7341	0.493	0.018
Mof_C 	C 	0.727	0.727	0.5533	-0.087
Mof_O 	O 	0.2754	0.7246	0.3477	-0.54
Mof_C 	C 	0.282	0.718	0.4301	0.134
Mof_C 	C 	0.2905	0.7095	0.4752	-0.014
Mof_C 	C 	0.2659	0.7341	0.507	0.018
Mof_C 	C 	0.273	0.727	0.4467	-0.087
Mof_O 	O 	0.7246	0.8477	0.2246	-0.54
Mof_C 	C 	0.718	0.9301	0.218	0.134
Mof_C 	C 	0.7095	0.9752	0.2095	-0.014
Mof_C 	C 	0.7341	0.007	0.2341	0.018
Mof_C 	C 	0.727	0.9467	0.227	-0.087
Mof_O 	O 	0.7246	0.3477	0.7246	-0.54
Mof_C 	C 	0.718	0.4301	0.718	0.134
Mof_C 	C 	0.7095	0.4752	0.7095	-0.014
Mof_C 	C 	0.7341	0.507	0.7341	0.018
Mof_C 	C 	0.727	0.4467	0.727	-0.087
Mof_O 	O 	0.2754	0.6523	0.7246	-0.54
Mof_C 	C 	0.282	0.5699	0.718	0.134
Mof_C 	C 	0.2905	0.5248	0.7095	-0.014
Mof_C 	C 	0.2659	0.493	0.7341	0.018
Mof_C 	C 	0.273	0.5533	0.727	-0.087
Mof_O 	O 	0.7246	0.1523	0.7754	-0.54
Mof_C 	C 	0.718	0.0699	0.782	0.134
Mof_C 	C 	0.7095	0.0248	0.7905	-0.014
Mof_C 	C 	0.7341	0.993	0.7659	0.018
Mof_C 	C 	0.727	0.0533	0.773	-0.087
Mof_O 	O 	0.7246	0.6523	0.2754	-0.54
Mof_C 	C 	0.718	0.5699	0.282	0.134
Mof_C 	C 	0.7095	0.5248	0.2905	-0.014
Mof_C 	C 	0.7341	0.493	0.2659	0.018
Mof_C 	C 	0.727	0.5533	0.273	-0.087
Mof_O 	O 	0.2754	0.8477	0.7754	-0.54
Mof_C 	C 	0.282	0.9301	0.782	0.134
Mof_C 	C 	0.2905	0.9752	0.7905	-0.014
Mof_C 	C 	0.2659	0.007	0.7659	0.018
Mof_C 	C 	0.273	0.9467	0.773	-0.087
Mof_O 	O 	0.8477	0.7754	0.2754	-0.54
Mof_C 	C 	0.9301	0.782	0.282	0.134
Mof_C 	C 	0.9752	0.7905	0.2905	-0.014
Mof_C 	C 	0.007	0.7659	0.2659	0.018
Mof_C 	C 	0.9467	0.773	0.273	-0.087
Mof_O 	O 	0.3477	0.7754	0.7754	-0.54
Mof_C 	C 	0.4301	0.782	0.782	0.134
Mof_C 	C 	0.4752	0.7905	0.7905	-0.014
Mof_C 	C 	0.507	0.7659	0.7659	0.018
Mof_C 	C 	0.4467	0.773	0.773	-0.087
Mof_O 	O 	0.1523	0.7754	0.7246	-0.54
Mof_C 	C 	0.0699	0.782	0.718	0.134
Mof_C 	C 	0.0248	0.7905	0.7095	-0.014
Mof_C 	C 	0.993	0.7659	0.7341	0.018
Mof_C 	C 	0.0533	0.773	0.727	-0.087
Mof_O 	O 	0.6523	0.7754	0.2246	-0.54
Mof_C 	C 	0.5699	0.782	0.218	0.134
Mof_C 	C 	0.5248	0.7905	0.2095	-0.014
Mof_C 	C 	0.493	0.7659	0.2341	0.018
Mof_C 	C 	0.5533	0.773	0.227	-0.087
Mof_O 	O 	0.6523	0.2246	0.7754	-0.54
Mof_C 	C 	0.5699	0.218	0.782	0.134
Mof_C 	C 	0.5248	0.2095	0.7905	-0.014
Mof_C 	C 	0.493	0.2341	0.7659	0.018
Mof_C 	C 	0.5533	0.227	0.773	-0.087
Mof_O 	O 	0.8477	0.2246	0.7246	-0.54
Mof_C 	C 	0.9301	0.218	0.718	0.134
Mof_C 	C 	0.9752	0.2095	0.7095	-0.014
Mof_C 	C 	0.007	0.2341	0.7341	0.018
Mof_C 	C 	0.9467	0.227	0.727	-0.087
Mof_O 	O 	0.7754	0.7246	0.1523	-0.54
Mof_C 	C 	0.782	0.718	0.0699	0.134
Mof_C 	C 	0.7905	0.7095	0.0248	-0.014
Mof_C 	C 	0.7659	0.7341	0.993	0.018
Mof_C 	C 	0.773	0.727	0.0533	-0.087
Mof_O 	O 	0.7754	0.2246	0.6523	-0.54
Mof_C 	C 	0.782	0.218	0.5699	0.134
Mof_C 	C 	0.7905	0.2095	0.5248	-0.014
Mof_C 	C 	0.7659	0.2341	0.493	0.018
Mof_C 	C 	0.773	0.227	0.5533	-0.087
Mof_O 	O 	0.7754	0.2754	0.8477	-0.54
Mof_C 	C 	0.782	0.282	0.9301	0.134
Mof_C 	C 	0.7905	0.2905	0.9752	-0.014
Mof_C 	C 	0.7659	0.2659	0.007	0.018
Mof_C 	C 	0.773	0.273	0.9467	-0.087
Mof_O 	O 	0.7754	0.7754	0.3477	-0.54
Mof_C 	C 	0.782	0.782	0.4301	0.134
Mof_C 	C 	0.7905	0.7905	0.4752	-0.014
Mof_C 	C 	0.7659	0.7659	0.507	0.018
Mof_C 	C 	0.773	0.773	0.4467	-0.087
Mof_O 	O 	0.2246	0.7246	0.8477	-0.54
Mof_C 	C 	0.218	0.718	0.9301	0.134
Mof_C 	C 	0.2095	0.7095	0.9752	-0.014
Mof_C 	C 	0.2341	0.7341	0.007	0.018
Mof_C 	C 	0.227	0.727	0.9467	-0.087
Mof_O 	O 	0.2246	0.7754	0.6523	-0.54
Mof_C 	C 	0.218	0.782	0.5699	0.134
Mof_C 	C 	0.2095	0.7905	0.5248	-0.014
Mof_C 	C 	0.2341	0.7659	0.493	0.018
Mof_C 	C 	0.227	0.773	0.5533	-0.087
Mof_C 	C 	0.1325	0.25	0.25	0.453
Mof_C 	C 	0.0833	0.25	0.25	-0.139
Mof_C 	C 	0.6325	0.25	0.75	0.453
Mof_C 	C 	0.5833	0.25	0.75	-0.139
Mof_C 	C 	0.8675	0.75	0.25	0.453
Mof_C 	C 	0.9167	0.75	0.25	-0.139
Mof_C 	C 	0.3675	0.75	0.75	0.453
Mof_C 	C 	0.4167	0.75	0.75	-0.139
Mof_C 	C 	0.3675	0.25	0.25	0.453
Mof_C 	C 	0.4167	0.25	0.25	-0.139
Mof_C 	C 	0.8675	0.25	0.75	0.453
Mof_C 	C 	0.9167	0.25	0.75	-0.139
Mof_C 	C 	0.1325	0.75	0.75	0.453
Mof_C 	C 	0.0833	0.75	0.75	-0.139
Mof_C 	C 	0.6325	0.75	0.25	0.453
Mof_C 	C 	0.5833	0.75	0.25	-0.139
Mof_C 	C 	0.25	0.1325	0.25	0.453
Mof_C 	C 	0.25	0.0833	0.25	-0.139
Mof_C 	C 	0.25	0.6325	0.75	0.453
Mof_C 	C 	0.25	0.5833	0.75	-0.139
Mof_C 	C 	0.25	0.8675	0.75	0.453
Mof_C 	C 	0.25	0.9167	0.75	-0.139
Mof_C 	C 	0.25	0.3675	0.25	0.453
Mof_C 	C 	0.25	0.4167	0.25	-0.139
Mof_C 	C 	0.75	0.8675	0.25	0.453
Mof_C 	C 	0.75	0.9167	0.25	-0.139
Mof_C 	C 	0.75	0.3675	0.75	0.453
Mof_C 	C 	0.75	0.4167	0.75	-0.139
Mof_C 	C 	0.75	0.1325	0.75	0.453
Mof_C 	C 	0.75	0.0833	0.75	-0.139
Mof_C 	C 	0.75	0.6325	0.25	0.453
Mof_C 	C 	0.75	0.5833	0.25	-0.139
Mof_C 	C 	0.25	0.25	0.1325	0.453
Mof_C 	C 	0.25	0.25	0.0833	-0.139
Mof_C 	C 	0.25	0.75	0.6325	0.453
Mof_C 	C 	0.25	0.75	0.5833	-0.139
Mof_C 	C 	0.75	0.25	0.8675	0.453
Mof_C 	C 	0.75	0.25	0.9167	-0.139
Mof_C 	C 	0.75	0.75	0.3675	0.453
Mof_C 	C 	0.75	0.75	0.4167	-0.139
Mof_C 	C 	0.25	0.25	0.3675	0.453
Mof_C 	C 	0.25	0.25	0.4167	-0.139
Mof_C 	C 	0.25	0.75	0.8675	0.453
Mof_C 	C 	0.25	0.75	0.9167	-0.139
Mof_C 	C 	0.75	0.75	0.1325	0.453
Mof_C 	C 	0.75	0.75	0.0833	-0.139
Mof_C 	C 	0.75	0.25	0.6325	0.453
Mof_C 	C 	0.75	0.25	0.5833	-0.139
Mof_C 	C 	0.25	0.1325	0.75	0.453
Mof_C 	C 	0.25	0.0833	0.75	-0.139
Mof_C 	C 	0.25	0.6325	0.25	0.453
Mof_C 	C 	0.25	0.5833	0.25	-0.139
Mof_C 	C 	0.75	0.8675	0.75	0.453
Mof_C 	C 	0.75	0.9167	0.75	-0.139
Mof_C 	C 	0.75	0.3675	0.25	0.453
Mof_C 	C 	0.75	0.4167	0.25	-0.139
Mof_C 	C 	0.25	0.8675	0.25	0.453
Mof_C 	C 	0.25	0.9167	0.25	-0.139
Mof_C 	C 	0.25	0.3675	0.75	0.453
Mof_C 	C 	0.25	0.4167	0.75	-0.139
Mof_C 	C 	0.75	0.1325	0.25	0.453
Mof_C 	C 	0.75	0.0833	0.25	-0.139
Mof_C 	C 	0.75	0.6325	0.75	0.453
Mof_C 	C 	0.75	0.5833	0.75	-0.139
Mof_C 	C 	0.1325	0.25	0.75	0.453
Mof_C 	C 	0.0833	0.25	0.75	-0.139
Mof_C 	C 	0.6325	0.25	0.25	0.453
Mof_C 	C 	0.5833	0.25	0.25	-0.139
Mof_C 	C 	0.8675	0.25	0.25	0.453
Mof_C 	C 	0.9167	0.25	0.25	-0.139
Mof_C 	C 	0.3675	0.25	0.75	0.453
Mof_C 	C 	0.4167	0.25	0.75	-0.139
Mof_C 	C 	0.8675	0.75	0.75	0.453
Mof_C 	C 	0.9167	0.75	0.75	-0.139
Mof_C 	C 	0.3675	0.75	0.25	0.453
Mof_C 	C 	0.4167	0.75	0.25	-0.139
Mof_C 	C 	0.1325	0.75	0.25	0.453
Mof_C 	C 	0.0833	0.75	0.25	-0.139
Mof_C 	C 	0.6325	0.75	0.75	0.453
Mof_C 	C 	0.5833	0.75	0.75	-0.139
Mof_C 	C 	0.25	0.25	0.8675	0.453
Mof_C 	C 	0.25	0.25	0.9167	-0.139
Mof_C 	C 	0.25	0.75	0.3675	0.453
Mof_C 	C 	0.25	0.75	0.4167	-0.139
Mof_C 	C 	0.25	0.75	0.1325	0.453
Mof_C 	C 	0.25	0.75	0.0833	-0.139
Mof_C 	C 	0.25	0.25	0.6325	0.453
Mof_C 	C 	0.25	0.25	0.5833	-0.139
Mof_C 	C 	0.75	0.25	0.1325	0.453
Mof_C 	C 	0.75	0.25	0.0833	-0.139
Mof_C 	C 	0.75	0.75	0.6325	0.453
Mof_C 	C 	0.75	0.75	0.5833	-0.139
Mof_C 	C 	0.75	0.75	0.8675	0.453
Mof_C 	C 	0.75	0.75	0.9167	-0.139
Mof_C 	C 	0.75	0.25	0.3675	0.453
Mof_C 	C 	0.75	0.25	0.4167	-0.139
_end
