data_functionalizedCrystal
_audit_creation_method	'EQeq! by Chris Wilmer'
_symmetry_space_group_name_H-M	'P1'
_symmetry_Int_Tables_number	1
_symmetry_cell_setting	triclinic
loop_
_symmetry_equiv_pos_as_xyz
  x,y,z
_cell_length_a	18.4039
_cell_length_b	18.4039
_cell_length_c	46.9176
_cell_angle_alpha	90
_cell_angle_beta	90
_cell_angle_gamma	120
loop_
_atom_site_label
_atom_site_type_symbol
_atom_site_fract_x
_atom_site_fract_y
_atom_site_fract_z
_atom_site_charge
Mof_O 	O 	0.5568	0.70425	0.83159	-0.408
Mof_O 	O 	0.6389	0.746	0.87041	-0.398
Mof_C 	C 	0.5749	0.6942	0.8562	0.348
Mof_C 	C 	0.5171	0.6138	0.87079	-0.059
Mof_C 	C 	0.5299	0.5997	0.89859	-0.062
Mof_H 	H 	0.5784	0.6388	0.908	0.082
Mof_C 	C 	0.5697	0.525	0.0111	-0.625
Mof_C 	C 	0.5768	0.521	0.0405	-0.713
Mof_H 	H 	0.6199	0.5137	0.0492	0.248
Mof_C 	C 	0.5116	0.51	0.0582	-0.072
Mof_C 	C 	0.4369	0.4955	0.0464	0.043
Mof_C 	C 	0.4299	0.4994	0.0168	-0.115
Mof_C 	C 	0.3726	0.484	0.0644	0.009
Mof_H 	H 	0.3796	0.4834	0.0847	0.027
Mof_C 	C 	0.2975	0.4679	0.0529	0.058
Mof_C 	C 	0.2852	0.463	0.0237	0.109
Mof_C 	C 	0.3529	0.483	0.006	-0.309
Mof_H 	H 	0.3368	0.468	0.9865	-0.642
Mof_H 	H 	0.5771	0.449	0.0507	-0.12
Mof_C 	C 	0.391	0.51	0.0659	0.011
Mof_H 	H 	0.3967	0.517	0.0862	0.012
Mof_C 	C 	0.327	0.518	0.055	-0.197
Mof_H 	H 	0.2972	0.5398	0.0653	0.069
Mof_C 	C 	0.309	0.513	0.0264	0.119
Mof_H 	H 	0.277	0.5312	0.0156	-0.017
Mof_C 	C 	0.363	0.508	0.0069	-0.276
Mof_H 	H 	0.3526	0.4956	0.9868	0.818
Mof_H 	H 	0.2607	0.4765	0.0652	0.013
Mof_H 	H 	0.2427	0.4721	0.0152	-0.014
Mof_H 	H 	0.6142	0.531	0.9989	0.555
Mof_O 	O 	0.22347	0.03758	0.16492	-0.408
Mof_O 	O 	0.30557	0.07933	0.20374	-0.397
Mof_C 	C 	0.24157	0.02753	0.18953	0.342
Mof_C 	C 	0.18377	0.94713	0.20412	-0.05
Mof_C 	C 	0.19657	0.93303	0.23192	-0.063
Mof_H 	H 	0.24507	0.97213	0.24133	0.085
Mof_C 	C 	0.23637	0.85833	0.34443	-0.617
Mof_C 	C 	0.24347	0.85433	0.37383	-0.685
Mof_H 	H 	0.28657	0.84703	0.38253	0.241
Mof_C 	C 	0.17827	0.84333	0.39153	-0.069
Mof_C 	C 	0.10357	0.82883	0.37973	0.047
Mof_C 	C 	0.09657	0.83273	0.35013	-0.116
Mof_C 	C 	0.03927	0.81733	0.39773	0.013
Mof_H 	H 	0.04627	0.81673	0.41803	0.025
Mof_C 	C 	0.96417	0.80123	0.38623	0.077
Mof_C 	C 	0.95187	0.79633	0.35703	0.111
Mof_C 	C 	0.01957	0.81633	0.33933	-0.324
Mof_H 	H 	0.00347	0.80133	0.31983	-0.68
Mof_H 	H 	0.24377	0.78233	0.38403	-0.118
Mof_C 	C 	0.05767	0.84333	0.39923	0.007
Mof_H 	H 	0.06337	0.85033	0.41953	0.016
Mof_C 	C 	0.99367	0.85133	0.38833	-0.213
Mof_H 	H 	0.96387	0.87313	0.39863	0.076
Mof_C 	C 	0.97567	0.84633	0.35973	0.128
Mof_H 	H 	0.94367	0.86453	0.34893	-0.011
Mof_C 	C 	0.02967	0.84133	0.34023	-0.285
Mof_H 	H 	0.01927	0.82893	0.32013	0.862
Mof_H 	H 	0.92737	0.80983	0.39853	0.008
Mof_H 	H 	0.90937	0.80543	0.34853	-0.012
Mof_H 	H 	0.28087	0.86433	0.33223	0.557
Mof_O 	O 	0.89013	0.37092	0.49826	-0.406
Mof_O 	O 	0.97223	0.41267	0.53708	-0.395
Mof_C 	C 	0.90823	0.36087	0.52287	0.349
Mof_C 	C 	0.85043	0.28047	0.53746	-0.057
Mof_C 	C 	0.86323	0.26637	0.56526	-0.061
Mof_H 	H 	0.91173	0.30547	0.57467	0.083
Mof_C 	C 	0.90303	0.19167	0.67777	-0.591
Mof_C 	C 	0.91013	0.18767	0.70717	-0.692
Mof_H 	H 	0.95323	0.18037	0.71587	0.242
Mof_C 	C 	0.84493	0.17667	0.72487	-0.071
Mof_C 	C 	0.77023	0.16217	0.71307	0.04
Mof_C 	C 	0.76323	0.16607	0.68347	-0.108
Mof_C 	C 	0.70593	0.15067	0.73107	0.011
Mof_H 	H 	0.71293	0.15007	0.75137	0.027
Mof_C 	C 	0.63083	0.13457	0.71957	0.059
Mof_C 	C 	0.61853	0.12967	0.69037	0.109
Mof_C 	C 	0.68623	0.14967	0.67267	-0.304
Mof_H 	H 	0.67013	0.13467	0.65317	-0.633
Mof_H 	H 	0.91043	0.11567	0.71737	-0.105
Mof_C 	C 	0.72433	0.17667	0.73257	0.013
Mof_H 	H 	0.73003	0.18367	0.75287	0.013
Mof_C 	C 	0.66033	0.18467	0.72167	-0.197
Mof_H 	H 	0.63053	0.20647	0.73197	0.069
Mof_C 	C 	0.64233	0.17967	0.69307	0.119
Mof_H 	H 	0.61033	0.19787	0.68227	-0.014
Mof_C 	C 	0.69633	0.17467	0.67357	-0.279
Mof_H 	H 	0.68593	0.16227	0.65347	0.809
Mof_H 	H 	0.59403	0.14317	0.73187	0.013
Mof_H 	H 	0.57603	0.13877	0.68187	-0.014
Mof_H 	H 	0.94753	0.19767	0.66557	0.531
Mof_O 	O 	0.29575	0.85255	0.83159	-0.407
Mof_O 	O 	0.254	0.8929	0.87041	-0.397
Mof_C 	C 	0.3058	0.8807	0.8562	0.349
Mof_C 	C 	0.3862	0.9033	0.87079	-0.057
Mof_C 	C 	0.4003	0.9302	0.89859	-0.06
Mof_H 	H 	0.3612	0.9396	0.908	0.082
Mof_C 	C 	0.475	0.0447	0.0111	-0.656
Mof_C 	C 	0.479	0.0558	0.0405	-0.742
Mof_H 	H 	0.4863	0.1062	0.0492	0.257
Mof_C 	C 	0.49	0.0016	0.0582	-0.07
Mof_C 	C 	0.5045	0.9414	0.0464	0.048
Mof_C 	C 	0.5006	0.9305	0.0168	-0.109
Mof_C 	C 	0.516	0.8886	0.0644	0.009
Mof_H 	H 	0.5166	0.8962	0.0847	0.031
Mof_C 	C 	0.5321	0.8296	0.0529	0.064
Mof_C 	C 	0.537	0.8222	0.0237	0.11
Mof_C 	C 	0.517	0.8699	0.006	-0.299
Mof_H 	H 	0.532	0.8688	0.9865	-0.614
Mof_H 	H 	0.551	0.1281	0.0507	-0.128
Mof_C 	C 	0.49	0.881	0.0659	0.012
Mof_H 	H 	0.483	0.8797	0.0862	0.011
Mof_C 	C 	0.482	0.809	0.055	-0.196
Mof_H 	H 	0.4602	0.7574	0.0653	0.068
Mof_C 	C 	0.487	0.796	0.0264	0.109
Mof_H 	H 	0.4688	0.7458	0.0156	-0.017
Mof_C 	C 	0.492	0.855	0.0069	-0.262
Mof_H 	H 	0.5044	0.857	0.9868	0.785
Mof_H 	H 	0.5235	0.7842	0.0652	0.013
Mof_H 	H 	0.5279	0.7706	0.0152	-0.014
Mof_H 	H 	0.469	0.0832	0.9989	0.565
Mof_O 	O 	0.96242	0.18588	0.16492	-0.408
Mof_O 	O 	0.92067	0.22623	0.20374	-0.397
Mof_C 	C 	0.97247	0.21403	0.18953	0.355
Mof_C 	C 	0.05287	0.23663	0.20412	-0.066
Mof_C 	C 	0.06697	0.26353	0.23192	-0.056
Mof_H 	H 	0.02787	0.27293	0.24133	0.08
Mof_C 	C 	0.14167	0.37803	0.34443	-0.613
Mof_C 	C 	0.14567	0.38913	0.37383	-0.693
Mof_H 	H 	0.15297	0.43953	0.38253	0.242
Mof_C 	C 	0.15667	0.33493	0.39153	-0.071
Mof_C 	C 	0.17117	0.27473	0.37973	0.047
Mof_C 	C 	0.16727	0.26383	0.35013	-0.118
Mof_C 	C 	0.18267	0.22193	0.39773	0.011
Mof_H 	H 	0.18327	0.22953	0.41803	0.027
Mof_C 	C 	0.19877	0.16293	0.38623	0.066
Mof_C 	C 	0.20367	0.15553	0.35703	0.111
Mof_C 	C 	0.18367	0.20323	0.33933	-0.301
Mof_H 	H 	0.19867	0.20213	0.31983	-0.636
Mof_H 	H 	0.21767	0.46143	0.38403	-0.117
Mof_C 	C 	0.15667	0.21433	0.39923	0.009
Mof_H 	H 	0.14967	0.21303	0.41953	0.013
Mof_C 	C 	0.14867	0.14233	0.38833	-0.199
Mof_H 	H 	0.12687	0.09073	0.39863	0.071
Mof_C 	C 	0.15367	0.12933	0.35973	0.11
Mof_H 	H 	0.13547	0.07913	0.34893	-0.007
Mof_C 	C 	0.15867	0.18833	0.34023	-0.28
Mof_H 	H 	0.17107	0.19033	0.32013	0.811
Mof_H 	H 	0.19017	0.11753	0.39853	0.009
Mof_H 	H 	0.19457	0.10393	0.34853	-0.012
Mof_H 	H 	0.13567	0.41653	0.33223	0.553
Mof_O 	O 	0.62908	0.51922	0.49826	-0.407
Mof_O 	O 	0.58733	0.55957	0.53708	-0.397
Mof_C 	C 	0.63913	0.54737	0.52287	0.349
Mof_C 	C 	0.71953	0.56997	0.53746	-0.057
Mof_C 	C 	0.73363	0.59687	0.56526	-0.061
Mof_H 	H 	0.69453	0.60627	0.57467	0.083
Mof_C 	C 	0.80833	0.71137	0.67777	-0.612
Mof_C 	C 	0.81233	0.72247	0.70717	-0.671
Mof_H 	H 	0.81963	0.77287	0.71587	0.238
Mof_C 	C 	0.82333	0.66827	0.72487	-0.068
Mof_C 	C 	0.83783	0.60807	0.71307	0.049
Mof_C 	C 	0.83393	0.59717	0.68347	-0.121
Mof_C 	C 	0.84933	0.55527	0.73107	0.01
Mof_H 	H 	0.84993	0.56287	0.75137	0.029
Mof_C 	C 	0.86543	0.49627	0.71957	0.064
Mof_C 	C 	0.87033	0.48887	0.69037	0.109
Mof_C 	C 	0.85033	0.53657	0.67267	-0.305
Mof_H 	H 	0.86533	0.53547	0.65317	-0.641
Mof_H 	H 	0.88433	0.79477	0.71737	-0.12
Mof_C 	C 	0.82333	0.54767	0.73257	0.01
Mof_H 	H 	0.81633	0.54637	0.75287	0.013
Mof_C 	C 	0.81533	0.47567	0.72167	-0.2
Mof_H 	H 	0.79353	0.42407	0.73197	0.07
Mof_C 	C 	0.82033	0.46267	0.69307	0.118
Mof_H 	H 	0.80213	0.41247	0.68227	-0.014
Mof_C 	C 	0.82533	0.52167	0.67357	-0.28
Mof_H 	H 	0.83773	0.52367	0.65347	0.818
Mof_H 	H 	0.85683	0.45087	0.73187	0.013
Mof_H 	H 	0.86123	0.43727	0.68187	-0.014
Mof_H 	H 	0.80233	0.74987	0.66557	0.555
Mof_O 	O 	0.14745	0.4432	0.83159	-0.408
Mof_O 	O 	0.1071	0.3611	0.87041	-0.398
Mof_C 	C 	0.1193	0.4251	0.8562	0.349
Mof_C 	C 	0.0967	0.4829	0.87079	-0.058
Mof_C 	C 	0.0698	0.4701	0.89859	-0.062
Mof_H 	H 	0.0604	0.4216	0.908	0.082
Mof_C 	C 	0.9553	0.4303	0.0111	-0.564
Mof_C 	C 	0.9442	0.4232	0.0405	-0.639
Mof_H 	H 	0.8938	0.3801	0.0492	0.228
Mof_C 	C 	0.9984	0.4884	0.0582	-0.064
Mof_C 	C 	0.0586	0.5631	0.0464	0.035
Mof_C 	C 	0.0695	0.5701	0.0168	-0.114
Mof_C 	C 	0.1114	0.6274	0.0644	0.014
Mof_H 	H 	0.1038	0.6204	0.0847	0.023
Mof_C 	C 	0.1704	0.7025	0.0529	0.064
Mof_C 	C 	0.1778	0.7148	0.0237	0.106
Mof_C 	C 	0.1301	0.6471	0.006	-0.302
Mof_H 	H 	0.1312	0.6632	0.9865	-0.635
Mof_H 	H 	0.8719	0.4229	0.0507	-0.102
Mof_C 	C 	0.119	0.609	0.0659	0.011
Mof_H 	H 	0.1203	0.6033	0.0862	0.014
Mof_C 	C 	0.191	0.673	0.055	-0.202
Mof_H 	H 	0.2426	0.7028	0.0653	0.071
Mof_C 	C 	0.204	0.691	0.0264	0.117
Mof_H 	H 	0.2542	0.723	0.0156	-0.005
Mof_C 	C 	0.145	0.637	0.0069	-0.28
Mof_H 	H 	0.143	0.6474	0.9868	0.811
Mof_H 	H 	0.2158	0.7393	0.0652	0.012
Mof_H 	H 	0.2294	0.7573	0.0152	-0.013
Mof_H 	H 	0.9168	0.3858	0.9989	0.531
Mof_O 	O 	0.81412	0.77653	0.16492	-0.406
Mof_O 	O 	0.77377	0.69443	0.20374	-0.396
Mof_C 	C 	0.78597	0.75843	0.18953	0.348
Mof_C 	C 	0.76337	0.81623	0.20412	-0.054
Mof_C 	C 	0.73647	0.80343	0.23192	-0.063
Mof_H 	H 	0.72707	0.75493	0.24133	0.084
Mof_C 	C 	0.62197	0.76363	0.34443	-0.604
Mof_C 	C 	0.61087	0.75653	0.37383	-0.688
Mof_H 	H 	0.56047	0.71343	0.38253	0.241
Mof_C 	C 	0.66507	0.82173	0.39153	-0.07
Mof_C 	C 	0.72527	0.89643	0.37973	0.045
Mof_C 	C 	0.73617	0.90343	0.35013	-0.116
Mof_C 	C 	0.77807	0.96073	0.39773	0.007
Mof_H 	H 	0.77047	0.95373	0.41803	0.032
Mof_C 	C 	0.83707	0.03583	0.38623	0.043
Mof_C 	C 	0.84447	0.04813	0.35703	0.106
Mof_C 	C 	0.79677	0.98043	0.33933	-0.287
Mof_H 	H 	0.79787	0.99653	0.31983	-0.602
Mof_H 	H 	0.53857	0.75623	0.38403	-0.114
Mof_C 	C 	0.78567	0.94233	0.39923	0.018
Mof_H 	H 	0.78697	0.93663	0.41953	0.009
Mof_C 	C 	0.85767	0.00633	0.38833	-0.183
Mof_H 	H 	0.90927	0.03613	0.39863	0.061
Mof_C 	C 	0.87067	0.02433	0.35973	0.114
Mof_H 	H 	0.92087	0.05633	0.34893	-0.022
Mof_C 	C 	0.81167	0.97033	0.34023	-0.273
Mof_H 	H 	0.80967	0.98073	0.32013	0.774
Mof_H 	H 	0.88247	0.07263	0.39853	0.021
Mof_H 	H 	0.89607	0.09063	0.34853	-0.016
Mof_H 	H 	0.58347	0.71913	0.33223	0.546
Mof_O 	O 	0.48078	0.10987	0.49826	-0.408
Mof_O 	O 	0.44043	0.02777	0.53708	-0.399
Mof_C 	C 	0.45263	0.09177	0.52287	0.349
Mof_C 	C 	0.43003	0.14957	0.53746	-0.059
Mof_C 	C 	0.40313	0.13677	0.56526	-0.06
Mof_H 	H 	0.39373	0.08827	0.57467	0.082
Mof_C 	C 	0.28863	0.09697	0.67777	-0.623
Mof_C 	C 	0.27753	0.08987	0.70717	-0.69
Mof_H 	H 	0.22713	0.04677	0.71587	0.242
Mof_C 	C 	0.33173	0.15507	0.72487	-0.071
Mof_C 	C 	0.39193	0.22977	0.71307	0.049
Mof_C 	C 	0.40283	0.23677	0.68347	-0.12
Mof_C 	C 	0.44473	0.29407	0.73107	0.01
Mof_H 	H 	0.43713	0.28707	0.75137	0.028
Mof_C 	C 	0.50373	0.36917	0.71957	0.064
Mof_C 	C 	0.51113	0.38147	0.69037	0.11
Mof_C 	C 	0.46343	0.31377	0.67267	-0.307
Mof_H 	H 	0.46453	0.32987	0.65317	-0.648
Mof_H 	H 	0.20523	0.08957	0.71737	-0.122
Mof_C 	C 	0.45233	0.27567	0.73257	0.011
Mof_H 	H 	0.45363	0.26997	0.75287	0.013
Mof_C 	C 	0.52433	0.33967	0.72167	-0.201
Mof_H 	H 	0.57593	0.36947	0.73197	0.071
Mof_C 	C 	0.53733	0.35767	0.69307	0.119
Mof_H 	H 	0.58753	0.38967	0.68227	-0.012
Mof_C 	C 	0.47833	0.30367	0.67357	-0.281
Mof_H 	H 	0.47633	0.31407	0.65347	0.825
Mof_H 	H 	0.54913	0.40597	0.73187	0.012
Mof_H 	H 	0.56273	0.42397	0.68187	-0.013
Mof_H 	H 	0.25013	0.05247	0.66557	0.563
Mof_O 	O 	0.70425	0.5568	0.16841	-0.407
Mof_O 	O 	0.746	0.6389	0.12959	-0.397
Mof_C 	C 	0.6942	0.5749	0.1438	0.349
Mof_C 	C 	0.6138	0.5171	0.12921	-0.058
Mof_C 	C 	0.5997	0.5299	0.10141	-0.06
Mof_H 	H 	0.6388	0.5784	0.092	0.083
Mof_C 	C 	0.525	0.5697	0.9889	-0.585
Mof_C 	C 	0.521	0.5768	0.9595	-0.658
Mof_H 	H 	0.5137	0.6199	0.9508	0.232
Mof_C 	C 	0.51	0.5116	0.9418	-0.066
Mof_C 	C 	0.4955	0.4369	0.9536	0.043
Mof_C 	C 	0.4994	0.4299	0.9832	-0.113
Mof_C 	C 	0.484	0.3726	0.9356	0.01
Mof_H 	H 	0.4834	0.3796	0.9153	0.027
Mof_C 	C 	0.4679	0.2975	0.9471	0.057
Mof_C 	C 	0.463	0.2852	0.9763	0.11
Mof_C 	C 	0.483	0.3529	0.994	-0.308
Mof_H 	H 	0.468	0.3368	0.0135	-0.651
Mof_H 	H 	0.449	0.5771	0.9493	-0.109
Mof_C 	C 	0.51	0.391	0.9341	0.012
Mof_H 	H 	0.517	0.3967	0.9138	0.012
Mof_C 	C 	0.518	0.327	0.945	-0.197
Mof_H 	H 	0.5398	0.2972	0.9347	0.069
Mof_C 	C 	0.513	0.309	0.9736	0.123
Mof_H 	H 	0.5312	0.277	0.9844	-0.018
Mof_C 	C 	0.508	0.363	0.9931	-0.284
Mof_H 	H 	0.4956	0.3526	0.0132	0.829
Mof_H 	H 	0.4765	0.2607	0.9348	0.013
Mof_H 	H 	0.4721	0.2427	0.9848	-0.013
Mof_H 	H 	0.531	0.6142	0.0011	0.539
Mof_O 	O 	0.37092	0.89013	0.50174	-0.406
Mof_O 	O 	0.41267	0.97223	0.46292	-0.395
Mof_C 	C 	0.36087	0.90823	0.47713	0.349
Mof_C 	C 	0.28047	0.85043	0.46254	-0.057
Mof_C 	C 	0.26637	0.86323	0.43474	-0.06
Mof_H 	H 	0.30547	0.91173	0.42533	0.083
Mof_C 	C 	0.19167	0.90303	0.32223	-0.592
Mof_C 	C 	0.18767	0.91013	0.29283	-0.694
Mof_H 	H 	0.18037	0.95323	0.28413	0.242
Mof_C 	C 	0.17667	0.84493	0.27513	-0.071
Mof_C 	C 	0.16217	0.77023	0.28693	0.04
Mof_C 	C 	0.16607	0.76323	0.31653	-0.109
Mof_C 	C 	0.15067	0.70593	0.26893	0.011
Mof_H 	H 	0.15007	0.71293	0.24863	0.027
Mof_C 	C 	0.13457	0.63083	0.28043	0.059
Mof_C 	C 	0.12967	0.61853	0.30963	0.109
Mof_C 	C 	0.14967	0.68623	0.32733	-0.304
Mof_H 	H 	0.13467	0.67013	0.34683	-0.634
Mof_H 	H 	0.11567	0.91043	0.28263	-0.105
Mof_C 	C 	0.17667	0.72433	0.26743	0.013
Mof_H 	H 	0.18367	0.73003	0.24713	0.013
Mof_C 	C 	0.18467	0.66033	0.27833	-0.197
Mof_H 	H 	0.20647	0.63053	0.26803	0.069
Mof_C 	C 	0.17967	0.64233	0.30693	0.119
Mof_H 	H 	0.19787	0.61033	0.31773	-0.014
Mof_C 	C 	0.17467	0.69633	0.32643	-0.279
Mof_H 	H 	0.16227	0.68593	0.34653	0.809
Mof_H 	H 	0.14317	0.59403	0.26813	0.013
Mof_H 	H 	0.13877	0.57603	0.31813	-0.014
Mof_H 	H 	0.19767	0.94753	0.33443	0.532
Mof_O 	O 	0.03758	0.22347	0.83508	-0.408
Mof_O 	O 	0.07933	0.30557	0.79626	-0.398
Mof_C 	C 	0.02753	0.24157	0.81047	0.341
Mof_C 	C 	0.94713	0.18377	0.79588	-0.049
Mof_C 	C 	0.93303	0.19657	0.76808	-0.064
Mof_H 	H 	0.97213	0.24507	0.75867	0.085
Mof_C 	C 	0.85833	0.23637	0.65557	-0.617
Mof_C 	C 	0.85433	0.24347	0.62617	-0.685
Mof_H 	H 	0.84703	0.28657	0.61747	0.241
Mof_C 	C 	0.84333	0.17827	0.60847	-0.069
Mof_C 	C 	0.82883	0.10357	0.62027	0.046
Mof_C 	C 	0.83273	0.09657	0.64987	-0.116
Mof_C 	C 	0.81733	0.03927	0.60227	0.012
Mof_H 	H 	0.81673	0.04627	0.58197	0.025
Mof_C 	C 	0.80123	0.96417	0.61377	0.075
Mof_C 	C 	0.79633	0.95187	0.64297	0.11
Mof_C 	C 	0.81633	0.01957	0.66067	-0.323
Mof_H 	H 	0.80133	0.00347	0.68017	-0.678
Mof_H 	H 	0.78233	0.24377	0.61597	-0.118
Mof_C 	C 	0.84333	0.05767	0.60077	0.008
Mof_H 	H 	0.85033	0.06337	0.58047	0.015
Mof_C 	C 	0.85133	0.99367	0.61167	-0.212
Mof_H 	H 	0.87313	0.96387	0.60137	0.076
Mof_C 	C 	0.84633	0.97567	0.64027	0.127
Mof_H 	H 	0.86453	0.94367	0.65107	-0.012
Mof_C 	C 	0.84133	0.02967	0.65977	-0.284
Mof_H 	H 	0.82893	0.01927	0.67987	0.86
Mof_H 	H 	0.80983	0.92737	0.60147	0.008
Mof_H 	H 	0.80543	0.90937	0.65147	-0.013
Mof_H 	H 	0.86433	0.28087	0.66777	0.557
Mof_O 	O 	0.85255	0.29575	0.16841	-0.407
Mof_O 	O 	0.8929	0.254	0.12959	-0.397
Mof_C 	C 	0.8807	0.3058	0.1438	0.349
Mof_C 	C 	0.9033	0.3862	0.12921	-0.057
Mof_C 	C 	0.9302	0.4003	0.10141	-0.06
Mof_H 	H 	0.9396	0.3612	0.092	0.083
Mof_C 	C 	0.0447	0.475	0.9889	-0.619
Mof_C 	C 	0.0558	0.479	0.9595	-0.691
Mof_H 	H 	0.1062	0.4863	0.9508	0.242
Mof_C 	C 	0.0016	0.49	0.9418	-0.064
Mof_C 	C 	0.9414	0.5045	0.9536	0.046
Mof_C 	C 	0.9305	0.5006	0.9832	-0.107
Mof_C 	C 	0.8886	0.516	0.9356	0.009
Mof_H 	H 	0.8962	0.5166	0.9153	0.031
Mof_C 	C 	0.8296	0.5321	0.9471	0.061
Mof_C 	C 	0.8222	0.537	0.9763	0.11
Mof_C 	C 	0.8699	0.517	0.994	-0.299
Mof_H 	H 	0.8688	0.532	0.0135	-0.622
Mof_H 	H 	0.1281	0.551	0.9493	-0.118
Mof_C 	C 	0.881	0.49	0.9341	0.012
Mof_H 	H 	0.8797	0.483	0.9138	0.011
Mof_C 	C 	0.809	0.482	0.945	-0.195
Mof_H 	H 	0.7574	0.4602	0.9347	0.068
Mof_C 	C 	0.796	0.487	0.9736	0.112
Mof_H 	H 	0.7458	0.4688	0.9844	-0.018
Mof_C 	C 	0.855	0.492	0.9931	-0.268
Mof_H 	H 	0.857	0.5044	0.0132	0.793
Mof_H 	H 	0.7842	0.5235	0.9348	0.013
Mof_H 	H 	0.7706	0.5279	0.9848	-0.014
Mof_H 	H 	0.0832	0.469	0.0011	0.549
Mof_O 	O 	0.51922	0.62908	0.50174	-0.407
Mof_O 	O 	0.55957	0.58733	0.46292	-0.397
Mof_C 	C 	0.54737	0.63913	0.47713	0.349
Mof_C 	C 	0.56997	0.71953	0.46254	-0.057
Mof_C 	C 	0.59687	0.73363	0.43474	-0.061
Mof_H 	H 	0.60627	0.69453	0.42533	0.083
Mof_C 	C 	0.71137	0.80833	0.32223	-0.612
Mof_C 	C 	0.72247	0.81233	0.29283	-0.673
Mof_H 	H 	0.77287	0.81963	0.28413	0.239
Mof_C 	C 	0.66827	0.82333	0.27513	-0.069
Mof_C 	C 	0.60807	0.83783	0.28693	0.049
Mof_C 	C 	0.59717	0.83393	0.31653	-0.12
Mof_C 	C 	0.55527	0.84933	0.26893	0.01
Mof_H 	H 	0.56287	0.84993	0.24863	0.029
Mof_C 	C 	0.49627	0.86543	0.28043	0.063
Mof_C 	C 	0.48887	0.87033	0.30963	0.109
Mof_C 	C 	0.53657	0.85033	0.32733	-0.304
Mof_H 	H 	0.53547	0.86533	0.34683	-0.641
Mof_H 	H 	0.79477	0.88433	0.28263	-0.119
Mof_C 	C 	0.54767	0.82333	0.26743	0.01
Mof_H 	H 	0.54637	0.81633	0.24713	0.012
Mof_C 	C 	0.47567	0.81533	0.27833	-0.2
Mof_H 	H 	0.42407	0.79353	0.26803	0.07
Mof_C 	C 	0.46267	0.82033	0.30693	0.118
Mof_H 	H 	0.41247	0.80213	0.31773	-0.014
Mof_C 	C 	0.52167	0.82533	0.32643	-0.28
Mof_H 	H 	0.52367	0.83773	0.34653	0.817
Mof_H 	H 	0.45087	0.85683	0.26813	0.013
Mof_H 	H 	0.43727	0.86123	0.31813	-0.014
Mof_H 	H 	0.74987	0.80233	0.33443	0.554
Mof_O 	O 	0.18588	0.96242	0.83508	-0.408
Mof_O 	O 	0.22623	0.92067	0.79626	-0.397
Mof_C 	C 	0.21403	0.97247	0.81047	0.354
Mof_C 	C 	0.23663	0.05287	0.79588	-0.065
Mof_C 	C 	0.26353	0.06697	0.76808	-0.057
Mof_H 	H 	0.27293	0.02787	0.75867	0.08
Mof_C 	C 	0.37803	0.14167	0.65557	-0.613
Mof_C 	C 	0.38913	0.14567	0.62617	-0.693
Mof_H 	H 	0.43953	0.15297	0.61747	0.243
Mof_C 	C 	0.33493	0.15667	0.60847	-0.071
Mof_C 	C 	0.27473	0.17117	0.62027	0.047
Mof_C 	C 	0.26383	0.16727	0.64987	-0.118
Mof_C 	C 	0.22193	0.18267	0.60227	0.011
Mof_H 	H 	0.22953	0.18327	0.58197	0.027
Mof_C 	C 	0.16293	0.19877	0.61377	0.066
Mof_C 	C 	0.15553	0.20367	0.64297	0.112
Mof_C 	C 	0.20323	0.18367	0.66067	-0.302
Mof_H 	H 	0.20213	0.19867	0.68017	-0.638
Mof_H 	H 	0.46143	0.21767	0.61597	-0.117
Mof_C 	C 	0.21433	0.15667	0.60077	0.009
Mof_H 	H 	0.21303	0.14967	0.58047	0.013
Mof_C 	C 	0.14233	0.14867	0.61167	-0.2
Mof_H 	H 	0.09073	0.12687	0.60137	0.071
Mof_C 	C 	0.12933	0.15367	0.64027	0.11
Mof_H 	H 	0.07913	0.13547	0.65107	-0.006
Mof_C 	C 	0.18833	0.15867	0.65977	-0.28
Mof_H 	H 	0.19033	0.17107	0.67987	0.812
Mof_H 	H 	0.11753	0.19017	0.60147	0.009
Mof_H 	H 	0.10393	0.19457	0.65147	-0.012
Mof_H 	H 	0.41653	0.13567	0.66777	0.553
Mof_O 	O 	0.4432	0.14745	0.16841	-0.408
Mof_O 	O 	0.3611	0.1071	0.12959	-0.398
Mof_C 	C 	0.4251	0.1193	0.1438	0.349
Mof_C 	C 	0.4829	0.0967	0.12921	-0.058
Mof_C 	C 	0.4701	0.0698	0.10141	-0.062
Mof_H 	H 	0.4216	0.0604	0.092	0.083
Mof_C 	C 	0.4303	0.9553	0.9889	-0.532
Mof_C 	C 	0.4232	0.9442	0.9595	-0.593
Mof_H 	H 	0.3801	0.8938	0.9508	0.214
Mof_C 	C 	0.4884	0.9984	0.9418	-0.06
Mof_C 	C 	0.5631	0.0586	0.9536	0.035
Mof_C 	C 	0.5701	0.0695	0.9832	-0.114
Mof_C 	C 	0.6274	0.1114	0.9356	0.013
Mof_H 	H 	0.6204	0.1038	0.9153	0.023
Mof_C 	C 	0.7025	0.1704	0.9471	0.063
Mof_C 	C 	0.7148	0.1778	0.9763	0.106
Mof_C 	C 	0.6471	0.1301	0.994	-0.302
Mof_H 	H 	0.6632	0.1312	0.0135	-0.645
Mof_H 	H 	0.4229	0.8719	0.9493	-0.094
Mof_C 	C 	0.609	0.119	0.9341	0.011
Mof_H 	H 	0.6033	0.1203	0.9138	0.014
Mof_C 	C 	0.673	0.191	0.945	-0.202
Mof_H 	H 	0.7028	0.2426	0.9347	0.071
Mof_C 	C 	0.691	0.204	0.9736	0.121
Mof_H 	H 	0.723	0.2542	0.9844	-0.005
Mof_C 	C 	0.637	0.145	0.9931	-0.287
Mof_H 	H 	0.6474	0.143	0.0132	0.821
Mof_H 	H 	0.7393	0.2158	0.9348	0.012
Mof_H 	H 	0.7573	0.2294	0.9848	-0.012
Mof_H 	H 	0.3858	0.9168	0.0011	0.518
Mof_O 	O 	0.10987	0.48078	0.50174	-0.409
Mof_O 	O 	0.02777	0.44043	0.46292	-0.399
Mof_C 	C 	0.09177	0.45263	0.47713	0.349
Mof_C 	C 	0.14957	0.43003	0.46254	-0.059
Mof_C 	C 	0.13677	0.40313	0.43474	-0.06
Mof_H 	H 	0.08827	0.39373	0.42533	0.082
Mof_C 	C 	0.09697	0.28863	0.32223	-0.624
Mof_C 	C 	0.08987	0.27753	0.29283	-0.691
Mof_H 	H 	0.04677	0.22713	0.28413	0.242
Mof_C 	C 	0.15507	0.33173	0.27513	-0.071
Mof_C 	C 	0.22977	0.39193	0.28693	0.05
Mof_C 	C 	0.23677	0.40283	0.31653	-0.121
Mof_C 	C 	0.29407	0.44473	0.26893	0.01
Mof_H 	H 	0.28707	0.43713	0.24863	0.028
Mof_C 	C 	0.36917	0.50373	0.28043	0.064
Mof_C 	C 	0.38147	0.51113	0.30963	0.11
Mof_C 	C 	0.31377	0.46343	0.32733	-0.307
Mof_H 	H 	0.32987	0.46453	0.34683	-0.648
Mof_H 	H 	0.08957	0.20523	0.28263	-0.123
Mof_C 	C 	0.27567	0.45233	0.26743	0.01
Mof_H 	H 	0.26997	0.45363	0.24713	0.013
Mof_C 	C 	0.33967	0.52433	0.27833	-0.201
Mof_H 	H 	0.36947	0.57593	0.26803	0.071
Mof_C 	C 	0.35767	0.53733	0.30693	0.119
Mof_H 	H 	0.38967	0.58753	0.31773	-0.012
Mof_C 	C 	0.30367	0.47833	0.32643	-0.281
Mof_H 	H 	0.31407	0.47633	0.34653	0.825
Mof_H 	H 	0.40597	0.54913	0.26813	0.012
Mof_H 	H 	0.42397	0.56273	0.31813	-0.013
Mof_H 	H 	0.05247	0.25013	0.33443	0.565
Mof_O 	O 	0.77653	0.81412	0.83508	-0.406
Mof_O 	O 	0.69443	0.77377	0.79626	-0.396
Mof_C 	C 	0.75843	0.78597	0.81047	0.348
Mof_C 	C 	0.81623	0.76337	0.79588	-0.054
Mof_C 	C 	0.80343	0.73647	0.76808	-0.063
Mof_H 	H 	0.75493	0.72707	0.75867	0.084
Mof_C 	C 	0.76363	0.62197	0.65557	-0.604
Mof_C 	C 	0.75653	0.61087	0.62617	-0.688
Mof_H 	H 	0.71343	0.56047	0.61747	0.241
Mof_C 	C 	0.82173	0.66507	0.60847	-0.07
Mof_C 	C 	0.89643	0.72527	0.62027	0.045
Mof_C 	C 	0.90343	0.73617	0.64987	-0.116
Mof_C 	C 	0.96073	0.77807	0.60227	0.006
Mof_H 	H 	0.95373	0.77047	0.58197	0.032
Mof_C 	C 	0.03583	0.83707	0.61377	0.041
Mof_C 	C 	0.04813	0.84447	0.64297	0.106
Mof_C 	C 	0.98043	0.79677	0.66067	-0.285
Mof_H 	H 	0.99653	0.79787	0.68017	-0.6
Mof_H 	H 	0.75623	0.53857	0.61597	-0.114
Mof_C 	C 	0.94233	0.78567	0.60077	0.019
Mof_H 	H 	0.93663	0.78697	0.58047	0.009
Mof_C 	C 	0.00633	0.85767	0.61167	-0.182
Mof_H 	H 	0.03613	0.90927	0.60137	0.061
Mof_C 	C 	0.02433	0.87067	0.64027	0.113
Mof_H 	H 	0.05633	0.92087	0.65107	-0.022
Mof_C 	C 	0.97033	0.81167	0.65977	-0.272
Mof_H 	H 	0.98073	0.80967	0.67987	0.77
Mof_H 	H 	0.07263	0.88247	0.60147	0.021
Mof_H 	H 	0.09063	0.89607	0.65147	-0.016
Mof_H 	H 	0.71913	0.58347	0.66777	0.546
Mof_O 	O 	0.4432	0.29575	0.16841	-0.407
Mof_O 	O 	0.3611	0.254	0.12959	-0.397
Mof_C 	C 	0.4251	0.3058	0.1438	0.349
Mof_C 	C 	0.4829	0.3862	0.12921	-0.058
Mof_C 	C 	0.4701	0.4003	0.10141	-0.06
Mof_H 	H 	0.4216	0.3612	0.092	0.083
Mof_C 	C 	0.4303	0.475	0.9889	-0.589
Mof_C 	C 	0.4232	0.479	0.9595	-0.655
Mof_H 	H 	0.3801	0.4863	0.9508	0.232
Mof_C 	C 	0.4884	0.49	0.9418	-0.067
Mof_C 	C 	0.5631	0.5045	0.9536	0.046
Mof_C 	C 	0.5701	0.5006	0.9832	-0.117
Mof_C 	C 	0.6274	0.516	0.9356	0.011
Mof_H 	H 	0.6204	0.5166	0.9153	0.027
Mof_C 	C 	0.7025	0.5321	0.9471	0.066
Mof_C 	C 	0.7148	0.537	0.9763	0.108
Mof_C 	C 	0.6471	0.517	0.994	-0.301
Mof_H 	H 	0.6632	0.532	0.0135	-0.638
Mof_H 	H 	0.4229	0.551	0.9493	-0.111
Mof_C 	C 	0.609	0.49	0.9341	0.01
Mof_H 	H 	0.6033	0.483	0.9138	0.013
Mof_C 	C 	0.673	0.482	0.945	-0.201
Mof_H 	H 	0.7028	0.4602	0.9347	0.071
Mof_C 	C 	0.691	0.487	0.9736	0.116
Mof_H 	H 	0.723	0.4688	0.9844	-0.007
Mof_C 	C 	0.637	0.492	0.9931	-0.282
Mof_H 	H 	0.6474	0.5044	0.0132	0.813
Mof_H 	H 	0.7393	0.5235	0.9348	0.011
Mof_H 	H 	0.7573	0.5279	0.9848	-0.012
Mof_H 	H 	0.3858	0.469	0.0011	0.544
Mof_O 	O 	0.10987	0.62908	0.50174	-0.408
Mof_O 	O 	0.02777	0.58733	0.46292	-0.399
Mof_C 	C 	0.09177	0.63913	0.47713	0.349
Mof_C 	C 	0.14957	0.71953	0.46254	-0.058
Mof_C 	C 	0.13677	0.73363	0.43474	-0.06
Mof_H 	H 	0.08827	0.69453	0.42533	0.082
Mof_C 	C 	0.09697	0.80833	0.32223	-0.625
Mof_C 	C 	0.08987	0.81233	0.29283	-0.676
Mof_H 	H 	0.04677	0.81963	0.28413	0.239
Mof_C 	C 	0.15507	0.82333	0.27513	-0.069
Mof_C 	C 	0.22977	0.83783	0.28693	0.052
Mof_C 	C 	0.23677	0.83393	0.31653	-0.124
Mof_C 	C 	0.29407	0.84933	0.26893	0.01
Mof_H 	H 	0.28707	0.84993	0.24863	0.029
Mof_C 	C 	0.36917	0.86543	0.28043	0.065
Mof_C 	C 	0.38147	0.87033	0.30963	0.11
Mof_C 	C 	0.31377	0.85033	0.32733	-0.306
Mof_H 	H 	0.32987	0.86533	0.34683	-0.648
Mof_H 	H 	0.08957	0.88433	0.28263	-0.126
Mof_C 	C 	0.27567	0.82333	0.26743	0.01
Mof_H 	H 	0.26997	0.81633	0.24713	0.013
Mof_C 	C 	0.33967	0.81533	0.27833	-0.201
Mof_H 	H 	0.36947	0.79353	0.26803	0.071
Mof_C 	C 	0.35767	0.82033	0.30693	0.119
Mof_H 	H 	0.38967	0.80213	0.31773	-0.013
Mof_C 	C 	0.30367	0.82533	0.32643	-0.281
Mof_H 	H 	0.31407	0.83773	0.34653	0.825
Mof_H 	H 	0.40597	0.85683	0.26813	0.012
Mof_H 	H 	0.42397	0.86123	0.31813	-0.013
Mof_H 	H 	0.05247	0.80233	0.33443	0.568
Mof_O 	O 	0.77653	0.96242	0.83508	-0.406
Mof_O 	O 	0.69443	0.92067	0.79626	-0.396
Mof_C 	C 	0.75843	0.97247	0.81047	0.353
Mof_C 	C 	0.81623	0.05287	0.79588	-0.061
Mof_C 	C 	0.80343	0.06697	0.76808	-0.06
Mof_H 	H 	0.75493	0.02787	0.75867	0.082
Mof_C 	C 	0.76363	0.14167	0.65557	-0.604
Mof_C 	C 	0.75653	0.14567	0.62617	-0.692
Mof_H 	H 	0.71343	0.15297	0.61747	0.242
Mof_C 	C 	0.82173	0.15667	0.60847	-0.071
Mof_C 	C 	0.89643	0.17117	0.62027	0.046
Mof_C 	C 	0.90343	0.16727	0.64987	-0.117
Mof_C 	C 	0.96073	0.18267	0.60227	0.007
Mof_H 	H 	0.95373	0.18327	0.58197	0.032
Mof_C 	C 	0.03583	0.19877	0.61377	0.043
Mof_C 	C 	0.04813	0.20367	0.64297	0.107
Mof_C 	C 	0.98043	0.18367	0.66067	-0.282
Mof_H 	H 	0.99653	0.19867	0.68017	-0.594
Mof_H 	H 	0.75623	0.21767	0.61597	-0.114
Mof_C 	C 	0.94233	0.15667	0.60077	0.017
Mof_H 	H 	0.93663	0.14967	0.58047	0.009
Mof_C 	C 	0.00633	0.14867	0.61167	-0.182
Mof_H 	H 	0.03613	0.12687	0.60137	0.061
Mof_C 	C 	0.02433	0.15367	0.64027	0.107
Mof_H 	H 	0.05633	0.13547	0.65107	-0.018
Mof_C 	C 	0.97033	0.15867	0.65977	-0.272
Mof_H 	H 	0.98073	0.17107	0.67987	0.763
Mof_H 	H 	0.07263	0.19017	0.60147	0.019
Mof_H 	H 	0.09063	0.19457	0.65147	-0.015
Mof_H 	H 	0.71913	0.13567	0.66777	0.546
Mof_O 	O 	0.70425	0.14745	0.16841	-0.408
Mof_O 	O 	0.746	0.1071	0.12959	-0.398
Mof_C 	C 	0.6942	0.1193	0.1438	0.349
Mof_C 	C 	0.6138	0.0967	0.12921	-0.058
Mof_C 	C 	0.5997	0.0698	0.10141	-0.062
Mof_H 	H 	0.6388	0.0604	0.092	0.083
Mof_C 	C 	0.525	0.9553	0.9889	-0.53
Mof_C 	C 	0.521	0.9442	0.9595	-0.594
Mof_H 	H 	0.5137	0.8938	0.9508	0.214
Mof_C 	C 	0.51	0.9984	0.9418	-0.06
Mof_C 	C 	0.4955	0.0586	0.9536	0.033
Mof_C 	C 	0.4994	0.0695	0.9832	-0.111
Mof_C 	C 	0.484	0.1114	0.9356	0.013
Mof_H 	H 	0.4834	0.1038	0.9153	0.023
Mof_C 	C 	0.4679	0.1704	0.9471	0.057
Mof_C 	C 	0.463	0.1778	0.9763	0.106
Mof_C 	C 	0.483	0.1301	0.994	-0.306
Mof_H 	H 	0.468	0.1312	0.0135	-0.651
Mof_H 	H 	0.449	0.8719	0.9493	-0.093
Mof_C 	C 	0.51	0.119	0.9341	0.012
Mof_H 	H 	0.517	0.1203	0.9138	0.014
Mof_C 	C 	0.518	0.191	0.945	-0.199
Mof_H 	H 	0.5398	0.2426	0.9347	0.07
Mof_C 	C 	0.513	0.204	0.9736	0.126
Mof_H 	H 	0.5312	0.2542	0.9844	-0.012
Mof_C 	C 	0.508	0.145	0.9931	-0.289
Mof_H 	H 	0.4956	0.143	0.0132	0.829
Mof_H 	H 	0.4765	0.2158	0.9348	0.014
Mof_H 	H 	0.4721	0.2294	0.9848	-0.013
Mof_H 	H 	0.531	0.9168	0.0011	0.516
Mof_O 	O 	0.37092	0.48078	0.50174	-0.407
Mof_O 	O 	0.41267	0.44043	0.46292	-0.397
Mof_C 	C 	0.36087	0.45263	0.47713	0.349
Mof_C 	C 	0.28047	0.43003	0.46254	-0.058
Mof_C 	C 	0.26637	0.40313	0.43474	-0.06
Mof_H 	H 	0.30547	0.39373	0.42533	0.083
Mof_C 	C 	0.19167	0.28863	0.32223	-0.611
Mof_C 	C 	0.18767	0.27753	0.29283	-0.698
Mof_H 	H 	0.18037	0.22713	0.28413	0.243
Mof_C 	C 	0.17667	0.33173	0.27513	-0.072
Mof_C 	C 	0.16217	0.39193	0.28693	0.045
Mof_C 	C 	0.16607	0.40283	0.31653	-0.114
Mof_C 	C 	0.15067	0.44473	0.26893	0.011
Mof_H 	H 	0.15007	0.43713	0.24863	0.027
Mof_C 	C 	0.13457	0.50373	0.28043	0.062
Mof_C 	C 	0.12967	0.51113	0.30963	0.109
Mof_C 	C 	0.14967	0.46343	0.32733	-0.306
Mof_H 	H 	0.13467	0.46453	0.34683	-0.643
Mof_H 	H 	0.11567	0.20523	0.28263	-0.114
Mof_C 	C 	0.17667	0.45233	0.26743	0.012
Mof_H 	H 	0.18367	0.45363	0.24713	0.013
Mof_C 	C 	0.18467	0.52433	0.27833	-0.199
Mof_H 	H 	0.20647	0.57593	0.26803	0.07
Mof_C 	C 	0.17967	0.53733	0.30693	0.119
Mof_H 	H 	0.19787	0.58753	0.31773	-0.013
Mof_C 	C 	0.17467	0.47833	0.32643	-0.281
Mof_H 	H 	0.16227	0.47633	0.34653	0.819
Mof_H 	H 	0.14317	0.54913	0.26813	0.012
Mof_H 	H 	0.13877	0.56273	0.31813	-0.013
Mof_H 	H 	0.19767	0.25013	0.33443	0.55
Mof_O 	O 	0.03758	0.81412	0.83508	-0.407
Mof_O 	O 	0.07933	0.77377	0.79626	-0.397
Mof_C 	C 	0.02753	0.78597	0.81047	0.34
Mof_C 	C 	0.94713	0.76337	0.79588	-0.047
Mof_C 	C 	0.93303	0.73647	0.76808	-0.066
Mof_H 	H 	0.97213	0.72707	0.75867	0.086
Mof_C 	C 	0.85833	0.62197	0.65557	-0.612
Mof_C 	C 	0.85433	0.61087	0.62617	-0.684
Mof_H 	H 	0.84703	0.56047	0.61747	0.241
Mof_C 	C 	0.84333	0.66507	0.60847	-0.069
Mof_C 	C 	0.82883	0.72527	0.62027	0.045
Mof_C 	C 	0.83273	0.73617	0.64987	-0.115
Mof_C 	C 	0.81733	0.77807	0.60227	0.01
Mof_H 	H 	0.81673	0.77047	0.58197	0.028
Mof_C 	C 	0.80123	0.83707	0.61377	0.061
Mof_C 	C 	0.79633	0.84447	0.64297	0.108
Mof_C 	C 	0.81633	0.79677	0.66067	-0.311
Mof_H 	H 	0.80133	0.79787	0.68017	-0.652
Mof_H 	H 	0.78233	0.53857	0.61597	-0.117
Mof_C 	C 	0.84333	0.78567	0.60077	0.013
Mof_H 	H 	0.85033	0.78697	0.58047	0.013
Mof_C 	C 	0.85133	0.85767	0.61167	-0.201
Mof_H 	H 	0.87313	0.90927	0.60137	0.07
Mof_C 	C 	0.84633	0.87067	0.64027	0.126
Mof_H 	H 	0.86453	0.92087	0.65107	-0.018
Mof_C 	C 	0.84133	0.81167	0.65977	-0.28
Mof_H 	H 	0.82893	0.80967	0.67987	0.831
Mof_H 	H 	0.80983	0.88247	0.60147	0.014
Mof_H 	H 	0.80543	0.89607	0.65147	-0.015
Mof_H 	H 	0.86433	0.58347	0.66777	0.553
Mof_O 	O 	0.85255	0.5568	0.16841	-0.407
Mof_O 	O 	0.8929	0.6389	0.12959	-0.396
Mof_C 	C 	0.8807	0.5749	0.1438	0.349
Mof_C 	C 	0.9033	0.5171	0.12921	-0.057
Mof_C 	C 	0.9302	0.5299	0.10141	-0.06
Mof_H 	H 	0.9396	0.5784	0.092	0.083
Mof_C 	C 	0.0447	0.5697	0.9889	-0.617
Mof_C 	C 	0.0558	0.5768	0.9595	-0.692
Mof_H 	H 	0.1062	0.6199	0.9508	0.242
Mof_C 	C 	0.0016	0.5116	0.9418	-0.064
Mof_C 	C 	0.9414	0.4369	0.9536	0.045
Mof_C 	C 	0.9305	0.4299	0.9832	-0.105
Mof_C 	C 	0.8886	0.3726	0.9356	0.009
Mof_H 	H 	0.8962	0.3796	0.9153	0.031
Mof_C 	C 	0.8296	0.2975	0.9471	0.058
Mof_C 	C 	0.8222	0.2852	0.9763	0.11
Mof_C 	C 	0.8699	0.3529	0.994	-0.302
Mof_H 	H 	0.8688	0.3368	0.0135	-0.629
Mof_H 	H 	0.1281	0.5771	0.9493	-0.117
Mof_C 	C 	0.881	0.391	0.9341	0.012
Mof_H 	H 	0.8797	0.3967	0.9138	0.011
Mof_C 	C 	0.809	0.327	0.945	-0.193
Mof_H 	H 	0.7574	0.2972	0.9347	0.067
Mof_C 	C 	0.796	0.309	0.9736	0.115
Mof_H 	H 	0.7458	0.277	0.9844	-0.022
Mof_C 	C 	0.855	0.363	0.9931	-0.269
Mof_H 	H 	0.857	0.3526	0.0132	0.801
Mof_H 	H 	0.7842	0.2607	0.9348	0.014
Mof_H 	H 	0.7706	0.2427	0.9848	-0.014
Mof_H 	H 	0.0832	0.6142	0.0011	0.547
Mof_O 	O 	0.51922	0.89013	0.50174	-0.406
Mof_O 	O 	0.55957	0.97223	0.46292	-0.395
Mof_C 	C 	0.54737	0.90823	0.47713	0.349
Mof_C 	C 	0.56997	0.85043	0.46254	-0.057
Mof_C 	C 	0.59687	0.86323	0.43474	-0.061
Mof_H 	H 	0.60627	0.91173	0.42533	0.084
Mof_C 	C 	0.71137	0.90303	0.32223	-0.592
Mof_C 	C 	0.72247	0.91013	0.29283	-0.683
Mof_H 	H 	0.77287	0.95323	0.28413	0.24
Mof_C 	C 	0.66827	0.84493	0.27513	-0.07
Mof_C 	C 	0.60807	0.77023	0.28693	0.042
Mof_C 	C 	0.59717	0.76323	0.31653	-0.111
Mof_C 	C 	0.55527	0.70593	0.26893	0.011
Mof_H 	H 	0.56287	0.71293	0.24863	0.027
Mof_C 	C 	0.49627	0.63083	0.28043	0.06
Mof_C 	C 	0.48887	0.61853	0.30963	0.109
Mof_C 	C 	0.53657	0.68623	0.32733	-0.303
Mof_H 	H 	0.53547	0.67013	0.34683	-0.633
Mof_H 	H 	0.79477	0.91043	0.28263	-0.108
Mof_C 	C 	0.54767	0.72433	0.26743	0.012
Mof_H 	H 	0.54637	0.73003	0.24713	0.012
Mof_C 	C 	0.47567	0.66033	0.27833	-0.197
Mof_H 	H 	0.42407	0.63053	0.26803	0.069
Mof_C 	C 	0.46267	0.64233	0.30693	0.119
Mof_H 	H 	0.41247	0.61033	0.31773	-0.015
Mof_C 	C 	0.52167	0.69633	0.32643	-0.278
Mof_H 	H 	0.52367	0.68593	0.34653	0.808
Mof_H 	H 	0.45087	0.59403	0.26813	0.013
Mof_H 	H 	0.43727	0.57603	0.31813	-0.014
Mof_H 	H 	0.74987	0.94753	0.33443	0.534
Mof_O 	O 	0.18588	0.22347	0.83508	-0.409
Mof_O 	O 	0.22623	0.30557	0.79626	-0.398
Mof_C 	C 	0.21403	0.24157	0.81047	0.35
Mof_C 	C 	0.23663	0.18377	0.79588	-0.061
Mof_C 	C 	0.26353	0.19657	0.76808	-0.058
Mof_H 	H 	0.27293	0.24507	0.75867	0.082
Mof_C 	C 	0.37803	0.23637	0.65557	-0.618
Mof_C 	C 	0.38913	0.24347	0.62617	-0.69
Mof_H 	H 	0.43953	0.28657	0.61747	0.242
Mof_C 	C 	0.33493	0.17827	0.60847	-0.071
Mof_C 	C 	0.27473	0.10357	0.62027	0.048
Mof_C 	C 	0.26383	0.09657	0.64987	-0.117
Mof_C 	C 	0.22193	0.03927	0.60227	0.013
Mof_H 	H 	0.22953	0.04627	0.58197	0.025
Mof_C 	C 	0.16293	0.96417	0.61377	0.078
Mof_C 	C 	0.15553	0.95187	0.64297	0.113
Mof_C 	C 	0.20323	0.01957	0.66067	-0.316
Mof_H 	H 	0.20213	0.00347	0.68017	-0.667
Mof_H 	H 	0.46143	0.24377	0.61597	-0.118
Mof_C 	C 	0.21433	0.05767	0.60077	0.006
Mof_H 	H 	0.21303	0.06337	0.58047	0.015
Mof_C 	C 	0.14233	0.99367	0.61167	-0.21
Mof_H 	H 	0.09073	0.96387	0.60137	0.077
Mof_C 	C 	0.12933	0.97567	0.64027	0.117
Mof_H 	H 	0.07913	0.94367	0.65107	-0.004
Mof_C 	C 	0.18833	0.02967	0.65977	-0.284
Mof_H 	H 	0.19033	0.01927	0.67987	0.846
Mof_H 	H 	0.11753	0.92737	0.60147	0.005
Mof_H 	H 	0.10393	0.90937	0.65147	-0.011
Mof_H 	H 	0.41653	0.28087	0.66777	0.557
Mof_O 	O 	0.29575	0.4432	0.83159	-0.407
Mof_O 	O 	0.254	0.3611	0.87041	-0.397
Mof_C 	C 	0.3058	0.4251	0.8562	0.349
Mof_C 	C 	0.3862	0.4829	0.87079	-0.058
Mof_C 	C 	0.4003	0.4701	0.89859	-0.06
Mof_H 	H 	0.3612	0.4216	0.908	0.082
Mof_C 	C 	0.475	0.4303	0.0111	-0.629
Mof_C 	C 	0.479	0.4232	0.0405	-0.709
Mof_H 	H 	0.4863	0.3801	0.0492	0.248
Mof_C 	C 	0.49	0.4884	0.0582	-0.072
Mof_C 	C 	0.5045	0.5631	0.0464	0.047
Mof_C 	C 	0.5006	0.5701	0.0168	-0.118
Mof_C 	C 	0.516	0.6274	0.0644	0.011
Mof_H 	H 	0.5166	0.6204	0.0847	0.028
Mof_C 	C 	0.5321	0.7025	0.0529	0.068
Mof_C 	C 	0.537	0.7148	0.0237	0.108
Mof_C 	C 	0.517	0.6471	0.006	-0.301
Mof_H 	H 	0.532	0.6632	0.9865	-0.629
Mof_H 	H 	0.551	0.4229	0.0507	-0.121
Mof_C 	C 	0.49	0.609	0.0659	0.01
Mof_H 	H 	0.483	0.6033	0.0862	0.013
Mof_C 	C 	0.482	0.673	0.055	-0.202
Mof_H 	H 	0.4602	0.7028	0.0653	0.071
Mof_C 	C 	0.487	0.691	0.0264	0.111
Mof_H 	H 	0.4688	0.723	0.0156	-0.007
Mof_C 	C 	0.492	0.637	0.0069	-0.274
Mof_H 	H 	0.5044	0.6474	0.9868	0.803
Mof_H 	H 	0.5235	0.7393	0.0652	0.011
Mof_H 	H 	0.5279	0.7573	0.0152	-0.012
Mof_H 	H 	0.469	0.3858	0.9989	0.56
Mof_O 	O 	0.96242	0.77653	0.16492	-0.406
Mof_O 	O 	0.92067	0.69443	0.20374	-0.396
Mof_C 	C 	0.97247	0.75843	0.18953	0.354
Mof_C 	C 	0.05287	0.81623	0.20412	-0.062
Mof_C 	C 	0.06697	0.80343	0.23192	-0.059
Mof_H 	H 	0.02787	0.75493	0.24133	0.081
Mof_C 	C 	0.14167	0.76363	0.34443	-0.605
Mof_C 	C 	0.14567	0.75653	0.37383	-0.692
Mof_H 	H 	0.15297	0.71343	0.38253	0.242
Mof_C 	C 	0.15667	0.82173	0.39153	-0.071
Mof_C 	C 	0.17117	0.89643	0.37973	0.046
Mof_C 	C 	0.16727	0.90343	0.35013	-0.117
Mof_C 	C 	0.18267	0.96073	0.39773	0.007
Mof_H 	H 	0.18327	0.95373	0.41803	0.031
Mof_C 	C 	0.19877	0.03583	0.38623	0.045
Mof_C 	C 	0.20367	0.04813	0.35703	0.107
Mof_C 	C 	0.18367	0.98043	0.33933	-0.283
Mof_H 	H 	0.19867	0.99653	0.31983	-0.596
Mof_H 	H 	0.21767	0.75623	0.38403	-0.114
Mof_C 	C 	0.15667	0.94233	0.39923	0.017
Mof_H 	H 	0.14967	0.93663	0.41953	0.009
Mof_C 	C 	0.14867	0.00633	0.38833	-0.183
Mof_H 	H 	0.12687	0.03613	0.39863	0.062
Mof_C 	C 	0.15367	0.02433	0.35973	0.108
Mof_H 	H 	0.13547	0.05633	0.34893	-0.017
Mof_C 	C 	0.15867	0.97033	0.34023	-0.273
Mof_H 	H 	0.17107	0.98073	0.32013	0.766
Mof_H 	H 	0.19017	0.07263	0.39853	0.018
Mof_H 	H 	0.19457	0.09063	0.34853	-0.015
Mof_H 	H 	0.13567	0.71913	0.33223	0.546
Mof_O 	O 	0.62908	0.10987	0.49826	-0.408
Mof_O 	O 	0.58733	0.02777	0.53708	-0.399
Mof_C 	C 	0.63913	0.09177	0.52287	0.349
Mof_C 	C 	0.71953	0.14957	0.53746	-0.058
Mof_C 	C 	0.73363	0.13677	0.56526	-0.06
Mof_H 	H 	0.69453	0.08827	0.57467	0.082
Mof_C 	C 	0.80833	0.09697	0.67777	-0.624
Mof_C 	C 	0.81233	0.08987	0.70717	-0.674
Mof_H 	H 	0.81963	0.04677	0.71587	0.239
Mof_C 	C 	0.82333	0.15507	0.72487	-0.069
Mof_C 	C 	0.83783	0.22977	0.71307	0.052
Mof_C 	C 	0.83393	0.23677	0.68347	-0.124
Mof_C 	C 	0.84933	0.29407	0.73107	0.01
Mof_H 	H 	0.84993	0.28707	0.75137	0.029
Mof_C 	C 	0.86543	0.36917	0.71957	0.065
Mof_C 	C 	0.87033	0.38147	0.69037	0.11
Mof_C 	C 	0.85033	0.31377	0.67267	-0.306
Mof_H 	H 	0.86533	0.32987	0.65317	-0.647
Mof_H 	H 	0.88433	0.08957	0.71737	-0.125
Mof_C 	C 	0.82333	0.27567	0.73257	0.01
Mof_H 	H 	0.81633	0.26997	0.75287	0.013
Mof_C 	C 	0.81533	0.33967	0.72167	-0.201
Mof_H 	H 	0.79353	0.36947	0.73197	0.07
Mof_C 	C 	0.82033	0.35767	0.69307	0.118
Mof_H 	H 	0.80213	0.38967	0.68227	-0.013
Mof_C 	C 	0.82533	0.30367	0.67357	-0.281
Mof_H 	H 	0.83773	0.31407	0.65347	0.824
Mof_H 	H 	0.85683	0.40597	0.73187	0.012
Mof_H 	H 	0.86123	0.42397	0.68187	-0.013
Mof_H 	H 	0.80233	0.05247	0.66557	0.567
Mof_O 	O 	0.14745	0.70425	0.83159	-0.408
Mof_O 	O 	0.1071	0.746	0.87041	-0.398
Mof_C 	C 	0.1193	0.6942	0.8562	0.349
Mof_C 	C 	0.0967	0.6138	0.87079	-0.058
Mof_C 	C 	0.0698	0.5997	0.89859	-0.062
Mof_H 	H 	0.0604	0.6388	0.908	0.082
Mof_C 	C 	0.9553	0.525	0.0111	-0.562
Mof_C 	C 	0.9442	0.521	0.0405	-0.64
Mof_H 	H 	0.8938	0.5137	0.0492	0.228
Mof_C 	C 	0.9984	0.51	0.0582	-0.064
Mof_C 	C 	0.0586	0.4955	0.0464	0.034
Mof_C 	C 	0.0695	0.4994	0.0168	-0.112
Mof_C 	C 	0.1114	0.484	0.0644	0.013
Mof_H 	H 	0.1038	0.4834	0.0847	0.023
Mof_C 	C 	0.1704	0.4679	0.0529	0.059
Mof_C 	C 	0.1778	0.463	0.0237	0.106
Mof_C 	C 	0.1301	0.483	0.006	-0.306
Mof_H 	H 	0.1312	0.468	0.9865	-0.641
Mof_H 	H 	0.8719	0.449	0.0507	-0.101
Mof_C 	C 	0.119	0.51	0.0659	0.013
Mof_H 	H 	0.1203	0.517	0.0862	0.014
Mof_C 	C 	0.191	0.518	0.055	-0.199
Mof_H 	H 	0.2426	0.5398	0.0653	0.07
Mof_C 	C 	0.204	0.513	0.0264	0.122
Mof_H 	H 	0.2542	0.5312	0.0156	-0.011
Mof_C 	C 	0.145	0.508	0.0069	-0.281
Mof_H 	H 	0.143	0.4956	0.9868	0.818
Mof_H 	H 	0.2158	0.4765	0.0652	0.013
Mof_H 	H 	0.2294	0.4721	0.0152	-0.014
Mof_H 	H 	0.9168	0.531	0.9989	0.528
Mof_O 	O 	0.81412	0.03758	0.16492	-0.407
Mof_O 	O 	0.77377	0.07933	0.20374	-0.397
Mof_C 	C 	0.78597	0.02753	0.18953	0.341
Mof_C 	C 	0.76337	0.94713	0.20412	-0.047
Mof_C 	C 	0.73647	0.93303	0.23192	-0.066
Mof_H 	H 	0.72707	0.97213	0.24133	0.086
Mof_C 	C 	0.62197	0.85833	0.34443	-0.611
Mof_C 	C 	0.61087	0.85433	0.37383	-0.684
Mof_H 	H 	0.56047	0.84703	0.38253	0.241
Mof_C 	C 	0.66507	0.84333	0.39153	-0.069
Mof_C 	C 	0.72527	0.82883	0.37973	0.045
Mof_C 	C 	0.73617	0.83273	0.35013	-0.115
Mof_C 	C 	0.77807	0.81733	0.39773	0.01
Mof_H 	H 	0.77047	0.81673	0.41803	0.028
Mof_C 	C 	0.83707	0.80123	0.38623	0.061
Mof_C 	C 	0.84447	0.79633	0.35703	0.108
Mof_C 	C 	0.79677	0.81633	0.33933	-0.311
Mof_H 	H 	0.79787	0.80133	0.31983	-0.65
Mof_H 	H 	0.53857	0.78233	0.38403	-0.117
Mof_C 	C 	0.78567	0.84333	0.39923	0.013
Mof_H 	H 	0.78697	0.85033	0.41953	0.013
Mof_C 	C 	0.85767	0.85133	0.38833	-0.201
Mof_H 	H 	0.90927	0.87313	0.39863	0.069
Mof_C 	C 	0.87067	0.84633	0.35973	0.126
Mof_H 	H 	0.92087	0.86453	0.34893	-0.019
Mof_C 	C 	0.81167	0.84133	0.34023	-0.28
Mof_H 	H 	0.80967	0.82893	0.32013	0.829
Mof_H 	H 	0.88247	0.80983	0.39853	0.015
Mof_H 	H 	0.89607	0.80543	0.34853	-0.015
Mof_H 	H 	0.58347	0.86433	0.33223	0.552
Mof_O 	O 	0.48078	0.37092	0.49826	-0.407
Mof_O 	O 	0.44043	0.41267	0.53708	-0.397
Mof_C 	C 	0.45263	0.36087	0.52287	0.349
Mof_C 	C 	0.43003	0.28047	0.53746	-0.058
Mof_C 	C 	0.40313	0.26637	0.56526	-0.06
Mof_H 	H 	0.39373	0.30547	0.57467	0.083
Mof_C 	C 	0.28863	0.19167	0.67777	-0.611
Mof_C 	C 	0.27753	0.18767	0.70717	-0.696
Mof_H 	H 	0.22713	0.18037	0.71587	0.243
Mof_C 	C 	0.33173	0.17667	0.72487	-0.071
Mof_C 	C 	0.39193	0.16217	0.71307	0.045
Mof_C 	C 	0.40283	0.16607	0.68347	-0.115
Mof_C 	C 	0.44473	0.15067	0.73107	0.011
Mof_H 	H 	0.43713	0.15007	0.75137	0.027
Mof_C 	C 	0.50373	0.13457	0.71957	0.062
Mof_C 	C 	0.51113	0.12967	0.69037	0.109
Mof_C 	C 	0.46343	0.14967	0.67267	-0.306
Mof_H 	H 	0.46453	0.13467	0.65317	-0.643
Mof_H 	H 	0.20523	0.11567	0.71737	-0.115
Mof_C 	C 	0.45233	0.17667	0.73257	0.012
Mof_H 	H 	0.45363	0.18367	0.75287	0.013
Mof_C 	C 	0.52433	0.18467	0.72167	-0.199
Mof_H 	H 	0.57593	0.20647	0.73197	0.07
Mof_C 	C 	0.53733	0.17967	0.69307	0.119
Mof_H 	H 	0.58753	0.19787	0.68227	-0.013
Mof_C 	C 	0.47833	0.17467	0.67357	-0.281
Mof_H 	H 	0.47633	0.16227	0.65347	0.82
Mof_H 	H 	0.54913	0.14317	0.73187	0.012
Mof_H 	H 	0.56273	0.13877	0.68187	-0.013
Mof_H 	H 	0.25013	0.19767	0.66557	0.551
Mof_O 	O 	0.5568	0.85255	0.83159	-0.407
Mof_O 	O 	0.6389	0.8929	0.87041	-0.396
Mof_C 	C 	0.5749	0.8807	0.8562	0.349
Mof_C 	C 	0.5171	0.9033	0.87079	-0.057
Mof_C 	C 	0.5299	0.9302	0.89859	-0.06
Mof_H 	H 	0.5784	0.9396	0.908	0.082
Mof_C 	C 	0.5697	0.0447	0.0111	-0.653
Mof_C 	C 	0.5768	0.0558	0.0405	-0.743
Mof_H 	H 	0.6199	0.1062	0.0492	0.258
Mof_C 	C 	0.5116	0.0016	0.0582	-0.07
Mof_C 	C 	0.4369	0.9414	0.0464	0.046
Mof_C 	C 	0.4299	0.9305	0.0168	-0.107
Mof_C 	C 	0.3726	0.8886	0.0644	0.009
Mof_H 	H 	0.3796	0.8962	0.0847	0.031
Mof_C 	C 	0.2975	0.8296	0.0529	0.06
Mof_C 	C 	0.2852	0.8222	0.0237	0.11
Mof_C 	C 	0.3529	0.8699	0.006	-0.303
Mof_H 	H 	0.3368	0.8688	0.9865	-0.622
Mof_H 	H 	0.5771	0.1281	0.0507	-0.126
Mof_C 	C 	0.391	0.881	0.0659	0.013
Mof_H 	H 	0.3967	0.8797	0.0862	0.011
Mof_C 	C 	0.327	0.809	0.055	-0.194
Mof_H 	H 	0.2972	0.7574	0.0653	0.068
Mof_C 	C 	0.309	0.796	0.0264	0.112
Mof_H 	H 	0.277	0.7458	0.0156	-0.021
Mof_C 	C 	0.363	0.855	0.0069	-0.263
Mof_H 	H 	0.3526	0.857	0.9868	0.794
Mof_H 	H 	0.2607	0.7842	0.0652	0.013
Mof_H 	H 	0.2427	0.7706	0.0152	-0.014
Mof_H 	H 	0.6142	0.0832	0.9989	0.563
Mof_O 	O 	0.22347	0.18588	0.16492	-0.409
Mof_O 	O 	0.30557	0.22623	0.20374	-0.398
Mof_C 	C 	0.24157	0.21403	0.18953	0.35
Mof_C 	C 	0.18377	0.23663	0.20412	-0.061
Mof_C 	C 	0.19657	0.26353	0.23192	-0.058
Mof_H 	H 	0.24507	0.27293	0.24133	0.082
Mof_C 	C 	0.23637	0.37803	0.34443	-0.618
Mof_C 	C 	0.24347	0.38913	0.37383	-0.69
Mof_H 	H 	0.28657	0.43953	0.38253	0.242
Mof_C 	C 	0.17827	0.33493	0.39153	-0.071
Mof_C 	C 	0.10357	0.27473	0.37973	0.048
Mof_C 	C 	0.09657	0.26383	0.35013	-0.117
Mof_C 	C 	0.03927	0.22193	0.39773	0.014
Mof_H 	H 	0.04627	0.22953	0.41803	0.024
Mof_C 	C 	0.96417	0.16293	0.38623	0.079
Mof_C 	C 	0.95187	0.15553	0.35703	0.113
Mof_C 	C 	0.01957	0.20323	0.33933	-0.318
Mof_H 	H 	0.00347	0.20213	0.31983	-0.67
Mof_H 	H 	0.24377	0.46143	0.38403	-0.118
Mof_C 	C 	0.05767	0.21433	0.39923	0.005
Mof_H 	H 	0.06337	0.21303	0.41953	0.016
Mof_C 	C 	0.99367	0.14233	0.38833	-0.211
Mof_H 	H 	0.96387	0.09073	0.39863	0.077
Mof_C 	C 	0.97567	0.12933	0.35973	0.119
Mof_H 	H 	0.94367	0.07913	0.34893	-0.004
Mof_C 	C 	0.02967	0.18833	0.34023	-0.285
Mof_H 	H 	0.01927	0.19033	0.32013	0.85
Mof_H 	H 	0.92737	0.11753	0.39853	0.005
Mof_H 	H 	0.90937	0.10393	0.34853	-0.011
Mof_H 	H 	0.28087	0.41653	0.33223	0.557
Mof_O 	O 	0.89013	0.51922	0.49826	-0.406
Mof_O 	O 	0.97223	0.55957	0.53708	-0.394
Mof_C 	C 	0.90823	0.54737	0.52287	0.349
Mof_C 	C 	0.85043	0.56997	0.53746	-0.057
Mof_C 	C 	0.86323	0.59687	0.56526	-0.061
Mof_H 	H 	0.91173	0.60627	0.57467	0.084
Mof_C 	C 	0.90303	0.71137	0.67777	-0.591
Mof_C 	C 	0.91013	0.72247	0.70717	-0.683
Mof_H 	H 	0.95323	0.77287	0.71587	0.24
Mof_C 	C 	0.84493	0.66827	0.72487	-0.07
Mof_C 	C 	0.77023	0.60807	0.71307	0.042
Mof_C 	C 	0.76323	0.59717	0.68347	-0.111
Mof_C 	C 	0.70593	0.55527	0.73107	0.011
Mof_H 	H 	0.71293	0.56287	0.75137	0.027
Mof_C 	C 	0.63083	0.49627	0.71957	0.06
Mof_C 	C 	0.61853	0.48887	0.69037	0.109
Mof_C 	C 	0.68623	0.53657	0.67267	-0.303
Mof_H 	H 	0.67013	0.53547	0.65317	-0.632
Mof_H 	H 	0.91043	0.79477	0.71737	-0.107
Mof_C 	C 	0.72433	0.54767	0.73257	0.012
Mof_H 	H 	0.73003	0.54637	0.75287	0.012
Mof_C 	C 	0.66033	0.47567	0.72167	-0.197
Mof_H 	H 	0.63053	0.42407	0.73197	0.069
Mof_C 	C 	0.64233	0.46267	0.69307	0.119
Mof_H 	H 	0.61033	0.41247	0.68227	-0.015
Mof_C 	C 	0.69633	0.52167	0.67357	-0.278
Mof_H 	H 	0.68593	0.52367	0.65347	0.808
Mof_H 	H 	0.59403	0.45087	0.73187	0.013
Mof_H 	H 	0.57603	0.43727	0.68187	-0.014
Mof_H 	H 	0.94753	0.74987	0.66557	0.532
Mof_Cu	Cu	0.61753	0.80876	0.81046	0.911
Mof_Cu	Cu	0.2842	0.1421	0.14379	0.911
Mof_Cu	Cu	0.95086	0.47543	0.47712	0.913
Mof_Cu	Cu	0.19124	0.80876	0.81046	0.911
Mof_Cu	Cu	0.8579	0.1421	0.14379	0.911
Mof_Cu	Cu	0.52457	0.47543	0.47712	0.911
Mof_Cu	Cu	0.19123	0.38247	0.81046	0.911
Mof_Cu	Cu	0.8579	0.7158	0.14379	0.912
Mof_Cu	Cu	0.52457	0.04914	0.47712	0.909
Mof_Cu	Cu	0.80876	0.61753	0.18954	0.911
Mof_Cu	Cu	0.47543	0.95086	0.52288	0.913
Mof_Cu	Cu	0.1421	0.2842	0.85621	0.911
Mof_Cu	Cu	0.80877	0.19124	0.18954	0.911
Mof_Cu	Cu	0.47543	0.52457	0.52288	0.911
Mof_Cu	Cu	0.1421	0.8579	0.85621	0.911
Mof_Cu	Cu	0.38247	0.19123	0.18954	0.911
Mof_Cu	Cu	0.04914	0.52457	0.52288	0.909
Mof_Cu	Cu	0.7158	0.8579	0.85621	0.911
Mof_C 	C 	0.4444	0.5556	0.85685	-0.001
Mof_H 	H 	0.4347	0.5653	0.8382	0.064
Mof_C 	C 	0.4719	0.5281	0.91283	0.052
Mof_C 	C 	0.4797	0.5203	0.9434	0.089
Mof_C 	C 	0.4885	0.5115	0.968	0.731
Mof_C 	C 	0.5376	0.4624	0.0114	0.099
Mof_H 	H 	0.5661	0.4339	0.0012	0.061
Mof_C 	C 	0.5417	0.4583	0.0411	0.57
Mof_C 	C 	0.5055	0.4945	0.0576	-0.019
Mof_C 	C 	0.11107	0.88893	0.19018	-0.002
Mof_H 	H 	0.10137	0.89863	0.17153	0.065
Mof_C 	C 	0.13857	0.86143	0.24616	0.052
Mof_C 	C 	0.14637	0.85363	0.27673	0.097
Mof_C 	C 	0.15517	0.84483	0.30133	0.754
Mof_C 	C 	0.20427	0.79573	0.34473	0.083
Mof_H 	H 	0.23277	0.76723	0.33453	0.067
Mof_C 	C 	0.20837	0.79163	0.37443	0.552
Mof_C 	C 	0.17217	0.82783	0.39093	-0.019
Mof_C 	C 	0.77773	0.22227	0.52352	-0.001
Mof_H 	H 	0.76803	0.23197	0.50487	0.064
Mof_C 	C 	0.80523	0.19477	0.5795	0.052
Mof_C 	C 	0.81303	0.18697	0.61007	0.098
Mof_C 	C 	0.82183	0.17817	0.63467	0.757
Mof_C 	C 	0.87093	0.12907	0.67807	0.081
Mof_H 	H 	0.89943	0.10057	0.66787	0.067
Mof_C 	C 	0.87503	0.12497	0.70777	0.547
Mof_C 	C 	0.83883	0.16117	0.72427	-0.019
Mof_C 	C 	0.4444	0.8888	0.85685	-0.001
Mof_H 	H 	0.4347	0.8694	0.8382	0.065
Mof_C 	C 	0.4719	0.9438	0.91283	0.051
Mof_C 	C 	0.4797	0.9594	0.9434	0.076
Mof_C 	C 	0.4885	0.977	0.968	0.696
Mof_C 	C 	0.5376	0.0752	0.0114	0.141
Mof_H 	H 	0.5661	0.1322	0.0012	0.05
Mof_C 	C 	0.5417	0.0834	0.0411	0.606
Mof_C 	C 	0.5055	0.011	0.0576	-0.02
Mof_C 	C 	0.11107	0.22213	0.19018	0.003
Mof_H 	H 	0.10137	0.20273	0.17153	0.061
Mof_C 	C 	0.13857	0.27713	0.24616	0.049
Mof_C 	C 	0.14637	0.29273	0.27673	0.1
Mof_C 	C 	0.15517	0.31033	0.30133	0.761
Mof_C 	C 	0.20427	0.40853	0.34473	0.084
Mof_H 	H 	0.23277	0.46553	0.33453	0.066
Mof_C 	C 	0.20837	0.41673	0.37443	0.557
Mof_C 	C 	0.17217	0.34433	0.39093	-0.02
Mof_C 	C 	0.77773	0.55547	0.52352	-0.001
Mof_H 	H 	0.76803	0.53607	0.50487	0.065
Mof_C 	C 	0.80523	0.61047	0.5795	0.052
Mof_C 	C 	0.81303	0.62607	0.61007	0.097
Mof_C 	C 	0.82183	0.64367	0.63467	0.756
Mof_C 	C 	0.87093	0.74187	0.67807	0.079
Mof_H 	H 	0.89943	0.79887	0.66787	0.068
Mof_C 	C 	0.87503	0.75007	0.70777	0.54
Mof_C 	C 	0.83883	0.67767	0.72427	-0.019
Mof_C 	C 	0.1112	0.5556	0.85685	-0.001
Mof_H 	H 	0.1306	0.5653	0.8382	0.064
Mof_C 	C 	0.0562	0.5281	0.91283	0.054
Mof_C 	C 	0.0406	0.5203	0.9434	0.081
Mof_C 	C 	0.023	0.5115	0.968	0.753
Mof_C 	C 	0.9248	0.4624	0.0114	0.045
Mof_H 	H 	0.8678	0.4339	0.0012	0.072
Mof_C 	C 	0.9166	0.4583	0.0411	0.48
Mof_C 	C 	0.989	0.4945	0.0576	-0.015
Mof_C 	C 	0.77787	0.88893	0.19018	-0.006
Mof_H 	H 	0.79727	0.89863	0.17153	0.068
Mof_C 	C 	0.72287	0.86143	0.24616	0.055
Mof_C 	C 	0.70727	0.85363	0.27673	0.095
Mof_C 	C 	0.68967	0.84483	0.30133	0.748
Mof_C 	C 	0.59147	0.79573	0.34473	0.082
Mof_H 	H 	0.53447	0.76723	0.33453	0.067
Mof_C 	C 	0.58327	0.79163	0.37443	0.548
Mof_C 	C 	0.65567	0.82783	0.39093	-0.019
Mof_C 	C 	0.44453	0.22227	0.52352	-0
Mof_H 	H 	0.46393	0.23197	0.50487	0.064
Mof_C 	C 	0.38953	0.19477	0.5795	0.051
Mof_C 	C 	0.37393	0.18697	0.61007	0.099
Mof_C 	C 	0.35633	0.17817	0.63467	0.758
Mof_C 	C 	0.25813	0.12907	0.67807	0.084
Mof_H 	H 	0.20113	0.10057	0.66787	0.066
Mof_C 	C 	0.24993	0.12497	0.70777	0.559
Mof_C 	C 	0.32233	0.16117	0.72427	-0.019
Mof_C 	C 	0.5556	0.4444	0.14315	-0.001
Mof_H 	H 	0.5653	0.4347	0.1618	0.064
Mof_C 	C 	0.5281	0.4719	0.08717	0.052
Mof_C 	C 	0.5203	0.4797	0.0566	0.101
Mof_C 	C 	0.5115	0.4885	0.032	0.778
Mof_C 	C 	0.4624	0.5376	0.9886	0.064
Mof_H 	H 	0.4339	0.5661	0.9988	0.072
Mof_C 	C 	0.4583	0.5417	0.9589	0.522
Mof_C 	C 	0.4945	0.5055	0.9424	-0.019
Mof_C 	C 	0.22227	0.77773	0.47648	-0.001
Mof_H 	H 	0.23197	0.76803	0.49513	0.064
Mof_C 	C 	0.19477	0.80523	0.4205	0.052
Mof_C 	C 	0.18697	0.81303	0.38993	0.098
Mof_C 	C 	0.17817	0.82183	0.36533	0.757
Mof_C 	C 	0.12907	0.87093	0.32193	0.082
Mof_H 	H 	0.10057	0.89943	0.33213	0.067
Mof_C 	C 	0.12497	0.87503	0.29223	0.549
Mof_C 	C 	0.16117	0.83883	0.27573	-0.019
Mof_C 	C 	0.88893	0.11107	0.80982	-0.003
Mof_H 	H 	0.89863	0.10137	0.82847	0.066
Mof_C 	C 	0.86143	0.13857	0.75384	0.053
Mof_C 	C 	0.85363	0.14637	0.72327	0.097
Mof_C 	C 	0.84483	0.15517	0.69867	0.752
Mof_C 	C 	0.79573	0.20427	0.65527	0.083
Mof_H 	H 	0.76723	0.23277	0.66547	0.067
Mof_C 	C 	0.79163	0.20837	0.62557	0.552
Mof_C 	C 	0.82783	0.17217	0.60907	-0.019
Mof_C 	C 	0.8888	0.4444	0.14315	-0.001
Mof_H 	H 	0.8694	0.4347	0.1618	0.065
Mof_C 	C 	0.9438	0.4719	0.08717	0.051
Mof_C 	C 	0.9594	0.4797	0.0566	0.086
Mof_C 	C 	0.977	0.4885	0.032	0.738
Mof_C 	C 	0.0752	0.5376	0.9886	0.111
Mof_H 	H 	0.1322	0.5661	0.9988	0.059
Mof_C 	C 	0.0834	0.5417	0.9589	0.562
Mof_C 	C 	0.011	0.5055	0.9424	-0.02
Mof_C 	C 	0.55547	0.77773	0.47648	-0.001
Mof_H 	H 	0.53607	0.76803	0.49513	0.065
Mof_C 	C 	0.61047	0.80523	0.4205	0.052
Mof_C 	C 	0.62607	0.81303	0.38993	0.097
Mof_C 	C 	0.64367	0.82183	0.36533	0.756
Mof_C 	C 	0.74187	0.87093	0.32193	0.079
Mof_H 	H 	0.79887	0.89943	0.33213	0.068
Mof_C 	C 	0.75007	0.87503	0.29223	0.541
Mof_C 	C 	0.67767	0.83883	0.27573	-0.019
Mof_C 	C 	0.22213	0.11107	0.80982	0.003
Mof_H 	H 	0.20273	0.10137	0.82847	0.062
Mof_C 	C 	0.27713	0.13857	0.75384	0.049
Mof_C 	C 	0.29273	0.14637	0.72327	0.1
Mof_C 	C 	0.31033	0.15517	0.69867	0.76
Mof_C 	C 	0.40853	0.20427	0.65527	0.085
Mof_H 	H 	0.46553	0.23277	0.66547	0.066
Mof_C 	C 	0.41673	0.20837	0.62557	0.557
Mof_C 	C 	0.34433	0.17217	0.60907	-0.02
Mof_C 	C 	0.5556	0.1112	0.14315	-0.001
Mof_H 	H 	0.5653	0.1306	0.1618	0.064
Mof_C 	C 	0.5281	0.0562	0.08717	0.054
Mof_C 	C 	0.5203	0.0406	0.0566	0.094
Mof_C 	C 	0.5115	0.023	0.032	0.797
Mof_C 	C 	0.4624	0.9248	0.9886	0.017
Mof_H 	H 	0.4339	0.8678	0.9988	0.081
Mof_C 	C 	0.4583	0.9166	0.9589	0.443
Mof_C 	C 	0.4945	0.989	0.9424	-0.015
Mof_C 	C 	0.22227	0.44453	0.47648	-0
Mof_H 	H 	0.23197	0.46393	0.49513	0.064
Mof_C 	C 	0.19477	0.38953	0.4205	0.051
Mof_C 	C 	0.18697	0.37393	0.38993	0.099
Mof_C 	C 	0.17817	0.35633	0.36533	0.758
Mof_C 	C 	0.12907	0.25813	0.32193	0.085
Mof_H 	H 	0.10057	0.20113	0.33213	0.066
Mof_C 	C 	0.12497	0.24993	0.29223	0.56
Mof_C 	C 	0.16117	0.32233	0.27573	-0.019
Mof_C 	C 	0.88893	0.77787	0.80982	-0.006
Mof_H 	H 	0.89863	0.79727	0.82847	0.068
Mof_C 	C 	0.86143	0.72287	0.75384	0.055
Mof_C 	C 	0.85363	0.70727	0.72327	0.095
Mof_C 	C 	0.84483	0.68967	0.69867	0.748
Mof_C 	C 	0.79573	0.59147	0.65527	0.082
Mof_H 	H 	0.76723	0.53447	0.66547	0.067
Mof_C 	C 	0.79163	0.58327	0.62557	0.548
Mof_C 	C 	0.82783	0.65567	0.60907	-0.019
Mof_C 	C 	0.4886	0.4886	-0	0.34
Mof_C 	C 	0.15527	0.82193	0.33333	0.341
Mof_C 	C 	0.82193	0.15527	0.66667	0.341
Mof_C 	C 	0.5114	0	-0	0.327
Mof_C 	C 	0.17807	0.33333	0.33333	0.35
Mof_C 	C 	0.84473	0.66667	0.66667	0.343
Mof_C 	C 	3.30433e-17	0.5114	-0	0.325
Mof_C 	C 	0.66667	0.84473	0.33333	0.343
Mof_C 	C 	0.33333	0.17807	0.66667	0.35
Mof_C 	C 	0.5114	0.5114	-0	0.342
Mof_C 	C 	0.17807	0.84473	0.33333	0.348
Mof_C 	C 	0.84473	0.17807	0.66667	0.347
Mof_C 	C 	0.4886	0	-0	0.326
Mof_C 	C 	0.15527	0.33333	0.33333	0.347
Mof_C 	C 	0.82193	0.66667	0.66667	0.339
Mof_C 	C 	-0	0.4886	-0	0.324
Mof_C 	C 	0.66667	0.82193	0.33333	0.339
Mof_C 	C 	0.33333	0.15527	0.66667	0.347
_end
