data_functionalizedCrystal
_audit_creation_method	'EQeq! by Chris Wilmer'
_symmetry_space_group_name_H-M	'P1'
_symmetry_Int_Tables_number	1
_symmetry_cell_setting	triclinic
loop_
_symmetry_equiv_pos_as_xyz
  x,y,z
_cell_length_a	11.108
_cell_length_b	11.108
_cell_length_c	8.1107
_cell_angle_alpha	90
_cell_angle_beta	90
_cell_angle_gamma	90
loop_
_atom_site_label
_atom_site_type_symbol
_atom_site_fract_x
_atom_site_fract_y
_atom_site_fract_z
_atom_site_charge
Mof_C 	C 	0.0447	0.2436	0.126	0.066
Mof_C 	C 	0.0469	0.3679	0.13	-0.146
Mof_H 	H 	0.0774	0.1989	0.2185	-0.026
Mof_H 	H 	0.0805	0.4101	0.226	0.059
Mof_C 	C 	0.9553	0.7564	0.126	0.019
Mof_C 	C 	0.9531	0.6321	0.13	-0.001
Mof_H 	H 	0.9226	0.8011	0.2185	-0.001
Mof_H 	H 	0.9195	0.5899	0.226	0.023
Mof_C 	C 	0.7564	0.0447	0.126	0.033
Mof_C 	C 	0.6321	0.0469	0.13	-0.105
Mof_H 	H 	0.8011	0.0774	0.2185	-0.011
Mof_H 	H 	0.5899	0.0805	0.226	0.048
Mof_C 	C 	0.2436	0.9553	0.126	-0.011
Mof_C 	C 	0.3679	0.9531	0.13	0.041
Mof_H 	H 	0.1989	0.9226	0.2185	0.008
Mof_H 	H 	0.4101	0.9195	0.226	0.011
Mof_C 	C 	0.9553	0.2436	0.874	-0.016
Mof_C 	C 	0.9531	0.3679	0.87	0.03
Mof_H 	H 	0.9226	0.1989	0.7815	0.009
Mof_H 	H 	0.9195	0.4101	0.774	0.013
Mof_C 	C 	0.0447	0.7564	0.874	0.036
Mof_C 	C 	0.0469	0.6321	0.87	-0.098
Mof_H 	H 	0.0774	0.8011	0.7815	-0.012
Mof_H 	H 	0.0805	0.5899	0.774	0.046
Mof_C 	C 	0.2436	0.0447	0.874	0.07
Mof_C 	C 	0.3679	0.0469	0.87	-0.137
Mof_H 	H 	0.1989	0.0774	0.7815	-0.026
Mof_H 	H 	0.4101	0.0805	0.774	0.058
Mof_C 	C 	0.7564	0.9553	0.874	0.014
Mof_C 	C 	0.6321	0.9531	0.87	-0.009
Mof_H 	H 	0.8011	0.9226	0.7815	-0
Mof_H 	H 	0.5899	0.9195	0.774	0.025
Mof_C 	C 	0.9553	0.7564	0.874	0.014
Mof_C 	C 	0.9531	0.6321	0.87	-0.009
Mof_H 	H 	0.9226	0.8011	0.7815	-0
Mof_H 	H 	0.9195	0.5899	0.774	0.025
Mof_C 	C 	0.0447	0.2436	0.874	0.07
Mof_C 	C 	0.0469	0.3679	0.87	-0.137
Mof_H 	H 	0.0774	0.1989	0.7815	-0.026
Mof_H 	H 	0.0805	0.4101	0.774	0.058
Mof_C 	C 	0.2436	0.9553	0.874	-0.016
Mof_C 	C 	0.3679	0.9531	0.87	0.03
Mof_H 	H 	0.1989	0.9226	0.7815	0.009
Mof_H 	H 	0.4101	0.9195	0.774	0.013
Mof_C 	C 	0.7564	0.0447	0.874	0.036
Mof_C 	C 	0.6321	0.0469	0.87	-0.098
Mof_H 	H 	0.8011	0.0774	0.7815	-0.012
Mof_H 	H 	0.5899	0.0805	0.774	0.046
Mof_C 	C 	0.0447	0.7564	0.126	0.033
Mof_C 	C 	0.0469	0.6321	0.13	-0.105
Mof_H 	H 	0.0774	0.8011	0.2185	-0.011
Mof_H 	H 	0.0805	0.5899	0.226	0.048
Mof_C 	C 	0.9553	0.2436	0.126	-0.011
Mof_C 	C 	0.9531	0.3679	0.13	0.041
Mof_H 	H 	0.9226	0.1989	0.2185	0.008
Mof_H 	H 	0.9195	0.4101	0.226	0.011
Mof_C 	C 	0.7564	0.9553	0.126	0.02
Mof_C 	C 	0.6321	0.9531	0.13	0
Mof_H 	H 	0.8011	0.9226	0.2185	-0.001
Mof_H 	H 	0.5899	0.9195	0.226	0.023
Mof_C 	C 	0.2436	0.0447	0.126	0.067
Mof_C 	C 	0.3679	0.0469	0.13	-0.145
Mof_H 	H 	0.1989	0.0774	0.2185	-0.025
Mof_H 	H 	0.4101	0.0805	0.226	0.06
Mof_Cu	Cu	-0	0	-0	0.84
Mof_N 	N 	-0	0.1809	-0	-0.243
Mof_C 	C 	-0	0.4323	-0	0.021
Mof_N 	N 	-0	0.8191	-0	-0.234
Mof_C 	C 	6.30609e-33	0.5677	-0	0.023
Mof_N 	N 	0.8191	0	-0	-0.234
Mof_C 	C 	0.5677	0	-0	0.023
Mof_N 	N 	0.1809	0	-0	-0.243
Mof_C 	C 	0.4323	0	-0	0.021
_end
