data_functionalizedCrystal
_audit_creation_method	'EQeq! by Chris Wilmer'
_symmetry_space_group_name_H-M	'P1'
_symmetry_Int_Tables_number	1
_symmetry_cell_setting	triclinic
loop_
_symmetry_equiv_pos_as_xyz
  x,y,z
_cell_length_a	30.234
_cell_length_b	30.234
_cell_length_c	30.234
_cell_angle_alpha	90
_cell_angle_beta	90
_cell_angle_gamma	90
loop_
_atom_site_label
_atom_site_type_symbol
_atom_site_fract_x
_atom_site_fract_y
_atom_site_fract_z
_atom_site_charge
Mof_C 	C 	0.22435	0.27565	0.0691	-0.142
Mof_H 	H 	0.2073	0.2927	0.0882	0.105
Mof_C 	C 	0.2201	0.2799	0.0159	-0.005
Mof_H 	H 	0.19	0.31	0.0159	0.02
Mof_O 	O 	0.2221	0.2779	0.1478	-0.484
Mof_C 	C 	0.22435	0.77565	0.5691	-0.146
Mof_H 	H 	0.2073	0.7927	0.5882	0.106
Mof_C 	C 	0.2201	0.7799	0.5159	-0.002
Mof_H 	H 	0.19	0.81	0.5159	0.02
Mof_O 	O 	0.2221	0.7779	0.6478	-0.484
Mof_C 	C 	0.77565	0.72435	0.0691	-0.142
Mof_H 	H 	0.7927	0.7073	0.0882	0.105
Mof_C 	C 	0.7799	0.7201	0.0159	-0.005
Mof_H 	H 	0.81	0.69	0.0159	0.02
Mof_O 	O 	0.7779	0.7221	0.1478	-0.484
Mof_C 	C 	0.77565	0.22435	0.5691	-0.146
Mof_H 	H 	0.7927	0.2073	0.5882	0.106
Mof_C 	C 	0.7799	0.2201	0.5159	-0.002
Mof_H 	H 	0.81	0.19	0.5159	0.02
Mof_O 	O 	0.7779	0.2221	0.6478	-0.484
Mof_C 	C 	0.27565	0.22435	0.0691	-0.142
Mof_H 	H 	0.2927	0.2073	0.0882	0.105
Mof_C 	C 	0.2799	0.2201	0.0159	-0.005
Mof_H 	H 	0.31	0.19	0.0159	0.02
Mof_O 	O 	0.2779	0.2221	0.1478	-0.484
Mof_C 	C 	0.77565	0.27565	0.9309	-0.15
Mof_H 	H 	0.7927	0.2927	0.9118	0.107
Mof_C 	C 	0.7799	0.2799	0.9841	0.001
Mof_H 	H 	0.81	0.31	0.9841	0.019
Mof_O 	O 	0.7779	0.2779	0.8522	-0.484
Mof_C 	C 	0.77565	0.77565	0.4309	-0.146
Mof_H 	H 	0.7927	0.7927	0.4118	0.106
Mof_C 	C 	0.7799	0.7799	0.4841	-0.002
Mof_H 	H 	0.81	0.81	0.4841	0.02
Mof_O 	O 	0.7779	0.7779	0.3522	-0.484
Mof_C 	C 	0.27565	0.27565	0.4309	-0.146
Mof_H 	H 	0.2927	0.2927	0.4118	0.106
Mof_C 	C 	0.2799	0.2799	0.4841	-0.002
Mof_H 	H 	0.31	0.31	0.4841	0.02
Mof_O 	O 	0.2779	0.2779	0.3522	-0.484
Mof_C 	C 	0.22435	0.72435	0.9309	-0.15
Mof_H 	H 	0.2073	0.7073	0.9118	0.107
Mof_C 	C 	0.2201	0.7201	0.9841	0.001
Mof_H 	H 	0.19	0.69	0.9841	0.019
Mof_O 	O 	0.2221	0.7221	0.8522	-0.484
Mof_C 	C 	0.22435	0.22435	0.4309	-0.146
Mof_H 	H 	0.2073	0.2073	0.4118	0.106
Mof_C 	C 	0.2201	0.2201	0.4841	-0.002
Mof_H 	H 	0.19	0.19	0.4841	0.02
Mof_O 	O 	0.2221	0.2221	0.3522	-0.484
Mof_C 	C 	0.0691	0.22435	0.27565	-0.142
Mof_H 	H 	0.0882	0.2073	0.2927	0.105
Mof_C 	C 	0.0159	0.2201	0.2799	-0.005
Mof_H 	H 	0.0159	0.19	0.31	0.02
Mof_O 	O 	0.1478	0.2221	0.2779	-0.484
Mof_C 	C 	0.5691	0.22435	0.77565	-0.146
Mof_H 	H 	0.5882	0.2073	0.7927	0.106
Mof_C 	C 	0.5159	0.2201	0.7799	-0.002
Mof_H 	H 	0.5159	0.19	0.81	0.02
Mof_O 	O 	0.6478	0.2221	0.7779	-0.484
Mof_C 	C 	0.0691	0.77565	0.72435	-0.142
Mof_H 	H 	0.0882	0.7927	0.7073	0.105
Mof_C 	C 	0.0159	0.7799	0.7201	-0.005
Mof_H 	H 	0.0159	0.81	0.69	0.02
Mof_O 	O 	0.1478	0.7779	0.7221	-0.484
Mof_C 	C 	0.0691	0.27565	0.22435	-0.142
Mof_H 	H 	0.0882	0.2927	0.2073	0.105
Mof_C 	C 	0.0159	0.2799	0.2201	-0.005
Mof_H 	H 	0.0159	0.31	0.19	0.02
Mof_O 	O 	0.1478	0.2779	0.2221	-0.484
Mof_C 	C 	0.5691	0.77565	0.22435	-0.146
Mof_H 	H 	0.5882	0.7927	0.2073	0.106
Mof_C 	C 	0.5159	0.7799	0.2201	-0.002
Mof_H 	H 	0.5159	0.81	0.19	0.02
Mof_O 	O 	0.6478	0.7779	0.2221	-0.484
Mof_C 	C 	0.9309	0.77565	0.27565	-0.15
Mof_H 	H 	0.9118	0.7927	0.2927	0.107
Mof_C 	C 	0.9841	0.7799	0.2799	0.001
Mof_H 	H 	0.9841	0.81	0.31	0.019
Mof_O 	O 	0.8522	0.7779	0.2779	-0.484
Mof_C 	C 	0.4309	0.77565	0.77565	-0.145
Mof_H 	H 	0.4118	0.7927	0.7927	0.107
Mof_C 	C 	0.4841	0.7799	0.7799	-0.001
Mof_H 	H 	0.4841	0.81	0.81	0.021
Mof_O 	O 	0.3522	0.7779	0.7779	-0.483
Mof_C 	C 	0.4309	0.27565	0.27565	-0.145
Mof_H 	H 	0.4118	0.2927	0.2927	0.107
Mof_C 	C 	0.4841	0.2799	0.2799	-0.001
Mof_H 	H 	0.4841	0.31	0.31	0.021
Mof_O 	O 	0.3522	0.2779	0.2779	-0.483
Mof_C 	C 	0.9309	0.22435	0.72435	-0.149
Mof_H 	H 	0.9118	0.2073	0.7073	0.108
Mof_C 	C 	0.9841	0.2201	0.7201	0.002
Mof_H 	H 	0.9841	0.19	0.69	0.02
Mof_O 	O 	0.8522	0.2221	0.7221	-0.483
Mof_C 	C 	0.4309	0.22435	0.22435	-0.145
Mof_H 	H 	0.4118	0.2073	0.2073	0.107
Mof_C 	C 	0.4841	0.2201	0.2201	-0.001
Mof_H 	H 	0.4841	0.19	0.19	0.021
Mof_O 	O 	0.3522	0.2221	0.2221	-0.483
Mof_C 	C 	0.27565	0.0691	0.22435	-0.141
Mof_H 	H 	0.2927	0.0882	0.2073	0.106
Mof_C 	C 	0.2799	0.0159	0.2201	-0.004
Mof_H 	H 	0.31	0.0159	0.19	0.021
Mof_O 	O 	0.2779	0.1478	0.2221	-0.483
Mof_C 	C 	0.27565	0.5691	0.72435	-0.145
Mof_H 	H 	0.2927	0.5882	0.7073	0.107
Mof_C 	C 	0.2799	0.5159	0.7201	-0.001
Mof_H 	H 	0.31	0.5159	0.69	0.021
Mof_O 	O 	0.2779	0.6478	0.7221	-0.483
Mof_C 	C 	0.72435	0.0691	0.77565	-0.141
Mof_H 	H 	0.7073	0.0882	0.7927	0.106
Mof_C 	C 	0.7201	0.0159	0.7799	-0.004
Mof_H 	H 	0.69	0.0159	0.81	0.021
Mof_O 	O 	0.7221	0.1478	0.7779	-0.483
Mof_C 	C 	0.72435	0.5691	0.27565	-0.145
Mof_H 	H 	0.7073	0.5882	0.2927	0.107
Mof_C 	C 	0.7201	0.5159	0.2799	-0.001
Mof_H 	H 	0.69	0.5159	0.31	0.021
Mof_O 	O 	0.7221	0.6478	0.2779	-0.483
Mof_C 	C 	0.22435	0.0691	0.27565	-0.141
Mof_H 	H 	0.2073	0.0882	0.2927	0.106
Mof_C 	C 	0.2201	0.0159	0.2799	-0.004
Mof_H 	H 	0.19	0.0159	0.31	0.021
Mof_O 	O 	0.2221	0.1478	0.2779	-0.483
Mof_C 	C 	0.27565	0.9309	0.77565	-0.149
Mof_H 	H 	0.2927	0.9118	0.7927	0.108
Mof_C 	C 	0.2799	0.9841	0.7799	0.002
Mof_H 	H 	0.31	0.9841	0.81	0.02
Mof_O 	O 	0.2779	0.8522	0.7779	-0.483
Mof_C 	C 	0.27565	0.4309	0.27565	-0.145
Mof_H 	H 	0.2927	0.4118	0.2927	0.107
Mof_C 	C 	0.2799	0.4841	0.2799	-0.001
Mof_H 	H 	0.31	0.4841	0.31	0.021
Mof_O 	O 	0.2779	0.3522	0.2779	-0.483
Mof_C 	C 	0.72435	0.9309	0.22435	-0.149
Mof_H 	H 	0.7073	0.9118	0.2073	0.108
Mof_C 	C 	0.7201	0.9841	0.2201	0.002
Mof_H 	H 	0.69	0.9841	0.19	0.02
Mof_O 	O 	0.7221	0.8522	0.2221	-0.483
Mof_C 	C 	0.72435	0.4309	0.72435	-0.145
Mof_H 	H 	0.7073	0.4118	0.7073	0.107
Mof_C 	C 	0.7201	0.4841	0.7201	-0.001
Mof_H 	H 	0.69	0.4841	0.69	0.021
Mof_O 	O 	0.7221	0.3522	0.7221	-0.483
Mof_C 	C 	0.22435	0.4309	0.22435	-0.145
Mof_H 	H 	0.2073	0.4118	0.2073	0.107
Mof_C 	C 	0.2201	0.4841	0.2201	-0.001
Mof_H 	H 	0.19	0.4841	0.19	0.021
Mof_O 	O 	0.2221	0.3522	0.2221	-0.483
Mof_C 	C 	0.27565	0.22435	0.9309	-0.149
Mof_H 	H 	0.2927	0.2073	0.9118	0.108
Mof_C 	C 	0.2799	0.2201	0.9841	0.002
Mof_H 	H 	0.31	0.19	0.9841	0.02
Mof_O 	O 	0.2779	0.2221	0.8522	-0.483
Mof_C 	C 	0.27565	0.72435	0.4309	-0.145
Mof_H 	H 	0.2927	0.7073	0.4118	0.107
Mof_C 	C 	0.2799	0.7201	0.4841	-0.001
Mof_H 	H 	0.31	0.69	0.4841	0.021
Mof_O 	O 	0.2779	0.7221	0.3522	-0.483
Mof_C 	C 	0.72435	0.77565	0.9309	-0.149
Mof_H 	H 	0.7073	0.7927	0.9118	0.108
Mof_C 	C 	0.7201	0.7799	0.9841	0.002
Mof_H 	H 	0.69	0.81	0.9841	0.02
Mof_O 	O 	0.7221	0.7779	0.8522	-0.483
Mof_C 	C 	0.72435	0.27565	0.4309	-0.145
Mof_H 	H 	0.7073	0.2927	0.4118	0.107
Mof_C 	C 	0.7201	0.2799	0.4841	-0.001
Mof_H 	H 	0.69	0.31	0.4841	0.021
Mof_O 	O 	0.7221	0.2779	0.3522	-0.483
Mof_C 	C 	0.22435	0.27565	0.9309	-0.149
Mof_H 	H 	0.2073	0.2927	0.9118	0.108
Mof_C 	C 	0.2201	0.2799	0.9841	0.002
Mof_H 	H 	0.19	0.31	0.9841	0.02
Mof_O 	O 	0.2221	0.2779	0.8522	-0.483
Mof_C 	C 	0.27565	0.77565	0.0691	-0.141
Mof_H 	H 	0.2927	0.7927	0.0882	0.106
Mof_C 	C 	0.2799	0.7799	0.0159	-0.004
Mof_H 	H 	0.31	0.81	0.0159	0.021
Mof_O 	O 	0.2779	0.7779	0.1478	-0.483
Mof_C 	C 	0.27565	0.27565	0.5691	-0.145
Mof_H 	H 	0.2927	0.2927	0.5882	0.107
Mof_C 	C 	0.2799	0.2799	0.5159	-0.001
Mof_H 	H 	0.31	0.31	0.5159	0.021
Mof_O 	O 	0.2779	0.2779	0.6478	-0.483
Mof_C 	C 	0.72435	0.22435	0.0691	-0.141
Mof_H 	H 	0.7073	0.2073	0.0882	0.106
Mof_C 	C 	0.7201	0.2201	0.0159	-0.004
Mof_H 	H 	0.69	0.19	0.0159	0.021
Mof_O 	O 	0.7221	0.2221	0.1478	-0.483
Mof_C 	C 	0.72435	0.72435	0.5691	-0.145
Mof_H 	H 	0.7073	0.7073	0.5882	0.107
Mof_C 	C 	0.7201	0.7201	0.5159	-0.001
Mof_H 	H 	0.69	0.69	0.5159	0.021
Mof_O 	O 	0.7221	0.7221	0.6478	-0.483
Mof_C 	C 	0.22435	0.22435	0.5691	-0.145
Mof_H 	H 	0.2073	0.2073	0.5882	0.107
Mof_C 	C 	0.2201	0.2201	0.5159	-0.001
Mof_H 	H 	0.19	0.19	0.5159	0.021
Mof_O 	O 	0.2221	0.2221	0.6478	-0.483
Mof_C 	C 	0.22435	0.0691	0.72435	-0.141
Mof_H 	H 	0.2073	0.0882	0.7073	0.106
Mof_C 	C 	0.2201	0.0159	0.7201	-0.004
Mof_H 	H 	0.19	0.0159	0.69	0.021
Mof_O 	O 	0.2221	0.1478	0.7221	-0.483
Mof_C 	C 	0.22435	0.5691	0.22435	-0.145
Mof_H 	H 	0.2073	0.5882	0.2073	0.107
Mof_C 	C 	0.2201	0.5159	0.2201	-0.001
Mof_H 	H 	0.19	0.5159	0.19	0.021
Mof_O 	O 	0.2221	0.6478	0.2221	-0.483
Mof_C 	C 	0.77565	0.0691	0.27565	-0.141
Mof_H 	H 	0.7927	0.0882	0.2927	0.106
Mof_C 	C 	0.7799	0.0159	0.2799	-0.004
Mof_H 	H 	0.81	0.0159	0.31	0.021
Mof_O 	O 	0.7779	0.1478	0.2779	-0.483
Mof_C 	C 	0.77565	0.5691	0.77565	-0.145
Mof_H 	H 	0.7927	0.5882	0.7927	0.107
Mof_C 	C 	0.7799	0.5159	0.7799	-0.001
Mof_H 	H 	0.81	0.5159	0.81	0.021
Mof_O 	O 	0.7779	0.6478	0.7779	-0.483
Mof_C 	C 	0.27565	0.5691	0.27565	-0.145
Mof_H 	H 	0.2927	0.5882	0.2927	0.107
Mof_C 	C 	0.2799	0.5159	0.2799	-0.001
Mof_H 	H 	0.31	0.5159	0.31	0.021
Mof_O 	O 	0.2779	0.6478	0.2779	-0.483
Mof_C 	C 	0.77565	0.9309	0.72435	-0.149
Mof_H 	H 	0.7927	0.9118	0.7073	0.108
Mof_C 	C 	0.7799	0.9841	0.7201	0.002
Mof_H 	H 	0.81	0.9841	0.69	0.02
Mof_O 	O 	0.7779	0.8522	0.7221	-0.483
Mof_C 	C 	0.77565	0.4309	0.22435	-0.145
Mof_H 	H 	0.7927	0.4118	0.2073	0.107
Mof_C 	C 	0.7799	0.4841	0.2201	-0.001
Mof_H 	H 	0.81	0.4841	0.19	0.021
Mof_O 	O 	0.7779	0.3522	0.2221	-0.483
Mof_C 	C 	0.27565	0.9309	0.22435	-0.149
Mof_H 	H 	0.2927	0.9118	0.2073	0.108
Mof_C 	C 	0.2799	0.9841	0.2201	0.002
Mof_H 	H 	0.31	0.9841	0.19	0.02
Mof_O 	O 	0.2779	0.8522	0.2221	-0.483
Mof_C 	C 	0.22435	0.9309	0.27565	-0.149
Mof_H 	H 	0.2073	0.9118	0.2927	0.108
Mof_C 	C 	0.2201	0.9841	0.2799	0.002
Mof_H 	H 	0.19	0.9841	0.31	0.02
Mof_O 	O 	0.2221	0.8522	0.2779	-0.483
Mof_C 	C 	0.22435	0.4309	0.77565	-0.145
Mof_H 	H 	0.2073	0.4118	0.7927	0.107
Mof_C 	C 	0.2201	0.4841	0.7799	-0.001
Mof_H 	H 	0.19	0.4841	0.81	0.021
Mof_O 	O 	0.2221	0.3522	0.7779	-0.483
Mof_C 	C 	0.0691	0.27565	0.77565	-0.141
Mof_H 	H 	0.0882	0.2927	0.7927	0.106
Mof_C 	C 	0.0159	0.2799	0.7799	-0.004
Mof_H 	H 	0.0159	0.31	0.81	0.021
Mof_O 	O 	0.1478	0.2779	0.7779	-0.483
Mof_C 	C 	0.5691	0.27565	0.27565	-0.145
Mof_H 	H 	0.5882	0.2927	0.2927	0.107
Mof_C 	C 	0.5159	0.2799	0.2799	-0.001
Mof_H 	H 	0.5159	0.31	0.31	0.021
Mof_O 	O 	0.6478	0.2779	0.2779	-0.483
Mof_C 	C 	0.0691	0.72435	0.22435	-0.141
Mof_H 	H 	0.0882	0.7073	0.2073	0.106
Mof_C 	C 	0.0159	0.7201	0.2201	-0.004
Mof_H 	H 	0.0159	0.69	0.19	0.021
Mof_O 	O 	0.1478	0.7221	0.2221	-0.483
Mof_C 	C 	0.5691	0.72435	0.72435	-0.145
Mof_H 	H 	0.5882	0.7073	0.7073	0.107
Mof_C 	C 	0.5159	0.7201	0.7201	-0.001
Mof_H 	H 	0.5159	0.69	0.69	0.021
Mof_O 	O 	0.6478	0.7221	0.7221	-0.483
Mof_C 	C 	0.5691	0.22435	0.22435	-0.145
Mof_H 	H 	0.5882	0.2073	0.2073	0.107
Mof_C 	C 	0.5159	0.2201	0.2201	-0.001
Mof_H 	H 	0.5159	0.19	0.19	0.021
Mof_O 	O 	0.6478	0.2221	0.2221	-0.483
Mof_C 	C 	0.9309	0.27565	0.22435	-0.149
Mof_H 	H 	0.9118	0.2927	0.2073	0.108
Mof_C 	C 	0.9841	0.2799	0.2201	0.002
Mof_H 	H 	0.9841	0.31	0.19	0.02
Mof_O 	O 	0.8522	0.2779	0.2221	-0.483
Mof_C 	C 	0.4309	0.27565	0.72435	-0.145
Mof_H 	H 	0.4118	0.2927	0.7073	0.107
Mof_C 	C 	0.4841	0.2799	0.7201	-0.001
Mof_H 	H 	0.4841	0.31	0.69	0.021
Mof_O 	O 	0.3522	0.2779	0.7221	-0.483
Mof_C 	C 	0.9309	0.72435	0.77565	-0.149
Mof_H 	H 	0.9118	0.7073	0.7927	0.108
Mof_C 	C 	0.9841	0.7201	0.7799	0.002
Mof_H 	H 	0.9841	0.69	0.81	0.02
Mof_O 	O 	0.8522	0.7221	0.7779	-0.483
Mof_C 	C 	0.9309	0.22435	0.27565	-0.149
Mof_H 	H 	0.9118	0.2073	0.2927	0.108
Mof_C 	C 	0.9841	0.2201	0.2799	0.002
Mof_H 	H 	0.9841	0.19	0.31	0.02
Mof_O 	O 	0.8522	0.2221	0.2779	-0.483
Mof_C 	C 	0.4309	0.72435	0.27565	-0.145
Mof_H 	H 	0.4118	0.7073	0.2927	0.107
Mof_C 	C 	0.4841	0.7201	0.2799	-0.001
Mof_H 	H 	0.4841	0.69	0.31	0.021
Mof_O 	O 	0.3522	0.7221	0.2779	-0.483
Mof_C 	C 	0.77565	0.72435	0.9309	-0.149
Mof_H 	H 	0.7927	0.7073	0.9118	0.108
Mof_C 	C 	0.7799	0.7201	0.9841	0.002
Mof_H 	H 	0.81	0.69	0.9841	0.02
Mof_O 	O 	0.7779	0.7221	0.8522	-0.483
Mof_C 	C 	0.77565	0.22435	0.4309	-0.145
Mof_H 	H 	0.7927	0.2073	0.4118	0.107
Mof_C 	C 	0.7799	0.2201	0.4841	-0.001
Mof_H 	H 	0.81	0.19	0.4841	0.021
Mof_O 	O 	0.7779	0.2221	0.3522	-0.483
Mof_C 	C 	0.22435	0.77565	0.4309	-0.145
Mof_H 	H 	0.2073	0.7927	0.4118	0.107
Mof_C 	C 	0.2201	0.7799	0.4841	-0.001
Mof_H 	H 	0.19	0.81	0.4841	0.021
Mof_O 	O 	0.2221	0.7779	0.3522	-0.483
Mof_C 	C 	0.22435	0.72435	0.0691	-0.141
Mof_H 	H 	0.2073	0.7073	0.0882	0.106
Mof_C 	C 	0.2201	0.7201	0.0159	-0.004
Mof_H 	H 	0.19	0.69	0.0159	0.021
Mof_O 	O 	0.2221	0.7221	0.1478	-0.483
Mof_C 	C 	0.77565	0.27565	0.0691	-0.141
Mof_H 	H 	0.7927	0.2927	0.0882	0.106
Mof_C 	C 	0.7799	0.2799	0.0159	-0.004
Mof_H 	H 	0.81	0.31	0.0159	0.021
Mof_O 	O 	0.7779	0.2779	0.1478	-0.483
Mof_C 	C 	0.77565	0.77565	0.5691	-0.145
Mof_H 	H 	0.7927	0.7927	0.5882	0.107
Mof_C 	C 	0.7799	0.7799	0.5159	-0.001
Mof_H 	H 	0.81	0.81	0.5159	0.021
Mof_O 	O 	0.7779	0.7779	0.6478	-0.483
Mof_C 	C 	0.9309	0.77565	0.72435	-0.149
Mof_H 	H 	0.9118	0.7927	0.7073	0.108
Mof_C 	C 	0.9841	0.7799	0.7201	0.002
Mof_H 	H 	0.9841	0.81	0.69	0.02
Mof_O 	O 	0.8522	0.7779	0.7221	-0.483
Mof_C 	C 	0.4309	0.77565	0.22435	-0.145
Mof_H 	H 	0.4118	0.7927	0.2073	0.107
Mof_C 	C 	0.4841	0.7799	0.2201	-0.001
Mof_H 	H 	0.4841	0.81	0.19	0.021
Mof_O 	O 	0.3522	0.7779	0.2221	-0.483
Mof_C 	C 	0.4309	0.22435	0.77565	-0.145
Mof_H 	H 	0.4118	0.2073	0.7927	0.107
Mof_C 	C 	0.4841	0.2201	0.7799	-0.001
Mof_H 	H 	0.4841	0.19	0.81	0.021
Mof_O 	O 	0.3522	0.2221	0.7779	-0.483
Mof_C 	C 	0.0691	0.22435	0.72435	-0.141
Mof_H 	H 	0.0882	0.2073	0.7073	0.106
Mof_C 	C 	0.0159	0.2201	0.7201	-0.004
Mof_H 	H 	0.0159	0.19	0.69	0.021
Mof_O 	O 	0.1478	0.2221	0.7221	-0.483
Mof_C 	C 	0.0691	0.77565	0.27565	-0.141
Mof_H 	H 	0.0882	0.7927	0.2927	0.106
Mof_C 	C 	0.0159	0.7799	0.2799	-0.004
Mof_H 	H 	0.0159	0.81	0.31	0.021
Mof_O 	O 	0.1478	0.7779	0.2779	-0.483
Mof_C 	C 	0.5691	0.77565	0.77565	-0.145
Mof_H 	H 	0.5882	0.7927	0.7927	0.107
Mof_C 	C 	0.5159	0.7799	0.7799	-0.001
Mof_H 	H 	0.5159	0.81	0.81	0.021
Mof_O 	O 	0.6478	0.7779	0.7779	-0.483
Mof_C 	C 	0.72435	0.9309	0.77565	-0.149
Mof_H 	H 	0.7073	0.9118	0.7927	0.108
Mof_C 	C 	0.7201	0.9841	0.7799	0.002
Mof_H 	H 	0.69	0.9841	0.81	0.02
Mof_O 	O 	0.7221	0.8522	0.7779	-0.483
Mof_C 	C 	0.72435	0.4309	0.27565	-0.145
Mof_H 	H 	0.7073	0.4118	0.2927	0.107
Mof_C 	C 	0.7201	0.4841	0.2799	-0.001
Mof_H 	H 	0.69	0.4841	0.31	0.021
Mof_O 	O 	0.7221	0.3522	0.2779	-0.483
Mof_C 	C 	0.27565	0.4309	0.72435	-0.145
Mof_H 	H 	0.2927	0.4118	0.7073	0.107
Mof_C 	C 	0.2799	0.4841	0.7201	-0.001
Mof_H 	H 	0.31	0.4841	0.69	0.021
Mof_O 	O 	0.2779	0.3522	0.7221	-0.483
Mof_C 	C 	0.72435	0.0691	0.22435	-0.141
Mof_H 	H 	0.7073	0.0882	0.2073	0.106
Mof_C 	C 	0.7201	0.0159	0.2201	-0.004
Mof_H 	H 	0.69	0.0159	0.19	0.021
Mof_O 	O 	0.7221	0.1478	0.2221	-0.483
Mof_C 	C 	0.72435	0.5691	0.72435	-0.145
Mof_H 	H 	0.7073	0.5882	0.7073	0.107
Mof_C 	C 	0.7201	0.5159	0.7201	-0.001
Mof_H 	H 	0.69	0.5159	0.69	0.021
Mof_O 	O 	0.7221	0.6478	0.7221	-0.483
Mof_C 	C 	0.27565	0.0691	0.77565	-0.141
Mof_H 	H 	0.2927	0.0882	0.7927	0.106
Mof_C 	C 	0.2799	0.0159	0.7799	-0.004
Mof_H 	H 	0.31	0.0159	0.81	0.021
Mof_O 	O 	0.2779	0.1478	0.7779	-0.483
Mof_C 	C 	0.72435	0.77565	0.0691	-0.141
Mof_H 	H 	0.7073	0.7927	0.0882	0.106
Mof_C 	C 	0.7201	0.7799	0.0159	-0.004
Mof_H 	H 	0.69	0.81	0.0159	0.021
Mof_O 	O 	0.7221	0.7779	0.1478	-0.483
Mof_C 	C 	0.72435	0.27565	0.5691	-0.145
Mof_H 	H 	0.7073	0.2927	0.5882	0.107
Mof_C 	C 	0.7201	0.2799	0.5159	-0.001
Mof_H 	H 	0.69	0.31	0.5159	0.021
Mof_O 	O 	0.7221	0.2779	0.6478	-0.483
Mof_C 	C 	0.27565	0.72435	0.5691	-0.145
Mof_H 	H 	0.2927	0.7073	0.5882	0.107
Mof_C 	C 	0.2799	0.7201	0.5159	-0.001
Mof_H 	H 	0.31	0.69	0.5159	0.021
Mof_O 	O 	0.2779	0.7221	0.6478	-0.483
Mof_C 	C 	0.72435	0.22435	0.9309	-0.149
Mof_H 	H 	0.7073	0.2073	0.9118	0.108
Mof_C 	C 	0.7201	0.2201	0.9841	0.002
Mof_H 	H 	0.69	0.19	0.9841	0.02
Mof_O 	O 	0.7221	0.2221	0.8522	-0.483
Mof_C 	C 	0.72435	0.72435	0.4309	-0.145
Mof_H 	H 	0.7073	0.7073	0.4118	0.107
Mof_C 	C 	0.7201	0.7201	0.4841	-0.001
Mof_H 	H 	0.69	0.69	0.4841	0.021
Mof_O 	O 	0.7221	0.7221	0.3522	-0.483
Mof_C 	C 	0.27565	0.77565	0.9309	-0.149
Mof_H 	H 	0.2927	0.7927	0.9118	0.108
Mof_C 	C 	0.2799	0.7799	0.9841	0.002
Mof_H 	H 	0.31	0.81	0.9841	0.02
Mof_O 	O 	0.2779	0.7779	0.8522	-0.483
Mof_C 	C 	0.77565	0.9309	0.27565	-0.149
Mof_H 	H 	0.7927	0.9118	0.2927	0.108
Mof_C 	C 	0.7799	0.9841	0.2799	0.002
Mof_H 	H 	0.81	0.9841	0.31	0.02
Mof_O 	O 	0.7779	0.8522	0.2779	-0.483
Mof_C 	C 	0.77565	0.4309	0.77565	-0.145
Mof_H 	H 	0.7927	0.4118	0.7927	0.107
Mof_C 	C 	0.7799	0.4841	0.7799	-0.001
Mof_H 	H 	0.81	0.4841	0.81	0.021
Mof_O 	O 	0.7779	0.3522	0.7779	-0.483
Mof_C 	C 	0.22435	0.9309	0.72435	-0.149
Mof_H 	H 	0.2073	0.9118	0.7073	0.108
Mof_C 	C 	0.2201	0.9841	0.7201	0.002
Mof_H 	H 	0.19	0.9841	0.69	0.02
Mof_O 	O 	0.2221	0.8522	0.7221	-0.483
Mof_C 	C 	0.22435	0.5691	0.77565	-0.145
Mof_H 	H 	0.2073	0.5882	0.7927	0.107
Mof_C 	C 	0.2201	0.5159	0.7799	-0.001
Mof_H 	H 	0.19	0.5159	0.81	0.021
Mof_O 	O 	0.2221	0.6478	0.7779	-0.483
Mof_C 	C 	0.77565	0.0691	0.72435	-0.141
Mof_H 	H 	0.7927	0.0882	0.7073	0.106
Mof_C 	C 	0.7799	0.0159	0.7201	-0.004
Mof_H 	H 	0.81	0.0159	0.69	0.021
Mof_O 	O 	0.7779	0.1478	0.7221	-0.483
Mof_C 	C 	0.77565	0.5691	0.22435	-0.145
Mof_H 	H 	0.7927	0.5882	0.2073	0.107
Mof_C 	C 	0.7799	0.5159	0.2201	-0.001
Mof_H 	H 	0.81	0.5159	0.19	0.021
Mof_O 	O 	0.7779	0.6478	0.2221	-0.483
Mof_C 	C 	0.9309	0.72435	0.22435	-0.149
Mof_H 	H 	0.9118	0.7073	0.2073	0.108
Mof_C 	C 	0.9841	0.7201	0.2201	0.002
Mof_H 	H 	0.9841	0.69	0.19	0.02
Mof_O 	O 	0.8522	0.7221	0.2221	-0.483
Mof_C 	C 	0.4309	0.72435	0.72435	-0.145
Mof_H 	H 	0.4118	0.7073	0.7073	0.107
Mof_C 	C 	0.4841	0.7201	0.7201	-0.001
Mof_H 	H 	0.4841	0.69	0.69	0.021
Mof_O 	O 	0.3522	0.7221	0.7221	-0.483
Mof_C 	C 	0.9309	0.27565	0.77565	-0.149
Mof_H 	H 	0.9118	0.2927	0.7927	0.108
Mof_C 	C 	0.9841	0.2799	0.7799	0.002
Mof_H 	H 	0.9841	0.31	0.81	0.02
Mof_O 	O 	0.8522	0.2779	0.7779	-0.483
Mof_C 	C 	0.0691	0.72435	0.77565	-0.141
Mof_H 	H 	0.0882	0.7073	0.7927	0.106
Mof_C 	C 	0.0159	0.7201	0.7799	-0.004
Mof_H 	H 	0.0159	0.69	0.81	0.021
Mof_O 	O 	0.1478	0.7221	0.7779	-0.483
Mof_C 	C 	0.5691	0.72435	0.27565	-0.145
Mof_H 	H 	0.5882	0.7073	0.2927	0.107
Mof_C 	C 	0.5159	0.7201	0.2799	-0.001
Mof_H 	H 	0.5159	0.69	0.31	0.021
Mof_O 	O 	0.6478	0.7221	0.2779	-0.483
Mof_C 	C 	0.5691	0.27565	0.72435	-0.145
Mof_H 	H 	0.5882	0.2927	0.7073	0.107
Mof_C 	C 	0.5159	0.2799	0.7201	-0.001
Mof_H 	H 	0.5159	0.31	0.69	0.021
Mof_O 	O 	0.6478	0.2779	0.7221	-0.483
Mof_C 	C 	0.25	0.25	0.0821	0.088
Mof_C 	C 	0.25	0.25	0.1359	0.282
Mof_C 	C 	0.25	0.75	0.5821	0.092
Mof_C 	C 	0.25	0.75	0.6359	0.281
Mof_C 	C 	0.75	0.75	0.0821	0.088
Mof_C 	C 	0.75	0.75	0.1359	0.282
Mof_C 	C 	0.75	0.25	0.5821	0.092
Mof_C 	C 	0.75	0.25	0.6359	0.281
Mof_C 	C 	0.75	0.25	0.9179	0.096
Mof_C 	C 	0.75	0.25	0.8641	0.28
Mof_C 	C 	0.75	0.75	0.4179	0.092
Mof_C 	C 	0.75	0.75	0.3641	0.281
Mof_C 	C 	0.25	0.25	0.4179	0.092
Mof_C 	C 	0.25	0.25	0.3641	0.281
Mof_C 	C 	0.25	0.75	0.9179	0.096
Mof_C 	C 	0.25	0.75	0.8641	0.28
Mof_C 	C 	0.0821	0.25	0.25	0.088
Mof_C 	C 	0.1359	0.25	0.25	0.282
Mof_C 	C 	0.5821	0.25	0.75	0.092
Mof_C 	C 	0.6359	0.25	0.75	0.281
Mof_C 	C 	0.0821	0.75	0.75	0.088
Mof_C 	C 	0.1359	0.75	0.75	0.282
Mof_C 	C 	0.5821	0.75	0.25	0.092
Mof_C 	C 	0.6359	0.75	0.25	0.281
Mof_C 	C 	0.9179	0.75	0.25	0.096
Mof_C 	C 	0.8641	0.75	0.25	0.28
Mof_C 	C 	0.4179	0.75	0.75	0.092
Mof_C 	C 	0.3641	0.75	0.75	0.281
Mof_C 	C 	0.4179	0.25	0.25	0.092
Mof_C 	C 	0.3641	0.25	0.25	0.281
Mof_C 	C 	0.9179	0.25	0.75	0.096
Mof_C 	C 	0.8641	0.25	0.75	0.28
Mof_C 	C 	0.25	0.0821	0.25	0.088
Mof_C 	C 	0.25	0.1359	0.25	0.282
Mof_C 	C 	0.25	0.5821	0.75	0.092
Mof_C 	C 	0.25	0.6359	0.75	0.281
Mof_C 	C 	0.75	0.0821	0.75	0.088
Mof_C 	C 	0.75	0.1359	0.75	0.282
Mof_C 	C 	0.75	0.5821	0.25	0.092
Mof_C 	C 	0.75	0.6359	0.25	0.281
Mof_C 	C 	0.25	0.9179	0.75	0.096
Mof_C 	C 	0.25	0.8641	0.75	0.28
Mof_C 	C 	0.25	0.4179	0.25	0.092
Mof_C 	C 	0.25	0.3641	0.25	0.281
Mof_C 	C 	0.75	0.9179	0.25	0.096
Mof_C 	C 	0.75	0.8641	0.25	0.28
Mof_C 	C 	0.75	0.4179	0.75	0.092
Mof_C 	C 	0.75	0.3641	0.75	0.281
Mof_C 	C 	0.25	0.25	0.9179	0.096
Mof_C 	C 	0.25	0.25	0.8641	0.28
Mof_C 	C 	0.25	0.75	0.4179	0.092
Mof_C 	C 	0.25	0.75	0.3641	0.281
Mof_C 	C 	0.75	0.75	0.9179	0.096
Mof_C 	C 	0.75	0.75	0.8641	0.28
Mof_C 	C 	0.75	0.25	0.4179	0.092
Mof_C 	C 	0.75	0.25	0.3641	0.281
Mof_C 	C 	0.25	0.75	0.0821	0.088
Mof_C 	C 	0.25	0.75	0.1359	0.282
Mof_C 	C 	0.25	0.25	0.5821	0.092
Mof_C 	C 	0.25	0.25	0.6359	0.281
Mof_C 	C 	0.75	0.25	0.0821	0.088
Mof_C 	C 	0.75	0.25	0.1359	0.282
Mof_C 	C 	0.75	0.75	0.5821	0.092
Mof_C 	C 	0.75	0.75	0.6359	0.281
Mof_C 	C 	0.25	0.0821	0.75	0.088
Mof_C 	C 	0.25	0.1359	0.75	0.282
Mof_C 	C 	0.25	0.5821	0.25	0.092
Mof_C 	C 	0.25	0.6359	0.25	0.281
Mof_C 	C 	0.75	0.0821	0.25	0.088
Mof_C 	C 	0.75	0.1359	0.25	0.282
Mof_C 	C 	0.75	0.5821	0.75	0.092
Mof_C 	C 	0.75	0.6359	0.75	0.281
Mof_C 	C 	0.75	0.9179	0.75	0.096
Mof_C 	C 	0.75	0.8641	0.75	0.28
Mof_C 	C 	0.75	0.4179	0.25	0.092
Mof_C 	C 	0.75	0.3641	0.25	0.281
Mof_C 	C 	0.25	0.9179	0.25	0.096
Mof_C 	C 	0.25	0.8641	0.25	0.28
Mof_C 	C 	0.25	0.4179	0.75	0.092
Mof_C 	C 	0.25	0.3641	0.75	0.281
Mof_C 	C 	0.0821	0.25	0.75	0.088
Mof_C 	C 	0.1359	0.25	0.75	0.282
Mof_C 	C 	0.5821	0.25	0.25	0.092
Mof_C 	C 	0.6359	0.25	0.25	0.281
Mof_C 	C 	0.0821	0.75	0.25	0.088
Mof_C 	C 	0.1359	0.75	0.25	0.282
Mof_C 	C 	0.5821	0.75	0.75	0.092
Mof_C 	C 	0.6359	0.75	0.75	0.281
Mof_C 	C 	0.9179	0.25	0.25	0.096
Mof_C 	C 	0.8641	0.25	0.25	0.28
Mof_C 	C 	0.4179	0.25	0.75	0.092
Mof_C 	C 	0.3641	0.25	0.75	0.281
Mof_C 	C 	0.9179	0.75	0.75	0.096
Mof_C 	C 	0.8641	0.75	0.75	0.28
Mof_C 	C 	0.4179	0.75	0.25	0.092
Mof_C 	C 	0.3641	0.75	0.25	0.281
Mof_O 	O 	0.25	0.25	0.25	-1.012
Mof_O 	O 	0.75	0.75	0.25	-1.012
Mof_O 	O 	0.75	0.25	0.75	-1.012
Mof_O 	O 	0.25	0.75	0.75	-1.012
Mof_O 	O 	0.25	0.25	0.75	-1.012
Mof_O 	O 	0.75	0.75	0.75	-1.012
Mof_O 	O 	0.75	0.25	0.25	-1.012
Mof_O 	O 	0.25	0.75	0.25	-1.012
Mof_C 	C 	0.25	0.25	-0	0.013
Mof_C 	C 	0.25	0.75	0.5	0.013
Mof_C 	C 	0.75	0.75	-0	0.013
Mof_C 	C 	0.75	0.25	0.5	0.013
Mof_C 	C 	0.75	0.25	-0	0.013
Mof_C 	C 	0.75	0.75	0.5	0.013
Mof_C 	C 	0.25	0.25	0.5	0.013
Mof_C 	C 	0.25	0.75	-0	0.013
Mof_C 	C 	-4.54308e-33	0.25	0.25	0.013
Mof_C 	C 	0.5	0.25	0.75	0.013
Mof_C 	C 	2.81205e-33	0.75	0.75	0.013
Mof_C 	C 	0.5	0.75	0.25	0.013
Mof_C 	C 	-2.71627e-33	0.75	0.25	0.013
Mof_C 	C 	0.5	0.75	0.75	0.013
Mof_C 	C 	0.5	0.25	0.25	0.013
Mof_C 	C 	-4.49519e-33	0.25	0.75	0.013
Mof_C 	C 	0.25	-1.82681e-33	0.25	0.013
Mof_C 	C 	0.25	0.5	0.75	0.013
Mof_C 	C 	0.75	0	0.75	0.013
Mof_C 	C 	0.75	0.5	0.25	0.013
Mof_C 	C 	0.25	0	0.75	0.013
Mof_C 	C 	0.25	0.5	0.25	0.013
Mof_C 	C 	0.75	-1.82681e-33	0.25	0.013
Mof_C 	C 	0.75	0.5	0.75	0.013
Mof_Zn	Zn	0.21312	0.28688	0.21312	1.19
Mof_Zn	Zn	0.78688	0.71312	0.21312	1.19
Mof_Zn	Zn	0.28688	0.21312	0.21312	1.19
Mof_Zn	Zn	0.78688	0.28688	0.78688	1.19
Mof_Zn	Zn	0.28688	0.28688	0.28688	1.19
Mof_Zn	Zn	0.21312	0.71312	0.78688	1.19
Mof_Zn	Zn	0.21312	0.21312	0.28688	1.19
Mof_Zn	Zn	0.21312	0.78688	0.71312	1.19
Mof_Zn	Zn	0.78688	0.78688	0.28688	1.19
Mof_Zn	Zn	0.78688	0.21312	0.71312	1.19
Mof_Zn	Zn	0.28688	0.71312	0.71312	1.19
Mof_Zn	Zn	0.71312	0.21312	0.78688	1.19
Mof_Zn	Zn	0.71312	0.71312	0.28688	1.19
Mof_Zn	Zn	0.28688	0.78688	0.78688	1.19
Mof_Zn	Zn	0.71312	0.78688	0.21312	1.19
Mof_Zn	Zn	0.71312	0.28688	0.71312	1.19
Mof_Zn	Zn	0.28688	0.21312	0.78688	1.19
Mof_Zn	Zn	0.28688	0.71312	0.28688	1.19
Mof_Zn	Zn	0.71312	0.78688	0.78688	1.19
Mof_Zn	Zn	0.71312	0.28688	0.28688	1.19
Mof_Zn	Zn	0.21312	0.78688	0.28688	1.19
Mof_Zn	Zn	0.21312	0.28688	0.78688	1.19
Mof_Zn	Zn	0.28688	0.78688	0.21312	1.19
Mof_Zn	Zn	0.28688	0.28688	0.71312	1.19
Mof_Zn	Zn	0.71312	0.21312	0.21312	1.19
Mof_Zn	Zn	0.71312	0.71312	0.71312	1.19
Mof_Zn	Zn	0.21312	0.21312	0.71312	1.19
Mof_Zn	Zn	0.78688	0.21312	0.28688	1.19
Mof_Zn	Zn	0.78688	0.78688	0.71312	1.19
Mof_Zn	Zn	0.78688	0.28688	0.21312	1.19
Mof_Zn	Zn	0.21312	0.71312	0.21312	1.19
Mof_Zn	Zn	0.78688	0.71312	0.78688	1.19
_end
