data_functionalizedCrystal
_audit_creation_method	'EQeq! by Chris Wilmer'
_symmetry_space_group_name_H-M	'P1'
_symmetry_Int_Tables_number	1
_symmetry_cell_setting	triclinic
loop_
_symmetry_equiv_pos_as_xyz
  x,y,z
_cell_length_a	40.6544
_cell_length_b	14.3377
_cell_length_c	20.2429
_cell_angle_alpha	90
_cell_angle_beta	108.733
_cell_angle_gamma	90
loop_
_atom_site_label
_atom_site_type_symbol
_atom_site_fract_x
_atom_site_fract_y
_atom_site_fract_z
_atom_site_charge
Mof_Zn	Zn	0.08224	0.96529	0.11891	0
Mof_Zn	Zn	0.2779	0.1539	0.17062	-0.003
Mof_O 	O 	0.11464	0.98489	0.21509	-0.422
Mof_O 	O 	0.06724	0.9592	0.24299	-0.313
Mof_O 	O 	0.11645	0.03118	0.5672	-0.425
Mof_O 	O 	0.06675	0.0301	0.48168	-0.333
Mof_O 	O 	0.28574	0.2848	0.1575	-0.433
Mof_O 	O 	0.2756	0.3626	0.24375	-0.288
Mof_O 	O 	0.22166	0.386	0.91993	-0.442
Mof_O 	O 	0.22592	0.5363	0.8965	-0.309
Mof_N 	N 	0.06764	0.8316	0.1116	-0.246
Mof_N 	N 	0.06876	0.6892	0.1488	-0.144
Mof_N 	N 	0.94741	0.0796	0.39783	-0.259
Mof_N 	N 	0.98326	0.1883	0.3891	-0.143
Mof_N 	N 	0.2295	0.1474	0.17629	-0.255
Mof_N 	N 	0.18451	0.1782	0.20916	-0.139
Mof_N 	N 	0.19212	0.4104	0.74392	-0.265
Mof_N 	N 	0.16391	0.441	0.63374	-0.142
Mof_C 	C 	0.09849	0.9817	0.25887	0.32
Mof_C 	C 	0.11813	0.0089	0.33303	-0.092
Mof_C 	C 	0.10125	0.0078	0.38258	0.026
Mof_H 	H 	0.078	0.9903	0.3696	0.046
Mof_C 	C 	0.11846	0.0323	0.4511	-0.093
Mof_C 	C 	0.09864	0.0312	0.50239	0.318
Mof_C 	C 	0.15263	0.0594	0.4704	0.021
Mof_H 	H 	0.1643	0.0765	0.5163	0.038
Mof_C 	C 	0.16991	0.0613	0.4205	-0.09
Mof_H 	H 	0.193	0.0799	0.4333	0.07
Mof_C 	C 	0.15258	0.0356	0.3525	0.025
Mof_H 	H 	0.1641	0.0362	0.3197	0.044
Mof_C 	C 	0.07383	0.7756	0.1665	0.107
Mof_H 	H 	0.081	0.7965	0.2124	-0.004
Mof_C 	C 	0.06066	0.6834	0.0785	0.008
Mof_H 	H 	0.0569	0.6295	0.0516	0.033
Mof_C 	C 	0.05922	0.7726	0.0557	0.003
Mof_H 	H 	0.0534	0.7908	0.0093	0.034
Mof_C 	C 	0.07516	0.6103	0.19736	0.107
Mof_C 	C 	0.10748	0.6034	0.2488	-0.102
Mof_H 	H 	0.1245	0.6484	0.2523	0.063
Mof_C 	C 	0.11385	0.5298	0.2938	-0.03
Mof_H 	H 	0.1357	0.5235	0.3268	0.041
Mof_C 	C 	0.05689	0.4727	0.2398	-0.03
Mof_H 	H 	0.0397	0.4284	0.2364	0.044
Mof_C 	C 	0.05017	0.5456	0.1931	-0.11
Mof_H 	H 	0.0286	0.5505	0.1587	0.072
Mof_C 	C 	0.08843	0.464	0.2915	0.011
Mof_C 	C 	0.09827	0.3768	0.33925	-0.031
Mof_C 	C 	0.96975	0.106	0.36644	0.106
Mof_H 	H 	0.9753	0.0711	0.3327	-0.003
Mof_C 	C 	0.96781	0.2201	0.4366	0.002
Mof_H 	H 	0.9717	0.2768	0.4602	0.03
Mof_C 	C 	0.94632	0.1531	0.4416	-0
Mof_H 	H 	0.9325	0.1551	0.4702	0.024
Mof_C 	C 	0.01036	0.235	0.36999	0.113
Mof_C 	C 	0.03376	0.1839	0.3489	-0.112
Mof_H 	H 	0.0315	0.1194	0.3444	0.086
Mof_C 	C 	0.06099	0.2294	0.3344	-0.024
Mof_H 	H 	0.0766	0.1947	0.3194	0.047
Mof_C 	C 	0.06529	0.3256	0.34177	0.007
Mof_C 	C 	0.04081	0.3759	0.3629	-0.025
Mof_H 	H 	0.0429	0.4404	0.3675	0.04
Mof_C 	C 	0.01365	0.3314	0.377	-0.114
Mof_H 	H 	0.9977	0.3656	0.3912	0.071
Mof_C 	C 	0.21616	0.2057	0.21091	0.093
Mof_H 	H 	0.2273	0.259	0.2336	-0.004
Mof_C 	C 	0.17682	0.0978	0.1707	0.005
Mof_H 	H 	0.1564	0.0632	0.1601	0.044
Mof_C 	C 	0.20474	0.0796	0.1517	0.012
Mof_H 	H 	0.2071	0.0282	0.1255	0.03
Mof_C 	C 	0.16252	0.2268	0.24234	0.107
Mof_C 	C 	0.12733	0.2316	0.20966	-0.106
Mof_H 	H 	0.1174	0.2047	0.166	0.067
Mof_C 	C 	0.10691	0.2767	0.2421	-0.029
Mof_H 	H 	0.083	0.2792	0.22	0.045
Mof_C 	C 	0.12091	0.3188	0.30726	0.012
Mof_C 	C 	0.15686	0.3147	0.3382	-0.029
Mof_H 	H 	0.1671	0.3438	0.3809	0.053
Mof_C 	C 	0.17762	0.2678	0.30624	-0.107
Mof_H 	H 	0.2015	0.2642	0.328	0.078
Mof_C 	C 	0.17762	0.3742	0.68141	0.099
Mof_H 	H 	0.177	0.3107	0.6715	-0.016
Mof_C 	C 	0.17017	0.5246	0.6679	0.019
Mof_H 	H 	0.1635	0.5831	0.6484	0.029
Mof_C 	C 	0.18794	0.5062	0.7356	-0.012
Mof_H 	H 	0.196	0.5504	0.7708	0.041
Mof_C 	C 	0.14763	0.4258	0.56037	0.117
Mof_C 	C 	0.13334	0.5002	0.5173	-0.111
Mof_H 	H 	0.134	0.5599	0.5357	0.074
Mof_C 	C 	0.118	0.4847	0.44605	-0.027
Mof_H 	H 	0.1083	0.535	0.4174	0.043
Mof_C 	C 	0.11668	0.3988	0.41692	0.009
Mof_C 	C 	0.13024	0.3253	0.46183	-0.024
Mof_H 	H 	0.1287	0.2652	0.4438	0.046
Mof_C 	C 	0.14611	0.3385	0.53291	-0.117
Mof_H 	H 	0.1557	0.2881	0.5616	0.076
Mof_C 	C 	0.27446	0.3555	0.1821	0.342
Mof_C 	C 	0.25968	0.4329	0.1328	-0.114
Mof_C 	C 	0.24896	0.4192	0.06069	0.045
Mof_H 	H 	0.2508	0.3598	0.0437	0.039
Mof_C 	C 	0.23588	0.4899	0.01398	-0.106
Mof_C 	C 	0.22662	0.4707	0.9369	0.337
Mof_C 	C 	0.23306	0.5784	0.0384	0.029
Mof_H 	H 	0.2248	0.6272	0.0072	0.031
Mof_C 	C 	0.24273	0.5948	0.1114	-0.102
Mof_H 	H 	0.2404	0.6539	0.1283	0.064
Mof_C 	C 	0.25557	0.5218	0.157	0.037
Mof_H 	H 	0.2616	0.5322	0.2047	0.027
Mof_Co	Co	0.0823	0.968	0.1179	1.152
Mof_Co	Co	0.2782	0.1519	0.1723	1.154
Mof_Zn	Zn	0.58224	0.46529	0.11891	0.001
Mof_Zn	Zn	0.7779	0.6539	0.17062	-0.002
Mof_O 	O 	0.61464	0.48489	0.21509	-0.421
Mof_O 	O 	0.56724	0.4592	0.24299	-0.312
Mof_O 	O 	0.61645	0.53118	0.5672	-0.424
Mof_O 	O 	0.56675	0.5301	0.48168	-0.332
Mof_O 	O 	0.78574	0.7848	0.1575	-0.432
Mof_O 	O 	0.7756	0.8626	0.24375	-0.287
Mof_O 	O 	0.72166	0.886	0.91993	-0.441
Mof_O 	O 	0.72592	0.0363	0.8965	-0.308
Mof_N 	N 	0.56764	0.3316	0.1116	-0.245
Mof_N 	N 	0.56876	0.1892	0.1488	-0.143
Mof_N 	N 	0.44741	0.5796	0.39783	-0.258
Mof_N 	N 	0.48326	0.6883	0.3891	-0.142
Mof_N 	N 	0.7295	0.6474	0.17629	-0.255
Mof_N 	N 	0.68451	0.6782	0.20916	-0.139
Mof_N 	N 	0.69212	0.9104	0.74392	-0.265
Mof_N 	N 	0.66391	0.941	0.63374	-0.142
Mof_C 	C 	0.59849	0.4817	0.25887	0.32
Mof_C 	C 	0.61813	0.5089	0.33303	-0.092
Mof_C 	C 	0.60125	0.5078	0.38258	0.026
Mof_H 	H 	0.578	0.4903	0.3696	0.047
Mof_C 	C 	0.61846	0.5323	0.4511	-0.093
Mof_C 	C 	0.59864	0.5312	0.50239	0.318
Mof_C 	C 	0.65263	0.5594	0.4704	0.021
Mof_H 	H 	0.6643	0.5765	0.5163	0.038
Mof_C 	C 	0.66991	0.5613	0.4205	-0.09
Mof_H 	H 	0.693	0.5799	0.4333	0.07
Mof_C 	C 	0.65258	0.5356	0.3525	0.025
Mof_H 	H 	0.6641	0.5362	0.3197	0.044
Mof_C 	C 	0.57383	0.2756	0.1665	0.107
Mof_H 	H 	0.581	0.2965	0.2124	-0.004
Mof_C 	C 	0.56066	0.1834	0.0785	0.008
Mof_H 	H 	0.5569	0.1295	0.0516	0.033
Mof_C 	C 	0.55922	0.2726	0.0557	0.003
Mof_H 	H 	0.5534	0.2908	0.0093	0.034
Mof_C 	C 	0.57516	0.1103	0.19736	0.107
Mof_C 	C 	0.60748	0.1034	0.2488	-0.102
Mof_H 	H 	0.6245	0.1484	0.2523	0.063
Mof_C 	C 	0.61385	0.0298	0.2938	-0.03
Mof_H 	H 	0.6357	0.0235	0.3268	0.041
Mof_C 	C 	0.55689	0.9727	0.2398	-0.03
Mof_H 	H 	0.5397	0.9284	0.2364	0.044
Mof_C 	C 	0.55017	0.0456	0.1931	-0.11
Mof_H 	H 	0.5286	0.0505	0.1587	0.072
Mof_C 	C 	0.58843	0.964	0.2915	0.011
Mof_C 	C 	0.59827	0.8768	0.33925	-0.031
Mof_C 	C 	0.46975	0.606	0.36644	0.106
Mof_H 	H 	0.4753	0.5711	0.3327	-0.003
Mof_C 	C 	0.46781	0.7201	0.4366	0.002
Mof_H 	H 	0.4717	0.7768	0.4602	0.03
Mof_C 	C 	0.44632	0.6531	0.4416	-0
Mof_H 	H 	0.4325	0.6551	0.4702	0.024
Mof_C 	C 	0.51036	0.735	0.36999	0.113
Mof_C 	C 	0.53376	0.6839	0.3489	-0.112
Mof_H 	H 	0.5315	0.6194	0.3444	0.086
Mof_C 	C 	0.56099	0.7294	0.3344	-0.024
Mof_H 	H 	0.5766	0.6947	0.3194	0.047
Mof_C 	C 	0.56529	0.8256	0.34177	0.007
Mof_C 	C 	0.54081	0.8759	0.3629	-0.025
Mof_H 	H 	0.5429	0.9404	0.3675	0.04
Mof_C 	C 	0.51365	0.8314	0.377	-0.114
Mof_H 	H 	0.4977	0.8656	0.3912	0.071
Mof_C 	C 	0.71616	0.7057	0.21091	0.093
Mof_H 	H 	0.7273	0.759	0.2336	-0.004
Mof_C 	C 	0.67682	0.5978	0.1707	0.005
Mof_H 	H 	0.6564	0.5632	0.1601	0.044
Mof_C 	C 	0.70474	0.5796	0.1517	0.012
Mof_H 	H 	0.7071	0.5282	0.1255	0.03
Mof_C 	C 	0.66252	0.7268	0.24234	0.107
Mof_C 	C 	0.62733	0.7316	0.20966	-0.106
Mof_H 	H 	0.6174	0.7047	0.166	0.067
Mof_C 	C 	0.60691	0.7767	0.2421	-0.029
Mof_H 	H 	0.583	0.7792	0.22	0.045
Mof_C 	C 	0.62091	0.8188	0.30726	0.012
Mof_C 	C 	0.65686	0.8147	0.3382	-0.029
Mof_H 	H 	0.6671	0.8438	0.3809	0.053
Mof_C 	C 	0.67762	0.7678	0.30624	-0.107
Mof_H 	H 	0.7015	0.7642	0.328	0.078
Mof_C 	C 	0.67762	0.8742	0.68141	0.099
Mof_H 	H 	0.677	0.8107	0.6715	-0.016
Mof_C 	C 	0.67017	0.0246	0.6679	0.019
Mof_H 	H 	0.6635	0.0831	0.6484	0.029
Mof_C 	C 	0.68794	0.0062	0.7356	-0.013
Mof_H 	H 	0.696	0.0504	0.7708	0.041
Mof_C 	C 	0.64763	0.9258	0.56037	0.117
Mof_C 	C 	0.63334	0.0002	0.5173	-0.111
Mof_H 	H 	0.634	0.0599	0.5357	0.074
Mof_C 	C 	0.618	0.9847	0.44605	-0.028
Mof_H 	H 	0.6083	0.035	0.4174	0.043
Mof_C 	C 	0.61668	0.8988	0.41692	0.009
Mof_C 	C 	0.63024	0.8253	0.46183	-0.024
Mof_H 	H 	0.6287	0.7652	0.4438	0.046
Mof_C 	C 	0.64611	0.8385	0.53291	-0.117
Mof_H 	H 	0.6557	0.7881	0.5616	0.076
Mof_C 	C 	0.77446	0.8555	0.1821	0.343
Mof_C 	C 	0.75968	0.9329	0.1328	-0.115
Mof_C 	C 	0.74896	0.9192	0.06069	0.047
Mof_H 	H 	0.7508	0.8598	0.0437	0.039
Mof_C 	C 	0.73588	0.9899	0.01398	-0.107
Mof_C 	C 	0.72662	0.9707	0.9369	0.338
Mof_C 	C 	0.73306	0.0784	0.0384	0.031
Mof_H 	H 	0.7248	0.1272	0.0072	0.031
Mof_C 	C 	0.74273	0.0948	0.1114	-0.103
Mof_H 	H 	0.7404	0.1539	0.1283	0.064
Mof_C 	C 	0.75557	0.0218	0.157	0.038
Mof_H 	H 	0.7616	0.0322	0.2047	0.026
Mof_Co	Co	0.5823	0.468	0.1179	1.152
Mof_Co	Co	0.7782	0.6519	0.1723	1.154
Mof_Zn	Zn	0.91776	0.96529	0.38109	0.001
Mof_Zn	Zn	0.7221	0.1539	0.32938	-0.002
Mof_O 	O 	0.88536	0.98489	0.28491	-0.421
Mof_O 	O 	0.93276	0.9592	0.25701	-0.312
Mof_O 	O 	0.88355	0.03118	0.9328	-0.424
Mof_O 	O 	0.93325	0.0301	0.01832	-0.332
Mof_O 	O 	0.71426	0.2848	0.3425	-0.432
Mof_O 	O 	0.7244	0.3626	0.25625	-0.287
Mof_O 	O 	0.77834	0.386	0.58007	-0.441
Mof_O 	O 	0.77408	0.5363	0.6035	-0.308
Mof_N 	N 	0.93236	0.8316	0.3884	-0.245
Mof_N 	N 	0.93124	0.6892	0.3512	-0.143
Mof_N 	N 	0.05259	0.0796	0.10217	-0.258
Mof_N 	N 	0.01674	0.1883	0.1109	-0.142
Mof_N 	N 	0.7705	0.1474	0.32371	-0.255
Mof_N 	N 	0.81549	0.1782	0.29084	-0.139
Mof_N 	N 	0.80788	0.4104	0.75608	-0.265
Mof_N 	N 	0.83609	0.441	0.86626	-0.142
Mof_C 	C 	0.90151	0.9817	0.24113	0.32
Mof_C 	C 	0.88187	0.0089	0.16697	-0.092
Mof_C 	C 	0.89875	0.0078	0.11742	0.027
Mof_H 	H 	0.922	0.9903	0.1304	0.046
Mof_C 	C 	0.88154	0.0323	0.0489	-0.093
Mof_C 	C 	0.90136	0.0312	0.99761	0.317
Mof_C 	C 	0.84737	0.0594	0.0296	0.022
Mof_H 	H 	0.8357	0.0765	0.9837	0.037
Mof_C 	C 	0.83009	0.0613	0.0795	-0.091
Mof_H 	H 	0.807	0.0799	0.0667	0.07
Mof_C 	C 	0.84742	0.0356	0.1475	0.025
Mof_H 	H 	0.8359	0.0362	0.1803	0.043
Mof_C 	C 	0.92617	0.7756	0.3335	0.107
Mof_H 	H 	0.919	0.7965	0.2876	-0.004
Mof_C 	C 	0.93934	0.6834	0.4215	0.008
Mof_H 	H 	0.9431	0.6295	0.4484	0.033
Mof_C 	C 	0.94078	0.7726	0.4443	0.003
Mof_H 	H 	0.9466	0.7908	0.4907	0.034
Mof_C 	C 	0.92484	0.6103	0.30264	0.107
Mof_C 	C 	0.89252	0.6034	0.2512	-0.102
Mof_H 	H 	0.8755	0.6484	0.2477	0.063
Mof_C 	C 	0.88615	0.5298	0.2062	-0.03
Mof_H 	H 	0.8643	0.5235	0.1732	0.041
Mof_C 	C 	0.94311	0.4727	0.2602	-0.03
Mof_H 	H 	0.9603	0.4284	0.2636	0.044
Mof_C 	C 	0.94983	0.5456	0.3069	-0.11
Mof_H 	H 	0.9714	0.5505	0.3413	0.072
Mof_C 	C 	0.91157	0.464	0.2085	0.011
Mof_C 	C 	0.90173	0.3768	0.16075	-0.03
Mof_C 	C 	0.03025	0.106	0.13356	0.106
Mof_H 	H 	0.0247	0.0711	0.1673	-0.003
Mof_C 	C 	0.03219	0.2201	0.0634	0.002
Mof_H 	H 	0.0283	0.2768	0.0398	0.03
Mof_C 	C 	0.05368	0.1531	0.0584	-0
Mof_H 	H 	0.0675	0.1551	0.0298	0.024
Mof_C 	C 	0.98964	0.235	0.13001	0.113
Mof_C 	C 	0.96624	0.1839	0.1511	-0.112
Mof_H 	H 	0.9685	0.1194	0.1556	0.086
Mof_C 	C 	0.93901	0.2294	0.1656	-0.024
Mof_H 	H 	0.9234	0.1947	0.1806	0.047
Mof_C 	C 	0.93471	0.3256	0.15823	0.007
Mof_C 	C 	0.95919	0.3759	0.1371	-0.025
Mof_H 	H 	0.9571	0.4404	0.1325	0.04
Mof_C 	C 	0.98635	0.3314	0.123	-0.114
Mof_H 	H 	0.0023	0.3656	0.1088	0.071
Mof_C 	C 	0.78384	0.2057	0.28909	0.093
Mof_H 	H 	0.7727	0.259	0.2664	-0.005
Mof_C 	C 	0.82318	0.0978	0.3293	0.005
Mof_H 	H 	0.8436	0.0632	0.3399	0.044
Mof_C 	C 	0.79526	0.0796	0.3483	0.012
Mof_H 	H 	0.7929	0.0282	0.3745	0.03
Mof_C 	C 	0.83748	0.2268	0.25766	0.107
Mof_C 	C 	0.87267	0.2316	0.29034	-0.106
Mof_H 	H 	0.8826	0.2047	0.334	0.067
Mof_C 	C 	0.89309	0.2767	0.2579	-0.029
Mof_H 	H 	0.917	0.2792	0.28	0.045
Mof_C 	C 	0.87909	0.3188	0.19274	0.012
Mof_C 	C 	0.84314	0.3147	0.1618	-0.029
Mof_H 	H 	0.8329	0.3438	0.1191	0.053
Mof_C 	C 	0.82238	0.2678	0.19376	-0.108
Mof_H 	H 	0.7985	0.2642	0.172	0.078
Mof_C 	C 	0.82238	0.3742	0.81859	0.099
Mof_H 	H 	0.823	0.3107	0.8285	-0.016
Mof_C 	C 	0.82983	0.5246	0.8321	0.019
Mof_H 	H 	0.8365	0.5831	0.8516	0.029
Mof_C 	C 	0.81206	0.5062	0.7644	-0.012
Mof_H 	H 	0.804	0.5504	0.7292	0.041
Mof_C 	C 	0.85237	0.4258	0.93963	0.118
Mof_C 	C 	0.86666	0.5002	0.9827	-0.111
Mof_H 	H 	0.866	0.5599	0.9643	0.074
Mof_C 	C 	0.882	0.4847	0.05395	-0.027
Mof_H 	H 	0.8917	0.535	0.0826	0.043
Mof_C 	C 	0.88332	0.3988	0.08308	0.008
Mof_C 	C 	0.86976	0.3253	0.03817	-0.024
Mof_H 	H 	0.8713	0.2652	0.0562	0.046
Mof_C 	C 	0.85389	0.3385	0.96709	-0.118
Mof_H 	H 	0.8443	0.2881	0.9384	0.077
Mof_C 	C 	0.72554	0.3555	0.3179	0.342
Mof_C 	C 	0.74032	0.4329	0.3672	-0.114
Mof_C 	C 	0.75104	0.4192	0.43931	0.045
Mof_H 	H 	0.7492	0.3598	0.4563	0.039
Mof_C 	C 	0.76412	0.4899	0.48602	-0.106
Mof_C 	C 	0.77338	0.4707	0.5631	0.337
Mof_C 	C 	0.76694	0.5784	0.4616	0.029
Mof_H 	H 	0.7752	0.6272	0.4928	0.031
Mof_C 	C 	0.75727	0.5948	0.3886	-0.102
Mof_H 	H 	0.7596	0.6539	0.3717	0.064
Mof_C 	C 	0.74443	0.5218	0.343	0.037
Mof_H 	H 	0.7384	0.5322	0.2953	0.027
Mof_Co	Co	0.9177	0.968	0.3821	1.152
Mof_Co	Co	0.7218	0.1519	0.3277	1.154
Mof_Zn	Zn	0.41776	0.46529	0.38109	0.001
Mof_Zn	Zn	0.2221	0.6539	0.32938	-0.002
Mof_O 	O 	0.38536	0.48489	0.28491	-0.421
Mof_O 	O 	0.43276	0.4592	0.25701	-0.312
Mof_O 	O 	0.38355	0.53118	0.9328	-0.424
Mof_O 	O 	0.43325	0.5301	0.01832	-0.332
Mof_O 	O 	0.21426	0.7848	0.3425	-0.432
Mof_O 	O 	0.2244	0.8626	0.25625	-0.287
Mof_O 	O 	0.27834	0.886	0.58007	-0.441
Mof_O 	O 	0.27408	0.0363	0.6035	-0.308
Mof_N 	N 	0.43236	0.3316	0.3884	-0.245
Mof_N 	N 	0.43124	0.1892	0.3512	-0.143
Mof_N 	N 	0.55259	0.5796	0.10217	-0.258
Mof_N 	N 	0.51674	0.6883	0.1109	-0.142
Mof_N 	N 	0.2705	0.6474	0.32371	-0.255
Mof_N 	N 	0.31549	0.6782	0.29084	-0.139
Mof_N 	N 	0.30788	0.9104	0.75608	-0.265
Mof_N 	N 	0.33609	0.941	0.86626	-0.142
Mof_C 	C 	0.40151	0.4817	0.24113	0.32
Mof_C 	C 	0.38187	0.5089	0.16697	-0.092
Mof_C 	C 	0.39875	0.5078	0.11742	0.026
Mof_H 	H 	0.422	0.4903	0.1304	0.047
Mof_C 	C 	0.38154	0.5323	0.0489	-0.093
Mof_C 	C 	0.40136	0.5312	0.99761	0.318
Mof_C 	C 	0.34737	0.5594	0.0296	0.021
Mof_H 	H 	0.3357	0.5765	0.9837	0.038
Mof_C 	C 	0.33009	0.5613	0.0795	-0.09
Mof_H 	H 	0.307	0.5799	0.0667	0.07
Mof_C 	C 	0.34742	0.5356	0.1475	0.025
Mof_H 	H 	0.3359	0.5362	0.1803	0.044
Mof_C 	C 	0.42617	0.2756	0.3335	0.107
Mof_H 	H 	0.419	0.2965	0.2876	-0.004
Mof_C 	C 	0.43934	0.1834	0.4215	0.008
Mof_H 	H 	0.4431	0.1295	0.4484	0.033
Mof_C 	C 	0.44078	0.2726	0.4443	0.003
Mof_H 	H 	0.4466	0.2908	0.4907	0.034
Mof_C 	C 	0.42484	0.1103	0.30264	0.107
Mof_C 	C 	0.39252	0.1034	0.2512	-0.102
Mof_H 	H 	0.3755	0.1484	0.2477	0.063
Mof_C 	C 	0.38615	0.0298	0.2062	-0.029
Mof_H 	H 	0.3643	0.0235	0.1732	0.041
Mof_C 	C 	0.44311	0.9727	0.2602	-0.03
Mof_H 	H 	0.4603	0.9284	0.2636	0.044
Mof_C 	C 	0.44983	0.0456	0.3069	-0.11
Mof_H 	H 	0.4714	0.0505	0.3413	0.072
Mof_C 	C 	0.41157	0.964	0.2085	0.01
Mof_C 	C 	0.40173	0.8768	0.16075	-0.031
Mof_C 	C 	0.53025	0.606	0.13356	0.106
Mof_H 	H 	0.5247	0.5711	0.1673	-0.003
Mof_C 	C 	0.53219	0.7201	0.0634	0.002
Mof_H 	H 	0.5283	0.7768	0.0398	0.03
Mof_C 	C 	0.55368	0.6531	0.0584	-0
Mof_H 	H 	0.5675	0.6551	0.0298	0.024
Mof_C 	C 	0.48964	0.735	0.13001	0.113
Mof_C 	C 	0.46624	0.6839	0.1511	-0.112
Mof_H 	H 	0.4685	0.6194	0.1556	0.086
Mof_C 	C 	0.43901	0.7294	0.1656	-0.024
Mof_H 	H 	0.4234	0.6947	0.1806	0.047
Mof_C 	C 	0.43471	0.8256	0.15823	0.007
Mof_C 	C 	0.45919	0.8759	0.1371	-0.025
Mof_H 	H 	0.4571	0.9404	0.1325	0.04
Mof_C 	C 	0.48635	0.8314	0.123	-0.114
Mof_H 	H 	0.5023	0.8656	0.1088	0.071
Mof_C 	C 	0.28384	0.7057	0.28909	0.093
Mof_H 	H 	0.2727	0.759	0.2664	-0.005
Mof_C 	C 	0.32318	0.5978	0.3293	0.005
Mof_H 	H 	0.3436	0.5632	0.3399	0.044
Mof_C 	C 	0.29526	0.5796	0.3483	0.012
Mof_H 	H 	0.2929	0.5282	0.3745	0.03
Mof_C 	C 	0.33748	0.7268	0.25766	0.107
Mof_C 	C 	0.37267	0.7316	0.29034	-0.106
Mof_H 	H 	0.3826	0.7047	0.334	0.067
Mof_C 	C 	0.39309	0.7767	0.2579	-0.029
Mof_H 	H 	0.417	0.7792	0.28	0.045
Mof_C 	C 	0.37909	0.8188	0.19274	0.012
Mof_C 	C 	0.34314	0.8147	0.1618	-0.029
Mof_H 	H 	0.3329	0.8438	0.1191	0.053
Mof_C 	C 	0.32238	0.7678	0.19376	-0.107
Mof_H 	H 	0.2985	0.7642	0.172	0.078
Mof_C 	C 	0.32238	0.8742	0.81859	0.099
Mof_H 	H 	0.323	0.8107	0.8285	-0.016
Mof_C 	C 	0.32983	0.0246	0.8321	0.019
Mof_H 	H 	0.3365	0.0831	0.8516	0.029
Mof_C 	C 	0.31206	0.0062	0.7644	-0.013
Mof_H 	H 	0.304	0.0504	0.7292	0.041
Mof_C 	C 	0.35237	0.9258	0.93963	0.117
Mof_C 	C 	0.36666	0.0002	0.9827	-0.111
Mof_H 	H 	0.366	0.0599	0.9643	0.074
Mof_C 	C 	0.382	0.9847	0.05395	-0.028
Mof_H 	H 	0.3917	0.035	0.0826	0.044
Mof_C 	C 	0.38332	0.8988	0.08308	0.009
Mof_C 	C 	0.36976	0.8253	0.03817	-0.025
Mof_H 	H 	0.3713	0.7652	0.0562	0.046
Mof_C 	C 	0.35389	0.8385	0.96709	-0.116
Mof_H 	H 	0.3443	0.7881	0.9384	0.076
Mof_C 	C 	0.22554	0.8555	0.3179	0.342
Mof_C 	C 	0.24032	0.9329	0.3672	-0.114
Mof_C 	C 	0.25104	0.9192	0.43931	0.046
Mof_H 	H 	0.2492	0.8598	0.4563	0.039
Mof_C 	C 	0.26412	0.9899	0.48602	-0.106
Mof_C 	C 	0.27338	0.9707	0.5631	0.337
Mof_C 	C 	0.26694	0.0784	0.4616	0.029
Mof_H 	H 	0.2752	0.1272	0.4928	0.031
Mof_C 	C 	0.25727	0.0948	0.3886	-0.102
Mof_H 	H 	0.2596	0.1539	0.3717	0.064
Mof_C 	C 	0.24443	0.0218	0.343	0.037
Mof_H 	H 	0.2384	0.0322	0.2953	0.027
Mof_Co	Co	0.4177	0.468	0.3821	1.152
Mof_Co	Co	0.2218	0.6519	0.3277	1.154
Mof_Zn	Zn	0.91776	0.03471	0.88109	0.001
Mof_Zn	Zn	0.7221	0.8461	0.82938	-0.002
Mof_O 	O 	0.88536	0.01511	0.78491	-0.421
Mof_O 	O 	0.93276	0.0408	0.75701	-0.312
Mof_O 	O 	0.88355	0.96882	0.4328	-0.424
Mof_O 	O 	0.93325	0.9699	0.51832	-0.332
Mof_O 	O 	0.71426	0.7152	0.8425	-0.432
Mof_O 	O 	0.7244	0.6374	0.75625	-0.287
Mof_O 	O 	0.77834	0.614	0.08007	-0.441
Mof_O 	O 	0.77408	0.4637	0.1035	-0.308
Mof_N 	N 	0.93236	0.1684	0.8884	-0.245
Mof_N 	N 	0.93124	0.3108	0.8512	-0.143
Mof_N 	N 	0.05259	0.9204	0.60217	-0.258
Mof_N 	N 	0.01674	0.8117	0.6109	-0.142
Mof_N 	N 	0.7705	0.8526	0.82371	-0.255
Mof_N 	N 	0.81549	0.8218	0.79084	-0.139
Mof_N 	N 	0.80788	0.5896	0.25608	-0.265
Mof_N 	N 	0.83609	0.559	0.36626	-0.142
Mof_C 	C 	0.90151	0.0183	0.74113	0.32
Mof_C 	C 	0.88187	0.9911	0.66697	-0.092
Mof_C 	C 	0.89875	0.9922	0.61742	0.026
Mof_H 	H 	0.922	0.0097	0.6304	0.046
Mof_C 	C 	0.88154	0.9677	0.5489	-0.093
Mof_C 	C 	0.90136	0.9688	0.49761	0.318
Mof_C 	C 	0.84737	0.9406	0.5296	0.021
Mof_H 	H 	0.8357	0.9235	0.4837	0.038
Mof_C 	C 	0.83009	0.9387	0.5795	-0.09
Mof_H 	H 	0.807	0.9201	0.5667	0.07
Mof_C 	C 	0.84742	0.9644	0.6475	0.025
Mof_H 	H 	0.8359	0.9638	0.6803	0.044
Mof_C 	C 	0.92617	0.2244	0.8335	0.107
Mof_H 	H 	0.919	0.2035	0.7876	-0.004
Mof_C 	C 	0.93934	0.3166	0.9215	0.008
Mof_H 	H 	0.9431	0.3705	0.9484	0.033
Mof_C 	C 	0.94078	0.2274	0.9443	0.003
Mof_H 	H 	0.9466	0.2092	0.9907	0.034
Mof_C 	C 	0.92484	0.3897	0.80264	0.107
Mof_C 	C 	0.89252	0.3966	0.7512	-0.102
Mof_H 	H 	0.8755	0.3516	0.7477	0.063
Mof_C 	C 	0.88615	0.4702	0.7062	-0.03
Mof_H 	H 	0.8643	0.4765	0.6732	0.041
Mof_C 	C 	0.94311	0.5273	0.7602	-0.03
Mof_H 	H 	0.9603	0.5716	0.7636	0.044
Mof_C 	C 	0.94983	0.4544	0.8069	-0.11
Mof_H 	H 	0.9714	0.4495	0.8413	0.072
Mof_C 	C 	0.91157	0.536	0.7085	0.011
Mof_C 	C 	0.90173	0.6232	0.66075	-0.031
Mof_C 	C 	0.03025	0.894	0.63356	0.106
Mof_H 	H 	0.0247	0.9289	0.6673	-0.003
Mof_C 	C 	0.03219	0.7799	0.5634	0.002
Mof_H 	H 	0.0283	0.7232	0.5398	0.03
Mof_C 	C 	0.05368	0.8469	0.5584	-0
Mof_H 	H 	0.0675	0.8449	0.5298	0.024
Mof_C 	C 	0.98964	0.765	0.63001	0.113
Mof_C 	C 	0.96624	0.8161	0.6511	-0.112
Mof_H 	H 	0.9685	0.8806	0.6556	0.086
Mof_C 	C 	0.93901	0.7706	0.6656	-0.024
Mof_H 	H 	0.9234	0.8053	0.6806	0.047
Mof_C 	C 	0.93471	0.6744	0.65823	0.007
Mof_C 	C 	0.95919	0.6241	0.6371	-0.025
Mof_H 	H 	0.9571	0.5596	0.6325	0.04
Mof_C 	C 	0.98635	0.6686	0.623	-0.114
Mof_H 	H 	0.0023	0.6344	0.6088	0.071
Mof_C 	C 	0.78384	0.7943	0.78909	0.093
Mof_H 	H 	0.7727	0.741	0.7664	-0.004
Mof_C 	C 	0.82318	0.9022	0.8293	0.005
Mof_H 	H 	0.8436	0.9368	0.8399	0.044
Mof_C 	C 	0.79526	0.9204	0.8483	0.012
Mof_H 	H 	0.7929	0.9718	0.8745	0.03
Mof_C 	C 	0.83748	0.7732	0.75766	0.107
Mof_C 	C 	0.87267	0.7684	0.79034	-0.106
Mof_H 	H 	0.8826	0.7953	0.834	0.067
Mof_C 	C 	0.89309	0.7233	0.7579	-0.029
Mof_H 	H 	0.917	0.7208	0.78	0.045
Mof_C 	C 	0.87909	0.6812	0.69274	0.012
Mof_C 	C 	0.84314	0.6853	0.6618	-0.029
Mof_H 	H 	0.8329	0.6562	0.6191	0.053
Mof_C 	C 	0.82238	0.7322	0.69376	-0.107
Mof_H 	H 	0.7985	0.7358	0.672	0.078
Mof_C 	C 	0.82238	0.6258	0.31859	0.099
Mof_H 	H 	0.823	0.6893	0.3285	-0.016
Mof_C 	C 	0.82983	0.4754	0.3321	0.019
Mof_H 	H 	0.8365	0.4169	0.3516	0.029
Mof_C 	C 	0.81206	0.4938	0.2644	-0.012
Mof_H 	H 	0.804	0.4496	0.2292	0.041
Mof_C 	C 	0.85237	0.5742	0.43963	0.117
Mof_C 	C 	0.86666	0.4998	0.4827	-0.111
Mof_H 	H 	0.866	0.4401	0.4643	0.074
Mof_C 	C 	0.882	0.5153	0.55395	-0.027
Mof_H 	H 	0.8917	0.465	0.5826	0.043
Mof_C 	C 	0.88332	0.6012	0.58308	0.009
Mof_C 	C 	0.86976	0.6747	0.53817	-0.024
Mof_H 	H 	0.8713	0.7348	0.5562	0.046
Mof_C 	C 	0.85389	0.6615	0.46709	-0.117
Mof_H 	H 	0.8443	0.7119	0.4384	0.076
Mof_C 	C 	0.72554	0.6445	0.8179	0.342
Mof_C 	C 	0.74032	0.5671	0.8672	-0.114
Mof_C 	C 	0.75104	0.5808	0.93931	0.045
Mof_H 	H 	0.7492	0.6402	0.9563	0.039
Mof_C 	C 	0.76412	0.5101	0.98602	-0.106
Mof_C 	C 	0.77338	0.5293	0.0631	0.337
Mof_C 	C 	0.76694	0.4216	0.9616	0.029
Mof_H 	H 	0.7752	0.3728	0.9928	0.031
Mof_C 	C 	0.75727	0.4052	0.8886	-0.102
Mof_H 	H 	0.7596	0.3461	0.8717	0.064
Mof_C 	C 	0.74443	0.4782	0.843	0.037
Mof_H 	H 	0.7384	0.4678	0.7953	0.027
Mof_Co	Co	0.9177	0.032	0.8821	1.152
Mof_Co	Co	0.7218	0.8481	0.8277	1.154
Mof_Zn	Zn	0.41776	0.53471	0.88109	0.001
Mof_Zn	Zn	0.2221	0.3461	0.82938	-0.002
Mof_O 	O 	0.38536	0.51511	0.78491	-0.421
Mof_O 	O 	0.43276	0.5408	0.75701	-0.312
Mof_O 	O 	0.38355	0.46882	0.4328	-0.424
Mof_O 	O 	0.43325	0.4699	0.51832	-0.332
Mof_O 	O 	0.21426	0.2152	0.8425	-0.432
Mof_O 	O 	0.2244	0.1374	0.75625	-0.287
Mof_O 	O 	0.27834	0.114	0.08007	-0.441
Mof_O 	O 	0.27408	0.9637	0.1035	-0.308
Mof_N 	N 	0.43236	0.6684	0.8884	-0.245
Mof_N 	N 	0.43124	0.8108	0.8512	-0.143
Mof_N 	N 	0.55259	0.4204	0.60217	-0.258
Mof_N 	N 	0.51674	0.3117	0.6109	-0.142
Mof_N 	N 	0.2705	0.3526	0.82371	-0.255
Mof_N 	N 	0.31549	0.3218	0.79084	-0.139
Mof_N 	N 	0.30788	0.0896	0.25608	-0.265
Mof_N 	N 	0.33609	0.059	0.36626	-0.142
Mof_C 	C 	0.40151	0.5183	0.74113	0.32
Mof_C 	C 	0.38187	0.4911	0.66697	-0.092
Mof_C 	C 	0.39875	0.4922	0.61742	0.026
Mof_H 	H 	0.422	0.5097	0.6304	0.047
Mof_C 	C 	0.38154	0.4677	0.5489	-0.093
Mof_C 	C 	0.40136	0.4688	0.49761	0.318
Mof_C 	C 	0.34737	0.4406	0.5296	0.021
Mof_H 	H 	0.3357	0.4235	0.4837	0.038
Mof_C 	C 	0.33009	0.4387	0.5795	-0.09
Mof_H 	H 	0.307	0.4201	0.5667	0.07
Mof_C 	C 	0.34742	0.4644	0.6475	0.025
Mof_H 	H 	0.3359	0.4638	0.6803	0.044
Mof_C 	C 	0.42617	0.7244	0.8335	0.107
Mof_H 	H 	0.419	0.7035	0.7876	-0.004
Mof_C 	C 	0.43934	0.8166	0.9215	0.008
Mof_H 	H 	0.4431	0.8705	0.9484	0.033
Mof_C 	C 	0.44078	0.7274	0.9443	0.003
Mof_H 	H 	0.4466	0.7092	0.9907	0.034
Mof_C 	C 	0.42484	0.8897	0.80264	0.107
Mof_C 	C 	0.39252	0.8966	0.7512	-0.102
Mof_H 	H 	0.3755	0.8516	0.7477	0.063
Mof_C 	C 	0.38615	0.9702	0.7062	-0.03
Mof_H 	H 	0.3643	0.9765	0.6732	0.041
Mof_C 	C 	0.44311	0.0273	0.7602	-0.03
Mof_H 	H 	0.4603	0.0716	0.7636	0.044
Mof_C 	C 	0.44983	0.9544	0.8069	-0.11
Mof_H 	H 	0.4714	0.9495	0.8413	0.072
Mof_C 	C 	0.41157	0.036	0.7085	0.011
Mof_C 	C 	0.40173	0.1232	0.66075	-0.031
Mof_C 	C 	0.53025	0.394	0.63356	0.106
Mof_H 	H 	0.5247	0.4289	0.6673	-0.003
Mof_C 	C 	0.53219	0.2799	0.5634	0.002
Mof_H 	H 	0.5283	0.2232	0.5398	0.03
Mof_C 	C 	0.55368	0.3469	0.5584	-0
Mof_H 	H 	0.5675	0.3449	0.5298	0.024
Mof_C 	C 	0.48964	0.265	0.63001	0.113
Mof_C 	C 	0.46624	0.3161	0.6511	-0.112
Mof_H 	H 	0.4685	0.3806	0.6556	0.086
Mof_C 	C 	0.43901	0.2706	0.6656	-0.024
Mof_H 	H 	0.4234	0.3053	0.6806	0.047
Mof_C 	C 	0.43471	0.1744	0.65823	0.007
Mof_C 	C 	0.45919	0.1241	0.6371	-0.025
Mof_H 	H 	0.4571	0.0596	0.6325	0.04
Mof_C 	C 	0.48635	0.1686	0.623	-0.114
Mof_H 	H 	0.5023	0.1344	0.6088	0.071
Mof_C 	C 	0.28384	0.2943	0.78909	0.093
Mof_H 	H 	0.2727	0.241	0.7664	-0.004
Mof_C 	C 	0.32318	0.4022	0.8293	0.005
Mof_H 	H 	0.3436	0.4368	0.8399	0.044
Mof_C 	C 	0.29526	0.4204	0.8483	0.012
Mof_H 	H 	0.2929	0.4718	0.8745	0.03
Mof_C 	C 	0.33748	0.2732	0.75766	0.107
Mof_C 	C 	0.37267	0.2684	0.79034	-0.106
Mof_H 	H 	0.3826	0.2953	0.834	0.067
Mof_C 	C 	0.39309	0.2233	0.7579	-0.029
Mof_H 	H 	0.417	0.2208	0.78	0.045
Mof_C 	C 	0.37909	0.1812	0.69274	0.012
Mof_C 	C 	0.34314	0.1853	0.6618	-0.029
Mof_H 	H 	0.3329	0.1562	0.6191	0.053
Mof_C 	C 	0.32238	0.2322	0.69376	-0.107
Mof_H 	H 	0.2985	0.2358	0.672	0.078
Mof_C 	C 	0.32238	0.1258	0.31859	0.099
Mof_H 	H 	0.323	0.1893	0.3285	-0.016
Mof_C 	C 	0.32983	0.9754	0.3321	0.019
Mof_H 	H 	0.3365	0.9169	0.3516	0.029
Mof_C 	C 	0.31206	0.9938	0.2644	-0.013
Mof_H 	H 	0.304	0.9496	0.2292	0.041
Mof_C 	C 	0.35237	0.0742	0.43963	0.117
Mof_C 	C 	0.36666	0.9998	0.4827	-0.111
Mof_H 	H 	0.366	0.9401	0.4643	0.074
Mof_C 	C 	0.382	0.0153	0.55395	-0.028
Mof_H 	H 	0.3917	0.965	0.5826	0.043
Mof_C 	C 	0.38332	0.1012	0.58308	0.009
Mof_C 	C 	0.36976	0.1747	0.53817	-0.024
Mof_H 	H 	0.3713	0.2348	0.5562	0.046
Mof_C 	C 	0.35389	0.1615	0.46709	-0.117
Mof_H 	H 	0.3443	0.2119	0.4384	0.076
Mof_C 	C 	0.22554	0.1445	0.8179	0.343
Mof_C 	C 	0.24032	0.0671	0.8672	-0.115
Mof_C 	C 	0.25104	0.0808	0.93931	0.047
Mof_H 	H 	0.2492	0.1402	0.9563	0.039
Mof_C 	C 	0.26412	0.0101	0.98602	-0.107
Mof_C 	C 	0.27338	0.0293	0.0631	0.338
Mof_C 	C 	0.26694	0.9216	0.9616	0.031
Mof_H 	H 	0.2752	0.8728	0.9928	0.031
Mof_C 	C 	0.25727	0.9052	0.8886	-0.103
Mof_H 	H 	0.2596	0.8461	0.8717	0.064
Mof_C 	C 	0.24443	0.9782	0.843	0.038
Mof_H 	H 	0.2384	0.9678	0.7953	0.026
Mof_Co	Co	0.4177	0.532	0.8821	1.152
Mof_Co	Co	0.2218	0.3481	0.8277	1.154
Mof_Zn	Zn	0.08224	0.03471	0.61891	0.001
Mof_Zn	Zn	0.2779	0.8461	0.67062	-0.002
Mof_O 	O 	0.11464	0.01511	0.71509	-0.421
Mof_O 	O 	0.06724	0.0408	0.74299	-0.312
Mof_O 	O 	0.11645	0.96882	0.0672	-0.424
Mof_O 	O 	0.06675	0.9699	0.98168	-0.332
Mof_O 	O 	0.28574	0.7152	0.6575	-0.432
Mof_O 	O 	0.2756	0.6374	0.74375	-0.287
Mof_O 	O 	0.22166	0.614	0.41993	-0.441
Mof_O 	O 	0.22592	0.4637	0.3965	-0.308
Mof_N 	N 	0.06764	0.1684	0.6116	-0.245
Mof_N 	N 	0.06876	0.3108	0.6488	-0.143
Mof_N 	N 	0.94741	0.9204	0.89783	-0.258
Mof_N 	N 	0.98326	0.8117	0.8891	-0.142
Mof_N 	N 	0.2295	0.8526	0.67629	-0.255
Mof_N 	N 	0.18451	0.8218	0.70916	-0.139
Mof_N 	N 	0.19212	0.5896	0.24392	-0.265
Mof_N 	N 	0.16391	0.559	0.13374	-0.142
Mof_C 	C 	0.09849	0.0183	0.75887	0.32
Mof_C 	C 	0.11813	0.9911	0.83303	-0.092
Mof_C 	C 	0.10125	0.9922	0.88258	0.027
Mof_H 	H 	0.078	0.0097	0.8696	0.046
Mof_C 	C 	0.11846	0.9677	0.9511	-0.093
Mof_C 	C 	0.09864	0.9688	0.00239	0.317
Mof_C 	C 	0.15263	0.9406	0.9704	0.022
Mof_H 	H 	0.1643	0.9235	0.0163	0.037
Mof_C 	C 	0.16991	0.9387	0.9205	-0.091
Mof_H 	H 	0.193	0.9201	0.9333	0.07
Mof_C 	C 	0.15258	0.9644	0.8525	0.025
Mof_H 	H 	0.1641	0.9638	0.8197	0.043
Mof_C 	C 	0.07383	0.2244	0.6665	0.107
Mof_H 	H 	0.081	0.2035	0.7124	-0.004
Mof_C 	C 	0.06066	0.3166	0.5785	0.008
Mof_H 	H 	0.0569	0.3705	0.5516	0.033
Mof_C 	C 	0.05922	0.2274	0.5557	0.003
Mof_H 	H 	0.0534	0.2092	0.5093	0.034
Mof_C 	C 	0.07516	0.3897	0.69736	0.107
Mof_C 	C 	0.10748	0.3966	0.7488	-0.102
Mof_H 	H 	0.1245	0.3516	0.7523	0.063
Mof_C 	C 	0.11385	0.4702	0.7938	-0.03
Mof_H 	H 	0.1357	0.4765	0.8268	0.041
Mof_C 	C 	0.05689	0.5273	0.7398	-0.03
Mof_H 	H 	0.0397	0.5716	0.7364	0.044
Mof_C 	C 	0.05017	0.4544	0.6931	-0.11
Mof_H 	H 	0.0286	0.4495	0.6587	0.072
Mof_C 	C 	0.08843	0.536	0.7915	0.011
Mof_C 	C 	0.09827	0.6232	0.83925	-0.03
Mof_C 	C 	0.96975	0.894	0.86644	0.106
Mof_H 	H 	0.9753	0.9289	0.8327	-0.003
Mof_C 	C 	0.96781	0.7799	0.9366	0.002
Mof_H 	H 	0.9717	0.7232	0.9602	0.03
Mof_C 	C 	0.94632	0.8469	0.9416	-0
Mof_H 	H 	0.9325	0.8449	0.9702	0.024
Mof_C 	C 	0.01036	0.765	0.86999	0.113
Mof_C 	C 	0.03376	0.8161	0.8489	-0.112
Mof_H 	H 	0.0315	0.8806	0.8444	0.086
Mof_C 	C 	0.06099	0.7706	0.8344	-0.024
Mof_H 	H 	0.0766	0.8053	0.8194	0.047
Mof_C 	C 	0.06529	0.6744	0.84177	0.007
Mof_C 	C 	0.04081	0.6241	0.8629	-0.025
Mof_H 	H 	0.0429	0.5596	0.8675	0.04
Mof_C 	C 	0.01365	0.6686	0.877	-0.114
Mof_H 	H 	0.9977	0.6344	0.8912	0.071
Mof_C 	C 	0.21616	0.7943	0.71091	0.093
Mof_H 	H 	0.2273	0.741	0.7336	-0.005
Mof_C 	C 	0.17682	0.9022	0.6707	0.005
Mof_H 	H 	0.1564	0.9368	0.6601	0.044
Mof_C 	C 	0.20474	0.9204	0.6517	0.012
Mof_H 	H 	0.2071	0.9718	0.6255	0.03
Mof_C 	C 	0.16252	0.7732	0.74234	0.107
Mof_C 	C 	0.12733	0.7684	0.70966	-0.106
Mof_H 	H 	0.1174	0.7953	0.666	0.067
Mof_C 	C 	0.10691	0.7233	0.7421	-0.029
Mof_H 	H 	0.083	0.7208	0.72	0.045
Mof_C 	C 	0.12091	0.6812	0.80726	0.012
Mof_C 	C 	0.15686	0.6853	0.8382	-0.029
Mof_H 	H 	0.1671	0.6562	0.8809	0.053
Mof_C 	C 	0.17762	0.7322	0.80624	-0.108
Mof_H 	H 	0.2015	0.7358	0.828	0.078
Mof_C 	C 	0.17762	0.6258	0.18141	0.099
Mof_H 	H 	0.177	0.6893	0.1715	-0.016
Mof_C 	C 	0.17017	0.4754	0.1679	0.019
Mof_H 	H 	0.1635	0.4169	0.1484	0.029
Mof_C 	C 	0.18794	0.4938	0.2356	-0.012
Mof_H 	H 	0.196	0.4496	0.2708	0.041
Mof_C 	C 	0.14763	0.5742	0.06037	0.118
Mof_C 	C 	0.13334	0.4998	0.0173	-0.111
Mof_H 	H 	0.134	0.4401	0.0357	0.074
Mof_C 	C 	0.118	0.5153	0.94605	-0.027
Mof_H 	H 	0.1083	0.465	0.9174	0.043
Mof_C 	C 	0.11668	0.6012	0.91692	0.008
Mof_C 	C 	0.13024	0.6747	0.96183	-0.024
Mof_H 	H 	0.1287	0.7348	0.9438	0.046
Mof_C 	C 	0.14611	0.6615	0.03291	-0.118
Mof_H 	H 	0.1557	0.7119	0.0616	0.077
Mof_C 	C 	0.27446	0.6445	0.6821	0.342
Mof_C 	C 	0.25968	0.5671	0.6328	-0.114
Mof_C 	C 	0.24896	0.5808	0.56069	0.045
Mof_H 	H 	0.2508	0.6402	0.5437	0.039
Mof_C 	C 	0.23588	0.5101	0.51398	-0.106
Mof_C 	C 	0.22662	0.5293	0.4369	0.337
Mof_C 	C 	0.23306	0.4216	0.5384	0.029
Mof_H 	H 	0.2248	0.3728	0.5072	0.031
Mof_C 	C 	0.24273	0.4052	0.6114	-0.102
Mof_H 	H 	0.2404	0.3461	0.6283	0.064
Mof_C 	C 	0.25557	0.4782	0.657	0.037
Mof_H 	H 	0.2616	0.4678	0.7047	0.027
Mof_Co	Co	0.0823	0.032	0.6179	1.152
Mof_Co	Co	0.2782	0.8481	0.6723	1.154
Mof_Zn	Zn	0.58224	0.53471	0.61891	0.001
Mof_Zn	Zn	0.7779	0.3461	0.67062	-0.002
Mof_O 	O 	0.61464	0.51511	0.71509	-0.421
Mof_O 	O 	0.56724	0.5408	0.74299	-0.312
Mof_O 	O 	0.61645	0.46882	0.0672	-0.424
Mof_O 	O 	0.56675	0.4699	0.98168	-0.332
Mof_O 	O 	0.78574	0.2152	0.6575	-0.432
Mof_O 	O 	0.7756	0.1374	0.74375	-0.287
Mof_O 	O 	0.72166	0.114	0.41993	-0.441
Mof_O 	O 	0.72592	0.9637	0.3965	-0.308
Mof_N 	N 	0.56764	0.6684	0.6116	-0.245
Mof_N 	N 	0.56876	0.8108	0.6488	-0.143
Mof_N 	N 	0.44741	0.4204	0.89783	-0.258
Mof_N 	N 	0.48326	0.3117	0.8891	-0.142
Mof_N 	N 	0.7295	0.3526	0.67629	-0.255
Mof_N 	N 	0.68451	0.3218	0.70916	-0.139
Mof_N 	N 	0.69212	0.0896	0.24392	-0.265
Mof_N 	N 	0.66391	0.059	0.13374	-0.142
Mof_C 	C 	0.59849	0.5183	0.75887	0.32
Mof_C 	C 	0.61813	0.4911	0.83303	-0.092
Mof_C 	C 	0.60125	0.4922	0.88258	0.026
Mof_H 	H 	0.578	0.5097	0.8696	0.047
Mof_C 	C 	0.61846	0.4677	0.9511	-0.093
Mof_C 	C 	0.59864	0.4688	0.00239	0.318
Mof_C 	C 	0.65263	0.4406	0.9704	0.021
Mof_H 	H 	0.6643	0.4235	0.0163	0.038
Mof_C 	C 	0.66991	0.4387	0.9205	-0.09
Mof_H 	H 	0.693	0.4201	0.9333	0.07
Mof_C 	C 	0.65258	0.4644	0.8525	0.025
Mof_H 	H 	0.6641	0.4638	0.8197	0.044
Mof_C 	C 	0.57383	0.7244	0.6665	0.107
Mof_H 	H 	0.581	0.7035	0.7124	-0.004
Mof_C 	C 	0.56066	0.8166	0.5785	0.008
Mof_H 	H 	0.5569	0.8705	0.5516	0.033
Mof_C 	C 	0.55922	0.7274	0.5557	0.003
Mof_H 	H 	0.5534	0.7092	0.5093	0.034
Mof_C 	C 	0.57516	0.8897	0.69736	0.107
Mof_C 	C 	0.60748	0.8966	0.7488	-0.102
Mof_H 	H 	0.6245	0.8516	0.7523	0.063
Mof_C 	C 	0.61385	0.9702	0.7938	-0.029
Mof_H 	H 	0.6357	0.9765	0.8268	0.041
Mof_C 	C 	0.55689	0.0273	0.7398	-0.03
Mof_H 	H 	0.5397	0.0716	0.7364	0.044
Mof_C 	C 	0.55017	0.9544	0.6931	-0.11
Mof_H 	H 	0.5286	0.9495	0.6587	0.072
Mof_C 	C 	0.58843	0.036	0.7915	0.01
Mof_C 	C 	0.59827	0.1232	0.83925	-0.031
Mof_C 	C 	0.46975	0.394	0.86644	0.106
Mof_H 	H 	0.4753	0.4289	0.8327	-0.003
Mof_C 	C 	0.46781	0.2799	0.9366	0.002
Mof_H 	H 	0.4717	0.2232	0.9602	0.03
Mof_C 	C 	0.44632	0.3469	0.9416	-0
Mof_H 	H 	0.4325	0.3449	0.9702	0.024
Mof_C 	C 	0.51036	0.265	0.86999	0.113
Mof_C 	C 	0.53376	0.3161	0.8489	-0.112
Mof_H 	H 	0.5315	0.3806	0.8444	0.086
Mof_C 	C 	0.56099	0.2706	0.8344	-0.024
Mof_H 	H 	0.5766	0.3053	0.8194	0.047
Mof_C 	C 	0.56529	0.1744	0.84177	0.007
Mof_C 	C 	0.54081	0.1241	0.8629	-0.025
Mof_H 	H 	0.5429	0.0596	0.8675	0.04
Mof_C 	C 	0.51365	0.1686	0.877	-0.114
Mof_H 	H 	0.4977	0.1344	0.8912	0.071
Mof_C 	C 	0.71616	0.2943	0.71091	0.093
Mof_H 	H 	0.7273	0.241	0.7336	-0.005
Mof_C 	C 	0.67682	0.4022	0.6707	0.005
Mof_H 	H 	0.6564	0.4368	0.6601	0.044
Mof_C 	C 	0.70474	0.4204	0.6517	0.012
Mof_H 	H 	0.7071	0.4718	0.6255	0.03
Mof_C 	C 	0.66252	0.2732	0.74234	0.107
Mof_C 	C 	0.62733	0.2684	0.70966	-0.106
Mof_H 	H 	0.6174	0.2953	0.666	0.067
Mof_C 	C 	0.60691	0.2233	0.7421	-0.029
Mof_H 	H 	0.583	0.2208	0.72	0.045
Mof_C 	C 	0.62091	0.1812	0.80726	0.012
Mof_C 	C 	0.65686	0.1853	0.8382	-0.029
Mof_H 	H 	0.6671	0.1562	0.8809	0.053
Mof_C 	C 	0.67762	0.2322	0.80624	-0.107
Mof_H 	H 	0.7015	0.2358	0.828	0.078
Mof_C 	C 	0.67762	0.1258	0.18141	0.099
Mof_H 	H 	0.677	0.1893	0.1715	-0.016
Mof_C 	C 	0.67017	0.9754	0.1679	0.019
Mof_H 	H 	0.6635	0.9169	0.1484	0.029
Mof_C 	C 	0.68794	0.9938	0.2356	-0.013
Mof_H 	H 	0.696	0.9496	0.2708	0.041
Mof_C 	C 	0.64763	0.0742	0.06037	0.117
Mof_C 	C 	0.63334	0.9998	0.0173	-0.111
Mof_H 	H 	0.634	0.9401	0.0357	0.074
Mof_C 	C 	0.618	0.0153	0.94605	-0.028
Mof_H 	H 	0.6083	0.965	0.9174	0.044
Mof_C 	C 	0.61668	0.1012	0.91692	0.009
Mof_C 	C 	0.63024	0.1747	0.96183	-0.025
Mof_H 	H 	0.6287	0.2348	0.9438	0.046
Mof_C 	C 	0.64611	0.1615	0.03291	-0.116
Mof_H 	H 	0.6557	0.2119	0.0616	0.076
Mof_C 	C 	0.77446	0.1445	0.6821	0.342
Mof_C 	C 	0.75968	0.0671	0.6328	-0.114
Mof_C 	C 	0.74896	0.0808	0.56069	0.046
Mof_H 	H 	0.7508	0.1402	0.5437	0.039
Mof_C 	C 	0.73588	0.0101	0.51398	-0.106
Mof_C 	C 	0.72662	0.0293	0.4369	0.337
Mof_C 	C 	0.73306	0.9216	0.5384	0.029
Mof_H 	H 	0.7248	0.8728	0.5072	0.031
Mof_C 	C 	0.74273	0.9052	0.6114	-0.102
Mof_H 	H 	0.7404	0.8461	0.6283	0.064
Mof_C 	C 	0.75557	0.9782	0.657	0.037
Mof_H 	H 	0.7616	0.9678	0.7047	0.027
Mof_Co	Co	0.5823	0.532	0.6179	1.152
Mof_Co	Co	0.7782	0.3481	0.6723	1.154
_end
