data_functionalizedCrystal
_audit_creation_method	'EQeq! by Chris Wilmer'
_symmetry_space_group_name_H-M	'P1'
_symmetry_Int_Tables_number	1
_symmetry_cell_setting	triclinic
loop_
_symmetry_equiv_pos_as_xyz
  x,y,z
_cell_length_a	16.0756
_cell_length_b	19.9994
_cell_length_c	28.3586
_cell_angle_alpha	104.731
_cell_angle_beta	91.047
_cell_angle_gamma	110.354
loop_
_atom_site_label
_atom_site_type_symbol
_atom_site_fract_x
_atom_site_fract_y
_atom_site_fract_z
_atom_site_charge
Mof_Zn	Zn	0.02644	0.4255	0.11438	1.219
Mof_O 	O 	0.1263	0.4108	0.0736	-0.343
Mof_C 	C 	0.351	0.5529	0.0825	-0.061
Mof_H 	H 	0.4097	0.5573	0.0751	0.04
Mof_Zn	Zn	0.10575	0.63583	0.16491	1.218
Mof_O 	O 	0.1008	0.5343	0.1233	-0.511
Mof_C 	C 	0.2825	0.481	0.0704	-0.023
Mof_Zn	Zn	0.28372	0.77806	0.26822	1.217
Mof_O 	O 	0.2288	0.6703	0.1392	-0.343
Mof_C 	C 	0.1972	0.477	0.0834	0.074
Mof_Zn	Zn	0.45169	0.76684	0.36053	1.219
Mof_O 	O 	0.3392	0.7598	0.2038	-0.336
Mof_C 	C 	0.1805	0.5411	0.1086	0.03
Mof_Zn	Zn	0.50968	0.61003	0.38794	1.214
Mof_O 	O 	0.3993	0.774	0.296	-0.514
Mof_C 	C 	0.2502	0.6115	0.118	0.081
Mof_Zn	Zn	0.42788	0.40047	0.33558	1.217
Mof_O 	O 	0.5457	0.7464	0.3174	-0.339
Mof_C 	C 	0.3349	0.6166	0.1048	-0.012
Mof_Zn	Zn	0.24959	0.25855	0.23241	1.219
Mof_O 	O 	0.5846	0.6487	0.3349	-0.346
Mof_C 	C 	0.4102	0.6922	0.1183	-0.031
Mof_H 	H 	0.3816	0.7292	0.118	0.065
Mof_Zn	Zn	0.08263	0.26767	0.13994	1.219
Mof_O 	O 	0.4986	0.5097	0.3432	-0.521
Mof_C 	C 	0.5237	0.6903	0.1827	-0.086
Mof_H 	H 	0.5493	0.6676	0.1564	0.051
Mof_O 	O 	0.4817	0.3894	0.2704	-0.351
Mof_C 	C 	0.452	0.7108	0.1714	0
Mof_O 	O 	0.3691	0.301	0.2056	-0.343
Mof_C 	C 	0.4136	0.7405	0.2099	0.056
Mof_O 	O 	0.2005	0.2716	0.1691	-0.513
Mof_C 	C 	0.4425	0.7512	0.2598	0.051
Mof_O 	O 	0.1623	0.3109	0.0905	-0.347
Mof_C 	C 	0.5184	0.7329	0.2678	0.049
Mof_O 	O 	0.9581	0.453	0.1709	-0.356
Mof_C 	C 	0.5596	0.7016	0.231	0.025
Mof_O 	O 	0.0226	0.3432	0.1454	-0.519
Mof_C 	C 	0.6359	0.6785	0.2427	-0.083
Mof_H 	H 	0.6682	0.7125	0.2752	0.035
Mof_O 	O 	0.0273	0.2584	0.2046	-0.333
Mof_C 	C 	0.5812	0.5378	0.2108	-0.068
Mof_H 	H 	0.5967	0.5445	0.1797	0.041
Mof_O 	O 	0.1338	0.2521	0.2626	-0.341
Mof_C 	C 	0.5958	0.599	0.249	0.006
Mof_O 	O 	0.3054	0.3265	0.3014	-0.511
Mof_C 	C 	0.5724	0.5904	0.2939	0.061
Mof_O 	O 	0.3507	0.4299	0.3895	-0.335
Mof_C 	C 	0.5311	0.5188	0.3008	0.021
Mof_O 	O 	0.404	0.5611	0.42334	-0.337
Mof_C 	C 	0.5201	0.4563	0.2615	0.081
Mof_O 	O 	0.4447	0.6828	0.3914	-0.516
Mof_C 	C 	0.5443	0.4648	0.2151	-0.023
Mof_O 	O 	0.3307	0.7529	0.3878	-0.336
Mof_C 	C 	0.523	0.3957	0.1726	0.026
Mof_H 	H 	0.5245	0.3551	0.1868	0.05
Mof_O 	O 	0.2251	0.7598	0.3299	-0.351
Mof_C 	C 	0.4099	0.3969	0.1089	-0.051
Mof_H 	H 	0.4581	0.4282	0.0964	0.034
Mof_O 	O 	0.1608	0.7017	0.2337	-0.509
Mof_C 	C 	0.4278	0.3713	0.1474	-0.031
Mof_O 	O 	0.0072	0.5863	0.2024	-0.353
Mof_C 	C 	0.357	0.3265	0.1664	0.08
Mof_C 	C 	0.2691	0.309	0.148	0.023
Mof_C 	C 	0.2504	0.333	0.1079	0.081
Mof_C 	C 	0.3203	0.3771	0.0875	-0.037
Mof_C 	C 	0.2991	0.4081	0.0478	0.03
Mof_H 	H 	0.2409	0.3713	0.0292	0.045
Mof_C 	C 	0.4836	0.7054	0.0843	-0.063
Mof_H 	H 	0.508	0.6653	0.079	0.023
Mof_H 	H 	0.5328	0.7532	0.0996	0.116
Mof_C 	C 	0.4442	0.7067	0.035	-0.009
Mof_H 	H 	0.409	0.6552	0.0156	-0
Mof_H 	H 	0.4032	0.7343	0.0411	0.032
Mof_C 	C 	0.515	0.742	0.0059	-0.465
Mof_H 	H 	0.4873	0.7419	0.9748	0.151
Mof_H 	H 	0.5496	0.7936	0.0248	0.131
Mof_H 	H 	0.5554	0.7144	0.9992	0.131
Mof_C 	C 	0.706	0.681	0.2058	0.072
Mof_H 	H 	0.6756	0.6456	0.1739	0.05
Mof_H 	H 	0.7273	0.7316	0.2007	-0.211
Mof_C 	C 	0.7871	0.665	0.2195	0.144
Mof_H 	H 	0.8245	0.6667	0.1922	-0.024
Mof_H 	H 	0.7662	0.6136	0.2225	-0.016
Mof_C 	C 	0.846	0.717	0.2674	-0.47
Mof_H 	H 	0.8966	0.702	0.2728	0.15
Mof_H 	H 	0.8695	0.7684	0.2646	0.152
Mof_H 	H 	0.811	0.7152	0.2951	0.159
Mof_C 	C 	0.5932	0.4037	0.1357	-0.257
Mof_H 	H 	0.5739	0.3575	0.1083	0.094
Mof_H 	H 	0.5948	0.4448	0.1219	0.09
Mof_C 	C 	0.6881	0.4188	0.1577	0.222
Mof_H 	H 	0.7098	0.4662	0.1842	-0.037
Mof_H 	H 	0.6877	0.3785	0.1722	-0.038
Mof_C 	C 	0.7484	0.4231	0.119	-0.609
Mof_H 	H 	0.8089	0.4328	0.1331	0.211
Mof_H 	H 	0.7271	0.3759	0.0931	0.201
Mof_H 	H 	0.7491	0.4634	0.1051	0.196
Mof_C 	C 	0.3667	0.4161	0.0102	-0.264
Mof_H 	H 	0.3783	0.3694	0.9985	0.09
Mof_H 	H 	0.4239	0.4567	0.0255	0.088
Mof_C 	C 	0.3275	0.4335	0.9667	0.238
Mof_H 	H 	0.2674	0.3955	0.9537	-0.05
Mof_H 	H 	0.3213	0.4824	0.978	-0.047
Mof_C 	C 	0.3853	0.4342	0.9281	-0.608
Mof_H 	H 	0.3599	0.4453	0.9007	0.188
Mof_H 	H 	0.4445	0.4724	0.9409	0.187
Mof_H 	H 	0.3907	0.3856	0.9167	0.19
Mof_C 	C 	0.9437	0.3935	0.2842	-0.066
Mof_H 	H 	0.9285	0.4059	0.3166	0.045
Mof_C 	C 	0.9353	0.4354	0.2529	-0.019
Mof_C 	C 	0.9614	0.416	0.2053	0.07
Mof_C 	C 	0.9944	0.3585	0.1898	0.038
Mof_C 	C 	0.9957	0.3175	0.2234	0.058
Mof_C 	C 	0.9735	0.3339	0.2698	0.001
Mof_C 	C 	0.9877	0.2898	0.3048	-0.025
Mof_H 	H 	0.9797	0.2388	0.2843	0.031
Mof_C 	C 	0.1089	0.3831	0.3743	-0.075
Mof_H 	H 	0.0644	0.398	0.3905	0.047
Mof_C 	C 	0.0827	0.3256	0.33	-0.008
Mof_C 	C 	0.1506	0.3072	0.3074	0.059
Mof_C 	C 	0.2414	0.3423	0.3266	0.031
Mof_C 	C 	0.2627	0.3976	0.3713	0.064
Mof_C 	C 	0.1969	0.4185	0.3951	-0.023
Mof_C 	C 	0.2265	0.4838	0.4428	-0.004
Mof_H 	H 	0.2816	0.4834	0.4594	0.053
Mof_C 	C 	0.1896	0.5918	0.4259	-0.099
Mof_H 	H 	0.1303	0.5704	0.4332	0.054
Mof_C 	C 	0.2509	0.5561	0.4298	0.001
Mof_C 	C 	0.3392	0.5901	0.4204	0.06
Mof_C 	C 	0.3637	0.6554	0.4043	0.045
Mof_C 	C 	0.3003	0.6877	0.4012	0.053
Mof_C 	C 	0.2136	0.6566	0.4119	0.017
Mof_C 	C 	0.1463	0.6937	0.4056	-0.144
Mof_H 	H 	0.1797	0.7484	0.4126	0.034
Mof_C 	C 	0.0283	0.6011	0.3343	-0.086
Mof_H 	H 	0.9995	0.5759	0.3571	0.009
Mof_C 	C 	0.1045	0.6636	0.352	-0.074
Mof_C 	C 	0.1467	0.6994	0.3172	0.088
Mof_C 	C 	0.1145	0.6709	0.2672	0.008
Mof_C 	C 	0.034	0.6083	0.2517	0.083
Mof_C 	C 	0.9904	0.5723	0.2852	-0.029
Mof_C 	C 	0.909	0.5019	0.2681	0.017
Mof_H 	H 	0.8795	0.5049	0.2377	0.049
Mof_C 	C 	0.9178	0.282	0.3408	-0.042
Mof_H 	H 	0.8577	0.2642	0.3225	-0.078
Mof_H 	H 	0.9284	0.3312	0.3639	0.029
Mof_C 	C 	0.9201	0.2273	0.3703	0.11
Mof_H 	H 	0.9096	0.1781	0.3472	0.001
Mof_H 	H 	0.9802	0.2451	0.3887	-0.016
Mof_C 	C 	0.851	0.2192	0.4061	-0.49
Mof_H 	H 	0.8551	0.1841	0.4238	0.2
Mof_H 	H 	0.8618	0.2676	0.4295	0.193
Mof_H 	H 	0.7912	0.2006	0.388	0.101
Mof_C 	C 	0.1538	0.4738	0.479	-0.214
Mof_H 	H 	0.0991	0.4758	0.4638	0.084
Mof_H 	H 	0.1385	0.4244	0.4847	0.09
Mof_C 	C 	0.1851	0.5335	0.5282	0.124
Mof_H 	H 	0.2072	0.5831	0.5222	-0.013
Mof_H 	H 	0.2354	0.5277	0.5452	-0.018
Mof_C 	C 	0.1094	0.5292	0.5618	-0.481
Mof_H 	H 	0.1324	0.5683	0.5928	0.152
Mof_H 	H 	0.06	0.5359	0.5454	0.158
Mof_H 	H 	0.0881	0.4806	0.5684	0.159
Mof_C 	C 	0.0694	0.681	0.4374	0.213
Mof_H 	H 	0.0244	0.6993	0.4263	2.29
Mof_H 	H 	0.0401	0.6278	0.4345	0.026
Mof_C 	C 	0.1068	0.724	0.4906	-1.214
Mof_H 	H 	0.1497	0.7739	0.4917	0.368
Mof_H 	H 	0.1401	0.6978	0.5036	-0.011
Mof_C 	C 	0.0348	0.732	0.5238	-0.045
Mof_H 	H 	0.063	0.7599	0.5574	0.142
Mof_H 	H 	0.0025	0.7591	0.5116	-2.683
Mof_H 	H 	0.9929	0.683	0.5236	-0.235
Mof_C 	C 	0.8397	0.493	0.3039	-0.222
Mof_H 	H 	0.8668	0.4914	0.335	0.079
Mof_H 	H 	0.7896	0.4452	0.2902	0.091
Mof_C 	C 	0.8032	0.5563	0.3148	0.123
Mof_H 	H 	0.7706	0.5549	0.2844	-0.008
Mof_H 	H 	0.8536	0.6046	0.3256	-0.034
Mof_C 	C 	0.7395	0.5497	0.3551	-0.479
Mof_H 	H 	0.7174	0.5907	0.3612	0.149
Mof_H 	H 	0.689	0.5023	0.3442	0.158
Mof_H 	H 	0.7719	0.5519	0.3854	0.151
Mof_N 	N 	0.5247	0.8664	0.4026	-0.273
Mof_C 	C 	0.531	0.8955	0.4523	-0
Mof_H 	H 	0.4999	0.8695	0.4743	0.021
Mof_C 	C 	0.5882	0.9666	0.4654	0.003
Mof_H 	H 	0.6037	0.999	0.4978	0.028
Mof_N 	N 	0.6184	0.983	0.4259	-0.121
Mof_C 	C 	0.5776	0.9227	0.3896	0.101
Mof_H 	H 	0.5863	0.9207	0.3563	-0.018
Mof_C 	C 	0.6729	0.0561	0.4229	-0.09
Mof_H 	H 	0.6932	0.0519	0.3899	0.054
Mof_H 	H 	0.7267	0.076	0.4473	0.051
Mof_C 	C 	0.6251	0.1103	0.4322	0.03
Mof_C 	C 	0.5447	0.0951	0.4067	-0.049
Mof_H 	H 	0.5216	0.0519	0.3796	0.044
Mof_C 	C 	0.4971	0.1394	0.4189	-0.084
Mof_H 	H 	0.4373	0.1235	0.4044	0.057
Mof_C 	C 	0.5358	0.2081	0.4526	0.06
Mof_C 	C 	0.6215	0.2266	0.4746	-0.085
Mof_H 	H 	0.6519	0.2747	0.4962	0.057
Mof_C 	C 	0.6617	0.177	0.4656	-0.049
Mof_H 	H 	0.7181	0.1893	0.4834	0.025
Mof_C 	C 	0.4824	0.2591	0.4675	-0.111
Mof_H 	H 	0.4176	0.2291	0.4616	0.075
Mof_H 	H 	0.4981	0.2859	0.5028	0.061
Mof_N 	N 	0.5034	0.3123	0.4382	-0.104
Mof_C 	C 	0.5748	0.3777	0.4479	-0.021
Mof_H 	H 	0.6227	0.3964	0.4735	0.045
Mof_C 	C 	0.5629	0.4105	0.4131	0.027
Mof_H 	H 	0.6002	0.4586	0.4118	-0.008
Mof_N 	N 	0.4917	0.3659	0.3812	-0.269
Mof_C 	C 	0.4563	0.3091	0.3971	0.103
Mof_H 	H 	0.4028	0.269	0.3817	-0.02
Mof_N 	N 	0.0344	0.668	0.1213	-0.26
Mof_C 	C 	0.9581	0.6161	0.0926	-0.021
Mof_H 	H 	0.9277	0.5672	0.0951	0.013
Mof_C 	C 	0.9344	0.6475	0.0602	0.021
Mof_H 	H 	0.8792	0.6275	0.0397	0.029
Mof_N 	N 	0.9964	0.707	0.0616	-0.125
Mof_C 	C 	0.062	0.7116	0.0944	0.106
Mof_H 	H 	0.1224	0.744	0.0971	-0.014
Mof_C 	C 	0.0032	0.7537	0.0291	-0.07
Mof_H 	H 	0.9732	0.7222	0.996	0.051
Mof_H 	H 	0.067	0.7792	0.026	0.051
Mof_C 	C 	0.9609	0.8118	0.0476	0.015
Mof_C 	C 	0.8786	0.8029	0.03	-0.053
Mof_H 	H 	0.8439	0.7578	0.0064	0.052
Mof_C 	C 	0.8439	0.8552	0.0444	-0.086
Mof_H 	H 	0.7846	0.846	0.0318	0.044
Mof_C 	C 	0.8927	0.9227	0.0776	0.062
Mof_C 	C 	0.9706	0.9259	0.101	-0.104
Mof_H 	H 	0.9965	0.9612	0.1317	0.06
Mof_C 	C 	0.0086	0.8786	0.0794	-0.022
Mof_H 	H 	0.0712	0.892	0.0865	0.039
Mof_C 	C 	0.8494	0.9808	0.0945	-0.117
Mof_H 	H 	0.789	0.9628	0.0764	0.056
Mof_H 	H 	0.8431	0.9887	0.13	0.057
Mof_N 	N 	0.905	0.0507	0.0855	-0.097
Mof_C 	C 	0.9273	0.0621	0.0417	-0.038
Mof_H 	H 	0.903	0.0295	0.0098	0.048
Mof_C 	C 	0.9931	0.1315	0.0537	0.068
Mof_H 	H 	0.0269	0.1513	0.0301	-0.005
Mof_N 	N 	0.0057	0.1675	0.0994	-0.284
Mof_C 	C 	0.958	0.1162	0.1194	0.077
Mof_H 	H 	0.9598	0.1233	0.1538	-0.001
Mof_N 	N 	0.2919	0.8857	0.2824	-0.106
Mof_C 	C 	0.3724	0.9429	0.2869	0.086
Mof_H 	H 	0.4288	0.9373	0.286	-0.015
Mof_C 	C 	0.3602	0.0089	0.293	-0.044
Mof_H 	H 	0.4046	0.0552	0.2934	0.043
Mof_N 	N 	0.2782	0.9963	0.2979	-0.105
Mof_C 	C 	0.2388	0.9212	0.2875	0.045
Mof_H 	H 	0.1758	0.8968	0.2843	-0
Mof_C 	C 	0.236	0.0483	0.2948	-0.019
Mof_H 	H 	0.1738	0.0201	0.2792	0.039
Mof_H 	H 	0.2678	0.0783	0.2732	0.046
Mof_C 	C 	0.235	0.1009	0.3442	-0.146
Mof_C 	C 	0.251	0.0863	0.3865	0.175
Mof_H 	H 	0.2731	0.0481	0.3862	-0.028
Mof_C 	C 	0.2349	0.1256	0.4292	-0.373
Mof_H 	H 	0.2392	0.1119	0.4586	0.15
Mof_C 	C 	0.2126	0.1857	0.4294	0.445
Mof_C 	C 	0.178	0.188	0.3846	-0.385
Mof_H 	H 	0.1329	0.2076	0.3821	0.155
Mof_C 	C 	0.2119	0.1597	0.346	0.192
Mof_H 	H 	0.2203	0.1813	0.3195	-0.046
Mof_C 	C 	0.192	0.2331	0.4756	-0.869
Mof_H 	H 	0.1508	0.2561	0.4667	0.2
Mof_H 	H 	0.1631	0.2018	0.4971	0.238
Mof_N 	N 	0.2751	0.29	0.5011	-0.933
Mof_C 	C 	0.3192	0.3516	0.4853	-0.118
Mof_H 	H 	0.3046	0.365	0.4573	0.077
Mof_C 	C 	0.3904	0.3882	0.5217	0.033
Mof_H 	H 	0.4351	0.4344	0.5222	-0.031
Mof_N 	N 	0.3921	0.355	0.5554	-0.12
Mof_C 	C 	0.3209	0.2963	0.545	-0.291
Mof_H 	H 	0.3024	0.2625	0.5643	0.029
Mof_H 	H 	0.6664	0.712	0.2757	0.032
Mof_H 	H 	0.9814	0.2396	0.2836	0.028
Mof_H 	H 	0.1813	0.7479	0.4114	0.023
Mof_C 	C 	0.532	0.7822	0.0869	-0.1
Mof_H 	H 	0.492	0.8089	0.0821	0.06
Mof_H 	H 	0.5597	0.8028	0.1214	0.023
Mof_C 	C 	0.745	0.7758	0.2078	0.525
Mof_H 	H 	0.7736	0.8058	0.2413	-0.136
Mof_H 	H 	0.6952	0.7916	0.2	-0.121
Mof_C 	C 	0.8231	0.232	0.3164	0.262
Mof_H 	H 	0.8059	0.2586	0.2953	-0.036
Mof_H 	H 	0.8204	0.1832	0.2952	-0.048
Mof_C 	C 	0.0256	0.7329	0.4444	-4.776
Mof_H 	H 	0.0645	0.7859	0.4517	1.593
Mof_H 	H 	0.9934	0.7177	0.411	0.524
Mof_C 	C 	0.959	0.723	0.4814	2.761
Mof_H 	H 	0.9227	0.7536	0.4799	-0.696
Mof_H 	H 	0.9194	0.671	0.4738	-0.925
Mof_H 	H 	0.9905	0.7391	0.5145	2.104
Mof_C 	C 	0.7574	0.219	0.3547	-0.551
Mof_H 	H 	0.6968	0.1906	0.338	0.185
Mof_H 	H 	0.774	0.1924	0.3752	0.165
Mof_H 	H 	0.7595	0.2676	0.3753	0.181
Mof_C 	C 	0.814	0.79	0.1704	-0.762
Mof_H 	H 	0.8369	0.843	0.1721	0.24
Mof_H 	H 	0.863	0.7752	0.1783	0.247
Mof_H 	H 	0.7846	0.761	0.1371	0.243
Mof_C 	C 	0.605	0.796	0.053	-0.428
Mof_H 	H 	0.6382	0.8499	0.0605	0.132
Mof_H 	H 	0.645	0.7712	0.0581	0.14
Mof_H 	H 	0.5773	0.7773	0.0188	0.183
Mof_C 	C 	0.474	0.6995	0.0782	-0.076
Mof_H 	H 	0.5134	0.671	0.0801	0.018
Mof_H 	H 	0.4398	0.6793	0.0453	0.08
Mof_C 	C 	0.7064	0.693	0.2061	0.003
Mof_H 	H 	0.7556	0.6775	0.2146	-0.064
Mof_H 	H 	0.6785	0.6629	0.1725	-0.048
Mof_C 	C 	0.9195	0.277	0.3417	-0.035
Mof_H 	H 	0.9219	0.326	0.3625	0.012
Mof_H 	H 	0.9358	0.2508	0.3633	-0.01
Mof_C 	C 	0.0833	0.6864	0.4456	-0.411
Mof_H 	H 	0.0445	0.6336	0.44	-0.075
Mof_H 	H 	0.1186	0.7036	0.4782	1
Mof_N 	N 	0.2436	0.1542	0.2214	-0.249
Mof_C 	C 	0.1608	0.0966	0.2102	0.012
Mof_C 	C 	0.1542	0.0254	0.1845	-0.036
Mof_C 	C 	0.2304	0.0119	0.17	-0.005
Mof_C 	C 	0.3132	0.0696	0.1812	-0.024
Mof_C 	C 	0.3198	0.1407	0.2069	0.011
Mof_N 	N 	0.928	0.3902	0.0587	-0.245
Mof_C 	C 	0.8612	0.3207	0.0511	0.003
Mof_C 	C 	0.7913	0.2962	0.0138	-0.033
Mof_C 	C 	0.7883	0.3411	0.984	0
Mof_C 	C 	0.8551	0.4105	0.9916	-0.025
Mof_C 	C 	0.925	0.4351	0.029	0.014
Mof_N 	N 	0.317	0.888	0.272	-0.168
Mof_N 	N 	0.391	0.3609	0.5584	-0.063
Mof_C 	C 	0.4	0.3949	0.5208	0.106
Mof_C 	C 	0.3318	0.369	0.4823	-0.185
Mof_C 	C 	0.2545	0.309	0.4816	0.748
Mof_C 	C 	0.2455	0.2749	0.5192	1.048
Mof_C 	C 	0.314	0.301	0.5577	0.03
Mof_Zn	Zn	0.97356	0.5745	0.88562	1.22
Mof_O 	O 	0.8737	0.5892	0.9264	-0.342
Mof_C 	C 	0.649	0.4471	0.9175	-0.06
Mof_H 	H 	0.5903	0.4427	0.9249	0.041
Mof_Zn	Zn	0.89425	0.36417	0.83509	1.218
Mof_O 	O 	0.8992	0.4657	0.8767	-0.511
Mof_C 	C 	0.7175	0.519	0.9296	-0.023
Mof_Zn	Zn	0.71628	0.22194	0.73178	1.217
Mof_O 	O 	0.7712	0.3297	0.8608	-0.343
Mof_C 	C 	0.8028	0.523	0.9166	0.074
Mof_Zn	Zn	0.54831	0.23316	0.63947	1.219
Mof_O 	O 	0.6608	0.2402	0.7962	-0.336
Mof_C 	C 	0.8195	0.4589	0.8914	0.03
Mof_Zn	Zn	0.49032	0.38997	0.61206	1.214
Mof_O 	O 	0.6007	0.226	0.704	-0.514
Mof_C 	C 	0.7498	0.3885	0.882	0.081
Mof_Zn	Zn	0.57212	0.59953	0.66442	1.217
Mof_O 	O 	0.4543	0.2536	0.6826	-0.339
Mof_C 	C 	0.6651	0.3834	0.8952	-0.012
Mof_Zn	Zn	0.75041	0.74145	0.76759	1.219
Mof_O 	O 	0.4154	0.3513	0.6651	-0.346
Mof_C 	C 	0.5898	0.3078	0.8817	-0.031
Mof_H 	H 	0.6184	0.2708	0.882	0.065
Mof_Zn	Zn	0.91737	0.73233	0.86006	1.219
Mof_O 	O 	0.5014	0.4903	0.6568	-0.521
Mof_C 	C 	0.4763	0.3097	0.8173	-0.086
Mof_H 	H 	0.4507	0.3324	0.8436	0.051
Mof_O 	O 	0.5183	0.6106	0.7296	-0.351
Mof_C 	C 	0.548	0.2892	0.8286	0
Mof_O 	O 	0.6309	0.699	0.7944	-0.343
Mof_C 	C 	0.5864	0.2595	0.7901	0.056
Mof_O 	O 	0.7995	0.7284	0.8309	-0.513
Mof_C 	C 	0.5575	0.2488	0.7402	0.051
Mof_O 	O 	0.8377	0.6891	0.9095	-0.347
Mof_C 	C 	0.4816	0.2671	0.7322	0.049
Mof_O 	O 	0.0419	0.547	0.8291	-0.356
Mof_C 	C 	0.4404	0.2984	0.769	0.025
Mof_O 	O 	0.9774	0.6568	0.8546	-0.519
Mof_C 	C 	0.3641	0.3215	0.7573	-0.083
Mof_H 	H 	0.3318	0.2875	0.7248	0.035
Mof_O 	O 	0.9727	0.7416	0.7954	-0.333
Mof_C 	C 	0.4188	0.4622	0.7892	-0.068
Mof_H 	H 	0.4033	0.4555	0.8203	0.041
Mof_O 	O 	0.8662	0.7479	0.7374	-0.341
Mof_C 	C 	0.4042	0.401	0.751	0.006
Mof_O 	O 	0.6946	0.6735	0.6986	-0.511
Mof_C 	C 	0.4276	0.4096	0.7061	0.061
Mof_O 	O 	0.6493	0.5701	0.6105	-0.335
Mof_C 	C 	0.4689	0.4812	0.6992	0.021
Mof_O 	O 	0.596	0.4389	0.57666	-0.337
Mof_C 	C 	0.4799	0.5437	0.7385	0.081
Mof_O 	O 	0.5553	0.3172	0.6086	-0.516
Mof_C 	C 	0.4557	0.5352	0.7849	-0.023
Mof_O 	O 	0.6693	0.2471	0.6122	-0.336
Mof_C 	C 	0.477	0.6043	0.8274	0.026
Mof_H 	H 	0.4755	0.6449	0.8132	0.05
Mof_O 	O 	0.7749	0.2402	0.6701	-0.351
Mof_C 	C 	0.5901	0.6031	0.8911	-0.051
Mof_H 	H 	0.5419	0.5718	0.9036	0.034
Mof_O 	O 	0.8392	0.2983	0.7663	-0.509
Mof_C 	C 	0.5722	0.6287	0.8526	-0.031
Mof_O 	O 	0.9928	0.4137	0.7976	-0.353
Mof_C 	C 	0.643	0.6735	0.8336	0.08
Mof_C 	C 	0.7309	0.691	0.852	0.023
Mof_C 	C 	0.7496	0.667	0.8921	0.081
Mof_C 	C 	0.6797	0.6229	0.9125	-0.037
Mof_C 	C 	0.7009	0.5919	0.9522	0.03
Mof_H 	H 	0.7591	0.6287	0.9708	0.045
Mof_C 	C 	0.5164	0.2946	0.9157	-0.063
Mof_H 	H 	0.492	0.3347	0.921	0.023
Mof_H 	H 	0.4672	0.2468	0.9004	0.116
Mof_C 	C 	0.5558	0.2933	0.965	-0.009
Mof_H 	H 	0.591	0.3448	0.9844	-0
Mof_H 	H 	0.5968	0.2657	0.9589	0.032
Mof_C 	C 	0.485	0.258	0.9941	-0.465
Mof_H 	H 	0.5127	0.2581	0.0252	0.151
Mof_H 	H 	0.4504	0.2064	0.9752	0.131
Mof_H 	H 	0.4446	0.2856	0.0008	0.131
Mof_C 	C 	0.294	0.319	0.7942	0.072
Mof_H 	H 	0.3244	0.3544	0.8261	0.05
Mof_H 	H 	0.2727	0.2684	0.7993	-0.211
Mof_C 	C 	0.2129	0.335	0.7805	0.144
Mof_H 	H 	0.1755	0.3333	0.8078	-0.024
Mof_H 	H 	0.2338	0.3864	0.7775	-0.016
Mof_C 	C 	0.154	0.283	0.7326	-0.47
Mof_H 	H 	0.1034	0.298	0.7272	0.15
Mof_H 	H 	0.1305	0.2316	0.7354	0.152
Mof_H 	H 	0.189	0.2848	0.7049	0.159
Mof_C 	C 	0.4068	0.5963	0.8643	-0.257
Mof_H 	H 	0.4261	0.6425	0.8917	0.094
Mof_H 	H 	0.4052	0.5552	0.8781	0.09
Mof_C 	C 	0.3119	0.5812	0.8423	0.222
Mof_H 	H 	0.2902	0.5338	0.8158	-0.037
Mof_H 	H 	0.3123	0.6215	0.8278	-0.038
Mof_C 	C 	0.2516	0.5769	0.881	-0.609
Mof_H 	H 	0.1911	0.5672	0.8669	0.211
Mof_H 	H 	0.2729	0.6241	0.9069	0.201
Mof_H 	H 	0.2509	0.5366	0.8949	0.196
Mof_C 	C 	0.6333	0.5839	0.9898	-0.264
Mof_H 	H 	0.6217	0.6306	0.0015	0.09
Mof_H 	H 	0.5761	0.5433	0.9745	0.088
Mof_C 	C 	0.6725	0.5665	0.0333	0.238
Mof_H 	H 	0.7326	0.6045	0.0463	-0.05
Mof_H 	H 	0.6787	0.5176	0.022	-0.047
Mof_C 	C 	0.6147	0.5658	0.0719	-0.608
Mof_H 	H 	0.6401	0.5547	0.0993	0.188
Mof_H 	H 	0.5555	0.5276	0.0591	0.187
Mof_H 	H 	0.6093	0.6144	0.0833	0.19
Mof_C 	C 	0.0563	0.6065	0.7158	-0.066
Mof_H 	H 	0.0715	0.5941	0.6834	0.045
Mof_C 	C 	0.0647	0.5646	0.7471	-0.019
Mof_C 	C 	0.0386	0.584	0.7947	0.07
Mof_C 	C 	0.0056	0.6415	0.8102	0.038
Mof_C 	C 	0.0043	0.6825	0.7766	0.058
Mof_C 	C 	0.0265	0.6661	0.7302	0.001
Mof_C 	C 	0.0123	0.7102	0.6952	-0.025
Mof_H 	H 	0.0203	0.7612	0.7157	0.031
Mof_C 	C 	0.8911	0.6169	0.6257	-0.075
Mof_H 	H 	0.9356	0.602	0.6095	0.047
Mof_C 	C 	0.9173	0.6744	0.67	-0.008
Mof_C 	C 	0.8494	0.6928	0.6926	0.059
Mof_C 	C 	0.7586	0.6577	0.6734	0.031
Mof_C 	C 	0.7373	0.6024	0.6287	0.064
Mof_C 	C 	0.8031	0.5815	0.6049	-0.023
Mof_C 	C 	0.7735	0.5162	0.5572	-0.004
Mof_H 	H 	0.7184	0.5166	0.5406	0.053
Mof_C 	C 	0.8104	0.4082	0.5741	-0.099
Mof_H 	H 	0.8697	0.4296	0.5668	0.054
Mof_C 	C 	0.7491	0.4439	0.5702	0.001
Mof_C 	C 	0.6608	0.4099	0.5796	0.06
Mof_C 	C 	0.6363	0.3446	0.5957	0.045
Mof_C 	C 	0.6997	0.3123	0.5988	0.053
Mof_C 	C 	0.7864	0.3434	0.5881	0.017
Mof_C 	C 	0.8537	0.3063	0.5944	-0.144
Mof_H 	H 	0.8203	0.2516	0.5874	0.034
Mof_C 	C 	0.9717	0.3989	0.6657	-0.086
Mof_H 	H 	0.0005	0.4241	0.6429	0.009
Mof_C 	C 	0.8955	0.3364	0.648	-0.074
Mof_C 	C 	0.8533	0.3006	0.6828	0.088
Mof_C 	C 	0.8855	0.3291	0.7328	0.008
Mof_C 	C 	0.966	0.3917	0.7483	0.083
Mof_C 	C 	0.0096	0.4277	0.7148	-0.029
Mof_C 	C 	0.091	0.4981	0.7319	0.017
Mof_H 	H 	0.1205	0.4951	0.7623	0.049
Mof_C 	C 	0.0822	0.718	0.6592	-0.042
Mof_H 	H 	0.1423	0.7358	0.6775	-0.078
Mof_H 	H 	0.0716	0.6688	0.6361	0.029
Mof_C 	C 	0.0799	0.7727	0.6297	0.11
Mof_H 	H 	0.0904	0.8219	0.6528	0.001
Mof_H 	H 	0.0198	0.7549	0.6113	-0.016
Mof_C 	C 	0.149	0.7808	0.5939	-0.49
Mof_H 	H 	0.1449	0.8159	0.5762	0.2
Mof_H 	H 	0.1382	0.7324	0.5705	0.193
Mof_H 	H 	0.2088	0.7994	0.612	0.101
Mof_C 	C 	0.8462	0.5262	0.521	-0.214
Mof_H 	H 	0.9009	0.5242	0.5362	0.084
Mof_H 	H 	0.8615	0.5756	0.5153	0.09
Mof_C 	C 	0.8149	0.4665	0.4718	0.124
Mof_H 	H 	0.7928	0.4169	0.4778	-0.013
Mof_H 	H 	0.7646	0.4723	0.4548	-0.018
Mof_C 	C 	0.8906	0.4708	0.4382	-0.481
Mof_H 	H 	0.8676	0.4317	0.4072	0.152
Mof_H 	H 	0.94	0.4641	0.4546	0.158
Mof_H 	H 	0.9119	0.5194	0.4316	0.159
Mof_C 	C 	0.9306	0.319	0.5626	0.213
Mof_H 	H 	0.9756	0.3007	0.5737	2.29
Mof_H 	H 	0.9599	0.3722	0.5655	0.026
Mof_C 	C 	0.8932	0.276	0.5094	-1.214
Mof_H 	H 	0.8503	0.2261	0.5083	0.368
Mof_H 	H 	0.8599	0.3022	0.4964	-0.011
Mof_C 	C 	0.9652	0.268	0.4762	-0.045
Mof_H 	H 	0.937	0.2401	0.4426	0.142
Mof_H 	H 	0.9975	0.2409	0.4884	-2.683
Mof_H 	H 	0.0071	0.317	0.4764	-0.235
Mof_C 	C 	0.1603	0.507	0.6961	-0.222
Mof_H 	H 	0.1332	0.5086	0.665	0.079
Mof_H 	H 	0.2104	0.5548	0.7098	0.091
Mof_C 	C 	0.1968	0.4437	0.6852	0.123
Mof_H 	H 	0.2294	0.4451	0.7156	-0.008
Mof_H 	H 	0.1464	0.3954	0.6744	-0.034
Mof_C 	C 	0.2605	0.4503	0.6449	-0.479
Mof_H 	H 	0.2826	0.4093	0.6388	0.149
Mof_H 	H 	0.311	0.4977	0.6558	0.158
Mof_H 	H 	0.2281	0.4481	0.6146	0.151
Mof_N 	N 	0.4753	0.1336	0.5974	-0.273
Mof_C 	C 	0.469	0.1045	0.5477	-0
Mof_H 	H 	0.5001	0.1305	0.5257	0.021
Mof_C 	C 	0.4118	0.0334	0.5346	0.003
Mof_H 	H 	0.3963	0.001	0.5022	0.028
Mof_N 	N 	0.3816	0.017	0.5741	-0.121
Mof_C 	C 	0.4224	0.0773	0.6104	0.101
Mof_H 	H 	0.4137	0.0793	0.6437	-0.018
Mof_C 	C 	0.3271	0.9439	0.5771	-0.09
Mof_H 	H 	0.3068	0.9481	0.6101	0.054
Mof_H 	H 	0.2733	0.924	0.5527	0.051
Mof_C 	C 	0.3749	0.8897	0.5678	0.03
Mof_C 	C 	0.4553	0.9049	0.5933	-0.049
Mof_H 	H 	0.4784	0.9481	0.6204	0.044
Mof_C 	C 	0.5029	0.8606	0.5811	-0.084
Mof_H 	H 	0.5627	0.8765	0.5956	0.057
Mof_C 	C 	0.4642	0.7919	0.5474	0.06
Mof_C 	C 	0.3785	0.7734	0.5254	-0.085
Mof_H 	H 	0.3481	0.7253	0.5038	0.057
Mof_C 	C 	0.3383	0.823	0.5344	-0.049
Mof_H 	H 	0.2819	0.8107	0.5166	0.025
Mof_C 	C 	0.5176	0.7409	0.5325	-0.111
Mof_H 	H 	0.5824	0.7709	0.5384	0.075
Mof_H 	H 	0.5019	0.7141	0.4972	0.061
Mof_N 	N 	0.4966	0.6877	0.5618	-0.104
Mof_C 	C 	0.4252	0.6223	0.5521	-0.021
Mof_H 	H 	0.3773	0.6036	0.5265	0.045
Mof_C 	C 	0.4371	0.5895	0.5869	0.027
Mof_H 	H 	0.3998	0.5414	0.5882	-0.008
Mof_N 	N 	0.5083	0.6341	0.6188	-0.269
Mof_C 	C 	0.5437	0.6909	0.6029	0.103
Mof_H 	H 	0.5972	0.731	0.6183	-0.02
Mof_N 	N 	0.9656	0.332	0.8787	-0.26
Mof_C 	C 	0.0419	0.3839	0.9074	-0.021
Mof_H 	H 	0.0723	0.4328	0.9049	0.013
Mof_C 	C 	0.0656	0.3525	0.9398	0.021
Mof_H 	H 	0.1208	0.3725	0.9603	0.029
Mof_N 	N 	0.0036	0.293	0.9384	-0.125
Mof_C 	C 	0.938	0.2884	0.9056	0.106
Mof_H 	H 	0.8776	0.256	0.9029	-0.014
Mof_C 	C 	0.9968	0.2463	0.9709	-0.07
Mof_H 	H 	0.0268	0.2778	0.004	0.051
Mof_H 	H 	0.933	0.2208	0.974	0.051
Mof_C 	C 	0.0391	0.1882	0.9524	0.015
Mof_C 	C 	0.1214	0.1971	0.97	-0.053
Mof_H 	H 	0.1561	0.2422	0.9936	0.052
Mof_C 	C 	0.1561	0.1448	0.9556	-0.086
Mof_H 	H 	0.2154	0.154	0.9682	0.044
Mof_C 	C 	0.1073	0.0773	0.9224	0.062
Mof_C 	C 	0.0294	0.0741	0.899	-0.104
Mof_H 	H 	0.0035	0.0388	0.8683	0.06
Mof_C 	C 	0.9914	0.1214	0.9206	-0.022
Mof_H 	H 	0.9288	0.108	0.9135	0.039
Mof_C 	C 	0.1506	0.0192	0.9055	-0.117
Mof_H 	H 	0.211	0.0372	0.9236	0.056
Mof_H 	H 	0.1569	0.0113	0.87	0.057
Mof_N 	N 	0.095	0.9493	0.9145	-0.097
Mof_C 	C 	0.0727	0.9379	0.9583	-0.038
Mof_H 	H 	0.097	0.9705	0.9902	0.048
Mof_C 	C 	0.0069	0.8685	0.9463	0.068
Mof_H 	H 	0.9731	0.8487	0.9699	-0.005
Mof_N 	N 	0.9943	0.8325	0.9006	-0.284
Mof_C 	C 	0.042	0.8838	0.8806	0.077
Mof_H 	H 	0.0402	0.8767	0.8462	-0.001
Mof_N 	N 	0.7081	0.1143	0.7176	-0.106
Mof_C 	C 	0.6276	0.0571	0.7131	0.086
Mof_H 	H 	0.5712	0.0627	0.714	-0.015
Mof_C 	C 	0.6398	0.9911	0.707	-0.044
Mof_H 	H 	0.5954	0.9448	0.7066	0.043
Mof_N 	N 	0.7218	0.0037	0.7021	-0.105
Mof_C 	C 	0.7612	0.0788	0.7125	0.045
Mof_H 	H 	0.8242	0.1032	0.7157	-0
Mof_C 	C 	0.764	0.9517	0.7052	-0.019
Mof_H 	H 	0.8262	0.9799	0.7208	0.039
Mof_H 	H 	0.7322	0.9217	0.7268	0.046
Mof_C 	C 	0.765	0.8991	0.6558	-0.146
Mof_C 	C 	0.749	0.9137	0.6135	0.175
Mof_H 	H 	0.7269	0.9519	0.6138	-0.028
Mof_C 	C 	0.7651	0.8744	0.5708	-0.373
Mof_H 	H 	0.7608	0.8881	0.5414	0.15
Mof_C 	C 	0.7874	0.8143	0.5706	0.445
Mof_C 	C 	0.822	0.812	0.6154	-0.385
Mof_H 	H 	0.8671	0.7924	0.6179	0.155
Mof_C 	C 	0.7881	0.8403	0.654	0.192
Mof_H 	H 	0.7797	0.8187	0.6805	-0.046
Mof_C 	C 	0.808	0.7669	0.5244	-0.869
Mof_H 	H 	0.8492	0.7439	0.5333	0.2
Mof_H 	H 	0.8369	0.7982	0.5029	0.238
Mof_N 	N 	0.7249	0.71	0.4989	-0.933
Mof_C 	C 	0.6808	0.6484	0.5147	-0.118
Mof_H 	H 	0.6954	0.635	0.5427	0.077
Mof_C 	C 	0.6096	0.6118	0.4783	0.033
Mof_H 	H 	0.5649	0.5656	0.4778	-0.031
Mof_N 	N 	0.6079	0.645	0.4446	-0.12
Mof_C 	C 	0.6791	0.7037	0.455	-0.291
Mof_H 	H 	0.6976	0.7375	0.4357	0.029
Mof_H 	H 	0.3336	0.288	0.7243	0.032
Mof_H 	H 	0.0186	0.7604	0.7164	0.028
Mof_H 	H 	0.8187	0.2521	0.5886	0.023
Mof_C 	C 	0.468	0.2178	0.9131	-0.1
Mof_H 	H 	0.508	0.1911	0.9179	0.06
Mof_H 	H 	0.4403	0.1972	0.8786	0.023
Mof_C 	C 	0.255	0.2242	0.7922	0.525
Mof_H 	H 	0.2264	0.1942	0.7587	-0.136
Mof_H 	H 	0.3048	0.2084	0.8	-0.121
Mof_C 	C 	0.1769	0.768	0.6836	0.262
Mof_H 	H 	0.1941	0.7414	0.7047	-0.036
Mof_H 	H 	0.1796	0.8168	0.7048	-0.048
Mof_C 	C 	0.9744	0.2671	0.5556	-4.776
Mof_H 	H 	0.9355	0.2141	0.5483	1.593
Mof_H 	H 	0.0066	0.2823	0.589	0.524
Mof_C 	C 	0.041	0.277	0.5186	2.761
Mof_H 	H 	0.0773	0.2464	0.5201	-0.696
Mof_H 	H 	0.0806	0.329	0.5262	-0.925
Mof_H 	H 	0.0095	0.2609	0.4855	2.104
Mof_C 	C 	0.2426	0.781	0.6453	-0.551
Mof_H 	H 	0.3032	0.8094	0.662	0.185
Mof_H 	H 	0.226	0.8076	0.6248	0.165
Mof_H 	H 	0.2405	0.7324	0.6247	0.181
Mof_C 	C 	0.186	0.21	0.8296	-0.762
Mof_H 	H 	0.1631	0.157	0.8279	0.24
Mof_H 	H 	0.137	0.2248	0.8217	0.247
Mof_H 	H 	0.2154	0.239	0.8629	0.243
Mof_C 	C 	0.395	0.204	0.947	-0.428
Mof_H 	H 	0.3618	0.1501	0.9395	0.132
Mof_H 	H 	0.355	0.2288	0.9419	0.14
Mof_H 	H 	0.4227	0.2227	0.9812	0.183
Mof_C 	C 	0.526	0.3005	0.9218	-0.076
Mof_H 	H 	0.4866	0.329	0.9199	0.018
Mof_H 	H 	0.5602	0.3207	0.9547	0.08
Mof_C 	C 	0.2936	0.307	0.7939	0.003
Mof_H 	H 	0.2444	0.3225	0.7854	-0.064
Mof_H 	H 	0.3215	0.3371	0.8275	-0.048
Mof_C 	C 	0.0805	0.723	0.6583	-0.035
Mof_H 	H 	0.0781	0.674	0.6375	0.012
Mof_H 	H 	0.0642	0.7492	0.6367	-0.01
Mof_C 	C 	0.9167	0.3136	0.5544	-0.411
Mof_H 	H 	0.9555	0.3664	0.56	-0.075
Mof_H 	H 	0.8814	0.2964	0.5218	1
Mof_N 	N 	0.7564	0.8458	0.7786	-0.249
Mof_C 	C 	0.8392	0.9034	0.7898	0.012
Mof_C 	C 	0.8458	0.9746	0.8155	-0.036
Mof_C 	C 	0.7696	0.9881	0.83	-0.005
Mof_C 	C 	0.6868	0.9304	0.8188	-0.024
Mof_C 	C 	0.6802	0.8593	0.7931	0.011
Mof_N 	N 	0.072	0.6098	0.9413	-0.245
Mof_C 	C 	0.1388	0.6793	0.9489	0.003
Mof_C 	C 	0.2087	0.7038	0.9862	-0.033
Mof_C 	C 	0.2117	0.6589	0.016	0
Mof_C 	C 	0.1449	0.5895	0.0084	-0.025
Mof_C 	C 	0.075	0.5649	0.971	0.014
Mof_N 	N 	0.683	0.112	0.728	-0.168
Mof_N 	N 	0.609	0.6391	0.4416	-0.063
Mof_C 	C 	0.6	0.6051	0.4792	0.106
Mof_C 	C 	0.6682	0.631	0.5177	-0.185
Mof_C 	C 	0.7455	0.691	0.5184	0.748
Mof_C 	C 	0.7545	0.7251	0.4808	1.048
Mof_C 	C 	0.686	0.699	0.4423	0.03
_end
