data_functionalizedCrystal
_audit_creation_method	'EQeq! by Chris Wilmer'
_symmetry_space_group_name_H-M	'P1'
_symmetry_Int_Tables_number	1
_symmetry_cell_setting	triclinic
loop_
_symmetry_equiv_pos_as_xyz
  x,y,z
_cell_length_a	11.621
_cell_length_b	11.941
_cell_length_c	22.698
_cell_angle_alpha	90
_cell_angle_beta	94.33
_cell_angle_gamma	90
loop_
_atom_site_label
_atom_site_type_symbol
_atom_site_fract_x
_atom_site_fract_y
_atom_site_fract_z
_atom_site_charge
Mof_Co	Co	0.6157	0.9796	0.5347	0.678
Mof_Co	Co	0.4724	0.7299	0.5217	1.031
Mof_Co	Co	0.3846	0.5078	0.4571	0.578
Mof_O 	O 	0.7171	0.8393	0.5519	-0.457
Mof_O 	O 	0.6508	0.6716	0.5231	-0.476
Mof_O 	O 	0.2883	0.7398	0.5266	-0.378
Mof_O 	O 	0.2365	0.5808	0.4789	-0.297
Mof_O 	O 	0.6998	0.0161	0.4513	-0.318
Mof_H 	H 	0.718	0.0822	0.453	0.211
Mof_O 	O 	0.4896	0.8861	0.4881	-0.402
Mof_H 	H 	0.524	0.863	0.4608	0.033
Mof_O 	O 	0.4574	0.563	0.5418	-0.517
Mof_H 	H 	0.426	0.556	0.5723	0.249
Mof_O 	O 	0.4584	0.667	0.4294	-0.551
Mof_O 	O 	0.5925	0.7839	0.401	-0.374
Mof_O 	O 	0.5354	0.5406	0.1147	-0.128
Mof_O 	O 	0.4847	0.7218	0.1112	-0.199
Mof_N 	N 	0.3099	0.4803	0.3711	-0.087
Mof_N 	N 	0.2811	0.4434	0.2776	-0.061
Mof_N 	N 	0.194	0.5135	0.2897	-0.042
Mof_N 	N 	0.9358	0.3885	0.1043	-0.096
Mof_N 	N 	0.8727	0.2988	0.1184	-0.092
Mof_N 	N 	0.7589	0.4316	0.0751	-0.105
Mof_C 	C 	0.732	0.7389	0.5393	0.473
Mof_C 	C 	0.8554	0.7026	0.5399	-0.212
Mof_C 	C 	0.8915	0.6496	0.4915	0.003
Mof_H 	H 	0.8372	0.6221	0.4629	-0.028
Mof_C 	C 	0.0094	0.636	0.4842	-0.011
Mof_H 	H 	0.0317	0.598	0.4511	0.06
Mof_C 	C 	0.0924	0.6769	0.5244	-0.014
Mof_C 	C 	0.0589	0.7267	0.5778	-0.016
Mof_C 	C 	0.1393	0.7625	0.6245	-0.043
Mof_H 	H 	0.2179	0.7574	0.6198	0.079
Mof_C 	C 	0.1033	0.8042	0.6758	-0.057
Mof_H 	H 	0.1576	0.8263	0.7058	0.061
Mof_C 	C 	0.985	0.8141	0.684	0.015
Mof_H 	H 	0.9614	0.8432	0.7192	0.025
Mof_C 	C 	0.905	0.781	0.6404	-0.129
Mof_H 	H 	0.8269	0.7872	0.6464	0.083
Mof_C 	C 	0.9382	0.7376	0.5864	0.118
Mof_C 	C 	0.216	0.6656	0.5096	0.364
Mof_C 	C 	0.5224	0.7074	0.3915	0.287
Mof_C 	C 	0.5104	0.668	0.3276	-0.135
Mof_C 	C 	0.4268	0.7148	0.2895	0.038
Mof_H 	H 	0.3678	0.7563	0.3043	0.014
Mof_C 	C 	0.4297	0.7004	0.2286	-0.117
Mof_H 	H 	0.3736	0.735	0.2035	0.075
Mof_C 	C 	0.5127	0.6368	0.2047	-0.02
Mof_C 	C 	0.5992	0.5829	0.2432	-0.003
Mof_C 	C 	0.6908	0.5192	0.2225	-0.013
Mof_H 	H 	0.6929	0.5062	0.1822	0.028
Mof_C 	C 	0.7759	0.4767	0.2607	-0.037
Mof_H 	H 	0.8345	0.4341	0.2462	0.047
Mof_C 	C 	0.7759	0.4963	0.3216	0.006
Mof_H 	H 	0.8352	0.4682	0.3472	0.02
Mof_C 	C 	0.6893	0.5564	0.3431	-0.076
Mof_H 	H 	0.6898	0.5686	0.3836	0.044
Mof_C 	C 	0.5983	0.6008	0.3053	0.059
Mof_C 	C 	0.512	0.6327	0.1381	0.225
Mof_C 	C 	0.2151	0.5334	0.3458	0.032
Mof_H 	H 	0.1691	0.5802	0.367	0.033
Mof_C 	C 	0.348	0.4242	0.3263	0.013
Mof_H 	H 	0.4126	0.378	0.3287	0.063
Mof_C 	C 	0.2919	0.4033	0.2169	-0.102
Mof_H 	H 	0.2809	0.466	0.1899	0.06
Mof_H 	H 	0.3694	0.3748	0.2139	0.097
Mof_C 	C 	0.2118	0.3187	0.1998	-0.035
Mof_H 	H 	0.2114	0.2651	0.2319	0.039
Mof_H 	H 	0.2399	0.2797	0.1662	0.043
Mof_C 	C 	0.0921	0.3521	0.1838	-0.147
Mof_H 	H 	0.0734	0.4139	0.2092	0.085
Mof_H 	H 	0.0423	0.29	0.1925	0.084
Mof_C 	C 	0.0619	0.3885	0.1178	-0.014
Mof_H 	H 	0.0923	0.4629	0.1114	0.032
Mof_H 	H 	0.0976	0.3371	0.0915	0.054
Mof_C 	C 	0.8685	0.4659	0.0786	0.139
Mof_H 	H 	0.8937	0.5344	0.0649	-0.045
Mof_C 	C 	0.7675	0.3288	0.0996	0.092
Mof_H 	H 	0.7038	0.2826	0.1028	0.036
Mof_Co	Co	0.3843	0.9796	0.4653	0.679
Mof_Co	Co	0.5276	0.7299	0.4783	1.032
Mof_Co	Co	0.6154	0.5078	0.5429	0.579
Mof_O 	O 	0.2829	0.8393	0.4481	-0.456
Mof_O 	O 	0.3492	0.6716	0.4769	-0.475
Mof_O 	O 	0.7117	0.7398	0.4734	-0.377
Mof_O 	O 	0.7635	0.5808	0.5211	-0.296
Mof_O 	O 	0.3002	0.0161	0.5487	-0.317
Mof_H 	H 	0.282	0.0822	0.547	0.212
Mof_O 	O 	0.5104	0.8861	0.5119	-0.401
Mof_H 	H 	0.476	0.863	0.5392	0.034
Mof_O 	O 	0.5426	0.563	0.4582	-0.516
Mof_H 	H 	0.574	0.556	0.4277	0.25
Mof_O 	O 	0.5416	0.667	0.5706	-0.55
Mof_O 	O 	0.4075	0.7839	0.599	-0.373
Mof_O 	O 	0.4646	0.5406	0.8853	-0.127
Mof_O 	O 	0.5153	0.7218	0.8888	-0.198
Mof_N 	N 	0.6901	0.4803	0.6289	-0.086
Mof_N 	N 	0.7189	0.4434	0.7224	-0.06
Mof_N 	N 	0.806	0.5135	0.7103	-0.041
Mof_N 	N 	0.0642	0.3885	0.8957	-0.096
Mof_N 	N 	0.1273	0.2988	0.8816	-0.092
Mof_N 	N 	0.2411	0.4316	0.9249	-0.105
Mof_C 	C 	0.268	0.7389	0.4607	0.473
Mof_C 	C 	0.1446	0.7026	0.4601	-0.212
Mof_C 	C 	0.1085	0.6496	0.5085	0.003
Mof_H 	H 	0.1628	0.6221	0.5371	-0.028
Mof_C 	C 	0.9906	0.636	0.5158	-0.011
Mof_H 	H 	0.9683	0.598	0.5489	0.06
Mof_C 	C 	0.9076	0.6769	0.4756	-0.014
Mof_C 	C 	0.9411	0.7267	0.4222	-0.016
Mof_C 	C 	0.8607	0.7625	0.3755	-0.043
Mof_H 	H 	0.7821	0.7574	0.3802	0.079
Mof_C 	C 	0.8967	0.8042	0.3242	-0.057
Mof_H 	H 	0.8424	0.8263	0.2942	0.061
Mof_C 	C 	0.015	0.8141	0.316	0.015
Mof_H 	H 	0.0386	0.8432	0.2808	0.025
Mof_C 	C 	0.095	0.781	0.3596	-0.129
Mof_H 	H 	0.1731	0.7872	0.3536	0.083
Mof_C 	C 	0.0618	0.7376	0.4136	0.118
Mof_C 	C 	0.784	0.6656	0.4904	0.364
Mof_C 	C 	0.4776	0.7074	0.6085	0.287
Mof_C 	C 	0.4896	0.668	0.6724	-0.135
Mof_C 	C 	0.5732	0.7148	0.7105	0.038
Mof_H 	H 	0.6322	0.7563	0.6957	0.014
Mof_C 	C 	0.5703	0.7004	0.7714	-0.117
Mof_H 	H 	0.6264	0.735	0.7965	0.075
Mof_C 	C 	0.4873	0.6368	0.7953	-0.02
Mof_C 	C 	0.4008	0.5829	0.7568	-0.003
Mof_C 	C 	0.3092	0.5192	0.7775	-0.013
Mof_H 	H 	0.3071	0.5062	0.8178	0.028
Mof_C 	C 	0.2241	0.4767	0.7393	-0.037
Mof_H 	H 	0.1655	0.4341	0.7538	0.047
Mof_C 	C 	0.2241	0.4963	0.6784	0.006
Mof_H 	H 	0.1648	0.4682	0.6528	0.02
Mof_C 	C 	0.3107	0.5564	0.6569	-0.076
Mof_H 	H 	0.3102	0.5686	0.6164	0.044
Mof_C 	C 	0.4017	0.6008	0.6947	0.059
Mof_C 	C 	0.488	0.6327	0.8619	0.225
Mof_C 	C 	0.7849	0.5334	0.6542	0.032
Mof_H 	H 	0.8309	0.5802	0.633	0.033
Mof_C 	C 	0.652	0.4242	0.6737	0.013
Mof_H 	H 	0.5874	0.378	0.6713	0.063
Mof_C 	C 	0.7081	0.4033	0.7831	-0.102
Mof_H 	H 	0.7191	0.466	0.8101	0.06
Mof_H 	H 	0.6306	0.3748	0.7861	0.097
Mof_C 	C 	0.7882	0.3187	0.8002	-0.035
Mof_H 	H 	0.7886	0.2651	0.7681	0.039
Mof_H 	H 	0.7601	0.2797	0.8338	0.043
Mof_C 	C 	0.9079	0.3521	0.8162	-0.147
Mof_H 	H 	0.9266	0.4139	0.7908	0.085
Mof_H 	H 	0.9577	0.29	0.8075	0.084
Mof_C 	C 	0.9381	0.3885	0.8822	-0.014
Mof_H 	H 	0.9077	0.4629	0.8886	0.032
Mof_H 	H 	0.9024	0.3371	0.9085	0.054
Mof_C 	C 	0.1315	0.4659	0.9214	0.139
Mof_H 	H 	0.1063	0.5344	0.9351	-0.045
Mof_C 	C 	0.2325	0.3288	0.9004	0.092
Mof_H 	H 	0.2962	0.2826	0.8972	0.036
Mof_Co	Co	0.3843	0.0204	0.4653	0.52
Mof_Co	Co	0.5276	0.2701	0.4783	1.033
Mof_Co	Co	0.6154	0.4922	0.5429	0.579
Mof_O 	O 	0.2829	0.1607	0.4481	-0.455
Mof_O 	O 	0.3492	0.3284	0.4769	-0.475
Mof_O 	O 	0.7117	0.2602	0.4734	-0.376
Mof_O 	O 	0.7635	0.4192	0.5211	-0.296
Mof_O 	O 	0.3002	0.9839	0.5487	-0.401
Mof_H 	H 	0.282	0.9178	0.547	0.245
Mof_O 	O 	0.5104	0.1139	0.5119	-0.396
Mof_H 	H 	0.476	0.137	0.5392	0.032
Mof_O 	O 	0.5426	0.437	0.4582	-0.516
Mof_H 	H 	0.574	0.444	0.4277	0.25
Mof_O 	O 	0.5416	0.333	0.5706	-0.551
Mof_O 	O 	0.4075	0.2161	0.599	-0.376
Mof_O 	O 	0.4646	0.4594	0.8853	-0.128
Mof_O 	O 	0.5153	0.2782	0.8888	-0.203
Mof_N 	N 	0.6901	0.5197	0.6289	-0.105
Mof_N 	N 	0.7189	0.5566	0.7224	-0.066
Mof_N 	N 	0.806	0.4865	0.7103	-0.035
Mof_N 	N 	0.0642	0.6115	0.8957	-0.094
Mof_N 	N 	0.1273	0.7012	0.8816	-0.089
Mof_N 	N 	0.2411	0.5684	0.9249	-0.105
Mof_C 	C 	0.268	0.2611	0.4607	0.473
Mof_C 	C 	0.1446	0.2974	0.4601	-0.213
Mof_C 	C 	0.1085	0.3504	0.5085	0.002
Mof_H 	H 	0.1628	0.3779	0.5371	-0.027
Mof_C 	C 	0.9906	0.364	0.5158	-0.011
Mof_H 	H 	0.9683	0.402	0.5489	0.06
Mof_C 	C 	0.9076	0.3231	0.4756	-0.013
Mof_C 	C 	0.9411	0.2733	0.4222	-0.018
Mof_C 	C 	0.8607	0.2375	0.3755	-0.046
Mof_H 	H 	0.7821	0.2426	0.3802	0.078
Mof_C 	C 	0.8967	0.1958	0.3242	-0.06
Mof_H 	H 	0.8424	0.1737	0.2942	0.056
Mof_C 	C 	0.015	0.1859	0.316	0.012
Mof_H 	H 	0.0386	0.1568	0.2808	0.02
Mof_C 	C 	0.095	0.219	0.3596	-0.131
Mof_H 	H 	0.1731	0.2128	0.3536	0.081
Mof_C 	C 	0.0618	0.2624	0.4136	0.116
Mof_C 	C 	0.784	0.3344	0.4904	0.364
Mof_C 	C 	0.4776	0.2926	0.6085	0.289
Mof_C 	C 	0.4896	0.332	0.6724	-0.142
Mof_C 	C 	0.5732	0.2852	0.7105	0.043
Mof_H 	H 	0.6322	0.2437	0.6957	0.009
Mof_C 	C 	0.5703	0.2996	0.7714	-0.128
Mof_H 	H 	0.6264	0.265	0.7965	0.075
Mof_C 	C 	0.4873	0.3632	0.7953	-0.019
Mof_C 	C 	0.4008	0.4171	0.7568	-0.005
Mof_C 	C 	0.3092	0.4808	0.7775	-0.013
Mof_H 	H 	0.3071	0.4938	0.8178	0.029
Mof_C 	C 	0.2241	0.5233	0.7393	-0.037
Mof_H 	H 	0.1655	0.5659	0.7538	0.048
Mof_C 	C 	0.2241	0.5037	0.6784	0.006
Mof_H 	H 	0.1648	0.5318	0.6528	0.019
Mof_C 	C 	0.3107	0.4436	0.6569	-0.079
Mof_H 	H 	0.3102	0.4314	0.6164	0.045
Mof_C 	C 	0.4017	0.3992	0.6947	0.062
Mof_C 	C 	0.488	0.3673	0.8619	0.224
Mof_C 	C 	0.7849	0.4666	0.6542	0.05
Mof_H 	H 	0.8309	0.4198	0.633	0.027
Mof_C 	C 	0.652	0.5758	0.6737	0.028
Mof_H 	H 	0.5874	0.622	0.6713	0.057
Mof_C 	C 	0.7081	0.5967	0.7831	-0.067
Mof_H 	H 	0.7191	0.534	0.8101	0.041
Mof_H 	H 	0.6306	0.6252	0.7861	0.083
Mof_C 	C 	0.7882	0.6813	0.8002	-0.071
Mof_H 	H 	0.7886	0.7349	0.7681	0.052
Mof_H 	H 	0.7601	0.7203	0.8338	0.057
Mof_C 	C 	0.9079	0.6479	0.8162	-0.122
Mof_H 	H 	0.9266	0.5861	0.7908	0.077
Mof_H 	H 	0.9577	0.71	0.8075	0.078
Mof_C 	C 	0.9381	0.6115	0.8822	-0.029
Mof_H 	H 	0.9077	0.5371	0.8886	0.039
Mof_H 	H 	0.9024	0.6629	0.9085	0.061
Mof_C 	C 	0.1315	0.5341	0.9214	0.14
Mof_H 	H 	0.1063	0.4656	0.9351	-0.045
Mof_C 	C 	0.2325	0.6712	0.9004	0.092
Mof_H 	H 	0.2962	0.7174	0.8972	0.039
Mof_Co	Co	0.6157	0.0204	0.5347	0.52
Mof_Co	Co	0.4724	0.2701	0.5217	1.033
Mof_Co	Co	0.3846	0.4922	0.4571	0.579
Mof_O 	O 	0.7171	0.1607	0.5519	-0.455
Mof_O 	O 	0.6508	0.3284	0.5231	-0.475
Mof_O 	O 	0.2883	0.2602	0.5266	-0.376
Mof_O 	O 	0.2365	0.4192	0.4789	-0.296
Mof_O 	O 	0.6998	0.9839	0.4513	-0.401
Mof_H 	H 	0.718	0.9178	0.453	0.245
Mof_O 	O 	0.4896	0.1139	0.4881	-0.396
Mof_H 	H 	0.524	0.137	0.4608	0.032
Mof_O 	O 	0.4574	0.437	0.5418	-0.516
Mof_H 	H 	0.426	0.444	0.5723	0.25
Mof_O 	O 	0.4584	0.333	0.4294	-0.551
Mof_O 	O 	0.5925	0.2161	0.401	-0.376
Mof_O 	O 	0.5354	0.4594	0.1147	-0.128
Mof_O 	O 	0.4847	0.2782	0.1112	-0.203
Mof_N 	N 	0.3099	0.5197	0.3711	-0.105
Mof_N 	N 	0.2811	0.5566	0.2776	-0.066
Mof_N 	N 	0.194	0.4865	0.2897	-0.035
Mof_N 	N 	0.9358	0.6115	0.1043	-0.094
Mof_N 	N 	0.8727	0.7012	0.1184	-0.089
Mof_N 	N 	0.7589	0.5684	0.0751	-0.105
Mof_C 	C 	0.732	0.2611	0.5393	0.473
Mof_C 	C 	0.8554	0.2974	0.5399	-0.213
Mof_C 	C 	0.8915	0.3504	0.4915	0.002
Mof_H 	H 	0.8372	0.3779	0.4629	-0.027
Mof_C 	C 	0.0094	0.364	0.4842	-0.011
Mof_H 	H 	0.0317	0.402	0.4511	0.06
Mof_C 	C 	0.0924	0.3231	0.5244	-0.013
Mof_C 	C 	0.0589	0.2733	0.5778	-0.018
Mof_C 	C 	0.1393	0.2375	0.6245	-0.046
Mof_H 	H 	0.2179	0.2426	0.6198	0.078
Mof_C 	C 	0.1033	0.1958	0.6758	-0.06
Mof_H 	H 	0.1576	0.1737	0.7058	0.056
Mof_C 	C 	0.985	0.1859	0.684	0.012
Mof_H 	H 	0.9614	0.1568	0.7192	0.02
Mof_C 	C 	0.905	0.219	0.6404	-0.131
Mof_H 	H 	0.8269	0.2128	0.6464	0.081
Mof_C 	C 	0.9382	0.2624	0.5864	0.116
Mof_C 	C 	0.216	0.3344	0.5096	0.364
Mof_C 	C 	0.5224	0.2926	0.3915	0.289
Mof_C 	C 	0.5104	0.332	0.3276	-0.142
Mof_C 	C 	0.4268	0.2852	0.2895	0.043
Mof_H 	H 	0.3678	0.2437	0.3043	0.009
Mof_C 	C 	0.4297	0.2996	0.2286	-0.128
Mof_H 	H 	0.3736	0.265	0.2035	0.075
Mof_C 	C 	0.5127	0.3632	0.2047	-0.019
Mof_C 	C 	0.5992	0.4171	0.2432	-0.005
Mof_C 	C 	0.6908	0.4808	0.2225	-0.013
Mof_H 	H 	0.6929	0.4938	0.1822	0.029
Mof_C 	C 	0.7759	0.5233	0.2607	-0.037
Mof_H 	H 	0.8345	0.5659	0.2462	0.048
Mof_C 	C 	0.7759	0.5037	0.3216	0.006
Mof_H 	H 	0.8352	0.5318	0.3472	0.019
Mof_C 	C 	0.6893	0.4436	0.3431	-0.079
Mof_H 	H 	0.6898	0.4314	0.3836	0.045
Mof_C 	C 	0.5983	0.3992	0.3053	0.062
Mof_C 	C 	0.512	0.3673	0.1381	0.224
Mof_C 	C 	0.2151	0.4666	0.3458	0.05
Mof_H 	H 	0.1691	0.4198	0.367	0.027
Mof_C 	C 	0.348	0.5758	0.3263	0.028
Mof_H 	H 	0.4126	0.622	0.3287	0.057
Mof_C 	C 	0.2919	0.5967	0.2169	-0.067
Mof_H 	H 	0.2809	0.534	0.1899	0.041
Mof_H 	H 	0.3694	0.6252	0.2139	0.083
Mof_C 	C 	0.2118	0.6813	0.1998	-0.071
Mof_H 	H 	0.2114	0.7349	0.2319	0.052
Mof_H 	H 	0.2399	0.7203	0.1662	0.057
Mof_C 	C 	0.0921	0.6479	0.1838	-0.122
Mof_H 	H 	0.0734	0.5861	0.2092	0.077
Mof_H 	H 	0.0423	0.71	0.1925	0.078
Mof_C 	C 	0.0619	0.6115	0.1178	-0.029
Mof_H 	H 	0.0923	0.5371	0.1114	0.039
Mof_H 	H 	0.0976	0.6629	0.0915	0.061
Mof_C 	C 	0.8685	0.5341	0.0786	0.14
Mof_H 	H 	0.8937	0.4656	0.0649	-0.045
Mof_C 	C 	0.7675	0.6712	0.0996	0.092
Mof_H 	H 	0.7038	0.7174	0.1028	0.039
Mof_H 	H 	0.651	0	0.4253	0.27
Mof_H 	H 	0.349	8.03748e-33	0.5747	0.27
_end
