data_functionalizedCrystal
_audit_creation_method	'EQeq! by Chris Wilmer'
_symmetry_space_group_name_H-M	'P1'
_symmetry_Int_Tables_number	1
_symmetry_cell_setting	triclinic
loop_
_symmetry_equiv_pos_as_xyz
  x,y,z
_cell_length_a	27.41
_cell_length_b	27.41
_cell_length_c	6.7279
_cell_angle_alpha	90
_cell_angle_beta	90
_cell_angle_gamma	120
loop_
_atom_site_label
_atom_site_type_symbol
_atom_site_fract_x
_atom_site_fract_y
_atom_site_fract_z
_atom_site_charge
Mof_Cd	Cd	0.30384	0.03606	0.6798	0.431
Mof_P 	P 	0.4273	0.0388	0.53	0.405
Mof_O 	O 	0.4815	0.0864	0.462	-0.222
Mof_O 	O 	0.3962	0.0554	0.678	-0.281
Mof_O 	O 	0.3901	0.0074	0.355	-0.288
Mof_N 	N 	0.459	0.002	0.87	-0.127
Mof_C 	C 	0.4406	0.9859	0.656	-0.005
Mof_C 	C 	0.451	0.9462	0.948	0.045
Mof_C 	C 	0.5223	0.0428	0.845	0.038
Mof_Cd	Cd	0.97051	0.36939	0.01313	0.432
Mof_P 	P 	0.09397	0.37213	0.86333	0.406
Mof_O 	O 	0.14817	0.41973	0.79533	-0.221
Mof_O 	O 	0.06287	0.38873	0.01133	-0.28
Mof_O 	O 	0.05677	0.34073	0.68833	-0.287
Mof_N 	N 	0.12567	0.33533	0.20333	-0.127
Mof_C 	C 	0.10727	0.31923	0.98933	-0.005
Mof_C 	C 	0.11767	0.27953	0.28133	0.046
Mof_C 	C 	0.18897	0.37613	0.17833	0.038
Mof_Cd	Cd	0.63717	0.70273	0.34647	0.432
Mof_P 	P 	0.76063	0.70547	0.19667	0.406
Mof_O 	O 	0.81483	0.75307	0.12867	-0.221
Mof_O 	O 	0.72953	0.72207	0.34467	-0.281
Mof_O 	O 	0.72343	0.67407	0.02167	-0.288
Mof_N 	N 	0.79233	0.66867	0.53667	-0.127
Mof_C 	C 	0.77393	0.65257	0.32267	-0.005
Mof_C 	C 	0.78433	0.61287	0.61467	0.046
Mof_C 	C 	0.85563	0.70947	0.51167	0.037
Mof_Cd	Cd	0.96394	0.26778	0.6798	0.432
Mof_P 	P 	0.9612	0.3885	0.53	0.406
Mof_O 	O 	0.9136	0.3951	0.462	-0.221
Mof_O 	O 	0.9446	0.3408	0.678	-0.28
Mof_O 	O 	0.9926	0.3827	0.355	-0.288
Mof_N 	N 	0.998	0.457	0.87	-0.127
Mof_C 	C 	0.0141	0.4547	0.656	-0.005
Mof_C 	C 	0.0538	0.5048	0.948	0.045
Mof_C 	C 	0.9572	0.4795	0.845	0.038
Mof_Cd	Cd	0.63061	0.60111	0.01313	0.432
Mof_P 	P 	0.62787	0.72183	0.86333	0.406
Mof_O 	O 	0.58027	0.72843	0.79533	-0.221
Mof_O 	O 	0.61127	0.67413	0.01133	-0.28
Mof_O 	O 	0.65927	0.71603	0.68833	-0.287
Mof_N 	N 	0.66467	0.79033	0.20333	-0.127
Mof_C 	C 	0.68077	0.78803	0.98933	-0.005
Mof_C 	C 	0.72047	0.83813	0.28133	0.046
Mof_C 	C 	0.62387	0.81283	0.17833	0.038
Mof_Cd	Cd	0.29727	0.93445	0.34647	0.432
Mof_P 	P 	0.29453	0.05517	0.19667	0.406
Mof_O 	O 	0.24693	0.06177	0.12867	-0.221
Mof_O 	O 	0.27793	0.00747	0.34467	-0.281
Mof_O 	O 	0.32593	0.04937	0.02167	-0.288
Mof_N 	N 	0.33133	0.12367	0.53667	-0.127
Mof_C 	C 	0.34743	0.12137	0.32267	-0.005
Mof_C 	C 	0.38713	0.17147	0.61467	0.046
Mof_C 	C 	0.29053	0.14617	0.51167	0.037
Mof_Cd	Cd	0.73222	0.69616	0.6798	0.432
Mof_P 	P 	0.6115	0.5727	0.53	0.406
Mof_O 	O 	0.6049	0.5185	0.462	-0.221
Mof_O 	O 	0.6592	0.6038	0.678	-0.28
Mof_O 	O 	0.6173	0.6099	0.355	-0.288
Mof_N 	N 	0.543	0.541	0.87	-0.127
Mof_C 	C 	0.5453	0.5594	0.656	-0.005
Mof_C 	C 	0.4952	0.549	0.948	0.045
Mof_C 	C 	0.5205	0.4777	0.845	0.038
Mof_Cd	Cd	0.39889	0.02949	0.01313	0.432
Mof_P 	P 	0.27817	0.90603	0.86333	0.406
Mof_O 	O 	0.27157	0.85183	0.79533	-0.221
Mof_O 	O 	0.32587	0.93713	0.01133	-0.28
Mof_O 	O 	0.28397	0.94323	0.68833	-0.288
Mof_N 	N 	0.20967	0.87433	0.20333	-0.127
Mof_C 	C 	0.21197	0.89273	0.98933	-0.005
Mof_C 	C 	0.16187	0.88233	0.28133	0.046
Mof_C 	C 	0.18717	0.81103	0.17833	0.038
Mof_Cd	Cd	0.06555	0.36283	0.34647	0.432
Mof_P 	P 	0.94483	0.23937	0.19667	0.406
Mof_O 	O 	0.93823	0.18517	0.12867	-0.221
Mof_O 	O 	0.99253	0.27047	0.34467	-0.281
Mof_O 	O 	0.95063	0.27657	0.02167	-0.288
Mof_N 	N 	0.87633	0.20767	0.53667	-0.127
Mof_C 	C 	0.87863	0.22607	0.32267	-0.005
Mof_C 	C 	0.82853	0.21567	0.61467	0.046
Mof_C 	C 	0.85383	0.14437	0.51167	0.037
Mof_Cd	Cd	0.69616	0.96394	0.3202	0.432
Mof_P 	P 	0.5727	0.9612	0.47	0.406
Mof_O 	O 	0.5185	0.9136	0.538	-0.221
Mof_O 	O 	0.6038	0.9446	0.322	-0.28
Mof_O 	O 	0.6099	0.9926	0.645	-0.288
Mof_N 	N 	0.541	0.998	0.13	-0.127
Mof_C 	C 	0.5594	0.0141	0.344	-0.005
Mof_C 	C 	0.549	0.0538	0.052	0.045
Mof_C 	C 	0.4777	0.9572	0.155	0.038
Mof_Cd	Cd	0.36283	0.29727	0.65353	0.432
Mof_P 	P 	0.23937	0.29453	0.80333	0.406
Mof_O 	O 	0.18517	0.24693	0.87133	-0.221
Mof_O 	O 	0.27047	0.27793	0.65533	-0.281
Mof_O 	O 	0.27657	0.32593	0.97833	-0.288
Mof_N 	N 	0.20767	0.33133	0.46333	-0.127
Mof_C 	C 	0.22607	0.34743	0.67733	-0.005
Mof_C 	C 	0.21567	0.38713	0.38533	0.046
Mof_C 	C 	0.14437	0.29053	0.48833	0.037
Mof_Cd	Cd	0.02949	0.63061	0.98687	0.432
Mof_P 	P 	0.90603	0.62787	0.13667	0.406
Mof_O 	O 	0.85183	0.58027	0.20467	-0.221
Mof_O 	O 	0.93713	0.61127	0.98867	-0.28
Mof_O 	O 	0.94323	0.65927	0.31167	-0.287
Mof_N 	N 	0.87433	0.66467	0.79667	-0.127
Mof_C 	C 	0.89273	0.68077	0.01067	-0.005
Mof_C 	C 	0.88233	0.72047	0.71867	0.046
Mof_C 	C 	0.81103	0.62387	0.82167	0.038
Mof_Cd	Cd	0.03606	0.73222	0.3202	0.432
Mof_P 	P 	0.0388	0.6115	0.47	0.406
Mof_O 	O 	0.0864	0.6049	0.538	-0.221
Mof_O 	O 	0.0554	0.6592	0.322	-0.28
Mof_O 	O 	0.0074	0.6173	0.645	-0.288
Mof_N 	N 	0.002	0.543	0.13	-0.127
Mof_C 	C 	0.9859	0.5453	0.344	-0.005
Mof_C 	C 	0.9462	0.4952	0.052	0.045
Mof_C 	C 	0.0428	0.5205	0.155	0.038
Mof_Cd	Cd	0.70273	0.06555	0.65353	0.432
Mof_P 	P 	0.70547	0.94483	0.80333	0.406
Mof_O 	O 	0.75307	0.93823	0.87133	-0.221
Mof_O 	O 	0.72207	0.99253	0.65533	-0.281
Mof_O 	O 	0.67407	0.95063	0.97833	-0.288
Mof_N 	N 	0.66867	0.87633	0.46333	-0.127
Mof_C 	C 	0.65257	0.87863	0.67733	-0.005
Mof_C 	C 	0.61287	0.82853	0.38533	0.046
Mof_C 	C 	0.70947	0.85383	0.48833	0.037
Mof_Cd	Cd	0.36939	0.39889	0.98687	0.432
Mof_P 	P 	0.37213	0.27817	0.13667	0.406
Mof_O 	O 	0.41973	0.27157	0.20467	-0.221
Mof_O 	O 	0.38873	0.32587	0.98867	-0.28
Mof_O 	O 	0.34073	0.28397	0.31167	-0.287
Mof_N 	N 	0.33533	0.20967	0.79667	-0.127
Mof_C 	C 	0.31923	0.21197	0.01067	-0.005
Mof_C 	C 	0.27953	0.16187	0.71867	0.046
Mof_C 	C 	0.37613	0.18717	0.82167	0.038
Mof_Cd	Cd	0.26778	0.30384	0.3202	0.432
Mof_P 	P 	0.3885	0.4273	0.47	0.406
Mof_O 	O 	0.3951	0.4815	0.538	-0.221
Mof_O 	O 	0.3408	0.3962	0.322	-0.28
Mof_O 	O 	0.3827	0.3901	0.645	-0.288
Mof_N 	N 	0.457	0.459	0.13	-0.127
Mof_C 	C 	0.4547	0.4406	0.344	-0.005
Mof_C 	C 	0.5048	0.451	0.052	0.045
Mof_C 	C 	0.4795	0.5223	0.155	0.038
Mof_Cd	Cd	0.93445	0.63717	0.65353	0.432
Mof_P 	P 	0.05517	0.76063	0.80333	0.406
Mof_O 	O 	0.06177	0.81483	0.87133	-0.221
Mof_O 	O 	0.00747	0.72953	0.65533	-0.281
Mof_O 	O 	0.04937	0.72343	0.97833	-0.288
Mof_N 	N 	0.12367	0.79233	0.46333	-0.127
Mof_C 	C 	0.12137	0.77393	0.67733	-0.005
Mof_C 	C 	0.17147	0.78433	0.38533	0.046
Mof_C 	C 	0.14617	0.85563	0.48833	0.037
Mof_Cd	Cd	0.60111	0.97051	0.98687	0.432
Mof_P 	P 	0.72183	0.09397	0.13667	0.406
Mof_O 	O 	0.72843	0.14817	0.20467	-0.221
Mof_O 	O 	0.67413	0.06287	0.98867	-0.28
Mof_O 	O 	0.71603	0.05677	0.31167	-0.288
Mof_N 	N 	0.79033	0.12567	0.79667	-0.127
Mof_C 	C 	0.78803	0.10727	0.01067	-0.005
Mof_C 	C 	0.83813	0.11767	0.71867	0.046
Mof_C 	C 	0.81283	0.18897	0.82167	0.038
_end
