data_functionalizedCrystal
_audit_creation_method	'EQeq! by Chris Wilmer'
_symmetry_space_group_name_H-M	'P1'
_symmetry_Int_Tables_number	1
_symmetry_cell_setting	triclinic
loop_
_symmetry_equiv_pos_as_xyz
  x,y,z
_cell_length_a	27.373
_cell_length_b	27.373
_cell_length_c	18.5827
_cell_angle_alpha	90
_cell_angle_beta	90
_cell_angle_gamma	90
loop_
_atom_site_label
_atom_site_type_symbol
_atom_site_fract_x
_atom_site_fract_y
_atom_site_fract_z
_atom_site_charge
Mof_Zn	Zn	0.26412	0.10989	0.42238	1.151
Mof_Zn	Zn	0.26369	0.10911	0.74412	1.15
Mof_N 	N 	0.3193	0.1281	0.8047	-0.294
Mof_C 	C 	0.3255	0.1705	0.8358	0.077
Mof_H 	H 	0.3009	0.195	0.8366	-0.047
Mof_N 	N 	0.3704	0.1769	0.8671	-0.29
Mof_C 	C 	0.3964	0.1357	0.8498	-0.007
Mof_H 	H 	0.4295	0.1291	0.8619	-0.007
Mof_C 	C 	0.3659	0.1062	0.8122	-0.02
Mof_H 	H 	0.3746	0.0751	0.7934	-0.003
Mof_N 	N 	0.2802	0.1251	0.6334	-0.493
Mof_C 	C 	0.2605	0.1015	0.5719	0.137
Mof_H 	H 	0.2373	0.0756	0.5722	-0.107
Mof_N 	N 	0.2815	0.1233	0.5098	0.27
Mof_C 	C 	0.3142	0.1604	0.533	0.035
Mof_H 	H 	0.3332	0.1809	0.5028	-0.015
Mof_C 	C 	0.3134	0.1615	0.6094	-0.093
Mof_H 	H 	0.3318	0.1828	0.6392	0.035
Mof_N 	N 	0.2817	0.1211	0.6518	0.2
Mof_C 	C 	0.2575	0.1078	0.5871	0.024
Mof_H 	H 	0.2287	0.0885	0.5836	-0.012
Mof_N 	N 	0.2839	0.1282	0.5286	-0.596
Mof_C 	C 	0.3244	0.1542	0.5572	0.097
Mof_H 	H 	0.3483	0.1714	0.5301	-0.029
Mof_C 	C 	0.3231	0.1498	0.6333	0.049
Mof_H 	H 	0.3458	0.1637	0.6661	-0.04
Mof_N 	N 	0.20507	0.14923	0.7792	-0.267
Mof_C 	C 	0.1846	0.1465	0.8449	-0.005
Mof_H 	H 	0.1928	0.1248	0.8829	-0.002
Mof_N 	N 	0.2367	0.0409	0.7636	-0.904
Mof_C 	C 	0.2681	0.0024	0.7412	-0.068
Mof_H 	H 	0.3016	0.0056	0.7289	-0.006
Mof_N 	N 	0.2405	0.9585	0.7405	0.639
Mof_C 	C 	0.1921	0.9698	0.7624	0.015
Mof_H 	H 	0.1659	0.9472	0.7667	-0.032
Mof_C 	C 	0.1898	0.0207	0.7767	0.06
Mof_H 	H 	0.1617	0.0381	0.7923	0.002
Mof_N 	N 	0.2569	0.0391	0.3989	-0.185
Mof_C 	C 	0.2597	0.9951	0.4392	0.009
Mof_H 	H 	0.2592	0.9924	0.4901	-0.026
Mof_N 	N 	0.2635	0.9556	0.3898	-0.086
Mof_C 	C 	0.263	0.9753	0.3191	-0.006
Mof_H 	H 	0.265	0.9571	0.2756	-0.027
Mof_C 	C 	0.2589	0.0268	0.3247	-0.026
Mof_H 	H 	0.2577	0.0492	0.2857	0.032
Mof_N 	N 	0.2051	0.1429	0.3901	0.317
Mof_C 	C 	0.1921	0.1843	0.4319	0.112
Mof_H 	H 	0.2042	0.1921	0.4784	-0.048
Mof_N 	N 	0.1577	0.2121	0.392	-0.625
Mof_C 	C 	0.1495	0.1879	0.3255	-0.075
Mof_H 	H 	0.1281	0.1985	0.2883	0.017
Mof_C 	C 	0.1788	0.1451	0.3243	0.013
Mof_H 	H 	0.1805	0.1221	0.2862	-0.009
Mof_Zn	Zn	0.76412	0.60989	0.92238	1.141
Mof_Zn	Zn	0.76369	0.60911	0.24412	1.151
Mof_N 	N 	0.8193	0.6281	0.3047	-0.293
Mof_C 	C 	0.8255	0.6705	0.3358	0.083
Mof_H 	H 	0.8009	0.695	0.3366	-0.044
Mof_N 	N 	0.8704	0.6769	0.3671	-0.285
Mof_C 	C 	0.8964	0.6357	0.3498	-0.002
Mof_H 	H 	0.9295	0.6291	0.3619	-0.001
Mof_C 	C 	0.8659	0.6062	0.3122	-0.016
Mof_H 	H 	0.8746	0.5751	0.2934	0.001
Mof_N 	N 	0.7802	0.6251	0.1334	-0.491
Mof_C 	C 	0.7605	0.6015	0.0719	0.141
Mof_H 	H 	0.7373	0.5756	0.0722	-0.082
Mof_N 	N 	0.7815	0.6233	0.0098	0.241
Mof_C 	C 	0.8142	0.6604	0.033	0.038
Mof_H 	H 	0.8332	0.6809	0.0028	0.003
Mof_C 	C 	0.8134	0.6615	0.1094	-0.094
Mof_H 	H 	0.8318	0.6828	0.1392	0.037
Mof_N 	N 	0.7817	0.6211	0.1518	0.198
Mof_C 	C 	0.7575	0.6078	0.0871	0.022
Mof_H 	H 	0.7287	0.5885	0.0836	-0.024
Mof_N 	N 	0.7839	0.6282	0.0286	-0.547
Mof_C 	C 	0.8244	0.6542	0.0572	0.093
Mof_H 	H 	0.8483	0.6714	0.0301	-0.024
Mof_C 	C 	0.8231	0.6498	0.1333	0.055
Mof_H 	H 	0.8458	0.6637	0.1661	-0.04
Mof_N 	N 	0.70507	0.64923	0.2792	-0.266
Mof_C 	C 	0.6846	0.6465	0.3449	-0.002
Mof_H 	H 	0.6928	0.6248	0.3829	0.006
Mof_N 	N 	0.7367	0.5409	0.2636	-0.902
Mof_C 	C 	0.7681	0.5024	0.2412	-0.067
Mof_H 	H 	0.8016	0.5056	0.2289	-0.005
Mof_N 	N 	0.7405	0.4585	0.2405	0.638
Mof_C 	C 	0.6921	0.4698	0.2624	0.016
Mof_H 	H 	0.6659	0.4472	0.2667	-0.03
Mof_C 	C 	0.6898	0.5207	0.2767	0.061
Mof_H 	H 	0.6617	0.5381	0.2923	0.006
Mof_N 	N 	0.7569	0.5391	0.8989	-0.187
Mof_C 	C 	0.7597	0.4951	0.9392	0.004
Mof_H 	H 	0.7592	0.4924	0.9901	-0.037
Mof_N 	N 	0.7635	0.4556	0.8898	-0.091
Mof_C 	C 	0.763	0.4753	0.8191	-0.008
Mof_H 	H 	0.765	0.4571	0.7756	-0.028
Mof_C 	C 	0.7589	0.5268	0.8247	-0.027
Mof_H 	H 	0.7577	0.5492	0.7857	0.028
Mof_N 	N 	0.7051	0.6429	0.8901	0.341
Mof_C 	C 	0.6921	0.6843	0.9319	0.115
Mof_H 	H 	0.7042	0.6921	0.9784	-0.061
Mof_N 	N 	0.6577	0.7121	0.892	-0.657
Mof_C 	C 	0.6495	0.6879	0.8255	-0.078
Mof_H 	H 	0.6281	0.6985	0.7883	0.022
Mof_C 	C 	0.6788	0.6451	0.8243	0.011
Mof_H 	H 	0.6805	0.6221	0.7862	-0.019
Mof_Zn	Zn	0.73588	0.89011	0.42238	1.15
Mof_Zn	Zn	0.73631	0.89089	0.74412	1.149
Mof_N 	N 	0.6807	0.8719	0.8047	-0.295
Mof_C 	C 	0.6745	0.8295	0.8358	0.076
Mof_H 	H 	0.6991	0.805	0.8366	-0.048
Mof_N 	N 	0.6296	0.8231	0.8671	-0.291
Mof_C 	C 	0.6036	0.8643	0.8498	-0.008
Mof_H 	H 	0.5705	0.8709	0.8619	-0.008
Mof_C 	C 	0.6341	0.8938	0.8122	-0.021
Mof_H 	H 	0.6254	0.9249	0.7934	-0.004
Mof_N 	N 	0.7198	0.8749	0.6334	-0.494
Mof_C 	C 	0.7395	0.8985	0.5719	0.136
Mof_H 	H 	0.7627	0.9244	0.5722	-0.108
Mof_N 	N 	0.7185	0.8767	0.5098	0.269
Mof_C 	C 	0.6858	0.8396	0.533	0.034
Mof_H 	H 	0.6668	0.8191	0.5028	-0.016
Mof_C 	C 	0.6866	0.8385	0.6094	-0.094
Mof_H 	H 	0.6682	0.8172	0.6392	0.034
Mof_N 	N 	0.7183	0.8789	0.6518	0.199
Mof_C 	C 	0.7425	0.8922	0.5871	0.023
Mof_H 	H 	0.7713	0.9115	0.5836	-0.013
Mof_N 	N 	0.7161	0.8718	0.5286	-0.597
Mof_C 	C 	0.6756	0.8458	0.5572	0.096
Mof_H 	H 	0.6517	0.8286	0.5301	-0.03
Mof_C 	C 	0.6769	0.8502	0.6333	0.048
Mof_H 	H 	0.6542	0.8363	0.6661	-0.041
Mof_N 	N 	0.79493	0.85077	0.7792	-0.268
Mof_C 	C 	0.8154	0.8535	0.8449	-0.006
Mof_H 	H 	0.8072	0.8752	0.8829	-0.003
Mof_N 	N 	0.7633	0.9591	0.7636	-0.905
Mof_C 	C 	0.7319	0.9976	0.7412	-0.069
Mof_H 	H 	0.6984	0.9944	0.7289	-0.007
Mof_N 	N 	0.7595	0.0415	0.7405	0.638
Mof_C 	C 	0.8079	0.0302	0.7624	0.014
Mof_H 	H 	0.8341	0.0528	0.7667	-0.033
Mof_C 	C 	0.8102	0.9793	0.7767	0.059
Mof_H 	H 	0.8383	0.9619	0.7923	0.002
Mof_N 	N 	0.7431	0.9609	0.3989	-0.185
Mof_C 	C 	0.7403	0.0049	0.4392	0.009
Mof_H 	H 	0.7408	0.0076	0.4901	-0.026
Mof_N 	N 	0.7365	0.0444	0.3898	-0.086
Mof_C 	C 	0.737	0.0247	0.3191	-0.006
Mof_H 	H 	0.735	0.0429	0.2756	-0.027
Mof_C 	C 	0.7411	0.9732	0.3247	-0.026
Mof_H 	H 	0.7423	0.9508	0.2857	0.032
Mof_N 	N 	0.7949	0.8571	0.3901	0.317
Mof_C 	C 	0.8079	0.8157	0.4319	0.112
Mof_H 	H 	0.7958	0.8079	0.4784	-0.048
Mof_N 	N 	0.8423	0.7879	0.392	-0.625
Mof_C 	C 	0.8505	0.8121	0.3255	-0.075
Mof_H 	H 	0.8719	0.8015	0.2883	0.017
Mof_C 	C 	0.8212	0.8549	0.3243	0.013
Mof_H 	H 	0.8195	0.8779	0.2862	-0.009
Mof_Zn	Zn	0.23588	0.39011	0.92238	1.141
Mof_Zn	Zn	0.23631	0.39089	0.24412	1.151
Mof_N 	N 	0.1807	0.3719	0.3047	-0.293
Mof_C 	C 	0.1745	0.3295	0.3358	0.083
Mof_H 	H 	0.1991	0.305	0.3366	-0.044
Mof_N 	N 	0.1296	0.3231	0.3671	-0.285
Mof_C 	C 	0.1036	0.3643	0.3498	-0.002
Mof_H 	H 	0.0705	0.3709	0.3619	-0.001
Mof_C 	C 	0.1341	0.3938	0.3122	-0.016
Mof_H 	H 	0.1254	0.4249	0.2934	0.001
Mof_N 	N 	0.2198	0.3749	0.1334	-0.491
Mof_C 	C 	0.2395	0.3985	0.0719	0.141
Mof_H 	H 	0.2627	0.4244	0.0722	-0.082
Mof_N 	N 	0.2185	0.3767	0.0098	0.241
Mof_C 	C 	0.1858	0.3396	0.033	0.038
Mof_H 	H 	0.1668	0.3191	0.0028	0.003
Mof_C 	C 	0.1866	0.3385	0.1094	-0.094
Mof_H 	H 	0.1682	0.3172	0.1392	0.037
Mof_N 	N 	0.2183	0.3789	0.1518	0.198
Mof_C 	C 	0.2425	0.3922	0.0871	0.022
Mof_H 	H 	0.2713	0.4115	0.0836	-0.024
Mof_N 	N 	0.2161	0.3718	0.0286	-0.547
Mof_C 	C 	0.1756	0.3458	0.0572	0.093
Mof_H 	H 	0.1517	0.3286	0.0301	-0.024
Mof_C 	C 	0.1769	0.3502	0.1333	0.055
Mof_H 	H 	0.1542	0.3363	0.1661	-0.04
Mof_N 	N 	0.29493	0.35077	0.2792	-0.266
Mof_C 	C 	0.3154	0.3535	0.3449	-0.002
Mof_H 	H 	0.3072	0.3752	0.3829	0.006
Mof_N 	N 	0.2633	0.4591	0.2636	-0.902
Mof_C 	C 	0.2319	0.4976	0.2412	-0.067
Mof_H 	H 	0.1984	0.4944	0.2289	-0.005
Mof_N 	N 	0.2595	0.5415	0.2405	0.638
Mof_C 	C 	0.3079	0.5302	0.2624	0.016
Mof_H 	H 	0.3341	0.5528	0.2667	-0.03
Mof_C 	C 	0.3102	0.4793	0.2767	0.061
Mof_H 	H 	0.3383	0.4619	0.2923	0.006
Mof_N 	N 	0.2431	0.4609	0.8989	-0.187
Mof_C 	C 	0.2403	0.5049	0.9392	0.004
Mof_H 	H 	0.2408	0.5076	0.9901	-0.037
Mof_N 	N 	0.2365	0.5444	0.8898	-0.091
Mof_C 	C 	0.237	0.5247	0.8191	-0.008
Mof_H 	H 	0.235	0.5429	0.7756	-0.028
Mof_C 	C 	0.2411	0.4732	0.8247	-0.027
Mof_H 	H 	0.2423	0.4508	0.7857	0.028
Mof_N 	N 	0.2949	0.3571	0.8901	0.341
Mof_C 	C 	0.3079	0.3157	0.9319	0.115
Mof_H 	H 	0.2958	0.3079	0.9784	-0.061
Mof_N 	N 	0.3423	0.2879	0.892	-0.657
Mof_C 	C 	0.3505	0.3121	0.8255	-0.078
Mof_H 	H 	0.3719	0.3015	0.7883	0.022
Mof_C 	C 	0.3212	0.3549	0.8243	0.011
Mof_H 	H 	0.3195	0.3779	0.7862	-0.019
Mof_Zn	Zn	0.89011	0.26412	0.42238	1.15
Mof_Zn	Zn	0.89089	0.26369	0.74412	1.149
Mof_N 	N 	0.8719	0.3193	0.8047	-0.295
Mof_C 	C 	0.8295	0.3255	0.8358	0.076
Mof_H 	H 	0.805	0.3009	0.8366	-0.048
Mof_N 	N 	0.8231	0.3704	0.8671	-0.291
Mof_C 	C 	0.8643	0.3964	0.8498	-0.008
Mof_H 	H 	0.8709	0.4295	0.8619	-0.008
Mof_C 	C 	0.8938	0.3659	0.8122	-0.021
Mof_H 	H 	0.9249	0.3746	0.7934	-0.004
Mof_N 	N 	0.8749	0.2802	0.6334	-0.494
Mof_C 	C 	0.8985	0.2605	0.5719	0.136
Mof_H 	H 	0.9244	0.2373	0.5722	-0.108
Mof_N 	N 	0.8767	0.2815	0.5098	0.269
Mof_C 	C 	0.8396	0.3142	0.533	0.034
Mof_H 	H 	0.8191	0.3332	0.5028	-0.016
Mof_C 	C 	0.8385	0.3134	0.6094	-0.094
Mof_H 	H 	0.8172	0.3318	0.6392	0.034
Mof_N 	N 	0.8789	0.2817	0.6518	0.199
Mof_C 	C 	0.8922	0.2575	0.5871	0.023
Mof_H 	H 	0.9115	0.2287	0.5836	-0.013
Mof_N 	N 	0.8718	0.2839	0.5286	-0.597
Mof_C 	C 	0.8458	0.3244	0.5572	0.096
Mof_H 	H 	0.8286	0.3483	0.5301	-0.03
Mof_C 	C 	0.8502	0.3231	0.6333	0.048
Mof_H 	H 	0.8363	0.3458	0.6661	-0.041
Mof_N 	N 	0.85077	0.20507	0.7792	-0.268
Mof_C 	C 	0.8535	0.1846	0.8449	-0.006
Mof_H 	H 	0.8752	0.1928	0.8829	-0.003
Mof_N 	N 	0.9591	0.2367	0.7636	-0.905
Mof_C 	C 	0.9976	0.2681	0.7412	-0.069
Mof_H 	H 	0.9944	0.3016	0.7289	-0.007
Mof_N 	N 	0.0415	0.2405	0.7405	0.638
Mof_C 	C 	0.0302	0.1921	0.7624	0.014
Mof_H 	H 	0.0528	0.1659	0.7667	-0.033
Mof_C 	C 	0.9793	0.1898	0.7767	0.059
Mof_H 	H 	0.9619	0.1617	0.7923	0.002
Mof_N 	N 	0.9609	0.2569	0.3989	-0.185
Mof_C 	C 	0.0049	0.2597	0.4392	0.009
Mof_H 	H 	0.0076	0.2592	0.4901	-0.026
Mof_N 	N 	0.0444	0.2635	0.3898	-0.086
Mof_C 	C 	0.0247	0.263	0.3191	-0.006
Mof_H 	H 	0.0429	0.265	0.2756	-0.027
Mof_C 	C 	0.9732	0.2589	0.3247	-0.026
Mof_H 	H 	0.9508	0.2577	0.2857	0.032
Mof_N 	N 	0.8571	0.2051	0.3901	0.317
Mof_C 	C 	0.8157	0.1921	0.4319	0.112
Mof_H 	H 	0.8079	0.2042	0.4784	-0.048
Mof_N 	N 	0.7879	0.1577	0.392	-0.625
Mof_C 	C 	0.8121	0.1495	0.3255	-0.075
Mof_H 	H 	0.8015	0.1281	0.2883	0.017
Mof_C 	C 	0.8549	0.1788	0.3243	0.013
Mof_H 	H 	0.8779	0.1805	0.2862	-0.009
Mof_Zn	Zn	0.39011	0.76412	0.92238	1.141
Mof_Zn	Zn	0.39089	0.76369	0.24412	1.151
Mof_N 	N 	0.3719	0.8193	0.3047	-0.293
Mof_C 	C 	0.3295	0.8255	0.3358	0.083
Mof_H 	H 	0.305	0.8009	0.3366	-0.044
Mof_N 	N 	0.3231	0.8704	0.3671	-0.285
Mof_C 	C 	0.3643	0.8964	0.3498	-0.002
Mof_H 	H 	0.3709	0.9295	0.3619	-0.001
Mof_C 	C 	0.3938	0.8659	0.3122	-0.016
Mof_H 	H 	0.4249	0.8746	0.2934	0.001
Mof_N 	N 	0.3749	0.7802	0.1334	-0.491
Mof_C 	C 	0.3985	0.7605	0.0719	0.141
Mof_H 	H 	0.4244	0.7373	0.0722	-0.082
Mof_N 	N 	0.3767	0.7815	0.0098	0.241
Mof_C 	C 	0.3396	0.8142	0.033	0.038
Mof_H 	H 	0.3191	0.8332	0.0028	0.003
Mof_C 	C 	0.3385	0.8134	0.1094	-0.094
Mof_H 	H 	0.3172	0.8318	0.1392	0.037
Mof_N 	N 	0.3789	0.7817	0.1518	0.198
Mof_C 	C 	0.3922	0.7575	0.0871	0.022
Mof_H 	H 	0.4115	0.7287	0.0836	-0.024
Mof_N 	N 	0.3718	0.7839	0.0286	-0.547
Mof_C 	C 	0.3458	0.8244	0.0572	0.093
Mof_H 	H 	0.3286	0.8483	0.0301	-0.024
Mof_C 	C 	0.3502	0.8231	0.1333	0.055
Mof_H 	H 	0.3363	0.8458	0.1661	-0.04
Mof_N 	N 	0.35077	0.70507	0.2792	-0.266
Mof_C 	C 	0.3535	0.6846	0.3449	-0.002
Mof_H 	H 	0.3752	0.6928	0.3829	0.006
Mof_N 	N 	0.4591	0.7367	0.2636	-0.902
Mof_C 	C 	0.4976	0.7681	0.2412	-0.067
Mof_H 	H 	0.4944	0.8016	0.2289	-0.005
Mof_N 	N 	0.5415	0.7405	0.2405	0.638
Mof_C 	C 	0.5302	0.6921	0.2624	0.016
Mof_H 	H 	0.5528	0.6659	0.2667	-0.03
Mof_C 	C 	0.4793	0.6898	0.2767	0.061
Mof_H 	H 	0.4619	0.6617	0.2923	0.006
Mof_N 	N 	0.4609	0.7569	0.8989	-0.187
Mof_C 	C 	0.5049	0.7597	0.9392	0.004
Mof_H 	H 	0.5076	0.7592	0.9901	-0.037
Mof_N 	N 	0.5444	0.7635	0.8898	-0.091
Mof_C 	C 	0.5247	0.763	0.8191	-0.008
Mof_H 	H 	0.5429	0.765	0.7756	-0.028
Mof_C 	C 	0.4732	0.7589	0.8247	-0.027
Mof_H 	H 	0.4508	0.7577	0.7857	0.028
Mof_N 	N 	0.3571	0.7051	0.8901	0.341
Mof_C 	C 	0.3157	0.6921	0.9319	0.115
Mof_H 	H 	0.3079	0.7042	0.9784	-0.061
Mof_N 	N 	0.2879	0.6577	0.892	-0.657
Mof_C 	C 	0.3121	0.6495	0.8255	-0.078
Mof_H 	H 	0.3015	0.6281	0.7883	0.022
Mof_C 	C 	0.3549	0.6788	0.8243	0.011
Mof_H 	H 	0.3779	0.6805	0.7862	-0.019
Mof_Zn	Zn	0.10989	0.73588	0.42238	1.15
Mof_Zn	Zn	0.10911	0.73631	0.74412	1.149
Mof_N 	N 	0.1281	0.6807	0.8047	-0.295
Mof_C 	C 	0.1705	0.6745	0.8358	0.076
Mof_H 	H 	0.195	0.6991	0.8366	-0.048
Mof_N 	N 	0.1769	0.6296	0.8671	-0.291
Mof_C 	C 	0.1357	0.6036	0.8498	-0.008
Mof_H 	H 	0.1291	0.5705	0.8619	-0.008
Mof_C 	C 	0.1062	0.6341	0.8122	-0.021
Mof_H 	H 	0.0751	0.6254	0.7934	-0.004
Mof_N 	N 	0.1251	0.7198	0.6334	-0.494
Mof_C 	C 	0.1015	0.7395	0.5719	0.136
Mof_H 	H 	0.0756	0.7627	0.5722	-0.108
Mof_N 	N 	0.1233	0.7185	0.5098	0.269
Mof_C 	C 	0.1604	0.6858	0.533	0.034
Mof_H 	H 	0.1809	0.6668	0.5028	-0.016
Mof_C 	C 	0.1615	0.6866	0.6094	-0.094
Mof_H 	H 	0.1828	0.6682	0.6392	0.034
Mof_N 	N 	0.1211	0.7183	0.6518	0.199
Mof_C 	C 	0.1078	0.7425	0.5871	0.023
Mof_H 	H 	0.0885	0.7713	0.5836	-0.013
Mof_N 	N 	0.1282	0.7161	0.5286	-0.597
Mof_C 	C 	0.1542	0.6756	0.5572	0.096
Mof_H 	H 	0.1714	0.6517	0.5301	-0.03
Mof_C 	C 	0.1498	0.6769	0.6333	0.048
Mof_H 	H 	0.1637	0.6542	0.6661	-0.041
Mof_N 	N 	0.14923	0.79493	0.7792	-0.268
Mof_C 	C 	0.1465	0.8154	0.8449	-0.006
Mof_H 	H 	0.1248	0.8072	0.8829	-0.003
Mof_N 	N 	0.0409	0.7633	0.7636	-0.905
Mof_C 	C 	0.0024	0.7319	0.7412	-0.069
Mof_H 	H 	0.0056	0.6984	0.7289	-0.007
Mof_N 	N 	0.9585	0.7595	0.7405	0.638
Mof_C 	C 	0.9698	0.8079	0.7624	0.014
Mof_H 	H 	0.9472	0.8341	0.7667	-0.033
Mof_C 	C 	0.0207	0.8102	0.7767	0.059
Mof_H 	H 	0.0381	0.8383	0.7923	0.002
Mof_N 	N 	0.0391	0.7431	0.3989	-0.185
Mof_C 	C 	0.9951	0.7403	0.4392	0.009
Mof_H 	H 	0.9924	0.7408	0.4901	-0.026
Mof_N 	N 	0.9556	0.7365	0.3898	-0.086
Mof_C 	C 	0.9753	0.737	0.3191	-0.006
Mof_H 	H 	0.9571	0.735	0.2756	-0.027
Mof_C 	C 	0.0268	0.7411	0.3247	-0.026
Mof_H 	H 	0.0492	0.7423	0.2857	0.032
Mof_N 	N 	0.1429	0.7949	0.3901	0.317
Mof_C 	C 	0.1843	0.8079	0.4319	0.112
Mof_H 	H 	0.1921	0.7958	0.4784	-0.048
Mof_N 	N 	0.2121	0.8423	0.392	-0.625
Mof_C 	C 	0.1879	0.8505	0.3255	-0.075
Mof_H 	H 	0.1985	0.8719	0.2883	0.017
Mof_C 	C 	0.1451	0.8212	0.3243	0.013
Mof_H 	H 	0.1221	0.8195	0.2862	-0.009
Mof_Zn	Zn	0.60989	0.23588	0.92238	1.141
Mof_Zn	Zn	0.60911	0.23631	0.24412	1.151
Mof_N 	N 	0.6281	0.1807	0.3047	-0.293
Mof_C 	C 	0.6705	0.1745	0.3358	0.083
Mof_H 	H 	0.695	0.1991	0.3366	-0.044
Mof_N 	N 	0.6769	0.1296	0.3671	-0.285
Mof_C 	C 	0.6357	0.1036	0.3498	-0.002
Mof_H 	H 	0.6291	0.0705	0.3619	-0.001
Mof_C 	C 	0.6062	0.1341	0.3122	-0.016
Mof_H 	H 	0.5751	0.1254	0.2934	0.001
Mof_N 	N 	0.6251	0.2198	0.1334	-0.491
Mof_C 	C 	0.6015	0.2395	0.0719	0.141
Mof_H 	H 	0.5756	0.2627	0.0722	-0.082
Mof_N 	N 	0.6233	0.2185	0.0098	0.241
Mof_C 	C 	0.6604	0.1858	0.033	0.038
Mof_H 	H 	0.6809	0.1668	0.0028	0.003
Mof_C 	C 	0.6615	0.1866	0.1094	-0.094
Mof_H 	H 	0.6828	0.1682	0.1392	0.037
Mof_N 	N 	0.6211	0.2183	0.1518	0.198
Mof_C 	C 	0.6078	0.2425	0.0871	0.022
Mof_H 	H 	0.5885	0.2713	0.0836	-0.024
Mof_N 	N 	0.6282	0.2161	0.0286	-0.547
Mof_C 	C 	0.6542	0.1756	0.0572	0.093
Mof_H 	H 	0.6714	0.1517	0.0301	-0.024
Mof_C 	C 	0.6498	0.1769	0.1333	0.055
Mof_H 	H 	0.6637	0.1542	0.1661	-0.04
Mof_N 	N 	0.64923	0.29493	0.2792	-0.266
Mof_C 	C 	0.6465	0.3154	0.3449	-0.002
Mof_H 	H 	0.6248	0.3072	0.3829	0.006
Mof_N 	N 	0.5409	0.2633	0.2636	-0.902
Mof_C 	C 	0.5024	0.2319	0.2412	-0.067
Mof_H 	H 	0.5056	0.1984	0.2289	-0.005
Mof_N 	N 	0.4585	0.2595	0.2405	0.638
Mof_C 	C 	0.4698	0.3079	0.2624	0.016
Mof_H 	H 	0.4472	0.3341	0.2667	-0.03
Mof_C 	C 	0.5207	0.3102	0.2767	0.061
Mof_H 	H 	0.5381	0.3383	0.2923	0.006
Mof_N 	N 	0.5391	0.2431	0.8989	-0.187
Mof_C 	C 	0.4951	0.2403	0.9392	0.004
Mof_H 	H 	0.4924	0.2408	0.9901	-0.037
Mof_N 	N 	0.4556	0.2365	0.8898	-0.091
Mof_C 	C 	0.4753	0.237	0.8191	-0.008
Mof_H 	H 	0.4571	0.235	0.7756	-0.028
Mof_C 	C 	0.5268	0.2411	0.8247	-0.027
Mof_H 	H 	0.5492	0.2423	0.7857	0.028
Mof_N 	N 	0.6429	0.2949	0.8901	0.341
Mof_C 	C 	0.6843	0.3079	0.9319	0.115
Mof_H 	H 	0.6921	0.2958	0.9784	-0.061
Mof_N 	N 	0.7121	0.3423	0.892	-0.657
Mof_C 	C 	0.6879	0.3505	0.8255	-0.078
Mof_H 	H 	0.6985	0.3719	0.7883	0.022
Mof_C 	C 	0.6451	0.3212	0.8243	0.011
Mof_H 	H 	0.6221	0.3195	0.7862	-0.019
Mof_Zn	Zn	0.26412	0.89011	0.42238	1.15
Mof_Zn	Zn	0.26369	0.89089	0.74412	1.149
Mof_N 	N 	0.3193	0.8719	0.8047	-0.295
Mof_C 	C 	0.3255	0.8295	0.8358	0.076
Mof_H 	H 	0.3009	0.805	0.8366	-0.048
Mof_N 	N 	0.3704	0.8231	0.8671	-0.291
Mof_C 	C 	0.3964	0.8643	0.8498	-0.008
Mof_H 	H 	0.4295	0.8709	0.8619	-0.008
Mof_C 	C 	0.3659	0.8938	0.8122	-0.021
Mof_H 	H 	0.3746	0.9249	0.7934	-0.004
Mof_N 	N 	0.2802	0.8749	0.6334	-0.494
Mof_C 	C 	0.2605	0.8985	0.5719	0.136
Mof_H 	H 	0.2373	0.9244	0.5722	-0.108
Mof_N 	N 	0.2815	0.8767	0.5098	0.269
Mof_C 	C 	0.3142	0.8396	0.533	0.034
Mof_H 	H 	0.3332	0.8191	0.5028	-0.016
Mof_C 	C 	0.3134	0.8385	0.6094	-0.094
Mof_H 	H 	0.3318	0.8172	0.6392	0.034
Mof_N 	N 	0.2817	0.8789	0.6518	0.199
Mof_C 	C 	0.2575	0.8922	0.5871	0.023
Mof_H 	H 	0.2287	0.9115	0.5836	-0.013
Mof_N 	N 	0.2839	0.8718	0.5286	-0.597
Mof_C 	C 	0.3244	0.8458	0.5572	0.096
Mof_H 	H 	0.3483	0.8286	0.5301	-0.03
Mof_C 	C 	0.3231	0.8502	0.6333	0.048
Mof_H 	H 	0.3458	0.8363	0.6661	-0.041
Mof_N 	N 	0.20507	0.85077	0.7792	-0.268
Mof_C 	C 	0.1846	0.8535	0.8449	-0.006
Mof_H 	H 	0.1928	0.8752	0.8829	-0.003
Mof_N 	N 	0.2367	0.9591	0.7636	-0.905
Mof_C 	C 	0.2681	0.9976	0.7412	-0.069
Mof_H 	H 	0.3016	0.9944	0.7289	-0.007
Mof_N 	N 	0.2405	0.0415	0.7405	0.638
Mof_C 	C 	0.1921	0.0302	0.7624	0.014
Mof_H 	H 	0.1659	0.0528	0.7667	-0.033
Mof_C 	C 	0.1898	0.9793	0.7767	0.059
Mof_H 	H 	0.1617	0.9619	0.7923	0.002
Mof_N 	N 	0.2569	0.9609	0.3989	-0.185
Mof_C 	C 	0.2597	0.0049	0.4392	0.009
Mof_H 	H 	0.2592	0.0076	0.4901	-0.026
Mof_N 	N 	0.2635	0.0444	0.3898	-0.086
Mof_C 	C 	0.263	0.0247	0.3191	-0.006
Mof_H 	H 	0.265	0.0429	0.2756	-0.027
Mof_C 	C 	0.2589	0.9732	0.3247	-0.026
Mof_H 	H 	0.2577	0.9508	0.2857	0.032
Mof_N 	N 	0.2051	0.8571	0.3901	0.317
Mof_C 	C 	0.1921	0.8157	0.4319	0.112
Mof_H 	H 	0.2042	0.8079	0.4784	-0.048
Mof_N 	N 	0.1577	0.7879	0.392	-0.625
Mof_C 	C 	0.1495	0.8121	0.3255	-0.075
Mof_H 	H 	0.1281	0.8015	0.2883	0.017
Mof_C 	C 	0.1788	0.8549	0.3243	0.013
Mof_H 	H 	0.1805	0.8779	0.2862	-0.009
Mof_Zn	Zn	0.76412	0.39011	0.92238	1.141
Mof_Zn	Zn	0.76369	0.39089	0.24412	1.151
Mof_N 	N 	0.8193	0.3719	0.3047	-0.293
Mof_C 	C 	0.8255	0.3295	0.3358	0.083
Mof_H 	H 	0.8009	0.305	0.3366	-0.044
Mof_N 	N 	0.8704	0.3231	0.3671	-0.285
Mof_C 	C 	0.8964	0.3643	0.3498	-0.002
Mof_H 	H 	0.9295	0.3709	0.3619	-0.001
Mof_C 	C 	0.8659	0.3938	0.3122	-0.016
Mof_H 	H 	0.8746	0.4249	0.2934	0.001
Mof_N 	N 	0.7802	0.3749	0.1334	-0.491
Mof_C 	C 	0.7605	0.3985	0.0719	0.141
Mof_H 	H 	0.7373	0.4244	0.0722	-0.082
Mof_N 	N 	0.7815	0.3767	0.0098	0.241
Mof_C 	C 	0.8142	0.3396	0.033	0.038
Mof_H 	H 	0.8332	0.3191	0.0028	0.003
Mof_C 	C 	0.8134	0.3385	0.1094	-0.094
Mof_H 	H 	0.8318	0.3172	0.1392	0.037
Mof_N 	N 	0.7817	0.3789	0.1518	0.198
Mof_C 	C 	0.7575	0.3922	0.0871	0.022
Mof_H 	H 	0.7287	0.4115	0.0836	-0.024
Mof_N 	N 	0.7839	0.3718	0.0286	-0.547
Mof_C 	C 	0.8244	0.3458	0.0572	0.093
Mof_H 	H 	0.8483	0.3286	0.0301	-0.024
Mof_C 	C 	0.8231	0.3502	0.1333	0.055
Mof_H 	H 	0.8458	0.3363	0.1661	-0.04
Mof_N 	N 	0.70507	0.35077	0.2792	-0.266
Mof_C 	C 	0.6846	0.3535	0.3449	-0.002
Mof_H 	H 	0.6928	0.3752	0.3829	0.006
Mof_N 	N 	0.7367	0.4591	0.2636	-0.902
Mof_C 	C 	0.7681	0.4976	0.2412	-0.067
Mof_H 	H 	0.8016	0.4944	0.2289	-0.005
Mof_N 	N 	0.7405	0.5415	0.2405	0.638
Mof_C 	C 	0.6921	0.5302	0.2624	0.016
Mof_H 	H 	0.6659	0.5528	0.2667	-0.03
Mof_C 	C 	0.6898	0.4793	0.2767	0.061
Mof_H 	H 	0.6617	0.4619	0.2923	0.006
Mof_N 	N 	0.7569	0.4609	0.8989	-0.187
Mof_C 	C 	0.7597	0.5049	0.9392	0.004
Mof_H 	H 	0.7592	0.5076	0.9901	-0.037
Mof_N 	N 	0.7635	0.5444	0.8898	-0.091
Mof_C 	C 	0.763	0.5247	0.8191	-0.008
Mof_H 	H 	0.765	0.5429	0.7756	-0.028
Mof_C 	C 	0.7589	0.4732	0.8247	-0.027
Mof_H 	H 	0.7577	0.4508	0.7857	0.028
Mof_N 	N 	0.7051	0.3571	0.8901	0.341
Mof_C 	C 	0.6921	0.3157	0.9319	0.115
Mof_H 	H 	0.7042	0.3079	0.9784	-0.061
Mof_N 	N 	0.6577	0.2879	0.892	-0.657
Mof_C 	C 	0.6495	0.3121	0.8255	-0.078
Mof_H 	H 	0.6281	0.3015	0.7883	0.022
Mof_C 	C 	0.6788	0.3549	0.8243	0.011
Mof_H 	H 	0.6805	0.3779	0.7862	-0.019
Mof_Zn	Zn	0.73588	0.10989	0.42238	1.15
Mof_Zn	Zn	0.73631	0.10911	0.74412	1.149
Mof_N 	N 	0.6807	0.1281	0.8047	-0.295
Mof_C 	C 	0.6745	0.1705	0.8358	0.076
Mof_H 	H 	0.6991	0.195	0.8366	-0.048
Mof_N 	N 	0.6296	0.1769	0.8671	-0.291
Mof_C 	C 	0.6036	0.1357	0.8498	-0.008
Mof_H 	H 	0.5705	0.1291	0.8619	-0.008
Mof_C 	C 	0.6341	0.1062	0.8122	-0.021
Mof_H 	H 	0.6254	0.0751	0.7934	-0.004
Mof_N 	N 	0.7198	0.1251	0.6334	-0.494
Mof_C 	C 	0.7395	0.1015	0.5719	0.136
Mof_H 	H 	0.7627	0.0756	0.5722	-0.108
Mof_N 	N 	0.7185	0.1233	0.5098	0.269
Mof_C 	C 	0.6858	0.1604	0.533	0.034
Mof_H 	H 	0.6668	0.1809	0.5028	-0.016
Mof_C 	C 	0.6866	0.1615	0.6094	-0.094
Mof_H 	H 	0.6682	0.1828	0.6392	0.034
Mof_N 	N 	0.7183	0.1211	0.6518	0.199
Mof_C 	C 	0.7425	0.1078	0.5871	0.023
Mof_H 	H 	0.7713	0.0885	0.5836	-0.013
Mof_N 	N 	0.7161	0.1282	0.5286	-0.597
Mof_C 	C 	0.6756	0.1542	0.5572	0.096
Mof_H 	H 	0.6517	0.1714	0.5301	-0.03
Mof_C 	C 	0.6769	0.1498	0.6333	0.048
Mof_H 	H 	0.6542	0.1637	0.6661	-0.041
Mof_N 	N 	0.79493	0.14923	0.7792	-0.268
Mof_C 	C 	0.8154	0.1465	0.8449	-0.006
Mof_H 	H 	0.8072	0.1248	0.8829	-0.003
Mof_N 	N 	0.7633	0.0409	0.7636	-0.905
Mof_C 	C 	0.7319	0.0024	0.7412	-0.069
Mof_H 	H 	0.6984	0.0056	0.7289	-0.007
Mof_N 	N 	0.7595	0.9585	0.7405	0.638
Mof_C 	C 	0.8079	0.9698	0.7624	0.014
Mof_H 	H 	0.8341	0.9472	0.7667	-0.033
Mof_C 	C 	0.8102	0.0207	0.7767	0.059
Mof_H 	H 	0.8383	0.0381	0.7923	0.002
Mof_N 	N 	0.7431	0.0391	0.3989	-0.185
Mof_C 	C 	0.7403	0.9951	0.4392	0.009
Mof_H 	H 	0.7408	0.9924	0.4901	-0.026
Mof_N 	N 	0.7365	0.9556	0.3898	-0.086
Mof_C 	C 	0.737	0.9753	0.3191	-0.006
Mof_H 	H 	0.735	0.9571	0.2756	-0.027
Mof_C 	C 	0.7411	0.0268	0.3247	-0.026
Mof_H 	H 	0.7423	0.0492	0.2857	0.032
Mof_N 	N 	0.7949	0.1429	0.3901	0.317
Mof_C 	C 	0.8079	0.1843	0.4319	0.112
Mof_H 	H 	0.7958	0.1921	0.4784	-0.048
Mof_N 	N 	0.8423	0.2121	0.392	-0.625
Mof_C 	C 	0.8505	0.1879	0.3255	-0.075
Mof_H 	H 	0.8719	0.1985	0.2883	0.017
Mof_C 	C 	0.8212	0.1451	0.3243	0.013
Mof_H 	H 	0.8195	0.1221	0.2862	-0.009
Mof_Zn	Zn	0.23588	0.60989	0.92238	1.141
Mof_Zn	Zn	0.23631	0.60911	0.24412	1.151
Mof_N 	N 	0.1807	0.6281	0.3047	-0.293
Mof_C 	C 	0.1745	0.6705	0.3358	0.083
Mof_H 	H 	0.1991	0.695	0.3366	-0.044
Mof_N 	N 	0.1296	0.6769	0.3671	-0.285
Mof_C 	C 	0.1036	0.6357	0.3498	-0.002
Mof_H 	H 	0.0705	0.6291	0.3619	-0.001
Mof_C 	C 	0.1341	0.6062	0.3122	-0.016
Mof_H 	H 	0.1254	0.5751	0.2934	0.001
Mof_N 	N 	0.2198	0.6251	0.1334	-0.491
Mof_C 	C 	0.2395	0.6015	0.0719	0.141
Mof_H 	H 	0.2627	0.5756	0.0722	-0.082
Mof_N 	N 	0.2185	0.6233	0.0098	0.241
Mof_C 	C 	0.1858	0.6604	0.033	0.038
Mof_H 	H 	0.1668	0.6809	0.0028	0.003
Mof_C 	C 	0.1866	0.6615	0.1094	-0.094
Mof_H 	H 	0.1682	0.6828	0.1392	0.037
Mof_N 	N 	0.2183	0.6211	0.1518	0.198
Mof_C 	C 	0.2425	0.6078	0.0871	0.022
Mof_H 	H 	0.2713	0.5885	0.0836	-0.024
Mof_N 	N 	0.2161	0.6282	0.0286	-0.547
Mof_C 	C 	0.1756	0.6542	0.0572	0.093
Mof_H 	H 	0.1517	0.6714	0.0301	-0.024
Mof_C 	C 	0.1769	0.6498	0.1333	0.055
Mof_H 	H 	0.1542	0.6637	0.1661	-0.04
Mof_N 	N 	0.29493	0.64923	0.2792	-0.266
Mof_C 	C 	0.3154	0.6465	0.3449	-0.002
Mof_H 	H 	0.3072	0.6248	0.3829	0.006
Mof_N 	N 	0.2633	0.5409	0.2636	-0.902
Mof_C 	C 	0.2319	0.5024	0.2412	-0.067
Mof_H 	H 	0.1984	0.5056	0.2289	-0.005
Mof_N 	N 	0.2595	0.4585	0.2405	0.638
Mof_C 	C 	0.3079	0.4698	0.2624	0.016
Mof_H 	H 	0.3341	0.4472	0.2667	-0.03
Mof_C 	C 	0.3102	0.5207	0.2767	0.061
Mof_H 	H 	0.3383	0.5381	0.2923	0.006
Mof_N 	N 	0.2431	0.5391	0.8989	-0.187
Mof_C 	C 	0.2403	0.4951	0.9392	0.004
Mof_H 	H 	0.2408	0.4924	0.9901	-0.037
Mof_N 	N 	0.2365	0.4556	0.8898	-0.091
Mof_C 	C 	0.237	0.4753	0.8191	-0.008
Mof_H 	H 	0.235	0.4571	0.7756	-0.028
Mof_C 	C 	0.2411	0.5268	0.8247	-0.027
Mof_H 	H 	0.2423	0.5492	0.7857	0.028
Mof_N 	N 	0.2949	0.6429	0.8901	0.341
Mof_C 	C 	0.3079	0.6843	0.9319	0.115
Mof_H 	H 	0.2958	0.6921	0.9784	-0.061
Mof_N 	N 	0.3423	0.7121	0.892	-0.657
Mof_C 	C 	0.3505	0.6879	0.8255	-0.078
Mof_H 	H 	0.3719	0.6985	0.7883	0.022
Mof_C 	C 	0.3212	0.6451	0.8243	0.011
Mof_H 	H 	0.3195	0.6221	0.7862	-0.019
Mof_Zn	Zn	0.89011	0.73588	0.42238	1.15
Mof_Zn	Zn	0.89089	0.73631	0.74412	1.149
Mof_N 	N 	0.8719	0.6807	0.8047	-0.295
Mof_C 	C 	0.8295	0.6745	0.8358	0.076
Mof_H 	H 	0.805	0.6991	0.8366	-0.048
Mof_N 	N 	0.8231	0.6296	0.8671	-0.291
Mof_C 	C 	0.8643	0.6036	0.8498	-0.008
Mof_H 	H 	0.8709	0.5705	0.8619	-0.008
Mof_C 	C 	0.8938	0.6341	0.8122	-0.021
Mof_H 	H 	0.9249	0.6254	0.7934	-0.004
Mof_N 	N 	0.8749	0.7198	0.6334	-0.494
Mof_C 	C 	0.8985	0.7395	0.5719	0.136
Mof_H 	H 	0.9244	0.7627	0.5722	-0.108
Mof_N 	N 	0.8767	0.7185	0.5098	0.269
Mof_C 	C 	0.8396	0.6858	0.533	0.034
Mof_H 	H 	0.8191	0.6668	0.5028	-0.016
Mof_C 	C 	0.8385	0.6866	0.6094	-0.094
Mof_H 	H 	0.8172	0.6682	0.6392	0.034
Mof_N 	N 	0.8789	0.7183	0.6518	0.199
Mof_C 	C 	0.8922	0.7425	0.5871	0.023
Mof_H 	H 	0.9115	0.7713	0.5836	-0.013
Mof_N 	N 	0.8718	0.7161	0.5286	-0.597
Mof_C 	C 	0.8458	0.6756	0.5572	0.096
Mof_H 	H 	0.8286	0.6517	0.5301	-0.03
Mof_C 	C 	0.8502	0.6769	0.6333	0.048
Mof_H 	H 	0.8363	0.6542	0.6661	-0.041
Mof_N 	N 	0.85077	0.79493	0.7792	-0.268
Mof_C 	C 	0.8535	0.8154	0.8449	-0.006
Mof_H 	H 	0.8752	0.8072	0.8829	-0.003
Mof_N 	N 	0.9591	0.7633	0.7636	-0.905
Mof_C 	C 	0.9976	0.7319	0.7412	-0.069
Mof_H 	H 	0.9944	0.6984	0.7289	-0.007
Mof_N 	N 	0.0415	0.7595	0.7405	0.638
Mof_C 	C 	0.0302	0.8079	0.7624	0.014
Mof_H 	H 	0.0528	0.8341	0.7667	-0.033
Mof_C 	C 	0.9793	0.8102	0.7767	0.059
Mof_H 	H 	0.9619	0.8383	0.7923	0.002
Mof_N 	N 	0.9609	0.7431	0.3989	-0.185
Mof_C 	C 	0.0049	0.7403	0.4392	0.009
Mof_H 	H 	0.0076	0.7408	0.4901	-0.026
Mof_N 	N 	0.0444	0.7365	0.3898	-0.086
Mof_C 	C 	0.0247	0.737	0.3191	-0.006
Mof_H 	H 	0.0429	0.735	0.2756	-0.027
Mof_C 	C 	0.9732	0.7411	0.3247	-0.026
Mof_H 	H 	0.9508	0.7423	0.2857	0.032
Mof_N 	N 	0.8571	0.7949	0.3901	0.317
Mof_C 	C 	0.8157	0.8079	0.4319	0.112
Mof_H 	H 	0.8079	0.7958	0.4784	-0.048
Mof_N 	N 	0.7879	0.8423	0.392	-0.625
Mof_C 	C 	0.8121	0.8505	0.3255	-0.075
Mof_H 	H 	0.8015	0.8719	0.2883	0.017
Mof_C 	C 	0.8549	0.8212	0.3243	0.013
Mof_H 	H 	0.8779	0.8195	0.2862	-0.009
Mof_Zn	Zn	0.39011	0.23588	0.92238	1.141
Mof_Zn	Zn	0.39089	0.23631	0.24412	1.151
Mof_N 	N 	0.3719	0.1807	0.3047	-0.293
Mof_C 	C 	0.3295	0.1745	0.3358	0.083
Mof_H 	H 	0.305	0.1991	0.3366	-0.044
Mof_N 	N 	0.3231	0.1296	0.3671	-0.285
Mof_C 	C 	0.3643	0.1036	0.3498	-0.002
Mof_H 	H 	0.3709	0.0705	0.3619	-0.001
Mof_C 	C 	0.3938	0.1341	0.3122	-0.016
Mof_H 	H 	0.4249	0.1254	0.2934	0.001
Mof_N 	N 	0.3749	0.2198	0.1334	-0.491
Mof_C 	C 	0.3985	0.2395	0.0719	0.141
Mof_H 	H 	0.4244	0.2627	0.0722	-0.082
Mof_N 	N 	0.3767	0.2185	0.0098	0.241
Mof_C 	C 	0.3396	0.1858	0.033	0.038
Mof_H 	H 	0.3191	0.1668	0.0028	0.003
Mof_C 	C 	0.3385	0.1866	0.1094	-0.094
Mof_H 	H 	0.3172	0.1682	0.1392	0.037
Mof_N 	N 	0.3789	0.2183	0.1518	0.198
Mof_C 	C 	0.3922	0.2425	0.0871	0.022
Mof_H 	H 	0.4115	0.2713	0.0836	-0.024
Mof_N 	N 	0.3718	0.2161	0.0286	-0.547
Mof_C 	C 	0.3458	0.1756	0.0572	0.093
Mof_H 	H 	0.3286	0.1517	0.0301	-0.024
Mof_C 	C 	0.3502	0.1769	0.1333	0.055
Mof_H 	H 	0.3363	0.1542	0.1661	-0.04
Mof_N 	N 	0.35077	0.29493	0.2792	-0.266
Mof_C 	C 	0.3535	0.3154	0.3449	-0.002
Mof_H 	H 	0.3752	0.3072	0.3829	0.006
Mof_N 	N 	0.4591	0.2633	0.2636	-0.902
Mof_C 	C 	0.4976	0.2319	0.2412	-0.067
Mof_H 	H 	0.4944	0.1984	0.2289	-0.005
Mof_N 	N 	0.5415	0.2595	0.2405	0.638
Mof_C 	C 	0.5302	0.3079	0.2624	0.016
Mof_H 	H 	0.5528	0.3341	0.2667	-0.03
Mof_C 	C 	0.4793	0.3102	0.2767	0.061
Mof_H 	H 	0.4619	0.3383	0.2923	0.006
Mof_N 	N 	0.4609	0.2431	0.8989	-0.187
Mof_C 	C 	0.5049	0.2403	0.9392	0.004
Mof_H 	H 	0.5076	0.2408	0.9901	-0.037
Mof_N 	N 	0.5444	0.2365	0.8898	-0.091
Mof_C 	C 	0.5247	0.237	0.8191	-0.008
Mof_H 	H 	0.5429	0.235	0.7756	-0.028
Mof_C 	C 	0.4732	0.2411	0.8247	-0.027
Mof_H 	H 	0.4508	0.2423	0.7857	0.028
Mof_N 	N 	0.3571	0.2949	0.8901	0.341
Mof_C 	C 	0.3157	0.3079	0.9319	0.115
Mof_H 	H 	0.3079	0.2958	0.9784	-0.061
Mof_N 	N 	0.2879	0.3423	0.892	-0.657
Mof_C 	C 	0.3121	0.3505	0.8255	-0.078
Mof_H 	H 	0.3015	0.3719	0.7883	0.022
Mof_C 	C 	0.3549	0.3212	0.8243	0.011
Mof_H 	H 	0.3779	0.3195	0.7862	-0.019
Mof_Zn	Zn	0.10989	0.26412	0.42238	1.15
Mof_Zn	Zn	0.10911	0.26369	0.74412	1.149
Mof_N 	N 	0.1281	0.3193	0.8047	-0.295
Mof_C 	C 	0.1705	0.3255	0.8358	0.076
Mof_H 	H 	0.195	0.3009	0.8366	-0.048
Mof_N 	N 	0.1769	0.3704	0.8671	-0.291
Mof_C 	C 	0.1357	0.3964	0.8498	-0.008
Mof_H 	H 	0.1291	0.4295	0.8619	-0.008
Mof_C 	C 	0.1062	0.3659	0.8122	-0.021
Mof_H 	H 	0.0751	0.3746	0.7934	-0.004
Mof_N 	N 	0.1251	0.2802	0.6334	-0.494
Mof_C 	C 	0.1015	0.2605	0.5719	0.136
Mof_H 	H 	0.0756	0.2373	0.5722	-0.108
Mof_N 	N 	0.1233	0.2815	0.5098	0.269
Mof_C 	C 	0.1604	0.3142	0.533	0.034
Mof_H 	H 	0.1809	0.3332	0.5028	-0.016
Mof_C 	C 	0.1615	0.3134	0.6094	-0.094
Mof_H 	H 	0.1828	0.3318	0.6392	0.034
Mof_N 	N 	0.1211	0.2817	0.6518	0.199
Mof_C 	C 	0.1078	0.2575	0.5871	0.023
Mof_H 	H 	0.0885	0.2287	0.5836	-0.013
Mof_N 	N 	0.1282	0.2839	0.5286	-0.597
Mof_C 	C 	0.1542	0.3244	0.5572	0.096
Mof_H 	H 	0.1714	0.3483	0.5301	-0.03
Mof_C 	C 	0.1498	0.3231	0.6333	0.048
Mof_H 	H 	0.1637	0.3458	0.6661	-0.041
Mof_N 	N 	0.14923	0.20507	0.7792	-0.268
Mof_C 	C 	0.1465	0.1846	0.8449	-0.006
Mof_H 	H 	0.1248	0.1928	0.8829	-0.003
Mof_N 	N 	0.0409	0.2367	0.7636	-0.905
Mof_C 	C 	0.0024	0.2681	0.7412	-0.069
Mof_H 	H 	0.0056	0.3016	0.7289	-0.007
Mof_N 	N 	0.9585	0.2405	0.7405	0.638
Mof_C 	C 	0.9698	0.1921	0.7624	0.014
Mof_H 	H 	0.9472	0.1659	0.7667	-0.033
Mof_C 	C 	0.0207	0.1898	0.7767	0.059
Mof_H 	H 	0.0381	0.1617	0.7923	0.002
Mof_N 	N 	0.0391	0.2569	0.3989	-0.185
Mof_C 	C 	0.9951	0.2597	0.4392	0.009
Mof_H 	H 	0.9924	0.2592	0.4901	-0.026
Mof_N 	N 	0.9556	0.2635	0.3898	-0.086
Mof_C 	C 	0.9753	0.263	0.3191	-0.006
Mof_H 	H 	0.9571	0.265	0.2756	-0.027
Mof_C 	C 	0.0268	0.2589	0.3247	-0.026
Mof_H 	H 	0.0492	0.2577	0.2857	0.032
Mof_N 	N 	0.1429	0.2051	0.3901	0.317
Mof_C 	C 	0.1843	0.1921	0.4319	0.112
Mof_H 	H 	0.1921	0.2042	0.4784	-0.048
Mof_N 	N 	0.2121	0.1577	0.392	-0.625
Mof_C 	C 	0.1879	0.1495	0.3255	-0.075
Mof_H 	H 	0.1985	0.1281	0.2883	0.017
Mof_C 	C 	0.1451	0.1788	0.3243	0.013
Mof_H 	H 	0.1221	0.1805	0.2862	-0.009
Mof_Zn	Zn	0.60989	0.76412	0.92238	1.141
Mof_Zn	Zn	0.60911	0.76369	0.24412	1.151
Mof_N 	N 	0.6281	0.8193	0.3047	-0.293
Mof_C 	C 	0.6705	0.8255	0.3358	0.083
Mof_H 	H 	0.695	0.8009	0.3366	-0.044
Mof_N 	N 	0.6769	0.8704	0.3671	-0.285
Mof_C 	C 	0.6357	0.8964	0.3498	-0.002
Mof_H 	H 	0.6291	0.9295	0.3619	-0.001
Mof_C 	C 	0.6062	0.8659	0.3122	-0.016
Mof_H 	H 	0.5751	0.8746	0.2934	0.001
Mof_N 	N 	0.6251	0.7802	0.1334	-0.491
Mof_C 	C 	0.6015	0.7605	0.0719	0.141
Mof_H 	H 	0.5756	0.7373	0.0722	-0.082
Mof_N 	N 	0.6233	0.7815	0.0098	0.241
Mof_C 	C 	0.6604	0.8142	0.033	0.038
Mof_H 	H 	0.6809	0.8332	0.0028	0.003
Mof_C 	C 	0.6615	0.8134	0.1094	-0.094
Mof_H 	H 	0.6828	0.8318	0.1392	0.037
Mof_N 	N 	0.6211	0.7817	0.1518	0.198
Mof_C 	C 	0.6078	0.7575	0.0871	0.022
Mof_H 	H 	0.5885	0.7287	0.0836	-0.024
Mof_N 	N 	0.6282	0.7839	0.0286	-0.547
Mof_C 	C 	0.6542	0.8244	0.0572	0.093
Mof_H 	H 	0.6714	0.8483	0.0301	-0.024
Mof_C 	C 	0.6498	0.8231	0.1333	0.055
Mof_H 	H 	0.6637	0.8458	0.1661	-0.04
Mof_N 	N 	0.64923	0.70507	0.2792	-0.266
Mof_C 	C 	0.6465	0.6846	0.3449	-0.002
Mof_H 	H 	0.6248	0.6928	0.3829	0.006
Mof_N 	N 	0.5409	0.7367	0.2636	-0.902
Mof_C 	C 	0.5024	0.7681	0.2412	-0.067
Mof_H 	H 	0.5056	0.8016	0.2289	-0.005
Mof_N 	N 	0.4585	0.7405	0.2405	0.638
Mof_C 	C 	0.4698	0.6921	0.2624	0.016
Mof_H 	H 	0.4472	0.6659	0.2667	-0.03
Mof_C 	C 	0.5207	0.6898	0.2767	0.061
Mof_H 	H 	0.5381	0.6617	0.2923	0.006
Mof_N 	N 	0.5391	0.7569	0.8989	-0.187
Mof_C 	C 	0.4951	0.7597	0.9392	0.004
Mof_H 	H 	0.4924	0.7592	0.9901	-0.037
Mof_N 	N 	0.4556	0.7635	0.8898	-0.091
Mof_C 	C 	0.4753	0.763	0.8191	-0.008
Mof_H 	H 	0.4571	0.765	0.7756	-0.028
Mof_C 	C 	0.5268	0.7589	0.8247	-0.027
Mof_H 	H 	0.5492	0.7577	0.7857	0.028
Mof_N 	N 	0.6429	0.7051	0.8901	0.341
Mof_C 	C 	0.6843	0.6921	0.9319	0.115
Mof_H 	H 	0.6921	0.7042	0.9784	-0.061
Mof_N 	N 	0.7121	0.6577	0.892	-0.657
Mof_C 	C 	0.6879	0.6495	0.8255	-0.078
Mof_H 	H 	0.6985	0.6281	0.7883	0.022
Mof_C 	C 	0.6451	0.6788	0.8243	0.011
Mof_H 	H 	0.6221	0.6805	0.7862	-0.019
Mof_C 	C 	0.1877	0.1877	0.7411	0.039
Mof_H 	H 	0.1999	0.1999	0.6968	-0.046
Mof_C 	C 	0.6877	0.6877	0.2411	0.042
Mof_H 	H 	0.6999	0.6999	0.1968	-0.042
Mof_C 	C 	0.8123	0.8123	0.7411	0.039
Mof_H 	H 	0.8001	0.8001	0.6968	-0.046
Mof_C 	C 	0.3123	0.3123	0.2411	0.042
Mof_H 	H 	0.3001	0.3001	0.1968	-0.042
Mof_C 	C 	0.8123	0.1877	0.7411	0.039
Mof_H 	H 	0.8001	0.1999	0.6968	-0.046
Mof_C 	C 	0.3123	0.6877	0.2411	0.042
Mof_H 	H 	0.3001	0.6999	0.1968	-0.042
Mof_C 	C 	0.1877	0.8123	0.7411	0.039
Mof_H 	H 	0.1999	0.8001	0.6968	-0.046
Mof_C 	C 	0.6877	0.3123	0.2411	0.042
Mof_H 	H 	0.6999	0.3001	0.1968	-0.042
_end
