data_functionalizedCrystal
_audit_creation_method	'EQeq! by Chris Wilmer'
_symmetry_space_group_name_H-M	'P1'
_symmetry_Int_Tables_number	1
_symmetry_cell_setting	triclinic
loop_
_symmetry_equiv_pos_as_xyz
  x,y,z
_cell_length_a	16.8676
_cell_length_b	16.8676
_cell_length_c	18.8186
_cell_angle_alpha	90
_cell_angle_beta	90
_cell_angle_gamma	120
loop_
_atom_site_label
_atom_site_type_symbol
_atom_site_fract_x
_atom_site_fract_y
_atom_site_fract_z
_atom_site_charge
Mof_N 	N 	0.631	0.4478	0.3262	-0.069
Mof_N 	N 	0.6305	0.5028	0.3786	-0.08
Mof_C 	C 	0.459	0.4009	0.4427	0.062
Mof_O 	O 	0.6551	0.4792	0.3293	-0.38
Mof_H 	H 	0.4185	0.3423	0.4233	0.012
Mof_H 	H 	0.3758	0.3926	0.5229	0.191
Mof_N 	N 	0.5522	0.1832	0.3262	-0.082
Mof_N 	N 	0.4972	0.1277	0.3786	-0.093
Mof_C 	C 	0.5991	0.0581	0.4427	-0.029
Mof_O 	O 	0.5208	0.1759	0.3293	-0.351
Mof_H 	H 	0.6577	0.0762	0.4233	0.05
Mof_H 	H 	0.6074	0.9832	0.5229	0.094
Mof_N 	N 	0.8168	0.369	0.3262	-0.088
Mof_N 	N 	0.8723	0.3695	0.3786	-0.101
Mof_C 	C 	0.9419	0.541	0.4427	0.025
Mof_O 	O 	0.8241	0.3449	0.3293	-0.347
Mof_H 	H 	0.9238	0.5815	0.4233	0.029
Mof_H 	H 	0.0168	0.6242	0.5229	0.126
Mof_N 	N 	0.369	0.5522	0.8262	-0.082
Mof_N 	N 	0.3695	0.4972	0.8786	-0.098
Mof_C 	C 	0.541	0.5991	0.9427	0.028
Mof_O 	O 	0.3449	0.5208	0.8293	-0.353
Mof_H 	H 	0.5815	0.6577	0.9233	0.027
Mof_H 	H 	0.6242	0.6074	0.0229	0.129
Mof_N 	N 	0.4478	0.8168	0.8262	-0.109
Mof_N 	N 	0.5028	0.8723	0.8786	-0.119
Mof_C 	C 	0.4009	0.9419	0.9427	-0.004
Mof_O 	O 	0.4792	0.8241	0.8293	-0.318
Mof_H 	H 	0.3423	0.9238	0.9233	0.047
Mof_H 	H 	0.3926	0.0168	0.0229	0.079
Mof_N 	N 	0.1832	0.631	0.8262	-0.116
Mof_N 	N 	0.1277	0.6305	0.8786	-0.118
Mof_C 	C 	0.0581	0.459	0.9427	-0.078
Mof_O 	O 	0.1759	0.6551	0.8293	-0.306
Mof_H 	H 	0.0762	0.4185	0.9233	0.078
Mof_H 	H 	0.9832	0.3758	0.0229	0.024
Mof_N 	N 	0.4478	0.631	0.6738	-0.069
Mof_N 	N 	0.5028	0.6305	0.6214	-0.081
Mof_C 	C 	0.4009	0.459	0.5573	0.063
Mof_O 	O 	0.4792	0.6551	0.6707	-0.38
Mof_H 	H 	0.3423	0.4185	0.5767	0.012
Mof_H 	H 	0.3926	0.3758	0.4771	0.192
Mof_N 	N 	0.1832	0.5522	0.6738	-0.088
Mof_N 	N 	0.1277	0.4972	0.6214	-0.096
Mof_C 	C 	0.0581	0.5991	0.5573	-0.043
Mof_O 	O 	0.1759	0.5208	0.6707	-0.344
Mof_H 	H 	0.0762	0.6577	0.5767	0.056
Mof_H 	H 	0.9832	0.6074	0.4771	0.079
Mof_N 	N 	0.369	0.8168	0.6738	-0.086
Mof_N 	N 	0.3695	0.8723	0.6214	-0.098
Mof_C 	C 	0.541	0.9419	0.5573	0.031
Mof_O 	O 	0.3449	0.8241	0.6707	-0.352
Mof_H 	H 	0.5815	0.9238	0.5767	0.026
Mof_H 	H 	0.6242	0.0168	0.4771	0.135
Mof_N 	N 	0.5522	0.369	0.1738	-0.085
Mof_N 	N 	0.4972	0.3695	0.1214	-0.094
Mof_C 	C 	0.5991	0.541	0.0573	-0.035
Mof_O 	O 	0.5208	0.3449	0.1707	-0.348
Mof_H 	H 	0.6577	0.5815	0.0767	0.052
Mof_H 	H 	0.6074	0.6242	0.9771	0.086
Mof_N 	N 	0.8168	0.4478	0.1738	-0.115
Mof_N 	N 	0.8723	0.5028	0.1214	-0.119
Mof_C 	C 	0.9419	0.4009	0.0573	-0.072
Mof_O 	O 	0.8241	0.4792	0.1707	-0.307
Mof_H 	H 	0.9238	0.3423	0.0767	0.075
Mof_H 	H 	0.0168	0.3926	0.9771	0.028
Mof_N 	N 	0.631	0.1832	0.1738	-0.115
Mof_N 	N 	0.6305	0.1277	0.1214	-0.112
Mof_C 	C 	0.459	0.0581	0.0573	-0.125
Mof_O 	O 	0.6551	0.1759	0.1707	-0.306
Mof_H 	H 	0.4185	0.0762	0.0767	0.096
Mof_H 	H 	0.3758	0.9832	0.9771	-0.003
Mof_N 	N 	0.369	0.5522	0.6738	-0.06
Mof_N 	N 	0.3695	0.4972	0.6214	-0.078
Mof_C 	C 	0.541	0.5991	0.5573	0.064
Mof_O 	O 	0.3449	0.5208	0.6707	-0.387
Mof_H 	H 	0.5815	0.6577	0.5767	0.007
Mof_H 	H 	0.6242	0.6074	0.4771	0.188
Mof_N 	N 	0.4478	0.8168	0.6738	-0.087
Mof_N 	N 	0.5028	0.8723	0.6214	-0.099
Mof_C 	C 	0.4009	0.9419	0.5573	0.031
Mof_O 	O 	0.4792	0.8241	0.6707	-0.35
Mof_H 	H 	0.3423	0.9238	0.5767	0.028
Mof_H 	H 	0.3926	0.0168	0.4771	0.137
Mof_N 	N 	0.1832	0.631	0.6738	-0.094
Mof_N 	N 	0.1277	0.6305	0.6214	-0.098
Mof_C 	C 	0.0581	0.459	0.5573	-0.043
Mof_O 	O 	0.1759	0.6551	0.6707	-0.338
Mof_H 	H 	0.0762	0.4185	0.5767	0.059
Mof_H 	H 	0.9832	0.3758	0.4771	0.081
Mof_N 	N 	0.631	0.4478	0.1738	-0.094
Mof_N 	N 	0.6305	0.5028	0.1214	-0.098
Mof_C 	C 	0.459	0.4009	0.0573	-0.037
Mof_O 	O 	0.6551	0.4792	0.1707	-0.34
Mof_H 	H 	0.4185	0.3423	0.0767	0.057
Mof_H 	H 	0.3758	0.3926	0.9771	0.09
Mof_N 	N 	0.5522	0.1832	0.1738	-0.108
Mof_N 	N 	0.4972	0.1277	0.1214	-0.11
Mof_C 	C 	0.5991	0.0581	0.0573	-0.124
Mof_O 	O 	0.5208	0.1759	0.1707	-0.313
Mof_H 	H 	0.6577	0.0762	0.0767	0.093
Mof_H 	H 	0.6074	0.9832	0.9771	-0.004
Mof_N 	N 	0.8168	0.369	0.1738	-0.114
Mof_N 	N 	0.8723	0.3695	0.1214	-0.118
Mof_C 	C 	0.9419	0.541	0.0573	-0.072
Mof_O 	O 	0.8241	0.3449	0.1707	-0.309
Mof_H 	H 	0.9238	0.5815	0.0767	0.073
Mof_H 	H 	0.0168	0.6242	0.9771	0.026
Mof_N 	N 	0.5522	0.369	0.3262	-0.058
Mof_N 	N 	0.4972	0.3695	0.3786	-0.077
Mof_C 	C 	0.5991	0.541	0.4427	0.063
Mof_O 	O 	0.5208	0.3449	0.3293	-0.388
Mof_H 	H 	0.6577	0.5815	0.4233	0.007
Mof_H 	H 	0.6074	0.6242	0.5229	0.188
Mof_N 	N 	0.8168	0.4478	0.3262	-0.089
Mof_N 	N 	0.8723	0.5028	0.3786	-0.102
Mof_C 	C 	0.9419	0.4009	0.4427	0.025
Mof_O 	O 	0.8241	0.4792	0.3293	-0.346
Mof_H 	H 	0.9238	0.3423	0.4233	0.031
Mof_H 	H 	0.0168	0.3926	0.5229	0.127
Mof_N 	N 	0.631	0.1832	0.3262	-0.09
Mof_N 	N 	0.6305	0.1277	0.3786	-0.095
Mof_C 	C 	0.459	0.0581	0.4427	-0.03
Mof_O 	O 	0.6551	0.1759	0.3293	-0.344
Mof_H 	H 	0.4185	0.0762	0.4233	0.053
Mof_H 	H 	0.3758	0.9832	0.5229	0.096
Mof_N 	N 	0.4478	0.631	0.8262	-0.09
Mof_N 	N 	0.5028	0.6305	0.8786	-0.101
Mof_C 	C 	0.4009	0.459	0.9427	0.027
Mof_O 	O 	0.4792	0.6551	0.8293	-0.346
Mof_H 	H 	0.3423	0.4185	0.9233	0.032
Mof_H 	H 	0.3926	0.3758	0.0229	0.133
Mof_N 	N 	0.1832	0.5522	0.8262	-0.109
Mof_N 	N 	0.1277	0.4972	0.8786	-0.116
Mof_C 	C 	0.0581	0.5991	0.9427	-0.077
Mof_O 	O 	0.1759	0.5208	0.8293	-0.311
Mof_H 	H 	0.0762	0.6577	0.9233	0.075
Mof_H 	H 	0.9832	0.6074	0.0229	0.022
Mof_N 	N 	0.369	0.8168	0.8262	-0.107
Mof_N 	N 	0.3695	0.8723	0.8786	-0.118
Mof_C 	C 	0.541	0.9419	0.9427	-0.004
Mof_O 	O 	0.3449	0.8241	0.8293	-0.319
Mof_H 	H 	0.5815	0.9238	0.9233	0.045
Mof_H 	H 	0.6242	0.0168	0.0229	0.077
Mof_Co	Co	0.73534	0.47069	0.25	1.172
Mof_Co	Co	0.52931	0.26466	0.25	1.175
Mof_Co	Co	0.73534	0.26466	0.25	1.171
Mof_Co	Co	0.26466	0.52931	0.75	1.174
Mof_Co	Co	0.47069	0.73534	0.75	1.172
Mof_Co	Co	0.26466	0.73534	0.75	1.171
Mof_O 	O 	0.66667	0.33333	0.25	-0.596
Mof_O 	O 	0.33333	0.66667	0.75	-0.597
Mof_C 	C 	0.54595	0.45405	0.41173	-0.259
Mof_C 	C 	0.5171	0.4829	0.4715	0.378
Mof_C 	C 	0.5766	0.4234	0.3512	0.575
Mof_C 	C 	0.54595	0.0919	0.41173	-0.153
Mof_C 	C 	0.5171	0.0342	0.4715	0.276
Mof_C 	C 	0.5766	0.1532	0.3512	0.56
Mof_C 	C 	0.9081	0.45405	0.41173	-0.153
Mof_C 	C 	0.9658	0.4829	0.4715	0.148
Mof_C 	C 	0.8468	0.4234	0.3512	0.562
Mof_C 	C 	0.45405	0.54595	0.91173	-0.16
Mof_C 	C 	0.4829	0.5171	0.9715	0.163
Mof_C 	C 	0.4234	0.5766	0.8512	0.562
Mof_C 	C 	0.45405	0.9081	0.91173	-0.071
Mof_C 	C 	0.4829	0.9658	0.9715	-0.029
Mof_C 	C 	0.4234	0.8468	0.8512	0.551
Mof_C 	C 	0.0919	0.54595	0.91173	-0.04
Mof_C 	C 	0.0342	0.5171	0.9715	0.049
Mof_C 	C 	0.1532	0.5766	0.8512	0.545
Mof_C 	C 	0.45405	0.54595	0.58827	-0.26
Mof_C 	C 	0.4829	0.5171	0.5285	0.378
Mof_C 	C 	0.4234	0.5766	0.6488	0.577
Mof_C 	C 	0.0919	0.54595	0.58827	-0.138
Mof_C 	C 	0.0342	0.5171	0.5285	0.26
Mof_C 	C 	0.1532	0.5766	0.6488	0.56
Mof_C 	C 	0.45405	0.9081	0.58827	-0.169
Mof_C 	C 	0.4829	0.9658	0.5285	0.179
Mof_C 	C 	0.4234	0.8468	0.6488	0.566
Mof_C 	C 	0.54595	0.45405	0.08827	-0.146
Mof_C 	C 	0.5171	0.4829	0.0285	0.269
Mof_C 	C 	0.5766	0.4234	0.1488	0.562
Mof_C 	C 	0.9081	0.45405	0.08827	-0.043
Mof_C 	C 	0.9658	0.4829	0.0285	0.042
Mof_C 	C 	0.8468	0.4234	0.1488	0.548
Mof_C 	C 	0.54595	0.0919	0.08827	-0.044
Mof_C 	C 	0.5171	0.0342	0.0285	0.171
Mof_C 	C 	0.5766	0.1532	0.1488	0.547
Mof_C 	C 	0.4308	0.4308	0.5	-0.66
Mof_C 	C 	0.5692	1.08882e-32	0.5	-0.364
Mof_C 	C 	2.97573e-17	0.5692	0.5	-0.317
Mof_C 	C 	0.5692	0.5692	-0	-0.341
Mof_C 	C 	0.4308	0	-0	-0.055
Mof_C 	C 	-0	0.4308	-0	-0.006
Mof_C 	C 	0.5692	0.5692	0.5	-0.66
Mof_C 	C 	0.4308	1.08882e-32	0.5	-0.364
Mof_C 	C 	-1.92787e-17	0.4308	0.5	-0.317
Mof_C 	C 	0.4308	0.4308	-0	-0.341
Mof_C 	C 	0.5692	0	-0	-0.055
Mof_C 	C 	-0	0.5692	-0	-0.006
_end
