data_functionalizedCrystal
_audit_creation_method	'EQeq! by Chris Wilmer'
_symmetry_space_group_name_H-M	'P1'
_symmetry_Int_Tables_number	1
_symmetry_cell_setting	triclinic
loop_
_symmetry_equiv_pos_as_xyz
  x,y,z
_cell_length_a	21.6978
_cell_length_b	21.6978
_cell_length_c	7.4057
_cell_angle_alpha	90
_cell_angle_beta	90
_cell_angle_gamma	90
loop_
_atom_site_label
_atom_site_type_symbol
_atom_site_fract_x
_atom_site_fract_y
_atom_site_fract_z
_atom_site_charge
Mof_Ba	Ba	0.95725	0.4628	0.21367	1.561
Mof_N 	N 	0.81697	0.19326	0.4534	-0.105
Mof_C 	C 	0.85107	0.20849	0.3112	0.176
Mof_N 	N 	0.90398	0.23818	0.3398	-0.199
Mof_C 	C 	0.9245	0.25853	0.5156	0.068
Mof_C 	C 	0.94256	0.32663	0.5134	0.321
Mof_O 	O 	0.96619	0.34813	0.3717	-0.412
Mof_O 	O 	0.93432	0.35532	0.6595	-0.361
Mof_C 	C 	0.9803	0.22122	0.5826	-0.331
Mof_C 	C 	0.9821	0.1512	0.568	0.294
Mof_S 	S 	0.04813	0.10993	0.5036	0.456
Mof_C 	C 	0.0326	0.1124	0.2713	-3.055
Mof_C 	C 	0.9669	0.1528	0.605	0.181
Mof_S 	S 	0.0321	0.109	0.661	0.129
Mof_C 	C 	0.0365	0.132	0.8879	1.865
Mof_C 	C 	0.9587	0.1554	0.616	0.48
Mof_S 	S 	0.0062	0.1086	0.7504	-0.588
Mof_C 	C 	0.9591	0.0444	0.788	2.489
Mof_N 	N 	0.83557	0.19498	0.1346	-0.194
Mof_C 	C 	0.8732	0.2181	0.9853	-0.019
Mof_C 	C 	0.7834	0.15979	0.0938	0.094
Mof_O 	O 	0.77333	0.14408	0.9376	-0.196
Mof_C 	C 	0.74418	0.1452	0.2475	-0.06
Mof_N 	N 	0.69166	0.11603	0.2017	-0.044
Mof_O 	O 	0.65552	0.10002	0.3312	-0.199
Mof_C 	C 	0.7637	0.1622	0.4246	0.192
Mof_N 	N 	0.73105	0.14872	0.5679	-0.311
Mof_O 	O 	0.93625	0.54798	0.9311	-0.87
Mof_O 	O 	0.06933	0.5213	0.0827	-0.889
Mof_O 	O 	0.01385	0.41948	0.8834	-0.913
Mof_H 	H 	0.9278	0.2458	0.2462	0.076
Mof_H 	H 	0.89	0.2529	0.6034	0.134
Mof_H 	H 	0.0169	0.2371	0.5178	-1.248
Mof_H 	H 	0.9861	0.2315	0.7117	0.224
Mof_H 	H 	0.0146	0.2263	0.4958	0.371
Mof_H 	H 	0.994	0.2381	0.7001	0.039
Mof_H 	H 	0.0134	0.2216	0.4907	0.924
Mof_H 	H 	0.9967	0.2394	0.6955	-0.048
Mof_H 	H 	0.9492	0.1395	0.4818	-0.107
Mof_H 	H 	0.9696	0.1349	0.6871	-2.158
Mof_H 	H 	0.065	0.0903	0.2057	0.768
Mof_H 	H 	0.0315	0.1554	0.231	0.513
Mof_H 	H 	0.9926	0.0929	0.2475	0.323
Mof_H 	H 	0.9944	0.1355	0.2504	0.594
Mof_H 	H 	0.0279	0.0703	0.2252	1.233
Mof_H 	H 	0.0667	0.1328	0.2086	0.531
Mof_H 	H 	0.9493	0.1368	0.4907	-0.081
Mof_H 	H 	0.9355	0.1474	0.7004	4.819
Mof_H 	H 	0.0696	0.1092	0.9483	-0.55
Mof_H 	H 	0.9972	0.1234	0.9481	-0.049
Mof_H 	H 	0.0452	0.1763	0.894	-0.324
Mof_H 	H 	0.0051	0.1634	0.9119	-0.396
Mof_H 	H 	0.0775	0.1492	0.9122	-0.103
Mof_H 	H 	0.0295	0.0963	0.9663	-0.98
Mof_H 	H 	0.9535	0.1349	0.4979	0.047
Mof_H 	H 	0.9176	0.1572	0.6739	-4.133
Mof_H 	H 	0.9809	0.0147	0.8647	0.007
Mof_H 	H 	0.949	0.025	0.6722	-0.606
Mof_H 	H 	0.9211	0.0575	0.8482	-0.927
Mof_H 	H 	0.9198	0.0501	0.7254	0.962
Mof_H 	H 	0.9517	0.0398	0.9179	-2.102
Mof_H 	H 	0.9796	0.0073	0.7419	-0.473
Mof_H 	H 	0.8802	0.2624	0.0009	-0.03
Mof_H 	H 	0.8518	0.2108	0.8708	0.138
Mof_H 	H 	0.9129	0.1965	0.9842	0.033
Mof_H 	H 	0.7441	0.1598	0.6756	0.196
Mof_H 	H 	0.6961	0.1286	0.5565	0.161
Mof_H 	H 	0.9016	0.5341	0.901	0.292
Mof_H 	H 	0.9272	0.5818	0.9796	0.372
Mof_H 	H 	0.0729	0.5585	0.1128	0.309
Mof_H 	H 	0.1041	0.5046	0.0714	0.252
Mof_H 	H 	0.0419	0.3983	0.9308	0.344
Mof_H 	H 	0.9928	0.3971	0.8144	0.384
Mof_Ba	Ba	0.04275	0.5372	0.71367	1.715
Mof_N 	N 	0.18303	0.80674	0.9534	-0.04
Mof_C 	C 	0.14893	0.79151	0.8112	0.223
Mof_N 	N 	0.09602	0.76182	0.8398	-0.136
Mof_C 	C 	0.0755	0.74147	0.0156	0.184
Mof_C 	C 	0.05744	0.67337	0.0134	-0.035
Mof_O 	O 	0.03381	0.65187	0.8717	-0.359
Mof_O 	O 	0.06568	0.64468	0.1595	-0.347
Mof_C 	C 	0.0197	0.77878	0.0826	-0.887
Mof_C 	C 	0.0179	0.8488	0.068	0.15
Mof_S 	S 	0.95187	0.89007	0.0036	0.603
Mof_C 	C 	0.9674	0.8876	0.7713	-4.923
Mof_C 	C 	0.0331	0.8472	0.105	0.8
Mof_S 	S 	0.9679	0.891	0.161	0.85
Mof_C 	C 	0.9635	0.868	0.3879	4.664
Mof_C 	C 	0.0413	0.8446	0.116	1.411
Mof_S 	S 	0.9938	0.8914	0.2504	-1.64
Mof_C 	C 	0.0409	0.9556	0.288	2.052
Mof_N 	N 	0.16443	0.80502	0.6346	-0.138
Mof_C 	C 	0.1268	0.7819	0.4853	-0.413
Mof_C 	C 	0.2166	0.84021	0.5938	0.171
Mof_O 	O 	0.22667	0.85592	0.4376	-0.236
Mof_C 	C 	0.25582	0.8548	0.7475	-0.089
Mof_N 	N 	0.30834	0.88397	0.7017	-0.031
Mof_O 	O 	0.34448	0.89998	0.8312	-0.18
Mof_C 	C 	0.2363	0.8378	0.9246	0.282
Mof_N 	N 	0.26895	0.85128	0.0679	-0.36
Mof_O 	O 	0.06375	0.45202	0.4311	-0.881
Mof_O 	O 	0.93067	0.4787	0.5827	-0.864
Mof_O 	O 	0.98615	0.58052	0.3834	-0.878
Mof_H 	H 	0.0722	0.7542	0.7462	0.119
Mof_H 	H 	0.11	0.7471	0.1034	0.172
Mof_H 	H 	0.9831	0.7629	0.0178	6.426
Mof_H 	H 	0.0139	0.7685	0.2117	-1.128
Mof_H 	H 	0.9854	0.7737	0.9958	-1.578
Mof_H 	H 	0.006	0.7619	0.2001	0.29
Mof_H 	H 	0.9866	0.7784	0.9907	-4.298
Mof_H 	H 	0.0033	0.7606	0.1955	0.768
Mof_H 	H 	0.0508	0.8605	0.9818	-0.245
Mof_H 	H 	0.0304	0.8651	0.1871	-3.707
Mof_H 	H 	0.935	0.9097	0.7057	1.263
Mof_H 	H 	0.9685	0.8446	0.731	0.971
Mof_H 	H 	0.0074	0.9071	0.7475	0.443
Mof_H 	H 	0.0056	0.8645	0.7504	1.095
Mof_H 	H 	0.9721	0.9297	0.7252	2.328
Mof_H 	H 	0.9333	0.8672	0.7086	0.883
Mof_H 	H 	0.0507	0.8632	0.9907	-0.105
Mof_H 	H 	0.0645	0.8526	0.2004	7.751
Mof_H 	H 	0.9304	0.8908	0.4483	-1.213
Mof_H 	H 	0.0028	0.8766	0.4481	-0.302
Mof_H 	H 	0.9548	0.8237	0.394	-0.848
Mof_H 	H 	0.9949	0.8366	0.4119	-0.858
Mof_H 	H 	0.9225	0.8508	0.4122	-0.538
Mof_H 	H 	0.9705	0.9037	0.4663	-1.928
Mof_H 	H 	0.0465	0.8651	0.9979	0.155
Mof_H 	H 	0.0824	0.8428	0.1739	-6.841
Mof_H 	H 	0.0191	0.9853	0.3647	0.124
Mof_H 	H 	0.051	0.975	0.1722	-0.559
Mof_H 	H 	0.0789	0.9425	0.3482	-0.938
Mof_H 	H 	0.0802	0.9499	0.2254	1.63
Mof_H 	H 	0.0483	0.9602	0.4179	-1.564
Mof_H 	H 	0.0204	0.9927	0.2419	-0.446
Mof_H 	H 	0.1198	0.7376	0.5009	0.139
Mof_H 	H 	0.1482	0.7892	0.3708	0.311
Mof_H 	H 	0.0871	0.8035	0.4842	0.188
Mof_H 	H 	0.2559	0.8402	0.1756	0.203
Mof_H 	H 	0.3039	0.8714	0.0565	0.139
Mof_H 	H 	0.0984	0.4659	0.401	0.268
Mof_H 	H 	0.0728	0.4182	0.4796	0.343
Mof_H 	H 	0.9271	0.4415	0.6128	0.326
Mof_H 	H 	0.8959	0.4954	0.5714	0.272
Mof_H 	H 	0.9581	0.6017	0.4308	0.294
Mof_H 	H 	0.0072	0.6029	0.3144	0.315
Mof_Ba	Ba	0.5372	0.95725	0.96367	1.817
Mof_N 	N 	0.80674	0.81697	0.2034	-0.015
Mof_C 	C 	0.79151	0.85107	0.0612	0.129
Mof_N 	N 	0.76182	0.90398	0.0898	-0.246
Mof_C 	C 	0.74147	0.9245	0.2656	0.186
Mof_C 	C 	0.67337	0.94256	0.2634	0.302
Mof_O 	O 	0.65187	0.96619	0.1217	-0.453
Mof_O 	O 	0.64468	0.93432	0.4095	-0.371
Mof_C 	C 	0.77878	0.9803	0.3326	-0.536
Mof_C 	C 	0.8488	0.9821	0.318	0.531
Mof_S 	S 	0.89007	0.04813	0.2536	0.347
Mof_C 	C 	0.8876	0.0326	0.0213	-5.645
Mof_C 	C 	0.8472	0.9669	0.355	0.326
Mof_S 	S 	0.891	0.0321	0.411	1.233
Mof_C 	C 	0.868	0.0365	0.6379	3.842
Mof_C 	C 	0.8446	0.9587	0.366	0.863
Mof_S 	S 	0.8914	0.0062	0.5004	-1.702
Mof_C 	C 	0.9556	0.9591	0.538	2.784
Mof_N 	N 	0.80502	0.83557	0.8846	-0.09
Mof_C 	C 	0.7819	0.8732	0.7353	-0.41
Mof_C 	C 	0.84021	0.7834	0.8438	0.176
Mof_O 	O 	0.85592	0.77333	0.6876	-0.215
Mof_C 	C 	0.8548	0.74418	0.9975	-0.042
Mof_N 	N 	0.88397	0.69166	0.9517	-0.076
Mof_O 	O 	0.89998	0.65552	0.0812	-0.412
Mof_C 	C 	0.8378	0.7637	0.1746	0.069
Mof_N 	N 	0.85128	0.73105	0.3179	-0.292
Mof_O 	O 	0.45202	0.93625	0.6811	-0.896
Mof_O 	O 	0.4787	0.06933	0.8327	-0.872
Mof_O 	O 	0.58052	0.01385	0.6334	-0.906
Mof_H 	H 	0.7542	0.9278	0.9962	0.135
Mof_H 	H 	0.7471	0.89	0.3534	0.2
Mof_H 	H 	0.7629	0.0169	0.2678	-1.955
Mof_H 	H 	0.7685	0.9861	0.4617	0.322
Mof_H 	H 	0.7737	0.0146	0.2458	0.575
Mof_H 	H 	0.7619	0.994	0.4501	0.059
Mof_H 	H 	0.7784	0.0134	0.2407	1.441
Mof_H 	H 	0.7606	0.9967	0.4455	-0.066
Mof_H 	H 	0.8605	0.9492	0.2318	-0.177
Mof_H 	H 	0.8651	0.9696	0.4371	-4.031
Mof_H 	H 	0.9097	0.065	0.9557	1.369
Mof_H 	H 	0.8446	0.0315	0.981	1.032
Mof_H 	H 	0.9071	0.9926	0.9975	0.618
Mof_H 	H 	0.8645	0.9944	0.0004	1.029
Mof_H 	H 	0.9297	0.0279	0.9752	2.529
Mof_H 	H 	0.8672	0.0667	0.9586	0.997
Mof_H 	H 	0.8632	0.9493	0.2407	-0.136
Mof_H 	H 	0.8526	0.9355	0.4504	9.309
Mof_H 	H 	0.8908	0.0696	0.6983	-0.99
Mof_H 	H 	0.8766	0.9972	0.6981	-0.289
Mof_H 	H 	0.8237	0.0452	0.644	-0.677
Mof_H 	H 	0.8366	0.0051	0.6619	-0.739
Mof_H 	H 	0.8508	0.0775	0.6622	-0.516
Mof_H 	H 	0.9037	0.0295	0.7163	-1.465
Mof_H 	H 	0.8651	0.9535	0.2479	0.101
Mof_H 	H 	0.8428	0.9176	0.4239	-7.983
Mof_H 	H 	0.9853	0.9809	0.6147	0.031
Mof_H 	H 	0.975	0.949	0.4222	-0.664
Mof_H 	H 	0.9425	0.9211	0.5982	-1.047
Mof_H 	H 	0.9499	0.9198	0.4754	1.34
Mof_H 	H 	0.9602	0.9517	0.6679	-1.985
Mof_H 	H 	0.9927	0.9796	0.4919	-0.579
Mof_H 	H 	0.7376	0.8802	0.7509	0.142
Mof_H 	H 	0.7892	0.8518	0.6208	0.328
Mof_H 	H 	0.8035	0.9129	0.7342	0.145
Mof_H 	H 	0.8402	0.7441	0.4256	0.204
Mof_H 	H 	0.8714	0.6961	0.3065	0.106
Mof_H 	H 	0.4659	0.9016	0.651	0.274
Mof_H 	H 	0.4182	0.9272	0.7296	0.352
Mof_H 	H 	0.4415	0.0729	0.8628	0.331
Mof_H 	H 	0.4954	0.1041	0.8214	0.279
Mof_H 	H 	0.6017	0.0419	0.6808	0.325
Mof_H 	H 	0.6029	0.9928	0.5644	0.357
Mof_Ba	Ba	0.4628	0.04275	0.46367	1.673
Mof_N 	N 	0.19326	0.18303	0.7034	-0.06
Mof_C 	C 	0.20849	0.14893	0.5612	0.203
Mof_N 	N 	0.23818	0.09602	0.5898	-0.198
Mof_C 	C 	0.25853	0.0755	0.7656	0.148
Mof_C 	C 	0.32663	0.05744	0.7634	0.307
Mof_O 	O 	0.34813	0.03381	0.6217	-0.404
Mof_O 	O 	0.35532	0.06568	0.9095	-0.344
Mof_C 	C 	0.22122	0.0197	0.8326	-0.446
Mof_C 	C 	0.1512	0.0179	0.818	0.381
Mof_S 	S 	0.10993	0.95187	0.7536	0.579
Mof_C 	C 	0.1124	0.9674	0.5213	-4.519
Mof_C 	C 	0.1528	0.0331	0.855	0.309
Mof_S 	S 	0.109	0.9679	0.911	0.554
Mof_C 	C 	0.132	0.9635	0.1379	4.072
Mof_C 	C 	0.1554	0.0413	0.866	0.806
Mof_S 	S 	0.1086	0.9938	0.0004	-1.117
Mof_C 	C 	0.0444	0.0409	0.038	1.079
Mof_N 	N 	0.19498	0.16443	0.3846	-0.146
Mof_C 	C 	0.2181	0.1268	0.2353	-0.346
Mof_C 	C 	0.15979	0.2166	0.3438	0.182
Mof_O 	O 	0.14408	0.22667	0.1876	-0.265
Mof_C 	C 	0.1452	0.25582	0.4975	-0.084
Mof_N 	N 	0.11603	0.30834	0.4517	-0.04
Mof_O 	O 	0.10002	0.34448	0.5812	-0.209
Mof_C 	C 	0.1622	0.2363	0.6746	0.209
Mof_N 	N 	0.14872	0.26895	0.8179	-0.32
Mof_O 	O 	0.54798	0.06375	0.1811	-0.904
Mof_O 	O 	0.5213	0.93067	0.3327	-0.886
Mof_O 	O 	0.41948	0.98615	0.1334	-0.964
Mof_H 	H 	0.2458	0.0722	0.4962	0.079
Mof_H 	H 	0.2529	0.11	0.8534	0.188
Mof_H 	H 	0.2371	0.9831	0.7678	-1.643
Mof_H 	H 	0.2315	0.0139	0.9617	0.274
Mof_H 	H 	0.2263	0.9854	0.7458	0.486
Mof_H 	H 	0.2381	0.006	0.9501	0.067
Mof_H 	H 	0.2216	0.9866	0.7407	1.215
Mof_H 	H 	0.2394	0.0033	0.9455	-0.039
Mof_H 	H 	0.1395	0.0508	0.7318	-0.142
Mof_H 	H 	0.1349	0.0304	0.9371	-3.405
Mof_H 	H 	0.0903	0.935	0.4557	1.18
Mof_H 	H 	0.1554	0.9685	0.481	0.772
Mof_H 	H 	0.0929	0.0074	0.4975	0.473
Mof_H 	H 	0.1355	0.0056	0.5004	0.918
Mof_H 	H 	0.0703	0.9721	0.4752	1.962
Mof_H 	H 	0.1328	0.9333	0.4586	0.806
Mof_H 	H 	0.1368	0.0507	0.7407	-0.106
Mof_H 	H 	0.1474	0.0645	0.9504	7.826
Mof_H 	H 	0.1092	0.9304	0.1983	-1.171
Mof_H 	H 	0.1234	0.0028	0.1981	-0.165
Mof_H 	H 	0.1763	0.9548	0.144	-0.728
Mof_H 	H 	0.1634	0.9949	0.1619	-0.861
Mof_H 	H 	0.1492	0.9225	0.1622	-0.439
Mof_H 	H 	0.0963	0.9705	0.2163	-2.028
Mof_H 	H 	0.1349	0.0465	0.7479	0.09
Mof_H 	H 	0.1572	0.0824	0.9239	-6.726
Mof_H 	H 	0.0147	0.0191	0.1147	0.08
Mof_H 	H 	0.025	0.051	0.9222	-0.329
Mof_H 	H 	0.0575	0.0789	0.0982	-0.594
Mof_H 	H 	0.0501	0.0802	0.9754	0.863
Mof_H 	H 	0.0398	0.0483	0.1679	-0.904
Mof_H 	H 	0.0073	0.0204	0.9919	-0.126
Mof_H 	H 	0.2624	0.1198	0.2509	0.104
Mof_H 	H 	0.2108	0.1482	0.1208	0.257
Mof_H 	H 	0.1965	0.0871	0.2342	0.125
Mof_H 	H 	0.1598	0.2559	0.9256	0.221
Mof_H 	H 	0.1286	0.3039	0.8065	0.165
Mof_H 	H 	0.5341	0.0984	0.151	0.262
Mof_H 	H 	0.5818	0.0728	0.2296	0.348
Mof_H 	H 	0.5585	0.9271	0.3628	0.316
Mof_H 	H 	0.5046	0.8959	0.3214	0.258
Mof_H 	H 	0.3983	0.9581	0.1808	0.321
Mof_H 	H 	0.3971	0.0072	0.0644	0.364
_end
