data_functionalizedCrystal
_audit_creation_method	'EQeq! by Chris Wilmer'
_symmetry_space_group_name_H-M	'P1'
_symmetry_Int_Tables_number	1
_symmetry_cell_setting	triclinic
loop_
_symmetry_equiv_pos_as_xyz
  x,y,z
_cell_length_a	35.1081
_cell_length_b	14.6516
_cell_length_c	31.3279
_cell_angle_alpha	90
_cell_angle_beta	101.649
_cell_angle_gamma	90
loop_
_atom_site_label
_atom_site_type_symbol
_atom_site_fract_x
_atom_site_fract_y
_atom_site_fract_z
_atom_site_charge
Mof_Zn	Zn	0.33034	0.8624	0.48105	0.585
Mof_I 	I 	0.2694	0.76837	0.45798	-0.164
Mof_I 	I 	0.37603	0.8507	0.55404	-0.391
Mof_Zn	Zn	0.6222	0.1091	0.3222	0.644
Mof_I 	I 	0.64634	0.1207	0.2493	-0.071
Mof_I 	I 	0.5966	0.2369	0.3583	-0.491
Mof_Zn	Zn	0.9199	0.1324	0.6575	0.624
Mof_I 	I 	0.97556	0.1534	0.6197	-0.394
Mof_I 	I 	0.88321	0.2463	0.69303	-0.064
Mof_Zn	Zn	0.8321	0.6383	0.9782	0.621
Mof_I 	I 	0.77129	0.735	0.95695	0.07
Mof_I 	I 	0.88119	0.6613	0.04887	-0.452
Mof_Zn	Zn	0.91816	0.8713	0.15807	1.156
Mof_I 	I 	0.9785	0.8368	0.1218	-0.286
Mof_I 	I 	0.8875	0.7566	0.2005	-0.173
Mof_Zn	Zn	0.6259	0.8849	0.8164	0.598
Mof_I 	I 	0.6478	0.8993	0.7473	-0.086
Mof_I 	I 	0.6063	0.7539	0.8544	-0.282
Mof_N 	N 	0.3617	0.8418	0.4321	-0.307
Mof_C 	C 	0.3492	0.7938	0.3934	0.071
Mof_H 	H 	0.3233	0.771	0.3876	-0.018
Mof_C 	C 	0.3708	0.778	0.3642	-0.138
Mof_H 	H 	0.3612	0.7397	0.34	0.089
Mof_C 	C 	0.4073	0.8167	0.3689	0.091
Mof_C 	C 	0.4183	0.864	0.4047	-0.17
Mof_H 	H 	0.4445	0.8848	0.4117	0.098
Mof_C 	C 	0.3957	0.885	0.4307	0.11
Mof_H 	H 	0.4032	0.9346	0.4504	-0.03
Mof_N 	N 	0.5779	0.0145	0.311	-0.277
Mof_C 	C 	0.5632	0.9708	0.2762	0.075
Mof_H 	H 	0.5736	0.9807	0.2509	-0.022
Mof_C 	C 	0.5327	0.9095	0.274	-0.131
Mof_H 	H 	0.5248	0.8733	0.2486	0.071
Mof_C 	C 	0.5141	0.9007	0.3073	0.043
Mof_C 	C 	0.5336	0.9404	0.3467	-0.114
Mof_H 	H 	0.5258	0.9277	0.3734	0.08
Mof_C 	C 	0.5646	0.9987	0.3453	0.05
Mof_H 	H 	0.5766	0.0286	0.3715	-0.002
Mof_N 	N 	0.4309	0.4802	0.2006	-0.271
Mof_C 	C 	0.4044	0.5054	0.2248	0.055
Mof_H 	H 	0.3819	0.4687	0.2236	-0.011
Mof_C 	C 	0.409	0.5829	0.251	-0.114
Mof_H 	H 	0.3895	0.5996	0.2667	0.076
Mof_C 	C 	0.4416	0.6342	0.2538	0.049
Mof_C 	C 	0.4684	0.6124	0.2301	-0.117
Mof_H 	H 	0.4908	0.6495	0.231	0.063
Mof_C 	C 	0.4627	0.5339	0.2043	0.064
Mof_H 	H 	0.482	0.5175	0.1884	-0.016
Mof_C 	C 	0.4309	0.7991	0.3363	0.096
Mof_N 	N 	0.4589	0.859	0.3367	-0.133
Mof_C 	C 	0.4809	0.8437	0.306	0.082
Mof_N 	N 	0.4757	0.7731	0.2777	-0.149
Mof_C 	C 	0.4462	0.716	0.2824	0.091
Mof_N 	N 	0.424	0.7271	0.31	-0.138
Mof_N 	N 	0.6655	0.0427	0.3609	-0.27
Mof_C 	C 	0.6856	0.0867	0.3957	0.054
Mof_H 	H 	0.6795	0.1486	0.4006	-0.007
Mof_C 	C 	0.7147	0.0439	0.4246	-0.091
Mof_H 	H 	0.7278	0.0752	0.4499	0.081
Mof_C 	C 	0.7252	0.954	0.4169	0.017
Mof_C 	C 	0.7045	0.911	0.3812	-0.094
Mof_H 	H 	0.7105	0.8496	0.3755	0.075
Mof_C 	C 	0.675	0.955	0.3534	0.036
Mof_H 	H 	0.6611	0.9238	0.3285	0.004
Mof_N 	N 	0.8765	0.0635	0.6107	-0.294
Mof_C 	C 	0.8482	0.103	0.5824	0.072
Mof_H 	H 	0.8437	0.166	0.5866	-0.021
Mof_C 	C 	0.8248	0.0614	0.5477	-0.109
Mof_H 	H 	0.8058	0.0953	0.5281	0.072
Mof_C 	C 	0.8293	0.9702	0.5418	0.033
Mof_C 	C 	0.8583	0.9248	0.5714	-0.096
Mof_H 	H 	0.8618	0.861	0.5685	0.086
Mof_C 	C 	0.8819	0.9716	0.6047	0.029
Mof_H 	H 	0.9022	0.9402	0.6237	0.005
Mof_N 	N 	0.8173	0.5007	0.4718	-0.274
Mof_C 	C 	0.7852	0.5347	0.4458	0.066
Mof_H 	H 	0.7676	0.4943	0.4281	-0.015
Mof_C 	C 	0.7774	0.6263	0.4444	-0.119
Mof_H 	H 	0.7538	0.6482	0.427	0.076
Mof_C 	C 	0.8032	0.6867	0.4678	0.056
Mof_C 	C 	0.8366	0.6511	0.4926	-0.118
Mof_H 	H 	0.8546	0.6906	0.5103	0.084
Mof_C 	C 	0.8444	0.5596	0.4922	0.063
Mof_H 	H 	0.8691	0.5375	0.5065	-0.01
Mof_C 	C 	0.7576	0.909	0.4457	0.094
Mof_N 	N 	0.7774	0.9608	0.479	-0.143
Mof_C 	C 	0.8079	0.9196	0.5051	0.097
Mof_N 	N 	0.8175	0.83	0.4995	-0.137
Mof_C 	C 	0.7957	0.7867	0.4683	0.109
Mof_N 	N 	0.7651	0.8218	0.4398	-0.142
Mof_N 	N 	0.9319	0.0224	0.7023	-0.302
Mof_C 	C 	0.9113	0.008	0.7282	0.135
Mof_H 	H 	0.8925	0.0525	0.7313	-0.052
Mof_C 	C 	0.9135	0.9284	0.7543	-0.178
Mof_H 	H 	0.8949	0.9166	0.7718	0.088
Mof_C 	C 	0.9432	0.8698	0.7534	0.072
Mof_C 	C 	0.9683	0.8922	0.7268	-0.138
Mof_H 	H 	0.9904	0.855	0.7264	0.078
Mof_C 	C 	0.9615	0.9692	0.7005	0.075
Mof_H 	H 	0.9783	0.9832	0.6811	-0.015
Mof_N 	N 	0.8613	0.6544	0.9261	-0.31
Mof_C 	C 	0.8906	0.61	0.9281	0.12
Mof_H 	H 	0.8979	0.5688	0.9517	-0.048
Mof_C 	C 	0.9153	0.618	0.8959	-0.153
Mof_H 	H 	0.9361	0.5763	0.8957	0.083
Mof_C 	C 	0.9071	0.6865	0.8663	0.084
Mof_C 	C 	0.8739	0.7349	0.8659	-0.151
Mof_H 	H 	0.8657	0.7811	0.8447	0.088
Mof_C 	C 	0.8523	0.7149	0.8972	0.106
Mof_H 	H 	0.8292	0.7489	0.8968	-0.04
Mof_N 	N 	0.0793	0.4857	0.8086	-0.292
Mof_C 	C 	0.065	0.5325	0.7718	0.069
Mof_H 	H 	0.0771	0.5276	0.7474	-0.008
Mof_C 	C 	0.0328	0.5872	0.7696	-0.125
Mof_H 	H 	0.0223	0.6185	0.7433	0.078
Mof_C 	C 	0.0156	0.5971	0.8057	0.055
Mof_C 	C 	0.0282	0.548	0.8414	-0.136
Mof_H 	H 	0.0158	0.5487	0.8657	0.082
Mof_C 	C 	0.0625	0.493	0.8406	0.09
Mof_H 	H 	0.0732	0.4601	0.8663	-0.038
Mof_C 	C 	0.9493	0.7847	0.7808	0.072
Mof_N 	N 	0.9253	0.7772	0.8104	-0.135
Mof_C 	C 	0.9316	0.7023	0.8347	0.09
Mof_N 	N 	0.9609	0.6423	0.834	-0.139
Mof_C 	C 	0.9814	0.6602	0.8054	0.094
Mof_N 	N 	0.9766	0.7274	0.7759	-0.15
Mof_N 	N 	0.8179	0.5013	0.9729	-0.287
Mof_C 	C 	0.7866	0.4703	0.9495	0.081
Mof_H 	H 	0.7684	0.5128	0.934	-0.023
Mof_C 	C 	0.7771	0.376	0.9453	-0.127
Mof_H 	H 	0.754	0.355	0.9266	0.077
Mof_C 	C 	0.8033	0.3164	0.9697	0.058
Mof_C 	C 	0.837	0.3505	0.9944	-0.127
Mof_H 	H 	0.8561	0.3105	0.0101	0.071
Mof_C 	C 	0.8428	0.4437	0.9961	0.074
Mof_H 	H 	0.8655	0.4673	0.0146	-0.02
Mof_N 	N 	0.8784	0.9387	0.1097	-0.291
Mof_C 	C 	0.8837	0.0234	0.1023	0.112
Mof_H 	H 	0.904	0.0541	0.1216	-0.023
Mof_C 	C 	0.8622	0.0735	0.0684	-0.161
Mof_H 	H 	0.8683	0.1356	0.0641	0.101
Mof_C 	C 	0.8326	0.0316	0.0418	0.083
Mof_C 	C 	0.8259	0.9401	0.0503	-0.163
Mof_H 	H 	0.8049	0.9088	0.0323	0.076
Mof_C 	C 	0.8489	0.8951	0.0838	0.075
Mof_H 	H 	0.8441	0.8326	0.0888	-0.023
Mof_N 	N 	0.6655	0.9628	0.8619	-0.304
Mof_C 	C 	0.688	0.9187	0.8947	0.092
Mof_H 	H 	0.6831	0.8557	0.8983	-0.013
Mof_C 	C 	0.7173	0.9586	0.9232	-0.167
Mof_H 	H 	0.7327	0.923	0.9455	0.101
Mof_C 	C 	0.7249	0.0489	0.9202	0.075
Mof_C 	C 	0.7006	0.0987	0.8874	-0.148
Mof_H 	H 	0.7039	0.1624	0.8839	0.087
Mof_C 	C 	0.671	0.0499	0.8599	0.105
Mof_H 	H 	0.6537	0.0833	0.8382	-0.019
Mof_C 	C 	0.7939	0.2165	0.9718	0.1
Mof_N 	N 	0.8185	0.169	0.0024	-0.139
Mof_C 	C 	0.8073	0.084	0.0058	0.094
Mof_N 	N 	0.7777	0.042	0.9819	-0.142
Mof_C 	C 	0.7579	0.095	0.9509	0.076
Mof_N 	N 	0.7639	0.1831	0.9447	-0.145
Mof_Zn	Zn	0.3268	0.8601	0.4696	0.62
Mof_I 	I 	0.2654	0.7799	0.4517	-0.205
Mof_I 	I 	0.3673	0.8265	0.5441	-0.006
Mof_Zn	Zn	0.6236	0.108	0.3089	0.627
Mof_I 	I 	0.6475	0.0984	0.2431	-0.305
Mof_I 	I 	0.6099	0.2474	0.3462	0.078
Mof_Zn	Zn	0.9081	0.1226	0.657	0.653
Mof_I 	I 	0.9681	0.1751	0.6283	0.042
Mof_I 	I 	0.8699	0.2334	0.6951	-0.318
Mof_Zn	Zn	0.8225	0.6475	0.9702	0.612
Mof_I 	I 	0.7591	0.7231	0.9414	-0.467
Mof_I 	I 	0.8704	0.6791	0.0383	0.021
Mof_I 	I 	0.9738	0.8551	0.1247	-0.075
Mof_I 	I 	0.8789	0.7602	0.1931	-0.179
Mof_Zn	Zn	0.6257	0.9102	0.8133	0.628
Mof_I 	I 	0.6544	0.9038	0.7439	-0.276
Mof_I 	I 	0.6051	0.7622	0.8462	-0.098
Mof_Zn	Zn	0.83034	0.3624	0.48105	0.587
Mof_I 	I 	0.7694	0.26837	0.45798	-0.161
Mof_I 	I 	0.87603	0.3507	0.55404	-0.389
Mof_Zn	Zn	0.1222	0.6091	0.3222	0.645
Mof_I 	I 	0.14634	0.6207	0.2493	-0.075
Mof_I 	I 	0.0966	0.7369	0.3583	-0.49
Mof_Zn	Zn	0.4199	0.6324	0.6575	0.624
Mof_I 	I 	0.47556	0.6534	0.6197	-0.393
Mof_I 	I 	0.38321	0.7463	0.69303	-0.066
Mof_Zn	Zn	0.3321	0.1383	0.9782	0.623
Mof_I 	I 	0.27129	0.235	0.95695	0.072
Mof_I 	I 	0.38119	0.1613	0.04887	-0.451
Mof_Zn	Zn	0.41816	0.3713	0.15807	1.158
Mof_I 	I 	0.4785	0.3368	0.1218	-0.28
Mof_I 	I 	0.3875	0.2566	0.2005	-0.17
Mof_Zn	Zn	0.1259	0.3849	0.8164	0.599
Mof_I 	I 	0.1478	0.3993	0.7473	-0.081
Mof_I 	I 	0.1063	0.2539	0.8544	-0.28
Mof_N 	N 	0.8617	0.3418	0.4321	-0.305
Mof_C 	C 	0.8492	0.2938	0.3934	0.073
Mof_H 	H 	0.8233	0.271	0.3876	-0.016
Mof_C 	C 	0.8708	0.278	0.3642	-0.137
Mof_H 	H 	0.8612	0.2397	0.34	0.091
Mof_C 	C 	0.9073	0.3167	0.3689	0.093
Mof_C 	C 	0.9183	0.364	0.4047	-0.168
Mof_H 	H 	0.9445	0.3848	0.4117	0.1
Mof_C 	C 	0.8957	0.385	0.4307	0.112
Mof_H 	H 	0.9032	0.4346	0.4504	-0.026
Mof_N 	N 	0.0779	0.5145	0.311	-0.299
Mof_C 	C 	0.0632	0.4708	0.2762	0.1
Mof_H 	H 	0.0736	0.4807	0.2509	-0.024
Mof_C 	C 	0.0327	0.4095	0.274	-0.148
Mof_H 	H 	0.0248	0.3733	0.2486	0.079
Mof_C 	C 	0.0141	0.4007	0.3073	0.062
Mof_C 	C 	0.0336	0.4404	0.3467	-0.139
Mof_H 	H 	0.0258	0.4277	0.3734	0.092
Mof_C 	C 	0.0646	0.4987	0.3453	0.097
Mof_H 	H 	0.0766	0.5286	0.3715	-0.024
Mof_N 	N 	0.9309	0.9802	0.2006	-0.289
Mof_C 	C 	0.9044	0.0054	0.2248	0.096
Mof_H 	H 	0.8819	0.9687	0.2236	-0.031
Mof_C 	C 	0.909	0.0829	0.251	-0.136
Mof_H 	H 	0.8895	0.0996	0.2667	0.086
Mof_C 	C 	0.9416	0.1342	0.2538	0.064
Mof_C 	C 	0.9684	0.1124	0.2301	-0.132
Mof_H 	H 	0.9908	0.1495	0.231	0.068
Mof_C 	C 	0.9627	0.0339	0.2043	0.082
Mof_H 	H 	0.982	0.0175	0.1884	-0.019
Mof_C 	C 	0.9309	0.2991	0.3363	0.097
Mof_N 	N 	0.9589	0.359	0.3367	-0.131
Mof_C 	C 	0.9809	0.3437	0.306	0.077
Mof_N 	N 	0.9757	0.2731	0.2777	-0.147
Mof_C 	C 	0.9462	0.216	0.2824	0.087
Mof_N 	N 	0.924	0.2271	0.31	-0.137
Mof_N 	N 	0.1655	0.5427	0.3609	-0.281
Mof_C 	C 	0.1856	0.5867	0.3957	0.065
Mof_H 	H 	0.1795	0.6486	0.4006	-0.011
Mof_C 	C 	0.2147	0.5439	0.4246	-0.118
Mof_H 	H 	0.2278	0.5752	0.4499	0.088
Mof_C 	C 	0.2252	0.454	0.4169	0.042
Mof_C 	C 	0.2045	0.411	0.3812	-0.112
Mof_H 	H 	0.2105	0.3496	0.3755	0.082
Mof_C 	C 	0.175	0.455	0.3534	0.059
Mof_H 	H 	0.1611	0.4238	0.3285	-0.001
Mof_N 	N 	0.3765	0.5635	0.6107	-0.305
Mof_C 	C 	0.3482	0.603	0.5824	0.083
Mof_H 	H 	0.3437	0.666	0.5866	-0.025
Mof_C 	C 	0.3248	0.5614	0.5477	-0.138
Mof_H 	H 	0.3058	0.5953	0.5281	0.079
Mof_C 	C 	0.3293	0.4702	0.5418	0.059
Mof_C 	C 	0.3583	0.4248	0.5714	-0.112
Mof_H 	H 	0.3618	0.361	0.5685	0.092
Mof_C 	C 	0.3819	0.4716	0.6047	0.051
Mof_H 	H 	0.4022	0.4402	0.6237	0.001
Mof_N 	N 	0.3173	0.0007	0.4718	-0.275
Mof_C 	C 	0.2852	0.0347	0.4458	0.094
Mof_H 	H 	0.2676	0.9943	0.4281	-0.032
Mof_C 	C 	0.2774	0.1263	0.4444	-0.133
Mof_H 	H 	0.2538	0.1482	0.427	0.083
Mof_C 	C 	0.3032	0.1867	0.4678	0.064
Mof_C 	C 	0.3366	0.1511	0.4926	-0.123
Mof_H 	H 	0.3546	0.1906	0.5103	0.087
Mof_C 	C 	0.3444	0.0596	0.4922	0.068
Mof_H 	H 	0.3691	0.0375	0.5065	-0.008
Mof_C 	C 	0.2576	0.409	0.4457	0.088
Mof_N 	N 	0.2774	0.4608	0.479	-0.137
Mof_C 	C 	0.3079	0.4196	0.5051	0.092
Mof_N 	N 	0.3175	0.33	0.4995	-0.135
Mof_C 	C 	0.2957	0.2867	0.4683	0.107
Mof_N 	N 	0.2651	0.3218	0.4398	-0.14
Mof_N 	N 	0.4319	0.5224	0.7023	-0.305
Mof_C 	C 	0.4113	0.508	0.7282	0.115
Mof_H 	H 	0.3925	0.5525	0.7313	-0.048
Mof_C 	C 	0.4135	0.4284	0.7543	-0.158
Mof_H 	H 	0.3949	0.4166	0.7718	0.084
Mof_C 	C 	0.4432	0.3698	0.7534	0.067
Mof_C 	C 	0.4683	0.3922	0.7268	-0.137
Mof_H 	H 	0.4904	0.355	0.7264	0.079
Mof_C 	C 	0.4615	0.4692	0.7005	0.086
Mof_H 	H 	0.4783	0.4832	0.6811	-0.014
Mof_N 	N 	0.3613	0.1544	0.9261	-0.31
Mof_C 	C 	0.3906	0.11	0.9281	0.121
Mof_H 	H 	0.3979	0.0688	0.9517	-0.045
Mof_C 	C 	0.4153	0.118	0.8959	-0.153
Mof_H 	H 	0.4361	0.0763	0.8957	0.085
Mof_C 	C 	0.4071	0.1865	0.8663	0.085
Mof_C 	C 	0.3739	0.2349	0.8659	-0.151
Mof_H 	H 	0.3657	0.2811	0.8447	0.089
Mof_C 	C 	0.3523	0.2149	0.8972	0.107
Mof_H 	H 	0.3292	0.2489	0.8968	-0.04
Mof_N 	N 	0.5793	0.9857	0.8086	-0.295
Mof_C 	C 	0.565	0.0325	0.7718	0.08
Mof_H 	H 	0.5771	0.0276	0.7474	-0.007
Mof_C 	C 	0.5328	0.0872	0.7696	-0.123
Mof_H 	H 	0.5223	0.1185	0.7433	0.08
Mof_C 	C 	0.5156	0.0971	0.8057	0.051
Mof_C 	C 	0.5282	0.048	0.8414	-0.116
Mof_H 	H 	0.5158	0.0487	0.8657	0.077
Mof_C 	C 	0.5625	0.993	0.8406	0.071
Mof_H 	H 	0.5732	0.9601	0.8663	-0.034
Mof_C 	C 	0.4493	0.2847	0.7808	0.074
Mof_N 	N 	0.4253	0.2772	0.8104	-0.135
Mof_C 	C 	0.4316	0.2023	0.8347	0.09
Mof_N 	N 	0.4609	0.1423	0.834	-0.138
Mof_C 	C 	0.4814	0.1602	0.8054	0.097
Mof_N 	N 	0.4766	0.2274	0.7759	-0.15
Mof_N 	N 	0.3179	0.0013	0.9729	-0.266
Mof_C 	C 	0.2866	0.9703	0.9495	0.038
Mof_H 	H 	0.2684	0.0128	0.934	-0.002
Mof_C 	C 	0.2771	0.876	0.9453	-0.105
Mof_H 	H 	0.254	0.855	0.9266	0.068
Mof_C 	C 	0.3033	0.8164	0.9697	0.044
Mof_C 	C 	0.337	0.8505	0.9944	-0.111
Mof_H 	H 	0.3561	0.8105	0.0101	0.066
Mof_C 	C 	0.3428	0.9437	0.9961	0.053
Mof_H 	H 	0.3655	0.9673	0.0146	-0.017
Mof_N 	N 	0.3784	0.4387	0.1097	-0.278
Mof_C 	C 	0.3837	0.5234	0.1023	0.088
Mof_H 	H 	0.404	0.5541	0.1216	-0.016
Mof_C 	C 	0.3622	0.5735	0.0684	-0.141
Mof_H 	H 	0.3683	0.6356	0.0641	0.095
Mof_C 	C 	0.3326	0.5316	0.0418	0.057
Mof_C 	C 	0.3259	0.4401	0.0503	-0.134
Mof_H 	H 	0.3049	0.4088	0.0323	0.069
Mof_C 	C 	0.3489	0.3951	0.0838	0.063
Mof_H 	H 	0.3441	0.3326	0.0888	-0.018
Mof_N 	N 	0.1655	0.4628	0.8619	-0.292
Mof_C 	C 	0.188	0.4187	0.8947	0.079
Mof_H 	H 	0.1831	0.3557	0.8983	-0.008
Mof_C 	C 	0.2173	0.4586	0.9232	-0.137
Mof_H 	H 	0.2327	0.423	0.9455	0.094
Mof_C 	C 	0.2249	0.5489	0.9202	0.05
Mof_C 	C 	0.2006	0.5987	0.8874	-0.131
Mof_H 	H 	0.2039	0.6624	0.8839	0.081
Mof_C 	C 	0.171	0.5499	0.8599	0.082
Mof_H 	H 	0.1537	0.5833	0.8382	-0.014
Mof_C 	C 	0.2939	0.7165	0.9718	0.104
Mof_N 	N 	0.3185	0.669	0.0024	-0.141
Mof_C 	C 	0.3073	0.584	0.0058	0.101
Mof_N 	N 	0.2777	0.542	0.9819	-0.148
Mof_C 	C 	0.2579	0.595	0.9509	0.082
Mof_N 	N 	0.2639	0.6831	0.9447	-0.147
Mof_Zn	Zn	0.8268	0.3601	0.4696	0.62
Mof_I 	I 	0.7654	0.2799	0.4517	-0.203
Mof_I 	I 	0.8673	0.3265	0.5441	-0.001
Mof_Zn	Zn	0.1236	0.608	0.3089	0.627
Mof_I 	I 	0.1475	0.5984	0.2431	-0.306
Mof_I 	I 	0.1099	0.7474	0.3462	0.074
Mof_Zn	Zn	0.4081	0.6226	0.657	0.653
Mof_I 	I 	0.4681	0.6751	0.6283	0.037
Mof_I 	I 	0.3699	0.7334	0.6951	-0.318
Mof_Zn	Zn	0.3225	0.1475	0.9702	0.612
Mof_I 	I 	0.2591	0.2231	0.9414	-0.465
Mof_I 	I 	0.3704	0.1791	0.0383	0.026
Mof_I 	I 	0.4738	0.3551	0.1247	-0.075
Mof_I 	I 	0.3789	0.2602	0.1931	-0.176
Mof_Zn	Zn	0.1257	0.4102	0.8133	0.63
Mof_I 	I 	0.1544	0.4038	0.7439	-0.273
Mof_I 	I 	0.1051	0.2622	0.8462	-0.097
Mof_Zn	Zn	0.66966	0.8624	0.51895	0.586
Mof_I 	I 	0.7306	0.76837	0.54202	-0.163
Mof_I 	I 	0.62397	0.8507	0.44596	-0.39
Mof_Zn	Zn	0.3778	0.1091	0.6778	0.645
Mof_I 	I 	0.35366	0.1207	0.7507	-0.07
Mof_I 	I 	0.4034	0.2369	0.6417	-0.49
Mof_Zn	Zn	0.0801	0.1324	0.3425	0.625
Mof_I 	I 	0.02444	0.1534	0.3803	-0.393
Mof_I 	I 	0.11679	0.2463	0.30697	-0.063
Mof_Zn	Zn	0.1679	0.6383	0.0218	0.622
Mof_I 	I 	0.22871	0.735	0.04305	0.071
Mof_I 	I 	0.11881	0.6613	0.95113	-0.451
Mof_Zn	Zn	0.08184	0.8713	0.84193	1.157
Mof_I 	I 	0.0215	0.8368	0.8782	-0.285
Mof_I 	I 	0.1125	0.7566	0.7995	-0.172
Mof_Zn	Zn	0.3741	0.8849	0.1836	0.599
Mof_I 	I 	0.3522	0.8993	0.2527	-0.085
Mof_I 	I 	0.3937	0.7539	0.1456	-0.281
Mof_N 	N 	0.6383	0.8418	0.5679	-0.306
Mof_C 	C 	0.6508	0.7938	0.6066	0.072
Mof_H 	H 	0.6767	0.771	0.6124	-0.017
Mof_C 	C 	0.6292	0.778	0.6358	-0.137
Mof_H 	H 	0.6388	0.7397	0.66	0.09
Mof_C 	C 	0.5927	0.8167	0.6311	0.092
Mof_C 	C 	0.5817	0.864	0.5953	-0.169
Mof_H 	H 	0.5555	0.8848	0.5883	0.099
Mof_C 	C 	0.6043	0.885	0.5693	0.111
Mof_H 	H 	0.5968	0.9346	0.5496	-0.029
Mof_N 	N 	0.4221	0.0145	0.689	-0.276
Mof_C 	C 	0.4368	0.9708	0.7238	0.076
Mof_H 	H 	0.4264	0.9807	0.7491	-0.021
Mof_C 	C 	0.4673	0.9095	0.726	-0.13
Mof_H 	H 	0.4752	0.8733	0.7514	0.072
Mof_C 	C 	0.4859	0.9007	0.6927	0.044
Mof_C 	C 	0.4664	0.9404	0.6533	-0.113
Mof_H 	H 	0.4742	0.9277	0.6266	0.081
Mof_C 	C 	0.4354	0.9987	0.6547	0.051
Mof_H 	H 	0.4234	0.0286	0.6285	-0.001
Mof_N 	N 	0.5691	0.4802	0.7994	-0.27
Mof_C 	C 	0.5956	0.5054	0.7752	0.056
Mof_H 	H 	0.6181	0.4687	0.7764	-0.01
Mof_C 	C 	0.591	0.5829	0.749	-0.113
Mof_H 	H 	0.6105	0.5996	0.7333	0.076
Mof_C 	C 	0.5584	0.6342	0.7462	0.049
Mof_C 	C 	0.5316	0.6124	0.7699	-0.117
Mof_H 	H 	0.5092	0.6495	0.769	0.063
Mof_C 	C 	0.5373	0.5339	0.7957	0.064
Mof_H 	H 	0.518	0.5175	0.8116	-0.016
Mof_C 	C 	0.5691	0.7991	0.6637	0.096
Mof_N 	N 	0.5411	0.859	0.6633	-0.133
Mof_C 	C 	0.5191	0.8437	0.694	0.082
Mof_N 	N 	0.5243	0.7731	0.7223	-0.149
Mof_C 	C 	0.5538	0.716	0.7176	0.091
Mof_N 	N 	0.576	0.7271	0.69	-0.138
Mof_N 	N 	0.3345	0.0427	0.6391	-0.27
Mof_C 	C 	0.3144	0.0867	0.6043	0.054
Mof_H 	H 	0.3205	0.1486	0.5994	-0.007
Mof_C 	C 	0.2853	0.0439	0.5754	-0.091
Mof_H 	H 	0.2722	0.0752	0.5501	0.081
Mof_C 	C 	0.2748	0.954	0.5831	0.017
Mof_C 	C 	0.2955	0.911	0.6188	-0.094
Mof_H 	H 	0.2895	0.8496	0.6245	0.075
Mof_C 	C 	0.325	0.955	0.6466	0.036
Mof_H 	H 	0.3389	0.9238	0.6715	0.004
Mof_N 	N 	0.1235	0.0635	0.3893	-0.294
Mof_C 	C 	0.1518	0.103	0.4176	0.072
Mof_H 	H 	0.1563	0.166	0.4134	-0.021
Mof_C 	C 	0.1752	0.0614	0.4523	-0.109
Mof_H 	H 	0.1942	0.0953	0.4719	0.072
Mof_C 	C 	0.1707	0.9702	0.4582	0.033
Mof_C 	C 	0.1417	0.9248	0.4286	-0.096
Mof_H 	H 	0.1382	0.861	0.4315	0.086
Mof_C 	C 	0.1181	0.9716	0.3953	0.029
Mof_H 	H 	0.0978	0.9402	0.3763	0.005
Mof_N 	N 	0.1827	0.5007	0.5282	-0.274
Mof_C 	C 	0.2148	0.5347	0.5542	0.066
Mof_H 	H 	0.2324	0.4943	0.5719	-0.015
Mof_C 	C 	0.2226	0.6263	0.5556	-0.119
Mof_H 	H 	0.2462	0.6482	0.573	0.076
Mof_C 	C 	0.1968	0.6867	0.5322	0.056
Mof_C 	C 	0.1634	0.6511	0.5074	-0.118
Mof_H 	H 	0.1454	0.6906	0.4897	0.084
Mof_C 	C 	0.1556	0.5596	0.5078	0.063
Mof_H 	H 	0.1309	0.5375	0.4935	-0.01
Mof_C 	C 	0.2424	0.909	0.5543	0.094
Mof_N 	N 	0.2226	0.9608	0.521	-0.143
Mof_C 	C 	0.1921	0.9196	0.4949	0.097
Mof_N 	N 	0.1825	0.83	0.5005	-0.137
Mof_C 	C 	0.2043	0.7867	0.5317	0.109
Mof_N 	N 	0.2349	0.8218	0.5602	-0.142
Mof_N 	N 	0.0681	0.0224	0.2977	-0.302
Mof_C 	C 	0.0887	0.008	0.2718	0.135
Mof_H 	H 	0.1075	0.0525	0.2687	-0.052
Mof_C 	C 	0.0865	0.9284	0.2457	-0.178
Mof_H 	H 	0.1051	0.9166	0.2282	0.088
Mof_C 	C 	0.0568	0.8698	0.2466	0.072
Mof_C 	C 	0.0317	0.8922	0.2732	-0.138
Mof_H 	H 	0.0096	0.855	0.2736	0.078
Mof_C 	C 	0.0385	0.9692	0.2995	0.075
Mof_H 	H 	0.0217	0.9832	0.3189	-0.015
Mof_N 	N 	0.1387	0.6544	0.0739	-0.31
Mof_C 	C 	0.1094	0.61	0.0719	0.12
Mof_H 	H 	0.1021	0.5688	0.0483	-0.048
Mof_C 	C 	0.0847	0.618	0.1041	-0.153
Mof_H 	H 	0.0639	0.5763	0.1043	0.083
Mof_C 	C 	0.0929	0.6865	0.1337	0.084
Mof_C 	C 	0.1261	0.7349	0.1341	-0.151
Mof_H 	H 	0.1343	0.7811	0.1553	0.088
Mof_C 	C 	0.1477	0.7149	0.1028	0.106
Mof_H 	H 	0.1708	0.7489	0.1032	-0.04
Mof_N 	N 	0.9207	0.4857	0.1914	-0.292
Mof_C 	C 	0.935	0.5325	0.2282	0.069
Mof_H 	H 	0.9229	0.5276	0.2526	-0.008
Mof_C 	C 	0.9672	0.5872	0.2304	-0.125
Mof_H 	H 	0.9777	0.6185	0.2567	0.078
Mof_C 	C 	0.9844	0.5971	0.1943	0.055
Mof_C 	C 	0.9718	0.548	0.1586	-0.136
Mof_H 	H 	0.9842	0.5487	0.1343	0.082
Mof_C 	C 	0.9375	0.493	0.1594	0.09
Mof_H 	H 	0.9268	0.4601	0.1337	-0.038
Mof_C 	C 	0.0507	0.7847	0.2192	0.072
Mof_N 	N 	0.0747	0.7772	0.1896	-0.135
Mof_C 	C 	0.0684	0.7023	0.1653	0.09
Mof_N 	N 	0.0391	0.6423	0.166	-0.139
Mof_C 	C 	0.0186	0.6602	0.1946	0.094
Mof_N 	N 	0.0234	0.7274	0.2241	-0.15
Mof_N 	N 	0.1821	0.5013	0.0271	-0.287
Mof_C 	C 	0.2134	0.4703	0.0505	0.081
Mof_H 	H 	0.2316	0.5128	0.066	-0.023
Mof_C 	C 	0.2229	0.376	0.0547	-0.127
Mof_H 	H 	0.246	0.355	0.0734	0.077
Mof_C 	C 	0.1967	0.3164	0.0303	0.058
Mof_C 	C 	0.163	0.3505	0.0056	-0.127
Mof_H 	H 	0.1439	0.3105	0.9899	0.071
Mof_C 	C 	0.1572	0.4437	0.0039	0.074
Mof_H 	H 	0.1345	0.4673	0.9854	-0.02
Mof_N 	N 	0.1216	0.9387	0.8903	-0.291
Mof_C 	C 	0.1163	0.0234	0.8977	0.112
Mof_H 	H 	0.096	0.0541	0.8784	-0.023
Mof_C 	C 	0.1378	0.0735	0.9316	-0.161
Mof_H 	H 	0.1317	0.1356	0.9359	0.101
Mof_C 	C 	0.1674	0.0316	0.9582	0.083
Mof_C 	C 	0.1741	0.9401	0.9497	-0.163
Mof_H 	H 	0.1951	0.9088	0.9677	0.076
Mof_C 	C 	0.1511	0.8951	0.9162	0.075
Mof_H 	H 	0.1559	0.8326	0.9112	-0.023
Mof_N 	N 	0.3345	0.9628	0.1381	-0.304
Mof_C 	C 	0.312	0.9187	0.1053	0.092
Mof_H 	H 	0.3169	0.8557	0.1017	-0.013
Mof_C 	C 	0.2827	0.9586	0.0768	-0.167
Mof_H 	H 	0.2673	0.923	0.0545	0.101
Mof_C 	C 	0.2751	0.0489	0.0798	0.075
Mof_C 	C 	0.2994	0.0987	0.1126	-0.148
Mof_H 	H 	0.2961	0.1624	0.1161	0.087
Mof_C 	C 	0.329	0.0499	0.1401	0.105
Mof_H 	H 	0.3463	0.0833	0.1618	-0.019
Mof_C 	C 	0.2061	0.2165	0.0282	0.1
Mof_N 	N 	0.1815	0.169	0.9976	-0.139
Mof_C 	C 	0.1927	0.084	0.9942	0.094
Mof_N 	N 	0.2223	0.042	0.0181	-0.142
Mof_C 	C 	0.2421	0.095	0.0491	0.076
Mof_N 	N 	0.2361	0.1831	0.0553	-0.145
Mof_Zn	Zn	0.6732	0.8601	0.5304	0.62
Mof_I 	I 	0.7346	0.7799	0.5483	-0.205
Mof_I 	I 	0.6327	0.8265	0.4559	-0.006
Mof_Zn	Zn	0.3764	0.108	0.6911	0.627
Mof_I 	I 	0.3525	0.0984	0.7569	-0.305
Mof_I 	I 	0.3901	0.2474	0.6538	0.078
Mof_Zn	Zn	0.0919	0.1226	0.343	0.653
Mof_I 	I 	0.0319	0.1751	0.3717	0.042
Mof_I 	I 	0.1301	0.2334	0.3049	-0.318
Mof_Zn	Zn	0.1775	0.6475	0.0298	0.612
Mof_I 	I 	0.2409	0.7231	0.0586	-0.467
Mof_I 	I 	0.1296	0.6791	0.9617	0.021
Mof_I 	I 	0.0262	0.8551	0.8753	-0.075
Mof_I 	I 	0.1211	0.7602	0.8069	-0.179
Mof_Zn	Zn	0.3743	0.9102	0.1867	0.628
Mof_I 	I 	0.3456	0.9038	0.2561	-0.276
Mof_I 	I 	0.3949	0.7622	0.1538	-0.098
Mof_Zn	Zn	0.16966	0.3624	0.51895	0.587
Mof_I 	I 	0.2306	0.26837	0.54202	-0.161
Mof_I 	I 	0.12397	0.3507	0.44596	-0.389
Mof_Zn	Zn	0.8778	0.6091	0.6778	0.645
Mof_I 	I 	0.85366	0.6207	0.7507	-0.075
Mof_I 	I 	0.9034	0.7369	0.6417	-0.49
Mof_Zn	Zn	0.5801	0.6324	0.3425	0.624
Mof_I 	I 	0.52444	0.6534	0.3803	-0.393
Mof_I 	I 	0.61679	0.7463	0.30697	-0.066
Mof_Zn	Zn	0.6679	0.1383	0.0218	0.623
Mof_I 	I 	0.72871	0.235	0.04305	0.072
Mof_I 	I 	0.61881	0.1613	0.95113	-0.451
Mof_Zn	Zn	0.58184	0.3713	0.84193	1.158
Mof_I 	I 	0.5215	0.3368	0.8782	-0.28
Mof_I 	I 	0.6125	0.2566	0.7995	-0.17
Mof_Zn	Zn	0.8741	0.3849	0.1836	0.599
Mof_I 	I 	0.8522	0.3993	0.2527	-0.081
Mof_I 	I 	0.8937	0.2539	0.1456	-0.28
Mof_N 	N 	0.1383	0.3418	0.5679	-0.305
Mof_C 	C 	0.1508	0.2938	0.6066	0.073
Mof_H 	H 	0.1767	0.271	0.6124	-0.016
Mof_C 	C 	0.1292	0.278	0.6358	-0.137
Mof_H 	H 	0.1388	0.2397	0.66	0.091
Mof_C 	C 	0.0927	0.3167	0.6311	0.093
Mof_C 	C 	0.0817	0.364	0.5953	-0.168
Mof_H 	H 	0.0555	0.3848	0.5883	0.1
Mof_C 	C 	0.1043	0.385	0.5693	0.112
Mof_H 	H 	0.0968	0.4346	0.5496	-0.026
Mof_N 	N 	0.9221	0.5145	0.689	-0.299
Mof_C 	C 	0.9368	0.4708	0.7238	0.1
Mof_H 	H 	0.9264	0.4807	0.7491	-0.024
Mof_C 	C 	0.9673	0.4095	0.726	-0.148
Mof_H 	H 	0.9752	0.3733	0.7514	0.079
Mof_C 	C 	0.9859	0.4007	0.6927	0.062
Mof_C 	C 	0.9664	0.4404	0.6533	-0.139
Mof_H 	H 	0.9742	0.4277	0.6266	0.092
Mof_C 	C 	0.9354	0.4987	0.6547	0.097
Mof_H 	H 	0.9234	0.5286	0.6285	-0.024
Mof_N 	N 	0.0691	0.9802	0.7994	-0.289
Mof_C 	C 	0.0956	0.0054	0.7752	0.096
Mof_H 	H 	0.1181	0.9687	0.7764	-0.031
Mof_C 	C 	0.091	0.0829	0.749	-0.136
Mof_H 	H 	0.1105	0.0996	0.7333	0.086
Mof_C 	C 	0.0584	0.1342	0.7462	0.064
Mof_C 	C 	0.0316	0.1124	0.7699	-0.132
Mof_H 	H 	0.0092	0.1495	0.769	0.068
Mof_C 	C 	0.0373	0.0339	0.7957	0.082
Mof_H 	H 	0.018	0.0175	0.8116	-0.019
Mof_C 	C 	0.0691	0.2991	0.6637	0.097
Mof_N 	N 	0.0411	0.359	0.6633	-0.131
Mof_C 	C 	0.0191	0.3437	0.694	0.077
Mof_N 	N 	0.0243	0.2731	0.7223	-0.147
Mof_C 	C 	0.0538	0.216	0.7176	0.087
Mof_N 	N 	0.076	0.2271	0.69	-0.137
Mof_N 	N 	0.8345	0.5427	0.6391	-0.281
Mof_C 	C 	0.8144	0.5867	0.6043	0.065
Mof_H 	H 	0.8205	0.6486	0.5994	-0.011
Mof_C 	C 	0.7853	0.5439	0.5754	-0.118
Mof_H 	H 	0.7722	0.5752	0.5501	0.088
Mof_C 	C 	0.7748	0.454	0.5831	0.042
Mof_C 	C 	0.7955	0.411	0.6188	-0.112
Mof_H 	H 	0.7895	0.3496	0.6245	0.082
Mof_C 	C 	0.825	0.455	0.6466	0.059
Mof_H 	H 	0.8389	0.4238	0.6715	-0.001
Mof_N 	N 	0.6235	0.5635	0.3893	-0.305
Mof_C 	C 	0.6518	0.603	0.4176	0.083
Mof_H 	H 	0.6563	0.666	0.4134	-0.025
Mof_C 	C 	0.6752	0.5614	0.4523	-0.138
Mof_H 	H 	0.6942	0.5953	0.4719	0.079
Mof_C 	C 	0.6707	0.4702	0.4582	0.059
Mof_C 	C 	0.6417	0.4248	0.4286	-0.112
Mof_H 	H 	0.6382	0.361	0.4315	0.092
Mof_C 	C 	0.6181	0.4716	0.3953	0.051
Mof_H 	H 	0.5978	0.4402	0.3763	0.001
Mof_N 	N 	0.6827	0.0007	0.5282	-0.275
Mof_C 	C 	0.7148	0.0347	0.5542	0.094
Mof_H 	H 	0.7324	0.9943	0.5719	-0.032
Mof_C 	C 	0.7226	0.1263	0.5556	-0.133
Mof_H 	H 	0.7462	0.1482	0.573	0.083
Mof_C 	C 	0.6968	0.1867	0.5322	0.064
Mof_C 	C 	0.6634	0.1511	0.5074	-0.123
Mof_H 	H 	0.6454	0.1906	0.4897	0.087
Mof_C 	C 	0.6556	0.0596	0.5078	0.068
Mof_H 	H 	0.6309	0.0375	0.4935	-0.008
Mof_C 	C 	0.7424	0.409	0.5543	0.088
Mof_N 	N 	0.7226	0.4608	0.521	-0.137
Mof_C 	C 	0.6921	0.4196	0.4949	0.092
Mof_N 	N 	0.6825	0.33	0.5005	-0.135
Mof_C 	C 	0.7043	0.2867	0.5317	0.107
Mof_N 	N 	0.7349	0.3218	0.5602	-0.14
Mof_N 	N 	0.5681	0.5224	0.2977	-0.305
Mof_C 	C 	0.5887	0.508	0.2718	0.115
Mof_H 	H 	0.6075	0.5525	0.2687	-0.048
Mof_C 	C 	0.5865	0.4284	0.2457	-0.158
Mof_H 	H 	0.6051	0.4166	0.2282	0.084
Mof_C 	C 	0.5568	0.3698	0.2466	0.067
Mof_C 	C 	0.5317	0.3922	0.2732	-0.137
Mof_H 	H 	0.5096	0.355	0.2736	0.079
Mof_C 	C 	0.5385	0.4692	0.2995	0.086
Mof_H 	H 	0.5217	0.4832	0.3189	-0.014
Mof_N 	N 	0.6387	0.1544	0.0739	-0.31
Mof_C 	C 	0.6094	0.11	0.0719	0.121
Mof_H 	H 	0.6021	0.0688	0.0483	-0.045
Mof_C 	C 	0.5847	0.118	0.1041	-0.153
Mof_H 	H 	0.5639	0.0763	0.1043	0.085
Mof_C 	C 	0.5929	0.1865	0.1337	0.085
Mof_C 	C 	0.6261	0.2349	0.1341	-0.151
Mof_H 	H 	0.6343	0.2811	0.1553	0.089
Mof_C 	C 	0.6477	0.2149	0.1028	0.107
Mof_H 	H 	0.6708	0.2489	0.1032	-0.04
Mof_N 	N 	0.4207	0.9857	0.1914	-0.295
Mof_C 	C 	0.435	0.0325	0.2282	0.08
Mof_H 	H 	0.4229	0.0276	0.2526	-0.007
Mof_C 	C 	0.4672	0.0872	0.2304	-0.123
Mof_H 	H 	0.4777	0.1185	0.2567	0.08
Mof_C 	C 	0.4844	0.0971	0.1943	0.051
Mof_C 	C 	0.4718	0.048	0.1586	-0.116
Mof_H 	H 	0.4842	0.0487	0.1343	0.077
Mof_C 	C 	0.4375	0.993	0.1594	0.071
Mof_H 	H 	0.4268	0.9601	0.1337	-0.034
Mof_C 	C 	0.5507	0.2847	0.2192	0.074
Mof_N 	N 	0.5747	0.2772	0.1896	-0.135
Mof_C 	C 	0.5684	0.2023	0.1653	0.09
Mof_N 	N 	0.5391	0.1423	0.166	-0.138
Mof_C 	C 	0.5186	0.1602	0.1946	0.097
Mof_N 	N 	0.5234	0.2274	0.2241	-0.15
Mof_N 	N 	0.6821	0.0013	0.0271	-0.266
Mof_C 	C 	0.7134	0.9703	0.0505	0.038
Mof_H 	H 	0.7316	0.0128	0.066	-0.002
Mof_C 	C 	0.7229	0.876	0.0547	-0.105
Mof_H 	H 	0.746	0.855	0.0734	0.068
Mof_C 	C 	0.6967	0.8164	0.0303	0.044
Mof_C 	C 	0.663	0.8505	0.0056	-0.111
Mof_H 	H 	0.6439	0.8105	0.9899	0.066
Mof_C 	C 	0.6572	0.9437	0.0039	0.053
Mof_H 	H 	0.6345	0.9673	0.9854	-0.017
Mof_N 	N 	0.6216	0.4387	0.8903	-0.278
Mof_C 	C 	0.6163	0.5234	0.8977	0.088
Mof_H 	H 	0.596	0.5541	0.8784	-0.016
Mof_C 	C 	0.6378	0.5735	0.9316	-0.141
Mof_H 	H 	0.6317	0.6356	0.9359	0.095
Mof_C 	C 	0.6674	0.5316	0.9582	0.057
Mof_C 	C 	0.6741	0.4401	0.9497	-0.134
Mof_H 	H 	0.6951	0.4088	0.9677	0.069
Mof_C 	C 	0.6511	0.3951	0.9162	0.063
Mof_H 	H 	0.6559	0.3326	0.9112	-0.018
Mof_N 	N 	0.8345	0.4628	0.1381	-0.292
Mof_C 	C 	0.812	0.4187	0.1053	0.079
Mof_H 	H 	0.8169	0.3557	0.1017	-0.008
Mof_C 	C 	0.7827	0.4586	0.0768	-0.137
Mof_H 	H 	0.7673	0.423	0.0545	0.094
Mof_C 	C 	0.7751	0.5489	0.0798	0.05
Mof_C 	C 	0.7994	0.5987	0.1126	-0.131
Mof_H 	H 	0.7961	0.6624	0.1161	0.081
Mof_C 	C 	0.829	0.5499	0.1401	0.082
Mof_H 	H 	0.8463	0.5833	0.1618	-0.014
Mof_C 	C 	0.7061	0.7165	0.0282	0.104
Mof_N 	N 	0.6815	0.669	0.9976	-0.141
Mof_C 	C 	0.6927	0.584	0.9942	0.101
Mof_N 	N 	0.7223	0.542	0.0181	-0.148
Mof_C 	C 	0.7421	0.595	0.0491	0.082
Mof_N 	N 	0.7361	0.6831	0.0553	-0.147
Mof_Zn	Zn	0.1732	0.3601	0.5304	0.62
Mof_I 	I 	0.2346	0.2799	0.5483	-0.203
Mof_I 	I 	0.1327	0.3265	0.4559	-0.001
Mof_Zn	Zn	0.8764	0.608	0.6911	0.627
Mof_I 	I 	0.8525	0.5984	0.7569	-0.306
Mof_I 	I 	0.8901	0.7474	0.6538	0.074
Mof_Zn	Zn	0.5919	0.6226	0.343	0.653
Mof_I 	I 	0.5319	0.6751	0.3717	0.037
Mof_I 	I 	0.6301	0.7334	0.3049	-0.318
Mof_Zn	Zn	0.6775	0.1475	0.0298	0.612
Mof_I 	I 	0.7409	0.2231	0.0586	-0.465
Mof_I 	I 	0.6296	0.1791	0.9617	0.026
Mof_I 	I 	0.5262	0.3551	0.8753	-0.075
Mof_I 	I 	0.6211	0.2602	0.8069	-0.176
Mof_Zn	Zn	0.8743	0.4102	0.1867	0.63
Mof_I 	I 	0.8456	0.4038	0.2561	-0.273
Mof_I 	I 	0.8949	0.2622	0.1538	-0.097
Mof_C 	C 	0.989	0.188	0.865	-0.111
Mof_H 	H 	0.0103	0.1995	0.8499	0.063
Mof_H 	H 	0.9702	0.2401	0.859	0.056
Mof_C 	C 	0.004	0.179	0.914	-0.074
Mof_H 	H 	0.9888	0.2189	0.9303	0.06
Mof_H 	H 	0.0316	0.1996	0.9216	0.057
Mof_C 	C 	0.001	0.08	0.929	-0.134
Mof_H 	H 	0.0146	0.0741	0.9601	0.055
Mof_H 	H 	0.0154	0.04	0.9118	0.064
Mof_C 	C 	0.959	0.045	0.924	0.037
Mof_H 	H 	0.9586	0.9785	0.9283	-0.19
Mof_H 	H 	0.9462	0.0751	0.9456	-0.175
Mof_C 	C 	0.938	0.07	0.877	-0.159
Mof_H 	H 	0.9201	0.1217	0.8787	0.071
Mof_H 	H 	0.9228	0.0175	0.864	0.101
Mof_C 	C 	0.968	0.098	0.849	-0.042
Mof_H 	H 	0.9875	0.0491	0.8505	0.042
Mof_H 	H 	0.9541	0.105	0.8186	0.035
Mof_C 	C 	0.981	0.665	0.015	-0.157
Mof_H 	H 	0.9521	0.6695	0.0059	0.06
Mof_H 	H 	0.9896	0.7085	0.039	0.049
Mof_C 	C 	0.999	0.69	0.976	0.055
Mof_H 	H 	0.0111	0.7513	0.9811	0.003
Mof_H 	H 	0.9789	0.6919	0.9494	0.006
Mof_C 	C 	0.03	0.621	0.971	-0.028
Mof_H 	H 	0.051	0.6211	0.9973	0.023
Mof_H 	H 	0.0422	0.6408	0.946	0.053
Mof_C 	C 	0.015	0.523	0.962	0.225
Mof_H 	H 	0.0021	0.5168	0.9309	-0.049
Mof_H 	H 	0.037	0.4796	0.968	-0.086
Mof_C 	C 	0.986	0.502	0.991	-0.232
Mof_H 	H 	0.9592	0.5079	0.9742	0.081
Mof_H 	H 	0.9899	0.4385	0.002	0.2
Mof_C 	C 	0.993	0.568	0.029	-0.048
Mof_H 	H 	0.0204	0.5674	0.0439	0.033
Mof_H 	H 	0.9772	0.548	0.0509	-0.059
Mof_C 	C 	0.912	0.044	0.979	-0.11
Mof_H 	H 	0.9144	0.0954	0.9995	-0.022
Mof_H 	H 	0.8881	0.0516	0.9565	-0.074
Mof_C 	C 	0.912	0.953	0.003	-0.031
Mof_H 	H 	0.9276	0.9579	0.0325	0.004
Mof_H 	H 	0.8847	0.9382	0.005	0.225
Mof_C 	C 	0.928	0.878	0.978	-0.036
Mof_H 	H 	0.9166	0.8183	0.984	0.01
Mof_H 	H 	0.9563	0.8744	0.9874	0.054
Mof_C 	C 	0.917	0.898	0.929	0.301
Mof_H 	H 	0.9214	0.8431	0.9122	-0.057
Mof_H 	H 	0.8892	0.9149	0.9206	-0.081
Mof_C 	C 	0.942	0.976	0.918	0.319
Mof_H 	H 	0.9291	0.0061	0.8906	-0.082
Mof_H 	H 	0.9676	0.9527	0.9142	0.055
Mof_C 	C 	0.948	0.045	0.956	0.065
Mof_H 	H 	0.9715	0.0296	0.9776	0.104
Mof_H 	H 	0.9509	0.1072	0.9448	0.149
Mof_C 	C 	0.9308	0.262	0.998	-0.44
Mof_H 	H 	0.9063	0.2971	0.9944	0.165
Mof_H 	H 	0.9246	0.1965	0.993	0.177
Mof_C 	C 	0.956	0.277	0.044	0.208
Mof_H 	H 	0.9839	0.2652	0.0443	-0.03
Mof_H 	H 	0.9475	0.2376	0.0659	-0.052
Mof_C 	C 	0.949	0.379	0.053	-0.406
Mof_H 	H 	0.9253	0.3865	0.065	0.148
Mof_H 	H 	0.9714	0.4039	0.0747	0.138
Mof_C 	C 	0.945	0.431	0.01	0.414
Mof_H 	H 	0.9504	0.4971	0.015	-0.067
Mof_H 	H 	0.9184	0.4243	0.992	-0.097
Mof_C 	C 	0.975	0.39	0.985	-0.979
Mof_H 	H 	0.0004	0.3796	0.0051	0.287
Mof_H 	H 	0.9792	0.43	0.961	0.288
Mof_C 	C 	0.957	0.297	0.967	0.441
Mof_H 	H 	0.9409	0.3062	0.9374	-0.103
Mof_H 	H 	0.9774	0.2525	0.9652	-0.116
Mof_C 	C 	0.961	0.96	0.993	0.029
Mof_H 	H 	0.9759	0.0038	0.9779	-0.083
Mof_H 	H 	0.98	0.916	0.0093	0.008
Mof_C 	C 	0.94	0.012	0.024	-0.135
Mof_H 	H 	0.9232	0.9682	0.0358	0.052
Mof_H 	H 	0.9592	0.0366	0.0485	0.058
Mof_C 	C 	0.915	0.09	0.001	0.103
Mof_H 	H 	0.9308	0.1366	0.9904	-0.061
Mof_H 	H 	0.9004	0.1201	0.0217	-0.009
Mof_C 	C 	0.886	0.047	0.963	0.123
Mof_H 	H 	0.891	0.0697	0.9348	0.027
Mof_H 	H 	0.8587	0.064	0.9645	-0.004
Mof_C 	C 	0.89	0.942	0.965	0.048
Mof_H 	H 	0.8865	0.921	0.9942	-0.218
Mof_H 	H 	0.8701	0.9138	0.9428	0.011
Mof_C 	C 	0.93	0.91	0.959	-0.205
Mof_H 	H 	0.9337	0.9242	0.9291	-0.165
Mof_H 	H 	0.9329	0.8432	0.9634	0.063
Mof_C 	C 	0.011	0.188	0.135	-0.111
Mof_H 	H 	0.9897	0.1995	0.1501	0.063
Mof_H 	H 	0.0298	0.2401	0.141	0.056
Mof_C 	C 	0.996	0.179	0.086	-0.074
Mof_H 	H 	0.0112	0.2189	0.0697	0.06
Mof_H 	H 	0.9684	0.1996	0.0784	0.057
Mof_C 	C 	0.999	0.08	0.071	-0.134
Mof_H 	H 	0.9854	0.0741	0.0399	0.055
Mof_H 	H 	0.9846	0.04	0.0882	0.064
Mof_C 	C 	0.041	0.045	0.076	0.037
Mof_H 	H 	0.0414	0.9785	0.0717	-0.19
Mof_H 	H 	0.0538	0.0751	0.0544	-0.175
Mof_C 	C 	0.062	0.07	0.123	-0.159
Mof_H 	H 	0.0799	0.1217	0.1213	0.071
Mof_H 	H 	0.0772	0.0175	0.136	0.101
Mof_C 	C 	0.032	0.098	0.151	-0.042
Mof_H 	H 	0.0125	0.0491	0.1495	0.042
Mof_H 	H 	0.0459	0.105	0.1814	0.035
Mof_C 	C 	0.019	0.665	0.985	-0.157
Mof_H 	H 	0.0479	0.6695	0.9941	0.06
Mof_H 	H 	0.0104	0.7085	0.961	0.049
Mof_C 	C 	0.001	0.69	0.024	0.055
Mof_H 	H 	0.9889	0.7513	0.0189	0.003
Mof_H 	H 	0.0211	0.6919	0.0506	0.006
Mof_C 	C 	0.97	0.621	0.029	-0.028
Mof_H 	H 	0.949	0.6211	0.0027	0.023
Mof_H 	H 	0.9578	0.6408	0.054	0.053
Mof_C 	C 	0.985	0.523	0.038	0.225
Mof_H 	H 	0.9979	0.5168	0.0691	-0.049
Mof_H 	H 	0.963	0.4796	0.032	-0.086
Mof_C 	C 	0.014	0.502	0.009	-0.232
Mof_H 	H 	0.0408	0.5079	0.0258	0.081
Mof_H 	H 	0.0101	0.4385	0.998	0.2
Mof_C 	C 	0.007	0.568	0.971	-0.048
Mof_H 	H 	0.9796	0.5674	0.9561	0.033
Mof_H 	H 	0.0228	0.548	0.9491	-0.059
Mof_C 	C 	0.088	0.044	0.021	-0.11
Mof_H 	H 	0.0856	0.0954	0.0005	-0.022
Mof_H 	H 	0.1119	0.0516	0.0435	-0.074
Mof_C 	C 	0.088	0.953	0.997	-0.031
Mof_H 	H 	0.0724	0.9579	0.9675	0.004
Mof_H 	H 	0.1153	0.9382	0.995	0.225
Mof_C 	C 	0.072	0.878	0.022	-0.036
Mof_H 	H 	0.0834	0.8183	0.016	0.01
Mof_H 	H 	0.0437	0.8744	0.0126	0.054
Mof_C 	C 	0.083	0.898	0.071	0.301
Mof_H 	H 	0.0786	0.8431	0.0878	-0.057
Mof_H 	H 	0.1108	0.9149	0.0794	-0.081
Mof_C 	C 	0.058	0.976	0.082	0.319
Mof_H 	H 	0.0709	0.0061	0.1094	-0.082
Mof_H 	H 	0.0324	0.9527	0.0858	0.055
Mof_C 	C 	0.052	0.045	0.044	0.065
Mof_H 	H 	0.0285	0.0296	0.0224	0.104
Mof_H 	H 	0.0491	0.1072	0.0552	0.149
Mof_C 	C 	0.0692	0.262	0.002	-0.44
Mof_H 	H 	0.0937	0.2971	0.0056	0.165
Mof_H 	H 	0.0754	0.1965	0.007	0.177
Mof_C 	C 	0.044	0.277	0.956	0.208
Mof_H 	H 	0.0161	0.2652	0.9557	-0.03
Mof_H 	H 	0.0525	0.2376	0.9341	-0.052
Mof_C 	C 	0.051	0.379	0.947	-0.406
Mof_H 	H 	0.0747	0.3865	0.935	0.148
Mof_H 	H 	0.0286	0.4039	0.9253	0.138
Mof_C 	C 	0.055	0.431	0.99	0.414
Mof_H 	H 	0.0496	0.4971	0.985	-0.067
Mof_H 	H 	0.0816	0.4243	0.008	-0.097
Mof_C 	C 	0.025	0.39	0.015	-0.979
Mof_H 	H 	0.9996	0.3796	0.9949	0.287
Mof_H 	H 	0.0208	0.43	0.039	0.288
Mof_C 	C 	0.043	0.297	0.033	0.441
Mof_H 	H 	0.0591	0.3062	0.0626	-0.103
Mof_H 	H 	0.0226	0.2525	0.0348	-0.116
Mof_C 	C 	0.039	0.96	0.007	0.029
Mof_H 	H 	0.0241	0.0038	0.0221	-0.083
Mof_H 	H 	0.02	0.916	0.9907	0.008
Mof_C 	C 	0.06	0.012	0.976	-0.135
Mof_H 	H 	0.0768	0.9682	0.9642	0.052
Mof_H 	H 	0.0408	0.0366	0.9515	0.058
Mof_C 	C 	0.085	0.09	0.999	0.103
Mof_H 	H 	0.0692	0.1366	0.0096	-0.061
Mof_H 	H 	0.0996	0.1201	0.9783	-0.009
Mof_C 	C 	0.114	0.047	0.037	0.123
Mof_H 	H 	0.109	0.0697	0.0652	0.027
Mof_H 	H 	0.1413	0.064	0.0355	-0.004
Mof_C 	C 	0.11	0.942	0.035	0.048
Mof_H 	H 	0.1135	0.921	0.0058	-0.218
Mof_H 	H 	0.1299	0.9138	0.0572	0.011
Mof_C 	C 	0.07	0.91	0.041	-0.205
Mof_H 	H 	0.0663	0.9242	0.0709	-0.165
Mof_H 	H 	0.0671	0.8432	0.0366	0.063
Mof_C 	C 	0.489	0.688	0.865	-0.094
Mof_H 	H 	0.5103	0.6995	0.8499	0.057
Mof_H 	H 	0.4702	0.7401	0.859	0.05
Mof_C 	C 	0.504	0.679	0.914	-0.093
Mof_H 	H 	0.4888	0.7189	0.9303	0.066
Mof_H 	H 	0.5316	0.6996	0.9216	0.064
Mof_C 	C 	0.501	0.58	0.929	-0.104
Mof_H 	H 	0.5146	0.5741	0.9601	0.047
Mof_H 	H 	0.5154	0.54	0.9118	0.052
Mof_C 	C 	0.459	0.545	0.924	-0.013
Mof_H 	H 	0.4586	0.4785	0.9283	-0.16
Mof_H 	H 	0.4462	0.5751	0.9456	-0.147
Mof_C 	C 	0.438	0.57	0.877	-0.129
Mof_H 	H 	0.4201	0.6217	0.8787	0.062
Mof_H 	H 	0.4228	0.5175	0.864	0.088
Mof_C 	C 	0.468	0.598	0.849	-0.061
Mof_H 	H 	0.4875	0.5491	0.8505	0.046
Mof_H 	H 	0.4541	0.605	0.8186	0.04
Mof_C 	C 	0.481	0.165	0.015	-0.154
Mof_H 	H 	0.4521	0.1695	0.0059	0.058
Mof_H 	H 	0.4896	0.2085	0.039	0.05
Mof_C 	C 	0.499	0.19	0.976	0.048
Mof_H 	H 	0.5111	0.2513	0.9811	0.005
Mof_H 	H 	0.4789	0.1919	0.9494	0.008
Mof_C 	C 	0.53	0.121	0.971	-0.014
Mof_H 	H 	0.551	0.1211	0.9973	0.022
Mof_H 	H 	0.5422	0.1408	0.946	0.048
Mof_C 	C 	0.515	0.023	0.962	0.2
Mof_H 	H 	0.5021	0.0168	0.9309	-0.042
Mof_H 	H 	0.537	0.9796	0.968	-0.08
Mof_C 	C 	0.486	0.002	0.991	-0.201
Mof_H 	H 	0.4592	0.0079	0.9742	0.078
Mof_H 	H 	0.4899	0.9385	0.002	0.185
Mof_C 	C 	0.493	0.068	0.029	-0.062
Mof_H 	H 	0.5204	0.0674	0.0439	0.037
Mof_H 	H 	0.4772	0.048	0.0509	-0.042
Mof_C 	C 	0.412	0.544	0.979	-0.122
Mof_H 	H 	0.4144	0.5954	0.9995	-0.014
Mof_H 	H 	0.3881	0.5516	0.9565	-0.07
Mof_C 	C 	0.412	0.453	0.003	-0.011
Mof_H 	H 	0.4276	0.4579	0.0325	0.013
Mof_H 	H 	0.3847	0.4382	0.005	0.195
Mof_C 	C 	0.428	0.378	0.978	-0.021
Mof_H 	H 	0.4166	0.3183	0.984	0.005
Mof_H 	H 	0.4563	0.3744	0.9874	0.049
Mof_C 	C 	0.417	0.398	0.929	0.284
Mof_H 	H 	0.4214	0.3431	0.9122	-0.052
Mof_H 	H 	0.3892	0.4149	0.9206	-0.073
Mof_C 	C 	0.442	0.476	0.918	0.308
Mof_H 	H 	0.4291	0.5061	0.8906	-0.081
Mof_H 	H 	0.4676	0.4527	0.9142	0.05
Mof_C 	C 	0.448	0.545	0.956	0.072
Mof_H 	H 	0.4715	0.5296	0.9776	0.056
Mof_H 	H 	0.4509	0.6072	0.9448	0.135
Mof_C 	C 	0.4308	0.762	0.998	-0.432
Mof_H 	H 	0.4063	0.7971	0.9944	0.163
Mof_H 	H 	0.4246	0.6965	0.993	0.174
Mof_C 	C 	0.456	0.777	0.044	0.204
Mof_H 	H 	0.4839	0.7652	0.0443	-0.029
Mof_H 	H 	0.4475	0.7376	0.0659	-0.053
Mof_C 	C 	0.449	0.879	0.053	-0.4
Mof_H 	H 	0.4253	0.8865	0.065	0.145
Mof_H 	H 	0.4714	0.9039	0.0747	0.134
Mof_C 	C 	0.445	0.931	0.01	0.402
Mof_H 	H 	0.4504	0.9971	0.015	-0.072
Mof_H 	H 	0.4184	0.9243	0.992	-0.096
Mof_C 	C 	0.475	0.89	0.985	-0.955
Mof_H 	H 	0.5004	0.8796	0.0051	0.283
Mof_H 	H 	0.4792	0.93	0.961	0.276
Mof_C 	C 	0.457	0.797	0.967	0.428
Mof_H 	H 	0.4409	0.8062	0.9374	-0.1
Mof_H 	H 	0.4774	0.7525	0.9652	-0.112
Mof_C 	C 	0.461	0.46	0.993	0.035
Mof_H 	H 	0.4759	0.5038	0.9779	-0.042
Mof_H 	H 	0.48	0.416	0.0093	0.007
Mof_C 	C 	0.44	0.512	0.024	-0.161
Mof_H 	H 	0.4232	0.4682	0.0358	0.051
Mof_H 	H 	0.4592	0.5366	0.0485	0.065
Mof_C 	C 	0.415	0.59	0.001	0.101
Mof_H 	H 	0.4308	0.6366	0.9904	-0.06
Mof_H 	H 	0.4004	0.6201	0.0217	-0.009
Mof_C 	C 	0.386	0.547	0.963	0.124
Mof_H 	H 	0.391	0.5697	0.9348	0.024
Mof_H 	H 	0.3587	0.564	0.9645	-0.006
Mof_C 	C 	0.39	0.442	0.965	0.034
Mof_H 	H 	0.3865	0.421	0.9942	-0.187
Mof_H 	H 	0.3701	0.4138	0.9428	0.016
Mof_C 	C 	0.43	0.41	0.959	-0.214
Mof_H 	H 	0.4337	0.4242	0.9291	-0.151
Mof_H 	H 	0.4329	0.3432	0.9634	0.062
Mof_C 	C 	0.511	0.688	0.135	-0.094
Mof_H 	H 	0.4897	0.6995	0.1501	0.057
Mof_H 	H 	0.5298	0.7401	0.141	0.05
Mof_C 	C 	0.496	0.679	0.086	-0.093
Mof_H 	H 	0.5112	0.7189	0.0697	0.066
Mof_H 	H 	0.4684	0.6996	0.0784	0.064
Mof_C 	C 	0.499	0.58	0.071	-0.104
Mof_H 	H 	0.4854	0.5741	0.0399	0.047
Mof_H 	H 	0.4846	0.54	0.0882	0.052
Mof_C 	C 	0.541	0.545	0.076	-0.013
Mof_H 	H 	0.5414	0.4785	0.0717	-0.16
Mof_H 	H 	0.5538	0.5751	0.0544	-0.147
Mof_C 	C 	0.562	0.57	0.123	-0.129
Mof_H 	H 	0.5799	0.6217	0.1213	0.062
Mof_H 	H 	0.5772	0.5175	0.136	0.088
Mof_C 	C 	0.532	0.598	0.151	-0.061
Mof_H 	H 	0.5125	0.5491	0.1495	0.046
Mof_H 	H 	0.5459	0.605	0.1814	0.04
Mof_C 	C 	0.519	0.165	0.985	-0.154
Mof_H 	H 	0.5479	0.1695	0.9941	0.058
Mof_H 	H 	0.5104	0.2085	0.961	0.05
Mof_C 	C 	0.501	0.19	0.024	0.048
Mof_H 	H 	0.4889	0.2513	0.0189	0.005
Mof_H 	H 	0.5211	0.1919	0.0506	0.008
Mof_C 	C 	0.47	0.121	0.029	-0.014
Mof_H 	H 	0.449	0.1211	0.0027	0.022
Mof_H 	H 	0.4578	0.1408	0.054	0.048
Mof_C 	C 	0.485	0.023	0.038	0.2
Mof_H 	H 	0.4979	0.0168	0.0691	-0.042
Mof_H 	H 	0.463	0.9796	0.032	-0.08
Mof_C 	C 	0.514	0.002	0.009	-0.201
Mof_H 	H 	0.5408	0.0079	0.0258	0.078
Mof_H 	H 	0.5101	0.9385	0.998	0.185
Mof_C 	C 	0.507	0.068	0.971	-0.062
Mof_H 	H 	0.4796	0.0674	0.9561	0.037
Mof_H 	H 	0.5228	0.048	0.9491	-0.042
Mof_C 	C 	0.588	0.544	0.021	-0.122
Mof_H 	H 	0.5856	0.5954	0.0005	-0.014
Mof_H 	H 	0.6119	0.5516	0.0435	-0.07
Mof_C 	C 	0.588	0.453	0.997	-0.011
Mof_H 	H 	0.5724	0.4579	0.9675	0.013
Mof_H 	H 	0.6153	0.4382	0.995	0.195
Mof_C 	C 	0.572	0.378	0.022	-0.021
Mof_H 	H 	0.5834	0.3183	0.016	0.005
Mof_H 	H 	0.5437	0.3744	0.0126	0.049
Mof_C 	C 	0.583	0.398	0.071	0.284
Mof_H 	H 	0.5786	0.3431	0.0878	-0.052
Mof_H 	H 	0.6108	0.4149	0.0794	-0.073
Mof_C 	C 	0.558	0.476	0.082	0.308
Mof_H 	H 	0.5709	0.5061	0.1094	-0.081
Mof_H 	H 	0.5324	0.4527	0.0858	0.05
Mof_C 	C 	0.552	0.545	0.044	0.072
Mof_H 	H 	0.5285	0.5296	0.0224	0.056
Mof_H 	H 	0.5491	0.6072	0.0552	0.135
Mof_C 	C 	0.5692	0.762	0.002	-0.432
Mof_H 	H 	0.5937	0.7971	0.0056	0.163
Mof_H 	H 	0.5754	0.6965	0.007	0.174
Mof_C 	C 	0.544	0.777	0.956	0.204
Mof_H 	H 	0.5161	0.7652	0.9557	-0.029
Mof_H 	H 	0.5525	0.7376	0.9341	-0.053
Mof_C 	C 	0.551	0.879	0.947	-0.4
Mof_H 	H 	0.5747	0.8865	0.935	0.145
Mof_H 	H 	0.5286	0.9039	0.9253	0.134
Mof_C 	C 	0.555	0.931	0.99	0.402
Mof_H 	H 	0.5496	0.9971	0.985	-0.072
Mof_H 	H 	0.5816	0.9243	0.008	-0.096
Mof_C 	C 	0.525	0.89	0.015	-0.955
Mof_H 	H 	0.4996	0.8796	0.9949	0.283
Mof_H 	H 	0.5208	0.93	0.039	0.276
Mof_C 	C 	0.543	0.797	0.033	0.428
Mof_H 	H 	0.5591	0.8062	0.0626	-0.1
Mof_H 	H 	0.5226	0.7525	0.0348	-0.112
Mof_C 	C 	0.539	0.46	0.007	0.035
Mof_H 	H 	0.5241	0.5038	0.0221	-0.042
Mof_H 	H 	0.52	0.416	0.9907	0.007
Mof_C 	C 	0.56	0.512	0.976	-0.161
Mof_H 	H 	0.5768	0.4682	0.9642	0.051
Mof_H 	H 	0.5408	0.5366	0.9515	0.065
Mof_C 	C 	0.585	0.59	0.999	0.101
Mof_H 	H 	0.5692	0.6366	0.0096	-0.06
Mof_H 	H 	0.5996	0.6201	0.9783	-0.009
Mof_C 	C 	0.614	0.547	0.037	0.124
Mof_H 	H 	0.609	0.5697	0.0652	0.024
Mof_H 	H 	0.6413	0.564	0.0355	-0.006
Mof_C 	C 	0.61	0.442	0.035	0.034
Mof_H 	H 	0.6135	0.421	0.0058	-0.187
Mof_H 	H 	0.6299	0.4138	0.0572	0.016
Mof_C 	C 	0.57	0.41	0.041	-0.214
Mof_H 	H 	0.5663	0.4242	0.0709	-0.151
Mof_H 	H 	0.5671	0.3432	0.0366	0.062
_end
