data_functionalizedCrystal
_audit_creation_method	'EQeq! by Chris Wilmer'
_symmetry_space_group_name_H-M	'P1'
_symmetry_Int_Tables_number	1
_symmetry_cell_setting	triclinic
loop_
_symmetry_equiv_pos_as_xyz
  x,y,z
_cell_length_a	18.483
_cell_length_b	18.483
_cell_length_c	46.758
_cell_angle_alpha	90
_cell_angle_beta	90
_cell_angle_gamma	120
loop_
_atom_site_label
_atom_site_type_symbol
_atom_site_fract_x
_atom_site_fract_y
_atom_site_fract_z
_atom_site_charge
Mof_O 	O 	0.2961	0.4438	0.83124	-0.404
Mof_O 	O 	0.2546	0.3624	0.86997	-0.413
Mof_C 	C 	0.3068	0.4259	0.85661	0.37
Mof_C 	C 	0.385	0.4839	0.87041	-0.108
Mof_C 	C 	0.3986	0.4711	0.89876	0.001
Mof_H 	H 	0.3592	0.4233	0.9082	0.044
Mof_C 	C 	0.4634	0.4303	0.9824	-0.016
Mof_H 	H 	0.4431	0.3755	0.9903	0.021
Mof_C 	C 	0.4545	0.442	0.9534	-0.169
Mof_H 	H 	0.4297	0.395	0.9407	0.095
Mof_C 	C 	0.533	0.5799	0.9896	-0.02
Mof_H 	H 	0.5635	0.6278	0.0017	0.028
Mof_C 	C 	0.517	0.5891	0.9611	-0.122
Mof_H 	H 	0.5371	0.6438	0.9532	0.078
Mof_O 	O 	0.96277	0.77713	0.16457	-0.404
Mof_O 	O 	0.92127	0.69573	0.2033	-0.413
Mof_C 	C 	0.97347	0.75923	0.18994	0.369
Mof_C 	C 	0.05167	0.81723	0.20374	-0.106
Mof_C 	C 	0.06527	0.80443	0.23209	0
Mof_H 	H 	0.02587	0.75663	0.24153	0.045
Mof_C 	C 	0.13007	0.76363	0.31573	-0.016
Mof_H 	H 	0.10977	0.70883	0.32363	0.021
Mof_C 	C 	0.12117	0.77533	0.28673	-0.17
Mof_H 	H 	0.09637	0.72833	0.27403	0.095
Mof_C 	C 	0.19967	0.91323	0.32293	-0.02
Mof_H 	H 	0.23017	0.96113	0.33503	0.028
Mof_C 	C 	0.18367	0.92243	0.29443	-0.122
Mof_H 	H 	0.20377	0.97713	0.28653	0.078
Mof_O 	O 	0.62943	0.11047	0.49791	-0.404
Mof_O 	O 	0.58793	0.02907	0.53664	-0.413
Mof_C 	C 	0.64013	0.09257	0.52328	0.37
Mof_C 	C 	0.71833	0.15057	0.53708	-0.108
Mof_C 	C 	0.73193	0.13777	0.56543	0.001
Mof_H 	H 	0.69253	0.08997	0.57487	0.044
Mof_C 	C 	0.79673	0.09697	0.64907	-0.016
Mof_H 	H 	0.77643	0.04217	0.65697	0.021
Mof_C 	C 	0.78783	0.10867	0.62007	-0.17
Mof_H 	H 	0.76303	0.06167	0.60737	0.095
Mof_C 	C 	0.86633	0.24657	0.65627	-0.02
Mof_H 	H 	0.89683	0.29447	0.66837	0.028
Mof_C 	C 	0.85033	0.25577	0.62777	-0.122
Mof_H 	H 	0.87043	0.31047	0.61987	0.078
Mof_O 	O 	0.5562	0.8523	0.83124	-0.404
Mof_O 	O 	0.6376	0.8922	0.86997	-0.413
Mof_C 	C 	0.5741	0.8809	0.85661	0.37
Mof_C 	C 	0.5161	0.9011	0.87041	-0.108
Mof_C 	C 	0.5289	0.9275	0.89876	0
Mof_H 	H 	0.5767	0.9359	0.9082	0.044
Mof_C 	C 	0.5697	0.0331	0.9824	-0.016
Mof_H 	H 	0.6245	0.0676	0.9903	0.021
Mof_C 	C 	0.558	0.0125	0.9534	-0.166
Mof_H 	H 	0.605	0.0347	0.9407	0.094
Mof_C 	C 	0.4201	0.9531	0.9896	-0.021
Mof_H 	H 	0.3722	0.9357	0.0017	0.029
Mof_C 	C 	0.4109	0.9279	0.9611	-0.121
Mof_H 	H 	0.3562	0.8933	0.9532	0.077
Mof_O 	O 	0.22287	0.18563	0.16457	-0.404
Mof_O 	O 	0.30427	0.22553	0.2033	-0.413
Mof_C 	C 	0.24077	0.21423	0.18994	0.37
Mof_C 	C 	0.18277	0.23443	0.20374	-0.107
Mof_C 	C 	0.19557	0.26083	0.23209	0
Mof_H 	H 	0.24337	0.26923	0.24153	0.044
Mof_C 	C 	0.23637	0.36643	0.31573	-0.016
Mof_H 	H 	0.29117	0.40093	0.32363	0.021
Mof_C 	C 	0.22467	0.34583	0.28673	-0.17
Mof_H 	H 	0.27167	0.36803	0.27403	0.094
Mof_C 	C 	0.08677	0.28643	0.32293	-0.021
Mof_H 	H 	0.03887	0.26903	0.33503	0.027
Mof_C 	C 	0.07757	0.26123	0.29443	-0.123
Mof_H 	H 	0.02287	0.22663	0.28653	0.077
Mof_O 	O 	0.88953	0.51897	0.49791	-0.405
Mof_O 	O 	0.97093	0.55887	0.53664	-0.414
Mof_C 	C 	0.90743	0.54757	0.52328	0.369
Mof_C 	C 	0.84943	0.56777	0.53708	-0.109
Mof_C 	C 	0.86223	0.59417	0.56543	-0
Mof_H 	H 	0.91003	0.60257	0.57487	0.043
Mof_C 	C 	0.90303	0.69977	0.64907	-0.017
Mof_H 	H 	0.95783	0.73427	0.65697	0.02
Mof_C 	C 	0.89133	0.67917	0.62007	-0.171
Mof_H 	H 	0.93833	0.70137	0.60737	0.094
Mof_C 	C 	0.75343	0.61977	0.65627	-0.021
Mof_H 	H 	0.70553	0.60237	0.66837	0.027
Mof_C 	C 	0.74423	0.59457	0.62777	-0.123
Mof_H 	H 	0.68953	0.55997	0.61987	0.077
Mof_O 	O 	0.1477	0.7039	0.83124	-0.405
Mof_O 	O 	0.1078	0.7454	0.86997	-0.414
Mof_C 	C 	0.1191	0.6932	0.85661	0.369
Mof_C 	C 	0.0989	0.615	0.87041	-0.109
Mof_C 	C 	0.0725	0.6014	0.89876	-0
Mof_H 	H 	0.0641	0.6408	0.9082	0.043
Mof_C 	C 	0.9669	0.5366	0.9824	-0.018
Mof_H 	H 	0.9324	0.5569	0.9903	0.019
Mof_C 	C 	0.9875	0.5455	0.9534	-0.171
Mof_H 	H 	0.9653	0.5703	0.9407	0.094
Mof_C 	C 	0.0469	0.467	0.9896	-0.022
Mof_H 	H 	0.0643	0.4365	0.0017	0.027
Mof_C 	C 	0.0721	0.483	0.9611	-0.123
Mof_H 	H 	0.1067	0.4629	0.9532	0.077
Mof_O 	O 	0.81437	0.03723	0.16457	-0.405
Mof_O 	O 	0.77447	0.07873	0.2033	-0.414
Mof_C 	C 	0.78577	0.02653	0.18994	0.369
Mof_C 	C 	0.76557	0.94833	0.20374	-0.109
Mof_C 	C 	0.73917	0.93473	0.23209	-0
Mof_H 	H 	0.73077	0.97413	0.24153	0.043
Mof_C 	C 	0.63357	0.86993	0.31573	-0.017
Mof_H 	H 	0.59907	0.89023	0.32363	0.02
Mof_C 	C 	0.65417	0.87883	0.28673	-0.171
Mof_H 	H 	0.63197	0.90363	0.27403	0.094
Mof_C 	C 	0.71357	0.80033	0.32293	-0.021
Mof_H 	H 	0.73097	0.76983	0.33503	0.027
Mof_C 	C 	0.73877	0.81633	0.29443	-0.124
Mof_H 	H 	0.77337	0.79623	0.28653	0.077
Mof_O 	O 	0.48103	0.37057	0.49791	-0.405
Mof_O 	O 	0.44113	0.41207	0.53664	-0.414
Mof_C 	C 	0.45243	0.35987	0.52328	0.369
Mof_C 	C 	0.43223	0.28167	0.53708	-0.109
Mof_C 	C 	0.40583	0.26807	0.56543	-0
Mof_H 	H 	0.39743	0.30747	0.57487	0.043
Mof_C 	C 	0.30023	0.20327	0.64907	-0.017
Mof_H 	H 	0.26573	0.22357	0.65697	0.02
Mof_C 	C 	0.32083	0.21217	0.62007	-0.171
Mof_H 	H 	0.29863	0.23697	0.60737	0.094
Mof_C 	C 	0.38023	0.13367	0.65627	-0.021
Mof_H 	H 	0.39763	0.10317	0.66837	0.027
Mof_C 	C 	0.40543	0.14967	0.62777	-0.123
Mof_H 	H 	0.44003	0.12957	0.61987	0.077
Mof_O 	O 	0.4438	0.2961	0.16876	-0.405
Mof_O 	O 	0.3624	0.2546	0.13003	-0.414
Mof_C 	C 	0.4259	0.3068	0.14339	0.369
Mof_C 	C 	0.4839	0.385	0.12959	-0.109
Mof_C 	C 	0.4711	0.3986	0.10124	-0
Mof_H 	H 	0.4233	0.3592	0.0918	0.043
Mof_C 	C 	0.4303	0.4634	0.0176	-0.017
Mof_H 	H 	0.3755	0.4431	0.0097	0.02
Mof_C 	C 	0.442	0.4545	0.0466	-0.17
Mof_H 	H 	0.395	0.4297	0.0593	0.094
Mof_C 	C 	0.5799	0.533	0.0104	-0.021
Mof_H 	H 	0.6278	0.5635	0.9983	0.028
Mof_C 	C 	0.5891	0.517	0.0389	-0.123
Mof_H 	H 	0.6438	0.5371	0.0468	0.077
Mof_O 	O 	0.11047	0.62943	0.50209	-0.405
Mof_O 	O 	0.02907	0.58793	0.46336	-0.414
Mof_C 	C 	0.09257	0.64013	0.47672	0.369
Mof_C 	C 	0.15057	0.71833	0.46292	-0.109
Mof_C 	C 	0.13777	0.73193	0.43457	-0
Mof_H 	H 	0.08997	0.69253	0.42513	0.043
Mof_C 	C 	0.09697	0.79673	0.35093	-0.017
Mof_H 	H 	0.04217	0.77643	0.34303	0.02
Mof_C 	C 	0.10867	0.78783	0.37993	-0.171
Mof_H 	H 	0.06167	0.76303	0.39263	0.094
Mof_C 	C 	0.24657	0.86633	0.34373	-0.021
Mof_H 	H 	0.29447	0.89683	0.33163	0.027
Mof_C 	C 	0.25577	0.85033	0.37223	-0.123
Mof_H 	H 	0.31047	0.87043	0.38013	0.077
Mof_O 	O 	0.77713	0.96277	0.83543	-0.405
Mof_O 	O 	0.69573	0.92127	0.7967	-0.414
Mof_C 	C 	0.75923	0.97347	0.81006	0.368
Mof_C 	C 	0.81723	0.05167	0.79626	-0.108
Mof_C 	C 	0.80443	0.06527	0.76791	-0.001
Mof_H 	H 	0.75663	0.02587	0.75847	0.044
Mof_C 	C 	0.76363	0.13007	0.68427	-0.017
Mof_H 	H 	0.70883	0.10977	0.67637	0.02
Mof_C 	C 	0.77533	0.12117	0.71327	-0.171
Mof_H 	H 	0.72833	0.09637	0.72597	0.094
Mof_C 	C 	0.91323	0.19967	0.67707	-0.021
Mof_H 	H 	0.96113	0.23017	0.66497	0.027
Mof_C 	C 	0.92243	0.18367	0.70557	-0.123
Mof_H 	H 	0.97713	0.20377	0.71347	0.077
Mof_O 	O 	0.8523	0.5562	0.16876	-0.405
Mof_O 	O 	0.8922	0.6376	0.13003	-0.414
Mof_C 	C 	0.8809	0.5741	0.14339	0.369
Mof_C 	C 	0.9011	0.5161	0.12959	-0.109
Mof_C 	C 	0.9275	0.5289	0.10124	-0.001
Mof_H 	H 	0.9359	0.5767	0.0918	0.043
Mof_C 	C 	0.0331	0.5697	0.0176	-0.018
Mof_H 	H 	0.0676	0.6245	0.0097	0.021
Mof_C 	C 	0.0125	0.558	0.0466	-0.167
Mof_H 	H 	0.0347	0.605	0.0593	0.093
Mof_C 	C 	0.9531	0.4201	0.0104	-0.022
Mof_H 	H 	0.9357	0.3722	0.9983	0.028
Mof_C 	C 	0.9279	0.4109	0.0389	-0.122
Mof_H 	H 	0.8933	0.3562	0.0468	0.076
Mof_O 	O 	0.51897	0.88953	0.50209	-0.405
Mof_O 	O 	0.55887	0.97093	0.46336	-0.414
Mof_C 	C 	0.54757	0.90743	0.47672	0.369
Mof_C 	C 	0.56777	0.84943	0.46292	-0.109
Mof_C 	C 	0.59417	0.86223	0.43457	-0
Mof_H 	H 	0.60257	0.91003	0.42513	0.043
Mof_C 	C 	0.69977	0.90303	0.35093	-0.017
Mof_H 	H 	0.73427	0.95783	0.34303	0.02
Mof_C 	C 	0.67917	0.89133	0.37993	-0.171
Mof_H 	H 	0.70137	0.93833	0.39263	0.094
Mof_C 	C 	0.61977	0.75343	0.34373	-0.021
Mof_H 	H 	0.60237	0.70553	0.33163	0.027
Mof_C 	C 	0.59457	0.74423	0.37223	-0.123
Mof_H 	H 	0.55997	0.68953	0.38013	0.077
Mof_O 	O 	0.18563	0.22287	0.83543	-0.405
Mof_O 	O 	0.22553	0.30427	0.7967	-0.414
Mof_C 	C 	0.21423	0.24077	0.81006	0.369
Mof_C 	C 	0.23443	0.18277	0.79626	-0.109
Mof_C 	C 	0.26083	0.19557	0.76791	-0.001
Mof_H 	H 	0.26923	0.24337	0.75847	0.043
Mof_C 	C 	0.36643	0.23637	0.68427	-0.017
Mof_H 	H 	0.40093	0.29117	0.67637	0.02
Mof_C 	C 	0.34583	0.22467	0.71327	-0.171
Mof_H 	H 	0.36803	0.27167	0.72597	0.094
Mof_C 	C 	0.28643	0.08677	0.67707	-0.021
Mof_H 	H 	0.26903	0.03887	0.66497	0.027
Mof_C 	C 	0.26123	0.07757	0.70557	-0.123
Mof_H 	H 	0.22663	0.02287	0.71347	0.077
Mof_O 	O 	0.7039	0.1477	0.16876	-0.405
Mof_O 	O 	0.7454	0.1078	0.13003	-0.414
Mof_C 	C 	0.6932	0.1191	0.14339	0.369
Mof_C 	C 	0.615	0.0989	0.12959	-0.109
Mof_C 	C 	0.6014	0.0725	0.10124	-0
Mof_H 	H 	0.6408	0.0641	0.0918	0.043
Mof_C 	C 	0.5366	0.9669	0.0176	-0.018
Mof_H 	H 	0.5569	0.9324	0.0097	0.02
Mof_C 	C 	0.5455	0.9875	0.0466	-0.171
Mof_H 	H 	0.5703	0.9653	0.0593	0.094
Mof_C 	C 	0.467	0.0469	0.0104	-0.021
Mof_H 	H 	0.4365	0.0643	0.9983	0.027
Mof_C 	C 	0.483	0.0721	0.0389	-0.123
Mof_H 	H 	0.4629	0.1067	0.0468	0.077
Mof_O 	O 	0.37057	0.48103	0.50209	-0.405
Mof_O 	O 	0.41207	0.44113	0.46336	-0.414
Mof_C 	C 	0.35987	0.45243	0.47672	0.369
Mof_C 	C 	0.28167	0.43223	0.46292	-0.109
Mof_C 	C 	0.26807	0.40583	0.43457	-0
Mof_H 	H 	0.30747	0.39743	0.42513	0.043
Mof_C 	C 	0.20327	0.30023	0.35093	-0.017
Mof_H 	H 	0.22357	0.26573	0.34303	0.02
Mof_C 	C 	0.21217	0.32083	0.37993	-0.171
Mof_H 	H 	0.23697	0.29863	0.39263	0.094
Mof_C 	C 	0.13367	0.38023	0.34373	-0.021
Mof_H 	H 	0.10317	0.39763	0.33163	0.027
Mof_C 	C 	0.14967	0.40543	0.37223	-0.123
Mof_H 	H 	0.12957	0.44003	0.38013	0.077
Mof_O 	O 	0.03723	0.81437	0.83543	-0.405
Mof_O 	O 	0.07873	0.77447	0.7967	-0.414
Mof_C 	C 	0.02653	0.78577	0.81006	0.369
Mof_C 	C 	0.94833	0.76557	0.79626	-0.109
Mof_C 	C 	0.93473	0.73917	0.76791	-0
Mof_H 	H 	0.97413	0.73077	0.75847	0.043
Mof_C 	C 	0.86993	0.63357	0.68427	-0.017
Mof_H 	H 	0.89023	0.59907	0.67637	0.02
Mof_C 	C 	0.87883	0.65417	0.71327	-0.171
Mof_H 	H 	0.90363	0.63197	0.72597	0.094
Mof_C 	C 	0.80033	0.71357	0.67707	-0.021
Mof_H 	H 	0.76983	0.73097	0.66497	0.027
Mof_C 	C 	0.81633	0.73877	0.70557	-0.124
Mof_H 	H 	0.79623	0.77337	0.71347	0.077
Mof_O 	O 	0.7039	0.5562	0.16876	-0.405
Mof_O 	O 	0.7454	0.6376	0.13003	-0.414
Mof_C 	C 	0.6932	0.5741	0.14339	0.369
Mof_C 	C 	0.615	0.5161	0.12959	-0.109
Mof_C 	C 	0.6014	0.5289	0.10124	-0
Mof_H 	H 	0.6408	0.5767	0.0918	0.043
Mof_C 	C 	0.5366	0.5697	0.0176	-0.017
Mof_H 	H 	0.5569	0.6245	0.0097	0.02
Mof_C 	C 	0.5455	0.558	0.0466	-0.17
Mof_H 	H 	0.5703	0.605	0.0593	0.094
Mof_C 	C 	0.467	0.4201	0.0104	-0.021
Mof_H 	H 	0.4365	0.3722	0.9983	0.028
Mof_C 	C 	0.483	0.4109	0.0389	-0.123
Mof_H 	H 	0.4629	0.3562	0.0468	0.077
Mof_O 	O 	0.37057	0.88953	0.50209	-0.405
Mof_O 	O 	0.41207	0.97093	0.46336	-0.414
Mof_C 	C 	0.35987	0.90743	0.47672	0.369
Mof_C 	C 	0.28167	0.84943	0.46292	-0.109
Mof_C 	C 	0.26807	0.86223	0.43457	-0
Mof_H 	H 	0.30747	0.91003	0.42513	0.043
Mof_C 	C 	0.20327	0.90303	0.35093	-0.017
Mof_H 	H 	0.22357	0.95783	0.34303	0.02
Mof_C 	C 	0.21217	0.89133	0.37993	-0.171
Mof_H 	H 	0.23697	0.93833	0.39263	0.094
Mof_C 	C 	0.13367	0.75343	0.34373	-0.021
Mof_H 	H 	0.10317	0.70553	0.33163	0.027
Mof_C 	C 	0.14967	0.74423	0.37223	-0.123
Mof_H 	H 	0.12957	0.68953	0.38013	0.077
Mof_O 	O 	0.03723	0.22287	0.83543	-0.405
Mof_O 	O 	0.07873	0.30427	0.7967	-0.414
Mof_C 	C 	0.02653	0.24077	0.81006	0.369
Mof_C 	C 	0.94833	0.18277	0.79626	-0.109
Mof_C 	C 	0.93473	0.19557	0.76791	-0.001
Mof_H 	H 	0.97413	0.24337	0.75847	0.043
Mof_C 	C 	0.86993	0.23637	0.68427	-0.017
Mof_H 	H 	0.89023	0.29117	0.67637	0.02
Mof_C 	C 	0.87883	0.22467	0.71327	-0.171
Mof_H 	H 	0.90363	0.27167	0.72597	0.094
Mof_C 	C 	0.80033	0.08677	0.67707	-0.021
Mof_H 	H 	0.76983	0.03887	0.66497	0.027
Mof_C 	C 	0.81633	0.07757	0.70557	-0.123
Mof_H 	H 	0.79623	0.02287	0.71347	0.077
Mof_O 	O 	0.4438	0.1477	0.16876	-0.405
Mof_O 	O 	0.3624	0.1078	0.13003	-0.414
Mof_C 	C 	0.4259	0.1191	0.14339	0.369
Mof_C 	C 	0.4839	0.0989	0.12959	-0.109
Mof_C 	C 	0.4711	0.0725	0.10124	-0
Mof_H 	H 	0.4233	0.0641	0.0918	0.043
Mof_C 	C 	0.4303	0.9669	0.0176	-0.018
Mof_H 	H 	0.3755	0.9324	0.0097	0.02
Mof_C 	C 	0.442	0.9875	0.0466	-0.171
Mof_H 	H 	0.395	0.9653	0.0593	0.094
Mof_C 	C 	0.5799	0.0469	0.0104	-0.021
Mof_H 	H 	0.6278	0.0643	0.9983	0.027
Mof_C 	C 	0.5891	0.0721	0.0389	-0.123
Mof_H 	H 	0.6438	0.1067	0.0468	0.077
Mof_O 	O 	0.11047	0.48103	0.50209	-0.405
Mof_O 	O 	0.02907	0.44113	0.46336	-0.413
Mof_C 	C 	0.09257	0.45243	0.47672	0.369
Mof_C 	C 	0.15057	0.43223	0.46292	-0.109
Mof_C 	C 	0.13777	0.40583	0.43457	-0
Mof_H 	H 	0.08997	0.39743	0.42513	0.043
Mof_C 	C 	0.09697	0.30023	0.35093	-0.017
Mof_H 	H 	0.04217	0.26573	0.34303	0.02
Mof_C 	C 	0.10867	0.32083	0.37993	-0.171
Mof_H 	H 	0.06167	0.29863	0.39263	0.094
Mof_C 	C 	0.24657	0.38023	0.34373	-0.021
Mof_H 	H 	0.29447	0.39763	0.33163	0.027
Mof_C 	C 	0.25577	0.40543	0.37223	-0.123
Mof_H 	H 	0.31047	0.44003	0.38013	0.077
Mof_O 	O 	0.77713	0.81437	0.83543	-0.405
Mof_O 	O 	0.69573	0.77447	0.7967	-0.414
Mof_C 	C 	0.75923	0.78577	0.81006	0.369
Mof_C 	C 	0.81723	0.76557	0.79626	-0.109
Mof_C 	C 	0.80443	0.73917	0.76791	-0
Mof_H 	H 	0.75663	0.73077	0.75847	0.043
Mof_C 	C 	0.76363	0.63357	0.68427	-0.017
Mof_H 	H 	0.70883	0.59907	0.67637	0.02
Mof_C 	C 	0.77533	0.65417	0.71327	-0.171
Mof_H 	H 	0.72833	0.63197	0.72597	0.094
Mof_C 	C 	0.91323	0.71357	0.67707	-0.021
Mof_H 	H 	0.96113	0.73097	0.66497	0.027
Mof_C 	C 	0.92243	0.73877	0.70557	-0.124
Mof_H 	H 	0.97713	0.77337	0.71347	0.077
Mof_O 	O 	0.8523	0.2961	0.16876	-0.405
Mof_O 	O 	0.8922	0.2546	0.13003	-0.414
Mof_C 	C 	0.8809	0.3068	0.14339	0.369
Mof_C 	C 	0.9011	0.385	0.12959	-0.109
Mof_C 	C 	0.9275	0.3986	0.10124	-0.001
Mof_H 	H 	0.9359	0.3592	0.0918	0.043
Mof_C 	C 	0.0331	0.4634	0.0176	-0.018
Mof_H 	H 	0.0676	0.4431	0.0097	0.021
Mof_C 	C 	0.0125	0.4545	0.0466	-0.167
Mof_H 	H 	0.0347	0.4297	0.0593	0.093
Mof_C 	C 	0.9531	0.533	0.0104	-0.022
Mof_H 	H 	0.9357	0.5635	0.9983	0.028
Mof_C 	C 	0.9279	0.517	0.0389	-0.122
Mof_H 	H 	0.8933	0.5371	0.0468	0.076
Mof_O 	O 	0.51897	0.62943	0.50209	-0.405
Mof_O 	O 	0.55887	0.58793	0.46336	-0.414
Mof_C 	C 	0.54757	0.64013	0.47672	0.369
Mof_C 	C 	0.56777	0.71833	0.46292	-0.109
Mof_C 	C 	0.59417	0.73193	0.43457	-0
Mof_H 	H 	0.60257	0.69253	0.42513	0.043
Mof_C 	C 	0.69977	0.79673	0.35093	-0.017
Mof_H 	H 	0.73427	0.77643	0.34303	0.02
Mof_C 	C 	0.67917	0.78783	0.37993	-0.171
Mof_H 	H 	0.70137	0.76303	0.39263	0.094
Mof_C 	C 	0.61977	0.86633	0.34373	-0.021
Mof_H 	H 	0.60237	0.89683	0.33163	0.027
Mof_C 	C 	0.59457	0.85033	0.37223	-0.123
Mof_H 	H 	0.55997	0.87043	0.38013	0.077
Mof_O 	O 	0.18563	0.96277	0.83543	-0.405
Mof_O 	O 	0.22553	0.92127	0.7967	-0.414
Mof_C 	C 	0.21423	0.97347	0.81006	0.368
Mof_C 	C 	0.23443	0.05167	0.79626	-0.107
Mof_C 	C 	0.26083	0.06527	0.76791	-0.001
Mof_H 	H 	0.26923	0.02587	0.75847	0.044
Mof_C 	C 	0.36643	0.13007	0.68427	-0.017
Mof_H 	H 	0.40093	0.10977	0.67637	0.02
Mof_C 	C 	0.34583	0.12117	0.71327	-0.171
Mof_H 	H 	0.36803	0.09637	0.72597	0.094
Mof_C 	C 	0.28643	0.19967	0.67707	-0.021
Mof_H 	H 	0.26903	0.23017	0.66497	0.027
Mof_C 	C 	0.26123	0.18367	0.70557	-0.123
Mof_H 	H 	0.22663	0.20377	0.71347	0.077
Mof_O 	O 	0.5562	0.7039	0.83124	-0.405
Mof_O 	O 	0.6376	0.7454	0.86997	-0.414
Mof_C 	C 	0.5741	0.6932	0.85661	0.369
Mof_C 	C 	0.5161	0.615	0.87041	-0.109
Mof_C 	C 	0.5289	0.6014	0.89876	-0
Mof_H 	H 	0.5767	0.6408	0.9082	0.043
Mof_C 	C 	0.5697	0.5366	0.9824	-0.017
Mof_H 	H 	0.6245	0.5569	0.9903	0.019
Mof_C 	C 	0.558	0.5455	0.9534	-0.17
Mof_H 	H 	0.605	0.5703	0.9407	0.094
Mof_C 	C 	0.4201	0.467	0.9896	-0.021
Mof_H 	H 	0.3722	0.4365	0.0017	0.027
Mof_C 	C 	0.4109	0.483	0.9611	-0.123
Mof_H 	H 	0.3562	0.4629	0.9532	0.077
Mof_O 	O 	0.22287	0.03723	0.16457	-0.405
Mof_O 	O 	0.30427	0.07873	0.2033	-0.414
Mof_C 	C 	0.24077	0.02653	0.18994	0.369
Mof_C 	C 	0.18277	0.94833	0.20374	-0.109
Mof_C 	C 	0.19557	0.93473	0.23209	-0.001
Mof_H 	H 	0.24337	0.97413	0.24153	0.043
Mof_C 	C 	0.23637	0.86993	0.31573	-0.017
Mof_H 	H 	0.29117	0.89023	0.32363	0.02
Mof_C 	C 	0.22467	0.87883	0.28673	-0.171
Mof_H 	H 	0.27167	0.90363	0.27403	0.094
Mof_C 	C 	0.08677	0.80033	0.32293	-0.021
Mof_H 	H 	0.03887	0.76983	0.33503	0.027
Mof_C 	C 	0.07757	0.81633	0.29443	-0.123
Mof_H 	H 	0.02287	0.79623	0.28653	0.077
Mof_O 	O 	0.88953	0.37057	0.49791	-0.405
Mof_O 	O 	0.97093	0.41207	0.53664	-0.414
Mof_C 	C 	0.90743	0.35987	0.52328	0.369
Mof_C 	C 	0.84943	0.28167	0.53708	-0.109
Mof_C 	C 	0.86223	0.26807	0.56543	-0
Mof_H 	H 	0.91003	0.30747	0.57487	0.043
Mof_C 	C 	0.90303	0.20327	0.64907	-0.017
Mof_H 	H 	0.95783	0.22357	0.65697	0.02
Mof_C 	C 	0.89133	0.21217	0.62007	-0.171
Mof_H 	H 	0.93833	0.23697	0.60737	0.094
Mof_C 	C 	0.75343	0.13367	0.65627	-0.021
Mof_H 	H 	0.70553	0.10317	0.66837	0.027
Mof_C 	C 	0.74423	0.14967	0.62777	-0.123
Mof_H 	H 	0.68953	0.12957	0.61987	0.077
Mof_O 	O 	0.1477	0.4438	0.83124	-0.405
Mof_O 	O 	0.1078	0.3624	0.86997	-0.414
Mof_C 	C 	0.1191	0.4259	0.85661	0.369
Mof_C 	C 	0.0989	0.4839	0.87041	-0.109
Mof_C 	C 	0.0725	0.4711	0.89876	-0
Mof_H 	H 	0.0641	0.4233	0.9082	0.043
Mof_C 	C 	0.9669	0.4303	0.9824	-0.018
Mof_H 	H 	0.9324	0.3755	0.9903	0.019
Mof_C 	C 	0.9875	0.442	0.9534	-0.171
Mof_H 	H 	0.9653	0.395	0.9407	0.094
Mof_C 	C 	0.0469	0.5799	0.9896	-0.022
Mof_H 	H 	0.0643	0.6278	0.0017	0.027
Mof_C 	C 	0.0721	0.5891	0.9611	-0.123
Mof_H 	H 	0.1067	0.6438	0.9532	0.077
Mof_O 	O 	0.81437	0.77713	0.16457	-0.405
Mof_O 	O 	0.77447	0.69573	0.2033	-0.414
Mof_C 	C 	0.78577	0.75923	0.18994	0.369
Mof_C 	C 	0.76557	0.81723	0.20374	-0.109
Mof_C 	C 	0.73917	0.80443	0.23209	-0
Mof_H 	H 	0.73077	0.75663	0.24153	0.043
Mof_C 	C 	0.63357	0.76363	0.31573	-0.017
Mof_H 	H 	0.59907	0.70883	0.32363	0.02
Mof_C 	C 	0.65417	0.77533	0.28673	-0.171
Mof_H 	H 	0.63197	0.72833	0.27403	0.094
Mof_C 	C 	0.71357	0.91323	0.32293	-0.021
Mof_H 	H 	0.73097	0.96113	0.33503	0.027
Mof_C 	C 	0.73877	0.92243	0.29443	-0.124
Mof_H 	H 	0.77337	0.97713	0.28653	0.077
Mof_O 	O 	0.48103	0.11047	0.49791	-0.405
Mof_O 	O 	0.44113	0.02907	0.53664	-0.413
Mof_C 	C 	0.45243	0.09257	0.52328	0.369
Mof_C 	C 	0.43223	0.15057	0.53708	-0.109
Mof_C 	C 	0.40583	0.13777	0.56543	-0
Mof_H 	H 	0.39743	0.08997	0.57487	0.043
Mof_C 	C 	0.30023	0.09697	0.64907	-0.017
Mof_H 	H 	0.26573	0.04217	0.65697	0.02
Mof_C 	C 	0.32083	0.10867	0.62007	-0.171
Mof_H 	H 	0.29863	0.06167	0.60737	0.094
Mof_C 	C 	0.38023	0.24657	0.65627	-0.021
Mof_H 	H 	0.39763	0.29447	0.66837	0.027
Mof_C 	C 	0.40543	0.25577	0.62777	-0.123
Mof_H 	H 	0.44003	0.31047	0.61987	0.077
Mof_O 	O 	0.2961	0.8523	0.83124	-0.405
Mof_O 	O 	0.2546	0.8922	0.86997	-0.414
Mof_C 	C 	0.3068	0.8809	0.85661	0.369
Mof_C 	C 	0.385	0.9011	0.87041	-0.109
Mof_C 	C 	0.3986	0.9275	0.89876	-0.001
Mof_H 	H 	0.3592	0.9359	0.9082	0.043
Mof_C 	C 	0.4634	0.0331	0.9824	-0.017
Mof_H 	H 	0.4431	0.0676	0.9903	0.02
Mof_C 	C 	0.4545	0.0125	0.9534	-0.167
Mof_H 	H 	0.4297	0.0347	0.9407	0.093
Mof_C 	C 	0.533	0.9531	0.9896	-0.022
Mof_H 	H 	0.5635	0.9357	0.0017	0.028
Mof_C 	C 	0.517	0.9279	0.9611	-0.122
Mof_H 	H 	0.5371	0.8933	0.9532	0.076
Mof_O 	O 	0.96277	0.18563	0.16457	-0.405
Mof_O 	O 	0.92127	0.22553	0.2033	-0.414
Mof_C 	C 	0.97347	0.21423	0.18994	0.368
Mof_C 	C 	0.05167	0.23443	0.20374	-0.107
Mof_C 	C 	0.06527	0.26083	0.23209	-0.001
Mof_H 	H 	0.02587	0.26923	0.24153	0.044
Mof_C 	C 	0.13007	0.36643	0.31573	-0.017
Mof_H 	H 	0.10977	0.40093	0.32363	0.02
Mof_C 	C 	0.12117	0.34583	0.28673	-0.171
Mof_H 	H 	0.09637	0.36803	0.27403	0.094
Mof_C 	C 	0.19967	0.28643	0.32293	-0.021
Mof_H 	H 	0.23017	0.26903	0.33503	0.027
Mof_C 	C 	0.18367	0.26123	0.29443	-0.123
Mof_H 	H 	0.20377	0.22663	0.28653	0.077
Mof_O 	O 	0.62943	0.51897	0.49791	-0.405
Mof_O 	O 	0.58793	0.55887	0.53664	-0.414
Mof_C 	C 	0.64013	0.54757	0.52328	0.369
Mof_C 	C 	0.71833	0.56777	0.53708	-0.109
Mof_C 	C 	0.73193	0.59417	0.56543	-0
Mof_H 	H 	0.69253	0.60257	0.57487	0.043
Mof_C 	C 	0.79673	0.69977	0.64907	-0.017
Mof_H 	H 	0.77643	0.73427	0.65697	0.02
Mof_C 	C 	0.78783	0.67917	0.62007	-0.171
Mof_H 	H 	0.76303	0.70137	0.60737	0.094
Mof_C 	C 	0.86633	0.61977	0.65627	-0.021
Mof_H 	H 	0.89683	0.60237	0.66837	0.027
Mof_C 	C 	0.85033	0.59457	0.62777	-0.123
Mof_H 	H 	0.87043	0.55997	0.61987	0.077
Mof_Cu	Cu	0.38183	0.19092	0.18975	0.907
Mof_Cu	Cu	0.0485	0.52425	0.52309	0.908
Mof_Cu	Cu	0.71516	0.85758	0.85642	0.907
Mof_Cu	Cu	0.80908	0.19092	0.18975	0.907
Mof_Cu	Cu	0.47575	0.52425	0.52309	0.907
Mof_Cu	Cu	0.14242	0.85758	0.85642	0.907
Mof_Cu	Cu	0.80908	0.61817	0.18975	0.907
Mof_Cu	Cu	0.47575	0.9515	0.52309	0.907
Mof_Cu	Cu	0.14242	0.28484	0.85642	0.907
Mof_Cu	Cu	0.19092	0.38183	0.81025	0.907
Mof_Cu	Cu	0.85758	0.71516	0.14358	0.907
Mof_Cu	Cu	0.52425	0.0485	0.47691	0.908
Mof_Cu	Cu	0.19092	0.80908	0.81025	0.907
Mof_Cu	Cu	0.85758	0.14242	0.14358	0.907
Mof_Cu	Cu	0.52425	0.47575	0.47691	0.907
Mof_Cu	Cu	0.61817	0.80908	0.81025	0.907
Mof_Cu	Cu	0.28484	0.14242	0.14358	0.907
Mof_Cu	Cu	0.9515	0.47575	0.47691	0.907
Mof_C 	C 	0.4446	0.5554	0.85656	0.051
Mof_H 	H 	0.4363	0.5637	0.8375	0.044
Mof_C 	C 	0.4706	0.5294	0.9132	-0.02
Mof_C 	C 	0.4792	0.5208	0.9437	0.031
Mof_C 	C 	0.5155	0.4845	0.0579	0.019
Mof_C 	C 	0.5087	0.4913	0.0333	0.255
Mof_C 	C 	0.11127	0.88873	0.18989	0.05
Mof_H 	H 	0.10297	0.89703	0.17083	0.045
Mof_C 	C 	0.13727	0.86273	0.24653	-0.019
Mof_C 	C 	0.14587	0.85413	0.27703	0.031
Mof_C 	C 	0.18217	0.81783	0.39123	0.019
Mof_C 	C 	0.17537	0.82463	0.36663	0.255
Mof_C 	C 	0.77793	0.22207	0.52323	0.051
Mof_H 	H 	0.76963	0.23037	0.50417	0.044
Mof_C 	C 	0.80393	0.19607	0.57987	-0.02
Mof_C 	C 	0.81253	0.18747	0.61037	0.031
Mof_C 	C 	0.84883	0.15117	0.72457	0.019
Mof_C 	C 	0.84203	0.15797	0.69997	0.255
Mof_C 	C 	0.4446	0.8892	0.85656	0.051
Mof_H 	H 	0.4363	0.8726	0.8375	0.044
Mof_C 	C 	0.4706	0.9412	0.9132	-0.019
Mof_C 	C 	0.4792	0.9584	0.9437	0.029
Mof_C 	C 	0.5155	0.031	0.0579	0.019
Mof_C 	C 	0.5087	0.0174	0.0333	0.256
Mof_C 	C 	0.11127	0.22253	0.18989	0.05
Mof_H 	H 	0.10297	0.20593	0.17083	0.045
Mof_C 	C 	0.13727	0.27453	0.24653	-0.019
Mof_C 	C 	0.14587	0.29173	0.27703	0.031
Mof_C 	C 	0.18217	0.36433	0.39123	0.019
Mof_C 	C 	0.17537	0.35073	0.36663	0.255
Mof_C 	C 	0.77793	0.55587	0.52323	0.051
Mof_H 	H 	0.76963	0.53927	0.50417	0.044
Mof_C 	C 	0.80393	0.60787	0.57987	-0.02
Mof_C 	C 	0.81253	0.62507	0.61037	0.031
Mof_C 	C 	0.84883	0.69767	0.72457	0.019
Mof_C 	C 	0.84203	0.68407	0.69997	0.255
Mof_C 	C 	0.1108	0.5554	0.85656	0.051
Mof_H 	H 	0.1274	0.5637	0.8375	0.044
Mof_C 	C 	0.0588	0.5294	0.9132	-0.02
Mof_C 	C 	0.0416	0.5208	0.9437	0.031
Mof_C 	C 	0.969	0.4845	0.0579	0.018
Mof_C 	C 	0.9826	0.4913	0.0333	0.25
Mof_C 	C 	0.77747	0.88873	0.18989	0.051
Mof_H 	H 	0.79407	0.89703	0.17083	0.044
Mof_C 	C 	0.72547	0.86273	0.24653	-0.02
Mof_C 	C 	0.70827	0.85413	0.27703	0.031
Mof_C 	C 	0.63567	0.81783	0.39123	0.019
Mof_C 	C 	0.64927	0.82463	0.36663	0.255
Mof_C 	C 	0.44413	0.22207	0.52323	0.051
Mof_H 	H 	0.46073	0.23037	0.50417	0.044
Mof_C 	C 	0.39213	0.19607	0.57987	-0.02
Mof_C 	C 	0.37493	0.18747	0.61037	0.031
Mof_C 	C 	0.30233	0.15117	0.72457	0.019
Mof_C 	C 	0.31593	0.15797	0.69997	0.255
Mof_C 	C 	0.5554	0.4446	0.14344	0.051
Mof_H 	H 	0.5637	0.4363	0.1625	0.044
Mof_C 	C 	0.5294	0.4706	0.0868	-0.02
Mof_C 	C 	0.5208	0.4792	0.0563	0.031
Mof_C 	C 	0.4845	0.5155	0.9421	0.019
Mof_C 	C 	0.4913	0.5087	0.9667	0.255
Mof_C 	C 	0.22207	0.77793	0.47677	0.051
Mof_H 	H 	0.23037	0.76963	0.49583	0.044
Mof_C 	C 	0.19607	0.80393	0.42013	-0.02
Mof_C 	C 	0.18747	0.81253	0.38963	0.031
Mof_C 	C 	0.15117	0.84883	0.27543	0.019
Mof_C 	C 	0.15797	0.84203	0.30003	0.255
Mof_C 	C 	0.88873	0.11127	0.81011	0.05
Mof_H 	H 	0.89703	0.10297	0.82917	0.045
Mof_C 	C 	0.86273	0.13727	0.75347	-0.019
Mof_C 	C 	0.85413	0.14587	0.72297	0.031
Mof_C 	C 	0.81783	0.18217	0.60877	0.019
Mof_C 	C 	0.82463	0.17537	0.63337	0.255
Mof_C 	C 	0.8892	0.4446	0.14344	0.051
Mof_H 	H 	0.8726	0.4363	0.1625	0.044
Mof_C 	C 	0.9412	0.4706	0.0868	-0.019
Mof_C 	C 	0.9584	0.4792	0.0563	0.029
Mof_C 	C 	0.031	0.5155	0.9421	0.018
Mof_C 	C 	0.0174	0.5087	0.9667	0.255
Mof_C 	C 	0.55587	0.77793	0.47677	0.051
Mof_H 	H 	0.53927	0.76963	0.49583	0.044
Mof_C 	C 	0.60787	0.80393	0.42013	-0.02
Mof_C 	C 	0.62507	0.81253	0.38963	0.031
Mof_C 	C 	0.69767	0.84883	0.27543	0.019
Mof_C 	C 	0.68407	0.84203	0.30003	0.255
Mof_C 	C 	0.22253	0.11127	0.81011	0.05
Mof_H 	H 	0.20593	0.10297	0.82917	0.045
Mof_C 	C 	0.27453	0.13727	0.75347	-0.019
Mof_C 	C 	0.29173	0.14587	0.72297	0.031
Mof_C 	C 	0.36433	0.18217	0.60877	0.019
Mof_C 	C 	0.35073	0.17537	0.63337	0.255
Mof_C 	C 	0.5554	0.1108	0.14344	0.051
Mof_H 	H 	0.5637	0.1274	0.1625	0.044
Mof_C 	C 	0.5294	0.0588	0.0868	-0.02
Mof_C 	C 	0.5208	0.0416	0.0563	0.031
Mof_C 	C 	0.4845	0.969	0.9421	0.018
Mof_C 	C 	0.4913	0.9826	0.9667	0.251
Mof_C 	C 	0.22207	0.44413	0.47677	0.051
Mof_H 	H 	0.23037	0.46073	0.49583	0.044
Mof_C 	C 	0.19607	0.39213	0.42013	-0.02
Mof_C 	C 	0.18747	0.37493	0.38963	0.031
Mof_C 	C 	0.15117	0.30233	0.27543	0.019
Mof_C 	C 	0.15797	0.31593	0.30003	0.255
Mof_C 	C 	0.88873	0.77747	0.81011	0.051
Mof_H 	H 	0.89703	0.79407	0.82917	0.044
Mof_C 	C 	0.86273	0.72547	0.75347	-0.02
Mof_C 	C 	0.85413	0.70827	0.72297	0.031
Mof_C 	C 	0.81783	0.63567	0.60877	0.019
Mof_C 	C 	0.82463	0.64927	0.63337	0.255
Mof_C 	C 	0.5	0.5	-0	-0.061
Mof_C 	C 	0.16667	0.83333	0.33333	-0.062
Mof_C 	C 	0.83333	0.16667	0.66667	-0.062
Mof_C 	C 	0.5	0	-0	-0.057
Mof_C 	C 	0.16667	0.33333	0.33333	-0.062
Mof_C 	C 	0.83333	0.66667	0.66667	-0.062
Mof_C 	C 	-0	0.5	-0	-0.057
Mof_C 	C 	0.66667	0.83333	0.33333	-0.062
Mof_C 	C 	0.33333	0.16667	0.66667	-0.062
_end
