data_functionalizedCrystal
_audit_creation_method	'EQeq! by Chris Wilmer'
_symmetry_space_group_name_H-M	'P1'
_symmetry_Int_Tables_number	1
_symmetry_cell_setting	triclinic
loop_
_symmetry_equiv_pos_as_xyz
  x,y,z
_cell_length_a	14.8292
_cell_length_b	17.9234
_cell_length_c	29.9062
_cell_angle_alpha	96.836
_cell_angle_beta	93.529
_cell_angle_gamma	110.142
loop_
_atom_site_label
_atom_site_type_symbol
_atom_site_fract_x
_atom_site_fract_y
_atom_site_fract_z
_atom_site_charge
Mof_Zn	Zn	0.05321	0.34642	0.90657	1.156
Mof_Zn	Zn	0.72081	0.75356	0.56225	1.156
Mof_Zn	Zn	0.17624	0.15736	0.74141	1.156
Mof_Zn	Zn	0.7823	0.3487	0.39974	1.162
Mof_Zn	Zn	0.46039	0.1741	0.2164	1.165
Mof_I 	I 	0.79051	0.46472	0.35837	-0.565
Mof_I 	I 	0.64202	0.2634	0.43759	-1.258
Mof_I 	I 	0.52856	0.25762	0.29362	-0.385
Mof_I 	I 	0.47792	0.04063	0.18856	-0.373
Mof_N 	N 	0.9433	0.2692	0.859	-0.275
Mof_C 	C 	0.872	0.2919	0.8456	0.077
Mof_H 	H 	0.8745	0.3442	0.8576	-0.022
Mof_C 	C 	0.7938	0.2448	0.8151	-0.114
Mof_H 	H 	0.7407	0.2615	0.8089	0.095
Mof_C 	C 	0.7953	0.1709	0.7932	0.049
Mof_C 	C 	0.8734	0.1455	0.8072	-0.125
Mof_H 	H 	0.8769	0.0957	0.7942	0.07
Mof_C 	C 	0.9423	0.1967	0.84	0.061
Mof_H 	H 	0.9933	0.1801	0.8502	-0.019
Mof_N 	N 	0.6959	0.8331	0.6108	-0.279
Mof_C 	C 	0.758	0.8675	0.6489	0.037
Mof_H 	H 	0.8113	0.8509	0.6549	-0.006
Mof_C 	C 	0.7446	0.9264	0.6789	-0.115
Mof_H 	H 	0.7904	0.9515	0.7048	0.078
Mof_C 	C 	0.665	0.9497	0.672	0.018
Mof_C 	C 	0.6022	0.9117	0.633	-0.094
Mof_H 	H 	0.5467	0.9253	0.6266	0.081
Mof_C 	C 	0.6198	0.855	0.6038	0.03
Mof_H 	H 	0.5758	0.8302	0.5773	0.009
Mof_N 	N 	0.2967	0.123	0.7381	-0.271
Mof_C 	C 	0.3726	0.1653	0.7668	0.127
Mof_H 	H 	0.3672	0.2042	0.79	-0.023
Mof_C 	C 	0.4612	0.1546	0.7642	-0.099
Mof_H 	H 	0.5151	0.1847	0.7858	0.092
Mof_C 	C 	0.469	0.1006	0.7303	0.128
Mof_C 	C 	0.3912	0.0583	0.7015	-0.096
Mof_H 	H 	0.395	0.0197	0.6777	0.054
Mof_C 	C 	0.3036	0.0705	0.7063	0.164
Mof_H 	H 	0.2483	0.0395	0.6858	-0.043
Mof_C 	C 	0.7168	0.1185	0.7595	0.126
Mof_N 	N 	0.7256	0.0551	0.7351	-0.149
Mof_C 	C 	0.6515	0.0137	0.7041	0.113
Mof_N 	N 	0.569	0.0276	0.6983	-0.132
Mof_C 	C 	0.5653	0.0883	0.7271	0.172
Mof_N 	N 	0.6372	0.1401	0.7565	-0.111
Mof_N 	N 	0.5867	0.6589	0.5536	-0.265
Mof_C 	C 	0.5293	0.6348	0.5152	0.098
Mof_H 	H 	0.5472	0.6612	0.4897	0.235
Mof_C 	C 	0.4428	0.5707	0.5123	-0.161
Mof_H 	H 	0.4016	0.5535	0.4846	0.352
Mof_C 	C 	0.4156	0.5315	0.5488	0.1
Mof_C 	C 	0.476	0.5594	0.5887	-0.104
Mof_H 	H 	0.4603	0.5337	0.6146	0.101
Mof_C 	C 	0.5613	0.6263	0.5906	0.114
Mof_H 	H 	0.601	0.6485	0.6185	-0.032
Mof_N 	N 	0.9051	0.3807	0.4451	-0.328
Mof_C 	C 	0.9909	0.4419	0.4418	0.118
Mof_H 	H 	0.9911	0.4789	0.4216	-0.302
Mof_C 	C 	0.0737	0.4508	0.4661	-0.286
Mof_H 	H 	0.1316	0.4921	0.4616	0.023
Mof_C 	C 	0.0761	0.4002	0.4981	0.086
Mof_C 	C 	0.9887	0.3386	0.5032	-0.385
Mof_H 	H 	0.9864	0.3022	0.5241	-0.147
Mof_C 	C 	0.9049	0.3333	0.4757	-0.094
Mof_H 	H 	0.8452	0.2935	0.4796	-0.437
Mof_N 	N 	0.1961	0.2205	0.6868	-0.275
Mof_C 	C 	0.2676	0.283	0.6899	0.15
Mof_H 	H 	0.3122	0.2977	0.7165	0
Mof_C 	C 	0.2861	0.3324	0.6571	-0.074
Mof_H 	H 	0.3405	0.381	0.6615	0.092
Mof_C 	C 	0.2214	0.3089	0.616	0.099
Mof_C 	C 	0.1414	0.2397	0.6128	-0.132
Mof_H 	H 	0.0948	0.2227	0.5869	-0.013
Mof_C 	C 	0.131	0.1955	0.6486	0.05
Mof_H 	H 	0.0774	0.1467	0.6465	-0.051
Mof_C 	C 	0.3216	0.465	0.5483	0.089
Mof_N 	N 	0.2483	0.4626	0.5206	-0.137
Mof_C 	C 	0.1627	0.4037	0.5259	0.02
Mof_N 	N 	0.1532	0.3527	0.5542	-0.204
Mof_C 	C 	0.2338	0.3614	0.5807	0.112
Mof_N 	N 	0.3193	0.4153	0.5784	-0.082
Mof_N 	N 	0.8179	0.272	0.3533	-0.268
Mof_C 	C 	0.7507	0.2069	0.329	0.04
Mof_H 	H 	0.6862	0.1903	0.3365	0.012
Mof_C 	C 	0.7745	0.1627	0.2922	-0.115
Mof_H 	H 	0.725	0.1191	0.2739	0.069
Mof_C 	C 	0.8676	0.1819	0.2828	0.048
Mof_C 	C 	0.935	0.2518	0.3075	-0.132
Mof_H 	H 	0.9997	0.2706	0.3001	0.078
Mof_C 	C 	0.9085	0.2927	0.3419	0.071
Mof_H 	H 	0.9566	0.3388	0.359	-0.047
Mof_N 	N 	0.6451	0.8766	0.0838	-0.348
Mof_C 	C 	0.7348	0.8763	0.0864	0.051
Mof_H 	H 	0.7501	0.8402	0.0649	-0.027
Mof_C 	C 	0.8087	0.928	0.1201	-0.112
Mof_H 	H 	0.872	0.9261	0.1219	0.071
Mof_C 	C 	0.7847	0.9816	0.1504	0.03
Mof_C 	C 	0.6892	0.9818	0.148	-0.104
Mof_H 	H 	0.6717	0.018	0.1684	0.083
Mof_C 	C 	0.6223	0.9271	0.1146	0.043
Mof_H 	H 	0.5573	0.9249	0.1132	-0.009
Mof_N 	N 	0.314	0.157	0.2098	-0.276
Mof_C 	C 	0.2512	0.0997	0.1804	0.075
Mof_H 	H 	0.2738	0.066	0.1607	-0.018
Mof_C 	C 	0.153	0.0867	0.1768	-0.134
Mof_H 	H 	0.1098	0.0465	0.1542	0.078
Mof_C 	C 	0.12	0.1315	0.2057	0.057
Mof_C 	C 	0.1869	0.1977	0.2368	-0.121
Mof_H 	H 	0.1666	0.2331	0.2565	0.077
Mof_C 	C 	0.2826	0.206	0.236	0.067
Mof_H 	H 	0.3293	0.2499	0.2554	-0.017
Mof_C 	C 	0.8965	0.1377	0.2454	0.101
Mof_N 	N 	0.9905	0.1602	0.2408	-0.138
Mof_C 	C 	0.0146	0.116	0.2088	0.101
Mof_N 	N 	0.9521	0.0565	0.1778	-0.14
Mof_C 	C 	0.8576	0.0401	0.1843	0.084
Mof_N 	N 	0.8276	0.0793	0.2182	-0.143
Mof_N 	N 	0.513	0.2438	0.1677	-0.282
Mof_C 	C 	0.583	0.2322	0.1419	0.076
Mof_H 	H 	0.6031	0.1884	0.1457	-0.003
Mof_C 	C 	0.6226	0.2794	0.1121	-0.128
Mof_H 	H 	0.6745	0.2723	0.0972	0.093
Mof_C 	C 	0.5882	0.3387	0.103	0.069
Mof_C 	C 	0.5202	0.3494	0.1277	-0.15
Mof_H 	H 	0.4973	0.3917	0.1232	0.087
Mof_C 	C 	0.4832	0.3017	0.1586	0.094
Mof_H 	H 	0.4334	0.3105	0.1745	-0.023
Mof_N 	N 	0.9624	0.3827	0.9482	-0.275
Mof_C 	C 	0.9385	0.4466	0.9447	0.088
Mof_H 	H 	0.9729	0.4834	0.9259	-0.019
Mof_C 	C 	0.8685	0.4626	0.9661	-0.143
Mof_H 	H 	0.8542	0.5094	0.9625	0.075
Mof_C 	C 	0.8182	0.4097	0.9933	0.064
Mof_C 	C 	0.8444	0.345	0.9993	-0.122
Mof_H 	H 	0.8135	0.3092	0.0193	0.093
Mof_C 	C 	0.9165	0.3327	0.9759	0.073
Mof_H 	H 	0.934	0.2874	0.9795	-0.015
Mof_N 	N 	0.5771	0.706	0.0249	-0.371
Mof_C 	C 	0.563	0.6695	0.0612	0.071
Mof_H 	H 	0.5382	0.6927	0.0856	-0.073
Mof_C 	C 	0.582	0.5966	0.0663	-0.133
Mof_H 	H 	0.5704	0.5706	0.0924	0.088
Mof_C 	C 	0.6179	0.5694	0.0283	0.078
Mof_C 	C 	0.6342	0.6099	0.9925	-0.173
Mof_H 	H 	0.6602	0.5907	0.9672	0.092
Mof_C 	C 	0.614	0.6777	0.9926	0.14
Mof_H 	H 	0.6268	0.7056	0.9673	-0.062
Mof_C 	C 	0.6325	0.3905	0.0692	0.084
Mof_N 	N 	0.7013	0.3736	0.0467	-0.135
Mof_C 	C 	0.7394	0.4237	0.0178	0.084
Mof_N 	N 	0.7134	0.4852	0.0093	-0.147
Mof_C 	C 	0.6465	0.4969	0.035	0.081
Mof_N 	N 	0.6035	0.4501	0.0646	-0.139
Mof_I 	I 	0.1267	0.273	0.9496	-0.031
Mof_I 	I 	0.1401	0.4744	0.8668	-0.36
Mof_I 	I 	0.7402	0.8193	0.4906	-0.154
Mof_I 	I 	0.839	0.7001	0.6014	-0.175
Mof_I 	I 	0.2125	0.2671	0.81201	-0.468
Mof_I 	I 	0.0215	0.0425	0.72232	0.016
Mof_Zn	Zn	0.5665	0.8205	0.0182	1.103
Mof_I 	I 	0.3955	0.8016	0.0375	-0.164
Mof_I 	I 	0.6491	0.8848	0.9525	0.555
Mof_I 	I 	0.1195	0.2483	0.9525	-0.325
Mof_I 	I 	0.138	0.4507	0.87	0
Mof_I 	I 	0.7433	0.8105	0.4899	-0.226
Mof_I 	I 	0.8398	0.7025	0.6008	-0.152
Mof_I 	I 	0.186	0.231	0.8111	0.034
Mof_I 	I 	0.019	0.015	0.7092	-0.393
Mof_Zn	Zn	0.5424	0.8114	0.0309	-0.207
Mof_I 	I 	0.3836	0.7801	0.0658	-0.551
Mof_I 	I 	0.59	0.877	0.961	-0.829
Mof_Zn	Zn	0.525	0.7964	0.0458	1.066
Mof_I 	I 	0.3782	0.7527	0.0949	0.199
Mof_I 	I 	0.5293	0.8596	0.9779	-0.335
Mof_Zn	Zn	0.94679	0.65358	0.09343	1.155
Mof_Zn	Zn	0.27919	0.24644	0.43775	1.155
Mof_Zn	Zn	0.82376	0.84264	0.25859	1.155
Mof_Zn	Zn	0.2177	0.6513	0.60026	1.161
Mof_Zn	Zn	0.53961	0.8259	0.7836	1.164
Mof_I 	I 	0.20949	0.53528	0.64163	-0.566
Mof_I 	I 	0.35798	0.7366	0.56241	-1.259
Mof_I 	I 	0.47144	0.74238	0.70638	-0.386
Mof_I 	I 	0.52208	0.95937	0.81144	-0.374
Mof_N 	N 	0.0567	0.7308	0.141	-0.276
Mof_C 	C 	0.128	0.7081	0.1544	0.076
Mof_H 	H 	0.1255	0.6558	0.1424	-0.023
Mof_C 	C 	0.2062	0.7552	0.1849	-0.115
Mof_H 	H 	0.2593	0.7385	0.1911	0.094
Mof_C 	C 	0.2047	0.8291	0.2068	0.049
Mof_C 	C 	0.1266	0.8545	0.1928	-0.125
Mof_H 	H 	0.1231	0.9043	0.2058	0.07
Mof_C 	C 	0.0577	0.8033	0.16	0.061
Mof_H 	H 	0.0067	0.8199	0.1498	-0.019
Mof_N 	N 	0.3041	0.1669	0.3892	-0.279
Mof_C 	C 	0.242	0.1325	0.3511	0.037
Mof_H 	H 	0.1887	0.1491	0.3451	-0.006
Mof_C 	C 	0.2554	0.0736	0.3211	-0.115
Mof_H 	H 	0.2096	0.0485	0.2952	0.078
Mof_C 	C 	0.335	0.0503	0.328	0.018
Mof_C 	C 	0.3978	0.0883	0.367	-0.094
Mof_H 	H 	0.4533	0.0747	0.3734	0.081
Mof_C 	C 	0.3802	0.145	0.3962	0.03
Mof_H 	H 	0.4242	0.1698	0.4227	0.009
Mof_N 	N 	0.7033	0.877	0.2619	-0.271
Mof_C 	C 	0.6274	0.8347	0.2332	0.127
Mof_H 	H 	0.6328	0.7958	0.21	-0.023
Mof_C 	C 	0.5388	0.8454	0.2358	-0.099
Mof_H 	H 	0.4849	0.8153	0.2142	0.092
Mof_C 	C 	0.531	0.8994	0.2697	0.128
Mof_C 	C 	0.6088	0.9417	0.2985	-0.096
Mof_H 	H 	0.605	0.9803	0.3223	0.054
Mof_C 	C 	0.6964	0.9295	0.2937	0.164
Mof_H 	H 	0.7517	0.9605	0.3142	-0.043
Mof_C 	C 	0.2832	0.8815	0.2405	0.126
Mof_N 	N 	0.2744	0.9449	0.2649	-0.149
Mof_C 	C 	0.3485	0.9863	0.2959	0.113
Mof_N 	N 	0.431	0.9724	0.3017	-0.132
Mof_C 	C 	0.4347	0.9117	0.2729	0.172
Mof_N 	N 	0.3628	0.8599	0.2435	-0.111
Mof_N 	N 	0.4133	0.3411	0.4464	-0.265
Mof_C 	C 	0.4707	0.3652	0.4848	0.098
Mof_H 	H 	0.4528	0.3388	0.5103	0.235
Mof_C 	C 	0.5572	0.4293	0.4877	-0.161
Mof_H 	H 	0.5984	0.4465	0.5154	0.352
Mof_C 	C 	0.5844	0.4685	0.4512	0.1
Mof_C 	C 	0.524	0.4406	0.4113	-0.104
Mof_H 	H 	0.5397	0.4663	0.3854	0.101
Mof_C 	C 	0.4387	0.3737	0.4094	0.114
Mof_H 	H 	0.399	0.3515	0.3815	-0.032
Mof_N 	N 	0.0949	0.6193	0.5549	-0.328
Mof_C 	C 	0.0091	0.5581	0.5582	0.118
Mof_H 	H 	0.0089	0.5211	0.5784	-0.302
Mof_C 	C 	0.9263	0.5492	0.5339	-0.286
Mof_H 	H 	0.8684	0.5079	0.5384	0.023
Mof_C 	C 	0.9239	0.5998	0.5019	0.086
Mof_C 	C 	0.0113	0.6614	0.4968	-0.385
Mof_H 	H 	0.0136	0.6978	0.4759	-0.147
Mof_C 	C 	0.0951	0.6667	0.5243	-0.094
Mof_H 	H 	0.1548	0.7065	0.5204	-0.437
Mof_N 	N 	0.8039	0.7795	0.3132	-0.275
Mof_C 	C 	0.7324	0.717	0.3101	0.15
Mof_H 	H 	0.6878	0.7023	0.2835	0
Mof_C 	C 	0.7139	0.6676	0.3429	-0.074
Mof_H 	H 	0.6595	0.619	0.3385	0.092
Mof_C 	C 	0.7786	0.6911	0.384	0.099
Mof_C 	C 	0.8586	0.7603	0.3872	-0.132
Mof_H 	H 	0.9052	0.7773	0.4131	-0.013
Mof_C 	C 	0.869	0.8045	0.3514	0.05
Mof_H 	H 	0.9226	0.8533	0.3535	-0.051
Mof_C 	C 	0.6784	0.535	0.4517	0.089
Mof_N 	N 	0.7517	0.5374	0.4794	-0.137
Mof_C 	C 	0.8373	0.5963	0.4741	0.02
Mof_N 	N 	0.8468	0.6473	0.4458	-0.204
Mof_C 	C 	0.7662	0.6386	0.4193	0.112
Mof_N 	N 	0.6807	0.5847	0.4216	-0.082
Mof_N 	N 	0.1821	0.728	0.6467	-0.268
Mof_C 	C 	0.2493	0.7931	0.671	0.04
Mof_H 	H 	0.3138	0.8097	0.6635	0.012
Mof_C 	C 	0.2255	0.8373	0.7078	-0.115
Mof_H 	H 	0.275	0.8809	0.7261	0.069
Mof_C 	C 	0.1324	0.8181	0.7172	0.048
Mof_C 	C 	0.065	0.7482	0.6925	-0.132
Mof_H 	H 	0.0003	0.7294	0.6999	0.078
Mof_C 	C 	0.0915	0.7073	0.6581	0.071
Mof_H 	H 	0.0434	0.6612	0.641	-0.047
Mof_N 	N 	0.3549	0.1234	0.9162	-0.348
Mof_C 	C 	0.2652	0.1237	0.9136	0.051
Mof_H 	H 	0.2499	0.1598	0.9351	-0.027
Mof_C 	C 	0.1913	0.072	0.8799	-0.112
Mof_H 	H 	0.128	0.0739	0.8781	0.071
Mof_C 	C 	0.2153	0.0184	0.8496	0.03
Mof_C 	C 	0.3108	0.0182	0.852	-0.104
Mof_H 	H 	0.3283	0.982	0.8316	0.083
Mof_C 	C 	0.3777	0.0729	0.8854	0.043
Mof_H 	H 	0.4427	0.0751	0.8868	-0.009
Mof_N 	N 	0.686	0.843	0.7902	-0.276
Mof_C 	C 	0.7488	0.9003	0.8196	0.075
Mof_H 	H 	0.7262	0.934	0.8393	-0.018
Mof_C 	C 	0.847	0.9133	0.8232	-0.134
Mof_H 	H 	0.8902	0.9535	0.8458	0.078
Mof_C 	C 	0.88	0.8685	0.7943	0.057
Mof_C 	C 	0.8131	0.8023	0.7632	-0.121
Mof_H 	H 	0.8334	0.7669	0.7435	0.077
Mof_C 	C 	0.7174	0.794	0.764	0.067
Mof_H 	H 	0.6707	0.7501	0.7446	-0.017
Mof_C 	C 	0.1035	0.8623	0.7546	0.101
Mof_N 	N 	0.0095	0.8398	0.7592	-0.138
Mof_C 	C 	0.9854	0.884	0.7912	0.101
Mof_N 	N 	0.0479	0.9435	0.8222	-0.14
Mof_C 	C 	0.1424	0.9599	0.8157	0.084
Mof_N 	N 	0.1724	0.9207	0.7818	-0.143
Mof_N 	N 	0.487	0.7562	0.8323	-0.282
Mof_C 	C 	0.417	0.7678	0.8581	0.076
Mof_H 	H 	0.3969	0.8116	0.8543	-0.003
Mof_C 	C 	0.3774	0.7206	0.8879	-0.128
Mof_H 	H 	0.3255	0.7277	0.9028	0.093
Mof_C 	C 	0.4118	0.6613	0.897	0.069
Mof_C 	C 	0.4798	0.6506	0.8723	-0.15
Mof_H 	H 	0.5027	0.6083	0.8768	0.087
Mof_C 	C 	0.5168	0.6983	0.8414	0.094
Mof_H 	H 	0.5666	0.6895	0.8255	-0.023
Mof_N 	N 	0.0376	0.6173	0.0518	-0.275
Mof_C 	C 	0.0615	0.5534	0.0553	0.088
Mof_H 	H 	0.0271	0.5166	0.0741	-0.019
Mof_C 	C 	0.1315	0.5374	0.0339	-0.143
Mof_H 	H 	0.1458	0.4906	0.0375	0.075
Mof_C 	C 	0.1818	0.5903	0.0067	0.064
Mof_C 	C 	0.1556	0.655	0.0007	-0.122
Mof_H 	H 	0.1865	0.6908	0.9807	0.093
Mof_C 	C 	0.0835	0.6673	0.0241	0.073
Mof_H 	H 	0.066	0.7126	0.0205	-0.015
Mof_N 	N 	0.4229	0.294	0.9751	-0.371
Mof_C 	C 	0.437	0.3305	0.9388	0.071
Mof_H 	H 	0.4618	0.3073	0.9144	-0.073
Mof_C 	C 	0.418	0.4034	0.9337	-0.133
Mof_H 	H 	0.4296	0.4294	0.9076	0.088
Mof_C 	C 	0.3821	0.4306	0.9717	0.078
Mof_C 	C 	0.3658	0.3901	0.0075	-0.173
Mof_H 	H 	0.3398	0.4093	0.0328	0.092
Mof_C 	C 	0.386	0.3223	0.0074	0.14
Mof_H 	H 	0.3732	0.2944	0.0327	-0.062
Mof_C 	C 	0.3675	0.6095	0.9308	0.084
Mof_N 	N 	0.2987	0.6264	0.9533	-0.135
Mof_C 	C 	0.2606	0.5763	0.9822	0.084
Mof_N 	N 	0.2866	0.5148	0.9907	-0.147
Mof_C 	C 	0.3535	0.5031	0.965	0.081
Mof_N 	N 	0.3965	0.5499	0.9354	-0.139
Mof_I 	I 	0.8733	0.727	0.0504	-0.031
Mof_I 	I 	0.8599	0.5256	0.1332	-0.36
Mof_I 	I 	0.2598	0.1807	0.5094	-0.154
Mof_I 	I 	0.161	0.2999	0.3986	-0.175
Mof_I 	I 	0.7875	0.7329	0.18799	-0.468
Mof_I 	I 	0.9785	0.9575	0.27768	0.016
Mof_Zn	Zn	0.4335	0.1795	0.9818	1.103
Mof_I 	I 	0.6045	0.1984	0.9625	-0.164
Mof_I 	I 	0.3509	0.1152	0.0475	0.555
Mof_I 	I 	0.8805	0.7517	0.0475	-0.325
Mof_I 	I 	0.862	0.5493	0.13	0
Mof_I 	I 	0.2567	0.1895	0.5101	-0.226
Mof_I 	I 	0.1602	0.2975	0.3992	-0.152
Mof_I 	I 	0.814	0.769	0.1889	0.034
Mof_I 	I 	0.981	0.985	0.2908	-0.393
Mof_Zn	Zn	0.4576	0.1886	0.9691	-0.207
Mof_I 	I 	0.6164	0.2199	0.9342	-0.551
Mof_I 	I 	0.41	0.123	0.039	-0.829
Mof_Zn	Zn	0.475	0.2036	0.9542	1.066
Mof_I 	I 	0.6218	0.2473	0.9051	0.199
Mof_I 	I 	0.4707	0.1404	0.0221	-0.335
Mof_C 	C 	0.4	0.525	0.2863	2.182
Mof_C 	C 	0.446	0.606	0.3194	-5.784
Mof_H 	H 	0.513	0.6455	0.3204	0.907
Mof_C 	C 	0.402	0.557	0.359	1.766
Mof_H 	H 	0.4342	0.5621	0.3901	-0.252
Mof_C 	C 	0.357	0.477	0.3229	-1.403
Mof_H 	H 	0.3588	0.4226	0.327	0.473
Mof_C 	C 	0.266	0.496	0.3136	1.748
Mof_H 	H 	0.1993	0.4563	0.3128	-0.664
Mof_C 	C 	0.304	0.538	0.2754	-2.176
Mof_H 	H 	0.2679	0.5277	0.2445	0.699
Mof_C 	C 	0.35	0.618	0.3042	3.068
Mof_H 	H 	0.3443	0.6699	0.2971	-1.364
Mof_C 	C 	0.308	0.574	0.3462	-2.261
Mof_C 	C 	0.453	0.49	0.2528	-0.498
Mof_O 	O 	0.548	0.521	0.2668	0.043
Mof_O 	O 	0.42	0.436	0.223	-0.012
Mof_C 	C 	0.619	0.501	0.235	-0.343
Mof_H 	H 	0.685	0.5276	0.25	0.139
Mof_H 	H 	0.6031	0.443	0.23	0.151
Mof_H 	H 	0.6124	0.5206	0.2065	0.161
Mof_C 	C 	0.26	0.604	0.3868	15.53
Mof_O 	O 	0.272	0.679	0.39	-18.736
Mof_O 	O 	0.263	0.572	0.4201	-3.522
Mof_C 	C 	0.213	0.696	0.426	-51.58
Mof_H 	H 	0.2205	0.7532	0.4295	12.722
Mof_H 	H 	0.1451	0.663	0.4176	15.77
Mof_H 	H 	0.236	0.684	0.4548	14.339
Mof_C 	C 	0.544	0.078	0.504	7.982
Mof_H 	H 	0.6133	0.0925	0.5153	-2.574
Mof_H 	H 	0.5385	0.117	0.4845	-1.603
Mof_C 	C 	0.504	0.992	0.478	-0.977
Mof_H 	H 	0.4337	0.9757	0.4687	0.312
Mof_H 	H 	0.5368	0.9889	0.4502	0.832
Mof_C 	C 	0.523	0.937	0.51	-5.896
Mof_H 	H 	0.5934	0.9549	0.5197	1.816
Mof_H 	H 	0.5022	0.8811	0.4939	0.768
Mof_C 	C 	0.468	0.94	0.551	0.648
Mof_H 	H 	0.4779	0.9031	0.5716	-0.016
Mof_H 	H 	0.3975	0.9219	0.5414	-0.53
Mof_C 	C 	0.503	0.026	0.577	0.207
Mof_H 	H 	0.4665	0.0282	0.6038	-0.351
Mof_H 	H 	0.5722	0.0438	0.5881	0.227
Mof_C 	C 	0.486	0.082	0.545	-4.327
Mof_H 	H 	0.5073	0.1377	0.5612	2.994
Mof_H 	H 	0.4163	0.0647	0.5344	1.1
Mof_C 	C 	0.383	0.662	0.402	27.799
Mof_H 	H 	0.4251	0.654	0.427	-7.677
Mof_H 	H 	0.3295	0.6104	0.3921	-12.384
Mof_C 	C 	0.442	0.688	0.363	-20.165
Mof_H 	H 	0.4607	0.6436	0.3486	7.991
Mof_H 	H 	0.4021	0.7015	0.3394	6.54
Mof_C 	C 	0.533	0.762	0.38	15.759
Mof_H 	H 	0.5625	0.7864	0.3536	-4.443
Mof_H 	H 	0.5814	0.7454	0.3963	-4.503
Mof_C 	C 	0.507	0.824	0.411	-16.635
Mof_H 	H 	0.5436	0.8791	0.4051	4.835
Mof_H 	H 	0.5252	0.8212	0.4432	4.177
Mof_C 	C 	0.398	0.806	0.403	19.584
Mof_H 	H 	0.3816	0.8506	0.4186	-6.374
Mof_H 	H 	0.3788	0.8013	0.3698	-5.521
Mof_C 	C 	0.343	0.727	0.42	-32.918
Mof_H 	H 	0.2733	0.7095	0.4091	35.365
Mof_H 	H 	0.3501	0.7357	0.4534	8.883
Mof_C 	C 	0.6	0.475	0.7137	2.182
Mof_C 	C 	0.554	0.394	0.6806	-5.784
Mof_H 	H 	0.487	0.3545	0.6796	0.907
Mof_C 	C 	0.598	0.443	0.641	1.766
Mof_H 	H 	0.5658	0.4379	0.6099	-0.252
Mof_C 	C 	0.643	0.523	0.6771	-1.403
Mof_H 	H 	0.6412	0.5774	0.673	0.473
Mof_C 	C 	0.734	0.504	0.6864	1.748
Mof_H 	H 	0.8007	0.5437	0.6872	-0.664
Mof_C 	C 	0.696	0.462	0.7246	-2.176
Mof_H 	H 	0.7321	0.4723	0.7555	0.699
Mof_C 	C 	0.65	0.382	0.6958	3.068
Mof_H 	H 	0.6557	0.3301	0.7029	-1.364
Mof_C 	C 	0.692	0.426	0.6538	-2.261
Mof_C 	C 	0.547	0.51	0.7472	-0.498
Mof_O 	O 	0.452	0.479	0.7332	0.043
Mof_O 	O 	0.58	0.564	0.777	-0.012
Mof_C 	C 	0.381	0.499	0.765	-0.343
Mof_H 	H 	0.315	0.4724	0.75	0.139
Mof_H 	H 	0.3969	0.557	0.77	0.151
Mof_H 	H 	0.3876	0.4794	0.7935	0.161
Mof_C 	C 	0.74	0.396	0.6132	15.53
Mof_O 	O 	0.728	0.321	0.61	-18.736
Mof_O 	O 	0.737	0.428	0.5799	-3.522
Mof_C 	C 	0.787	0.304	0.574	-51.58
Mof_H 	H 	0.7795	0.2468	0.5705	12.722
Mof_H 	H 	0.8549	0.337	0.5824	15.77
Mof_H 	H 	0.764	0.316	0.5452	14.339
Mof_C 	C 	0.456	0.922	0.496	7.982
Mof_H 	H 	0.3867	0.9075	0.4847	-2.574
Mof_H 	H 	0.4615	0.883	0.5155	-1.603
Mof_C 	C 	0.496	0.008	0.522	-0.977
Mof_H 	H 	0.5663	0.0243	0.5313	0.312
Mof_H 	H 	0.4632	0.0111	0.5498	0.832
Mof_C 	C 	0.477	0.063	0.49	-5.896
Mof_H 	H 	0.4066	0.0451	0.4803	1.816
Mof_H 	H 	0.4978	0.1189	0.5061	0.768
Mof_C 	C 	0.532	0.06	0.449	0.648
Mof_H 	H 	0.5221	0.0969	0.4284	-0.016
Mof_H 	H 	0.6025	0.0781	0.4586	-0.53
Mof_C 	C 	0.497	0.974	0.423	0.207
Mof_H 	H 	0.5335	0.9718	0.3962	-0.351
Mof_H 	H 	0.4278	0.9562	0.4119	0.227
Mof_C 	C 	0.514	0.918	0.455	-4.327
Mof_H 	H 	0.4927	0.8623	0.4388	2.994
Mof_H 	H 	0.5837	0.9353	0.4656	1.1
Mof_C 	C 	0.617	0.338	0.598	27.799
Mof_H 	H 	0.5749	0.346	0.573	-7.677
Mof_H 	H 	0.6705	0.3896	0.6079	-12.384
Mof_C 	C 	0.558	0.312	0.637	-20.165
Mof_H 	H 	0.5393	0.3564	0.6514	7.991
Mof_H 	H 	0.5979	0.2985	0.6606	6.54
Mof_C 	C 	0.467	0.238	0.62	15.759
Mof_H 	H 	0.4375	0.2136	0.6464	-4.443
Mof_H 	H 	0.4186	0.2546	0.6037	-4.503
Mof_C 	C 	0.493	0.176	0.589	-16.635
Mof_H 	H 	0.4564	0.1209	0.5949	4.835
Mof_H 	H 	0.4748	0.1788	0.5568	4.177
Mof_C 	C 	0.602	0.194	0.597	19.584
Mof_H 	H 	0.6184	0.1494	0.5814	-6.374
Mof_H 	H 	0.6212	0.1987	0.6302	-5.521
Mof_C 	C 	0.657	0.273	0.58	-32.918
Mof_H 	H 	0.7267	0.2905	0.5909	35.365
Mof_H 	H 	0.6499	0.2643	0.5466	8.883
_end
