data_functionalizedCrystal
_audit_creation_method	'EQeq! by Chris Wilmer'
_symmetry_space_group_name_H-M	'P1'
_symmetry_Int_Tables_number	1
_symmetry_cell_setting	triclinic
loop_
_symmetry_equiv_pos_as_xyz
  x,y,z
_cell_length_a	10.1085
_cell_length_b	18.918
_cell_length_c	11.0438
_cell_angle_alpha	90
_cell_angle_beta	110.984
_cell_angle_gamma	90
loop_
_atom_site_label
_atom_site_type_symbol
_atom_site_fract_x
_atom_site_fract_y
_atom_site_fract_z
_atom_site_charge
Mof_Cd	Cd	0.66494	0.06026	0.06119	0.503
Mof_O 	O 	0.5568	0.116	0.1858	-0.257
Mof_O 	O 	0.405	0.0398	0.0659	-0.279
Mof_O 	O 	0.7019	0.1766	0.9183	-0.233
Mof_O 	O 	0.5558	0.1037	0.8546	-0.125
Mof_O 	O 	0.5903	0.1999	0.9717	-0.213
Mof_O 	O 	0.5109	0.1215	0.889	-0.225
Mof_O 	O 	0.9034	0.0497	0.0867	-0.268
Mof_O 	O 	0.8609	0.1405	0.1878	-0.284
Mof_C 	C 	0.9467	0.0992	0.1595	0.3
Mof_C 	C 	0.1017	0.1152	0.2197	-0.045
Mof_C 	C 	0.1939	0.0894	0.163	-0.011
Mof_H 	H 	0.1602	0.0607	0.0899	0.075
Mof_C 	C 	0.1517	0.1562	0.3319	-0.055
Mof_H 	H 	0.089	0.1732	0.3693	0.067
Mof_C 	C 	0.295	0.1713	0.3874	0.034
Mof_C 	C 	0.3869	0.1471	0.3285	-0.052
Mof_H 	H 	0.4828	0.1581	0.3646	0.075
Mof_C 	C 	0.3369	0.1066	0.2157	-0.04
Mof_C 	C 	0.3541	0.2137	0.5098	-0.004
Mof_C 	C 	0.422	0.1774	0.6272	-0.021
Mof_H 	H 	0.4212	0.1282	0.6268	0.062
Mof_C 	C 	0.4903	0.2125	0.744	-0.062
Mof_C 	C 	0.5618	0.1688	0.8631	0.489
Mof_C 	C 	0.439	0.0849	0.1511	0.318
Mof_Cd	Cd	0.33506	0.56026	0.93881	0.506
Mof_O 	O 	0.4432	0.616	0.8142	-0.256
Mof_O 	O 	0.595	0.5398	0.9341	-0.277
Mof_O 	O 	0.2981	0.6766	0.0817	-0.233
Mof_O 	O 	0.4442	0.6037	0.1454	-0.125
Mof_O 	O 	0.4097	0.6999	0.0283	-0.212
Mof_O 	O 	0.4891	0.6215	0.111	-0.226
Mof_O 	O 	0.0966	0.5497	0.9133	-0.268
Mof_O 	O 	0.1391	0.6405	0.8122	-0.284
Mof_C 	C 	0.0533	0.5992	0.8405	0.3
Mof_C 	C 	0.8983	0.6152	0.7803	-0.045
Mof_C 	C 	0.8061	0.5894	0.837	-0.011
Mof_H 	H 	0.8398	0.5607	0.9101	0.075
Mof_C 	C 	0.8483	0.6562	0.6681	-0.055
Mof_H 	H 	0.911	0.6732	0.6307	0.067
Mof_C 	C 	0.705	0.6713	0.6126	0.034
Mof_C 	C 	0.6131	0.6471	0.6715	-0.052
Mof_H 	H 	0.5172	0.6581	0.6354	0.075
Mof_C 	C 	0.6631	0.6066	0.7843	-0.04
Mof_C 	C 	0.6459	0.7137	0.4902	-0.004
Mof_C 	C 	0.578	0.6774	0.3728	-0.02
Mof_H 	H 	0.5788	0.6282	0.3732	0.062
Mof_C 	C 	0.5097	0.7125	0.256	-0.063
Mof_C 	C 	0.4382	0.6688	0.1369	0.489
Mof_C 	C 	0.561	0.5849	0.8489	0.318
Mof_Cd	Cd	0.33506	0.93974	0.93881	0.504
Mof_O 	O 	0.4432	0.884	0.8142	-0.256
Mof_O 	O 	0.595	0.9602	0.9341	-0.278
Mof_O 	O 	0.2981	0.8234	0.0817	-0.232
Mof_O 	O 	0.4442	0.8963	0.1454	-0.124
Mof_O 	O 	0.4097	0.8001	0.0283	-0.212
Mof_O 	O 	0.4891	0.8785	0.111	-0.225
Mof_O 	O 	0.0966	0.9503	0.9133	-0.268
Mof_O 	O 	0.1391	0.8595	0.8122	-0.284
Mof_C 	C 	0.0533	0.9008	0.8405	0.3
Mof_C 	C 	0.8983	0.8848	0.7803	-0.045
Mof_C 	C 	0.8061	0.9106	0.837	-0.011
Mof_H 	H 	0.8398	0.9393	0.9101	0.075
Mof_C 	C 	0.8483	0.8438	0.6681	-0.055
Mof_H 	H 	0.911	0.8268	0.6307	0.067
Mof_C 	C 	0.705	0.8287	0.6126	0.034
Mof_C 	C 	0.6131	0.8529	0.6715	-0.052
Mof_H 	H 	0.5172	0.8419	0.6354	0.075
Mof_C 	C 	0.6631	0.8934	0.7843	-0.04
Mof_C 	C 	0.6459	0.7863	0.4902	-0.004
Mof_C 	C 	0.578	0.8226	0.3728	-0.021
Mof_H 	H 	0.5788	0.8718	0.3732	0.062
Mof_C 	C 	0.5097	0.7875	0.256	-0.062
Mof_C 	C 	0.4382	0.8312	0.1369	0.489
Mof_C 	C 	0.561	0.9151	0.8489	0.318
Mof_Cd	Cd	0.66494	0.43974	0.06119	0.506
Mof_O 	O 	0.5568	0.384	0.1858	-0.256
Mof_O 	O 	0.405	0.4602	0.0659	-0.277
Mof_O 	O 	0.7019	0.3234	0.9183	-0.233
Mof_O 	O 	0.5558	0.3963	0.8546	-0.125
Mof_O 	O 	0.5903	0.3001	0.9717	-0.212
Mof_O 	O 	0.5109	0.3785	0.889	-0.226
Mof_O 	O 	0.9034	0.4503	0.0867	-0.268
Mof_O 	O 	0.8609	0.3595	0.1878	-0.284
Mof_C 	C 	0.9467	0.4008	0.1595	0.3
Mof_C 	C 	0.1017	0.3848	0.2197	-0.045
Mof_C 	C 	0.1939	0.4106	0.163	-0.011
Mof_H 	H 	0.1602	0.4393	0.0899	0.075
Mof_C 	C 	0.1517	0.3438	0.3319	-0.055
Mof_H 	H 	0.089	0.3268	0.3693	0.067
Mof_C 	C 	0.295	0.3287	0.3874	0.034
Mof_C 	C 	0.3869	0.3529	0.3285	-0.052
Mof_H 	H 	0.4828	0.3419	0.3646	0.075
Mof_C 	C 	0.3369	0.3934	0.2157	-0.04
Mof_C 	C 	0.3541	0.2863	0.5098	-0.004
Mof_C 	C 	0.422	0.3226	0.6272	-0.02
Mof_H 	H 	0.4212	0.3718	0.6268	0.062
Mof_C 	C 	0.4903	0.2875	0.744	-0.063
Mof_C 	C 	0.5618	0.3312	0.8631	0.489
Mof_C 	C 	0.439	0.4151	0.1511	0.318
Mof_Cd	Cd	0.79802	0.25	0.0991	0.493
Mof_Cd	Cd	0.20198	0.75	0.9009	0.493
_end
