data_functionalizedCrystal
_audit_creation_method	'EQeq! by Chris Wilmer'
_symmetry_space_group_name_H-M	'P1'
_symmetry_Int_Tables_number	1
_symmetry_cell_setting	triclinic
loop_
_symmetry_equiv_pos_as_xyz
  x,y,z
_cell_length_a	22.2737
_cell_length_b	29.146
_cell_length_c	13.8719
_cell_angle_alpha	90
_cell_angle_beta	108.451
_cell_angle_gamma	90
loop_
_atom_site_label
_atom_site_type_symbol
_atom_site_fract_x
_atom_site_fract_y
_atom_site_fract_z
_atom_site_charge
Mof_C 	C 	0.4307	0.22577	0.38894	0.096
Mof_H 	H 	0.4451	0.2555	0.386	-0.005
Mof_C 	C 	0.4185	0.19875	0.30347	-0.183
Mof_H 	H 	0.4253	0.2103	0.2453	0.091
Mof_C 	C 	0.39627	0.15456	0.3039	0.128
Mof_C 	C 	0.38715	0.14032	0.39305	-0.188
Mof_H 	H 	0.3714	0.1111	0.397	0.098
Mof_C 	C 	0.4011	0.16885	0.47604	0.104
Mof_H 	H 	0.395	0.1579	0.5352	-0.005
Mof_C 	C 	0.38593	0.12348	0.21565	-0.091
Mof_C 	C 	0.4257	0.12456	0.15595	0.043
Mof_H 	H 	0.4577	0.1465	0.1696	0.015
Mof_C 	C 	0.41919	0.09431	0.07754	-0.168
Mof_H 	H 	0.4476	0.0953	0.0408	0.094
Mof_C 	C 	0.3702	0.06196	0.05214	0.151
Mof_C 	C 	0.32852	0.06232	0.10849	-0.169
Mof_H 	H 	0.2943	0.0423	0.0915	0.096
Mof_C 	C 	0.33719	0.09178	0.18876	0.046
Mof_H 	H 	0.3094	0.0904	0.2265	0.013
Mof_C 	C 	0.4012	0.03236	0.90774	0.124
Mof_C 	C 	0.40623	0.07209	0.85576	-0.13
Mof_H 	H 	0.3829	0.0979	0.8611	0.084
Mof_C 	C 	0.44537	0.07387	0.79643	-0.013
Mof_H 	H 	0.4492	0.1013	0.7647	0.043
Mof_C 	C 	0.47919	0.03581	0.78279	-0.011
Mof_C 	C 	0.47088	0.99578	0.83199	-0.008
Mof_H 	H 	0.4912	0.9691	0.8223	0.038
Mof_C 	C 	0.43392	0.99439	0.89402	-0.129
Mof_H 	H 	0.4309	0.9672	0.9274	0.08
Mof_C 	C 	0.3258	0.9893	0.96958	0.14
Mof_C 	C 	0.33677	0.96037	0.05172	-0.16
Mof_H 	H 	0.3699	0.9663	0.1109	0.093
Mof_C 	C 	0.2986	0.92254	0.04631	0.022
Mof_H 	H 	0.3063	0.9032	0.1023	0.025
Mof_C 	C 	0.24943	0.91282	0.95994	-0.056
Mof_C 	C 	0.24148	0.9412	0.87691	0.023
Mof_H 	H 	0.2096	0.9347	0.8165	0.027
Mof_C 	C 	0.27922	0.97849	0.88156	-0.156
Mof_H 	H 	0.2732	0.9967	0.8243	0.09
Mof_C 	C 	0.20538	0.874	0.95527	0.033
Mof_C 	C 	0.13916	0.88407	0.9223	0.021
Mof_H 	H 	0.1246	0.9138	0.9052	0.034
Mof_C 	C 	0.0976	0.8484	0.91674	-0.105
Mof_H 	H 	0.0547	0.855	0.9003	0.086
Mof_N 	N 	0.1167	0.80323	0.93439	-0.113
Mof_C 	C 	0.17613	0.79721	0.96272	0.004
Mof_H 	H 	0.1906	0.7673	0.978	0.017
Mof_C 	C 	0.22124	0.83081	0.9729	-0.034
Mof_H 	H 	0.2638	0.8227	0.9928	0.042
Mof_C 	C 	0.41341	0.20771	0.77274	0.373
Mof_C 	C 	0.35873	0.20069	0.81221	-0.148
Mof_C 	C 	0.29734	0.20303	0.75159	0.065
Mof_H 	H 	0.2883	0.2076	0.6821	0.014
Mof_C 	C 	0.24837	0.19872	0.79182	-0.13
Mof_H 	H 	0.2069	0.2001	0.7483	0.073
Mof_C 	C 	0.25864	0.19246	0.89374	0.059
Mof_C 	C 	0.32002	0.1875	0.95212	-0.125
Mof_H 	H 	0.3291	0.1809	0.0209	0.075
Mof_C 	C 	0.36922	0.19197	0.91269	0.063
Mof_H 	H 	0.4106	0.189	0.9557	0.02
Mof_C 	C 	0.20671	0.1904	0.93952	0.049
Mof_C 	C 	0.14691	0.20408	0.88915	-0.115
Mof_H 	H 	0.1371	0.2142	0.8224	0.07
Mof_C 	C 	0.10012	0.20332	0.93507	0.05
Mof_H 	H 	0.0597	0.2134	0.8985	0.034
Mof_C 	C 	0.1112	0.18824	0.03224	-0.117
Mof_C 	C 	0.17044	0.17301	0.08119	0.05
Mof_H 	H 	0.1797	0.162	0.1472	0.026
Mof_C 	C 	0.21767	0.17325	0.03628	-0.116
Mof_H 	H 	0.2574	0.1617	0.0718	0.072
Mof_C 	C 	0.06273	0.18976	0.08527	0.343
Mof_Co	Co	0.4577	0.25075	0.61322	1.107
Mof_N 	N 	0.42299	0.2115	0.47603	-0.235
Mof_N 	N 	0.36373	0.03025	0.97395	-0.174
Mof_O 	O 	0.4672	0.20545	0.83569	-0.457
Mof_O 	O 	0.40006	0.2165	0.67864	-0.464
Mof_O 	O 	0.07464	0.17008	0.16958	-0.335
Mof_O 	O 	0.01244	0.21141	0.04295	-0.397
Mof_H 	H 	0.4718	0.2973	0.7767	0.824
Mof_C 	C 	0.2063	0.8734	0.952	0.038
Mof_C 	C 	0.1728	0.8647	0.0219	-0.178
Mof_H 	H 	0.1798	0.883	0.0794	0.095
Mof_C 	C 	0.1295	0.8289	0.0039	0.17
Mof_H 	H 	0.1078	0.8258	0.0508	-0.031
Mof_N 	N 	0.1162	0.80126	0.9359	-0.091
Mof_C 	C 	0.1611	0.8013	0.8773	-0.003
Mof_H 	H 	0.1611	0.777	0.8339	0.025
Mof_C 	C 	0.2036	0.8374	0.8867	-0.08
Mof_H 	H 	0.2308	0.8371	0.8478	0.059
Mof_H 	H 	0.5286	0.2742	0.7917	0.502
Mof_C 	C 	0.9307	0.72577	0.38894	0.09
Mof_H 	H 	0.9451	0.7555	0.386	-0.018
Mof_C 	C 	0.9185	0.69875	0.30347	-0.19
Mof_H 	H 	0.9253	0.7103	0.2453	0.085
Mof_C 	C 	0.89627	0.65456	0.3039	0.125
Mof_C 	C 	0.88715	0.64032	0.39305	-0.192
Mof_H 	H 	0.8714	0.6111	0.397	0.096
Mof_C 	C 	0.9011	0.66885	0.47604	0.098
Mof_H 	H 	0.895	0.6579	0.5352	-0.009
Mof_C 	C 	0.88593	0.62348	0.21565	-0.096
Mof_C 	C 	0.9257	0.62456	0.15595	0.043
Mof_H 	H 	0.9577	0.6465	0.1696	-0.001
Mof_C 	C 	0.91919	0.59431	0.07754	-0.176
Mof_H 	H 	0.9476	0.5953	0.0408	0.083
Mof_C 	C 	0.8702	0.56196	0.05214	0.147
Mof_C 	C 	0.82852	0.56232	0.10849	-0.171
Mof_H 	H 	0.7943	0.5423	0.0915	0.094
Mof_C 	C 	0.83719	0.59178	0.18876	0.046
Mof_H 	H 	0.8094	0.5904	0.2265	0.013
Mof_C 	C 	0.9012	0.53236	0.90774	0.161
Mof_C 	C 	0.90623	0.57209	0.85576	-0.191
Mof_H 	H 	0.8829	0.5979	0.8611	0.103
Mof_C 	C 	0.94537	0.57387	0.79643	0.065
Mof_H 	H 	0.9492	0.6013	0.7647	0.003
Mof_C 	C 	0.97919	0.53581	0.78279	-0.137
Mof_C 	C 	0.97088	0.49578	0.83199	0.068
Mof_H 	H 	0.9912	0.4691	0.8223	-0.011
Mof_C 	C 	0.93392	0.49439	0.89402	-0.194
Mof_H 	H 	0.9309	0.4672	0.9274	0.093
Mof_C 	C 	0.8258	0.4893	0.96958	0.142
Mof_C 	C 	0.83677	0.46037	0.05172	-0.164
Mof_H 	H 	0.8699	0.4663	0.1109	0.089
Mof_C 	C 	0.7986	0.42254	0.04631	0.02
Mof_H 	H 	0.8063	0.4032	0.1023	0.024
Mof_C 	C 	0.74943	0.41282	0.95994	-0.056
Mof_C 	C 	0.74148	0.4412	0.87691	0.023
Mof_H 	H 	0.7096	0.4347	0.8165	0.025
Mof_C 	C 	0.77922	0.47849	0.88156	-0.158
Mof_H 	H 	0.7732	0.4967	0.8243	0.089
Mof_C 	C 	0.70538	0.374	0.95527	0.032
Mof_C 	C 	0.63916	0.38407	0.9223	0.028
Mof_H 	H 	0.6246	0.4138	0.9052	0.026
Mof_C 	C 	0.5976	0.3484	0.91674	-0.114
Mof_H 	H 	0.5547	0.355	0.9003	0.074
Mof_N 	N 	0.6167	0.30323	0.93439	-0.116
Mof_C 	C 	0.67613	0.29721	0.96272	0.003
Mof_H 	H 	0.6906	0.2673	0.978	0.018
Mof_C 	C 	0.72124	0.33081	0.9729	-0.027
Mof_H 	H 	0.7638	0.3227	0.9928	0.041
Mof_C 	C 	0.91341	0.70771	0.77274	0.384
Mof_C 	C 	0.85873	0.70069	0.81221	-0.152
Mof_C 	C 	0.79734	0.70303	0.75159	0.066
Mof_H 	H 	0.7883	0.7076	0.6821	0.014
Mof_C 	C 	0.74837	0.69872	0.79182	-0.127
Mof_H 	H 	0.7069	0.7001	0.7483	0.071
Mof_C 	C 	0.75864	0.69246	0.89374	0.052
Mof_C 	C 	0.82002	0.6875	0.95212	-0.12
Mof_H 	H 	0.8291	0.6809	0.0209	0.071
Mof_C 	C 	0.86922	0.69197	0.91269	0.064
Mof_H 	H 	0.9106	0.689	0.9557	0.015
Mof_C 	C 	0.70671	0.6904	0.93952	0.062
Mof_C 	C 	0.64691	0.70408	0.88915	-0.133
Mof_H 	H 	0.6371	0.7142	0.8224	0.073
Mof_C 	C 	0.60012	0.70332	0.93507	0.067
Mof_H 	H 	0.5597	0.7134	0.8985	0.017
Mof_C 	C 	0.6112	0.68824	0.03224	-0.138
Mof_C 	C 	0.67044	0.67301	0.08119	0.065
Mof_H 	H 	0.6797	0.662	0.1472	0.02
Mof_C 	C 	0.71767	0.67325	0.03628	-0.132
Mof_H 	H 	0.7574	0.6617	0.0718	0.077
Mof_C 	C 	0.56273	0.68976	0.08527	0.352
Mof_Co	Co	0.9577	0.75075	0.61322	1.113
Mof_N 	N 	0.92299	0.7115	0.47603	-0.242
Mof_N 	N 	0.86373	0.53025	0.97395	-0.181
Mof_O 	O 	0.9672	0.70545	0.83569	-0.475
Mof_O 	O 	0.90006	0.7165	0.67864	-0.46
Mof_O 	O 	0.57464	0.67008	0.16958	-0.37
Mof_O 	O 	0.51244	0.71141	0.04295	-0.435
Mof_H 	H 	0.9718	0.7973	0.7767	0.599
Mof_C 	C 	0.7063	0.3734	0.952	0.038
Mof_C 	C 	0.6728	0.3647	0.0219	-0.188
Mof_H 	H 	0.6798	0.383	0.0794	0.095
Mof_C 	C 	0.6295	0.3289	0.0039	0.179
Mof_H 	H 	0.6078	0.3258	0.0508	-0.041
Mof_N 	N 	0.6162	0.30126	0.9359	-0.094
Mof_C 	C 	0.6611	0.3013	0.8773	-0.006
Mof_H 	H 	0.6611	0.277	0.8339	0.022
Mof_C 	C 	0.7036	0.3374	0.8867	-0.084
Mof_H 	H 	0.7308	0.3371	0.8478	0.061
Mof_H 	H 	0.0286	0.7742	0.7917	0.329
Mof_C 	C 	0.5693	0.22577	0.11106	0.094
Mof_H 	H 	0.5549	0.2555	0.114	-0.005
Mof_C 	C 	0.5815	0.19875	0.19653	-0.182
Mof_H 	H 	0.5747	0.2103	0.2547	0.09
Mof_C 	C 	0.60373	0.15456	0.1961	0.126
Mof_C 	C 	0.61285	0.14032	0.10695	-0.184
Mof_H 	H 	0.6286	0.1111	0.103	0.096
Mof_C 	C 	0.5989	0.16885	0.02396	0.098
Mof_H 	H 	0.605	0.1579	0.9648	-0.001
Mof_C 	C 	0.61407	0.12348	0.28435	-0.09
Mof_C 	C 	0.5743	0.12456	0.34405	0.043
Mof_H 	H 	0.5423	0.1465	0.3304	0.015
Mof_C 	C 	0.58081	0.09431	0.42246	-0.168
Mof_H 	H 	0.5524	0.0953	0.4592	0.094
Mof_C 	C 	0.6298	0.06196	0.44786	0.151
Mof_C 	C 	0.67148	0.06232	0.39151	-0.169
Mof_H 	H 	0.7057	0.0423	0.4085	0.093
Mof_C 	C 	0.66281	0.09178	0.31124	0.044
Mof_H 	H 	0.6906	0.0904	0.2735	0.013
Mof_C 	C 	0.5988	0.03236	0.59226	0.123
Mof_C 	C 	0.59377	0.07209	0.64424	-0.13
Mof_H 	H 	0.6171	0.0979	0.6389	0.083
Mof_C 	C 	0.55463	0.07387	0.70357	-0.013
Mof_H 	H 	0.5508	0.1013	0.7353	0.044
Mof_C 	C 	0.52081	0.03581	0.71721	-0.011
Mof_C 	C 	0.52912	0.99578	0.66801	-0.009
Mof_H 	H 	0.5088	0.9691	0.6777	0.038
Mof_C 	C 	0.56608	0.99439	0.60598	-0.128
Mof_H 	H 	0.5691	0.9672	0.5726	0.08
Mof_C 	C 	0.6742	0.9893	0.53042	0.139
Mof_C 	C 	0.66323	0.96037	0.44828	-0.161
Mof_H 	H 	0.6301	0.9663	0.3891	0.093
Mof_C 	C 	0.7014	0.92254	0.45369	0.024
Mof_H 	H 	0.6937	0.9032	0.3977	0.024
Mof_C 	C 	0.75057	0.91282	0.54006	-0.061
Mof_C 	C 	0.75852	0.9412	0.62309	0.024
Mof_H 	H 	0.7904	0.9347	0.6835	0.021
Mof_C 	C 	0.72078	0.97849	0.61844	-0.16
Mof_H 	H 	0.7268	0.9967	0.6757	0.088
Mof_C 	C 	0.79462	0.874	0.54473	0.033
Mof_C 	C 	0.86084	0.88407	0.5777	0.015
Mof_H 	H 	0.8754	0.9138	0.5948	0.023
Mof_C 	C 	0.9024	0.8484	0.58326	-0.103
Mof_H 	H 	0.9453	0.855	0.5997	0.055
Mof_N 	N 	0.8833	0.80323	0.56561	-0.115
Mof_C 	C 	0.82387	0.79721	0.53728	0.003
Mof_H 	H 	0.8094	0.7673	0.522	0.018
Mof_C 	C 	0.77876	0.83081	0.5271	-0.032
Mof_H 	H 	0.7362	0.8227	0.5072	0.041
Mof_C 	C 	0.58659	0.20771	0.72726	0.373
Mof_C 	C 	0.64127	0.20069	0.68779	-0.146
Mof_C 	C 	0.70266	0.20303	0.74841	0.061
Mof_H 	H 	0.7117	0.2076	0.8179	0.016
Mof_C 	C 	0.75163	0.19872	0.70818	-0.125
Mof_H 	H 	0.7931	0.2001	0.7517	0.069
Mof_C 	C 	0.74136	0.19246	0.60626	0.051
Mof_C 	C 	0.67998	0.1875	0.54788	-0.123
Mof_H 	H 	0.6709	0.1809	0.4791	0.074
Mof_C 	C 	0.63078	0.19197	0.58731	0.061
Mof_H 	H 	0.5894	0.189	0.5443	0.02
Mof_C 	C 	0.79329	0.1904	0.56048	0.059
Mof_C 	C 	0.85309	0.20408	0.61085	-0.136
Mof_H 	H 	0.8629	0.2142	0.6776	0.071
Mof_C 	C 	0.89988	0.20332	0.56493	0.067
Mof_H 	H 	0.9403	0.2134	0.6015	0.005
Mof_C 	C 	0.8888	0.18824	0.46776	-0.144
Mof_C 	C 	0.82956	0.17301	0.41881	0.066
Mof_H 	H 	0.8203	0.162	0.3528	0.019
Mof_C 	C 	0.78233	0.17325	0.46372	-0.13
Mof_H 	H 	0.7426	0.1617	0.4282	0.076
Mof_C 	C 	0.93727	0.18976	0.41473	0.356
Mof_Co	Co	0.5423	0.25075	0.88678	1.107
Mof_N 	N 	0.57701	0.2115	0.02397	-0.235
Mof_N 	N 	0.63627	0.03025	0.52605	-0.175
Mof_O 	O 	0.5328	0.20545	0.66431	-0.457
Mof_O 	O 	0.59994	0.2165	0.82136	-0.463
Mof_O 	O 	0.92536	0.17008	0.33042	-0.357
Mof_O 	O 	0.98756	0.21141	0.45705	-0.458
Mof_H 	H 	0.5282	0.2973	0.7233	0.824
Mof_C 	C 	0.7937	0.8734	0.548	0.039
Mof_C 	C 	0.8272	0.8647	0.4781	-0.179
Mof_H 	H 	0.8202	0.883	0.4206	0.09
Mof_C 	C 	0.8705	0.8289	0.4961	0.173
Mof_H 	H 	0.8922	0.8258	0.4492	-0.046
Mof_N 	N 	0.8838	0.80126	0.5641	-0.093
Mof_C 	C 	0.8389	0.8013	0.6227	-0.001
Mof_H 	H 	0.8389	0.777	0.6661	0.026
Mof_C 	C 	0.7964	0.8374	0.6133	-0.083
Mof_H 	H 	0.7692	0.8371	0.6522	0.06
Mof_H 	H 	0.4714	0.2742	0.7083	0.502
Mof_C 	C 	0.0693	0.72577	0.11106	0.101
Mof_H 	H 	0.0549	0.7555	0.114	0.007
Mof_C 	C 	0.0815	0.69875	0.19653	-0.177
Mof_H 	H 	0.0747	0.7103	0.2547	0.096
Mof_C 	C 	0.10373	0.65456	0.1961	0.13
Mof_C 	C 	0.11285	0.64032	0.10695	-0.182
Mof_H 	H 	0.1286	0.6111	0.103	0.099
Mof_C 	C 	0.0989	0.66885	0.02396	0.107
Mof_H 	H 	0.105	0.6579	0.9648	-0
Mof_C 	C 	0.11407	0.62348	0.28435	-0.084
Mof_C 	C 	0.0743	0.62456	0.34405	0.043
Mof_H 	H 	0.0423	0.6465	0.3304	0.03
Mof_C 	C 	0.08081	0.59431	0.42246	-0.16
Mof_H 	H 	0.0524	0.5953	0.4592	0.104
Mof_C 	C 	0.1298	0.56196	0.44786	0.153
Mof_C 	C 	0.17148	0.56232	0.39151	-0.167
Mof_H 	H 	0.2057	0.5423	0.4085	0.094
Mof_C 	C 	0.16281	0.59178	0.31124	0.044
Mof_H 	H 	0.1906	0.5904	0.2735	0.014
Mof_C 	C 	0.0988	0.53236	0.59226	0.087
Mof_C 	C 	0.09377	0.57209	0.64424	-0.069
Mof_H 	H 	0.1171	0.5979	0.6389	0.064
Mof_C 	C 	0.05463	0.57387	0.70357	-0.09
Mof_H 	H 	0.0508	0.6013	0.7353	0.083
Mof_C 	C 	0.02081	0.53581	0.71721	0.114
Mof_C 	C 	0.02912	0.49578	0.66801	-0.085
Mof_H 	H 	0.0088	0.4691	0.6777	0.087
Mof_C 	C 	0.06608	0.49439	0.60598	-0.063
Mof_H 	H 	0.0691	0.4672	0.5726	0.066
Mof_C 	C 	0.1742	0.4893	0.53042	0.141
Mof_C 	C 	0.16323	0.46037	0.44828	-0.159
Mof_H 	H 	0.1301	0.4663	0.3891	0.097
Mof_C 	C 	0.2014	0.42254	0.45369	0.025
Mof_H 	H 	0.1937	0.4032	0.3977	0.025
Mof_C 	C 	0.25057	0.41282	0.54006	-0.059
Mof_C 	C 	0.25852	0.4412	0.62309	0.024
Mof_H 	H 	0.2904	0.4347	0.6835	0.024
Mof_C 	C 	0.22078	0.47849	0.61844	-0.158
Mof_H 	H 	0.2268	0.4967	0.6757	0.089
Mof_C 	C 	0.29462	0.374	0.54473	0.032
Mof_C 	C 	0.36084	0.38407	0.5777	0.026
Mof_H 	H 	0.3754	0.4138	0.5948	0.026
Mof_C 	C 	0.4024	0.3484	0.58326	-0.117
Mof_H 	H 	0.4453	0.355	0.5997	0.075
Mof_N 	N 	0.3833	0.30323	0.56561	-0.116
Mof_C 	C 	0.32387	0.29721	0.53728	0.003
Mof_H 	H 	0.3094	0.2673	0.522	0.017
Mof_C 	C 	0.27876	0.33081	0.5271	-0.031
Mof_H 	H 	0.2362	0.3227	0.5072	0.041
Mof_C 	C 	0.08659	0.70771	0.72726	0.372
Mof_C 	C 	0.14127	0.70069	0.68779	-0.141
Mof_C 	C 	0.20266	0.70303	0.74841	0.06
Mof_H 	H 	0.2117	0.7076	0.8179	0.016
Mof_C 	C 	0.25163	0.69872	0.70818	-0.125
Mof_H 	H 	0.2931	0.7001	0.7517	0.07
Mof_C 	C 	0.24136	0.69246	0.60626	0.053
Mof_C 	C 	0.17998	0.6875	0.54788	-0.122
Mof_H 	H 	0.1709	0.6809	0.4791	0.075
Mof_C 	C 	0.13078	0.69197	0.58731	0.058
Mof_H 	H 	0.0894	0.689	0.5443	0.027
Mof_C 	C 	0.29329	0.6904	0.56048	0.053
Mof_C 	C 	0.35309	0.70408	0.61085	-0.124
Mof_H 	H 	0.3629	0.7142	0.6776	0.07
Mof_C 	C 	0.39988	0.70332	0.56493	0.057
Mof_H 	H 	0.4403	0.7134	0.6015	0.02
Mof_C 	C 	0.3888	0.68824	0.46776	-0.129
Mof_C 	C 	0.32956	0.67301	0.41881	0.056
Mof_H 	H 	0.3203	0.662	0.3528	0.023
Mof_C 	C 	0.28233	0.67325	0.46372	-0.121
Mof_H 	H 	0.2426	0.6617	0.4282	0.073
Mof_C 	C 	0.43727	0.68976	0.41473	0.349
Mof_Co	Co	0.0423	0.75075	0.88678	1.145
Mof_N 	N 	0.07701	0.7115	0.02397	-0.229
Mof_N 	N 	0.13627	0.53025	0.52605	-0.168
Mof_O 	O 	0.0328	0.70545	0.66431	-0.425
Mof_O 	O 	0.09994	0.7165	0.82136	-0.448
Mof_O 	O 	0.42536	0.67008	0.33042	-0.369
Mof_O 	O 	0.48756	0.71141	0.45705	-0.434
Mof_H 	H 	0.0282	0.7973	0.7233	0.632
Mof_C 	C 	0.2937	0.3734	0.548	0.038
Mof_C 	C 	0.3272	0.3647	0.4781	-0.185
Mof_H 	H 	0.3202	0.383	0.4206	0.095
Mof_C 	C 	0.3705	0.3289	0.4961	0.183
Mof_H 	H 	0.3922	0.3258	0.4492	-0.042
Mof_N 	N 	0.3838	0.30126	0.5641	-0.094
Mof_C 	C 	0.3389	0.3013	0.6227	-0.007
Mof_H 	H 	0.3389	0.277	0.6661	0.023
Mof_C 	C 	0.2964	0.3374	0.6133	-0.08
Mof_H 	H 	0.2692	0.3371	0.6522	0.059
Mof_H 	H 	0.9714	0.7742	0.7083	0.293
Mof_C 	C 	0.5693	0.77423	0.61106	0.096
Mof_H 	H 	0.5549	0.7445	0.614	-0.005
Mof_C 	C 	0.5815	0.80125	0.69653	-0.184
Mof_H 	H 	0.5747	0.7897	0.7547	0.091
Mof_C 	C 	0.60373	0.84544	0.6961	0.128
Mof_C 	C 	0.61285	0.85968	0.60695	-0.188
Mof_H 	H 	0.6286	0.8889	0.603	0.098
Mof_C 	C 	0.5989	0.83115	0.52396	0.104
Mof_H 	H 	0.605	0.8421	0.4648	-0.005
Mof_C 	C 	0.61407	0.87652	0.78435	-0.092
Mof_C 	C 	0.5743	0.87544	0.84405	0.045
Mof_H 	H 	0.5423	0.8535	0.8304	0.014
Mof_C 	C 	0.58081	0.90569	0.92246	-0.17
Mof_H 	H 	0.5524	0.9047	0.9592	0.096
Mof_C 	C 	0.6298	0.93804	0.94786	0.154
Mof_C 	C 	0.67148	0.93768	0.89151	-0.171
Mof_H 	H 	0.7057	0.9577	0.9085	0.094
Mof_C 	C 	0.66281	0.90822	0.81124	0.046
Mof_H 	H 	0.6906	0.9096	0.7735	0.012
Mof_C 	C 	0.5988	0.96764	0.09226	0.123
Mof_C 	C 	0.59377	0.92791	0.14424	-0.13
Mof_H 	H 	0.6171	0.9021	0.1389	0.083
Mof_C 	C 	0.55463	0.92613	0.20357	-0.013
Mof_H 	H 	0.5508	0.8987	0.2353	0.043
Mof_C 	C 	0.52081	0.96419	0.21721	-0.011
Mof_C 	C 	0.52912	0.00422	0.16801	-0.009
Mof_H 	H 	0.5088	0.0309	0.1777	0.038
Mof_C 	C 	0.56608	0.00561	0.10598	-0.128
Mof_H 	H 	0.5691	0.0328	0.0726	0.079
Mof_C 	C 	0.6742	0.0107	0.03042	0.137
Mof_C 	C 	0.66323	0.03963	0.94828	-0.159
Mof_H 	H 	0.6301	0.0337	0.8891	0.093
Mof_C 	C 	0.7014	0.07746	0.95369	0.027
Mof_H 	H 	0.6937	0.0968	0.8977	0.023
Mof_C 	C 	0.75057	0.08718	0.04006	-0.064
Mof_C 	C 	0.75852	0.0588	0.12309	0.025
Mof_H 	H 	0.7904	0.0653	0.1835	0.021
Mof_C 	C 	0.72078	0.02151	0.11844	-0.159
Mof_H 	H 	0.7268	0.0033	0.1757	0.088
Mof_C 	C 	0.79462	0.126	0.04473	0.033
Mof_C 	C 	0.86084	0.11593	0.0777	0.013
Mof_H 	H 	0.8754	0.0862	0.0948	0.024
Mof_C 	C 	0.9024	0.1516	0.08326	-0.106
Mof_H 	H 	0.9453	0.145	0.0997	0.056
Mof_N 	N 	0.8833	0.19677	0.06561	-0.116
Mof_C 	C 	0.82387	0.20279	0.03728	0.005
Mof_H 	H 	0.8094	0.2327	0.022	0.016
Mof_C 	C 	0.77876	0.16919	0.0271	-0.04
Mof_H 	H 	0.7362	0.1773	0.0072	0.043
Mof_C 	C 	0.58659	0.79229	0.22726	0.375
Mof_C 	C 	0.64127	0.79931	0.18779	-0.154
Mof_C 	C 	0.70266	0.79697	0.24841	0.071
Mof_H 	H 	0.7117	0.7924	0.3179	0.012
Mof_C 	C 	0.75163	0.80128	0.20818	-0.136
Mof_H 	H 	0.7931	0.7999	0.2517	0.073
Mof_C 	C 	0.74136	0.80754	0.10626	0.065
Mof_C 	C 	0.67998	0.8125	0.04788	-0.14
Mof_H 	H 	0.6709	0.8191	0.9791	0.082
Mof_C 	C 	0.63078	0.80803	0.08731	0.072
Mof_H 	H 	0.5894	0.811	0.0443	0.016
Mof_C 	C 	0.79329	0.8096	0.06048	0.041
Mof_C 	C 	0.85309	0.79592	0.11085	-0.12
Mof_H 	H 	0.8629	0.7858	0.1776	0.065
Mof_C 	C 	0.89988	0.79668	0.06493	0.049
Mof_H 	H 	0.9403	0.7866	0.1015	0.01
Mof_C 	C 	0.8888	0.81176	0.96776	-0.128
Mof_C 	C 	0.82956	0.82699	0.91881	0.05
Mof_H 	H 	0.8203	0.838	0.8528	0.024
Mof_C 	C 	0.78233	0.82675	0.96372	-0.112
Mof_H 	H 	0.7426	0.8383	0.9282	0.07
Mof_C 	C 	0.93727	0.81024	0.91473	0.35
Mof_Co	Co	0.5423	0.74925	0.38678	1.107
Mof_N 	N 	0.57701	0.7885	0.52397	-0.235
Mof_N 	N 	0.63627	0.96975	0.02605	-0.176
Mof_O 	O 	0.5328	0.79455	0.16431	-0.458
Mof_O 	O 	0.59994	0.7835	0.32136	-0.464
Mof_O 	O 	0.92536	0.82992	0.83042	-0.356
Mof_O 	O 	0.98756	0.78859	0.95705	-0.455
Mof_H 	H 	0.5282	0.7027	0.2233	0.824
Mof_C 	C 	0.7937	0.1266	0.048	0.038
Mof_C 	C 	0.8272	0.1353	0.9781	-0.174
Mof_H 	H 	0.8202	0.117	0.9206	0.089
Mof_C 	C 	0.8705	0.1711	0.9961	0.178
Mof_H 	H 	0.8922	0.1742	0.9492	-0.046
Mof_N 	N 	0.8838	0.19874	0.0641	-0.094
Mof_C 	C 	0.8389	0.1987	0.1227	-0.004
Mof_H 	H 	0.8389	0.223	0.1661	0.027
Mof_C 	C 	0.7964	0.1626	0.1133	-0.076
Mof_H 	H 	0.7692	0.1629	0.1522	0.058
Mof_H 	H 	0.4714	0.7258	0.2083	0.502
Mof_C 	C 	0.0693	0.27423	0.61106	0.101
Mof_H 	H 	0.0549	0.2445	0.614	0.008
Mof_C 	C 	0.0815	0.30125	0.69653	-0.177
Mof_H 	H 	0.0747	0.2897	0.7547	0.096
Mof_C 	C 	0.10373	0.34544	0.6961	0.131
Mof_C 	C 	0.11285	0.35968	0.60695	-0.183
Mof_H 	H 	0.1286	0.3889	0.603	0.1
Mof_C 	C 	0.0989	0.33115	0.52396	0.11
Mof_H 	H 	0.105	0.3421	0.4648	-0.002
Mof_C 	C 	0.11407	0.37652	0.78435	-0.085
Mof_C 	C 	0.0743	0.37544	0.84405	0.044
Mof_H 	H 	0.0423	0.3535	0.8304	0.029
Mof_C 	C 	0.08081	0.40569	0.92246	-0.161
Mof_H 	H 	0.0524	0.4047	0.9592	0.104
Mof_C 	C 	0.1298	0.43804	0.94786	0.154
Mof_C 	C 	0.17148	0.43768	0.89151	-0.168
Mof_H 	H 	0.2057	0.4577	0.9085	0.094
Mof_C 	C 	0.16281	0.40822	0.81124	0.044
Mof_H 	H 	0.1906	0.4096	0.7735	0.013
Mof_C 	C 	0.0988	0.46764	0.09226	0.085
Mof_C 	C 	0.09377	0.42791	0.14424	-0.067
Mof_H 	H 	0.1171	0.4021	0.1389	0.063
Mof_C 	C 	0.05463	0.42613	0.20357	-0.093
Mof_H 	H 	0.0508	0.3987	0.2353	0.084
Mof_C 	C 	0.02081	0.46419	0.21721	0.118
Mof_C 	C 	0.02912	0.50422	0.16801	-0.088
Mof_H 	H 	0.0088	0.5309	0.1777	0.088
Mof_C 	C 	0.06608	0.50561	0.10598	-0.061
Mof_H 	H 	0.0691	0.5328	0.0726	0.065
Mof_C 	C 	0.1742	0.5107	0.03042	0.139
Mof_C 	C 	0.16323	0.53963	0.94828	-0.158
Mof_H 	H 	0.1301	0.5337	0.8891	0.097
Mof_C 	C 	0.2014	0.57746	0.95369	0.025
Mof_H 	H 	0.1937	0.5968	0.8977	0.025
Mof_C 	C 	0.25057	0.58718	0.04006	-0.06
Mof_C 	C 	0.25852	0.5588	0.12309	0.024
Mof_H 	H 	0.2904	0.5653	0.1835	0.024
Mof_C 	C 	0.22078	0.52151	0.11844	-0.158
Mof_H 	H 	0.2268	0.5033	0.1757	0.089
Mof_C 	C 	0.29462	0.626	0.04473	0.032
Mof_C 	C 	0.36084	0.61593	0.0777	0.026
Mof_H 	H 	0.3754	0.5862	0.0948	0.026
Mof_C 	C 	0.4024	0.6516	0.08326	-0.119
Mof_H 	H 	0.4453	0.645	0.0997	0.075
Mof_N 	N 	0.3833	0.69677	0.06561	-0.117
Mof_C 	C 	0.32387	0.70279	0.03728	0.004
Mof_H 	H 	0.3094	0.7327	0.022	0.017
Mof_C 	C 	0.27876	0.66919	0.0271	-0.034
Mof_H 	H 	0.2362	0.6773	0.0072	0.041
Mof_C 	C 	0.08659	0.29229	0.22726	0.374
Mof_C 	C 	0.14127	0.29931	0.18779	-0.145
Mof_C 	C 	0.20266	0.29697	0.24841	0.065
Mof_H 	H 	0.2117	0.2924	0.3179	0.014
Mof_C 	C 	0.25163	0.30128	0.20818	-0.131
Mof_H 	H 	0.2931	0.2999	0.2517	0.072
Mof_C 	C 	0.24136	0.30754	0.10626	0.06
Mof_C 	C 	0.17998	0.3125	0.04788	-0.13
Mof_H 	H 	0.1709	0.3191	0.9791	0.078
Mof_C 	C 	0.13078	0.30803	0.08731	0.063
Mof_H 	H 	0.0894	0.311	0.0443	0.024
Mof_C 	C 	0.29329	0.3096	0.06048	0.044
Mof_C 	C 	0.35309	0.29592	0.11085	-0.117
Mof_H 	H 	0.3629	0.2858	0.1776	0.067
Mof_C 	C 	0.39988	0.29668	0.06493	0.048
Mof_H 	H 	0.4403	0.2866	0.1015	0.023
Mof_C 	C 	0.3888	0.31176	0.96776	-0.122
Mof_C 	C 	0.32956	0.32699	0.91881	0.049
Mof_H 	H 	0.3203	0.338	0.8528	0.025
Mof_C 	C 	0.28233	0.32675	0.96372	-0.113
Mof_H 	H 	0.2426	0.3383	0.9282	0.07
Mof_C 	C 	0.43727	0.31024	0.91473	0.346
Mof_Co	Co	0.0423	0.24925	0.38678	1.146
Mof_N 	N 	0.07701	0.2885	0.52397	-0.229
Mof_N 	N 	0.13627	0.46975	0.02605	-0.168
Mof_O 	O 	0.0328	0.29455	0.16431	-0.425
Mof_O 	O 	0.09994	0.2835	0.32136	-0.448
Mof_O 	O 	0.42536	0.32992	0.83042	-0.368
Mof_O 	O 	0.48756	0.28859	0.95705	-0.432
Mof_H 	H 	0.0282	0.2027	0.2233	0.626
Mof_C 	C 	0.2937	0.6266	0.048	0.038
Mof_C 	C 	0.3272	0.6353	0.9781	-0.183
Mof_H 	H 	0.3202	0.617	0.9206	0.095
Mof_C 	C 	0.3705	0.6711	0.9961	0.186
Mof_H 	H 	0.3922	0.6742	0.9492	-0.042
Mof_N 	N 	0.3838	0.69874	0.0641	-0.094
Mof_C 	C 	0.3389	0.6987	0.1227	-0.008
Mof_H 	H 	0.3389	0.723	0.1661	0.023
Mof_C 	C 	0.2964	0.6626	0.1133	-0.078
Mof_H 	H 	0.2692	0.6629	0.1522	0.058
Mof_H 	H 	0.9714	0.2258	0.2083	0.286
Mof_C 	C 	0.4307	0.77423	0.88894	0.096
Mof_H 	H 	0.4451	0.7445	0.886	-0.004
Mof_C 	C 	0.4185	0.80125	0.80347	-0.184
Mof_H 	H 	0.4253	0.7897	0.7453	0.091
Mof_C 	C 	0.39627	0.84544	0.8039	0.129
Mof_C 	C 	0.38715	0.85968	0.89305	-0.19
Mof_H 	H 	0.3714	0.8889	0.897	0.099
Mof_C 	C 	0.4011	0.83115	0.97604	0.107
Mof_H 	H 	0.395	0.8421	0.0352	-0.007
Mof_C 	C 	0.38593	0.87652	0.71565	-0.092
Mof_C 	C 	0.4257	0.87544	0.65595	0.045
Mof_H 	H 	0.4577	0.8535	0.6696	0.014
Mof_C 	C 	0.41919	0.90569	0.57754	-0.17
Mof_H 	H 	0.4476	0.9047	0.5408	0.095
Mof_C 	C 	0.3702	0.93804	0.55214	0.153
Mof_C 	C 	0.32852	0.93768	0.60849	-0.171
Mof_H 	H 	0.2943	0.9577	0.5915	0.096
Mof_C 	C 	0.33719	0.90822	0.68876	0.047
Mof_H 	H 	0.3094	0.9096	0.7265	0.013
Mof_C 	C 	0.4012	0.96764	0.40774	0.124
Mof_C 	C 	0.40623	0.92791	0.35576	-0.13
Mof_H 	H 	0.3829	0.9021	0.3611	0.084
Mof_C 	C 	0.44537	0.92613	0.29643	-0.013
Mof_H 	H 	0.4492	0.8987	0.2647	0.043
Mof_C 	C 	0.47919	0.96419	0.28279	-0.012
Mof_C 	C 	0.47088	0.00422	0.33199	-0.009
Mof_H 	H 	0.4912	0.0309	0.3223	0.038
Mof_C 	C 	0.43392	0.00561	0.39402	-0.128
Mof_H 	H 	0.4309	0.0328	0.4274	0.08
Mof_C 	C 	0.3258	0.0107	0.46958	0.139
Mof_C 	C 	0.33677	0.03963	0.55172	-0.159
Mof_H 	H 	0.3699	0.0337	0.6109	0.093
Mof_C 	C 	0.2986	0.07746	0.54631	0.023
Mof_H 	H 	0.3063	0.0968	0.6023	0.025
Mof_C 	C 	0.24943	0.08718	0.45994	-0.057
Mof_C 	C 	0.24148	0.0588	0.37691	0.023
Mof_H 	H 	0.2096	0.0653	0.3165	0.027
Mof_C 	C 	0.27922	0.02151	0.38156	-0.156
Mof_H 	H 	0.2732	0.0033	0.3243	0.09
Mof_C 	C 	0.20538	0.126	0.45527	0.033
Mof_C 	C 	0.13916	0.11593	0.4223	0.02
Mof_H 	H 	0.1246	0.0862	0.4052	0.035
Mof_C 	C 	0.0976	0.1516	0.41674	-0.105
Mof_H 	H 	0.0547	0.145	0.4003	0.087
Mof_N 	N 	0.1167	0.19677	0.43439	-0.113
Mof_C 	C 	0.17613	0.20279	0.46272	0.004
Mof_H 	H 	0.1906	0.2327	0.478	0.017
Mof_C 	C 	0.22124	0.16919	0.4729	-0.035
Mof_H 	H 	0.2638	0.1773	0.4928	0.042
Mof_C 	C 	0.41341	0.79229	0.27274	0.375
Mof_C 	C 	0.35873	0.79931	0.31221	-0.152
Mof_C 	C 	0.29734	0.79697	0.25159	0.07
Mof_H 	H 	0.2883	0.7924	0.1821	0.012
Mof_C 	C 	0.24837	0.80128	0.29182	-0.136
Mof_H 	H 	0.2069	0.7999	0.2483	0.075
Mof_C 	C 	0.25864	0.80754	0.39374	0.065
Mof_C 	C 	0.32002	0.8125	0.45212	-0.134
Mof_H 	H 	0.3291	0.8191	0.5209	0.079
Mof_C 	C 	0.36922	0.80803	0.41269	0.069
Mof_H 	H 	0.4106	0.811	0.4557	0.017
Mof_C 	C 	0.20671	0.8096	0.43952	0.041
Mof_C 	C 	0.14691	0.79592	0.38915	-0.108
Mof_H 	H 	0.1371	0.7858	0.3224	0.067
Mof_C 	C 	0.10012	0.79668	0.43507	0.042
Mof_H 	H 	0.0597	0.7866	0.3985	0.036
Mof_C 	C 	0.1112	0.81176	0.53224	-0.111
Mof_C 	C 	0.17044	0.82699	0.58119	0.044
Mof_H 	H 	0.1797	0.838	0.6472	0.029
Mof_C 	C 	0.21767	0.82675	0.53628	-0.108
Mof_H 	H 	0.2574	0.8383	0.5718	0.069
Mof_C 	C 	0.06273	0.81024	0.58527	0.34
Mof_Co	Co	0.4577	0.74925	0.11322	1.107
Mof_N 	N 	0.42299	0.7885	0.97603	-0.235
Mof_N 	N 	0.36373	0.96975	0.47395	-0.175
Mof_O 	O 	0.4672	0.79455	0.33569	-0.458
Mof_O 	O 	0.40006	0.7835	0.17864	-0.464
Mof_O 	O 	0.07464	0.82992	0.66958	-0.335
Mof_O 	O 	0.01244	0.78859	0.54295	-0.396
Mof_H 	H 	0.4718	0.7027	0.2767	0.824
Mof_C 	C 	0.2063	0.1266	0.452	0.038
Mof_C 	C 	0.1728	0.1353	0.5219	-0.176
Mof_H 	H 	0.1798	0.117	0.5794	0.095
Mof_C 	C 	0.1295	0.1711	0.5039	0.171
Mof_H 	H 	0.1078	0.1742	0.5508	-0.03
Mof_N 	N 	0.1162	0.19874	0.4359	-0.091
Mof_C 	C 	0.1611	0.1987	0.3773	-0.003
Mof_H 	H 	0.1611	0.223	0.3339	0.026
Mof_C 	C 	0.2036	0.1626	0.3867	-0.078
Mof_H 	H 	0.2308	0.1629	0.3478	0.059
Mof_H 	H 	0.5286	0.7258	0.2917	0.502
Mof_C 	C 	0.9307	0.27423	0.88894	0.092
Mof_H 	H 	0.9451	0.2445	0.886	-0.017
Mof_C 	C 	0.9185	0.30125	0.80347	-0.192
Mof_H 	H 	0.9253	0.2897	0.7453	0.086
Mof_C 	C 	0.89627	0.34544	0.8039	0.128
Mof_C 	C 	0.88715	0.35968	0.89305	-0.198
Mof_H 	H 	0.8714	0.3889	0.897	0.099
Mof_C 	C 	0.9011	0.33115	0.97604	0.107
Mof_H 	H 	0.895	0.3421	0.0352	-0.014
Mof_C 	C 	0.88593	0.37652	0.71565	-0.099
Mof_C 	C 	0.9257	0.37544	0.65595	0.046
Mof_H 	H 	0.9577	0.3535	0.6696	-0.001
Mof_C 	C 	0.91919	0.40569	0.57754	-0.179
Mof_H 	H 	0.9476	0.4047	0.5408	0.086
Mof_C 	C 	0.8702	0.43804	0.55214	0.152
Mof_C 	C 	0.82852	0.43768	0.60849	-0.174
Mof_H 	H 	0.7943	0.4577	0.5915	0.096
Mof_C 	C 	0.83719	0.40822	0.68876	0.049
Mof_H 	H 	0.8094	0.4096	0.7265	0.012
Mof_C 	C 	0.9012	0.46764	0.40774	0.161
Mof_C 	C 	0.90623	0.42791	0.35576	-0.193
Mof_H 	H 	0.8829	0.4021	0.3611	0.103
Mof_C 	C 	0.94537	0.42613	0.29643	0.067
Mof_H 	H 	0.9492	0.3987	0.2647	0.002
Mof_C 	C 	0.97919	0.46419	0.28279	-0.141
Mof_C 	C 	0.97088	0.50422	0.33199	0.07
Mof_H 	H 	0.9912	0.5309	0.3223	-0.012
Mof_C 	C 	0.93392	0.50561	0.39402	-0.196
Mof_H 	H 	0.9309	0.5328	0.4274	0.093
Mof_C 	C 	0.8258	0.5107	0.46958	0.138
Mof_C 	C 	0.83677	0.53963	0.55172	-0.16
Mof_H 	H 	0.8699	0.5337	0.6109	0.089
Mof_C 	C 	0.7986	0.57746	0.54631	0.022
Mof_H 	H 	0.8063	0.5968	0.6023	0.024
Mof_C 	C 	0.74943	0.58718	0.45994	-0.058
Mof_C 	C 	0.74148	0.5588	0.37691	0.023
Mof_H 	H 	0.7096	0.5653	0.3165	0.025
Mof_C 	C 	0.77922	0.52151	0.38156	-0.157
Mof_H 	H 	0.7732	0.5033	0.3243	0.089
Mof_C 	C 	0.70538	0.626	0.45527	0.032
Mof_C 	C 	0.63916	0.61593	0.4223	0.027
Mof_H 	H 	0.6246	0.5862	0.4052	0.026
Mof_C 	C 	0.5976	0.6516	0.41674	-0.117
Mof_H 	H 	0.5547	0.645	0.4003	0.075
Mof_N 	N 	0.6167	0.69677	0.43439	-0.116
Mof_C 	C 	0.67613	0.70279	0.46272	0.004
Mof_H 	H 	0.6906	0.7327	0.478	0.017
Mof_C 	C 	0.72124	0.66919	0.4729	-0.032
Mof_H 	H 	0.7638	0.6773	0.4928	0.041
Mof_C 	C 	0.91341	0.29229	0.27274	0.388
Mof_C 	C 	0.85873	0.29931	0.31221	-0.161
Mof_C 	C 	0.79734	0.29697	0.25159	0.076
Mof_H 	H 	0.7883	0.2924	0.1821	0.01
Mof_C 	C 	0.74837	0.30128	0.29182	-0.139
Mof_H 	H 	0.7069	0.2999	0.2483	0.075
Mof_C 	C 	0.75864	0.30754	0.39374	0.066
Mof_C 	C 	0.82002	0.3125	0.45212	-0.139
Mof_H 	H 	0.8291	0.3191	0.5209	0.08
Mof_C 	C 	0.86922	0.30803	0.41269	0.077
Mof_H 	H 	0.9106	0.311	0.4557	0.009
Mof_C 	C 	0.70671	0.3096	0.43952	0.045
Mof_C 	C 	0.64691	0.29592	0.38915	-0.119
Mof_H 	H 	0.6371	0.2858	0.3224	0.068
Mof_C 	C 	0.60012	0.29668	0.43507	0.053
Mof_H 	H 	0.5597	0.2866	0.3985	0.021
Mof_C 	C 	0.6112	0.31176	0.53224	-0.126
Mof_C 	C 	0.67044	0.32699	0.58119	0.052
Mof_H 	H 	0.6797	0.338	0.6472	0.025
Mof_C 	C 	0.71767	0.32675	0.53628	-0.116
Mof_H 	H 	0.7574	0.3383	0.5718	0.071
Mof_C 	C 	0.56273	0.31024	0.58527	0.348
Mof_Co	Co	0.9577	0.24925	0.11322	1.113
Mof_N 	N 	0.92299	0.2885	0.97603	-0.243
Mof_N 	N 	0.86373	0.46975	0.47395	-0.183
Mof_O 	O 	0.9672	0.29455	0.33569	-0.477
Mof_O 	O 	0.90006	0.2835	0.17864	-0.462
Mof_O 	O 	0.57464	0.32992	0.66958	-0.369
Mof_O 	O 	0.51244	0.28859	0.54295	-0.433
Mof_H 	H 	0.9718	0.2027	0.2767	0.592
Mof_C 	C 	0.7063	0.6266	0.452	0.038
Mof_C 	C 	0.6728	0.6353	0.5219	-0.185
Mof_H 	H 	0.6798	0.617	0.5794	0.095
Mof_C 	C 	0.6295	0.6711	0.5039	0.183
Mof_H 	H 	0.6078	0.6742	0.5508	-0.042
Mof_N 	N 	0.6162	0.69874	0.4359	-0.094
Mof_C 	C 	0.6611	0.6987	0.3773	-0.007
Mof_H 	H 	0.6611	0.723	0.3339	0.023
Mof_C 	C 	0.7036	0.6626	0.3867	-0.08
Mof_H 	H 	0.7308	0.6629	0.3478	0.06
Mof_H 	H 	0.0286	0.2258	0.2917	0.324
Mof_O 	O 	0.5	0.2902	0.75	-2.374
Mof_O 	O 	2.30561e-33	0.7902	0.75	-1.739
Mof_O 	O 	0.5	0.7098	0.25	-2.375
Mof_O 	O 	7.68536e-34	0.2098	0.25	-1.719
_end
