data_functionalizedCrystal
_audit_creation_method	'EQeq! by Chris Wilmer'
_symmetry_space_group_name_H-M	'P1'
_symmetry_Int_Tables_number	1
_symmetry_cell_setting	triclinic
loop_
_symmetry_equiv_pos_as_xyz
  x,y,z
_cell_length_a	16.586
_cell_length_b	16.586
_cell_length_c	18.124
_cell_angle_alpha	90
_cell_angle_beta	90
_cell_angle_gamma	120
loop_
_atom_site_label
_atom_site_type_symbol
_atom_site_fract_x
_atom_site_fract_y
_atom_site_fract_z
_atom_site_charge
Mof_Ni	Ni	0.0119	0.66692	0.69581	1.109
Mof_Ni	Ni	0.01163	0.66657	0.31637	1.113
Mof_O 	O 	0.8843	0.5525	0.695	-0.411
Mof_O 	O 	0.7738	0.5893	0.7075	-0.236
Mof_O 	O 	0.8542	0.7481	0.7041	-0.233
Mof_O 	O 	0.0018	0.7828	0.6959	-0.437
Mof_O 	O 	0.1588	0.742	0.7004	-0.374
Mof_O 	O 	0.0834	0.5921	0.7041	-0.381
Mof_C 	C 	0.8032	0.5307	0.7038	0.338
Mof_C 	C 	0.7294	0.4244	0.7047	-0.108
Mof_C 	C 	0.757	0.3573	0.7072	0.048
Mof_H 	H 	0.8211	0.3758	0.7107	0.043
Mof_C 	C 	0.9441	0.8055	0.6981	0.341
Mof_C 	C 	0.9707	0.9096	0.7019	-0.034
Mof_C 	C 	0.9074	0.9348	0.7029	-0.04
Mof_H 	H 	0.8429	0.8902	0.7041	0.07
Mof_C 	C 	0.1597	0.667	0.7016	0.322
Mof_C 	C 	0.2463	0.6659	0.7043	-0.122
Mof_C 	C 	0.3326	0.7486	0.7044	0.051
Mof_H 	H 	0.3321	0.8057	0.7047	0.044
Mof_O 	O 	0.8859	0.5516	0.3176	-0.403
Mof_O 	O 	0.7736	0.5862	0.3072	-0.243
Mof_O 	O 	0.8528	0.7482	0.3087	-0.242
Mof_O 	O 	0.0003	0.7811	0.3166	-0.433
Mof_O 	O 	0.1592	0.7427	0.3107	-0.355
Mof_O 	O 	0.0824	0.591	0.3103	-0.375
Mof_C 	C 	0.8016	0.5291	0.3153	0.333
Mof_C 	C 	0.7304	0.4272	0.3065	-0.108
Mof_C 	C 	0.6412	0.4007	0.3093	0.042
Mof_H 	H 	0.6221	0.4458	0.3131	0.046
Mof_C 	C 	0.9404	0.8034	0.313	0.346
Mof_C 	C 	0.9704	0.9066	0.312	-0.053
Mof_C 	C 	0.065	0.9731	0.3138	-0.039
Mof_H 	H 	0.1098	0.9535	0.3164	0.065
Mof_C 	C 	0.1588	0.6648	0.3113	0.287
Mof_C 	C 	0.2496	0.6678	0.3068	-0.095
Mof_C 	C 	0.2509	0.5846	0.3063	0.027
Mof_H 	H 	0.1933	0.5276	0.3055	0.05
Mof_N 	N 	0.0132	0.6674	0.5815	-0.179
Mof_N 	N 	0.0133	0.6674	0.4285	-0.18
Mof_C 	C 	0.9323	0.6666	0.5482	-0.044
Mof_H 	H 	0.9315	0.7233	0.5641	0.056
Mof_H 	H 	0.875	0.6122	0.5673	0.054
Mof_C 	C 	0.9299	0.6626	0.4628	-0.047
Mof_H 	H 	0.8742	0.6041	0.4471	0.054
Mof_H 	H 	0.9231	0.715	0.4439	0.057
Mof_C 	C 	0.0124	0.586	0.5468	-0.073
Mof_H 	H 	0.9563	0.5288	0.564	0.068
Mof_H 	H 	0.0674	0.5832	0.5646	0.054
Mof_C 	C 	0.013	0.5851	0.4633	-0.083
Mof_H 	H 	0.0688	0.5831	0.4463	0.059
Mof_H 	H 	0.9575	0.5275	0.4458	0.071
Mof_C 	C 	0.0979	0.7468	0.5481	-0.053
Mof_H 	H 	0.1531	0.7445	0.5658	0.052
Mof_H 	H 	0.1033	0.8055	0.5665	0.05
Mof_C 	C 	0.1004	0.7499	0.4634	-0.071
Mof_H 	H 	0.1566	0.749	0.4461	0.058
Mof_H 	H 	0.1051	0.8089	0.4466	0.057
Mof_N 	N 	0.0065	0.6695	0.8142	-0.173
Mof_C 	C 	0.954	0.5848	0.8501	-0.03
Mof_H 	H 	0.9191	0.5294	0.8222	0.015
Mof_C 	C 	0.9526	0.5811	0.9267	0.12
Mof_H 	H 	0.9167	0.5232	0.9512	0.153
Mof_C 	C 	0.0036	0.6622	0.9675	0.441
Mof_C 	C 	0.0561	0.7469	0.9316	-0.133
Mof_H 	H 	0.091	0.8023	0.9595	0.104
Mof_C 	C 	0.0575	0.7506	0.855	-0.262
Mof_H 	H 	0.0934	0.8085	0.8305	0.197
Mof_N 	N 	0.0055	0.6665	0.1962	-0.179
Mof_C 	C 	0.0624	0.7488	0.1585	-0.052
Mof_H 	H 	0.1019	0.8041	0.1851	0.23
Mof_C 	C 	0.0613	0.7502	0.0818	-0.187
Mof_H 	H 	0.1002	0.8065	0.056	-0.051
Mof_C 	C 	0.0034	0.6693	0.0428	0.769
Mof_C 	C 	0.9466	0.5871	0.0805	-0.036
Mof_H 	H 	0.907	0.5318	0.0539	-0.168
Mof_C 	C 	0.9476	0.5856	0.1572	0.272
Mof_H 	H 	0.9087	0.5294	0.183	0.153
Mof_C 	C 	0.989	0.5796	0.8419	0.031
Mof_H 	H 	0.0348	0.5649	0.8192	0.022
Mof_H 	H 	0.9263	0.5308	0.8266	0.016
Mof_C 	C 	0.997	0.5774	0.9273	-0.124
Mof_H 	H 	0.9408	0.5256	0.9502	-0.157
Mof_H 	H 	0.0532	0.5756	0.9434	0.05
Mof_C 	C 	0.099	0.74	0.8352	0.199
Mof_H 	H 	0.1157	0.8002	0.8113	-0.14
Mof_H 	H 	0.1451	0.7219	0.8209	-0.027
Mof_C 	C 	0.095	0.748	0.9204	0.273
Mof_H 	H 	0.1465	0.7435	0.9444	-0.073
Mof_H 	H 	0.0993	0.8075	0.9349	-0.11
Mof_C 	C 	0.938	0.695	0.8388	0.012
Mof_H 	H 	0.8769	0.654	0.8152	0.037
Mof_H 	H 	0.9584	0.7602	0.8243	0.047
Mof_C 	C 	0.929	0.685	0.9234	0
Mof_H 	H 	0.9373	0.7429	0.9471	0.022
Mof_H 	H 	0.8677	0.6321	0.9384	0.007
Mof_N 	N 	0.0048	0.6687	0.9402	-0.529
Mof_C 	C 	0.931	0.68	0.1695	-0.044
Mof_H 	H 	0.9354	0.7367	0.1922	0.056
Mof_H 	H 	0.8698	0.6262	0.1826	0.036
Mof_C 	C 	0.941	0.691	0.0858	-0.092
Mof_H 	H 	0.8818	0.6479	0.0602	0.022
Mof_H 	H 	0.961	0.756	0.0702	0.048
Mof_C 	C 	0.1	0.736	0.179	0.023
Mof_H 	H 	0.1437	0.7163	0.1966	0.034
Mof_H 	H 	0.1156	0.7961	0.2024	-0.194
Mof_C 	C 	0.1031	0.745	0.0929	0.171
Mof_H 	H 	0.1116	0.8056	0.0767	0.074
Mof_H 	H 	0.1531	0.7358	0.0715	-0.04
Mof_C 	C 	0.988	0.5763	0.1722	-0.211
Mof_H 	H 	0.9261	0.5275	0.1897	-0.155
Mof_H 	H 	0.0356	0.5635	0.1932	0.106
Mof_C 	C 	0.991	0.5744	0.0878	-0.116
Mof_H 	H 	0.0421	0.5644	0.0697	0.04
Mof_H 	H 	0.9313	0.5271	0.0662	0.205
Mof_N 	N 	0.0104	0.6678	0.0741	-0.659
Mof_Ni	Ni	0.33308	0.34498	0.69581	1.113
Mof_Ni	Ni	0.33343	0.34506	0.31637	1.117
Mof_O 	O 	0.4475	0.3318	0.695	-0.418
Mof_O 	O 	0.4107	0.1845	0.7075	-0.236
Mof_O 	O 	0.2519	0.1061	0.7041	-0.225
Mof_O 	O 	0.2172	0.219	0.6959	-0.419
Mof_O 	O 	0.258	0.4168	0.7004	-0.373
Mof_O 	O 	0.4079	0.4913	0.7041	-0.377
Mof_C 	C 	0.4693	0.2725	0.7038	0.339
Mof_C 	C 	0.5756	0.305	0.7047	-0.108
Mof_C 	C 	0.6427	0.3997	0.7072	0.049
Mof_H 	H 	0.6242	0.4453	0.7107	0.041
Mof_C 	C 	0.1945	0.1386	0.6981	0.319
Mof_C 	C 	0.0904	0.0611	0.7019	-0.027
Mof_C 	C 	0.0652	0.9726	0.7029	-0.058
Mof_H 	H 	0.1098	0.9527	0.7041	0.072
Mof_C 	C 	0.333	0.4927	0.7016	0.321
Mof_C 	C 	0.3341	0.5804	0.7043	-0.121
Mof_C 	C 	0.2514	0.584	0.7044	0.051
Mof_H 	H 	0.1943	0.5264	0.7047	0.044
Mof_O 	O 	0.4484	0.3343	0.3176	-0.409
Mof_O 	O 	0.4138	0.1874	0.3072	-0.243
Mof_O 	O 	0.2518	0.1046	0.3087	-0.234
Mof_O 	O 	0.2189	0.2192	0.3166	-0.414
Mof_O 	O 	0.2573	0.4165	0.3107	-0.353
Mof_O 	O 	0.409	0.4914	0.3103	-0.371
Mof_C 	C 	0.4709	0.2725	0.3153	0.333
Mof_C 	C 	0.5728	0.3032	0.3065	-0.109
Mof_C 	C 	0.5993	0.2405	0.3093	0.042
Mof_H 	H 	0.5542	0.1763	0.3131	0.047
Mof_C 	C 	0.1966	0.137	0.313	0.324
Mof_C 	C 	0.0934	0.0638	0.312	-0.047
Mof_C 	C 	0.0269	0.0919	0.3138	-0.025
Mof_H 	H 	0.0465	0.1563	0.3164	0.063
Mof_C 	C 	0.3352	0.494	0.3113	0.285
Mof_C 	C 	0.3322	0.5818	0.3068	-0.094
Mof_C 	C 	0.4154	0.6663	0.3063	0.026
Mof_H 	H 	0.4724	0.6657	0.3055	0.051
Mof_N 	N 	0.3326	0.3458	0.5815	-0.174
Mof_N 	N 	0.3326	0.3459	0.4285	-0.176
Mof_C 	C 	0.3334	0.2657	0.5482	-0.056
Mof_H 	H 	0.2767	0.2082	0.5641	0.056
Mof_H 	H 	0.3878	0.2628	0.5673	0.056
Mof_C 	C 	0.3374	0.2673	0.4628	-0.059
Mof_H 	H 	0.3959	0.2701	0.4471	0.056
Mof_H 	H 	0.285	0.2081	0.4439	0.058
Mof_C 	C 	0.414	0.4264	0.5468	-0.053
Mof_H 	H 	0.4712	0.4275	0.564	0.053
Mof_H 	H 	0.4168	0.4842	0.5646	0.051
Mof_C 	C 	0.4149	0.4279	0.4633	-0.062
Mof_H 	H 	0.4169	0.4857	0.4463	0.055
Mof_H 	H 	0.4725	0.43	0.4458	0.056
Mof_C 	C 	0.2532	0.3511	0.5481	-0.053
Mof_H 	H 	0.2555	0.4086	0.5658	0.051
Mof_H 	H 	0.1945	0.2978	0.5665	0.053
Mof_C 	C 	0.2501	0.3505	0.4634	-0.071
Mof_H 	H 	0.251	0.4076	0.4461	0.057
Mof_H 	H 	0.1911	0.2962	0.4466	0.059
Mof_N 	N 	0.3305	0.337	0.8142	-0.161
Mof_C 	C 	0.4152	0.3692	0.8501	-0.047
Mof_H 	H 	0.4706	0.3897	0.8222	0.018
Mof_C 	C 	0.4189	0.3715	0.9267	0.169
Mof_H 	H 	0.4768	0.3935	0.9512	0.206
Mof_C 	C 	0.3378	0.3414	0.9675	0.46
Mof_C 	C 	0.2531	0.3092	0.9316	-0.138
Mof_H 	H 	0.1977	0.2887	0.9595	0.115
Mof_C 	C 	0.2494	0.3069	0.855	-0.275
Mof_H 	H 	0.1915	0.2849	0.8305	0.213
Mof_N 	N 	0.3335	0.339	0.1962	-0.166
Mof_C 	C 	0.2512	0.3136	0.1585	-0.047
Mof_H 	H 	0.1959	0.2978	0.1851	0.243
Mof_C 	C 	0.2498	0.3111	0.0818	-0.184
Mof_H 	H 	0.1935	0.2937	0.056	-0.043
Mof_C 	C 	0.3307	0.3341	0.0428	0.789
Mof_C 	C 	0.4129	0.3595	0.0805	-0.062
Mof_H 	H 	0.4682	0.3752	0.0539	-0.202
Mof_C 	C 	0.4144	0.362	0.1572	0.374
Mof_H 	H 	0.4706	0.3793	0.183	0.217
Mof_C 	C 	0.4204	0.4094	0.8419	0.024
Mof_H 	H 	0.4351	0.4699	0.8192	0.032
Mof_H 	H 	0.4692	0.3955	0.8266	0.016
Mof_C 	C 	0.4226	0.4196	0.9273	-0.18
Mof_H 	H 	0.4744	0.4152	0.9502	-0.218
Mof_H 	H 	0.4244	0.4776	0.9434	0.076
Mof_C 	C 	0.26	0.359	0.8352	0.213
Mof_H 	H 	0.1998	0.3155	0.8113	-0.152
Mof_H 	H 	0.2781	0.4232	0.8209	-0.031
Mof_C 	C 	0.252	0.347	0.9204	0.29
Mof_H 	H 	0.2565	0.403	0.9444	-0.079
Mof_H 	H 	0.1925	0.2918	0.9349	-0.122
Mof_C 	C 	0.305	0.243	0.8388	0.009
Mof_H 	H 	0.346	0.2229	0.8152	0.037
Mof_H 	H 	0.2398	0.1982	0.8243	0.044
Mof_C 	C 	0.315	0.244	0.9234	-0.015
Mof_H 	H 	0.2571	0.1944	0.9471	0.024
Mof_H 	H 	0.3679	0.2356	0.9384	0.009
Mof_N 	N 	0.3313	0.3361	0.9402	-0.538
Mof_C 	C 	0.32	0.251	0.1695	-0.082
Mof_H 	H 	0.2633	0.1987	0.1922	0.065
Mof_H 	H 	0.3738	0.2436	0.1826	0.04
Mof_C 	C 	0.309	0.25	0.0858	-0.101
Mof_H 	H 	0.3521	0.2339	0.0602	0.024
Mof_H 	H 	0.244	0.205	0.0702	0.046
Mof_C 	C 	0.264	0.364	0.179	0.025
Mof_H 	H 	0.2837	0.4274	0.1966	0.035
Mof_H 	H 	0.2039	0.3195	0.2024	-0.205
Mof_C 	C 	0.255	0.3581	0.0929	0.167
Mof_H 	H 	0.1944	0.306	0.0767	0.068
Mof_H 	H 	0.2642	0.4173	0.0715	-0.038
Mof_C 	C 	0.4237	0.4117	0.1722	-0.327
Mof_H 	H 	0.4725	0.3986	0.1897	-0.226
Mof_H 	H 	0.4365	0.4721	0.1932	0.154
Mof_C 	C 	0.4256	0.4166	0.0878	-0.157
Mof_H 	H 	0.4356	0.4777	0.0697	0.061
Mof_H 	H 	0.4729	0.4042	0.0662	0.252
Mof_N 	N 	0.3322	0.3426	0.0741	-0.655
Mof_Ni	Ni	0.65502	0.9881	0.69581	1.11
Mof_Ni	Ni	0.65494	0.98837	0.31637	1.113
Mof_O 	O 	0.6682	0.1157	0.695	-0.411
Mof_O 	O 	0.8155	0.2262	0.7075	-0.234
Mof_O 	O 	0.8939	0.1458	0.7041	-0.228
Mof_O 	O 	0.781	0.9982	0.6959	-0.436
Mof_O 	O 	0.5832	0.8412	0.7004	-0.373
Mof_O 	O 	0.5087	0.9166	0.7041	-0.381
Mof_C 	C 	0.7275	0.1968	0.7038	0.337
Mof_C 	C 	0.695	0.2706	0.7047	-0.107
Mof_C 	C 	0.6003	0.243	0.7072	0.048
Mof_H 	H 	0.5547	0.1789	0.7107	0.043
Mof_C 	C 	0.8614	0.0559	0.6981	0.339
Mof_C 	C 	0.9389	0.0293	0.7019	-0.021
Mof_C 	C 	0.0274	0.0926	0.7029	-0.045
Mof_H 	H 	0.0473	0.1571	0.7041	0.07
Mof_C 	C 	0.5073	0.8403	0.7016	0.322
Mof_C 	C 	0.4196	0.7537	0.7043	-0.122
Mof_C 	C 	0.416	0.6674	0.7044	0.051
Mof_H 	H 	0.4736	0.6679	0.7047	0.046
Mof_O 	O 	0.6657	0.1141	0.3176	-0.403
Mof_O 	O 	0.8126	0.2264	0.3072	-0.241
Mof_O 	O 	0.8954	0.1472	0.3087	-0.236
Mof_O 	O 	0.7808	0.9997	0.3166	-0.431
Mof_O 	O 	0.5835	0.8408	0.3107	-0.353
Mof_O 	O 	0.5086	0.9176	0.3103	-0.375
Mof_C 	C 	0.7275	0.1984	0.3153	0.333
Mof_C 	C 	0.6968	0.2696	0.3065	-0.108
Mof_C 	C 	0.7595	0.3588	0.3093	0.042
Mof_H 	H 	0.8237	0.3779	0.3131	0.048
Mof_C 	C 	0.863	0.0596	0.313	0.344
Mof_C 	C 	0.9362	0.0296	0.312	-0.04
Mof_C 	C 	0.9081	0.935	0.3138	-0.02
Mof_H 	H 	0.8437	0.8902	0.3164	0.064
Mof_C 	C 	0.506	0.8412	0.3113	0.287
Mof_C 	C 	0.4182	0.7504	0.3068	-0.094
Mof_C 	C 	0.3337	0.7491	0.3063	0.027
Mof_H 	H 	0.3343	0.8067	0.3055	0.05
Mof_N 	N 	0.6542	0.9868	0.5815	-0.179
Mof_N 	N 	0.6541	0.9867	0.4285	-0.18
Mof_C 	C 	0.7343	0.0677	0.5482	-0.045
Mof_H 	H 	0.7918	0.0685	0.5641	0.058
Mof_H 	H 	0.7372	0.125	0.5673	0.055
Mof_C 	C 	0.7327	0.0701	0.4628	-0.047
Mof_H 	H 	0.7299	0.1258	0.4471	0.054
Mof_H 	H 	0.7919	0.0769	0.4439	0.059
Mof_C 	C 	0.5736	0.9876	0.5468	-0.073
Mof_H 	H 	0.5725	0.0437	0.564	0.068
Mof_H 	H 	0.5158	0.9326	0.5646	0.054
Mof_C 	C 	0.5721	0.987	0.4633	-0.083
Mof_H 	H 	0.5143	0.9312	0.4463	0.059
Mof_H 	H 	0.57	0.0425	0.4458	0.071
Mof_C 	C 	0.6489	0.9021	0.5481	-0.054
Mof_H 	H 	0.5914	0.8469	0.5658	0.053
Mof_H 	H 	0.7022	0.8967	0.5665	0.053
Mof_C 	C 	0.6495	0.8996	0.4634	-0.072
Mof_H 	H 	0.5924	0.8434	0.4461	0.059
Mof_H 	H 	0.7038	0.8949	0.4466	0.059
Mof_N 	N 	0.663	0.9935	0.8142	-0.173
Mof_C 	C 	0.6308	0.046	0.8501	-0.03
Mof_H 	H 	0.6103	0.0809	0.8222	0.015
Mof_C 	C 	0.6285	0.0474	0.9267	0.12
Mof_H 	H 	0.6065	0.0833	0.9512	0.153
Mof_C 	C 	0.6586	0.9964	0.9675	0.443
Mof_C 	C 	0.6908	0.9439	0.9316	-0.135
Mof_H 	H 	0.7113	0.909	0.9595	0.103
Mof_C 	C 	0.6931	0.9425	0.855	-0.262
Mof_H 	H 	0.7151	0.9066	0.8305	0.2
Mof_N 	N 	0.661	0.9945	0.1962	-0.179
Mof_C 	C 	0.6864	0.9376	0.1585	-0.051
Mof_H 	H 	0.7022	0.8981	0.1851	0.232
Mof_C 	C 	0.6889	0.9387	0.0818	-0.184
Mof_H 	H 	0.7063	0.8998	0.056	-0.048
Mof_C 	C 	0.6659	0.9966	0.0428	0.769
Mof_C 	C 	0.6405	0.0534	0.0805	-0.036
Mof_H 	H 	0.6248	0.093	0.0539	-0.168
Mof_C 	C 	0.638	0.0524	0.1572	0.272
Mof_H 	H 	0.6207	0.0913	0.183	0.154
Mof_C 	C 	0.5906	0.011	0.8419	0.031
Mof_H 	H 	0.5301	0.9652	0.8192	0.022
Mof_H 	H 	0.6045	0.0737	0.8266	0.016
Mof_C 	C 	0.5804	0.003	0.9273	-0.125
Mof_H 	H 	0.5848	0.0592	0.9502	-0.157
Mof_H 	H 	0.5224	0.9468	0.9434	0.05
Mof_C 	C 	0.641	0.901	0.8352	0.199
Mof_H 	H 	0.6845	0.8843	0.8113	-0.14
Mof_H 	H 	0.5768	0.8549	0.8209	-0.027
Mof_C 	C 	0.653	0.905	0.9204	0.274
Mof_H 	H 	0.597	0.8535	0.9444	-0.073
Mof_H 	H 	0.7082	0.9007	0.9349	-0.107
Mof_C 	C 	0.757	0.062	0.8388	0.012
Mof_H 	H 	0.7771	0.1231	0.8152	0.038
Mof_H 	H 	0.8018	0.0416	0.8243	0.048
Mof_C 	C 	0.756	0.071	0.9234	-0.001
Mof_H 	H 	0.8056	0.0627	0.9471	0.024
Mof_H 	H 	0.7644	0.1323	0.9384	0.009
Mof_N 	N 	0.6639	0.9952	0.9402	-0.53
Mof_C 	C 	0.749	0.069	0.1695	-0.044
Mof_H 	H 	0.8013	0.0646	0.1922	0.058
Mof_H 	H 	0.7564	0.1302	0.1826	0.037
Mof_C 	C 	0.75	0.059	0.0858	-0.094
Mof_H 	H 	0.7661	0.1182	0.0602	0.024
Mof_H 	H 	0.795	0.039	0.0702	0.051
Mof_C 	C 	0.636	0.9	0.179	0.022
Mof_H 	H 	0.5726	0.8563	0.1966	0.035
Mof_H 	H 	0.6805	0.8844	0.2024	-0.194
Mof_C 	C 	0.6419	0.8969	0.0929	0.168
Mof_H 	H 	0.694	0.8884	0.0767	0.073
Mof_H 	H 	0.5827	0.8469	0.0715	-0.039
Mof_C 	C 	0.5883	0.012	0.1722	-0.212
Mof_H 	H 	0.6014	0.0739	0.1897	-0.155
Mof_H 	H 	0.5279	0.9644	0.1932	0.106
Mof_C 	C 	0.5834	0.009	0.0878	-0.117
Mof_H 	H 	0.5223	0.9579	0.0697	0.04
Mof_H 	H 	0.5958	0.0687	0.0662	0.205
Mof_N 	N 	0.6574	0.9896	0.0741	-0.659
_end
