data_functionalizedCrystal
_audit_creation_method	'EQeq! by Chris Wilmer'
_symmetry_space_group_name_H-M	'P1'
_symmetry_Int_Tables_number	1
_symmetry_cell_setting	triclinic
loop_
_symmetry_equiv_pos_as_xyz
  x,y,z
_cell_length_a	18.748
_cell_length_b	18.748
_cell_length_c	31.892
_cell_angle_alpha	90
_cell_angle_beta	90
_cell_angle_gamma	120
loop_
_atom_site_label
_atom_site_type_symbol
_atom_site_fract_x
_atom_site_fract_y
_atom_site_fract_z
_atom_site_charge
Mof_Zn	Zn	0.98562	0.17379	0.08019	0.749
Mof_N 	N 	0.8953	0.0566	0.0681	-0.588
Mof_N 	N 	0.9018	0.9919	0.0813	-0.204
Mof_N 	N 	0.836	0.9222	0.0672	0.42
Mof_C 	C 	0.7883	0.946	0.0465	0.105
Mof_H 	H 	0.7367	0.9105	0.0353	-0.007
Mof_C 	C 	0.8261	0.0269	0.0447	0.074
Mof_H 	H 	0.8084	0.0581	0.03	-0.064
Mof_C 	C 	0.9869	0.1683	0.2118	-0.12
Mof_C 	C 	0.9761	0.2287	0.2293	0.286
Mof_H 	H 	0.9693	0.2687	0.2124	-0.032
Mof_C 	C 	0.9938	0.1488	0.1669	-0.028
Mof_O 	O 	0.997	0.0851	0.1598	-0.342
Mof_O 	O 	0.9807	0.1909	0.1404	0.091
Mof_C 	C 	0.0446	0.4396	0.0237	-0.36
Mof_H 	H 	0.0955	0.4479	0.0325	-1.222
Mof_C 	C 	0.9785	0.3654	0.0254	-0.503
Mof_C 	C 	0.9009	0.3506	0.0118	3.215
Mof_H 	H 	0.8542	0.2992	0.0155	-0.88
Mof_C 	C 	0.8957	0.4157	0.9924	-1.357
Mof_H 	H 	0.8469	0.4063	0.98	0.528
Mof_C 	C 	0.9634	0.4922	0.9922	0.393
Mof_C 	C 	0.9778	0.2911	0.0451	0.961
Mof_O 	O 	0.907	0.2301	0.0523	0.14
Mof_O 	O 	0.0387	0.2881	0.0504	-1.481
Mof_Zn	Zn	0.01443	0.18818	0.0801	0.636
Mof_N 	N 	0.9138	0.0774	0.0672	0.302
Mof_N 	N 	0.9102	0.0087	0.0811	0.096
Mof_N 	N 	0.839	0.9437	0.0682	-0.679
Mof_C 	C 	0.7986	0.973	0.0453	0.041
Mof_H 	H 	0.7493	0.9417	0.031	-0.047
Mof_C 	C 	0.8418	0.0539	0.0469	-0.041
Mof_H 	H 	0.8256	0.0894	0.0358	0.039
Mof_C 	C 	0.013	0.1833	0.2119	0.103
Mof_C 	C 	0.0247	0.2549	0.2295	-0.335
Mof_H 	H 	0.0324	0.3023	0.2133	0.113
Mof_C 	C 	0.0065	0.1585	0.1668	0.248
Mof_O 	O 	0.003	0.0926	0.1584	-0.041
Mof_O 	O 	0.02	0.215	0.1403	-0.552
Mof_C 	C 	0.9559	0.3951	0.0239	-0.144
Mof_H 	H 	0.9051	0.3524	0.0328	-1.455
Mof_C 	C 	0.0217	0.3879	0.0254	-0.328
Mof_C 	C 	0.0995	0.4507	0.0116	2.802
Mof_H 	H 	0.1464	0.4465	0.0156	-0.78
Mof_C 	C 	0.104	0.5199	0.9916	-1.087
Mof_H 	H 	0.1522	0.5587	0.9785	0.425
Mof_C 	C 	0.0363	0.5286	0.992	0.205
Mof_C 	C 	0.0237	0.3145	0.0454	1.285
Mof_O 	O 	0.9629	0.2508	0.0499	-1.15
Mof_O 	O 	0.0939	0.3246	0.0524	0.207
Mof_Zn	Zn	0.82621	0.81183	0.08019	0.696
Mof_N 	N 	0.9434	0.8387	0.0681	-0.622
Mof_N 	N 	0.0081	0.9099	0.0813	0.087
Mof_N 	N 	0.0778	0.9138	0.0672	0.34
Mof_C 	C 	0.054	0.8423	0.0465	-0.026
Mof_H 	H 	0.0895	0.8262	0.0353	0.047
Mof_C 	C 	0.9731	0.7992	0.0447	0.044
Mof_H 	H 	0.9419	0.7503	0.03	-0.035
Mof_C 	C 	0.8317	0.8186	0.2118	-0.025
Mof_C 	C 	0.7713	0.7474	0.2293	-0.027
Mof_H 	H 	0.7313	0.7006	0.2124	0.042
Mof_C 	C 	0.8512	0.845	0.1669	0.119
Mof_O 	O 	0.9149	0.9119	0.1598	-0.192
Mof_O 	O 	0.8091	0.7898	0.1404	-0.291
Mof_C 	C 	0.5604	0.605	0.0237	-0.223
Mof_H 	H 	0.5521	0.6476	0.0325	-1.309
Mof_C 	C 	0.6346	0.6131	0.0254	-0.383
Mof_C 	C 	0.6494	0.5503	0.0118	3.096
Mof_H 	H 	0.7008	0.555	0.0155	-0.859
Mof_C 	C 	0.5843	0.48	0.9924	-1.255
Mof_H 	H 	0.5937	0.4406	0.98	0.486
Mof_C 	C 	0.5078	0.4712	0.9922	0.313
Mof_C 	C 	0.7089	0.6867	0.0451	1.067
Mof_O 	O 	0.7699	0.6769	0.0523	0.19
Mof_O 	O 	0.7119	0.7506	0.0504	-1.344
Mof_Zn	Zn	0.81182	0.82625	0.0801	0.693
Mof_N 	N 	0.9226	0.8364	0.0672	0.369
Mof_N 	N 	0.9913	0.9015	0.0811	-0.196
Mof_N 	N 	0.0563	0.8953	0.0682	-0.631
Mof_C 	C 	0.027	0.8256	0.0453	0.071
Mof_H 	H 	0.0583	0.8076	0.031	-0.077
Mof_C 	C 	0.9461	0.7879	0.0469	0.091
Mof_H 	H 	0.9106	0.7362	0.0358	-0.012
Mof_C 	C 	0.8167	0.8297	0.2119	-0.017
Mof_C 	C 	0.7451	0.7698	0.2295	-0.004
Mof_H 	H 	0.6977	0.7301	0.2133	0.032
Mof_C 	C 	0.8415	0.848	0.1668	0.139
Mof_O 	O 	0.9074	0.9104	0.1584	-0.161
Mof_O 	O 	0.785	0.805	0.1403	-0.169
Mof_C 	C 	0.6049	0.5608	0.0239	-0.288
Mof_H 	H 	0.6476	0.5527	0.0328	-1.368
Mof_C 	C 	0.6121	0.6338	0.0254	-0.449
Mof_C 	C 	0.5493	0.6488	0.0116	2.924
Mof_H 	H 	0.5535	0.6999	0.0156	-0.798
Mof_C 	C 	0.4801	0.5841	0.9916	-1.193
Mof_H 	H 	0.4413	0.5935	0.9785	0.47
Mof_C 	C 	0.4714	0.5077	0.992	0.257
Mof_C 	C 	0.6855	0.7092	0.0454	1.196
Mof_O 	O 	0.7492	0.7121	0.0499	-1.309
Mof_O 	O 	0.6754	0.7693	0.0524	0.172
Mof_Zn	Zn	0.18817	0.01438	0.08019	0.639
Mof_N 	N 	0.1613	0.1047	0.0681	-0.63
Mof_N 	N 	0.0901	0.0982	0.0813	-0.07
Mof_N 	N 	0.0862	0.164	0.0672	0.401
Mof_C 	C 	0.1577	0.2117	0.0465	0.04
Mof_H 	H 	0.1738	0.2633	0.0353	0.019
Mof_C 	C 	0.2008	0.1739	0.0447	0.063
Mof_H 	H 	0.2497	0.1916	0.03	-0.052
Mof_C 	C 	0.1814	0.0131	0.2118	0.086
Mof_C 	C 	0.2526	0.0239	0.2293	-0.349
Mof_H 	H 	0.2994	0.0307	0.2124	0.112
Mof_C 	C 	0.155	0.0062	0.1669	0.257
Mof_O 	O 	0.0881	0.003	0.1598	-0.075
Mof_O 	O 	0.2102	0.0193	0.1404	-0.68
Mof_C 	C 	0.395	0.9554	0.0237	-0.089
Mof_H 	H 	0.3524	0.9045	0.0325	-1.392
Mof_C 	C 	0.3869	0.0215	0.0254	-0.259
Mof_C 	C 	0.4497	0.0991	0.0118	2.968
Mof_H 	H 	0.445	0.1458	0.0155	-0.839
Mof_C 	C 	0.52	0.1043	0.9924	-1.145
Mof_H 	H 	0.5594	0.1531	0.98	0.441
Mof_C 	C 	0.5288	0.0366	0.9922	0.238
Mof_C 	C 	0.3133	0.0222	0.0451	1.166
Mof_O 	O 	0.3231	0.093	0.0523	0.227
Mof_O 	O 	0.2494	0.9613	0.0504	-1.198
Mof_Zn	Zn	0.17375	0.98557	0.0801	0.748
Mof_N 	N 	0.1636	0.0862	0.0672	0.354
Mof_N 	N 	0.0985	0.0898	0.0811	-0.062
Mof_N 	N 	0.1047	0.161	0.0682	-0.685
Mof_C 	C 	0.1744	0.2014	0.0453	0.059
Mof_H 	H 	0.1924	0.2507	0.031	-0.064
Mof_C 	C 	0.2121	0.1582	0.0469	0.024
Mof_H 	H 	0.2638	0.1744	0.0358	0.013
Mof_C 	C 	0.1703	0.987	0.2119	-0.113
Mof_C 	C 	0.2302	0.9753	0.2295	0.322
Mof_H 	H 	0.2699	0.9676	0.2133	-0.053
Mof_C 	C 	0.152	0.9935	0.1668	0.027
Mof_O 	O 	0.0896	0.997	0.1584	-0.332
Mof_O 	O 	0.195	0.98	0.1403	0.205
Mof_C 	C 	0.4392	0.0441	0.0239	-0.433
Mof_H 	H 	0.4473	0.0949	0.0328	-1.278
Mof_C 	C 	0.3662	0.9783	0.0254	-0.567
Mof_C 	C 	0.3512	0.9005	0.0116	3.04
Mof_H 	H 	0.3001	0.8536	0.0156	-0.819
Mof_C 	C 	0.4159	0.896	0.9916	-1.293
Mof_H 	H 	0.4065	0.8478	0.9785	0.512
Mof_C 	C 	0.4923	0.9637	0.992	0.313
Mof_C 	C 	0.2908	0.9763	0.0454	1.099
Mof_O 	O 	0.2879	0.0371	0.0499	-1.458
Mof_O 	O 	0.2307	0.9061	0.0524	0.124
Mof_Zn	Zn	0.17379	0.98562	0.41981	0.75
Mof_N 	N 	0.0566	0.8953	0.4319	-0.589
Mof_N 	N 	0.9919	0.9018	0.4187	-0.205
Mof_N 	N 	0.9222	0.836	0.4328	0.42
Mof_C 	C 	0.946	0.7883	0.4535	0.106
Mof_H 	H 	0.9105	0.7367	0.4647	-0.007
Mof_C 	C 	0.0269	0.8261	0.4553	0.075
Mof_H 	H 	0.0581	0.8084	0.47	-0.064
Mof_C 	C 	0.1683	0.9869	0.2882	-0.121
Mof_C 	C 	0.2287	0.9761	0.2707	0.286
Mof_H 	H 	0.2687	0.9693	0.2876	-0.032
Mof_C 	C 	0.1488	0.9938	0.3331	-0.028
Mof_O 	O 	0.0851	0.997	0.3402	-0.343
Mof_O 	O 	0.1909	0.9807	0.3596	0.092
Mof_C 	C 	0.4396	0.0446	0.4763	-0.364
Mof_H 	H 	0.4479	0.0955	0.4675	-1.225
Mof_C 	C 	0.3654	0.9785	0.4746	-0.503
Mof_C 	C 	0.3506	0.9009	0.4882	3.224
Mof_H 	H 	0.2992	0.8542	0.4845	-0.883
Mof_C 	C 	0.4157	0.8957	0.5076	-1.361
Mof_H 	H 	0.4063	0.8469	0.52	0.529
Mof_C 	C 	0.4922	0.9634	0.5078	0.393
Mof_C 	C 	0.2911	0.9778	0.4549	0.96
Mof_O 	O 	0.2301	0.907	0.4477	0.14
Mof_O 	O 	0.2881	0.0387	0.4496	-1.481
Mof_Zn	Zn	0.18818	0.01443	0.4199	0.635
Mof_N 	N 	0.0774	0.9138	0.4328	0.302
Mof_N 	N 	0.0087	0.9102	0.4189	0.097
Mof_N 	N 	0.9437	0.839	0.4318	-0.679
Mof_C 	C 	0.973	0.7986	0.4547	0.041
Mof_H 	H 	0.9417	0.7493	0.469	-0.047
Mof_C 	C 	0.0539	0.8418	0.4531	-0.041
Mof_H 	H 	0.0894	0.8256	0.4642	0.039
Mof_C 	C 	0.1833	0.013	0.2881	0.104
Mof_C 	C 	0.2549	0.0247	0.2705	-0.335
Mof_H 	H 	0.3023	0.0324	0.2867	0.113
Mof_C 	C 	0.1585	0.0065	0.3332	0.248
Mof_O 	O 	0.0926	0.003	0.3416	-0.041
Mof_O 	O 	0.215	0.02	0.3597	-0.553
Mof_C 	C 	0.3951	0.9559	0.4761	-0.147
Mof_H 	H 	0.3524	0.9051	0.4672	-1.459
Mof_C 	C 	0.3879	0.0217	0.4746	-0.326
Mof_C 	C 	0.4507	0.0995	0.4884	2.81
Mof_H 	H 	0.4465	0.1464	0.4844	-0.783
Mof_C 	C 	0.5199	0.104	0.5084	-1.089
Mof_H 	H 	0.5587	0.1522	0.5215	0.426
Mof_C 	C 	0.5286	0.0363	0.508	0.205
Mof_C 	C 	0.3145	0.0237	0.4546	1.285
Mof_O 	O 	0.2508	0.9629	0.4501	-1.149
Mof_O 	O 	0.3246	0.0939	0.4476	0.207
Mof_Zn	Zn	0.81183	0.82621	0.41981	0.696
Mof_N 	N 	0.8387	0.9434	0.4319	-0.622
Mof_N 	N 	0.9099	0.0081	0.4187	0.087
Mof_N 	N 	0.9138	0.0778	0.4328	0.34
Mof_C 	C 	0.8423	0.054	0.4535	-0.026
Mof_H 	H 	0.8262	0.0895	0.4647	0.047
Mof_C 	C 	0.7992	0.9731	0.4553	0.044
Mof_H 	H 	0.7503	0.9419	0.47	-0.035
Mof_C 	C 	0.8186	0.8317	0.2882	-0.025
Mof_C 	C 	0.7474	0.7713	0.2707	-0.027
Mof_H 	H 	0.7006	0.7313	0.2876	0.042
Mof_C 	C 	0.845	0.8512	0.3331	0.119
Mof_O 	O 	0.9119	0.9149	0.3402	-0.192
Mof_O 	O 	0.7898	0.8091	0.3596	-0.291
Mof_C 	C 	0.605	0.5604	0.4763	-0.226
Mof_H 	H 	0.6476	0.5521	0.4675	-1.311
Mof_C 	C 	0.6131	0.6346	0.4746	-0.381
Mof_C 	C 	0.5503	0.6494	0.4882	3.104
Mof_H 	H 	0.555	0.7008	0.4845	-0.861
Mof_C 	C 	0.48	0.5843	0.5076	-1.258
Mof_H 	H 	0.4406	0.5937	0.52	0.487
Mof_C 	C 	0.4712	0.5078	0.5078	0.313
Mof_C 	C 	0.6867	0.7089	0.4549	1.067
Mof_O 	O 	0.6769	0.7699	0.4477	0.19
Mof_O 	O 	0.7506	0.7119	0.4496	-1.344
Mof_Zn	Zn	0.82625	0.81182	0.4199	0.693
Mof_N 	N 	0.8364	0.9226	0.4328	0.37
Mof_N 	N 	0.9015	0.9913	0.4189	-0.196
Mof_N 	N 	0.8953	0.0563	0.4318	-0.631
Mof_C 	C 	0.8256	0.027	0.4547	0.071
Mof_H 	H 	0.8076	0.0583	0.469	-0.077
Mof_C 	C 	0.7879	0.9461	0.4531	0.091
Mof_H 	H 	0.7362	0.9106	0.4642	-0.012
Mof_C 	C 	0.8297	0.8167	0.2881	-0.017
Mof_C 	C 	0.7698	0.7451	0.2705	-0.003
Mof_H 	H 	0.7301	0.6977	0.2867	0.032
Mof_C 	C 	0.848	0.8415	0.3332	0.139
Mof_O 	O 	0.9104	0.9074	0.3416	-0.161
Mof_O 	O 	0.805	0.785	0.3597	-0.169
Mof_C 	C 	0.5608	0.6049	0.4761	-0.291
Mof_H 	H 	0.5527	0.6476	0.4672	-1.371
Mof_C 	C 	0.6338	0.6121	0.4746	-0.448
Mof_C 	C 	0.6488	0.5493	0.4884	2.932
Mof_H 	H 	0.6999	0.5535	0.4844	-0.8
Mof_C 	C 	0.5841	0.4801	0.5084	-1.196
Mof_H 	H 	0.5935	0.4413	0.5215	0.471
Mof_C 	C 	0.5077	0.4714	0.508	0.256
Mof_C 	C 	0.7092	0.6855	0.4546	1.195
Mof_O 	O 	0.7121	0.7492	0.4501	-1.308
Mof_O 	O 	0.7693	0.6754	0.4476	0.172
Mof_Zn	Zn	0.01438	0.18817	0.41981	0.639
Mof_N 	N 	0.1047	0.1613	0.4319	-0.63
Mof_N 	N 	0.0982	0.0901	0.4187	-0.07
Mof_N 	N 	0.164	0.0862	0.4328	0.401
Mof_C 	C 	0.2117	0.1577	0.4535	0.04
Mof_H 	H 	0.2633	0.1738	0.4647	0.019
Mof_C 	C 	0.1739	0.2008	0.4553	0.063
Mof_H 	H 	0.1916	0.2497	0.47	-0.052
Mof_C 	C 	0.0131	0.1814	0.2882	0.086
Mof_C 	C 	0.0239	0.2526	0.2707	-0.349
Mof_H 	H 	0.0307	0.2994	0.2876	0.112
Mof_C 	C 	0.0062	0.155	0.3331	0.257
Mof_O 	O 	0.003	0.0881	0.3402	-0.074
Mof_O 	O 	0.0193	0.2102	0.3596	-0.682
Mof_C 	C 	0.9554	0.395	0.4763	-0.091
Mof_H 	H 	0.9045	0.3524	0.4675	-1.395
Mof_C 	C 	0.0215	0.3869	0.4746	-0.257
Mof_C 	C 	0.0991	0.4497	0.4882	2.976
Mof_H 	H 	0.1458	0.445	0.4845	-0.842
Mof_C 	C 	0.1043	0.52	0.5076	-1.147
Mof_H 	H 	0.1531	0.5594	0.52	0.441
Mof_C 	C 	0.0366	0.5288	0.5078	0.237
Mof_C 	C 	0.0222	0.3133	0.4549	1.167
Mof_O 	O 	0.093	0.3231	0.4477	0.227
Mof_O 	O 	0.9613	0.2494	0.4496	-1.197
Mof_Zn	Zn	0.98557	0.17375	0.4199	0.749
Mof_N 	N 	0.0862	0.1636	0.4328	0.354
Mof_N 	N 	0.0898	0.0985	0.4189	-0.062
Mof_N 	N 	0.161	0.1047	0.4318	-0.685
Mof_C 	C 	0.2014	0.1744	0.4547	0.059
Mof_H 	H 	0.2507	0.1924	0.469	-0.064
Mof_C 	C 	0.1582	0.2121	0.4531	0.023
Mof_H 	H 	0.1744	0.2638	0.4642	0.013
Mof_C 	C 	0.987	0.1703	0.2881	-0.114
Mof_C 	C 	0.9753	0.2302	0.2705	0.322
Mof_H 	H 	0.9676	0.2699	0.2867	-0.053
Mof_C 	C 	0.9935	0.152	0.3332	0.026
Mof_O 	O 	0.997	0.0896	0.3416	-0.332
Mof_O 	O 	0.98	0.195	0.3597	0.206
Mof_C 	C 	0.0441	0.4392	0.4761	-0.438
Mof_H 	H 	0.0949	0.4473	0.4672	-1.28
Mof_C 	C 	0.9783	0.3662	0.4746	-0.567
Mof_C 	C 	0.9005	0.3512	0.4884	3.047
Mof_H 	H 	0.8536	0.3001	0.4844	-0.821
Mof_C 	C 	0.896	0.4159	0.5084	-1.297
Mof_H 	H 	0.8478	0.4065	0.5215	0.514
Mof_C 	C 	0.9637	0.4923	0.508	0.313
Mof_C 	C 	0.9763	0.2908	0.4546	1.098
Mof_O 	O 	0.0371	0.2879	0.4501	-1.459
Mof_O 	O 	0.9061	0.2307	0.4476	0.124
Mof_Zn	Zn	0.01438	0.82621	0.91981	0.646
Mof_N 	N 	0.1047	0.9434	0.9319	-0.64
Mof_N 	N 	0.0982	0.0081	0.9187	0.103
Mof_N 	N 	0.164	0.0778	0.9328	0.348
Mof_C 	C 	0.2117	0.054	0.9535	-0.034
Mof_H 	H 	0.2633	0.0895	0.9647	0.049
Mof_C 	C 	0.1739	0.9731	0.9553	0.044
Mof_H 	H 	0.1916	0.9419	0.97	-0.035
Mof_C 	C 	0.0131	0.8317	0.7882	0.074
Mof_C 	C 	0.0239	0.7713	0.7707	-0.316
Mof_H 	H 	0.0307	0.7313	0.7876	0.106
Mof_C 	C 	0.0062	0.8512	0.8331	0.242
Mof_O 	O 	0.003	0.9149	0.8402	-0.081
Mof_O 	O 	0.0193	0.8091	0.8596	-0.637
Mof_C 	C 	0.9554	0.5604	0.9763	-0.099
Mof_H 	H 	0.9045	0.5521	0.9675	-1.392
Mof_C 	C 	0.0215	0.6346	0.9746	-0.264
Mof_C 	C 	0.0991	0.6494	0.9882	2.977
Mof_H 	H 	0.1458	0.7008	0.9845	-0.84
Mof_C 	C 	0.1043	0.5843	0.0076	-1.153
Mof_H 	H 	0.1531	0.5937	0.02	0.443
Mof_C 	C 	0.0366	0.5078	0.0078	0.231
Mof_C 	C 	0.0222	0.7089	0.9549	1.162
Mof_O 	O 	0.093	0.7699	0.9477	0.228
Mof_O 	O 	0.9613	0.7119	0.9496	-1.209
Mof_Zn	Zn	0.98557	0.81182	0.9199	0.743
Mof_N 	N 	0.0862	0.9226	0.9328	0.387
Mof_N 	N 	0.0898	0.9913	0.9189	-0.227
Mof_N 	N 	0.161	0.0563	0.9318	-0.647
Mof_C 	C 	0.2014	0.027	0.9547	0.074
Mof_H 	H 	0.2507	0.0583	0.969	-0.08
Mof_C 	C 	0.1582	0.9461	0.9531	0.098
Mof_H 	H 	0.1744	0.9106	0.9642	-0.015
Mof_C 	C 	0.987	0.8167	0.7881	-0.101
Mof_C 	C 	0.9753	0.7451	0.7705	0.29
Mof_H 	H 	0.9676	0.6977	0.7867	-0.042
Mof_C 	C 	0.9935	0.8415	0.8332	0.041
Mof_O 	O 	0.997	0.9074	0.8416	-0.293
Mof_O 	O 	0.98	0.785	0.8597	0.168
Mof_C 	C 	0.0441	0.6049	0.9761	-0.429
Mof_H 	H 	0.0949	0.6476	0.9672	-1.282
Mof_C 	C 	0.9783	0.6121	0.9746	-0.56
Mof_C 	C 	0.9005	0.5493	0.9884	3.046
Mof_H 	H 	0.8536	0.5535	0.9844	-0.82
Mof_C 	C 	0.896	0.4801	0.0084	-1.294
Mof_H 	H 	0.8478	0.4413	0.0215	0.513
Mof_C 	C 	0.9637	0.4714	0.008	0.313
Mof_C 	C 	0.9763	0.6855	0.9546	1.106
Mof_O 	O 	0.0371	0.7492	0.9501	-1.45
Mof_O 	O 	0.9061	0.6754	0.9476	0.132
Mof_Zn	Zn	0.17379	0.18817	0.91981	0.694
Mof_N 	N 	0.0566	0.1613	0.9319	-0.603
Mof_N 	N 	0.9919	0.0901	0.9187	-0.234
Mof_N 	N 	0.9222	0.0862	0.9328	0.44
Mof_C 	C 	0.946	0.1577	0.9535	0.113
Mof_H 	H 	0.9105	0.1738	0.9647	-0.01
Mof_C 	C 	0.0269	0.2008	0.9553	0.079
Mof_H 	H 	0.0581	0.2497	0.97	-0.067
Mof_C 	C 	0.1683	0.1814	0.7882	-0.028
Mof_C 	C 	0.2287	0.2526	0.7707	-0.03
Mof_H 	H 	0.2687	0.2994	0.7876	0.039
Mof_C 	C 	0.1488	0.155	0.8331	0.116
Mof_O 	O 	0.0851	0.0881	0.8402	-0.217
Mof_O 	O 	0.1909	0.2102	0.8596	-0.299
Mof_C 	C 	0.4396	0.395	0.9763	-0.227
Mof_H 	H 	0.4479	0.3524	0.9675	-1.308
Mof_C 	C 	0.3654	0.3869	0.9746	-0.379
Mof_C 	C 	0.3506	0.4497	0.9882	3.096
Mof_H 	H 	0.2992	0.445	0.9845	-0.862
Mof_C 	C 	0.4157	0.52	0.0076	-1.252
Mof_H 	H 	0.4063	0.5594	0.02	0.485
Mof_C 	C 	0.4922	0.5288	0.0078	0.314
Mof_C 	C 	0.2911	0.3133	0.9549	1.062
Mof_O 	O 	0.2301	0.3231	0.9477	0.181
Mof_O 	O 	0.2881	0.2494	0.9496	-1.337
Mof_Zn	Zn	0.18818	0.17375	0.9199	0.692
Mof_N 	N 	0.0774	0.1636	0.9328	0.309
Mof_N 	N 	0.0087	0.0985	0.9189	0.111
Mof_N 	N 	0.9437	0.1047	0.9318	-0.701
Mof_C 	C 	0.973	0.1744	0.9547	0.041
Mof_H 	H 	0.9417	0.1924	0.969	-0.047
Mof_C 	C 	0.0539	0.2121	0.9531	-0.049
Mof_H 	H 	0.0894	0.2638	0.9642	0.042
Mof_C 	C 	0.1833	0.1703	0.7881	-0.019
Mof_C 	C 	0.2549	0.2302	0.7705	-0.005
Mof_H 	H 	0.3023	0.2699	0.7867	0.028
Mof_C 	C 	0.1585	0.152	0.8332	0.139
Mof_O 	O 	0.0926	0.0896	0.8416	-0.199
Mof_O 	O 	0.215	0.195	0.8597	-0.175
Mof_C 	C 	0.3951	0.4392	0.9761	-0.292
Mof_H 	H 	0.3524	0.4473	0.9672	-1.368
Mof_C 	C 	0.3879	0.3662	0.9746	-0.446
Mof_C 	C 	0.4507	0.3512	0.9884	2.925
Mof_H 	H 	0.4465	0.3001	0.9844	-0.802
Mof_C 	C 	0.5199	0.4159	0.0084	-1.191
Mof_H 	H 	0.5587	0.4065	0.0215	0.469
Mof_C 	C 	0.5286	0.4923	0.008	0.258
Mof_C 	C 	0.3145	0.2908	0.9546	1.19
Mof_O 	O 	0.2508	0.2879	0.9501	-1.302
Mof_O 	O 	0.3246	0.2307	0.9476	0.163
Mof_Zn	Zn	0.81183	0.98562	0.91981	0.745
Mof_N 	N 	0.8387	0.8953	0.9319	-0.598
Mof_N 	N 	0.9099	0.9018	0.9187	-0.055
Mof_N 	N 	0.9138	0.836	0.9328	0.374
Mof_C 	C 	0.8423	0.7883	0.9535	0.04
Mof_H 	H 	0.8262	0.7367	0.9647	0.02
Mof_C 	C 	0.7992	0.8261	0.9553	0.058
Mof_H 	H 	0.7503	0.8084	0.97	-0.048
Mof_C 	C 	0.8186	0.9869	0.7882	-0.108
Mof_C 	C 	0.7474	0.9761	0.7707	0.256
Mof_H 	H 	0.7006	0.9693	0.7876	-0.022
Mof_C 	C 	0.845	0.9938	0.8331	-0.009
Mof_O 	O 	0.9119	0.997	0.8402	-0.312
Mof_O 	O 	0.7898	0.9807	0.8596	0.055
Mof_C 	C 	0.605	0.0446	0.9763	-0.355
Mof_H 	H 	0.6476	0.0955	0.9675	-1.229
Mof_C 	C 	0.6131	0.9785	0.9746	-0.497
Mof_C 	C 	0.5503	0.9009	0.9882	3.227
Mof_H 	H 	0.555	0.8542	0.9845	-0.883
Mof_C 	C 	0.48	0.8957	0.0076	-1.36
Mof_H 	H 	0.4406	0.8469	0.02	0.529
Mof_C 	C 	0.4712	0.9634	0.0078	0.394
Mof_C 	C 	0.6867	0.9778	0.9549	0.969
Mof_O 	O 	0.6769	0.907	0.9477	0.148
Mof_O 	O 	0.7506	0.0387	0.9496	-1.475
Mof_Zn	Zn	0.82625	0.01443	0.9199	0.642
Mof_N 	N 	0.8364	0.9138	0.9328	0.331
Mof_N 	N 	0.9015	0.9102	0.9189	-0.046
Mof_N 	N 	0.8953	0.839	0.9318	-0.647
Mof_C 	C 	0.8256	0.7986	0.9547	0.055
Mof_H 	H 	0.8076	0.7493	0.969	-0.061
Mof_C 	C 	0.7879	0.8418	0.9531	0.026
Mof_H 	H 	0.7362	0.8256	0.9642	0.014
Mof_C 	C 	0.8297	0.013	0.7881	0.089
Mof_C 	C 	0.7698	0.0247	0.7705	-0.301
Mof_H 	H 	0.7301	0.0324	0.7867	0.106
Mof_C 	C 	0.848	0.0065	0.8332	0.235
Mof_O 	O 	0.9104	0.003	0.8416	-0.042
Mof_O 	O 	0.805	0.02	0.8597	-0.51
Mof_C 	C 	0.5608	0.9559	0.9761	-0.154
Mof_H 	H 	0.5527	0.9051	0.9672	-1.458
Mof_C 	C 	0.6338	0.0217	0.9746	-0.334
Mof_C 	C 	0.6488	0.0995	0.9884	2.815
Mof_H 	H 	0.6999	0.1464	0.9844	-0.782
Mof_C 	C 	0.5841	0.104	0.0084	-1.096
Mof_H 	H 	0.5935	0.1522	0.0215	0.428
Mof_C 	C 	0.5077	0.0363	0.008	0.198
Mof_C 	C 	0.7092	0.0237	0.9546	1.283
Mof_O 	O 	0.7121	0.9629	0.9501	-1.163
Mof_O 	O 	0.7693	0.0939	0.9476	0.209
Mof_Zn	Zn	0.82621	0.01438	0.58019	0.646
Mof_N 	N 	0.9434	0.1047	0.5681	-0.64
Mof_N 	N 	0.0081	0.0982	0.5813	0.103
Mof_N 	N 	0.0778	0.164	0.5672	0.348
Mof_C 	C 	0.054	0.2117	0.5465	-0.034
Mof_H 	H 	0.0895	0.2633	0.5353	0.049
Mof_C 	C 	0.9731	0.1739	0.5447	0.044
Mof_H 	H 	0.9419	0.1916	0.53	-0.035
Mof_C 	C 	0.8317	0.0131	0.7118	0.074
Mof_C 	C 	0.7713	0.0239	0.7293	-0.316
Mof_H 	H 	0.7313	0.0307	0.7124	0.106
Mof_C 	C 	0.8512	0.0062	0.6669	0.242
Mof_O 	O 	0.9149	0.003	0.6598	-0.08
Mof_O 	O 	0.8091	0.0193	0.6404	-0.638
Mof_C 	C 	0.5604	0.9554	0.5237	-0.098
Mof_H 	H 	0.5521	0.9045	0.5325	-1.393
Mof_C 	C 	0.6346	0.0215	0.5254	-0.264
Mof_C 	C 	0.6494	0.0991	0.5118	2.978
Mof_H 	H 	0.7008	0.1458	0.5155	-0.84
Mof_C 	C 	0.5843	0.1043	0.4924	-1.153
Mof_H 	H 	0.5937	0.1531	0.48	0.443
Mof_C 	C 	0.5078	0.0366	0.4922	0.232
Mof_C 	C 	0.7089	0.0222	0.5451	1.163
Mof_O 	O 	0.7699	0.093	0.5523	0.228
Mof_O 	O 	0.7119	0.9613	0.5504	-1.209
Mof_Zn	Zn	0.81182	0.98557	0.5801	0.744
Mof_N 	N 	0.9226	0.0862	0.5672	0.387
Mof_N 	N 	0.9913	0.0898	0.5811	-0.227
Mof_N 	N 	0.0563	0.161	0.5682	-0.647
Mof_C 	C 	0.027	0.2014	0.5453	0.075
Mof_H 	H 	0.0583	0.2507	0.531	-0.08
Mof_C 	C 	0.9461	0.1582	0.5469	0.098
Mof_H 	H 	0.9106	0.1744	0.5358	-0.015
Mof_C 	C 	0.8167	0.987	0.7119	-0.101
Mof_C 	C 	0.7451	0.9753	0.7295	0.291
Mof_H 	H 	0.6977	0.9676	0.7133	-0.042
Mof_C 	C 	0.8415	0.9935	0.6668	0.04
Mof_O 	O 	0.9074	0.997	0.6584	-0.294
Mof_O 	O 	0.785	0.98	0.6403	0.17
Mof_C 	C 	0.6049	0.0441	0.5239	-0.43
Mof_H 	H 	0.6476	0.0949	0.5328	-1.283
Mof_C 	C 	0.6121	0.9783	0.5254	-0.561
Mof_C 	C 	0.5493	0.9005	0.5116	3.048
Mof_H 	H 	0.5535	0.8536	0.5156	-0.82
Mof_C 	C 	0.4801	0.896	0.4916	-1.295
Mof_H 	H 	0.4413	0.8478	0.4785	0.513
Mof_C 	C 	0.4714	0.9637	0.492	0.315
Mof_C 	C 	0.6855	0.9763	0.5454	1.105
Mof_O 	O 	0.7492	0.0371	0.5499	-1.451
Mof_O 	O 	0.6754	0.9061	0.5524	0.132
Mof_Zn	Zn	0.18817	0.17379	0.58019	0.694
Mof_N 	N 	0.1613	0.0566	0.5681	-0.603
Mof_N 	N 	0.0901	0.9919	0.5813	-0.235
Mof_N 	N 	0.0862	0.9222	0.5672	0.44
Mof_C 	C 	0.1577	0.946	0.5465	0.114
Mof_H 	H 	0.1738	0.9105	0.5353	-0.01
Mof_C 	C 	0.2008	0.0269	0.5447	0.079
Mof_H 	H 	0.2497	0.0581	0.53	-0.067
Mof_C 	C 	0.1814	0.1683	0.7118	-0.028
Mof_C 	C 	0.2526	0.2287	0.7293	-0.03
Mof_H 	H 	0.2994	0.2687	0.7124	0.039
Mof_C 	C 	0.155	0.1488	0.6669	0.116
Mof_O 	O 	0.0881	0.0851	0.6598	-0.217
Mof_O 	O 	0.2102	0.1909	0.6404	-0.299
Mof_C 	C 	0.395	0.4396	0.5237	-0.227
Mof_H 	H 	0.3524	0.4479	0.5325	-1.309
Mof_C 	C 	0.3869	0.3654	0.5254	-0.379
Mof_C 	C 	0.4497	0.3506	0.5118	3.097
Mof_H 	H 	0.445	0.2992	0.5155	-0.862
Mof_C 	C 	0.52	0.4157	0.4924	-1.252
Mof_H 	H 	0.5594	0.4063	0.48	0.485
Mof_C 	C 	0.5288	0.4922	0.4922	0.315
Mof_C 	C 	0.3133	0.2911	0.5451	1.062
Mof_O 	O 	0.3231	0.2301	0.5523	0.181
Mof_O 	O 	0.2494	0.2881	0.5504	-1.337
Mof_Zn	Zn	0.17375	0.18818	0.5801	0.692
Mof_N 	N 	0.1636	0.0774	0.5672	0.309
Mof_N 	N 	0.0985	0.0087	0.5811	0.112
Mof_N 	N 	0.1047	0.9437	0.5682	-0.701
Mof_C 	C 	0.1744	0.973	0.5453	0.041
Mof_H 	H 	0.1924	0.9417	0.531	-0.047
Mof_C 	C 	0.2121	0.0539	0.5469	-0.049
Mof_H 	H 	0.2638	0.0894	0.5358	0.042
Mof_C 	C 	0.1703	0.1833	0.7119	-0.019
Mof_C 	C 	0.2302	0.2549	0.7295	-0.005
Mof_H 	H 	0.2699	0.3023	0.7133	0.028
Mof_C 	C 	0.152	0.1585	0.6668	0.139
Mof_O 	O 	0.0896	0.0926	0.6584	-0.199
Mof_O 	O 	0.195	0.215	0.6403	-0.175
Mof_C 	C 	0.4392	0.3951	0.5239	-0.292
Mof_H 	H 	0.4473	0.3524	0.5328	-1.368
Mof_C 	C 	0.3662	0.3879	0.5254	-0.446
Mof_C 	C 	0.3512	0.4507	0.5116	2.926
Mof_H 	H 	0.3001	0.4465	0.5156	-0.802
Mof_C 	C 	0.4159	0.5199	0.4916	-1.191
Mof_H 	H 	0.4065	0.5587	0.4785	0.469
Mof_C 	C 	0.4923	0.5286	0.492	0.259
Mof_C 	C 	0.2908	0.3145	0.5454	1.19
Mof_O 	O 	0.2879	0.2508	0.5499	-1.302
Mof_O 	O 	0.2307	0.3246	0.5524	0.163
Mof_Zn	Zn	0.98562	0.81183	0.58019	0.745
Mof_N 	N 	0.8953	0.8387	0.5681	-0.598
Mof_N 	N 	0.9018	0.9099	0.5813	-0.055
Mof_N 	N 	0.836	0.9138	0.5672	0.374
Mof_C 	C 	0.7883	0.8423	0.5465	0.04
Mof_H 	H 	0.7367	0.8262	0.5353	0.02
Mof_C 	C 	0.8261	0.7992	0.5447	0.058
Mof_H 	H 	0.8084	0.7503	0.53	-0.048
Mof_C 	C 	0.9869	0.8186	0.7118	-0.108
Mof_C 	C 	0.9761	0.7474	0.7293	0.256
Mof_H 	H 	0.9693	0.7006	0.7124	-0.022
Mof_C 	C 	0.9938	0.845	0.6669	-0.009
Mof_O 	O 	0.997	0.9119	0.6598	-0.312
Mof_O 	O 	0.9807	0.7898	0.6404	0.055
Mof_C 	C 	0.0446	0.605	0.5237	-0.355
Mof_H 	H 	0.0955	0.6476	0.5325	-1.229
Mof_C 	C 	0.9785	0.6131	0.5254	-0.498
Mof_C 	C 	0.9009	0.5503	0.5118	3.229
Mof_H 	H 	0.8542	0.555	0.5155	-0.883
Mof_C 	C 	0.8957	0.48	0.4924	-1.361
Mof_H 	H 	0.8469	0.4406	0.48	0.529
Mof_C 	C 	0.9634	0.4712	0.4922	0.396
Mof_C 	C 	0.9778	0.6867	0.5451	0.969
Mof_O 	O 	0.907	0.6769	0.5523	0.148
Mof_O 	O 	0.0387	0.7506	0.5504	-1.476
Mof_Zn	Zn	0.01443	0.82625	0.5801	0.642
Mof_N 	N 	0.9138	0.8364	0.5672	0.331
Mof_N 	N 	0.9102	0.9015	0.5811	-0.046
Mof_N 	N 	0.839	0.8953	0.5682	-0.647
Mof_C 	C 	0.7986	0.8256	0.5453	0.055
Mof_H 	H 	0.7493	0.8076	0.531	-0.061
Mof_C 	C 	0.8418	0.7879	0.5469	0.026
Mof_H 	H 	0.8256	0.7362	0.5358	0.014
Mof_C 	C 	0.013	0.8297	0.7119	0.09
Mof_C 	C 	0.0247	0.7698	0.7295	-0.301
Mof_H 	H 	0.0324	0.7301	0.7133	0.105
Mof_C 	C 	0.0065	0.848	0.6668	0.235
Mof_O 	O 	0.003	0.9104	0.6584	-0.042
Mof_O 	O 	0.02	0.805	0.6403	-0.51
Mof_C 	C 	0.9559	0.5608	0.5239	-0.153
Mof_H 	H 	0.9051	0.5527	0.5328	-1.459
Mof_C 	C 	0.0217	0.6338	0.5254	-0.334
Mof_C 	C 	0.0995	0.6488	0.5116	2.815
Mof_H 	H 	0.1464	0.6999	0.5156	-0.782
Mof_C 	C 	0.104	0.5841	0.4916	-1.096
Mof_H 	H 	0.1522	0.5935	0.4785	0.428
Mof_C 	C 	0.0363	0.5077	0.492	0.199
Mof_C 	C 	0.0237	0.7092	0.5454	1.283
Mof_O 	O 	0.9629	0.7121	0.5499	-1.163
Mof_O 	O 	0.0939	0.7693	0.5524	0.209
Mof_Zn	Zn	-0	0	0.11972	1.128
Mof_Zn	Zn	5.20066e-33	0	0.38028	1.128
Mof_Zn	Zn	3.12039e-32	2.08026e-32	0.88028	1.128
Mof_Zn	Zn	-0	2.08026e-32	0.61972	1.128
Mof_S 	S 	-5.23746e-18	0.1111	0.25	-0.02
Mof_S 	S 	6.47338e-18	0.1134	0.25	-0.023
Mof_S 	S 	0.8889	0.8889	0.25	0.042
Mof_S 	S 	0.8866	0.8866	0.25	0.043
Mof_S 	S 	0.1111	1.04013e-32	0.25	-0.02
Mof_S 	S 	0.1134	1.04013e-32	0.25	-0.023
Mof_S 	S 	3.1131e-17	0.8889	0.75	0.002
Mof_S 	S 	3.1131e-17	0.8866	0.75	0.003
Mof_S 	S 	0.1111	0.1111	0.75	0.004
Mof_S 	S 	0.1134	0.1134	0.75	-0.002
Mof_S 	S 	0.8889	2.08026e-32	0.75	0.002
Mof_S 	S 	0.8866	2.08026e-32	0.75	0.003
_end
