data_functionalizedCrystal
_audit_creation_method	'EQeq! by Chris Wilmer'
_symmetry_space_group_name_H-M	'P1'
_symmetry_Int_Tables_number	1
_symmetry_cell_setting	triclinic
loop_
_symmetry_equiv_pos_as_xyz
  x,y,z
_cell_length_a	20.888
_cell_length_b	22.219
_cell_length_c	7.8466
_cell_angle_alpha	90
_cell_angle_beta	90
_cell_angle_gamma	90
loop_
_atom_site_label
_atom_site_type_symbol
_atom_site_fract_x
_atom_site_fract_y
_atom_site_fract_z
_atom_site_charge
Mof_S 	S 	0.3531	0.65503	0.61109	-0.054
Mof_C 	C 	0.4043	0.6064	0.7349	-0.376
Mof_C 	C 	0.3349	0.60937	0.4227	-0.328
Mof_H 	H 	0.3817	0.5688	0.7604	0.131
Mof_H 	H 	0.416	0.6265	0.8416	0.191
Mof_H 	H 	0.4432	0.5974	0.6698	0.123
Mof_H 	H 	0.3094	0.6337	0.3419	0.259
Mof_H 	H 	0.3755	0.5984	0.3654	0.16
Mof_C 	C 	0.29878	0.55307	0.4646	0.262
Mof_C 	C 	0.2322	0.55286	0.467	-0.339
Mof_H 	H 	0.2094	0.5891	0.446	0.187
Mof_F 	F 	0.3505	0.6917	0.0386	-0.706
Mof_F 	F 	0.2905	0.7001	0.0578	-0.613
Mof_F 	F 	0.357	0.7804	0.191	-1.904
Mof_F 	F 	0.317	0.6892	0.1	0.398
Mof_F 	F 	0.2701	0.7773	0.009	-0.768
Mof_S 	S 	0.8531	0.15503	0.11109	-0.055
Mof_C 	C 	0.9043	0.1064	0.2349	-0.374
Mof_C 	C 	0.8349	0.10937	0.9227	-0.326
Mof_H 	H 	0.8817	0.0688	0.2604	0.131
Mof_H 	H 	0.916	0.1265	0.3416	0.191
Mof_H 	H 	0.9432	0.0974	0.1698	0.119
Mof_H 	H 	0.8094	0.1337	0.8419	0.258
Mof_H 	H 	0.8755	0.0984	0.8654	0.157
Mof_C 	C 	0.79878	0.05307	0.9646	0.256
Mof_C 	C 	0.7322	0.05286	0.967	-0.341
Mof_H 	H 	0.7094	0.0891	0.946	0.187
Mof_F 	F 	0.8505	0.1917	0.5386	-0.713
Mof_F 	F 	0.7905	0.2001	0.5578	-0.618
Mof_F 	F 	0.857	0.2804	0.691	-1.907
Mof_F 	F 	0.817	0.1892	0.6	0.404
Mof_F 	F 	0.7701	0.2773	0.509	-0.769
Mof_S 	S 	0.6469	0.84497	0.61109	-0.056
Mof_C 	C 	0.5957	0.8936	0.7349	-0.374
Mof_C 	C 	0.6651	0.89063	0.4227	-0.327
Mof_H 	H 	0.6183	0.9312	0.7604	0.129
Mof_H 	H 	0.584	0.8735	0.8416	0.191
Mof_H 	H 	0.5568	0.9026	0.6698	0.122
Mof_H 	H 	0.6906	0.8663	0.3419	0.259
Mof_H 	H 	0.6245	0.9016	0.3654	0.16
Mof_C 	C 	0.70122	0.94693	0.4646	0.26
Mof_C 	C 	0.7678	0.94714	0.467	-0.344
Mof_H 	H 	0.7906	0.9109	0.446	0.188
Mof_F 	F 	0.6495	0.8083	0.0386	-0.706
Mof_F 	F 	0.7095	0.7999	0.0578	-0.612
Mof_F 	F 	0.643	0.7196	0.191	-1.903
Mof_F 	F 	0.683	0.8108	0.1	0.397
Mof_F 	F 	0.7299	0.7227	0.009	-0.767
Mof_S 	S 	0.1469	0.34497	0.11109	-0.05
Mof_C 	C 	0.0957	0.3936	0.2349	-0.386
Mof_C 	C 	0.1651	0.39063	0.9227	-0.33
Mof_H 	H 	0.1183	0.4312	0.2604	0.137
Mof_H 	H 	0.084	0.3735	0.3416	0.2
Mof_H 	H 	0.0568	0.4026	0.1698	0.131
Mof_H 	H 	0.1906	0.3663	0.8419	0.259
Mof_H 	H 	0.1245	0.4016	0.8654	0.16
Mof_C 	C 	0.20122	0.44693	0.9646	0.258
Mof_C 	C 	0.2678	0.44714	0.967	-0.347
Mof_H 	H 	0.2906	0.4109	0.946	0.188
Mof_F 	F 	0.1495	0.3083	0.5386	-0.711
Mof_F 	F 	0.2095	0.2999	0.5578	-0.617
Mof_F 	F 	0.143	0.2196	0.691	-1.902
Mof_F 	F 	0.183	0.3108	0.6	0.402
Mof_F 	F 	0.2299	0.2227	0.509	-0.768
Mof_S 	S 	0.6469	0.15503	0.38891	-0.054
Mof_C 	C 	0.5957	0.1064	0.2651	-0.38
Mof_C 	C 	0.6651	0.10937	0.5773	-0.328
Mof_H 	H 	0.6183	0.0688	0.2396	0.134
Mof_H 	H 	0.584	0.1265	0.1584	0.196
Mof_H 	H 	0.5568	0.0974	0.3302	0.124
Mof_H 	H 	0.6906	0.1337	0.6581	0.259
Mof_H 	H 	0.6245	0.0984	0.6346	0.16
Mof_C 	C 	0.70122	0.05307	0.5354	0.262
Mof_C 	C 	0.7678	0.05286	0.533	-0.341
Mof_H 	H 	0.7906	0.0891	0.554	0.187
Mof_F 	F 	0.6495	0.1917	0.9614	-0.712
Mof_F 	F 	0.7095	0.2001	0.9422	-0.617
Mof_F 	F 	0.643	0.2804	0.809	-1.905
Mof_F 	F 	0.683	0.1892	0.9	0.403
Mof_F 	F 	0.7299	0.2773	0.991	-0.768
Mof_S 	S 	0.1469	0.65503	0.88891	-0.065
Mof_C 	C 	0.0957	0.6064	0.7651	-0.378
Mof_C 	C 	0.1651	0.60937	0.0773	-0.317
Mof_H 	H 	0.1183	0.5688	0.7396	0.133
Mof_H 	H 	0.084	0.6265	0.6584	0.197
Mof_H 	H 	0.0568	0.5974	0.8302	0.125
Mof_H 	H 	0.1906	0.6337	0.1581	0.257
Mof_H 	H 	0.1245	0.5984	0.1346	0.16
Mof_C 	C 	0.20122	0.55307	0.0354	0.261
Mof_C 	C 	0.2678	0.55286	0.033	-0.339
Mof_H 	H 	0.2906	0.5891	0.054	0.189
Mof_F 	F 	0.1495	0.6917	0.4614	-0.711
Mof_F 	F 	0.2095	0.7001	0.4422	-0.617
Mof_F 	F 	0.143	0.7804	0.309	-1.908
Mof_F 	F 	0.183	0.6892	0.4	0.404
Mof_F 	F 	0.2299	0.7773	0.491	-0.769
Mof_S 	S 	0.3531	0.34497	0.38891	-0.054
Mof_C 	C 	0.4043	0.3936	0.2651	-0.38
Mof_C 	C 	0.3349	0.39063	0.5773	-0.328
Mof_H 	H 	0.3817	0.4312	0.2396	0.134
Mof_H 	H 	0.416	0.3735	0.1584	0.196
Mof_H 	H 	0.4432	0.4026	0.3302	0.124
Mof_H 	H 	0.3094	0.3663	0.6581	0.258
Mof_H 	H 	0.3755	0.4016	0.6346	0.159
Mof_C 	C 	0.29878	0.44693	0.5354	0.261
Mof_C 	C 	0.2322	0.44714	0.533	-0.339
Mof_H 	H 	0.2094	0.4109	0.554	0.187
Mof_F 	F 	0.3505	0.3083	0.9614	-0.713
Mof_F 	F 	0.2905	0.2999	0.9422	-0.618
Mof_F 	F 	0.357	0.2196	0.809	-1.905
Mof_F 	F 	0.317	0.3108	0.9	0.403
Mof_F 	F 	0.2701	0.2227	0.991	-0.769
Mof_S 	S 	0.8531	0.84497	0.88891	-0.071
Mof_C 	C 	0.9043	0.8936	0.7651	-0.365
Mof_C 	C 	0.8349	0.89063	0.0773	-0.312
Mof_H 	H 	0.8817	0.9312	0.7396	0.126
Mof_H 	H 	0.916	0.8735	0.6584	0.188
Mof_H 	H 	0.9432	0.9026	0.8302	0.112
Mof_H 	H 	0.8094	0.8663	0.1581	0.256
Mof_H 	H 	0.8755	0.9016	0.1346	0.155
Mof_C 	C 	0.79878	0.94693	0.0354	0.257
Mof_C 	C 	0.7322	0.94714	0.033	-0.335
Mof_H 	H 	0.7094	0.9109	0.054	0.188
Mof_F 	F 	0.8505	0.8083	0.4614	-0.713
Mof_F 	F 	0.7905	0.7999	0.4422	-0.618
Mof_F 	F 	0.857	0.7196	0.309	-1.912
Mof_F 	F 	0.817	0.8108	0.4	0.406
Mof_F 	F 	0.7701	0.7227	0.491	-0.77
Mof_S 	S 	0.6469	0.34497	0.38891	-0.054
Mof_C 	C 	0.5957	0.3936	0.2651	-0.38
Mof_C 	C 	0.6651	0.39063	0.5773	-0.328
Mof_H 	H 	0.6183	0.4312	0.2396	0.134
Mof_H 	H 	0.584	0.3735	0.1584	0.196
Mof_H 	H 	0.5568	0.4026	0.3302	0.124
Mof_H 	H 	0.6906	0.3663	0.6581	0.259
Mof_H 	H 	0.6245	0.4016	0.6346	0.159
Mof_C 	C 	0.70122	0.44693	0.5354	0.262
Mof_C 	C 	0.7678	0.44714	0.533	-0.339
Mof_H 	H 	0.7906	0.4109	0.554	0.187
Mof_F 	F 	0.6495	0.3083	0.9614	-0.713
Mof_F 	F 	0.7095	0.2999	0.9422	-0.618
Mof_F 	F 	0.643	0.2196	0.809	-1.905
Mof_F 	F 	0.683	0.3108	0.9	0.403
Mof_F 	F 	0.7299	0.2227	0.991	-0.769
Mof_S 	S 	0.1469	0.84497	0.88891	-0.067
Mof_C 	C 	0.0957	0.8936	0.7651	-0.377
Mof_C 	C 	0.1651	0.89063	0.0773	-0.315
Mof_H 	H 	0.1183	0.9312	0.7396	0.131
Mof_H 	H 	0.084	0.8735	0.6584	0.196
Mof_H 	H 	0.0568	0.9026	0.8302	0.124
Mof_H 	H 	0.1906	0.8663	0.1581	0.257
Mof_H 	H 	0.1245	0.9016	0.1346	0.159
Mof_C 	C 	0.20122	0.94693	0.0354	0.261
Mof_C 	C 	0.2678	0.94714	0.033	-0.338
Mof_H 	H 	0.2906	0.9109	0.054	0.189
Mof_F 	F 	0.1495	0.8083	0.4614	-0.711
Mof_F 	F 	0.2095	0.7999	0.4422	-0.617
Mof_F 	F 	0.143	0.7196	0.309	-1.908
Mof_F 	F 	0.183	0.8108	0.4	0.404
Mof_F 	F 	0.2299	0.7227	0.491	-0.769
Mof_S 	S 	0.3531	0.15503	0.38891	-0.054
Mof_C 	C 	0.4043	0.1064	0.2651	-0.38
Mof_C 	C 	0.3349	0.10937	0.5773	-0.328
Mof_H 	H 	0.3817	0.0688	0.2396	0.134
Mof_H 	H 	0.416	0.1265	0.1584	0.196
Mof_H 	H 	0.4432	0.0974	0.3302	0.124
Mof_H 	H 	0.3094	0.1337	0.6581	0.259
Mof_H 	H 	0.3755	0.0984	0.6346	0.16
Mof_C 	C 	0.29878	0.05307	0.5354	0.261
Mof_C 	C 	0.2322	0.05286	0.533	-0.34
Mof_H 	H 	0.2094	0.0891	0.554	0.187
Mof_F 	F 	0.3505	0.1917	0.9614	-0.713
Mof_F 	F 	0.2905	0.2001	0.9422	-0.618
Mof_F 	F 	0.357	0.2804	0.809	-1.905
Mof_F 	F 	0.317	0.1892	0.9	0.403
Mof_F 	F 	0.2701	0.2773	0.991	-0.769
Mof_S 	S 	0.8531	0.65503	0.88891	-0.069
Mof_C 	C 	0.9043	0.6064	0.7651	-0.366
Mof_C 	C 	0.8349	0.60937	0.0773	-0.313
Mof_H 	H 	0.8817	0.5688	0.7396	0.127
Mof_H 	H 	0.916	0.6265	0.6584	0.188
Mof_H 	H 	0.9432	0.5974	0.8302	0.113
Mof_H 	H 	0.8094	0.6337	0.1581	0.256
Mof_H 	H 	0.8755	0.5984	0.1346	0.156
Mof_C 	C 	0.79878	0.55307	0.0354	0.258
Mof_C 	C 	0.7322	0.55286	0.033	-0.336
Mof_H 	H 	0.7094	0.5891	0.054	0.188
Mof_F 	F 	0.8505	0.6917	0.4614	-0.713
Mof_F 	F 	0.7905	0.7001	0.4422	-0.618
Mof_F 	F 	0.857	0.7804	0.309	-1.912
Mof_F 	F 	0.817	0.6892	0.4	0.406
Mof_F 	F 	0.7701	0.7773	0.491	-0.77
Mof_S 	S 	0.3531	0.84497	0.61109	-0.056
Mof_C 	C 	0.4043	0.8936	0.7349	-0.374
Mof_C 	C 	0.3349	0.89063	0.4227	-0.327
Mof_H 	H 	0.3817	0.9312	0.7604	0.129
Mof_H 	H 	0.416	0.8735	0.8416	0.191
Mof_H 	H 	0.4432	0.9026	0.6698	0.122
Mof_H 	H 	0.3094	0.8663	0.3419	0.259
Mof_H 	H 	0.3755	0.9016	0.3654	0.16
Mof_C 	C 	0.29878	0.94693	0.4646	0.26
Mof_C 	C 	0.2322	0.94714	0.467	-0.343
Mof_H 	H 	0.2094	0.9109	0.446	0.188
Mof_F 	F 	0.3505	0.8083	0.0386	-0.706
Mof_F 	F 	0.2905	0.7999	0.0578	-0.612
Mof_F 	F 	0.357	0.7196	0.191	-1.904
Mof_F 	F 	0.317	0.8108	0.1	0.397
Mof_F 	F 	0.2701	0.7227	0.009	-0.767
Mof_S 	S 	0.8531	0.34497	0.11109	-0.054
Mof_C 	C 	0.9043	0.3936	0.2349	-0.374
Mof_C 	C 	0.8349	0.39063	0.9227	-0.326
Mof_H 	H 	0.8817	0.4312	0.2604	0.131
Mof_H 	H 	0.916	0.3735	0.3416	0.191
Mof_H 	H 	0.9432	0.4026	0.1698	0.119
Mof_H 	H 	0.8094	0.3663	0.8419	0.258
Mof_H 	H 	0.8755	0.4016	0.8654	0.156
Mof_C 	C 	0.79878	0.44693	0.9646	0.254
Mof_C 	C 	0.7322	0.44714	0.967	-0.344
Mof_H 	H 	0.7094	0.4109	0.946	0.187
Mof_F 	F 	0.8505	0.3083	0.5386	-0.713
Mof_F 	F 	0.7905	0.2999	0.5578	-0.618
Mof_F 	F 	0.857	0.2196	0.691	-1.907
Mof_F 	F 	0.817	0.3108	0.6	0.404
Mof_F 	F 	0.7701	0.2227	0.509	-0.769
Mof_S 	S 	0.6469	0.65503	0.61109	-0.055
Mof_C 	C 	0.5957	0.6064	0.7349	-0.376
Mof_C 	C 	0.6651	0.60937	0.4227	-0.328
Mof_H 	H 	0.6183	0.5688	0.7604	0.131
Mof_H 	H 	0.584	0.6265	0.8416	0.191
Mof_H 	H 	0.5568	0.5974	0.6698	0.123
Mof_H 	H 	0.6906	0.6337	0.3419	0.259
Mof_H 	H 	0.6245	0.5984	0.3654	0.16
Mof_C 	C 	0.70122	0.55307	0.4646	0.262
Mof_C 	C 	0.7678	0.55286	0.467	-0.34
Mof_H 	H 	0.7906	0.5891	0.446	0.187
Mof_F 	F 	0.6495	0.6917	0.0386	-0.706
Mof_F 	F 	0.7095	0.7001	0.0578	-0.613
Mof_F 	F 	0.643	0.7804	0.191	-1.903
Mof_F 	F 	0.683	0.6892	0.1	0.398
Mof_F 	F 	0.7299	0.7773	0.009	-0.768
Mof_S 	S 	0.1469	0.15503	0.11109	-0.051
Mof_C 	C 	0.0957	0.1064	0.2349	-0.386
Mof_C 	C 	0.1651	0.10937	0.9227	-0.329
Mof_H 	H 	0.1183	0.0688	0.2604	0.137
Mof_H 	H 	0.084	0.1265	0.3416	0.2
Mof_H 	H 	0.0568	0.0974	0.1698	0.131
Mof_H 	H 	0.1906	0.1337	0.8419	0.259
Mof_H 	H 	0.1245	0.0984	0.8654	0.161
Mof_C 	C 	0.20122	0.05307	0.9646	0.26
Mof_C 	C 	0.2678	0.05286	0.967	-0.343
Mof_H 	H 	0.2906	0.0891	0.946	0.188
Mof_F 	F 	0.1495	0.1917	0.5386	-0.711
Mof_F 	F 	0.2095	0.2001	0.5578	-0.617
Mof_F 	F 	0.143	0.2804	0.691	-1.903
Mof_F 	F 	0.183	0.1892	0.6	0.402
Mof_F 	F 	0.2299	0.2773	0.509	-0.768
Mof_Ag	Ag	0.25	0.66253	0.75	1.079
Mof_Ag	Ag	0.75	0.83747	0.75	1.079
Mof_Ag	Ag	0.75	0.16253	0.25	1.087
Mof_Ag	Ag	0.25	0.33747	0.25	1.086
Mof_Ag	Ag	0.75	0.33747	0.25	1.087
Mof_Ag	Ag	0.25	0.16253	0.25	1.086
Mof_Ag	Ag	0.25	0.83747	0.75	1.078
Mof_Ag	Ag	0.75	0.66253	0.75	1.08
Mof_Ag	Ag	0.41336	0.75	0.53243	0.584
Mof_B 	B 	0.33	0.75	0.0727	1.09
Mof_F 	F 	0.2666	0.75	0.0183	0.535
Mof_F 	F 	0.3268	0.75	0.2507	-0.664
Mof_Ag	Ag	0.3976	0.75	0.4688	0.237
Mof_B 	B 	0.3303	0.75	0.065	1.214
Mof_F 	F 	0.3728	0.75	0.9287	-0.269
Mof_F 	F 	0.3635	0.75	0.2187	2.22
Mof_B 	B 	0.3287	0.75	0.053	1.363
Mof_F 	F 	0.3702	0.75	0.911	-0.483
Mof_Ag	Ag	0.91336	0.25	0.03243	0.577
Mof_B 	B 	0.83	0.25	0.5727	1.088
Mof_F 	F 	0.7666	0.25	0.5183	0.534
Mof_F 	F 	0.8268	0.25	0.7507	-0.663
Mof_Ag	Ag	0.8976	0.25	0.9688	0.232
Mof_B 	B 	0.8303	0.25	0.565	1.213
Mof_F 	F 	0.8728	0.25	0.4287	-0.267
Mof_F 	F 	0.8635	0.25	0.7187	2.223
Mof_B 	B 	0.8287	0.25	0.553	1.363
Mof_F 	F 	0.8702	0.25	0.411	-0.479
Mof_Ag	Ag	0.58664	0.75	0.53243	0.584
Mof_B 	B 	0.67	0.75	0.0727	1.09
Mof_F 	F 	0.7334	0.75	0.0183	0.535
Mof_F 	F 	0.6732	0.75	0.2507	-0.663
Mof_Ag	Ag	0.6024	0.75	0.4688	0.237
Mof_B 	B 	0.6697	0.75	0.065	1.214
Mof_F 	F 	0.6272	0.75	0.9287	-0.269
Mof_F 	F 	0.6365	0.75	0.2187	2.22
Mof_B 	B 	0.6713	0.75	0.053	1.363
Mof_F 	F 	0.6298	0.75	0.911	-0.483
Mof_Ag	Ag	0.08664	0.25	0.03243	0.577
Mof_B 	B 	0.17	0.25	0.5727	1.087
Mof_F 	F 	0.2334	0.25	0.5183	0.533
Mof_F 	F 	0.1732	0.25	0.7507	-0.664
Mof_Ag	Ag	0.1024	0.25	0.9688	0.248
Mof_B 	B 	0.1697	0.25	0.565	1.212
Mof_F 	F 	0.1272	0.25	0.4287	-0.266
Mof_F 	F 	0.1365	0.25	0.7187	2.218
Mof_B 	B 	0.1713	0.25	0.553	1.363
Mof_F 	F 	0.1298	0.25	0.411	-0.477
Mof_Ag	Ag	0.58664	0.25	0.46757	0.582
Mof_B 	B 	0.67	0.25	0.9273	1.087
Mof_F 	F 	0.7334	0.25	0.9817	0.534
Mof_F 	F 	0.6732	0.25	0.7493	-0.663
Mof_Ag	Ag	0.6024	0.25	0.5312	0.239
Mof_B 	B 	0.6697	0.25	0.935	1.212
Mof_F 	F 	0.6272	0.25	0.0713	-0.266
Mof_F 	F 	0.6365	0.25	0.7813	2.221
Mof_B 	B 	0.6713	0.25	0.947	1.363
Mof_F 	F 	0.6298	0.25	0.089	-0.478
Mof_Ag	Ag	0.08664	0.75	0.96757	0.656
Mof_B 	B 	0.17	0.75	0.4273	1.087
Mof_F 	F 	0.2334	0.75	0.4817	0.535
Mof_F 	F 	0.1732	0.75	0.2493	-0.662
Mof_Ag	Ag	0.1024	0.75	0.0312	0.17
Mof_B 	B 	0.1697	0.75	0.435	1.212
Mof_F 	F 	0.1272	0.75	0.5713	-0.267
Mof_F 	F 	0.1365	0.75	0.2813	2.232
Mof_B 	B 	0.1713	0.75	0.447	1.362
Mof_F 	F 	0.1298	0.75	0.589	-0.477
Mof_Ag	Ag	0.41336	0.25	0.46757	0.582
Mof_B 	B 	0.33	0.25	0.9273	1.087
Mof_F 	F 	0.2666	0.25	0.9817	0.534
Mof_F 	F 	0.3268	0.25	0.7493	-0.664
Mof_Ag	Ag	0.3976	0.25	0.5312	0.239
Mof_B 	B 	0.3303	0.25	0.935	1.213
Mof_F 	F 	0.3728	0.25	0.0713	-0.266
Mof_F 	F 	0.3635	0.25	0.7813	2.221
Mof_B 	B 	0.3287	0.25	0.947	1.363
Mof_F 	F 	0.3702	0.25	0.089	-0.478
Mof_Ag	Ag	0.91336	0.75	0.96757	0.656
Mof_B 	B 	0.83	0.75	0.4273	1.088
Mof_F 	F 	0.7666	0.75	0.4817	0.537
Mof_F 	F 	0.8268	0.75	0.2493	-0.661
Mof_Ag	Ag	0.8976	0.75	0.0312	0.154
Mof_B 	B 	0.8303	0.75	0.435	1.213
Mof_F 	F 	0.8728	0.75	0.5713	-0.268
Mof_F 	F 	0.8635	0.75	0.2813	2.236
Mof_B 	B 	0.8287	0.75	0.447	1.363
Mof_F 	F 	0.8702	0.75	0.589	-0.479
Mof_O 	O 	0.5	0.7627	0.3481	-0.122
Mof_O 	O 	1.19452e-33	0.2627	0.8481	-0.12
Mof_O 	O 	0.5	0.7373	0.3481	-0.123
Mof_O 	O 	-2.27139e-33	0.2373	0.8481	-0.116
Mof_O 	O 	0.5	0.2627	0.6519	-0.125
Mof_O 	O 	-2.38549e-33	0.7627	0.1519	-0.115
Mof_O 	O 	0.5	0.2373	0.6519	-0.122
Mof_O 	O 	-9.31731e-33	0.7373	0.1519	-0.117
Mof_C 	C 	0.3316	0.5	0.5	-0.332
Mof_C 	C 	0.1987	0.5	0.5	0.219
Mof_H 	H 	0.3771	0.5	0.5	0.13
Mof_H 	H 	0.1532	0.5	0.5	-0.048
Mof_C 	C 	0.8316	0	-0	-0.323
Mof_C 	C 	0.6987	0	-0	0.222
Mof_H 	H 	0.8771	0	-0	0.128
Mof_H 	H 	0.6532	0	-0	-0.048
Mof_C 	C 	0.6684	0	0.5	-0.329
Mof_C 	C 	0.8013	0	0.5	0.225
Mof_H 	H 	0.6229	0	0.5	0.13
Mof_H 	H 	0.8468	0	0.5	-0.051
Mof_C 	C 	0.1684	0.5	-0	-0.325
Mof_C 	C 	0.3013	0.5	-0	0.228
Mof_H 	H 	0.1229	0.5	-0	0.131
Mof_H 	H 	0.3468	0.5	-0	-0.05
Mof_C 	C 	0.6684	0.5	0.5	-0.332
Mof_C 	C 	0.8013	0.5	0.5	0.22
Mof_H 	H 	0.6229	0.5	0.5	0.13
Mof_H 	H 	0.8468	0.5	0.5	-0.05
Mof_C 	C 	0.1684	0	-0	-0.326
Mof_C 	C 	0.3013	0	-0	0.225
Mof_H 	H 	0.1229	0	-0	0.132
Mof_H 	H 	0.3468	0	-0	-0.049
Mof_C 	C 	0.3316	0	0.5	-0.328
Mof_C 	C 	0.1987	0	0.5	0.224
Mof_H 	H 	0.3771	0	0.5	0.129
Mof_H 	H 	0.1532	0	0.5	-0.049
Mof_C 	C 	0.8316	0.5	-0	-0.321
Mof_C 	C 	0.6987	0.5	-0	0.225
Mof_H 	H 	0.8771	0.5	-0	0.127
Mof_H 	H 	0.6532	0.5	-0	-0.049
_end
