data_functionalizedCrystal
_audit_creation_method	'EQeq! by Chris Wilmer'
_symmetry_space_group_name_H-M	'P1'
_symmetry_Int_Tables_number	1
_symmetry_cell_setting	triclinic
loop_
_symmetry_equiv_pos_as_xyz
  x,y,z
_cell_length_a	33.9287
_cell_length_b	33.9287
_cell_length_c	13.6579
_cell_angle_alpha	90
_cell_angle_beta	90
_cell_angle_gamma	120
loop_
_atom_site_label
_atom_site_type_symbol
_atom_site_fract_x
_atom_site_fract_y
_atom_site_fract_z
_atom_site_charge
Mof_Zn	Zn	0.00665	0.30051	0.0977	1.238
Mof_O 	O 	0.04282	0.35762	0.1683	-0.45
Mof_O 	O 	0.95576	0.25302	0.169	-0.429
Mof_O 	O 	0.05018	0.28265	0.0576	-0.461
Mof_O 	O 	0.98327	0.30841	0.9749	-0.439
Mof_P 	P 	0.04046	0.3681	0.2753	0.438
Mof_P 	P 	0.90458	0.2289	0.15465	0.467
Mof_P 	P 	0.07681	0.26677	0.11807	0.484
Mof_O 	O 	0.06646	0.35342	0.3415	-0.444
Mof_H 	H 	0.0582	0.4159	0.2846	-0.01
Mof_O 	O 	0.88191	0.194	0.234	-0.461
Mof_O 	O 	0.89151	0.20926	0.0535	-0.443
Mof_H 	H 	0.8903	0.2623	0.1771	-0.393
Mof_O 	O 	0.07666	0.27585	0.2269	-0.472
Mof_O 	O 	0.1234	0.28237	0.0757	-0.45
Mof_H 	H 	0.0613	0.2282	0.1251	-0.052
Mof_Zn	Zn	0.10695	0.33025	0.30487	1.232
Mof_Zn	Zn	0.83477	0.16823	0.32996	1.238
Mof_O 	O 	0.11948	0.31562	0.4347	-0.463
Mof_O 	O 	0.15903	0.38038	0.2464	-0.469
Mof_O 	O 	0.81291	0.1967	0.9136	-0.429
Mof_P 	P 	0.13322	0.2823	0.47078	0.46
Mof_H 	H 	0.1017	0.2381	0.4502	-0.016
Mof_O 	O 	0.8893	0.2619	0.1795	0.331
Mof_Zn	Zn	0.67332	0.63384	0.43103	1.237
Mof_O 	O 	0.70949	0.69095	0.50163	-0.451
Mof_O 	O 	0.62243	0.58635	0.50233	-0.43
Mof_O 	O 	0.71685	0.61598	0.39093	-0.463
Mof_O 	O 	0.64994	0.64174	0.30823	-0.44
Mof_P 	P 	0.70713	0.70143	0.60863	0.437
Mof_P 	P 	0.57125	0.56223	0.48798	0.467
Mof_P 	P 	0.74348	0.6001	0.4514	0.484
Mof_O 	O 	0.73313	0.68675	0.67483	-0.444
Mof_H 	H 	0.72487	0.74923	0.61793	-0.01
Mof_O 	O 	0.54858	0.52733	0.56733	-0.461
Mof_O 	O 	0.55818	0.54259	0.38683	-0.443
Mof_H 	H 	0.55697	0.59563	0.51043	-0.393
Mof_O 	O 	0.74333	0.60918	0.56023	-0.472
Mof_O 	O 	0.79007	0.6157	0.40903	-0.451
Mof_H 	H 	0.72797	0.56153	0.45843	-0.052
Mof_Zn	Zn	0.77362	0.66358	0.6382	1.232
Mof_Zn	Zn	0.50144	0.50156	0.66329	1.238
Mof_O 	O 	0.78615	0.64895	0.76803	-0.463
Mof_O 	O 	0.8257	0.71371	0.57973	-0.469
Mof_O 	O 	0.47958	0.53003	0.24693	-0.43
Mof_P 	P 	0.79989	0.61563	0.80411	0.46
Mof_H 	H 	0.76837	0.57143	0.78353	-0.016
Mof_O 	O 	0.55597	0.59523	0.51283	0.331
Mof_Zn	Zn	0.33999	0.96718	0.76437	1.236
Mof_O 	O 	0.37615	0.02429	0.83497	-0.451
Mof_O 	O 	0.28909	0.91969	0.83567	-0.43
Mof_O 	O 	0.38351	0.94932	0.72427	-0.463
Mof_O 	O 	0.3166	0.97508	0.64157	-0.44
Mof_P 	P 	0.37379	0.03477	0.94197	0.438
Mof_P 	P 	0.23791	0.89557	0.82132	0.467
Mof_P 	P 	0.41014	0.93344	0.78474	0.484
Mof_O 	O 	0.39979	0.02009	0.00817	-0.445
Mof_H 	H 	0.39153	0.08257	0.95127	-0.01
Mof_O 	O 	0.21524	0.86067	0.90067	-0.462
Mof_O 	O 	0.22484	0.87593	0.72017	-0.443
Mof_H 	H 	0.22363	0.92897	0.84377	-0.393
Mof_O 	O 	0.40999	0.94252	0.89357	-0.473
Mof_O 	O 	0.45673	0.94904	0.74237	-0.451
Mof_H 	H 	0.39463	0.89487	0.79177	-0.052
Mof_Zn	Zn	0.44028	0.99692	0.97154	1.231
Mof_Zn	Zn	0.1681	0.8349	0.99663	1.237
Mof_O 	O 	0.45281	0.98229	0.10137	-0.462
Mof_O 	O 	0.49236	0.04705	0.91307	-0.468
Mof_O 	O 	0.14624	0.86337	0.58027	-0.43
Mof_P 	P 	0.46655	0.94897	0.13745	0.46
Mof_H 	H 	0.43503	0.90477	0.11687	-0.016
Mof_O 	O 	0.22263	0.92857	0.84617	0.331
Mof_Zn	Zn	0.69949	0.70614	0.0977	1.237
Mof_O 	O 	0.64238	0.6852	0.1683	-0.451
Mof_O 	O 	0.74698	0.70274	0.169	-0.429
Mof_O 	O 	0.71735	0.76753	0.0576	-0.463
Mof_O 	O 	0.69159	0.67486	0.9749	-0.439
Mof_P 	P 	0.6319	0.67236	0.2753	0.437
Mof_P 	P 	0.7711	0.67568	0.15465	0.467
Mof_P 	P 	0.73323	0.81004	0.11807	0.484
Mof_O 	O 	0.64658	0.71304	0.3415	-0.444
Mof_H 	H 	0.5841	0.6423	0.2846	-0.01
Mof_O 	O 	0.806	0.68791	0.234	-0.461
Mof_O 	O 	0.79074	0.68225	0.0535	-0.443
Mof_H 	H 	0.7377	0.628	0.1771	-0.393
Mof_O 	O 	0.72415	0.80081	0.2269	-0.472
Mof_O 	O 	0.71763	0.84103	0.0757	-0.45
Mof_H 	H 	0.7718	0.8331	0.1251	-0.052
Mof_Zn	Zn	0.66975	0.7767	0.30487	1.232
Mof_Zn	Zn	0.83177	0.66654	0.32996	1.238
Mof_O 	O 	0.68438	0.80386	0.4347	-0.463
Mof_O 	O 	0.61962	0.77865	0.2464	-0.469
Mof_O 	O 	0.8033	0.61621	0.9136	-0.43
Mof_P 	P 	0.7177	0.85092	0.47078	0.46
Mof_H 	H 	0.7619	0.8636	0.4502	-0.016
Mof_O 	O 	0.7381	0.6274	0.1795	0.331
Mof_Zn	Zn	0.36616	0.03948	0.43103	1.237
Mof_O 	O 	0.30905	0.01853	0.50163	-0.451
Mof_O 	O 	0.41365	0.03607	0.50233	-0.429
Mof_O 	O 	0.38402	0.10086	0.39093	-0.463
Mof_O 	O 	0.35826	0.00819	0.30823	-0.44
Mof_P 	P 	0.29857	0.00569	0.60863	0.438
Mof_P 	P 	0.43777	0.00901	0.48798	0.467
Mof_P 	P 	0.3999	0.14337	0.4514	0.484
Mof_O 	O 	0.31325	0.04637	0.67483	-0.444
Mof_H 	H 	0.25077	0.97563	0.61793	-0.01
Mof_O 	O 	0.47267	0.02124	0.56733	-0.461
Mof_O 	O 	0.45741	0.01558	0.38683	-0.443
Mof_H 	H 	0.40437	0.96133	0.51043	-0.392
Mof_O 	O 	0.39082	0.13414	0.56023	-0.472
Mof_O 	O 	0.3843	0.17436	0.40903	-0.451
Mof_H 	H 	0.43847	0.16643	0.45843	-0.052
Mof_Zn	Zn	0.33642	0.11003	0.6382	1.232
Mof_Zn	Zn	0.49844	0.99987	0.66329	1.238
Mof_O 	O 	0.35105	0.13719	0.76803	-0.463
Mof_O 	O 	0.28629	0.11198	0.57973	-0.469
Mof_O 	O 	0.46997	0.94954	0.24693	-0.43
Mof_P 	P 	0.38437	0.18425	0.80411	0.46
Mof_H 	H 	0.42857	0.19693	0.78353	-0.016
Mof_O 	O 	0.40477	0.96073	0.51283	0.331
Mof_Zn	Zn	0.03282	0.37281	0.76437	1.236
Mof_O 	O 	0.97571	0.35187	0.83497	-0.451
Mof_O 	O 	0.08031	0.36941	0.83567	-0.43
Mof_O 	O 	0.05068	0.4342	0.72427	-0.463
Mof_O 	O 	0.02492	0.34153	0.64157	-0.44
Mof_P 	P 	0.96523	0.33903	0.94197	0.438
Mof_P 	P 	0.10443	0.34235	0.82132	0.467
Mof_P 	P 	0.06656	0.47671	0.78474	0.484
Mof_O 	O 	0.97991	0.37971	0.00817	-0.445
Mof_H 	H 	0.91743	0.30897	0.95127	-0.01
Mof_O 	O 	0.13933	0.35458	0.90067	-0.462
Mof_O 	O 	0.12407	0.34892	0.72017	-0.443
Mof_H 	H 	0.07103	0.29467	0.84377	-0.393
Mof_O 	O 	0.05748	0.46748	0.89357	-0.473
Mof_O 	O 	0.05096	0.5077	0.74237	-0.451
Mof_H 	H 	0.10513	0.49977	0.79177	-0.052
Mof_Zn	Zn	0.00308	0.44337	0.97154	1.231
Mof_Zn	Zn	0.1651	0.33321	0.99663	1.238
Mof_O 	O 	0.01771	0.47053	0.10137	-0.462
Mof_O 	O 	0.95295	0.44532	0.91307	-0.468
Mof_O 	O 	0.13663	0.28288	0.58027	-0.43
Mof_P 	P 	0.05103	0.51759	0.13745	0.46
Mof_H 	H 	0.09523	0.53027	0.11687	-0.016
Mof_O 	O 	0.07143	0.29407	0.84617	0.331
Mof_Zn	Zn	0.29386	0.99335	0.0977	1.237
Mof_O 	O 	0.3148	0.95718	0.1683	-0.45
Mof_O 	O 	0.29726	0.04424	0.169	-0.43
Mof_O 	O 	0.23247	0.94982	0.0576	-0.462
Mof_O 	O 	0.32514	0.01673	0.9749	-0.439
Mof_P 	P 	0.32764	0.95954	0.2753	0.438
Mof_P 	P 	0.32432	0.09542	0.15465	0.467
Mof_P 	P 	0.18996	0.92319	0.11807	0.484
Mof_O 	O 	0.28696	0.93354	0.3415	-0.444
Mof_H 	H 	0.3577	0.9418	0.2846	-0.01
Mof_O 	O 	0.31209	0.11809	0.234	-0.461
Mof_O 	O 	0.31775	0.10849	0.0535	-0.443
Mof_H 	H 	0.372	0.1097	0.1771	-0.393
Mof_O 	O 	0.19919	0.92334	0.2269	-0.472
Mof_O 	O 	0.15897	0.8766	0.0757	-0.45
Mof_H 	H 	0.1669	0.9387	0.1251	-0.052
Mof_Zn	Zn	0.2233	0.89305	0.30487	1.232
Mof_Zn	Zn	0.33346	0.16523	0.32996	1.238
Mof_O 	O 	0.19614	0.88052	0.4347	-0.463
Mof_O 	O 	0.22135	0.84097	0.2464	-0.469
Mof_O 	O 	0.38379	0.18709	0.9136	-0.43
Mof_P 	P 	0.14908	0.86678	0.47078	0.46
Mof_H 	H 	0.1364	0.8983	0.4502	-0.016
Mof_O 	O 	0.3726	0.1107	0.1795	0.331
Mof_Zn	Zn	0.96052	0.32668	0.43103	1.237
Mof_O 	O 	0.98147	0.29051	0.50163	-0.451
Mof_O 	O 	0.96393	0.37757	0.50233	-0.429
Mof_O 	O 	0.89914	0.28315	0.39093	-0.463
Mof_O 	O 	0.99181	0.35006	0.30823	-0.44
Mof_P 	P 	0.99431	0.29287	0.60863	0.438
Mof_P 	P 	0.99099	0.42875	0.48798	0.467
Mof_P 	P 	0.85663	0.25652	0.4514	0.484
Mof_O 	O 	0.95363	0.26687	0.67483	-0.444
Mof_H 	H 	0.02437	0.27513	0.61793	-0.01
Mof_O 	O 	0.97876	0.45142	0.56733	-0.461
Mof_O 	O 	0.98442	0.44182	0.38683	-0.443
Mof_H 	H 	0.03867	0.44303	0.51043	-0.392
Mof_O 	O 	0.86586	0.25667	0.56023	-0.472
Mof_O 	O 	0.82564	0.20993	0.40903	-0.451
Mof_H 	H 	0.83357	0.27203	0.45843	-0.052
Mof_Zn	Zn	0.88997	0.22638	0.6382	1.232
Mof_Zn	Zn	0.00013	0.49856	0.66329	1.238
Mof_O 	O 	0.86281	0.21385	0.76803	-0.463
Mof_O 	O 	0.88802	0.1743	0.57973	-0.469
Mof_O 	O 	0.05046	0.52042	0.24693	-0.43
Mof_P 	P 	0.81575	0.20011	0.80411	0.46
Mof_H 	H 	0.80307	0.23163	0.78353	-0.016
Mof_O 	O 	0.03927	0.44403	0.51283	0.331
Mof_Zn	Zn	0.62719	0.66001	0.76437	1.237
Mof_O 	O 	0.64813	0.62385	0.83497	-0.451
Mof_O 	O 	0.63059	0.71091	0.83567	-0.429
Mof_O 	O 	0.5658	0.61649	0.72427	-0.463
Mof_O 	O 	0.65847	0.6834	0.64157	-0.44
Mof_P 	P 	0.66097	0.62621	0.94197	0.437
Mof_P 	P 	0.65765	0.76209	0.82132	0.467
Mof_P 	P 	0.52329	0.58986	0.78474	0.484
Mof_O 	O 	0.62029	0.60021	0.00817	-0.444
Mof_H 	H 	0.69103	0.60847	0.95127	-0.01
Mof_O 	O 	0.64542	0.78476	0.90067	-0.461
Mof_O 	O 	0.65108	0.77516	0.72017	-0.443
Mof_H 	H 	0.70533	0.77637	0.84377	-0.392
Mof_O 	O 	0.53252	0.59001	0.89357	-0.472
Mof_O 	O 	0.4923	0.54327	0.74237	-0.451
Mof_H 	H 	0.50023	0.60537	0.79177	-0.052
Mof_Zn	Zn	0.55663	0.55972	0.97154	1.232
Mof_Zn	Zn	0.66679	0.8319	0.99663	1.238
Mof_O 	O 	0.52947	0.54719	0.10137	-0.463
Mof_O 	O 	0.55468	0.50764	0.91307	-0.469
Mof_O 	O 	0.71712	0.85376	0.58027	-0.43
Mof_P 	P 	0.48241	0.53345	0.13745	0.46
Mof_H 	H 	0.46973	0.56497	0.11687	-0.016
Mof_O 	O 	0.70593	0.77737	0.84617	0.331
Mof_Zn	Zn	0.99335	0.69949	0.9023	1.237
Mof_O 	O 	0.95718	0.64238	0.8317	-0.451
Mof_O 	O 	0.04424	0.74698	0.831	-0.43
Mof_O 	O 	0.94982	0.71735	0.9424	-0.462
Mof_O 	O 	0.01673	0.69159	0.0251	-0.439
Mof_P 	P 	0.95954	0.6319	0.7247	0.438
Mof_P 	P 	0.09542	0.7711	0.84535	0.467
Mof_P 	P 	0.92319	0.73323	0.88193	0.484
Mof_O 	O 	0.93354	0.64658	0.6585	-0.444
Mof_H 	H 	0.9418	0.5841	0.7154	-0.01
Mof_O 	O 	0.11809	0.806	0.766	-0.461
Mof_O 	O 	0.10849	0.79074	0.9465	-0.443
Mof_H 	H 	0.1097	0.7377	0.8229	-0.393
Mof_O 	O 	0.92334	0.72415	0.7731	-0.472
Mof_O 	O 	0.8766	0.71763	0.9243	-0.45
Mof_H 	H 	0.9387	0.7718	0.8749	-0.052
Mof_Zn	Zn	0.89305	0.66975	0.69513	1.232
Mof_Zn	Zn	0.16523	0.83177	0.67004	1.238
Mof_O 	O 	0.88052	0.68438	0.5653	-0.463
Mof_O 	O 	0.84097	0.61962	0.7536	-0.469
Mof_O 	O 	0.18709	0.8033	0.0864	-0.429
Mof_P 	P 	0.86678	0.7177	0.52922	0.46
Mof_H 	H 	0.8983	0.7619	0.5498	-0.016
Mof_O 	O 	0.1107	0.7381	0.8205	0.331
Mof_Zn	Zn	0.66001	0.03282	0.23563	1.236
Mof_O 	O 	0.62385	0.97571	0.16503	-0.451
Mof_O 	O 	0.71091	0.08031	0.16433	-0.43
Mof_O 	O 	0.61649	0.05068	0.27573	-0.463
Mof_O 	O 	0.6834	0.02492	0.35843	-0.44
Mof_P 	P 	0.62621	0.96523	0.05803	0.438
Mof_P 	P 	0.76209	0.10443	0.17868	0.467
Mof_P 	P 	0.58986	0.06656	0.21526	0.484
Mof_O 	O 	0.60021	0.97991	0.99183	-0.445
Mof_H 	H 	0.60847	0.91743	0.04873	-0.01
Mof_O 	O 	0.78476	0.13933	0.09933	-0.462
Mof_O 	O 	0.77516	0.12407	0.27983	-0.443
Mof_H 	H 	0.77637	0.07103	0.15623	-0.393
Mof_O 	O 	0.59001	0.05748	0.10643	-0.473
Mof_O 	O 	0.54327	0.05096	0.25763	-0.451
Mof_H 	H 	0.60537	0.10513	0.20823	-0.052
Mof_Zn	Zn	0.55972	0.00308	0.02846	1.231
Mof_Zn	Zn	0.8319	0.1651	0.00337	1.237
Mof_O 	O 	0.54719	0.01771	0.89863	-0.462
Mof_O 	O 	0.50764	0.95295	0.08693	-0.468
Mof_O 	O 	0.85376	0.13663	0.41973	-0.43
Mof_P 	P 	0.53345	0.05103	0.86255	0.46
Mof_H 	H 	0.56497	0.09523	0.88313	-0.016
Mof_O 	O 	0.77737	0.07143	0.15383	0.331
Mof_Zn	Zn	0.32668	0.36616	0.56897	1.237
Mof_O 	O 	0.29051	0.30905	0.49837	-0.451
Mof_O 	O 	0.37757	0.41365	0.49767	-0.43
Mof_O 	O 	0.28315	0.38402	0.60907	-0.463
Mof_O 	O 	0.35006	0.35826	0.69177	-0.44
Mof_P 	P 	0.29287	0.29857	0.39137	0.437
Mof_P 	P 	0.42875	0.43777	0.51202	0.467
Mof_P 	P 	0.25652	0.3999	0.5486	0.484
Mof_O 	O 	0.26687	0.31325	0.32517	-0.444
Mof_H 	H 	0.27513	0.25077	0.38207	-0.01
Mof_O 	O 	0.45142	0.47267	0.43267	-0.461
Mof_O 	O 	0.44182	0.45741	0.61317	-0.443
Mof_H 	H 	0.44303	0.40437	0.48957	-0.393
Mof_O 	O 	0.25667	0.39082	0.43977	-0.472
Mof_O 	O 	0.20993	0.3843	0.59097	-0.451
Mof_H 	H 	0.27203	0.43847	0.54157	-0.052
Mof_Zn	Zn	0.22638	0.33642	0.3618	1.232
Mof_Zn	Zn	0.49856	0.49844	0.33671	1.238
Mof_O 	O 	0.21385	0.35105	0.23197	-0.463
Mof_O 	O 	0.1743	0.28629	0.42027	-0.469
Mof_O 	O 	0.52042	0.46997	0.75307	-0.43
Mof_P 	P 	0.20011	0.38437	0.19589	0.46
Mof_H 	H 	0.23163	0.42857	0.21647	-0.016
Mof_O 	O 	0.44403	0.40477	0.48717	0.331
Mof_Zn	Zn	0.30051	0.29386	0.9023	1.237
Mof_O 	O 	0.35762	0.3148	0.8317	-0.451
Mof_O 	O 	0.25302	0.29726	0.831	-0.429
Mof_O 	O 	0.28265	0.23247	0.9424	-0.463
Mof_O 	O 	0.30841	0.32514	0.0251	-0.439
Mof_P 	P 	0.3681	0.32764	0.7247	0.437
Mof_P 	P 	0.2289	0.32432	0.84535	0.467
Mof_P 	P 	0.26677	0.18996	0.88193	0.484
Mof_O 	O 	0.35342	0.28696	0.6585	-0.444
Mof_H 	H 	0.4159	0.3577	0.7154	-0.01
Mof_O 	O 	0.194	0.31209	0.766	-0.461
Mof_O 	O 	0.20926	0.31775	0.9465	-0.443
Mof_H 	H 	0.2623	0.372	0.8229	-0.393
Mof_O 	O 	0.27585	0.19919	0.7731	-0.472
Mof_O 	O 	0.28237	0.15897	0.9243	-0.45
Mof_H 	H 	0.2282	0.1669	0.8749	-0.052
Mof_Zn	Zn	0.33025	0.2233	0.69513	1.232
Mof_Zn	Zn	0.16823	0.33346	0.67004	1.238
Mof_O 	O 	0.31562	0.19614	0.5653	-0.463
Mof_O 	O 	0.38038	0.22135	0.7536	-0.469
Mof_O 	O 	0.1967	0.38379	0.0864	-0.43
Mof_P 	P 	0.2823	0.14908	0.52922	0.46
Mof_H 	H 	0.2381	0.1364	0.5498	-0.016
Mof_O 	O 	0.2619	0.3726	0.8205	0.331
Mof_Zn	Zn	0.96718	0.62719	0.23563	1.236
Mof_O 	O 	0.02429	0.64813	0.16503	-0.451
Mof_O 	O 	0.91969	0.63059	0.16433	-0.43
Mof_O 	O 	0.94932	0.5658	0.27573	-0.463
Mof_O 	O 	0.97508	0.65847	0.35843	-0.44
Mof_P 	P 	0.03477	0.66097	0.05803	0.438
Mof_P 	P 	0.89557	0.65765	0.17868	0.467
Mof_P 	P 	0.93344	0.52329	0.21526	0.484
Mof_O 	O 	0.02009	0.62029	0.99183	-0.445
Mof_H 	H 	0.08257	0.69103	0.04873	-0.01
Mof_O 	O 	0.86067	0.64542	0.09933	-0.462
Mof_O 	O 	0.87593	0.65108	0.27983	-0.443
Mof_H 	H 	0.92897	0.70533	0.15623	-0.393
Mof_O 	O 	0.94252	0.53252	0.10643	-0.473
Mof_O 	O 	0.94904	0.4923	0.25763	-0.451
Mof_H 	H 	0.89487	0.50023	0.20823	-0.052
Mof_Zn	Zn	0.99692	0.55663	0.02846	1.231
Mof_Zn	Zn	0.8349	0.66679	0.00337	1.238
Mof_O 	O 	0.98229	0.52947	0.89863	-0.462
Mof_O 	O 	0.04705	0.55468	0.08693	-0.468
Mof_O 	O 	0.86337	0.71712	0.41973	-0.43
Mof_P 	P 	0.94897	0.48241	0.86255	0.46
Mof_H 	H 	0.90477	0.46973	0.88313	-0.016
Mof_O 	O 	0.92857	0.70593	0.15383	0.331
Mof_Zn	Zn	0.63384	0.96052	0.56897	1.237
Mof_O 	O 	0.69095	0.98147	0.49837	-0.451
Mof_O 	O 	0.58635	0.96393	0.49767	-0.429
Mof_O 	O 	0.61598	0.89914	0.60907	-0.463
Mof_O 	O 	0.64174	0.99181	0.69177	-0.44
Mof_P 	P 	0.70143	0.99431	0.39137	0.438
Mof_P 	P 	0.56223	0.99099	0.51202	0.467
Mof_P 	P 	0.6001	0.85663	0.5486	0.484
Mof_O 	O 	0.68675	0.95363	0.32517	-0.444
Mof_H 	H 	0.74923	0.02437	0.38207	-0.01
Mof_O 	O 	0.52733	0.97876	0.43267	-0.461
Mof_O 	O 	0.54259	0.98442	0.61317	-0.443
Mof_H 	H 	0.59563	0.03867	0.48957	-0.392
Mof_O 	O 	0.60918	0.86586	0.43977	-0.472
Mof_O 	O 	0.6157	0.82564	0.59097	-0.451
Mof_H 	H 	0.56153	0.83357	0.54157	-0.052
Mof_Zn	Zn	0.66358	0.88997	0.3618	1.232
Mof_Zn	Zn	0.50156	0.00013	0.33671	1.238
Mof_O 	O 	0.64895	0.86281	0.23197	-0.463
Mof_O 	O 	0.71371	0.88802	0.42027	-0.469
Mof_O 	O 	0.53003	0.05046	0.75307	-0.43
Mof_P 	P 	0.61563	0.81575	0.19589	0.46
Mof_H 	H 	0.57143	0.80307	0.21647	-0.016
Mof_O 	O 	0.59523	0.03927	0.48717	0.331
Mof_Zn	Zn	0.70614	0.00665	0.9023	1.237
Mof_O 	O 	0.6852	0.04282	0.8317	-0.45
Mof_O 	O 	0.70274	0.95576	0.831	-0.43
Mof_O 	O 	0.76753	0.05018	0.9424	-0.462
Mof_O 	O 	0.67486	0.98327	0.0251	-0.439
Mof_P 	P 	0.67236	0.04046	0.7247	0.438
Mof_P 	P 	0.67568	0.90458	0.84535	0.467
Mof_P 	P 	0.81004	0.07681	0.88193	0.484
Mof_O 	O 	0.71304	0.06646	0.6585	-0.444
Mof_H 	H 	0.6423	0.0582	0.7154	-0.01
Mof_O 	O 	0.68791	0.88191	0.766	-0.461
Mof_O 	O 	0.68225	0.89151	0.9465	-0.443
Mof_H 	H 	0.628	0.8903	0.8229	-0.393
Mof_O 	O 	0.80081	0.07666	0.7731	-0.472
Mof_O 	O 	0.84103	0.1234	0.9243	-0.45
Mof_H 	H 	0.8331	0.0613	0.8749	-0.052
Mof_Zn	Zn	0.7767	0.10695	0.69513	1.232
Mof_Zn	Zn	0.66654	0.83477	0.67004	1.238
Mof_O 	O 	0.80386	0.11948	0.5653	-0.463
Mof_O 	O 	0.77865	0.15903	0.7536	-0.469
Mof_O 	O 	0.61621	0.81291	0.0864	-0.43
Mof_P 	P 	0.85092	0.13322	0.52922	0.46
Mof_H 	H 	0.8636	0.1017	0.5498	-0.016
Mof_O 	O 	0.6274	0.8893	0.8205	0.331
Mof_Zn	Zn	0.37281	0.33999	0.23563	1.237
Mof_O 	O 	0.35187	0.37615	0.16503	-0.451
Mof_O 	O 	0.36941	0.28909	0.16433	-0.429
Mof_O 	O 	0.4342	0.38351	0.27573	-0.463
Mof_O 	O 	0.34153	0.3166	0.35843	-0.44
Mof_P 	P 	0.33903	0.37379	0.05803	0.437
Mof_P 	P 	0.34235	0.23791	0.17868	0.467
Mof_P 	P 	0.47671	0.41014	0.21526	0.484
Mof_O 	O 	0.37971	0.39979	0.99183	-0.444
Mof_H 	H 	0.30897	0.39153	0.04873	-0.01
Mof_O 	O 	0.35458	0.21524	0.09933	-0.461
Mof_O 	O 	0.34892	0.22484	0.27983	-0.443
Mof_H 	H 	0.29467	0.22363	0.15623	-0.392
Mof_O 	O 	0.46748	0.40999	0.10643	-0.472
Mof_O 	O 	0.5077	0.45673	0.25763	-0.451
Mof_H 	H 	0.49977	0.39463	0.20823	-0.052
Mof_Zn	Zn	0.44337	0.44028	0.02846	1.232
Mof_Zn	Zn	0.33321	0.1681	0.00337	1.238
Mof_O 	O 	0.47053	0.45281	0.89863	-0.463
Mof_O 	O 	0.44532	0.49236	0.08693	-0.469
Mof_O 	O 	0.28288	0.14624	0.41973	-0.43
Mof_P 	P 	0.51759	0.46655	0.86255	0.46
Mof_H 	H 	0.53027	0.43503	0.88313	-0.016
Mof_O 	O 	0.29407	0.22263	0.15383	0.331
Mof_Zn	Zn	0.03948	0.67332	0.56897	1.237
Mof_O 	O 	0.01853	0.70949	0.49837	-0.451
Mof_O 	O 	0.03607	0.62243	0.49767	-0.429
Mof_O 	O 	0.10086	0.71685	0.60907	-0.463
Mof_O 	O 	0.00819	0.64994	0.69177	-0.44
Mof_P 	P 	0.00569	0.70713	0.39137	0.438
Mof_P 	P 	0.00901	0.57125	0.51202	0.467
Mof_P 	P 	0.14337	0.74348	0.5486	0.484
Mof_O 	O 	0.04637	0.73313	0.32517	-0.444
Mof_H 	H 	0.97563	0.72487	0.38207	-0.01
Mof_O 	O 	0.02124	0.54858	0.43267	-0.461
Mof_O 	O 	0.01558	0.55818	0.61317	-0.443
Mof_H 	H 	0.96133	0.55697	0.48957	-0.392
Mof_O 	O 	0.13414	0.74333	0.43977	-0.472
Mof_O 	O 	0.17436	0.79007	0.59097	-0.451
Mof_H 	H 	0.16643	0.72797	0.54157	-0.052
Mof_Zn	Zn	0.11003	0.77362	0.3618	1.232
Mof_Zn	Zn	0.99987	0.50144	0.33671	1.238
Mof_O 	O 	0.13719	0.78615	0.23197	-0.463
Mof_O 	O 	0.11198	0.8257	0.42027	-0.469
Mof_O 	O 	0.94954	0.47958	0.75307	-0.43
Mof_P 	P 	0.18425	0.79989	0.19589	0.46
Mof_H 	H 	0.19693	0.76837	0.21647	-0.016
Mof_O 	O 	0.96073	0.55597	0.48717	0.331
_end
