data_functionalizedCrystal
_audit_creation_method	'EQeq! by Chris Wilmer'
_symmetry_space_group_name_H-M	'P1'
_symmetry_Int_Tables_number	1
_symmetry_cell_setting	triclinic
loop_
_symmetry_equiv_pos_as_xyz
  x,y,z
_cell_length_a	11.0449
_cell_length_b	11.0449
_cell_length_c	8.055
_cell_angle_alpha	90
_cell_angle_beta	90
_cell_angle_gamma	90
loop_
_atom_site_label
_atom_site_type_symbol
_atom_site_fract_x
_atom_site_fract_y
_atom_site_fract_z
_atom_site_charge
Mof_C 	C 	0.453	0.258	0.123	0.032
Mof_C 	C 	0.45	0.136	0.134	-0.072
Mof_H 	H 	0.4187	0.3022	0.2129	-0.012
Mof_H 	H 	0.4135	0.0977	0.226	0.043
Mof_C 	C 	0.547	0.742	0.123	0.033
Mof_C 	C 	0.55	0.864	0.134	-0.071
Mof_H 	H 	0.5813	0.6978	0.2129	-0.011
Mof_H 	H 	0.5865	0.9023	0.226	0.043
Mof_C 	C 	0.742	0.453	0.123	0.033
Mof_C 	C 	0.864	0.45	0.134	-0.071
Mof_H 	H 	0.6978	0.4187	0.2129	-0.011
Mof_H 	H 	0.9023	0.4135	0.226	0.043
Mof_C 	C 	0.258	0.547	0.123	0.033
Mof_C 	C 	0.136	0.55	0.134	-0.071
Mof_H 	H 	0.3022	0.5813	0.2129	-0.011
Mof_H 	H 	0.0977	0.5865	0.226	0.043
Mof_C 	C 	0.547	0.258	0.877	0.036
Mof_C 	C 	0.55	0.136	0.866	-0.069
Mof_H 	H 	0.5813	0.3022	0.7871	-0.011
Mof_H 	H 	0.5865	0.0977	0.774	0.043
Mof_C 	C 	0.453	0.742	0.877	0.036
Mof_C 	C 	0.45	0.864	0.866	-0.069
Mof_H 	H 	0.4187	0.6978	0.7871	-0.011
Mof_H 	H 	0.4135	0.9023	0.774	0.043
Mof_C 	C 	0.258	0.453	0.877	0.036
Mof_C 	C 	0.136	0.45	0.866	-0.069
Mof_H 	H 	0.3022	0.4187	0.7871	-0.011
Mof_H 	H 	0.0977	0.4135	0.774	0.043
Mof_C 	C 	0.742	0.547	0.877	0.036
Mof_C 	C 	0.864	0.55	0.866	-0.069
Mof_H 	H 	0.6978	0.5813	0.7871	-0.011
Mof_H 	H 	0.9023	0.5865	0.774	0.043
Mof_C 	C 	0.547	0.742	0.877	0.036
Mof_C 	C 	0.55	0.864	0.866	-0.069
Mof_H 	H 	0.5813	0.6978	0.7871	-0.011
Mof_H 	H 	0.5865	0.9023	0.774	0.043
Mof_C 	C 	0.453	0.258	0.877	0.036
Mof_C 	C 	0.45	0.136	0.866	-0.069
Mof_H 	H 	0.4187	0.3022	0.7871	-0.011
Mof_H 	H 	0.4135	0.0977	0.774	0.043
Mof_C 	C 	0.258	0.547	0.877	0.036
Mof_C 	C 	0.136	0.55	0.866	-0.069
Mof_H 	H 	0.3022	0.5813	0.7871	-0.011
Mof_H 	H 	0.0977	0.5865	0.774	0.043
Mof_C 	C 	0.742	0.453	0.877	0.036
Mof_C 	C 	0.864	0.45	0.866	-0.069
Mof_H 	H 	0.6978	0.4187	0.7871	-0.011
Mof_H 	H 	0.9023	0.4135	0.774	0.043
Mof_C 	C 	0.453	0.742	0.123	0.033
Mof_C 	C 	0.45	0.864	0.134	-0.071
Mof_H 	H 	0.4187	0.6978	0.2129	-0.011
Mof_H 	H 	0.4135	0.9023	0.226	0.043
Mof_C 	C 	0.547	0.258	0.123	0.033
Mof_C 	C 	0.55	0.136	0.134	-0.071
Mof_H 	H 	0.5813	0.3022	0.2129	-0.011
Mof_H 	H 	0.5865	0.0977	0.226	0.043
Mof_C 	C 	0.742	0.547	0.123	0.033
Mof_C 	C 	0.864	0.55	0.134	-0.071
Mof_H 	H 	0.6978	0.5813	0.2129	-0.011
Mof_H 	H 	0.9023	0.5865	0.226	0.043
Mof_C 	C 	0.258	0.453	0.123	0.033
Mof_C 	C 	0.136	0.45	0.134	-0.071
Mof_H 	H 	0.3022	0.4187	0.2129	-0.011
Mof_H 	H 	0.0977	0.4135	0.226	0.043
Mof_Cu	Cu	0.5	0.5	-0	0.859
Mof_N 	N 	0.5	0.322	-0	-0.245
Mof_C 	C 	0.5	0.072	-0	0.045
Mof_N 	N 	0.5	0.678	-0	-0.245
Mof_C 	C 	0.5	0.928	-0	0.045
Mof_N 	N 	0.678	0.5	-0	-0.245
Mof_C 	C 	0.928	0.5	-0	0.045
Mof_N 	N 	0.322	0.5	-0	-0.245
Mof_C 	C 	0.072	0.5	-0	0.045
_end
