data_functionalizedCrystal
_audit_creation_method	'EQeq! by Chris Wilmer'
_symmetry_space_group_name_H-M	'P1'
_symmetry_Int_Tables_number	1
_symmetry_cell_setting	triclinic
loop_
_symmetry_equiv_pos_as_xyz
  x,y,z
_cell_length_a	26.52
_cell_length_b	26.52
_cell_length_c	27.26
_cell_angle_alpha	90
_cell_angle_beta	90
_cell_angle_gamma	90
loop_
_atom_site_label
_atom_site_type_symbol
_atom_site_fract_x
_atom_site_fract_y
_atom_site_fract_z
_atom_site_charge
Mof_N 	N 	0.61234	0.78923	0.19131	-0.21
Mof_O 	O 	0.52467	0.57047	0.13759	-0.418
Mof_O 	O 	0.52699	0.56805	0.21923	-0.414
Mof_O 	O 	0.48904	0.93491	0.05052	-0.421
Mof_O 	O 	0.56387	0.97485	0.0504	-0.405
Mof_C 	C 	0.53328	0.58923	0.17844	0.393
Mof_C 	C 	0.55348	0.64218	0.18094	-0.178
Mof_C 	C 	0.56422	0.66362	0.22586	0.122
Mof_H 	H 	0.5589	0.6452	0.2544	0.003
Mof_C 	C 	0.5828	0.7124	0.22889	-0.226
Mof_H 	H 	0.5892	0.7267	0.2594	0.111
Mof_C 	C 	0.59178	0.73955	0.18727	0.191
Mof_C 	C 	0.58137	0.71844	0.14223	-0.226
Mof_H 	H 	0.5872	0.7369	0.1138	0.108
Mof_C 	C 	0.56228	0.66989	0.13899	0.122
Mof_H 	H 	0.5554	0.656	0.1084	-0.005
Mof_C 	C 	0.53371	0.94044	0.06383	0.376
Mof_C 	C 	0.55474	0.90242	0.09936	-0.163
Mof_C 	C 	0.60553	0.90177	0.11149	0.111
Mof_H 	H 	0.6269	0.9262	0.0986	0.002
Mof_C 	C 	0.62463	0.86541	0.14231	-0.213
Mof_H 	H 	0.6588	0.8656	0.15	0.105
Mof_C 	C 	0.59329	0.82809	0.16227	0.182
Mof_C 	C 	0.54205	0.82992	0.15073	-0.214
Mof_H 	H 	0.5203	0.8064	0.1645	0.108
Mof_C 	C 	0.52318	0.86569	0.11952	0.112
Mof_H 	H 	0.4891	0.8655	0.1117	0.001
Mof_C 	C 	0.65656	0.79535	0.22117	0.247
Mof_C 	C 	0.69304	0.75923	0.22146	-0.306
Mof_H 	H 	0.6893	0.7306	0.2021	0.138
Mof_C 	C 	0.4819	0.538	0.3319	0.106
Mof_H 	H 	0.4692	0.5656	0.3148	0.003
Mof_N 	N 	0.4574	0.5838	0.4524	-0.256
Mof_C 	C 	0.4567	0.586	0.4052	0.106
Mof_H 	H 	0.4432	0.613	0.3878	-0.006
Mof_C 	C 	0.4802	0.5401	0.3806	-0.214
Mof_O 	O 	0.5171	0.4981	0.4542	-0.312
Mof_C 	C 	0.4426	0.6325	0.4732	-0.09
Mof_H 	H 	0.4657	0.6583	0.4616	0.045
Mof_H 	H 	0.4091	0.6411	0.4616	0.051
Mof_C 	C 	0.5333	0.4611	0.0285	-0.044
Mof_H 	H 	0.5223	0.4284	0.0404	0.02
Mof_C 	C 	0.367	0.9268	0.9501	-0.027
Mof_H 	H 	0.393	0.9117	0.9299	0.042
Mof_H 	H 	0.3586	0.9595	0.9362	0.039
Mof_C 	C 	0.319	0.8923	0.9496	-0.003
Mof_H 	H 	0.2929	0.9085	0.9303	0.03
Mof_H 	H 	0.3273	0.8606	0.9339	0.028
Mof_H 	H 	0.3436	0.9857	0.9713	0.077
Mof_H 	H 	0.2729	0.9453	0.0288	0.051
Mof_H 	H 	0.411	0.8718	0.0287	0.055
Mof_H 	H 	0.3429	0.8304	0.9713	0.075
Mof_C 	C 	0.5032	0.5512	0.0284	-0.035
Mof_H 	H 	0.4747	0.5707	0.0402	0.02
Mof_H 	H 	0.5673	0.4669	0.0404	0.048
Mof_N 	N 	0.38766	0.21077	0.19131	-0.209
Mof_O 	O 	0.47533	0.42953	0.13759	-0.417
Mof_O 	O 	0.47301	0.43195	0.21923	-0.413
Mof_O 	O 	0.51096	0.06509	0.05052	-0.426
Mof_O 	O 	0.43613	0.02515	0.0504	-0.423
Mof_C 	C 	0.46672	0.41077	0.17844	0.394
Mof_C 	C 	0.44652	0.35782	0.18094	-0.177
Mof_C 	C 	0.43578	0.33638	0.22586	0.122
Mof_H 	H 	0.4411	0.3548	0.2544	0.003
Mof_C 	C 	0.4172	0.2876	0.22889	-0.226
Mof_H 	H 	0.4108	0.2733	0.2594	0.111
Mof_C 	C 	0.40822	0.26045	0.18727	0.19
Mof_C 	C 	0.41863	0.28156	0.14223	-0.226
Mof_H 	H 	0.4128	0.2631	0.1138	0.108
Mof_C 	C 	0.43772	0.33011	0.13899	0.121
Mof_H 	H 	0.4446	0.344	0.1084	-0.005
Mof_C 	C 	0.46629	0.05956	0.06383	0.379
Mof_C 	C 	0.44526	0.09758	0.09936	-0.17
Mof_C 	C 	0.39447	0.09823	0.11149	0.114
Mof_H 	H 	0.3731	0.0738	0.0986	-0.005
Mof_C 	C 	0.37537	0.13459	0.14231	-0.217
Mof_H 	H 	0.3412	0.1344	0.15	0.104
Mof_C 	C 	0.40671	0.17191	0.16227	0.183
Mof_C 	C 	0.45795	0.17008	0.15073	-0.218
Mof_H 	H 	0.4797	0.1936	0.1645	0.108
Mof_C 	C 	0.47682	0.13431	0.11952	0.114
Mof_H 	H 	0.5109	0.1345	0.1117	-0.001
Mof_C 	C 	0.34344	0.20465	0.22117	0.244
Mof_C 	C 	0.30696	0.24077	0.22146	-0.304
Mof_H 	H 	0.3107	0.2694	0.2021	0.137
Mof_C 	C 	0.5181	0.462	0.3319	0.106
Mof_H 	H 	0.5308	0.4344	0.3148	0.003
Mof_N 	N 	0.5426	0.4162	0.4524	-0.256
Mof_C 	C 	0.5433	0.414	0.4052	0.106
Mof_H 	H 	0.5568	0.387	0.3878	-0.006
Mof_C 	C 	0.5198	0.4599	0.3806	-0.214
Mof_O 	O 	0.4829	0.5019	0.4542	-0.312
Mof_C 	C 	0.5574	0.3675	0.4732	-0.089
Mof_H 	H 	0.5343	0.3417	0.4616	0.045
Mof_H 	H 	0.5909	0.3589	0.4616	0.051
Mof_C 	C 	0.4667	0.5389	0.0285	-0.043
Mof_H 	H 	0.4777	0.5716	0.0404	0.02
Mof_C 	C 	0.633	0.0732	0.9501	-0.025
Mof_H 	H 	0.607	0.0883	0.9299	0.038
Mof_H 	H 	0.6414	0.0405	0.9362	0.032
Mof_C 	C 	0.681	0.1077	0.9496	-0.003
Mof_H 	H 	0.7071	0.0915	0.9303	0.027
Mof_H 	H 	0.6727	0.1394	0.9339	0.027
Mof_H 	H 	0.6564	0.0143	0.9713	0.067
Mof_H 	H 	0.7271	0.0547	0.0288	0.049
Mof_H 	H 	0.589	0.1282	0.0287	0.054
Mof_H 	H 	0.6571	0.1696	0.9713	0.075
Mof_C 	C 	0.4968	0.4488	0.0284	-0.035
Mof_H 	H 	0.5253	0.4293	0.0402	0.02
Mof_H 	H 	0.4327	0.5331	0.0404	0.048
Mof_N 	N 	0.21077	0.61234	0.19131	-0.209
Mof_O 	O 	0.42953	0.52467	0.13759	-0.417
Mof_O 	O 	0.43195	0.52699	0.21923	-0.413
Mof_O 	O 	0.06509	0.48904	0.05052	-0.426
Mof_O 	O 	0.02515	0.56387	0.0504	-0.423
Mof_C 	C 	0.41077	0.53328	0.17844	0.394
Mof_C 	C 	0.35782	0.55348	0.18094	-0.177
Mof_C 	C 	0.33638	0.56422	0.22586	0.122
Mof_H 	H 	0.3548	0.5589	0.2544	0.003
Mof_C 	C 	0.2876	0.5828	0.22889	-0.226
Mof_H 	H 	0.2733	0.5892	0.2594	0.111
Mof_C 	C 	0.26045	0.59178	0.18727	0.19
Mof_C 	C 	0.28156	0.58137	0.14223	-0.226
Mof_H 	H 	0.2631	0.5872	0.1138	0.108
Mof_C 	C 	0.33011	0.56228	0.13899	0.122
Mof_H 	H 	0.344	0.5554	0.1084	-0.005
Mof_C 	C 	0.05956	0.53371	0.06383	0.379
Mof_C 	C 	0.09758	0.55474	0.09936	-0.17
Mof_C 	C 	0.09823	0.60553	0.11149	0.114
Mof_H 	H 	0.0738	0.6269	0.0986	-0.005
Mof_C 	C 	0.13459	0.62463	0.14231	-0.217
Mof_H 	H 	0.1344	0.6588	0.15	0.104
Mof_C 	C 	0.17191	0.59329	0.16227	0.183
Mof_C 	C 	0.17008	0.54205	0.15073	-0.218
Mof_H 	H 	0.1936	0.5203	0.1645	0.108
Mof_C 	C 	0.13431	0.52318	0.11952	0.114
Mof_H 	H 	0.1345	0.4891	0.1117	-0.001
Mof_C 	C 	0.20465	0.65656	0.22117	0.245
Mof_C 	C 	0.24077	0.69304	0.22146	-0.304
Mof_H 	H 	0.2694	0.6893	0.2021	0.138
Mof_C 	C 	0.462	0.4819	0.3319	0.106
Mof_H 	H 	0.4344	0.4692	0.3148	0.003
Mof_N 	N 	0.4162	0.4574	0.4524	-0.256
Mof_C 	C 	0.414	0.4567	0.4052	0.106
Mof_H 	H 	0.387	0.4432	0.3878	-0.006
Mof_C 	C 	0.4599	0.4802	0.3806	-0.214
Mof_O 	O 	0.5019	0.5171	0.4542	-0.312
Mof_C 	C 	0.3675	0.4426	0.4732	-0.089
Mof_H 	H 	0.3417	0.4657	0.4616	0.045
Mof_H 	H 	0.3589	0.4091	0.4616	0.051
Mof_C 	C 	0.5389	0.5333	0.0285	-0.043
Mof_H 	H 	0.5716	0.5223	0.0404	0.02
Mof_C 	C 	0.0732	0.367	0.9501	-0.025
Mof_H 	H 	0.0883	0.393	0.9299	0.038
Mof_H 	H 	0.0405	0.3586	0.9362	0.032
Mof_C 	C 	0.1077	0.319	0.9496	-0.003
Mof_H 	H 	0.0915	0.2929	0.9303	0.027
Mof_H 	H 	0.1394	0.3273	0.9339	0.027
Mof_H 	H 	0.0143	0.3436	0.9713	0.067
Mof_H 	H 	0.0547	0.2729	0.0288	0.048
Mof_H 	H 	0.1282	0.411	0.0287	0.054
Mof_H 	H 	0.1696	0.3429	0.9713	0.075
Mof_C 	C 	0.4488	0.5032	0.0284	-0.035
Mof_H 	H 	0.4293	0.4747	0.0402	0.02
Mof_H 	H 	0.5331	0.5673	0.0404	0.048
Mof_N 	N 	0.78923	0.38766	0.19131	-0.209
Mof_O 	O 	0.57047	0.47533	0.13759	-0.417
Mof_O 	O 	0.56805	0.47301	0.21923	-0.413
Mof_O 	O 	0.93491	0.51096	0.05052	-0.42
Mof_O 	O 	0.97485	0.43613	0.0504	-0.404
Mof_C 	C 	0.58923	0.46672	0.17844	0.394
Mof_C 	C 	0.64218	0.44652	0.18094	-0.177
Mof_C 	C 	0.66362	0.43578	0.22586	0.122
Mof_H 	H 	0.6452	0.4411	0.2544	0.003
Mof_C 	C 	0.7124	0.4172	0.22889	-0.226
Mof_H 	H 	0.7267	0.4108	0.2594	0.111
Mof_C 	C 	0.73955	0.40822	0.18727	0.191
Mof_C 	C 	0.71844	0.41863	0.14223	-0.227
Mof_H 	H 	0.7369	0.4128	0.1138	0.108
Mof_C 	C 	0.66989	0.43772	0.13899	0.122
Mof_H 	H 	0.656	0.4446	0.1084	-0.005
Mof_C 	C 	0.94044	0.46629	0.06383	0.376
Mof_C 	C 	0.90242	0.44526	0.09936	-0.163
Mof_C 	C 	0.90177	0.39447	0.11149	0.111
Mof_H 	H 	0.9262	0.3731	0.0986	0.003
Mof_C 	C 	0.86541	0.37537	0.14231	-0.212
Mof_H 	H 	0.8656	0.3412	0.15	0.105
Mof_C 	C 	0.82809	0.40671	0.16227	0.182
Mof_C 	C 	0.82992	0.45795	0.15073	-0.214
Mof_H 	H 	0.8064	0.4797	0.1645	0.108
Mof_C 	C 	0.86569	0.47682	0.11952	0.111
Mof_H 	H 	0.8655	0.5109	0.1117	0.001
Mof_C 	C 	0.79535	0.34344	0.22117	0.247
Mof_C 	C 	0.75923	0.30696	0.22146	-0.306
Mof_H 	H 	0.7306	0.3107	0.2021	0.138
Mof_C 	C 	0.538	0.5181	0.3319	0.106
Mof_H 	H 	0.5656	0.5308	0.3148	0.003
Mof_N 	N 	0.5838	0.5426	0.4524	-0.256
Mof_C 	C 	0.586	0.5433	0.4052	0.106
Mof_H 	H 	0.613	0.5568	0.3878	-0.006
Mof_C 	C 	0.5401	0.5198	0.3806	-0.214
Mof_O 	O 	0.4981	0.4829	0.4542	-0.312
Mof_C 	C 	0.6325	0.5574	0.4732	-0.09
Mof_H 	H 	0.6583	0.5343	0.4616	0.045
Mof_H 	H 	0.6411	0.5909	0.4616	0.051
Mof_C 	C 	0.4611	0.4667	0.0285	-0.043
Mof_H 	H 	0.4284	0.4777	0.0404	0.02
Mof_C 	C 	0.9268	0.633	0.9501	-0.027
Mof_H 	H 	0.9117	0.607	0.9299	0.042
Mof_H 	H 	0.9595	0.6414	0.9362	0.039
Mof_C 	C 	0.8923	0.681	0.9496	-0.003
Mof_H 	H 	0.9085	0.7071	0.9303	0.03
Mof_H 	H 	0.8606	0.6727	0.9339	0.028
Mof_H 	H 	0.9857	0.6564	0.9713	0.077
Mof_H 	H 	0.9453	0.7271	0.0288	0.051
Mof_H 	H 	0.8718	0.589	0.0287	0.055
Mof_H 	H 	0.8304	0.6571	0.9713	0.075
Mof_C 	C 	0.5512	0.4968	0.0284	-0.035
Mof_H 	H 	0.5707	0.5253	0.0402	0.02
Mof_H 	H 	0.4669	0.4327	0.0404	0.048
Mof_N 	N 	0.88766	0.28923	0.30869	-0.213
Mof_O 	O 	0.97533	0.07047	0.36241	-0.41
Mof_O 	O 	0.97301	0.06805	0.28077	-0.407
Mof_O 	O 	0.01096	0.43491	0.44948	-0.437
Mof_O 	O 	0.93613	0.47485	0.4496	-0.413
Mof_C 	C 	0.96672	0.08923	0.32156	0.392
Mof_C 	C 	0.94652	0.14218	0.31906	-0.173
Mof_C 	C 	0.93578	0.16362	0.27414	0.121
Mof_H 	H 	0.9411	0.1452	0.2456	0.005
Mof_C 	C 	0.9172	0.2124	0.27111	-0.225
Mof_H 	H 	0.9108	0.2267	0.2406	0.111
Mof_C 	C 	0.90822	0.23955	0.31273	0.192
Mof_C 	C 	0.91863	0.21844	0.35777	-0.225
Mof_H 	H 	0.9128	0.2369	0.3862	0.113
Mof_C 	C 	0.93772	0.16989	0.36101	0.122
Mof_H 	H 	0.9446	0.156	0.3916	-0
Mof_C 	C 	0.96629	0.44044	0.43617	0.412
Mof_C 	C 	0.94526	0.40242	0.40064	-0.196
Mof_C 	C 	0.89447	0.40177	0.38851	0.14
Mof_H 	H 	0.8731	0.4262	0.4014	-0.007
Mof_C 	C 	0.87537	0.36541	0.35769	-0.235
Mof_H 	H 	0.8412	0.3656	0.35	0.113
Mof_C 	C 	0.90671	0.32809	0.33773	0.204
Mof_C 	C 	0.95795	0.32992	0.34927	-0.253
Mof_H 	H 	0.9797	0.3064	0.3355	0.126
Mof_C 	C 	0.97682	0.36569	0.38048	0.178
Mof_H 	H 	0.0109	0.3655	0.3883	-0.032
Mof_C 	C 	0.84344	0.29535	0.27883	0.247
Mof_C 	C 	0.80696	0.25923	0.27854	-0.306
Mof_H 	H 	0.8107	0.2306	0.2979	0.139
Mof_C 	C 	0.0181	0.038	0.1681	0.082
Mof_H 	H 	0.0308	0.0656	0.1852	0.006
Mof_N 	N 	0.0426	0.0838	0.0476	-0.253
Mof_C 	C 	0.0433	0.086	0.0948	0.092
Mof_H 	H 	0.0568	0.113	0.1122	-0.006
Mof_C 	C 	0.0198	0.0401	0.1194	-0.2
Mof_O 	O 	0.9829	0.9981	0.0458	-0.239
Mof_C 	C 	0.0574	0.1325	0.0268	-0.151
Mof_H 	H 	0.0343	0.1583	0.0384	0.052
Mof_H 	H 	0.0909	0.1411	0.0384	0.06
Mof_C 	C 	0.9667	0.9611	0.4715	0.055
Mof_H 	H 	0.9777	0.9284	0.4596	0.045
Mof_C 	C 	0.133	0.4268	0.5499	-0.073
Mof_H 	H 	0.107	0.4117	0.5701	0.052
Mof_H 	H 	0.1414	0.4595	0.5638	0.049
Mof_C 	C 	0.181	0.3923	0.5504	-0.042
Mof_H 	H 	0.2071	0.4085	0.5697	0.037
Mof_H 	H 	0.1727	0.3606	0.5661	0.037
Mof_H 	H 	0.1564	0.4857	0.5287	0.031
Mof_H 	H 	0.2271	0.4453	0.4712	0.04
Mof_H 	H 	0.089	0.3718	0.4713	0.042
Mof_H 	H 	0.1571	0.3304	0.5287	0.036
Mof_C 	C 	0.9968	0.0512	0.4716	0.309
Mof_H 	H 	0.0253	0.0707	0.4598	-0.047
Mof_H 	H 	0.9327	0.9669	0.4596	-0.074
Mof_N 	N 	0.11234	0.71077	0.30869	-0.206
Mof_O 	O 	0.02467	0.92953	0.36241	-0.413
Mof_O 	O 	0.02699	0.93195	0.28077	-0.41
Mof_O 	O 	0.98904	0.56509	0.44948	-0.397
Mof_O 	O 	0.06387	0.52515	0.4496	-0.402
Mof_C 	C 	0.03328	0.91077	0.32156	0.392
Mof_C 	C 	0.05348	0.85782	0.31906	-0.175
Mof_C 	C 	0.06422	0.83638	0.27414	0.12
Mof_H 	H 	0.0589	0.8548	0.2456	0.001
Mof_C 	C 	0.0828	0.7876	0.27111	-0.225
Mof_H 	H 	0.0892	0.7733	0.2406	0.108
Mof_C 	C 	0.09178	0.76045	0.31273	0.189
Mof_C 	C 	0.08137	0.78156	0.35777	-0.225
Mof_H 	H 	0.0872	0.7631	0.3862	0.111
Mof_C 	C 	0.06228	0.83011	0.36101	0.121
Mof_H 	H 	0.0554	0.844	0.3916	-0.001
Mof_C 	C 	0.03371	0.55956	0.43617	0.346
Mof_C 	C 	0.05474	0.59758	0.40064	-0.131
Mof_C 	C 	0.10553	0.59823	0.38851	0.086
Mof_H 	H 	0.1269	0.5738	0.4014	0.011
Mof_C 	C 	0.12463	0.63459	0.35769	-0.191
Mof_H 	H 	0.1588	0.6344	0.35	0.098
Mof_C 	C 	0.09329	0.67191	0.33773	0.163
Mof_C 	C 	0.04205	0.67008	0.34927	-0.177
Mof_H 	H 	0.0203	0.6936	0.3355	0.092
Mof_C 	C 	0.02318	0.63431	0.38048	0.051
Mof_H 	H 	0.9891	0.6345	0.3883	0.035
Mof_C 	C 	0.15656	0.70465	0.27883	0.245
Mof_C 	C 	0.19304	0.74077	0.27854	-0.304
Mof_H 	H 	0.1893	0.7694	0.2979	0.139
Mof_C 	C 	0.9819	0.962	0.1681	0.12
Mof_H 	H 	0.9692	0.9344	0.1852	0.003
Mof_N 	N 	0.9574	0.9162	0.0476	-0.249
Mof_C 	C 	0.9567	0.914	0.0948	0.095
Mof_H 	H 	0.9432	0.887	0.1122	-0.002
Mof_C 	C 	0.9802	0.9599	0.1194	-0.181
Mof_O 	O 	0.0171	0.0019	0.0458	-0.36
Mof_C 	C 	0.9426	0.8675	0.0268	-0.151
Mof_H 	H 	0.9657	0.8417	0.0384	0.058
Mof_H 	H 	0.9091	0.8589	0.0384	0.063
Mof_C 	C 	0.0333	0.0389	0.4715	-0.105
Mof_H 	H 	0.0223	0.0716	0.4596	-0.009
Mof_C 	C 	0.867	0.5732	0.5499	-0.073
Mof_H 	H 	0.893	0.5883	0.5701	0.053
Mof_H 	H 	0.8586	0.5405	0.5638	0.05
Mof_C 	C 	0.819	0.6077	0.5504	-0.043
Mof_H 	H 	0.7929	0.5915	0.5697	0.038
Mof_H 	H 	0.8273	0.6394	0.5661	0.038
Mof_H 	H 	0.8436	0.5143	0.5287	0.032
Mof_H 	H 	0.7729	0.5547	0.4712	0.04
Mof_H 	H 	0.911	0.6282	0.4713	0.044
Mof_H 	H 	0.8429	0.6696	0.5287	0.038
Mof_C 	C 	0.0032	0.9488	0.4716	-0.335
Mof_H 	H 	0.9747	0.9293	0.4598	0.082
Mof_H 	H 	0.0673	0.0331	0.4596	0.166
Mof_N 	N 	0.28923	0.11234	0.30869	-0.206
Mof_O 	O 	0.07047	0.02467	0.36241	-0.424
Mof_O 	O 	0.06805	0.02699	0.28077	-0.42
Mof_O 	O 	0.43491	0.98904	0.44948	-0.397
Mof_O 	O 	0.47485	0.06387	0.4496	-0.401
Mof_C 	C 	0.08923	0.03328	0.32156	0.394
Mof_C 	C 	0.14218	0.05348	0.31906	-0.18
Mof_C 	C 	0.16362	0.06422	0.27414	0.122
Mof_H 	H 	0.1452	0.0589	0.2456	-0.001
Mof_C 	C 	0.2124	0.0828	0.27111	-0.228
Mof_H 	H 	0.2267	0.0892	0.2406	0.109
Mof_C 	C 	0.23955	0.09178	0.31273	0.19
Mof_C 	C 	0.21844	0.08137	0.35777	-0.227
Mof_H 	H 	0.2369	0.0872	0.3862	0.111
Mof_C 	C 	0.16989	0.06228	0.36101	0.123
Mof_H 	H 	0.156	0.0554	0.3916	-0.005
Mof_C 	C 	0.44044	0.03371	0.43617	0.346
Mof_C 	C 	0.40242	0.05474	0.40064	-0.13
Mof_C 	C 	0.40177	0.10553	0.38851	0.085
Mof_H 	H 	0.4262	0.1269	0.4014	0.011
Mof_C 	C 	0.36541	0.12463	0.35769	-0.19
Mof_H 	H 	0.3656	0.1588	0.35	0.098
Mof_C 	C 	0.32809	0.09329	0.33773	0.162
Mof_C 	C 	0.32992	0.04205	0.34927	-0.175
Mof_H 	H 	0.3064	0.0203	0.3355	0.091
Mof_C 	C 	0.36569	0.02318	0.38048	0.048
Mof_H 	H 	0.3655	0.9891	0.3883	0.036
Mof_C 	C 	0.29535	0.15656	0.27883	0.244
Mof_C 	C 	0.25923	0.19304	0.27854	-0.304
Mof_H 	H 	0.2306	0.1893	0.2979	0.138
Mof_C 	C 	0.038	0.9819	0.1681	0.105
Mof_H 	H 	0.0656	0.9692	0.1852	0.006
Mof_N 	N 	0.0838	0.9574	0.0476	-0.248
Mof_C 	C 	0.086	0.9567	0.0948	0.095
Mof_H 	H 	0.113	0.9432	0.1122	-0.003
Mof_C 	C 	0.0401	0.9802	0.1194	-0.185
Mof_O 	O 	0.9981	0.0171	0.0458	-0.295
Mof_C 	C 	0.1325	0.9426	0.0268	-0.151
Mof_H 	H 	0.1583	0.9657	0.0384	0.059
Mof_H 	H 	0.1411	0.9091	0.0384	0.061
Mof_C 	C 	0.9611	0.0333	0.4715	-0.409
Mof_H 	H 	0.9284	0.0223	0.4596	0.068
Mof_C 	C 	0.4268	0.867	0.5499	-0.073
Mof_H 	H 	0.4117	0.893	0.5701	0.053
Mof_H 	H 	0.4595	0.8586	0.5638	0.05
Mof_C 	C 	0.3923	0.819	0.5504	-0.043
Mof_H 	H 	0.4085	0.7929	0.5697	0.038
Mof_H 	H 	0.3606	0.8273	0.5661	0.038
Mof_H 	H 	0.4857	0.8436	0.5287	0.032
Mof_H 	H 	0.4453	0.7729	0.4712	0.04
Mof_H 	H 	0.3718	0.911	0.4713	0.044
Mof_H 	H 	0.3304	0.8429	0.5287	0.038
Mof_C 	C 	0.0512	0.0032	0.4716	-0.28
Mof_H 	H 	0.0707	0.9747	0.4598	0.029
Mof_H 	H 	0.9669	0.0673	0.4596	0.068
Mof_N 	N 	0.71077	0.88766	0.30869	-0.212
Mof_O 	O 	0.92953	0.97533	0.36241	-0.401
Mof_O 	O 	0.93195	0.97301	0.28077	-0.399
Mof_O 	O 	0.56509	0.01096	0.44948	-0.436
Mof_O 	O 	0.52515	0.93613	0.4496	-0.413
Mof_C 	C 	0.91077	0.96672	0.32156	0.391
Mof_C 	C 	0.85782	0.94652	0.31906	-0.17
Mof_C 	C 	0.83638	0.93578	0.27414	0.12
Mof_H 	H 	0.8548	0.9411	0.2456	0.006
Mof_C 	C 	0.7876	0.9172	0.27111	-0.223
Mof_H 	H 	0.7733	0.9108	0.2406	0.111
Mof_C 	C 	0.76045	0.90822	0.31273	0.191
Mof_C 	C 	0.78156	0.91863	0.35777	-0.223
Mof_H 	H 	0.7631	0.9128	0.3862	0.112
Mof_C 	C 	0.83011	0.93772	0.36101	0.121
Mof_H 	H 	0.844	0.9446	0.3916	0.003
Mof_C 	C 	0.55956	0.96629	0.43617	0.411
Mof_C 	C 	0.59758	0.94526	0.40064	-0.195
Mof_C 	C 	0.59823	0.89447	0.38851	0.139
Mof_H 	H 	0.5738	0.8731	0.4014	-0.007
Mof_C 	C 	0.63459	0.87537	0.35769	-0.234
Mof_H 	H 	0.6344	0.8412	0.35	0.113
Mof_C 	C 	0.67191	0.90671	0.33773	0.203
Mof_C 	C 	0.67008	0.95795	0.34927	-0.251
Mof_H 	H 	0.6936	0.9797	0.3355	0.126
Mof_C 	C 	0.63431	0.97682	0.38048	0.176
Mof_H 	H 	0.6345	0.0109	0.3883	-0.031
Mof_C 	C 	0.70465	0.84344	0.27883	0.248
Mof_C 	C 	0.74077	0.80696	0.27854	-0.306
Mof_H 	H 	0.7694	0.8107	0.2979	0.14
Mof_C 	C 	0.962	0.0181	0.1681	0.111
Mof_H 	H 	0.9344	0.0308	0.1852	-0.001
Mof_N 	N 	0.9162	0.0426	0.0476	-0.254
Mof_C 	C 	0.914	0.0433	0.0948	0.094
Mof_H 	H 	0.887	0.0568	0.1122	-0.005
Mof_C 	C 	0.9599	0.0198	0.1194	-0.197
Mof_O 	O 	0.0019	0.9829	0.0458	-0.325
Mof_C 	C 	0.8675	0.0574	0.0268	-0.15
Mof_H 	H 	0.8417	0.0343	0.0384	0.052
Mof_H 	H 	0.8589	0.0909	0.0384	0.062
Mof_C 	C 	0.0389	0.9667	0.4715	0.364
Mof_H 	H 	0.0716	0.9777	0.4596	-0.03
Mof_C 	C 	0.5732	0.133	0.5499	-0.073
Mof_H 	H 	0.5883	0.107	0.5701	0.052
Mof_H 	H 	0.5405	0.1414	0.5638	0.049
Mof_C 	C 	0.6077	0.181	0.5504	-0.042
Mof_H 	H 	0.5915	0.2071	0.5697	0.037
Mof_H 	H 	0.6394	0.1727	0.5661	0.037
Mof_H 	H 	0.5143	0.1564	0.5287	0.031
Mof_H 	H 	0.5547	0.2271	0.4712	0.04
Mof_H 	H 	0.6282	0.089	0.4713	0.042
Mof_H 	H 	0.6696	0.1571	0.5287	0.036
Mof_C 	C 	0.9488	0.9968	0.4716	0.243
Mof_H 	H 	0.9293	0.0253	0.4598	0.008
Mof_H 	H 	0.0331	0.9327	0.4596	0.019
Mof_N 	N 	0.38766	0.21077	0.80869	-0.209
Mof_O 	O 	0.47533	0.42953	0.86241	-0.415
Mof_O 	O 	0.47301	0.43195	0.78077	-0.413
Mof_O 	O 	0.51096	0.06509	0.94948	-0.406
Mof_O 	O 	0.43613	0.02515	0.9496	-0.403
Mof_C 	C 	0.46672	0.41077	0.82156	0.394
Mof_C 	C 	0.44652	0.35782	0.81906	-0.175
Mof_C 	C 	0.43578	0.33638	0.77414	0.122
Mof_H 	H 	0.4411	0.3548	0.7456	0.003
Mof_C 	C 	0.4172	0.2876	0.77111	-0.226
Mof_H 	H 	0.4108	0.2733	0.7406	0.111
Mof_C 	C 	0.40822	0.26045	0.81273	0.192
Mof_C 	C 	0.41863	0.28156	0.85777	-0.225
Mof_H 	H 	0.4128	0.2631	0.8862	0.116
Mof_C 	C 	0.43772	0.33011	0.86101	0.123
Mof_H 	H 	0.4446	0.344	0.8916	0.003
Mof_C 	C 	0.46629	0.05956	0.93617	0.378
Mof_C 	C 	0.44526	0.09758	0.90064	-0.162
Mof_C 	C 	0.39447	0.09823	0.88851	0.114
Mof_H 	H 	0.3731	0.0738	0.9014	0.001
Mof_C 	C 	0.37537	0.13459	0.85769	-0.212
Mof_H 	H 	0.3412	0.1344	0.85	0.106
Mof_C 	C 	0.40671	0.17191	0.83773	0.184
Mof_C 	C 	0.45795	0.17008	0.84927	-0.214
Mof_H 	H 	0.4797	0.1936	0.8355	0.109
Mof_C 	C 	0.47682	0.13431	0.88048	0.114
Mof_H 	H 	0.5109	0.1345	0.8883	0.003
Mof_C 	C 	0.34344	0.20465	0.77883	0.246
Mof_C 	C 	0.30696	0.24077	0.77854	-0.305
Mof_H 	H 	0.3107	0.2694	0.7979	0.14
Mof_C 	C 	0.5181	0.462	0.6681	0.106
Mof_H 	H 	0.5308	0.4344	0.6852	0.003
Mof_N 	N 	0.5426	0.4162	0.5476	-0.256
Mof_C 	C 	0.5433	0.414	0.5948	0.106
Mof_H 	H 	0.5568	0.387	0.6122	-0.006
Mof_C 	C 	0.5198	0.4599	0.6194	-0.214
Mof_O 	O 	0.4829	0.5019	0.5458	-0.312
Mof_C 	C 	0.5574	0.3675	0.5268	-0.089
Mof_H 	H 	0.5343	0.3417	0.5384	0.045
Mof_H 	H 	0.5909	0.3589	0.5384	0.051
Mof_C 	C 	0.4667	0.5389	0.9715	-0.013
Mof_H 	H 	0.4777	0.5716	0.9596	0.019
Mof_C 	C 	0.633	0.0732	0.0499	-0.051
Mof_H 	H 	0.607	0.0883	0.0701	0.044
Mof_H 	H 	0.6414	0.0405	0.0638	0.039
Mof_C 	C 	0.681	0.1077	0.0504	-0.026
Mof_H 	H 	0.7071	0.0915	0.0697	0.029
Mof_H 	H 	0.6727	0.1394	0.0661	0.03
Mof_H 	H 	0.6564	0.0143	0.0287	0.042
Mof_H 	H 	0.7271	0.0547	0.9712	0.075
Mof_H 	H 	0.589	0.1282	0.9713	0.079
Mof_H 	H 	0.6571	0.1696	0.0287	0.048
Mof_C 	C 	0.4968	0.4488	0.9716	-0.005
Mof_H 	H 	0.5253	0.4293	0.9598	0.018
Mof_H 	H 	0.4327	0.5331	0.9596	0.045
Mof_N 	N 	0.61234	0.78923	0.80869	-0.209
Mof_O 	O 	0.52467	0.57047	0.86241	-0.415
Mof_O 	O 	0.52699	0.56805	0.78077	-0.413
Mof_O 	O 	0.48904	0.93491	0.94948	-0.399
Mof_O 	O 	0.56387	0.97485	0.9496	-0.384
Mof_C 	C 	0.53328	0.58923	0.82156	0.394
Mof_C 	C 	0.55348	0.64218	0.81906	-0.175
Mof_C 	C 	0.56422	0.66362	0.77414	0.122
Mof_H 	H 	0.5589	0.6452	0.7456	0.003
Mof_C 	C 	0.5828	0.7124	0.77111	-0.226
Mof_H 	H 	0.5892	0.7267	0.7406	0.111
Mof_C 	C 	0.59178	0.73955	0.81273	0.192
Mof_C 	C 	0.58137	0.71844	0.85777	-0.225
Mof_H 	H 	0.5872	0.7369	0.8862	0.116
Mof_C 	C 	0.56228	0.66989	0.86101	0.124
Mof_H 	H 	0.5554	0.656	0.8916	0.003
Mof_C 	C 	0.53371	0.94044	0.93617	0.376
Mof_C 	C 	0.55474	0.90242	0.90064	-0.155
Mof_C 	C 	0.60553	0.90177	0.88851	0.111
Mof_H 	H 	0.6269	0.9262	0.9014	0.009
Mof_C 	C 	0.62463	0.86541	0.85769	-0.208
Mof_H 	H 	0.6588	0.8656	0.85	0.107
Mof_C 	C 	0.59329	0.82809	0.83773	0.183
Mof_C 	C 	0.54205	0.82992	0.84927	-0.21
Mof_H 	H 	0.5203	0.8064	0.8355	0.109
Mof_C 	C 	0.52318	0.86569	0.88048	0.111
Mof_H 	H 	0.4891	0.8655	0.8883	0.005
Mof_C 	C 	0.65656	0.79535	0.77883	0.248
Mof_C 	C 	0.69304	0.75923	0.77854	-0.306
Mof_H 	H 	0.6893	0.7306	0.7979	0.141
Mof_C 	C 	0.4819	0.538	0.6681	0.106
Mof_H 	H 	0.4692	0.5656	0.6852	0.003
Mof_N 	N 	0.4574	0.5838	0.5476	-0.256
Mof_C 	C 	0.4567	0.586	0.5948	0.106
Mof_H 	H 	0.4432	0.613	0.6122	-0.006
Mof_C 	C 	0.4802	0.5401	0.6194	-0.214
Mof_O 	O 	0.5171	0.4981	0.5458	-0.312
Mof_C 	C 	0.4426	0.6325	0.5268	-0.09
Mof_H 	H 	0.4657	0.6583	0.5384	0.045
Mof_H 	H 	0.4091	0.6411	0.5384	0.051
Mof_C 	C 	0.5333	0.4611	0.9715	-0.013
Mof_H 	H 	0.5223	0.4284	0.9596	0.019
Mof_C 	C 	0.367	0.9268	0.0499	-0.054
Mof_H 	H 	0.393	0.9117	0.0701	0.047
Mof_H 	H 	0.3586	0.9595	0.0638	0.045
Mof_C 	C 	0.319	0.8923	0.0504	-0.026
Mof_H 	H 	0.2929	0.9085	0.0697	0.032
Mof_H 	H 	0.3273	0.8606	0.0661	0.031
Mof_H 	H 	0.3436	0.9857	0.0287	0.052
Mof_H 	H 	0.2729	0.9453	0.9712	0.078
Mof_H 	H 	0.411	0.8718	0.9713	0.08
Mof_H 	H 	0.3429	0.8304	0.0287	0.048
Mof_C 	C 	0.5032	0.5512	0.9716	-0.005
Mof_H 	H 	0.4747	0.5707	0.9598	0.018
Mof_H 	H 	0.5673	0.4669	0.9596	0.045
Mof_N 	N 	0.78923	0.38766	0.80869	-0.209
Mof_O 	O 	0.57047	0.47533	0.86241	-0.415
Mof_O 	O 	0.56805	0.47301	0.78077	-0.413
Mof_O 	O 	0.93491	0.51096	0.94948	-0.399
Mof_O 	O 	0.97485	0.43613	0.9496	-0.384
Mof_C 	C 	0.58923	0.46672	0.82156	0.394
Mof_C 	C 	0.64218	0.44652	0.81906	-0.175
Mof_C 	C 	0.66362	0.43578	0.77414	0.122
Mof_H 	H 	0.6452	0.4411	0.7456	0.003
Mof_C 	C 	0.7124	0.4172	0.77111	-0.226
Mof_H 	H 	0.7267	0.4108	0.7406	0.111
Mof_C 	C 	0.73955	0.40822	0.81273	0.192
Mof_C 	C 	0.71844	0.41863	0.85777	-0.225
Mof_H 	H 	0.7369	0.4128	0.8862	0.116
Mof_C 	C 	0.66989	0.43772	0.86101	0.123
Mof_H 	H 	0.656	0.4446	0.8916	0.003
Mof_C 	C 	0.94044	0.46629	0.93617	0.376
Mof_C 	C 	0.90242	0.44526	0.90064	-0.155
Mof_C 	C 	0.90177	0.39447	0.88851	0.111
Mof_H 	H 	0.9262	0.3731	0.9014	0.009
Mof_C 	C 	0.86541	0.37537	0.85769	-0.208
Mof_H 	H 	0.8656	0.3412	0.85	0.107
Mof_C 	C 	0.82809	0.40671	0.83773	0.182
Mof_C 	C 	0.82992	0.45795	0.84927	-0.21
Mof_H 	H 	0.8064	0.4797	0.8355	0.109
Mof_C 	C 	0.86569	0.47682	0.88048	0.111
Mof_H 	H 	0.8655	0.5109	0.8883	0.005
Mof_C 	C 	0.79535	0.34344	0.77883	0.248
Mof_C 	C 	0.75923	0.30696	0.77854	-0.306
Mof_H 	H 	0.7306	0.3107	0.7979	0.141
Mof_C 	C 	0.538	0.5181	0.6681	0.106
Mof_H 	H 	0.5656	0.5308	0.6852	0.003
Mof_N 	N 	0.5838	0.5426	0.5476	-0.256
Mof_C 	C 	0.586	0.5433	0.5948	0.106
Mof_H 	H 	0.613	0.5568	0.6122	-0.006
Mof_C 	C 	0.5401	0.5198	0.6194	-0.214
Mof_O 	O 	0.4981	0.4829	0.5458	-0.312
Mof_C 	C 	0.6325	0.5574	0.5268	-0.09
Mof_H 	H 	0.6583	0.5343	0.5384	0.045
Mof_H 	H 	0.6411	0.5909	0.5384	0.051
Mof_C 	C 	0.4611	0.4667	0.9715	-0.013
Mof_H 	H 	0.4284	0.4777	0.9596	0.019
Mof_C 	C 	0.9268	0.633	0.0499	-0.053
Mof_H 	H 	0.9117	0.607	0.0701	0.047
Mof_H 	H 	0.9595	0.6414	0.0638	0.045
Mof_C 	C 	0.8923	0.681	0.0504	-0.026
Mof_H 	H 	0.9085	0.7071	0.0697	0.032
Mof_H 	H 	0.8606	0.6727	0.0661	0.031
Mof_H 	H 	0.9857	0.6564	0.0287	0.052
Mof_H 	H 	0.9453	0.7271	0.9712	0.078
Mof_H 	H 	0.8718	0.589	0.9713	0.08
Mof_H 	H 	0.8304	0.6571	0.0287	0.048
Mof_C 	C 	0.5512	0.4968	0.9716	-0.005
Mof_H 	H 	0.5707	0.5253	0.9598	0.018
Mof_H 	H 	0.4669	0.4327	0.9596	0.045
Mof_N 	N 	0.21077	0.61234	0.80869	-0.209
Mof_O 	O 	0.42953	0.52467	0.86241	-0.415
Mof_O 	O 	0.43195	0.52699	0.78077	-0.413
Mof_O 	O 	0.06509	0.48904	0.94948	-0.406
Mof_O 	O 	0.02515	0.56387	0.9496	-0.403
Mof_C 	C 	0.41077	0.53328	0.82156	0.394
Mof_C 	C 	0.35782	0.55348	0.81906	-0.175
Mof_C 	C 	0.33638	0.56422	0.77414	0.122
Mof_H 	H 	0.3548	0.5589	0.7456	0.003
Mof_C 	C 	0.2876	0.5828	0.77111	-0.226
Mof_H 	H 	0.2733	0.5892	0.7406	0.111
Mof_C 	C 	0.26045	0.59178	0.81273	0.192
Mof_C 	C 	0.28156	0.58137	0.85777	-0.225
Mof_H 	H 	0.2631	0.5872	0.8862	0.116
Mof_C 	C 	0.33011	0.56228	0.86101	0.123
Mof_H 	H 	0.344	0.5554	0.8916	0.003
Mof_C 	C 	0.05956	0.53371	0.93617	0.378
Mof_C 	C 	0.09758	0.55474	0.90064	-0.162
Mof_C 	C 	0.09823	0.60553	0.88851	0.114
Mof_H 	H 	0.0738	0.6269	0.9014	0.001
Mof_C 	C 	0.13459	0.62463	0.85769	-0.212
Mof_H 	H 	0.1344	0.6588	0.85	0.106
Mof_C 	C 	0.17191	0.59329	0.83773	0.184
Mof_C 	C 	0.17008	0.54205	0.84927	-0.214
Mof_H 	H 	0.1936	0.5203	0.8355	0.109
Mof_C 	C 	0.13431	0.52318	0.88048	0.114
Mof_H 	H 	0.1345	0.4891	0.8883	0.003
Mof_C 	C 	0.20465	0.65656	0.77883	0.246
Mof_C 	C 	0.24077	0.69304	0.77854	-0.304
Mof_H 	H 	0.2694	0.6893	0.7979	0.141
Mof_C 	C 	0.462	0.4819	0.6681	0.106
Mof_H 	H 	0.4344	0.4692	0.6852	0.003
Mof_N 	N 	0.4162	0.4574	0.5476	-0.256
Mof_C 	C 	0.414	0.4567	0.5948	0.106
Mof_H 	H 	0.387	0.4432	0.6122	-0.006
Mof_C 	C 	0.4599	0.4802	0.6194	-0.214
Mof_O 	O 	0.5019	0.5171	0.5458	-0.312
Mof_C 	C 	0.3675	0.4426	0.5268	-0.089
Mof_H 	H 	0.3417	0.4657	0.5384	0.045
Mof_H 	H 	0.3589	0.4091	0.5384	0.051
Mof_C 	C 	0.5389	0.5333	0.9715	-0.013
Mof_H 	H 	0.5716	0.5223	0.9596	0.019
Mof_C 	C 	0.0732	0.367	0.0499	-0.051
Mof_H 	H 	0.0883	0.393	0.0701	0.044
Mof_H 	H 	0.0405	0.3586	0.0638	0.039
Mof_C 	C 	0.1077	0.319	0.0504	-0.025
Mof_H 	H 	0.0915	0.2929	0.0697	0.029
Mof_H 	H 	0.1394	0.3273	0.0661	0.029
Mof_H 	H 	0.0143	0.3436	0.0287	0.042
Mof_H 	H 	0.0547	0.2729	0.9712	0.074
Mof_H 	H 	0.1282	0.411	0.9713	0.079
Mof_H 	H 	0.1696	0.3429	0.0287	0.048
Mof_C 	C 	0.4488	0.5032	0.9716	-0.005
Mof_H 	H 	0.4293	0.4747	0.9598	0.018
Mof_H 	H 	0.5331	0.5673	0.9596	0.045
Mof_N 	N 	0.11234	0.71077	0.69131	-0.206
Mof_O 	O 	0.02467	0.92953	0.63759	-0.413
Mof_O 	O 	0.02699	0.93195	0.71923	-0.41
Mof_O 	O 	0.98904	0.56509	0.55052	-0.397
Mof_O 	O 	0.06387	0.52515	0.5504	-0.402
Mof_C 	C 	0.03328	0.91077	0.67844	0.392
Mof_C 	C 	0.05348	0.85782	0.68094	-0.175
Mof_C 	C 	0.06422	0.83638	0.72586	0.121
Mof_H 	H 	0.0589	0.8548	0.7544	0.002
Mof_C 	C 	0.0828	0.7876	0.72889	-0.226
Mof_H 	H 	0.0892	0.7733	0.7594	0.11
Mof_C 	C 	0.09178	0.76045	0.68727	0.19
Mof_C 	C 	0.08137	0.78156	0.64223	-0.225
Mof_H 	H 	0.0872	0.7631	0.6138	0.111
Mof_C 	C 	0.06228	0.83011	0.63899	0.121
Mof_H 	H 	0.0554	0.844	0.6084	-0.001
Mof_C 	C 	0.03371	0.55956	0.56383	0.346
Mof_C 	C 	0.05474	0.59758	0.59936	-0.131
Mof_C 	C 	0.10553	0.59823	0.61149	0.086
Mof_H 	H 	0.1269	0.5738	0.5986	0.011
Mof_C 	C 	0.12463	0.63459	0.64231	-0.191
Mof_H 	H 	0.1588	0.6344	0.65	0.098
Mof_C 	C 	0.09329	0.67191	0.66227	0.163
Mof_C 	C 	0.04205	0.67008	0.65073	-0.177
Mof_H 	H 	0.0203	0.6936	0.6645	0.092
Mof_C 	C 	0.02318	0.63431	0.61952	0.051
Mof_H 	H 	0.9891	0.6345	0.6117	0.035
Mof_C 	C 	0.15656	0.70465	0.72117	0.245
Mof_C 	C 	0.19304	0.74077	0.72146	-0.304
Mof_H 	H 	0.1893	0.7694	0.7021	0.14
Mof_C 	C 	0.9819	0.962	0.8319	0.118
Mof_H 	H 	0.9692	0.9344	0.8148	0.005
Mof_N 	N 	0.9574	0.9162	0.9524	-0.25
Mof_C 	C 	0.9567	0.914	0.9052	0.098
Mof_H 	H 	0.9432	0.887	0.8878	0
Mof_C 	C 	0.9802	0.9599	0.8806	-0.176
Mof_O 	O 	0.0171	0.0019	0.9542	-0.353
Mof_C 	C 	0.9426	0.8675	0.9732	-0.028
Mof_H 	H 	0.9657	0.8417	0.9616	0.037
Mof_H 	H 	0.9091	0.8589	0.9616	0.042
Mof_C 	C 	0.0333	0.0389	0.5285	-0.105
Mof_H 	H 	0.0223	0.0716	0.5404	-0.009
Mof_C 	C 	0.867	0.5732	0.4501	-0.073
Mof_H 	H 	0.893	0.5883	0.4299	0.053
Mof_H 	H 	0.8586	0.5405	0.4362	0.05
Mof_C 	C 	0.819	0.6077	0.4496	-0.043
Mof_H 	H 	0.7929	0.5915	0.4303	0.038
Mof_H 	H 	0.8273	0.6394	0.4339	0.038
Mof_H 	H 	0.8436	0.5143	0.4713	0.032
Mof_H 	H 	0.7729	0.5547	0.5288	0.04
Mof_H 	H 	0.911	0.6282	0.5287	0.044
Mof_H 	H 	0.8429	0.6696	0.4713	0.038
Mof_C 	C 	0.0032	0.9488	0.5284	-0.335
Mof_H 	H 	0.9747	0.9293	0.5402	0.082
Mof_H 	H 	0.0673	0.0331	0.5404	0.166
Mof_N 	N 	0.88766	0.28923	0.69131	-0.213
Mof_O 	O 	0.97533	0.07047	0.63759	-0.41
Mof_O 	O 	0.97301	0.06805	0.71923	-0.407
Mof_O 	O 	0.01096	0.43491	0.55052	-0.437
Mof_O 	O 	0.93613	0.47485	0.5504	-0.413
Mof_C 	C 	0.96672	0.08923	0.67844	0.392
Mof_C 	C 	0.94652	0.14218	0.68094	-0.174
Mof_C 	C 	0.93578	0.16362	0.72586	0.122
Mof_H 	H 	0.9411	0.1452	0.7544	0.006
Mof_C 	C 	0.9172	0.2124	0.72889	-0.225
Mof_H 	H 	0.9108	0.2267	0.7594	0.113
Mof_C 	C 	0.90822	0.23955	0.68727	0.193
Mof_C 	C 	0.91863	0.21844	0.64223	-0.226
Mof_H 	H 	0.9128	0.2369	0.6138	0.113
Mof_C 	C 	0.93772	0.16989	0.63899	0.123
Mof_H 	H 	0.9446	0.156	0.6084	-0
Mof_C 	C 	0.96629	0.44044	0.56383	0.412
Mof_C 	C 	0.94526	0.40242	0.59936	-0.196
Mof_C 	C 	0.89447	0.40177	0.61149	0.14
Mof_H 	H 	0.8731	0.4262	0.5986	-0.007
Mof_C 	C 	0.87537	0.36541	0.64231	-0.235
Mof_H 	H 	0.8412	0.3656	0.65	0.113
Mof_C 	C 	0.90671	0.32809	0.66227	0.204
Mof_C 	C 	0.95795	0.32992	0.65073	-0.253
Mof_H 	H 	0.9797	0.3064	0.6645	0.127
Mof_C 	C 	0.97682	0.36569	0.61952	0.178
Mof_H 	H 	0.0109	0.3655	0.6117	-0.032
Mof_C 	C 	0.84344	0.29535	0.72117	0.248
Mof_C 	C 	0.80696	0.25923	0.72146	-0.307
Mof_H 	H 	0.8107	0.2306	0.7021	0.139
Mof_C 	C 	0.0181	0.038	0.8319	0.079
Mof_H 	H 	0.0308	0.0656	0.8148	0.008
Mof_N 	N 	0.0426	0.0838	0.9524	-0.254
Mof_C 	C 	0.0433	0.086	0.9052	0.095
Mof_H 	H 	0.0568	0.113	0.8878	-0.004
Mof_C 	C 	0.0198	0.0401	0.8806	-0.196
Mof_O 	O 	0.9829	0.9981	0.9542	-0.231
Mof_C 	C 	0.0574	0.1325	0.9732	-0.028
Mof_H 	H 	0.0343	0.1583	0.9616	0.031
Mof_H 	H 	0.0909	0.1411	0.9616	0.04
Mof_C 	C 	0.9667	0.9611	0.5285	0.055
Mof_H 	H 	0.9777	0.9284	0.5404	0.045
Mof_C 	C 	0.133	0.4268	0.4501	-0.073
Mof_H 	H 	0.107	0.4117	0.4299	0.052
Mof_H 	H 	0.1414	0.4595	0.4362	0.049
Mof_C 	C 	0.181	0.3923	0.4496	-0.042
Mof_H 	H 	0.2071	0.4085	0.4303	0.037
Mof_H 	H 	0.1727	0.3606	0.4339	0.037
Mof_H 	H 	0.1564	0.4857	0.4713	0.031
Mof_H 	H 	0.2271	0.4453	0.5288	0.04
Mof_H 	H 	0.089	0.3718	0.5287	0.042
Mof_H 	H 	0.1571	0.3304	0.4713	0.036
Mof_C 	C 	0.9968	0.0512	0.5284	0.309
Mof_H 	H 	0.0253	0.0707	0.5402	-0.047
Mof_H 	H 	0.9327	0.9669	0.5404	-0.074
Mof_N 	N 	0.71077	0.88766	0.69131	-0.212
Mof_O 	O 	0.92953	0.97533	0.63759	-0.401
Mof_O 	O 	0.93195	0.97301	0.71923	-0.399
Mof_O 	O 	0.56509	0.01096	0.55052	-0.437
Mof_O 	O 	0.52515	0.93613	0.5504	-0.413
Mof_C 	C 	0.91077	0.96672	0.67844	0.391
Mof_C 	C 	0.85782	0.94652	0.68094	-0.17
Mof_C 	C 	0.83638	0.93578	0.72586	0.121
Mof_H 	H 	0.8548	0.9411	0.7544	0.007
Mof_C 	C 	0.7876	0.9172	0.72889	-0.223
Mof_H 	H 	0.7733	0.9108	0.7594	0.113
Mof_C 	C 	0.76045	0.90822	0.68727	0.192
Mof_C 	C 	0.78156	0.91863	0.64223	-0.223
Mof_H 	H 	0.7631	0.9128	0.6138	0.113
Mof_C 	C 	0.83011	0.93772	0.63899	0.121
Mof_H 	H 	0.844	0.9446	0.6084	0.003
Mof_C 	C 	0.55956	0.96629	0.56383	0.411
Mof_C 	C 	0.59758	0.94526	0.59936	-0.195
Mof_C 	C 	0.59823	0.89447	0.61149	0.139
Mof_H 	H 	0.5738	0.8731	0.5986	-0.007
Mof_C 	C 	0.63459	0.87537	0.64231	-0.234
Mof_H 	H 	0.6344	0.8412	0.65	0.113
Mof_C 	C 	0.67191	0.90671	0.66227	0.203
Mof_C 	C 	0.67008	0.95795	0.65073	-0.252
Mof_H 	H 	0.6936	0.9797	0.6645	0.126
Mof_C 	C 	0.63431	0.97682	0.61952	0.176
Mof_H 	H 	0.6345	0.0109	0.6117	-0.031
Mof_C 	C 	0.70465	0.84344	0.72117	0.249
Mof_C 	C 	0.74077	0.80696	0.72146	-0.307
Mof_H 	H 	0.7694	0.8107	0.7021	0.141
Mof_C 	C 	0.962	0.0181	0.8319	0.109
Mof_H 	H 	0.9344	0.0308	0.8148	0.001
Mof_N 	N 	0.9162	0.0426	0.9524	-0.255
Mof_C 	C 	0.914	0.0433	0.9052	0.097
Mof_H 	H 	0.887	0.0568	0.8878	-0.003
Mof_C 	C 	0.9599	0.0198	0.8806	-0.192
Mof_O 	O 	0.0019	0.9829	0.9542	-0.318
Mof_C 	C 	0.8675	0.0574	0.9732	-0.027
Mof_H 	H 	0.8417	0.0343	0.9616	0.031
Mof_H 	H 	0.8589	0.0909	0.9616	0.042
Mof_C 	C 	0.0389	0.9667	0.5285	0.364
Mof_H 	H 	0.0716	0.9777	0.5404	-0.03
Mof_C 	C 	0.5732	0.133	0.4501	-0.073
Mof_H 	H 	0.5883	0.107	0.4299	0.052
Mof_H 	H 	0.5405	0.1414	0.4362	0.049
Mof_C 	C 	0.6077	0.181	0.4496	-0.042
Mof_H 	H 	0.5915	0.2071	0.4303	0.037
Mof_H 	H 	0.6394	0.1727	0.4339	0.037
Mof_H 	H 	0.5143	0.1564	0.4713	0.031
Mof_H 	H 	0.5547	0.2271	0.5288	0.04
Mof_H 	H 	0.6282	0.089	0.5287	0.042
Mof_H 	H 	0.6696	0.1571	0.4713	0.036
Mof_C 	C 	0.9488	0.9968	0.5284	0.243
Mof_H 	H 	0.9293	0.0253	0.5402	0.008
Mof_H 	H 	0.0331	0.9327	0.5404	0.019
Mof_N 	N 	0.28923	0.11234	0.69131	-0.206
Mof_O 	O 	0.07047	0.02467	0.63759	-0.424
Mof_O 	O 	0.06805	0.02699	0.71923	-0.42
Mof_O 	O 	0.43491	0.98904	0.55052	-0.397
Mof_O 	O 	0.47485	0.06387	0.5504	-0.401
Mof_C 	C 	0.08923	0.03328	0.67844	0.394
Mof_C 	C 	0.14218	0.05348	0.68094	-0.18
Mof_C 	C 	0.16362	0.06422	0.72586	0.123
Mof_H 	H 	0.1452	0.0589	0.7544	0
Mof_C 	C 	0.2124	0.0828	0.72889	-0.228
Mof_H 	H 	0.2267	0.0892	0.7594	0.111
Mof_C 	C 	0.23955	0.09178	0.68727	0.191
Mof_C 	C 	0.21844	0.08137	0.64223	-0.228
Mof_H 	H 	0.2369	0.0872	0.6138	0.111
Mof_C 	C 	0.16989	0.06228	0.63899	0.123
Mof_H 	H 	0.156	0.0554	0.6084	-0.005
Mof_C 	C 	0.44044	0.03371	0.56383	0.345
Mof_C 	C 	0.40242	0.05474	0.59936	-0.13
Mof_C 	C 	0.40177	0.10553	0.61149	0.085
Mof_H 	H 	0.4262	0.1269	0.5986	0.011
Mof_C 	C 	0.36541	0.12463	0.64231	-0.19
Mof_H 	H 	0.3656	0.1588	0.65	0.098
Mof_C 	C 	0.32809	0.09329	0.66227	0.162
Mof_C 	C 	0.32992	0.04205	0.65073	-0.175
Mof_H 	H 	0.3064	0.0203	0.6645	0.091
Mof_C 	C 	0.36569	0.02318	0.61952	0.048
Mof_H 	H 	0.3655	0.9891	0.6117	0.036
Mof_C 	C 	0.29535	0.15656	0.72117	0.245
Mof_C 	C 	0.25923	0.19304	0.72146	-0.304
Mof_H 	H 	0.2306	0.1893	0.7021	0.138
Mof_C 	C 	0.038	0.9819	0.8319	0.103
Mof_H 	H 	0.0656	0.9692	0.8148	0.008
Mof_N 	N 	0.0838	0.9574	0.9524	-0.248
Mof_C 	C 	0.086	0.9567	0.9052	0.098
Mof_H 	H 	0.113	0.9432	0.8878	-0.001
Mof_C 	C 	0.0401	0.9802	0.8806	-0.18
Mof_O 	O 	0.9981	0.0171	0.9542	-0.287
Mof_C 	C 	0.1325	0.9426	0.9732	-0.028
Mof_H 	H 	0.1583	0.9657	0.9616	0.038
Mof_H 	H 	0.1411	0.9091	0.9616	0.04
Mof_C 	C 	0.9611	0.0333	0.5285	-0.409
Mof_H 	H 	0.9284	0.0223	0.5404	0.068
Mof_C 	C 	0.4268	0.867	0.4501	-0.073
Mof_H 	H 	0.4117	0.893	0.4299	0.053
Mof_H 	H 	0.4595	0.8586	0.4362	0.05
Mof_C 	C 	0.3923	0.819	0.4496	-0.043
Mof_H 	H 	0.4085	0.7929	0.4303	0.038
Mof_H 	H 	0.3606	0.8273	0.4339	0.038
Mof_H 	H 	0.4857	0.8436	0.4713	0.032
Mof_H 	H 	0.4453	0.7729	0.5288	0.04
Mof_H 	H 	0.3718	0.911	0.5287	0.044
Mof_H 	H 	0.3304	0.8429	0.4713	0.038
Mof_C 	C 	0.0512	0.0032	0.5284	-0.28
Mof_H 	H 	0.0707	0.9747	0.5402	0.029
Mof_H 	H 	0.9669	0.0673	0.5404	0.068
Mof_Cu	Cu	0.5	0.5	0.12901	0.91
Mof_Cu	Cu	0.5	0.5	0.22686	0.922
Mof_N 	N 	0.5	0.5	0.3052	-0.248
Mof_N 	N 	0.5	0.5	0.04764	-0.127
Mof_C 	C 	0.5	0.5	0.408	0.639
Mof_Cu	Cu	-6.47023e-33	-2.63334e-33	0.37099	0.896
Mof_Cu	Cu	-1.58066e-33	0	0.27314	0.909
Mof_N 	N 	7.50763e-34	-2.63334e-33	0.1948	-0.264
Mof_N 	N 	1.7434e-33	-5.26669e-33	0.45236	-0.16
Mof_C 	C 	-3.03766e-34	6.58336e-34	0.092	0.559
Mof_Cu	Cu	0.5	0.5	0.87099	0.909
Mof_Cu	Cu	0.5	0.5	0.77314	0.922
Mof_N 	N 	0.5	0.5	0.6948	-0.247
Mof_N 	N 	0.5	0.5	0.95236	-0.149
Mof_C 	C 	0.5	0.5	0.592	0.639
Mof_Cu	Cu	-2.84247e-33	-5.26669e-33	0.62901	0.896
Mof_Cu	Cu	-2.46535e-33	-5.26669e-33	0.72686	0.909
Mof_N 	N 	-7.43012e-33	0	0.8052	-0.263
Mof_N 	N 	2.11062e-33	0	0.54764	-0.16
Mof_C 	C 	-7.03392e-33	0	0.908	0.548
Mof_Cu	Cu	0.45607	0.97592	-0	0.907
Mof_N 	N 	0.38589	0.93342	-0	-0.141
Mof_N 	N 	0.2988	0.8818	-0	-0.096
Mof_C 	C 	0.3916	0.8813	-0	-0.1
Mof_C 	C 	0.3433	0.852	-0	-0.097
Mof_C 	C 	0.3425	0.964	-0	-0.093
Mof_C 	C 	0.2921	0.9356	-0	-0.106
Mof_Cu	Cu	0.54393	0.02408	-0	0.895
Mof_N 	N 	0.61411	0.06658	-0	-0.145
Mof_N 	N 	0.7012	0.1182	-0	-0.095
Mof_C 	C 	0.6084	0.1187	-0	-0.099
Mof_C 	C 	0.6567	0.148	-0	-0.098
Mof_C 	C 	0.6575	0.036	-0	-0.087
Mof_C 	C 	0.7079	0.0644	-0	-0.108
Mof_Cu	Cu	0.02408	0.45607	-0	0.895
Mof_N 	N 	0.06658	0.38589	-0	-0.145
Mof_N 	N 	0.1182	0.2988	-0	-0.096
Mof_C 	C 	0.1187	0.3916	-0	-0.099
Mof_C 	C 	0.148	0.3433	-0	-0.097
Mof_C 	C 	0.036	0.3425	-0	-0.087
Mof_C 	C 	0.0644	0.2921	-0	-0.107
Mof_Cu	Cu	0.97592	0.54393	-0	0.907
Mof_N 	N 	0.93342	0.61411	-0	-0.141
Mof_N 	N 	0.8818	0.7012	-0	-0.095
Mof_C 	C 	0.8813	0.6084	-0	-0.1
Mof_C 	C 	0.852	0.6567	-0	-0.097
Mof_C 	C 	0.964	0.6575	-0	-0.093
Mof_C 	C 	0.9356	0.7079	-0	-0.107
Mof_Cu	Cu	0.04393	0.47592	0.5	0.913
Mof_N 	N 	0.11411	0.43342	0.5	-0.139
Mof_N 	N 	0.2012	0.3818	0.5	-0.091
Mof_C 	C 	0.1084	0.3813	0.5	-0.041
Mof_C 	C 	0.1567	0.352	0.5	-0.038
Mof_C 	C 	0.1575	0.464	0.5	-0.024
Mof_C 	C 	0.2079	0.4356	0.5	-0.053
Mof_Cu	Cu	0.95607	0.52408	0.5	0.916
Mof_N 	N 	0.88589	0.56658	0.5	-0.139
Mof_N 	N 	0.7988	0.6182	0.5	-0.091
Mof_C 	C 	0.8916	0.6187	0.5	-0.042
Mof_C 	C 	0.8433	0.648	0.5	-0.039
Mof_C 	C 	0.8425	0.536	0.5	-0.025
Mof_C 	C 	0.7921	0.5644	0.5	-0.052
Mof_Cu	Cu	0.47592	0.95607	0.5	0.916
Mof_N 	N 	0.43342	0.88589	0.5	-0.139
Mof_N 	N 	0.3818	0.7988	0.5	-0.091
Mof_C 	C 	0.3813	0.8916	0.5	-0.042
Mof_C 	C 	0.352	0.8433	0.5	-0.039
Mof_C 	C 	0.464	0.8425	0.5	-0.025
Mof_C 	C 	0.4356	0.7921	0.5	-0.052
Mof_Cu	Cu	0.52408	0.04393	0.5	0.912
Mof_N 	N 	0.56658	0.11411	0.5	-0.14
Mof_N 	N 	0.6182	0.2012	0.5	-0.091
Mof_C 	C 	0.6187	0.1084	0.5	-0.041
Mof_C 	C 	0.648	0.1567	0.5	-0.039
Mof_C 	C 	0.536	0.1575	0.5	-0.024
Mof_C 	C 	0.5644	0.2079	0.5	-0.053
Mof_C 	C 	0.73521	0.76479	0.25	0.217
Mof_H 	H 	0.76	0.74	0.25	-0.049
Mof_C 	C 	0.66229	0.83771	0.25	-0.315
Mof_H 	H 	0.6375	0.8625	0.25	0.146
Mof_C 	C 	0.26479	0.23521	0.25	0.214
Mof_H 	H 	0.24	0.26	0.25	-0.05
Mof_C 	C 	0.33771	0.16229	0.25	-0.312
Mof_H 	H 	0.3625	0.1375	0.25	0.144
Mof_C 	C 	0.23521	0.73521	0.25	0.215
Mof_H 	H 	0.26	0.76	0.25	-0.048
Mof_C 	C 	0.16229	0.66229	0.25	-0.312
Mof_H 	H 	0.1375	0.6375	0.25	0.144
Mof_C 	C 	0.76479	0.26479	0.25	0.217
Mof_H 	H 	0.74	0.24	0.25	-0.051
Mof_C 	C 	0.83771	0.33771	0.25	-0.315
Mof_H 	H 	0.8625	0.3625	0.25	0.146
Mof_C 	C 	0.26479	0.23521	0.75	0.216
Mof_H 	H 	0.24	0.26	0.75	-0.049
Mof_C 	C 	0.33771	0.16229	0.75	-0.312
Mof_H 	H 	0.3625	0.1375	0.75	0.144
Mof_C 	C 	0.73521	0.76479	0.75	0.219
Mof_H 	H 	0.76	0.74	0.75	-0.048
Mof_C 	C 	0.66229	0.83771	0.75	-0.315
Mof_H 	H 	0.6375	0.8625	0.75	0.147
Mof_C 	C 	0.76479	0.26479	0.75	0.219
Mof_H 	H 	0.74	0.24	0.75	-0.05
Mof_C 	C 	0.83771	0.33771	0.75	-0.315
Mof_H 	H 	0.8625	0.3625	0.75	0.147
Mof_C 	C 	0.23521	0.73521	0.75	0.217
Mof_H 	H 	0.26	0.76	0.75	-0.047
Mof_C 	C 	0.16229	0.66229	0.75	-0.313
Mof_H 	H 	0.1375	0.6375	0.75	0.144
Mof_Ni	Ni	0.483	0.5389	0.5	0.941
Mof_Ni	Ni	0.517	0.4611	0.5	0.941
Mof_Ni	Ni	0.4611	0.483	0.5	0.941
Mof_Ni	Ni	0.5389	0.517	0.5	0.941
Mof_Ni	Ni	0.017	0.0389	-0	0.921
Mof_Ni	Ni	0.983	0.9611	-0	0.932
Mof_Ni	Ni	0.0389	0.983	-0	0.941
Mof_Ni	Ni	0.9611	0.017	-0	0.913
_end
