data_functionalizedCrystal
_audit_creation_method	'EQeq! by Chris Wilmer'
_symmetry_space_group_name_H-M	'P1'
_symmetry_Int_Tables_number	1
_symmetry_cell_setting	triclinic
loop_
_symmetry_equiv_pos_as_xyz
  x,y,z
_cell_length_a	27.75
_cell_length_b	27.75
_cell_length_c	27.75
_cell_angle_alpha	70.755
_cell_angle_beta	70.755
_cell_angle_gamma	70.755
loop_
_atom_site_label
_atom_site_type_symbol
_atom_site_fract_x
_atom_site_fract_y
_atom_site_fract_z
_atom_site_charge
Mof_O 	O 	0.7329	0.3482	0.4237	-0.54
Mof_N 	N 	0.7792	0.3446	0.4352	-0.17
Mof_C 	C 	0.7762	0.3222	0.4838	0.076
Mof_H 	H 	0.745	0.3109	0.504	0.045
Mof_C 	C 	0.8163	0.3123	0.511	-0.144
Mof_C 	C 	0.8637	0.3303	0.4849	0.254
Mof_C 	C 	0.9006	0.3183	0.516	-0.151
Mof_C 	C 	0.891	0.287	0.5682	0.052
Mof_H 	H 	0.9162	0.2788	0.5878	0.006
Mof_C 	C 	0.8464	0.2677	0.592	-0.136
Mof_C 	C 	0.8093	0.2811	0.5632	0.05
Mof_H 	H 	0.7782	0.2687	0.5792	0.014
Mof_C 	C 	0.9491	0.3356	0.4966	0.083
Mof_H 	H 	0.97	0.3271	0.5208	0.033
Mof_N 	N 	0.9656	0.3611	0.4502	-0.166
Mof_O 	O 	0.0139	0.3691	0.446	-0.573
Mof_C 	C 	0.1235	0.3603	0.4333	0.375
Mof_H 	H 	0.1066	0.3349	0.4596	-0.09
Mof_C 	C 	0.1725	0.3608	0.4348	-0.278
Mof_H 	H 	0.1891	0.3352	0.4609	0.131
Mof_O 	O 	0.8719	0.3583	0.4372	-0.544
Mof_C 	C 	0.8386	0.2332	0.6488	0.316
Mof_O 	O 	0.2712	0.3662	0.4355	-0.491
Mof_C 	C 	0.0263	0.2081	0.2054	0.104
Mof_C 	C 	0.0806	0.218	0.1778	-0.334
Mof_H 	H 	0.077	0.2541	0.1556	0.141
Mof_H 	H 	0.0993	0.2131	0.2041	0.087
Mof_H 	H 	0.1005	0.193	0.1558	0.098
Mof_C 	C 	0.9951	0.2221	0.1641	-0.571
Mof_H 	H 	0.9599	0.2159	0.1816	0.168
Mof_H 	H 	0.9917	0.2594	0.1453	0.079
Mof_H 	H 	0.0137	0.2001	0.139	0.175
Mof_C 	C 	0.0281	0.1528	0.2409	0.254
Mof_H 	H 	0.9921	0.1487	0.2576	0.029
Mof_H 	H 	0.0473	0.1269	0.2198	-0.069
Mof_H 	H 	0.046	0.147	0.2681	-0.111
Mof_C 	C 	0.889	0.1924	0.6589	-0.189
Mof_H 	H 	0.8821	0.1714	0.6954	0.057
Mof_H 	H 	0.9009	0.1692	0.635	0.04
Mof_H 	H 	0.9163	0.2103	0.6528	0.065
Mof_C 	C 	0.7968	0.2024	0.6625	-0.242
Mof_H 	H 	0.7635	0.227	0.6566	0.102
Mof_H 	H 	0.8087	0.1777	0.6401	0.045
Mof_H 	H 	0.7917	0.1828	0.6996	0.082
Mof_C 	C 	0.8172	0.2716	0.6846	-0.311
Mof_H 	H 	0.7849	0.2968	0.6764	0.05
Mof_H 	H 	0.8095	0.2518	0.7215	0.101
Mof_H 	H 	0.8437	0.2906	0.6786	0.103
Mof_C 	C 	0.851	0.1751	0.6485	-0.288
Mof_H 	H 	0.8865	0.1645	0.6271	0.093
Mof_H 	H 	0.8479	0.1531	0.6846	0.095
Mof_H 	H 	0.8255	0.1706	0.6336	0.098
Mof_C 	C 	0.7827	0.249	0.6822	-0.161
Mof_H 	H 	0.7796	0.2263	0.7179	0.045
Mof_H 	H 	0.7752	0.2859	0.6838	0.086
Mof_H 	H 	0.7575	0.246	0.6664	0.03
Mof_C 	C 	0.8759	0.238	0.6764	-0.212
Mof_H 	H 	0.9124	0.2282	0.6562	0.047
Mof_H 	H 	0.8676	0.2747	0.6785	0.046
Mof_H 	H 	0.8716	0.2149	0.712	0.069
Mof_C 	C 	0.6363	0.413	0.359	-0.269
Mof_H 	H 	0.643	0.4455	0.356	0.118
Mof_C 	C 	0.5873	0.413	0.356	-0.406
Mof_H 	H 	0.5616	0.4452	0.3493	0.16
Mof_C 	C 	0.6201	0.3249	0.3504	-0.038
Mof_H 	H 	0.617	0.2981	0.3382	0.096
Mof_C 	C 	0.6686	0.325	0.3543	0.042
Mof_H 	H 	0.6976	0.2957	0.3486	0.003
Mof_O 	O 	0.4237	0.7329	0.3482	-0.539
Mof_N 	N 	0.4352	0.7792	0.3446	-0.169
Mof_C 	C 	0.4838	0.7762	0.3222	0.077
Mof_H 	H 	0.504	0.745	0.3109	0.046
Mof_C 	C 	0.511	0.8163	0.3123	-0.143
Mof_C 	C 	0.4849	0.8637	0.3303	0.255
Mof_C 	C 	0.516	0.9006	0.3183	-0.15
Mof_C 	C 	0.5682	0.891	0.287	0.053
Mof_H 	H 	0.5878	0.9162	0.2788	0.007
Mof_C 	C 	0.592	0.8464	0.2677	-0.135
Mof_C 	C 	0.5632	0.8093	0.2811	0.051
Mof_H 	H 	0.5792	0.7782	0.2687	0.015
Mof_C 	C 	0.4966	0.9491	0.3356	0.084
Mof_H 	H 	0.5208	0.97	0.3271	0.034
Mof_N 	N 	0.4502	0.9656	0.3611	-0.165
Mof_O 	O 	0.446	0.0139	0.3691	-0.572
Mof_C 	C 	0.4333	0.1235	0.3603	0.376
Mof_H 	H 	0.4596	0.1066	0.3349	-0.089
Mof_C 	C 	0.4348	0.1725	0.3608	-0.277
Mof_H 	H 	0.4609	0.1891	0.3352	0.132
Mof_O 	O 	0.4372	0.8719	0.3583	-0.544
Mof_C 	C 	0.6488	0.8386	0.2332	0.316
Mof_O 	O 	0.4355	0.2712	0.3662	-0.491
Mof_C 	C 	0.2054	0.0263	0.2081	0.104
Mof_C 	C 	0.1778	0.0806	0.218	-0.334
Mof_H 	H 	0.1556	0.077	0.2541	0.141
Mof_H 	H 	0.2041	0.0993	0.2131	0.087
Mof_H 	H 	0.1558	0.1005	0.193	0.098
Mof_C 	C 	0.1641	0.9951	0.2221	-0.571
Mof_H 	H 	0.1816	0.9599	0.2159	0.168
Mof_H 	H 	0.1453	0.9917	0.2594	0.079
Mof_H 	H 	0.139	0.0137	0.2001	0.175
Mof_C 	C 	0.2409	0.0281	0.1528	0.254
Mof_H 	H 	0.2576	0.9921	0.1487	0.029
Mof_H 	H 	0.2198	0.0473	0.1269	-0.069
Mof_H 	H 	0.2681	0.046	0.147	-0.111
Mof_C 	C 	0.6589	0.889	0.1924	-0.189
Mof_H 	H 	0.6954	0.8821	0.1714	0.057
Mof_H 	H 	0.635	0.9009	0.1692	0.04
Mof_H 	H 	0.6528	0.9163	0.2103	0.065
Mof_C 	C 	0.6625	0.7968	0.2024	-0.242
Mof_H 	H 	0.6566	0.7635	0.227	0.102
Mof_H 	H 	0.6401	0.8087	0.1777	0.045
Mof_H 	H 	0.6996	0.7917	0.1828	0.082
Mof_C 	C 	0.6846	0.8172	0.2716	-0.311
Mof_H 	H 	0.6764	0.7849	0.2968	0.05
Mof_H 	H 	0.7215	0.8095	0.2518	0.101
Mof_H 	H 	0.6786	0.8437	0.2906	0.103
Mof_C 	C 	0.6485	0.851	0.1751	-0.288
Mof_H 	H 	0.6271	0.8865	0.1645	0.093
Mof_H 	H 	0.6846	0.8479	0.1531	0.095
Mof_H 	H 	0.6336	0.8255	0.1706	0.098
Mof_C 	C 	0.6822	0.7827	0.249	-0.161
Mof_H 	H 	0.7179	0.7796	0.2263	0.045
Mof_H 	H 	0.6838	0.7752	0.2859	0.086
Mof_H 	H 	0.6664	0.7575	0.246	0.03
Mof_C 	C 	0.6764	0.8759	0.238	-0.212
Mof_H 	H 	0.6562	0.9124	0.2282	0.047
Mof_H 	H 	0.6785	0.8676	0.2747	0.046
Mof_H 	H 	0.712	0.8716	0.2149	0.069
Mof_C 	C 	0.359	0.6363	0.413	-0.269
Mof_H 	H 	0.356	0.643	0.4455	0.118
Mof_C 	C 	0.356	0.5873	0.413	-0.406
Mof_H 	H 	0.3493	0.5616	0.4452	0.16
Mof_C 	C 	0.3504	0.6201	0.3249	-0.038
Mof_H 	H 	0.3382	0.617	0.2981	0.096
Mof_C 	C 	0.3543	0.6686	0.325	0.042
Mof_H 	H 	0.3486	0.6976	0.2957	0.003
Mof_O 	O 	0.3482	0.4237	0.7329	-0.539
Mof_N 	N 	0.3446	0.4352	0.7792	-0.169
Mof_C 	C 	0.3222	0.4838	0.7762	0.077
Mof_H 	H 	0.3109	0.504	0.745	0.046
Mof_C 	C 	0.3123	0.511	0.8163	-0.143
Mof_C 	C 	0.3303	0.4849	0.8637	0.255
Mof_C 	C 	0.3183	0.516	0.9006	-0.15
Mof_C 	C 	0.287	0.5682	0.891	0.053
Mof_H 	H 	0.2788	0.5878	0.9162	0.007
Mof_C 	C 	0.2677	0.592	0.8464	-0.135
Mof_C 	C 	0.2811	0.5632	0.8093	0.051
Mof_H 	H 	0.2687	0.5792	0.7782	0.015
Mof_C 	C 	0.3356	0.4966	0.9491	0.084
Mof_H 	H 	0.3271	0.5208	0.97	0.034
Mof_N 	N 	0.3611	0.4502	0.9656	-0.165
Mof_O 	O 	0.3691	0.446	0.0139	-0.572
Mof_C 	C 	0.3603	0.4333	0.1235	0.376
Mof_H 	H 	0.3349	0.4596	0.1066	-0.089
Mof_C 	C 	0.3608	0.4348	0.1725	-0.277
Mof_H 	H 	0.3352	0.4609	0.1891	0.132
Mof_O 	O 	0.3583	0.4372	0.8719	-0.544
Mof_C 	C 	0.2332	0.6488	0.8386	0.316
Mof_O 	O 	0.3662	0.4355	0.2712	-0.491
Mof_C 	C 	0.2081	0.2054	0.0263	0.104
Mof_C 	C 	0.218	0.1778	0.0806	-0.334
Mof_H 	H 	0.2541	0.1556	0.077	0.141
Mof_H 	H 	0.2131	0.2041	0.0993	0.087
Mof_H 	H 	0.193	0.1558	0.1005	0.098
Mof_C 	C 	0.2221	0.1641	0.9951	-0.571
Mof_H 	H 	0.2159	0.1816	0.9599	0.168
Mof_H 	H 	0.2594	0.1453	0.9917	0.079
Mof_H 	H 	0.2001	0.139	0.0137	0.175
Mof_C 	C 	0.1528	0.2409	0.0281	0.254
Mof_H 	H 	0.1487	0.2576	0.9921	0.029
Mof_H 	H 	0.1269	0.2198	0.0473	-0.069
Mof_H 	H 	0.147	0.2681	0.046	-0.111
Mof_C 	C 	0.1924	0.6589	0.889	-0.189
Mof_H 	H 	0.1714	0.6954	0.8821	0.057
Mof_H 	H 	0.1692	0.635	0.9009	0.04
Mof_H 	H 	0.2103	0.6528	0.9163	0.065
Mof_C 	C 	0.2024	0.6625	0.7968	-0.242
Mof_H 	H 	0.227	0.6566	0.7635	0.102
Mof_H 	H 	0.1777	0.6401	0.8087	0.045
Mof_H 	H 	0.1828	0.6996	0.7917	0.082
Mof_C 	C 	0.2716	0.6846	0.8172	-0.311
Mof_H 	H 	0.2968	0.6764	0.7849	0.05
Mof_H 	H 	0.2518	0.7215	0.8095	0.101
Mof_H 	H 	0.2906	0.6786	0.8437	0.103
Mof_C 	C 	0.1751	0.6485	0.851	-0.288
Mof_H 	H 	0.1645	0.6271	0.8865	0.093
Mof_H 	H 	0.1531	0.6846	0.8479	0.095
Mof_H 	H 	0.1706	0.6336	0.8255	0.098
Mof_C 	C 	0.249	0.6822	0.7827	-0.161
Mof_H 	H 	0.2263	0.7179	0.7796	0.045
Mof_H 	H 	0.2859	0.6838	0.7752	0.086
Mof_H 	H 	0.246	0.6664	0.7575	0.03
Mof_C 	C 	0.238	0.6764	0.8759	-0.212
Mof_H 	H 	0.2282	0.6562	0.9124	0.047
Mof_H 	H 	0.2747	0.6785	0.8676	0.046
Mof_H 	H 	0.2149	0.712	0.8716	0.069
Mof_C 	C 	0.413	0.359	0.6363	-0.269
Mof_H 	H 	0.4455	0.356	0.643	0.118
Mof_C 	C 	0.413	0.356	0.5873	-0.406
Mof_H 	H 	0.4452	0.3493	0.5616	0.16
Mof_C 	C 	0.3249	0.3504	0.6201	-0.038
Mof_H 	H 	0.2981	0.3382	0.617	0.096
Mof_C 	C 	0.325	0.3543	0.6686	0.042
Mof_H 	H 	0.2957	0.3486	0.6976	0.003
Mof_O 	O 	0.3482	0.7329	0.4237	-0.539
Mof_N 	N 	0.3446	0.7792	0.4352	-0.169
Mof_C 	C 	0.3222	0.7762	0.4838	0.077
Mof_H 	H 	0.3109	0.745	0.504	0.046
Mof_C 	C 	0.3123	0.8163	0.511	-0.143
Mof_C 	C 	0.3303	0.8637	0.4849	0.255
Mof_C 	C 	0.3183	0.9006	0.516	-0.15
Mof_C 	C 	0.287	0.891	0.5682	0.053
Mof_H 	H 	0.2788	0.9162	0.5878	0.007
Mof_C 	C 	0.2677	0.8464	0.592	-0.135
Mof_C 	C 	0.2811	0.8093	0.5632	0.051
Mof_H 	H 	0.2687	0.7782	0.5792	0.015
Mof_C 	C 	0.3356	0.9491	0.4966	0.084
Mof_H 	H 	0.3271	0.97	0.5208	0.034
Mof_N 	N 	0.3611	0.9656	0.4502	-0.165
Mof_O 	O 	0.3691	0.0139	0.446	-0.572
Mof_C 	C 	0.3603	0.1235	0.4333	0.376
Mof_H 	H 	0.3349	0.1066	0.4596	-0.089
Mof_C 	C 	0.3608	0.1725	0.4348	-0.277
Mof_H 	H 	0.3352	0.1891	0.4609	0.132
Mof_O 	O 	0.3583	0.8719	0.4372	-0.544
Mof_C 	C 	0.2332	0.8386	0.6488	0.316
Mof_O 	O 	0.3662	0.2712	0.4355	-0.491
Mof_C 	C 	0.2081	0.0263	0.2054	0.104
Mof_C 	C 	0.218	0.0806	0.1778	-0.334
Mof_H 	H 	0.2541	0.077	0.1556	0.141
Mof_H 	H 	0.2131	0.0993	0.2041	0.087
Mof_H 	H 	0.193	0.1005	0.1558	0.098
Mof_C 	C 	0.2221	0.9951	0.1641	-0.571
Mof_H 	H 	0.2159	0.9599	0.1816	0.168
Mof_H 	H 	0.2594	0.9917	0.1453	0.079
Mof_H 	H 	0.2001	0.0137	0.139	0.175
Mof_C 	C 	0.1528	0.0281	0.2409	0.254
Mof_H 	H 	0.1487	0.9921	0.2576	0.029
Mof_H 	H 	0.1269	0.0473	0.2198	-0.069
Mof_H 	H 	0.147	0.046	0.2681	-0.111
Mof_C 	C 	0.1924	0.889	0.6589	-0.189
Mof_H 	H 	0.1714	0.8821	0.6954	0.057
Mof_H 	H 	0.1692	0.9009	0.635	0.04
Mof_H 	H 	0.2103	0.9163	0.6528	0.065
Mof_C 	C 	0.2024	0.7968	0.6625	-0.242
Mof_H 	H 	0.227	0.7635	0.6566	0.102
Mof_H 	H 	0.1777	0.8087	0.6401	0.045
Mof_H 	H 	0.1828	0.7917	0.6996	0.082
Mof_C 	C 	0.2716	0.8172	0.6846	-0.311
Mof_H 	H 	0.2968	0.7849	0.6764	0.05
Mof_H 	H 	0.2518	0.8095	0.7215	0.101
Mof_H 	H 	0.2906	0.8437	0.6786	0.103
Mof_C 	C 	0.1751	0.851	0.6485	-0.288
Mof_H 	H 	0.1645	0.8865	0.6271	0.093
Mof_H 	H 	0.1531	0.8479	0.6846	0.095
Mof_H 	H 	0.1706	0.8255	0.6336	0.098
Mof_C 	C 	0.249	0.7827	0.6822	-0.161
Mof_H 	H 	0.2263	0.7796	0.7179	0.045
Mof_H 	H 	0.2859	0.7752	0.6838	0.086
Mof_H 	H 	0.246	0.7575	0.6664	0.03
Mof_C 	C 	0.238	0.8759	0.6764	-0.212
Mof_H 	H 	0.2282	0.9124	0.6562	0.047
Mof_H 	H 	0.2747	0.8676	0.6785	0.046
Mof_H 	H 	0.2149	0.8716	0.712	0.069
Mof_C 	C 	0.413	0.6363	0.359	-0.269
Mof_H 	H 	0.4455	0.643	0.356	0.118
Mof_C 	C 	0.413	0.5873	0.356	-0.406
Mof_H 	H 	0.4452	0.5616	0.3493	0.16
Mof_C 	C 	0.3249	0.6201	0.3504	-0.038
Mof_H 	H 	0.2981	0.617	0.3382	0.096
Mof_C 	C 	0.325	0.6686	0.3543	0.042
Mof_H 	H 	0.2957	0.6976	0.3486	0.003
Mof_O 	O 	0.7329	0.4237	0.3482	-0.539
Mof_N 	N 	0.7792	0.4352	0.3446	-0.169
Mof_C 	C 	0.7762	0.4838	0.3222	0.077
Mof_H 	H 	0.745	0.504	0.3109	0.046
Mof_C 	C 	0.8163	0.511	0.3123	-0.143
Mof_C 	C 	0.8637	0.4849	0.3303	0.255
Mof_C 	C 	0.9006	0.516	0.3183	-0.15
Mof_C 	C 	0.891	0.5682	0.287	0.053
Mof_H 	H 	0.9162	0.5878	0.2788	0.007
Mof_C 	C 	0.8464	0.592	0.2677	-0.135
Mof_C 	C 	0.8093	0.5632	0.2811	0.051
Mof_H 	H 	0.7782	0.5792	0.2687	0.015
Mof_C 	C 	0.9491	0.4966	0.3356	0.084
Mof_H 	H 	0.97	0.5208	0.3271	0.034
Mof_N 	N 	0.9656	0.4502	0.3611	-0.165
Mof_O 	O 	0.0139	0.446	0.3691	-0.572
Mof_C 	C 	0.1235	0.4333	0.3603	0.376
Mof_H 	H 	0.1066	0.4596	0.3349	-0.089
Mof_C 	C 	0.1725	0.4348	0.3608	-0.277
Mof_H 	H 	0.1891	0.4609	0.3352	0.132
Mof_O 	O 	0.8719	0.4372	0.3583	-0.544
Mof_C 	C 	0.8386	0.6488	0.2332	0.316
Mof_O 	O 	0.2712	0.4355	0.3662	-0.491
Mof_C 	C 	0.0263	0.2054	0.2081	0.104
Mof_C 	C 	0.0806	0.1778	0.218	-0.334
Mof_H 	H 	0.077	0.1556	0.2541	0.141
Mof_H 	H 	0.0993	0.2041	0.2131	0.087
Mof_H 	H 	0.1005	0.1558	0.193	0.098
Mof_C 	C 	0.9951	0.1641	0.2221	-0.571
Mof_H 	H 	0.9599	0.1816	0.2159	0.168
Mof_H 	H 	0.9917	0.1453	0.2594	0.079
Mof_H 	H 	0.0137	0.139	0.2001	0.175
Mof_C 	C 	0.0281	0.2409	0.1528	0.254
Mof_H 	H 	0.9921	0.2576	0.1487	0.029
Mof_H 	H 	0.0473	0.2198	0.1269	-0.069
Mof_H 	H 	0.046	0.2681	0.147	-0.111
Mof_C 	C 	0.889	0.6589	0.1924	-0.189
Mof_H 	H 	0.8821	0.6954	0.1714	0.057
Mof_H 	H 	0.9009	0.635	0.1692	0.04
Mof_H 	H 	0.9163	0.6528	0.2103	0.065
Mof_C 	C 	0.7968	0.6625	0.2024	-0.242
Mof_H 	H 	0.7635	0.6566	0.227	0.102
Mof_H 	H 	0.8087	0.6401	0.1777	0.045
Mof_H 	H 	0.7917	0.6996	0.1828	0.082
Mof_C 	C 	0.8172	0.6846	0.2716	-0.311
Mof_H 	H 	0.7849	0.6764	0.2968	0.05
Mof_H 	H 	0.8095	0.7215	0.2518	0.101
Mof_H 	H 	0.8437	0.6786	0.2906	0.103
Mof_C 	C 	0.851	0.6485	0.1751	-0.288
Mof_H 	H 	0.8865	0.6271	0.1645	0.093
Mof_H 	H 	0.8479	0.6846	0.1531	0.095
Mof_H 	H 	0.8255	0.6336	0.1706	0.098
Mof_C 	C 	0.7827	0.6822	0.249	-0.161
Mof_H 	H 	0.7796	0.7179	0.2263	0.045
Mof_H 	H 	0.7752	0.6838	0.2859	0.086
Mof_H 	H 	0.7575	0.6664	0.246	0.03
Mof_C 	C 	0.8759	0.6764	0.238	-0.212
Mof_H 	H 	0.9124	0.6562	0.2282	0.047
Mof_H 	H 	0.8676	0.6785	0.2747	0.046
Mof_H 	H 	0.8716	0.712	0.2149	0.069
Mof_C 	C 	0.6363	0.359	0.413	-0.269
Mof_H 	H 	0.643	0.356	0.4455	0.118
Mof_C 	C 	0.5873	0.356	0.413	-0.406
Mof_H 	H 	0.5616	0.3493	0.4452	0.16
Mof_C 	C 	0.6201	0.3504	0.3249	-0.038
Mof_H 	H 	0.617	0.3382	0.2981	0.096
Mof_C 	C 	0.6686	0.3543	0.325	0.042
Mof_H 	H 	0.6976	0.3486	0.2957	0.003
Mof_O 	O 	0.4237	0.3482	0.7329	-0.539
Mof_N 	N 	0.4352	0.3446	0.7792	-0.169
Mof_C 	C 	0.4838	0.3222	0.7762	0.077
Mof_H 	H 	0.504	0.3109	0.745	0.046
Mof_C 	C 	0.511	0.3123	0.8163	-0.143
Mof_C 	C 	0.4849	0.3303	0.8637	0.255
Mof_C 	C 	0.516	0.3183	0.9006	-0.15
Mof_C 	C 	0.5682	0.287	0.891	0.053
Mof_H 	H 	0.5878	0.2788	0.9162	0.007
Mof_C 	C 	0.592	0.2677	0.8464	-0.135
Mof_C 	C 	0.5632	0.2811	0.8093	0.051
Mof_H 	H 	0.5792	0.2687	0.7782	0.015
Mof_C 	C 	0.4966	0.3356	0.9491	0.084
Mof_H 	H 	0.5208	0.3271	0.97	0.034
Mof_N 	N 	0.4502	0.3611	0.9656	-0.165
Mof_O 	O 	0.446	0.3691	0.0139	-0.572
Mof_C 	C 	0.4333	0.3603	0.1235	0.376
Mof_H 	H 	0.4596	0.3349	0.1066	-0.089
Mof_C 	C 	0.4348	0.3608	0.1725	-0.277
Mof_H 	H 	0.4609	0.3352	0.1891	0.132
Mof_O 	O 	0.4372	0.3583	0.8719	-0.544
Mof_C 	C 	0.6488	0.2332	0.8386	0.316
Mof_O 	O 	0.4355	0.3662	0.2712	-0.491
Mof_C 	C 	0.2054	0.2081	0.0263	0.104
Mof_C 	C 	0.1778	0.218	0.0806	-0.334
Mof_H 	H 	0.1556	0.2541	0.077	0.141
Mof_H 	H 	0.2041	0.2131	0.0993	0.087
Mof_H 	H 	0.1558	0.193	0.1005	0.098
Mof_C 	C 	0.1641	0.2221	0.9951	-0.571
Mof_H 	H 	0.1816	0.2159	0.9599	0.168
Mof_H 	H 	0.1453	0.2594	0.9917	0.079
Mof_H 	H 	0.139	0.2001	0.0137	0.175
Mof_C 	C 	0.2409	0.1528	0.0281	0.254
Mof_H 	H 	0.2576	0.1487	0.9921	0.029
Mof_H 	H 	0.2198	0.1269	0.0473	-0.069
Mof_H 	H 	0.2681	0.147	0.046	-0.111
Mof_C 	C 	0.6589	0.1924	0.889	-0.189
Mof_H 	H 	0.6954	0.1714	0.8821	0.057
Mof_H 	H 	0.635	0.1692	0.9009	0.04
Mof_H 	H 	0.6528	0.2103	0.9163	0.065
Mof_C 	C 	0.6625	0.2024	0.7968	-0.242
Mof_H 	H 	0.6566	0.227	0.7635	0.102
Mof_H 	H 	0.6401	0.1777	0.8087	0.045
Mof_H 	H 	0.6996	0.1828	0.7917	0.082
Mof_C 	C 	0.6846	0.2716	0.8172	-0.311
Mof_H 	H 	0.6764	0.2968	0.7849	0.05
Mof_H 	H 	0.7215	0.2518	0.8095	0.101
Mof_H 	H 	0.6786	0.2906	0.8437	0.103
Mof_C 	C 	0.6485	0.1751	0.851	-0.288
Mof_H 	H 	0.6271	0.1645	0.8865	0.093
Mof_H 	H 	0.6846	0.1531	0.8479	0.095
Mof_H 	H 	0.6336	0.1706	0.8255	0.098
Mof_C 	C 	0.6822	0.249	0.7827	-0.161
Mof_H 	H 	0.7179	0.2263	0.7796	0.045
Mof_H 	H 	0.6838	0.2859	0.7752	0.086
Mof_H 	H 	0.6664	0.246	0.7575	0.03
Mof_C 	C 	0.6764	0.238	0.8759	-0.212
Mof_H 	H 	0.6562	0.2282	0.9124	0.047
Mof_H 	H 	0.6785	0.2747	0.8676	0.046
Mof_H 	H 	0.712	0.2149	0.8716	0.069
Mof_C 	C 	0.359	0.413	0.6363	-0.269
Mof_H 	H 	0.356	0.4455	0.643	0.118
Mof_C 	C 	0.356	0.413	0.5873	-0.406
Mof_H 	H 	0.3493	0.4452	0.5616	0.16
Mof_C 	C 	0.3504	0.3249	0.6201	-0.038
Mof_H 	H 	0.3382	0.2981	0.617	0.096
Mof_C 	C 	0.3543	0.325	0.6686	0.042
Mof_H 	H 	0.3486	0.2957	0.6976	0.003
Mof_Zn	Zn	0.93724	0.38353	0.38353	1.199
Mof_Zn	Zn	0.83677	0.37573	0.37573	1.202
Mof_Zn	Zn	0.4423	0.34303	0.34303	1.213
Mof_C 	C 	0.6766	0.3664	0.3664	-0.509
Mof_C 	C 	0.576	0.3645	0.3645	0.065
Mof_B 	B 	0.733	0.368	0.368	1.526
Mof_B 	B 	0.0403	0.3948	0.3948	1.58
Mof_O 	O 	0.7736	0.3352	0.3352	-0.557
Mof_N 	N 	0.8245	0.332	0.332	-0.15
Mof_C 	C 	0.857	0.3027	0.3027	0.069
Mof_H 	H 	0.8428	0.2868	0.2868	0.02
Mof_C 	C 	0.9139	0.2914	0.2914	-0.144
Mof_C 	C 	0.9409	0.3123	0.3123	0.249
Mof_C 	C 	0.9975	0.2977	0.2977	-0.129
Mof_C 	C 	0.0239	0.264	0.264	0.024
Mof_H 	H 	0.0613	0.2547	0.2547	0.015
Mof_C 	C 	0.9973	0.2438	0.2438	-0.09
Mof_C 	C 	0.9429	0.2578	0.2578	0.033
Mof_H 	H 	0.9244	0.2441	0.2441	-0
Mof_C 	C 	0.0288	0.3169	0.3169	0.042
Mof_H 	H 	0.0658	0.3046	0.3046	0.044
Mof_N 	N 	0.015	0.3481	0.3481	-0.16
Mof_O 	O 	0.0563	0.3577	0.3577	-0.471
Mof_C 	C 	0.0976	0.3952	0.3952	-0.687
Mof_C 	C 	0.1977	0.3985	0.3985	0.1
Mof_C 	C 	0.5223	0.3636	0.3636	0.343
Mof_O 	O 	0.4856	0.3916	0.3916	-0.568
Mof_O 	O 	0.5177	0.3376	0.3376	-0.473
Mof_O 	O 	0.9147	0.343	0.343	-0.538
Mof_C 	C 	0.2505	0.4007	0.4007	0.328
Mof_C 	C 	0.6303	0.3947	0.3947	0.625
Mof_H 	H 	0.6329	0.415	0.415	-0.178
Mof_C 	C 	0.5808	0.394	0.394	0.46
Mof_H 	H 	0.5502	0.4137	0.4137	-0.114
Mof_C 	C 	0.6213	0.3361	0.3361	-0.029
Mof_H 	H 	0.6186	0.3158	0.3158	-0.08
Mof_C 	C 	0.6703	0.3373	0.3373	0.126
Mof_H 	H 	0.7008	0.3176	0.3176	-0.038
Mof_Zn	Zn	0.38353	0.93724	0.38353	1.199
Mof_Zn	Zn	0.37573	0.83677	0.37573	1.202
Mof_Zn	Zn	0.34303	0.4423	0.34303	1.213
Mof_C 	C 	0.3664	0.6766	0.3664	-0.509
Mof_C 	C 	0.3645	0.576	0.3645	0.065
Mof_B 	B 	0.368	0.733	0.368	1.526
Mof_B 	B 	0.3948	0.0403	0.3948	1.58
Mof_O 	O 	0.3352	0.7736	0.3352	-0.557
Mof_N 	N 	0.332	0.8245	0.332	-0.15
Mof_C 	C 	0.3027	0.857	0.3027	0.069
Mof_H 	H 	0.2868	0.8428	0.2868	0.02
Mof_C 	C 	0.2914	0.9139	0.2914	-0.144
Mof_C 	C 	0.3123	0.9409	0.3123	0.249
Mof_C 	C 	0.2977	0.9975	0.2977	-0.129
Mof_C 	C 	0.264	0.0239	0.264	0.024
Mof_H 	H 	0.2547	0.0613	0.2547	0.015
Mof_C 	C 	0.2438	0.9973	0.2438	-0.09
Mof_C 	C 	0.2578	0.9429	0.2578	0.033
Mof_H 	H 	0.2441	0.9244	0.2441	-0
Mof_C 	C 	0.3169	0.0288	0.3169	0.042
Mof_H 	H 	0.3046	0.0658	0.3046	0.044
Mof_N 	N 	0.3481	0.015	0.3481	-0.16
Mof_O 	O 	0.3577	0.0563	0.3577	-0.471
Mof_C 	C 	0.3952	0.0976	0.3952	-0.687
Mof_C 	C 	0.3985	0.1977	0.3985	0.1
Mof_C 	C 	0.3636	0.5223	0.3636	0.343
Mof_O 	O 	0.3916	0.4856	0.3916	-0.568
Mof_O 	O 	0.3376	0.5177	0.3376	-0.473
Mof_O 	O 	0.343	0.9147	0.343	-0.538
Mof_C 	C 	0.4007	0.2505	0.4007	0.328
Mof_C 	C 	0.3947	0.6303	0.3947	0.625
Mof_H 	H 	0.415	0.6329	0.415	-0.178
Mof_C 	C 	0.394	0.5808	0.394	0.46
Mof_H 	H 	0.4137	0.5502	0.4137	-0.114
Mof_C 	C 	0.3361	0.6213	0.3361	-0.029
Mof_H 	H 	0.3158	0.6186	0.3158	-0.08
Mof_C 	C 	0.3373	0.6703	0.3373	0.126
Mof_H 	H 	0.3176	0.7008	0.3176	-0.038
Mof_Zn	Zn	0.38353	0.38353	0.93724	1.199
Mof_Zn	Zn	0.37573	0.37573	0.83677	1.202
Mof_Zn	Zn	0.34303	0.34303	0.4423	1.213
Mof_C 	C 	0.3664	0.3664	0.6766	-0.509
Mof_C 	C 	0.3645	0.3645	0.576	0.065
Mof_B 	B 	0.368	0.368	0.733	1.526
Mof_B 	B 	0.3948	0.3948	0.0403	1.58
Mof_O 	O 	0.3352	0.3352	0.7736	-0.557
Mof_N 	N 	0.332	0.332	0.8245	-0.15
Mof_C 	C 	0.3027	0.3027	0.857	0.069
Mof_H 	H 	0.2868	0.2868	0.8428	0.02
Mof_C 	C 	0.2914	0.2914	0.9139	-0.144
Mof_C 	C 	0.3123	0.3123	0.9409	0.249
Mof_C 	C 	0.2977	0.2977	0.9975	-0.129
Mof_C 	C 	0.264	0.264	0.0239	0.024
Mof_H 	H 	0.2547	0.2547	0.0613	0.015
Mof_C 	C 	0.2438	0.2438	0.9973	-0.09
Mof_C 	C 	0.2578	0.2578	0.9429	0.033
Mof_H 	H 	0.2441	0.2441	0.9244	-0
Mof_C 	C 	0.3169	0.3169	0.0288	0.042
Mof_H 	H 	0.3046	0.3046	0.0658	0.044
Mof_N 	N 	0.3481	0.3481	0.015	-0.16
Mof_O 	O 	0.3577	0.3577	0.0563	-0.471
Mof_C 	C 	0.3952	0.3952	0.0976	-0.687
Mof_C 	C 	0.3985	0.3985	0.1977	0.1
Mof_C 	C 	0.3636	0.3636	0.5223	0.343
Mof_O 	O 	0.3916	0.3916	0.4856	-0.568
Mof_O 	O 	0.3376	0.3376	0.5177	-0.473
Mof_O 	O 	0.343	0.343	0.9147	-0.538
Mof_C 	C 	0.4007	0.4007	0.2505	0.328
Mof_C 	C 	0.3947	0.3947	0.6303	0.625
Mof_H 	H 	0.415	0.415	0.6329	-0.178
Mof_C 	C 	0.394	0.394	0.5808	0.46
Mof_H 	H 	0.4137	0.4137	0.5502	-0.114
Mof_C 	C 	0.3361	0.3361	0.6213	-0.029
Mof_H 	H 	0.3158	0.3158	0.6186	-0.08
Mof_C 	C 	0.3373	0.3373	0.6703	0.126
Mof_H 	H 	0.3176	0.3176	0.7008	-0.038
Mof_Zn	Zn	0.41684	0.41684	0.41684	1.241
Mof_O 	O 	0.3851	0.3851	0.3851	-0.949
Mof_O 	O 	0.6518	0.2671	0.5763	-0.539
Mof_N 	N 	0.6554	0.2208	0.5648	-0.169
Mof_C 	C 	0.6778	0.2238	0.5162	0.077
Mof_H 	H 	0.6891	0.255	0.496	0.046
Mof_C 	C 	0.6877	0.1837	0.489	-0.143
Mof_C 	C 	0.6697	0.1363	0.5151	0.255
Mof_C 	C 	0.6817	0.0994	0.484	-0.15
Mof_C 	C 	0.713	0.109	0.4318	0.053
Mof_H 	H 	0.7212	0.0838	0.4122	0.007
Mof_C 	C 	0.7323	0.1536	0.408	-0.135
Mof_C 	C 	0.7189	0.1907	0.4368	0.051
Mof_H 	H 	0.7313	0.2218	0.4208	0.015
Mof_C 	C 	0.6644	0.0509	0.5034	0.084
Mof_H 	H 	0.6729	0.03	0.4792	0.034
Mof_N 	N 	0.6389	0.0344	0.5498	-0.165
Mof_O 	O 	0.6309	0.9861	0.554	-0.572
Mof_C 	C 	0.6397	0.8765	0.5667	0.376
Mof_H 	H 	0.6651	0.8934	0.5404	-0.089
Mof_C 	C 	0.6392	0.8275	0.5652	-0.277
Mof_H 	H 	0.6648	0.8109	0.5391	0.132
Mof_O 	O 	0.6417	0.1281	0.5628	-0.544
Mof_C 	C 	0.7668	0.1614	0.3512	0.316
Mof_O 	O 	0.6338	0.7288	0.5645	-0.491
Mof_C 	C 	0.7919	0.9737	0.7946	0.104
Mof_C 	C 	0.782	0.9194	0.8222	-0.334
Mof_H 	H 	0.7459	0.923	0.8444	0.141
Mof_H 	H 	0.7869	0.9007	0.7959	0.087
Mof_H 	H 	0.807	0.8995	0.8442	0.098
Mof_C 	C 	0.7779	0.0049	0.8359	-0.571
Mof_H 	H 	0.7841	0.0401	0.8184	0.168
Mof_H 	H 	0.7406	0.0083	0.8547	0.079
Mof_H 	H 	0.7999	0.9863	0.861	0.175
Mof_C 	C 	0.8472	0.9719	0.7591	0.254
Mof_H 	H 	0.8513	0.0079	0.7424	0.029
Mof_H 	H 	0.8731	0.9527	0.7802	-0.069
Mof_H 	H 	0.853	0.954	0.7319	-0.111
Mof_C 	C 	0.8076	0.111	0.3411	-0.189
Mof_H 	H 	0.8286	0.1179	0.3046	0.057
Mof_H 	H 	0.8308	0.0991	0.365	0.04
Mof_H 	H 	0.7897	0.0837	0.3472	0.065
Mof_C 	C 	0.7976	0.2032	0.3375	-0.242
Mof_H 	H 	0.773	0.2365	0.3434	0.102
Mof_H 	H 	0.8223	0.1913	0.3599	0.045
Mof_H 	H 	0.8172	0.2083	0.3004	0.082
Mof_C 	C 	0.7284	0.1828	0.3154	-0.311
Mof_H 	H 	0.7032	0.2151	0.3236	0.05
Mof_H 	H 	0.7482	0.1905	0.2785	0.101
Mof_H 	H 	0.7094	0.1563	0.3214	0.103
Mof_C 	C 	0.8249	0.149	0.3515	-0.288
Mof_H 	H 	0.8355	0.1135	0.3729	0.093
Mof_H 	H 	0.8469	0.1521	0.3154	0.095
Mof_H 	H 	0.8294	0.1745	0.3664	0.098
Mof_C 	C 	0.751	0.2173	0.3178	-0.161
Mof_H 	H 	0.7737	0.2204	0.2821	0.045
Mof_H 	H 	0.7141	0.2248	0.3162	0.086
Mof_H 	H 	0.754	0.2425	0.3336	0.03
Mof_C 	C 	0.762	0.1241	0.3236	-0.212
Mof_H 	H 	0.7718	0.0876	0.3438	0.047
Mof_H 	H 	0.7253	0.1324	0.3215	0.046
Mof_H 	H 	0.7851	0.1284	0.288	0.069
Mof_C 	C 	0.587	0.3637	0.641	-0.269
Mof_H 	H 	0.5545	0.357	0.644	0.118
Mof_C 	C 	0.587	0.4127	0.644	-0.406
Mof_H 	H 	0.5548	0.4384	0.6507	0.16
Mof_C 	C 	0.6751	0.3799	0.6496	-0.038
Mof_H 	H 	0.7019	0.383	0.6618	0.096
Mof_C 	C 	0.675	0.3314	0.6457	0.042
Mof_H 	H 	0.7043	0.3024	0.6514	0.003
Mof_O 	O 	0.2671	0.5763	0.6518	-0.539
Mof_N 	N 	0.2208	0.5648	0.6554	-0.169
Mof_C 	C 	0.2238	0.5162	0.6778	0.077
Mof_H 	H 	0.255	0.496	0.6891	0.046
Mof_C 	C 	0.1837	0.489	0.6877	-0.143
Mof_C 	C 	0.1363	0.5151	0.6697	0.255
Mof_C 	C 	0.0994	0.484	0.6817	-0.15
Mof_C 	C 	0.109	0.4318	0.713	0.053
Mof_H 	H 	0.0838	0.4122	0.7212	0.007
Mof_C 	C 	0.1536	0.408	0.7323	-0.135
Mof_C 	C 	0.1907	0.4368	0.7189	0.051
Mof_H 	H 	0.2218	0.4208	0.7313	0.015
Mof_C 	C 	0.0509	0.5034	0.6644	0.084
Mof_H 	H 	0.03	0.4792	0.6729	0.034
Mof_N 	N 	0.0344	0.5498	0.6389	-0.165
Mof_O 	O 	0.9861	0.554	0.6309	-0.572
Mof_C 	C 	0.8765	0.5667	0.6397	0.376
Mof_H 	H 	0.8934	0.5404	0.6651	-0.089
Mof_C 	C 	0.8275	0.5652	0.6392	-0.277
Mof_H 	H 	0.8109	0.5391	0.6648	0.132
Mof_O 	O 	0.1281	0.5628	0.6417	-0.544
Mof_C 	C 	0.1614	0.3512	0.7668	0.316
Mof_O 	O 	0.7288	0.5645	0.6338	-0.491
Mof_C 	C 	0.9737	0.7946	0.7919	0.104
Mof_C 	C 	0.9194	0.8222	0.782	-0.334
Mof_H 	H 	0.923	0.8444	0.7459	0.141
Mof_H 	H 	0.9007	0.7959	0.7869	0.087
Mof_H 	H 	0.8995	0.8442	0.807	0.098
Mof_C 	C 	0.0049	0.8359	0.7779	-0.571
Mof_H 	H 	0.0401	0.8184	0.7841	0.168
Mof_H 	H 	0.0083	0.8547	0.7406	0.079
Mof_H 	H 	0.9863	0.861	0.7999	0.175
Mof_C 	C 	0.9719	0.7591	0.8472	0.254
Mof_H 	H 	0.0079	0.7424	0.8513	0.029
Mof_H 	H 	0.9527	0.7802	0.8731	-0.069
Mof_H 	H 	0.954	0.7319	0.853	-0.111
Mof_C 	C 	0.111	0.3411	0.8076	-0.189
Mof_H 	H 	0.1179	0.3046	0.8286	0.057
Mof_H 	H 	0.0991	0.365	0.8308	0.04
Mof_H 	H 	0.0837	0.3472	0.7897	0.065
Mof_C 	C 	0.2032	0.3375	0.7976	-0.242
Mof_H 	H 	0.2365	0.3434	0.773	0.102
Mof_H 	H 	0.1913	0.3599	0.8223	0.045
Mof_H 	H 	0.2083	0.3004	0.8172	0.082
Mof_C 	C 	0.1828	0.3154	0.7284	-0.311
Mof_H 	H 	0.2151	0.3236	0.7032	0.05
Mof_H 	H 	0.1905	0.2785	0.7482	0.101
Mof_H 	H 	0.1563	0.3214	0.7094	0.103
Mof_C 	C 	0.149	0.3515	0.8249	-0.288
Mof_H 	H 	0.1135	0.3729	0.8355	0.093
Mof_H 	H 	0.1521	0.3154	0.8469	0.095
Mof_H 	H 	0.1745	0.3664	0.8294	0.098
Mof_C 	C 	0.2173	0.3178	0.751	-0.161
Mof_H 	H 	0.2204	0.2821	0.7737	0.045
Mof_H 	H 	0.2248	0.3162	0.7141	0.086
Mof_H 	H 	0.2425	0.3336	0.754	0.03
Mof_C 	C 	0.1241	0.3236	0.762	-0.212
Mof_H 	H 	0.0876	0.3438	0.7718	0.047
Mof_H 	H 	0.1324	0.3215	0.7253	0.046
Mof_H 	H 	0.1284	0.288	0.7851	0.069
Mof_C 	C 	0.3637	0.641	0.587	-0.269
Mof_H 	H 	0.357	0.644	0.5545	0.118
Mof_C 	C 	0.4127	0.644	0.587	-0.406
Mof_H 	H 	0.4384	0.6507	0.5548	0.16
Mof_C 	C 	0.3799	0.6496	0.6751	-0.038
Mof_H 	H 	0.383	0.6618	0.7019	0.096
Mof_C 	C 	0.3314	0.6457	0.675	0.042
Mof_H 	H 	0.3024	0.6514	0.7043	0.003
Mof_O 	O 	0.5763	0.6518	0.2671	-0.539
Mof_N 	N 	0.5648	0.6554	0.2208	-0.169
Mof_C 	C 	0.5162	0.6778	0.2238	0.077
Mof_H 	H 	0.496	0.6891	0.255	0.046
Mof_C 	C 	0.489	0.6877	0.1837	-0.143
Mof_C 	C 	0.5151	0.6697	0.1363	0.255
Mof_C 	C 	0.484	0.6817	0.0994	-0.15
Mof_C 	C 	0.4318	0.713	0.109	0.053
Mof_H 	H 	0.4122	0.7212	0.0838	0.007
Mof_C 	C 	0.408	0.7323	0.1536	-0.135
Mof_C 	C 	0.4368	0.7189	0.1907	0.051
Mof_H 	H 	0.4208	0.7313	0.2218	0.015
Mof_C 	C 	0.5034	0.6644	0.0509	0.084
Mof_H 	H 	0.4792	0.6729	0.03	0.034
Mof_N 	N 	0.5498	0.6389	0.0344	-0.165
Mof_O 	O 	0.554	0.6309	0.9861	-0.572
Mof_C 	C 	0.5667	0.6397	0.8765	0.376
Mof_H 	H 	0.5404	0.6651	0.8934	-0.089
Mof_C 	C 	0.5652	0.6392	0.8275	-0.277
Mof_H 	H 	0.5391	0.6648	0.8109	0.132
Mof_O 	O 	0.5628	0.6417	0.1281	-0.544
Mof_C 	C 	0.3512	0.7668	0.1614	0.316
Mof_O 	O 	0.5645	0.6338	0.7288	-0.491
Mof_C 	C 	0.7946	0.7919	0.9737	0.104
Mof_C 	C 	0.8222	0.782	0.9194	-0.334
Mof_H 	H 	0.8444	0.7459	0.923	0.141
Mof_H 	H 	0.7959	0.7869	0.9007	0.087
Mof_H 	H 	0.8442	0.807	0.8995	0.098
Mof_C 	C 	0.8359	0.7779	0.0049	-0.571
Mof_H 	H 	0.8184	0.7841	0.0401	0.168
Mof_H 	H 	0.8547	0.7406	0.0083	0.079
Mof_H 	H 	0.861	0.7999	0.9863	0.175
Mof_C 	C 	0.7591	0.8472	0.9719	0.254
Mof_H 	H 	0.7424	0.8513	0.0079	0.029
Mof_H 	H 	0.7802	0.8731	0.9527	-0.069
Mof_H 	H 	0.7319	0.853	0.954	-0.111
Mof_C 	C 	0.3411	0.8076	0.111	-0.189
Mof_H 	H 	0.3046	0.8286	0.1179	0.057
Mof_H 	H 	0.365	0.8308	0.0991	0.04
Mof_H 	H 	0.3472	0.7897	0.0837	0.065
Mof_C 	C 	0.3375	0.7976	0.2032	-0.242
Mof_H 	H 	0.3434	0.773	0.2365	0.102
Mof_H 	H 	0.3599	0.8223	0.1913	0.045
Mof_H 	H 	0.3004	0.8172	0.2083	0.082
Mof_C 	C 	0.3154	0.7284	0.1828	-0.311
Mof_H 	H 	0.3236	0.7032	0.2151	0.05
Mof_H 	H 	0.2785	0.7482	0.1905	0.101
Mof_H 	H 	0.3214	0.7094	0.1563	0.103
Mof_C 	C 	0.3515	0.8249	0.149	-0.288
Mof_H 	H 	0.3729	0.8355	0.1135	0.093
Mof_H 	H 	0.3154	0.8469	0.1521	0.095
Mof_H 	H 	0.3664	0.8294	0.1745	0.098
Mof_C 	C 	0.3178	0.751	0.2173	-0.161
Mof_H 	H 	0.2821	0.7737	0.2204	0.045
Mof_H 	H 	0.3162	0.7141	0.2248	0.086
Mof_H 	H 	0.3336	0.754	0.2425	0.03
Mof_C 	C 	0.3236	0.762	0.1241	-0.212
Mof_H 	H 	0.3438	0.7718	0.0876	0.047
Mof_H 	H 	0.3215	0.7253	0.1324	0.046
Mof_H 	H 	0.288	0.7851	0.1284	0.069
Mof_C 	C 	0.641	0.587	0.3637	-0.269
Mof_H 	H 	0.644	0.5545	0.357	0.118
Mof_C 	C 	0.644	0.587	0.4127	-0.406
Mof_H 	H 	0.6507	0.5548	0.4384	0.16
Mof_C 	C 	0.6496	0.6751	0.3799	-0.038
Mof_H 	H 	0.6618	0.7019	0.383	0.096
Mof_C 	C 	0.6457	0.675	0.3314	0.042
Mof_H 	H 	0.6514	0.7043	0.3024	0.003
Mof_O 	O 	0.2671	0.6518	0.5763	-0.539
Mof_N 	N 	0.2208	0.6554	0.5648	-0.169
Mof_C 	C 	0.2238	0.6778	0.5162	0.077
Mof_H 	H 	0.255	0.6891	0.496	0.046
Mof_C 	C 	0.1837	0.6877	0.489	-0.143
Mof_C 	C 	0.1363	0.6697	0.5151	0.255
Mof_C 	C 	0.0994	0.6817	0.484	-0.15
Mof_C 	C 	0.109	0.713	0.4318	0.053
Mof_H 	H 	0.0838	0.7212	0.4122	0.007
Mof_C 	C 	0.1536	0.7323	0.408	-0.135
Mof_C 	C 	0.1907	0.7189	0.4368	0.051
Mof_H 	H 	0.2218	0.7313	0.4208	0.015
Mof_C 	C 	0.0509	0.6644	0.5034	0.084
Mof_H 	H 	0.03	0.6729	0.4792	0.034
Mof_N 	N 	0.0344	0.6389	0.5498	-0.165
Mof_O 	O 	0.9861	0.6309	0.554	-0.572
Mof_C 	C 	0.8765	0.6397	0.5667	0.376
Mof_H 	H 	0.8934	0.6651	0.5404	-0.089
Mof_C 	C 	0.8275	0.6392	0.5652	-0.277
Mof_H 	H 	0.8109	0.6648	0.5391	0.132
Mof_O 	O 	0.1281	0.6417	0.5628	-0.544
Mof_C 	C 	0.1614	0.7668	0.3512	0.316
Mof_O 	O 	0.7288	0.6338	0.5645	-0.491
Mof_C 	C 	0.9737	0.7919	0.7946	0.104
Mof_C 	C 	0.9194	0.782	0.8222	-0.334
Mof_H 	H 	0.923	0.7459	0.8444	0.141
Mof_H 	H 	0.9007	0.7869	0.7959	0.087
Mof_H 	H 	0.8995	0.807	0.8442	0.098
Mof_C 	C 	0.0049	0.7779	0.8359	-0.571
Mof_H 	H 	0.0401	0.7841	0.8184	0.168
Mof_H 	H 	0.0083	0.7406	0.8547	0.079
Mof_H 	H 	0.9863	0.7999	0.861	0.175
Mof_C 	C 	0.9719	0.8472	0.7591	0.254
Mof_H 	H 	0.0079	0.8513	0.7424	0.029
Mof_H 	H 	0.9527	0.8731	0.7802	-0.069
Mof_H 	H 	0.954	0.853	0.7319	-0.111
Mof_C 	C 	0.111	0.8076	0.3411	-0.189
Mof_H 	H 	0.1179	0.8286	0.3046	0.057
Mof_H 	H 	0.0991	0.8308	0.365	0.04
Mof_H 	H 	0.0837	0.7897	0.3472	0.065
Mof_C 	C 	0.2032	0.7976	0.3375	-0.242
Mof_H 	H 	0.2365	0.773	0.3434	0.102
Mof_H 	H 	0.1913	0.8223	0.3599	0.045
Mof_H 	H 	0.2083	0.8172	0.3004	0.082
Mof_C 	C 	0.1828	0.7284	0.3154	-0.311
Mof_H 	H 	0.2151	0.7032	0.3236	0.05
Mof_H 	H 	0.1905	0.7482	0.2785	0.101
Mof_H 	H 	0.1563	0.7094	0.3214	0.103
Mof_C 	C 	0.149	0.8249	0.3515	-0.288
Mof_H 	H 	0.1135	0.8355	0.3729	0.093
Mof_H 	H 	0.1521	0.8469	0.3154	0.095
Mof_H 	H 	0.1745	0.8294	0.3664	0.098
Mof_C 	C 	0.2173	0.751	0.3178	-0.161
Mof_H 	H 	0.2204	0.7737	0.2821	0.045
Mof_H 	H 	0.2248	0.7141	0.3162	0.086
Mof_H 	H 	0.2425	0.754	0.3336	0.03
Mof_C 	C 	0.1241	0.762	0.3236	-0.212
Mof_H 	H 	0.0876	0.7718	0.3438	0.047
Mof_H 	H 	0.1324	0.7253	0.3215	0.046
Mof_H 	H 	0.1284	0.7851	0.288	0.069
Mof_C 	C 	0.3637	0.587	0.641	-0.269
Mof_H 	H 	0.357	0.5545	0.644	0.118
Mof_C 	C 	0.4127	0.587	0.644	-0.406
Mof_H 	H 	0.4384	0.5548	0.6507	0.16
Mof_C 	C 	0.3799	0.6751	0.6496	-0.038
Mof_H 	H 	0.383	0.7019	0.6618	0.096
Mof_C 	C 	0.3314	0.675	0.6457	0.042
Mof_H 	H 	0.3024	0.7043	0.6514	0.003
Mof_O 	O 	0.5763	0.2671	0.6518	-0.539
Mof_N 	N 	0.5648	0.2208	0.6554	-0.169
Mof_C 	C 	0.5162	0.2238	0.6778	0.077
Mof_H 	H 	0.496	0.255	0.6891	0.046
Mof_C 	C 	0.489	0.1837	0.6877	-0.143
Mof_C 	C 	0.5151	0.1363	0.6697	0.255
Mof_C 	C 	0.484	0.0994	0.6817	-0.15
Mof_C 	C 	0.4318	0.109	0.713	0.053
Mof_H 	H 	0.4122	0.0838	0.7212	0.007
Mof_C 	C 	0.408	0.1536	0.7323	-0.135
Mof_C 	C 	0.4368	0.1907	0.7189	0.051
Mof_H 	H 	0.4208	0.2218	0.7313	0.015
Mof_C 	C 	0.5034	0.0509	0.6644	0.084
Mof_H 	H 	0.4792	0.03	0.6729	0.034
Mof_N 	N 	0.5498	0.0344	0.6389	-0.165
Mof_O 	O 	0.554	0.9861	0.6309	-0.572
Mof_C 	C 	0.5667	0.8765	0.6397	0.376
Mof_H 	H 	0.5404	0.8934	0.6651	-0.089
Mof_C 	C 	0.5652	0.8275	0.6392	-0.277
Mof_H 	H 	0.5391	0.8109	0.6648	0.132
Mof_O 	O 	0.5628	0.1281	0.6417	-0.544
Mof_C 	C 	0.3512	0.1614	0.7668	0.316
Mof_O 	O 	0.5645	0.7288	0.6338	-0.491
Mof_C 	C 	0.7946	0.9737	0.7919	0.104
Mof_C 	C 	0.8222	0.9194	0.782	-0.334
Mof_H 	H 	0.8444	0.923	0.7459	0.141
Mof_H 	H 	0.7959	0.9007	0.7869	0.087
Mof_H 	H 	0.8442	0.8995	0.807	0.098
Mof_C 	C 	0.8359	0.0049	0.7779	-0.571
Mof_H 	H 	0.8184	0.0401	0.7841	0.168
Mof_H 	H 	0.8547	0.0083	0.7406	0.079
Mof_H 	H 	0.861	0.9863	0.7999	0.175
Mof_C 	C 	0.7591	0.9719	0.8472	0.254
Mof_H 	H 	0.7424	0.0079	0.8513	0.029
Mof_H 	H 	0.7802	0.9527	0.8731	-0.069
Mof_H 	H 	0.7319	0.954	0.853	-0.111
Mof_C 	C 	0.3411	0.111	0.8076	-0.189
Mof_H 	H 	0.3046	0.1179	0.8286	0.057
Mof_H 	H 	0.365	0.0991	0.8308	0.04
Mof_H 	H 	0.3472	0.0837	0.7897	0.065
Mof_C 	C 	0.3375	0.2032	0.7976	-0.242
Mof_H 	H 	0.3434	0.2365	0.773	0.102
Mof_H 	H 	0.3599	0.1913	0.8223	0.045
Mof_H 	H 	0.3004	0.2083	0.8172	0.082
Mof_C 	C 	0.3154	0.1828	0.7284	-0.311
Mof_H 	H 	0.3236	0.2151	0.7032	0.05
Mof_H 	H 	0.2785	0.1905	0.7482	0.101
Mof_H 	H 	0.3214	0.1563	0.7094	0.103
Mof_C 	C 	0.3515	0.149	0.8249	-0.288
Mof_H 	H 	0.3729	0.1135	0.8355	0.093
Mof_H 	H 	0.3154	0.1521	0.8469	0.095
Mof_H 	H 	0.3664	0.1745	0.8294	0.098
Mof_C 	C 	0.3178	0.2173	0.751	-0.161
Mof_H 	H 	0.2821	0.2204	0.7737	0.045
Mof_H 	H 	0.3162	0.2248	0.7141	0.086
Mof_H 	H 	0.3336	0.2425	0.754	0.03
Mof_C 	C 	0.3236	0.1241	0.762	-0.212
Mof_H 	H 	0.3438	0.0876	0.7718	0.047
Mof_H 	H 	0.3215	0.1324	0.7253	0.046
Mof_H 	H 	0.288	0.1284	0.7851	0.069
Mof_C 	C 	0.641	0.3637	0.587	-0.269
Mof_H 	H 	0.644	0.357	0.5545	0.118
Mof_C 	C 	0.644	0.4127	0.587	-0.406
Mof_H 	H 	0.6507	0.4384	0.5548	0.16
Mof_C 	C 	0.6496	0.3799	0.6751	-0.038
Mof_H 	H 	0.6618	0.383	0.7019	0.096
Mof_C 	C 	0.6457	0.3314	0.675	0.042
Mof_H 	H 	0.6514	0.3024	0.7043	0.003
Mof_O 	O 	0.6518	0.5763	0.2671	-0.539
Mof_N 	N 	0.6554	0.5648	0.2208	-0.169
Mof_C 	C 	0.6778	0.5162	0.2238	0.077
Mof_H 	H 	0.6891	0.496	0.255	0.046
Mof_C 	C 	0.6877	0.489	0.1837	-0.143
Mof_C 	C 	0.6697	0.5151	0.1363	0.255
Mof_C 	C 	0.6817	0.484	0.0994	-0.15
Mof_C 	C 	0.713	0.4318	0.109	0.053
Mof_H 	H 	0.7212	0.4122	0.0838	0.007
Mof_C 	C 	0.7323	0.408	0.1536	-0.135
Mof_C 	C 	0.7189	0.4368	0.1907	0.051
Mof_H 	H 	0.7313	0.4208	0.2218	0.015
Mof_C 	C 	0.6644	0.5034	0.0509	0.084
Mof_H 	H 	0.6729	0.4792	0.03	0.034
Mof_N 	N 	0.6389	0.5498	0.0344	-0.165
Mof_O 	O 	0.6309	0.554	0.9861	-0.572
Mof_C 	C 	0.6397	0.5667	0.8765	0.376
Mof_H 	H 	0.6651	0.5404	0.8934	-0.089
Mof_C 	C 	0.6392	0.5652	0.8275	-0.277
Mof_H 	H 	0.6648	0.5391	0.8109	0.132
Mof_O 	O 	0.6417	0.5628	0.1281	-0.544
Mof_C 	C 	0.7668	0.3512	0.1614	0.316
Mof_O 	O 	0.6338	0.5645	0.7288	-0.491
Mof_C 	C 	0.7919	0.7946	0.9737	0.104
Mof_C 	C 	0.782	0.8222	0.9194	-0.334
Mof_H 	H 	0.7459	0.8444	0.923	0.141
Mof_H 	H 	0.7869	0.7959	0.9007	0.087
Mof_H 	H 	0.807	0.8442	0.8995	0.098
Mof_C 	C 	0.7779	0.8359	0.0049	-0.571
Mof_H 	H 	0.7841	0.8184	0.0401	0.168
Mof_H 	H 	0.7406	0.8547	0.0083	0.079
Mof_H 	H 	0.7999	0.861	0.9863	0.175
Mof_C 	C 	0.8472	0.7591	0.9719	0.254
Mof_H 	H 	0.8513	0.7424	0.0079	0.029
Mof_H 	H 	0.8731	0.7802	0.9527	-0.069
Mof_H 	H 	0.853	0.7319	0.954	-0.111
Mof_C 	C 	0.8076	0.3411	0.111	-0.189
Mof_H 	H 	0.8286	0.3046	0.1179	0.057
Mof_H 	H 	0.8308	0.365	0.0991	0.04
Mof_H 	H 	0.7897	0.3472	0.0837	0.065
Mof_C 	C 	0.7976	0.3375	0.2032	-0.242
Mof_H 	H 	0.773	0.3434	0.2365	0.102
Mof_H 	H 	0.8223	0.3599	0.1913	0.045
Mof_H 	H 	0.8172	0.3004	0.2083	0.082
Mof_C 	C 	0.7284	0.3154	0.1828	-0.311
Mof_H 	H 	0.7032	0.3236	0.2151	0.05
Mof_H 	H 	0.7482	0.2785	0.1905	0.101
Mof_H 	H 	0.7094	0.3214	0.1563	0.103
Mof_C 	C 	0.8249	0.3515	0.149	-0.288
Mof_H 	H 	0.8355	0.3729	0.1135	0.093
Mof_H 	H 	0.8469	0.3154	0.1521	0.095
Mof_H 	H 	0.8294	0.3664	0.1745	0.098
Mof_C 	C 	0.751	0.3178	0.2173	-0.161
Mof_H 	H 	0.7737	0.2821	0.2204	0.045
Mof_H 	H 	0.7141	0.3162	0.2248	0.086
Mof_H 	H 	0.754	0.3336	0.2425	0.03
Mof_C 	C 	0.762	0.3236	0.1241	-0.212
Mof_H 	H 	0.7718	0.3438	0.0876	0.047
Mof_H 	H 	0.7253	0.3215	0.1324	0.046
Mof_H 	H 	0.7851	0.288	0.1284	0.069
Mof_C 	C 	0.587	0.641	0.3637	-0.269
Mof_H 	H 	0.5545	0.644	0.357	0.118
Mof_C 	C 	0.587	0.644	0.4127	-0.406
Mof_H 	H 	0.5548	0.6507	0.4384	0.16
Mof_C 	C 	0.6751	0.6496	0.3799	-0.038
Mof_H 	H 	0.7019	0.6618	0.383	0.096
Mof_C 	C 	0.675	0.6457	0.3314	0.042
Mof_H 	H 	0.7043	0.6514	0.3024	0.003
Mof_Zn	Zn	0.61647	0.06276	0.61647	1.199
Mof_Zn	Zn	0.62427	0.16323	0.62427	1.202
Mof_Zn	Zn	0.65697	0.5577	0.65697	1.213
Mof_C 	C 	0.6336	0.3234	0.6336	-0.509
Mof_C 	C 	0.6355	0.424	0.6355	0.065
Mof_B 	B 	0.632	0.267	0.632	1.526
Mof_B 	B 	0.6052	0.9597	0.6052	1.58
Mof_O 	O 	0.6648	0.2264	0.6648	-0.557
Mof_N 	N 	0.668	0.1755	0.668	-0.15
Mof_C 	C 	0.6973	0.143	0.6973	0.069
Mof_H 	H 	0.7132	0.1572	0.7132	0.02
Mof_C 	C 	0.7086	0.0861	0.7086	-0.144
Mof_C 	C 	0.6877	0.0591	0.6877	0.249
Mof_C 	C 	0.7023	0.0025	0.7023	-0.129
Mof_C 	C 	0.736	0.9761	0.736	0.024
Mof_H 	H 	0.7453	0.9387	0.7453	0.015
Mof_C 	C 	0.7562	0.0027	0.7562	-0.09
Mof_C 	C 	0.7422	0.0571	0.7422	0.033
Mof_H 	H 	0.7559	0.0756	0.7559	-0
Mof_C 	C 	0.6831	0.9712	0.6831	0.042
Mof_H 	H 	0.6954	0.9342	0.6954	0.044
Mof_N 	N 	0.6519	0.985	0.6519	-0.16
Mof_O 	O 	0.6423	0.9437	0.6423	-0.471
Mof_C 	C 	0.6048	0.9024	0.6048	-0.687
Mof_C 	C 	0.6015	0.8023	0.6015	0.1
Mof_C 	C 	0.6364	0.4777	0.6364	0.343
Mof_O 	O 	0.6084	0.5144	0.6084	-0.568
Mof_O 	O 	0.6624	0.4823	0.6624	-0.473
Mof_O 	O 	0.657	0.0853	0.657	-0.538
Mof_C 	C 	0.5993	0.7495	0.5993	0.328
Mof_C 	C 	0.6053	0.3697	0.6053	0.625
Mof_H 	H 	0.585	0.3671	0.585	-0.178
Mof_C 	C 	0.606	0.4192	0.606	0.46
Mof_H 	H 	0.5863	0.4498	0.5863	-0.114
Mof_C 	C 	0.6639	0.3787	0.6639	-0.029
Mof_H 	H 	0.6842	0.3814	0.6842	-0.08
Mof_C 	C 	0.6627	0.3297	0.6627	0.126
Mof_H 	H 	0.6824	0.2992	0.6824	-0.038
Mof_Zn	Zn	0.06276	0.61647	0.61647	1.199
Mof_Zn	Zn	0.16323	0.62427	0.62427	1.202
Mof_Zn	Zn	0.5577	0.65697	0.65697	1.213
Mof_C 	C 	0.3234	0.6336	0.6336	-0.509
Mof_C 	C 	0.424	0.6355	0.6355	0.065
Mof_B 	B 	0.267	0.632	0.632	1.526
Mof_B 	B 	0.9597	0.6052	0.6052	1.58
Mof_O 	O 	0.2264	0.6648	0.6648	-0.557
Mof_N 	N 	0.1755	0.668	0.668	-0.15
Mof_C 	C 	0.143	0.6973	0.6973	0.069
Mof_H 	H 	0.1572	0.7132	0.7132	0.02
Mof_C 	C 	0.0861	0.7086	0.7086	-0.144
Mof_C 	C 	0.0591	0.6877	0.6877	0.249
Mof_C 	C 	0.0025	0.7023	0.7023	-0.129
Mof_C 	C 	0.9761	0.736	0.736	0.024
Mof_H 	H 	0.9387	0.7453	0.7453	0.015
Mof_C 	C 	0.0027	0.7562	0.7562	-0.09
Mof_C 	C 	0.0571	0.7422	0.7422	0.033
Mof_H 	H 	0.0756	0.7559	0.7559	-0
Mof_C 	C 	0.9712	0.6831	0.6831	0.042
Mof_H 	H 	0.9342	0.6954	0.6954	0.044
Mof_N 	N 	0.985	0.6519	0.6519	-0.16
Mof_O 	O 	0.9437	0.6423	0.6423	-0.471
Mof_C 	C 	0.9024	0.6048	0.6048	-0.687
Mof_C 	C 	0.8023	0.6015	0.6015	0.1
Mof_C 	C 	0.4777	0.6364	0.6364	0.343
Mof_O 	O 	0.5144	0.6084	0.6084	-0.568
Mof_O 	O 	0.4823	0.6624	0.6624	-0.473
Mof_O 	O 	0.0853	0.657	0.657	-0.538
Mof_C 	C 	0.7495	0.5993	0.5993	0.328
Mof_C 	C 	0.3697	0.6053	0.6053	0.625
Mof_H 	H 	0.3671	0.585	0.585	-0.178
Mof_C 	C 	0.4192	0.606	0.606	0.46
Mof_H 	H 	0.4498	0.5863	0.5863	-0.114
Mof_C 	C 	0.3787	0.6639	0.6639	-0.029
Mof_H 	H 	0.3814	0.6842	0.6842	-0.08
Mof_C 	C 	0.3297	0.6627	0.6627	0.126
Mof_H 	H 	0.2992	0.6824	0.6824	-0.038
Mof_Zn	Zn	0.61647	0.61647	0.06276	1.199
Mof_Zn	Zn	0.62427	0.62427	0.16323	1.202
Mof_Zn	Zn	0.65697	0.65697	0.5577	1.213
Mof_C 	C 	0.6336	0.6336	0.3234	-0.509
Mof_C 	C 	0.6355	0.6355	0.424	0.065
Mof_B 	B 	0.632	0.632	0.267	1.526
Mof_B 	B 	0.6052	0.6052	0.9597	1.58
Mof_O 	O 	0.6648	0.6648	0.2264	-0.557
Mof_N 	N 	0.668	0.668	0.1755	-0.15
Mof_C 	C 	0.6973	0.6973	0.143	0.069
Mof_H 	H 	0.7132	0.7132	0.1572	0.02
Mof_C 	C 	0.7086	0.7086	0.0861	-0.144
Mof_C 	C 	0.6877	0.6877	0.0591	0.249
Mof_C 	C 	0.7023	0.7023	0.0025	-0.129
Mof_C 	C 	0.736	0.736	0.9761	0.024
Mof_H 	H 	0.7453	0.7453	0.9387	0.015
Mof_C 	C 	0.7562	0.7562	0.0027	-0.09
Mof_C 	C 	0.7422	0.7422	0.0571	0.033
Mof_H 	H 	0.7559	0.7559	0.0756	-0
Mof_C 	C 	0.6831	0.6831	0.9712	0.042
Mof_H 	H 	0.6954	0.6954	0.9342	0.044
Mof_N 	N 	0.6519	0.6519	0.985	-0.16
Mof_O 	O 	0.6423	0.6423	0.9437	-0.471
Mof_C 	C 	0.6048	0.6048	0.9024	-0.687
Mof_C 	C 	0.6015	0.6015	0.8023	0.1
Mof_C 	C 	0.6364	0.6364	0.4777	0.343
Mof_O 	O 	0.6084	0.6084	0.5144	-0.568
Mof_O 	O 	0.6624	0.6624	0.4823	-0.473
Mof_O 	O 	0.657	0.657	0.0853	-0.538
Mof_C 	C 	0.5993	0.5993	0.7495	0.328
Mof_C 	C 	0.6053	0.6053	0.3697	0.625
Mof_H 	H 	0.585	0.585	0.3671	-0.178
Mof_C 	C 	0.606	0.606	0.4192	0.46
Mof_H 	H 	0.5863	0.5863	0.4498	-0.114
Mof_C 	C 	0.6639	0.6639	0.3787	-0.029
Mof_H 	H 	0.6842	0.6842	0.3814	-0.08
Mof_C 	C 	0.6627	0.6627	0.3297	0.126
Mof_H 	H 	0.6824	0.6824	0.2992	-0.038
Mof_Zn	Zn	0.58316	0.58316	0.58316	1.241
Mof_O 	O 	0.6149	0.6149	0.6149	-0.949
_end
