data_functionalizedCrystal
_audit_creation_method	'EQeq! by Chris Wilmer'
_symmetry_space_group_name_H-M	'P1'
_symmetry_Int_Tables_number	1
_symmetry_cell_setting	triclinic
loop_
_symmetry_equiv_pos_as_xyz
  x,y,z
_cell_length_a	48.842
_cell_length_b	48.842
_cell_length_c	48.842
_cell_angle_alpha	90
_cell_angle_beta	90
_cell_angle_gamma	90
loop_
_atom_site_label
_atom_site_type_symbol
_atom_site_fract_x
_atom_site_fract_y
_atom_site_fract_z
_atom_site_charge
Mof_O 	O 	0.67684	0.97224	0.47118	-0.633
Mof_O 	O 	0.75233	0.07944	0.52383	-0.627
Mof_O 	O 	0.71068	0.0516	0.55217	-0.615
Mof_C 	C 	0.82986	0.35281	0.52502	0.086
Mof_C 	C 	0.82452	0.37885	0.53518	-0.107
Mof_H 	H 	0.8101	0.3891	0.528	0.071
Mof_C 	C 	0.84065	0.38957	0.55603	-0.021
Mof_H 	H 	0.8371	0.407	0.5628	0.042
Mof_C 	C 	0.86212	0.37426	0.56672	-0.004
Mof_C 	C 	0.86747	0.34822	0.55656	-0.021
Mof_H 	H 	0.8818	0.338	0.5637	0.041
Mof_C 	C 	0.85134	0.33749	0.53571	-0.106
Mof_H 	H 	0.8549	0.3201	0.5289	0.071
Mof_C 	C 	0.9096	0.40935	0.62514	0.119
Mof_C 	C 	0.92749	0.43013	0.61752	-0.165
Mof_H 	H 	0.9297	0.4346	0.5991	0.093
Mof_C 	C 	0.94211	0.44431	0.6374	0.096
Mof_H 	H 	0.9541	0.4582	0.6323	0.018
Mof_C 	C 	0.93885	0.43771	0.66489	-0.165
Mof_C 	C 	0.92096	0.41692	0.6725	0.101
Mof_H 	H 	0.9188	0.4125	0.6909	0.016
Mof_C 	C 	0.90634	0.40274	0.65263	-0.168
Mof_H 	H 	0.8944	0.3888	0.6577	0.094
Mof_C 	C 	0.8932	0.3947	0.6047	-0.062
Mof_C 	C 	0.7661	0.13467	0.52446	0.103
Mof_H 	H 	0.7638	0.1257	0.5411	0.015
Mof_C 	C 	0.88	0.3839	0.5892	0.015
Mof_C 	C 	0.7736	0.16214	0.52441	-0.177
Mof_H 	H 	0.7777	0.1709	0.5408	0.096
Mof_C 	C 	0.8062	0.29786	0.4765	-0.122
Mof_H 	H 	0.8083	0.3069	0.4599	0.074
Mof_C 	C 	0.7995	0.2702	0.4762	-0.007
Mof_H 	H 	0.7976	0.2612	0.4596	0.035
Mof_C 	C 	0.7436	0.368	0.4773	0.16
Mof_H 	H 	0.7341	0.3673	0.4608	-0.025
Mof_C 	C 	0.7701	0.3596	0.4775	-0.256
Mof_H 	H 	0.7785	0.3568	0.4606	0.119
Mof_C 	C 	0.6852	0.0443	0.5466	0.481
Mof_C 	C 	0.6444	0.417	0.5221	-0.41
Mof_H 	H 	0.6531	0.4158	0.539	0.179
Mof_C 	C 	0.6179	0.427	0.5223	0.331
Mof_H 	H 	0.609	0.428	0.5391	-0.057
Mof_O 	O 	0.5682	0.4568	0.5209	-0.582
Mof_O 	O 	0.32316	0.02776	0.47118	-0.634
Mof_O 	O 	0.24767	0.92056	0.52383	-0.628
Mof_O 	O 	0.28932	0.9484	0.55217	-0.616
Mof_C 	C 	0.17014	0.64719	0.52502	0.085
Mof_C 	C 	0.17548	0.62115	0.53518	-0.108
Mof_H 	H 	0.1899	0.6109	0.528	0.07
Mof_C 	C 	0.15935	0.61043	0.55603	-0.022
Mof_H 	H 	0.1629	0.593	0.5628	0.041
Mof_C 	C 	0.13788	0.62574	0.56672	-0.005
Mof_C 	C 	0.13253	0.65178	0.55656	-0.022
Mof_H 	H 	0.1182	0.662	0.5637	0.04
Mof_C 	C 	0.14866	0.66251	0.53571	-0.107
Mof_H 	H 	0.1451	0.6799	0.5289	0.07
Mof_C 	C 	0.0904	0.59065	0.62514	0.118
Mof_C 	C 	0.07251	0.56987	0.61752	-0.166
Mof_H 	H 	0.0703	0.5654	0.5991	0.092
Mof_C 	C 	0.05789	0.55569	0.6374	0.095
Mof_H 	H 	0.0459	0.5418	0.6323	0.017
Mof_C 	C 	0.06115	0.56229	0.66489	-0.166
Mof_C 	C 	0.07904	0.58308	0.6725	0.1
Mof_H 	H 	0.0812	0.5875	0.6909	0.015
Mof_C 	C 	0.09366	0.59726	0.65263	-0.169
Mof_H 	H 	0.1056	0.6112	0.6577	0.093
Mof_C 	C 	0.1068	0.6053	0.6047	-0.063
Mof_C 	C 	0.2339	0.86533	0.52446	0.102
Mof_H 	H 	0.2362	0.8743	0.5411	0.014
Mof_C 	C 	0.12	0.6161	0.5892	0.014
Mof_C 	C 	0.2264	0.83786	0.52441	-0.178
Mof_H 	H 	0.2223	0.8291	0.5408	0.096
Mof_C 	C 	0.1938	0.70214	0.4765	-0.122
Mof_H 	H 	0.1917	0.6931	0.4599	0.074
Mof_C 	C 	0.2005	0.7298	0.4762	-0.007
Mof_H 	H 	0.2024	0.7388	0.4596	0.035
Mof_C 	C 	0.2564	0.632	0.4773	0.16
Mof_H 	H 	0.2659	0.6327	0.4608	-0.025
Mof_C 	C 	0.2299	0.6404	0.4775	-0.256
Mof_H 	H 	0.2215	0.6432	0.4606	0.119
Mof_C 	C 	0.3148	0.9557	0.5466	0.481
Mof_C 	C 	0.3556	0.583	0.5221	-0.41
Mof_H 	H 	0.3469	0.5842	0.539	0.179
Mof_C 	C 	0.3821	0.573	0.5223	0.331
Mof_H 	H 	0.391	0.572	0.5391	-0.057
Mof_O 	O 	0.4318	0.5432	0.5209	-0.582
Mof_O 	O 	0.32316	0.97224	0.52882	-0.634
Mof_O 	O 	0.24767	0.07944	0.47617	-0.628
Mof_O 	O 	0.28932	0.0516	0.44783	-0.616
Mof_C 	C 	0.17014	0.35281	0.47498	0.085
Mof_C 	C 	0.17548	0.37885	0.46482	-0.108
Mof_H 	H 	0.1899	0.3891	0.472	0.07
Mof_C 	C 	0.15935	0.38957	0.44397	-0.022
Mof_H 	H 	0.1629	0.407	0.4372	0.041
Mof_C 	C 	0.13788	0.37426	0.43328	-0.005
Mof_C 	C 	0.13253	0.34822	0.44344	-0.022
Mof_H 	H 	0.1182	0.338	0.4363	0.04
Mof_C 	C 	0.14866	0.33749	0.46429	-0.107
Mof_H 	H 	0.1451	0.3201	0.4711	0.07
Mof_C 	C 	0.0904	0.40935	0.37486	0.118
Mof_C 	C 	0.07251	0.43013	0.38248	-0.166
Mof_H 	H 	0.0703	0.4346	0.4009	0.092
Mof_C 	C 	0.05789	0.44431	0.3626	0.095
Mof_H 	H 	0.0459	0.4582	0.3677	0.017
Mof_C 	C 	0.06115	0.43771	0.33511	-0.166
Mof_C 	C 	0.07904	0.41692	0.3275	0.1
Mof_H 	H 	0.0812	0.4125	0.3091	0.015
Mof_C 	C 	0.09366	0.40274	0.34737	-0.169
Mof_H 	H 	0.1056	0.3888	0.3423	0.093
Mof_C 	C 	0.1068	0.3947	0.3953	-0.063
Mof_C 	C 	0.2339	0.13467	0.47554	0.102
Mof_H 	H 	0.2362	0.1257	0.4589	0.014
Mof_C 	C 	0.12	0.3839	0.4108	0.014
Mof_C 	C 	0.2264	0.16214	0.47559	-0.178
Mof_H 	H 	0.2223	0.1709	0.4592	0.096
Mof_C 	C 	0.1938	0.29786	0.5235	-0.122
Mof_H 	H 	0.1917	0.3069	0.5401	0.074
Mof_C 	C 	0.2005	0.2702	0.5238	-0.007
Mof_H 	H 	0.2024	0.2612	0.5404	0.035
Mof_C 	C 	0.2564	0.368	0.5227	0.16
Mof_H 	H 	0.2659	0.3673	0.5392	-0.025
Mof_C 	C 	0.2299	0.3596	0.5225	-0.256
Mof_H 	H 	0.2215	0.3568	0.5394	0.119
Mof_C 	C 	0.3148	0.0443	0.4534	0.481
Mof_C 	C 	0.3556	0.417	0.4779	-0.41
Mof_H 	H 	0.3469	0.4158	0.461	0.179
Mof_C 	C 	0.3821	0.427	0.4777	0.331
Mof_H 	H 	0.391	0.428	0.4609	-0.057
Mof_O 	O 	0.4318	0.4568	0.4791	-0.582
Mof_O 	O 	0.67684	0.02776	0.52882	-0.634
Mof_O 	O 	0.75233	0.92056	0.47617	-0.628
Mof_O 	O 	0.71068	0.9484	0.44783	-0.616
Mof_C 	C 	0.82986	0.64719	0.47498	0.085
Mof_C 	C 	0.82452	0.62115	0.46482	-0.108
Mof_H 	H 	0.8101	0.6109	0.472	0.07
Mof_C 	C 	0.84065	0.61043	0.44397	-0.022
Mof_H 	H 	0.8371	0.593	0.4372	0.041
Mof_C 	C 	0.86212	0.62574	0.43328	-0.005
Mof_C 	C 	0.86747	0.65178	0.44344	-0.022
Mof_H 	H 	0.8818	0.662	0.4363	0.04
Mof_C 	C 	0.85134	0.66251	0.46429	-0.107
Mof_H 	H 	0.8549	0.6799	0.4711	0.07
Mof_C 	C 	0.9096	0.59065	0.37486	0.118
Mof_C 	C 	0.92749	0.56987	0.38248	-0.166
Mof_H 	H 	0.9297	0.5654	0.4009	0.092
Mof_C 	C 	0.94211	0.55569	0.3626	0.095
Mof_H 	H 	0.9541	0.5418	0.3677	0.017
Mof_C 	C 	0.93885	0.56229	0.33511	-0.166
Mof_C 	C 	0.92096	0.58308	0.3275	0.1
Mof_H 	H 	0.9188	0.5875	0.3091	0.015
Mof_C 	C 	0.90634	0.59726	0.34737	-0.169
Mof_H 	H 	0.8944	0.6112	0.3423	0.093
Mof_C 	C 	0.8932	0.6053	0.3953	-0.063
Mof_C 	C 	0.7661	0.86533	0.47554	0.102
Mof_H 	H 	0.7638	0.8743	0.4589	0.014
Mof_C 	C 	0.88	0.6161	0.4108	0.014
Mof_C 	C 	0.7736	0.83786	0.47559	-0.178
Mof_H 	H 	0.7777	0.8291	0.4592	0.096
Mof_C 	C 	0.8062	0.70214	0.5235	-0.122
Mof_H 	H 	0.8083	0.6931	0.5401	0.074
Mof_C 	C 	0.7995	0.7298	0.5238	-0.007
Mof_H 	H 	0.7976	0.7388	0.5404	0.035
Mof_C 	C 	0.7436	0.632	0.5227	0.16
Mof_H 	H 	0.7341	0.6327	0.5392	-0.025
Mof_C 	C 	0.7701	0.6404	0.5225	-0.256
Mof_H 	H 	0.7785	0.6432	0.5394	0.119
Mof_C 	C 	0.6852	0.9557	0.4534	0.481
Mof_C 	C 	0.6444	0.583	0.4779	-0.41
Mof_H 	H 	0.6531	0.5842	0.461	0.179
Mof_C 	C 	0.6179	0.573	0.4777	0.331
Mof_H 	H 	0.609	0.572	0.4609	-0.057
Mof_O 	O 	0.5682	0.5432	0.4791	-0.582
Mof_O 	O 	0.47118	0.67684	0.97224	-0.634
Mof_O 	O 	0.52383	0.75233	0.07944	-0.628
Mof_O 	O 	0.55217	0.71068	0.0516	-0.616
Mof_C 	C 	0.52502	0.82986	0.35281	0.085
Mof_C 	C 	0.53518	0.82452	0.37885	-0.108
Mof_H 	H 	0.528	0.8101	0.3891	0.07
Mof_C 	C 	0.55603	0.84065	0.38957	-0.022
Mof_H 	H 	0.5628	0.8371	0.407	0.041
Mof_C 	C 	0.56672	0.86212	0.37426	-0.005
Mof_C 	C 	0.55656	0.86747	0.34822	-0.022
Mof_H 	H 	0.5637	0.8818	0.338	0.04
Mof_C 	C 	0.53571	0.85134	0.33749	-0.107
Mof_H 	H 	0.5289	0.8549	0.3201	0.07
Mof_C 	C 	0.62514	0.9096	0.40935	0.118
Mof_C 	C 	0.61752	0.92749	0.43013	-0.166
Mof_H 	H 	0.5991	0.9297	0.4346	0.092
Mof_C 	C 	0.6374	0.94211	0.44431	0.095
Mof_H 	H 	0.6323	0.9541	0.4582	0.017
Mof_C 	C 	0.66489	0.93885	0.43771	-0.166
Mof_C 	C 	0.6725	0.92096	0.41692	0.1
Mof_H 	H 	0.6909	0.9188	0.4125	0.015
Mof_C 	C 	0.65263	0.90634	0.40274	-0.169
Mof_H 	H 	0.6577	0.8944	0.3888	0.093
Mof_C 	C 	0.6047	0.8932	0.3947	-0.063
Mof_C 	C 	0.52446	0.7661	0.13467	0.102
Mof_H 	H 	0.5411	0.7638	0.1257	0.014
Mof_C 	C 	0.5892	0.88	0.3839	0.014
Mof_C 	C 	0.52441	0.7736	0.16214	-0.178
Mof_H 	H 	0.5408	0.7777	0.1709	0.096
Mof_C 	C 	0.4765	0.8062	0.29786	-0.122
Mof_H 	H 	0.4599	0.8083	0.3069	0.074
Mof_C 	C 	0.4762	0.7995	0.2702	-0.007
Mof_H 	H 	0.4596	0.7976	0.2612	0.035
Mof_C 	C 	0.4773	0.7436	0.368	0.16
Mof_H 	H 	0.4608	0.7341	0.3673	-0.025
Mof_C 	C 	0.4775	0.7701	0.3596	-0.256
Mof_H 	H 	0.4606	0.7785	0.3568	0.119
Mof_C 	C 	0.5466	0.6852	0.0443	0.481
Mof_C 	C 	0.5221	0.6444	0.417	-0.41
Mof_H 	H 	0.539	0.6531	0.4158	0.179
Mof_C 	C 	0.5223	0.6179	0.427	0.331
Mof_H 	H 	0.5391	0.609	0.428	-0.057
Mof_O 	O 	0.5209	0.5682	0.4568	-0.582
Mof_O 	O 	0.47118	0.32316	0.02776	-0.634
Mof_O 	O 	0.52383	0.24767	0.92056	-0.628
Mof_O 	O 	0.55217	0.28932	0.9484	-0.616
Mof_C 	C 	0.52502	0.17014	0.64719	0.085
Mof_C 	C 	0.53518	0.17548	0.62115	-0.108
Mof_H 	H 	0.528	0.1899	0.6109	0.07
Mof_C 	C 	0.55603	0.15935	0.61043	-0.022
Mof_H 	H 	0.5628	0.1629	0.593	0.041
Mof_C 	C 	0.56672	0.13788	0.62574	-0.005
Mof_C 	C 	0.55656	0.13253	0.65178	-0.022
Mof_H 	H 	0.5637	0.1182	0.662	0.04
Mof_C 	C 	0.53571	0.14866	0.66251	-0.107
Mof_H 	H 	0.5289	0.1451	0.6799	0.07
Mof_C 	C 	0.62514	0.0904	0.59065	0.118
Mof_C 	C 	0.61752	0.07251	0.56987	-0.166
Mof_H 	H 	0.5991	0.0703	0.5654	0.092
Mof_C 	C 	0.6374	0.05789	0.55569	0.095
Mof_H 	H 	0.6323	0.0459	0.5418	0.017
Mof_C 	C 	0.66489	0.06115	0.56229	-0.166
Mof_C 	C 	0.6725	0.07904	0.58308	0.1
Mof_H 	H 	0.6909	0.0812	0.5875	0.015
Mof_C 	C 	0.65263	0.09366	0.59726	-0.169
Mof_H 	H 	0.6577	0.1056	0.6112	0.093
Mof_C 	C 	0.6047	0.1068	0.6053	-0.063
Mof_C 	C 	0.52446	0.2339	0.86533	0.102
Mof_H 	H 	0.5411	0.2362	0.8743	0.014
Mof_C 	C 	0.5892	0.12	0.6161	0.014
Mof_C 	C 	0.52441	0.2264	0.83786	-0.178
Mof_H 	H 	0.5408	0.2223	0.8291	0.096
Mof_C 	C 	0.4765	0.1938	0.70214	-0.122
Mof_H 	H 	0.4599	0.1917	0.6931	0.074
Mof_C 	C 	0.4762	0.2005	0.7298	-0.007
Mof_H 	H 	0.4596	0.2024	0.7388	0.035
Mof_C 	C 	0.4773	0.2564	0.632	0.16
Mof_H 	H 	0.4608	0.2659	0.6327	-0.025
Mof_C 	C 	0.4775	0.2299	0.6404	-0.256
Mof_H 	H 	0.4606	0.2215	0.6432	0.119
Mof_C 	C 	0.5466	0.3148	0.9557	0.481
Mof_C 	C 	0.5221	0.3556	0.583	-0.41
Mof_H 	H 	0.539	0.3469	0.5842	0.179
Mof_C 	C 	0.5223	0.3821	0.573	0.331
Mof_H 	H 	0.5391	0.391	0.572	-0.057
Mof_O 	O 	0.5209	0.4318	0.5432	-0.582
Mof_O 	O 	0.52882	0.32316	0.97224	-0.634
Mof_O 	O 	0.47617	0.24767	0.07944	-0.628
Mof_O 	O 	0.44783	0.28932	0.0516	-0.616
Mof_C 	C 	0.47498	0.17014	0.35281	0.085
Mof_C 	C 	0.46482	0.17548	0.37885	-0.108
Mof_H 	H 	0.472	0.1899	0.3891	0.07
Mof_C 	C 	0.44397	0.15935	0.38957	-0.022
Mof_H 	H 	0.4372	0.1629	0.407	0.041
Mof_C 	C 	0.43328	0.13788	0.37426	-0.005
Mof_C 	C 	0.44344	0.13253	0.34822	-0.022
Mof_H 	H 	0.4363	0.1182	0.338	0.04
Mof_C 	C 	0.46429	0.14866	0.33749	-0.107
Mof_H 	H 	0.4711	0.1451	0.3201	0.07
Mof_C 	C 	0.37486	0.0904	0.40935	0.118
Mof_C 	C 	0.38248	0.07251	0.43013	-0.166
Mof_H 	H 	0.4009	0.0703	0.4346	0.092
Mof_C 	C 	0.3626	0.05789	0.44431	0.095
Mof_H 	H 	0.3677	0.0459	0.4582	0.017
Mof_C 	C 	0.33511	0.06115	0.43771	-0.166
Mof_C 	C 	0.3275	0.07904	0.41692	0.1
Mof_H 	H 	0.3091	0.0812	0.4125	0.015
Mof_C 	C 	0.34737	0.09366	0.40274	-0.169
Mof_H 	H 	0.3423	0.1056	0.3888	0.093
Mof_C 	C 	0.3953	0.1068	0.3947	-0.063
Mof_C 	C 	0.47554	0.2339	0.13467	0.102
Mof_H 	H 	0.4589	0.2362	0.1257	0.014
Mof_C 	C 	0.4108	0.12	0.3839	0.014
Mof_C 	C 	0.47559	0.2264	0.16214	-0.178
Mof_H 	H 	0.4592	0.2223	0.1709	0.096
Mof_C 	C 	0.5235	0.1938	0.29786	-0.122
Mof_H 	H 	0.5401	0.1917	0.3069	0.074
Mof_C 	C 	0.5238	0.2005	0.2702	-0.007
Mof_H 	H 	0.5404	0.2024	0.2612	0.035
Mof_C 	C 	0.5227	0.2564	0.368	0.16
Mof_H 	H 	0.5392	0.2659	0.3673	-0.025
Mof_C 	C 	0.5225	0.2299	0.3596	-0.256
Mof_H 	H 	0.5394	0.2215	0.3568	0.119
Mof_C 	C 	0.4534	0.3148	0.0443	0.481
Mof_C 	C 	0.4779	0.3556	0.417	-0.41
Mof_H 	H 	0.461	0.3469	0.4158	0.179
Mof_C 	C 	0.4777	0.3821	0.427	0.331
Mof_H 	H 	0.4609	0.391	0.428	-0.057
Mof_O 	O 	0.4791	0.4318	0.4568	-0.582
Mof_O 	O 	0.52882	0.67684	0.02776	-0.634
Mof_O 	O 	0.47617	0.75233	0.92056	-0.628
Mof_O 	O 	0.44783	0.71068	0.9484	-0.616
Mof_C 	C 	0.47498	0.82986	0.64719	0.085
Mof_C 	C 	0.46482	0.82452	0.62115	-0.108
Mof_H 	H 	0.472	0.8101	0.6109	0.07
Mof_C 	C 	0.44397	0.84065	0.61043	-0.022
Mof_H 	H 	0.4372	0.8371	0.593	0.041
Mof_C 	C 	0.43328	0.86212	0.62574	-0.005
Mof_C 	C 	0.44344	0.86747	0.65178	-0.022
Mof_H 	H 	0.4363	0.8818	0.662	0.04
Mof_C 	C 	0.46429	0.85134	0.66251	-0.107
Mof_H 	H 	0.4711	0.8549	0.6799	0.07
Mof_C 	C 	0.37486	0.9096	0.59065	0.118
Mof_C 	C 	0.38248	0.92749	0.56987	-0.166
Mof_H 	H 	0.4009	0.9297	0.5654	0.092
Mof_C 	C 	0.3626	0.94211	0.55569	0.095
Mof_H 	H 	0.3677	0.9541	0.5418	0.017
Mof_C 	C 	0.33511	0.93885	0.56229	-0.166
Mof_C 	C 	0.3275	0.92096	0.58308	0.1
Mof_H 	H 	0.3091	0.9188	0.5875	0.015
Mof_C 	C 	0.34737	0.90634	0.59726	-0.169
Mof_H 	H 	0.3423	0.8944	0.6112	0.093
Mof_C 	C 	0.3953	0.8932	0.6053	-0.063
Mof_C 	C 	0.47554	0.7661	0.86533	0.102
Mof_H 	H 	0.4589	0.7638	0.8743	0.014
Mof_C 	C 	0.4108	0.88	0.6161	0.014
Mof_C 	C 	0.47559	0.7736	0.83786	-0.178
Mof_H 	H 	0.4592	0.7777	0.8291	0.096
Mof_C 	C 	0.5235	0.8062	0.70214	-0.122
Mof_H 	H 	0.5401	0.8083	0.6931	0.074
Mof_C 	C 	0.5238	0.7995	0.7298	-0.007
Mof_H 	H 	0.5404	0.7976	0.7388	0.035
Mof_C 	C 	0.5227	0.7436	0.632	0.16
Mof_H 	H 	0.5392	0.7341	0.6327	-0.025
Mof_C 	C 	0.5225	0.7701	0.6404	-0.256
Mof_H 	H 	0.5394	0.7785	0.6432	0.119
Mof_C 	C 	0.4534	0.6852	0.9557	0.481
Mof_C 	C 	0.4779	0.6444	0.583	-0.41
Mof_H 	H 	0.461	0.6531	0.5842	0.179
Mof_C 	C 	0.4777	0.6179	0.573	0.331
Mof_H 	H 	0.4609	0.609	0.572	-0.057
Mof_O 	O 	0.4791	0.5682	0.5432	-0.582
Mof_O 	O 	0.97224	0.47118	0.67684	-0.634
Mof_O 	O 	0.07944	0.52383	0.75233	-0.628
Mof_O 	O 	0.0516	0.55217	0.71068	-0.616
Mof_C 	C 	0.35281	0.52502	0.82986	0.085
Mof_C 	C 	0.37885	0.53518	0.82452	-0.108
Mof_H 	H 	0.3891	0.528	0.8101	0.07
Mof_C 	C 	0.38957	0.55603	0.84065	-0.022
Mof_H 	H 	0.407	0.5628	0.8371	0.041
Mof_C 	C 	0.37426	0.56672	0.86212	-0.005
Mof_C 	C 	0.34822	0.55656	0.86747	-0.022
Mof_H 	H 	0.338	0.5637	0.8818	0.04
Mof_C 	C 	0.33749	0.53571	0.85134	-0.107
Mof_H 	H 	0.3201	0.5289	0.8549	0.07
Mof_C 	C 	0.40935	0.62514	0.9096	0.118
Mof_C 	C 	0.43013	0.61752	0.92749	-0.166
Mof_H 	H 	0.4346	0.5991	0.9297	0.092
Mof_C 	C 	0.44431	0.6374	0.94211	0.095
Mof_H 	H 	0.4582	0.6323	0.9541	0.017
Mof_C 	C 	0.43771	0.66489	0.93885	-0.166
Mof_C 	C 	0.41692	0.6725	0.92096	0.1
Mof_H 	H 	0.4125	0.6909	0.9188	0.015
Mof_C 	C 	0.40274	0.65263	0.90634	-0.169
Mof_H 	H 	0.3888	0.6577	0.8944	0.093
Mof_C 	C 	0.3947	0.6047	0.8932	-0.063
Mof_C 	C 	0.13467	0.52446	0.7661	0.102
Mof_H 	H 	0.1257	0.5411	0.7638	0.014
Mof_C 	C 	0.3839	0.5892	0.88	0.014
Mof_C 	C 	0.16214	0.52441	0.7736	-0.178
Mof_H 	H 	0.1709	0.5408	0.7777	0.096
Mof_C 	C 	0.29786	0.4765	0.8062	-0.122
Mof_H 	H 	0.3069	0.4599	0.8083	0.074
Mof_C 	C 	0.2702	0.4762	0.7995	-0.007
Mof_H 	H 	0.2612	0.4596	0.7976	0.035
Mof_C 	C 	0.368	0.4773	0.7436	0.16
Mof_H 	H 	0.3673	0.4608	0.7341	-0.025
Mof_C 	C 	0.3596	0.4775	0.7701	-0.256
Mof_H 	H 	0.3568	0.4606	0.7785	0.119
Mof_C 	C 	0.0443	0.5466	0.6852	0.481
Mof_C 	C 	0.417	0.5221	0.6444	-0.41
Mof_H 	H 	0.4158	0.539	0.6531	0.179
Mof_C 	C 	0.427	0.5223	0.6179	0.331
Mof_H 	H 	0.428	0.5391	0.609	-0.057
Mof_O 	O 	0.4568	0.5209	0.5682	-0.582
Mof_O 	O 	0.02776	0.47118	0.32316	-0.634
Mof_O 	O 	0.92056	0.52383	0.24767	-0.628
Mof_O 	O 	0.9484	0.55217	0.28932	-0.616
Mof_C 	C 	0.64719	0.52502	0.17014	0.085
Mof_C 	C 	0.62115	0.53518	0.17548	-0.108
Mof_H 	H 	0.6109	0.528	0.1899	0.07
Mof_C 	C 	0.61043	0.55603	0.15935	-0.022
Mof_H 	H 	0.593	0.5628	0.1629	0.041
Mof_C 	C 	0.62574	0.56672	0.13788	-0.005
Mof_C 	C 	0.65178	0.55656	0.13253	-0.022
Mof_H 	H 	0.662	0.5637	0.1182	0.04
Mof_C 	C 	0.66251	0.53571	0.14866	-0.107
Mof_H 	H 	0.6799	0.5289	0.1451	0.07
Mof_C 	C 	0.59065	0.62514	0.0904	0.118
Mof_C 	C 	0.56987	0.61752	0.07251	-0.166
Mof_H 	H 	0.5654	0.5991	0.0703	0.092
Mof_C 	C 	0.55569	0.6374	0.05789	0.095
Mof_H 	H 	0.5418	0.6323	0.0459	0.017
Mof_C 	C 	0.56229	0.66489	0.06115	-0.166
Mof_C 	C 	0.58308	0.6725	0.07904	0.1
Mof_H 	H 	0.5875	0.6909	0.0812	0.015
Mof_C 	C 	0.59726	0.65263	0.09366	-0.169
Mof_H 	H 	0.6112	0.6577	0.1056	0.093
Mof_C 	C 	0.6053	0.6047	0.1068	-0.063
Mof_C 	C 	0.86533	0.52446	0.2339	0.102
Mof_H 	H 	0.8743	0.5411	0.2362	0.014
Mof_C 	C 	0.6161	0.5892	0.12	0.014
Mof_C 	C 	0.83786	0.52441	0.2264	-0.178
Mof_H 	H 	0.8291	0.5408	0.2223	0.096
Mof_C 	C 	0.70214	0.4765	0.1938	-0.122
Mof_H 	H 	0.6931	0.4599	0.1917	0.074
Mof_C 	C 	0.7298	0.4762	0.2005	-0.007
Mof_H 	H 	0.7388	0.4596	0.2024	0.035
Mof_C 	C 	0.632	0.4773	0.2564	0.16
Mof_H 	H 	0.6327	0.4608	0.2659	-0.025
Mof_C 	C 	0.6404	0.4775	0.2299	-0.256
Mof_H 	H 	0.6432	0.4606	0.2215	0.119
Mof_C 	C 	0.9557	0.5466	0.3148	0.481
Mof_C 	C 	0.583	0.5221	0.3556	-0.41
Mof_H 	H 	0.5842	0.539	0.3469	0.179
Mof_C 	C 	0.573	0.5223	0.3821	0.331
Mof_H 	H 	0.572	0.5391	0.391	-0.057
Mof_O 	O 	0.5432	0.5209	0.4318	-0.582
Mof_O 	O 	0.97224	0.52882	0.32316	-0.634
Mof_O 	O 	0.07944	0.47617	0.24767	-0.628
Mof_O 	O 	0.0516	0.44783	0.28932	-0.616
Mof_C 	C 	0.35281	0.47498	0.17014	0.085
Mof_C 	C 	0.37885	0.46482	0.17548	-0.108
Mof_H 	H 	0.3891	0.472	0.1899	0.07
Mof_C 	C 	0.38957	0.44397	0.15935	-0.022
Mof_H 	H 	0.407	0.4372	0.1629	0.041
Mof_C 	C 	0.37426	0.43328	0.13788	-0.005
Mof_C 	C 	0.34822	0.44344	0.13253	-0.022
Mof_H 	H 	0.338	0.4363	0.1182	0.04
Mof_C 	C 	0.33749	0.46429	0.14866	-0.107
Mof_H 	H 	0.3201	0.4711	0.1451	0.07
Mof_C 	C 	0.40935	0.37486	0.0904	0.118
Mof_C 	C 	0.43013	0.38248	0.07251	-0.166
Mof_H 	H 	0.4346	0.4009	0.0703	0.092
Mof_C 	C 	0.44431	0.3626	0.05789	0.095
Mof_H 	H 	0.4582	0.3677	0.0459	0.017
Mof_C 	C 	0.43771	0.33511	0.06115	-0.166
Mof_C 	C 	0.41692	0.3275	0.07904	0.1
Mof_H 	H 	0.4125	0.3091	0.0812	0.015
Mof_C 	C 	0.40274	0.34737	0.09366	-0.169
Mof_H 	H 	0.3888	0.3423	0.1056	0.093
Mof_C 	C 	0.3947	0.3953	0.1068	-0.063
Mof_C 	C 	0.13467	0.47554	0.2339	0.102
Mof_H 	H 	0.1257	0.4589	0.2362	0.014
Mof_C 	C 	0.3839	0.4108	0.12	0.014
Mof_C 	C 	0.16214	0.47559	0.2264	-0.178
Mof_H 	H 	0.1709	0.4592	0.2223	0.096
Mof_C 	C 	0.29786	0.5235	0.1938	-0.122
Mof_H 	H 	0.3069	0.5401	0.1917	0.074
Mof_C 	C 	0.2702	0.5238	0.2005	-0.007
Mof_H 	H 	0.2612	0.5404	0.2024	0.035
Mof_C 	C 	0.368	0.5227	0.2564	0.16
Mof_H 	H 	0.3673	0.5392	0.2659	-0.025
Mof_C 	C 	0.3596	0.5225	0.2299	-0.256
Mof_H 	H 	0.3568	0.5394	0.2215	0.119
Mof_C 	C 	0.0443	0.4534	0.3148	0.481
Mof_C 	C 	0.417	0.4779	0.3556	-0.41
Mof_H 	H 	0.4158	0.461	0.3469	0.179
Mof_C 	C 	0.427	0.4777	0.3821	0.331
Mof_H 	H 	0.428	0.4609	0.391	-0.057
Mof_O 	O 	0.4568	0.4791	0.4318	-0.582
Mof_O 	O 	0.02776	0.52882	0.67684	-0.634
Mof_O 	O 	0.92056	0.47617	0.75233	-0.628
Mof_O 	O 	0.9484	0.44783	0.71068	-0.616
Mof_C 	C 	0.64719	0.47498	0.82986	0.085
Mof_C 	C 	0.62115	0.46482	0.82452	-0.108
Mof_H 	H 	0.6109	0.472	0.8101	0.07
Mof_C 	C 	0.61043	0.44397	0.84065	-0.022
Mof_H 	H 	0.593	0.4372	0.8371	0.041
Mof_C 	C 	0.62574	0.43328	0.86212	-0.005
Mof_C 	C 	0.65178	0.44344	0.86747	-0.022
Mof_H 	H 	0.662	0.4363	0.8818	0.04
Mof_C 	C 	0.66251	0.46429	0.85134	-0.107
Mof_H 	H 	0.6799	0.4711	0.8549	0.07
Mof_C 	C 	0.59065	0.37486	0.9096	0.118
Mof_C 	C 	0.56987	0.38248	0.92749	-0.166
Mof_H 	H 	0.5654	0.4009	0.9297	0.092
Mof_C 	C 	0.55569	0.3626	0.94211	0.095
Mof_H 	H 	0.5418	0.3677	0.9541	0.017
Mof_C 	C 	0.56229	0.33511	0.93885	-0.166
Mof_C 	C 	0.58308	0.3275	0.92096	0.1
Mof_H 	H 	0.5875	0.3091	0.9188	0.015
Mof_C 	C 	0.59726	0.34737	0.90634	-0.169
Mof_H 	H 	0.6112	0.3423	0.8944	0.093
Mof_C 	C 	0.6053	0.3953	0.8932	-0.063
Mof_C 	C 	0.86533	0.47554	0.7661	0.102
Mof_H 	H 	0.8743	0.4589	0.7638	0.014
Mof_C 	C 	0.6161	0.4108	0.88	0.014
Mof_C 	C 	0.83786	0.47559	0.7736	-0.178
Mof_H 	H 	0.8291	0.4592	0.7777	0.096
Mof_C 	C 	0.70214	0.5235	0.8062	-0.122
Mof_H 	H 	0.6931	0.5401	0.8083	0.074
Mof_C 	C 	0.7298	0.5238	0.7995	-0.007
Mof_H 	H 	0.7388	0.5404	0.7976	0.035
Mof_C 	C 	0.632	0.5227	0.7436	0.16
Mof_H 	H 	0.6327	0.5392	0.7341	-0.025
Mof_C 	C 	0.6404	0.5225	0.7701	-0.256
Mof_H 	H 	0.6432	0.5394	0.7785	0.119
Mof_C 	C 	0.9557	0.4534	0.6852	0.481
Mof_C 	C 	0.583	0.4779	0.6444	-0.41
Mof_H 	H 	0.5842	0.461	0.6531	0.179
Mof_C 	C 	0.573	0.4777	0.6179	0.331
Mof_H 	H 	0.572	0.4609	0.609	-0.057
Mof_O 	O 	0.5432	0.4791	0.5682	-0.582
Mof_O 	O 	0.47224	0.17684	0.02882	-0.634
Mof_O 	O 	0.57944	0.25233	0.97617	-0.628
Mof_O 	O 	0.5516	0.21068	0.94783	-0.616
Mof_C 	C 	0.85281	0.32986	0.97498	0.085
Mof_C 	C 	0.87885	0.32452	0.96482	-0.108
Mof_H 	H 	0.8891	0.3101	0.972	0.07
Mof_C 	C 	0.88957	0.34065	0.94397	-0.022
Mof_H 	H 	0.907	0.3371	0.9372	0.041
Mof_C 	C 	0.87426	0.36212	0.93328	-0.005
Mof_C 	C 	0.84822	0.36747	0.94344	-0.022
Mof_H 	H 	0.838	0.3818	0.9363	0.04
Mof_C 	C 	0.83749	0.35134	0.96429	-0.107
Mof_H 	H 	0.8201	0.3549	0.9711	0.07
Mof_C 	C 	0.90935	0.4096	0.87486	0.118
Mof_C 	C 	0.93013	0.42749	0.88248	-0.166
Mof_H 	H 	0.9346	0.4297	0.9009	0.092
Mof_C 	C 	0.94431	0.44211	0.8626	0.095
Mof_H 	H 	0.9582	0.4541	0.8677	0.017
Mof_C 	C 	0.93771	0.43885	0.83511	-0.166
Mof_C 	C 	0.91692	0.42096	0.8275	0.1
Mof_H 	H 	0.9125	0.4188	0.8091	0.015
Mof_C 	C 	0.90274	0.40634	0.84737	-0.169
Mof_H 	H 	0.8888	0.3944	0.8423	0.093
Mof_C 	C 	0.8947	0.3932	0.8953	-0.063
Mof_C 	C 	0.63467	0.2661	0.97554	0.102
Mof_H 	H 	0.6257	0.2638	0.9589	0.014
Mof_C 	C 	0.8839	0.38	0.9108	0.014
Mof_C 	C 	0.66214	0.2736	0.97559	-0.178
Mof_H 	H 	0.6709	0.2777	0.9592	0.096
Mof_C 	C 	0.79786	0.3062	0.0235	-0.122
Mof_H 	H 	0.8069	0.3083	0.0401	0.074
Mof_C 	C 	0.7702	0.2995	0.0238	-0.007
Mof_H 	H 	0.7612	0.2976	0.0404	0.035
Mof_C 	C 	0.868	0.2436	0.0227	0.16
Mof_H 	H 	0.8673	0.2341	0.0392	-0.025
Mof_C 	C 	0.8596	0.2701	0.0225	-0.256
Mof_H 	H 	0.8568	0.2785	0.0394	0.119
Mof_C 	C 	0.5443	0.1852	0.9534	0.481
Mof_C 	C 	0.917	0.1444	0.9779	-0.41
Mof_H 	H 	0.9158	0.1531	0.961	0.179
Mof_C 	C 	0.927	0.1179	0.9777	0.331
Mof_H 	H 	0.928	0.109	0.9609	-0.057
Mof_O 	O 	0.9568	0.0682	0.9791	-0.582
Mof_O 	O 	0.52776	0.82316	0.02882	-0.634
Mof_O 	O 	0.42056	0.74767	0.97617	-0.628
Mof_O 	O 	0.4484	0.78932	0.94783	-0.616
Mof_C 	C 	0.14719	0.67014	0.97498	0.085
Mof_C 	C 	0.12115	0.67548	0.96482	-0.108
Mof_H 	H 	0.1109	0.6899	0.972	0.07
Mof_C 	C 	0.11043	0.65935	0.94397	-0.022
Mof_H 	H 	0.093	0.6629	0.9372	0.041
Mof_C 	C 	0.12574	0.63788	0.93328	-0.005
Mof_C 	C 	0.15178	0.63253	0.94344	-0.022
Mof_H 	H 	0.162	0.6182	0.9363	0.04
Mof_C 	C 	0.16251	0.64866	0.96429	-0.107
Mof_H 	H 	0.1799	0.6451	0.9711	0.07
Mof_C 	C 	0.09065	0.5904	0.87486	0.118
Mof_C 	C 	0.06987	0.57251	0.88248	-0.166
Mof_H 	H 	0.0654	0.5703	0.9009	0.092
Mof_C 	C 	0.05569	0.55789	0.8626	0.095
Mof_H 	H 	0.0418	0.5459	0.8677	0.017
Mof_C 	C 	0.06229	0.56115	0.83511	-0.166
Mof_C 	C 	0.08308	0.57904	0.8275	0.1
Mof_H 	H 	0.0875	0.5812	0.8091	0.015
Mof_C 	C 	0.09726	0.59366	0.84737	-0.169
Mof_H 	H 	0.1112	0.6056	0.8423	0.093
Mof_C 	C 	0.1053	0.6068	0.8953	-0.063
Mof_C 	C 	0.36533	0.7339	0.97554	0.102
Mof_H 	H 	0.3743	0.7362	0.9589	0.014
Mof_C 	C 	0.1161	0.62	0.9108	0.014
Mof_C 	C 	0.33786	0.7264	0.97559	-0.178
Mof_H 	H 	0.3291	0.7223	0.9592	0.096
Mof_C 	C 	0.20214	0.6938	0.0235	-0.122
Mof_H 	H 	0.1931	0.6917	0.0401	0.074
Mof_C 	C 	0.2298	0.7005	0.0238	-0.007
Mof_H 	H 	0.2388	0.7024	0.0404	0.035
Mof_C 	C 	0.132	0.7564	0.0227	0.16
Mof_H 	H 	0.1327	0.7659	0.0392	-0.025
Mof_C 	C 	0.1404	0.7299	0.0225	-0.256
Mof_H 	H 	0.1432	0.7215	0.0394	0.119
Mof_C 	C 	0.4557	0.8148	0.9534	0.481
Mof_C 	C 	0.083	0.8556	0.9779	-0.41
Mof_H 	H 	0.0842	0.8469	0.961	0.179
Mof_C 	C 	0.073	0.8821	0.9777	0.331
Mof_H 	H 	0.072	0.891	0.9609	-0.057
Mof_O 	O 	0.0432	0.9318	0.9791	-0.582
Mof_O 	O 	0.47224	0.82316	0.97118	-0.634
Mof_O 	O 	0.57944	0.74767	0.02383	-0.628
Mof_O 	O 	0.5516	0.78932	0.05217	-0.616
Mof_C 	C 	0.85281	0.67014	0.02502	0.085
Mof_C 	C 	0.87885	0.67548	0.03518	-0.108
Mof_H 	H 	0.8891	0.6899	0.028	0.07
Mof_C 	C 	0.88957	0.65935	0.05603	-0.022
Mof_H 	H 	0.907	0.6629	0.0628	0.041
Mof_C 	C 	0.87426	0.63788	0.06672	-0.005
Mof_C 	C 	0.84822	0.63253	0.05656	-0.022
Mof_H 	H 	0.838	0.6182	0.0637	0.04
Mof_C 	C 	0.83749	0.64866	0.03571	-0.107
Mof_H 	H 	0.8201	0.6451	0.0289	0.07
Mof_C 	C 	0.90935	0.5904	0.12514	0.118
Mof_C 	C 	0.93013	0.57251	0.11752	-0.166
Mof_H 	H 	0.9346	0.5703	0.0991	0.092
Mof_C 	C 	0.94431	0.55789	0.1374	0.095
Mof_H 	H 	0.9582	0.5459	0.1323	0.017
Mof_C 	C 	0.93771	0.56115	0.16489	-0.166
Mof_C 	C 	0.91692	0.57904	0.1725	0.1
Mof_H 	H 	0.9125	0.5812	0.1909	0.015
Mof_C 	C 	0.90274	0.59366	0.15263	-0.169
Mof_H 	H 	0.8888	0.6056	0.1577	0.093
Mof_C 	C 	0.8947	0.6068	0.1047	-0.063
Mof_C 	C 	0.63467	0.7339	0.02446	0.103
Mof_H 	H 	0.6257	0.7362	0.0411	0.014
Mof_C 	C 	0.8839	0.62	0.0892	0.014
Mof_C 	C 	0.66214	0.7264	0.02441	-0.178
Mof_H 	H 	0.6709	0.7223	0.0408	0.096
Mof_C 	C 	0.79786	0.6938	0.9765	-0.122
Mof_H 	H 	0.8069	0.6917	0.9599	0.074
Mof_C 	C 	0.7702	0.7005	0.9762	-0.007
Mof_H 	H 	0.7612	0.7024	0.9596	0.035
Mof_C 	C 	0.868	0.7564	0.9773	0.16
Mof_H 	H 	0.8673	0.7659	0.9608	-0.025
Mof_C 	C 	0.8596	0.7299	0.9775	-0.256
Mof_H 	H 	0.8568	0.7215	0.9606	0.119
Mof_C 	C 	0.5443	0.8148	0.0466	0.481
Mof_C 	C 	0.917	0.8556	0.0221	-0.41
Mof_H 	H 	0.9158	0.8469	0.039	0.179
Mof_C 	C 	0.927	0.8821	0.0223	0.331
Mof_H 	H 	0.928	0.891	0.0391	-0.057
Mof_O 	O 	0.9568	0.9318	0.0209	-0.582
Mof_O 	O 	0.52776	0.17684	0.97118	-0.634
Mof_O 	O 	0.42056	0.25233	0.02383	-0.628
Mof_O 	O 	0.4484	0.21068	0.05217	-0.616
Mof_C 	C 	0.14719	0.32986	0.02502	0.085
Mof_C 	C 	0.12115	0.32452	0.03518	-0.108
Mof_H 	H 	0.1109	0.3101	0.028	0.07
Mof_C 	C 	0.11043	0.34065	0.05603	-0.022
Mof_H 	H 	0.093	0.3371	0.0628	0.041
Mof_C 	C 	0.12574	0.36212	0.06672	-0.005
Mof_C 	C 	0.15178	0.36747	0.05656	-0.022
Mof_H 	H 	0.162	0.3818	0.0637	0.04
Mof_C 	C 	0.16251	0.35134	0.03571	-0.107
Mof_H 	H 	0.1799	0.3549	0.0289	0.07
Mof_C 	C 	0.09065	0.4096	0.12514	0.118
Mof_C 	C 	0.06987	0.42749	0.11752	-0.166
Mof_H 	H 	0.0654	0.4297	0.0991	0.092
Mof_C 	C 	0.05569	0.44211	0.1374	0.095
Mof_H 	H 	0.0418	0.4541	0.1323	0.017
Mof_C 	C 	0.06229	0.43885	0.16489	-0.166
Mof_C 	C 	0.08308	0.42096	0.1725	0.1
Mof_H 	H 	0.0875	0.4188	0.1909	0.015
Mof_C 	C 	0.09726	0.40634	0.15263	-0.169
Mof_H 	H 	0.1112	0.3944	0.1577	0.093
Mof_C 	C 	0.1053	0.3932	0.1047	-0.063
Mof_C 	C 	0.36533	0.2661	0.02446	0.103
Mof_H 	H 	0.3743	0.2638	0.0411	0.014
Mof_C 	C 	0.1161	0.38	0.0892	0.014
Mof_C 	C 	0.33786	0.2736	0.02441	-0.178
Mof_H 	H 	0.3291	0.2777	0.0408	0.096
Mof_C 	C 	0.20214	0.3062	0.9765	-0.122
Mof_H 	H 	0.1931	0.3083	0.9599	0.074
Mof_C 	C 	0.2298	0.2995	0.9762	-0.007
Mof_H 	H 	0.2388	0.2976	0.9596	0.035
Mof_C 	C 	0.132	0.2436	0.9773	0.16
Mof_H 	H 	0.1327	0.2341	0.9608	-0.025
Mof_C 	C 	0.1404	0.2701	0.9775	-0.256
Mof_H 	H 	0.1432	0.2785	0.9606	0.119
Mof_C 	C 	0.4557	0.1852	0.0466	0.481
Mof_C 	C 	0.083	0.1444	0.0221	-0.41
Mof_H 	H 	0.0842	0.1531	0.039	0.179
Mof_C 	C 	0.073	0.1179	0.0223	0.331
Mof_H 	H 	0.072	0.109	0.0391	-0.057
Mof_O 	O 	0.0432	0.0682	0.0209	-0.582
Mof_O 	O 	0.17684	0.97118	0.52776	-0.634
Mof_O 	O 	0.25233	0.02383	0.42056	-0.628
Mof_O 	O 	0.21068	0.05217	0.4484	-0.616
Mof_C 	C 	0.32986	0.02502	0.14719	0.085
Mof_C 	C 	0.32452	0.03518	0.12115	-0.108
Mof_H 	H 	0.3101	0.028	0.1109	0.07
Mof_C 	C 	0.34065	0.05603	0.11043	-0.022
Mof_H 	H 	0.3371	0.0628	0.093	0.041
Mof_C 	C 	0.36212	0.06672	0.12574	-0.005
Mof_C 	C 	0.36747	0.05656	0.15178	-0.022
Mof_H 	H 	0.3818	0.0637	0.162	0.04
Mof_C 	C 	0.35134	0.03571	0.16251	-0.107
Mof_H 	H 	0.3549	0.0289	0.1799	0.07
Mof_C 	C 	0.4096	0.12514	0.09065	0.118
Mof_C 	C 	0.42749	0.11752	0.06987	-0.166
Mof_H 	H 	0.4297	0.0991	0.0654	0.092
Mof_C 	C 	0.44211	0.1374	0.05569	0.095
Mof_H 	H 	0.4541	0.1323	0.0418	0.017
Mof_C 	C 	0.43885	0.16489	0.06229	-0.166
Mof_C 	C 	0.42096	0.1725	0.08308	0.1
Mof_H 	H 	0.4188	0.1909	0.0875	0.015
Mof_C 	C 	0.40634	0.15263	0.09726	-0.169
Mof_H 	H 	0.3944	0.1577	0.1112	0.093
Mof_C 	C 	0.3932	0.1047	0.1053	-0.063
Mof_C 	C 	0.2661	0.02446	0.36533	0.103
Mof_H 	H 	0.2638	0.0411	0.3743	0.014
Mof_C 	C 	0.38	0.0892	0.1161	0.014
Mof_C 	C 	0.2736	0.02441	0.33786	-0.178
Mof_H 	H 	0.2777	0.0408	0.3291	0.096
Mof_C 	C 	0.3062	0.9765	0.20214	-0.122
Mof_H 	H 	0.3083	0.9599	0.1931	0.074
Mof_C 	C 	0.2995	0.9762	0.2298	-0.007
Mof_H 	H 	0.2976	0.9596	0.2388	0.035
Mof_C 	C 	0.2436	0.9773	0.132	0.16
Mof_H 	H 	0.2341	0.9608	0.1327	-0.025
Mof_C 	C 	0.2701	0.9775	0.1404	-0.256
Mof_H 	H 	0.2785	0.9606	0.1432	0.119
Mof_C 	C 	0.1852	0.0466	0.4557	0.481
Mof_C 	C 	0.1444	0.0221	0.083	-0.41
Mof_H 	H 	0.1531	0.039	0.0842	0.179
Mof_C 	C 	0.1179	0.0223	0.073	0.331
Mof_H 	H 	0.109	0.0391	0.072	-0.057
Mof_O 	O 	0.0682	0.0209	0.0432	-0.582
Mof_O 	O 	0.82316	0.97118	0.47224	-0.634
Mof_O 	O 	0.74767	0.02383	0.57944	-0.628
Mof_O 	O 	0.78932	0.05217	0.5516	-0.616
Mof_C 	C 	0.67014	0.02502	0.85281	0.085
Mof_C 	C 	0.67548	0.03518	0.87885	-0.108
Mof_H 	H 	0.6899	0.028	0.8891	0.07
Mof_C 	C 	0.65935	0.05603	0.88957	-0.022
Mof_H 	H 	0.6629	0.0628	0.907	0.041
Mof_C 	C 	0.63788	0.06672	0.87426	-0.005
Mof_C 	C 	0.63253	0.05656	0.84822	-0.022
Mof_H 	H 	0.6182	0.0637	0.838	0.04
Mof_C 	C 	0.64866	0.03571	0.83749	-0.107
Mof_H 	H 	0.6451	0.0289	0.8201	0.07
Mof_C 	C 	0.5904	0.12514	0.90935	0.118
Mof_C 	C 	0.57251	0.11752	0.93013	-0.166
Mof_H 	H 	0.5703	0.0991	0.9346	0.092
Mof_C 	C 	0.55789	0.1374	0.94431	0.095
Mof_H 	H 	0.5459	0.1323	0.9582	0.017
Mof_C 	C 	0.56115	0.16489	0.93771	-0.166
Mof_C 	C 	0.57904	0.1725	0.91692	0.1
Mof_H 	H 	0.5812	0.1909	0.9125	0.015
Mof_C 	C 	0.59366	0.15263	0.90274	-0.169
Mof_H 	H 	0.6056	0.1577	0.8888	0.093
Mof_C 	C 	0.6068	0.1047	0.8947	-0.063
Mof_C 	C 	0.7339	0.02446	0.63467	0.103
Mof_H 	H 	0.7362	0.0411	0.6257	0.014
Mof_C 	C 	0.62	0.0892	0.8839	0.014
Mof_C 	C 	0.7264	0.02441	0.66214	-0.178
Mof_H 	H 	0.7223	0.0408	0.6709	0.096
Mof_C 	C 	0.6938	0.9765	0.79786	-0.122
Mof_H 	H 	0.6917	0.9599	0.8069	0.074
Mof_C 	C 	0.7005	0.9762	0.7702	-0.007
Mof_H 	H 	0.7024	0.9596	0.7612	0.035
Mof_C 	C 	0.7564	0.9773	0.868	0.16
Mof_H 	H 	0.7659	0.9608	0.8673	-0.025
Mof_C 	C 	0.7299	0.9775	0.8596	-0.256
Mof_H 	H 	0.7215	0.9606	0.8568	0.119
Mof_C 	C 	0.8148	0.0466	0.5443	0.481
Mof_C 	C 	0.8556	0.0221	0.917	-0.41
Mof_H 	H 	0.8469	0.039	0.9158	0.179
Mof_C 	C 	0.8821	0.0223	0.927	0.331
Mof_H 	H 	0.891	0.0391	0.928	-0.057
Mof_O 	O 	0.9318	0.0209	0.9568	-0.582
Mof_O 	O 	0.82316	0.02882	0.52776	-0.634
Mof_O 	O 	0.74767	0.97617	0.42056	-0.628
Mof_O 	O 	0.78932	0.94783	0.4484	-0.616
Mof_C 	C 	0.67014	0.97498	0.14719	0.085
Mof_C 	C 	0.67548	0.96482	0.12115	-0.108
Mof_H 	H 	0.6899	0.972	0.1109	0.07
Mof_C 	C 	0.65935	0.94397	0.11043	-0.022
Mof_H 	H 	0.6629	0.9372	0.093	0.041
Mof_C 	C 	0.63788	0.93328	0.12574	-0.005
Mof_C 	C 	0.63253	0.94344	0.15178	-0.022
Mof_H 	H 	0.6182	0.9363	0.162	0.04
Mof_C 	C 	0.64866	0.96429	0.16251	-0.107
Mof_H 	H 	0.6451	0.9711	0.1799	0.07
Mof_C 	C 	0.5904	0.87486	0.09065	0.118
Mof_C 	C 	0.57251	0.88248	0.06987	-0.166
Mof_H 	H 	0.5703	0.9009	0.0654	0.092
Mof_C 	C 	0.55789	0.8626	0.05569	0.095
Mof_H 	H 	0.5459	0.8677	0.0418	0.017
Mof_C 	C 	0.56115	0.83511	0.06229	-0.166
Mof_C 	C 	0.57904	0.8275	0.08308	0.1
Mof_H 	H 	0.5812	0.8091	0.0875	0.015
Mof_C 	C 	0.59366	0.84737	0.09726	-0.169
Mof_H 	H 	0.6056	0.8423	0.1112	0.093
Mof_C 	C 	0.6068	0.8953	0.1053	-0.063
Mof_C 	C 	0.7339	0.97554	0.36533	0.102
Mof_H 	H 	0.7362	0.9589	0.3743	0.014
Mof_C 	C 	0.62	0.9108	0.1161	0.014
Mof_C 	C 	0.7264	0.97559	0.33786	-0.178
Mof_H 	H 	0.7223	0.9592	0.3291	0.096
Mof_C 	C 	0.6938	0.0235	0.20214	-0.122
Mof_H 	H 	0.6917	0.0401	0.1931	0.074
Mof_C 	C 	0.7005	0.0238	0.2298	-0.007
Mof_H 	H 	0.7024	0.0404	0.2388	0.035
Mof_C 	C 	0.7564	0.0227	0.132	0.16
Mof_H 	H 	0.7659	0.0392	0.1327	-0.025
Mof_C 	C 	0.7299	0.0225	0.1404	-0.256
Mof_H 	H 	0.7215	0.0394	0.1432	0.119
Mof_C 	C 	0.8148	0.9534	0.4557	0.481
Mof_C 	C 	0.8556	0.9779	0.083	-0.41
Mof_H 	H 	0.8469	0.961	0.0842	0.179
Mof_C 	C 	0.8821	0.9777	0.073	0.331
Mof_H 	H 	0.891	0.9609	0.072	-0.057
Mof_O 	O 	0.9318	0.9791	0.0432	-0.582
Mof_O 	O 	0.17684	0.02882	0.47224	-0.634
Mof_O 	O 	0.25233	0.97617	0.57944	-0.628
Mof_O 	O 	0.21068	0.94783	0.5516	-0.616
Mof_C 	C 	0.32986	0.97498	0.85281	0.085
Mof_C 	C 	0.32452	0.96482	0.87885	-0.108
Mof_H 	H 	0.3101	0.972	0.8891	0.07
Mof_C 	C 	0.34065	0.94397	0.88957	-0.022
Mof_H 	H 	0.3371	0.9372	0.907	0.041
Mof_C 	C 	0.36212	0.93328	0.87426	-0.005
Mof_C 	C 	0.36747	0.94344	0.84822	-0.022
Mof_H 	H 	0.3818	0.9363	0.838	0.04
Mof_C 	C 	0.35134	0.96429	0.83749	-0.107
Mof_H 	H 	0.3549	0.9711	0.8201	0.07
Mof_C 	C 	0.4096	0.87486	0.90935	0.118
Mof_C 	C 	0.42749	0.88248	0.93013	-0.166
Mof_H 	H 	0.4297	0.9009	0.9346	0.092
Mof_C 	C 	0.44211	0.8626	0.94431	0.095
Mof_H 	H 	0.4541	0.8677	0.9582	0.017
Mof_C 	C 	0.43885	0.83511	0.93771	-0.166
Mof_C 	C 	0.42096	0.8275	0.91692	0.1
Mof_H 	H 	0.4188	0.8091	0.9125	0.015
Mof_C 	C 	0.40634	0.84737	0.90274	-0.169
Mof_H 	H 	0.3944	0.8423	0.8888	0.093
Mof_C 	C 	0.3932	0.8953	0.8947	-0.063
Mof_C 	C 	0.2661	0.97554	0.63467	0.102
Mof_H 	H 	0.2638	0.9589	0.6257	0.014
Mof_C 	C 	0.38	0.9108	0.8839	0.014
Mof_C 	C 	0.2736	0.97559	0.66214	-0.178
Mof_H 	H 	0.2777	0.9592	0.6709	0.096
Mof_C 	C 	0.3062	0.0235	0.79786	-0.122
Mof_H 	H 	0.3083	0.0401	0.8069	0.074
Mof_C 	C 	0.2995	0.0238	0.7702	-0.007
Mof_H 	H 	0.2976	0.0404	0.7612	0.035
Mof_C 	C 	0.2436	0.0227	0.868	0.16
Mof_H 	H 	0.2341	0.0392	0.8673	-0.025
Mof_C 	C 	0.2701	0.0225	0.8596	-0.256
Mof_H 	H 	0.2785	0.0394	0.8568	0.119
Mof_C 	C 	0.1852	0.9534	0.5443	0.481
Mof_C 	C 	0.1444	0.9779	0.917	-0.41
Mof_H 	H 	0.1531	0.961	0.9158	0.179
Mof_C 	C 	0.1179	0.9777	0.927	0.331
Mof_H 	H 	0.109	0.9609	0.928	-0.057
Mof_O 	O 	0.0682	0.9791	0.9568	-0.582
Mof_O 	O 	0.97118	0.47224	0.82316	-0.634
Mof_O 	O 	0.02383	0.57944	0.74767	-0.628
Mof_O 	O 	0.05217	0.5516	0.78932	-0.616
Mof_C 	C 	0.02502	0.85281	0.67014	0.085
Mof_C 	C 	0.03518	0.87885	0.67548	-0.108
Mof_H 	H 	0.028	0.8891	0.6899	0.07
Mof_C 	C 	0.05603	0.88957	0.65935	-0.022
Mof_H 	H 	0.0628	0.907	0.6629	0.041
Mof_C 	C 	0.06672	0.87426	0.63788	-0.005
Mof_C 	C 	0.05656	0.84822	0.63253	-0.022
Mof_H 	H 	0.0637	0.838	0.6182	0.04
Mof_C 	C 	0.03571	0.83749	0.64866	-0.107
Mof_H 	H 	0.0289	0.8201	0.6451	0.07
Mof_C 	C 	0.12514	0.90935	0.5904	0.118
Mof_C 	C 	0.11752	0.93013	0.57251	-0.166
Mof_H 	H 	0.0991	0.9346	0.5703	0.092
Mof_C 	C 	0.1374	0.94431	0.55789	0.095
Mof_H 	H 	0.1323	0.9582	0.5459	0.017
Mof_C 	C 	0.16489	0.93771	0.56115	-0.166
Mof_C 	C 	0.1725	0.91692	0.57904	0.1
Mof_H 	H 	0.1909	0.9125	0.5812	0.015
Mof_C 	C 	0.15263	0.90274	0.59366	-0.169
Mof_H 	H 	0.1577	0.8888	0.6056	0.093
Mof_C 	C 	0.1047	0.8947	0.6068	-0.063
Mof_C 	C 	0.02446	0.63467	0.7339	0.103
Mof_H 	H 	0.0411	0.6257	0.7362	0.014
Mof_C 	C 	0.0892	0.8839	0.62	0.014
Mof_C 	C 	0.02441	0.66214	0.7264	-0.178
Mof_H 	H 	0.0408	0.6709	0.7223	0.096
Mof_C 	C 	0.9765	0.79786	0.6938	-0.122
Mof_H 	H 	0.9599	0.8069	0.6917	0.074
Mof_C 	C 	0.9762	0.7702	0.7005	-0.007
Mof_H 	H 	0.9596	0.7612	0.7024	0.035
Mof_C 	C 	0.9773	0.868	0.7564	0.16
Mof_H 	H 	0.9608	0.8673	0.7659	-0.025
Mof_C 	C 	0.9775	0.8596	0.7299	-0.256
Mof_H 	H 	0.9606	0.8568	0.7215	0.119
Mof_C 	C 	0.0466	0.5443	0.8148	0.481
Mof_C 	C 	0.0221	0.917	0.8556	-0.41
Mof_H 	H 	0.039	0.9158	0.8469	0.179
Mof_C 	C 	0.0223	0.927	0.8821	0.331
Mof_H 	H 	0.0391	0.928	0.891	-0.057
Mof_O 	O 	0.0209	0.9568	0.9318	-0.582
Mof_O 	O 	0.97118	0.52776	0.17684	-0.634
Mof_O 	O 	0.02383	0.42056	0.25233	-0.628
Mof_O 	O 	0.05217	0.4484	0.21068	-0.616
Mof_C 	C 	0.02502	0.14719	0.32986	0.085
Mof_C 	C 	0.03518	0.12115	0.32452	-0.108
Mof_H 	H 	0.028	0.1109	0.3101	0.07
Mof_C 	C 	0.05603	0.11043	0.34065	-0.022
Mof_H 	H 	0.0628	0.093	0.3371	0.041
Mof_C 	C 	0.06672	0.12574	0.36212	-0.005
Mof_C 	C 	0.05656	0.15178	0.36747	-0.022
Mof_H 	H 	0.0637	0.162	0.3818	0.04
Mof_C 	C 	0.03571	0.16251	0.35134	-0.107
Mof_H 	H 	0.0289	0.1799	0.3549	0.07
Mof_C 	C 	0.12514	0.09065	0.4096	0.118
Mof_C 	C 	0.11752	0.06987	0.42749	-0.166
Mof_H 	H 	0.0991	0.0654	0.4297	0.092
Mof_C 	C 	0.1374	0.05569	0.44211	0.095
Mof_H 	H 	0.1323	0.0418	0.4541	0.017
Mof_C 	C 	0.16489	0.06229	0.43885	-0.166
Mof_C 	C 	0.1725	0.08308	0.42096	0.1
Mof_H 	H 	0.1909	0.0875	0.4188	0.015
Mof_C 	C 	0.15263	0.09726	0.40634	-0.169
Mof_H 	H 	0.1577	0.1112	0.3944	0.093
Mof_C 	C 	0.1047	0.1053	0.3932	-0.063
Mof_C 	C 	0.02446	0.36533	0.2661	0.103
Mof_H 	H 	0.0411	0.3743	0.2638	0.014
Mof_C 	C 	0.0892	0.1161	0.38	0.014
Mof_C 	C 	0.02441	0.33786	0.2736	-0.178
Mof_H 	H 	0.0408	0.3291	0.2777	0.096
Mof_C 	C 	0.9765	0.20214	0.3062	-0.122
Mof_H 	H 	0.9599	0.1931	0.3083	0.074
Mof_C 	C 	0.9762	0.2298	0.2995	-0.007
Mof_H 	H 	0.9596	0.2388	0.2976	0.035
Mof_C 	C 	0.9773	0.132	0.2436	0.16
Mof_H 	H 	0.9608	0.1327	0.2341	-0.025
Mof_C 	C 	0.9775	0.1404	0.2701	-0.256
Mof_H 	H 	0.9606	0.1432	0.2785	0.119
Mof_C 	C 	0.0466	0.4557	0.1852	0.481
Mof_C 	C 	0.0221	0.083	0.1444	-0.41
Mof_H 	H 	0.039	0.0842	0.1531	0.179
Mof_C 	C 	0.0223	0.073	0.1179	0.331
Mof_H 	H 	0.0391	0.072	0.109	-0.057
Mof_O 	O 	0.0209	0.0432	0.0682	-0.582
Mof_O 	O 	0.02882	0.47224	0.17684	-0.634
Mof_O 	O 	0.97617	0.57944	0.25233	-0.628
Mof_O 	O 	0.94783	0.5516	0.21068	-0.616
Mof_C 	C 	0.97498	0.85281	0.32986	0.085
Mof_C 	C 	0.96482	0.87885	0.32452	-0.108
Mof_H 	H 	0.972	0.8891	0.3101	0.07
Mof_C 	C 	0.94397	0.88957	0.34065	-0.022
Mof_H 	H 	0.9372	0.907	0.3371	0.041
Mof_C 	C 	0.93328	0.87426	0.36212	-0.005
Mof_C 	C 	0.94344	0.84822	0.36747	-0.022
Mof_H 	H 	0.9363	0.838	0.3818	0.04
Mof_C 	C 	0.96429	0.83749	0.35134	-0.107
Mof_H 	H 	0.9711	0.8201	0.3549	0.07
Mof_C 	C 	0.87486	0.90935	0.4096	0.118
Mof_C 	C 	0.88248	0.93013	0.42749	-0.166
Mof_H 	H 	0.9009	0.9346	0.4297	0.092
Mof_C 	C 	0.8626	0.94431	0.44211	0.095
Mof_H 	H 	0.8677	0.9582	0.4541	0.017
Mof_C 	C 	0.83511	0.93771	0.43885	-0.166
Mof_C 	C 	0.8275	0.91692	0.42096	0.1
Mof_H 	H 	0.8091	0.9125	0.4188	0.015
Mof_C 	C 	0.84737	0.90274	0.40634	-0.169
Mof_H 	H 	0.8423	0.8888	0.3944	0.093
Mof_C 	C 	0.8953	0.8947	0.3932	-0.063
Mof_C 	C 	0.97554	0.63467	0.2661	0.102
Mof_H 	H 	0.9589	0.6257	0.2638	0.014
Mof_C 	C 	0.9108	0.8839	0.38	0.014
Mof_C 	C 	0.97559	0.66214	0.2736	-0.178
Mof_H 	H 	0.9592	0.6709	0.2777	0.096
Mof_C 	C 	0.0235	0.79786	0.3062	-0.122
Mof_H 	H 	0.0401	0.8069	0.3083	0.074
Mof_C 	C 	0.0238	0.7702	0.2995	-0.007
Mof_H 	H 	0.0404	0.7612	0.2976	0.035
Mof_C 	C 	0.0227	0.868	0.2436	0.16
Mof_H 	H 	0.0392	0.8673	0.2341	-0.025
Mof_C 	C 	0.0225	0.8596	0.2701	-0.256
Mof_H 	H 	0.0394	0.8568	0.2785	0.119
Mof_C 	C 	0.9534	0.5443	0.1852	0.481
Mof_C 	C 	0.9779	0.917	0.1444	-0.41
Mof_H 	H 	0.961	0.9158	0.1531	0.179
Mof_C 	C 	0.9777	0.927	0.1179	0.331
Mof_H 	H 	0.9609	0.928	0.109	-0.057
Mof_O 	O 	0.9791	0.9568	0.0682	-0.582
Mof_O 	O 	0.02882	0.52776	0.82316	-0.634
Mof_O 	O 	0.97617	0.42056	0.74767	-0.628
Mof_O 	O 	0.94783	0.4484	0.78932	-0.616
Mof_C 	C 	0.97498	0.14719	0.67014	0.085
Mof_C 	C 	0.96482	0.12115	0.67548	-0.108
Mof_H 	H 	0.972	0.1109	0.6899	0.07
Mof_C 	C 	0.94397	0.11043	0.65935	-0.022
Mof_H 	H 	0.9372	0.093	0.6629	0.041
Mof_C 	C 	0.93328	0.12574	0.63788	-0.005
Mof_C 	C 	0.94344	0.15178	0.63253	-0.022
Mof_H 	H 	0.9363	0.162	0.6182	0.04
Mof_C 	C 	0.96429	0.16251	0.64866	-0.107
Mof_H 	H 	0.9711	0.1799	0.6451	0.07
Mof_C 	C 	0.87486	0.09065	0.5904	0.118
Mof_C 	C 	0.88248	0.06987	0.57251	-0.166
Mof_H 	H 	0.9009	0.0654	0.5703	0.092
Mof_C 	C 	0.8626	0.05569	0.55789	0.095
Mof_H 	H 	0.8677	0.0418	0.5459	0.017
Mof_C 	C 	0.83511	0.06229	0.56115	-0.166
Mof_C 	C 	0.8275	0.08308	0.57904	0.1
Mof_H 	H 	0.8091	0.0875	0.5812	0.015
Mof_C 	C 	0.84737	0.09726	0.59366	-0.169
Mof_H 	H 	0.8423	0.1112	0.6056	0.093
Mof_C 	C 	0.8953	0.1053	0.6068	-0.063
Mof_C 	C 	0.97554	0.36533	0.7339	0.102
Mof_H 	H 	0.9589	0.3743	0.7362	0.014
Mof_C 	C 	0.9108	0.1161	0.62	0.014
Mof_C 	C 	0.97559	0.33786	0.7264	-0.178
Mof_H 	H 	0.9592	0.3291	0.7223	0.096
Mof_C 	C 	0.0235	0.20214	0.6938	-0.122
Mof_H 	H 	0.0401	0.1931	0.6917	0.074
Mof_C 	C 	0.0238	0.2298	0.7005	-0.007
Mof_H 	H 	0.0404	0.2388	0.7024	0.035
Mof_C 	C 	0.0227	0.132	0.7564	0.16
Mof_H 	H 	0.0392	0.1327	0.7659	-0.025
Mof_C 	C 	0.0225	0.1404	0.7299	-0.256
Mof_H 	H 	0.0394	0.1432	0.7215	0.119
Mof_C 	C 	0.9534	0.4557	0.8148	0.481
Mof_C 	C 	0.9779	0.083	0.8556	-0.41
Mof_H 	H 	0.961	0.0842	0.8469	0.179
Mof_C 	C 	0.9777	0.073	0.8821	0.331
Mof_H 	H 	0.9609	0.072	0.891	-0.057
Mof_O 	O 	0.9791	0.0432	0.9318	-0.582
Mof_O 	O 	0.32316	0.02776	0.52882	-0.634
Mof_O 	O 	0.24767	0.92056	0.47617	-0.628
Mof_O 	O 	0.28932	0.9484	0.44783	-0.616
Mof_C 	C 	0.17014	0.64719	0.47498	0.085
Mof_C 	C 	0.17548	0.62115	0.46482	-0.108
Mof_H 	H 	0.1899	0.6109	0.472	0.07
Mof_C 	C 	0.15935	0.61043	0.44397	-0.022
Mof_H 	H 	0.1629	0.593	0.4372	0.041
Mof_C 	C 	0.13788	0.62574	0.43328	-0.005
Mof_C 	C 	0.13253	0.65178	0.44344	-0.022
Mof_H 	H 	0.1182	0.662	0.4363	0.04
Mof_C 	C 	0.14866	0.66251	0.46429	-0.107
Mof_H 	H 	0.1451	0.6799	0.4711	0.07
Mof_C 	C 	0.0904	0.59065	0.37486	0.118
Mof_C 	C 	0.07251	0.56987	0.38248	-0.166
Mof_H 	H 	0.0703	0.5654	0.4009	0.092
Mof_C 	C 	0.05789	0.55569	0.3626	0.095
Mof_H 	H 	0.0459	0.5418	0.3677	0.017
Mof_C 	C 	0.06115	0.56229	0.33511	-0.166
Mof_C 	C 	0.07904	0.58308	0.3275	0.1
Mof_H 	H 	0.0812	0.5875	0.3091	0.015
Mof_C 	C 	0.09366	0.59726	0.34737	-0.169
Mof_H 	H 	0.1056	0.6112	0.3423	0.093
Mof_C 	C 	0.1068	0.6053	0.3953	-0.063
Mof_C 	C 	0.2339	0.86533	0.47554	0.102
Mof_H 	H 	0.2362	0.8743	0.4589	0.014
Mof_C 	C 	0.12	0.6161	0.4108	0.014
Mof_C 	C 	0.2264	0.83786	0.47559	-0.178
Mof_H 	H 	0.2223	0.8291	0.4592	0.096
Mof_C 	C 	0.1938	0.70214	0.5235	-0.122
Mof_H 	H 	0.1917	0.6931	0.5401	0.074
Mof_C 	C 	0.2005	0.7298	0.5238	-0.007
Mof_H 	H 	0.2024	0.7388	0.5404	0.035
Mof_C 	C 	0.2564	0.632	0.5227	0.16
Mof_H 	H 	0.2659	0.6327	0.5392	-0.025
Mof_C 	C 	0.2299	0.6404	0.5225	-0.256
Mof_H 	H 	0.2215	0.6432	0.5394	0.119
Mof_C 	C 	0.3148	0.9557	0.4534	0.481
Mof_C 	C 	0.3556	0.583	0.4779	-0.41
Mof_H 	H 	0.3469	0.5842	0.461	0.179
Mof_C 	C 	0.3821	0.573	0.4777	0.331
Mof_H 	H 	0.391	0.572	0.4609	-0.057
Mof_O 	O 	0.4318	0.5432	0.4791	-0.582
Mof_O 	O 	0.67684	0.97224	0.52882	-0.634
Mof_O 	O 	0.75233	0.07944	0.47617	-0.628
Mof_O 	O 	0.71068	0.0516	0.44783	-0.616
Mof_C 	C 	0.82986	0.35281	0.47498	0.085
Mof_C 	C 	0.82452	0.37885	0.46482	-0.108
Mof_H 	H 	0.8101	0.3891	0.472	0.07
Mof_C 	C 	0.84065	0.38957	0.44397	-0.022
Mof_H 	H 	0.8371	0.407	0.4372	0.041
Mof_C 	C 	0.86212	0.37426	0.43328	-0.005
Mof_C 	C 	0.86747	0.34822	0.44344	-0.022
Mof_H 	H 	0.8818	0.338	0.4363	0.04
Mof_C 	C 	0.85134	0.33749	0.46429	-0.107
Mof_H 	H 	0.8549	0.3201	0.4711	0.07
Mof_C 	C 	0.9096	0.40935	0.37486	0.118
Mof_C 	C 	0.92749	0.43013	0.38248	-0.166
Mof_H 	H 	0.9297	0.4346	0.4009	0.092
Mof_C 	C 	0.94211	0.44431	0.3626	0.095
Mof_H 	H 	0.9541	0.4582	0.3677	0.017
Mof_C 	C 	0.93885	0.43771	0.33511	-0.166
Mof_C 	C 	0.92096	0.41692	0.3275	0.1
Mof_H 	H 	0.9188	0.4125	0.3091	0.015
Mof_C 	C 	0.90634	0.40274	0.34737	-0.169
Mof_H 	H 	0.8944	0.3888	0.3423	0.093
Mof_C 	C 	0.8932	0.3947	0.3953	-0.063
Mof_C 	C 	0.7661	0.13467	0.47554	0.102
Mof_H 	H 	0.7638	0.1257	0.4589	0.014
Mof_C 	C 	0.88	0.3839	0.4108	0.014
Mof_C 	C 	0.7736	0.16214	0.47559	-0.178
Mof_H 	H 	0.7777	0.1709	0.4592	0.096
Mof_C 	C 	0.8062	0.29786	0.5235	-0.122
Mof_H 	H 	0.8083	0.3069	0.5401	0.074
Mof_C 	C 	0.7995	0.2702	0.5238	-0.007
Mof_H 	H 	0.7976	0.2612	0.5404	0.035
Mof_C 	C 	0.7436	0.368	0.5227	0.16
Mof_H 	H 	0.7341	0.3673	0.5392	-0.025
Mof_C 	C 	0.7701	0.3596	0.5225	-0.256
Mof_H 	H 	0.7785	0.3568	0.5394	0.119
Mof_C 	C 	0.6852	0.0443	0.4534	0.481
Mof_C 	C 	0.6444	0.417	0.4779	-0.41
Mof_H 	H 	0.6531	0.4158	0.461	0.179
Mof_C 	C 	0.6179	0.427	0.4777	0.331
Mof_H 	H 	0.609	0.428	0.4609	-0.057
Mof_O 	O 	0.5682	0.4568	0.4791	-0.582
Mof_O 	O 	0.67684	0.02776	0.47118	-0.634
Mof_O 	O 	0.75233	0.92056	0.52383	-0.628
Mof_O 	O 	0.71068	0.9484	0.55217	-0.616
Mof_C 	C 	0.82986	0.64719	0.52502	0.085
Mof_C 	C 	0.82452	0.62115	0.53518	-0.108
Mof_H 	H 	0.8101	0.6109	0.528	0.07
Mof_C 	C 	0.84065	0.61043	0.55603	-0.022
Mof_H 	H 	0.8371	0.593	0.5628	0.041
Mof_C 	C 	0.86212	0.62574	0.56672	-0.005
Mof_C 	C 	0.86747	0.65178	0.55656	-0.022
Mof_H 	H 	0.8818	0.662	0.5637	0.04
Mof_C 	C 	0.85134	0.66251	0.53571	-0.107
Mof_H 	H 	0.8549	0.6799	0.5289	0.07
Mof_C 	C 	0.9096	0.59065	0.62514	0.118
Mof_C 	C 	0.92749	0.56987	0.61752	-0.166
Mof_H 	H 	0.9297	0.5654	0.5991	0.092
Mof_C 	C 	0.94211	0.55569	0.6374	0.095
Mof_H 	H 	0.9541	0.5418	0.6323	0.017
Mof_C 	C 	0.93885	0.56229	0.66489	-0.166
Mof_C 	C 	0.92096	0.58308	0.6725	0.1
Mof_H 	H 	0.9188	0.5875	0.6909	0.015
Mof_C 	C 	0.90634	0.59726	0.65263	-0.169
Mof_H 	H 	0.8944	0.6112	0.6577	0.093
Mof_C 	C 	0.8932	0.6053	0.6047	-0.063
Mof_C 	C 	0.7661	0.86533	0.52446	0.102
Mof_H 	H 	0.7638	0.8743	0.5411	0.014
Mof_C 	C 	0.88	0.6161	0.5892	0.014
Mof_C 	C 	0.7736	0.83786	0.52441	-0.178
Mof_H 	H 	0.7777	0.8291	0.5408	0.096
Mof_C 	C 	0.8062	0.70214	0.4765	-0.122
Mof_H 	H 	0.8083	0.6931	0.4599	0.074
Mof_C 	C 	0.7995	0.7298	0.4762	-0.007
Mof_H 	H 	0.7976	0.7388	0.4596	0.035
Mof_C 	C 	0.7436	0.632	0.4773	0.16
Mof_H 	H 	0.7341	0.6327	0.4608	-0.025
Mof_C 	C 	0.7701	0.6404	0.4775	-0.256
Mof_H 	H 	0.7785	0.6432	0.4606	0.119
Mof_C 	C 	0.6852	0.9557	0.5466	0.481
Mof_C 	C 	0.6444	0.583	0.5221	-0.41
Mof_H 	H 	0.6531	0.5842	0.539	0.179
Mof_C 	C 	0.6179	0.573	0.5223	0.331
Mof_H 	H 	0.609	0.572	0.5391	-0.057
Mof_O 	O 	0.5682	0.5432	0.5209	-0.582
Mof_O 	O 	0.32316	0.97224	0.47118	-0.634
Mof_O 	O 	0.24767	0.07944	0.52383	-0.628
Mof_O 	O 	0.28932	0.0516	0.55217	-0.616
Mof_C 	C 	0.17014	0.35281	0.52502	0.085
Mof_C 	C 	0.17548	0.37885	0.53518	-0.108
Mof_H 	H 	0.1899	0.3891	0.528	0.07
Mof_C 	C 	0.15935	0.38957	0.55603	-0.022
Mof_H 	H 	0.1629	0.407	0.5628	0.041
Mof_C 	C 	0.13788	0.37426	0.56672	-0.005
Mof_C 	C 	0.13253	0.34822	0.55656	-0.022
Mof_H 	H 	0.1182	0.338	0.5637	0.04
Mof_C 	C 	0.14866	0.33749	0.53571	-0.107
Mof_H 	H 	0.1451	0.3201	0.5289	0.07
Mof_C 	C 	0.0904	0.40935	0.62514	0.118
Mof_C 	C 	0.07251	0.43013	0.61752	-0.166
Mof_H 	H 	0.0703	0.4346	0.5991	0.092
Mof_C 	C 	0.05789	0.44431	0.6374	0.095
Mof_H 	H 	0.0459	0.4582	0.6323	0.017
Mof_C 	C 	0.06115	0.43771	0.66489	-0.166
Mof_C 	C 	0.07904	0.41692	0.6725	0.1
Mof_H 	H 	0.0812	0.4125	0.6909	0.015
Mof_C 	C 	0.09366	0.40274	0.65263	-0.169
Mof_H 	H 	0.1056	0.3888	0.6577	0.093
Mof_C 	C 	0.1068	0.3947	0.6047	-0.063
Mof_C 	C 	0.2339	0.13467	0.52446	0.102
Mof_H 	H 	0.2362	0.1257	0.5411	0.014
Mof_C 	C 	0.12	0.3839	0.5892	0.014
Mof_C 	C 	0.2264	0.16214	0.52441	-0.178
Mof_H 	H 	0.2223	0.1709	0.5408	0.096
Mof_C 	C 	0.1938	0.29786	0.4765	-0.122
Mof_H 	H 	0.1917	0.3069	0.4599	0.074
Mof_C 	C 	0.2005	0.2702	0.4762	-0.007
Mof_H 	H 	0.2024	0.2612	0.4596	0.035
Mof_C 	C 	0.2564	0.368	0.4773	0.16
Mof_H 	H 	0.2659	0.3673	0.4608	-0.025
Mof_C 	C 	0.2299	0.3596	0.4775	-0.256
Mof_H 	H 	0.2215	0.3568	0.4606	0.119
Mof_C 	C 	0.3148	0.0443	0.5466	0.481
Mof_C 	C 	0.3556	0.417	0.5221	-0.41
Mof_H 	H 	0.3469	0.4158	0.539	0.179
Mof_C 	C 	0.3821	0.427	0.5223	0.331
Mof_H 	H 	0.391	0.428	0.5391	-0.057
Mof_O 	O 	0.4318	0.4568	0.5209	-0.582
Mof_O 	O 	0.52882	0.32316	0.02776	-0.634
Mof_O 	O 	0.47617	0.24767	0.92056	-0.628
Mof_O 	O 	0.44783	0.28932	0.9484	-0.616
Mof_C 	C 	0.47498	0.17014	0.64719	0.085
Mof_C 	C 	0.46482	0.17548	0.62115	-0.108
Mof_H 	H 	0.472	0.1899	0.6109	0.07
Mof_C 	C 	0.44397	0.15935	0.61043	-0.022
Mof_H 	H 	0.4372	0.1629	0.593	0.041
Mof_C 	C 	0.43328	0.13788	0.62574	-0.005
Mof_C 	C 	0.44344	0.13253	0.65178	-0.022
Mof_H 	H 	0.4363	0.1182	0.662	0.04
Mof_C 	C 	0.46429	0.14866	0.66251	-0.107
Mof_H 	H 	0.4711	0.1451	0.6799	0.07
Mof_C 	C 	0.37486	0.0904	0.59065	0.118
Mof_C 	C 	0.38248	0.07251	0.56987	-0.166
Mof_H 	H 	0.4009	0.0703	0.5654	0.092
Mof_C 	C 	0.3626	0.05789	0.55569	0.095
Mof_H 	H 	0.3677	0.0459	0.5418	0.017
Mof_C 	C 	0.33511	0.06115	0.56229	-0.166
Mof_C 	C 	0.3275	0.07904	0.58308	0.1
Mof_H 	H 	0.3091	0.0812	0.5875	0.015
Mof_C 	C 	0.34737	0.09366	0.59726	-0.169
Mof_H 	H 	0.3423	0.1056	0.6112	0.093
Mof_C 	C 	0.3953	0.1068	0.6053	-0.063
Mof_C 	C 	0.47554	0.2339	0.86533	0.102
Mof_H 	H 	0.4589	0.2362	0.8743	0.014
Mof_C 	C 	0.4108	0.12	0.6161	0.014
Mof_C 	C 	0.47559	0.2264	0.83786	-0.178
Mof_H 	H 	0.4592	0.2223	0.8291	0.096
Mof_C 	C 	0.5235	0.1938	0.70214	-0.122
Mof_H 	H 	0.5401	0.1917	0.6931	0.074
Mof_C 	C 	0.5238	0.2005	0.7298	-0.007
Mof_H 	H 	0.5404	0.2024	0.7388	0.035
Mof_C 	C 	0.5227	0.2564	0.632	0.16
Mof_H 	H 	0.5392	0.2659	0.6327	-0.025
Mof_C 	C 	0.5225	0.2299	0.6404	-0.256
Mof_H 	H 	0.5394	0.2215	0.6432	0.119
Mof_C 	C 	0.4534	0.3148	0.9557	0.481
Mof_C 	C 	0.4779	0.3556	0.583	-0.41
Mof_H 	H 	0.461	0.3469	0.5842	0.179
Mof_C 	C 	0.4777	0.3821	0.573	0.331
Mof_H 	H 	0.4609	0.391	0.572	-0.057
Mof_O 	O 	0.4791	0.4318	0.5432	-0.582
Mof_O 	O 	0.52882	0.67684	0.97224	-0.634
Mof_O 	O 	0.47617	0.75233	0.07944	-0.628
Mof_O 	O 	0.44783	0.71068	0.0516	-0.616
Mof_C 	C 	0.47498	0.82986	0.35281	0.085
Mof_C 	C 	0.46482	0.82452	0.37885	-0.108
Mof_H 	H 	0.472	0.8101	0.3891	0.07
Mof_C 	C 	0.44397	0.84065	0.38957	-0.022
Mof_H 	H 	0.4372	0.8371	0.407	0.041
Mof_C 	C 	0.43328	0.86212	0.37426	-0.005
Mof_C 	C 	0.44344	0.86747	0.34822	-0.022
Mof_H 	H 	0.4363	0.8818	0.338	0.04
Mof_C 	C 	0.46429	0.85134	0.33749	-0.107
Mof_H 	H 	0.4711	0.8549	0.3201	0.07
Mof_C 	C 	0.37486	0.9096	0.40935	0.118
Mof_C 	C 	0.38248	0.92749	0.43013	-0.166
Mof_H 	H 	0.4009	0.9297	0.4346	0.092
Mof_C 	C 	0.3626	0.94211	0.44431	0.095
Mof_H 	H 	0.3677	0.9541	0.4582	0.017
Mof_C 	C 	0.33511	0.93885	0.43771	-0.166
Mof_C 	C 	0.3275	0.92096	0.41692	0.1
Mof_H 	H 	0.3091	0.9188	0.4125	0.015
Mof_C 	C 	0.34737	0.90634	0.40274	-0.169
Mof_H 	H 	0.3423	0.8944	0.3888	0.093
Mof_C 	C 	0.3953	0.8932	0.3947	-0.063
Mof_C 	C 	0.47554	0.7661	0.13467	0.102
Mof_H 	H 	0.4589	0.7638	0.1257	0.014
Mof_C 	C 	0.4108	0.88	0.3839	0.014
Mof_C 	C 	0.47559	0.7736	0.16214	-0.178
Mof_H 	H 	0.4592	0.7777	0.1709	0.096
Mof_C 	C 	0.5235	0.8062	0.29786	-0.122
Mof_H 	H 	0.5401	0.8083	0.3069	0.074
Mof_C 	C 	0.5238	0.7995	0.2702	-0.007
Mof_H 	H 	0.5404	0.7976	0.2612	0.035
Mof_C 	C 	0.5227	0.7436	0.368	0.16
Mof_H 	H 	0.5392	0.7341	0.3673	-0.025
Mof_C 	C 	0.5225	0.7701	0.3596	-0.256
Mof_H 	H 	0.5394	0.7785	0.3568	0.119
Mof_C 	C 	0.4534	0.6852	0.0443	0.481
Mof_C 	C 	0.4779	0.6444	0.417	-0.41
Mof_H 	H 	0.461	0.6531	0.4158	0.179
Mof_C 	C 	0.4777	0.6179	0.427	0.331
Mof_H 	H 	0.4609	0.609	0.428	-0.057
Mof_O 	O 	0.4791	0.5682	0.4568	-0.582
Mof_O 	O 	0.47118	0.67684	0.02776	-0.634
Mof_O 	O 	0.52383	0.75233	0.92056	-0.628
Mof_O 	O 	0.55217	0.71068	0.9484	-0.616
Mof_C 	C 	0.52502	0.82986	0.64719	0.085
Mof_C 	C 	0.53518	0.82452	0.62115	-0.108
Mof_H 	H 	0.528	0.8101	0.6109	0.07
Mof_C 	C 	0.55603	0.84065	0.61043	-0.022
Mof_H 	H 	0.5628	0.8371	0.593	0.041
Mof_C 	C 	0.56672	0.86212	0.62574	-0.005
Mof_C 	C 	0.55656	0.86747	0.65178	-0.022
Mof_H 	H 	0.5637	0.8818	0.662	0.04
Mof_C 	C 	0.53571	0.85134	0.66251	-0.107
Mof_H 	H 	0.5289	0.8549	0.6799	0.07
Mof_C 	C 	0.62514	0.9096	0.59065	0.118
Mof_C 	C 	0.61752	0.92749	0.56987	-0.166
Mof_H 	H 	0.5991	0.9297	0.5654	0.092
Mof_C 	C 	0.6374	0.94211	0.55569	0.095
Mof_H 	H 	0.6323	0.9541	0.5418	0.017
Mof_C 	C 	0.66489	0.93885	0.56229	-0.166
Mof_C 	C 	0.6725	0.92096	0.58308	0.1
Mof_H 	H 	0.6909	0.9188	0.5875	0.015
Mof_C 	C 	0.65263	0.90634	0.59726	-0.169
Mof_H 	H 	0.6577	0.8944	0.6112	0.093
Mof_C 	C 	0.6047	0.8932	0.6053	-0.063
Mof_C 	C 	0.52446	0.7661	0.86533	0.102
Mof_H 	H 	0.5411	0.7638	0.8743	0.014
Mof_C 	C 	0.5892	0.88	0.6161	0.014
Mof_C 	C 	0.52441	0.7736	0.83786	-0.178
Mof_H 	H 	0.5408	0.7777	0.8291	0.096
Mof_C 	C 	0.4765	0.8062	0.70214	-0.122
Mof_H 	H 	0.4599	0.8083	0.6931	0.074
Mof_C 	C 	0.4762	0.7995	0.7298	-0.007
Mof_H 	H 	0.4596	0.7976	0.7388	0.035
Mof_C 	C 	0.4773	0.7436	0.632	0.16
Mof_H 	H 	0.4608	0.7341	0.6327	-0.025
Mof_C 	C 	0.4775	0.7701	0.6404	-0.256
Mof_H 	H 	0.4606	0.7785	0.6432	0.119
Mof_C 	C 	0.5466	0.6852	0.9557	0.481
Mof_C 	C 	0.5221	0.6444	0.583	-0.41
Mof_H 	H 	0.539	0.6531	0.5842	0.179
Mof_C 	C 	0.5223	0.6179	0.573	0.331
Mof_H 	H 	0.5391	0.609	0.572	-0.057
Mof_O 	O 	0.5209	0.5682	0.5432	-0.582
Mof_O 	O 	0.47118	0.32316	0.97224	-0.634
Mof_O 	O 	0.52383	0.24767	0.07944	-0.628
Mof_O 	O 	0.55217	0.28932	0.0516	-0.616
Mof_C 	C 	0.52502	0.17014	0.35281	0.085
Mof_C 	C 	0.53518	0.17548	0.37885	-0.108
Mof_H 	H 	0.528	0.1899	0.3891	0.07
Mof_C 	C 	0.55603	0.15935	0.38957	-0.022
Mof_H 	H 	0.5628	0.1629	0.407	0.041
Mof_C 	C 	0.56672	0.13788	0.37426	-0.005
Mof_C 	C 	0.55656	0.13253	0.34822	-0.022
Mof_H 	H 	0.5637	0.1182	0.338	0.04
Mof_C 	C 	0.53571	0.14866	0.33749	-0.107
Mof_H 	H 	0.5289	0.1451	0.3201	0.07
Mof_C 	C 	0.62514	0.0904	0.40935	0.118
Mof_C 	C 	0.61752	0.07251	0.43013	-0.166
Mof_H 	H 	0.5991	0.0703	0.4346	0.092
Mof_C 	C 	0.6374	0.05789	0.44431	0.095
Mof_H 	H 	0.6323	0.0459	0.4582	0.017
Mof_C 	C 	0.66489	0.06115	0.43771	-0.166
Mof_C 	C 	0.6725	0.07904	0.41692	0.1
Mof_H 	H 	0.6909	0.0812	0.4125	0.015
Mof_C 	C 	0.65263	0.09366	0.40274	-0.169
Mof_H 	H 	0.6577	0.1056	0.3888	0.093
Mof_C 	C 	0.6047	0.1068	0.3947	-0.063
Mof_C 	C 	0.52446	0.2339	0.13467	0.102
Mof_H 	H 	0.5411	0.2362	0.1257	0.014
Mof_C 	C 	0.5892	0.12	0.3839	0.014
Mof_C 	C 	0.52441	0.2264	0.16214	-0.178
Mof_H 	H 	0.5408	0.2223	0.1709	0.096
Mof_C 	C 	0.4765	0.1938	0.29786	-0.122
Mof_H 	H 	0.4599	0.1917	0.3069	0.074
Mof_C 	C 	0.4762	0.2005	0.2702	-0.007
Mof_H 	H 	0.4596	0.2024	0.2612	0.035
Mof_C 	C 	0.4773	0.2564	0.368	0.16
Mof_H 	H 	0.4608	0.2659	0.3673	-0.025
Mof_C 	C 	0.4775	0.2299	0.3596	-0.256
Mof_H 	H 	0.4606	0.2215	0.3568	0.119
Mof_C 	C 	0.5466	0.3148	0.0443	0.481
Mof_C 	C 	0.5221	0.3556	0.417	-0.41
Mof_H 	H 	0.539	0.3469	0.4158	0.179
Mof_C 	C 	0.5223	0.3821	0.427	0.331
Mof_H 	H 	0.5391	0.391	0.428	-0.057
Mof_O 	O 	0.5209	0.4318	0.4568	-0.582
Mof_O 	O 	0.02776	0.52882	0.32316	-0.634
Mof_O 	O 	0.92056	0.47617	0.24767	-0.628
Mof_O 	O 	0.9484	0.44783	0.28932	-0.616
Mof_C 	C 	0.64719	0.47498	0.17014	0.085
Mof_C 	C 	0.62115	0.46482	0.17548	-0.108
Mof_H 	H 	0.6109	0.472	0.1899	0.07
Mof_C 	C 	0.61043	0.44397	0.15935	-0.022
Mof_H 	H 	0.593	0.4372	0.1629	0.041
Mof_C 	C 	0.62574	0.43328	0.13788	-0.005
Mof_C 	C 	0.65178	0.44344	0.13253	-0.022
Mof_H 	H 	0.662	0.4363	0.1182	0.04
Mof_C 	C 	0.66251	0.46429	0.14866	-0.107
Mof_H 	H 	0.6799	0.4711	0.1451	0.07
Mof_C 	C 	0.59065	0.37486	0.0904	0.118
Mof_C 	C 	0.56987	0.38248	0.07251	-0.166
Mof_H 	H 	0.5654	0.4009	0.0703	0.092
Mof_C 	C 	0.55569	0.3626	0.05789	0.095
Mof_H 	H 	0.5418	0.3677	0.0459	0.017
Mof_C 	C 	0.56229	0.33511	0.06115	-0.166
Mof_C 	C 	0.58308	0.3275	0.07904	0.1
Mof_H 	H 	0.5875	0.3091	0.0812	0.015
Mof_C 	C 	0.59726	0.34737	0.09366	-0.169
Mof_H 	H 	0.6112	0.3423	0.1056	0.093
Mof_C 	C 	0.6053	0.3953	0.1068	-0.063
Mof_C 	C 	0.86533	0.47554	0.2339	0.102
Mof_H 	H 	0.8743	0.4589	0.2362	0.014
Mof_C 	C 	0.6161	0.4108	0.12	0.014
Mof_C 	C 	0.83786	0.47559	0.2264	-0.178
Mof_H 	H 	0.8291	0.4592	0.2223	0.096
Mof_C 	C 	0.70214	0.5235	0.1938	-0.122
Mof_H 	H 	0.6931	0.5401	0.1917	0.074
Mof_C 	C 	0.7298	0.5238	0.2005	-0.007
Mof_H 	H 	0.7388	0.5404	0.2024	0.035
Mof_C 	C 	0.632	0.5227	0.2564	0.16
Mof_H 	H 	0.6327	0.5392	0.2659	-0.025
Mof_C 	C 	0.6404	0.5225	0.2299	-0.256
Mof_H 	H 	0.6432	0.5394	0.2215	0.119
Mof_C 	C 	0.9557	0.4534	0.3148	0.481
Mof_C 	C 	0.583	0.4779	0.3556	-0.41
Mof_H 	H 	0.5842	0.461	0.3469	0.179
Mof_C 	C 	0.573	0.4777	0.3821	0.331
Mof_H 	H 	0.572	0.4609	0.391	-0.057
Mof_O 	O 	0.5432	0.4791	0.4318	-0.582
Mof_O 	O 	0.97224	0.52882	0.67684	-0.634
Mof_O 	O 	0.07944	0.47617	0.75233	-0.628
Mof_O 	O 	0.0516	0.44783	0.71068	-0.616
Mof_C 	C 	0.35281	0.47498	0.82986	0.085
Mof_C 	C 	0.37885	0.46482	0.82452	-0.108
Mof_H 	H 	0.3891	0.472	0.8101	0.07
Mof_C 	C 	0.38957	0.44397	0.84065	-0.022
Mof_H 	H 	0.407	0.4372	0.8371	0.041
Mof_C 	C 	0.37426	0.43328	0.86212	-0.005
Mof_C 	C 	0.34822	0.44344	0.86747	-0.022
Mof_H 	H 	0.338	0.4363	0.8818	0.04
Mof_C 	C 	0.33749	0.46429	0.85134	-0.107
Mof_H 	H 	0.3201	0.4711	0.8549	0.07
Mof_C 	C 	0.40935	0.37486	0.9096	0.118
Mof_C 	C 	0.43013	0.38248	0.92749	-0.166
Mof_H 	H 	0.4346	0.4009	0.9297	0.092
Mof_C 	C 	0.44431	0.3626	0.94211	0.095
Mof_H 	H 	0.4582	0.3677	0.9541	0.017
Mof_C 	C 	0.43771	0.33511	0.93885	-0.166
Mof_C 	C 	0.41692	0.3275	0.92096	0.1
Mof_H 	H 	0.4125	0.3091	0.9188	0.015
Mof_C 	C 	0.40274	0.34737	0.90634	-0.169
Mof_H 	H 	0.3888	0.3423	0.8944	0.093
Mof_C 	C 	0.3947	0.3953	0.8932	-0.063
Mof_C 	C 	0.13467	0.47554	0.7661	0.102
Mof_H 	H 	0.1257	0.4589	0.7638	0.014
Mof_C 	C 	0.3839	0.4108	0.88	0.014
Mof_C 	C 	0.16214	0.47559	0.7736	-0.178
Mof_H 	H 	0.1709	0.4592	0.7777	0.096
Mof_C 	C 	0.29786	0.5235	0.8062	-0.122
Mof_H 	H 	0.3069	0.5401	0.8083	0.074
Mof_C 	C 	0.2702	0.5238	0.7995	-0.007
Mof_H 	H 	0.2612	0.5404	0.7976	0.035
Mof_C 	C 	0.368	0.5227	0.7436	0.16
Mof_H 	H 	0.3673	0.5392	0.7341	-0.025
Mof_C 	C 	0.3596	0.5225	0.7701	-0.256
Mof_H 	H 	0.3568	0.5394	0.7785	0.119
Mof_C 	C 	0.0443	0.4534	0.6852	0.481
Mof_C 	C 	0.417	0.4779	0.6444	-0.41
Mof_H 	H 	0.4158	0.461	0.6531	0.179
Mof_C 	C 	0.427	0.4777	0.6179	0.331
Mof_H 	H 	0.428	0.4609	0.609	-0.057
Mof_O 	O 	0.4568	0.4791	0.5682	-0.582
Mof_O 	O 	0.02776	0.47118	0.67684	-0.634
Mof_O 	O 	0.92056	0.52383	0.75233	-0.628
Mof_O 	O 	0.9484	0.55217	0.71068	-0.616
Mof_C 	C 	0.64719	0.52502	0.82986	0.085
Mof_C 	C 	0.62115	0.53518	0.82452	-0.108
Mof_H 	H 	0.6109	0.528	0.8101	0.07
Mof_C 	C 	0.61043	0.55603	0.84065	-0.022
Mof_H 	H 	0.593	0.5628	0.8371	0.041
Mof_C 	C 	0.62574	0.56672	0.86212	-0.005
Mof_C 	C 	0.65178	0.55656	0.86747	-0.022
Mof_H 	H 	0.662	0.5637	0.8818	0.04
Mof_C 	C 	0.66251	0.53571	0.85134	-0.107
Mof_H 	H 	0.6799	0.5289	0.8549	0.07
Mof_C 	C 	0.59065	0.62514	0.9096	0.118
Mof_C 	C 	0.56987	0.61752	0.92749	-0.166
Mof_H 	H 	0.5654	0.5991	0.9297	0.092
Mof_C 	C 	0.55569	0.6374	0.94211	0.095
Mof_H 	H 	0.5418	0.6323	0.9541	0.017
Mof_C 	C 	0.56229	0.66489	0.93885	-0.166
Mof_C 	C 	0.58308	0.6725	0.92096	0.1
Mof_H 	H 	0.5875	0.6909	0.9188	0.015
Mof_C 	C 	0.59726	0.65263	0.90634	-0.169
Mof_H 	H 	0.6112	0.6577	0.8944	0.093
Mof_C 	C 	0.6053	0.6047	0.8932	-0.063
Mof_C 	C 	0.86533	0.52446	0.7661	0.102
Mof_H 	H 	0.8743	0.5411	0.7638	0.014
Mof_C 	C 	0.6161	0.5892	0.88	0.014
Mof_C 	C 	0.83786	0.52441	0.7736	-0.178
Mof_H 	H 	0.8291	0.5408	0.7777	0.096
Mof_C 	C 	0.70214	0.4765	0.8062	-0.122
Mof_H 	H 	0.6931	0.4599	0.8083	0.074
Mof_C 	C 	0.7298	0.4762	0.7995	-0.007
Mof_H 	H 	0.7388	0.4596	0.7976	0.035
Mof_C 	C 	0.632	0.4773	0.7436	0.16
Mof_H 	H 	0.6327	0.4608	0.7341	-0.025
Mof_C 	C 	0.6404	0.4775	0.7701	-0.256
Mof_H 	H 	0.6432	0.4606	0.7785	0.119
Mof_C 	C 	0.9557	0.5466	0.6852	0.481
Mof_C 	C 	0.583	0.5221	0.6444	-0.41
Mof_H 	H 	0.5842	0.539	0.6531	0.179
Mof_C 	C 	0.573	0.5223	0.6179	0.331
Mof_H 	H 	0.572	0.5391	0.609	-0.057
Mof_O 	O 	0.5432	0.5209	0.5682	-0.582
Mof_O 	O 	0.97224	0.47118	0.32316	-0.634
Mof_O 	O 	0.07944	0.52383	0.24767	-0.628
Mof_O 	O 	0.0516	0.55217	0.28932	-0.616
Mof_C 	C 	0.35281	0.52502	0.17014	0.085
Mof_C 	C 	0.37885	0.53518	0.17548	-0.108
Mof_H 	H 	0.3891	0.528	0.1899	0.07
Mof_C 	C 	0.38957	0.55603	0.15935	-0.022
Mof_H 	H 	0.407	0.5628	0.1629	0.041
Mof_C 	C 	0.37426	0.56672	0.13788	-0.005
Mof_C 	C 	0.34822	0.55656	0.13253	-0.022
Mof_H 	H 	0.338	0.5637	0.1182	0.04
Mof_C 	C 	0.33749	0.53571	0.14866	-0.107
Mof_H 	H 	0.3201	0.5289	0.1451	0.07
Mof_C 	C 	0.40935	0.62514	0.0904	0.118
Mof_C 	C 	0.43013	0.61752	0.07251	-0.166
Mof_H 	H 	0.4346	0.5991	0.0703	0.092
Mof_C 	C 	0.44431	0.6374	0.05789	0.095
Mof_H 	H 	0.4582	0.6323	0.0459	0.017
Mof_C 	C 	0.43771	0.66489	0.06115	-0.166
Mof_C 	C 	0.41692	0.6725	0.07904	0.1
Mof_H 	H 	0.4125	0.6909	0.0812	0.015
Mof_C 	C 	0.40274	0.65263	0.09366	-0.169
Mof_H 	H 	0.3888	0.6577	0.1056	0.093
Mof_C 	C 	0.3947	0.6047	0.1068	-0.063
Mof_C 	C 	0.13467	0.52446	0.2339	0.102
Mof_H 	H 	0.1257	0.5411	0.2362	0.014
Mof_C 	C 	0.3839	0.5892	0.12	0.014
Mof_C 	C 	0.16214	0.52441	0.2264	-0.178
Mof_H 	H 	0.1709	0.5408	0.2223	0.096
Mof_C 	C 	0.29786	0.4765	0.1938	-0.122
Mof_H 	H 	0.3069	0.4599	0.1917	0.074
Mof_C 	C 	0.2702	0.4762	0.2005	-0.007
Mof_H 	H 	0.2612	0.4596	0.2024	0.035
Mof_C 	C 	0.368	0.4773	0.2564	0.16
Mof_H 	H 	0.3673	0.4608	0.2659	-0.025
Mof_C 	C 	0.3596	0.4775	0.2299	-0.256
Mof_H 	H 	0.3568	0.4606	0.2215	0.119
Mof_C 	C 	0.0443	0.5466	0.3148	0.481
Mof_C 	C 	0.417	0.5221	0.3556	-0.41
Mof_H 	H 	0.4158	0.539	0.3469	0.179
Mof_C 	C 	0.427	0.5223	0.3821	0.331
Mof_H 	H 	0.428	0.5391	0.391	-0.057
Mof_O 	O 	0.4568	0.5209	0.4318	-0.582
Mof_O 	O 	0.52776	0.82316	0.97118	-0.634
Mof_O 	O 	0.42056	0.74767	0.02383	-0.628
Mof_O 	O 	0.4484	0.78932	0.05217	-0.616
Mof_C 	C 	0.14719	0.67014	0.02502	0.085
Mof_C 	C 	0.12115	0.67548	0.03518	-0.108
Mof_H 	H 	0.1109	0.6899	0.028	0.07
Mof_C 	C 	0.11043	0.65935	0.05603	-0.022
Mof_H 	H 	0.093	0.6629	0.0628	0.041
Mof_C 	C 	0.12574	0.63788	0.06672	-0.005
Mof_C 	C 	0.15178	0.63253	0.05656	-0.022
Mof_H 	H 	0.162	0.6182	0.0637	0.04
Mof_C 	C 	0.16251	0.64866	0.03571	-0.107
Mof_H 	H 	0.1799	0.6451	0.0289	0.07
Mof_C 	C 	0.09065	0.5904	0.12514	0.118
Mof_C 	C 	0.06987	0.57251	0.11752	-0.166
Mof_H 	H 	0.0654	0.5703	0.0991	0.092
Mof_C 	C 	0.05569	0.55789	0.1374	0.095
Mof_H 	H 	0.0418	0.5459	0.1323	0.017
Mof_C 	C 	0.06229	0.56115	0.16489	-0.166
Mof_C 	C 	0.08308	0.57904	0.1725	0.1
Mof_H 	H 	0.0875	0.5812	0.1909	0.015
Mof_C 	C 	0.09726	0.59366	0.15263	-0.169
Mof_H 	H 	0.1112	0.6056	0.1577	0.093
Mof_C 	C 	0.1053	0.6068	0.1047	-0.063
Mof_C 	C 	0.36533	0.7339	0.02446	0.103
Mof_H 	H 	0.3743	0.7362	0.0411	0.014
Mof_C 	C 	0.1161	0.62	0.0892	0.014
Mof_C 	C 	0.33786	0.7264	0.02441	-0.178
Mof_H 	H 	0.3291	0.7223	0.0408	0.096
Mof_C 	C 	0.20214	0.6938	0.9765	-0.122
Mof_H 	H 	0.1931	0.6917	0.9599	0.074
Mof_C 	C 	0.2298	0.7005	0.9762	-0.007
Mof_H 	H 	0.2388	0.7024	0.9596	0.035
Mof_C 	C 	0.132	0.7564	0.9773	0.16
Mof_H 	H 	0.1327	0.7659	0.9608	-0.025
Mof_C 	C 	0.1404	0.7299	0.9775	-0.256
Mof_H 	H 	0.1432	0.7215	0.9606	0.119
Mof_C 	C 	0.4557	0.8148	0.0466	0.481
Mof_C 	C 	0.083	0.8556	0.0221	-0.41
Mof_H 	H 	0.0842	0.8469	0.039	0.179
Mof_C 	C 	0.073	0.8821	0.0223	0.331
Mof_H 	H 	0.072	0.891	0.0391	-0.057
Mof_O 	O 	0.0432	0.9318	0.0209	-0.582
Mof_O 	O 	0.47224	0.17684	0.97118	-0.634
Mof_O 	O 	0.57944	0.25233	0.02383	-0.628
Mof_O 	O 	0.5516	0.21068	0.05217	-0.616
Mof_C 	C 	0.85281	0.32986	0.02502	0.085
Mof_C 	C 	0.87885	0.32452	0.03518	-0.108
Mof_H 	H 	0.8891	0.3101	0.028	0.07
Mof_C 	C 	0.88957	0.34065	0.05603	-0.022
Mof_H 	H 	0.907	0.3371	0.0628	0.041
Mof_C 	C 	0.87426	0.36212	0.06672	-0.005
Mof_C 	C 	0.84822	0.36747	0.05656	-0.022
Mof_H 	H 	0.838	0.3818	0.0637	0.04
Mof_C 	C 	0.83749	0.35134	0.03571	-0.107
Mof_H 	H 	0.8201	0.3549	0.0289	0.07
Mof_C 	C 	0.90935	0.4096	0.12514	0.118
Mof_C 	C 	0.93013	0.42749	0.11752	-0.166
Mof_H 	H 	0.9346	0.4297	0.0991	0.092
Mof_C 	C 	0.94431	0.44211	0.1374	0.095
Mof_H 	H 	0.9582	0.4541	0.1323	0.017
Mof_C 	C 	0.93771	0.43885	0.16489	-0.166
Mof_C 	C 	0.91692	0.42096	0.1725	0.1
Mof_H 	H 	0.9125	0.4188	0.1909	0.015
Mof_C 	C 	0.90274	0.40634	0.15263	-0.169
Mof_H 	H 	0.8888	0.3944	0.1577	0.093
Mof_C 	C 	0.8947	0.3932	0.1047	-0.063
Mof_C 	C 	0.63467	0.2661	0.02446	0.103
Mof_H 	H 	0.6257	0.2638	0.0411	0.014
Mof_C 	C 	0.8839	0.38	0.0892	0.014
Mof_C 	C 	0.66214	0.2736	0.02441	-0.178
Mof_H 	H 	0.6709	0.2777	0.0408	0.096
Mof_C 	C 	0.79786	0.3062	0.9765	-0.122
Mof_H 	H 	0.8069	0.3083	0.9599	0.074
Mof_C 	C 	0.7702	0.2995	0.9762	-0.007
Mof_H 	H 	0.7612	0.2976	0.9596	0.035
Mof_C 	C 	0.868	0.2436	0.9773	0.16
Mof_H 	H 	0.8673	0.2341	0.9608	-0.025
Mof_C 	C 	0.8596	0.2701	0.9775	-0.256
Mof_H 	H 	0.8568	0.2785	0.9606	0.119
Mof_C 	C 	0.5443	0.1852	0.0466	0.481
Mof_C 	C 	0.917	0.1444	0.0221	-0.41
Mof_H 	H 	0.9158	0.1531	0.039	0.179
Mof_C 	C 	0.927	0.1179	0.0223	0.331
Mof_H 	H 	0.928	0.109	0.0391	-0.057
Mof_O 	O 	0.9568	0.0682	0.0209	-0.582
Mof_O 	O 	0.52776	0.17684	0.02882	-0.634
Mof_O 	O 	0.42056	0.25233	0.97617	-0.628
Mof_O 	O 	0.4484	0.21068	0.94783	-0.616
Mof_C 	C 	0.14719	0.32986	0.97498	0.085
Mof_C 	C 	0.12115	0.32452	0.96482	-0.108
Mof_H 	H 	0.1109	0.3101	0.972	0.07
Mof_C 	C 	0.11043	0.34065	0.94397	-0.022
Mof_H 	H 	0.093	0.3371	0.9372	0.041
Mof_C 	C 	0.12574	0.36212	0.93328	-0.005
Mof_C 	C 	0.15178	0.36747	0.94344	-0.022
Mof_H 	H 	0.162	0.3818	0.9363	0.04
Mof_C 	C 	0.16251	0.35134	0.96429	-0.107
Mof_H 	H 	0.1799	0.3549	0.9711	0.07
Mof_C 	C 	0.09065	0.4096	0.87486	0.118
Mof_C 	C 	0.06987	0.42749	0.88248	-0.166
Mof_H 	H 	0.0654	0.4297	0.9009	0.092
Mof_C 	C 	0.05569	0.44211	0.8626	0.095
Mof_H 	H 	0.0418	0.4541	0.8677	0.017
Mof_C 	C 	0.06229	0.43885	0.83511	-0.166
Mof_C 	C 	0.08308	0.42096	0.8275	0.1
Mof_H 	H 	0.0875	0.4188	0.8091	0.015
Mof_C 	C 	0.09726	0.40634	0.84737	-0.169
Mof_H 	H 	0.1112	0.3944	0.8423	0.093
Mof_C 	C 	0.1053	0.3932	0.8953	-0.063
Mof_C 	C 	0.36533	0.2661	0.97554	0.102
Mof_H 	H 	0.3743	0.2638	0.9589	0.014
Mof_C 	C 	0.1161	0.38	0.9108	0.014
Mof_C 	C 	0.33786	0.2736	0.97559	-0.178
Mof_H 	H 	0.3291	0.2777	0.9592	0.096
Mof_C 	C 	0.20214	0.3062	0.0235	-0.122
Mof_H 	H 	0.1931	0.3083	0.0401	0.074
Mof_C 	C 	0.2298	0.2995	0.0238	-0.007
Mof_H 	H 	0.2388	0.2976	0.0404	0.035
Mof_C 	C 	0.132	0.2436	0.0227	0.16
Mof_H 	H 	0.1327	0.2341	0.0392	-0.025
Mof_C 	C 	0.1404	0.2701	0.0225	-0.256
Mof_H 	H 	0.1432	0.2785	0.0394	0.119
Mof_C 	C 	0.4557	0.1852	0.9534	0.481
Mof_C 	C 	0.083	0.1444	0.9779	-0.41
Mof_H 	H 	0.0842	0.1531	0.961	0.179
Mof_C 	C 	0.073	0.1179	0.9777	0.331
Mof_H 	H 	0.072	0.109	0.9609	-0.057
Mof_O 	O 	0.0432	0.0682	0.9791	-0.582
Mof_O 	O 	0.47224	0.82316	0.02882	-0.634
Mof_O 	O 	0.57944	0.74767	0.97617	-0.628
Mof_O 	O 	0.5516	0.78932	0.94783	-0.616
Mof_C 	C 	0.85281	0.67014	0.97498	0.085
Mof_C 	C 	0.87885	0.67548	0.96482	-0.108
Mof_H 	H 	0.8891	0.6899	0.972	0.07
Mof_C 	C 	0.88957	0.65935	0.94397	-0.022
Mof_H 	H 	0.907	0.6629	0.9372	0.041
Mof_C 	C 	0.87426	0.63788	0.93328	-0.005
Mof_C 	C 	0.84822	0.63253	0.94344	-0.022
Mof_H 	H 	0.838	0.6182	0.9363	0.04
Mof_C 	C 	0.83749	0.64866	0.96429	-0.107
Mof_H 	H 	0.8201	0.6451	0.9711	0.07
Mof_C 	C 	0.90935	0.5904	0.87486	0.118
Mof_C 	C 	0.93013	0.57251	0.88248	-0.166
Mof_H 	H 	0.9346	0.5703	0.9009	0.092
Mof_C 	C 	0.94431	0.55789	0.8626	0.095
Mof_H 	H 	0.9582	0.5459	0.8677	0.017
Mof_C 	C 	0.93771	0.56115	0.83511	-0.166
Mof_C 	C 	0.91692	0.57904	0.8275	0.1
Mof_H 	H 	0.9125	0.5812	0.8091	0.015
Mof_C 	C 	0.90274	0.59366	0.84737	-0.169
Mof_H 	H 	0.8888	0.6056	0.8423	0.093
Mof_C 	C 	0.8947	0.6068	0.8953	-0.063
Mof_C 	C 	0.63467	0.7339	0.97554	0.102
Mof_H 	H 	0.6257	0.7362	0.9589	0.014
Mof_C 	C 	0.8839	0.62	0.9108	0.014
Mof_C 	C 	0.66214	0.7264	0.97559	-0.178
Mof_H 	H 	0.6709	0.7223	0.9592	0.096
Mof_C 	C 	0.79786	0.6938	0.0235	-0.122
Mof_H 	H 	0.8069	0.6917	0.0401	0.074
Mof_C 	C 	0.7702	0.7005	0.0238	-0.007
Mof_H 	H 	0.7612	0.7024	0.0404	0.035
Mof_C 	C 	0.868	0.7564	0.0227	0.16
Mof_H 	H 	0.8673	0.7659	0.0392	-0.025
Mof_C 	C 	0.8596	0.7299	0.0225	-0.256
Mof_H 	H 	0.8568	0.7215	0.0394	0.119
Mof_C 	C 	0.5443	0.8148	0.9534	0.481
Mof_C 	C 	0.917	0.8556	0.9779	-0.41
Mof_H 	H 	0.9158	0.8469	0.961	0.179
Mof_C 	C 	0.927	0.8821	0.9777	0.331
Mof_H 	H 	0.928	0.891	0.9609	-0.057
Mof_O 	O 	0.9568	0.9318	0.9791	-0.582
Mof_O 	O 	0.82316	0.02882	0.47224	-0.634
Mof_O 	O 	0.74767	0.97617	0.57944	-0.628
Mof_O 	O 	0.78932	0.94783	0.5516	-0.616
Mof_C 	C 	0.67014	0.97498	0.85281	0.085
Mof_C 	C 	0.67548	0.96482	0.87885	-0.108
Mof_H 	H 	0.6899	0.972	0.8891	0.07
Mof_C 	C 	0.65935	0.94397	0.88957	-0.022
Mof_H 	H 	0.6629	0.9372	0.907	0.041
Mof_C 	C 	0.63788	0.93328	0.87426	-0.005
Mof_C 	C 	0.63253	0.94344	0.84822	-0.022
Mof_H 	H 	0.6182	0.9363	0.838	0.04
Mof_C 	C 	0.64866	0.96429	0.83749	-0.107
Mof_H 	H 	0.6451	0.9711	0.8201	0.07
Mof_C 	C 	0.5904	0.87486	0.90935	0.118
Mof_C 	C 	0.57251	0.88248	0.93013	-0.166
Mof_H 	H 	0.5703	0.9009	0.9346	0.092
Mof_C 	C 	0.55789	0.8626	0.94431	0.095
Mof_H 	H 	0.5459	0.8677	0.9582	0.017
Mof_C 	C 	0.56115	0.83511	0.93771	-0.166
Mof_C 	C 	0.57904	0.8275	0.91692	0.1
Mof_H 	H 	0.5812	0.8091	0.9125	0.015
Mof_C 	C 	0.59366	0.84737	0.90274	-0.169
Mof_H 	H 	0.6056	0.8423	0.8888	0.093
Mof_C 	C 	0.6068	0.8953	0.8947	-0.063
Mof_C 	C 	0.7339	0.97554	0.63467	0.102
Mof_H 	H 	0.7362	0.9589	0.6257	0.014
Mof_C 	C 	0.62	0.9108	0.8839	0.014
Mof_C 	C 	0.7264	0.97559	0.66214	-0.178
Mof_H 	H 	0.7223	0.9592	0.6709	0.096
Mof_C 	C 	0.6938	0.0235	0.79786	-0.122
Mof_H 	H 	0.6917	0.0401	0.8069	0.074
Mof_C 	C 	0.7005	0.0238	0.7702	-0.007
Mof_H 	H 	0.7024	0.0404	0.7612	0.035
Mof_C 	C 	0.7564	0.0227	0.868	0.16
Mof_H 	H 	0.7659	0.0392	0.8673	-0.025
Mof_C 	C 	0.7299	0.0225	0.8596	-0.256
Mof_H 	H 	0.7215	0.0394	0.8568	0.119
Mof_C 	C 	0.8148	0.9534	0.5443	0.481
Mof_C 	C 	0.8556	0.9779	0.917	-0.41
Mof_H 	H 	0.8469	0.961	0.9158	0.179
Mof_C 	C 	0.8821	0.9777	0.927	0.331
Mof_H 	H 	0.891	0.9609	0.928	-0.057
Mof_O 	O 	0.9318	0.9791	0.9568	-0.582
Mof_O 	O 	0.17684	0.02882	0.52776	-0.634
Mof_O 	O 	0.25233	0.97617	0.42056	-0.628
Mof_O 	O 	0.21068	0.94783	0.4484	-0.616
Mof_C 	C 	0.32986	0.97498	0.14719	0.085
Mof_C 	C 	0.32452	0.96482	0.12115	-0.108
Mof_H 	H 	0.3101	0.972	0.1109	0.07
Mof_C 	C 	0.34065	0.94397	0.11043	-0.022
Mof_H 	H 	0.3371	0.9372	0.093	0.041
Mof_C 	C 	0.36212	0.93328	0.12574	-0.005
Mof_C 	C 	0.36747	0.94344	0.15178	-0.022
Mof_H 	H 	0.3818	0.9363	0.162	0.04
Mof_C 	C 	0.35134	0.96429	0.16251	-0.107
Mof_H 	H 	0.3549	0.9711	0.1799	0.07
Mof_C 	C 	0.4096	0.87486	0.09065	0.118
Mof_C 	C 	0.42749	0.88248	0.06987	-0.166
Mof_H 	H 	0.4297	0.9009	0.0654	0.092
Mof_C 	C 	0.44211	0.8626	0.05569	0.095
Mof_H 	H 	0.4541	0.8677	0.0418	0.017
Mof_C 	C 	0.43885	0.83511	0.06229	-0.166
Mof_C 	C 	0.42096	0.8275	0.08308	0.1
Mof_H 	H 	0.4188	0.8091	0.0875	0.015
Mof_C 	C 	0.40634	0.84737	0.09726	-0.169
Mof_H 	H 	0.3944	0.8423	0.1112	0.093
Mof_C 	C 	0.3932	0.8953	0.1053	-0.063
Mof_C 	C 	0.2661	0.97554	0.36533	0.102
Mof_H 	H 	0.2638	0.9589	0.3743	0.014
Mof_C 	C 	0.38	0.9108	0.1161	0.014
Mof_C 	C 	0.2736	0.97559	0.33786	-0.178
Mof_H 	H 	0.2777	0.9592	0.3291	0.096
Mof_C 	C 	0.3062	0.0235	0.20214	-0.122
Mof_H 	H 	0.3083	0.0401	0.1931	0.074
Mof_C 	C 	0.2995	0.0238	0.2298	-0.007
Mof_H 	H 	0.2976	0.0404	0.2388	0.035
Mof_C 	C 	0.2436	0.0227	0.132	0.16
Mof_H 	H 	0.2341	0.0392	0.1327	-0.025
Mof_C 	C 	0.2701	0.0225	0.1404	-0.256
Mof_H 	H 	0.2785	0.0394	0.1432	0.119
Mof_C 	C 	0.1852	0.9534	0.4557	0.481
Mof_C 	C 	0.1444	0.9779	0.083	-0.41
Mof_H 	H 	0.1531	0.961	0.0842	0.179
Mof_C 	C 	0.1179	0.9777	0.073	0.331
Mof_H 	H 	0.109	0.9609	0.072	-0.057
Mof_O 	O 	0.0682	0.9791	0.0432	-0.582
Mof_O 	O 	0.17684	0.97118	0.47224	-0.634
Mof_O 	O 	0.25233	0.02383	0.57944	-0.628
Mof_O 	O 	0.21068	0.05217	0.5516	-0.616
Mof_C 	C 	0.32986	0.02502	0.85281	0.085
Mof_C 	C 	0.32452	0.03518	0.87885	-0.108
Mof_H 	H 	0.3101	0.028	0.8891	0.07
Mof_C 	C 	0.34065	0.05603	0.88957	-0.022
Mof_H 	H 	0.3371	0.0628	0.907	0.041
Mof_C 	C 	0.36212	0.06672	0.87426	-0.005
Mof_C 	C 	0.36747	0.05656	0.84822	-0.022
Mof_H 	H 	0.3818	0.0637	0.838	0.04
Mof_C 	C 	0.35134	0.03571	0.83749	-0.107
Mof_H 	H 	0.3549	0.0289	0.8201	0.07
Mof_C 	C 	0.4096	0.12514	0.90935	0.118
Mof_C 	C 	0.42749	0.11752	0.93013	-0.166
Mof_H 	H 	0.4297	0.0991	0.9346	0.092
Mof_C 	C 	0.44211	0.1374	0.94431	0.095
Mof_H 	H 	0.4541	0.1323	0.9582	0.017
Mof_C 	C 	0.43885	0.16489	0.93771	-0.166
Mof_C 	C 	0.42096	0.1725	0.91692	0.1
Mof_H 	H 	0.4188	0.1909	0.9125	0.015
Mof_C 	C 	0.40634	0.15263	0.90274	-0.169
Mof_H 	H 	0.3944	0.1577	0.8888	0.093
Mof_C 	C 	0.3932	0.1047	0.8947	-0.063
Mof_C 	C 	0.2661	0.02446	0.63467	0.103
Mof_H 	H 	0.2638	0.0411	0.6257	0.014
Mof_C 	C 	0.38	0.0892	0.8839	0.014
Mof_C 	C 	0.2736	0.02441	0.66214	-0.178
Mof_H 	H 	0.2777	0.0408	0.6709	0.096
Mof_C 	C 	0.3062	0.9765	0.79786	-0.122
Mof_H 	H 	0.3083	0.9599	0.8069	0.074
Mof_C 	C 	0.2995	0.9762	0.7702	-0.007
Mof_H 	H 	0.2976	0.9596	0.7612	0.035
Mof_C 	C 	0.2436	0.9773	0.868	0.16
Mof_H 	H 	0.2341	0.9608	0.8673	-0.025
Mof_C 	C 	0.2701	0.9775	0.8596	-0.256
Mof_H 	H 	0.2785	0.9606	0.8568	0.119
Mof_C 	C 	0.1852	0.0466	0.5443	0.481
Mof_C 	C 	0.1444	0.0221	0.917	-0.41
Mof_H 	H 	0.1531	0.039	0.9158	0.179
Mof_C 	C 	0.1179	0.0223	0.927	0.331
Mof_H 	H 	0.109	0.0391	0.928	-0.057
Mof_O 	O 	0.0682	0.0209	0.9568	-0.582
Mof_O 	O 	0.82316	0.97118	0.52776	-0.634
Mof_O 	O 	0.74767	0.02383	0.42056	-0.628
Mof_O 	O 	0.78932	0.05217	0.4484	-0.616
Mof_C 	C 	0.67014	0.02502	0.14719	0.085
Mof_C 	C 	0.67548	0.03518	0.12115	-0.108
Mof_H 	H 	0.6899	0.028	0.1109	0.07
Mof_C 	C 	0.65935	0.05603	0.11043	-0.022
Mof_H 	H 	0.6629	0.0628	0.093	0.041
Mof_C 	C 	0.63788	0.06672	0.12574	-0.005
Mof_C 	C 	0.63253	0.05656	0.15178	-0.022
Mof_H 	H 	0.6182	0.0637	0.162	0.04
Mof_C 	C 	0.64866	0.03571	0.16251	-0.107
Mof_H 	H 	0.6451	0.0289	0.1799	0.07
Mof_C 	C 	0.5904	0.12514	0.09065	0.118
Mof_C 	C 	0.57251	0.11752	0.06987	-0.166
Mof_H 	H 	0.5703	0.0991	0.0654	0.092
Mof_C 	C 	0.55789	0.1374	0.05569	0.095
Mof_H 	H 	0.5459	0.1323	0.0418	0.017
Mof_C 	C 	0.56115	0.16489	0.06229	-0.166
Mof_C 	C 	0.57904	0.1725	0.08308	0.1
Mof_H 	H 	0.5812	0.1909	0.0875	0.015
Mof_C 	C 	0.59366	0.15263	0.09726	-0.169
Mof_H 	H 	0.6056	0.1577	0.1112	0.093
Mof_C 	C 	0.6068	0.1047	0.1053	-0.063
Mof_C 	C 	0.7339	0.02446	0.36533	0.103
Mof_H 	H 	0.7362	0.0411	0.3743	0.014
Mof_C 	C 	0.62	0.0892	0.1161	0.014
Mof_C 	C 	0.7264	0.02441	0.33786	-0.178
Mof_H 	H 	0.7223	0.0408	0.3291	0.096
Mof_C 	C 	0.6938	0.9765	0.20214	-0.122
Mof_H 	H 	0.6917	0.9599	0.1931	0.074
Mof_C 	C 	0.7005	0.9762	0.2298	-0.007
Mof_H 	H 	0.7024	0.9596	0.2388	0.035
Mof_C 	C 	0.7564	0.9773	0.132	0.16
Mof_H 	H 	0.7659	0.9608	0.1327	-0.025
Mof_C 	C 	0.7299	0.9775	0.1404	-0.256
Mof_H 	H 	0.7215	0.9606	0.1432	0.119
Mof_C 	C 	0.8148	0.0466	0.4557	0.481
Mof_C 	C 	0.8556	0.0221	0.083	-0.41
Mof_H 	H 	0.8469	0.039	0.0842	0.179
Mof_C 	C 	0.8821	0.0223	0.073	0.331
Mof_H 	H 	0.891	0.0391	0.072	-0.057
Mof_O 	O 	0.9318	0.0209	0.0432	-0.582
Mof_O 	O 	0.02882	0.52776	0.17684	-0.634
Mof_O 	O 	0.97617	0.42056	0.25233	-0.628
Mof_O 	O 	0.94783	0.4484	0.21068	-0.616
Mof_C 	C 	0.97498	0.14719	0.32986	0.085
Mof_C 	C 	0.96482	0.12115	0.32452	-0.108
Mof_H 	H 	0.972	0.1109	0.3101	0.07
Mof_C 	C 	0.94397	0.11043	0.34065	-0.022
Mof_H 	H 	0.9372	0.093	0.3371	0.041
Mof_C 	C 	0.93328	0.12574	0.36212	-0.005
Mof_C 	C 	0.94344	0.15178	0.36747	-0.022
Mof_H 	H 	0.9363	0.162	0.3818	0.04
Mof_C 	C 	0.96429	0.16251	0.35134	-0.107
Mof_H 	H 	0.9711	0.1799	0.3549	0.07
Mof_C 	C 	0.87486	0.09065	0.4096	0.118
Mof_C 	C 	0.88248	0.06987	0.42749	-0.166
Mof_H 	H 	0.9009	0.0654	0.4297	0.092
Mof_C 	C 	0.8626	0.05569	0.44211	0.095
Mof_H 	H 	0.8677	0.0418	0.4541	0.017
Mof_C 	C 	0.83511	0.06229	0.43885	-0.166
Mof_C 	C 	0.8275	0.08308	0.42096	0.1
Mof_H 	H 	0.8091	0.0875	0.4188	0.015
Mof_C 	C 	0.84737	0.09726	0.40634	-0.169
Mof_H 	H 	0.8423	0.1112	0.3944	0.093
Mof_C 	C 	0.8953	0.1053	0.3932	-0.063
Mof_C 	C 	0.97554	0.36533	0.2661	0.102
Mof_H 	H 	0.9589	0.3743	0.2638	0.014
Mof_C 	C 	0.9108	0.1161	0.38	0.014
Mof_C 	C 	0.97559	0.33786	0.2736	-0.178
Mof_H 	H 	0.9592	0.3291	0.2777	0.096
Mof_C 	C 	0.0235	0.20214	0.3062	-0.122
Mof_H 	H 	0.0401	0.1931	0.3083	0.074
Mof_C 	C 	0.0238	0.2298	0.2995	-0.007
Mof_H 	H 	0.0404	0.2388	0.2976	0.035
Mof_C 	C 	0.0227	0.132	0.2436	0.16
Mof_H 	H 	0.0392	0.1327	0.2341	-0.025
Mof_C 	C 	0.0225	0.1404	0.2701	-0.256
Mof_H 	H 	0.0394	0.1432	0.2785	0.119
Mof_C 	C 	0.9534	0.4557	0.1852	0.481
Mof_C 	C 	0.9779	0.083	0.1444	-0.41
Mof_H 	H 	0.961	0.0842	0.1531	0.179
Mof_C 	C 	0.9777	0.073	0.1179	0.331
Mof_H 	H 	0.9609	0.072	0.109	-0.057
Mof_O 	O 	0.9791	0.0432	0.0682	-0.582
Mof_O 	O 	0.02882	0.47224	0.82316	-0.634
Mof_O 	O 	0.97617	0.57944	0.74767	-0.628
Mof_O 	O 	0.94783	0.5516	0.78932	-0.616
Mof_C 	C 	0.97498	0.85281	0.67014	0.085
Mof_C 	C 	0.96482	0.87885	0.67548	-0.108
Mof_H 	H 	0.972	0.8891	0.6899	0.07
Mof_C 	C 	0.94397	0.88957	0.65935	-0.022
Mof_H 	H 	0.9372	0.907	0.6629	0.041
Mof_C 	C 	0.93328	0.87426	0.63788	-0.005
Mof_C 	C 	0.94344	0.84822	0.63253	-0.022
Mof_H 	H 	0.9363	0.838	0.6182	0.04
Mof_C 	C 	0.96429	0.83749	0.64866	-0.107
Mof_H 	H 	0.9711	0.8201	0.6451	0.07
Mof_C 	C 	0.87486	0.90935	0.5904	0.118
Mof_C 	C 	0.88248	0.93013	0.57251	-0.166
Mof_H 	H 	0.9009	0.9346	0.5703	0.092
Mof_C 	C 	0.8626	0.94431	0.55789	0.095
Mof_H 	H 	0.8677	0.9582	0.5459	0.017
Mof_C 	C 	0.83511	0.93771	0.56115	-0.166
Mof_C 	C 	0.8275	0.91692	0.57904	0.1
Mof_H 	H 	0.8091	0.9125	0.5812	0.015
Mof_C 	C 	0.84737	0.90274	0.59366	-0.169
Mof_H 	H 	0.8423	0.8888	0.6056	0.093
Mof_C 	C 	0.8953	0.8947	0.6068	-0.063
Mof_C 	C 	0.97554	0.63467	0.7339	0.102
Mof_H 	H 	0.9589	0.6257	0.7362	0.014
Mof_C 	C 	0.9108	0.8839	0.62	0.014
Mof_C 	C 	0.97559	0.66214	0.7264	-0.178
Mof_H 	H 	0.9592	0.6709	0.7223	0.096
Mof_C 	C 	0.0235	0.79786	0.6938	-0.122
Mof_H 	H 	0.0401	0.8069	0.6917	0.074
Mof_C 	C 	0.0238	0.7702	0.7005	-0.007
Mof_H 	H 	0.0404	0.7612	0.7024	0.035
Mof_C 	C 	0.0227	0.868	0.7564	0.16
Mof_H 	H 	0.0392	0.8673	0.7659	-0.025
Mof_C 	C 	0.0225	0.8596	0.7299	-0.256
Mof_H 	H 	0.0394	0.8568	0.7215	0.119
Mof_C 	C 	0.9534	0.5443	0.8148	0.481
Mof_C 	C 	0.9779	0.917	0.8556	-0.41
Mof_H 	H 	0.961	0.9158	0.8469	0.179
Mof_C 	C 	0.9777	0.927	0.8821	0.331
Mof_H 	H 	0.9609	0.928	0.891	-0.057
Mof_O 	O 	0.9791	0.9568	0.9318	-0.582
Mof_O 	O 	0.97118	0.52776	0.82316	-0.634
Mof_O 	O 	0.02383	0.42056	0.74767	-0.628
Mof_O 	O 	0.05217	0.4484	0.78932	-0.616
Mof_C 	C 	0.02502	0.14719	0.67014	0.085
Mof_C 	C 	0.03518	0.12115	0.67548	-0.108
Mof_H 	H 	0.028	0.1109	0.6899	0.07
Mof_C 	C 	0.05603	0.11043	0.65935	-0.022
Mof_H 	H 	0.0628	0.093	0.6629	0.041
Mof_C 	C 	0.06672	0.12574	0.63788	-0.005
Mof_C 	C 	0.05656	0.15178	0.63253	-0.022
Mof_H 	H 	0.0637	0.162	0.6182	0.04
Mof_C 	C 	0.03571	0.16251	0.64866	-0.107
Mof_H 	H 	0.0289	0.1799	0.6451	0.07
Mof_C 	C 	0.12514	0.09065	0.5904	0.118
Mof_C 	C 	0.11752	0.06987	0.57251	-0.166
Mof_H 	H 	0.0991	0.0654	0.5703	0.092
Mof_C 	C 	0.1374	0.05569	0.55789	0.095
Mof_H 	H 	0.1323	0.0418	0.5459	0.017
Mof_C 	C 	0.16489	0.06229	0.56115	-0.166
Mof_C 	C 	0.1725	0.08308	0.57904	0.1
Mof_H 	H 	0.1909	0.0875	0.5812	0.015
Mof_C 	C 	0.15263	0.09726	0.59366	-0.169
Mof_H 	H 	0.1577	0.1112	0.6056	0.093
Mof_C 	C 	0.1047	0.1053	0.6068	-0.063
Mof_C 	C 	0.02446	0.36533	0.7339	0.103
Mof_H 	H 	0.0411	0.3743	0.7362	0.014
Mof_C 	C 	0.0892	0.1161	0.62	0.014
Mof_C 	C 	0.02441	0.33786	0.7264	-0.178
Mof_H 	H 	0.0408	0.3291	0.7223	0.096
Mof_C 	C 	0.9765	0.20214	0.6938	-0.122
Mof_H 	H 	0.9599	0.1931	0.6917	0.074
Mof_C 	C 	0.9762	0.2298	0.7005	-0.007
Mof_H 	H 	0.9596	0.2388	0.7024	0.035
Mof_C 	C 	0.9773	0.132	0.7564	0.16
Mof_H 	H 	0.9608	0.1327	0.7659	-0.025
Mof_C 	C 	0.9775	0.1404	0.7299	-0.256
Mof_H 	H 	0.9606	0.1432	0.7215	0.119
Mof_C 	C 	0.0466	0.4557	0.8148	0.481
Mof_C 	C 	0.0221	0.083	0.8556	-0.41
Mof_H 	H 	0.039	0.0842	0.8469	0.179
Mof_C 	C 	0.0223	0.073	0.8821	0.331
Mof_H 	H 	0.0391	0.072	0.891	-0.057
Mof_O 	O 	0.0209	0.0432	0.9318	-0.582
Mof_O 	O 	0.97118	0.47224	0.17684	-0.634
Mof_O 	O 	0.02383	0.57944	0.25233	-0.628
Mof_O 	O 	0.05217	0.5516	0.21068	-0.616
Mof_C 	C 	0.02502	0.85281	0.32986	0.085
Mof_C 	C 	0.03518	0.87885	0.32452	-0.108
Mof_H 	H 	0.028	0.8891	0.3101	0.07
Mof_C 	C 	0.05603	0.88957	0.34065	-0.022
Mof_H 	H 	0.0628	0.907	0.3371	0.041
Mof_C 	C 	0.06672	0.87426	0.36212	-0.005
Mof_C 	C 	0.05656	0.84822	0.36747	-0.022
Mof_H 	H 	0.0637	0.838	0.3818	0.04
Mof_C 	C 	0.03571	0.83749	0.35134	-0.107
Mof_H 	H 	0.0289	0.8201	0.3549	0.07
Mof_C 	C 	0.12514	0.90935	0.4096	0.118
Mof_C 	C 	0.11752	0.93013	0.42749	-0.166
Mof_H 	H 	0.0991	0.9346	0.4297	0.092
Mof_C 	C 	0.1374	0.94431	0.44211	0.095
Mof_H 	H 	0.1323	0.9582	0.4541	0.017
Mof_C 	C 	0.16489	0.93771	0.43885	-0.166
Mof_C 	C 	0.1725	0.91692	0.42096	0.1
Mof_H 	H 	0.1909	0.9125	0.4188	0.015
Mof_C 	C 	0.15263	0.90274	0.40634	-0.169
Mof_H 	H 	0.1577	0.8888	0.3944	0.093
Mof_C 	C 	0.1047	0.8947	0.3932	-0.063
Mof_C 	C 	0.02446	0.63467	0.2661	0.103
Mof_H 	H 	0.0411	0.6257	0.2638	0.014
Mof_C 	C 	0.0892	0.8839	0.38	0.014
Mof_C 	C 	0.02441	0.66214	0.2736	-0.178
Mof_H 	H 	0.0408	0.6709	0.2777	0.096
Mof_C 	C 	0.9765	0.79786	0.3062	-0.122
Mof_H 	H 	0.9599	0.8069	0.3083	0.074
Mof_C 	C 	0.9762	0.7702	0.2995	-0.007
Mof_H 	H 	0.9596	0.7612	0.2976	0.035
Mof_C 	C 	0.9773	0.868	0.2436	0.16
Mof_H 	H 	0.9608	0.8673	0.2341	-0.025
Mof_C 	C 	0.9775	0.8596	0.2701	-0.256
Mof_H 	H 	0.9606	0.8568	0.2785	0.119
Mof_C 	C 	0.0466	0.5443	0.1852	0.481
Mof_C 	C 	0.0221	0.917	0.1444	-0.41
Mof_H 	H 	0.039	0.9158	0.1531	0.179
Mof_C 	C 	0.0223	0.927	0.1179	0.331
Mof_H 	H 	0.0391	0.928	0.109	-0.057
Mof_O 	O 	0.0209	0.9568	0.0682	-0.582
Mof_Zr	Zr	0.75	0.03573	0.53573	3.215
Mof_Zr	Zr	0.25	0.96427	0.53573	3.215
Mof_Zr	Zr	0.25	0.03573	0.46427	3.215
Mof_Zr	Zr	0.75	0.96427	0.46427	3.215
Mof_Zr	Zr	0.53573	0.75	0.03573	3.215
Mof_Zr	Zr	0.53573	0.25	0.96427	3.215
Mof_Zr	Zr	0.46427	0.25	0.03573	3.215
Mof_Zr	Zr	0.46427	0.75	0.96427	3.215
Mof_Zr	Zr	0.03573	0.53573	0.75	3.215
Mof_Zr	Zr	0.96427	0.53573	0.25	3.215
Mof_Zr	Zr	0.03573	0.46427	0.25	3.215
Mof_Zr	Zr	0.96427	0.46427	0.75	3.215
Mof_Zr	Zr	0.25	0.96427	0.46427	3.215
Mof_Zr	Zr	0.75	0.03573	0.46427	3.215
Mof_Zr	Zr	0.75	0.96427	0.53573	3.215
Mof_Zr	Zr	0.25	0.03573	0.53573	3.215
Mof_Zr	Zr	0.46427	0.25	0.96427	3.215
Mof_Zr	Zr	0.46427	0.75	0.03573	3.215
Mof_Zr	Zr	0.53573	0.75	0.96427	3.215
Mof_Zr	Zr	0.53573	0.25	0.03573	3.215
Mof_Zr	Zr	0.96427	0.46427	0.25	3.215
Mof_Zr	Zr	0.03573	0.46427	0.75	3.215
Mof_Zr	Zr	0.96427	0.53573	0.75	3.215
Mof_Zr	Zr	0.03573	0.53573	0.25	3.215
Mof_Zr	Zr	0.69952	-3.46649e-33	0.5	3.21
Mof_Zr	Zr	0.30048	-3.46649e-33	0.5	3.21
Mof_Zr	Zr	0.5	0.69952	-0	3.21
Mof_Zr	Zr	0.5	0.30048	-0	3.21
Mof_Zr	Zr	2.62278e-33	0.5	0.69952	3.21
Mof_Zr	Zr	1.12662e-33	0.5	0.30048	3.21
Mof_Zr	Zr	0.5	0.19952	-0	3.21
Mof_Zr	Zr	0.5	0.80048	-0	3.21
Mof_Zr	Zr	0.19952	-3.46649e-33	0.5	3.21
Mof_Zr	Zr	0.80048	-3.46649e-33	0.5	3.21
Mof_Zr	Zr	-1.08646e-32	0.5	0.80048	3.21
Mof_Zr	Zr	-2.71841e-33	0.5	0.19952	3.21
Mof_Zr	Zr	0.52776	0.47224	0.47224	3.326
Mof_Zr	Zr	0.47224	0.52776	0.47224	3.326
Mof_Zr	Zr	0.47224	0.47224	0.52776	3.326
Mof_Zr	Zr	0.52776	0.52776	0.52776	3.326
Mof_Zr	Zr	0.97224	0.02776	0.02776	3.326
Mof_Zr	Zr	0.02776	0.97224	0.02776	3.326
Mof_Zr	Zr	0.97224	0.97224	0.97224	3.326
Mof_Zr	Zr	0.02776	0.02776	0.97224	3.326
Mof_Zr	Zr	0.47224	0.52776	0.52776	3.326
Mof_Zr	Zr	0.52776	0.47224	0.52776	3.326
Mof_Zr	Zr	0.52776	0.52776	0.47224	3.326
Mof_Zr	Zr	0.47224	0.47224	0.47224	3.326
Mof_Zr	Zr	0.02776	0.97224	0.97224	3.326
Mof_Zr	Zr	0.97224	0.02776	0.97224	3.326
Mof_Zr	Zr	0.02776	0.02776	0.02776	3.326
Mof_Zr	Zr	0.97224	0.97224	0.02776	3.326
Mof_O 	O 	0.72192	0.04046	0.5	-1.045
Mof_C 	C 	0.8096	0.3123	0.5	0.1
Mof_C 	C 	0.75494	0.09046	0.5	0.484
Mof_C 	C 	0.7621	0.1201	0.5	-0.171
Mof_C 	C 	0.81256	0.34345	0.5	-0.154
Mof_C 	C 	0.7842	0.2034	0.5	-0.079
Mof_C 	C 	0.7751	0.1767	0.5	0.135
Mof_C 	C 	0.7957	0.2558	0.5	-0.018
Mof_C 	C 	0.7897	0.2264	0.5	0.025
Mof_C 	C 	0.7852	0.35515	0.5	0.204
Mof_C 	C 	0.73	0.3774	0.5	-0.226
Mof_C 	C 	0.7042	0.3898	0.5	0.28
Mof_C 	C 	0.6588	0.4088	0.5	0.401
Mof_C 	C 	0.6855	0.3986	0.5	-0.344
Mof_C 	C 	0.6038	0.4354	0.5	-0.379
Mof_C 	C 	0.576	0.4463	0.5	0.689
Mof_O 	O 	0.52279	0.45688	0.5	-1.702
Mof_O 	O 	0.27808	0.95954	0.5	-1.045
Mof_C 	C 	0.1904	0.6877	0.5	0.1
Mof_C 	C 	0.24506	0.90954	0.5	0.484
Mof_C 	C 	0.2379	0.8799	0.5	-0.171
Mof_C 	C 	0.18744	0.65655	0.5	-0.154
Mof_C 	C 	0.2158	0.7966	0.5	-0.079
Mof_C 	C 	0.2249	0.8233	0.5	0.135
Mof_C 	C 	0.2043	0.7442	0.5	-0.018
Mof_C 	C 	0.2103	0.7736	0.5	0.025
Mof_C 	C 	0.2148	0.64485	0.5	0.204
Mof_C 	C 	0.27	0.6226	0.5	-0.226
Mof_C 	C 	0.2958	0.6102	0.5	0.28
Mof_C 	C 	0.3412	0.5912	0.5	0.401
Mof_C 	C 	0.3145	0.6014	0.5	-0.344
Mof_C 	C 	0.3962	0.5646	0.5	-0.379
Mof_C 	C 	0.424	0.5537	0.5	0.689
Mof_O 	O 	0.47721	0.54312	0.5	-1.702
Mof_O 	O 	0.27808	0.04046	0.5	-1.045
Mof_C 	C 	0.1904	0.3123	0.5	0.1
Mof_C 	C 	0.24506	0.09046	0.5	0.484
Mof_C 	C 	0.2379	0.1201	0.5	-0.171
Mof_C 	C 	0.18744	0.34345	0.5	-0.154
Mof_C 	C 	0.2158	0.2034	0.5	-0.079
Mof_C 	C 	0.2249	0.1767	0.5	0.135
Mof_C 	C 	0.2043	0.2558	0.5	-0.018
Mof_C 	C 	0.2103	0.2264	0.5	0.025
Mof_C 	C 	0.2148	0.35515	0.5	0.204
Mof_C 	C 	0.27	0.3774	0.5	-0.226
Mof_C 	C 	0.2958	0.3898	0.5	0.28
Mof_C 	C 	0.3412	0.4088	0.5	0.401
Mof_C 	C 	0.3145	0.3986	0.5	-0.344
Mof_C 	C 	0.3962	0.4354	0.5	-0.379
Mof_C 	C 	0.424	0.4463	0.5	0.689
Mof_O 	O 	0.47721	0.45688	0.5	-1.702
Mof_O 	O 	0.72192	0.95954	0.5	-1.045
Mof_C 	C 	0.8096	0.6877	0.5	0.1
Mof_C 	C 	0.75494	0.90954	0.5	0.484
Mof_C 	C 	0.7621	0.8799	0.5	-0.171
Mof_C 	C 	0.81256	0.65655	0.5	-0.154
Mof_C 	C 	0.7842	0.7966	0.5	-0.079
Mof_C 	C 	0.7751	0.8233	0.5	0.135
Mof_C 	C 	0.7957	0.7442	0.5	-0.018
Mof_C 	C 	0.7897	0.7736	0.5	0.025
Mof_C 	C 	0.7852	0.64485	0.5	0.204
Mof_C 	C 	0.73	0.6226	0.5	-0.226
Mof_C 	C 	0.7042	0.6102	0.5	0.28
Mof_C 	C 	0.6588	0.5912	0.5	0.401
Mof_C 	C 	0.6855	0.6014	0.5	-0.344
Mof_C 	C 	0.6038	0.5646	0.5	-0.379
Mof_C 	C 	0.576	0.5537	0.5	0.689
Mof_O 	O 	0.52279	0.54312	0.5	-1.702
Mof_O 	O 	0.5	0.72192	0.04046	-1.045
Mof_C 	C 	0.5	0.8096	0.3123	0.1
Mof_C 	C 	0.5	0.75494	0.09046	0.484
Mof_C 	C 	0.5	0.7621	0.1201	-0.171
Mof_C 	C 	0.5	0.81256	0.34345	-0.154
Mof_C 	C 	0.5	0.7842	0.2034	-0.079
Mof_C 	C 	0.5	0.7751	0.1767	0.135
Mof_C 	C 	0.5	0.7957	0.2558	-0.018
Mof_C 	C 	0.5	0.7897	0.2264	0.025
Mof_C 	C 	0.5	0.7852	0.35515	0.204
Mof_C 	C 	0.5	0.73	0.3774	-0.226
Mof_C 	C 	0.5	0.7042	0.3898	0.28
Mof_C 	C 	0.5	0.6588	0.4088	0.401
Mof_C 	C 	0.5	0.6855	0.3986	-0.344
Mof_C 	C 	0.5	0.6038	0.4354	-0.379
Mof_C 	C 	0.5	0.576	0.4463	0.689
Mof_O 	O 	0.5	0.52279	0.45688	-1.702
Mof_O 	O 	0.5	0.27808	0.95954	-1.045
Mof_C 	C 	0.5	0.1904	0.6877	0.1
Mof_C 	C 	0.5	0.24506	0.90954	0.484
Mof_C 	C 	0.5	0.2379	0.8799	-0.171
Mof_C 	C 	0.5	0.18744	0.65655	-0.154
Mof_C 	C 	0.5	0.2158	0.7966	-0.079
Mof_C 	C 	0.5	0.2249	0.8233	0.135
Mof_C 	C 	0.5	0.2043	0.7442	-0.018
Mof_C 	C 	0.5	0.2103	0.7736	0.025
Mof_C 	C 	0.5	0.2148	0.64485	0.204
Mof_C 	C 	0.5	0.27	0.6226	-0.226
Mof_C 	C 	0.5	0.2958	0.6102	0.28
Mof_C 	C 	0.5	0.3412	0.5912	0.401
Mof_C 	C 	0.5	0.3145	0.6014	-0.344
Mof_C 	C 	0.5	0.3962	0.5646	-0.379
Mof_C 	C 	0.5	0.424	0.5537	0.689
Mof_O 	O 	0.5	0.47721	0.54312	-1.702
Mof_O 	O 	0.5	0.27808	0.04046	-1.045
Mof_C 	C 	0.5	0.1904	0.3123	0.1
Mof_C 	C 	0.5	0.24506	0.09046	0.484
Mof_C 	C 	0.5	0.2379	0.1201	-0.171
Mof_C 	C 	0.5	0.18744	0.34345	-0.154
Mof_C 	C 	0.5	0.2158	0.2034	-0.079
Mof_C 	C 	0.5	0.2249	0.1767	0.135
Mof_C 	C 	0.5	0.2043	0.2558	-0.018
Mof_C 	C 	0.5	0.2103	0.2264	0.025
Mof_C 	C 	0.5	0.2148	0.35515	0.204
Mof_C 	C 	0.5	0.27	0.3774	-0.226
Mof_C 	C 	0.5	0.2958	0.3898	0.28
Mof_C 	C 	0.5	0.3412	0.4088	0.401
Mof_C 	C 	0.5	0.3145	0.3986	-0.344
Mof_C 	C 	0.5	0.3962	0.4354	-0.379
Mof_C 	C 	0.5	0.424	0.4463	0.689
Mof_O 	O 	0.5	0.47721	0.45688	-1.702
Mof_O 	O 	0.5	0.72192	0.95954	-1.045
Mof_C 	C 	0.5	0.8096	0.6877	0.1
Mof_C 	C 	0.5	0.75494	0.90954	0.484
Mof_C 	C 	0.5	0.7621	0.8799	-0.171
Mof_C 	C 	0.5	0.81256	0.65655	-0.154
Mof_C 	C 	0.5	0.7842	0.7966	-0.079
Mof_C 	C 	0.5	0.7751	0.8233	0.135
Mof_C 	C 	0.5	0.7957	0.7442	-0.018
Mof_C 	C 	0.5	0.7897	0.7736	0.025
Mof_C 	C 	0.5	0.7852	0.64485	0.204
Mof_C 	C 	0.5	0.73	0.6226	-0.226
Mof_C 	C 	0.5	0.7042	0.6102	0.28
Mof_C 	C 	0.5	0.6588	0.5912	0.401
Mof_C 	C 	0.5	0.6855	0.6014	-0.344
Mof_C 	C 	0.5	0.6038	0.5646	-0.379
Mof_C 	C 	0.5	0.576	0.5537	0.689
Mof_O 	O 	0.5	0.52279	0.54312	-1.702
Mof_O 	O 	0.04046	0.5	0.72192	-1.045
Mof_C 	C 	0.3123	0.5	0.8096	0.1
Mof_C 	C 	0.09046	0.5	0.75494	0.484
Mof_C 	C 	0.1201	0.5	0.7621	-0.171
Mof_C 	C 	0.34345	0.5	0.81256	-0.154
Mof_C 	C 	0.2034	0.5	0.7842	-0.079
Mof_C 	C 	0.1767	0.5	0.7751	0.135
Mof_C 	C 	0.2558	0.5	0.7957	-0.018
Mof_C 	C 	0.2264	0.5	0.7897	0.025
Mof_C 	C 	0.35515	0.5	0.7852	0.204
Mof_C 	C 	0.3774	0.5	0.73	-0.226
Mof_C 	C 	0.3898	0.5	0.7042	0.28
Mof_C 	C 	0.4088	0.5	0.6588	0.401
Mof_C 	C 	0.3986	0.5	0.6855	-0.344
Mof_C 	C 	0.4354	0.5	0.6038	-0.379
Mof_C 	C 	0.4463	0.5	0.576	0.689
Mof_O 	O 	0.45688	0.5	0.52279	-1.702
Mof_O 	O 	0.95954	0.5	0.27808	-1.045
Mof_C 	C 	0.6877	0.5	0.1904	0.1
Mof_C 	C 	0.90954	0.5	0.24506	0.484
Mof_C 	C 	0.8799	0.5	0.2379	-0.171
Mof_C 	C 	0.65655	0.5	0.18744	-0.154
Mof_C 	C 	0.7966	0.5	0.2158	-0.079
Mof_C 	C 	0.8233	0.5	0.2249	0.135
Mof_C 	C 	0.7442	0.5	0.2043	-0.018
Mof_C 	C 	0.7736	0.5	0.2103	0.025
Mof_C 	C 	0.64485	0.5	0.2148	0.204
Mof_C 	C 	0.6226	0.5	0.27	-0.226
Mof_C 	C 	0.6102	0.5	0.2958	0.28
Mof_C 	C 	0.5912	0.5	0.3412	0.401
Mof_C 	C 	0.6014	0.5	0.3145	-0.344
Mof_C 	C 	0.5646	0.5	0.3962	-0.379
Mof_C 	C 	0.5537	0.5	0.424	0.689
Mof_O 	O 	0.54312	0.5	0.47721	-1.702
Mof_O 	O 	0.04046	0.5	0.27808	-1.045
Mof_C 	C 	0.3123	0.5	0.1904	0.1
Mof_C 	C 	0.09046	0.5	0.24506	0.484
Mof_C 	C 	0.1201	0.5	0.2379	-0.171
Mof_C 	C 	0.34345	0.5	0.18744	-0.154
Mof_C 	C 	0.2034	0.5	0.2158	-0.079
Mof_C 	C 	0.1767	0.5	0.2249	0.135
Mof_C 	C 	0.2558	0.5	0.2043	-0.018
Mof_C 	C 	0.2264	0.5	0.2103	0.025
Mof_C 	C 	0.35515	0.5	0.2148	0.204
Mof_C 	C 	0.3774	0.5	0.27	-0.226
Mof_C 	C 	0.3898	0.5	0.2958	0.28
Mof_C 	C 	0.4088	0.5	0.3412	0.401
Mof_C 	C 	0.3986	0.5	0.3145	-0.344
Mof_C 	C 	0.4354	0.5	0.3962	-0.379
Mof_C 	C 	0.4463	0.5	0.424	0.689
Mof_O 	O 	0.45688	0.5	0.47721	-1.702
Mof_O 	O 	0.95954	0.5	0.72192	-1.045
Mof_C 	C 	0.6877	0.5	0.8096	0.1
Mof_C 	C 	0.90954	0.5	0.75494	0.484
Mof_C 	C 	0.8799	0.5	0.7621	-0.171
Mof_C 	C 	0.65655	0.5	0.81256	-0.154
Mof_C 	C 	0.7966	0.5	0.7842	-0.079
Mof_C 	C 	0.8233	0.5	0.7751	0.135
Mof_C 	C 	0.7442	0.5	0.7957	-0.018
Mof_C 	C 	0.7736	0.5	0.7897	0.025
Mof_C 	C 	0.64485	0.5	0.7852	0.204
Mof_C 	C 	0.6226	0.5	0.73	-0.226
Mof_C 	C 	0.6102	0.5	0.7042	0.28
Mof_C 	C 	0.5912	0.5	0.6588	0.401
Mof_C 	C 	0.6014	0.5	0.6855	-0.344
Mof_C 	C 	0.5646	0.5	0.6038	-0.379
Mof_C 	C 	0.5537	0.5	0.576	0.689
Mof_O 	O 	0.54312	0.5	0.52279	-1.702
Mof_O 	O 	0.54046	0.22192	-0	-1.045
Mof_C 	C 	0.8123	0.3096	-0	0.1
Mof_C 	C 	0.59046	0.25494	-0	0.484
Mof_C 	C 	0.6201	0.2621	-0	-0.171
Mof_C 	C 	0.84345	0.31256	-0	-0.154
Mof_C 	C 	0.7034	0.2842	-0	-0.079
Mof_C 	C 	0.6767	0.2751	-0	0.135
Mof_C 	C 	0.7558	0.2957	-0	-0.018
Mof_C 	C 	0.7264	0.2897	-0	0.025
Mof_C 	C 	0.85515	0.2852	-0	0.204
Mof_C 	C 	0.8774	0.23	-0	-0.226
Mof_C 	C 	0.8898	0.2042	-0	0.28
Mof_C 	C 	0.9088	0.1588	-0	0.401
Mof_C 	C 	0.8986	0.1855	-0	-0.344
Mof_C 	C 	0.9354	0.1038	-0	-0.379
Mof_C 	C 	0.9463	0.076	-0	0.689
Mof_O 	O 	0.95688	0.02279	-0	-1.702
Mof_O 	O 	0.45954	0.77808	-0	-1.045
Mof_C 	C 	0.1877	0.6904	-0	0.1
Mof_C 	C 	0.40954	0.74506	-0	0.484
Mof_C 	C 	0.3799	0.7379	-0	-0.171
Mof_C 	C 	0.15655	0.68744	-0	-0.154
Mof_C 	C 	0.2966	0.7158	-0	-0.079
Mof_C 	C 	0.3233	0.7249	-0	0.135
Mof_C 	C 	0.2442	0.7043	-0	-0.018
Mof_C 	C 	0.2736	0.7103	-0	0.025
Mof_C 	C 	0.14485	0.7148	-0	0.204
Mof_C 	C 	0.1226	0.77	-0	-0.226
Mof_C 	C 	0.1102	0.7958	-0	0.28
Mof_C 	C 	0.0912	0.8412	-0	0.401
Mof_C 	C 	0.1014	0.8145	-0	-0.344
Mof_C 	C 	0.0646	0.8962	-0	-0.379
Mof_C 	C 	0.0537	0.924	-0	0.689
Mof_O 	O 	0.04312	0.97721	-0	-1.702
Mof_O 	O 	0.54046	0.77808	-0	-1.045
Mof_C 	C 	0.8123	0.6904	-0	0.1
Mof_C 	C 	0.59046	0.74506	-0	0.484
Mof_C 	C 	0.6201	0.7379	-0	-0.171
Mof_C 	C 	0.84345	0.68744	-0	-0.154
Mof_C 	C 	0.7034	0.7158	-0	-0.079
Mof_C 	C 	0.6767	0.7249	-0	0.135
Mof_C 	C 	0.7558	0.7043	-0	-0.018
Mof_C 	C 	0.7264	0.7103	-0	0.025
Mof_C 	C 	0.85515	0.7148	-0	0.204
Mof_C 	C 	0.8774	0.77	-0	-0.226
Mof_C 	C 	0.8898	0.7958	-0	0.28
Mof_C 	C 	0.9088	0.8412	-0	0.401
Mof_C 	C 	0.8986	0.8145	-0	-0.344
Mof_C 	C 	0.9354	0.8962	-0	-0.379
Mof_C 	C 	0.9463	0.924	-0	0.689
Mof_O 	O 	0.95688	0.97721	-0	-1.702
Mof_O 	O 	0.45954	0.22192	-0	-1.045
Mof_C 	C 	0.1877	0.3096	-0	0.1
Mof_C 	C 	0.40954	0.25494	-0	0.484
Mof_C 	C 	0.3799	0.2621	-0	-0.171
Mof_C 	C 	0.15655	0.31256	-0	-0.154
Mof_C 	C 	0.2966	0.2842	-0	-0.079
Mof_C 	C 	0.3233	0.2751	-0	0.135
Mof_C 	C 	0.2442	0.2957	-0	-0.018
Mof_C 	C 	0.2736	0.2897	-0	0.025
Mof_C 	C 	0.14485	0.2852	-0	0.204
Mof_C 	C 	0.1226	0.23	-0	-0.226
Mof_C 	C 	0.1102	0.2042	-0	0.28
Mof_C 	C 	0.0912	0.1588	-0	0.401
Mof_C 	C 	0.1014	0.1855	-0	-0.344
Mof_C 	C 	0.0646	0.1038	-0	-0.379
Mof_C 	C 	0.0537	0.076	-0	0.689
Mof_O 	O 	0.04312	0.02279	-0	-1.702
Mof_O 	O 	0.22192	-3.46649e-33	0.45954	-1.045
Mof_C 	C 	0.3096	-1.73325e-33	0.1877	0.1
Mof_C 	C 	0.25494	-3.46649e-33	0.40954	0.484
Mof_C 	C 	0.2621	0	0.3799	-0.171
Mof_C 	C 	0.31256	-1.73325e-33	0.15655	-0.154
Mof_C 	C 	0.2842	-3.46649e-33	0.2966	-0.079
Mof_C 	C 	0.2751	0	0.3233	0.135
Mof_C 	C 	0.2957	0	0.2442	-0.018
Mof_C 	C 	0.2897	0	0.2736	0.025
Mof_C 	C 	0.2852	0	0.14485	0.204
Mof_C 	C 	0.23	0	0.1226	-0.226
Mof_C 	C 	0.2042	-8.66623e-34	0.1102	0.28
Mof_C 	C 	0.1588	-1.73325e-33	0.0912	0.401
Mof_C 	C 	0.1855	0	0.1014	-0.344
Mof_C 	C 	0.1038	0	0.0646	-0.379
Mof_C 	C 	0.076	0	0.0537	0.689
Mof_O 	O 	0.02279	0	0.04312	-1.702
Mof_O 	O 	0.77808	0	0.54046	-1.045
Mof_C 	C 	0.6904	0	0.8123	0.1
Mof_C 	C 	0.74506	0	0.59046	0.484
Mof_C 	C 	0.7379	0	0.6201	-0.171
Mof_C 	C 	0.68744	0	0.84345	-0.154
Mof_C 	C 	0.7158	0	0.7034	-0.079
Mof_C 	C 	0.7249	0	0.6767	0.135
Mof_C 	C 	0.7043	0	0.7558	-0.018
Mof_C 	C 	0.7103	0	0.7264	0.025
Mof_C 	C 	0.7148	-6.93298e-33	0.85515	0.204
Mof_C 	C 	0.77	-6.93298e-33	0.8774	-0.226
Mof_C 	C 	0.7958	-6.93298e-33	0.8898	0.28
Mof_C 	C 	0.8412	-6.93298e-33	0.9088	0.401
Mof_C 	C 	0.8145	0	0.8986	-0.344
Mof_C 	C 	0.8962	-6.93298e-33	0.9354	-0.379
Mof_C 	C 	0.924	0	0.9463	0.689
Mof_O 	O 	0.97721	-6.93298e-33	0.95688	-1.702
Mof_O 	O 	0.77808	-3.46649e-33	0.45954	-1.045
Mof_C 	C 	0.6904	-1.73325e-33	0.1877	0.1
Mof_C 	C 	0.74506	-3.46649e-33	0.40954	0.484
Mof_C 	C 	0.7379	0	0.3799	-0.171
Mof_C 	C 	0.68744	-1.73325e-33	0.15655	-0.154
Mof_C 	C 	0.7158	-3.46649e-33	0.2966	-0.079
Mof_C 	C 	0.7249	0	0.3233	0.135
Mof_C 	C 	0.7043	0	0.2442	-0.018
Mof_C 	C 	0.7103	0	0.2736	0.025
Mof_C 	C 	0.7148	0	0.14485	0.204
Mof_C 	C 	0.77	0	0.1226	-0.226
Mof_C 	C 	0.7958	-8.66623e-34	0.1102	0.28
Mof_C 	C 	0.8412	-1.73325e-33	0.0912	0.401
Mof_C 	C 	0.8145	0	0.1014	-0.344
Mof_C 	C 	0.8962	0	0.0646	-0.379
Mof_C 	C 	0.924	0	0.0537	0.689
Mof_O 	O 	0.97721	0	0.04312	-1.702
Mof_O 	O 	0.22192	0	0.54046	-1.045
Mof_C 	C 	0.3096	0	0.8123	0.1
Mof_C 	C 	0.25494	0	0.59046	0.484
Mof_C 	C 	0.2621	0	0.6201	-0.171
Mof_C 	C 	0.31256	0	0.84345	-0.154
Mof_C 	C 	0.2842	0	0.7034	-0.079
Mof_C 	C 	0.2751	0	0.6767	0.135
Mof_C 	C 	0.2957	0	0.7558	-0.018
Mof_C 	C 	0.2897	0	0.7264	0.025
Mof_C 	C 	0.2852	-6.93298e-33	0.85515	0.204
Mof_C 	C 	0.23	-6.93298e-33	0.8774	-0.226
Mof_C 	C 	0.2042	-6.93298e-33	0.8898	0.28
Mof_C 	C 	0.1588	-6.93298e-33	0.9088	0.401
Mof_C 	C 	0.1855	0	0.8986	-0.344
Mof_C 	C 	0.1038	-6.93298e-33	0.9354	-0.379
Mof_C 	C 	0.076	0	0.9463	0.689
Mof_O 	O 	0.02279	-6.93298e-33	0.95688	-1.702
Mof_O 	O 	-1.09486e-32	0.54046	0.77808	-1.045
Mof_C 	C 	2.58859e-33	0.8123	0.6904	0.1
Mof_C 	C 	2.79353e-33	0.59046	0.74506	0.484
Mof_C 	C 	-4.1663e-33	0.6201	0.7379	-0.171
Mof_C 	C 	-1.12885e-32	0.84345	0.68744	-0.154
Mof_C 	C 	2.68382e-33	0.7034	0.7158	-0.079
Mof_C 	C 	-1.1148e-32	0.6767	0.7249	0.135
Mof_C 	C 	9.57368e-33	0.7558	0.7043	-0.018
Mof_C 	C 	2.6632e-33	0.7264	0.7103	0.025
Mof_C 	C 	-1.11859e-32	0.85515	0.7148	0.204
Mof_C 	C 	-1.79119e-32	0.8774	0.77	-0.226
Mof_C 	C 	-2.47482e-32	0.8898	0.7958	0.28
Mof_C 	C 	-1.0712e-32	0.9088	0.8412	0.401
Mof_C 	C 	1.69198e-32	0.8986	0.8145	-0.344
Mof_C 	C 	1.02932e-32	0.9354	0.8962	-0.379
Mof_C 	C 	-1.73345e-32	0.9463	0.924	0.689
Mof_O 	O 	-3.26903e-33	0.95688	0.97721	-1.702
Mof_O 	O 	-1.13007e-32	0.45954	0.22192	-1.045
Mof_C 	C 	-2.30568e-33	0.1877	0.3096	0.1
Mof_C 	C 	-5.97711e-33	0.40954	0.25494	0.484
Mof_C 	C 	-5.95026e-33	0.3799	0.2621	-0.171
Mof_C 	C 	-2.29458e-33	0.15655	0.31256	-0.154
Mof_C 	C 	1.06558e-33	0.2966	0.2842	-0.079
Mof_C 	C 	4.49795e-33	0.3233	0.2751	0.135
Mof_C 	C 	-5.82428e-33	0.2442	0.2957	-0.018
Mof_C 	C 	1.0862e-33	0.2736	0.2897	0.025
Mof_C 	C 	1.06933e-33	0.14485	0.2852	0.204
Mof_C 	C 	-8.70884e-34	0.1226	0.23	-0.226
Mof_C 	C 	7.65627e-34	0.1102	0.2042	0.28
Mof_C 	C 	-2.87109e-33	0.0912	0.1588	0.401
Mof_C 	C 	-2.77098e-33	0.1014	0.1855	-0.344
Mof_C 	C 	3.89188e-34	0.0646	0.1038	-0.379
Mof_C 	C 	-5.81668e-34	0.0537	0.076	0.689
Mof_O 	O 	-5.64518e-34	0.04312	0.02279	-1.702
Mof_O 	O 	-9.01179e-34	0.54046	0.22192	-1.045
Mof_C 	C 	1.16081e-33	0.8123	0.3096	0.1
Mof_C 	C 	-5.97711e-33	0.59046	0.25494	0.484
Mof_C 	C 	-2.48377e-33	0.6201	0.2621	-0.171
Mof_C 	C 	8.10489e-33	0.84345	0.31256	-0.154
Mof_C 	C 	1.06558e-33	0.7034	0.2842	-0.079
Mof_C 	C 	-2.43503e-33	0.6767	0.2751	0.135
Mof_C 	C 	-1.27573e-32	0.7558	0.2957	-0.018
Mof_C 	C 	1.0862e-33	0.7264	0.2897	0.025
Mof_C 	C 	-5.86365e-33	0.85515	0.2852	0.204
Mof_C 	C 	-1.30036e-32	0.8774	0.23	-0.226
Mof_C 	C 	-1.31003e-32	0.8898	0.2042	0.28
Mof_C 	C 	5.95405e-34	0.9088	0.1588	0.401
Mof_C 	C 	6.95514e-34	0.8986	0.1855	-0.344
Mof_C 	C 	-4.81055e-33	0.9354	0.1038	-0.379
Mof_C 	C 	-1.44829e-33	0.9463	0.076	0.689
Mof_O 	O 	-2.29776e-33	0.95688	0.02279	-1.702
Mof_O 	O 	-1.09486e-32	0.45954	0.77808	-1.045
Mof_C 	C 	-4.3444e-33	0.1877	0.6904	0.1
Mof_C 	C 	-1.80054e-32	0.40954	0.74506	0.484
Mof_C 	C 	-4.1663e-33	0.3799	0.7379	-0.171
Mof_C 	C 	-1.12885e-32	0.15655	0.68744	-0.154
Mof_C 	C 	-4.24916e-33	0.2966	0.7158	-0.079
Mof_C 	C 	2.71794e-33	0.3233	0.7249	0.135
Mof_C 	C 	2.6407e-33	0.2442	0.7043	-0.018
Mof_C 	C 	-4.26978e-33	0.2736	0.7103	0.025
Mof_C 	C 	-4.25291e-33	0.14485	0.7148	0.204
Mof_C 	C 	-4.04594e-33	0.1226	0.77	-0.226
Mof_C 	C 	-1.08822e-32	0.1102	0.7958	0.28
Mof_C 	C 	-3.77899e-33	0.0912	0.8412	0.401
Mof_C 	C 	3.05389e-33	0.1014	0.8145	-0.344
Mof_C 	C 	-3.57277e-33	0.0646	0.8962	-0.379
Mof_C 	C 	-3.46854e-33	0.0537	0.924	0.689
Mof_O 	O 	3.66395e-33	0.04312	0.97721	-1.702
Mof_O 	O 	0.7283	0	0.53103	-1.435
Mof_O 	O 	0.2717	0	0.53103	-1.435
Mof_O 	O 	0.2717	0	0.46897	-1.435
Mof_O 	O 	0.7283	0	0.46897	-1.435
Mof_O 	O 	0.53103	0.7283	-0	-1.435
Mof_O 	O 	0.53103	0.2717	-0	-1.435
Mof_O 	O 	0.46897	0.2717	-0	-1.435
Mof_O 	O 	0.46897	0.7283	-0	-1.435
Mof_O 	O 	-1.11353e-32	0.53103	0.7283	-1.435
Mof_O 	O 	-2.44778e-33	0.53103	0.2717	-1.435
Mof_O 	O 	-5.91427e-33	0.46897	0.2717	-1.435
Mof_O 	O 	2.73069e-33	0.46897	0.7283	-1.435
Mof_O 	O 	0.5	0.2283	0.96897	-1.435
Mof_O 	O 	0.5	0.7717	0.96897	-1.435
Mof_O 	O 	0.5	0.7717	0.03103	-1.435
Mof_O 	O 	0.5	0.2283	0.03103	-1.435
Mof_O 	O 	0.2283	0.03103	0.5	-1.435
Mof_O 	O 	0.7717	0.03103	0.5	-1.435
Mof_O 	O 	0.7717	0.96897	0.5	-1.435
Mof_O 	O 	0.2283	0.96897	0.5	-1.435
Mof_O 	O 	0.03103	0.5	0.7717	-1.435
Mof_O 	O 	0.03103	0.5	0.2283	-1.435
Mof_O 	O 	0.96897	0.5	0.2283	-1.435
Mof_O 	O 	0.96897	0.5	0.7717	-1.435
_end
