data_functionalizedCrystal
_audit_creation_method	'EQeq! by Chris Wilmer'
_symmetry_space_group_name_H-M	'P1'
_symmetry_Int_Tables_number	1
_symmetry_cell_setting	triclinic
loop_
_symmetry_equiv_pos_as_xyz
  x,y,z
_cell_length_a	6.3964
_cell_length_b	8.9842
_cell_length_c	26.376
_cell_angle_alpha	90
_cell_angle_beta	90
_cell_angle_gamma	90
loop_
_atom_site_label
_atom_site_type_symbol
_atom_site_fract_x
_atom_site_fract_y
_atom_site_fract_z
_atom_site_charge
Mof_Zn	Zn	1.10304e-32	0	0.71344	1.184
Mof_Zn	Zn	0.5	-1.66543e-32	0.78656	1.198
Mof_Zn	Zn	-2.0551e-32	0	0.28656	1.184
Mof_Zn	Zn	0.5	0	0.21344	1.198
Mof_H 	H 	0.7501	0.8784	0.6256	0.044
Mof_H 	H 	0.7452	0.8739	0.5394	0.084
Mof_H 	H 	0.2501	0.1216	0.8744	0.042
Mof_H 	H 	0.2452	0.1261	0.9606	0.084
Mof_H 	H 	0.7499	0.8784	0.8744	0.055
Mof_H 	H 	0.7548	0.8739	0.9606	0.101
Mof_H 	H 	0.2499	0.1216	0.6256	0.055
Mof_H 	H 	0.2548	0.1261	0.5394	0.088
Mof_H 	H 	0.2499	0.1216	0.3744	0.055
Mof_H 	H 	0.2548	0.1261	0.4606	0.088
Mof_H 	H 	0.7499	0.8784	0.1256	0.055
Mof_H 	H 	0.7548	0.8739	0.0394	0.101
Mof_H 	H 	0.2501	0.1216	0.1256	0.042
Mof_H 	H 	0.2452	0.1261	0.0394	0.084
Mof_H 	H 	0.7501	0.8784	0.3744	0.044
Mof_H 	H 	0.7452	0.8739	0.4606	0.084
Mof_C 	C 	0.7546	0.4923	0.79427	0.354
Mof_C 	C 	0.7584	0.3385	0.79435	0.153
Mof_C 	C 	0.8545	0.9289	0.60809	0.258
Mof_C 	C 	0.8501	0.9261	0.55611	0.103
Mof_C 	C 	0.2546	0.5077	0.70573	0.342
Mof_C 	C 	0.2584	0.6615	0.70565	0.151
Mof_C 	C 	0.3545	0.0711	0.89191	0.079
Mof_C 	C 	0.3501	0.0739	0.94389	-0.082
Mof_C 	C 	0.7454	0.4923	0.70573	0.354
Mof_C 	C 	0.7416	0.3385	0.70565	0.153
Mof_C 	C 	0.6455	0.9289	0.89191	0.232
Mof_C 	C 	0.6499	0.9261	0.94389	0.053
Mof_C 	C 	0.2454	0.5077	0.79427	0.342
Mof_C 	C 	0.2416	0.6615	0.79435	0.151
Mof_C 	C 	0.1455	0.0711	0.60809	0.062
Mof_C 	C 	0.1499	0.0739	0.55611	-0.066
Mof_C 	C 	0.2454	0.5077	0.20573	0.342
Mof_C 	C 	0.2416	0.6615	0.20565	0.151
Mof_C 	C 	0.1455	0.0711	0.39191	0.062
Mof_C 	C 	0.1499	0.0739	0.44389	-0.066
Mof_C 	C 	0.7454	0.4923	0.29427	0.354
Mof_C 	C 	0.7416	0.3385	0.29435	0.153
Mof_C 	C 	0.6455	0.9289	0.10809	0.232
Mof_C 	C 	0.6499	0.9261	0.05611	0.053
Mof_C 	C 	0.2546	0.5077	0.29427	0.342
Mof_C 	C 	0.2584	0.6615	0.29435	0.151
Mof_C 	C 	0.3545	0.0711	0.10809	0.079
Mof_C 	C 	0.3501	0.0739	0.05611	-0.082
Mof_C 	C 	0.7546	0.4923	0.20573	0.354
Mof_C 	C 	0.7584	0.3385	0.20565	0.153
Mof_C 	C 	0.8545	0.9289	0.39191	0.258
Mof_C 	C 	0.8501	0.9261	0.44389	0.103
Mof_C 	C 	8.17264e-33	0	0.5286	-0.093
Mof_C 	C 	0.5	-3.33086e-32	0.9714	-0.046
Mof_C 	C 	-9.36603e-33	-1.66543e-32	0.4714	-0.093
Mof_C 	C 	0.5	0	0.0286	-0.046
Mof_C 	C 	0.75	0.7433	0.75	0.475
Mof_C 	C 	0.75	0.5754	0.75	-0.268
Mof_C 	C 	0.75	0.2554	0.75	0.076
Mof_C 	C 	0.25	0.2567	0.75	0.483
Mof_C 	C 	0.25	0.4246	0.75	-0.289
Mof_C 	C 	0.25	0.7446	0.75	0.054
Mof_C 	C 	0.25	0.2567	0.25	0.483
Mof_C 	C 	0.25	0.4246	0.25	-0.289
Mof_C 	C 	0.25	0.7446	0.25	0.054
Mof_C 	C 	0.75	0.7433	0.25	0.475
Mof_C 	C 	0.75	0.5754	0.25	-0.268
Mof_C 	C 	0.75	0.2554	0.25	0.076
Mof_N 	N 	-2.34948e-32	-1.66543e-32	0.63475	-0.317
Mof_N 	N 	0.5	0	0.86525	-0.292
Mof_N 	N 	5.6471e-33	-8.32715e-33	0.36525	-0.317
Mof_N 	N 	0.5	0	0.13475	-0.292
Mof_O 	O 	0.8362	0.8061	0.71311	-0.354
Mof_O 	O 	0.3362	0.1939	0.78689	-0.446
Mof_O 	O 	0.6638	0.8061	0.78689	-0.368
Mof_O 	O 	0.1638	0.1939	0.71311	-0.454
Mof_O 	O 	0.1638	0.1939	0.28689	-0.454
Mof_O 	O 	0.6638	0.8061	0.21311	-0.368
Mof_O 	O 	0.3362	0.1939	0.21311	-0.446
Mof_O 	O 	0.8362	0.8061	0.28689	-0.354
Mof_O 	O 	0.75	0.1061	0.75	-0.468
Mof_O 	O 	0.25	0.8939	0.75	-0.364
Mof_O 	O 	0.25	0.8939	0.25	-0.364
Mof_O 	O 	0.75	0.1061	0.25	-0.468
Mof_F 	F 	0.7638	0.5605	0.83999	-0.35
Mof_F 	F 	0.7706	0.2663	0.83917	-0.375
Mof_F 	F 	0.2638	0.4395	0.66001	-0.368
Mof_F 	F 	0.2706	0.7337	0.66083	-0.354
Mof_F 	F 	0.7362	0.5605	0.66001	-0.351
Mof_F 	F 	0.7294	0.2663	0.66083	-0.375
Mof_F 	F 	0.2362	0.4395	0.83999	-0.371
Mof_F 	F 	0.2294	0.7337	0.83917	-0.359
Mof_F 	F 	0.2362	0.4395	0.16001	-0.371
Mof_F 	F 	0.2294	0.7337	0.16083	-0.359
Mof_F 	F 	0.7362	0.5605	0.33999	-0.351
Mof_F 	F 	0.7294	0.2663	0.33917	-0.375
Mof_F 	F 	0.2638	0.4395	0.33999	-0.368
Mof_F 	F 	0.2706	0.7337	0.33917	-0.354
Mof_F 	F 	0.7638	0.5605	0.16001	-0.35
Mof_F 	F 	0.7706	0.2663	0.16083	-0.375
_end
