data_functionalizedCrystal
_audit_creation_method	'EQeq! by Chris Wilmer'
_symmetry_space_group_name_H-M	'P1'
_symmetry_Int_Tables_number	1
_symmetry_cell_setting	triclinic
loop_
_symmetry_equiv_pos_as_xyz
  x,y,z
_cell_length_a	15.0624
_cell_length_b	15.0624
_cell_length_c	19.2541
_cell_angle_alpha	90
_cell_angle_beta	90
_cell_angle_gamma	90
loop_
_atom_site_label
_atom_site_type_symbol
_atom_site_fract_x
_atom_site_fract_y
_atom_site_fract_z
_atom_site_charge
Mof_O 	O 	0.94407	0.12067	0.05772	-0.493
Mof_C 	C 	0.82803	0.26332	0.062	-0.011
Mof_H 	H 	0.851	0.2429	0.1039	0.045
Mof_C 	C 	0.956	0.0778	0.211	2.829
Mof_H 	H 	0.9061	0.0953	0.1823	-0.357
Mof_H 	H 	0.9969	0.1274	0.2149	-0.758
Mof_C 	C 	0.9158	0.027	0.2089	-2.423
Mof_O 	O 	0.44407	0.62067	0.55772	-0.47
Mof_C 	C 	0.32803	0.76332	0.562	-0.015
Mof_H 	H 	0.351	0.7429	0.6039	0.043
Mof_C 	C 	0.456	0.5778	0.711	-0.064
Mof_H 	H 	0.4061	0.5953	0.6823	0.039
Mof_H 	H 	0.4969	0.6274	0.7149	0.045
Mof_C 	C 	0.4158	0.527	0.7089	0.004
Mof_O 	O 	0.05593	0.87933	0.05772	-0.493
Mof_C 	C 	0.17197	0.73668	0.062	0.002
Mof_H 	H 	0.149	0.7571	0.1039	0.038
Mof_C 	C 	0.044	0.9222	0.211	-2.947
Mof_H 	H 	0.0939	0.9047	0.1823	0.445
Mof_H 	H 	0.0031	0.8726	0.2149	0.811
Mof_C 	C 	0.0842	0.973	0.2089	2.206
Mof_O 	O 	0.55593	0.37933	0.55772	-0.463
Mof_C 	C 	0.67197	0.23668	0.562	-0.024
Mof_H 	H 	0.649	0.2571	0.6039	0.057
Mof_C 	C 	0.544	0.4222	0.711	-0.028
Mof_H 	H 	0.5939	0.4047	0.6823	0.031
Mof_H 	H 	0.5031	0.3726	0.7149	0.051
Mof_C 	C 	0.5842	0.473	0.7089	-0.032
Mof_O 	O 	0.87933	0.94407	0.05772	-0.593
Mof_C 	C 	0.73668	0.82803	0.062	0.003
Mof_H 	H 	0.7571	0.851	0.1039	0.002
Mof_C 	C 	0.9222	0.956	0.211	0.064
Mof_H 	H 	0.9047	0.9061	0.1823	-0.302
Mof_H 	H 	0.8726	0.9969	0.2149	0.922
Mof_C 	C 	0.973	0.9158	0.2089	0.6
Mof_O 	O 	0.37933	0.44407	0.55772	-0.46
Mof_C 	C 	0.23668	0.32803	0.562	0.011
Mof_H 	H 	0.2571	0.351	0.6039	0.06
Mof_C 	C 	0.4222	0.456	0.711	-0.056
Mof_H 	H 	0.4047	0.4061	0.6823	0.05
Mof_H 	H 	0.3726	0.4969	0.7149	0.051
Mof_C 	C 	0.473	0.4158	0.7089	-0.016
Mof_O 	O 	0.12067	0.05593	0.05772	-0.411
Mof_C 	C 	0.26332	0.17197	0.062	-0.007
Mof_H 	H 	0.2429	0.149	0.1039	0.077
Mof_C 	C 	0.0778	0.044	0.211	-0.488
Mof_H 	H 	0.0953	0.0939	0.1823	0.419
Mof_H 	H 	0.1274	0.0031	0.2149	-0.655
Mof_C 	C 	0.027	0.0842	0.2089	-0.519
Mof_O 	O 	0.62067	0.55593	0.55772	-0.473
Mof_C 	C 	0.76332	0.67197	0.562	-0.055
Mof_H 	H 	0.7429	0.649	0.6039	0.04
Mof_C 	C 	0.5778	0.544	0.711	-0.036
Mof_H 	H 	0.5953	0.5939	0.6823	0.02
Mof_H 	H 	0.6274	0.5031	0.7149	0.045
Mof_C 	C 	0.527	0.5842	0.7089	-0.011
Mof_O 	O 	0.05593	0.12067	0.44228	-0.416
Mof_C 	C 	0.17197	0.26332	0.438	-0.01
Mof_H 	H 	0.149	0.2429	0.3961	0.08
Mof_C 	C 	0.044	0.0778	0.289	-0.483
Mof_H 	H 	0.0939	0.0953	0.3177	0.42
Mof_H 	H 	0.0031	0.1274	0.2851	-0.656
Mof_C 	C 	0.0842	0.027	0.2911	-0.525
Mof_O 	O 	0.55593	0.62067	0.94228	-0.424
Mof_C 	C 	0.67197	0.76332	0.938	-0.002
Mof_H 	H 	0.649	0.7429	0.8961	0.03
Mof_C 	C 	0.544	0.5778	0.789	-0.036
Mof_H 	H 	0.5939	0.5953	0.8177	0.021
Mof_H 	H 	0.5031	0.6274	0.7851	0.046
Mof_C 	C 	0.5842	0.527	0.7911	-0.013
Mof_O 	O 	0.94407	0.87933	0.44228	-0.601
Mof_C 	C 	0.82803	0.73668	0.438	-0
Mof_H 	H 	0.851	0.7571	0.3961	0.004
Mof_C 	C 	0.956	0.9222	0.289	0.059
Mof_H 	H 	0.9061	0.9047	0.3177	-0.301
Mof_H 	H 	0.9969	0.8726	0.2851	0.925
Mof_C 	C 	0.9158	0.973	0.2911	0.603
Mof_O 	O 	0.44407	0.37933	0.94228	-0.411
Mof_C 	C 	0.32803	0.23668	0.938	0.064
Mof_H 	H 	0.351	0.2571	0.8961	0.05
Mof_C 	C 	0.456	0.4222	0.789	-0.055
Mof_H 	H 	0.4061	0.4047	0.8177	0.051
Mof_H 	H 	0.4969	0.3726	0.7851	0.052
Mof_C 	C 	0.4158	0.473	0.7911	-0.017
Mof_O 	O 	0.12067	0.94407	0.44228	-0.498
Mof_C 	C 	0.26332	0.82803	0.438	-0.014
Mof_H 	H 	0.2429	0.851	0.3961	0.048
Mof_C 	C 	0.0778	0.956	0.289	2.833
Mof_H 	H 	0.0953	0.9061	0.3177	-0.356
Mof_H 	H 	0.1274	0.9969	0.2851	-0.756
Mof_C 	C 	0.027	0.9158	0.2911	-2.426
Mof_O 	O 	0.62067	0.44407	0.94228	-0.421
Mof_C 	C 	0.76332	0.32803	0.938	0.038
Mof_H 	H 	0.7429	0.351	0.8961	0.032
Mof_C 	C 	0.5778	0.456	0.789	-0.063
Mof_H 	H 	0.5953	0.4061	0.8177	0.04
Mof_H 	H 	0.6274	0.4969	0.7851	0.046
Mof_C 	C 	0.527	0.4158	0.7911	0.003
Mof_O 	O 	0.87933	0.05593	0.44228	-0.499
Mof_C 	C 	0.73668	0.17197	0.438	-0.001
Mof_H 	H 	0.7571	0.149	0.3961	0.041
Mof_C 	C 	0.9222	0.044	0.289	-2.951
Mof_H 	H 	0.9047	0.0939	0.3177	0.447
Mof_H 	H 	0.8726	0.0031	0.2851	0.812
Mof_C 	C 	0.973	0.0842	0.2911	2.207
Mof_O 	O 	0.37933	0.55593	0.94228	-0.414
Mof_C 	C 	0.23668	0.67197	0.938	0.029
Mof_H 	H 	0.2571	0.649	0.8961	0.046
Mof_C 	C 	0.4222	0.544	0.789	-0.027
Mof_H 	H 	0.4047	0.5939	0.8177	0.033
Mof_H 	H 	0.3726	0.5031	0.7851	0.052
Mof_C 	C 	0.473	0.5842	0.7911	-0.033
Mof_O 	O 	0.05593	0.87933	0.94228	-0.45
Mof_C 	C 	0.17197	0.73668	0.938	0.051
Mof_H 	H 	0.149	0.7571	0.8961	0.032
Mof_C 	C 	0.044	0.9222	0.789	-2.949
Mof_H 	H 	0.0939	0.9047	0.8177	0.448
Mof_H 	H 	0.0031	0.8726	0.7851	0.815
Mof_C 	C 	0.0842	0.973	0.7911	2.205
Mof_O 	O 	0.55593	0.37933	0.44228	-0.464
Mof_C 	C 	0.67197	0.23668	0.438	-0.024
Mof_H 	H 	0.649	0.2571	0.3961	0.056
Mof_C 	C 	0.544	0.4222	0.289	-0.027
Mof_H 	H 	0.5939	0.4047	0.3177	0.03
Mof_H 	H 	0.5031	0.3726	0.2851	0.05
Mof_C 	C 	0.5842	0.473	0.2911	-0.032
Mof_O 	O 	0.94407	0.12067	0.94228	-0.45
Mof_C 	C 	0.82803	0.26332	0.938	0.038
Mof_H 	H 	0.851	0.2429	0.8961	0.039
Mof_C 	C 	0.956	0.0778	0.789	2.831
Mof_H 	H 	0.9061	0.0953	0.8177	-0.353
Mof_H 	H 	0.9969	0.1274	0.7851	-0.755
Mof_C 	C 	0.9158	0.027	0.7911	-2.426
Mof_O 	O 	0.44407	0.62067	0.44228	-0.47
Mof_C 	C 	0.32803	0.76332	0.438	-0.015
Mof_H 	H 	0.351	0.7429	0.3961	0.042
Mof_C 	C 	0.456	0.5778	0.289	-0.063
Mof_H 	H 	0.4061	0.5953	0.3177	0.038
Mof_H 	H 	0.4969	0.6274	0.2851	0.044
Mof_C 	C 	0.4158	0.527	0.2911	0.004
Mof_O 	O 	0.12067	0.05593	0.94228	-0.368
Mof_C 	C 	0.26332	0.17197	0.938	0.042
Mof_H 	H 	0.2429	0.149	0.8961	0.07
Mof_C 	C 	0.0778	0.044	0.789	-0.488
Mof_H 	H 	0.0953	0.0939	0.8177	0.423
Mof_H 	H 	0.1274	0.0031	0.7851	-0.653
Mof_C 	C 	0.027	0.0842	0.7911	-0.521
Mof_O 	O 	0.62067	0.55593	0.44228	-0.474
Mof_C 	C 	0.76332	0.67197	0.438	-0.055
Mof_H 	H 	0.7429	0.649	0.3961	0.039
Mof_C 	C 	0.5778	0.544	0.289	-0.035
Mof_H 	H 	0.5953	0.5939	0.3177	0.019
Mof_H 	H 	0.6274	0.5031	0.2851	0.044
Mof_C 	C 	0.527	0.5842	0.2911	-0.012
Mof_O 	O 	0.87933	0.94407	0.94228	-0.551
Mof_C 	C 	0.73668	0.82803	0.938	0.051
Mof_H 	H 	0.7571	0.851	0.8961	-0.005
Mof_C 	C 	0.9222	0.956	0.789	0.064
Mof_H 	H 	0.9047	0.9061	0.8177	-0.299
Mof_H 	H 	0.8726	0.9969	0.7851	0.925
Mof_C 	C 	0.973	0.9158	0.7911	0.598
Mof_O 	O 	0.37933	0.44407	0.44228	-0.46
Mof_C 	C 	0.23668	0.32803	0.438	0.011
Mof_H 	H 	0.2571	0.351	0.3961	0.059
Mof_C 	C 	0.4222	0.456	0.289	-0.055
Mof_H 	H 	0.4047	0.4061	0.3177	0.049
Mof_H 	H 	0.3726	0.4969	0.2851	0.05
Mof_C 	C 	0.473	0.4158	0.2911	-0.017
Mof_O 	O 	0.94407	0.87933	0.55772	-0.601
Mof_C 	C 	0.82803	0.73668	0.562	-0
Mof_H 	H 	0.851	0.7571	0.6039	0.005
Mof_C 	C 	0.956	0.9222	0.711	0.058
Mof_H 	H 	0.9061	0.9047	0.6823	-0.3
Mof_H 	H 	0.9969	0.8726	0.7149	0.926
Mof_C 	C 	0.9158	0.973	0.7089	0.604
Mof_O 	O 	0.44407	0.37933	0.05772	-0.454
Mof_C 	C 	0.32803	0.23668	0.062	0.014
Mof_H 	H 	0.351	0.2571	0.1039	0.057
Mof_C 	C 	0.456	0.4222	0.211	-0.055
Mof_H 	H 	0.4061	0.4047	0.1823	0.048
Mof_H 	H 	0.4969	0.3726	0.2149	0.049
Mof_C 	C 	0.4158	0.473	0.2089	-0.016
Mof_O 	O 	0.05593	0.12067	0.55772	-0.416
Mof_C 	C 	0.17197	0.26332	0.562	-0.01
Mof_H 	H 	0.149	0.2429	0.6039	0.081
Mof_C 	C 	0.044	0.0778	0.711	-0.484
Mof_H 	H 	0.0939	0.0953	0.6823	0.421
Mof_H 	H 	0.0031	0.1274	0.7149	-0.656
Mof_C 	C 	0.0842	0.027	0.7089	-0.525
Mof_O 	O 	0.55593	0.62067	0.05772	-0.467
Mof_C 	C 	0.67197	0.76332	0.062	-0.051
Mof_H 	H 	0.649	0.7429	0.1039	0.037
Mof_C 	C 	0.544	0.5778	0.211	-0.036
Mof_H 	H 	0.5939	0.5953	0.1823	0.018
Mof_H 	H 	0.5031	0.6274	0.2149	0.044
Mof_C 	C 	0.5842	0.527	0.2089	-0.011
Mof_O 	O 	0.87933	0.05593	0.55772	-0.498
Mof_C 	C 	0.73668	0.17197	0.562	-0.001
Mof_H 	H 	0.7571	0.149	0.6039	0.042
Mof_C 	C 	0.9222	0.044	0.711	-2.953
Mof_H 	H 	0.9047	0.0939	0.6823	0.448
Mof_H 	H 	0.8726	0.0031	0.7149	0.813
Mof_C 	C 	0.973	0.0842	0.7089	2.208
Mof_O 	O 	0.37933	0.55593	0.05772	-0.458
Mof_C 	C 	0.23668	0.67197	0.062	-0.021
Mof_H 	H 	0.2571	0.649	0.1039	0.053
Mof_C 	C 	0.4222	0.544	0.211	-0.027
Mof_H 	H 	0.4047	0.5939	0.1823	0.029
Mof_H 	H 	0.3726	0.5031	0.2149	0.049
Mof_C 	C 	0.473	0.5842	0.2089	-0.032
Mof_O 	O 	0.12067	0.94407	0.55772	-0.498
Mof_C 	C 	0.26332	0.82803	0.562	-0.014
Mof_H 	H 	0.2429	0.851	0.6039	0.049
Mof_C 	C 	0.0778	0.956	0.711	2.834
Mof_H 	H 	0.0953	0.9061	0.6823	-0.356
Mof_H 	H 	0.1274	0.9969	0.7149	-0.755
Mof_C 	C 	0.027	0.9158	0.7089	-2.426
Mof_O 	O 	0.62067	0.44407	0.05772	-0.464
Mof_C 	C 	0.76332	0.32803	0.062	-0.012
Mof_H 	H 	0.7429	0.351	0.1039	0.039
Mof_C 	C 	0.5778	0.456	0.211	-0.064
Mof_H 	H 	0.5953	0.4061	0.1823	0.037
Mof_H 	H 	0.6274	0.4969	0.2149	0.043
Mof_C 	C 	0.527	0.4158	0.2089	0.005
Mof_Zn	Zn	-3.55031e-34	0	0.07664	1.314
Mof_N 	N 	3.76601e-33	2.88941e-33	0.1829	0.077
Mof_Zn	Zn	0.5	0.5	0.57664	1.214
Mof_N 	N 	0.5	0.5	0.6829	-0.187
Mof_Zn	Zn	7.8079e-33	5.77882e-33	0.42336	1.321
Mof_N 	N 	1.5198e-33	2.88941e-33	0.3171	0.079
Mof_Zn	Zn	0.5	0.5	0.92336	1.216
Mof_N 	N 	0.5	0.5	0.8171	-0.188
Mof_Zn	Zn	-7.13214e-33	-1.15576e-32	0.92336	1.321
Mof_N 	N 	3.91621e-33	0	0.8171	0.077
Mof_Zn	Zn	0.5	0.5	0.42336	1.214
Mof_N 	N 	0.5	0.5	0.3171	-0.187
Mof_Zn	Zn	8.54255e-33	5.77882e-33	0.57664	1.321
Mof_N 	N 	3.27301e-33	0	0.6829	0.079
Mof_Zn	Zn	0.5	0.5	0.07664	1.209
Mof_N 	N 	0.5	0.5	0.1829	-0.188
Mof_C 	C 	0.921	0.1507	-0	0.355
Mof_C 	C 	0.8591	0.2286	-0	-0.133
Mof_C 	C 	0.421	0.6507	0.5	0.391
Mof_C 	C 	0.3591	0.7286	0.5	-0.087
Mof_C 	C 	0.079	0.8493	-0	0.356
Mof_C 	C 	0.1409	0.7714	-0	-0.144
Mof_C 	C 	0.579	0.3493	0.5	0.389
Mof_C 	C 	0.6409	0.2714	0.5	-0.071
Mof_C 	C 	0.8493	0.921	-0	0.353
Mof_C 	C 	0.7714	0.8591	-0	-0.189
Mof_C 	C 	0.3493	0.421	0.5	0.4
Mof_C 	C 	0.2714	0.3591	0.5	-0.077
Mof_C 	C 	0.1507	0.079	-0	0.361
Mof_C 	C 	0.2286	0.1409	-0	-0.096
Mof_C 	C 	0.6507	0.579	0.5	0.378
Mof_C 	C 	0.7286	0.6409	0.5	-0.078
Mof_C 	C 	0.079	0.1507	0.5	0.415
Mof_C 	C 	0.1409	0.2286	0.5	-0.048
Mof_C 	C 	0.579	0.6507	-0	0.324
Mof_C 	C 	0.6409	0.7286	-0	-0.125
Mof_C 	C 	0.921	0.8493	0.5	0.405
Mof_C 	C 	0.8591	0.7714	0.5	-0.144
Mof_C 	C 	0.421	0.3493	-0	0.346
Mof_C 	C 	0.3591	0.2714	-0	-0.125
Mof_C 	C 	0.1507	0.921	0.5	0.408
Mof_C 	C 	0.2286	0.8591	0.5	-0.086
Mof_C 	C 	0.6507	0.421	-0	0.337
Mof_C 	C 	0.7286	0.3591	-0	-0.134
Mof_C 	C 	0.8493	0.079	0.5	0.409
Mof_C 	C 	0.7714	0.1409	0.5	-0.097
Mof_C 	C 	0.3493	0.579	-0	0.334
Mof_C 	C 	0.2714	0.6409	-0	-0.118
_end
