data_functionalizedCrystal
_audit_creation_method	'EQeq! by Chris Wilmer'
_symmetry_space_group_name_H-M	'P1'
_symmetry_Int_Tables_number	1
_symmetry_cell_setting	triclinic
loop_
_symmetry_equiv_pos_as_xyz
  x,y,z
_cell_length_a	13.715
_cell_length_b	13.715
_cell_length_c	7.9523
_cell_angle_alpha	90
_cell_angle_beta	90
_cell_angle_gamma	90
loop_
_atom_site_label
_atom_site_type_symbol
_atom_site_fract_x
_atom_site_fract_y
_atom_site_fract_z
_atom_site_charge
Mof_C 	C 	0.0227	0.19917	0.1404	-0.062
Mof_C 	C 	0.02506	0.30028	0.1469	-0.15
Mof_H 	H 	0.0353	0.1575	0.2551	0.013
Mof_H 	H 	0.0366	0.3363	0.2674	0.056
Mof_C 	C 	0.9773	0.80083	0.1404	0.095
Mof_C 	C 	0.97494	0.69972	0.1469	0.066
Mof_H 	H 	0.9647	0.8425	0.2551	-0.024
Mof_H 	H 	0.9634	0.6637	0.2674	0.005
Mof_C 	C 	0.80083	0.0227	0.1404	-0.064
Mof_C 	C 	0.69972	0.02506	0.1469	-0.146
Mof_H 	H 	0.8425	0.0353	0.2551	0.014
Mof_H 	H 	0.6637	0.0366	0.2674	0.055
Mof_C 	C 	0.19917	0.9773	0.1404	0.096
Mof_C 	C 	0.30028	0.97494	0.1469	0.07
Mof_H 	H 	0.1575	0.9647	0.2551	-0.022
Mof_H 	H 	0.3363	0.9634	0.2674	0.005
Mof_C 	C 	0.9773	0.19917	0.8596	0.01
Mof_C 	C 	0.97494	0.30028	0.8531	-0.044
Mof_H 	H 	0.9647	0.1575	0.7449	-0.002
Mof_H 	H 	0.9634	0.3363	0.7326	0.032
Mof_C 	C 	0.0227	0.80083	0.8596	0.062
Mof_C 	C 	0.02506	0.69972	0.8531	0.023
Mof_H 	H 	0.0353	0.8425	0.7449	-0.017
Mof_H 	H 	0.0366	0.6637	0.7326	0.014
Mof_C 	C 	0.19917	0.0227	0.8596	0.022
Mof_C 	C 	0.30028	0.02506	0.8531	-0.037
Mof_H 	H 	0.1575	0.0353	0.7449	-0.008
Mof_H 	H 	0.3363	0.0366	0.7326	0.028
Mof_C 	C 	0.80083	0.9773	0.8596	-0.032
Mof_C 	C 	0.69972	0.97494	0.8531	-0.104
Mof_H 	H 	0.8425	0.9647	0.7449	0.007
Mof_H 	H 	0.6637	0.9634	0.7326	0.046
Mof_C 	C 	0.9773	0.80083	0.8596	-0.032
Mof_C 	C 	0.97494	0.69972	0.8531	-0.104
Mof_H 	H 	0.9647	0.8425	0.7449	0.007
Mof_H 	H 	0.9634	0.6637	0.7326	0.046
Mof_C 	C 	0.0227	0.19917	0.8596	0.022
Mof_C 	C 	0.02506	0.30028	0.8531	-0.037
Mof_H 	H 	0.0353	0.1575	0.7449	-0.008
Mof_H 	H 	0.0366	0.3363	0.7326	0.028
Mof_C 	C 	0.19917	0.9773	0.8596	0.01
Mof_C 	C 	0.30028	0.97494	0.8531	-0.044
Mof_H 	H 	0.1575	0.9647	0.7449	-0.002
Mof_H 	H 	0.3363	0.9634	0.7326	0.032
Mof_C 	C 	0.80083	0.0227	0.8596	0.062
Mof_C 	C 	0.69972	0.02506	0.8531	0.023
Mof_H 	H 	0.8425	0.0353	0.7449	-0.017
Mof_H 	H 	0.6637	0.0366	0.7326	0.014
Mof_C 	C 	0.0227	0.80083	0.1404	-0.064
Mof_C 	C 	0.02506	0.69972	0.1469	-0.146
Mof_H 	H 	0.0353	0.8425	0.2551	0.014
Mof_H 	H 	0.0366	0.6637	0.2674	0.055
Mof_C 	C 	0.9773	0.19917	0.1404	0.096
Mof_C 	C 	0.97494	0.30028	0.1469	0.07
Mof_H 	H 	0.9647	0.1575	0.2551	-0.022
Mof_H 	H 	0.9634	0.3363	0.2674	0.005
Mof_C 	C 	0.80083	0.9773	0.1404	0.095
Mof_C 	C 	0.69972	0.97494	0.1469	0.066
Mof_H 	H 	0.8425	0.9647	0.2551	-0.024
Mof_H 	H 	0.6637	0.9634	0.2674	0.005
Mof_C 	C 	0.19917	0.0227	0.1404	-0.061
Mof_C 	C 	0.30028	0.02506	0.1469	-0.149
Mof_H 	H 	0.1575	0.0353	0.2551	0.013
Mof_H 	H 	0.3363	0.0366	0.2674	0.056
Mof_C 	C 	-4.21897e-33	0.3521	-0	0.037
Mof_C 	C 	-0	0.4553	-0	-0.033
Mof_N 	N 	-0	0.14897	-0	-0.221
Mof_C 	C 	-0	0.6479	-0	0.038
Mof_C 	C 	-4.21897e-33	0.5447	-0	-0.033
Mof_N 	N 	-8.43793e-33	0.85103	-0	-0.22
Mof_C 	C 	0.6479	0	-0	0.038
Mof_C 	C 	0.5447	0	-0	-0.033
Mof_N 	N 	0.85103	0	-0	-0.22
Mof_C 	C 	0.3521	0	-0	0.037
Mof_C 	C 	0.4553	0	-0	-0.033
Mof_N 	N 	0.14897	0	-0	-0.221
Mof_Cu	Cu	-0	0	-0	0.846
Mof_C 	C 	0.5227	0.69917	0.6404	0.006
Mof_C 	C 	0.52506	0.80028	0.6469	-0.053
Mof_H 	H 	0.5353	0.6575	0.7551	-0.003
Mof_H 	H 	0.5366	0.8363	0.7674	0.033
Mof_C 	C 	0.4773	0.30083	0.6404	0.02
Mof_C 	C 	0.47494	0.19972	0.6469	-0.036
Mof_H 	H 	0.4647	0.3425	0.7551	-0.006
Mof_H 	H 	0.4634	0.1637	0.7674	0.029
Mof_C 	C 	0.30083	0.5227	0.6404	0.012
Mof_C 	C 	0.19972	0.52506	0.6469	-0.046
Mof_H 	H 	0.3425	0.5353	0.7551	-0.004
Mof_H 	H 	0.1637	0.5366	0.7674	0.031
Mof_C 	C 	0.69917	0.4773	0.6404	0.026
Mof_C 	C 	0.80028	0.47494	0.6469	-0.027
Mof_H 	H 	0.6575	0.4647	0.7551	-0.008
Mof_H 	H 	0.8363	0.4634	0.7674	0.026
Mof_C 	C 	0.4773	0.69917	0.3596	0.007
Mof_C 	C 	0.47494	0.80028	0.3531	-0.052
Mof_H 	H 	0.4647	0.6575	0.2449	-0.003
Mof_H 	H 	0.4634	0.8363	0.2326	0.032
Mof_C 	C 	0.5227	0.30083	0.3596	0.015
Mof_C 	C 	0.52506	0.19972	0.3531	-0.043
Mof_H 	H 	0.5353	0.3425	0.2449	-0.005
Mof_H 	H 	0.5366	0.1637	0.2326	0.032
Mof_C 	C 	0.69917	0.5227	0.3596	0.025
Mof_C 	C 	0.80028	0.52506	0.3531	-0.028
Mof_H 	H 	0.6575	0.5353	0.2449	-0.007
Mof_H 	H 	0.8363	0.5366	0.2326	0.026
Mof_C 	C 	0.30083	0.4773	0.3596	0.018
Mof_C 	C 	0.19972	0.47494	0.3531	-0.039
Mof_H 	H 	0.3425	0.4647	0.2449	-0.005
Mof_H 	H 	0.1637	0.4634	0.2326	0.032
Mof_C 	C 	0.4773	0.30083	0.3596	0.018
Mof_C 	C 	0.47494	0.19972	0.3531	-0.039
Mof_H 	H 	0.4647	0.3425	0.2449	-0.005
Mof_H 	H 	0.4634	0.1637	0.2326	0.032
Mof_C 	C 	0.5227	0.69917	0.3596	0.025
Mof_C 	C 	0.52506	0.80028	0.3531	-0.028
Mof_H 	H 	0.5353	0.6575	0.2449	-0.007
Mof_H 	H 	0.5366	0.8363	0.2326	0.026
Mof_C 	C 	0.69917	0.4773	0.3596	0.007
Mof_C 	C 	0.80028	0.47494	0.3531	-0.052
Mof_H 	H 	0.6575	0.4647	0.2449	-0.003
Mof_H 	H 	0.8363	0.4634	0.2326	0.032
Mof_C 	C 	0.30083	0.5227	0.3596	0.015
Mof_C 	C 	0.19972	0.52506	0.3531	-0.043
Mof_H 	H 	0.3425	0.5353	0.2449	-0.005
Mof_H 	H 	0.1637	0.5366	0.2326	0.032
Mof_C 	C 	0.5227	0.30083	0.6404	0.012
Mof_C 	C 	0.52506	0.19972	0.6469	-0.046
Mof_H 	H 	0.5353	0.3425	0.7551	-0.004
Mof_H 	H 	0.5366	0.1637	0.7674	0.031
Mof_C 	C 	0.4773	0.69917	0.6404	0.026
Mof_C 	C 	0.47494	0.80028	0.6469	-0.027
Mof_H 	H 	0.4647	0.6575	0.7551	-0.008
Mof_H 	H 	0.4634	0.8363	0.7674	0.026
Mof_C 	C 	0.30083	0.4773	0.6404	0.02
Mof_C 	C 	0.19972	0.47494	0.6469	-0.036
Mof_H 	H 	0.3425	0.4647	0.7551	-0.006
Mof_H 	H 	0.1637	0.4634	0.7674	0.029
Mof_C 	C 	0.69917	0.5227	0.6404	0.006
Mof_C 	C 	0.80028	0.52506	0.6469	-0.053
Mof_H 	H 	0.6575	0.5353	0.7551	-0.003
Mof_H 	H 	0.8363	0.5366	0.7674	0.033
Mof_C 	C 	0.5	0.8521	0.5	0.036
Mof_C 	C 	0.5	0.9553	0.5	-0.027
Mof_N 	N 	0.5	0.64897	0.5	-0.22
Mof_C 	C 	0.5	0.1479	0.5	0.041
Mof_C 	C 	0.5	0.0447	0.5	-0.038
Mof_N 	N 	0.5	0.35103	0.5	-0.22
Mof_C 	C 	0.1479	0.5	0.5	0.041
Mof_C 	C 	0.0447	0.5	0.5	-0.038
Mof_N 	N 	0.35103	0.5	0.5	-0.22
Mof_C 	C 	0.8521	0.5	0.5	0.036
Mof_C 	C 	0.9553	0.5	0.5	-0.027
Mof_N 	N 	0.64897	0.5	0.5	-0.22
Mof_Cu	Cu	0.5	0.5	0.5	0.848
_end
