data_functionalizedCrystal
_audit_creation_method	'EQeq! by Chris Wilmer'
_symmetry_space_group_name_H-M	'P1'
_symmetry_Int_Tables_number	1
_symmetry_cell_setting	triclinic
loop_
_symmetry_equiv_pos_as_xyz
  x,y,z
_cell_length_a	14.915
_cell_length_b	15.7739
_cell_length_c	16.032
_cell_angle_alpha	100.659
_cell_angle_beta	112.209
_cell_angle_gamma	107.228
loop_
_atom_site_label
_atom_site_type_symbol
_atom_site_fract_x
_atom_site_fract_y
_atom_site_fract_z
_atom_site_charge
Mof_Cd	Cd	0.63231	0.76886	0.80324	0.501
Mof_Cd	Cd	0.69141	0.57245	0.8202	0.525
Mof_Cd	Cd	0.78987	0.76336	0.06296	0.494
Mof_O 	O 	0.7996	0.7374	0.8681	-0.286
Mof_O 	O 	0.9179	0.8079	0.022	-0.271
Mof_O 	O 	0.2492	0.0783	0.1205	-0.254
Mof_O 	O 	0.2663	0.1353	0.009	-0.264
Mof_O 	O 	0.5015	0.7974	0.8514	-0.24
Mof_O 	O 	0.4617	0.7493	0.6997	-0.263
Mof_O 	O 	0.9413	0.8111	0.2145	0.464
Mof_O 	O 	0.8007	0.8174	0.2112	0.632
Mof_O 	O 	0.5914	0.6467	0.8606	-0.291
Mof_O 	O 	0.6172	0.6847	0.0114	-0.248
Mof_O 	O 	0.3466	0.5118	0.0894	-0.251
Mof_O 	O 	0.2092	0.3849	0.9771	-0.272
Mof_O 	O 	0.8457	0.5876	0.8065	0.189
Mof_O 	O 	0.7282	0.4455	0.7474	-0.436
Mof_O 	O 	0.3332	0.2415	0.3308	-0.253
Mof_O 	O 	0.3881	0.3761	0.307	-0.279
Mof_N 	N 	0.0155	0.8518	0.6976	-0.093
Mof_N 	N 	0.1935	0.4563	0.6702	-0.098
Mof_C 	C 	0.8905	0.7919	0.9344	0.298
Mof_C 	C 	0.9725	0.8469	0.9099	-0.035
Mof_C 	C 	0.0588	0.9264	0.98076	-0.016
Mof_H 	H 	0.068	0.94251	0.04442	0.069
Mof_C 	C 	0.1317	0.9825	0.95843	-0.028
Mof_C 	C 	0.1182	0.9589	0.8653	-0.075
Mof_H 	H 	0.16798	0.99722	0.85002	0.077
Mof_C 	C 	0.0319	0.8794	0.79447	0.091
Mof_C 	C 	0.959	0.82335	0.8168	-0.076
Mof_H 	H 	0.90004	0.76898	0.7684	0.074
Mof_C 	C 	0.2213	0.0708	0.0338	0.286
Mof_C 	C 	0.0122	0.7572	0.6594	-0.134
Mof_H 	H 	0.9714	0.73429	0.58883	0.071
Mof_H 	H 	0.9743	0.71317	0.68337	0.072
Mof_C 	C 	0.1215	0.7556	0.6869	0.102
Mof_C 	C 	0.1562	0.7467	0.61785	-0.134
Mof_H 	H 	0.11056	0.73765	0.55363	0.071
Mof_C 	C 	0.2578	0.7509	0.6428	0.036
Mof_H 	H 	0.28158	0.74481	0.59564	0.03
Mof_C 	C 	0.3246	0.7641	0.7368	-0.093
Mof_C 	C 	0.2899	0.773	0.8058	0.041
Mof_H 	H 	0.33554	0.78205	0.86999	0.042
Mof_C 	C 	0.1883	0.7688	0.7808	-0.132
Mof_H 	H 	0.16452	0.77489	0.82798	0.085
Mof_C 	C 	0.4365	0.7713	0.7641	0.293
Mof_C 	C 	0.074	0.9235	0.6697	-0.093
Mof_H 	H 	0.14816	0.92951	0.69544	0.031
Mof_H 	H 	0.07492	0.98485	0.69929	0.034
Mof_C 	C 	0.0287	0.902	0.5631	0.04
Mof_C 	C 	0.922	0.881	0.5093	-0.092
Mof_H 	H 	0.87838	0.88108	0.53984	-0.023
Mof_C 	C 	0.879	0.8605	0.4108	-0.007
Mof_H 	H 	0.80599	0.8461	0.37396	-0.543
Mof_C 	C 	0.9427	0.861	0.366	-0.04
Mof_C 	C 	0.0495	0.882	0.4199	0.046
Mof_H 	H 	0.09309	0.88226	0.38931	0.086
Mof_C 	C 	0.0925	0.903	0.5184	-0.017
Mof_H 	H 	0.16548	0.91724	0.55518	0.057
Mof_C 	C 	0.8936	0.8283	0.2591	-0.099
Mof_C 	C 	0.5592	0.6424	0.924	0.3
Mof_C 	C 	0.44653	0.5814	0.8918	-0.025
Mof_C 	C 	0.4175	0.5536	0.95837	-0.023
Mof_H 	H 	0.46779	0.57743	0.02405	0.079
Mof_C 	C 	0.3147	0.4907	0.9289	-0.023
Mof_C 	C 	0.2411	0.4558	0.8328	-0.073
Mof_H 	H 	0.1709	0.41287	0.81259	0.072
Mof_C 	C 	0.2702	0.4837	0.76616	0.093
Mof_C 	C 	0.3729	0.5465	0.7957	-0.077
Mof_H 	H 	0.39275	0.56553	0.75014	0.078
Mof_C 	C 	0.2874	0.4603	0.0024	0.285
Mof_C 	C 	0.0895	0.3837	0.6355	-0.08
Mof_H 	H 	0.0971	0.33041	0.65745	0.026
Mof_H 	H 	0.05465	0.36026	0.56474	0.022
Mof_C 	C 	0.0191	0.4165	0.6684	0.013
Mof_C 	C 	0.9239	0.3498	0.6527	-0.053
Mof_H 	H 	0.90433	0.28488	0.62232	-0.017
Mof_C 	C 	0.8573	0.3782	0.6815	-0.054
Mof_H 	H 	0.79228	0.3326	0.67082	0.035
Mof_C 	C 	0.8859	0.4732	0.726	-0.132
Mof_C 	C 	0.9811	0.5398	0.7417	0.103
Mof_H 	H 	0.00065	0.60473	0.77209	-0.019
Mof_C 	C 	0.0477	0.5115	0.7129	0.001
Mof_H 	H 	0.11271	0.55701	0.72359	0.072
Mof_C 	C 	0.8157	0.5026	0.7613	0.053
Mof_C 	C 	0.2166	0.5025	0.6055	-0.14
Mof_H 	H 	0.26534	0.56919	0.64313	0.079
Mof_H 	H 	0.14997	0.50191	0.5586	0.075
Mof_C 	C 	0.266	0.4587	0.5501	0.112
Mof_C 	C 	0.2513	0.3648	0.5332	-0.136
Mof_H 	H 	0.21954	0.32898	0.56374	0.075
Mof_C 	C 	0.283	0.3231	0.4714	0.047
Mof_H 	H 	0.27297	0.25893	0.45983	0.026
Mof_C 	C 	0.3295	0.3755	0.4267	-0.103
Mof_C 	C 	0.3442	0.4695	0.4437	0.052
Mof_H 	H 	0.37592	0.50524	0.4131	0.035
Mof_C 	C 	0.3124	0.5111	0.5054	-0.141
Mof_H 	H 	0.32249	0.5753	0.51701	0.089
Mof_C 	C 	0.3516	0.3281	0.3507	0.307
Mof_O 	O 	0.9216	0.8392	0.2171	-0.714
Mof_O 	O 	0.7675	0.7925	0.2115	-0.835
Mof_O 	O 	0.8034	0.5431	0.7806	-0.51
Mof_O 	O 	0.6899	0.3959	0.7016	-0.044
Mof_H 	H 	0.14687	0.92678	0.69066	0.031
Mof_H 	H 	0.07855	0.98585	0.70135	0.037
Mof_C 	C 	0.019	0.899	0.5623	0.029
Mof_C 	C 	0.9099	0.87	0.5137	-0.039
Mof_H 	H 	0.86986	0.86649	0.54802	0.086
Mof_C 	C 	0.8594	0.8473	0.4149	0.182
Mof_H 	H 	0.78485	0.8275	0.38164	0.513
Mof_C 	C 	0.918	0.8531	0.3646	0.005
Mof_C 	C 	0.027	0.882	0.4132	-0.026
Mof_H 	H 	0.06707	0.88613	0.37888	-0.06
Mof_C 	C 	0.0775	0.905	0.512	-0.059
Mof_H 	H 	0.15209	0.92512	0.54526	-0.007
Mof_C 	C 	0.8646	0.8263	0.2579	0.305
Mof_H 	H 	0.099	0.33322	0.66188	0.023
Mof_H 	H 	0.05959	0.3565	0.56528	0.023
Mof_C 	C 	0.0073	0.4068	0.6551	0.024
Mof_C 	C 	0.9172	0.3327	0.6388	0.002
Mof_H 	H 	0.90625	0.26952	0.611	0.049
Mof_C 	C 	0.8431	0.351	0.6632	0.048
Mof_H 	H 	0.78149	0.3003	0.65209	-0.004
Mof_C 	C 	0.8591	0.4434	0.7039	-0.016
Mof_C 	C 	0.9491	0.5175	0.7202	-0.053
Mof_H 	H 	0.96007	0.58066	0.74801	0.027
Mof_C 	C 	0.0233	0.4992	0.6958	-0.062
Mof_H 	H 	0.08483	0.54987	0.70693	-0.023
Mof_C 	C 	0.7783	0.4614	0.7301	0.634
Mof_Cd	Cd	0.36769	0.23114	0.19676	0.501
Mof_Cd	Cd	0.30859	0.42755	0.1798	0.525
Mof_Cd	Cd	0.21013	0.23664	0.93704	0.494
Mof_O 	O 	0.2004	0.2626	0.1319	-0.286
Mof_O 	O 	0.0821	0.1921	0.978	-0.271
Mof_O 	O 	0.7508	0.9217	0.8795	-0.254
Mof_O 	O 	0.7337	0.8647	0.991	-0.264
Mof_O 	O 	0.4985	0.2026	0.1486	-0.24
Mof_O 	O 	0.5383	0.2507	0.3003	-0.263
Mof_O 	O 	0.0587	0.1889	0.7855	0.464
Mof_O 	O 	0.1993	0.1826	0.7888	0.632
Mof_O 	O 	0.4086	0.3533	0.1394	-0.291
Mof_O 	O 	0.3828	0.3153	0.9886	-0.248
Mof_O 	O 	0.6534	0.4882	0.9106	-0.251
Mof_O 	O 	0.7908	0.6151	0.0229	-0.272
Mof_O 	O 	0.1543	0.4124	0.1935	0.189
Mof_O 	O 	0.2718	0.5545	0.2526	-0.436
Mof_O 	O 	0.6668	0.7585	0.6692	-0.253
Mof_O 	O 	0.6119	0.6239	0.693	-0.279
Mof_N 	N 	0.9845	0.1482	0.3024	-0.093
Mof_N 	N 	0.8065	0.5437	0.3298	-0.098
Mof_C 	C 	0.1095	0.2081	0.0656	0.298
Mof_C 	C 	0.0275	0.1531	0.0901	-0.035
Mof_C 	C 	0.9412	0.0736	0.01924	-0.016
Mof_H 	H 	0.932	0.05749	0.95558	0.069
Mof_C 	C 	0.8683	0.0175	0.04157	-0.028
Mof_C 	C 	0.8818	0.0411	0.1347	-0.075
Mof_H 	H 	0.83202	0.00278	0.14998	0.077
Mof_C 	C 	0.9681	0.1206	0.20553	0.091
Mof_C 	C 	0.041	0.17665	0.1832	-0.076
Mof_H 	H 	0.09996	0.23102	0.2316	0.074
Mof_C 	C 	0.7787	0.9292	0.9662	0.286
Mof_C 	C 	0.9878	0.2428	0.3406	-0.134
Mof_H 	H 	0.0286	0.26571	0.41117	0.071
Mof_H 	H 	0.0257	0.28683	0.31663	0.072
Mof_C 	C 	0.8785	0.2444	0.3131	0.102
Mof_C 	C 	0.8438	0.2533	0.38215	-0.134
Mof_H 	H 	0.88944	0.26235	0.44637	0.071
Mof_C 	C 	0.7422	0.2491	0.3572	0.036
Mof_H 	H 	0.71842	0.25519	0.40436	0.03
Mof_C 	C 	0.6754	0.2359	0.2632	-0.093
Mof_C 	C 	0.7101	0.227	0.1942	0.041
Mof_H 	H 	0.66446	0.21795	0.13001	0.042
Mof_C 	C 	0.8117	0.2312	0.2192	-0.132
Mof_H 	H 	0.83548	0.22511	0.17202	0.085
Mof_C 	C 	0.5635	0.2287	0.2359	0.293
Mof_C 	C 	0.926	0.0765	0.3303	-0.093
Mof_H 	H 	0.85184	0.07049	0.30456	0.031
Mof_H 	H 	0.92508	0.01515	0.30071	0.034
Mof_C 	C 	0.9713	0.098	0.4369	0.04
Mof_C 	C 	0.078	0.119	0.4907	-0.092
Mof_H 	H 	0.12162	0.11892	0.46016	-0.023
Mof_C 	C 	0.121	0.1395	0.5892	-0.007
Mof_H 	H 	0.19401	0.1539	0.62604	-0.543
Mof_C 	C 	0.0573	0.139	0.634	-0.04
Mof_C 	C 	0.9505	0.118	0.5801	0.046
Mof_H 	H 	0.90691	0.11774	0.61069	0.086
Mof_C 	C 	0.9075	0.097	0.4816	-0.017
Mof_H 	H 	0.83452	0.08276	0.44482	0.057
Mof_C 	C 	0.1064	0.1717	0.7409	-0.099
Mof_C 	C 	0.4408	0.3576	0.076	0.3
Mof_C 	C 	0.55347	0.4186	0.1082	-0.025
Mof_C 	C 	0.5825	0.4464	0.04163	-0.023
Mof_H 	H 	0.53221	0.42257	0.97595	0.079
Mof_C 	C 	0.6853	0.5093	0.0711	-0.023
Mof_C 	C 	0.7589	0.5442	0.1672	-0.073
Mof_H 	H 	0.8291	0.58713	0.18741	0.072
Mof_C 	C 	0.7298	0.5163	0.23384	0.093
Mof_C 	C 	0.6271	0.4535	0.2043	-0.077
Mof_H 	H 	0.60725	0.43447	0.24986	0.078
Mof_C 	C 	0.7126	0.5397	0.9976	0.285
Mof_C 	C 	0.9105	0.6163	0.3645	-0.08
Mof_H 	H 	0.9029	0.66959	0.34255	0.026
Mof_H 	H 	0.94535	0.63974	0.43526	0.022
Mof_C 	C 	0.9809	0.5835	0.3316	0.013
Mof_C 	C 	0.0761	0.6502	0.3473	-0.053
Mof_H 	H 	0.09567	0.71512	0.37768	-0.017
Mof_C 	C 	0.1427	0.6218	0.3185	-0.054
Mof_H 	H 	0.20772	0.6674	0.32918	0.035
Mof_C 	C 	0.1141	0.5268	0.274	-0.132
Mof_C 	C 	0.0189	0.4602	0.2583	0.103
Mof_H 	H 	0.99935	0.39527	0.22791	-0.019
Mof_C 	C 	0.9523	0.4885	0.2871	0.001
Mof_H 	H 	0.88729	0.44299	0.27641	0.072
Mof_C 	C 	0.1843	0.4974	0.2387	0.053
Mof_C 	C 	0.7834	0.4975	0.3945	-0.14
Mof_H 	H 	0.73466	0.43081	0.35687	0.079
Mof_H 	H 	0.85003	0.49809	0.4414	0.075
Mof_C 	C 	0.734	0.5413	0.4499	0.112
Mof_C 	C 	0.7487	0.6352	0.4668	-0.136
Mof_H 	H 	0.78046	0.67102	0.43626	0.075
Mof_C 	C 	0.717	0.6769	0.5286	0.047
Mof_H 	H 	0.72703	0.74107	0.54017	0.026
Mof_C 	C 	0.6705	0.6245	0.5733	-0.103
Mof_C 	C 	0.6558	0.5305	0.5563	0.052
Mof_H 	H 	0.62408	0.49476	0.5869	0.035
Mof_C 	C 	0.6876	0.4889	0.4946	-0.141
Mof_H 	H 	0.67751	0.4247	0.48299	0.089
Mof_C 	C 	0.6484	0.6719	0.6493	0.307
Mof_O 	O 	0.0784	0.1608	0.7829	-0.714
Mof_O 	O 	0.2325	0.2075	0.7885	-0.835
Mof_O 	O 	0.1966	0.4569	0.2194	-0.51
Mof_O 	O 	0.3101	0.6041	0.2984	-0.044
Mof_H 	H 	0.85313	0.07322	0.30934	0.031
Mof_H 	H 	0.92145	0.01415	0.29865	0.037
Mof_C 	C 	0.981	0.101	0.4377	0.029
Mof_C 	C 	0.0901	0.13	0.4863	-0.039
Mof_H 	H 	0.13014	0.13351	0.45198	0.086
Mof_C 	C 	0.1406	0.1527	0.5851	0.182
Mof_H 	H 	0.21515	0.1725	0.61836	0.513
Mof_C 	C 	0.082	0.1469	0.6354	0.005
Mof_C 	C 	0.973	0.118	0.5868	-0.026
Mof_H 	H 	0.93293	0.11387	0.62112	-0.06
Mof_C 	C 	0.9225	0.095	0.488	-0.059
Mof_H 	H 	0.84791	0.07488	0.45474	-0.007
Mof_C 	C 	0.1354	0.1737	0.7421	0.305
Mof_H 	H 	0.901	0.66678	0.33812	0.023
Mof_H 	H 	0.94041	0.6435	0.43472	0.023
Mof_C 	C 	0.9927	0.5932	0.3449	0.024
Mof_C 	C 	0.0828	0.6673	0.3612	0.002
Mof_H 	H 	0.09375	0.73048	0.389	0.049
Mof_C 	C 	0.1569	0.649	0.3368	0.048
Mof_H 	H 	0.21851	0.6997	0.34791	-0.004
Mof_C 	C 	0.1409	0.5566	0.2961	-0.016
Mof_C 	C 	0.0509	0.4825	0.2798	-0.053
Mof_H 	H 	0.03993	0.41934	0.25199	0.027
Mof_C 	C 	0.9767	0.5008	0.3042	-0.062
Mof_H 	H 	0.91517	0.45013	0.29307	-0.023
Mof_C 	C 	0.2217	0.5386	0.2699	0.634
_end
