data_functionalizedCrystal
_audit_creation_method	'EQeq! by Chris Wilmer'
_symmetry_space_group_name_H-M	'P1'
_symmetry_Int_Tables_number	1
_symmetry_cell_setting	triclinic
loop_
_symmetry_equiv_pos_as_xyz
  x,y,z
_cell_length_a	17.1794
_cell_length_b	17.1794
_cell_length_c	17.1794
_cell_angle_alpha	90
_cell_angle_beta	90
_cell_angle_gamma	90
loop_
_atom_site_label
_atom_site_type_symbol
_atom_site_fract_x
_atom_site_fract_y
_atom_site_fract_z
_atom_site_charge
Mof_C 	C 	0.5317	0.1662	0.4383	0.337
Mof_C 	C 	0.535	0.0847	0.437	-0.647
Mof_N 	N 	0.564	0.047	0.366	-0.954
Mof_C 	C 	0.5439	0.006	0.307	0.267
Mof_C 	C 	0.599	0.973	0.244	0.021
Mof_C 	C 	0.57	0.948	0.173	-0.132
Mof_C 	C 	0.678	0.97	0.259	-0.104
Mof_C 	C 	0.728	0.941	0.203	0.071
Mof_H 	H 	0.5565	0.1933	0.3982	-0.071
Mof_H 	H 	0.5164	0.9499	0.1632	0.078
Mof_H 	H 	0.6006	0.9015	0.0695	-0.06
Mof_H 	H 	0.7332	0.896	0.0943	0.081
Mof_H 	H 	0.7816	0.9388	0.2128	-0.003
Mof_H 	H 	0.6974	0.9872	0.3066	0.07
Mof_H 	H 	0.558	0.0587	0.3971	1.021
Mof_C 	C 	0.62	0.919	0.117	0.15
Mof_C 	C 	0.699	0.915	0.132	-0.165
Mof_C 	C 	0.4683	0.8338	0.4383	0.338
Mof_C 	C 	0.465	0.9153	0.437	-0.646
Mof_N 	N 	0.436	0.953	0.366	-0.953
Mof_C 	C 	0.4561	0.994	0.307	0.268
Mof_C 	C 	0.401	0.027	0.244	0.022
Mof_C 	C 	0.43	0.052	0.173	-0.131
Mof_C 	C 	0.322	0.03	0.259	-0.103
Mof_C 	C 	0.272	0.059	0.203	0.071
Mof_H 	H 	0.4435	0.8067	0.3982	-0.071
Mof_H 	H 	0.4836	0.0501	0.1632	0.078
Mof_H 	H 	0.3994	0.0985	0.0695	-0.06
Mof_H 	H 	0.2668	0.104	0.0943	0.081
Mof_H 	H 	0.2184	0.0612	0.2128	-0.003
Mof_H 	H 	0.3026	0.0128	0.3066	0.07
Mof_H 	H 	0.442	0.9413	0.3971	1.021
Mof_C 	C 	0.38	0.081	0.117	0.15
Mof_C 	C 	0.301	0.085	0.132	-0.165
Mof_C 	C 	0.4683	0.1662	0.5617	0.338
Mof_C 	C 	0.465	0.0847	0.563	-0.646
Mof_N 	N 	0.436	0.047	0.634	-0.953
Mof_C 	C 	0.4561	0.006	0.693	0.268
Mof_C 	C 	0.401	0.973	0.756	0.022
Mof_C 	C 	0.43	0.948	0.827	-0.131
Mof_C 	C 	0.322	0.97	0.741	-0.103
Mof_C 	C 	0.272	0.941	0.797	0.071
Mof_H 	H 	0.4435	0.1933	0.6018	-0.071
Mof_H 	H 	0.4836	0.9499	0.8368	0.078
Mof_H 	H 	0.3994	0.9015	0.9305	-0.06
Mof_H 	H 	0.2668	0.896	0.9057	0.081
Mof_H 	H 	0.2184	0.9388	0.7872	-0.003
Mof_H 	H 	0.3026	0.9872	0.6934	0.07
Mof_H 	H 	0.442	0.0587	0.6029	1.021
Mof_C 	C 	0.38	0.919	0.883	0.15
Mof_C 	C 	0.301	0.915	0.868	-0.165
Mof_C 	C 	0.5317	0.8338	0.5617	0.338
Mof_C 	C 	0.535	0.9153	0.563	-0.646
Mof_N 	N 	0.564	0.953	0.634	-0.953
Mof_C 	C 	0.5439	0.994	0.693	0.268
Mof_C 	C 	0.599	0.027	0.756	0.022
Mof_C 	C 	0.57	0.052	0.827	-0.131
Mof_C 	C 	0.678	0.03	0.741	-0.103
Mof_C 	C 	0.728	0.059	0.797	0.071
Mof_H 	H 	0.5565	0.8067	0.6018	-0.071
Mof_H 	H 	0.5164	0.0501	0.8368	0.078
Mof_H 	H 	0.6006	0.0985	0.9305	-0.06
Mof_H 	H 	0.7332	0.104	0.9057	0.081
Mof_H 	H 	0.7816	0.0612	0.7872	-0.003
Mof_H 	H 	0.6974	0.0128	0.6934	0.07
Mof_H 	H 	0.558	0.9413	0.6029	1.021
Mof_C 	C 	0.62	0.081	0.883	0.15
Mof_C 	C 	0.699	0.085	0.868	-0.165
Mof_C 	C 	0.4383	0.5317	0.1662	0.338
Mof_C 	C 	0.437	0.535	0.0847	-0.646
Mof_N 	N 	0.366	0.564	0.047	-0.953
Mof_C 	C 	0.307	0.5439	0.006	0.268
Mof_C 	C 	0.244	0.599	0.973	0.022
Mof_C 	C 	0.173	0.57	0.948	-0.131
Mof_C 	C 	0.259	0.678	0.97	-0.103
Mof_C 	C 	0.203	0.728	0.941	0.071
Mof_H 	H 	0.3982	0.5565	0.1933	-0.071
Mof_H 	H 	0.1632	0.5164	0.9499	0.078
Mof_H 	H 	0.0695	0.6006	0.9015	-0.06
Mof_H 	H 	0.0943	0.7332	0.896	0.081
Mof_H 	H 	0.2128	0.7816	0.9388	-0.003
Mof_H 	H 	0.3066	0.6974	0.9872	0.07
Mof_H 	H 	0.3971	0.558	0.0587	1.021
Mof_C 	C 	0.117	0.62	0.919	0.15
Mof_C 	C 	0.132	0.699	0.915	-0.165
Mof_C 	C 	0.4383	0.4683	0.8338	0.338
Mof_C 	C 	0.437	0.465	0.9153	-0.646
Mof_N 	N 	0.366	0.436	0.953	-0.953
Mof_C 	C 	0.307	0.4561	0.994	0.268
Mof_C 	C 	0.244	0.401	0.027	0.022
Mof_C 	C 	0.173	0.43	0.052	-0.131
Mof_C 	C 	0.259	0.322	0.03	-0.103
Mof_C 	C 	0.203	0.272	0.059	0.071
Mof_H 	H 	0.3982	0.4435	0.8067	-0.071
Mof_H 	H 	0.1632	0.4836	0.0501	0.078
Mof_H 	H 	0.0695	0.3994	0.0985	-0.06
Mof_H 	H 	0.0943	0.2668	0.104	0.081
Mof_H 	H 	0.2128	0.2184	0.0612	-0.003
Mof_H 	H 	0.3066	0.3026	0.0128	0.07
Mof_H 	H 	0.3971	0.442	0.9413	1.021
Mof_C 	C 	0.117	0.38	0.081	0.15
Mof_C 	C 	0.132	0.301	0.085	-0.165
Mof_C 	C 	0.5617	0.4683	0.1662	0.338
Mof_C 	C 	0.563	0.465	0.0847	-0.646
Mof_N 	N 	0.634	0.436	0.047	-0.953
Mof_C 	C 	0.693	0.4561	0.006	0.268
Mof_C 	C 	0.756	0.401	0.973	0.022
Mof_C 	C 	0.827	0.43	0.948	-0.131
Mof_C 	C 	0.741	0.322	0.97	-0.103
Mof_C 	C 	0.797	0.272	0.941	0.071
Mof_H 	H 	0.6018	0.4435	0.1933	-0.071
Mof_H 	H 	0.8368	0.4836	0.9499	0.078
Mof_H 	H 	0.9305	0.3994	0.9015	-0.06
Mof_H 	H 	0.9057	0.2668	0.896	0.081
Mof_H 	H 	0.7872	0.2184	0.9388	-0.003
Mof_H 	H 	0.6934	0.3026	0.9872	0.07
Mof_H 	H 	0.6029	0.442	0.0587	1.021
Mof_C 	C 	0.883	0.38	0.919	0.15
Mof_C 	C 	0.868	0.301	0.915	-0.165
Mof_C 	C 	0.5617	0.5317	0.8338	0.338
Mof_C 	C 	0.563	0.535	0.9153	-0.646
Mof_N 	N 	0.634	0.564	0.953	-0.953
Mof_C 	C 	0.693	0.5439	0.994	0.268
Mof_C 	C 	0.756	0.599	0.027	0.022
Mof_C 	C 	0.827	0.57	0.052	-0.131
Mof_C 	C 	0.741	0.678	0.03	-0.103
Mof_C 	C 	0.797	0.728	0.059	0.071
Mof_H 	H 	0.6018	0.5565	0.8067	-0.071
Mof_H 	H 	0.8368	0.5164	0.0501	0.078
Mof_H 	H 	0.9305	0.6006	0.0985	-0.06
Mof_H 	H 	0.9057	0.7332	0.104	0.081
Mof_H 	H 	0.7872	0.7816	0.0612	-0.003
Mof_H 	H 	0.6934	0.6974	0.0128	0.07
Mof_H 	H 	0.6029	0.558	0.9413	1.021
Mof_C 	C 	0.883	0.62	0.081	0.15
Mof_C 	C 	0.868	0.699	0.085	-0.165
Mof_C 	C 	0.1662	0.4383	0.5317	0.338
Mof_C 	C 	0.0847	0.437	0.535	-0.646
Mof_N 	N 	0.047	0.366	0.564	-0.953
Mof_C 	C 	0.006	0.307	0.5439	0.268
Mof_C 	C 	0.973	0.244	0.599	0.022
Mof_C 	C 	0.948	0.173	0.57	-0.131
Mof_C 	C 	0.97	0.259	0.678	-0.103
Mof_C 	C 	0.941	0.203	0.728	0.071
Mof_H 	H 	0.1933	0.3982	0.5565	-0.071
Mof_H 	H 	0.9499	0.1632	0.5164	0.078
Mof_H 	H 	0.9015	0.0695	0.6006	-0.06
Mof_H 	H 	0.896	0.0943	0.7332	0.081
Mof_H 	H 	0.9388	0.2128	0.7816	-0.003
Mof_H 	H 	0.9872	0.3066	0.6974	0.07
Mof_H 	H 	0.0587	0.3971	0.558	1.021
Mof_C 	C 	0.919	0.117	0.62	0.15
Mof_C 	C 	0.915	0.132	0.699	-0.165
Mof_C 	C 	0.8338	0.4383	0.4683	0.338
Mof_C 	C 	0.9153	0.437	0.465	-0.646
Mof_N 	N 	0.953	0.366	0.436	-0.953
Mof_C 	C 	0.994	0.307	0.4561	0.268
Mof_C 	C 	0.027	0.244	0.401	0.022
Mof_C 	C 	0.052	0.173	0.43	-0.131
Mof_C 	C 	0.03	0.259	0.322	-0.103
Mof_C 	C 	0.059	0.203	0.272	0.071
Mof_H 	H 	0.8067	0.3982	0.4435	-0.071
Mof_H 	H 	0.0501	0.1632	0.4836	0.078
Mof_H 	H 	0.0985	0.0695	0.3994	-0.06
Mof_H 	H 	0.104	0.0943	0.2668	0.081
Mof_H 	H 	0.0612	0.2128	0.2184	-0.003
Mof_H 	H 	0.0128	0.3066	0.3026	0.07
Mof_H 	H 	0.9413	0.3971	0.442	1.021
Mof_C 	C 	0.081	0.117	0.38	0.15
Mof_C 	C 	0.085	0.132	0.301	-0.165
Mof_C 	C 	0.1662	0.5617	0.4683	0.338
Mof_C 	C 	0.0847	0.563	0.465	-0.646
Mof_N 	N 	0.047	0.634	0.436	-0.953
Mof_C 	C 	0.006	0.693	0.4561	0.268
Mof_C 	C 	0.973	0.756	0.401	0.022
Mof_C 	C 	0.948	0.827	0.43	-0.131
Mof_C 	C 	0.97	0.741	0.322	-0.103
Mof_C 	C 	0.941	0.797	0.272	0.071
Mof_H 	H 	0.1933	0.6018	0.4435	-0.071
Mof_H 	H 	0.9499	0.8368	0.4836	0.078
Mof_H 	H 	0.9015	0.9305	0.3994	-0.06
Mof_H 	H 	0.896	0.9057	0.2668	0.081
Mof_H 	H 	0.9388	0.7872	0.2184	-0.003
Mof_H 	H 	0.9872	0.6934	0.3026	0.07
Mof_H 	H 	0.0587	0.6029	0.442	1.021
Mof_C 	C 	0.919	0.883	0.38	0.15
Mof_C 	C 	0.915	0.868	0.301	-0.165
Mof_C 	C 	0.8338	0.5617	0.5317	0.338
Mof_C 	C 	0.9153	0.563	0.535	-0.646
Mof_N 	N 	0.953	0.634	0.564	-0.953
Mof_C 	C 	0.994	0.693	0.5439	0.268
Mof_C 	C 	0.027	0.756	0.599	0.022
Mof_C 	C 	0.052	0.827	0.57	-0.131
Mof_C 	C 	0.03	0.741	0.678	-0.103
Mof_C 	C 	0.059	0.797	0.728	0.071
Mof_H 	H 	0.8067	0.6018	0.5565	-0.071
Mof_H 	H 	0.0501	0.8368	0.5164	0.078
Mof_H 	H 	0.0985	0.9305	0.6006	-0.06
Mof_H 	H 	0.104	0.9057	0.7332	0.081
Mof_H 	H 	0.0612	0.7872	0.7816	-0.003
Mof_H 	H 	0.0128	0.6934	0.6974	0.07
Mof_H 	H 	0.9413	0.6029	0.558	1.021
Mof_C 	C 	0.081	0.883	0.62	0.15
Mof_C 	C 	0.085	0.868	0.699	-0.165
Mof_C 	C 	0.1662	0.5317	0.4383	0.338
Mof_C 	C 	0.0847	0.535	0.437	-0.646
Mof_N 	N 	0.047	0.564	0.366	-0.953
Mof_C 	C 	0.006	0.5439	0.307	0.268
Mof_C 	C 	0.973	0.599	0.244	0.022
Mof_C 	C 	0.948	0.57	0.173	-0.131
Mof_C 	C 	0.97	0.678	0.259	-0.103
Mof_C 	C 	0.941	0.728	0.203	0.071
Mof_H 	H 	0.1933	0.5565	0.3982	-0.071
Mof_H 	H 	0.9499	0.5164	0.1632	0.078
Mof_H 	H 	0.9015	0.6006	0.0695	-0.06
Mof_H 	H 	0.896	0.7332	0.0943	0.081
Mof_H 	H 	0.9388	0.7816	0.2128	-0.003
Mof_H 	H 	0.9872	0.6974	0.3066	0.07
Mof_H 	H 	0.0587	0.558	0.3971	1.021
Mof_C 	C 	0.919	0.62	0.117	0.15
Mof_C 	C 	0.915	0.699	0.132	-0.165
Mof_C 	C 	0.8338	0.4683	0.4383	0.338
Mof_C 	C 	0.9153	0.465	0.437	-0.646
Mof_N 	N 	0.953	0.436	0.366	-0.953
Mof_C 	C 	0.994	0.4561	0.307	0.268
Mof_C 	C 	0.027	0.401	0.244	0.022
Mof_C 	C 	0.052	0.43	0.173	-0.131
Mof_C 	C 	0.03	0.322	0.259	-0.103
Mof_C 	C 	0.059	0.272	0.203	0.071
Mof_H 	H 	0.8067	0.4435	0.3982	-0.071
Mof_H 	H 	0.0501	0.4836	0.1632	0.078
Mof_H 	H 	0.0985	0.3994	0.0695	-0.06
Mof_H 	H 	0.104	0.2668	0.0943	0.081
Mof_H 	H 	0.0612	0.2184	0.2128	-0.003
Mof_H 	H 	0.0128	0.3026	0.3066	0.07
Mof_H 	H 	0.9413	0.442	0.3971	1.021
Mof_C 	C 	0.081	0.38	0.117	0.15
Mof_C 	C 	0.085	0.301	0.132	-0.165
Mof_C 	C 	0.1662	0.4683	0.5617	0.338
Mof_C 	C 	0.0847	0.465	0.563	-0.646
Mof_N 	N 	0.047	0.436	0.634	-0.953
Mof_C 	C 	0.006	0.4561	0.693	0.268
Mof_C 	C 	0.973	0.401	0.756	0.022
Mof_C 	C 	0.948	0.43	0.827	-0.131
Mof_C 	C 	0.97	0.322	0.741	-0.103
Mof_C 	C 	0.941	0.272	0.797	0.071
Mof_H 	H 	0.1933	0.4435	0.6018	-0.071
Mof_H 	H 	0.9499	0.4836	0.8368	0.078
Mof_H 	H 	0.9015	0.3994	0.9305	-0.06
Mof_H 	H 	0.896	0.2668	0.9057	0.081
Mof_H 	H 	0.9388	0.2184	0.7872	-0.003
Mof_H 	H 	0.9872	0.3026	0.6934	0.07
Mof_H 	H 	0.0587	0.442	0.6029	1.021
Mof_C 	C 	0.919	0.38	0.883	0.15
Mof_C 	C 	0.915	0.301	0.868	-0.165
Mof_C 	C 	0.8338	0.5317	0.5617	0.338
Mof_C 	C 	0.9153	0.535	0.563	-0.646
Mof_N 	N 	0.953	0.564	0.634	-0.953
Mof_C 	C 	0.994	0.5439	0.693	0.268
Mof_C 	C 	0.027	0.599	0.756	0.022
Mof_C 	C 	0.052	0.57	0.827	-0.131
Mof_C 	C 	0.03	0.678	0.741	-0.103
Mof_C 	C 	0.059	0.728	0.797	0.071
Mof_H 	H 	0.8067	0.5565	0.6018	-0.071
Mof_H 	H 	0.0501	0.5164	0.8368	0.078
Mof_H 	H 	0.0985	0.6006	0.9305	-0.06
Mof_H 	H 	0.104	0.7332	0.9057	0.081
Mof_H 	H 	0.0612	0.7816	0.7872	-0.003
Mof_H 	H 	0.0128	0.6974	0.6934	0.07
Mof_H 	H 	0.9413	0.558	0.6029	1.021
Mof_C 	C 	0.081	0.62	0.883	0.15
Mof_C 	C 	0.085	0.699	0.868	-0.165
Mof_C 	C 	0.5317	0.4383	0.1662	0.338
Mof_C 	C 	0.535	0.437	0.0847	-0.646
Mof_N 	N 	0.564	0.366	0.047	-0.953
Mof_C 	C 	0.5439	0.307	0.006	0.268
Mof_C 	C 	0.599	0.244	0.973	0.022
Mof_C 	C 	0.57	0.173	0.948	-0.131
Mof_C 	C 	0.678	0.259	0.97	-0.103
Mof_C 	C 	0.728	0.203	0.941	0.071
Mof_H 	H 	0.5565	0.3982	0.1933	-0.071
Mof_H 	H 	0.5164	0.1632	0.9499	0.078
Mof_H 	H 	0.6006	0.0695	0.9015	-0.06
Mof_H 	H 	0.7332	0.0943	0.896	0.081
Mof_H 	H 	0.7816	0.2128	0.9388	-0.003
Mof_H 	H 	0.6974	0.3066	0.9872	0.07
Mof_H 	H 	0.558	0.3971	0.0587	1.021
Mof_C 	C 	0.62	0.117	0.919	0.15
Mof_C 	C 	0.699	0.132	0.915	-0.165
Mof_C 	C 	0.4683	0.4383	0.8338	0.338
Mof_C 	C 	0.465	0.437	0.9153	-0.646
Mof_N 	N 	0.436	0.366	0.953	-0.953
Mof_C 	C 	0.4561	0.307	0.994	0.268
Mof_C 	C 	0.401	0.244	0.027	0.022
Mof_C 	C 	0.43	0.173	0.052	-0.131
Mof_C 	C 	0.322	0.259	0.03	-0.103
Mof_C 	C 	0.272	0.203	0.059	0.071
Mof_H 	H 	0.4435	0.3982	0.8067	-0.071
Mof_H 	H 	0.4836	0.1632	0.0501	0.078
Mof_H 	H 	0.3994	0.0695	0.0985	-0.06
Mof_H 	H 	0.2668	0.0943	0.104	0.081
Mof_H 	H 	0.2184	0.2128	0.0612	-0.003
Mof_H 	H 	0.3026	0.3066	0.0128	0.07
Mof_H 	H 	0.442	0.3971	0.9413	1.021
Mof_C 	C 	0.38	0.117	0.081	0.15
Mof_C 	C 	0.301	0.132	0.085	-0.165
Mof_C 	C 	0.4683	0.5617	0.1662	0.338
Mof_C 	C 	0.465	0.563	0.0847	-0.646
Mof_N 	N 	0.436	0.634	0.047	-0.953
Mof_C 	C 	0.4561	0.693	0.006	0.268
Mof_C 	C 	0.401	0.756	0.973	0.022
Mof_C 	C 	0.43	0.827	0.948	-0.131
Mof_C 	C 	0.322	0.741	0.97	-0.103
Mof_C 	C 	0.272	0.797	0.941	0.071
Mof_H 	H 	0.4435	0.6018	0.1933	-0.071
Mof_H 	H 	0.4836	0.8368	0.9499	0.078
Mof_H 	H 	0.3994	0.9305	0.9015	-0.06
Mof_H 	H 	0.2668	0.9057	0.896	0.081
Mof_H 	H 	0.2184	0.7872	0.9388	-0.003
Mof_H 	H 	0.3026	0.6934	0.9872	0.07
Mof_H 	H 	0.442	0.6029	0.0587	1.021
Mof_C 	C 	0.38	0.883	0.919	0.15
Mof_C 	C 	0.301	0.868	0.915	-0.165
Mof_C 	C 	0.5317	0.5617	0.8338	0.338
Mof_C 	C 	0.535	0.563	0.9153	-0.646
Mof_N 	N 	0.564	0.634	0.953	-0.953
Mof_C 	C 	0.5439	0.693	0.994	0.268
Mof_C 	C 	0.599	0.756	0.027	0.022
Mof_C 	C 	0.57	0.827	0.052	-0.131
Mof_C 	C 	0.678	0.741	0.03	-0.103
Mof_C 	C 	0.728	0.797	0.059	0.071
Mof_H 	H 	0.5565	0.6018	0.8067	-0.071
Mof_H 	H 	0.5164	0.8368	0.0501	0.078
Mof_H 	H 	0.6006	0.9305	0.0985	-0.06
Mof_H 	H 	0.7332	0.9057	0.104	0.081
Mof_H 	H 	0.7816	0.7872	0.0612	-0.003
Mof_H 	H 	0.6974	0.6934	0.0128	0.07
Mof_H 	H 	0.558	0.6029	0.9413	1.021
Mof_C 	C 	0.62	0.883	0.081	0.15
Mof_C 	C 	0.699	0.868	0.085	-0.165
Mof_C 	C 	0.4383	0.1662	0.5317	0.338
Mof_C 	C 	0.437	0.0847	0.535	-0.646
Mof_N 	N 	0.366	0.047	0.564	-0.953
Mof_C 	C 	0.307	0.006	0.5439	0.268
Mof_C 	C 	0.244	0.973	0.599	0.022
Mof_C 	C 	0.173	0.948	0.57	-0.131
Mof_C 	C 	0.259	0.97	0.678	-0.103
Mof_C 	C 	0.203	0.941	0.728	0.071
Mof_H 	H 	0.3982	0.1933	0.5565	-0.071
Mof_H 	H 	0.1632	0.9499	0.5164	0.078
Mof_H 	H 	0.0695	0.9015	0.6006	-0.06
Mof_H 	H 	0.0943	0.896	0.7332	0.081
Mof_H 	H 	0.2128	0.9388	0.7816	-0.003
Mof_H 	H 	0.3066	0.9872	0.6974	0.07
Mof_H 	H 	0.3971	0.0587	0.558	1.021
Mof_C 	C 	0.117	0.919	0.62	0.15
Mof_C 	C 	0.132	0.915	0.699	-0.165
Mof_C 	C 	0.4383	0.8338	0.4683	0.338
Mof_C 	C 	0.437	0.9153	0.465	-0.646
Mof_N 	N 	0.366	0.953	0.436	-0.953
Mof_C 	C 	0.307	0.994	0.4561	0.268
Mof_C 	C 	0.244	0.027	0.401	0.022
Mof_C 	C 	0.173	0.052	0.43	-0.131
Mof_C 	C 	0.259	0.03	0.322	-0.103
Mof_C 	C 	0.203	0.059	0.272	0.071
Mof_H 	H 	0.3982	0.8067	0.4435	-0.071
Mof_H 	H 	0.1632	0.0501	0.4836	0.078
Mof_H 	H 	0.0695	0.0985	0.3994	-0.06
Mof_H 	H 	0.0943	0.104	0.2668	0.081
Mof_H 	H 	0.2128	0.0612	0.2184	-0.003
Mof_H 	H 	0.3066	0.0128	0.3026	0.07
Mof_H 	H 	0.3971	0.9413	0.442	1.021
Mof_C 	C 	0.117	0.081	0.38	0.15
Mof_C 	C 	0.132	0.085	0.301	-0.165
Mof_C 	C 	0.5617	0.1662	0.4683	0.338
Mof_C 	C 	0.563	0.0847	0.465	-0.646
Mof_N 	N 	0.634	0.047	0.436	-0.953
Mof_C 	C 	0.693	0.006	0.4561	0.268
Mof_C 	C 	0.756	0.973	0.401	0.022
Mof_C 	C 	0.827	0.948	0.43	-0.131
Mof_C 	C 	0.741	0.97	0.322	-0.103
Mof_C 	C 	0.797	0.941	0.272	0.071
Mof_H 	H 	0.6018	0.1933	0.4435	-0.071
Mof_H 	H 	0.8368	0.9499	0.4836	0.078
Mof_H 	H 	0.9305	0.9015	0.3994	-0.06
Mof_H 	H 	0.9057	0.896	0.2668	0.081
Mof_H 	H 	0.7872	0.9388	0.2184	-0.003
Mof_H 	H 	0.6934	0.9872	0.3026	0.07
Mof_H 	H 	0.6029	0.0587	0.442	1.021
Mof_C 	C 	0.883	0.919	0.38	0.15
Mof_C 	C 	0.868	0.915	0.301	-0.165
Mof_C 	C 	0.5617	0.8338	0.5317	0.338
Mof_C 	C 	0.563	0.9153	0.535	-0.646
Mof_N 	N 	0.634	0.953	0.564	-0.953
Mof_C 	C 	0.693	0.994	0.5439	0.268
Mof_C 	C 	0.756	0.027	0.599	0.022
Mof_C 	C 	0.827	0.052	0.57	-0.131
Mof_C 	C 	0.741	0.03	0.678	-0.103
Mof_C 	C 	0.797	0.059	0.728	0.071
Mof_H 	H 	0.6018	0.8067	0.5565	-0.071
Mof_H 	H 	0.8368	0.0501	0.5164	0.078
Mof_H 	H 	0.9305	0.0985	0.6006	-0.06
Mof_H 	H 	0.9057	0.104	0.7332	0.081
Mof_H 	H 	0.7872	0.0612	0.7816	-0.003
Mof_H 	H 	0.6934	0.0128	0.6974	0.07
Mof_H 	H 	0.6029	0.9413	0.558	1.021
Mof_C 	C 	0.883	0.081	0.62	0.15
Mof_C 	C 	0.868	0.085	0.699	-0.165
Mof_Zn	Zn	0.56525	0.43475	0.43475	1.225
Mof_Zn	Zn	0.43475	0.56525	0.43475	1.225
Mof_Zn	Zn	0.43475	0.43475	0.56525	1.225
Mof_Zn	Zn	0.56525	0.56525	0.56525	1.225
Mof_O 	O 	0.546	0.3269	0.454	-0.53
Mof_O 	O 	0.454	0.6731	0.454	-0.53
Mof_O 	O 	0.454	0.3269	0.546	-0.53
Mof_O 	O 	0.546	0.6731	0.546	-0.53
Mof_O 	O 	0.454	0.546	0.3269	-0.53
Mof_O 	O 	0.454	0.454	0.6731	-0.53
Mof_O 	O 	0.546	0.454	0.3269	-0.53
Mof_O 	O 	0.546	0.546	0.6731	-0.53
Mof_O 	O 	0.3269	0.454	0.546	-0.53
Mof_O 	O 	0.6731	0.454	0.454	-0.53
Mof_O 	O 	0.3269	0.546	0.454	-0.53
Mof_O 	O 	0.6731	0.546	0.546	-0.53
Mof_O 	O 	0.5	0.5	0.5	-0.951
Mof_C 	C 	0.5	0.2902	0.5	0.553
Mof_C 	C 	0.5	0.2056	0.5	-0.556
Mof_C 	C 	0.5	0.0432	0.5	0.538
Mof_C 	C 	0.5	0.7098	0.5	0.553
Mof_C 	C 	0.5	0.7944	0.5	-0.556
Mof_C 	C 	0.5	0.9568	0.5	0.538
Mof_C 	C 	0.5	0.5	0.2902	0.553
Mof_C 	C 	0.5	0.5	0.2056	-0.556
Mof_C 	C 	0.5	0.5	0.0432	0.538
Mof_C 	C 	0.5	0.5	0.7098	0.553
Mof_C 	C 	0.5	0.5	0.7944	-0.556
Mof_C 	C 	0.5	0.5	0.9568	0.538
Mof_C 	C 	0.2902	0.5	0.5	0.553
Mof_C 	C 	0.2056	0.5	0.5	-0.556
Mof_C 	C 	0.0432	0.5	0.5	0.538
Mof_C 	C 	0.7098	0.5	0.5	0.553
Mof_C 	C 	0.7944	0.5	0.5	-0.556
Mof_C 	C 	0.9568	0.5	0.5	0.538
_end
