data_functionalizedCrystal
_audit_creation_method	'EQeq! by Chris Wilmer'
_symmetry_space_group_name_H-M	'P1'
_symmetry_Int_Tables_number	1
_symmetry_cell_setting	triclinic
loop_
_symmetry_equiv_pos_as_xyz
  x,y,z
_cell_length_a	26.7888
_cell_length_b	26.7888
_cell_length_c	65.6133
_cell_angle_alpha	90
_cell_angle_beta	90
_cell_angle_gamma	120
loop_
_atom_site_label
_atom_site_type_symbol
_atom_site_fract_x
_atom_site_fract_y
_atom_site_fract_z
_atom_site_charge
Mof_C 	C 	0.3585	0.1375	0.10135	-0.048
Mof_H 	H 	0.3518	0.1049	0.0935	0.042
Mof_C 	C 	0.3447	0.132	0.12183	0.012
Mof_H 	H 	0.3293	0.0948	0.1277	0.006
Mof_C 	C 	0.2103	0.065	0.15472	0.015
Mof_H 	H 	0.2316	0.0473	0.1504	0.005
Mof_C 	C 	0.1508	0.0338	0.15358	-0.064
Mof_H 	H 	0.1318	0.9945	0.1495	0.052
Mof_N 	N 	0.40874	0.24849	0.0621	-0.148
Mof_C 	C 	0.42829	0.25602	0.04308	0.104
Mof_C 	C 	0.44208	0.31075	0.03274	0.023
Mof_N 	N 	0.47128	0.41515	0.0141	-0.222
Mof_C 	C 	0.4627	0.4071	0.03433	0.016
Mof_H 	H 	0.4662	0.4383	0.0423	0.006
Mof_C 	C 	0.4493	0.3571	0.0441	-0.04
Mof_H 	H 	0.445	0.3543	0.0585	0.041
Mof_C 	C 	0.4477	0.3162	0.01175	-0.069
Mof_H 	H 	0.4424	0.2847	0.0035	0.05
Mof_C 	C 	0.4611	0.3682	0.00307	-0.003
Mof_H 	H 	0.4634	0.3714	0.9886	0.013
Mof_C 	C 	0.4347	0.3957	0.03012	0.017
Mof_H 	H 	0.4179	0.4176	0.0347	0.007
Mof_C 	C 	0.421	0.3453	0.04005	-0.056
Mof_H 	H 	0.3973	0.3342	0.0518	0.047
Mof_C 	C 	0.4764	0.3291	0.01582	-0.026
Mof_H 	H 	0.4911	0.3063	0.0103	0.038
Mof_C 	C 	0.4897	0.3806	0.00672	0.035
Mof_H 	H 	0.5127	0.3921	0.9948	-0
Mof_H 	H 	0.4032	0.2737	0.0985	0.045
Mof_C 	C 	0.3888	0.2365	0.10435	-0.049
Mof_H 	H 	0.3805	0.2596	0.1327	0.005
Mof_C 	C 	0.3741	0.2273	0.12475	0.019
Mof_H 	H 	0.2281	0.1845	0.1698	0.006
Mof_C 	C 	0.2084	0.1451	0.16584	0.015
Mof_H 	H 	0.1284	0.1358	0.168	0.044
Mof_C 	C 	0.1489	0.1165	0.16461	-0.049
Mof_C 	C 	0.02517	0.47083	0.43468	-0.072
Mof_H 	H 	0.01847	0.43823	0.42683	0.051
Mof_C 	C 	0.01137	0.46533	0.45516	-0.006
Mof_H 	H 	0.99597	0.42813	0.46103	0.021
Mof_C 	C 	0.87697	0.39833	0.48805	0.017
Mof_H 	H 	0.89827	0.38063	0.48373	0.009
Mof_C 	C 	0.81747	0.36713	0.48691	-0.05
Mof_H 	H 	0.79847	0.32783	0.48283	0.045
Mof_N 	N 	0.07541	0.58182	0.39543	-0.148
Mof_C 	C 	0.09496	0.58935	0.37641	0.105
Mof_C 	C 	0.10875	0.64408	0.36607	0.023
Mof_N 	N 	0.13795	0.74848	0.34743	-0.222
Mof_C 	C 	0.12937	0.74043	0.36766	0.017
Mof_H 	H 	0.13287	0.77163	0.37563	0.006
Mof_C 	C 	0.11597	0.69043	0.37743	-0.039
Mof_H 	H 	0.11167	0.68763	0.39183	0.041
Mof_C 	C 	0.11437	0.64953	0.34508	-0.07
Mof_H 	H 	0.10907	0.61803	0.33683	0.05
Mof_C 	C 	0.12777	0.70153	0.3364	-0.004
Mof_H 	H 	0.13007	0.70473	0.32193	0.013
Mof_C 	C 	0.10137	0.72903	0.36345	0.016
Mof_H 	H 	0.08457	0.75093	0.36803	0.007
Mof_C 	C 	0.08767	0.67863	0.37338	-0.057
Mof_H 	H 	0.06397	0.66753	0.38513	0.047
Mof_C 	C 	0.14307	0.66243	0.34915	-0.025
Mof_H 	H 	0.15777	0.63963	0.34363	0.038
Mof_C 	C 	0.15637	0.71393	0.34005	0.036
Mof_H 	H 	0.17937	0.72543	0.32813	-0.001
Mof_H 	H 	0.06987	0.60703	0.43183	0.036
Mof_C 	C 	0.05547	0.56983	0.43768	-0.02
Mof_H 	H 	0.04717	0.59293	0.46603	0
Mof_C 	C 	0.04077	0.56063	0.45808	0.03
Mof_H 	H 	0.89477	0.51783	0.50313	0.007
Mof_C 	C 	0.87507	0.47843	0.49917	0.016
Mof_H 	H 	0.79507	0.46913	0.50133	0.044
Mof_C 	C 	0.81557	0.44983	0.49794	-0.045
Mof_C 	C 	0.69183	0.80417	0.76802	-0.047
Mof_H 	H 	0.68513	0.77157	0.76017	0.044
Mof_C 	C 	0.67803	0.79867	0.7885	0.013
Mof_H 	H 	0.66263	0.76147	0.79437	0.008
Mof_C 	C 	0.54363	0.73167	0.82139	0.017
Mof_H 	H 	0.56493	0.71397	0.81707	0.007
Mof_C 	C 	0.48413	0.70047	0.82025	-0.051
Mof_H 	H 	0.46513	0.66117	0.81617	0.045
Mof_N 	N 	0.74207	0.91516	0.72877	-0.146
Mof_C 	C 	0.76162	0.92269	0.70975	0.105
Mof_C 	C 	0.77541	0.97742	0.69941	0.03
Mof_N 	N 	0.80461	0.08182	0.68077	-0.221
Mof_C 	C 	0.79603	0.07377	0.701	0.018
Mof_H 	H 	0.79953	0.10497	0.70897	0.005
Mof_C 	C 	0.78263	0.02377	0.71077	-0.042
Mof_H 	H 	0.77833	0.02097	0.72517	0.041
Mof_C 	C 	0.78103	0.98287	0.67842	-0.068
Mof_H 	H 	0.77573	0.95137	0.67017	0.051
Mof_C 	C 	0.79443	0.03487	0.66974	-0.008
Mof_H 	H 	0.79673	0.03807	0.65527	0.014
Mof_C 	C 	0.76803	0.06237	0.69679	0.016
Mof_H 	H 	0.75123	0.08427	0.70137	0.007
Mof_C 	C 	0.75433	0.01197	0.70672	-0.061
Mof_H 	H 	0.73063	0.00087	0.71847	0.047
Mof_C 	C 	0.80973	0.99577	0.68249	-0.022
Mof_H 	H 	0.82443	0.97297	0.67697	0.039
Mof_C 	C 	0.82303	0.04727	0.67339	0.034
Mof_H 	H 	0.84603	0.05877	0.66147	-0
Mof_H 	H 	0.73653	0.94037	0.76517	0.047
Mof_C 	C 	0.72213	0.90317	0.77102	-0.05
Mof_H 	H 	0.71383	0.92627	0.79937	0.007
Mof_C 	C 	0.70743	0.89397	0.79142	0.019
Mof_H 	H 	0.56143	0.85117	0.83647	0.006
Mof_C 	C 	0.54173	0.81177	0.83251	0.017
Mof_H 	H 	0.46173	0.80247	0.83467	0.044
Mof_C 	C 	0.48223	0.78317	0.83128	-0.045
Mof_C 	C 	0.8625	0.221	0.10135	-0.046
Mof_H 	H 	0.8951	0.2469	0.0935	0.044
Mof_C 	C 	0.868	0.2127	0.12183	0.014
Mof_H 	H 	0.9052	0.2345	0.1277	0.008
Mof_C 	C 	0.935	0.1453	0.15472	0.019
Mof_H 	H 	0.9527	0.1843	0.1504	0.008
Mof_C 	C 	0.9662	0.117	0.15358	-0.039
Mof_H 	H 	0.0055	0.1373	0.1495	0.037
Mof_N 	N 	0.75151	0.16025	0.0621	-0.147
Mof_C 	C 	0.74398	0.17227	0.04308	0.105
Mof_C 	C 	0.68925	0.13133	0.03274	0.023
Mof_N 	N 	0.58485	0.05613	0.0141	-0.223
Mof_C 	C 	0.5929	0.0556	0.03433	0.018
Mof_H 	H 	0.5617	0.0279	0.0423	0.004
Mof_C 	C 	0.6429	0.0922	0.0441	-0.038
Mof_H 	H 	0.6457	0.0907	0.0585	0.04
Mof_C 	C 	0.6838	0.1315	0.01175	-0.071
Mof_H 	H 	0.7153	0.1577	0.0035	0.051
Mof_C 	C 	0.6318	0.0929	0.00307	-0.005
Mof_H 	H 	0.6286	0.092	0.9886	0.012
Mof_C 	C 	0.6043	0.039	0.03012	0.016
Mof_H 	H 	0.5824	0.0003	0.0347	0.005
Mof_C 	C 	0.6547	0.0757	0.04005	-0.058
Mof_H 	H 	0.6658	0.0631	0.0518	0.047
Mof_C 	C 	0.6709	0.1473	0.01582	-0.025
Mof_H 	H 	0.6937	0.1848	0.0103	0.038
Mof_C 	C 	0.6194	0.1091	0.00672	0.036
Mof_H 	H 	0.6079	0.1206	0.9948	-0.001
Mof_H 	H 	0.7263	0.1295	0.0985	0.045
Mof_C 	C 	0.7635	0.1523	0.10435	-0.051
Mof_H 	H 	0.7404	0.1209	0.1327	0.006
Mof_C 	C 	0.7727	0.1468	0.12475	0.017
Mof_H 	H 	0.8155	0.0436	0.1698	0.002
Mof_C 	C 	0.8549	0.0633	0.16584	0.024
Mof_H 	H 	0.8642	0.9926	0.168	0.048
Mof_C 	C 	0.8835	0.0324	0.16461	-0.047
Mof_C 	C 	0.52917	0.55433	0.43468	-0.045
Mof_H 	H 	0.56177	0.58023	0.42683	0.044
Mof_C 	C 	0.53467	0.54603	0.45516	0.014
Mof_H 	H 	0.57187	0.56783	0.46103	0.008
Mof_C 	C 	0.60167	0.47863	0.48805	0.016
Mof_H 	H 	0.61937	0.51763	0.48373	0.008
Mof_C 	C 	0.63287	0.45033	0.48691	-0.051
Mof_H 	H 	0.67217	0.47063	0.48283	0.046
Mof_N 	N 	0.41818	0.49358	0.39543	-0.147
Mof_C 	C 	0.41065	0.5056	0.37641	0.106
Mof_C 	C 	0.35592	0.46466	0.36607	0.023
Mof_N 	N 	0.25152	0.38946	0.34743	-0.222
Mof_C 	C 	0.25957	0.38893	0.36766	0.015
Mof_H 	H 	0.22837	0.36123	0.37563	0.006
Mof_C 	C 	0.30957	0.42553	0.37743	-0.04
Mof_H 	H 	0.31237	0.42403	0.39183	0.041
Mof_C 	C 	0.35047	0.46483	0.34508	-0.068
Mof_H 	H 	0.38197	0.49103	0.33683	0.05
Mof_C 	C 	0.29847	0.42623	0.3364	-0.002
Mof_H 	H 	0.29527	0.42533	0.32193	0.013
Mof_C 	C 	0.27097	0.37233	0.36345	0.018
Mof_H 	H 	0.24907	0.33363	0.36803	0.007
Mof_C 	C 	0.32137	0.40903	0.37338	-0.055
Mof_H 	H 	0.33247	0.39643	0.38513	0.046
Mof_C 	C 	0.33757	0.48063	0.34915	-0.027
Mof_H 	H 	0.36037	0.51813	0.34363	0.038
Mof_C 	C 	0.28607	0.44243	0.34005	0.034
Mof_H 	H 	0.27457	0.45393	0.32813	-0
Mof_H 	H 	0.39297	0.46283	0.43183	0.046
Mof_C 	C 	0.43017	0.48563	0.43768	-0.051
Mof_H 	H 	0.40707	0.45423	0.46603	0.006
Mof_C 	C 	0.43937	0.48013	0.45808	0.017
Mof_H 	H 	0.48217	0.37693	0.50313	0.006
Mof_C 	C 	0.52157	0.39663	0.49917	0.017
Mof_H 	H 	0.53087	0.32593	0.50133	0.043
Mof_C 	C 	0.55017	0.36573	0.49794	-0.045
Mof_C 	C 	0.19583	0.88767	0.76802	-0.044
Mof_H 	H 	0.22843	0.91357	0.76017	0.044
Mof_C 	C 	0.20133	0.87937	0.7885	0.016
Mof_H 	H 	0.23853	0.90117	0.79437	0.008
Mof_C 	C 	0.26833	0.81197	0.82139	0.016
Mof_H 	H 	0.28603	0.85097	0.81707	0.008
Mof_C 	C 	0.29953	0.78367	0.82025	-0.051
Mof_H 	H 	0.33883	0.80397	0.81617	0.046
Mof_N 	N 	0.08484	0.82692	0.72877	-0.148
Mof_C 	C 	0.07731	0.83894	0.70975	0.106
Mof_C 	C 	0.02258	0.798	0.69941	0.017
Mof_N 	N 	0.91818	0.7228	0.68077	-0.222
Mof_C 	C 	0.92623	0.72227	0.701	0.015
Mof_H 	H 	0.89503	0.69457	0.70897	0.007
Mof_C 	C 	0.97623	0.75887	0.71077	-0.037
Mof_H 	H 	0.97903	0.75737	0.72517	0.042
Mof_C 	C 	0.01713	0.79817	0.67842	-0.07
Mof_H 	H 	0.04863	0.82437	0.67017	0.05
Mof_C 	C 	0.96513	0.75957	0.66974	0.002
Mof_H 	H 	0.96193	0.75867	0.65527	0.012
Mof_C 	C 	0.93763	0.70567	0.69679	0.018
Mof_H 	H 	0.91573	0.66697	0.70137	0.007
Mof_C 	C 	0.98803	0.74237	0.70672	-0.051
Mof_H 	H 	0.99913	0.72977	0.71847	0.047
Mof_C 	C 	0.00423	0.81397	0.68249	-0.031
Mof_H 	H 	0.02703	0.85147	0.67697	0.039
Mof_C 	C 	0.95273	0.77577	0.67339	0.037
Mof_H 	H 	0.94123	0.78727	0.66147	0
Mof_H 	H 	0.05963	0.79617	0.76517	0.044
Mof_C 	C 	0.09683	0.81897	0.77102	-0.049
Mof_H 	H 	0.07373	0.78757	0.79937	0.005
Mof_C 	C 	0.10603	0.81347	0.79142	0.019
Mof_H 	H 	0.14883	0.71027	0.83647	0.005
Mof_C 	C 	0.18823	0.72997	0.83251	0.017
Mof_H 	H 	0.19753	0.65927	0.83467	0.043
Mof_C 	C 	0.21683	0.69907	0.83128	-0.045
Mof_C 	C 	0.779	0.6415	0.10135	-0.044
Mof_H 	H 	0.7531	0.6482	0.0935	0.043
Mof_C 	C 	0.7873	0.6553	0.12183	0.016
Mof_H 	H 	0.7655	0.6707	0.1277	0.007
Mof_C 	C 	0.8547	0.7897	0.15472	0.014
Mof_H 	H 	0.8157	0.7684	0.1504	0.008
Mof_C 	C 	0.883	0.8492	0.15358	-0.051
Mof_H 	H 	0.8627	0.8682	0.1495	0.046
Mof_N 	N 	0.83975	0.59126	0.0621	-0.147
Mof_C 	C 	0.82773	0.57171	0.04308	0.106
Mof_C 	C 	0.86867	0.55792	0.03274	0.024
Mof_N 	N 	0.94387	0.52872	0.0141	-0.22
Mof_C 	C 	0.9444	0.5373	0.03433	0.012
Mof_H 	H 	0.9721	0.5338	0.0423	0.009
Mof_C 	C 	0.9078	0.5507	0.0441	-0.044
Mof_H 	H 	0.9093	0.555	0.0585	0.043
Mof_C 	C 	0.8685	0.5523	0.01175	-0.064
Mof_H 	H 	0.8423	0.5576	0.0035	0.049
Mof_C 	C 	0.9071	0.5389	0.00307	0.002
Mof_H 	H 	0.908	0.5366	0.9886	0.013
Mof_C 	C 	0.961	0.5653	0.03012	0.021
Mof_H 	H 	0.9997	0.5821	0.0347	0.008
Mof_C 	C 	0.9243	0.579	0.04005	-0.051
Mof_H 	H 	0.9369	0.6027	0.0518	0.046
Mof_C 	C 	0.8527	0.5236	0.01582	-0.031
Mof_H 	H 	0.8152	0.5089	0.0103	0.04
Mof_C 	C 	0.8909	0.5103	0.00672	0.031
Mof_H 	H 	0.8794	0.4873	0.9948	0.001
Mof_H 	H 	0.8705	0.5968	0.0985	0.047
Mof_C 	C 	0.8477	0.6112	0.10435	-0.052
Mof_H 	H 	0.8791	0.6195	0.1327	0.007
Mof_C 	C 	0.8532	0.6259	0.12475	0.016
Mof_H 	H 	0.9564	0.7719	0.1698	0.009
Mof_C 	C 	0.9367	0.7916	0.16584	0.012
Mof_H 	H 	0.0074	0.8716	0.168	0.038
Mof_C 	C 	0.9676	0.8511	0.16461	-0.039
Mof_C 	C 	0.44567	0.97483	0.43468	-0.018
Mof_H 	H 	0.41977	0.98153	0.42683	0.036
Mof_C 	C 	0.45397	0.98863	0.45516	0.035
Mof_H 	H 	0.43217	0.00403	0.46103	-0.004
Mof_C 	C 	0.52137	0.12303	0.48805	0.015
Mof_H 	H 	0.48237	0.10173	0.48373	0.007
Mof_C 	C 	0.54967	0.18253	0.48691	-0.052
Mof_H 	H 	0.52937	0.20153	0.48283	0.045
Mof_N 	N 	0.50642	0.92459	0.39543	-0.147
Mof_C 	C 	0.4944	0.90504	0.37641	0.106
Mof_C 	C 	0.53534	0.89125	0.36607	0.024
Mof_N 	N 	0.61054	0.86205	0.34743	-0.222
Mof_C 	C 	0.61107	0.87063	0.36766	0.013
Mof_H 	H 	0.63877	0.86713	0.37563	0.007
Mof_C 	C 	0.57447	0.88403	0.37743	-0.042
Mof_H 	H 	0.57597	0.88833	0.39183	0.042
Mof_C 	C 	0.53517	0.88563	0.34508	-0.065
Mof_H 	H 	0.50897	0.89093	0.33683	0.05
Mof_C 	C 	0.57377	0.87223	0.3364	0
Mof_H 	H 	0.57467	0.86993	0.32193	0.012
Mof_C 	C 	0.62767	0.89863	0.36345	0.02
Mof_H 	H 	0.66637	0.91543	0.36803	0.007
Mof_C 	C 	0.59097	0.91233	0.37338	-0.053
Mof_H 	H 	0.60357	0.93603	0.38513	0.047
Mof_C 	C 	0.51937	0.85693	0.34915	-0.03
Mof_H 	H 	0.48187	0.84223	0.34363	0.039
Mof_C 	C 	0.55757	0.84363	0.34005	0.032
Mof_H 	H 	0.54607	0.82063	0.32813	0.001
Mof_H 	H 	0.53717	0.93013	0.43183	0.056
Mof_C 	C 	0.51437	0.94453	0.43768	-0.082
Mof_H 	H 	0.54577	0.95283	0.46603	0.013
Mof_C 	C 	0.51987	0.95923	0.45808	0.005
Mof_H 	H 	0.62307	0.10523	0.50313	0.005
Mof_C 	C 	0.60337	0.12493	0.49917	0.017
Mof_H 	H 	0.67407	0.20493	0.50133	0.043
Mof_C 	C 	0.63427	0.18443	0.49794	-0.044
Mof_C 	C 	0.11233	0.30817	0.76802	-0.044
Mof_H 	H 	0.08643	0.31487	0.76017	0.042
Mof_C 	C 	0.12063	0.32197	0.7885	0.015
Mof_H 	H 	0.09883	0.33737	0.79437	0.007
Mof_C 	C 	0.18803	0.45637	0.82139	0.016
Mof_H 	H 	0.14903	0.43507	0.81707	0.007
Mof_C 	C 	0.21633	0.51587	0.82025	-0.051
Mof_H 	H 	0.19603	0.53487	0.81617	0.045
Mof_N 	N 	0.17308	0.25793	0.72877	-0.147
Mof_C 	C 	0.16106	0.23838	0.70975	0.105
Mof_C 	C 	0.202	0.22459	0.69941	0.023
Mof_N 	N 	0.2772	0.19539	0.68077	-0.222
Mof_C 	C 	0.27773	0.20397	0.701	0.013
Mof_H 	H 	0.30543	0.20047	0.70897	0.007
Mof_C 	C 	0.24113	0.21737	0.71077	-0.043
Mof_H 	H 	0.24263	0.22167	0.72517	0.042
Mof_C 	C 	0.20183	0.21897	0.67842	-0.066
Mof_H 	H 	0.17563	0.22427	0.67017	0.049
Mof_C 	C 	0.24043	0.20557	0.66974	-0
Mof_H 	H 	0.24133	0.20327	0.65527	0.012
Mof_C 	C 	0.29433	0.23197	0.69679	0.02
Mof_H 	H 	0.33303	0.24877	0.70137	0.006
Mof_C 	C 	0.25763	0.24567	0.70672	-0.053
Mof_H 	H 	0.27023	0.26937	0.71847	0.046
Mof_C 	C 	0.18603	0.19027	0.68249	-0.029
Mof_H 	H 	0.14853	0.17557	0.67697	0.038
Mof_C 	C 	0.22423	0.17697	0.67339	0.032
Mof_H 	H 	0.21273	0.15397	0.66147	-0
Mof_H 	H 	0.20383	0.26347	0.76517	0.046
Mof_C 	C 	0.18103	0.27787	0.77102	-0.053
Mof_H 	H 	0.21243	0.28617	0.79937	0.006
Mof_C 	C 	0.18653	0.29257	0.79142	0.015
Mof_H 	H 	0.28973	0.43857	0.83647	0.006
Mof_C 	C 	0.27003	0.45827	0.83251	0.017
Mof_H 	H 	0.34073	0.53827	0.83467	0.043
Mof_C 	C 	0.30093	0.51777	0.83128	-0.045
Mof_C 	C 	0.1375	0.3585	0.89865	-0.047
Mof_H 	H 	0.1049	0.3518	0.9065	0.043
Mof_C 	C 	0.132	0.3447	0.87817	0.013
Mof_H 	H 	0.0948	0.3293	0.8723	0.007
Mof_C 	C 	0.065	0.2103	0.84528	0.016
Mof_H 	H 	0.0473	0.2316	0.8496	0.006
Mof_C 	C 	0.0338	0.1508	0.84642	-0.063
Mof_H 	H 	0.9945	0.1318	0.8505	0.053
Mof_N 	N 	0.24849	0.40874	0.9379	-0.147
Mof_C 	C 	0.25602	0.42829	0.95692	0.105
Mof_C 	C 	0.31075	0.44208	0.96726	0.023
Mof_N 	N 	0.41515	0.47128	0.9859	-0.222
Mof_C 	C 	0.4071	0.4627	0.96567	0.016
Mof_H 	H 	0.4383	0.4662	0.9577	0.006
Mof_C 	C 	0.3571	0.4493	0.9559	-0.04
Mof_H 	H 	0.3543	0.445	0.9415	0.041
Mof_C 	C 	0.3162	0.4477	0.98825	-0.069
Mof_H 	H 	0.2847	0.4424	0.9965	0.05
Mof_C 	C 	0.3682	0.4611	0.99693	-0.003
Mof_H 	H 	0.3714	0.4634	0.0114	0.013
Mof_C 	C 	0.3957	0.4347	0.96988	0.017
Mof_H 	H 	0.4176	0.4179	0.9653	0.007
Mof_C 	C 	0.3453	0.421	0.95995	-0.056
Mof_H 	H 	0.3342	0.3973	0.9482	0.047
Mof_C 	C 	0.3291	0.4764	0.98418	-0.026
Mof_H 	H 	0.3063	0.4911	0.9897	0.038
Mof_C 	C 	0.3806	0.4897	0.99328	0.035
Mof_H 	H 	0.3921	0.5127	0.0052	-0
Mof_H 	H 	0.2737	0.4032	0.9015	0.045
Mof_C 	C 	0.2365	0.3888	0.89565	-0.049
Mof_H 	H 	0.2596	0.3805	0.8673	0.005
Mof_C 	C 	0.2273	0.3741	0.87525	0.019
Mof_H 	H 	0.1845	0.2281	0.8302	0.006
Mof_C 	C 	0.1451	0.2084	0.83416	0.015
Mof_H 	H 	0.1358	0.1284	0.832	0.044
Mof_C 	C 	0.1165	0.1489	0.83539	-0.049
Mof_C 	C 	0.80417	0.69183	0.23198	-0.047
Mof_H 	H 	0.77157	0.68513	0.23983	0.044
Mof_C 	C 	0.79867	0.67803	0.2115	0.013
Mof_H 	H 	0.76147	0.66263	0.20563	0.008
Mof_C 	C 	0.73167	0.54363	0.17861	0.017
Mof_H 	H 	0.71397	0.56493	0.18293	0.007
Mof_C 	C 	0.70047	0.48413	0.17975	-0.051
Mof_H 	H 	0.66117	0.46513	0.18383	0.045
Mof_N 	N 	0.91516	0.74207	0.27123	-0.146
Mof_C 	C 	0.92269	0.76162	0.29025	0.105
Mof_C 	C 	0.97742	0.77541	0.30059	0.03
Mof_N 	N 	0.08182	0.80461	0.31923	-0.221
Mof_C 	C 	0.07377	0.79603	0.299	0.018
Mof_H 	H 	0.10497	0.79953	0.29103	0.005
Mof_C 	C 	0.02377	0.78263	0.28923	-0.042
Mof_H 	H 	0.02097	0.77833	0.27483	0.041
Mof_C 	C 	0.98287	0.78103	0.32158	-0.068
Mof_H 	H 	0.95137	0.77573	0.32983	0.051
Mof_C 	C 	0.03487	0.79443	0.33026	-0.008
Mof_H 	H 	0.03807	0.79673	0.34473	0.014
Mof_C 	C 	0.06237	0.76803	0.30321	0.016
Mof_H 	H 	0.08427	0.75123	0.29863	0.007
Mof_C 	C 	0.01197	0.75433	0.29328	-0.061
Mof_H 	H 	0.00087	0.73063	0.28153	0.047
Mof_C 	C 	0.99577	0.80973	0.31751	-0.022
Mof_H 	H 	0.97297	0.82443	0.32303	0.039
Mof_C 	C 	0.04727	0.82303	0.32661	0.034
Mof_H 	H 	0.05877	0.84603	0.33853	-0
Mof_H 	H 	0.94037	0.73653	0.23483	0.047
Mof_C 	C 	0.90317	0.72213	0.22898	-0.05
Mof_H 	H 	0.92627	0.71383	0.20063	0.007
Mof_C 	C 	0.89397	0.70743	0.20858	0.019
Mof_H 	H 	0.85117	0.56143	0.16353	0.006
Mof_C 	C 	0.81177	0.54173	0.16749	0.017
Mof_H 	H 	0.80247	0.46173	0.16533	0.044
Mof_C 	C 	0.78317	0.48223	0.16872	-0.045
Mof_C 	C 	0.47083	0.02517	0.56532	-0.072
Mof_H 	H 	0.43823	0.01847	0.57317	0.051
Mof_C 	C 	0.46533	0.01137	0.54484	-0.006
Mof_H 	H 	0.42813	0.99597	0.53897	0.021
Mof_C 	C 	0.39833	0.87697	0.51195	0.017
Mof_H 	H 	0.38063	0.89827	0.51627	0.009
Mof_C 	C 	0.36713	0.81747	0.51309	-0.05
Mof_H 	H 	0.32783	0.79847	0.51717	0.045
Mof_N 	N 	0.58182	0.07541	0.60457	-0.148
Mof_C 	C 	0.58935	0.09496	0.62359	0.105
Mof_C 	C 	0.64408	0.10875	0.63393	0.023
Mof_N 	N 	0.74848	0.13795	0.65257	-0.222
Mof_C 	C 	0.74043	0.12937	0.63234	0.017
Mof_H 	H 	0.77163	0.13287	0.62437	0.006
Mof_C 	C 	0.69043	0.11597	0.62257	-0.039
Mof_H 	H 	0.68763	0.11167	0.60817	0.041
Mof_C 	C 	0.64953	0.11437	0.65492	-0.07
Mof_H 	H 	0.61803	0.10907	0.66317	0.05
Mof_C 	C 	0.70153	0.12777	0.6636	-0.004
Mof_H 	H 	0.70473	0.13007	0.67807	0.013
Mof_C 	C 	0.72903	0.10137	0.63655	0.016
Mof_H 	H 	0.75093	0.08457	0.63197	0.007
Mof_C 	C 	0.67863	0.08767	0.62662	-0.057
Mof_H 	H 	0.66753	0.06397	0.61487	0.047
Mof_C 	C 	0.66243	0.14307	0.65085	-0.025
Mof_H 	H 	0.63963	0.15777	0.65637	0.038
Mof_C 	C 	0.71393	0.15637	0.65995	0.036
Mof_H 	H 	0.72543	0.17937	0.67187	-0.001
Mof_H 	H 	0.60703	0.06987	0.56817	0.036
Mof_C 	C 	0.56983	0.05547	0.56232	-0.02
Mof_H 	H 	0.59293	0.04717	0.53397	0
Mof_C 	C 	0.56063	0.04077	0.54192	0.03
Mof_H 	H 	0.51783	0.89477	0.49687	0.007
Mof_C 	C 	0.47843	0.87507	0.50083	0.016
Mof_H 	H 	0.46913	0.79507	0.49867	0.044
Mof_C 	C 	0.44983	0.81557	0.50206	-0.045
Mof_C 	C 	0.221	0.8625	0.89865	-0.046
Mof_H 	H 	0.2469	0.8951	0.9065	0.044
Mof_C 	C 	0.2127	0.868	0.87817	0.014
Mof_H 	H 	0.2345	0.9052	0.8723	0.008
Mof_C 	C 	0.1453	0.935	0.84528	0.019
Mof_H 	H 	0.1843	0.9527	0.8496	0.008
Mof_C 	C 	0.117	0.9662	0.84642	-0.039
Mof_H 	H 	0.1373	0.0055	0.8505	0.037
Mof_N 	N 	0.16025	0.75151	0.9379	-0.147
Mof_C 	C 	0.17227	0.74398	0.95692	0.105
Mof_C 	C 	0.13133	0.68925	0.96726	0.023
Mof_N 	N 	0.05613	0.58485	0.9859	-0.223
Mof_C 	C 	0.0556	0.5929	0.96567	0.018
Mof_H 	H 	0.0279	0.5617	0.9577	0.004
Mof_C 	C 	0.0922	0.6429	0.9559	-0.038
Mof_H 	H 	0.0907	0.6457	0.9415	0.04
Mof_C 	C 	0.1315	0.6838	0.98825	-0.071
Mof_H 	H 	0.1577	0.7153	0.9965	0.051
Mof_C 	C 	0.0929	0.6318	0.99693	-0.004
Mof_H 	H 	0.092	0.6286	0.0114	0.012
Mof_C 	C 	0.039	0.6043	0.96988	0.016
Mof_H 	H 	0.0003	0.5824	0.9653	0.005
Mof_C 	C 	0.0757	0.6547	0.95995	-0.058
Mof_H 	H 	0.0631	0.6658	0.9482	0.047
Mof_C 	C 	0.1473	0.6709	0.98418	-0.025
Mof_H 	H 	0.1848	0.6937	0.9897	0.038
Mof_C 	C 	0.1091	0.6194	0.99328	0.037
Mof_H 	H 	0.1206	0.6079	0.0052	-0.001
Mof_H 	H 	0.1295	0.7263	0.9015	0.045
Mof_C 	C 	0.1523	0.7635	0.89565	-0.051
Mof_H 	H 	0.1209	0.7404	0.8673	0.006
Mof_C 	C 	0.1468	0.7727	0.87525	0.017
Mof_H 	H 	0.0436	0.8155	0.8302	0.002
Mof_C 	C 	0.0633	0.8549	0.83416	0.024
Mof_H 	H 	0.9926	0.8642	0.832	0.048
Mof_C 	C 	0.0324	0.8835	0.83539	-0.047
Mof_C 	C 	0.88767	0.19583	0.23198	-0.044
Mof_H 	H 	0.91357	0.22843	0.23983	0.044
Mof_C 	C 	0.87937	0.20133	0.2115	0.016
Mof_H 	H 	0.90117	0.23853	0.20563	0.008
Mof_C 	C 	0.81197	0.26833	0.17861	0.016
Mof_H 	H 	0.85097	0.28603	0.18293	0.008
Mof_C 	C 	0.78367	0.29953	0.17975	-0.051
Mof_H 	H 	0.80397	0.33883	0.18383	0.046
Mof_N 	N 	0.82692	0.08484	0.27123	-0.148
Mof_C 	C 	0.83894	0.07731	0.29025	0.106
Mof_C 	C 	0.798	0.02258	0.30059	0.017
Mof_N 	N 	0.7228	0.91818	0.31923	-0.222
Mof_C 	C 	0.72227	0.92623	0.299	0.015
Mof_H 	H 	0.69457	0.89503	0.29103	0.007
Mof_C 	C 	0.75887	0.97623	0.28923	-0.037
Mof_H 	H 	0.75737	0.97903	0.27483	0.042
Mof_C 	C 	0.79817	0.01713	0.32158	-0.07
Mof_H 	H 	0.82437	0.04863	0.32983	0.05
Mof_C 	C 	0.75957	0.96513	0.33026	0.002
Mof_H 	H 	0.75867	0.96193	0.34473	0.012
Mof_C 	C 	0.70567	0.93763	0.30321	0.018
Mof_H 	H 	0.66697	0.91573	0.29863	0.007
Mof_C 	C 	0.74237	0.98803	0.29328	-0.051
Mof_H 	H 	0.72977	0.99913	0.28153	0.047
Mof_C 	C 	0.81397	0.00423	0.31751	-0.031
Mof_H 	H 	0.85147	0.02703	0.32303	0.039
Mof_C 	C 	0.77577	0.95273	0.32661	0.037
Mof_H 	H 	0.78727	0.94123	0.33853	0
Mof_H 	H 	0.79617	0.05963	0.23483	0.044
Mof_C 	C 	0.81897	0.09683	0.22898	-0.049
Mof_H 	H 	0.78757	0.07373	0.20063	0.005
Mof_C 	C 	0.81347	0.10603	0.20858	0.019
Mof_H 	H 	0.71027	0.14883	0.16353	0.005
Mof_C 	C 	0.72997	0.18823	0.16749	0.017
Mof_H 	H 	0.65927	0.19753	0.16533	0.043
Mof_C 	C 	0.69907	0.21683	0.16872	-0.045
Mof_C 	C 	0.55433	0.52917	0.56532	-0.045
Mof_H 	H 	0.58023	0.56177	0.57317	0.044
Mof_C 	C 	0.54603	0.53467	0.54484	0.014
Mof_H 	H 	0.56783	0.57187	0.53897	0.008
Mof_C 	C 	0.47863	0.60167	0.51195	0.016
Mof_H 	H 	0.51763	0.61937	0.51627	0.008
Mof_C 	C 	0.45033	0.63287	0.51309	-0.051
Mof_H 	H 	0.47063	0.67217	0.51717	0.046
Mof_N 	N 	0.49358	0.41818	0.60457	-0.147
Mof_C 	C 	0.5056	0.41065	0.62359	0.106
Mof_C 	C 	0.46466	0.35592	0.63393	0.023
Mof_N 	N 	0.38946	0.25152	0.65257	-0.222
Mof_C 	C 	0.38893	0.25957	0.63234	0.015
Mof_H 	H 	0.36123	0.22837	0.62437	0.006
Mof_C 	C 	0.42553	0.30957	0.62257	-0.04
Mof_H 	H 	0.42403	0.31237	0.60817	0.041
Mof_C 	C 	0.46483	0.35047	0.65492	-0.068
Mof_H 	H 	0.49103	0.38197	0.66317	0.05
Mof_C 	C 	0.42623	0.29847	0.6636	-0.002
Mof_H 	H 	0.42533	0.29527	0.67807	0.013
Mof_C 	C 	0.37233	0.27097	0.63655	0.018
Mof_H 	H 	0.33363	0.24907	0.63197	0.007
Mof_C 	C 	0.40903	0.32137	0.62662	-0.055
Mof_H 	H 	0.39643	0.33247	0.61487	0.046
Mof_C 	C 	0.48063	0.33757	0.65085	-0.027
Mof_H 	H 	0.51813	0.36037	0.65637	0.038
Mof_C 	C 	0.44243	0.28607	0.65995	0.034
Mof_H 	H 	0.45393	0.27457	0.67187	-0
Mof_H 	H 	0.46283	0.39297	0.56817	0.046
Mof_C 	C 	0.48563	0.43017	0.56232	-0.051
Mof_H 	H 	0.45423	0.40707	0.53397	0.006
Mof_C 	C 	0.48013	0.43937	0.54192	0.017
Mof_H 	H 	0.37693	0.48217	0.49687	0.006
Mof_C 	C 	0.39663	0.52157	0.50083	0.017
Mof_H 	H 	0.32593	0.53087	0.49867	0.043
Mof_C 	C 	0.36573	0.55017	0.50206	-0.045
Mof_C 	C 	0.6415	0.779	0.89865	-0.044
Mof_H 	H 	0.6482	0.7531	0.9065	0.043
Mof_C 	C 	0.6553	0.7873	0.87817	0.016
Mof_H 	H 	0.6707	0.7655	0.8723	0.007
Mof_C 	C 	0.7897	0.8547	0.84528	0.014
Mof_H 	H 	0.7684	0.8157	0.8496	0.008
Mof_C 	C 	0.8492	0.883	0.84642	-0.051
Mof_H 	H 	0.8682	0.8627	0.8505	0.046
Mof_N 	N 	0.59126	0.83975	0.9379	-0.147
Mof_C 	C 	0.57171	0.82773	0.95692	0.106
Mof_C 	C 	0.55792	0.86867	0.96726	0.024
Mof_N 	N 	0.52872	0.94387	0.9859	-0.22
Mof_C 	C 	0.5373	0.9444	0.96567	0.012
Mof_H 	H 	0.5338	0.9721	0.9577	0.009
Mof_C 	C 	0.5507	0.9078	0.9559	-0.044
Mof_H 	H 	0.555	0.9093	0.9415	0.043
Mof_C 	C 	0.5523	0.8685	0.98825	-0.064
Mof_H 	H 	0.5576	0.8423	0.9965	0.049
Mof_C 	C 	0.5389	0.9071	0.99693	0.002
Mof_H 	H 	0.5366	0.908	0.0114	0.013
Mof_C 	C 	0.5653	0.961	0.96988	0.021
Mof_H 	H 	0.5821	0.9997	0.9653	0.008
Mof_C 	C 	0.579	0.9243	0.95995	-0.051
Mof_H 	H 	0.6027	0.9369	0.9482	0.046
Mof_C 	C 	0.5236	0.8527	0.98418	-0.031
Mof_H 	H 	0.5089	0.8152	0.9897	0.04
Mof_C 	C 	0.5103	0.8909	0.99328	0.031
Mof_H 	H 	0.4873	0.8794	0.0052	0.001
Mof_H 	H 	0.5968	0.8705	0.9015	0.047
Mof_C 	C 	0.6112	0.8477	0.89565	-0.052
Mof_H 	H 	0.6195	0.8791	0.8673	0.007
Mof_C 	C 	0.6259	0.8532	0.87525	0.016
Mof_H 	H 	0.7719	0.9564	0.8302	0.009
Mof_C 	C 	0.7916	0.9367	0.83416	0.012
Mof_H 	H 	0.8716	0.0074	0.832	0.038
Mof_C 	C 	0.8511	0.9676	0.83539	-0.039
Mof_C 	C 	0.30817	0.11233	0.23198	-0.044
Mof_H 	H 	0.31487	0.08643	0.23983	0.042
Mof_C 	C 	0.32197	0.12063	0.2115	0.015
Mof_H 	H 	0.33737	0.09883	0.20563	0.007
Mof_C 	C 	0.45637	0.18803	0.17861	0.016
Mof_H 	H 	0.43507	0.14903	0.18293	0.007
Mof_C 	C 	0.51587	0.21633	0.17975	-0.051
Mof_H 	H 	0.53487	0.19603	0.18383	0.045
Mof_N 	N 	0.25793	0.17308	0.27123	-0.147
Mof_C 	C 	0.23838	0.16106	0.29025	0.105
Mof_C 	C 	0.22459	0.202	0.30059	0.023
Mof_N 	N 	0.19539	0.2772	0.31923	-0.222
Mof_C 	C 	0.20397	0.27773	0.299	0.013
Mof_H 	H 	0.20047	0.30543	0.29103	0.007
Mof_C 	C 	0.21737	0.24113	0.28923	-0.043
Mof_H 	H 	0.22167	0.24263	0.27483	0.042
Mof_C 	C 	0.21897	0.20183	0.32158	-0.066
Mof_H 	H 	0.22427	0.17563	0.32983	0.049
Mof_C 	C 	0.20557	0.24043	0.33026	-0
Mof_H 	H 	0.20327	0.24133	0.34473	0.012
Mof_C 	C 	0.23197	0.29433	0.30321	0.02
Mof_H 	H 	0.24877	0.33303	0.29863	0.006
Mof_C 	C 	0.24567	0.25763	0.29328	-0.053
Mof_H 	H 	0.26937	0.27023	0.28153	0.046
Mof_C 	C 	0.19027	0.18603	0.31751	-0.029
Mof_H 	H 	0.17557	0.14853	0.32303	0.038
Mof_C 	C 	0.17697	0.22423	0.32661	0.032
Mof_H 	H 	0.15397	0.21273	0.33853	-0
Mof_H 	H 	0.26347	0.20383	0.23483	0.046
Mof_C 	C 	0.27787	0.18103	0.22898	-0.053
Mof_H 	H 	0.28617	0.21243	0.20063	0.006
Mof_C 	C 	0.29257	0.18653	0.20858	0.015
Mof_H 	H 	0.43857	0.28973	0.16353	0.006
Mof_C 	C 	0.45827	0.27003	0.16749	0.017
Mof_H 	H 	0.53827	0.34073	0.16533	0.043
Mof_C 	C 	0.51777	0.30093	0.16872	-0.045
Mof_C 	C 	0.97483	0.44567	0.56532	-0.018
Mof_H 	H 	0.98153	0.41977	0.57317	0.036
Mof_C 	C 	0.98863	0.45397	0.54484	0.035
Mof_H 	H 	0.00403	0.43217	0.53897	-0.004
Mof_C 	C 	0.12303	0.52137	0.51195	0.015
Mof_H 	H 	0.10173	0.48237	0.51627	0.007
Mof_C 	C 	0.18253	0.54967	0.51309	-0.052
Mof_H 	H 	0.20153	0.52937	0.51717	0.045
Mof_N 	N 	0.92459	0.50642	0.60457	-0.147
Mof_C 	C 	0.90504	0.4944	0.62359	0.106
Mof_C 	C 	0.89125	0.53534	0.63393	0.024
Mof_N 	N 	0.86205	0.61054	0.65257	-0.222
Mof_C 	C 	0.87063	0.61107	0.63234	0.013
Mof_H 	H 	0.86713	0.63877	0.62437	0.007
Mof_C 	C 	0.88403	0.57447	0.62257	-0.042
Mof_H 	H 	0.88833	0.57597	0.60817	0.042
Mof_C 	C 	0.88563	0.53517	0.65492	-0.065
Mof_H 	H 	0.89093	0.50897	0.66317	0.05
Mof_C 	C 	0.87223	0.57377	0.6636	0
Mof_H 	H 	0.86993	0.57467	0.67807	0.012
Mof_C 	C 	0.89863	0.62767	0.63655	0.02
Mof_H 	H 	0.91543	0.66637	0.63197	0.007
Mof_C 	C 	0.91233	0.59097	0.62662	-0.053
Mof_H 	H 	0.93603	0.60357	0.61487	0.047
Mof_C 	C 	0.85693	0.51937	0.65085	-0.03
Mof_H 	H 	0.84223	0.48187	0.65637	0.039
Mof_C 	C 	0.84363	0.55757	0.65995	0.032
Mof_H 	H 	0.82063	0.54607	0.67187	0.001
Mof_H 	H 	0.93013	0.53717	0.56817	0.056
Mof_C 	C 	0.94453	0.51437	0.56232	-0.082
Mof_H 	H 	0.95283	0.54577	0.53397	0.013
Mof_C 	C 	0.95923	0.51987	0.54192	0.005
Mof_H 	H 	0.10523	0.62307	0.49687	0.005
Mof_C 	C 	0.12493	0.60337	0.50083	0.017
Mof_H 	H 	0.20493	0.67407	0.49867	0.043
Mof_C 	C 	0.18443	0.63427	0.50206	-0.044
Mof_C 	C 	0.6415	0.8625	0.89865	-0.044
Mof_H 	H 	0.6482	0.8951	0.9065	0.044
Mof_C 	C 	0.6553	0.868	0.87817	0.016
Mof_H 	H 	0.6707	0.9052	0.8723	0.008
Mof_C 	C 	0.7897	0.935	0.84528	0.016
Mof_H 	H 	0.7684	0.9527	0.8496	0.009
Mof_C 	C 	0.8492	0.9662	0.84642	-0.04
Mof_H 	H 	0.8682	0.0055	0.8505	0.038
Mof_N 	N 	0.59126	0.75151	0.9379	-0.147
Mof_C 	C 	0.57171	0.74398	0.95692	0.106
Mof_C 	C 	0.55792	0.68925	0.96726	0.024
Mof_N 	N 	0.52872	0.58485	0.9859	-0.222
Mof_C 	C 	0.5373	0.5929	0.96567	0.014
Mof_H 	H 	0.5338	0.5617	0.9577	0.007
Mof_C 	C 	0.5507	0.6429	0.9559	-0.042
Mof_H 	H 	0.555	0.6457	0.9415	0.042
Mof_C 	C 	0.5523	0.6838	0.98825	-0.066
Mof_H 	H 	0.5576	0.7153	0.9965	0.05
Mof_C 	C 	0.5389	0.6318	0.99693	-0.001
Mof_H 	H 	0.5366	0.6286	0.0114	0.012
Mof_C 	C 	0.5653	0.6043	0.96988	0.019
Mof_H 	H 	0.5821	0.5824	0.9653	0.007
Mof_C 	C 	0.579	0.6547	0.95995	-0.054
Mof_H 	H 	0.6027	0.6658	0.9482	0.046
Mof_C 	C 	0.5236	0.6709	0.98418	-0.029
Mof_H 	H 	0.5089	0.6937	0.9897	0.039
Mof_C 	C 	0.5103	0.6194	0.99328	0.033
Mof_H 	H 	0.4873	0.6079	0.0052	0
Mof_H 	H 	0.5968	0.7263	0.9015	0.046
Mof_C 	C 	0.6112	0.7635	0.89565	-0.052
Mof_H 	H 	0.6195	0.7404	0.8673	0.006
Mof_C 	C 	0.6259	0.7727	0.87525	0.016
Mof_H 	H 	0.7719	0.8155	0.8302	0.005
Mof_C 	C 	0.7916	0.8549	0.83416	0.018
Mof_H 	H 	0.8716	0.8642	0.832	0.043
Mof_C 	C 	0.8511	0.8835	0.83539	-0.041
Mof_C 	C 	0.30817	0.19583	0.23198	-0.043
Mof_H 	H 	0.31487	0.22843	0.23983	0.043
Mof_C 	C 	0.32197	0.20133	0.2115	0.016
Mof_H 	H 	0.33737	0.23853	0.20563	0.007
Mof_C 	C 	0.45637	0.26833	0.17861	0.016
Mof_H 	H 	0.43507	0.28603	0.18293	0.007
Mof_C 	C 	0.51587	0.29953	0.17975	-0.051
Mof_H 	H 	0.53487	0.33883	0.18383	0.045
Mof_N 	N 	0.25793	0.08484	0.27123	-0.149
Mof_C 	C 	0.23838	0.07731	0.29025	0.106
Mof_C 	C 	0.22459	0.02258	0.30059	0.017
Mof_N 	N 	0.19539	0.91818	0.31923	-0.222
Mof_C 	C 	0.20397	0.92623	0.299	0.012
Mof_H 	H 	0.20047	0.89503	0.29103	0.007
Mof_C 	C 	0.21737	0.97623	0.28923	-0.039
Mof_H 	H 	0.22167	0.97903	0.27483	0.042
Mof_C 	C 	0.21897	0.01713	0.32158	-0.068
Mof_H 	H 	0.22427	0.04863	0.32983	0.049
Mof_C 	C 	0.20557	0.96513	0.33026	0.004
Mof_H 	H 	0.20327	0.96193	0.34473	0.012
Mof_C 	C 	0.23197	0.93763	0.30321	0.02
Mof_H 	H 	0.24877	0.91573	0.29863	0.007
Mof_C 	C 	0.24567	0.98803	0.29328	-0.048
Mof_H 	H 	0.26937	0.99913	0.28153	0.046
Mof_C 	C 	0.19027	0.00423	0.31751	-0.033
Mof_H 	H 	0.17557	0.02703	0.32303	0.039
Mof_C 	C 	0.17697	0.95273	0.32661	0.035
Mof_H 	H 	0.15397	0.94123	0.33853	0
Mof_H 	H 	0.26347	0.05963	0.23483	0.044
Mof_C 	C 	0.27787	0.09683	0.22898	-0.051
Mof_H 	H 	0.28617	0.07373	0.20063	0.005
Mof_C 	C 	0.29257	0.10603	0.20858	0.016
Mof_H 	H 	0.43857	0.14883	0.16353	0.005
Mof_C 	C 	0.45827	0.18823	0.16749	0.017
Mof_H 	H 	0.53827	0.19753	0.16533	0.043
Mof_C 	C 	0.51777	0.21683	0.16872	-0.045
Mof_C 	C 	0.97483	0.52917	0.56532	-0.017
Mof_H 	H 	0.98153	0.56177	0.57317	0.036
Mof_C 	C 	0.98863	0.53467	0.54484	0.035
Mof_H 	H 	0.00403	0.57187	0.53897	-0.004
Mof_C 	C 	0.12303	0.60167	0.51195	0.015
Mof_H 	H 	0.10173	0.61937	0.51627	0.007
Mof_C 	C 	0.18253	0.63287	0.51309	-0.052
Mof_H 	H 	0.20153	0.67217	0.51717	0.046
Mof_N 	N 	0.92459	0.41818	0.60457	-0.147
Mof_C 	C 	0.90504	0.41065	0.62359	0.106
Mof_C 	C 	0.89125	0.35592	0.63393	0.024
Mof_N 	N 	0.86205	0.25152	0.65257	-0.222
Mof_C 	C 	0.87063	0.25957	0.63234	0.013
Mof_H 	H 	0.86713	0.22837	0.62437	0.007
Mof_C 	C 	0.88403	0.30957	0.62257	-0.042
Mof_H 	H 	0.88833	0.31237	0.60817	0.042
Mof_C 	C 	0.88563	0.35047	0.65492	-0.066
Mof_H 	H 	0.89093	0.38197	0.66317	0.05
Mof_C 	C 	0.87223	0.29847	0.6636	0
Mof_H 	H 	0.86993	0.29527	0.67807	0.012
Mof_C 	C 	0.89863	0.27097	0.63655	0.02
Mof_H 	H 	0.91543	0.24907	0.63197	0.007
Mof_C 	C 	0.91233	0.32137	0.62662	-0.053
Mof_H 	H 	0.93603	0.33247	0.61487	0.047
Mof_C 	C 	0.85693	0.33757	0.65085	-0.03
Mof_H 	H 	0.84223	0.36037	0.65637	0.039
Mof_C 	C 	0.84363	0.28607	0.65995	0.032
Mof_H 	H 	0.82063	0.27457	0.67187	0.001
Mof_H 	H 	0.93013	0.39297	0.56817	0.056
Mof_C 	C 	0.94453	0.43017	0.56232	-0.082
Mof_H 	H 	0.95283	0.40707	0.53397	0.013
Mof_C 	C 	0.95923	0.43937	0.54192	0.005
Mof_H 	H 	0.10523	0.48217	0.49687	0.005
Mof_C 	C 	0.12493	0.52157	0.50083	0.017
Mof_H 	H 	0.20493	0.53087	0.49867	0.043
Mof_C 	C 	0.18443	0.55017	0.50206	-0.044
Mof_C 	C 	0.1375	0.779	0.89865	-0.045
Mof_H 	H 	0.1049	0.7531	0.9065	0.043
Mof_C 	C 	0.132	0.7873	0.87817	0.015
Mof_H 	H 	0.0948	0.7655	0.8723	0.007
Mof_C 	C 	0.065	0.8547	0.84528	0.014
Mof_H 	H 	0.0473	0.8157	0.8496	0.007
Mof_C 	C 	0.0338	0.883	0.84642	-0.063
Mof_H 	H 	0.9945	0.8627	0.8505	0.054
Mof_N 	N 	0.24849	0.83975	0.9379	-0.147
Mof_C 	C 	0.25602	0.82773	0.95692	0.106
Mof_C 	C 	0.31075	0.86867	0.96726	0.024
Mof_N 	N 	0.41515	0.94387	0.9859	-0.22
Mof_C 	C 	0.4071	0.9444	0.96567	0.013
Mof_H 	H 	0.4383	0.9721	0.9577	0.008
Mof_C 	C 	0.3571	0.9078	0.9559	-0.043
Mof_H 	H 	0.3543	0.9093	0.9415	0.043
Mof_C 	C 	0.3162	0.8685	0.98825	-0.065
Mof_H 	H 	0.2847	0.8423	0.9965	0.049
Mof_C 	C 	0.3682	0.9071	0.99693	0.001
Mof_H 	H 	0.3714	0.908	0.0114	0.013
Mof_C 	C 	0.3957	0.961	0.96988	0.02
Mof_H 	H 	0.4176	0.9997	0.9653	0.008
Mof_C 	C 	0.3453	0.9243	0.95995	-0.052
Mof_H 	H 	0.3342	0.9369	0.9482	0.046
Mof_C 	C 	0.3291	0.8527	0.98418	-0.03
Mof_H 	H 	0.3063	0.8152	0.9897	0.039
Mof_C 	C 	0.3806	0.8909	0.99328	0.032
Mof_H 	H 	0.3921	0.8794	0.0052	0.001
Mof_H 	H 	0.2737	0.8705	0.9015	0.046
Mof_C 	C 	0.2365	0.8477	0.89565	-0.051
Mof_H 	H 	0.2596	0.8791	0.8673	0.006
Mof_C 	C 	0.2273	0.8532	0.87525	0.018
Mof_H 	H 	0.1845	0.9564	0.8302	0.009
Mof_C 	C 	0.1451	0.9367	0.83416	0.01
Mof_H 	H 	0.1358	0.0074	0.832	0.039
Mof_C 	C 	0.1165	0.9676	0.83539	-0.043
Mof_C 	C 	0.80417	0.11233	0.23198	-0.046
Mof_H 	H 	0.77157	0.08643	0.23983	0.043
Mof_C 	C 	0.79867	0.12063	0.2115	0.013
Mof_H 	H 	0.76147	0.09883	0.20563	0.007
Mof_C 	C 	0.73167	0.18803	0.17861	0.016
Mof_H 	H 	0.71397	0.14903	0.18293	0.007
Mof_C 	C 	0.70047	0.21633	0.17975	-0.051
Mof_H 	H 	0.66117	0.19603	0.18383	0.045
Mof_N 	N 	0.91516	0.17308	0.27123	-0.146
Mof_C 	C 	0.92269	0.16106	0.29025	0.105
Mof_C 	C 	0.97742	0.202	0.30059	0.03
Mof_N 	N 	0.08182	0.2772	0.31923	-0.221
Mof_C 	C 	0.07377	0.27773	0.299	0.016
Mof_H 	H 	0.10497	0.30543	0.29103	0.006
Mof_C 	C 	0.02377	0.24113	0.28923	-0.044
Mof_H 	H 	0.02097	0.24263	0.27483	0.041
Mof_C 	C 	0.98287	0.20183	0.32158	-0.065
Mof_H 	H 	0.95137	0.17563	0.32983	0.05
Mof_C 	C 	0.03487	0.24043	0.33026	-0.006
Mof_H 	H 	0.03807	0.24133	0.34473	0.013
Mof_C 	C 	0.06237	0.29433	0.30321	0.019
Mof_H 	H 	0.08427	0.33303	0.29863	0.006
Mof_C 	C 	0.01197	0.25763	0.29328	-0.059
Mof_H 	H 	0.00087	0.27023	0.28153	0.046
Mof_C 	C 	0.99577	0.18603	0.31751	-0.024
Mof_H 	H 	0.97297	0.14853	0.32303	0.038
Mof_C 	C 	0.04727	0.22423	0.32661	0.031
Mof_H 	H 	0.05877	0.21273	0.33853	-0
Mof_H 	H 	0.94037	0.20383	0.23483	0.047
Mof_C 	C 	0.90317	0.18103	0.22898	-0.052
Mof_H 	H 	0.92627	0.21243	0.20063	0.007
Mof_C 	C 	0.89397	0.18653	0.20858	0.016
Mof_H 	H 	0.85117	0.28973	0.16353	0.006
Mof_C 	C 	0.81177	0.27003	0.16749	0.017
Mof_H 	H 	0.80247	0.34073	0.16533	0.044
Mof_C 	C 	0.78317	0.30093	0.16872	-0.045
Mof_C 	C 	0.47083	0.44567	0.56532	-0.045
Mof_H 	H 	0.43823	0.41977	0.57317	0.043
Mof_C 	C 	0.46533	0.45397	0.54484	0.015
Mof_H 	H 	0.42813	0.43217	0.53897	0.008
Mof_C 	C 	0.39833	0.52137	0.51195	0.017
Mof_H 	H 	0.38063	0.48237	0.51627	0.007
Mof_C 	C 	0.36713	0.54967	0.51309	-0.051
Mof_H 	H 	0.32783	0.52937	0.51717	0.045
Mof_N 	N 	0.58182	0.50642	0.60457	-0.147
Mof_C 	C 	0.58935	0.4944	0.62359	0.106
Mof_C 	C 	0.64408	0.53534	0.63393	0.024
Mof_N 	N 	0.74848	0.61054	0.65257	-0.222
Mof_C 	C 	0.74043	0.61107	0.63234	0.015
Mof_H 	H 	0.77163	0.63877	0.62437	0.006
Mof_C 	C 	0.69043	0.57447	0.62257	-0.041
Mof_H 	H 	0.68763	0.57597	0.60817	0.042
Mof_C 	C 	0.64953	0.53517	0.65492	-0.068
Mof_H 	H 	0.61803	0.50897	0.66317	0.05
Mof_C 	C 	0.70153	0.57377	0.6636	-0.002
Mof_H 	H 	0.70473	0.57467	0.67807	0.013
Mof_C 	C 	0.72903	0.62767	0.63655	0.018
Mof_H 	H 	0.75093	0.66637	0.63197	0.007
Mof_C 	C 	0.67863	0.59097	0.62662	-0.055
Mof_H 	H 	0.66753	0.60357	0.61487	0.047
Mof_C 	C 	0.66243	0.51937	0.65085	-0.027
Mof_H 	H 	0.63963	0.48187	0.65637	0.039
Mof_C 	C 	0.71393	0.55757	0.65995	0.034
Mof_H 	H 	0.72543	0.54607	0.67187	-0
Mof_H 	H 	0.60703	0.53717	0.56817	0.046
Mof_C 	C 	0.56983	0.51437	0.56232	-0.051
Mof_H 	H 	0.59293	0.54577	0.53397	0.006
Mof_C 	C 	0.56063	0.51987	0.54192	0.018
Mof_H 	H 	0.51783	0.62307	0.49687	0.006
Mof_C 	C 	0.47843	0.60337	0.50083	0.017
Mof_H 	H 	0.46913	0.67407	0.49867	0.043
Mof_C 	C 	0.44983	0.63427	0.50206	-0.045
Mof_C 	C 	0.221	0.3585	0.89865	-0.047
Mof_H 	H 	0.2469	0.3518	0.9065	0.043
Mof_C 	C 	0.2127	0.3447	0.87817	0.013
Mof_H 	H 	0.2345	0.3293	0.8723	0.008
Mof_C 	C 	0.1453	0.2103	0.84528	0.019
Mof_H 	H 	0.1843	0.2316	0.8496	0.006
Mof_C 	C 	0.117	0.1508	0.84642	-0.051
Mof_H 	H 	0.1373	0.1318	0.8505	0.045
Mof_N 	N 	0.16025	0.40874	0.9379	-0.148
Mof_C 	C 	0.17227	0.42829	0.95692	0.105
Mof_C 	C 	0.13133	0.44208	0.96726	0.023
Mof_N 	N 	0.05613	0.47128	0.9859	-0.223
Mof_C 	C 	0.0556	0.4627	0.96567	0.019
Mof_H 	H 	0.0279	0.4662	0.9577	0.004
Mof_C 	C 	0.0922	0.4493	0.9559	-0.037
Mof_H 	H 	0.0907	0.445	0.9415	0.04
Mof_C 	C 	0.1315	0.4477	0.98825	-0.072
Mof_H 	H 	0.1577	0.4424	0.9965	0.051
Mof_C 	C 	0.0929	0.4611	0.99693	-0.006
Mof_H 	H 	0.092	0.4634	0.0114	0.013
Mof_C 	C 	0.039	0.4347	0.96988	0.015
Mof_H 	H 	0.0003	0.4179	0.9653	0.005
Mof_C 	C 	0.0757	0.421	0.95995	-0.059
Mof_H 	H 	0.0631	0.3973	0.9482	0.047
Mof_C 	C 	0.1473	0.4764	0.98418	-0.024
Mof_H 	H 	0.1848	0.4911	0.9897	0.037
Mof_C 	C 	0.1091	0.4897	0.99328	0.038
Mof_H 	H 	0.1206	0.5127	0.0052	-0.001
Mof_H 	H 	0.1295	0.4032	0.9015	0.045
Mof_C 	C 	0.1523	0.3888	0.89565	-0.049
Mof_H 	H 	0.1209	0.3805	0.8673	0.005
Mof_C 	C 	0.1468	0.3741	0.87525	0.019
Mof_H 	H 	0.0436	0.2281	0.8302	0.002
Mof_C 	C 	0.0633	0.2084	0.83416	0.022
Mof_H 	H 	0.9926	0.1284	0.832	0.049
Mof_C 	C 	0.0324	0.1489	0.83539	-0.051
Mof_C 	C 	0.88767	0.69183	0.23198	-0.046
Mof_H 	H 	0.91357	0.68513	0.23983	0.045
Mof_C 	C 	0.87937	0.67803	0.2115	0.014
Mof_H 	H 	0.90117	0.66263	0.20563	0.009
Mof_C 	C 	0.81197	0.54363	0.17861	0.016
Mof_H 	H 	0.85097	0.56493	0.18293	0.008
Mof_C 	C 	0.78367	0.48413	0.17975	-0.051
Mof_H 	H 	0.80397	0.46513	0.18383	0.046
Mof_N 	N 	0.82692	0.74207	0.27123	-0.147
Mof_C 	C 	0.83894	0.76162	0.29025	0.106
Mof_C 	C 	0.798	0.77541	0.30059	0.024
Mof_N 	N 	0.7228	0.80461	0.31923	-0.222
Mof_C 	C 	0.72227	0.79603	0.299	0.018
Mof_H 	H 	0.69457	0.79953	0.29103	0.006
Mof_C 	C 	0.75887	0.78263	0.28923	-0.038
Mof_H 	H 	0.75737	0.77833	0.27483	0.041
Mof_C 	C 	0.79817	0.78103	0.32158	-0.07
Mof_H 	H 	0.82437	0.77573	0.32983	0.051
Mof_C 	C 	0.75957	0.79443	0.33026	-0.004
Mof_H 	H 	0.75867	0.79673	0.34473	0.013
Mof_C 	C 	0.70567	0.76803	0.30321	0.016
Mof_H 	H 	0.66697	0.75123	0.29863	0.008
Mof_C 	C 	0.74237	0.75433	0.29328	-0.058
Mof_H 	H 	0.72977	0.73063	0.28153	0.047
Mof_C 	C 	0.81397	0.80973	0.31751	-0.026
Mof_H 	H 	0.85147	0.82443	0.32303	0.039
Mof_C 	C 	0.77577	0.82303	0.32661	0.036
Mof_H 	H 	0.78727	0.84603	0.33853	0
Mof_H 	H 	0.79617	0.73653	0.23483	0.045
Mof_C 	C 	0.81897	0.72213	0.22898	-0.049
Mof_H 	H 	0.78757	0.71383	0.20063	0.006
Mof_C 	C 	0.81347	0.70743	0.20858	0.02
Mof_H 	H 	0.71027	0.56143	0.16353	0.006
Mof_C 	C 	0.72997	0.54173	0.16749	0.017
Mof_H 	H 	0.65927	0.46173	0.16533	0.043
Mof_C 	C 	0.69907	0.48223	0.16872	-0.045
Mof_C 	C 	0.55433	0.02517	0.56532	-0.073
Mof_H 	H 	0.58023	0.01847	0.57317	0.051
Mof_C 	C 	0.54603	0.01137	0.54484	-0.006
Mof_H 	H 	0.56783	0.99597	0.53897	0.021
Mof_C 	C 	0.47863	0.87697	0.51195	0.017
Mof_H 	H 	0.51763	0.89827	0.51627	0.009
Mof_C 	C 	0.45033	0.81747	0.51309	-0.05
Mof_H 	H 	0.47063	0.79847	0.51717	0.046
Mof_N 	N 	0.49358	0.07541	0.60457	-0.148
Mof_C 	C 	0.5056	0.09496	0.62359	0.105
Mof_C 	C 	0.46466	0.10875	0.63393	0.023
Mof_N 	N 	0.38946	0.13795	0.65257	-0.222
Mof_C 	C 	0.38893	0.12937	0.63234	0.017
Mof_H 	H 	0.36123	0.13287	0.62437	0.006
Mof_C 	C 	0.42553	0.11597	0.62257	-0.039
Mof_H 	H 	0.42403	0.11167	0.60817	0.041
Mof_C 	C 	0.46483	0.11437	0.65492	-0.07
Mof_H 	H 	0.49103	0.10907	0.66317	0.05
Mof_C 	C 	0.42623	0.12777	0.6636	-0.004
Mof_H 	H 	0.42533	0.13007	0.67807	0.013
Mof_C 	C 	0.37233	0.10137	0.63655	0.016
Mof_H 	H 	0.33363	0.08457	0.63197	0.007
Mof_C 	C 	0.40903	0.08767	0.62662	-0.057
Mof_H 	H 	0.39643	0.06397	0.61487	0.046
Mof_C 	C 	0.48063	0.14307	0.65085	-0.025
Mof_H 	H 	0.51813	0.15777	0.65637	0.038
Mof_C 	C 	0.44243	0.15637	0.65995	0.036
Mof_H 	H 	0.45393	0.17937	0.67187	-0.001
Mof_H 	H 	0.46283	0.06987	0.56817	0.036
Mof_C 	C 	0.48563	0.05547	0.56232	-0.02
Mof_H 	H 	0.45423	0.04717	0.53397	-0
Mof_C 	C 	0.48013	0.04077	0.54192	0.03
Mof_H 	H 	0.37693	0.89477	0.49687	0.007
Mof_C 	C 	0.39663	0.87507	0.50083	0.016
Mof_H 	H 	0.32593	0.79507	0.49867	0.044
Mof_C 	C 	0.36573	0.81557	0.50206	-0.046
Mof_C 	C 	0.8625	0.6415	0.10135	-0.044
Mof_H 	H 	0.8951	0.6482	0.0935	0.044
Mof_C 	C 	0.868	0.6553	0.12183	0.016
Mof_H 	H 	0.9052	0.6707	0.1277	0.008
Mof_C 	C 	0.935	0.7897	0.15472	0.016
Mof_H 	H 	0.9527	0.7684	0.1504	0.009
Mof_C 	C 	0.9662	0.8492	0.15358	-0.04
Mof_H 	H 	0.0055	0.8682	0.1495	0.038
Mof_N 	N 	0.75151	0.59126	0.0621	-0.147
Mof_C 	C 	0.74398	0.57171	0.04308	0.106
Mof_C 	C 	0.68925	0.55792	0.03274	0.024
Mof_N 	N 	0.58485	0.52872	0.0141	-0.222
Mof_C 	C 	0.5929	0.5373	0.03433	0.014
Mof_H 	H 	0.5617	0.5338	0.0423	0.007
Mof_C 	C 	0.6429	0.5507	0.0441	-0.042
Mof_H 	H 	0.6457	0.555	0.0585	0.042
Mof_C 	C 	0.6838	0.5523	0.01175	-0.066
Mof_H 	H 	0.7153	0.5576	0.0035	0.05
Mof_C 	C 	0.6318	0.5389	0.00307	-0.001
Mof_H 	H 	0.6286	0.5366	0.9886	0.012
Mof_C 	C 	0.6043	0.5653	0.03012	0.019
Mof_H 	H 	0.5824	0.5821	0.0347	0.007
Mof_C 	C 	0.6547	0.579	0.04005	-0.054
Mof_H 	H 	0.6658	0.6027	0.0518	0.046
Mof_C 	C 	0.6709	0.5236	0.01582	-0.029
Mof_H 	H 	0.6937	0.5089	0.0103	0.039
Mof_C 	C 	0.6194	0.5103	0.00672	0.033
Mof_H 	H 	0.6079	0.4873	0.9948	0
Mof_H 	H 	0.7263	0.5968	0.0985	0.046
Mof_C 	C 	0.7635	0.6112	0.10435	-0.052
Mof_H 	H 	0.7404	0.6195	0.1327	0.006
Mof_C 	C 	0.7727	0.6259	0.12475	0.016
Mof_H 	H 	0.8155	0.7719	0.1698	0.005
Mof_C 	C 	0.8549	0.7916	0.16584	0.018
Mof_H 	H 	0.8642	0.8716	0.168	0.043
Mof_C 	C 	0.8835	0.8511	0.16461	-0.041
Mof_C 	C 	0.52917	0.97483	0.43468	-0.017
Mof_H 	H 	0.56177	0.98153	0.42683	0.036
Mof_C 	C 	0.53467	0.98863	0.45516	0.035
Mof_H 	H 	0.57187	0.00403	0.46103	-0.004
Mof_C 	C 	0.60167	0.12303	0.48805	0.015
Mof_H 	H 	0.61937	0.10173	0.48373	0.007
Mof_C 	C 	0.63287	0.18253	0.48691	-0.052
Mof_H 	H 	0.67217	0.20153	0.48283	0.046
Mof_N 	N 	0.41818	0.92459	0.39543	-0.147
Mof_C 	C 	0.41065	0.90504	0.37641	0.106
Mof_C 	C 	0.35592	0.89125	0.36607	0.024
Mof_N 	N 	0.25152	0.86205	0.34743	-0.222
Mof_C 	C 	0.25957	0.87063	0.36766	0.013
Mof_H 	H 	0.22837	0.86713	0.37563	0.007
Mof_C 	C 	0.30957	0.88403	0.37743	-0.042
Mof_H 	H 	0.31237	0.88833	0.39183	0.042
Mof_C 	C 	0.35047	0.88563	0.34508	-0.066
Mof_H 	H 	0.38197	0.89093	0.33683	0.05
Mof_C 	C 	0.29847	0.87223	0.3364	0
Mof_H 	H 	0.29527	0.86993	0.32193	0.012
Mof_C 	C 	0.27097	0.89863	0.36345	0.02
Mof_H 	H 	0.24907	0.91543	0.36803	0.007
Mof_C 	C 	0.32137	0.91233	0.37338	-0.053
Mof_H 	H 	0.33247	0.93603	0.38513	0.047
Mof_C 	C 	0.33757	0.85693	0.34915	-0.03
Mof_H 	H 	0.36037	0.84223	0.34363	0.039
Mof_C 	C 	0.28607	0.84363	0.34005	0.032
Mof_H 	H 	0.27457	0.82063	0.32813	0.001
Mof_H 	H 	0.39297	0.93013	0.43183	0.056
Mof_C 	C 	0.43017	0.94453	0.43768	-0.082
Mof_H 	H 	0.40707	0.95283	0.46603	0.013
Mof_C 	C 	0.43937	0.95923	0.45808	0.005
Mof_H 	H 	0.48217	0.10523	0.50313	0.005
Mof_C 	C 	0.52157	0.12493	0.49917	0.017
Mof_H 	H 	0.53087	0.20493	0.50133	0.043
Mof_C 	C 	0.55017	0.18443	0.49794	-0.044
Mof_C 	C 	0.19583	0.30817	0.76802	-0.043
Mof_H 	H 	0.22843	0.31487	0.76017	0.043
Mof_C 	C 	0.20133	0.32197	0.7885	0.016
Mof_H 	H 	0.23853	0.33737	0.79437	0.007
Mof_C 	C 	0.26833	0.45637	0.82139	0.016
Mof_H 	H 	0.28603	0.43507	0.81707	0.007
Mof_C 	C 	0.29953	0.51587	0.82025	-0.051
Mof_H 	H 	0.33883	0.53487	0.81617	0.045
Mof_N 	N 	0.08484	0.25793	0.72877	-0.149
Mof_C 	C 	0.07731	0.23838	0.70975	0.106
Mof_C 	C 	0.02258	0.22459	0.69941	0.017
Mof_N 	N 	0.91818	0.19539	0.68077	-0.222
Mof_C 	C 	0.92623	0.20397	0.701	0.012
Mof_H 	H 	0.89503	0.20047	0.70897	0.007
Mof_C 	C 	0.97623	0.21737	0.71077	-0.039
Mof_H 	H 	0.97903	0.22167	0.72517	0.042
Mof_C 	C 	0.01713	0.21897	0.67842	-0.068
Mof_H 	H 	0.04863	0.22427	0.67017	0.049
Mof_C 	C 	0.96513	0.20557	0.66974	0.004
Mof_H 	H 	0.96193	0.20327	0.65527	0.012
Mof_C 	C 	0.93763	0.23197	0.69679	0.02
Mof_H 	H 	0.91573	0.24877	0.70137	0.007
Mof_C 	C 	0.98803	0.24567	0.70672	-0.048
Mof_H 	H 	0.99913	0.26937	0.71847	0.046
Mof_C 	C 	0.00423	0.19027	0.68249	-0.033
Mof_H 	H 	0.02703	0.17557	0.67697	0.039
Mof_C 	C 	0.95273	0.17697	0.67339	0.035
Mof_H 	H 	0.94123	0.15397	0.66147	0
Mof_H 	H 	0.05963	0.26347	0.76517	0.044
Mof_C 	C 	0.09683	0.27787	0.77102	-0.051
Mof_H 	H 	0.07373	0.28617	0.79937	0.005
Mof_C 	C 	0.10603	0.29257	0.79142	0.016
Mof_H 	H 	0.14883	0.43857	0.83647	0.005
Mof_C 	C 	0.18823	0.45827	0.83251	0.017
Mof_H 	H 	0.19753	0.53827	0.83467	0.043
Mof_C 	C 	0.21683	0.51777	0.83128	-0.045
Mof_C 	C 	0.779	0.1375	0.10135	-0.045
Mof_H 	H 	0.7531	0.1049	0.0935	0.043
Mof_C 	C 	0.7873	0.132	0.12183	0.015
Mof_H 	H 	0.7655	0.0948	0.1277	0.007
Mof_C 	C 	0.8547	0.065	0.15472	0.014
Mof_H 	H 	0.8157	0.0473	0.1504	0.007
Mof_C 	C 	0.883	0.0338	0.15358	-0.063
Mof_H 	H 	0.8627	0.9945	0.1495	0.054
Mof_N 	N 	0.83975	0.24849	0.0621	-0.147
Mof_C 	C 	0.82773	0.25602	0.04308	0.106
Mof_C 	C 	0.86867	0.31075	0.03274	0.024
Mof_N 	N 	0.94387	0.41515	0.0141	-0.22
Mof_C 	C 	0.9444	0.4071	0.03433	0.013
Mof_H 	H 	0.9721	0.4383	0.0423	0.008
Mof_C 	C 	0.9078	0.3571	0.0441	-0.043
Mof_H 	H 	0.9093	0.3543	0.0585	0.043
Mof_C 	C 	0.8685	0.3162	0.01175	-0.065
Mof_H 	H 	0.8423	0.2847	0.0035	0.049
Mof_C 	C 	0.9071	0.3682	0.00307	0.001
Mof_H 	H 	0.908	0.3714	0.9886	0.013
Mof_C 	C 	0.961	0.3957	0.03012	0.02
Mof_H 	H 	0.9997	0.4176	0.0347	0.008
Mof_C 	C 	0.9243	0.3453	0.04005	-0.052
Mof_H 	H 	0.9369	0.3342	0.0518	0.046
Mof_C 	C 	0.8527	0.3291	0.01582	-0.03
Mof_H 	H 	0.8152	0.3063	0.0103	0.039
Mof_C 	C 	0.8909	0.3806	0.00672	0.032
Mof_H 	H 	0.8794	0.3921	0.9948	0.001
Mof_H 	H 	0.8705	0.2737	0.0985	0.046
Mof_C 	C 	0.8477	0.2365	0.10435	-0.051
Mof_H 	H 	0.8791	0.2596	0.1327	0.006
Mof_C 	C 	0.8532	0.2273	0.12475	0.018
Mof_H 	H 	0.9564	0.1845	0.1698	0.009
Mof_C 	C 	0.9367	0.1451	0.16584	0.01
Mof_H 	H 	0.0074	0.1358	0.168	0.039
Mof_C 	C 	0.9676	0.1165	0.16461	-0.043
Mof_C 	C 	0.44567	0.47083	0.43468	-0.045
Mof_H 	H 	0.41977	0.43823	0.42683	0.043
Mof_C 	C 	0.45397	0.46533	0.45516	0.015
Mof_H 	H 	0.43217	0.42813	0.46103	0.008
Mof_C 	C 	0.52137	0.39833	0.48805	0.017
Mof_H 	H 	0.48237	0.38063	0.48373	0.007
Mof_C 	C 	0.54967	0.36713	0.48691	-0.051
Mof_H 	H 	0.52937	0.32783	0.48283	0.045
Mof_N 	N 	0.50642	0.58182	0.39543	-0.147
Mof_C 	C 	0.4944	0.58935	0.37641	0.106
Mof_C 	C 	0.53534	0.64408	0.36607	0.024
Mof_N 	N 	0.61054	0.74848	0.34743	-0.222
Mof_C 	C 	0.61107	0.74043	0.36766	0.015
Mof_H 	H 	0.63877	0.77163	0.37563	0.006
Mof_C 	C 	0.57447	0.69043	0.37743	-0.041
Mof_H 	H 	0.57597	0.68763	0.39183	0.042
Mof_C 	C 	0.53517	0.64953	0.34508	-0.068
Mof_H 	H 	0.50897	0.61803	0.33683	0.05
Mof_C 	C 	0.57377	0.70153	0.3364	-0.002
Mof_H 	H 	0.57467	0.70473	0.32193	0.013
Mof_C 	C 	0.62767	0.72903	0.36345	0.018
Mof_H 	H 	0.66637	0.75093	0.36803	0.007
Mof_C 	C 	0.59097	0.67863	0.37338	-0.055
Mof_H 	H 	0.60357	0.66753	0.38513	0.047
Mof_C 	C 	0.51937	0.66243	0.34915	-0.027
Mof_H 	H 	0.48187	0.63963	0.34363	0.039
Mof_C 	C 	0.55757	0.71393	0.34005	0.034
Mof_H 	H 	0.54607	0.72543	0.32813	-0
Mof_H 	H 	0.53717	0.60703	0.43183	0.046
Mof_C 	C 	0.51437	0.56983	0.43768	-0.051
Mof_H 	H 	0.54577	0.59293	0.46603	0.006
Mof_C 	C 	0.51987	0.56063	0.45808	0.018
Mof_H 	H 	0.62307	0.51783	0.50313	0.006
Mof_C 	C 	0.60337	0.47843	0.49917	0.017
Mof_H 	H 	0.67407	0.46913	0.50133	0.043
Mof_C 	C 	0.63427	0.44983	0.49794	-0.045
Mof_C 	C 	0.11233	0.80417	0.76802	-0.046
Mof_H 	H 	0.08643	0.77157	0.76017	0.043
Mof_C 	C 	0.12063	0.79867	0.7885	0.013
Mof_H 	H 	0.09883	0.76147	0.79437	0.007
Mof_C 	C 	0.18803	0.73167	0.82139	0.016
Mof_H 	H 	0.14903	0.71397	0.81707	0.007
Mof_C 	C 	0.21633	0.70047	0.82025	-0.051
Mof_H 	H 	0.19603	0.66117	0.81617	0.045
Mof_N 	N 	0.17308	0.91516	0.72877	-0.146
Mof_C 	C 	0.16106	0.92269	0.70975	0.105
Mof_C 	C 	0.202	0.97742	0.69941	0.03
Mof_N 	N 	0.2772	0.08182	0.68077	-0.221
Mof_C 	C 	0.27773	0.07377	0.701	0.016
Mof_H 	H 	0.30543	0.10497	0.70897	0.006
Mof_C 	C 	0.24113	0.02377	0.71077	-0.044
Mof_H 	H 	0.24263	0.02097	0.72517	0.041
Mof_C 	C 	0.20183	0.98287	0.67842	-0.065
Mof_H 	H 	0.17563	0.95137	0.67017	0.05
Mof_C 	C 	0.24043	0.03487	0.66974	-0.006
Mof_H 	H 	0.24133	0.03807	0.65527	0.013
Mof_C 	C 	0.29433	0.06237	0.69679	0.019
Mof_H 	H 	0.33303	0.08427	0.70137	0.006
Mof_C 	C 	0.25763	0.01197	0.70672	-0.059
Mof_H 	H 	0.27023	0.00087	0.71847	0.046
Mof_C 	C 	0.18603	0.99577	0.68249	-0.024
Mof_H 	H 	0.14853	0.97297	0.67697	0.038
Mof_C 	C 	0.22423	0.04727	0.67339	0.031
Mof_H 	H 	0.21273	0.05877	0.66147	-0
Mof_H 	H 	0.20383	0.94037	0.76517	0.047
Mof_C 	C 	0.18103	0.90317	0.77102	-0.052
Mof_H 	H 	0.21243	0.92627	0.79937	0.007
Mof_C 	C 	0.18653	0.89397	0.79142	0.016
Mof_H 	H 	0.28973	0.85117	0.83647	0.006
Mof_C 	C 	0.27003	0.81177	0.83251	0.017
Mof_H 	H 	0.34073	0.80247	0.83467	0.044
Mof_C 	C 	0.30093	0.78317	0.83128	-0.045
Mof_C 	C 	0.3585	0.221	0.10135	-0.047
Mof_H 	H 	0.3518	0.2469	0.0935	0.043
Mof_C 	C 	0.3447	0.2127	0.12183	0.013
Mof_H 	H 	0.3293	0.2345	0.1277	0.008
Mof_C 	C 	0.2103	0.1453	0.15472	0.019
Mof_H 	H 	0.2316	0.1843	0.1504	0.006
Mof_C 	C 	0.1508	0.117	0.15358	-0.051
Mof_H 	H 	0.1318	0.1373	0.1495	0.045
Mof_N 	N 	0.40874	0.16025	0.0621	-0.148
Mof_C 	C 	0.42829	0.17227	0.04308	0.105
Mof_C 	C 	0.44208	0.13133	0.03274	0.023
Mof_N 	N 	0.47128	0.05613	0.0141	-0.223
Mof_C 	C 	0.4627	0.0556	0.03433	0.019
Mof_H 	H 	0.4662	0.0279	0.0423	0.004
Mof_C 	C 	0.4493	0.0922	0.0441	-0.037
Mof_H 	H 	0.445	0.0907	0.0585	0.04
Mof_C 	C 	0.4477	0.1315	0.01175	-0.072
Mof_H 	H 	0.4424	0.1577	0.0035	0.051
Mof_C 	C 	0.4611	0.0929	0.00307	-0.006
Mof_H 	H 	0.4634	0.092	0.9886	0.013
Mof_C 	C 	0.4347	0.039	0.03012	0.015
Mof_H 	H 	0.4179	0.0003	0.0347	0.005
Mof_C 	C 	0.421	0.0757	0.04005	-0.059
Mof_H 	H 	0.3973	0.0631	0.0518	0.047
Mof_C 	C 	0.4764	0.1473	0.01582	-0.024
Mof_H 	H 	0.4911	0.1848	0.0103	0.037
Mof_C 	C 	0.4897	0.1091	0.00672	0.038
Mof_H 	H 	0.5127	0.1206	0.9948	-0.001
Mof_H 	H 	0.4032	0.1295	0.0985	0.045
Mof_C 	C 	0.3888	0.1523	0.10435	-0.049
Mof_H 	H 	0.3805	0.1209	0.1327	0.005
Mof_C 	C 	0.3741	0.1468	0.12475	0.019
Mof_H 	H 	0.2281	0.0436	0.1698	0.002
Mof_C 	C 	0.2084	0.0633	0.16584	0.022
Mof_H 	H 	0.1284	0.9926	0.168	0.049
Mof_C 	C 	0.1489	0.0324	0.16461	-0.051
Mof_C 	C 	0.02517	0.55433	0.43468	-0.073
Mof_H 	H 	0.01847	0.58023	0.42683	0.051
Mof_C 	C 	0.01137	0.54603	0.45516	-0.006
Mof_H 	H 	0.99597	0.56783	0.46103	0.021
Mof_C 	C 	0.87697	0.47863	0.48805	0.017
Mof_H 	H 	0.89827	0.51763	0.48373	0.009
Mof_C 	C 	0.81747	0.45033	0.48691	-0.05
Mof_H 	H 	0.79847	0.47063	0.48283	0.046
Mof_N 	N 	0.07541	0.49358	0.39543	-0.148
Mof_C 	C 	0.09496	0.5056	0.37641	0.105
Mof_C 	C 	0.10875	0.46466	0.36607	0.023
Mof_N 	N 	0.13795	0.38946	0.34743	-0.222
Mof_C 	C 	0.12937	0.38893	0.36766	0.017
Mof_H 	H 	0.13287	0.36123	0.37563	0.006
Mof_C 	C 	0.11597	0.42553	0.37743	-0.039
Mof_H 	H 	0.11167	0.42403	0.39183	0.041
Mof_C 	C 	0.11437	0.46483	0.34508	-0.07
Mof_H 	H 	0.10907	0.49103	0.33683	0.05
Mof_C 	C 	0.12777	0.42623	0.3364	-0.004
Mof_H 	H 	0.13007	0.42533	0.32193	0.013
Mof_C 	C 	0.10137	0.37233	0.36345	0.016
Mof_H 	H 	0.08457	0.33363	0.36803	0.007
Mof_C 	C 	0.08767	0.40903	0.37338	-0.057
Mof_H 	H 	0.06397	0.39643	0.38513	0.046
Mof_C 	C 	0.14307	0.48063	0.34915	-0.025
Mof_H 	H 	0.15777	0.51813	0.34363	0.038
Mof_C 	C 	0.15637	0.44243	0.34005	0.036
Mof_H 	H 	0.17937	0.45393	0.32813	-0.001
Mof_H 	H 	0.06987	0.46283	0.43183	0.036
Mof_C 	C 	0.05547	0.48563	0.43768	-0.02
Mof_H 	H 	0.04717	0.45423	0.46603	-0
Mof_C 	C 	0.04077	0.48013	0.45808	0.03
Mof_H 	H 	0.89477	0.37693	0.50313	0.007
Mof_C 	C 	0.87507	0.39663	0.49917	0.016
Mof_H 	H 	0.79507	0.32593	0.50133	0.044
Mof_C 	C 	0.81557	0.36573	0.49794	-0.046
Mof_C 	C 	0.69183	0.88767	0.76802	-0.046
Mof_H 	H 	0.68513	0.91357	0.76017	0.045
Mof_C 	C 	0.67803	0.87937	0.7885	0.014
Mof_H 	H 	0.66263	0.90117	0.79437	0.009
Mof_C 	C 	0.54363	0.81197	0.82139	0.016
Mof_H 	H 	0.56493	0.85097	0.81707	0.008
Mof_C 	C 	0.48413	0.78367	0.82025	-0.051
Mof_H 	H 	0.46513	0.80397	0.81617	0.046
Mof_N 	N 	0.74207	0.82692	0.72877	-0.147
Mof_C 	C 	0.76162	0.83894	0.70975	0.106
Mof_C 	C 	0.77541	0.798	0.69941	0.024
Mof_N 	N 	0.80461	0.7228	0.68077	-0.222
Mof_C 	C 	0.79603	0.72227	0.701	0.018
Mof_H 	H 	0.79953	0.69457	0.70897	0.006
Mof_C 	C 	0.78263	0.75887	0.71077	-0.038
Mof_H 	H 	0.77833	0.75737	0.72517	0.041
Mof_C 	C 	0.78103	0.79817	0.67842	-0.07
Mof_H 	H 	0.77573	0.82437	0.67017	0.051
Mof_C 	C 	0.79443	0.75957	0.66974	-0.004
Mof_H 	H 	0.79673	0.75867	0.65527	0.013
Mof_C 	C 	0.76803	0.70567	0.69679	0.016
Mof_H 	H 	0.75123	0.66697	0.70137	0.008
Mof_C 	C 	0.75433	0.74237	0.70672	-0.058
Mof_H 	H 	0.73063	0.72977	0.71847	0.047
Mof_C 	C 	0.80973	0.81397	0.68249	-0.026
Mof_H 	H 	0.82443	0.85147	0.67697	0.039
Mof_C 	C 	0.82303	0.77577	0.67339	0.036
Mof_H 	H 	0.84603	0.78727	0.66147	0
Mof_H 	H 	0.73653	0.79617	0.76517	0.045
Mof_C 	C 	0.72213	0.81897	0.77102	-0.049
Mof_H 	H 	0.71383	0.78757	0.79937	0.006
Mof_C 	C 	0.70743	0.81347	0.79142	0.02
Mof_H 	H 	0.56143	0.71027	0.83647	0.006
Mof_C 	C 	0.54173	0.72997	0.83251	0.017
Mof_H 	H 	0.46173	0.65927	0.83467	0.043
Mof_C 	C 	0.48223	0.69907	0.83128	-0.045
Mof_Co	Co	0.33333	0.16667	0.16667	1.12
Mof_Co	Co	-1.61548e-17	0.5	0.5	1.118
Mof_Co	Co	0.83333	0.16667	0.16667	1.12
Mof_Co	Co	0.5	0.5	0.5	1.12
Mof_Co	Co	0.83333	0.66667	0.16667	1.12
Mof_Co	Co	0.5	1.98094e-32	0.5	1.118
Mof_Co	Co	0.16667	0.33333	0.83333	1.12
Mof_Co	Co	0.16667	0.83333	0.83333	1.12
Mof_Co	Co	0.66667	0.83333	0.83333	1.12
Mof_S 	S 	0.33333	0.98878	0.16667	-0.061
Mof_N 	N 	0.33333	0.08932	0.16667	-0.276
Mof_C 	C 	0.33333	0.04832	0.16667	0.108
Mof_S 	S 	6.14861e-18	0.32211	0.5	-0.077
Mof_N 	N 	-1.61548e-17	0.42265	0.5	-0.28
Mof_C 	C 	6.14861e-18	0.38165	0.5	0.116
Mof_S 	S 	0.01122	0.34456	0.16667	-0.084
Mof_N 	N 	0.91068	0.24402	0.16667	-0.28
Mof_C 	C 	0.95168	0.28502	0.16667	0.126
Mof_S 	S 	0.67789	0.67789	0.5	-0.07
Mof_N 	N 	0.57735	0.57735	0.5	-0.278
Mof_C 	C 	0.61835	0.61835	0.5	0.117
Mof_S 	S 	0.65544	0.66667	0.16667	-0.072
Mof_N 	N 	0.75598	0.66667	0.16667	-0.278
Mof_C 	C 	0.71498	0.66667	0.16667	0.117
Mof_S 	S 	0.32211	1.98094e-32	0.5	-0.077
Mof_N 	N 	0.42265	1.98094e-32	0.5	-0.28
Mof_C 	C 	0.38165	1.98094e-32	0.5	0.116
Mof_S 	S 	0.98878	0.33333	0.83333	-0.061
Mof_N 	N 	0.08932	0.33333	0.83333	-0.276
Mof_C 	C 	0.04832	0.33333	0.83333	0.108
Mof_S 	S 	0.34456	0.01122	0.83333	-0.084
Mof_N 	N 	0.24402	0.91068	0.83333	-0.28
Mof_C 	C 	0.28502	0.95168	0.83333	0.126
Mof_S 	S 	0.66667	0.65544	0.83333	-0.072
Mof_N 	N 	0.66667	0.75598	0.83333	-0.278
Mof_C 	C 	0.66667	0.71498	0.83333	0.117
Mof_S 	S 	0.66667	0.01122	0.83333	-0.083
Mof_N 	N 	0.66667	0.91068	0.83333	-0.28
Mof_C 	C 	0.66667	0.95168	0.83333	0.126
Mof_S 	S 	0.33333	0.34456	0.16667	-0.073
Mof_N 	N 	0.33333	0.24402	0.16667	-0.278
Mof_C 	C 	0.33333	0.28502	0.16667	0.117
Mof_S 	S 	0.98878	0.65544	0.83333	-0.061
Mof_N 	N 	0.08932	0.75598	0.83333	-0.276
Mof_C 	C 	0.04832	0.71498	0.83333	0.108
Mof_S 	S 	0.32211	0.32211	0.5	-0.074
Mof_N 	N 	0.42265	0.42265	0.5	-0.278
Mof_C 	C 	0.38165	0.38165	0.5	0.117
Mof_S 	S 	0.34456	0.33333	0.83333	-0.073
Mof_N 	N 	0.24402	0.33333	0.83333	-0.278
Mof_C 	C 	0.28502	0.33333	0.83333	0.117
Mof_S 	S 	0.01122	0.66667	0.16667	-0.083
Mof_N 	N 	0.91068	0.66667	0.16667	-0.28
Mof_C 	C 	0.95168	0.66667	0.16667	0.126
Mof_S 	S 	0.67789	1.98094e-32	0.5	-0.075
Mof_N 	N 	0.57735	1.98094e-32	0.5	-0.279
Mof_C 	C 	0.61835	1.98094e-32	0.5	0.116
Mof_S 	S 	0.65544	0.98878	0.16667	-0.061
Mof_N 	N 	0.75598	0.08932	0.16667	-0.276
Mof_C 	C 	0.71498	0.04832	0.16667	0.108
Mof_S 	S 	-1.61548e-17	0.67789	0.5	-0.075
Mof_N 	N 	2.8452e-17	0.57735	0.5	-0.279
Mof_C 	C 	7.30588e-17	0.61835	0.5	0.116
Mof_N 	N 	0.43816	0.21908	0.03262	-0.147
Mof_N 	N 	0.35134	0.17567	0.13418	-0.225
Mof_N 	N 	0.23925	0.11963	0.16172	-0.222
Mof_C 	C 	0.4004	0.2002	0.07093	0.105
Mof_C 	C 	0.3822	0.1911	0.09255	0.024
Mof_C 	C 	0.0563	0.02815	0.15709	0.093
Mof_C 	C 	0.11957	0.05979	0.15838	0.031
Mof_N 	N 	0.10483	0.55241	0.36595	-0.147
Mof_N 	N 	0.01801	0.509	0.46751	-0.224
Mof_N 	N 	0.90592	0.45296	0.49505	-0.219
Mof_C 	C 	0.06707	0.53353	0.40426	0.106
Mof_C 	C 	0.04887	0.52443	0.42588	0.021
Mof_C 	C 	0.72297	0.36148	0.49042	0.103
Mof_C 	C 	0.78624	0.39312	0.49171	0.025
Mof_N 	N 	0.77149	0.88575	0.69929	-0.146
Mof_N 	N 	0.68467	0.84234	0.80085	-0.225
Mof_N 	N 	0.57258	0.78629	0.82839	-0.221
Mof_C 	C 	0.73373	0.86687	0.7376	0.106
Mof_C 	C 	0.71553	0.85777	0.75922	0.025
Mof_C 	C 	0.38963	0.69482	0.82376	0.103
Mof_C 	C 	0.4529	0.72645	0.82505	0.025
Mof_N 	N 	0.78092	0.21908	0.03262	-0.147
Mof_N 	N 	0.82433	0.17567	0.13418	-0.225
Mof_N 	N 	0.88037	0.11963	0.16172	-0.221
Mof_C 	C 	0.7998	0.2002	0.07093	0.106
Mof_C 	C 	0.8089	0.1911	0.09255	0.024
Mof_C 	C 	0.97185	0.02815	0.15709	0.103
Mof_C 	C 	0.94021	0.05979	0.15838	0.025
Mof_N 	N 	0.44759	0.55241	0.36595	-0.147
Mof_N 	N 	0.491	0.509	0.46751	-0.225
Mof_N 	N 	0.54704	0.45296	0.49505	-0.221
Mof_C 	C 	0.46647	0.53353	0.40426	0.106
Mof_C 	C 	0.47557	0.52443	0.42588	0.024
Mof_C 	C 	0.63852	0.36148	0.49042	0.103
Mof_C 	C 	0.60688	0.39312	0.49171	0.025
Mof_N 	N 	0.11425	0.88575	0.69929	-0.147
Mof_N 	N 	0.15766	0.84234	0.80085	-0.225
Mof_N 	N 	0.21371	0.78629	0.82839	-0.221
Mof_C 	C 	0.13313	0.86687	0.7376	0.106
Mof_C 	C 	0.14223	0.85777	0.75922	0.024
Mof_C 	C 	0.30518	0.69482	0.82376	0.103
Mof_C 	C 	0.27355	0.72645	0.82505	0.025
Mof_N 	N 	0.78092	0.56184	0.03262	-0.147
Mof_N 	N 	0.82433	0.64866	0.13418	-0.225
Mof_N 	N 	0.88037	0.76075	0.16172	-0.22
Mof_C 	C 	0.7998	0.5996	0.07093	0.106
Mof_C 	C 	0.8089	0.6178	0.09255	0.024
Mof_C 	C 	0.97185	0.9437	0.15709	0.113
Mof_C 	C 	0.94021	0.88043	0.15838	0.019
Mof_N 	N 	0.44759	0.89517	0.36595	-0.146
Mof_N 	N 	0.491	0.98199	0.46751	-0.225
Mof_N 	N 	0.54704	0.09408	0.49505	-0.222
Mof_C 	C 	0.46647	0.93293	0.40426	0.106
Mof_C 	C 	0.47557	0.95113	0.42588	0.027
Mof_C 	C 	0.63852	0.27703	0.49042	0.103
Mof_C 	C 	0.60688	0.21376	0.49171	0.025
Mof_N 	N 	0.11425	0.22851	0.69929	-0.147
Mof_N 	N 	0.15766	0.31533	0.80085	-0.225
Mof_N 	N 	0.21371	0.42742	0.82839	-0.221
Mof_C 	C 	0.13313	0.26627	0.7376	0.105
Mof_C 	C 	0.14223	0.28447	0.75922	0.023
Mof_C 	C 	0.30518	0.61037	0.82376	0.103
Mof_C 	C 	0.27355	0.5471	0.82505	0.025
Mof_N 	N 	0.21908	0.43816	0.96738	-0.147
Mof_N 	N 	0.17567	0.35134	0.86582	-0.225
Mof_N 	N 	0.11963	0.23925	0.83828	-0.222
Mof_C 	C 	0.2002	0.4004	0.92907	0.105
Mof_C 	C 	0.1911	0.3822	0.90745	0.024
Mof_C 	C 	0.02815	0.0563	0.84291	0.093
Mof_C 	C 	0.05979	0.11957	0.84162	0.031
Mof_N 	N 	0.88575	0.77149	0.30071	-0.146
Mof_N 	N 	0.84234	0.68467	0.19915	-0.225
Mof_N 	N 	0.78629	0.57258	0.17161	-0.221
Mof_C 	C 	0.86687	0.73373	0.2624	0.106
Mof_C 	C 	0.85777	0.71553	0.24078	0.025
Mof_C 	C 	0.69482	0.38963	0.17624	0.103
Mof_C 	C 	0.72645	0.4529	0.17495	0.025
Mof_N 	N 	0.55241	0.10483	0.63405	-0.147
Mof_N 	N 	0.509	0.01801	0.53249	-0.224
Mof_N 	N 	0.45296	0.90592	0.50495	-0.219
Mof_C 	C 	0.53353	0.06707	0.59574	0.106
Mof_C 	C 	0.52443	0.04887	0.57412	0.021
Mof_C 	C 	0.36148	0.72297	0.50958	0.103
Mof_C 	C 	0.39312	0.78624	0.50829	0.025
Mof_N 	N 	0.21908	0.78092	0.96738	-0.147
Mof_N 	N 	0.17567	0.82433	0.86582	-0.225
Mof_N 	N 	0.11963	0.88037	0.83828	-0.221
Mof_C 	C 	0.2002	0.7998	0.92907	0.106
Mof_C 	C 	0.1911	0.8089	0.90745	0.024
Mof_C 	C 	0.02815	0.97185	0.84291	0.103
Mof_C 	C 	0.05979	0.94021	0.84162	0.025
Mof_N 	N 	0.88575	0.11425	0.30071	-0.147
Mof_N 	N 	0.84234	0.15766	0.19915	-0.225
Mof_N 	N 	0.78629	0.21371	0.17161	-0.221
Mof_C 	C 	0.86687	0.13313	0.2624	0.106
Mof_C 	C 	0.85777	0.14223	0.24078	0.024
Mof_C 	C 	0.69482	0.30518	0.17624	0.103
Mof_C 	C 	0.72645	0.27355	0.17495	0.025
Mof_N 	N 	0.55241	0.44759	0.63405	-0.147
Mof_N 	N 	0.509	0.491	0.53249	-0.225
Mof_N 	N 	0.45296	0.54704	0.50495	-0.221
Mof_C 	C 	0.53353	0.46647	0.59574	0.106
Mof_C 	C 	0.52443	0.47557	0.57412	0.024
Mof_C 	C 	0.36148	0.63852	0.50958	0.103
Mof_C 	C 	0.39312	0.60688	0.50829	0.025
Mof_N 	N 	0.56184	0.78092	0.96738	-0.147
Mof_N 	N 	0.64866	0.82433	0.86582	-0.225
Mof_N 	N 	0.76075	0.88037	0.83828	-0.22
Mof_C 	C 	0.5996	0.7998	0.92907	0.106
Mof_C 	C 	0.6178	0.8089	0.90745	0.024
Mof_C 	C 	0.9437	0.97185	0.84291	0.113
Mof_C 	C 	0.88043	0.94022	0.84162	0.019
Mof_N 	N 	0.22851	0.11425	0.30071	-0.147
Mof_N 	N 	0.31533	0.15766	0.19915	-0.225
Mof_N 	N 	0.42742	0.21371	0.17161	-0.221
Mof_C 	C 	0.26627	0.13313	0.2624	0.105
Mof_C 	C 	0.28447	0.14223	0.24078	0.023
Mof_C 	C 	0.61037	0.30518	0.17624	0.103
Mof_C 	C 	0.5471	0.27355	0.17495	0.025
Mof_N 	N 	0.89517	0.44759	0.63405	-0.146
Mof_N 	N 	0.98199	0.491	0.53249	-0.225
Mof_N 	N 	0.09408	0.54704	0.50495	-0.222
Mof_C 	C 	0.93293	0.46647	0.59574	0.106
Mof_C 	C 	0.95113	0.47557	0.57412	0.027
Mof_C 	C 	0.27703	0.63852	0.50958	0.103
Mof_C 	C 	0.21376	0.60688	0.50829	0.025
Mof_N 	N 	0.02951	0.05901	0.15695	-0.147
Mof_N 	N 	0.69617	0.39234	0.49028	-0.145
Mof_N 	N 	0.36284	0.72568	0.82362	-0.145
Mof_N 	N 	0.94099	0.9705	0.15695	-0.143
Mof_N 	N 	0.60766	0.30383	0.49028	-0.145
Mof_N 	N 	0.27432	0.63716	0.82362	-0.145
Mof_N 	N 	0.02951	0.9705	0.15695	-0.145
Mof_N 	N 	0.69617	0.30383	0.49028	-0.145
Mof_N 	N 	0.36284	0.63716	0.82362	-0.145
Mof_N 	N 	0.05901	0.02951	0.84305	-0.147
Mof_N 	N 	0.72568	0.36284	0.17638	-0.145
Mof_N 	N 	0.39234	0.69617	0.50972	-0.145
Mof_N 	N 	0.9705	0.94099	0.84305	-0.143
Mof_N 	N 	0.63716	0.27432	0.17638	-0.145
Mof_N 	N 	0.30383	0.60766	0.50972	-0.145
Mof_N 	N 	0.9705	0.02951	0.84305	-0.145
Mof_N 	N 	0.63716	0.36284	0.17638	-0.145
Mof_N 	N 	0.30383	0.69617	0.50972	-0.145
Mof_Co	Co	0.5	0.5	-0	1.118
Mof_Co	Co	0.16667	0.83333	0.33333	1.118
Mof_Co	Co	0.83333	0.16667	0.66667	1.118
Mof_Co	Co	0.5	0	-0	1.115
Mof_Co	Co	0.16667	0.33333	0.33333	1.118
Mof_Co	Co	0.83333	0.66667	0.66667	1.118
Mof_Co	Co	4.46068e-17	0.5	-0	1.115
Mof_Co	Co	0.66667	0.83333	0.33333	1.118
Mof_Co	Co	0.33333	0.16667	0.66667	1.118
Mof_S 	S 	0.55939	0.44061	0.94079	-0.072
Mof_N 	N 	0.52573	0.47427	0.9742	-0.276
Mof_C 	C 	0.53985	0.46015	0.96053	0.114
Mof_S 	S 	0.22606	0.77394	0.27412	-0.072
Mof_N 	N 	0.1924	0.8076	0.30753	-0.276
Mof_C 	C 	0.20652	0.79348	0.29386	0.114
Mof_S 	S 	0.89272	0.10728	0.60746	-0.071
Mof_N 	N 	0.85906	0.14094	0.64087	-0.276
Mof_C 	C 	0.87318	0.12682	0.6272	0.113
Mof_S 	S 	0.55939	0.11878	0.94079	-0.074
Mof_N 	N 	0.52573	0.05146	0.9742	-0.278
Mof_C 	C 	0.53985	0.0797	0.96053	0.112
Mof_S 	S 	0.22606	0.45211	0.27412	-0.073
Mof_N 	N 	0.1924	0.38479	0.30753	-0.276
Mof_C 	C 	0.20652	0.41303	0.29386	0.113
Mof_S 	S 	0.89272	0.78545	0.60746	-0.067
Mof_N 	N 	0.85906	0.71813	0.64087	-0.276
Mof_C 	C 	0.87318	0.74637	0.6272	0.113
Mof_S 	S 	0.88122	0.44061	0.94079	-0.069
Mof_N 	N 	0.94854	0.47427	0.9742	-0.274
Mof_C 	C 	0.9203	0.46015	0.96053	0.115
Mof_S 	S 	0.54789	0.77394	0.27412	-0.071
Mof_N 	N 	0.61521	0.8076	0.30753	-0.276
Mof_C 	C 	0.58697	0.79348	0.29386	0.114
Mof_S 	S 	0.21455	0.10728	0.60746	-0.076
Mof_N 	N 	0.28187	0.14094	0.64087	-0.276
Mof_C 	C 	0.25363	0.12682	0.6272	0.114
Mof_S 	S 	0.44061	0.55939	0.05921	-0.072
Mof_N 	N 	0.47427	0.52573	0.0258	-0.276
Mof_C 	C 	0.46015	0.53985	0.03947	0.114
Mof_S 	S 	0.10728	0.89272	0.39254	-0.071
Mof_N 	N 	0.14094	0.85906	0.35913	-0.276
Mof_C 	C 	0.12682	0.87318	0.3728	0.113
Mof_S 	S 	0.77394	0.22606	0.72588	-0.072
Mof_N 	N 	0.8076	0.1924	0.69247	-0.276
Mof_C 	C 	0.79348	0.20652	0.70614	0.114
Mof_S 	S 	0.11878	0.55939	0.05921	-0.074
Mof_N 	N 	0.05146	0.52573	0.0258	-0.278
Mof_C 	C 	0.0797	0.53985	0.03947	0.112
Mof_S 	S 	0.78545	0.89272	0.39254	-0.067
Mof_N 	N 	0.71813	0.85906	0.35913	-0.276
Mof_C 	C 	0.74637	0.87318	0.3728	0.113
Mof_S 	S 	0.45211	0.22606	0.72588	-0.073
Mof_N 	N 	0.38479	0.1924	0.69247	-0.276
Mof_C 	C 	0.41303	0.20652	0.70614	0.113
Mof_S 	S 	0.44061	0.88122	0.05921	-0.069
Mof_N 	N 	0.47427	0.94854	0.0258	-0.274
Mof_C 	C 	0.46015	0.9203	0.03947	0.115
Mof_S 	S 	0.10728	0.21455	0.39254	-0.076
Mof_N 	N 	0.14094	0.28187	0.35913	-0.276
Mof_C 	C 	0.12682	0.25363	0.3728	0.114
Mof_S 	S 	0.77394	0.54789	0.72588	-0.071
Mof_N 	N 	0.8076	0.61521	0.69247	-0.276
Mof_C 	C 	0.79348	0.58697	0.70614	0.114
_end
