data_functionalizedCrystal
_audit_creation_method	'EQeq! by Chris Wilmer'
_symmetry_space_group_name_H-M	'P1'
_symmetry_Int_Tables_number	1
_symmetry_cell_setting	triclinic
loop_
_symmetry_equiv_pos_as_xyz
  x,y,z
_cell_length_a	16.6901
_cell_length_b	16.6901
_cell_length_c	14.0567
_cell_angle_alpha	90
_cell_angle_beta	90
_cell_angle_gamma	90
loop_
_atom_site_label
_atom_site_type_symbol
_atom_site_fract_x
_atom_site_fract_y
_atom_site_fract_z
_atom_site_charge
Mof_C 	C 	0.0621	0.9741	0.202	-0.314
Mof_H 	H 	0.1065	0.9555	0.2354	0.139
Mof_C 	C 	0.065	0.9731	0.1028	-0.364
Mof_H 	H 	0.1103	0.9545	0.0714	0.156
Mof_C 	C 	0.9379	0.0259	0.202	0.364
Mof_H 	H 	0.8935	0.0445	0.2354	-0.122
Mof_C 	C 	0.935	0.0269	0.1028	0.371
Mof_H 	H 	0.8897	0.0455	0.0714	-0.12
Mof_C 	C 	0.0259	0.0621	0.202	0.11
Mof_H 	H 	0.0445	0.1065	0.2354	-0.048
Mof_C 	C 	0.0269	0.065	0.1028	0.114
Mof_H 	H 	0.0455	0.1103	0.0714	-0.044
Mof_C 	C 	0.9741	0.9379	0.202	-0.08
Mof_H 	H 	0.9555	0.8935	0.2354	0.071
Mof_C 	C 	0.9731	0.935	0.1028	-0.111
Mof_H 	H 	0.9545	0.8897	0.0714	0.082
Mof_C 	C 	0.9379	0.9741	0.798	-0.08
Mof_H 	H 	0.8935	0.9555	0.7646	0.071
Mof_C 	C 	0.935	0.9731	0.8972	-0.111
Mof_H 	H 	0.8897	0.9545	0.9286	0.082
Mof_C 	C 	0.0621	0.0259	0.798	0.111
Mof_H 	H 	0.1065	0.0445	0.7646	-0.047
Mof_C 	C 	0.065	0.0269	0.8972	0.115
Mof_H 	H 	0.1103	0.0455	0.9286	-0.044
Mof_C 	C 	0.9741	0.0621	0.798	-0.313
Mof_H 	H 	0.9555	0.1065	0.7646	0.14
Mof_C 	C 	0.9731	0.065	0.8972	-0.363
Mof_H 	H 	0.9545	0.1103	0.9286	0.157
Mof_C 	C 	0.0259	0.9379	0.798	0.365
Mof_H 	H 	0.0445	0.8935	0.7646	-0.121
Mof_C 	C 	0.0269	0.935	0.8972	0.372
Mof_H 	H 	0.0455	0.8897	0.9286	-0.119
Mof_C 	C 	0.9379	0.0259	0.798	0.365
Mof_H 	H 	0.8935	0.0445	0.7646	-0.121
Mof_C 	C 	0.935	0.0269	0.8972	0.372
Mof_H 	H 	0.8897	0.0455	0.9286	-0.119
Mof_C 	C 	0.0621	0.9741	0.798	-0.313
Mof_H 	H 	0.1065	0.9555	0.7646	0.14
Mof_C 	C 	0.065	0.9731	0.8972	-0.363
Mof_H 	H 	0.1103	0.9545	0.9286	0.157
Mof_C 	C 	0.9741	0.9379	0.798	-0.08
Mof_H 	H 	0.9555	0.8935	0.7646	0.071
Mof_C 	C 	0.9731	0.935	0.8972	-0.111
Mof_H 	H 	0.9545	0.8897	0.9286	0.082
Mof_C 	C 	0.0259	0.0621	0.798	0.111
Mof_H 	H 	0.0445	0.1065	0.7646	-0.047
Mof_C 	C 	0.0269	0.065	0.8972	0.115
Mof_H 	H 	0.0455	0.1103	0.9286	-0.044
Mof_C 	C 	0.0621	0.0259	0.202	0.111
Mof_H 	H 	0.1065	0.0445	0.2354	-0.047
Mof_C 	C 	0.065	0.0269	0.1028	0.115
Mof_H 	H 	0.1103	0.0455	0.0714	-0.044
Mof_C 	C 	0.9379	0.9741	0.202	-0.08
Mof_H 	H 	0.8935	0.9555	0.2354	0.071
Mof_C 	C 	0.935	0.9731	0.1028	-0.111
Mof_H 	H 	0.8897	0.9545	0.0714	0.082
Mof_C 	C 	0.0259	0.9379	0.202	0.365
Mof_H 	H 	0.0445	0.8935	0.2354	-0.121
Mof_C 	C 	0.0269	0.935	0.1028	0.372
Mof_H 	H 	0.0455	0.8897	0.0714	-0.119
Mof_C 	C 	0.9741	0.0621	0.202	-0.313
Mof_H 	H 	0.9555	0.1065	0.2354	0.14
Mof_C 	C 	0.9731	0.065	0.1028	-0.363
Mof_H 	H 	0.9545	0.1103	0.0714	0.157
Mof_V 	V 	0.5	0.5	0.5356	1.202
Mof_V 	V 	0.5	0.5	0.4644	1.202
Mof_Zn	Zn	4.47289e-33	0	0.39567	1.162
Mof_N 	N 	2.40376e-33	0	0.25082	-0.37
Mof_C 	C 	1.66101e-34	0	0.0526	-0.186
Mof_Zn	Zn	8.35523e-33	6.44687e-33	0.60433	1.162
Mof_N 	N 	2.36577e-33	0	0.74918	-0.37
Mof_C 	C 	9.43858e-33	0	0.9474	-0.186
Mof_O 	O 	0.91515	0.91515	0.42135	-0.409
Mof_C 	C 	0.73911	0.73911	0.58308	-0.225
Mof_H 	H 	0.7197	0.7197	0.6406	0.104
Mof_C 	C 	0.79787	0.79787	0.58353	0.137
Mof_H 	H 	0.8173	0.8173	0.6411	0.003
Mof_O 	O 	0.08485	0.08485	0.42135	-0.524
Mof_C 	C 	0.26089	0.26089	0.58308	-0.253
Mof_H 	H 	0.2803	0.2803	0.6406	0.096
Mof_C 	C 	0.20213	0.20213	0.58353	0.145
Mof_H 	H 	0.1827	0.1827	0.6411	-0.026
Mof_O 	O 	0.08485	0.91515	0.42135	-0.465
Mof_C 	C 	0.26089	0.73911	0.58308	-0.238
Mof_H 	H 	0.2803	0.7197	0.6406	0.1
Mof_C 	C 	0.20213	0.79787	0.58353	0.141
Mof_H 	H 	0.1827	0.8173	0.6411	-0.011
Mof_O 	O 	0.91515	0.08485	0.42135	-0.465
Mof_C 	C 	0.73911	0.26089	0.58308	-0.238
Mof_H 	H 	0.7197	0.2803	0.6406	0.1
Mof_C 	C 	0.79787	0.20213	0.58353	0.141
Mof_H 	H 	0.8173	0.1827	0.6411	-0.011
Mof_O 	O 	0.08485	0.91515	0.57865	-0.465
Mof_C 	C 	0.26089	0.73911	0.41692	-0.238
Mof_H 	H 	0.2803	0.7197	0.3594	0.1
Mof_C 	C 	0.20213	0.79787	0.41647	0.141
Mof_H 	H 	0.1827	0.8173	0.3589	-0.011
Mof_O 	O 	0.91515	0.08485	0.57865	-0.465
Mof_C 	C 	0.73911	0.26089	0.41692	-0.238
Mof_H 	H 	0.7197	0.2803	0.3594	0.1
Mof_C 	C 	0.79787	0.20213	0.41647	0.141
Mof_H 	H 	0.8173	0.1827	0.3589	-0.011
Mof_O 	O 	0.91515	0.91515	0.57865	-0.409
Mof_C 	C 	0.73911	0.73911	0.41692	-0.225
Mof_H 	H 	0.7197	0.7197	0.3594	0.104
Mof_C 	C 	0.79787	0.79787	0.41647	0.137
Mof_H 	H 	0.8173	0.8173	0.3589	0.003
Mof_O 	O 	0.08485	0.08485	0.57865	-0.524
Mof_C 	C 	0.26089	0.26089	0.41692	-0.253
Mof_H 	H 	0.2803	0.2803	0.3594	0.096
Mof_C 	C 	0.20213	0.20213	0.41647	0.145
Mof_H 	H 	0.1827	0.1827	0.3589	-0.026
Mof_N 	N 	0.5	0.6211	0.5	-0.458
Mof_N 	N 	0.5	0.3789	0.5	-0.459
Mof_N 	N 	0.3789	0.5	0.5	-0.459
Mof_N 	N 	0.6211	0.5	0.5	-0.458
Mof_C 	C 	0.56609	0.67076	0.5	0.078
Mof_C 	C 	0.54034	0.75271	0.5	-0.087
Mof_H 	H 	0.5733	0.7976	0.5	0.069
Mof_C 	C 	0.43391	0.32924	0.5	0.074
Mof_C 	C 	0.45966	0.24729	0.5	-0.095
Mof_H 	H 	0.4267	0.2024	0.5	0.047
Mof_C 	C 	0.32924	0.56609	0.5	0.073
Mof_C 	C 	0.24729	0.54034	0.5	-0.094
Mof_H 	H 	0.2024	0.5733	0.5	0.047
Mof_C 	C 	0.67076	0.43391	0.5	0.079
Mof_C 	C 	0.75271	0.45966	0.5	-0.088
Mof_H 	H 	0.7976	0.4267	0.5	0.07
Mof_C 	C 	0.43391	0.67076	0.5	0.079
Mof_C 	C 	0.45966	0.75271	0.5	-0.088
Mof_H 	H 	0.4267	0.7976	0.5	0.07
Mof_C 	C 	0.56609	0.32924	0.5	0.073
Mof_C 	C 	0.54034	0.24729	0.5	-0.094
Mof_H 	H 	0.5733	0.2024	0.5	0.047
Mof_C 	C 	0.67076	0.56609	0.5	0.078
Mof_C 	C 	0.75271	0.54034	0.5	-0.087
Mof_H 	H 	0.7976	0.5733	0.5	0.069
Mof_C 	C 	0.32924	0.43391	0.5	0.074
Mof_C 	C 	0.24729	0.45966	0.5	-0.095
Mof_H 	H 	0.2024	0.4267	0.5	0.047
Mof_C 	C 	0.64602	0.64602	0.5	-0.212
Mof_C 	C 	0.70918	0.70918	0.5	0.189
Mof_C 	C 	0.82756	0.82756	0.5	-0.182
Mof_C 	C 	0.89105	0.89105	0.5	0.431
Mof_C 	C 	0.35398	0.35398	0.5	-0.22
Mof_C 	C 	0.29082	0.29082	0.5	0.195
Mof_C 	C 	0.17244	0.17244	0.5	-0.232
Mof_C 	C 	0.10895	0.10895	0.5	0.44
Mof_C 	C 	0.35398	0.64602	0.5	-0.216
Mof_C 	C 	0.29082	0.70918	0.5	0.192
Mof_C 	C 	0.17244	0.82756	0.5	-0.206
Mof_C 	C 	0.10895	0.89105	0.5	0.435
Mof_C 	C 	0.64602	0.35398	0.5	-0.216
Mof_C 	C 	0.70918	0.29082	0.5	0.192
Mof_C 	C 	0.82756	0.17244	0.5	-0.206
Mof_C 	C 	0.89105	0.10895	0.5	0.435
_end
