data_functionalizedCrystal
_audit_creation_method	'EQeq! by Chris Wilmer'
_symmetry_space_group_name_H-M	'P1'
_symmetry_Int_Tables_number	1
_symmetry_cell_setting	triclinic
loop_
_symmetry_equiv_pos_as_xyz
  x,y,z
_cell_length_a	21.08
_cell_length_b	26.445
_cell_length_c	26.445
_cell_angle_alpha	120
_cell_angle_beta	90
_cell_angle_gamma	90
loop_
_atom_site_label
_atom_site_type_symbol
_atom_site_fract_x
_atom_site_fract_y
_atom_site_fract_z
_atom_site_charge
Mof_Si	Si	0.89321	0.43585	0.43585	0.149
Mof_Si	Si	0.92041	0.58401	0.58401	0.347
Mof_Si	Si	0.07959	0.58401	0.58401	0.347
Mof_Si	Si	0.89321	0.56415	0.56415	0.149
Mof_Si	Si	0.10679	0.43585	0.43585	0.149
Mof_Si	Si	0.10679	0.56415	0.56415	0.149
Mof_Si	Si	0.92041	0.41599	0.41599	0.347
Mof_Si	Si	0.07959	0.41599	0.41599	0.347
Mof_H 	H 	0.6158	0.7144	0.7144	0.166
Mof_H 	H 	0.2753	0.3029	0.3029	-0.683
Mof_H 	H 	0.2167	0.1432	0.1432	-0.374
Mof_H 	H 	0.3842	0.7144	0.7144	0.166
Mof_H 	H 	0.706	0.2067	0.2067	0.455
Mof_H 	H 	0.2753	0.6971	0.6971	-0.682
Mof_H 	H 	0.5784	0.436	0.436	0.25
Mof_H 	H 	0.7833	0.1432	0.1432	-0.373
Mof_H 	H 	0.1091	0.1648	0.1648	0.498
Mof_H 	H 	0.4574	0.6478	0.6478	-0.109
Mof_H 	H 	0.2638	0.2918	0.2918	-0.873
Mof_H 	H 	0.9212	0.24995	0.24995	-1.422
Mof_H 	H 	0.5426	0.6478	0.6478	-0.109
Mof_H 	H 	0.4216	0.564	0.564	0.25
Mof_H 	H 	0.7247	0.6971	0.6971	-0.682
Mof_H 	H 	0.7362	0.7082	0.7082	-0.873
Mof_H 	H 	0.6158	0.2856	0.2856	0.167
Mof_H 	H 	0.706	0.7933	0.7933	0.455
Mof_H 	H 	0.4216	0.436	0.436	0.25
Mof_H 	H 	0.4574	0.3522	0.3522	-0.109
Mof_H 	H 	0.5784	0.564	0.564	0.25
Mof_H 	H 	0.9212	0.75005	0.75005	-1.422
Mof_H 	H 	0.294	0.7933	0.7933	0.455
Mof_H 	H 	0.7833	0.8568	0.8568	-0.373
Mof_H 	H 	0.0788	0.24995	0.24995	-1.422
Mof_H 	H 	0.0788	0.75005	0.75005	-1.422
Mof_H 	H 	0.5426	0.3522	0.3522	-0.109
Mof_H 	H 	0.1091	0.8352	0.8352	0.498
Mof_H 	H 	0.8909	0.8352	0.8352	0.498
Mof_H 	H 	0.2167	0.8568	0.8568	-0.373
Mof_H 	H 	0.294	0.2067	0.2067	0.455
Mof_H 	H 	0.8909	0.1648	0.1648	0.498
Mof_H 	H 	0.2638	0.7082	0.7082	-0.873
Mof_H 	H 	0.7247	0.3029	0.3029	-0.682
Mof_H 	H 	0.3842	0.2856	0.2856	0.167
Mof_H 	H 	0.7362	0.2918	0.2918	-0.873
Mof_C 	C 	0.3919	0.409	0.409	-0.585
Mof_C 	C 	0.2503	0.7846	0.7846	-1.32
Mof_C 	C 	0.8775	0.7588	0.7588	1.84
Mof_C 	C 	0.8519	0.6673	0.6673	2.342
Mof_C 	C 	0.7858	0.6104	0.6104	2.212
Mof_C 	C 	0.1684	0.2789	0.2789	-1.705
Mof_C 	C 	0.1225	0.2412	0.2412	1.84
Mof_C 	C 	0.1684	0.7211	0.7211	-1.705
Mof_C 	C 	0.3272	0.5808	0.5808	0.788
Mof_C 	C 	0.6303	0.3197	0.3197	-0.483
Mof_C 	C 	0.695	0.67011	0.67011	0.485
Mof_C 	C 	0.3697	0.3197	0.3197	-0.483
Mof_C 	C 	0.2142	0.3896	0.3896	2.212
Mof_C 	C 	0.8316	0.2789	0.2789	-1.705
Mof_C 	C 	0.7162	0.37965	0.37965	-0.952
Mof_C 	C 	0.6728	0.5808	0.5808	0.788
Mof_C 	C 	0.8316	0.7211	0.7211	-1.705
Mof_C 	C 	0.1481	0.6673	0.6673	2.342
Mof_C 	C 	0.6081	0.591	0.591	-0.584
Mof_C 	C 	0.2324	0.266	0.266	1.527
Mof_C 	C 	0.2503	0.2154	0.2154	-1.32
Mof_C 	C 	0.7956	0.1777	0.1777	1.165
Mof_C 	C 	0.7858	0.3896	0.3896	2.212
Mof_C 	C 	0.6728	0.4192	0.4192	0.788
Mof_C 	C 	0.6303	0.6803	0.6803	-0.483
Mof_C 	C 	0.4132	0.3592	0.3592	0.414
Mof_C 	C 	0.8595	0.1906	0.1906	-1.461
Mof_C 	C 	0.7497	0.7846	0.7846	-1.32
Mof_C 	C 	0.7676	0.266	0.266	1.527
Mof_C 	C 	0.7497	0.2154	0.2154	-1.32
Mof_C 	C 	0.1481	0.3327	0.3327	2.342
Mof_C 	C 	0.8775	0.2412	0.2412	1.84
Mof_C 	C 	0.695	0.3299	0.3299	0.486
Mof_C 	C 	0.3919	0.591	0.591	-0.584
Mof_C 	C 	0.1225	0.7588	0.7588	1.84
Mof_C 	C 	0.8519	0.3327	0.3327	2.342
Mof_C 	C 	0.7956	0.8223	0.8223	1.165
Mof_C 	C 	0.305	0.3299	0.3299	0.486
Mof_C 	C 	0.2838	0.37965	0.37965	-0.952
Mof_C 	C 	0.8595	0.8094	0.8094	-1.461
Mof_C 	C 	0.1405	0.8094	0.8094	-1.461
Mof_C 	C 	0.1405	0.1906	0.1906	-1.461
Mof_C 	C 	0.6081	0.409	0.409	-0.585
Mof_C 	C 	0.7676	0.734	0.734	1.527
Mof_C 	C 	0.5868	0.6408	0.6408	0.414
Mof_C 	C 	0.305	0.67011	0.67011	0.485
Mof_C 	C 	0.4132	0.6408	0.6408	0.414
Mof_C 	C 	0.3697	0.6803	0.6803	-0.483
Mof_C 	C 	0.3272	0.4192	0.4192	0.788
Mof_C 	C 	0.2044	0.8223	0.8223	1.165
Mof_C 	C 	0.2838	0.62035	0.62035	-0.952
Mof_C 	C 	0.2044	0.1777	0.1777	1.165
Mof_C 	C 	0.2142	0.6104	0.6104	2.212
Mof_C 	C 	0.5868	0.3592	0.3592	0.414
Mof_C 	C 	0.7162	0.62035	0.62035	-0.952
Mof_C 	C 	0.2324	0.734	0.734	1.527
Mof_O 	O 	0.8071	0.3666	0.3666	-1.208
Mof_O 	O 	0.1767	0.3512	0.3512	-1.138
Mof_O 	O 	0.1929	0.3666	0.3666	-1.208
Mof_O 	O 	0.8233	0.6488	0.6488	-1.138
Mof_O 	O 	0.91	0.655	0.655	-0.944
Mof_O 	O 	0.1767	0.6488	0.6488	-1.138
Mof_O 	O 	0.1933	0.4342	0.4342	-0.875
Mof_O 	O 	0.1929	0.6334	0.6334	-1.208
Mof_O 	O 	0.2093	0.4768	0.4768	0.151
Mof_O 	O 	0.2093	0.5232	0.5232	0.151
Mof_O 	O 	0.8067	0.4342	0.4342	-0.875
Mof_O 	O 	0.964	0.3329	0.3329	0.073
Mof_O 	O 	0.09	0.345	0.345	-0.944
Mof_O 	O 	0.7907	0.4768	0.4768	0.151
Mof_O 	O 	0.7907	0.5232	0.5232	0.151
Mof_O 	O 	0.8067	0.5658	0.5658	-0.875
Mof_O 	O 	0.8233	0.3512	0.3512	-1.138
Mof_O 	O 	0.1933	0.5658	0.5658	-0.875
Mof_O 	O 	0.91	0.345	0.345	-0.944
Mof_O 	O 	0.036	0.3329	0.3329	0.073
Mof_O 	O 	0.964	0.6671	0.6671	0.073
Mof_O 	O 	0.036	0.6671	0.6671	0.073
Mof_O 	O 	0.8071	0.6334	0.6334	-1.208
Mof_O 	O 	0.09	0.655	0.655	-0.944
Mof_F 	F 	0.277	0.6987	0.6987	1.017
Mof_F 	F 	0.0615	0.7475	0.7475	0.753
Mof_F 	F 	0.9385	0.7475	0.7475	0.753
Mof_F 	F 	0.9385	0.2525	0.2525	0.753
Mof_F 	F 	0.6918	0.5334	0.5334	-0.505
Mof_F 	F 	0.277	0.3013	0.3013	1.017
Mof_F 	F 	0.723	0.6987	0.6987	1.017
Mof_F 	F 	0.6918	0.4666	0.4666	-0.505
Mof_F 	F 	0.3082	0.5334	0.5334	-0.505
Mof_F 	F 	0.3082	0.4666	0.4666	-0.505
Mof_F 	F 	0.723	0.3013	0.3013	1.017
Mof_F 	F 	0.0615	0.2525	0.2525	0.753
Mof_Si	Si	0.10679	-3.5619e-17	0.43585	0.15
Mof_Si	Si	0.92041	0	0.41599	0.348
Mof_Si	Si	0.89321	-3.5619e-17	0.43585	0.15
Mof_Si	Si	0.92041	0	0.58401	0.348
Mof_Si	Si	0.10679	0	0.56415	0.15
Mof_Si	Si	0.89321	0	0.56415	0.15
Mof_Si	Si	0.07959	0	0.58401	0.348
Mof_Si	Si	0.07959	0	0.41599	0.348
Mof_H 	H 	0.7247	0	0.3029	-0.682
Mof_H 	H 	0.6158	7.1238e-17	0.7144	0.167
Mof_H 	H 	0.2753	0	0.3029	-0.682
Mof_H 	H 	0.5426	7.1238e-17	0.6478	-0.109
Mof_H 	H 	0.2167	8.90475e-18	0.1432	-0.373
Mof_H 	H 	0.9212	0	0.75005	-1.422
Mof_H 	H 	0.9212	-1.78095e-17	0.24995	-1.422
Mof_H 	H 	0.8909	0	0.8352	0.498
Mof_H 	H 	0.1091	1.78095e-17	0.1648	0.498
Mof_H 	H 	0.2167	7.1238e-17	0.8568	-0.373
Mof_H 	H 	0.7362	7.1238e-17	0.7082	-0.873
Mof_H 	H 	0.7833	7.1238e-17	0.8568	-0.373
Mof_H 	H 	0.5426	0	0.3522	-0.109
Mof_H 	H 	0.2753	0	0.6971	-0.682
Mof_H 	H 	0.7833	8.90475e-18	0.1432	-0.373
Mof_H 	H 	0.6158	0	0.2856	0.167
Mof_H 	H 	0.706	1.78095e-17	0.2067	0.455
Mof_H 	H 	0.4574	0	0.3522	-0.109
Mof_H 	H 	0.294	0	0.7933	0.455
Mof_H 	H 	0.0788	-1.78095e-17	0.24995	-1.422
Mof_H 	H 	0.5784	0	0.564	0.25
Mof_H 	H 	0.8909	1.78095e-17	0.1648	0.498
Mof_H 	H 	0.2638	1.78095e-17	0.2918	-0.873
Mof_H 	H 	0.2638	7.1238e-17	0.7082	-0.873
Mof_H 	H 	0.7362	1.78095e-17	0.2918	-0.873
Mof_H 	H 	0.5784	3.5619e-17	0.436	0.25
Mof_H 	H 	0.1091	0	0.8352	0.498
Mof_H 	H 	0.0788	0	0.75005	-1.422
Mof_H 	H 	0.294	1.78095e-17	0.2067	0.455
Mof_H 	H 	0.4216	0	0.564	0.25
Mof_H 	H 	0.7247	0	0.6971	-0.682
Mof_H 	H 	0.3842	7.1238e-17	0.7144	0.167
Mof_H 	H 	0.3842	0	0.2856	0.167
Mof_H 	H 	0.4216	3.5619e-17	0.436	0.25
Mof_H 	H 	0.4574	7.1238e-17	0.6478	-0.109
Mof_H 	H 	0.706	0	0.7933	0.455
Mof_C 	C 	0.6728	3.5619e-17	0.4192	0.788
Mof_C 	C 	0.4132	3.5619e-17	0.6408	0.414
Mof_C 	C 	0.3697	0	0.6803	-0.483
Mof_C 	C 	0.2324	1.78095e-17	0.266	1.527
Mof_C 	C 	0.7497	7.1238e-17	0.7846	-1.32
Mof_C 	C 	0.1225	0	0.7588	1.84
Mof_C 	C 	0.2838	0	0.37965	-0.952
Mof_C 	C 	0.5868	3.5619e-17	0.6408	0.414
Mof_C 	C 	0.3919	0	0.591	-0.585
Mof_C 	C 	0.8775	0	0.7588	1.84
Mof_C 	C 	0.8595	0	0.1906	-1.461
Mof_C 	C 	0.7162	0	0.37965	-0.952
Mof_C 	C 	0.305	0	0.6701	0.486
Mof_C 	C 	0.1405	0	0.1906	-1.461
Mof_C 	C 	0.3697	0	0.3197	-0.483
Mof_C 	C 	0.3919	0	0.409	-0.584
Mof_C 	C 	0.7858	0	0.6104	2.212
Mof_C 	C 	0.695	0	0.6701	0.486
Mof_C 	C 	0.7676	0	0.734	1.527
Mof_C 	C 	0.1684	7.1238e-17	0.7211	-1.705
Mof_C 	C 	0.3272	3.5619e-17	0.4192	0.788
Mof_C 	C 	0.7956	1.78095e-17	0.1777	1.165
Mof_C 	C 	0.1684	0	0.2789	-1.705
Mof_C 	C 	0.8595	7.1238e-17	0.8094	-1.461
Mof_C 	C 	0.8519	7.1238e-17	0.6673	2.342
Mof_C 	C 	0.7497	1.78095e-17	0.2154	-1.32
Mof_C 	C 	0.305	0	0.32989	0.485
Mof_C 	C 	0.5868	0	0.3592	0.414
Mof_C 	C 	0.3272	3.5619e-17	0.5808	0.788
Mof_C 	C 	0.2142	-3.5619e-17	0.3896	2.212
Mof_C 	C 	0.2503	7.1238e-17	0.7846	-1.32
Mof_C 	C 	0.1481	0	0.3327	2.342
Mof_C 	C 	0.1405	7.1238e-17	0.8094	-1.461
Mof_C 	C 	0.4132	0	0.3592	0.414
Mof_C 	C 	0.1225	1.78095e-17	0.2412	1.84
Mof_C 	C 	0.1481	7.1238e-17	0.6673	2.342
Mof_C 	C 	0.6728	3.5619e-17	0.5808	0.788
Mof_C 	C 	0.8316	7.1238e-17	0.7211	-1.705
Mof_C 	C 	0.2044	0	0.8223	1.165
Mof_C 	C 	0.2503	1.78095e-17	0.2154	-1.32
Mof_C 	C 	0.695	0	0.32989	0.485
Mof_C 	C 	0.7956	0	0.8223	1.165
Mof_C 	C 	0.8519	0	0.3327	2.342
Mof_C 	C 	0.8316	0	0.2789	-1.705
Mof_C 	C 	0.2838	0	0.62035	-0.952
Mof_C 	C 	0.6081	0	0.409	-0.584
Mof_C 	C 	0.2044	1.78095e-17	0.1777	1.165
Mof_C 	C 	0.2142	0	0.6104	2.212
Mof_C 	C 	0.6081	0	0.591	-0.585
Mof_C 	C 	0.6303	0	0.3197	-0.483
Mof_C 	C 	0.8775	1.78095e-17	0.2412	1.84
Mof_C 	C 	0.6303	0	0.6803	-0.483
Mof_C 	C 	0.7858	-3.5619e-17	0.3896	2.212
Mof_C 	C 	0.7162	0	0.62035	-0.952
Mof_C 	C 	0.7676	1.78095e-17	0.266	1.527
Mof_C 	C 	0.2324	0	0.734	1.527
Mof_O 	O 	0.036	0	0.3329	0.073
Mof_O 	O 	0.1767	0	0.3512	-1.138
Mof_O 	O 	0.91	3.5619e-17	0.345	-0.944
Mof_O 	O 	0.8233	7.1238e-17	0.6488	-1.138
Mof_O 	O 	0.8071	0	0.6334	-1.208
Mof_O 	O 	0.1767	7.1238e-17	0.6488	-1.138
Mof_O 	O 	0.09	0	0.655	-0.944
Mof_O 	O 	0.8071	0	0.3666	-1.208
Mof_O 	O 	0.1933	3.5619e-17	0.4342	-0.875
Mof_O 	O 	0.91	0	0.655	-0.944
Mof_O 	O 	0.8067	3.5619e-17	0.4342	-0.875
Mof_O 	O 	0.8067	3.5619e-17	0.5658	-0.875
Mof_O 	O 	0.2093	3.5619e-17	0.5232	0.151
Mof_O 	O 	0.964	0	0.6671	0.073
Mof_O 	O 	0.2093	0	0.4768	0.151
Mof_O 	O 	0.1929	0	0.6334	-1.208
Mof_O 	O 	0.036	0	0.6671	0.073
Mof_O 	O 	0.7907	3.5619e-17	0.5232	0.151
Mof_O 	O 	0.7907	0	0.4768	0.151
Mof_O 	O 	0.964	0	0.3329	0.073
Mof_O 	O 	0.1929	0	0.3666	-1.208
Mof_O 	O 	0.8233	0	0.3512	-1.138
Mof_O 	O 	0.1933	3.5619e-17	0.5658	-0.875
Mof_O 	O 	0.09	3.5619e-17	0.345	-0.944
Mof_F 	F 	0.3082	0	0.5334	-0.505
Mof_F 	F 	0.6918	3.5619e-17	0.4666	-0.505
Mof_F 	F 	0.0615	0	0.2525	0.753
Mof_F 	F 	0.723	7.1238e-17	0.6987	1.017
Mof_F 	F 	0.0615	7.1238e-17	0.7475	0.753
Mof_F 	F 	0.277	1.78095e-17	0.3013	1.017
Mof_F 	F 	0.6918	0	0.5334	-0.505
Mof_F 	F 	0.3082	3.5619e-17	0.4666	-0.505
Mof_F 	F 	0.9385	0	0.2525	0.753
Mof_F 	F 	0.9385	7.1238e-17	0.7475	0.753
Mof_F 	F 	0.723	1.78095e-17	0.3013	1.017
Mof_F 	F 	0.277	7.1238e-17	0.6987	1.017
Mof_Si	Si	0.92041	0.41599	-0	0.348
Mof_Si	Si	0.10679	0.43585	-0	0.15
Mof_Si	Si	0.89321	0.56415	-0	0.15
Mof_Si	Si	0.10679	0.56415	-0	0.15
Mof_Si	Si	0.07959	0.58401	-0	0.348
Mof_Si	Si	0.92041	0.58401	-0	0.348
Mof_Si	Si	0.89321	0.43585	-0	0.15
Mof_Si	Si	0.07959	0.41599	-0	0.348
Mof_H 	H 	0.5784	0.564	-0	0.25
Mof_H 	H 	0.1091	0.8352	-0	0.498
Mof_H 	H 	0.8909	0.8352	-0	0.498
Mof_H 	H 	0.9212	0.24995	-0	-1.422
Mof_H 	H 	0.7247	0.3029	-0	-0.682
Mof_H 	H 	0.0788	0.24995	-0	-1.422
Mof_H 	H 	0.7362	0.2918	-0	-0.873
Mof_H 	H 	0.3842	0.7144	-0	0.167
Mof_H 	H 	0.7833	0.1432	-0	-0.373
Mof_H 	H 	0.4216	0.564	-0	0.25
Mof_H 	H 	0.0788	0.75005	-0	-1.422
Mof_H 	H 	0.8909	0.1648	-0	0.498
Mof_H 	H 	0.2167	0.1432	-0	-0.373
Mof_H 	H 	0.4574	0.6478	-0	-0.109
Mof_H 	H 	0.2167	0.8568	-0	-0.373
Mof_H 	H 	0.706	0.2067	-0	0.455
Mof_H 	H 	0.706	0.7933	-0	0.455
Mof_H 	H 	0.3842	0.2856	-0	0.167
Mof_H 	H 	0.7833	0.8568	-0	-0.373
Mof_H 	H 	0.9212	0.75005	-0	-1.422
Mof_H 	H 	0.4574	0.3522	-0	-0.109
Mof_H 	H 	0.7362	0.7082	-0	-0.873
Mof_H 	H 	0.294	0.7933	-0	0.455
Mof_H 	H 	0.2638	0.2918	-0	-0.873
Mof_H 	H 	0.5784	0.436	-0	0.25
Mof_H 	H 	0.294	0.2067	-0	0.455
Mof_H 	H 	0.5426	0.3522	-0	-0.109
Mof_H 	H 	0.2638	0.7082	-0	-0.873
Mof_H 	H 	0.2753	0.6971	-0	-0.682
Mof_H 	H 	0.7247	0.6971	-0	-0.682
Mof_H 	H 	0.4216	0.436	-0	0.25
Mof_H 	H 	0.6158	0.2856	-0	0.167
Mof_H 	H 	0.6158	0.7144	-0	0.167
Mof_H 	H 	0.1091	0.1648	-0	0.498
Mof_H 	H 	0.5426	0.6478	-0	-0.109
Mof_H 	H 	0.2753	0.3029	-0	-0.682
Mof_C 	C 	0.6081	0.409	-0	-0.585
Mof_C 	C 	0.1225	0.2412	-0	1.84
Mof_C 	C 	0.7676	0.734	-0	1.527
Mof_C 	C 	0.8595	0.8094	-0	-1.461
Mof_C 	C 	0.1684	0.7211	-0	-1.705
Mof_C 	C 	0.7858	0.3896	-0	2.212
Mof_C 	C 	0.695	0.3299	-0	0.486
Mof_C 	C 	0.3272	0.5808	-0	0.788
Mof_C 	C 	0.2503	0.2154	-0	-1.32
Mof_C 	C 	0.305	0.67011	-0	0.485
Mof_C 	C 	0.2044	0.1777	-0	1.165
Mof_C 	C 	0.8316	0.7211	-0	-1.705
Mof_C 	C 	0.1481	0.3327	-0	2.342
Mof_C 	C 	0.1225	0.7588	-0	1.84
Mof_C 	C 	0.2503	0.7846	-0	-1.32
Mof_C 	C 	0.7162	0.37965	-0	-0.952
Mof_C 	C 	0.7676	0.266	-0	1.527
Mof_C 	C 	0.1684	0.2789	-0	-1.705
Mof_C 	C 	0.695	0.67011	-0	0.485
Mof_C 	C 	0.8595	0.1906	-0	-1.461
Mof_C 	C 	0.8775	0.7588	-0	1.84
Mof_C 	C 	0.5868	0.6408	-0	0.414
Mof_C 	C 	0.2838	0.62035	-0	-0.952
Mof_C 	C 	0.6303	0.3197	-0	-0.483
Mof_C 	C 	0.4132	0.6408	-0	0.414
Mof_C 	C 	0.1405	0.1906	-0	-1.461
Mof_C 	C 	0.7497	0.7846	-0	-1.32
Mof_C 	C 	0.8519	0.3327	-0	2.342
Mof_C 	C 	0.3272	0.4192	-0	0.788
Mof_C 	C 	0.2142	0.3896	-0	2.212
Mof_C 	C 	0.2838	0.37965	-0	-0.952
Mof_C 	C 	0.6081	0.591	-0	-0.584
Mof_C 	C 	0.2044	0.8223	-0	1.165
Mof_C 	C 	0.2142	0.6104	-0	2.212
Mof_C 	C 	0.2324	0.266	-0	1.527
Mof_C 	C 	0.2324	0.734	-0	1.527
Mof_C 	C 	0.3697	0.6803	-0	-0.483
Mof_C 	C 	0.8519	0.6673	-0	2.342
Mof_C 	C 	0.3919	0.591	-0	-0.584
Mof_C 	C 	0.6728	0.5808	-0	0.788
Mof_C 	C 	0.8316	0.2789	-0	-1.705
Mof_C 	C 	0.1405	0.8094	-0	-1.461
Mof_C 	C 	0.7162	0.62035	-0	-0.952
Mof_C 	C 	0.7956	0.1777	-0	1.165
Mof_C 	C 	0.7956	0.8223	-0	1.165
Mof_C 	C 	0.305	0.3299	-0	0.486
Mof_C 	C 	0.3919	0.409	-0	-0.585
Mof_C 	C 	0.3697	0.3197	-0	-0.483
Mof_C 	C 	0.6728	0.4192	-0	0.788
Mof_C 	C 	0.1481	0.6673	-0	2.342
Mof_C 	C 	0.4132	0.3592	-0	0.414
Mof_C 	C 	0.7858	0.6104	-0	2.212
Mof_C 	C 	0.5868	0.3592	-0	0.414
Mof_C 	C 	0.8775	0.2412	-0	1.84
Mof_C 	C 	0.7497	0.2154	-0	-1.32
Mof_C 	C 	0.6303	0.6803	-0	-0.483
Mof_O 	O 	0.8071	0.3666	-0	-1.208
Mof_O 	O 	0.7907	0.5232	-0	0.151
Mof_O 	O 	0.8071	0.6334	-0	-1.208
Mof_O 	O 	0.2093	0.4768	-0	0.151
Mof_O 	O 	0.036	0.3329	-0	0.073
Mof_O 	O 	0.036	0.6671	-0	0.073
Mof_O 	O 	0.1929	0.6334	-0	-1.208
Mof_O 	O 	0.2093	0.5232	-0	0.151
Mof_O 	O 	0.8233	0.6488	-0	-1.138
Mof_O 	O 	0.7907	0.4768	-0	0.151
Mof_O 	O 	0.8233	0.3512	-0	-1.138
Mof_O 	O 	0.964	0.3329	-0	0.073
Mof_O 	O 	0.1933	0.4342	-0	-0.875
Mof_O 	O 	0.09	0.345	-0	-0.944
Mof_O 	O 	0.1767	0.3512	-0	-1.138
Mof_O 	O 	0.8067	0.5658	-0	-0.875
Mof_O 	O 	0.1929	0.3666	-0	-1.208
Mof_O 	O 	0.8067	0.4342	-0	-0.875
Mof_O 	O 	0.91	0.655	-0	-0.944
Mof_O 	O 	0.1933	0.5658	-0	-0.875
Mof_O 	O 	0.1767	0.6488	-0	-1.138
Mof_O 	O 	0.964	0.6671	-0	0.073
Mof_O 	O 	0.91	0.345	-0	-0.944
Mof_O 	O 	0.09	0.655	-0	-0.944
Mof_F 	F 	0.723	0.6987	-0	1.017
Mof_F 	F 	0.3082	0.4666	-0	-0.505
Mof_F 	F 	0.6918	0.5334	-0	-0.505
Mof_F 	F 	0.9385	0.2525	-0	0.753
Mof_F 	F 	0.0615	0.7475	-0	0.753
Mof_F 	F 	0.6918	0.4666	-0	-0.505
Mof_F 	F 	0.9385	0.7475	-0	0.753
Mof_F 	F 	0.0615	0.2525	-0	0.753
Mof_F 	F 	0.723	0.3013	-0	1.017
Mof_F 	F 	0.277	0.6987	-0	1.017
Mof_F 	F 	0.277	0.3013	-0	1.017
Mof_F 	F 	0.3082	0.5334	-0	-0.505
_end
