data_functionalizedCrystal
_audit_creation_method	'EQeq! by Chris Wilmer'
_symmetry_space_group_name_H-M	'P1'
_symmetry_Int_Tables_number	1
_symmetry_cell_setting	triclinic
loop_
_symmetry_equiv_pos_as_xyz
  x,y,z
_cell_length_a	25.457
_cell_length_b	21.8687
_cell_length_c	34.667
_cell_angle_alpha	90
_cell_angle_beta	108.143
_cell_angle_gamma	90
loop_
_atom_site_label
_atom_site_type_symbol
_atom_site_fract_x
_atom_site_fract_y
_atom_site_fract_z
_atom_site_charge
Mof_W 	W 	0.41641	0.07051	0.26551	1.019
Mof_W 	W 	0.54286	0.06126	0.33006	1.011
Mof_W 	W 	0.50448	0.9565	0.40394	0.986
Mof_W 	W 	0.37702	0.9666	0.33947	0.969
Mof_W 	W 	0.36648	0.94468	0.19425	1.372
Mof_W 	W 	0.3996	0.84737	0.11665	1.089
Mof_W 	W 	0.32951	0.83932	0.26593	1.082
Mof_W 	W 	0.36238	0.806	0.37403	1.023
Mof_W 	W 	0.49487	0.78979	0.42749	1.361
Mof_W 	W 	0.37708	0.64034	0.34628	1.299
Mof_W 	W 	0.34537	0.6778	0.2366	1.083
Mof_W 	W 	0.38762	0.6837	0.14278	1.078
Mof_W 	W 	0.4911	0.62363	0.09954	1.019
Mof_W 	W 	0.45245	0.53217	0.1773	1.284
Mof_W 	W 	0.41315	0.5324	0.27368	0.997
Mof_Ni	Ni	0.23678	0.03261	0.152	1.049
Mof_Ni	Ni	0.53605	0.83931	0.5346	0.993
Mof_Ni	Ni	0.32928	0.44102	0.13764	0.985
Mof_P 	P 	0.4767	0.6691	0.30093	0.448
Mof_P 	P 	0.462	0.8474	0.33129	0.444
Mof_O 	O 	0.4791	0.5599	0.1304	-0.466
Mof_O 	O 	0.409	0.4761	0.1482	-0.574
Mof_O 	O 	0.5227	0.4885	0.1956	-0.47
Mof_O 	O 	0.4406	0.5193	0.2252	-0.484
Mof_O 	O 	0.3968	0.5623	0.3164	-0.469
Mof_O 	O 	0.3712	0.596	0.2391	-0.471
Mof_O 	O 	0.4826	0.6011	0.2886	-0.332
Mof_O 	O 	0.4049	0.599	0.1637	-0.481
Mof_O 	O 	0.4305	0.6668	0.1083	-0.467
Mof_O 	O 	0.5318	0.7015	0.3111	-0.103
Mof_O 	O 	0.362	0.6925	0.1898	-0.318
Mof_O 	O 	0.4328	0.6998	0.2655	-0.087
Mof_O 	O 	0.3469	0.6675	0.2927	-0.491
Mof_O 	O 	0.4567	0.6674	0.3399	-0.344
Mof_O 	O 	0.3216	0.5995	0.3539	-0.574
Mof_O 	O 	0.4332	0.6079	0.3923	-0.48
Mof_O 	O 	0.495	0.7081	0.4202	-0.476
Mof_O 	O 	0.3709	0.7135	0.3682	-0.47
Mof_O 	O 	0.3377	0.7654	0.2439	-0.302
Mof_O 	O 	0.3868	0.7682	0.1354	-0.313
Mof_O 	O 	0.4428	0.8048	0.0873	-0.498
Mof_O 	O 	0.4347	0.9216	0.1058	-0.462
Mof_O 	O 	0.3777	0.887	0.1569	-0.343
Mof_O 	O 	0.5217	0.8375	0.333	-0.084
Mof_O 	O 	0.3475	0.8826	0.2236	-0.325
Mof_O 	O 	0.4216	0.8344	0.2896	-0.064
Mof_O 	O 	0.3337	0.8025	0.3172	-0.473
Mof_O 	O 	0.4483	0.8046	0.363	-0.341
Mof_O 	O 	0.4179	0.7955	0.4242	-0.489
Mof_O 	O 	0.5196	0.7953	0.4787	-0.593
Mof_O 	O 	0.4899	0.8846	0.4242	-0.481
Mof_O 	O 	0.3671	0.8871	0.3719	-0.471
Mof_O 	O 	0.4556	0.9153	0.3437	-0.31
Mof_O 	O 	0.3429	0.9173	0.2949	-0.47
Mof_O 	O 	0.45	0.9193	0.2287	-0.125
Mof_O 	O 	0.2999	0.9701	0.1671	-0.574
Mof_O 	O 	0.4033	0.0037	0.168	-0.474
Mof_O 	O 	0.3754	0.0045	0.2362	-0.495
Mof_O 	O 	0.4865	0.0013	0.2806	-0.328
Mof_O 	O 	0.3989	0.026	0.3123	-0.449
Mof_O 	O 	0.4309	0.9892	0.3914	-0.471
Mof_O 	O 	0.5172	0.0238	0.3671	-0.452
Mof_O 	O 	0.4759	0.1069	0.3058	-0.469
Mof_O 	O 	0.438	0.0892	0.2226	-0.455
Mof_N 	N 	0.4218	0.2098	0.0092	-0.228
Mof_H 	H 	0.4203	0.1987	0.985	0.116
Mof_N 	N 	0.4661	0.2	0.0419	-0.257
Mof_N 	N 	0.3465	0.3596	0.1162	-0.27
Mof_N 	N 	0.3198	0.3063	0.1198	-0.206
Mof_H 	H 	0.2972	0.3027	0.1336	0.048
Mof_N 	N 	0.1763	0.9692	0.9293	-0.229
Mof_H 	H 	0.1561	0.9452	0.9109	0.083
Mof_N 	N 	0.1984	0.0236	0.9203	-0.279
Mof_N 	N 	0.2945	0.0384	0.091	-0.218
Mof_H 	H 	0.3243	0.042	0.1112	0.09
Mof_N 	N 	0.2449	0.0446	0.0946	-0.245
Mof_N 	N 	0.1332	0.9624	0.1383	-0.267
Mof_H 	H 	0.1199	0.9934	0.1474	0.129
Mof_N 	N 	0.183	0.9619	0.1315	-0.255
Mof_N 	N 	0.1351	0.7144	0.0946	-0.19
Mof_H 	H 	0.1475	0.6779	0.1005	0.049
Mof_N 	N 	0.0898	0.7283	0.0625	-0.258
Mof_C 	C 	0.3305	0.2565	0.9844	-0.733
Mof_H 	H 	0.3306	0.3	0.9808	0.225
Mof_H 	H 	0.2982	0.2447	0.9912	0.216
Mof_H 	H 	0.3303	0.2366	0.9596	0.215
Mof_C 	C 	0.3809	0.238	0.0177	0.274
Mof_C 	C 	0.3985	0.2495	0.0576	-0.187
Mof_C 	C 	0.4503	0.2264	0.0714	0.234
Mof_C 	C 	0.4883	0.2272	0.1147	-0.715
Mof_H 	H 	0.4894	0.1873	0.1264	0.205
Mof_H 	H 	0.4749	0.2562	0.1302	0.22
Mof_H 	H 	0.5249	0.2387	0.115	0.204
Mof_C 	C 	0.3069	0.1973	0.1002	-0.619
Mof_H 	H 	0.3334	0.1656	0.1011	0.183
Mof_H 	H 	0.2755	0.1922	0.0765	0.186
Mof_H 	H 	0.2953	0.1949	0.124	0.173
Mof_C 	C 	0.3335	0.2599	0.0987	0.193
Mof_C 	C 	0.37	0.2816	0.0819	-0.144
Mof_C 	C 	0.3775	0.3436	0.0926	0.242
Mof_C 	C 	0.4102	0.39	0.0778	-0.754
Mof_H 	H 	0.3909	0.4	0.05	0.23
Mof_H 	H 	0.4458	0.3733	0.0797	0.225
Mof_H 	H 	0.4147	0.4262	0.0941	0.246
Mof_C 	C 	0.2536	0.1059	0.9621	-0.793
Mof_H 	H 	0.2294	0.1378	0.9477	0.238
Mof_H 	H 	0.2848	0.1029	0.9522	0.215
Mof_H 	H 	0.2661	0.1152	0.9906	0.246
Mof_C 	C 	0.2235	0.0473	0.9555	0.278
Mof_C 	C 	0.219	0.01	0.9867	-0.182
Mof_C 	C 	0.1889	0.9577	0.9682	0.272
Mof_C 	C 	0.1733	0.903	0.9859	-0.76
Mof_H 	H 	0.2048	0.8765	0.9955	0.218
Mof_H 	H 	0.1444	0.882	0.9657	0.219
Mof_H 	H 	0.1605	0.9142	0.0082	0.229
Mof_C 	C 	0.1495	0.04	0.048	-0.746
Mof_H 	H 	0.1355	0.0004	0.0517	0.231
Mof_H 	H 	0.1337	0.0524	0.0202	0.225
Mof_H 	H 	0.1396	0.0691	0.0653	0.242
Mof_C 	C 	0.212	0.0372	0.0586	0.253
Mof_C 	C 	0.2411	0.0231	0.0319	-0.162
Mof_C 	C 	0.2947	0.0267	0.0552	0.224
Mof_C 	C 	0.3464	0.0199	0.0421	-0.628
Mof_H 	H 	0.3786	0.0208	0.0657	0.177
Mof_H 	H 	0.3481	0.053	0.0244	0.176
Mof_H 	H 	0.345	0.9818	0.0282	0.174
Mof_C 	C 	0.2354	0.8877	0.1028	-0.812
Mof_H 	H 	0.2531	0.9228	0.0956	0.258
Mof_H 	H 	0.2225	0.8611	0.0798	0.248
Mof_H 	H 	0.2614	0.8663	0.1247	0.275
Mof_C 	C 	0.1864	0.9086	0.1162	0.304
Mof_C 	C 	0.1386	0.8748	0.1126	-0.282
Mof_C 	C 	0.1079	0.9092	0.129	0.413
Mof_C 	C 	0.0544	0.901	0.133	-1.013
Mof_H 	H 	0.0577	0.893	0.1609	0.307
Mof_H 	H 	0.0365	0.867	0.1166	0.303
Mof_H 	H 	0.0329	0.9373	0.1241	0.321
Mof_C 	C 	0.0406	0.8241	0.0356	-0.685
Mof_H 	H 	0.0058	0.8168	0.0401	0.208
Mof_H 	H 	0.0385	0.8113	0.0087	0.22
Mof_H 	H 	0.0491	0.867	0.0386	0.204
Mof_C 	C 	0.0859	0.788	0.0665	0.198
Mof_C 	C 	0.128	0.8109	0.0986	-0.071
Mof_C 	C 	0.1576	0.7626	0.1153	0.107
Mof_C 	C 	0.2196	0.756	0.1402	-0.15
Mof_H 	H 	0.2411	0.7499	0.1222	0.044
Mof_H 	H 	0.2322	0.7928	0.1558	0.05
Mof_H 	H 	0.2239	0.722	0.1582	0.027
Mof_Na	Na	0.4365	0.7986	0.2224	-3.862
Mof_O 	O 	0.4619	0.798	0.2318	2.176
Mof_C 	C 	0.2038	0.761	0.1568	-0.156
Mof_H 	H 	0.1878	0.7668	0.1781	0.031
Mof_H 	H 	0.222	0.7217	0.1601	0.039
Mof_H 	H 	0.2303	0.7925	0.1578	0.043
Mof_W 	W 	0.91641	0.57051	0.26551	1.02
Mof_W 	W 	0.04286	0.56126	0.33006	1.006
Mof_W 	W 	0.00448	0.4565	0.40394	0.976
Mof_W 	W 	0.87702	0.4666	0.33947	0.97
Mof_W 	W 	0.86648	0.44468	0.19425	1.373
Mof_W 	W 	0.8996	0.34737	0.11665	1.09
Mof_W 	W 	0.82951	0.33932	0.26593	1.082
Mof_W 	W 	0.86238	0.306	0.37403	1.023
Mof_W 	W 	0.99487	0.28979	0.42749	1.371
Mof_W 	W 	0.87708	0.14034	0.34628	1.298
Mof_W 	W 	0.84537	0.1778	0.2366	1.083
Mof_W 	W 	0.88762	0.1837	0.14278	1.079
Mof_W 	W 	0.9911	0.12363	0.09954	1.029
Mof_W 	W 	0.95245	0.03217	0.1773	1.291
Mof_W 	W 	0.91315	0.0324	0.27368	0.998
Mof_Ni	Ni	0.73678	0.53261	0.152	1.049
Mof_Ni	Ni	0.03605	0.33931	0.5346	0.991
Mof_Ni	Ni	0.82928	0.94102	0.13764	0.985
Mof_P 	P 	0.9767	0.1691	0.30093	0.453
Mof_P 	P 	0.962	0.3474	0.33129	0.448
Mof_O 	O 	0.9791	0.0599	0.1304	-0.465
Mof_O 	O 	0.909	0.9761	0.1482	-0.574
Mof_O 	O 	0.0227	0.9885	0.1956	-0.473
Mof_O 	O 	0.9406	0.0193	0.2252	-0.483
Mof_O 	O 	0.8968	0.0623	0.3164	-0.469
Mof_O 	O 	0.8712	0.096	0.2391	-0.471
Mof_O 	O 	0.9826	0.1011	0.2886	-0.329
Mof_O 	O 	0.9049	0.099	0.1637	-0.482
Mof_O 	O 	0.9305	0.1668	0.1083	-0.468
Mof_O 	O 	0.0318	0.2015	0.3111	-0.107
Mof_O 	O 	0.862	0.1925	0.1898	-0.318
Mof_O 	O 	0.9328	0.1998	0.2655	-0.087
Mof_O 	O 	0.8469	0.1675	0.2927	-0.491
Mof_O 	O 	0.9567	0.1674	0.3399	-0.342
Mof_O 	O 	0.8216	0.0995	0.3539	-0.574
Mof_O 	O 	0.9332	0.1079	0.3923	-0.477
Mof_O 	O 	0.995	0.2081	0.4202	-0.472
Mof_O 	O 	0.8709	0.2135	0.3682	-0.47
Mof_O 	O 	0.8377	0.2654	0.2439	-0.302
Mof_O 	O 	0.8868	0.2682	0.1354	-0.313
Mof_O 	O 	0.9428	0.3048	0.0873	-0.494
Mof_O 	O 	0.9347	0.4216	0.1058	-0.463
Mof_O 	O 	0.8777	0.387	0.1569	-0.343
Mof_O 	O 	0.0217	0.3375	0.333	-0.088
Mof_O 	O 	0.8475	0.3826	0.2236	-0.325
Mof_O 	O 	0.9216	0.3344	0.2896	-0.064
Mof_O 	O 	0.8337	0.3025	0.3172	-0.474
Mof_O 	O 	0.9483	0.3046	0.363	-0.341
Mof_O 	O 	0.9179	0.2955	0.4242	-0.49
Mof_O 	O 	0.0196	0.2953	0.4787	-0.599
Mof_O 	O 	0.9899	0.3846	0.4242	-0.476
Mof_O 	O 	0.8671	0.3871	0.3719	-0.471
Mof_O 	O 	0.9556	0.4153	0.3437	-0.308
Mof_O 	O 	0.8429	0.4173	0.2949	-0.47
Mof_O 	O 	0.95	0.4193	0.2287	-0.121
Mof_O 	O 	0.7999	0.4701	0.1671	-0.574
Mof_O 	O 	0.9033	0.5037	0.168	-0.474
Mof_O 	O 	0.8754	0.5045	0.2362	-0.495
Mof_O 	O 	0.9865	0.5013	0.2806	-0.322
Mof_O 	O 	0.8989	0.526	0.3123	-0.449
Mof_O 	O 	0.9309	0.4892	0.3914	-0.468
Mof_O 	O 	0.0172	0.5238	0.3671	-0.453
Mof_O 	O 	0.9759	0.6069	0.3058	-0.465
Mof_O 	O 	0.938	0.5892	0.2226	-0.454
Mof_N 	N 	0.9218	0.7098	0.0092	-0.228
Mof_H 	H 	0.9203	0.6987	0.985	0.117
Mof_N 	N 	0.9661	0.7	0.0419	-0.254
Mof_N 	N 	0.8465	0.8596	0.1162	-0.271
Mof_N 	N 	0.8198	0.8063	0.1198	-0.206
Mof_H 	H 	0.7972	0.8027	0.1336	0.048
Mof_N 	N 	0.6763	0.4692	0.9293	-0.229
Mof_H 	H 	0.6561	0.4452	0.9109	0.083
Mof_N 	N 	0.6984	0.5236	0.9203	-0.279
Mof_N 	N 	0.7945	0.5384	0.091	-0.218
Mof_H 	H 	0.8243	0.542	0.1112	0.089
Mof_N 	N 	0.7449	0.5446	0.0946	-0.246
Mof_N 	N 	0.6332	0.4624	0.1383	-0.268
Mof_H 	H 	0.6199	0.4934	0.1474	0.129
Mof_N 	N 	0.683	0.4619	0.1315	-0.255
Mof_N 	N 	0.6351	0.2144	0.0946	-0.19
Mof_H 	H 	0.6475	0.1779	0.1005	0.049
Mof_N 	N 	0.5898	0.2283	0.0625	-0.258
Mof_C 	C 	0.8305	0.7565	0.9844	-0.732
Mof_H 	H 	0.8306	0.8	0.9808	0.225
Mof_H 	H 	0.7982	0.7447	0.9912	0.215
Mof_H 	H 	0.8303	0.7366	0.9596	0.214
Mof_C 	C 	0.8809	0.738	0.0177	0.273
Mof_C 	C 	0.8985	0.7495	0.0576	-0.183
Mof_C 	C 	0.9503	0.7264	0.0714	0.228
Mof_C 	C 	0.9883	0.7272	0.1147	-0.688
Mof_H 	H 	0.9894	0.6873	0.1264	0.198
Mof_H 	H 	0.9749	0.7562	0.1302	0.214
Mof_H 	H 	0.0249	0.7387	0.115	0.192
Mof_C 	C 	0.8069	0.6973	0.1002	-0.62
Mof_H 	H 	0.8334	0.6656	0.1011	0.184
Mof_H 	H 	0.7755	0.6922	0.0765	0.186
Mof_H 	H 	0.7953	0.6949	0.124	0.174
Mof_C 	C 	0.8335	0.7599	0.0987	0.194
Mof_C 	C 	0.87	0.7816	0.0819	-0.146
Mof_C 	C 	0.8775	0.8436	0.0926	0.245
Mof_C 	C 	0.9102	0.89	0.0778	-0.76
Mof_H 	H 	0.8909	0.9	0.05	0.233
Mof_H 	H 	0.9458	0.8733	0.0797	0.228
Mof_H 	H 	0.9147	0.9262	0.0941	0.249
Mof_C 	C 	0.7536	0.6059	0.9621	-0.793
Mof_H 	H 	0.7294	0.6378	0.9477	0.237
Mof_H 	H 	0.7848	0.6029	0.9522	0.215
Mof_H 	H 	0.7661	0.6152	0.9906	0.246
Mof_C 	C 	0.7235	0.5473	0.9555	0.278
Mof_C 	C 	0.719	0.51	0.9867	-0.183
Mof_C 	C 	0.6889	0.4577	0.9682	0.273
Mof_C 	C 	0.6733	0.403	0.9859	-0.763
Mof_H 	H 	0.7048	0.3765	0.9955	0.218
Mof_H 	H 	0.6444	0.382	0.9657	0.22
Mof_H 	H 	0.6605	0.4142	0.0082	0.231
Mof_C 	C 	0.6495	0.54	0.048	-0.747
Mof_H 	H 	0.6355	0.5004	0.0517	0.231
Mof_H 	H 	0.6337	0.5524	0.0202	0.226
Mof_H 	H 	0.6396	0.5691	0.0653	0.242
Mof_C 	C 	0.712	0.5372	0.0586	0.253
Mof_C 	C 	0.7411	0.5231	0.0319	-0.161
Mof_C 	C 	0.7947	0.5267	0.0552	0.224
Mof_C 	C 	0.8464	0.5199	0.0421	-0.629
Mof_H 	H 	0.8786	0.5208	0.0657	0.177
Mof_H 	H 	0.8481	0.553	0.0244	0.177
Mof_H 	H 	0.845	0.4818	0.0282	0.174
Mof_C 	C 	0.7354	0.3877	0.1028	-0.813
Mof_H 	H 	0.7531	0.4228	0.0956	0.258
Mof_H 	H 	0.7225	0.3611	0.0798	0.249
Mof_H 	H 	0.7614	0.3663	0.1247	0.275
Mof_C 	C 	0.6864	0.4086	0.1162	0.304
Mof_C 	C 	0.6386	0.3748	0.1126	-0.283
Mof_C 	C 	0.6079	0.4092	0.129	0.416
Mof_C 	C 	0.5544	0.401	0.133	-1.02
Mof_H 	H 	0.5577	0.393	0.1609	0.31
Mof_H 	H 	0.5365	0.367	0.1166	0.307
Mof_H 	H 	0.5329	0.4373	0.1241	0.325
Mof_C 	C 	0.5406	0.3241	0.0356	-0.691
Mof_H 	H 	0.5058	0.3168	0.0401	0.212
Mof_H 	H 	0.5385	0.3113	0.0087	0.223
Mof_H 	H 	0.5491	0.367	0.0386	0.207
Mof_C 	C 	0.5859	0.288	0.0665	0.2
Mof_C 	C 	0.628	0.3109	0.0986	-0.071
Mof_C 	C 	0.6576	0.2626	0.1153	0.107
Mof_C 	C 	0.7196	0.256	0.1402	-0.151
Mof_H 	H 	0.7411	0.2499	0.1222	0.044
Mof_H 	H 	0.7322	0.2928	0.1558	0.05
Mof_H 	H 	0.7239	0.222	0.1582	0.027
Mof_Na	Na	0.9365	0.2986	0.2224	-3.862
Mof_O 	O 	0.9619	0.298	0.2318	2.178
Mof_C 	C 	0.7038	0.261	0.1568	-0.156
Mof_H 	H 	0.6878	0.2668	0.1781	0.031
Mof_H 	H 	0.722	0.2217	0.1601	0.039
Mof_H 	H 	0.7303	0.2925	0.1578	0.043
Mof_W 	W 	0.58359	0.07051	0.23449	1.02
Mof_W 	W 	0.45714	0.06126	0.16994	1.012
Mof_W 	W 	0.49552	0.9565	0.09606	0.986
Mof_W 	W 	0.62298	0.9666	0.16053	0.97
Mof_W 	W 	0.63352	0.94468	0.30575	1.373
Mof_W 	W 	0.6004	0.84737	0.38335	1.09
Mof_W 	W 	0.67049	0.83932	0.23407	1.082
Mof_W 	W 	0.63762	0.806	0.12597	1.023
Mof_W 	W 	0.50513	0.78979	0.07251	1.361
Mof_W 	W 	0.62292	0.64034	0.15372	1.299
Mof_W 	W 	0.65463	0.6778	0.2634	1.083
Mof_W 	W 	0.61238	0.6837	0.35722	1.078
Mof_W 	W 	0.5089	0.62363	0.40046	1.019
Mof_W 	W 	0.54755	0.53217	0.3227	1.284
Mof_W 	W 	0.58685	0.5324	0.22632	0.997
Mof_Ni	Ni	0.76322	0.03261	0.348	1.049
Mof_Ni	Ni	0.46395	0.83931	0.9654	0.993
Mof_Ni	Ni	0.67072	0.44102	0.36236	0.985
Mof_P 	P 	0.5233	0.6691	0.19907	0.448
Mof_P 	P 	0.538	0.8474	0.16871	0.444
Mof_O 	O 	0.5209	0.5599	0.3696	-0.466
Mof_O 	O 	0.591	0.4761	0.3518	-0.574
Mof_O 	O 	0.4773	0.4885	0.3044	-0.47
Mof_O 	O 	0.5594	0.5193	0.2748	-0.484
Mof_O 	O 	0.6032	0.5623	0.1836	-0.469
Mof_O 	O 	0.6288	0.596	0.2609	-0.471
Mof_O 	O 	0.5174	0.6011	0.2114	-0.332
Mof_O 	O 	0.5951	0.599	0.3363	-0.481
Mof_O 	O 	0.5695	0.6668	0.3917	-0.467
Mof_O 	O 	0.4682	0.7015	0.1889	-0.103
Mof_O 	O 	0.638	0.6925	0.3102	-0.318
Mof_O 	O 	0.5672	0.6998	0.2345	-0.087
Mof_O 	O 	0.6531	0.6675	0.2073	-0.491
Mof_O 	O 	0.5433	0.6674	0.1601	-0.344
Mof_O 	O 	0.6784	0.5995	0.1461	-0.574
Mof_O 	O 	0.5668	0.6079	0.1077	-0.48
Mof_O 	O 	0.505	0.7081	0.0798	-0.476
Mof_O 	O 	0.6291	0.7135	0.1318	-0.47
Mof_O 	O 	0.6623	0.7654	0.2561	-0.302
Mof_O 	O 	0.6132	0.7682	0.3646	-0.313
Mof_O 	O 	0.5572	0.8048	0.4127	-0.498
Mof_O 	O 	0.5653	0.9216	0.3942	-0.462
Mof_O 	O 	0.6223	0.887	0.3431	-0.343
Mof_O 	O 	0.4783	0.8375	0.167	-0.084
Mof_O 	O 	0.6525	0.8826	0.2764	-0.325
Mof_O 	O 	0.5784	0.8344	0.2104	-0.064
Mof_O 	O 	0.6663	0.8025	0.1828	-0.473
Mof_O 	O 	0.5517	0.8046	0.137	-0.341
Mof_O 	O 	0.5821	0.7955	0.0758	-0.489
Mof_O 	O 	0.4804	0.7953	0.0213	-0.593
Mof_O 	O 	0.5101	0.8846	0.0758	-0.481
Mof_O 	O 	0.6329	0.8871	0.1281	-0.471
Mof_O 	O 	0.5444	0.9153	0.1563	-0.31
Mof_O 	O 	0.6571	0.9173	0.2051	-0.47
Mof_O 	O 	0.55	0.9193	0.2713	-0.125
Mof_O 	O 	0.7001	0.9701	0.3329	-0.574
Mof_O 	O 	0.5967	0.0037	0.332	-0.474
Mof_O 	O 	0.6246	0.0045	0.2638	-0.495
Mof_O 	O 	0.5135	0.0013	0.2194	-0.328
Mof_O 	O 	0.6011	0.026	0.1877	-0.449
Mof_O 	O 	0.5691	0.9892	0.1086	-0.471
Mof_O 	O 	0.4828	0.0238	0.1329	-0.452
Mof_O 	O 	0.5241	0.1069	0.1942	-0.469
Mof_O 	O 	0.562	0.0892	0.2774	-0.455
Mof_N 	N 	0.5782	0.2098	0.4908	-0.228
Mof_H 	H 	0.5797	0.1987	0.515	0.117
Mof_N 	N 	0.5339	0.2	0.4581	-0.257
Mof_N 	N 	0.6535	0.3596	0.3838	-0.27
Mof_N 	N 	0.6802	0.3063	0.3802	-0.206
Mof_H 	H 	0.7028	0.3027	0.3664	0.048
Mof_N 	N 	0.8237	0.9692	0.5707	-0.229
Mof_H 	H 	0.8439	0.9452	0.5891	0.083
Mof_N 	N 	0.8016	0.0236	0.5797	-0.278
Mof_N 	N 	0.7055	0.0384	0.409	-0.218
Mof_H 	H 	0.6757	0.042	0.3888	0.09
Mof_N 	N 	0.7551	0.0446	0.4054	-0.246
Mof_N 	N 	0.8668	0.9624	0.3617	-0.268
Mof_H 	H 	0.8801	0.9934	0.3526	0.13
Mof_N 	N 	0.817	0.9619	0.3685	-0.255
Mof_N 	N 	0.8649	0.7144	0.4054	-0.19
Mof_H 	H 	0.8525	0.6779	0.3995	0.049
Mof_N 	N 	0.9102	0.7283	0.4375	-0.258
Mof_C 	C 	0.6695	0.2565	0.5156	-0.732
Mof_H 	H 	0.6694	0.3	0.5192	0.225
Mof_H 	H 	0.7018	0.2447	0.5088	0.216
Mof_H 	H 	0.6697	0.2366	0.5404	0.215
Mof_C 	C 	0.6191	0.238	0.4823	0.274
Mof_C 	C 	0.6015	0.2495	0.4424	-0.187
Mof_C 	C 	0.5497	0.2264	0.4286	0.234
Mof_C 	C 	0.5117	0.2272	0.3853	-0.715
Mof_H 	H 	0.5106	0.1873	0.3736	0.205
Mof_H 	H 	0.5251	0.2562	0.3698	0.22
Mof_H 	H 	0.4751	0.2387	0.385	0.204
Mof_C 	C 	0.6931	0.1973	0.3998	-0.619
Mof_H 	H 	0.6666	0.1656	0.3989	0.183
Mof_H 	H 	0.7245	0.1922	0.4235	0.186
Mof_H 	H 	0.7047	0.1949	0.376	0.173
Mof_C 	C 	0.6665	0.2599	0.4013	0.193
Mof_C 	C 	0.63	0.2816	0.4181	-0.144
Mof_C 	C 	0.6225	0.3436	0.4074	0.242
Mof_C 	C 	0.5898	0.39	0.4222	-0.754
Mof_H 	H 	0.6091	0.4	0.45	0.23
Mof_H 	H 	0.5542	0.3733	0.4203	0.225
Mof_H 	H 	0.5853	0.4262	0.4059	0.246
Mof_C 	C 	0.7464	0.1059	0.5379	-0.793
Mof_H 	H 	0.7706	0.1378	0.5523	0.237
Mof_H 	H 	0.7152	0.1029	0.5478	0.215
Mof_H 	H 	0.7339	0.1152	0.5094	0.246
Mof_C 	C 	0.7765	0.0473	0.5445	0.278
Mof_C 	C 	0.781	0.01	0.5133	-0.182
Mof_C 	C 	0.8111	0.9577	0.5318	0.272
Mof_C 	C 	0.8267	0.903	0.5141	-0.761
Mof_H 	H 	0.7952	0.8765	0.5045	0.218
Mof_H 	H 	0.8556	0.882	0.5343	0.219
Mof_H 	H 	0.8395	0.9142	0.4918	0.23
Mof_C 	C 	0.8505	0.04	0.452	-0.749
Mof_H 	H 	0.8645	0.0004	0.4483	0.232
Mof_H 	H 	0.8663	0.0524	0.4798	0.227
Mof_H 	H 	0.8604	0.0691	0.4347	0.243
Mof_C 	C 	0.788	0.0372	0.4414	0.254
Mof_C 	C 	0.7589	0.0231	0.4681	-0.162
Mof_C 	C 	0.7053	0.0267	0.4448	0.224
Mof_C 	C 	0.6536	0.0199	0.4579	-0.629
Mof_H 	H 	0.6214	0.0208	0.4343	0.177
Mof_H 	H 	0.6519	0.053	0.4756	0.176
Mof_H 	H 	0.655	0.9818	0.4718	0.174
Mof_C 	C 	0.7646	0.8877	0.3972	-0.813
Mof_H 	H 	0.7469	0.9228	0.4044	0.258
Mof_H 	H 	0.7775	0.8611	0.4202	0.249
Mof_H 	H 	0.7386	0.8663	0.3753	0.275
Mof_C 	C 	0.8136	0.9086	0.3838	0.304
Mof_C 	C 	0.8614	0.8748	0.3874	-0.284
Mof_C 	C 	0.8921	0.9092	0.371	0.419
Mof_C 	C 	0.9456	0.901	0.367	-1.028
Mof_H 	H 	0.9423	0.893	0.3391	0.313
Mof_H 	H 	0.9635	0.867	0.3834	0.31
Mof_H 	H 	0.9671	0.9373	0.3759	0.329
Mof_C 	C 	0.9594	0.8241	0.4644	-0.696
Mof_H 	H 	0.9942	0.8168	0.4599	0.215
Mof_H 	H 	0.9615	0.8113	0.4913	0.226
Mof_H 	H 	0.9509	0.867	0.4614	0.209
Mof_C 	C 	0.9141	0.788	0.4335	0.201
Mof_C 	C 	0.872	0.8109	0.4014	-0.071
Mof_C 	C 	0.8424	0.7626	0.3847	0.107
Mof_C 	C 	0.7804	0.756	0.3598	-0.151
Mof_H 	H 	0.7589	0.7499	0.3778	0.044
Mof_H 	H 	0.7678	0.7928	0.3442	0.05
Mof_H 	H 	0.7761	0.722	0.3418	0.027
Mof_Na	Na	0.5635	0.7986	0.2776	-3.862
Mof_O 	O 	0.5381	0.798	0.2682	2.176
Mof_C 	C 	0.7962	0.761	0.3432	-0.156
Mof_H 	H 	0.8122	0.7668	0.3219	0.031
Mof_H 	H 	0.778	0.7217	0.3399	0.039
Mof_H 	H 	0.7697	0.7925	0.3422	0.043
Mof_W 	W 	0.08359	0.57051	0.23449	1.019
Mof_W 	W 	0.95714	0.56126	0.16994	1.019
Mof_W 	W 	0.99552	0.4565	0.09606	0.998
Mof_W 	W 	0.12298	0.4666	0.16053	0.97
Mof_W 	W 	0.13352	0.44468	0.30575	1.373
Mof_W 	W 	0.1004	0.34737	0.38335	1.089
Mof_W 	W 	0.17049	0.33932	0.23407	1.082
Mof_W 	W 	0.13762	0.306	0.12597	1.023
Mof_W 	W 	0.00513	0.28979	0.07251	1.351
Mof_W 	W 	0.12292	0.14034	0.15372	1.299
Mof_W 	W 	0.15463	0.1778	0.2634	1.083
Mof_W 	W 	0.11238	0.1837	0.35722	1.078
Mof_W 	W 	0.0089	0.12363	0.40046	1.01
Mof_W 	W 	0.04755	0.03217	0.3227	1.278
Mof_W 	W 	0.08685	0.0324	0.22632	0.997
Mof_Ni	Ni	0.26322	0.53261	0.348	1.049
Mof_Ni	Ni	0.96395	0.33931	0.9654	0.994
Mof_Ni	Ni	0.17072	0.94102	0.36236	0.985
Mof_P 	P 	0.0233	0.1691	0.19907	0.444
Mof_P 	P 	0.038	0.3474	0.16871	0.44
Mof_O 	O 	0.0209	0.0599	0.3696	-0.467
Mof_O 	O 	0.091	0.9761	0.3518	-0.573
Mof_O 	O 	0.9773	0.9885	0.3044	-0.467
Mof_O 	O 	0.0594	0.0193	0.2748	-0.484
Mof_O 	O 	0.1032	0.0623	0.1836	-0.47
Mof_O 	O 	0.1288	0.096	0.2609	-0.471
Mof_O 	O 	0.0174	0.1011	0.2114	-0.335
Mof_O 	O 	0.0951	0.099	0.3363	-0.481
Mof_O 	O 	0.0695	0.1668	0.3917	-0.467
Mof_O 	O 	0.9682	0.2015	0.1889	-0.099
Mof_O 	O 	0.138	0.1925	0.3102	-0.318
Mof_O 	O 	0.0672	0.1998	0.2345	-0.087
Mof_O 	O 	0.1531	0.1675	0.2073	-0.491
Mof_O 	O 	0.0433	0.1674	0.1601	-0.346
Mof_O 	O 	0.1784	0.0995	0.1461	-0.574
Mof_O 	O 	0.0668	0.1079	0.1077	-0.483
Mof_O 	O 	0.005	0.2081	0.0798	-0.479
Mof_O 	O 	0.1291	0.2135	0.1318	-0.47
Mof_O 	O 	0.1623	0.2654	0.2561	-0.302
Mof_O 	O 	0.1132	0.2682	0.3646	-0.313
Mof_O 	O 	0.0572	0.3048	0.4127	-0.501
Mof_O 	O 	0.0653	0.4216	0.3942	-0.462
Mof_O 	O 	0.1223	0.387	0.3431	-0.343
Mof_O 	O 	0.9783	0.3375	0.167	-0.08
Mof_O 	O 	0.1525	0.3826	0.2764	-0.325
Mof_O 	O 	0.0784	0.3344	0.2104	-0.064
Mof_O 	O 	0.1663	0.3025	0.1828	-0.473
Mof_O 	O 	0.0517	0.3046	0.137	-0.34
Mof_O 	O 	0.0821	0.2955	0.0758	-0.489
Mof_O 	O 	0.9804	0.2953	0.0213	-0.588
Mof_O 	O 	0.0101	0.3846	0.0758	-0.485
Mof_O 	O 	0.1329	0.3871	0.1281	-0.471
Mof_O 	O 	0.0444	0.4153	0.1563	-0.312
Mof_O 	O 	0.1571	0.4173	0.2051	-0.47
Mof_O 	O 	0.05	0.4193	0.2713	-0.125
Mof_O 	O 	0.2001	0.4701	0.3329	-0.574
Mof_O 	O 	0.0967	0.5037	0.332	-0.473
Mof_O 	O 	0.1246	0.5045	0.2638	-0.495
Mof_O 	O 	0.0135	0.5013	0.2194	-0.33
Mof_O 	O 	0.1011	0.526	0.1877	-0.45
Mof_O 	O 	0.0691	0.4892	0.1086	-0.475
Mof_O 	O 	0.9828	0.5238	0.1329	-0.452
Mof_O 	O 	0.0241	0.6069	0.1942	-0.473
Mof_O 	O 	0.062	0.5892	0.2774	-0.456
Mof_N 	N 	0.0782	0.7098	0.4908	-0.229
Mof_H 	H 	0.0797	0.6987	0.515	0.116
Mof_N 	N 	0.0339	0.7	0.4581	-0.26
Mof_N 	N 	0.1535	0.8596	0.3838	-0.27
Mof_N 	N 	0.1802	0.8063	0.3802	-0.205
Mof_H 	H 	0.2028	0.8027	0.3664	0.048
Mof_N 	N 	0.3237	0.4692	0.5707	-0.229
Mof_H 	H 	0.3439	0.4452	0.5891	0.083
Mof_N 	N 	0.3016	0.5236	0.5797	-0.278
Mof_N 	N 	0.2055	0.5384	0.409	-0.218
Mof_H 	H 	0.1757	0.542	0.3888	0.09
Mof_N 	N 	0.2551	0.5446	0.4054	-0.246
Mof_N 	N 	0.3668	0.4624	0.3617	-0.268
Mof_H 	H 	0.3801	0.4934	0.3526	0.129
Mof_N 	N 	0.317	0.4619	0.3685	-0.255
Mof_N 	N 	0.3649	0.2144	0.4054	-0.19
Mof_H 	H 	0.3525	0.1779	0.3995	0.049
Mof_N 	N 	0.4102	0.2283	0.4375	-0.258
Mof_C 	C 	0.1695	0.7565	0.5156	-0.734
Mof_H 	H 	0.1694	0.8	0.5192	0.226
Mof_H 	H 	0.2018	0.7447	0.5088	0.216
Mof_H 	H 	0.1697	0.7366	0.5404	0.215
Mof_C 	C 	0.1191	0.738	0.4823	0.275
Mof_C 	C 	0.1015	0.7495	0.4424	-0.191
Mof_C 	C 	0.0497	0.7264	0.4286	0.241
Mof_C 	C 	0.0117	0.7272	0.3853	-0.741
Mof_H 	H 	0.0106	0.6873	0.3736	0.211
Mof_H 	H 	0.0251	0.7562	0.3698	0.226
Mof_H 	H 	0.9751	0.7387	0.385	0.215
Mof_C 	C 	0.1931	0.6973	0.3998	-0.618
Mof_H 	H 	0.1666	0.6656	0.3989	0.183
Mof_H 	H 	0.2245	0.6922	0.4235	0.185
Mof_H 	H 	0.2047	0.6949	0.376	0.173
Mof_C 	C 	0.1665	0.7599	0.4013	0.191
Mof_C 	C 	0.13	0.7816	0.4181	-0.141
Mof_C 	C 	0.1225	0.8436	0.4074	0.239
Mof_C 	C 	0.0898	0.89	0.4222	-0.748
Mof_H 	H 	0.1091	0.9	0.45	0.228
Mof_H 	H 	0.0542	0.8733	0.4203	0.221
Mof_H 	H 	0.0853	0.9262	0.4059	0.244
Mof_C 	C 	0.2464	0.6059	0.5379	-0.793
Mof_H 	H 	0.2706	0.6378	0.5523	0.237
Mof_H 	H 	0.2152	0.6029	0.5478	0.214
Mof_H 	H 	0.2339	0.6152	0.5094	0.246
Mof_C 	C 	0.2765	0.5473	0.5445	0.278
Mof_C 	C 	0.281	0.51	0.5133	-0.182
Mof_C 	C 	0.3111	0.4577	0.5318	0.272
Mof_C 	C 	0.3267	0.403	0.5141	-0.761
Mof_H 	H 	0.2952	0.3765	0.5045	0.218
Mof_H 	H 	0.3556	0.382	0.5343	0.219
Mof_H 	H 	0.3395	0.4142	0.4918	0.23
Mof_C 	C 	0.3505	0.54	0.452	-0.747
Mof_H 	H 	0.3645	0.5004	0.4483	0.231
Mof_H 	H 	0.3663	0.5524	0.4798	0.226
Mof_H 	H 	0.3604	0.5691	0.4347	0.242
Mof_C 	C 	0.288	0.5372	0.4414	0.253
Mof_C 	C 	0.2589	0.5231	0.4681	-0.162
Mof_C 	C 	0.2053	0.5267	0.4448	0.224
Mof_C 	C 	0.1536	0.5199	0.4579	-0.629
Mof_H 	H 	0.1214	0.5208	0.4343	0.177
Mof_H 	H 	0.1519	0.553	0.4756	0.176
Mof_H 	H 	0.155	0.4818	0.4718	0.174
Mof_C 	C 	0.2646	0.3877	0.3972	-0.813
Mof_H 	H 	0.2469	0.4228	0.4044	0.258
Mof_H 	H 	0.2775	0.3611	0.4202	0.248
Mof_H 	H 	0.2386	0.3663	0.3753	0.275
Mof_C 	C 	0.3136	0.4086	0.3838	0.304
Mof_C 	C 	0.3614	0.3748	0.3874	-0.283
Mof_C 	C 	0.3921	0.4092	0.371	0.416
Mof_C 	C 	0.4456	0.401	0.367	-1.02
Mof_H 	H 	0.4423	0.393	0.3391	0.31
Mof_H 	H 	0.4635	0.367	0.3834	0.307
Mof_H 	H 	0.4671	0.4373	0.3759	0.325
Mof_C 	C 	0.4594	0.3241	0.4644	-0.691
Mof_H 	H 	0.4942	0.3168	0.4599	0.212
Mof_H 	H 	0.4615	0.3113	0.4913	0.223
Mof_H 	H 	0.4509	0.367	0.4614	0.207
Mof_C 	C 	0.4141	0.288	0.4335	0.2
Mof_C 	C 	0.372	0.3109	0.4014	-0.071
Mof_C 	C 	0.3424	0.2626	0.3847	0.107
Mof_C 	C 	0.2804	0.256	0.3598	-0.151
Mof_H 	H 	0.2589	0.2499	0.3778	0.044
Mof_H 	H 	0.2678	0.2928	0.3442	0.05
Mof_H 	H 	0.2761	0.222	0.3418	0.027
Mof_Na	Na	0.0635	0.2986	0.2776	-3.862
Mof_O 	O 	0.0381	0.298	0.2682	2.173
Mof_C 	C 	0.2962	0.261	0.3432	-0.156
Mof_H 	H 	0.3122	0.2668	0.3219	0.031
Mof_H 	H 	0.278	0.2217	0.3399	0.039
Mof_H 	H 	0.2697	0.2925	0.3422	0.043
Mof_W 	W 	0.58359	0.92949	0.73449	1.02
Mof_W 	W 	0.45714	0.93874	0.66994	1.012
Mof_W 	W 	0.49552	0.0435	0.59606	0.987
Mof_W 	W 	0.62298	0.0334	0.66053	0.97
Mof_W 	W 	0.63352	0.05532	0.80575	1.373
Mof_W 	W 	0.6004	0.15263	0.88335	1.089
Mof_W 	W 	0.67049	0.16068	0.73407	1.082
Mof_W 	W 	0.63762	0.194	0.62597	1.023
Mof_W 	W 	0.50513	0.21021	0.57251	1.361
Mof_W 	W 	0.62292	0.35966	0.65372	1.299
Mof_W 	W 	0.65463	0.3222	0.7634	1.083
Mof_W 	W 	0.61238	0.3163	0.85722	1.078
Mof_W 	W 	0.5089	0.37637	0.90046	1.019
Mof_W 	W 	0.54755	0.46783	0.8227	1.284
Mof_W 	W 	0.58685	0.4676	0.72632	0.997
Mof_Ni	Ni	0.76322	0.96739	0.848	1.049
Mof_Ni	Ni	0.46395	0.16069	0.4654	0.993
Mof_Ni	Ni	0.67072	0.55898	0.86236	0.985
Mof_P 	P 	0.5233	0.3309	0.69907	0.448
Mof_P 	P 	0.538	0.1526	0.66871	0.444
Mof_O 	O 	0.5209	0.4401	0.8696	-0.466
Mof_O 	O 	0.591	0.5239	0.8518	-0.574
Mof_O 	O 	0.4773	0.5115	0.8044	-0.47
Mof_O 	O 	0.5594	0.4807	0.7748	-0.484
Mof_O 	O 	0.6032	0.4377	0.6836	-0.469
Mof_O 	O 	0.6288	0.404	0.7609	-0.471
Mof_O 	O 	0.5174	0.3989	0.7114	-0.332
Mof_O 	O 	0.5951	0.401	0.8363	-0.481
Mof_O 	O 	0.5695	0.3332	0.8917	-0.467
Mof_O 	O 	0.4682	0.2985	0.6889	-0.103
Mof_O 	O 	0.638	0.3075	0.8102	-0.318
Mof_O 	O 	0.5672	0.3002	0.7345	-0.087
Mof_O 	O 	0.6531	0.3325	0.7073	-0.491
Mof_O 	O 	0.5433	0.3326	0.6601	-0.344
Mof_O 	O 	0.6784	0.4005	0.6461	-0.574
Mof_O 	O 	0.5668	0.3921	0.6077	-0.48
Mof_O 	O 	0.505	0.2919	0.5798	-0.476
Mof_O 	O 	0.6291	0.2865	0.6318	-0.47
Mof_O 	O 	0.6623	0.2346	0.7561	-0.302
Mof_O 	O 	0.6132	0.2318	0.8646	-0.313
Mof_O 	O 	0.5572	0.1952	0.9127	-0.498
Mof_O 	O 	0.5653	0.0784	0.8942	-0.462
Mof_O 	O 	0.6223	0.113	0.8431	-0.343
Mof_O 	O 	0.4783	0.1625	0.667	-0.084
Mof_O 	O 	0.6525	0.1174	0.7764	-0.325
Mof_O 	O 	0.5784	0.1656	0.7104	-0.064
Mof_O 	O 	0.6663	0.1975	0.6828	-0.473
Mof_O 	O 	0.5517	0.1954	0.637	-0.341
Mof_O 	O 	0.5821	0.2045	0.5758	-0.489
Mof_O 	O 	0.4804	0.2047	0.5213	-0.593
Mof_O 	O 	0.5101	0.1154	0.5758	-0.481
Mof_O 	O 	0.6329	0.1129	0.6281	-0.471
Mof_O 	O 	0.5444	0.0847	0.6563	-0.31
Mof_O 	O 	0.6571	0.0827	0.7051	-0.47
Mof_O 	O 	0.55	0.0807	0.7713	-0.125
Mof_O 	O 	0.7001	0.0299	0.8329	-0.574
Mof_O 	O 	0.5967	0.9963	0.832	-0.474
Mof_O 	O 	0.6246	0.9955	0.7638	-0.495
Mof_O 	O 	0.5135	0.9987	0.7194	-0.328
Mof_O 	O 	0.6011	0.974	0.6877	-0.449
Mof_O 	O 	0.5691	0.0108	0.6086	-0.471
Mof_O 	O 	0.4828	0.9762	0.6329	-0.452
Mof_O 	O 	0.5241	0.8931	0.6942	-0.469
Mof_O 	O 	0.562	0.9108	0.7774	-0.455
Mof_N 	N 	0.5782	0.7902	0.9908	-0.228
Mof_H 	H 	0.5797	0.8013	0.015	0.117
Mof_N 	N 	0.5339	0.8	0.9581	-0.257
Mof_N 	N 	0.6535	0.6404	0.8838	-0.27
Mof_N 	N 	0.6802	0.6937	0.8802	-0.206
Mof_H 	H 	0.7028	0.6973	0.8664	0.048
Mof_N 	N 	0.8237	0.0308	0.0707	-0.229
Mof_H 	H 	0.8439	0.0548	0.0891	0.083
Mof_N 	N 	0.8016	0.9764	0.0797	-0.279
Mof_N 	N 	0.7055	0.9616	0.909	-0.218
Mof_H 	H 	0.6757	0.958	0.8888	0.09
Mof_N 	N 	0.7551	0.9554	0.9054	-0.246
Mof_N 	N 	0.8668	0.0376	0.8617	-0.268
Mof_H 	H 	0.8801	0.0066	0.8526	0.13
Mof_N 	N 	0.817	0.0381	0.8685	-0.255
Mof_N 	N 	0.8649	0.2856	0.9054	-0.19
Mof_H 	H 	0.8525	0.3221	0.8995	0.049
Mof_N 	N 	0.9102	0.2717	0.9375	-0.258
Mof_C 	C 	0.6695	0.7435	0.0156	-0.732
Mof_H 	H 	0.6694	0.7	0.0192	0.225
Mof_H 	H 	0.7018	0.7553	0.0088	0.216
Mof_H 	H 	0.6697	0.7634	0.0404	0.215
Mof_C 	C 	0.6191	0.762	0.9823	0.273
Mof_C 	C 	0.6015	0.7505	0.9424	-0.187
Mof_C 	C 	0.5497	0.7736	0.9286	0.234
Mof_C 	C 	0.5117	0.7728	0.8853	-0.715
Mof_H 	H 	0.5106	0.8127	0.8736	0.205
Mof_H 	H 	0.5251	0.7438	0.8698	0.22
Mof_H 	H 	0.4751	0.7613	0.885	0.204
Mof_C 	C 	0.6931	0.8027	0.8998	-0.619
Mof_H 	H 	0.6666	0.8344	0.8989	0.183
Mof_H 	H 	0.7245	0.8078	0.9235	0.186
Mof_H 	H 	0.7047	0.8051	0.876	0.173
Mof_C 	C 	0.6665	0.7401	0.9013	0.193
Mof_C 	C 	0.63	0.7184	0.9181	-0.144
Mof_C 	C 	0.6225	0.6564	0.9074	0.242
Mof_C 	C 	0.5898	0.61	0.9222	-0.754
Mof_H 	H 	0.6091	0.6	0.95	0.23
Mof_H 	H 	0.5542	0.6267	0.9203	0.225
Mof_H 	H 	0.5853	0.5738	0.9059	0.246
Mof_C 	C 	0.7464	0.8941	0.0379	-0.793
Mof_H 	H 	0.7706	0.8622	0.0523	0.237
Mof_H 	H 	0.7152	0.8971	0.0478	0.215
Mof_H 	H 	0.7339	0.8848	0.0094	0.246
Mof_C 	C 	0.7765	0.9527	0.0445	0.277
Mof_C 	C 	0.781	0.99	0.0133	-0.182
Mof_C 	C 	0.8111	0.0423	0.0318	0.272
Mof_C 	C 	0.8267	0.097	0.0141	-0.759
Mof_H 	H 	0.7952	0.1235	0.0045	0.217
Mof_H 	H 	0.8556	0.118	0.0343	0.219
Mof_H 	H 	0.8395	0.0858	0.9918	0.229
Mof_C 	C 	0.8505	0.96	0.952	-0.749
Mof_H 	H 	0.8645	0.9996	0.9483	0.232
Mof_H 	H 	0.8663	0.9476	0.9798	0.227
Mof_H 	H 	0.8604	0.9309	0.9347	0.243
Mof_C 	C 	0.788	0.9628	0.9414	0.254
Mof_C 	C 	0.7589	0.9769	0.9681	-0.162
Mof_C 	C 	0.7053	0.9733	0.9448	0.224
Mof_C 	C 	0.6536	0.9801	0.9579	-0.628
Mof_H 	H 	0.6214	0.9792	0.9343	0.177
Mof_H 	H 	0.6519	0.947	0.9756	0.176
Mof_H 	H 	0.655	0.0182	0.9718	0.174
Mof_C 	C 	0.7646	0.1123	0.8972	-0.813
Mof_H 	H 	0.7469	0.0772	0.9044	0.258
Mof_H 	H 	0.7775	0.1389	0.9202	0.249
Mof_H 	H 	0.7386	0.1337	0.8753	0.275
Mof_C 	C 	0.8136	0.0914	0.8838	0.304
Mof_C 	C 	0.8614	0.1252	0.8874	-0.284
Mof_C 	C 	0.8921	0.0908	0.871	0.419
Mof_C 	C 	0.9456	0.099	0.867	-1.027
Mof_H 	H 	0.9423	0.107	0.8391	0.313
Mof_H 	H 	0.9635	0.133	0.8834	0.31
Mof_H 	H 	0.9671	0.0627	0.8759	0.328
Mof_C 	C 	0.9594	0.1759	0.9644	-0.696
Mof_H 	H 	0.9942	0.1832	0.9599	0.215
Mof_H 	H 	0.9615	0.1887	0.9913	0.225
Mof_H 	H 	0.9509	0.133	0.9614	0.209
Mof_C 	C 	0.9141	0.212	0.9335	0.201
Mof_C 	C 	0.872	0.1891	0.9014	-0.071
Mof_C 	C 	0.8424	0.2374	0.8847	0.107
Mof_C 	C 	0.7804	0.244	0.8598	-0.151
Mof_H 	H 	0.7589	0.2501	0.8778	0.044
Mof_H 	H 	0.7678	0.2072	0.8442	0.05
Mof_H 	H 	0.7761	0.278	0.8418	0.027
Mof_Na	Na	0.5635	0.2014	0.7776	-3.862
Mof_O 	O 	0.5381	0.202	0.7682	2.176
Mof_C 	C 	0.7962	0.239	0.8432	-0.156
Mof_H 	H 	0.8122	0.2332	0.8219	0.031
Mof_H 	H 	0.778	0.2783	0.8399	0.039
Mof_H 	H 	0.7697	0.2075	0.8422	0.043
Mof_W 	W 	0.08359	0.42949	0.73449	1.019
Mof_W 	W 	0.95714	0.43874	0.66994	1.018
Mof_W 	W 	0.99552	0.5435	0.59606	0.997
Mof_W 	W 	0.12298	0.5334	0.66053	0.97
Mof_W 	W 	0.13352	0.55532	0.80575	1.373
Mof_W 	W 	0.1004	0.65263	0.88335	1.089
Mof_W 	W 	0.17049	0.66068	0.73407	1.082
Mof_W 	W 	0.13762	0.694	0.62597	1.023
Mof_W 	W 	0.00513	0.71021	0.57251	1.352
Mof_W 	W 	0.12292	0.85966	0.65372	1.299
Mof_W 	W 	0.15463	0.8222	0.7634	1.083
Mof_W 	W 	0.11238	0.8163	0.85722	1.078
Mof_W 	W 	0.0089	0.87637	0.90046	1.011
Mof_W 	W 	0.04755	0.96783	0.8227	1.278
Mof_W 	W 	0.08685	0.9676	0.72632	0.997
Mof_Ni	Ni	0.26322	0.46739	0.848	1.049
Mof_Ni	Ni	0.96395	0.66069	0.4654	0.994
Mof_Ni	Ni	0.17072	0.05898	0.86236	0.985
Mof_P 	P 	0.0233	0.8309	0.69907	0.445
Mof_P 	P 	0.038	0.6526	0.66871	0.44
Mof_O 	O 	0.0209	0.9401	0.8696	-0.467
Mof_O 	O 	0.091	0.0239	0.8518	-0.573
Mof_O 	O 	0.9773	0.0115	0.8044	-0.467
Mof_O 	O 	0.0594	0.9807	0.7748	-0.484
Mof_O 	O 	0.1032	0.9377	0.6836	-0.47
Mof_O 	O 	0.1288	0.904	0.7609	-0.471
Mof_O 	O 	0.0174	0.8989	0.7114	-0.334
Mof_O 	O 	0.0951	0.901	0.8363	-0.481
Mof_O 	O 	0.0695	0.8332	0.8917	-0.467
Mof_O 	O 	0.9682	0.7985	0.6889	-0.1
Mof_O 	O 	0.138	0.8075	0.8102	-0.318
Mof_O 	O 	0.0672	0.8002	0.7345	-0.087
Mof_O 	O 	0.1531	0.8325	0.7073	-0.491
Mof_O 	O 	0.0433	0.8326	0.6601	-0.346
Mof_O 	O 	0.1784	0.9005	0.6461	-0.574
Mof_O 	O 	0.0668	0.8921	0.6077	-0.483
Mof_O 	O 	0.005	0.7919	0.5798	-0.479
Mof_O 	O 	0.1291	0.7865	0.6318	-0.47
Mof_O 	O 	0.1623	0.7346	0.7561	-0.302
Mof_O 	O 	0.1132	0.7318	0.8646	-0.313
Mof_O 	O 	0.0572	0.6952	0.9127	-0.501
Mof_O 	O 	0.0653	0.5784	0.8942	-0.462
Mof_O 	O 	0.1223	0.613	0.8431	-0.343
Mof_O 	O 	0.9783	0.6625	0.667	-0.08
Mof_O 	O 	0.1525	0.6174	0.7764	-0.325
Mof_O 	O 	0.0784	0.6656	0.7104	-0.064
Mof_O 	O 	0.1663	0.6975	0.6828	-0.473
Mof_O 	O 	0.0517	0.6954	0.637	-0.34
Mof_O 	O 	0.0821	0.7045	0.5758	-0.489
Mof_O 	O 	0.9804	0.7047	0.5213	-0.588
Mof_O 	O 	0.0101	0.6154	0.5758	-0.485
Mof_O 	O 	0.1329	0.6129	0.6281	-0.471
Mof_O 	O 	0.0444	0.5847	0.6563	-0.312
Mof_O 	O 	0.1571	0.5827	0.7051	-0.47
Mof_O 	O 	0.05	0.5807	0.7713	-0.125
Mof_O 	O 	0.2001	0.5299	0.8329	-0.574
Mof_O 	O 	0.0967	0.4963	0.832	-0.473
Mof_O 	O 	0.1246	0.4955	0.7638	-0.495
Mof_O 	O 	0.0135	0.4987	0.7194	-0.329
Mof_O 	O 	0.1011	0.474	0.6877	-0.45
Mof_O 	O 	0.0691	0.5108	0.6086	-0.474
Mof_O 	O 	0.9828	0.4762	0.6329	-0.452
Mof_O 	O 	0.0241	0.3931	0.6942	-0.473
Mof_O 	O 	0.062	0.4108	0.7774	-0.456
Mof_N 	N 	0.0782	0.2902	0.9908	-0.229
Mof_H 	H 	0.0797	0.3013	0.015	0.116
Mof_N 	N 	0.0339	0.3	0.9581	-0.26
Mof_N 	N 	0.1535	0.1404	0.8838	-0.27
Mof_N 	N 	0.1802	0.1937	0.8802	-0.205
Mof_H 	H 	0.2028	0.1973	0.8664	0.048
Mof_N 	N 	0.3237	0.5308	0.0707	-0.229
Mof_H 	H 	0.3439	0.5548	0.0891	0.083
Mof_N 	N 	0.3016	0.4764	0.0797	-0.278
Mof_N 	N 	0.2055	0.4616	0.909	-0.218
Mof_H 	H 	0.1757	0.458	0.8888	0.09
Mof_N 	N 	0.2551	0.4554	0.9054	-0.246
Mof_N 	N 	0.3668	0.5376	0.8617	-0.268
Mof_H 	H 	0.3801	0.5066	0.8526	0.129
Mof_N 	N 	0.317	0.5381	0.8685	-0.255
Mof_N 	N 	0.3649	0.7856	0.9054	-0.19
Mof_H 	H 	0.3525	0.8221	0.8995	0.049
Mof_N 	N 	0.4102	0.7717	0.9375	-0.258
Mof_C 	C 	0.1695	0.2435	0.0156	-0.734
Mof_H 	H 	0.1694	0.2	0.0192	0.226
Mof_H 	H 	0.2018	0.2553	0.0088	0.216
Mof_H 	H 	0.1697	0.2634	0.0404	0.215
Mof_C 	C 	0.1191	0.262	0.9823	0.275
Mof_C 	C 	0.1015	0.2505	0.9424	-0.191
Mof_C 	C 	0.0497	0.2736	0.9286	0.24
Mof_C 	C 	0.0117	0.2728	0.8853	-0.739
Mof_H 	H 	0.0106	0.3127	0.8736	0.21
Mof_H 	H 	0.0251	0.2438	0.8698	0.226
Mof_H 	H 	0.9751	0.2613	0.885	0.214
Mof_C 	C 	0.1931	0.3027	0.8998	-0.618
Mof_H 	H 	0.1666	0.3344	0.8989	0.183
Mof_H 	H 	0.2245	0.3078	0.9235	0.185
Mof_H 	H 	0.2047	0.3051	0.876	0.173
Mof_C 	C 	0.1665	0.2401	0.9013	0.191
Mof_C 	C 	0.13	0.2184	0.9181	-0.142
Mof_C 	C 	0.1225	0.1564	0.9074	0.239
Mof_C 	C 	0.0898	0.11	0.9222	-0.749
Mof_H 	H 	0.1091	0.1	0.95	0.228
Mof_H 	H 	0.0542	0.1267	0.9203	0.221
Mof_H 	H 	0.0853	0.0738	0.9059	0.244
Mof_C 	C 	0.2464	0.3941	0.0379	-0.793
Mof_H 	H 	0.2706	0.3622	0.0523	0.237
Mof_H 	H 	0.2152	0.3971	0.0478	0.214
Mof_H 	H 	0.2339	0.3848	0.0094	0.245
Mof_C 	C 	0.2765	0.4527	0.0445	0.278
Mof_C 	C 	0.281	0.49	0.0133	-0.183
Mof_C 	C 	0.3111	0.5423	0.0318	0.272
Mof_C 	C 	0.3267	0.597	0.0141	-0.761
Mof_H 	H 	0.2952	0.6235	0.0045	0.218
Mof_H 	H 	0.3556	0.618	0.0343	0.219
Mof_H 	H 	0.3395	0.5858	0.9918	0.23
Mof_C 	C 	0.3505	0.46	0.952	-0.747
Mof_H 	H 	0.3645	0.4996	0.9483	0.231
Mof_H 	H 	0.3663	0.4476	0.9798	0.226
Mof_H 	H 	0.3604	0.4309	0.9347	0.242
Mof_C 	C 	0.288	0.4628	0.9414	0.253
Mof_C 	C 	0.2589	0.4769	0.9681	-0.162
Mof_C 	C 	0.2053	0.4733	0.9448	0.224
Mof_C 	C 	0.1536	0.4801	0.9579	-0.629
Mof_H 	H 	0.1214	0.4792	0.9343	0.177
Mof_H 	H 	0.1519	0.447	0.9756	0.176
Mof_H 	H 	0.155	0.5182	0.9718	0.174
Mof_C 	C 	0.2646	0.6123	0.8972	-0.813
Mof_H 	H 	0.2469	0.5772	0.9044	0.258
Mof_H 	H 	0.2775	0.6389	0.9202	0.248
Mof_H 	H 	0.2386	0.6337	0.8753	0.275
Mof_C 	C 	0.3136	0.5914	0.8838	0.304
Mof_C 	C 	0.3614	0.6252	0.8874	-0.283
Mof_C 	C 	0.3921	0.5908	0.871	0.416
Mof_C 	C 	0.4456	0.599	0.867	-1.02
Mof_H 	H 	0.4423	0.607	0.8391	0.31
Mof_H 	H 	0.4635	0.633	0.8834	0.307
Mof_H 	H 	0.4671	0.5627	0.8759	0.325
Mof_C 	C 	0.4594	0.6759	0.9644	-0.691
Mof_H 	H 	0.4942	0.6832	0.9599	0.212
Mof_H 	H 	0.4615	0.6887	0.9913	0.223
Mof_H 	H 	0.4509	0.633	0.9614	0.207
Mof_C 	C 	0.4141	0.712	0.9335	0.2
Mof_C 	C 	0.372	0.6891	0.9014	-0.071
Mof_C 	C 	0.3424	0.7374	0.8847	0.107
Mof_C 	C 	0.2804	0.744	0.8598	-0.151
Mof_H 	H 	0.2589	0.7501	0.8778	0.044
Mof_H 	H 	0.2678	0.7072	0.8442	0.05
Mof_H 	H 	0.2761	0.778	0.8418	0.027
Mof_Na	Na	0.0635	0.7014	0.7776	-3.862
Mof_O 	O 	0.0381	0.702	0.7682	2.173
Mof_C 	C 	0.2962	0.739	0.8432	-0.156
Mof_H 	H 	0.3122	0.7332	0.8219	0.031
Mof_H 	H 	0.278	0.7783	0.8399	0.039
Mof_H 	H 	0.2697	0.7075	0.8422	0.043
Mof_W 	W 	0.41641	0.92949	0.76551	1.02
Mof_W 	W 	0.54286	0.93874	0.83006	1.012
Mof_W 	W 	0.50448	0.0435	0.90394	0.986
Mof_W 	W 	0.37702	0.0334	0.83947	0.97
Mof_W 	W 	0.36648	0.05532	0.69425	1.373
Mof_W 	W 	0.3996	0.15263	0.61665	1.09
Mof_W 	W 	0.32951	0.16068	0.76593	1.082
Mof_W 	W 	0.36238	0.194	0.87403	1.023
Mof_W 	W 	0.49487	0.21021	0.92749	1.361
Mof_W 	W 	0.37708	0.35966	0.84628	1.299
Mof_W 	W 	0.34537	0.3222	0.7366	1.083
Mof_W 	W 	0.38762	0.3163	0.64278	1.078
Mof_W 	W 	0.4911	0.37637	0.59954	1.019
Mof_W 	W 	0.45245	0.46783	0.6773	1.284
Mof_W 	W 	0.41315	0.4676	0.77368	0.997
Mof_Ni	Ni	0.23678	0.96739	0.652	1.049
Mof_Ni	Ni	0.53605	0.16069	0.0346	0.993
Mof_Ni	Ni	0.32928	0.55898	0.63764	0.985
Mof_P 	P 	0.4767	0.3309	0.80093	0.448
Mof_P 	P 	0.462	0.1526	0.83129	0.444
Mof_O 	O 	0.4791	0.4401	0.6304	-0.466
Mof_O 	O 	0.409	0.5239	0.6482	-0.574
Mof_O 	O 	0.5227	0.5115	0.6956	-0.47
Mof_O 	O 	0.4406	0.4807	0.7252	-0.484
Mof_O 	O 	0.3968	0.4377	0.8164	-0.469
Mof_O 	O 	0.3712	0.404	0.7391	-0.471
Mof_O 	O 	0.4826	0.3989	0.7886	-0.332
Mof_O 	O 	0.4049	0.401	0.6637	-0.481
Mof_O 	O 	0.4305	0.3332	0.6083	-0.467
Mof_O 	O 	0.5318	0.2985	0.8111	-0.103
Mof_O 	O 	0.362	0.3075	0.6898	-0.318
Mof_O 	O 	0.4328	0.3002	0.7655	-0.087
Mof_O 	O 	0.3469	0.3325	0.7927	-0.491
Mof_O 	O 	0.4567	0.3326	0.8399	-0.344
Mof_O 	O 	0.3216	0.4005	0.8539	-0.574
Mof_O 	O 	0.4332	0.3921	0.8923	-0.48
Mof_O 	O 	0.495	0.2919	0.9202	-0.476
Mof_O 	O 	0.3709	0.2865	0.8682	-0.47
Mof_O 	O 	0.3377	0.2346	0.7439	-0.302
Mof_O 	O 	0.3868	0.2318	0.6354	-0.313
Mof_O 	O 	0.4428	0.1952	0.5873	-0.498
Mof_O 	O 	0.4347	0.0784	0.6058	-0.462
Mof_O 	O 	0.3777	0.113	0.6569	-0.343
Mof_O 	O 	0.5217	0.1625	0.833	-0.084
Mof_O 	O 	0.3475	0.1174	0.7236	-0.325
Mof_O 	O 	0.4216	0.1656	0.7896	-0.064
Mof_O 	O 	0.3337	0.1975	0.8172	-0.473
Mof_O 	O 	0.4483	0.1954	0.863	-0.341
Mof_O 	O 	0.4179	0.2045	0.9242	-0.489
Mof_O 	O 	0.5196	0.2047	0.9787	-0.594
Mof_O 	O 	0.4899	0.1154	0.9242	-0.481
Mof_O 	O 	0.3671	0.1129	0.8719	-0.471
Mof_O 	O 	0.4556	0.0847	0.8437	-0.31
Mof_O 	O 	0.3429	0.0827	0.7949	-0.47
Mof_O 	O 	0.45	0.0807	0.7287	-0.125
Mof_O 	O 	0.2999	0.0299	0.6671	-0.574
Mof_O 	O 	0.4033	0.9963	0.668	-0.474
Mof_O 	O 	0.3754	0.9955	0.7362	-0.495
Mof_O 	O 	0.4865	0.9987	0.7806	-0.328
Mof_O 	O 	0.3989	0.974	0.8123	-0.449
Mof_O 	O 	0.4309	0.0108	0.8914	-0.471
Mof_O 	O 	0.5172	0.9762	0.8671	-0.452
Mof_O 	O 	0.4759	0.8931	0.8058	-0.469
Mof_O 	O 	0.438	0.9108	0.7226	-0.455
Mof_N 	N 	0.4218	0.7902	0.5092	-0.228
Mof_H 	H 	0.4203	0.8013	0.485	0.117
Mof_N 	N 	0.4661	0.8	0.5419	-0.257
Mof_N 	N 	0.3465	0.6404	0.6162	-0.27
Mof_N 	N 	0.3198	0.6937	0.6198	-0.206
Mof_H 	H 	0.2972	0.6973	0.6336	0.048
Mof_N 	N 	0.1763	0.0308	0.4293	-0.229
Mof_H 	H 	0.1561	0.0548	0.4109	0.083
Mof_N 	N 	0.1984	0.9764	0.4203	-0.278
Mof_N 	N 	0.2945	0.9616	0.591	-0.218
Mof_H 	H 	0.3243	0.958	0.6112	0.09
Mof_N 	N 	0.2449	0.9554	0.5946	-0.245
Mof_N 	N 	0.1332	0.0376	0.6383	-0.267
Mof_H 	H 	0.1199	0.0066	0.6474	0.129
Mof_N 	N 	0.183	0.0381	0.6315	-0.255
Mof_N 	N 	0.1351	0.2856	0.5946	-0.19
Mof_H 	H 	0.1475	0.3221	0.6005	0.049
Mof_N 	N 	0.0898	0.2717	0.5625	-0.258
Mof_C 	C 	0.3305	0.7435	0.4844	-0.732
Mof_H 	H 	0.3306	0.7	0.4808	0.225
Mof_H 	H 	0.2982	0.7553	0.4912	0.216
Mof_H 	H 	0.3303	0.7634	0.4596	0.215
Mof_C 	C 	0.3809	0.762	0.5177	0.274
Mof_C 	C 	0.3985	0.7505	0.5576	-0.187
Mof_C 	C 	0.4503	0.7736	0.5714	0.234
Mof_C 	C 	0.4883	0.7728	0.6147	-0.715
Mof_H 	H 	0.4894	0.8127	0.6264	0.205
Mof_H 	H 	0.4749	0.7438	0.6302	0.22
Mof_H 	H 	0.5249	0.7613	0.615	0.204
Mof_C 	C 	0.3069	0.8027	0.6002	-0.619
Mof_H 	H 	0.3334	0.8344	0.6011	0.183
Mof_H 	H 	0.2755	0.8078	0.5765	0.186
Mof_H 	H 	0.2953	0.8051	0.624	0.173
Mof_C 	C 	0.3335	0.7401	0.5987	0.193
Mof_C 	C 	0.37	0.7184	0.5819	-0.144
Mof_C 	C 	0.3775	0.6564	0.5926	0.242
Mof_C 	C 	0.4102	0.61	0.5778	-0.754
Mof_H 	H 	0.3909	0.6	0.55	0.23
Mof_H 	H 	0.4458	0.6267	0.5797	0.225
Mof_H 	H 	0.4147	0.5738	0.5941	0.246
Mof_C 	C 	0.2536	0.8941	0.4621	-0.793
Mof_H 	H 	0.2294	0.8622	0.4477	0.238
Mof_H 	H 	0.2848	0.8971	0.4522	0.215
Mof_H 	H 	0.2661	0.8848	0.4906	0.246
Mof_C 	C 	0.2235	0.9527	0.4555	0.278
Mof_C 	C 	0.219	0.99	0.4867	-0.182
Mof_C 	C 	0.1889	0.0423	0.4682	0.272
Mof_C 	C 	0.1733	0.097	0.4859	-0.761
Mof_H 	H 	0.2048	0.1235	0.4955	0.218
Mof_H 	H 	0.1444	0.118	0.4657	0.219
Mof_H 	H 	0.1605	0.0858	0.5082	0.23
Mof_C 	C 	0.1495	0.96	0.548	-0.746
Mof_H 	H 	0.1355	0.9996	0.5517	0.231
Mof_H 	H 	0.1337	0.9476	0.5202	0.225
Mof_H 	H 	0.1396	0.9309	0.5653	0.242
Mof_C 	C 	0.212	0.9628	0.5586	0.253
Mof_C 	C 	0.2411	0.9769	0.5319	-0.162
Mof_C 	C 	0.2947	0.9733	0.5552	0.224
Mof_C 	C 	0.3464	0.9801	0.5421	-0.629
Mof_H 	H 	0.3786	0.9792	0.5657	0.177
Mof_H 	H 	0.3481	0.947	0.5244	0.176
Mof_H 	H 	0.345	0.0182	0.5282	0.174
Mof_C 	C 	0.2354	0.1123	0.6028	-0.812
Mof_H 	H 	0.2531	0.0772	0.5956	0.258
Mof_H 	H 	0.2225	0.1389	0.5798	0.248
Mof_H 	H 	0.2614	0.1337	0.6247	0.275
Mof_C 	C 	0.1864	0.0914	0.6162	0.304
Mof_C 	C 	0.1386	0.1252	0.6126	-0.282
Mof_C 	C 	0.1079	0.0908	0.629	0.414
Mof_C 	C 	0.0544	0.099	0.633	-1.013
Mof_H 	H 	0.0577	0.107	0.6609	0.307
Mof_H 	H 	0.0365	0.133	0.6166	0.303
Mof_H 	H 	0.0329	0.0627	0.6241	0.321
Mof_C 	C 	0.0406	0.1759	0.5356	-0.686
Mof_H 	H 	0.0058	0.1832	0.5401	0.208
Mof_H 	H 	0.0385	0.1887	0.5087	0.22
Mof_H 	H 	0.0491	0.133	0.5386	0.205
Mof_C 	C 	0.0859	0.212	0.5665	0.198
Mof_C 	C 	0.128	0.1891	0.5986	-0.071
Mof_C 	C 	0.1576	0.2374	0.6153	0.107
Mof_C 	C 	0.2196	0.244	0.6402	-0.15
Mof_H 	H 	0.2411	0.2501	0.6222	0.044
Mof_H 	H 	0.2322	0.2072	0.6558	0.05
Mof_H 	H 	0.2239	0.278	0.6582	0.027
Mof_Na	Na	0.4365	0.2014	0.7224	-3.862
Mof_O 	O 	0.4619	0.202	0.7318	2.176
Mof_C 	C 	0.2038	0.239	0.6568	-0.156
Mof_H 	H 	0.1878	0.2332	0.6781	0.031
Mof_H 	H 	0.222	0.2783	0.6601	0.039
Mof_H 	H 	0.2303	0.2075	0.6578	0.043
Mof_W 	W 	0.91641	0.42949	0.76551	1.02
Mof_W 	W 	0.04286	0.43874	0.83006	1.006
Mof_W 	W 	0.00448	0.5435	0.90394	0.977
Mof_W 	W 	0.87702	0.5334	0.83947	0.97
Mof_W 	W 	0.86648	0.55532	0.69425	1.373
Mof_W 	W 	0.8996	0.65263	0.61665	1.09
Mof_W 	W 	0.82951	0.66068	0.76593	1.082
Mof_W 	W 	0.86238	0.694	0.87403	1.023
Mof_W 	W 	0.99487	0.71021	0.92749	1.37
Mof_W 	W 	0.87708	0.85966	0.84628	1.298
Mof_W 	W 	0.84537	0.8222	0.7366	1.083
Mof_W 	W 	0.88762	0.8163	0.64278	1.078
Mof_W 	W 	0.9911	0.87637	0.59954	1.029
Mof_W 	W 	0.95245	0.96783	0.6773	1.29
Mof_W 	W 	0.91315	0.9676	0.77368	0.998
Mof_Ni	Ni	0.73678	0.46739	0.652	1.049
Mof_Ni	Ni	0.03605	0.66069	0.0346	0.991
Mof_Ni	Ni	0.82928	0.05898	0.63764	0.985
Mof_P 	P 	0.9767	0.8309	0.80093	0.452
Mof_P 	P 	0.962	0.6526	0.83129	0.448
Mof_O 	O 	0.9791	0.9401	0.6304	-0.465
Mof_O 	O 	0.909	0.0239	0.6482	-0.574
Mof_O 	O 	0.0227	0.0115	0.6956	-0.473
Mof_O 	O 	0.9406	0.9807	0.7252	-0.483
Mof_O 	O 	0.8968	0.9377	0.8164	-0.469
Mof_O 	O 	0.8712	0.904	0.7391	-0.471
Mof_O 	O 	0.9826	0.8989	0.7886	-0.329
Mof_O 	O 	0.9049	0.901	0.6637	-0.482
Mof_O 	O 	0.9305	0.8332	0.6083	-0.468
Mof_O 	O 	0.0318	0.7985	0.8111	-0.106
Mof_O 	O 	0.862	0.8075	0.6898	-0.318
Mof_O 	O 	0.9328	0.8002	0.7655	-0.087
Mof_O 	O 	0.8469	0.8325	0.7927	-0.491
Mof_O 	O 	0.9567	0.8326	0.8399	-0.342
Mof_O 	O 	0.8216	0.9005	0.8539	-0.574
Mof_O 	O 	0.9332	0.8921	0.8923	-0.477
Mof_O 	O 	0.995	0.7919	0.9202	-0.473
Mof_O 	O 	0.8709	0.7865	0.8682	-0.47
Mof_O 	O 	0.8377	0.7346	0.7439	-0.302
Mof_O 	O 	0.8868	0.7318	0.6354	-0.313
Mof_O 	O 	0.9428	0.6952	0.5873	-0.494
Mof_O 	O 	0.9347	0.5784	0.6058	-0.463
Mof_O 	O 	0.8777	0.613	0.6569	-0.343
Mof_O 	O 	0.0217	0.6625	0.833	-0.088
Mof_O 	O 	0.8475	0.6174	0.7236	-0.325
Mof_O 	O 	0.9216	0.6656	0.7896	-0.064
Mof_O 	O 	0.8337	0.6975	0.8172	-0.474
Mof_O 	O 	0.9483	0.6954	0.863	-0.341
Mof_O 	O 	0.9179	0.7045	0.9242	-0.49
Mof_O 	O 	0.0196	0.7047	0.9787	-0.598
Mof_O 	O 	0.9899	0.6154	0.9242	-0.477
Mof_O 	O 	0.8671	0.6129	0.8719	-0.471
Mof_O 	O 	0.9556	0.5847	0.8437	-0.308
Mof_O 	O 	0.8429	0.5827	0.7949	-0.47
Mof_O 	O 	0.95	0.5807	0.7287	-0.121
Mof_O 	O 	0.7999	0.5299	0.6671	-0.574
Mof_O 	O 	0.9033	0.4963	0.668	-0.474
Mof_O 	O 	0.8754	0.4955	0.7362	-0.495
Mof_O 	O 	0.9865	0.4987	0.7806	-0.322
Mof_O 	O 	0.8989	0.474	0.8123	-0.449
Mof_O 	O 	0.9309	0.5108	0.8914	-0.468
Mof_O 	O 	0.0172	0.4762	0.8671	-0.453
Mof_O 	O 	0.9759	0.3931	0.8058	-0.466
Mof_O 	O 	0.938	0.4108	0.7226	-0.454
Mof_N 	N 	0.9218	0.2902	0.5092	-0.228
Mof_H 	H 	0.9203	0.3013	0.485	0.117
Mof_N 	N 	0.9661	0.3	0.5419	-0.254
Mof_N 	N 	0.8465	0.1404	0.6162	-0.271
Mof_N 	N 	0.8198	0.1937	0.6198	-0.206
Mof_H 	H 	0.7972	0.1973	0.6336	0.048
Mof_N 	N 	0.6763	0.5308	0.4293	-0.229
Mof_H 	H 	0.6561	0.5548	0.4109	0.083
Mof_N 	N 	0.6984	0.4764	0.4203	-0.278
Mof_N 	N 	0.7945	0.4616	0.591	-0.218
Mof_H 	H 	0.8243	0.458	0.6112	0.089
Mof_N 	N 	0.7449	0.4554	0.5946	-0.246
Mof_N 	N 	0.6332	0.5376	0.6383	-0.268
Mof_H 	H 	0.6199	0.5066	0.6474	0.129
Mof_N 	N 	0.683	0.5381	0.6315	-0.255
Mof_N 	N 	0.6351	0.7856	0.5946	-0.19
Mof_H 	H 	0.6475	0.8221	0.6005	0.049
Mof_N 	N 	0.5898	0.7717	0.5625	-0.258
Mof_C 	C 	0.8305	0.2435	0.4844	-0.731
Mof_H 	H 	0.8306	0.2	0.4808	0.225
Mof_H 	H 	0.7982	0.2553	0.4912	0.215
Mof_H 	H 	0.8303	0.2634	0.4596	0.214
Mof_C 	C 	0.8809	0.262	0.5177	0.272
Mof_C 	C 	0.8985	0.2505	0.5576	-0.183
Mof_C 	C 	0.9503	0.2736	0.5714	0.228
Mof_C 	C 	0.9883	0.2728	0.6147	-0.689
Mof_H 	H 	0.9894	0.3127	0.6264	0.199
Mof_H 	H 	0.9749	0.2438	0.6302	0.214
Mof_H 	H 	0.0249	0.2613	0.615	0.193
Mof_C 	C 	0.8069	0.3027	0.6002	-0.62
Mof_H 	H 	0.8334	0.3344	0.6011	0.184
Mof_H 	H 	0.7755	0.3078	0.5765	0.186
Mof_H 	H 	0.7953	0.3051	0.624	0.174
Mof_C 	C 	0.8335	0.2401	0.5987	0.194
Mof_C 	C 	0.87	0.2184	0.5819	-0.146
Mof_C 	C 	0.8775	0.1564	0.5926	0.245
Mof_C 	C 	0.9102	0.11	0.5778	-0.76
Mof_H 	H 	0.8909	0.1	0.55	0.232
Mof_H 	H 	0.9458	0.1267	0.5797	0.228
Mof_H 	H 	0.9147	0.0738	0.5941	0.249
Mof_C 	C 	0.7536	0.3941	0.4621	-0.794
Mof_H 	H 	0.7294	0.3622	0.4477	0.238
Mof_H 	H 	0.7848	0.3971	0.4522	0.215
Mof_H 	H 	0.7661	0.3848	0.4906	0.246
Mof_C 	C 	0.7235	0.4527	0.4555	0.278
Mof_C 	C 	0.719	0.49	0.4867	-0.182
Mof_C 	C 	0.6889	0.5423	0.4682	0.272
Mof_C 	C 	0.6733	0.597	0.4859	-0.761
Mof_H 	H 	0.7048	0.6235	0.4955	0.218
Mof_H 	H 	0.6444	0.618	0.4657	0.219
Mof_H 	H 	0.6605	0.5858	0.5082	0.23
Mof_C 	C 	0.6495	0.46	0.548	-0.747
Mof_H 	H 	0.6355	0.4996	0.5517	0.231
Mof_H 	H 	0.6337	0.4476	0.5202	0.226
Mof_H 	H 	0.6396	0.4309	0.5653	0.242
Mof_C 	C 	0.712	0.4628	0.5586	0.253
Mof_C 	C 	0.7411	0.4769	0.5319	-0.162
Mof_C 	C 	0.7947	0.4733	0.5552	0.224
Mof_C 	C 	0.8464	0.4801	0.5421	-0.629
Mof_H 	H 	0.8786	0.4792	0.5657	0.177
Mof_H 	H 	0.8481	0.447	0.5244	0.177
Mof_H 	H 	0.845	0.5182	0.5282	0.174
Mof_C 	C 	0.7354	0.6123	0.6028	-0.813
Mof_H 	H 	0.7531	0.5772	0.5956	0.258
Mof_H 	H 	0.7225	0.6389	0.5798	0.248
Mof_H 	H 	0.7614	0.6337	0.6247	0.275
Mof_C 	C 	0.6864	0.5914	0.6162	0.304
Mof_C 	C 	0.6386	0.6252	0.6126	-0.283
Mof_C 	C 	0.6079	0.5908	0.629	0.416
Mof_C 	C 	0.5544	0.599	0.633	-1.02
Mof_H 	H 	0.5577	0.607	0.6609	0.31
Mof_H 	H 	0.5365	0.633	0.6166	0.307
Mof_H 	H 	0.5329	0.5627	0.6241	0.325
Mof_C 	C 	0.5406	0.6759	0.5356	-0.691
Mof_H 	H 	0.5058	0.6832	0.5401	0.212
Mof_H 	H 	0.5385	0.6887	0.5087	0.223
Mof_H 	H 	0.5491	0.633	0.5386	0.207
Mof_C 	C 	0.5859	0.712	0.5665	0.2
Mof_C 	C 	0.628	0.6891	0.5986	-0.071
Mof_C 	C 	0.6576	0.7374	0.6153	0.107
Mof_C 	C 	0.7196	0.744	0.6402	-0.151
Mof_H 	H 	0.7411	0.7501	0.6222	0.044
Mof_H 	H 	0.7322	0.7072	0.6558	0.05
Mof_H 	H 	0.7239	0.778	0.6582	0.027
Mof_Na	Na	0.9365	0.7014	0.7224	-3.862
Mof_O 	O 	0.9619	0.702	0.7318	2.178
Mof_C 	C 	0.7038	0.739	0.6568	-0.156
Mof_H 	H 	0.6878	0.7332	0.6781	0.031
Mof_H 	H 	0.722	0.7783	0.6601	0.039
Mof_H 	H 	0.7303	0.7075	0.6578	0.043
Mof_P 	P 	0.5	0.9597	0.25	0.483
Mof_P 	P 	1.67395e-33	0.4597	0.25	0.475
Mof_P 	P 	0.5	0.0403	0.75	0.483
Mof_P 	P 	-4.95908e-17	0.5403	0.75	0.476
_end
