data_functionalizedCrystal
_audit_creation_method	'EQeq! by Chris Wilmer'
_symmetry_space_group_name_H-M	'P1'
_symmetry_Int_Tables_number	1
_symmetry_cell_setting	triclinic
loop_
_symmetry_equiv_pos_as_xyz
  x,y,z
_cell_length_a	33.505
_cell_length_b	33.505
_cell_length_c	16.824
_cell_angle_alpha	90
_cell_angle_beta	90
_cell_angle_gamma	90
loop_
_atom_site_label
_atom_site_type_symbol
_atom_site_fract_x
_atom_site_fract_y
_atom_site_fract_z
_atom_site_charge
Mof_O 	O 	0.71759	0.7679	0.1035	-1.239
Mof_O 	O 	0.6987	0.8495	0.0778	-0.655
Mof_O 	O 	0.7578	0.8388	0.1475	-0.725
Mof_O 	O 	0.7069	0.1416	0.4203	-0.605
Mof_O 	O 	0.7667	0.1516	0.3498	-0.601
Mof_C 	C 	0.7256	0.8585	0.1295	0.463
Mof_C 	C 	0.72435	0.89954	0.1642	-0.101
Mof_C 	C 	0.75141	0.9105	0.2229	0.003
Mof_H 	H 	0.7707	0.8919	0.2411	0.026
Mof_C 	C 	0.75012	0.94874	0.255	-0.071
Mof_H 	H 	0.7686	0.9563	0.2951	0.05
Mof_C 	C 	0.72179	0.97592	0.2282	-0.029
Mof_C 	C 	0.6948	0.9649	0.1695	0.111
Mof_C 	C 	0.696	0.92669	0.1375	-0.083
Mof_H 	H 	0.6775	0.9192	0.0973	0.062
Mof_C 	C 	0.666	0.9953	0.1364	-0.464
Mof_H 	H 	0.6696	0.0207	0.1642	0.155
Mof_H 	H 	0.6386	0.9858	0.144	0.142
Mof_H 	H 	0.6712	0.999	0.0796	0.139
Mof_C 	C 	0.7348	0.1326	0.3684	0.427
Mof_C 	C 	0.72987	0.0926	0.3287	-0.054
Mof_C 	C 	0.75552	0.08019	0.2687	-0.024
Mof_H 	H 	0.7752	0.0979	0.2486	0.049
Mof_C 	C 	0.7523	0.04181	0.2379	-0.042
Mof_H 	H 	0.7699	0.0333	0.1968	0.037
Mof_C 	C 	0.7235	0.01586	0.2672	-0.052
Mof_C 	C 	0.6979	0.02827	0.3273	0.141
Mof_C 	C 	0.70105	0.06665	0.358	-0.112
Mof_H 	H 	0.6835	0.0751	0.3991	0.08
Mof_C 	C 	0.6665	0.0003	0.3595	-0.494
Mof_H 	H 	0.6684	0.9745	0.3323	0.166
Mof_H 	H 	0.6399	0.0118	0.3506	0.154
Mof_H 	H 	0.6707	0.9965	0.4166	0.158
Mof_H 	H 	0.5901	0.4628	0.0466	-0.069
Mof_O 	O 	0.28241	0.2321	0.1035	-1.238
Mof_O 	O 	0.3013	0.1505	0.0778	-0.654
Mof_O 	O 	0.2422	0.1612	0.1475	-0.724
Mof_O 	O 	0.2931	0.8584	0.4203	-0.604
Mof_O 	O 	0.2333	0.8484	0.3498	-0.6
Mof_C 	C 	0.2744	0.1415	0.1295	0.464
Mof_C 	C 	0.27565	0.10046	0.1642	-0.101
Mof_C 	C 	0.24859	0.0895	0.2229	0.003
Mof_H 	H 	0.2293	0.1081	0.2411	0.026
Mof_C 	C 	0.24988	0.05126	0.255	-0.071
Mof_H 	H 	0.2314	0.0437	0.2951	0.05
Mof_C 	C 	0.27821	0.02408	0.2282	-0.029
Mof_C 	C 	0.3052	0.0351	0.1695	0.111
Mof_C 	C 	0.304	0.07331	0.1375	-0.083
Mof_H 	H 	0.3225	0.0808	0.0973	0.062
Mof_C 	C 	0.334	0.0047	0.1364	-0.464
Mof_H 	H 	0.3304	0.9793	0.1642	0.155
Mof_H 	H 	0.3614	0.0142	0.144	0.142
Mof_H 	H 	0.3288	0.001	0.0796	0.139
Mof_C 	C 	0.2652	0.8674	0.3684	0.427
Mof_C 	C 	0.27013	0.9074	0.3287	-0.054
Mof_C 	C 	0.24448	0.91981	0.2687	-0.024
Mof_H 	H 	0.2248	0.9021	0.2486	0.049
Mof_C 	C 	0.2477	0.95819	0.2379	-0.042
Mof_H 	H 	0.2301	0.9667	0.1968	0.037
Mof_C 	C 	0.2765	0.98414	0.2672	-0.052
Mof_C 	C 	0.3021	0.97173	0.3273	0.141
Mof_C 	C 	0.29895	0.93335	0.358	-0.112
Mof_H 	H 	0.3165	0.9249	0.3991	0.08
Mof_C 	C 	0.3335	0.9997	0.3595	-0.494
Mof_H 	H 	0.3316	0.0255	0.3323	0.166
Mof_H 	H 	0.3601	0.9882	0.3506	0.154
Mof_H 	H 	0.3293	0.0035	0.4166	0.158
Mof_H 	H 	0.4099	0.5372	0.0466	-0.069
Mof_O 	O 	0.7321	0.21759	0.6035	-1.236
Mof_O 	O 	0.6505	0.1987	0.5778	-0.644
Mof_O 	O 	0.6612	0.2578	0.6475	-0.72
Mof_O 	O 	0.3584	0.2069	0.9203	-0.59
Mof_O 	O 	0.3484	0.2667	0.8498	-0.594
Mof_C 	C 	0.6415	0.2256	0.6295	0.463
Mof_C 	C 	0.60046	0.22435	0.6642	-0.093
Mof_C 	C 	0.5895	0.25141	0.7229	0.001
Mof_H 	H 	0.6081	0.2707	0.7411	0.031
Mof_C 	C 	0.55126	0.25012	0.755	-0.065
Mof_H 	H 	0.5437	0.2686	0.7951	0.053
Mof_C 	C 	0.52408	0.22179	0.7282	-0.031
Mof_C 	C 	0.5351	0.1948	0.6695	0.123
Mof_C 	C 	0.57331	0.196	0.6375	-0.089
Mof_H 	H 	0.5808	0.1775	0.5973	0.071
Mof_C 	C 	0.5047	0.166	0.6364	-0.486
Mof_H 	H 	0.4793	0.1696	0.6642	0.165
Mof_H 	H 	0.5142	0.1386	0.644	0.154
Mof_H 	H 	0.501	0.1712	0.5796	0.155
Mof_C 	C 	0.3674	0.2348	0.8684	0.427
Mof_C 	C 	0.4074	0.22987	0.8287	-0.046
Mof_C 	C 	0.41981	0.25552	0.7687	-0.025
Mof_H 	H 	0.4021	0.2752	0.7486	0.053
Mof_C 	C 	0.45819	0.2523	0.7379	-0.037
Mof_H 	H 	0.4667	0.2699	0.6968	0.041
Mof_C 	C 	0.48414	0.2235	0.7672	-0.054
Mof_C 	C 	0.47173	0.1979	0.8273	0.154
Mof_C 	C 	0.43335	0.20105	0.858	-0.117
Mof_H 	H 	0.4249	0.1835	0.8991	0.089
Mof_C 	C 	0.4997	0.1665	0.8595	-0.516
Mof_H 	H 	0.5255	0.1684	0.8323	0.176
Mof_H 	H 	0.4882	0.1399	0.8506	0.165
Mof_H 	H 	0.5035	0.1707	0.9166	0.174
Mof_H 	H 	0.0372	0.0901	0.5466	-0.054
Mof_O 	O 	0.2679	0.78241	0.6035	-1.236
Mof_O 	O 	0.3495	0.8013	0.5778	-0.644
Mof_O 	O 	0.3388	0.7422	0.6475	-0.72
Mof_O 	O 	0.6416	0.7931	0.9203	-0.59
Mof_O 	O 	0.6516	0.7333	0.8498	-0.594
Mof_C 	C 	0.3585	0.7744	0.6295	0.463
Mof_C 	C 	0.39954	0.77565	0.6642	-0.093
Mof_C 	C 	0.4105	0.74859	0.7229	0.001
Mof_H 	H 	0.3919	0.7293	0.7411	0.031
Mof_C 	C 	0.44874	0.74988	0.755	-0.065
Mof_H 	H 	0.4563	0.7314	0.7951	0.053
Mof_C 	C 	0.47592	0.77821	0.7282	-0.031
Mof_C 	C 	0.4649	0.8052	0.6695	0.123
Mof_C 	C 	0.42669	0.804	0.6375	-0.089
Mof_H 	H 	0.4192	0.8225	0.5973	0.071
Mof_C 	C 	0.4953	0.834	0.6364	-0.486
Mof_H 	H 	0.5207	0.8304	0.6642	0.165
Mof_H 	H 	0.4858	0.8614	0.644	0.154
Mof_H 	H 	0.499	0.8288	0.5796	0.155
Mof_C 	C 	0.6326	0.7652	0.8684	0.427
Mof_C 	C 	0.5926	0.77013	0.8287	-0.046
Mof_C 	C 	0.58019	0.74448	0.7687	-0.025
Mof_H 	H 	0.5979	0.7248	0.7486	0.053
Mof_C 	C 	0.54181	0.7477	0.7379	-0.037
Mof_H 	H 	0.5333	0.7301	0.6968	0.041
Mof_C 	C 	0.51586	0.7765	0.7672	-0.054
Mof_C 	C 	0.52827	0.8021	0.8273	0.154
Mof_C 	C 	0.56665	0.79895	0.858	-0.117
Mof_H 	H 	0.5751	0.8165	0.8991	0.089
Mof_C 	C 	0.5003	0.8335	0.8595	-0.516
Mof_H 	H 	0.4745	0.8316	0.8323	0.176
Mof_H 	H 	0.5118	0.8601	0.8506	0.165
Mof_H 	H 	0.4965	0.8293	0.9166	0.174
Mof_H 	H 	0.9628	0.9099	0.5466	-0.054
Mof_O 	O 	0.78241	0.2679	0.3965	-1.237
Mof_O 	O 	0.8013	0.3495	0.4222	-0.644
Mof_O 	O 	0.7422	0.3388	0.3525	-0.721
Mof_O 	O 	0.7931	0.6416	0.0797	-0.613
Mof_O 	O 	0.7333	0.6516	0.1502	-0.601
Mof_C 	C 	0.7744	0.3585	0.3705	0.461
Mof_C 	C 	0.77565	0.39954	0.3358	-0.092
Mof_C 	C 	0.74859	0.4105	0.2771	-0.004
Mof_H 	H 	0.7293	0.3919	0.2589	0.028
Mof_C 	C 	0.74988	0.44874	0.245	-0.063
Mof_H 	H 	0.7314	0.4563	0.2049	0.045
Mof_C 	C 	0.77821	0.47592	0.2718	-0.038
Mof_C 	C 	0.8052	0.4649	0.3305	0.126
Mof_C 	C 	0.804	0.42669	0.3625	-0.092
Mof_H 	H 	0.8225	0.4192	0.4027	0.071
Mof_C 	C 	0.834	0.4953	0.3636	-0.487
Mof_H 	H 	0.8304	0.5207	0.3358	0.165
Mof_H 	H 	0.8614	0.4858	0.356	0.153
Mof_H 	H 	0.8288	0.499	0.4204	0.155
Mof_C 	C 	0.7652	0.6326	0.1316	0.429
Mof_C 	C 	0.77013	0.5926	0.1713	-0.061
Mof_C 	C 	0.74448	0.58019	0.2313	-0.017
Mof_H 	H 	0.7248	0.5979	0.2514	0.049
Mof_C 	C 	0.7477	0.54181	0.2621	-0.049
Mof_H 	H 	0.7301	0.5333	0.3032	0.043
Mof_C 	C 	0.7765	0.51586	0.2328	-0.043
Mof_C 	C 	0.8021	0.52827	0.1727	0.127
Mof_C 	C 	0.79895	0.56665	0.142	-0.103
Mof_H 	H 	0.8165	0.5751	0.1009	0.072
Mof_C 	C 	0.8335	0.5003	0.1405	-0.472
Mof_H 	H 	0.8316	0.4745	0.1677	0.157
Mof_H 	H 	0.8601	0.5118	0.1494	0.144
Mof_H 	H 	0.8293	0.4965	0.0834	0.143
Mof_H 	H 	0.9099	0.9628	0.4534	-0.056
Mof_O 	O 	0.21759	0.7321	0.3965	-1.237
Mof_O 	O 	0.1987	0.6505	0.4222	-0.644
Mof_O 	O 	0.2578	0.6612	0.3525	-0.721
Mof_O 	O 	0.2069	0.3584	0.0797	-0.613
Mof_O 	O 	0.2667	0.3484	0.1502	-0.601
Mof_C 	C 	0.2256	0.6415	0.3705	0.461
Mof_C 	C 	0.22435	0.60046	0.3358	-0.092
Mof_C 	C 	0.25141	0.5895	0.2771	-0.004
Mof_H 	H 	0.2707	0.6081	0.2589	0.028
Mof_C 	C 	0.25012	0.55126	0.245	-0.063
Mof_H 	H 	0.2686	0.5437	0.2049	0.045
Mof_C 	C 	0.22179	0.52408	0.2718	-0.038
Mof_C 	C 	0.1948	0.5351	0.3305	0.126
Mof_C 	C 	0.196	0.57331	0.3625	-0.092
Mof_H 	H 	0.1775	0.5808	0.4027	0.071
Mof_C 	C 	0.166	0.5047	0.3636	-0.487
Mof_H 	H 	0.1696	0.4793	0.3358	0.165
Mof_H 	H 	0.1386	0.5142	0.356	0.153
Mof_H 	H 	0.1712	0.501	0.4204	0.155
Mof_C 	C 	0.2348	0.3674	0.1316	0.429
Mof_C 	C 	0.22987	0.4074	0.1713	-0.061
Mof_C 	C 	0.25552	0.41981	0.2313	-0.017
Mof_H 	H 	0.2752	0.4021	0.2514	0.049
Mof_C 	C 	0.2523	0.45819	0.2621	-0.049
Mof_H 	H 	0.2699	0.4667	0.3032	0.043
Mof_C 	C 	0.2235	0.48414	0.2328	-0.043
Mof_C 	C 	0.1979	0.47173	0.1727	0.127
Mof_C 	C 	0.20105	0.43335	0.142	-0.103
Mof_H 	H 	0.1835	0.4249	0.1009	0.072
Mof_C 	C 	0.1665	0.4997	0.1405	-0.472
Mof_H 	H 	0.1684	0.5255	0.1677	0.157
Mof_H 	H 	0.1399	0.4882	0.1494	0.144
Mof_H 	H 	0.1707	0.5035	0.0834	0.143
Mof_H 	H 	0.0901	0.0372	0.4534	-0.056
Mof_O 	O 	0.7679	0.71759	0.8965	-1.223
Mof_O 	O 	0.8495	0.6987	0.9222	-0.629
Mof_O 	O 	0.8388	0.7578	0.8525	-0.713
Mof_O 	O 	0.1416	0.7069	0.5797	-0.604
Mof_O 	O 	0.1516	0.7667	0.6502	-0.599
Mof_C 	C 	0.8585	0.7256	0.8705	0.459
Mof_C 	C 	0.89954	0.72435	0.8358	-0.083
Mof_C 	C 	0.9105	0.75141	0.7771	-0.007
Mof_H 	H 	0.8919	0.7707	0.7589	0.032
Mof_C 	C 	0.94874	0.75012	0.745	-0.057
Mof_H 	H 	0.9563	0.7686	0.7049	0.047
Mof_C 	C 	0.97592	0.72179	0.7718	-0.041
Mof_C 	C 	0.9649	0.6948	0.8305	0.139
Mof_C 	C 	0.92669	0.696	0.8625	-0.099
Mof_H 	H 	0.9192	0.6775	0.9027	0.08
Mof_C 	C 	0.9953	0.666	0.8636	-0.511
Mof_H 	H 	0.0207	0.6696	0.8358	0.175
Mof_H 	H 	0.9858	0.6386	0.856	0.164
Mof_H 	H 	0.999	0.6712	0.9204	0.171
Mof_C 	C 	0.1326	0.7348	0.6316	0.428
Mof_C 	C 	0.0926	0.72987	0.6713	-0.054
Mof_C 	C 	0.08019	0.75552	0.7313	-0.018
Mof_H 	H 	0.0979	0.7752	0.7514	0.052
Mof_C 	C 	0.04181	0.7523	0.7621	-0.045
Mof_H 	H 	0.0333	0.7699	0.8032	0.046
Mof_C 	C 	0.01586	0.7235	0.7328	-0.044
Mof_C 	C 	0.02827	0.6979	0.6727	0.138
Mof_C 	C 	0.06665	0.70105	0.642	-0.109
Mof_H 	H 	0.0751	0.6835	0.6009	0.08
Mof_C 	C 	0.0003	0.6665	0.6405	-0.492
Mof_H 	H 	0.9745	0.6684	0.6677	0.166
Mof_H 	H 	0.0118	0.6399	0.6494	0.155
Mof_H 	H 	0.9965	0.6707	0.5834	0.158
Mof_H 	H 	0.4628	0.5901	0.9534	-0.039
Mof_O 	O 	0.2321	0.28241	0.8965	-1.223
Mof_O 	O 	0.1505	0.3013	0.9222	-0.629
Mof_O 	O 	0.1612	0.2422	0.8525	-0.713
Mof_O 	O 	0.8584	0.2931	0.5797	-0.604
Mof_O 	O 	0.8484	0.2333	0.6502	-0.599
Mof_C 	C 	0.1415	0.2744	0.8705	0.459
Mof_C 	C 	0.10046	0.27565	0.8358	-0.083
Mof_C 	C 	0.0895	0.24859	0.7771	-0.007
Mof_H 	H 	0.1081	0.2293	0.7589	0.032
Mof_C 	C 	0.05126	0.24988	0.745	-0.057
Mof_H 	H 	0.0437	0.2314	0.7049	0.047
Mof_C 	C 	0.02408	0.27821	0.7718	-0.041
Mof_C 	C 	0.0351	0.3052	0.8305	0.139
Mof_C 	C 	0.07331	0.304	0.8625	-0.099
Mof_H 	H 	0.0808	0.3225	0.9027	0.08
Mof_C 	C 	0.0047	0.334	0.8636	-0.511
Mof_H 	H 	0.9793	0.3304	0.8358	0.175
Mof_H 	H 	0.0142	0.3614	0.856	0.164
Mof_H 	H 	0.001	0.3288	0.9204	0.171
Mof_C 	C 	0.8674	0.2652	0.6316	0.428
Mof_C 	C 	0.9074	0.27013	0.6713	-0.054
Mof_C 	C 	0.91981	0.24448	0.7313	-0.018
Mof_H 	H 	0.9021	0.2248	0.7514	0.052
Mof_C 	C 	0.95819	0.2477	0.7621	-0.045
Mof_H 	H 	0.9667	0.2301	0.8032	0.046
Mof_C 	C 	0.98414	0.2765	0.7328	-0.044
Mof_C 	C 	0.97173	0.3021	0.6727	0.138
Mof_C 	C 	0.93335	0.29895	0.642	-0.109
Mof_H 	H 	0.9249	0.3165	0.6009	0.08
Mof_C 	C 	0.9997	0.3335	0.6405	-0.492
Mof_H 	H 	0.0255	0.3316	0.6677	0.166
Mof_H 	H 	0.9882	0.3601	0.6494	0.155
Mof_H 	H 	0.0035	0.3293	0.5834	0.158
Mof_H 	H 	0.5372	0.4099	0.9534	-0.039
Mof_O 	O 	0.28241	0.2321	0.8965	-1.223
Mof_O 	O 	0.3013	0.1505	0.9222	-0.629
Mof_O 	O 	0.2422	0.1612	0.8525	-0.713
Mof_O 	O 	0.2931	0.8584	0.5797	-0.604
Mof_O 	O 	0.2333	0.8484	0.6502	-0.599
Mof_C 	C 	0.2744	0.1415	0.8705	0.459
Mof_C 	C 	0.27565	0.10046	0.8358	-0.083
Mof_C 	C 	0.24859	0.0895	0.7771	-0.007
Mof_H 	H 	0.2293	0.1081	0.7589	0.032
Mof_C 	C 	0.24988	0.05126	0.745	-0.057
Mof_H 	H 	0.2314	0.0437	0.7049	0.047
Mof_C 	C 	0.27821	0.02408	0.7718	-0.041
Mof_C 	C 	0.3052	0.0351	0.8305	0.139
Mof_C 	C 	0.304	0.07331	0.8625	-0.099
Mof_H 	H 	0.3225	0.0808	0.9027	0.08
Mof_C 	C 	0.334	0.0047	0.8636	-0.511
Mof_H 	H 	0.3304	0.9793	0.8358	0.175
Mof_H 	H 	0.3614	0.0142	0.856	0.164
Mof_H 	H 	0.3288	0.001	0.9204	0.171
Mof_C 	C 	0.2652	0.8674	0.6316	0.428
Mof_C 	C 	0.27013	0.9074	0.6713	-0.054
Mof_C 	C 	0.24448	0.91981	0.7313	-0.018
Mof_H 	H 	0.2248	0.9021	0.7514	0.052
Mof_C 	C 	0.2477	0.95819	0.7621	-0.045
Mof_H 	H 	0.2301	0.9667	0.8032	0.046
Mof_C 	C 	0.2765	0.98414	0.7328	-0.044
Mof_C 	C 	0.3021	0.97173	0.6727	0.138
Mof_C 	C 	0.29895	0.93335	0.642	-0.109
Mof_H 	H 	0.3165	0.9249	0.6009	0.08
Mof_C 	C 	0.3335	0.9997	0.6405	-0.492
Mof_H 	H 	0.3316	0.0255	0.6677	0.166
Mof_H 	H 	0.3601	0.9882	0.6494	0.155
Mof_H 	H 	0.3293	0.0035	0.5834	0.158
Mof_H 	H 	0.4099	0.5372	0.9534	-0.039
Mof_O 	O 	0.71759	0.7679	0.8965	-1.223
Mof_O 	O 	0.6987	0.8495	0.9222	-0.629
Mof_O 	O 	0.7578	0.8388	0.8525	-0.713
Mof_O 	O 	0.7069	0.1416	0.5797	-0.604
Mof_O 	O 	0.7667	0.1516	0.6502	-0.599
Mof_C 	C 	0.7256	0.8585	0.8705	0.459
Mof_C 	C 	0.72435	0.89954	0.8358	-0.083
Mof_C 	C 	0.75141	0.9105	0.7771	-0.007
Mof_H 	H 	0.7707	0.8919	0.7589	0.032
Mof_C 	C 	0.75012	0.94874	0.745	-0.057
Mof_H 	H 	0.7686	0.9563	0.7049	0.047
Mof_C 	C 	0.72179	0.97592	0.7718	-0.041
Mof_C 	C 	0.6948	0.9649	0.8305	0.139
Mof_C 	C 	0.696	0.92669	0.8625	-0.099
Mof_H 	H 	0.6775	0.9192	0.9027	0.08
Mof_C 	C 	0.666	0.9953	0.8636	-0.511
Mof_H 	H 	0.6696	0.0207	0.8358	0.175
Mof_H 	H 	0.6386	0.9858	0.856	0.164
Mof_H 	H 	0.6712	0.999	0.9204	0.171
Mof_C 	C 	0.7348	0.1326	0.6316	0.428
Mof_C 	C 	0.72987	0.0926	0.6713	-0.054
Mof_C 	C 	0.75552	0.08019	0.7313	-0.018
Mof_H 	H 	0.7752	0.0979	0.7514	0.052
Mof_C 	C 	0.7523	0.04181	0.7621	-0.045
Mof_H 	H 	0.7699	0.0333	0.8032	0.046
Mof_C 	C 	0.7235	0.01586	0.7328	-0.044
Mof_C 	C 	0.6979	0.02827	0.6727	0.138
Mof_C 	C 	0.70105	0.06665	0.642	-0.109
Mof_H 	H 	0.6835	0.0751	0.6009	0.08
Mof_C 	C 	0.6665	0.0003	0.6405	-0.492
Mof_H 	H 	0.6684	0.9745	0.6677	0.166
Mof_H 	H 	0.6399	0.0118	0.6494	0.155
Mof_H 	H 	0.6707	0.9965	0.5834	0.158
Mof_H 	H 	0.5901	0.4628	0.9534	-0.039
Mof_O 	O 	0.2679	0.78241	0.3965	-1.237
Mof_O 	O 	0.3495	0.8013	0.4222	-0.644
Mof_O 	O 	0.3388	0.7422	0.3525	-0.721
Mof_O 	O 	0.6416	0.7931	0.0797	-0.613
Mof_O 	O 	0.6516	0.7333	0.1502	-0.601
Mof_C 	C 	0.3585	0.7744	0.3705	0.461
Mof_C 	C 	0.39954	0.77565	0.3358	-0.092
Mof_C 	C 	0.4105	0.74859	0.2771	-0.004
Mof_H 	H 	0.3919	0.7293	0.2589	0.028
Mof_C 	C 	0.44874	0.74988	0.245	-0.063
Mof_H 	H 	0.4563	0.7314	0.2049	0.045
Mof_C 	C 	0.47592	0.77821	0.2718	-0.038
Mof_C 	C 	0.4649	0.8052	0.3305	0.126
Mof_C 	C 	0.42669	0.804	0.3625	-0.092
Mof_H 	H 	0.4192	0.8225	0.4027	0.071
Mof_C 	C 	0.4953	0.834	0.3636	-0.487
Mof_H 	H 	0.5207	0.8304	0.3358	0.165
Mof_H 	H 	0.4858	0.8614	0.356	0.153
Mof_H 	H 	0.499	0.8288	0.4204	0.155
Mof_C 	C 	0.6326	0.7652	0.1316	0.429
Mof_C 	C 	0.5926	0.77013	0.1713	-0.061
Mof_C 	C 	0.58019	0.74448	0.2313	-0.017
Mof_H 	H 	0.5979	0.7248	0.2514	0.049
Mof_C 	C 	0.54181	0.7477	0.2621	-0.049
Mof_H 	H 	0.5333	0.7301	0.3032	0.043
Mof_C 	C 	0.51586	0.7765	0.2328	-0.043
Mof_C 	C 	0.52827	0.8021	0.1727	0.127
Mof_C 	C 	0.56665	0.79895	0.142	-0.103
Mof_H 	H 	0.5751	0.8165	0.1009	0.072
Mof_C 	C 	0.5003	0.8335	0.1405	-0.472
Mof_H 	H 	0.4745	0.8316	0.1677	0.157
Mof_H 	H 	0.5118	0.8601	0.1494	0.144
Mof_H 	H 	0.4965	0.8293	0.0834	0.143
Mof_H 	H 	0.9628	0.9099	0.4534	-0.056
Mof_O 	O 	0.7321	0.21759	0.3965	-1.237
Mof_O 	O 	0.6505	0.1987	0.4222	-0.644
Mof_O 	O 	0.6612	0.2578	0.3525	-0.721
Mof_O 	O 	0.3584	0.2069	0.0797	-0.613
Mof_O 	O 	0.3484	0.2667	0.1502	-0.601
Mof_C 	C 	0.6415	0.2256	0.3705	0.461
Mof_C 	C 	0.60046	0.22435	0.3358	-0.092
Mof_C 	C 	0.5895	0.25141	0.2771	-0.004
Mof_H 	H 	0.6081	0.2707	0.2589	0.028
Mof_C 	C 	0.55126	0.25012	0.245	-0.063
Mof_H 	H 	0.5437	0.2686	0.2049	0.045
Mof_C 	C 	0.52408	0.22179	0.2718	-0.038
Mof_C 	C 	0.5351	0.1948	0.3305	0.126
Mof_C 	C 	0.57331	0.196	0.3625	-0.092
Mof_H 	H 	0.5808	0.1775	0.4027	0.071
Mof_C 	C 	0.5047	0.166	0.3636	-0.487
Mof_H 	H 	0.4793	0.1696	0.3358	0.165
Mof_H 	H 	0.5142	0.1386	0.356	0.153
Mof_H 	H 	0.501	0.1712	0.4204	0.155
Mof_C 	C 	0.3674	0.2348	0.1316	0.429
Mof_C 	C 	0.4074	0.22987	0.1713	-0.061
Mof_C 	C 	0.41981	0.25552	0.2313	-0.017
Mof_H 	H 	0.4021	0.2752	0.2514	0.049
Mof_C 	C 	0.45819	0.2523	0.2621	-0.049
Mof_H 	H 	0.4667	0.2699	0.3032	0.043
Mof_C 	C 	0.48414	0.2235	0.2328	-0.043
Mof_C 	C 	0.47173	0.1979	0.1727	0.127
Mof_C 	C 	0.43335	0.20105	0.142	-0.103
Mof_H 	H 	0.4249	0.1835	0.1009	0.072
Mof_C 	C 	0.4997	0.1665	0.1405	-0.472
Mof_H 	H 	0.5255	0.1684	0.1677	0.157
Mof_H 	H 	0.4882	0.1399	0.1494	0.144
Mof_H 	H 	0.5035	0.1707	0.0834	0.143
Mof_H 	H 	0.0372	0.0901	0.4534	-0.056
Mof_O 	O 	0.21759	0.7321	0.6035	-1.236
Mof_O 	O 	0.1987	0.6505	0.5778	-0.644
Mof_O 	O 	0.2578	0.6612	0.6475	-0.72
Mof_O 	O 	0.2069	0.3584	0.9203	-0.59
Mof_O 	O 	0.2667	0.3484	0.8498	-0.594
Mof_C 	C 	0.2256	0.6415	0.6295	0.463
Mof_C 	C 	0.22435	0.60046	0.6642	-0.093
Mof_C 	C 	0.25141	0.5895	0.7229	0.001
Mof_H 	H 	0.2707	0.6081	0.7411	0.031
Mof_C 	C 	0.25012	0.55126	0.755	-0.065
Mof_H 	H 	0.2686	0.5437	0.7951	0.053
Mof_C 	C 	0.22179	0.52408	0.7282	-0.031
Mof_C 	C 	0.1948	0.5351	0.6695	0.123
Mof_C 	C 	0.196	0.57331	0.6375	-0.089
Mof_H 	H 	0.1775	0.5808	0.5973	0.071
Mof_C 	C 	0.166	0.5047	0.6364	-0.486
Mof_H 	H 	0.1696	0.4793	0.6642	0.165
Mof_H 	H 	0.1386	0.5142	0.644	0.154
Mof_H 	H 	0.1712	0.501	0.5796	0.155
Mof_C 	C 	0.2348	0.3674	0.8684	0.427
Mof_C 	C 	0.22987	0.4074	0.8287	-0.046
Mof_C 	C 	0.25552	0.41981	0.7687	-0.025
Mof_H 	H 	0.2752	0.4021	0.7486	0.053
Mof_C 	C 	0.2523	0.45819	0.7379	-0.037
Mof_H 	H 	0.2699	0.4667	0.6968	0.041
Mof_C 	C 	0.2235	0.48414	0.7672	-0.054
Mof_C 	C 	0.1979	0.47173	0.8273	0.154
Mof_C 	C 	0.20105	0.43335	0.858	-0.117
Mof_H 	H 	0.1835	0.4249	0.8991	0.089
Mof_C 	C 	0.1665	0.4997	0.8595	-0.516
Mof_H 	H 	0.1684	0.5255	0.8323	0.176
Mof_H 	H 	0.1399	0.4882	0.8506	0.165
Mof_H 	H 	0.1707	0.5035	0.9166	0.174
Mof_H 	H 	0.0901	0.0372	0.5466	-0.054
Mof_O 	O 	0.78241	0.2679	0.6035	-1.236
Mof_O 	O 	0.8013	0.3495	0.5778	-0.644
Mof_O 	O 	0.7422	0.3388	0.6475	-0.72
Mof_O 	O 	0.7931	0.6416	0.9203	-0.59
Mof_O 	O 	0.7333	0.6516	0.8498	-0.594
Mof_C 	C 	0.7744	0.3585	0.6295	0.463
Mof_C 	C 	0.77565	0.39954	0.6642	-0.093
Mof_C 	C 	0.74859	0.4105	0.7229	0.001
Mof_H 	H 	0.7293	0.3919	0.7411	0.031
Mof_C 	C 	0.74988	0.44874	0.755	-0.065
Mof_H 	H 	0.7314	0.4563	0.7951	0.053
Mof_C 	C 	0.77821	0.47592	0.7282	-0.031
Mof_C 	C 	0.8052	0.4649	0.6695	0.123
Mof_C 	C 	0.804	0.42669	0.6375	-0.089
Mof_H 	H 	0.8225	0.4192	0.5973	0.071
Mof_C 	C 	0.834	0.4953	0.6364	-0.486
Mof_H 	H 	0.8304	0.5207	0.6642	0.165
Mof_H 	H 	0.8614	0.4858	0.644	0.154
Mof_H 	H 	0.8288	0.499	0.5796	0.155
Mof_C 	C 	0.7652	0.6326	0.8684	0.427
Mof_C 	C 	0.77013	0.5926	0.8287	-0.046
Mof_C 	C 	0.74448	0.58019	0.7687	-0.025
Mof_H 	H 	0.7248	0.5979	0.7486	0.053
Mof_C 	C 	0.7477	0.54181	0.7379	-0.037
Mof_H 	H 	0.7301	0.5333	0.6968	0.041
Mof_C 	C 	0.7765	0.51586	0.7672	-0.054
Mof_C 	C 	0.8021	0.52827	0.8273	0.154
Mof_C 	C 	0.79895	0.56665	0.858	-0.117
Mof_H 	H 	0.8165	0.5751	0.8991	0.089
Mof_C 	C 	0.8335	0.5003	0.8595	-0.516
Mof_H 	H 	0.8316	0.4745	0.8323	0.176
Mof_H 	H 	0.8601	0.5118	0.8506	0.165
Mof_H 	H 	0.8293	0.4965	0.9166	0.174
Mof_H 	H 	0.9099	0.9628	0.5466	-0.054
Mof_O 	O 	0.2321	0.28241	0.1035	-1.238
Mof_O 	O 	0.1505	0.3013	0.0778	-0.654
Mof_O 	O 	0.1612	0.2422	0.1475	-0.724
Mof_O 	O 	0.8584	0.2931	0.4203	-0.604
Mof_O 	O 	0.8484	0.2333	0.3498	-0.6
Mof_C 	C 	0.1415	0.2744	0.1295	0.464
Mof_C 	C 	0.10046	0.27565	0.1642	-0.101
Mof_C 	C 	0.0895	0.24859	0.2229	0.003
Mof_H 	H 	0.1081	0.2293	0.2411	0.026
Mof_C 	C 	0.05126	0.24988	0.255	-0.071
Mof_H 	H 	0.0437	0.2314	0.2951	0.05
Mof_C 	C 	0.02408	0.27821	0.2282	-0.029
Mof_C 	C 	0.0351	0.3052	0.1695	0.111
Mof_C 	C 	0.07331	0.304	0.1375	-0.083
Mof_H 	H 	0.0808	0.3225	0.0973	0.062
Mof_C 	C 	0.0047	0.334	0.1364	-0.464
Mof_H 	H 	0.9793	0.3304	0.1642	0.155
Mof_H 	H 	0.0142	0.3614	0.144	0.142
Mof_H 	H 	0.001	0.3288	0.0796	0.139
Mof_C 	C 	0.8674	0.2652	0.3684	0.427
Mof_C 	C 	0.9074	0.27013	0.3287	-0.054
Mof_C 	C 	0.91981	0.24448	0.2687	-0.024
Mof_H 	H 	0.9021	0.2248	0.2486	0.049
Mof_C 	C 	0.95819	0.2477	0.2379	-0.042
Mof_H 	H 	0.9667	0.2301	0.1968	0.037
Mof_C 	C 	0.98414	0.2765	0.2672	-0.052
Mof_C 	C 	0.97173	0.3021	0.3273	0.141
Mof_C 	C 	0.93335	0.29895	0.358	-0.112
Mof_H 	H 	0.9249	0.3165	0.3991	0.08
Mof_C 	C 	0.9997	0.3335	0.3595	-0.494
Mof_H 	H 	0.0255	0.3316	0.3323	0.166
Mof_H 	H 	0.9882	0.3601	0.3506	0.154
Mof_H 	H 	0.0035	0.3293	0.4166	0.158
Mof_H 	H 	0.5372	0.4099	0.0466	-0.069
Mof_O 	O 	0.7679	0.71759	0.1035	-1.238
Mof_O 	O 	0.8495	0.6987	0.0778	-0.654
Mof_O 	O 	0.8388	0.7578	0.1475	-0.724
Mof_O 	O 	0.1416	0.7069	0.4203	-0.604
Mof_O 	O 	0.1516	0.7667	0.3498	-0.6
Mof_C 	C 	0.8585	0.7256	0.1295	0.464
Mof_C 	C 	0.89954	0.72435	0.1642	-0.101
Mof_C 	C 	0.9105	0.75141	0.2229	0.003
Mof_H 	H 	0.8919	0.7707	0.2411	0.026
Mof_C 	C 	0.94874	0.75012	0.255	-0.071
Mof_H 	H 	0.9563	0.7686	0.2951	0.05
Mof_C 	C 	0.97592	0.72179	0.2282	-0.029
Mof_C 	C 	0.9649	0.6948	0.1695	0.111
Mof_C 	C 	0.92669	0.696	0.1375	-0.083
Mof_H 	H 	0.9192	0.6775	0.0973	0.062
Mof_C 	C 	0.9953	0.666	0.1364	-0.464
Mof_H 	H 	0.0207	0.6696	0.1642	0.155
Mof_H 	H 	0.9858	0.6386	0.144	0.142
Mof_H 	H 	0.999	0.6712	0.0796	0.139
Mof_C 	C 	0.1326	0.7348	0.3684	0.427
Mof_C 	C 	0.0926	0.72987	0.3287	-0.054
Mof_C 	C 	0.08019	0.75552	0.2687	-0.024
Mof_H 	H 	0.0979	0.7752	0.2486	0.049
Mof_C 	C 	0.04181	0.7523	0.2379	-0.042
Mof_H 	H 	0.0333	0.7699	0.1968	0.037
Mof_C 	C 	0.01586	0.7235	0.2672	-0.052
Mof_C 	C 	0.02827	0.6979	0.3273	0.141
Mof_C 	C 	0.06665	0.70105	0.358	-0.112
Mof_H 	H 	0.0751	0.6835	0.3991	0.08
Mof_C 	C 	0.0003	0.6665	0.3595	-0.494
Mof_H 	H 	0.9745	0.6684	0.3323	0.166
Mof_H 	H 	0.0118	0.6399	0.3506	0.154
Mof_H 	H 	0.9965	0.6707	0.4166	0.158
Mof_H 	H 	0.4628	0.5901	0.0466	-0.069
Mof_Zr	Zr	0.69361	0.79805	-0	3.223
Mof_O 	O 	0.752	0.805	-0	-1.418
Mof_O 	O 	0.6842	0.7355	-0	-1.237
Mof_C 	C 	0.5843	0.4783	-0	0.322
Mof_H 	H 	0.6006	0.502	-0	-0.074
Mof_C 	C 	0.5394	0.4885	-0	0.023
Mof_C 	C 	0.49	0.5408	-0	0.013
Mof_H 	H 	0.5668	0.4804	-0	-0.18
Mof_Zr	Zr	0.30639	0.20195	-0	3.223
Mof_O 	O 	0.248	0.195	-0	-1.418
Mof_O 	O 	0.3158	0.2645	-0	-1.237
Mof_C 	C 	0.4157	0.5217	-0	0.322
Mof_H 	H 	0.3994	0.498	-0	-0.074
Mof_C 	C 	0.4606	0.5115	-0	0.023
Mof_C 	C 	0.51	0.4592	-0	0.013
Mof_H 	H 	0.4332	0.5196	-0	-0.18
Mof_Zr	Zr	0.70195	0.19361	0.5	3.226
Mof_O 	O 	0.695	0.252	0.5	-1.401
Mof_O 	O 	0.7645	0.1842	0.5	-1.219
Mof_C 	C 	0.0217	0.0843	0.5	0.286
Mof_H 	H 	0.998	0.1006	0.5	-0.055
Mof_C 	C 	0.0115	0.0394	0.5	0.019
Mof_C 	C 	0.9592	0.99	0.5	0.012
Mof_H 	H 	0.0196	0.0668	0.5	-0.148
Mof_Zr	Zr	0.29805	0.80639	0.5	3.226
Mof_O 	O 	0.305	0.748	0.5	-1.401
Mof_O 	O 	0.2355	0.8158	0.5	-1.219
Mof_C 	C 	0.9783	0.9157	0.5	0.286
Mof_H 	H 	0.002	0.8994	0.5	-0.055
Mof_C 	C 	0.9885	0.9606	0.5	0.019
Mof_C 	C 	0.0408	0.01	0.5	0.012
Mof_H 	H 	0.9804	0.9332	0.5	-0.148
Mof_Zr	Zr	0.80639	0.29805	0.5	3.226
Mof_O 	O 	0.748	0.305	0.5	-1.401
Mof_O 	O 	0.8158	0.2355	0.5	-1.219
Mof_C 	C 	0.9157	0.9783	0.5	0.286
Mof_H 	H 	0.8994	0.002	0.5	-0.055
Mof_C 	C 	0.9606	0.9885	0.5	0.019
Mof_C 	C 	0.01	0.0408	0.5	0.012
Mof_H 	H 	0.9332	0.9804	0.5	-0.148
Mof_Zr	Zr	0.19361	0.70195	0.5	3.226
Mof_O 	O 	0.252	0.695	0.5	-1.401
Mof_O 	O 	0.1842	0.7645	0.5	-1.219
Mof_C 	C 	0.0843	0.0217	0.5	0.286
Mof_H 	H 	0.1006	0.998	0.5	-0.055
Mof_C 	C 	0.0394	0.0115	0.5	0.019
Mof_C 	C 	0.99	0.9592	0.5	0.012
Mof_H 	H 	0.0668	0.0196	0.5	-0.148
Mof_Zr	Zr	0.79805	0.69361	-0	3.223
Mof_O 	O 	0.805	0.752	-0	-1.418
Mof_O 	O 	0.7355	0.6842	-0	-1.237
Mof_C 	C 	0.4783	0.5843	-0	0.322
Mof_H 	H 	0.502	0.6006	-0	-0.074
Mof_C 	C 	0.4885	0.5394	-0	0.023
Mof_C 	C 	0.5408	0.49	-0	0.013
Mof_H 	H 	0.4804	0.5668	-0	-0.18
Mof_Zr	Zr	0.20195	0.30639	-0	3.223
Mof_O 	O 	0.195	0.248	-0	-1.418
Mof_O 	O 	0.2645	0.3158	-0	-1.237
Mof_C 	C 	0.5217	0.4157	-0	0.322
Mof_H 	H 	0.498	0.3994	-0	-0.074
Mof_C 	C 	0.5115	0.4606	-0	0.023
Mof_C 	C 	0.4592	0.51	-0	0.013
Mof_H 	H 	0.5196	0.4332	-0	-0.18
Mof_Zr	Zr	0.78212	0.78212	0.10437	3.19
Mof_Zr	Zr	0.70871	0.70871	0.10389	3.226
Mof_O 	O 	0.6631	0.6631	0.0693	-0.621
Mof_C 	C 	0.60592	0.60592	0.07153	0.077
Mof_H 	H 	0.6159	0.6159	0.1204	0.021
Mof_C 	C 	0.57658	0.57658	0.07153	-0.138
Mof_H 	H 	0.5666	0.5666	0.1204	0.074
Mof_C 	C 	0.7402	0.7402	0.2629	0.373
Mof_C 	C 	0.7375	0.7375	0.3524	-0.065
Mof_C 	C 	0.7615	0.7615	0.4	0.092
Mof_H 	H 	0.7798	0.7798	0.3763	-0.074
Mof_C 	C 	0.75887	0.75887	0.4823	0.001
Mof_C 	C 	0.73225	0.73225	0.5171	0.007
Mof_C 	C 	0.70826	0.70826	0.4694	-0.074
Mof_H 	H 	0.6897	0.6897	0.4932	0.031
Mof_C 	C 	0.7109	0.7109	0.3872	0.103
Mof_H 	H 	0.69425	0.69425	0.3542	0.027
Mof_C 	C 	0.7296	0.7296	0.5993	0.028
Mof_H 	H 	0.71105	0.71105	0.6232	-0.059
Mof_C 	C 	0.7536	0.7536	0.6469	-0.124
Mof_C 	C 	0.7802	0.7802	0.6122	0.108
Mof_H 	H 	0.79655	0.79655	0.6452	0.02
Mof_C 	C 	0.78285	0.78285	0.5299	-0.09
Mof_C 	C 	0.7509	0.7509	0.7361	0.15
Mof_O 	O 	0.7164	0.7164	0.2287	-0.436
Mof_O 	O 	0.7654	0.7654	0.2387	-0.453
Mof_O 	O 	0.7258	0.7258	0.7608	-0.206
Mof_O 	O 	0.7743	0.7743	0.7715	-0.174
Mof_Zr	Zr	0.21788	0.21788	0.10437	3.19
Mof_Zr	Zr	0.29129	0.29129	0.10389	3.226
Mof_O 	O 	0.3369	0.3369	0.0693	-0.621
Mof_C 	C 	0.39408	0.39408	0.07153	0.077
Mof_H 	H 	0.3841	0.3841	0.1204	0.021
Mof_C 	C 	0.42342	0.42342	0.07153	-0.138
Mof_H 	H 	0.4334	0.4334	0.1204	0.074
Mof_C 	C 	0.2598	0.2598	0.2629	0.373
Mof_C 	C 	0.2625	0.2625	0.3524	-0.065
Mof_C 	C 	0.2385	0.2385	0.4	0.092
Mof_H 	H 	0.2202	0.2202	0.3763	-0.074
Mof_C 	C 	0.24113	0.24113	0.4823	0.001
Mof_C 	C 	0.26775	0.26775	0.5171	0.007
Mof_C 	C 	0.29174	0.29174	0.4694	-0.074
Mof_H 	H 	0.3103	0.3103	0.4932	0.031
Mof_C 	C 	0.2891	0.2891	0.3872	0.103
Mof_H 	H 	0.30575	0.30575	0.3542	0.027
Mof_C 	C 	0.2704	0.2704	0.5993	0.028
Mof_H 	H 	0.28895	0.28895	0.6232	-0.059
Mof_C 	C 	0.2464	0.2464	0.6469	-0.124
Mof_C 	C 	0.2198	0.2198	0.6122	0.108
Mof_H 	H 	0.20345	0.20345	0.6452	0.02
Mof_C 	C 	0.21715	0.21715	0.5299	-0.09
Mof_C 	C 	0.2491	0.2491	0.7361	0.15
Mof_O 	O 	0.2836	0.2836	0.2287	-0.436
Mof_O 	O 	0.2346	0.2346	0.2387	-0.453
Mof_O 	O 	0.2742	0.2742	0.7608	-0.206
Mof_O 	O 	0.2257	0.2257	0.7715	-0.174
Mof_Zr	Zr	0.71788	0.28212	0.60437	3.191
Mof_Zr	Zr	0.79129	0.20871	0.60389	3.226
Mof_O 	O 	0.8369	0.1631	0.5693	-0.627
Mof_C 	C 	0.89408	0.10592	0.57153	0.078
Mof_H 	H 	0.8841	0.1159	0.6204	0.022
Mof_C 	C 	0.92342	0.07658	0.57153	-0.148
Mof_H 	H 	0.9334	0.0666	0.6204	0.079
Mof_C 	C 	0.7598	0.2402	0.7629	0.37
Mof_C 	C 	0.7625	0.2375	0.8524	-0.072
Mof_C 	C 	0.7385	0.2615	0.9	0.109
Mof_H 	H 	0.7202	0.2798	0.8763	-0.116
Mof_C 	C 	0.74113	0.25887	0.9823	-0.1
Mof_C 	C 	0.76775	0.23225	0.0171	0.098
Mof_C 	C 	0.79174	0.20826	0.9694	0.065
Mof_H 	H 	0.8103	0.1897	0.9932	-0.005
Mof_C 	C 	0.7891	0.2109	0.8872	0.122
Mof_H 	H 	0.80575	0.19425	0.8542	0.034
Mof_C 	C 	0.7704	0.2296	0.0993	0.007
Mof_H 	H 	0.78895	0.21105	0.1232	-0.021
Mof_C 	C 	0.7464	0.2536	0.1469	-0.126
Mof_C 	C 	0.7198	0.2802	0.1122	0.091
Mof_H 	H 	0.70345	0.29655	0.1452	0.015
Mof_C 	C 	0.71715	0.28285	0.0299	-0.206
Mof_C 	C 	0.7491	0.2509	0.2361	0.144
Mof_O 	O 	0.7836	0.2164	0.7287	-0.433
Mof_O 	O 	0.7346	0.2654	0.7387	-0.448
Mof_O 	O 	0.7742	0.2258	0.2608	-0.204
Mof_O 	O 	0.7257	0.2743	0.2715	-0.167
Mof_Zr	Zr	0.28212	0.71788	0.60437	3.191
Mof_Zr	Zr	0.20871	0.79129	0.60389	3.226
Mof_O 	O 	0.1631	0.8369	0.5693	-0.627
Mof_C 	C 	0.10592	0.89408	0.57153	0.078
Mof_H 	H 	0.1159	0.8841	0.6204	0.022
Mof_C 	C 	0.07658	0.92342	0.57153	-0.148
Mof_H 	H 	0.0666	0.9334	0.6204	0.079
Mof_C 	C 	0.2402	0.7598	0.7629	0.37
Mof_C 	C 	0.2375	0.7625	0.8524	-0.072
Mof_C 	C 	0.2615	0.7385	0.9	0.109
Mof_H 	H 	0.2798	0.7202	0.8763	-0.116
Mof_C 	C 	0.25887	0.74113	0.9823	-0.1
Mof_C 	C 	0.23225	0.76775	0.0171	0.098
Mof_C 	C 	0.20826	0.79174	0.9694	0.065
Mof_H 	H 	0.1897	0.8103	0.9932	-0.005
Mof_C 	C 	0.2109	0.7891	0.8872	0.122
Mof_H 	H 	0.19425	0.80575	0.8542	0.034
Mof_C 	C 	0.2296	0.7704	0.0993	0.007
Mof_H 	H 	0.21105	0.78895	0.1232	-0.021
Mof_C 	C 	0.2536	0.7464	0.1469	-0.126
Mof_C 	C 	0.2802	0.7198	0.1122	0.091
Mof_H 	H 	0.29655	0.70345	0.1452	0.015
Mof_C 	C 	0.28285	0.71715	0.0299	-0.206
Mof_C 	C 	0.2509	0.7491	0.2361	0.144
Mof_O 	O 	0.2164	0.7836	0.7287	-0.433
Mof_O 	O 	0.2654	0.7346	0.7387	-0.448
Mof_O 	O 	0.2258	0.7742	0.2608	-0.204
Mof_O 	O 	0.2743	0.7257	0.2715	-0.167
Mof_Zr	Zr	0.71788	0.28212	0.39563	3.191
Mof_Zr	Zr	0.79129	0.20871	0.39611	3.226
Mof_O 	O 	0.8369	0.1631	0.4307	-0.627
Mof_C 	C 	0.89408	0.10592	0.42847	0.078
Mof_H 	H 	0.8841	0.1159	0.3796	0.02
Mof_C 	C 	0.92342	0.07658	0.42847	-0.148
Mof_H 	H 	0.9334	0.0666	0.3796	0.075
Mof_C 	C 	0.7598	0.2402	0.2371	0.373
Mof_C 	C 	0.7625	0.2375	0.1476	-0.054
Mof_C 	C 	0.7385	0.2615	0.1	0.075
Mof_H 	H 	0.7202	0.2798	0.1237	-0.041
Mof_C 	C 	0.74113	0.25887	0.0177	0.082
Mof_C 	C 	0.76775	0.23225	0.9829	-0.072
Mof_C 	C 	0.79174	0.20826	0.0306	-0.218
Mof_H 	H 	0.8103	0.1897	0.0068	0.07
Mof_C 	C 	0.7891	0.2109	0.1128	0.083
Mof_H 	H 	0.80575	0.19425	0.1458	0.02
Mof_C 	C 	0.7704	0.2296	0.9007	0.044
Mof_H 	H 	0.78895	0.21105	0.8768	-0.094
Mof_C 	C 	0.7464	0.2536	0.8531	-0.122
Mof_C 	C 	0.7198	0.2802	0.8878	0.13
Mof_H 	H 	0.70345	0.29655	0.8548	0.028
Mof_C 	C 	0.71715	0.28285	0.9701	0.068
Mof_C 	C 	0.7491	0.2509	0.7639	0.151
Mof_O 	O 	0.7836	0.2164	0.2713	-0.436
Mof_O 	O 	0.7346	0.2654	0.2613	-0.456
Mof_O 	O 	0.7742	0.2258	0.7392	-0.203
Mof_O 	O 	0.7257	0.2743	0.7285	-0.175
Mof_Zr	Zr	0.28212	0.71788	0.39563	3.191
Mof_Zr	Zr	0.20871	0.79129	0.39611	3.226
Mof_O 	O 	0.1631	0.8369	0.4307	-0.627
Mof_C 	C 	0.10592	0.89408	0.42847	0.078
Mof_H 	H 	0.1159	0.8841	0.3796	0.02
Mof_C 	C 	0.07658	0.92342	0.42847	-0.148
Mof_H 	H 	0.0666	0.9334	0.3796	0.075
Mof_C 	C 	0.2402	0.7598	0.2371	0.373
Mof_C 	C 	0.2375	0.7625	0.1476	-0.054
Mof_C 	C 	0.2615	0.7385	0.1	0.075
Mof_H 	H 	0.2798	0.7202	0.1237	-0.041
Mof_C 	C 	0.25887	0.74113	0.0177	0.082
Mof_C 	C 	0.23225	0.76775	0.9829	-0.072
Mof_C 	C 	0.20826	0.79174	0.0306	-0.218
Mof_H 	H 	0.1897	0.8103	0.0068	0.07
Mof_C 	C 	0.2109	0.7891	0.1128	0.083
Mof_H 	H 	0.19425	0.80575	0.1458	0.02
Mof_C 	C 	0.2296	0.7704	0.9007	0.044
Mof_H 	H 	0.21105	0.78895	0.8768	-0.094
Mof_C 	C 	0.2536	0.7464	0.8531	-0.122
Mof_C 	C 	0.2802	0.7198	0.8878	0.13
Mof_H 	H 	0.29655	0.70345	0.8548	0.028
Mof_C 	C 	0.28285	0.71715	0.9701	0.068
Mof_C 	C 	0.2509	0.7491	0.7639	0.151
Mof_O 	O 	0.2164	0.7836	0.2713	-0.436
Mof_O 	O 	0.2654	0.7346	0.2613	-0.456
Mof_O 	O 	0.2258	0.7742	0.7392	-0.203
Mof_O 	O 	0.2743	0.7257	0.7285	-0.175
Mof_Zr	Zr	0.78212	0.78212	0.89563	3.193
Mof_Zr	Zr	0.70871	0.70871	0.89611	3.228
Mof_O 	O 	0.6631	0.6631	0.9307	-0.592
Mof_C 	C 	0.60592	0.60592	0.92847	0.108
Mof_H 	H 	0.6159	0.6159	0.8796	0.016
Mof_C 	C 	0.57658	0.57658	0.92847	-0.106
Mof_H 	H 	0.5666	0.5666	0.8796	0.072
Mof_C 	C 	0.7402	0.7402	0.7371	0.369
Mof_C 	C 	0.7375	0.7375	0.6476	-0.065
Mof_C 	C 	0.7615	0.7615	0.6	0.091
Mof_H 	H 	0.7798	0.7798	0.6237	-0.074
Mof_C 	C 	0.75887	0.75887	0.5177	0.001
Mof_C 	C 	0.73225	0.73225	0.4829	0.007
Mof_C 	C 	0.70826	0.70826	0.5306	-0.074
Mof_H 	H 	0.6897	0.6897	0.5068	0.031
Mof_C 	C 	0.7109	0.7109	0.6128	0.103
Mof_H 	H 	0.69425	0.69425	0.6458	0.027
Mof_C 	C 	0.7296	0.7296	0.4007	0.028
Mof_H 	H 	0.71105	0.71105	0.3768	-0.059
Mof_C 	C 	0.7536	0.7536	0.3531	-0.125
Mof_C 	C 	0.7802	0.7802	0.3878	0.108
Mof_H 	H 	0.79655	0.79655	0.3548	0.019
Mof_C 	C 	0.78285	0.78285	0.4701	-0.091
Mof_C 	C 	0.7509	0.7509	0.2639	0.147
Mof_O 	O 	0.7164	0.7164	0.7713	-0.432
Mof_O 	O 	0.7654	0.7654	0.7613	-0.449
Mof_O 	O 	0.7258	0.7258	0.2392	-0.202
Mof_O 	O 	0.7743	0.7743	0.2285	-0.17
Mof_Zr	Zr	0.21788	0.21788	0.89563	3.193
Mof_Zr	Zr	0.29129	0.29129	0.89611	3.228
Mof_O 	O 	0.3369	0.3369	0.9307	-0.592
Mof_C 	C 	0.39408	0.39408	0.92847	0.108
Mof_H 	H 	0.3841	0.3841	0.8796	0.016
Mof_C 	C 	0.42342	0.42342	0.92847	-0.106
Mof_H 	H 	0.4334	0.4334	0.8796	0.072
Mof_C 	C 	0.2598	0.2598	0.7371	0.369
Mof_C 	C 	0.2625	0.2625	0.6476	-0.065
Mof_C 	C 	0.2385	0.2385	0.6	0.091
Mof_H 	H 	0.2202	0.2202	0.6237	-0.074
Mof_C 	C 	0.24113	0.24113	0.5177	0.001
Mof_C 	C 	0.26775	0.26775	0.4829	0.007
Mof_C 	C 	0.29174	0.29174	0.5306	-0.074
Mof_H 	H 	0.3103	0.3103	0.5068	0.031
Mof_C 	C 	0.2891	0.2891	0.6128	0.103
Mof_H 	H 	0.30575	0.30575	0.6458	0.027
Mof_C 	C 	0.2704	0.2704	0.4007	0.028
Mof_H 	H 	0.28895	0.28895	0.3768	-0.059
Mof_C 	C 	0.2464	0.2464	0.3531	-0.125
Mof_C 	C 	0.2198	0.2198	0.3878	0.108
Mof_H 	H 	0.20345	0.20345	0.3548	0.019
Mof_C 	C 	0.21715	0.21715	0.4701	-0.091
Mof_C 	C 	0.2491	0.2491	0.2639	0.147
Mof_O 	O 	0.2836	0.2836	0.7713	-0.432
Mof_O 	O 	0.2346	0.2346	0.7613	-0.449
Mof_O 	O 	0.2742	0.2742	0.2392	-0.202
Mof_O 	O 	0.2257	0.2257	0.2285	-0.17
Mof_C 	C 	0.6525	0.6525	-0	0.451
Mof_C 	C 	0.6206	0.6206	-0	-0.179
Mof_C 	C 	0.5619	0.5619	-0	0.065
Mof_C 	C 	0.5301	0.5301	-0	-0.07
Mof_C 	C 	0.3475	0.3475	-0	0.451
Mof_C 	C 	0.3794	0.3794	-0	-0.179
Mof_C 	C 	0.4381	0.4381	-0	0.065
Mof_C 	C 	0.4699	0.4699	-0	-0.07
Mof_C 	C 	0.8475	0.1525	0.5	0.486
Mof_C 	C 	0.8794	0.1206	0.5	-0.151
Mof_C 	C 	0.9381	0.0619	0.5	0.102
Mof_C 	C 	0.9699	0.0301	0.5	-0.069
Mof_C 	C 	0.1525	0.8475	0.5	0.486
Mof_C 	C 	0.1206	0.8794	0.5	-0.151
Mof_C 	C 	0.0619	0.9381	0.5	0.102
Mof_C 	C 	0.0301	0.9699	0.5	-0.069
Mof_H 	H 	0.80115	0.80115	0.5	0.078
Mof_H 	H 	0.19885	0.19885	0.5	0.078
Mof_H 	H 	0.69885	0.30115	-0	0.047
Mof_H 	H 	0.30115	0.69885	-0	0.047
_end
