data_functionalizedCrystal
_audit_creation_method	'EQeq! by Chris Wilmer'
_symmetry_space_group_name_H-M	'P1'
_symmetry_Int_Tables_number	1
_symmetry_cell_setting	triclinic
loop_
_symmetry_equiv_pos_as_xyz
  x,y,z
_cell_length_a	24.9961
_cell_length_b	24.9961
_cell_length_c	7.4414
_cell_angle_alpha	90
_cell_angle_beta	90
_cell_angle_gamma	90
loop_
_atom_site_label
_atom_site_type_symbol
_atom_site_fract_x
_atom_site_fract_y
_atom_site_fract_z
_atom_site_charge
Mof_C 	C 	0.4723	0.3874	0.3775	0.051
Mof_H 	H 	0.453	0.4066	0.2885	0.05
Mof_C 	C 	0.4705	0.3329	0.3739	-0.101
Mof_H 	H 	0.4494	0.3149	0.2867	0.072
Mof_C 	C 	0.456	0.1132	0.4404	-0.048
Mof_H 	H 	0.4255	0.1321	0.3983	0.039
Mof_C 	C 	0.4556	0.0583	0.4412	-0.012
Mof_H 	H 	0.4247	0.0397	0.4011	0.018
Mof_C 	C 	0.5277	0.6126	0.3775	0.051
Mof_H 	H 	0.547	0.5934	0.2885	0.049
Mof_C 	C 	0.5295	0.6671	0.3739	-0.105
Mof_H 	H 	0.5506	0.6851	0.2867	0.073
Mof_C 	C 	0.544	0.8868	0.4404	-0.024
Mof_H 	H 	0.5745	0.8679	0.3983	0.033
Mof_C 	C 	0.5444	0.9417	0.4412	-0.053
Mof_H 	H 	0.5753	0.9603	0.4011	0.054
Mof_C 	C 	0.6126	0.4723	0.3775	0.051
Mof_H 	H 	0.5934	0.453	0.2885	0.049
Mof_C 	C 	0.6671	0.4705	0.3739	-0.105
Mof_H 	H 	0.6851	0.4494	0.2867	0.073
Mof_C 	C 	0.8868	0.456	0.4404	-0.024
Mof_H 	H 	0.8679	0.4255	0.3983	0.033
Mof_C 	C 	0.9417	0.4556	0.4412	-0.053
Mof_H 	H 	0.9603	0.4247	0.4011	0.055
Mof_C 	C 	0.3874	0.5277	0.3775	0.05
Mof_H 	H 	0.4066	0.547	0.2885	0.049
Mof_C 	C 	0.3329	0.5295	0.3739	-0.102
Mof_H 	H 	0.3149	0.5506	0.2867	0.072
Mof_C 	C 	0.1132	0.544	0.4404	-0.048
Mof_H 	H 	0.1321	0.5745	0.3983	0.039
Mof_C 	C 	0.0583	0.5444	0.4412	-0.012
Mof_H 	H 	0.0397	0.5753	0.4011	0.018
Mof_C 	C 	0.5277	0.3874	0.6225	0.05
Mof_H 	H 	0.547	0.4066	0.7115	0.05
Mof_C 	C 	0.5295	0.3329	0.6261	-0.102
Mof_H 	H 	0.5506	0.3149	0.7133	0.072
Mof_C 	C 	0.544	0.1132	0.5596	-0.048
Mof_H 	H 	0.5745	0.1321	0.6017	0.04
Mof_C 	C 	0.5444	0.0583	0.5588	-0.012
Mof_H 	H 	0.5753	0.0397	0.5989	0.018
Mof_C 	C 	0.4723	0.6126	0.6225	0.051
Mof_H 	H 	0.453	0.5934	0.7115	0.049
Mof_C 	C 	0.4705	0.6671	0.6261	-0.105
Mof_H 	H 	0.4494	0.6851	0.7133	0.073
Mof_C 	C 	0.456	0.8868	0.5596	-0.024
Mof_H 	H 	0.4255	0.8679	0.6017	0.033
Mof_C 	C 	0.4556	0.9417	0.5588	-0.053
Mof_H 	H 	0.4247	0.9603	0.5989	0.054
Mof_C 	C 	0.3874	0.4723	0.6225	0.05
Mof_H 	H 	0.4066	0.453	0.7115	0.049
Mof_C 	C 	0.3329	0.4705	0.6261	-0.102
Mof_H 	H 	0.3149	0.4494	0.7133	0.072
Mof_C 	C 	0.1132	0.456	0.5596	-0.048
Mof_H 	H 	0.1321	0.4255	0.6017	0.039
Mof_C 	C 	0.0583	0.4556	0.5588	-0.012
Mof_H 	H 	0.0397	0.4247	0.5989	0.017
Mof_C 	C 	0.6126	0.5277	0.6225	0.051
Mof_H 	H 	0.5934	0.547	0.7115	0.049
Mof_C 	C 	0.6671	0.5295	0.6261	-0.105
Mof_H 	H 	0.6851	0.5506	0.7133	0.074
Mof_C 	C 	0.8868	0.544	0.5596	-0.024
Mof_H 	H 	0.8679	0.5745	0.6017	0.033
Mof_C 	C 	0.9417	0.5444	0.5588	-0.053
Mof_H 	H 	0.9603	0.5753	0.5989	0.054
Mof_C 	C 	0.5277	0.6126	0.6225	0.051
Mof_H 	H 	0.547	0.5934	0.7115	0.049
Mof_C 	C 	0.5295	0.6671	0.6261	-0.105
Mof_H 	H 	0.5506	0.6851	0.7133	0.074
Mof_C 	C 	0.544	0.8868	0.5596	-0.024
Mof_H 	H 	0.5745	0.8679	0.6017	0.033
Mof_C 	C 	0.5444	0.9417	0.5588	-0.053
Mof_H 	H 	0.5753	0.9603	0.5989	0.054
Mof_C 	C 	0.4723	0.3874	0.6225	0.05
Mof_H 	H 	0.453	0.4066	0.7115	0.049
Mof_C 	C 	0.4705	0.3329	0.6261	-0.102
Mof_H 	H 	0.4494	0.3149	0.7133	0.072
Mof_C 	C 	0.456	0.1132	0.5596	-0.048
Mof_H 	H 	0.4255	0.1321	0.6017	0.039
Mof_C 	C 	0.4556	0.0583	0.5588	-0.012
Mof_H 	H 	0.4247	0.0397	0.5989	0.017
Mof_C 	C 	0.3874	0.5277	0.6225	0.05
Mof_H 	H 	0.4066	0.547	0.7115	0.05
Mof_C 	C 	0.3329	0.5295	0.6261	-0.102
Mof_H 	H 	0.3149	0.5506	0.7133	0.072
Mof_C 	C 	0.1132	0.544	0.5596	-0.048
Mof_H 	H 	0.1321	0.5745	0.6017	0.04
Mof_C 	C 	0.0583	0.5444	0.5588	-0.012
Mof_H 	H 	0.0397	0.5753	0.5989	0.018
Mof_C 	C 	0.6126	0.4723	0.6225	0.051
Mof_H 	H 	0.5934	0.453	0.7115	0.049
Mof_C 	C 	0.6671	0.4705	0.6261	-0.105
Mof_H 	H 	0.6851	0.4494	0.7133	0.073
Mof_C 	C 	0.8868	0.456	0.5596	-0.024
Mof_H 	H 	0.8679	0.4255	0.6017	0.033
Mof_C 	C 	0.9417	0.4556	0.5588	-0.053
Mof_H 	H 	0.9603	0.4247	0.5989	0.054
Mof_C 	C 	0.4723	0.6126	0.3775	0.051
Mof_H 	H 	0.453	0.5934	0.2885	0.049
Mof_C 	C 	0.4705	0.6671	0.3739	-0.105
Mof_H 	H 	0.4494	0.6851	0.2867	0.073
Mof_C 	C 	0.456	0.8868	0.4404	-0.024
Mof_H 	H 	0.4255	0.8679	0.3983	0.033
Mof_C 	C 	0.4556	0.9417	0.4412	-0.053
Mof_H 	H 	0.4247	0.9603	0.4011	0.055
Mof_C 	C 	0.5277	0.3874	0.3775	0.05
Mof_H 	H 	0.547	0.4066	0.2885	0.049
Mof_C 	C 	0.5295	0.3329	0.3739	-0.102
Mof_H 	H 	0.5506	0.3149	0.2867	0.072
Mof_C 	C 	0.544	0.1132	0.4404	-0.048
Mof_H 	H 	0.5745	0.1321	0.3983	0.039
Mof_C 	C 	0.5444	0.0583	0.4412	-0.012
Mof_H 	H 	0.5753	0.0397	0.4011	0.018
Mof_C 	C 	0.6126	0.5277	0.3775	0.051
Mof_H 	H 	0.5934	0.547	0.2885	0.049
Mof_C 	C 	0.6671	0.5295	0.3739	-0.105
Mof_H 	H 	0.6851	0.5506	0.2867	0.073
Mof_C 	C 	0.8868	0.544	0.4404	-0.024
Mof_H 	H 	0.8679	0.5745	0.3983	0.033
Mof_C 	C 	0.9417	0.5444	0.4412	-0.053
Mof_H 	H 	0.9603	0.5753	0.4011	0.054
Mof_C 	C 	0.3874	0.4723	0.3775	0.05
Mof_H 	H 	0.4066	0.453	0.2885	0.049
Mof_C 	C 	0.3329	0.4705	0.3739	-0.102
Mof_H 	H 	0.3149	0.4494	0.2867	0.072
Mof_C 	C 	0.1132	0.456	0.4404	-0.048
Mof_H 	H 	0.1321	0.4255	0.3983	0.039
Mof_C 	C 	0.0583	0.4556	0.4412	-0.012
Mof_H 	H 	0.0397	0.4247	0.4011	0.018
Mof_Zn	Zn	0.5	0.5	0.5	1.267
Mof_Si	Si	0.5	0.5	-0	3.959
Mof_F 	F 	0.5	0.5	0.2277	-1
Mof_F 	F 	0.5	0.5	0.7723	-0.999
Mof_N 	N 	0.5	0.41503	0.5	-0.237
Mof_C 	C 	0.5	0.3039	0.5	0.132
Mof_C 	C 	0.5	0.2463	0.5	-0.066
Mof_C 	C 	0.5	0.199	0.5	-0.011
Mof_C 	C 	0.5	0.1412	0.5	0.038
Mof_C 	C 	0.5	0.0297	0.5	-0.062
Mof_N 	N 	0.5	0.58497	0.5	-0.238
Mof_C 	C 	0.5	0.6961	0.5	0.139
Mof_C 	C 	0.5	0.7537	0.5	-0.076
Mof_C 	C 	0.5	0.801	0.5	0.005
Mof_C 	C 	0.5	0.8588	0.5	0.003
Mof_C 	C 	0.5	0.9703	0.5	0.09
Mof_N 	N 	0.58497	0.5	0.5	-0.238
Mof_C 	C 	0.6961	0.5	0.5	0.139
Mof_C 	C 	0.7537	0.5	0.5	-0.076
Mof_C 	C 	0.801	0.5	0.5	0.005
Mof_C 	C 	0.8588	0.5	0.5	0.003
Mof_C 	C 	0.9703	0.5	0.5	0.09
Mof_N 	N 	0.41503	0.5	0.5	-0.237
Mof_C 	C 	0.3039	0.5	0.5	0.132
Mof_C 	C 	0.2463	0.5	0.5	-0.066
Mof_C 	C 	0.199	0.5	0.5	-0.011
Mof_C 	C 	0.1412	0.5	0.5	0.038
Mof_C 	C 	0.0297	0.5	0.5	-0.062
Mof_F 	F 	0.54544	0.54544	-0	-0.944
Mof_F 	F 	0.45456	0.45456	-0	-0.944
Mof_F 	F 	0.45456	0.54544	-0	-0.944
Mof_F 	F 	0.54544	0.45456	-0	-0.944
Mof_C 	C 	0.9723	0.8874	0.8775	0.079
Mof_H 	H 	0.953	0.9066	0.7885	0.051
Mof_C 	C 	0.9705	0.8329	0.8739	-0.054
Mof_H 	H 	0.9494	0.8149	0.7867	0.066
Mof_C 	C 	0.956	0.6132	0.9404	-0.011
Mof_H 	H 	0.9255	0.6321	0.8983	0.034
Mof_C 	C 	0.9556	0.5583	0.9412	-0.012
Mof_H 	H 	0.9247	0.5397	0.9011	0.032
Mof_C 	C 	0.0277	0.1126	0.8775	0.018
Mof_H 	H 	0.047	0.0934	0.7885	0.056
Mof_C 	C 	0.0295	0.1671	0.8739	-0.095
Mof_H 	H 	0.0506	0.1851	0.7867	0.066
Mof_C 	C 	0.044	0.3868	0.9404	-0.027
Mof_H 	H 	0.0745	0.3679	0.8983	0.032
Mof_C 	C 	0.0444	0.4417	0.9412	-0.028
Mof_H 	H 	0.0753	0.4603	0.9011	0.034
Mof_C 	C 	0.1126	0.9723	0.8775	0.084
Mof_H 	H 	0.0934	0.953	0.7885	0.046
Mof_C 	C 	0.1671	0.9705	0.8739	-0.052
Mof_H 	H 	0.1851	0.9494	0.7867	0.066
Mof_C 	C 	0.3868	0.956	0.9404	-0.01
Mof_H 	H 	0.3679	0.9255	0.8983	0.034
Mof_C 	C 	0.4417	0.9556	0.9412	-0.012
Mof_H 	H 	0.4603	0.9247	0.9011	0.032
Mof_C 	C 	0.8874	0.0277	0.8775	0.019
Mof_H 	H 	0.9066	0.047	0.7885	0.06
Mof_C 	C 	0.8329	0.0295	0.8739	-0.096
Mof_H 	H 	0.8149	0.0506	0.7867	0.066
Mof_C 	C 	0.6132	0.044	0.9404	-0.027
Mof_H 	H 	0.6321	0.0745	0.8983	0.032
Mof_C 	C 	0.5583	0.0444	0.9412	-0.028
Mof_H 	H 	0.5397	0.0753	0.9011	0.034
Mof_C 	C 	0.0277	0.8874	0.1225	0.017
Mof_H 	H 	0.047	0.9066	0.2115	0.061
Mof_C 	C 	0.0295	0.8329	0.1261	-0.097
Mof_H 	H 	0.0506	0.8149	0.2133	0.066
Mof_C 	C 	0.044	0.6132	0.0596	-0.036
Mof_H 	H 	0.0745	0.6321	0.1017	0.034
Mof_C 	C 	0.0444	0.5583	0.0588	-0.037
Mof_H 	H 	0.0753	0.5397	0.0989	0.036
Mof_C 	C 	0.9723	0.1126	0.1225	0.084
Mof_H 	H 	0.953	0.0934	0.2115	0.046
Mof_C 	C 	0.9705	0.1671	0.1261	-0.053
Mof_H 	H 	0.9494	0.1851	0.2133	0.066
Mof_C 	C 	0.956	0.3868	0.0596	-0.015
Mof_H 	H 	0.9255	0.3679	0.1017	0.035
Mof_C 	C 	0.9556	0.4417	0.0588	-0.017
Mof_H 	H 	0.9247	0.4603	0.0989	0.033
Mof_C 	C 	0.8874	0.9723	0.1225	0.079
Mof_H 	H 	0.9066	0.953	0.2115	0.051
Mof_C 	C 	0.8329	0.9705	0.1261	-0.055
Mof_H 	H 	0.8149	0.9494	0.2133	0.066
Mof_C 	C 	0.6132	0.956	0.0596	-0.016
Mof_H 	H 	0.6321	0.9255	0.1017	0.035
Mof_C 	C 	0.5583	0.9556	0.0588	-0.017
Mof_H 	H 	0.5397	0.9247	0.0989	0.033
Mof_C 	C 	0.1126	0.0277	0.1225	0.015
Mof_H 	H 	0.0934	0.047	0.2115	0.056
Mof_C 	C 	0.1671	0.0295	0.1261	-0.097
Mof_H 	H 	0.1851	0.0506	0.2133	0.065
Mof_C 	C 	0.3868	0.044	0.0596	-0.036
Mof_H 	H 	0.3679	0.0745	0.1017	0.034
Mof_C 	C 	0.4417	0.0444	0.0588	-0.038
Mof_H 	H 	0.4603	0.0753	0.0989	0.036
Mof_C 	C 	0.0277	0.1126	0.1225	0.015
Mof_H 	H 	0.047	0.0934	0.2115	0.056
Mof_C 	C 	0.0295	0.1671	0.1261	-0.097
Mof_H 	H 	0.0506	0.1851	0.2133	0.065
Mof_C 	C 	0.044	0.3868	0.0596	-0.036
Mof_H 	H 	0.0745	0.3679	0.1017	0.034
Mof_C 	C 	0.0444	0.4417	0.0588	-0.038
Mof_H 	H 	0.0753	0.4603	0.0989	0.036
Mof_C 	C 	0.9723	0.8874	0.1225	0.079
Mof_H 	H 	0.953	0.9066	0.2115	0.051
Mof_C 	C 	0.9705	0.8329	0.1261	-0.055
Mof_H 	H 	0.9494	0.8149	0.2133	0.066
Mof_C 	C 	0.956	0.6132	0.0596	-0.016
Mof_H 	H 	0.9255	0.6321	0.1017	0.035
Mof_C 	C 	0.9556	0.5583	0.0588	-0.017
Mof_H 	H 	0.9247	0.5397	0.0989	0.033
Mof_C 	C 	0.8874	0.0277	0.1225	0.017
Mof_H 	H 	0.9066	0.047	0.2115	0.061
Mof_C 	C 	0.8329	0.0295	0.1261	-0.097
Mof_H 	H 	0.8149	0.0506	0.2133	0.066
Mof_C 	C 	0.6132	0.044	0.0596	-0.036
Mof_H 	H 	0.6321	0.0745	0.1017	0.034
Mof_C 	C 	0.5583	0.0444	0.0588	-0.037
Mof_H 	H 	0.5397	0.0753	0.0989	0.036
Mof_C 	C 	0.1126	0.9723	0.1225	0.084
Mof_H 	H 	0.0934	0.953	0.2115	0.046
Mof_C 	C 	0.1671	0.9705	0.1261	-0.053
Mof_H 	H 	0.1851	0.9494	0.2133	0.066
Mof_C 	C 	0.3868	0.956	0.0596	-0.015
Mof_H 	H 	0.3679	0.9255	0.1017	0.035
Mof_C 	C 	0.4417	0.9556	0.0588	-0.017
Mof_H 	H 	0.4603	0.9247	0.0989	0.033
Mof_C 	C 	0.9723	0.1126	0.8775	0.084
Mof_H 	H 	0.953	0.0934	0.7885	0.046
Mof_C 	C 	0.9705	0.1671	0.8739	-0.052
Mof_H 	H 	0.9494	0.1851	0.7867	0.066
Mof_C 	C 	0.956	0.3868	0.9404	-0.01
Mof_H 	H 	0.9255	0.3679	0.8983	0.034
Mof_C 	C 	0.9556	0.4417	0.9412	-0.012
Mof_H 	H 	0.9247	0.4603	0.9011	0.032
Mof_C 	C 	0.0277	0.8874	0.8775	0.019
Mof_H 	H 	0.047	0.9066	0.7885	0.06
Mof_C 	C 	0.0295	0.8329	0.8739	-0.096
Mof_H 	H 	0.0506	0.8149	0.7867	0.066
Mof_C 	C 	0.044	0.6132	0.9404	-0.027
Mof_H 	H 	0.0745	0.6321	0.8983	0.032
Mof_C 	C 	0.0444	0.5583	0.9412	-0.028
Mof_H 	H 	0.0753	0.5397	0.9011	0.034
Mof_C 	C 	0.1126	0.0277	0.8775	0.018
Mof_H 	H 	0.0934	0.047	0.7885	0.056
Mof_C 	C 	0.1671	0.0295	0.8739	-0.095
Mof_H 	H 	0.1851	0.0506	0.7867	0.066
Mof_C 	C 	0.3868	0.044	0.9404	-0.027
Mof_H 	H 	0.3679	0.0745	0.8983	0.032
Mof_C 	C 	0.4417	0.0444	0.9412	-0.028
Mof_H 	H 	0.4603	0.0753	0.9011	0.034
Mof_C 	C 	0.8874	0.9723	0.8775	0.079
Mof_H 	H 	0.9066	0.953	0.7885	0.051
Mof_C 	C 	0.8329	0.9705	0.8739	-0.054
Mof_H 	H 	0.8149	0.9494	0.7867	0.066
Mof_C 	C 	0.6132	0.956	0.9404	-0.011
Mof_H 	H 	0.6321	0.9255	0.8983	0.034
Mof_C 	C 	0.5583	0.9556	0.9412	-0.012
Mof_H 	H 	0.5397	0.9247	0.9011	0.032
Mof_Zn	Zn	-0	0	-0	1.252
Mof_Si	Si	-7.99245e-34	-1.35735e-33	0.5	3.74
Mof_F 	F 	-1.90243e-33	-2.7147e-33	0.7277	-1.002
Mof_F 	F 	3.03943e-34	0	0.2723	-1.003
Mof_N 	N 	-0	0.91503	-0	-0.248
Mof_C 	C 	-0	0.8039	-0	0.062
Mof_C 	C 	-0	0.7463	-0	-0.065
Mof_C 	C 	-0	0.699	-0	-0.012
Mof_C 	C 	-1.08588e-32	0.6412	-0	-0.028
Mof_C 	C 	-0	0.5297	-0	-0.025
Mof_N 	N 	-1.35735e-33	0.08497	-0	-0.258
Mof_C 	C 	-1.35735e-33	0.1961	-0	0.058
Mof_C 	C 	2.7147e-33	0.2537	-0	-0.064
Mof_C 	C 	-0	0.301	-0	-0.013
Mof_C 	C 	-0	0.3588	-0	-0.029
Mof_C 	C 	-5.42939e-33	0.4703	-0	-0.025
Mof_N 	N 	0.08497	0	-0	-0.258
Mof_C 	C 	0.1961	0	-0	0.058
Mof_C 	C 	0.2537	0	-0	-0.064
Mof_C 	C 	0.301	0	-0	-0.013
Mof_C 	C 	0.3588	0	-0	-0.029
Mof_C 	C 	0.4703	0	-0	-0.025
Mof_N 	N 	0.91503	0	-0	-0.248
Mof_C 	C 	0.8039	0	-0	0.062
Mof_C 	C 	0.7463	0	-0	-0.065
Mof_C 	C 	0.699	0	-0	-0.012
Mof_C 	C 	0.6412	0	-0	-0.028
Mof_C 	C 	0.5297	0	-0	-0.025
Mof_F 	F 	0.04544	0.04544	0.5	-0.922
Mof_F 	F 	0.95456	0.95456	0.5	-0.873
Mof_F 	F 	0.95456	0.04544	0.5	-0.895
Mof_F 	F 	0.04544	0.95456	0.5	-0.895
_end
