data_functionalizedCrystal
_audit_creation_method	'EQeq! by Chris Wilmer'
_symmetry_space_group_name_H-M	'P1'
_symmetry_Int_Tables_number	1
_symmetry_cell_setting	triclinic
loop_
_symmetry_equiv_pos_as_xyz
  x,y,z
_cell_length_a	7.1409
_cell_length_b	7.1409
_cell_length_c	7.6068
_cell_angle_alpha	90
_cell_angle_beta	90
_cell_angle_gamma	90
loop_
_atom_site_label
_atom_site_type_symbol
_atom_site_fract_x
_atom_site_fract_y
_atom_site_fract_z
_atom_site_charge
Mof_Zn	Zn	0.5	0.5	0.5	1.26
Mof_Si	Si	0.5	0.5	-0	3.239
Mof_H 	H 	0.5	0.8386	0.7515	0.105
Mof_H 	H 	0.5	0.1614	0.7515	0.105
Mof_H 	H 	0.1614	0.5	0.7515	0.105
Mof_H 	H 	0.8386	0.5	0.7515	0.105
Mof_H 	H 	0.5	0.8386	0.2485	0.098
Mof_H 	H 	0.5	0.1614	0.2485	0.098
Mof_H 	H 	0.8386	0.5	0.2485	0.098
Mof_H 	H 	0.1614	0.5	0.2485	0.098
Mof_C 	C 	0.5	0.9014	0.6445	0.038
Mof_C 	C 	0.5	0.0986	0.6445	0.038
Mof_C 	C 	0.0986	0.5	0.6445	0.038
Mof_C 	C 	0.9014	0.5	0.6445	0.038
Mof_C 	C 	0.5	0.9014	0.3555	0.037
Mof_C 	C 	0.5	0.0986	0.3555	0.037
Mof_C 	C 	0.9014	0.5	0.3555	0.037
Mof_C 	C 	0.0986	0.5	0.3555	0.037
Mof_N 	N 	0.5	0.8042	0.5	-0.188
Mof_N 	N 	0.5	0.1958	0.5	-0.188
Mof_N 	N 	0.1958	0.5	0.5	-0.188
Mof_N 	N 	0.8042	0.5	0.5	-0.188
Mof_F 	F 	0.5	0.5	0.7704	-0.861
Mof_F 	F 	0.5	0.5	0.2296	-0.87
Mof_F 	F 	0.6641	0.6641	-0	-0.782
Mof_F 	F 	0.3359	0.3359	-0	-0.782
Mof_F 	F 	0.3359	0.6641	-0	-0.782
Mof_F 	F 	0.6641	0.3359	-0	-0.782
_end
