data_functionalizedCrystal
_audit_creation_method	'EQeq! by Chris Wilmer'
_symmetry_space_group_name_H-M	'P1'
_symmetry_Int_Tables_number	1
_symmetry_cell_setting	triclinic
loop_
_symmetry_equiv_pos_as_xyz
  x,y,z
_cell_length_a	20.208
_cell_length_b	20.208
_cell_length_c	20.208
_cell_angle_alpha	90
_cell_angle_beta	90
_cell_angle_gamma	90
loop_
_atom_site_label
_atom_site_type_symbol
_atom_site_fract_x
_atom_site_fract_y
_atom_site_fract_z
_atom_site_charge
Mof_N 	N 	0.4663	0.3616	0.0676	-0.1
Mof_N 	N 	0.4451	0.3211	0.1131	-0.105
Mof_C 	C 	0.4418	0.171	0.2647	0.081
Mof_H 	H 	0.4013	0.1537	0.2778	0.021
Mof_O 	O 	0.4436	0.3566	0.0701	-0.288
Mof_N 	N 	0.5337	0.6384	0.0676	-0.094
Mof_N 	N 	0.5549	0.6789	0.1131	-0.103
Mof_C 	C 	0.5582	0.829	0.2647	0.063
Mof_H 	H 	0.5987	0.8463	0.2778	0.038
Mof_O 	O 	0.5564	0.6434	0.0701	-0.291
Mof_N 	N 	0.5337	0.3616	0.9324	-0.064
Mof_N 	N 	0.5549	0.3211	0.8869	-0.092
Mof_C 	C 	0.5582	0.171	0.7353	0.073
Mof_H 	H 	0.5987	0.1537	0.7222	0.031
Mof_O 	O 	0.5564	0.3566	0.9299	-0.315
Mof_N 	N 	0.4663	0.6384	0.9324	-0.065
Mof_N 	N 	0.4451	0.6789	0.8869	-0.091
Mof_C 	C 	0.4418	0.829	0.7353	0.056
Mof_H 	H 	0.4013	0.8463	0.7222	0.042
Mof_O 	O 	0.4436	0.6434	0.9299	-0.312
Mof_N 	N 	0.0676	0.4663	0.3616	-0.1
Mof_N 	N 	0.1131	0.4451	0.3211	-0.105
Mof_C 	C 	0.2647	0.4418	0.171	0.081
Mof_H 	H 	0.2778	0.4013	0.1537	0.021
Mof_O 	O 	0.0701	0.4436	0.3566	-0.287
Mof_N 	N 	0.0676	0.5337	0.6384	-0.093
Mof_N 	N 	0.1131	0.5549	0.6789	-0.102
Mof_C 	C 	0.2647	0.5582	0.829	0.064
Mof_H 	H 	0.2778	0.5987	0.8463	0.039
Mof_O 	O 	0.0701	0.5564	0.6434	-0.29
Mof_N 	N 	0.9324	0.5337	0.3616	-0.063
Mof_N 	N 	0.8869	0.5549	0.3211	-0.091
Mof_C 	C 	0.7353	0.5582	0.171	0.074
Mof_H 	H 	0.7222	0.5987	0.1537	0.032
Mof_O 	O 	0.9299	0.5564	0.3566	-0.314
Mof_N 	N 	0.9324	0.4663	0.6384	-0.064
Mof_N 	N 	0.8869	0.4451	0.6789	-0.09
Mof_C 	C 	0.7353	0.4418	0.829	0.057
Mof_H 	H 	0.7222	0.4013	0.8463	0.043
Mof_O 	O 	0.9299	0.4436	0.6434	-0.311
Mof_N 	N 	0.3616	0.0676	0.4663	-0.099
Mof_N 	N 	0.3211	0.1131	0.4451	-0.104
Mof_C 	C 	0.171	0.2647	0.4418	0.082
Mof_H 	H 	0.1537	0.2778	0.4013	0.022
Mof_O 	O 	0.3566	0.0701	0.4436	-0.287
Mof_N 	N 	0.6384	0.0676	0.5337	-0.093
Mof_N 	N 	0.6789	0.1131	0.5549	-0.102
Mof_C 	C 	0.829	0.2647	0.5582	0.064
Mof_H 	H 	0.8463	0.2778	0.5987	0.039
Mof_O 	O 	0.6434	0.0701	0.5564	-0.29
Mof_N 	N 	0.3616	0.9324	0.5337	-0.063
Mof_N 	N 	0.3211	0.8869	0.5549	-0.091
Mof_C 	C 	0.171	0.7353	0.5582	0.074
Mof_H 	H 	0.1537	0.7222	0.5987	0.032
Mof_O 	O 	0.3566	0.9299	0.5564	-0.314
Mof_N 	N 	0.6384	0.9324	0.4663	-0.064
Mof_N 	N 	0.6789	0.8869	0.4451	-0.09
Mof_C 	C 	0.829	0.7353	0.4418	0.057
Mof_H 	H 	0.8463	0.7222	0.4013	0.043
Mof_O 	O 	0.6434	0.9299	0.4436	-0.311
Mof_N 	N 	0.3616	0.4663	0.9324	-0.067
Mof_N 	N 	0.3211	0.4451	0.8869	-0.092
Mof_C 	C 	0.171	0.4418	0.7353	0.075
Mof_H 	H 	0.1537	0.4013	0.7222	0.029
Mof_O 	O 	0.3566	0.4436	0.9299	-0.311
Mof_N 	N 	0.6384	0.5337	0.9324	-0.061
Mof_N 	N 	0.6789	0.5549	0.8869	-0.089
Mof_C 	C 	0.829	0.5582	0.7353	0.056
Mof_H 	H 	0.8463	0.5987	0.7222	0.046
Mof_O 	O 	0.6434	0.5564	0.9299	-0.314
Mof_N 	N 	0.3616	0.5337	0.0676	-0.096
Mof_N 	N 	0.3211	0.5549	0.1131	-0.103
Mof_C 	C 	0.171	0.5582	0.2647	0.082
Mof_H 	H 	0.1537	0.5987	0.2778	0.025
Mof_O 	O 	0.3566	0.5564	0.0701	-0.29
Mof_N 	N 	0.6384	0.4663	0.0676	-0.096
Mof_N 	N 	0.6789	0.4451	0.1131	-0.103
Mof_C 	C 	0.829	0.4418	0.2647	0.064
Mof_H 	H 	0.8463	0.4013	0.2778	0.036
Mof_O 	O 	0.6434	0.4436	0.0701	-0.287
Mof_N 	N 	0.4663	0.0676	0.6384	-0.096
Mof_N 	N 	0.4451	0.1131	0.6789	-0.103
Mof_C 	C 	0.4418	0.2647	0.829	0.064
Mof_H 	H 	0.4013	0.2778	0.8463	0.036
Mof_O 	O 	0.4436	0.0701	0.6434	-0.287
Mof_N 	N 	0.5337	0.0676	0.3616	-0.096
Mof_N 	N 	0.5549	0.1131	0.3211	-0.103
Mof_C 	C 	0.5582	0.2647	0.171	0.082
Mof_H 	H 	0.5987	0.2778	0.1537	0.025
Mof_O 	O 	0.5564	0.0701	0.3566	-0.29
Mof_N 	N 	0.5337	0.9324	0.6384	-0.061
Mof_N 	N 	0.5549	0.8869	0.6789	-0.089
Mof_C 	C 	0.5582	0.7353	0.829	0.056
Mof_H 	H 	0.5987	0.7222	0.8463	0.046
Mof_O 	O 	0.5564	0.9299	0.6434	-0.314
Mof_N 	N 	0.4663	0.9324	0.3616	-0.067
Mof_N 	N 	0.4451	0.8869	0.3211	-0.092
Mof_C 	C 	0.4418	0.7353	0.171	0.075
Mof_H 	H 	0.4013	0.7222	0.1537	0.029
Mof_O 	O 	0.4436	0.9299	0.3566	-0.311
Mof_N 	N 	0.0676	0.3616	0.5337	-0.096
Mof_N 	N 	0.1131	0.3211	0.5549	-0.103
Mof_C 	C 	0.2647	0.171	0.5582	0.082
Mof_H 	H 	0.2778	0.1537	0.5987	0.025
Mof_O 	O 	0.0701	0.3566	0.5564	-0.29
Mof_N 	N 	0.0676	0.6384	0.4663	-0.096
Mof_N 	N 	0.1131	0.6789	0.4451	-0.103
Mof_C 	C 	0.2647	0.829	0.4418	0.064
Mof_H 	H 	0.2778	0.8463	0.4013	0.036
Mof_O 	O 	0.0701	0.6434	0.4436	-0.287
Mof_N 	N 	0.9324	0.3616	0.4663	-0.067
Mof_N 	N 	0.8869	0.3211	0.4451	-0.092
Mof_C 	C 	0.7353	0.171	0.4418	0.075
Mof_H 	H 	0.7222	0.1537	0.4013	0.029
Mof_O 	O 	0.9299	0.3566	0.4436	-0.311
Mof_N 	N 	0.9324	0.6384	0.5337	-0.061
Mof_N 	N 	0.8869	0.6789	0.5549	-0.089
Mof_C 	C 	0.7353	0.829	0.5582	0.056
Mof_H 	H 	0.7222	0.8463	0.5987	0.046
Mof_O 	O 	0.9299	0.6434	0.5564	-0.314
Mof_N 	N 	0.5337	0.6384	0.9324	-0.061
Mof_N 	N 	0.5549	0.6789	0.8869	-0.089
Mof_C 	C 	0.5582	0.829	0.7353	0.056
Mof_H 	H 	0.5987	0.8463	0.7222	0.046
Mof_O 	O 	0.5564	0.6434	0.9299	-0.314
Mof_N 	N 	0.4663	0.3616	0.9324	-0.067
Mof_N 	N 	0.4451	0.3211	0.8869	-0.092
Mof_C 	C 	0.4418	0.171	0.7353	0.075
Mof_H 	H 	0.4013	0.1537	0.7222	0.029
Mof_O 	O 	0.4436	0.3566	0.9299	-0.311
Mof_N 	N 	0.4663	0.6384	0.0676	-0.096
Mof_N 	N 	0.4451	0.6789	0.1131	-0.103
Mof_C 	C 	0.4418	0.829	0.2647	0.064
Mof_H 	H 	0.4013	0.8463	0.2778	0.036
Mof_O 	O 	0.4436	0.6434	0.0701	-0.287
Mof_N 	N 	0.5337	0.3616	0.0676	-0.096
Mof_N 	N 	0.5549	0.3211	0.1131	-0.103
Mof_C 	C 	0.5582	0.171	0.2647	0.082
Mof_H 	H 	0.5987	0.1537	0.2778	0.025
Mof_O 	O 	0.5564	0.3566	0.0701	-0.29
Mof_N 	N 	0.9324	0.5337	0.6384	-0.061
Mof_N 	N 	0.8869	0.5549	0.6789	-0.089
Mof_C 	C 	0.7353	0.5582	0.829	0.056
Mof_H 	H 	0.7222	0.5987	0.8463	0.046
Mof_O 	O 	0.9299	0.5564	0.6434	-0.314
Mof_N 	N 	0.9324	0.4663	0.3616	-0.067
Mof_N 	N 	0.8869	0.4451	0.3211	-0.092
Mof_C 	C 	0.7353	0.4418	0.171	0.075
Mof_H 	H 	0.7222	0.4013	0.1537	0.029
Mof_O 	O 	0.9299	0.4436	0.3566	-0.311
Mof_N 	N 	0.0676	0.4663	0.6384	-0.096
Mof_N 	N 	0.1131	0.4451	0.6789	-0.103
Mof_C 	C 	0.2647	0.4418	0.829	0.064
Mof_H 	H 	0.2778	0.4013	0.8463	0.036
Mof_O 	O 	0.0701	0.4436	0.6434	-0.287
Mof_N 	N 	0.0676	0.5337	0.3616	-0.096
Mof_N 	N 	0.1131	0.5549	0.3211	-0.103
Mof_C 	C 	0.2647	0.5582	0.171	0.082
Mof_H 	H 	0.2778	0.5987	0.1537	0.025
Mof_O 	O 	0.0701	0.5564	0.3566	-0.29
Mof_N 	N 	0.6384	0.9324	0.5337	-0.061
Mof_N 	N 	0.6789	0.8869	0.5549	-0.089
Mof_C 	C 	0.829	0.7353	0.5582	0.056
Mof_H 	H 	0.8463	0.7222	0.5987	0.046
Mof_O 	O 	0.6434	0.9299	0.5564	-0.314
Mof_N 	N 	0.3616	0.9324	0.4663	-0.067
Mof_N 	N 	0.3211	0.8869	0.4451	-0.092
Mof_C 	C 	0.171	0.7353	0.4418	0.075
Mof_H 	H 	0.1537	0.7222	0.4013	0.029
Mof_O 	O 	0.3566	0.9299	0.4436	-0.311
Mof_N 	N 	0.6384	0.0676	0.4663	-0.096
Mof_N 	N 	0.6789	0.1131	0.4451	-0.103
Mof_C 	C 	0.829	0.2647	0.4418	0.064
Mof_H 	H 	0.8463	0.2778	0.4013	0.036
Mof_O 	O 	0.6434	0.0701	0.4436	-0.287
Mof_N 	N 	0.3616	0.0676	0.5337	-0.096
Mof_N 	N 	0.3211	0.1131	0.5549	-0.103
Mof_C 	C 	0.171	0.2647	0.5582	0.082
Mof_H 	H 	0.1537	0.2778	0.5987	0.025
Mof_O 	O 	0.3566	0.0701	0.5564	-0.29
Mof_N 	N 	0.6384	0.5337	0.0676	-0.093
Mof_N 	N 	0.6789	0.5549	0.1131	-0.102
Mof_C 	C 	0.829	0.5582	0.2647	0.064
Mof_H 	H 	0.8463	0.5987	0.2778	0.039
Mof_O 	O 	0.6434	0.5564	0.0701	-0.29
Mof_N 	N 	0.3616	0.4663	0.0676	-0.099
Mof_N 	N 	0.3211	0.4451	0.1131	-0.104
Mof_C 	C 	0.171	0.4418	0.2647	0.082
Mof_H 	H 	0.1537	0.4013	0.2778	0.022
Mof_O 	O 	0.3566	0.4436	0.0701	-0.287
Mof_N 	N 	0.6384	0.4663	0.9324	-0.064
Mof_N 	N 	0.6789	0.4451	0.8869	-0.09
Mof_C 	C 	0.829	0.4418	0.7353	0.057
Mof_H 	H 	0.8463	0.4013	0.7222	0.043
Mof_O 	O 	0.6434	0.4436	0.9299	-0.311
Mof_N 	N 	0.3616	0.5337	0.9324	-0.063
Mof_N 	N 	0.3211	0.5549	0.8869	-0.091
Mof_C 	C 	0.171	0.5582	0.7353	0.074
Mof_H 	H 	0.1537	0.5987	0.7222	0.032
Mof_O 	O 	0.3566	0.5564	0.9299	-0.314
Mof_N 	N 	0.5337	0.9324	0.3616	-0.063
Mof_N 	N 	0.5549	0.8869	0.3211	-0.091
Mof_C 	C 	0.5582	0.7353	0.171	0.074
Mof_H 	H 	0.5987	0.7222	0.1537	0.032
Mof_O 	O 	0.5564	0.9299	0.3566	-0.314
Mof_N 	N 	0.4663	0.9324	0.6384	-0.064
Mof_N 	N 	0.4451	0.8869	0.6789	-0.09
Mof_C 	C 	0.4418	0.7353	0.829	0.057
Mof_H 	H 	0.4013	0.7222	0.8463	0.043
Mof_O 	O 	0.4436	0.9299	0.6434	-0.311
Mof_N 	N 	0.4663	0.0676	0.3616	-0.099
Mof_N 	N 	0.4451	0.1131	0.3211	-0.104
Mof_C 	C 	0.4418	0.2647	0.171	0.082
Mof_H 	H 	0.4013	0.2778	0.1537	0.022
Mof_O 	O 	0.4436	0.0701	0.3566	-0.287
Mof_N 	N 	0.5337	0.0676	0.6384	-0.093
Mof_N 	N 	0.5549	0.1131	0.6789	-0.102
Mof_C 	C 	0.5582	0.2647	0.829	0.064
Mof_H 	H 	0.5987	0.2778	0.8463	0.039
Mof_O 	O 	0.5564	0.0701	0.6434	-0.29
Mof_N 	N 	0.9324	0.6384	0.4663	-0.064
Mof_N 	N 	0.8869	0.6789	0.4451	-0.09
Mof_C 	C 	0.7353	0.829	0.4418	0.057
Mof_H 	H 	0.7222	0.8463	0.4013	0.043
Mof_O 	O 	0.9299	0.6434	0.4436	-0.311
Mof_N 	N 	0.9324	0.3616	0.5337	-0.063
Mof_N 	N 	0.8869	0.3211	0.5549	-0.091
Mof_C 	C 	0.7353	0.171	0.5582	0.074
Mof_H 	H 	0.7222	0.1537	0.5987	0.032
Mof_O 	O 	0.9299	0.3566	0.5564	-0.314
Mof_N 	N 	0.0676	0.6384	0.5337	-0.093
Mof_N 	N 	0.1131	0.6789	0.5549	-0.102
Mof_C 	C 	0.2647	0.829	0.5582	0.064
Mof_H 	H 	0.2778	0.8463	0.5987	0.039
Mof_O 	O 	0.0701	0.6434	0.5564	-0.29
Mof_N 	N 	0.0676	0.3616	0.4663	-0.099
Mof_N 	N 	0.1131	0.3211	0.4451	-0.104
Mof_C 	C 	0.2647	0.171	0.4418	0.082
Mof_H 	H 	0.2778	0.1537	0.4013	0.022
Mof_O 	O 	0.0701	0.3566	0.4436	-0.287
Mof_Cu	Cu	0.41156	0.41156	-0	0.924
Mof_Cu	Cu	0.58844	0.58844	-0	0.926
Mof_Cu	Cu	0.58844	0.41156	-0	0.925
Mof_Cu	Cu	0.41156	0.58844	-0	0.925
Mof_Cu	Cu	1.5431e-33	0.41156	0.41156	0.924
Mof_Cu	Cu	2.2063e-33	0.58844	0.58844	0.926
Mof_Cu	Cu	1.07201e-32	0.58844	0.41156	0.925
Mof_Cu	Cu	1.44423e-32	0.41156	0.58844	0.925
Mof_Cu	Cu	0.41156	0	0.41156	0.924
Mof_Cu	Cu	0.58844	0	0.58844	0.926
Mof_Cu	Cu	0.41156	0	0.58844	0.925
Mof_Cu	Cu	0.58844	0	0.41156	0.925
Mof_Cl	Cl	0.5	0.5	-0	-0.175
Mof_Cl	Cl	1.8747e-33	0.5	0.5	-0.175
Mof_Cl	Cl	0.5	0	0.5	-0.175
Mof_C 	C 	0.5	0.2466	0.1938	0.168
Mof_C 	C 	0.5	0.2932	0.1441	-0.204
Mof_C 	C 	0.5	0.3379	0.0903	0.573
Mof_C 	C 	0.5	0.7534	0.1938	0.162
Mof_C 	C 	0.5	0.7068	0.1441	-0.192
Mof_C 	C 	0.5	0.6621	0.0903	0.567
Mof_C 	C 	0.5	0.2466	0.8062	0.168
Mof_C 	C 	0.5	0.2932	0.8559	-0.18
Mof_C 	C 	0.5	0.3379	0.9097	0.524
Mof_C 	C 	0.5	0.7534	0.8062	0.163
Mof_C 	C 	0.5	0.7068	0.8559	-0.169
Mof_C 	C 	0.5	0.6621	0.9097	0.518
Mof_C 	C 	0.1938	0.5	0.2466	0.168
Mof_C 	C 	0.1441	0.5	0.2932	-0.204
Mof_C 	C 	0.0903	0.5	0.3379	0.573
Mof_C 	C 	0.1938	0.5	0.7534	0.162
Mof_C 	C 	0.1441	0.5	0.7068	-0.192
Mof_C 	C 	0.0903	0.5	0.6621	0.567
Mof_C 	C 	0.8062	0.5	0.2466	0.168
Mof_C 	C 	0.8559	0.5	0.2932	-0.18
Mof_C 	C 	0.9097	0.5	0.3379	0.524
Mof_C 	C 	0.8062	0.5	0.7534	0.163
Mof_C 	C 	0.8559	0.5	0.7068	-0.169
Mof_C 	C 	0.9097	0.5	0.6621	0.518
Mof_C 	C 	0.2466	0.1938	0.5	0.168
Mof_C 	C 	0.2932	0.1441	0.5	-0.204
Mof_C 	C 	0.3379	0.0903	0.5	0.573
Mof_C 	C 	0.7534	0.1938	0.5	0.162
Mof_C 	C 	0.7068	0.1441	0.5	-0.192
Mof_C 	C 	0.6621	0.0903	0.5	0.567
Mof_C 	C 	0.2466	0.8062	0.5	0.168
Mof_C 	C 	0.2932	0.8559	0.5	-0.18
Mof_C 	C 	0.3379	0.9097	0.5	0.524
Mof_C 	C 	0.7534	0.8062	0.5	0.163
Mof_C 	C 	0.7068	0.8559	0.5	-0.169
Mof_C 	C 	0.6621	0.9097	0.5	0.518
Mof_C 	C 	0.2466	0.5	0.8062	0.168
Mof_C 	C 	0.2932	0.5	0.8559	-0.18
Mof_C 	C 	0.3379	0.5	0.9097	0.524
Mof_C 	C 	0.7534	0.5	0.8062	0.163
Mof_C 	C 	0.7068	0.5	0.8559	-0.169
Mof_C 	C 	0.6621	0.5	0.9097	0.518
Mof_C 	C 	0.2466	0.5	0.1938	0.168
Mof_C 	C 	0.2932	0.5	0.1441	-0.204
Mof_C 	C 	0.3379	0.5	0.0903	0.573
Mof_C 	C 	0.7534	0.5	0.1938	0.162
Mof_C 	C 	0.7068	0.5	0.1441	-0.192
Mof_C 	C 	0.6621	0.5	0.0903	0.567
Mof_C 	C 	0.5	0.1938	0.7534	0.162
Mof_C 	C 	0.5	0.1441	0.7068	-0.192
Mof_C 	C 	0.5	0.0903	0.6621	0.567
Mof_C 	C 	0.5	0.1938	0.2466	0.168
Mof_C 	C 	0.5	0.1441	0.2932	-0.204
Mof_C 	C 	0.5	0.0903	0.3379	0.573
Mof_C 	C 	0.5	0.8062	0.7534	0.163
Mof_C 	C 	0.5	0.8559	0.7068	-0.169
Mof_C 	C 	0.5	0.9097	0.6621	0.518
Mof_C 	C 	0.5	0.8062	0.2466	0.168
Mof_C 	C 	0.5	0.8559	0.2932	-0.18
Mof_C 	C 	0.5	0.9097	0.3379	0.524
Mof_C 	C 	0.1938	0.2466	0.5	0.168
Mof_C 	C 	0.1441	0.2932	0.5	-0.204
Mof_C 	C 	0.0903	0.3379	0.5	0.573
Mof_C 	C 	0.1938	0.7534	0.5	0.162
Mof_C 	C 	0.1441	0.7068	0.5	-0.192
Mof_C 	C 	0.0903	0.6621	0.5	0.567
Mof_C 	C 	0.8062	0.2466	0.5	0.168
Mof_C 	C 	0.8559	0.2932	0.5	-0.18
Mof_C 	C 	0.9097	0.3379	0.5	0.524
Mof_C 	C 	0.8062	0.7534	0.5	0.163
Mof_C 	C 	0.8559	0.7068	0.5	-0.169
Mof_C 	C 	0.9097	0.6621	0.5	0.518
Mof_C 	C 	0.4417	0.22	0.22	-0.31
Mof_H 	H 	0.3957	0.2198	0.2198	0.129
Mof_C 	C 	0.5583	0.78	0.22	-0.291
Mof_H 	H 	0.6043	0.7802	0.2198	0.131
Mof_C 	C 	0.5583	0.22	0.78	-0.291
Mof_H 	H 	0.6043	0.2198	0.7802	0.131
Mof_C 	C 	0.4417	0.78	0.78	-0.273
Mof_H 	H 	0.3957	0.7802	0.7802	0.129
Mof_C 	C 	0.22	0.4417	0.22	-0.31
Mof_H 	H 	0.2198	0.3957	0.2198	0.129
Mof_C 	C 	0.22	0.5583	0.78	-0.291
Mof_H 	H 	0.2198	0.6043	0.7802	0.131
Mof_C 	C 	0.78	0.5583	0.22	-0.291
Mof_H 	H 	0.7802	0.6043	0.2198	0.131
Mof_C 	C 	0.78	0.4417	0.78	-0.273
Mof_H 	H 	0.7802	0.3957	0.7802	0.129
Mof_C 	C 	0.22	0.22	0.4417	-0.31
Mof_H 	H 	0.2198	0.2198	0.3957	0.129
Mof_C 	C 	0.78	0.22	0.5583	-0.291
Mof_H 	H 	0.7802	0.2198	0.6043	0.131
Mof_C 	C 	0.22	0.78	0.5583	-0.291
Mof_H 	H 	0.2198	0.7802	0.6043	0.131
Mof_C 	C 	0.78	0.78	0.4417	-0.273
Mof_H 	H 	0.7802	0.7802	0.3957	0.129
Mof_C 	C 	0.22	0.4417	0.78	-0.291
Mof_H 	H 	0.2198	0.3957	0.7802	0.129
Mof_C 	C 	0.78	0.5583	0.78	-0.272
Mof_H 	H 	0.7802	0.6043	0.7802	0.131
Mof_C 	C 	0.22	0.5583	0.22	-0.31
Mof_H 	H 	0.2198	0.6043	0.2198	0.132
Mof_C 	C 	0.78	0.4417	0.22	-0.291
Mof_H 	H 	0.7802	0.3957	0.2198	0.129
Mof_C 	C 	0.4417	0.22	0.78	-0.291
Mof_H 	H 	0.3957	0.2198	0.7802	0.129
Mof_C 	C 	0.5583	0.22	0.22	-0.31
Mof_H 	H 	0.6043	0.2198	0.2198	0.132
Mof_C 	C 	0.5583	0.78	0.78	-0.272
Mof_H 	H 	0.6043	0.7802	0.7802	0.131
Mof_C 	C 	0.4417	0.78	0.22	-0.291
Mof_H 	H 	0.3957	0.7802	0.2198	0.129
Mof_C 	C 	0.22	0.22	0.5583	-0.31
Mof_H 	H 	0.2198	0.2198	0.6043	0.132
Mof_C 	C 	0.22	0.78	0.4417	-0.291
Mof_H 	H 	0.2198	0.7802	0.3957	0.129
Mof_C 	C 	0.78	0.22	0.4417	-0.291
Mof_H 	H 	0.7802	0.2198	0.3957	0.129
Mof_C 	C 	0.78	0.78	0.5583	-0.272
Mof_H 	H 	0.7802	0.7802	0.6043	0.131
Mof_Cl	Cl	0.5	0.5	0.019	-1.14
Mof_Cl	Cl	0.5	0.5	0.981	0.697
Mof_Cl	Cl	0.019	0.5	0.5	-1.14
Mof_Cl	Cl	0.981	0.5	0.5	0.697
Mof_Cl	Cl	0.5	0.019	0.5	-1.14
Mof_Cl	Cl	0.5	0.981	0.5	0.697
_end
