data_functionalizedCrystal
_audit_creation_method	'EQeq! by Chris Wilmer'
_symmetry_space_group_name_H-M	'P1'
_symmetry_Int_Tables_number	1
_symmetry_cell_setting	triclinic
loop_
_symmetry_equiv_pos_as_xyz
  x,y,z
_cell_length_a	9.198
_cell_length_b	9.33
_cell_length_c	9.636
_cell_angle_alpha	90
_cell_angle_beta	118.48
_cell_angle_gamma	90
loop_
_atom_site_label
_atom_site_type_symbol
_atom_site_fract_x
_atom_site_fract_y
_atom_site_fract_z
_atom_site_charge
Mof_Zn	Zn	0.91601	0.44079	0.13712	1.189
Mof_Zn	Zn	0.08399	0.94079	0.86288	1.182
Mof_H 	H 	0.6351	0.5088	0.07	0.115
Mof_H 	H 	0.6631	0.3669	0.1378	0.125
Mof_H 	H 	0.0352	0.7436	0.0929	-0.048
Mof_H 	H 	0.8273	0.5715	0.5294	0.093
Mof_H 	H 	0.8512	0.738	0.5431	0.087
Mof_H 	H 	0.1058	0.4321	0.6562	0.161
Mof_H 	H 	0.838	0.448	0.7724	0.038
Mof_H 	H 	0.1286	0.7191	0.6242	0.034
Mof_H 	H 	0.3307	0.2886	0.7854	0.152
Mof_H 	H 	0.3634	0.3494	0.9497	0.156
Mof_H 	H 	0.5825	0.4141	0.8381	-0.047
Mof_H 	H 	0.5953	0.2644	0.915	-0.047
Mof_H 	H 	0.3649	0.0088	0.93	0.137
Mof_H 	H 	0.3369	0.8669	0.8622	0.126
Mof_H 	H 	0.9648	0.2436	0.9071	-0.043
Mof_H 	H 	0.1727	0.0715	0.4706	0.094
Mof_H 	H 	0.1488	0.238	0.4569	0.083
Mof_H 	H 	0.8942	0.9321	0.3438	0.151
Mof_H 	H 	0.162	0.948	0.2276	0.001
Mof_H 	H 	0.8714	0.2191	0.3758	0.039
Mof_H 	H 	0.6693	0.7886	0.2146	0.157
Mof_H 	H 	0.6366	0.8494	0.0503	0.158
Mof_H 	H 	0.4175	0.9141	0.1619	-0.058
Mof_H 	H 	0.4047	0.7644	0.085	-0.053
Mof_C 	C 	0.994	0.6949	0.9973	0.112
Mof_C 	C 	0.9023	0.6475	0.5911	-0.227
Mof_C 	C 	0.8861	0.5336	0.8226	-0.061
Mof_C 	C 	0.0631	0.6316	0.5825	-0.012
Mof_C 	C 	0.0149	0.6183	0.4083	0.336
Mof_C 	C 	0.3084	0.5091	0.7835	0.315
Mof_C 	C 	0.9233	0.6424	0.7554	0.107
Mof_C 	C 	0.383	0.3654	0.861	-0.428
Mof_C 	C 	0.5636	0.3634	0.9159	0.198
Mof_C 	C 	0.006	0.1949	0.0027	0.109
Mof_C 	C 	0.0977	0.1475	0.4089	-0.205
Mof_C 	C 	0.1139	0.0336	0.1774	-0.002
Mof_C 	C 	0.9369	0.1316	0.4175	-0.024
Mof_C 	C 	0.9851	0.1183	0.5917	0.348
Mof_C 	C 	0.6916	0.0091	0.2165	0.331
Mof_C 	C 	0.0767	0.1424	0.2446	0.087
Mof_C 	C 	0.617	0.8654	0.139	-0.454
Mof_C 	C 	0.4364	0.8634	0.0841	0.212
Mof_N 	N 	0.673	0.4209	0.0654	-0.416
Mof_N 	N 	0.995	0.7499	0.8718	-0.295
Mof_N 	N 	0.1577	0.5124	0.6757	-0.255
Mof_N 	N 	0.9288	0.5659	0.9764	-0.273
Mof_N 	N 	0.327	0.9209	0.9346	-0.437
Mof_N 	N 	0.005	0.2499	0.1282	-0.292
Mof_N 	N 	0.8423	0.0124	0.3243	-0.248
Mof_N 	N 	0.0712	0.0659	0.0236	-0.275
Mof_O 	O 	0.0067	0.4936	0.3566	-0.488
Mof_O 	O 	0.9882	0.7266	0.3291	-0.339
Mof_O 	O 	0.3867	0.6273	0.8304	-0.286
Mof_O 	O 	0.9933	0.9936	0.6434	-0.498
Mof_O 	O 	0.0118	0.2266	0.6709	-0.335
Mof_O 	O 	0.6133	0.1273	0.1696	-0.287
_end
