data_functionalizedCrystal
_audit_creation_method	'EQeq! by Chris Wilmer'
_symmetry_space_group_name_H-M	'P1'
_symmetry_Int_Tables_number	1
_symmetry_cell_setting	triclinic
loop_
_symmetry_equiv_pos_as_xyz
  x,y,z
_cell_length_a	22.8951
_cell_length_b	22.8951
_cell_length_c	9.3454
_cell_angle_alpha	90
_cell_angle_beta	90
_cell_angle_gamma	90
loop_
_atom_site_label
_atom_site_type_symbol
_atom_site_fract_x
_atom_site_fract_y
_atom_site_fract_z
_atom_site_charge
Mof_N 	N 	0.9232	0.9503	0.1163	-0.199
Mof_C 	C 	0.858	0.8768	0.106	-0.081
Mof_H 	H 	0.8426	0.837	0.0999	0.032
Mof_C 	C 	0.9184	0.8925	0.1135	0.09
Mof_C 	C 	0.9659	0.853	0.1026	-0.112
Mof_C 	C 	0.8668	0.9749	0.1167	0.114
Mof_C 	C 	0.8263	0.9276	0.109	-0.088
Mof_H 	H 	0.7838	0.9313	0.1079	0.031
Mof_N 	N 	0.9266	0.6729	0.0472	-0.233
Mof_C 	C 	0.9384	0.6939	0.1837	0.293
Mof_H 	H 	0.9155	0.6716	0.2525	-0.097
Mof_C 	C 	0.951	0.7527	0.2038	-0.25
Mof_H 	H 	0.9673	0.7616	0.2968	0.087
Mof_C 	C 	0.9518	0.7905	0.0875	0.057
Mof_C 	C 	0.94	0.7695	0.951	-0.151
Mof_H 	H 	0.9455	0.7948	0.1287	0.11
Mof_C 	C 	0.9274	0.7107	0.0692	0.018
Mof_H 	H 	0.92	0.6958	0.1622	-0.152
Mof_N 	N 	0.0768	0.0497	0.1163	-0.212
Mof_C 	C 	0.142	0.1232	0.106	-0.1
Mof_H 	H 	0.1574	0.163	0.0999	0.036
Mof_C 	C 	0.0816	0.1075	0.1135	0.105
Mof_C 	C 	0.0341	0.147	0.1026	-0.17
Mof_C 	C 	0.1332	0.0251	0.1167	0.049
Mof_C 	C 	0.1737	0.0724	0.109	-0.064
Mof_H 	H 	0.2162	0.0687	0.1079	0.01
Mof_N 	N 	0.0734	0.3271	0.0472	-0.238
Mof_C 	C 	0.0616	0.3061	0.1837	0.307
Mof_H 	H 	0.0845	0.3284	0.2525	-0.105
Mof_C 	C 	0.049	0.2473	0.2038	-0.268
Mof_H 	H 	0.0327	0.2384	0.2968	0.08
Mof_C 	C 	0.0482	0.2095	0.0875	0.054
Mof_C 	C 	0.06	0.2305	0.951	-0.154
Mof_H 	H 	0.0545	0.2052	0.1287	0.12
Mof_C 	C 	0.0726	0.2893	0.0692	0.02
Mof_H 	H 	0.08	0.3042	0.1622	-0.162
Mof_N 	N 	0.0497	0.9232	0.1163	-0.2
Mof_C 	C 	0.1232	0.858	0.106	-0.092
Mof_H 	H 	0.163	0.8426	0.0999	0.033
Mof_C 	C 	0.1075	0.9184	0.1135	0.091
Mof_C 	C 	0.147	0.9659	0.1026	-0.112
Mof_C 	C 	0.0251	0.8668	0.1167	0.053
Mof_C 	C 	0.0724	0.8263	0.109	-0.068
Mof_H 	H 	0.0687	0.7838	0.1079	0.011
Mof_N 	N 	0.3271	0.9266	0.0472	-0.233
Mof_C 	C 	0.3061	0.9384	0.1837	0.292
Mof_H 	H 	0.3284	0.9155	0.2525	-0.098
Mof_C 	C 	0.2473	0.951	0.2038	-0.25
Mof_H 	H 	0.2384	0.9673	0.2968	0.086
Mof_C 	C 	0.2095	0.9518	0.0875	0.056
Mof_C 	C 	0.2305	0.94	0.951	-0.151
Mof_H 	H 	0.2052	0.9455	0.1287	0.11
Mof_C 	C 	0.2893	0.9274	0.0692	0.018
Mof_H 	H 	0.3042	0.92	0.1622	-0.152
Mof_N 	N 	0.9503	0.0768	0.1163	-0.211
Mof_C 	C 	0.8768	0.142	0.106	-0.089
Mof_H 	H 	0.837	0.1574	0.0999	0.035
Mof_C 	C 	0.8925	0.0816	0.1135	0.102
Mof_C 	C 	0.853	0.0341	0.1026	-0.166
Mof_C 	C 	0.9749	0.1332	0.1167	0.114
Mof_C 	C 	0.9276	0.1737	0.109	-0.087
Mof_H 	H 	0.9313	0.2162	0.1079	0.03
Mof_N 	N 	0.6729	0.0734	0.0472	-0.238
Mof_C 	C 	0.6939	0.0616	0.1837	0.307
Mof_H 	H 	0.6716	0.0845	0.2525	-0.104
Mof_C 	C 	0.7527	0.049	0.2038	-0.267
Mof_H 	H 	0.7616	0.0327	0.2968	0.081
Mof_C 	C 	0.7905	0.0482	0.0875	0.055
Mof_C 	C 	0.7695	0.06	0.951	-0.155
Mof_H 	H 	0.7948	0.0545	0.1287	0.119
Mof_C 	C 	0.7107	0.0726	0.0692	0.021
Mof_H 	H 	0.6958	0.08	0.1622	-0.163
Mof_N 	N 	0.5768	0.4503	0.8837	-0.212
Mof_C 	C 	0.642	0.3768	0.894	-0.064
Mof_H 	H 	0.6574	0.337	0.9001	0.055
Mof_C 	C 	0.5816	0.3925	0.8865	0.112
Mof_C 	C 	0.5341	0.353	0.8974	-0.098
Mof_C 	C 	0.6332	0.4749	0.8833	0.096
Mof_C 	C 	0.6737	0.4276	0.891	-0.051
Mof_H 	H 	0.7162	0.4313	0.8921	0.042
Mof_N 	N 	0.5734	0.1729	0.9528	-0.374
Mof_C 	C 	0.5616	0.1939	0.8163	0.135
Mof_H 	H 	0.5845	0.1716	0.7475	-0.025
Mof_C 	C 	0.549	0.2527	0.7962	-0.294
Mof_H 	H 	0.5327	0.2616	0.7032	0.1
Mof_C 	C 	0.5482	0.2905	0.9125	0.035
Mof_C 	C 	0.56	0.2695	0.049	-0.151
Mof_H 	H 	0.5545	0.2948	0.8713	0.14
Mof_C 	C 	0.5726	0.2107	0.9308	0.543
Mof_H 	H 	0.58	0.1958	0.8378	-0.208
Mof_N 	N 	0.4232	0.5497	0.8837	-0.212
Mof_C 	C 	0.358	0.6232	0.894	-0.065
Mof_H 	H 	0.3426	0.663	0.9001	0.054
Mof_C 	C 	0.4184	0.6075	0.8865	0.112
Mof_C 	C 	0.4659	0.647	0.8974	-0.098
Mof_C 	C 	0.3668	0.5251	0.8833	0.096
Mof_C 	C 	0.3263	0.5724	0.891	-0.051
Mof_H 	H 	0.2838	0.5687	0.8921	0.04
Mof_N 	N 	0.4266	0.8271	0.9528	-0.372
Mof_C 	C 	0.4384	0.8061	0.8163	0.128
Mof_H 	H 	0.4155	0.8284	0.7475	-0.021
Mof_C 	C 	0.451	0.7473	0.7962	-0.29
Mof_H 	H 	0.4673	0.7384	0.7032	0.101
Mof_C 	C 	0.4518	0.7095	0.9125	0.035
Mof_C 	C 	0.44	0.7305	0.049	-0.15
Mof_H 	H 	0.4455	0.7052	0.8713	0.139
Mof_C 	C 	0.4274	0.7893	0.9308	0.541
Mof_H 	H 	0.42	0.8042	0.8378	-0.203
Mof_N 	N 	0.4503	0.4232	0.8837	-0.212
Mof_C 	C 	0.3768	0.358	0.894	-0.065
Mof_H 	H 	0.337	0.3426	0.9001	0.054
Mof_C 	C 	0.3925	0.4184	0.8865	0.112
Mof_C 	C 	0.353	0.4659	0.8974	-0.098
Mof_C 	C 	0.4749	0.3668	0.8833	0.096
Mof_C 	C 	0.4276	0.3263	0.891	-0.051
Mof_H 	H 	0.4313	0.2838	0.8921	0.04
Mof_N 	N 	0.1729	0.4266	0.9528	-0.374
Mof_C 	C 	0.1939	0.4384	0.8163	0.135
Mof_H 	H 	0.1716	0.4155	0.7475	-0.025
Mof_C 	C 	0.2527	0.451	0.7962	-0.294
Mof_H 	H 	0.2616	0.4673	0.7032	0.1
Mof_C 	C 	0.2905	0.4518	0.9125	0.035
Mof_C 	C 	0.2695	0.44	0.049	-0.151
Mof_H 	H 	0.2948	0.4455	0.8713	0.14
Mof_C 	C 	0.2107	0.4274	0.9308	0.542
Mof_H 	H 	0.1958	0.42	0.8378	-0.207
Mof_N 	N 	0.5497	0.5768	0.8837	-0.212
Mof_C 	C 	0.6232	0.642	0.894	-0.064
Mof_H 	H 	0.663	0.6574	0.9001	0.055
Mof_C 	C 	0.6075	0.5816	0.8865	0.112
Mof_C 	C 	0.647	0.5341	0.8974	-0.098
Mof_C 	C 	0.5251	0.6332	0.8833	0.096
Mof_C 	C 	0.5724	0.6737	0.891	-0.051
Mof_H 	H 	0.5687	0.7162	0.8921	0.042
Mof_N 	N 	0.8271	0.5734	0.9528	-0.372
Mof_C 	C 	0.8061	0.5616	0.8163	0.129
Mof_H 	H 	0.8284	0.5845	0.7475	-0.021
Mof_C 	C 	0.7473	0.549	0.7962	-0.29
Mof_H 	H 	0.7384	0.5327	0.7032	0.101
Mof_C 	C 	0.7095	0.5482	0.9125	0.035
Mof_C 	C 	0.7305	0.56	0.049	-0.15
Mof_H 	H 	0.7052	0.5545	0.8713	0.139
Mof_C 	C 	0.7893	0.5726	0.9308	0.542
Mof_H 	H 	0.8042	0.58	0.8378	-0.203
Mof_N 	N 	0.0768	0.0497	0.8837	-0.207
Mof_C 	C 	0.142	0.1232	0.894	-0.074
Mof_H 	H 	0.1574	0.163	0.9001	0.057
Mof_C 	C 	0.0816	0.1075	0.8865	0.12
Mof_C 	C 	0.0341	0.147	0.8974	-0.126
Mof_C 	C 	0.1332	0.0251	0.8833	0.063
Mof_C 	C 	0.1737	0.0724	0.891	-0.039
Mof_H 	H 	0.2162	0.0687	0.8921	0.03
Mof_N 	N 	0.0734	0.3271	0.9528	-0.375
Mof_C 	C 	0.0616	0.3061	0.8163	0.139
Mof_H 	H 	0.0845	0.3284	0.7475	-0.027
Mof_C 	C 	0.049	0.2473	0.7962	-0.3
Mof_H 	H 	0.0327	0.2384	0.7032	0.097
Mof_C 	C 	0.0482	0.2095	0.9125	0.034
Mof_C 	C 	0.06	0.2305	0.049	-0.153
Mof_H 	H 	0.0545	0.2052	0.8713	0.144
Mof_C 	C 	0.0726	0.2893	0.9308	0.541
Mof_H 	H 	0.08	0.3042	0.8378	-0.21
Mof_N 	N 	0.9232	0.9503	0.8837	-0.195
Mof_C 	C 	0.858	0.8768	0.894	-0.055
Mof_H 	H 	0.8426	0.837	0.9001	0.052
Mof_C 	C 	0.9184	0.8925	0.8865	0.105
Mof_C 	C 	0.9659	0.853	0.8974	-0.068
Mof_C 	C 	0.8668	0.9749	0.8833	0.128
Mof_C 	C 	0.8263	0.9276	0.891	-0.063
Mof_H 	H 	0.7838	0.9313	0.8921	0.052
Mof_N 	N 	0.9266	0.6729	0.9528	-0.371
Mof_C 	C 	0.9384	0.6939	0.8163	0.125
Mof_H 	H 	0.9155	0.6716	0.7475	-0.019
Mof_C 	C 	0.951	0.7527	0.7962	-0.283
Mof_H 	H 	0.9673	0.7616	0.7032	0.105
Mof_C 	C 	0.9518	0.7905	0.9125	0.036
Mof_C 	C 	0.94	0.7695	0.049	-0.149
Mof_H 	H 	0.9455	0.7948	0.8713	0.134
Mof_C 	C 	0.9274	0.7107	0.9308	0.54
Mof_H 	H 	0.92	0.6958	0.8378	-0.2
Mof_N 	N 	0.9503	0.0768	0.8837	-0.206
Mof_C 	C 	0.8768	0.142	0.894	-0.062
Mof_H 	H 	0.837	0.1574	0.9001	0.055
Mof_C 	C 	0.8925	0.0816	0.8865	0.118
Mof_C 	C 	0.853	0.0341	0.8974	-0.122
Mof_C 	C 	0.9749	0.1332	0.8833	0.128
Mof_C 	C 	0.9276	0.1737	0.891	-0.062
Mof_H 	H 	0.9313	0.2162	0.8921	0.051
Mof_N 	N 	0.6729	0.0734	0.9528	-0.375
Mof_C 	C 	0.6939	0.0616	0.8163	0.14
Mof_H 	H 	0.6716	0.0845	0.7475	-0.026
Mof_C 	C 	0.7527	0.049	0.7962	-0.299
Mof_H 	H 	0.7616	0.0327	0.7032	0.099
Mof_C 	C 	0.7905	0.0482	0.9125	0.035
Mof_C 	C 	0.7695	0.06	0.049	-0.153
Mof_H 	H 	0.7948	0.0545	0.8713	0.143
Mof_C 	C 	0.7107	0.0726	0.9308	0.542
Mof_H 	H 	0.6958	0.08	0.8378	-0.211
Mof_N 	N 	0.0497	0.9232	0.8837	-0.196
Mof_C 	C 	0.1232	0.858	0.894	-0.066
Mof_H 	H 	0.163	0.8426	0.9001	0.054
Mof_C 	C 	0.1075	0.9184	0.8865	0.106
Mof_C 	C 	0.147	0.9659	0.8974	-0.068
Mof_C 	C 	0.0251	0.8668	0.8833	0.067
Mof_C 	C 	0.0724	0.8263	0.891	-0.042
Mof_H 	H 	0.0687	0.7838	0.8921	0.032
Mof_N 	N 	0.3271	0.9266	0.9528	-0.37
Mof_C 	C 	0.3061	0.9384	0.8163	0.125
Mof_H 	H 	0.3284	0.9155	0.7475	-0.02
Mof_C 	C 	0.2473	0.951	0.7962	-0.283
Mof_H 	H 	0.2384	0.9673	0.7032	0.104
Mof_C 	C 	0.2095	0.9518	0.9125	0.036
Mof_C 	C 	0.2305	0.94	0.049	-0.149
Mof_H 	H 	0.2052	0.9455	0.8713	0.134
Mof_C 	C 	0.2893	0.9274	0.9308	0.539
Mof_H 	H 	0.3042	0.92	0.8378	-0.2
Mof_N 	N 	0.4232	0.5497	0.1163	-0.217
Mof_C 	C 	0.358	0.6232	0.106	-0.091
Mof_H 	H 	0.3426	0.663	0.0999	0.033
Mof_C 	C 	0.4184	0.6075	0.1135	0.097
Mof_C 	C 	0.4659	0.647	0.1026	-0.143
Mof_C 	C 	0.3668	0.5251	0.1167	0.081
Mof_C 	C 	0.3263	0.5724	0.109	-0.077
Mof_H 	H 	0.2838	0.5687	0.1079	0.019
Mof_N 	N 	0.4266	0.8271	0.0472	-0.234
Mof_C 	C 	0.4384	0.8061	0.1837	0.297
Mof_H 	H 	0.4155	0.8284	0.2525	-0.099
Mof_C 	C 	0.451	0.7473	0.2038	-0.257
Mof_H 	H 	0.4673	0.7384	0.2968	0.083
Mof_C 	C 	0.4518	0.7095	0.0875	0.055
Mof_C 	C 	0.44	0.7305	0.951	-0.152
Mof_H 	H 	0.4455	0.7052	0.1287	0.115
Mof_C 	C 	0.4274	0.7893	0.0692	0.016
Mof_H 	H 	0.42	0.8042	0.1622	-0.155
Mof_N 	N 	0.5768	0.4503	0.1163	-0.217
Mof_C 	C 	0.642	0.3768	0.106	-0.091
Mof_H 	H 	0.6574	0.337	0.0999	0.035
Mof_C 	C 	0.5816	0.3925	0.1135	0.097
Mof_C 	C 	0.5341	0.353	0.1026	-0.143
Mof_C 	C 	0.6332	0.4749	0.1167	0.082
Mof_C 	C 	0.6737	0.4276	0.109	-0.077
Mof_H 	H 	0.7162	0.4313	0.1079	0.021
Mof_N 	N 	0.5734	0.1729	0.0472	-0.236
Mof_C 	C 	0.5616	0.1939	0.1837	0.304
Mof_H 	H 	0.5845	0.1716	0.2525	-0.103
Mof_C 	C 	0.549	0.2527	0.2038	-0.261
Mof_H 	H 	0.5327	0.2616	0.2968	0.083
Mof_C 	C 	0.5482	0.2905	0.0875	0.055
Mof_C 	C 	0.56	0.2695	0.951	-0.153
Mof_H 	H 	0.5545	0.2948	0.1287	0.116
Mof_C 	C 	0.5726	0.2107	0.0692	0.018
Mof_H 	H 	0.58	0.1958	0.1622	-0.16
Mof_N 	N 	0.5497	0.5768	0.1163	-0.217
Mof_C 	C 	0.6232	0.642	0.106	-0.091
Mof_H 	H 	0.663	0.6574	0.0999	0.034
Mof_C 	C 	0.6075	0.5816	0.1135	0.097
Mof_C 	C 	0.647	0.5341	0.1026	-0.143
Mof_C 	C 	0.5251	0.6332	0.1167	0.082
Mof_C 	C 	0.5724	0.6737	0.109	-0.077
Mof_H 	H 	0.5687	0.7162	0.1079	0.021
Mof_N 	N 	0.8271	0.5734	0.0472	-0.234
Mof_C 	C 	0.8061	0.5616	0.1837	0.298
Mof_H 	H 	0.8284	0.5845	0.2525	-0.099
Mof_C 	C 	0.7473	0.549	0.2038	-0.257
Mof_H 	H 	0.7384	0.5327	0.2968	0.084
Mof_C 	C 	0.7095	0.5482	0.0875	0.055
Mof_C 	C 	0.7305	0.56	0.951	-0.152
Mof_H 	H 	0.7052	0.5545	0.1287	0.115
Mof_C 	C 	0.7893	0.5726	0.0692	0.016
Mof_H 	H 	0.8042	0.58	0.1622	-0.155
Mof_N 	N 	0.4503	0.4232	0.1163	-0.217
Mof_C 	C 	0.3768	0.358	0.106	-0.091
Mof_H 	H 	0.337	0.3426	0.0999	0.033
Mof_C 	C 	0.3925	0.4184	0.1135	0.097
Mof_C 	C 	0.353	0.4659	0.1026	-0.143
Mof_C 	C 	0.4749	0.3668	0.1167	0.081
Mof_C 	C 	0.4276	0.3263	0.109	-0.077
Mof_H 	H 	0.4313	0.2838	0.1079	0.019
Mof_N 	N 	0.1729	0.4266	0.0472	-0.236
Mof_C 	C 	0.1939	0.4384	0.1837	0.303
Mof_H 	H 	0.1716	0.4155	0.2525	-0.103
Mof_C 	C 	0.2527	0.451	0.2038	-0.261
Mof_H 	H 	0.2616	0.4673	0.2968	0.083
Mof_C 	C 	0.2905	0.4518	0.0875	0.055
Mof_C 	C 	0.2695	0.44	0.951	-0.153
Mof_H 	H 	0.2948	0.4455	0.1287	0.116
Mof_C 	C 	0.2107	0.4274	0.0692	0.018
Mof_H 	H 	0.1958	0.42	0.1622	-0.159
Mof_Sn	Sn	1.79934e-34	0	0.11757	0.475
Mof_Sn	Sn	0.5	0.5	0.88243	0.684
Mof_Sn	Sn	-1.22603e-33	0	0.88243	0.618
Mof_Sn	Sn	0.5	0.5	0.11757	0.537
Mof_Zn	Zn	0.91468	0.58532	-0	1.085
Mof_Zn	Zn	0.08532	0.41468	-0	1.08
Mof_Zn	Zn	0.41468	0.91468	-0	1.085
Mof_Zn	Zn	0.58532	0.08532	-0	1.08
_end
