data_functionalizedCrystal
_audit_creation_method	'EQeq! by Chris Wilmer'
_symmetry_space_group_name_H-M	'P1'
_symmetry_Int_Tables_number	1
_symmetry_cell_setting	triclinic
loop_
_symmetry_equiv_pos_as_xyz
  x,y,z
_cell_length_a	8.464
_cell_length_b	7.613
_cell_length_c	13.176
_cell_angle_alpha	90
_cell_angle_beta	90.482
_cell_angle_gamma	90
loop_
_atom_site_label
_atom_site_type_symbol
_atom_site_fract_x
_atom_site_fract_y
_atom_site_fract_z
_atom_site_charge
Mof_C 	C 	0.9479	0.8287	0.61187	-0.236
Mof_N 	N 	0.9992	0.7085	0.57218	-0.103
Mof_C 	C 	0.9237	0.6615	0.11554	-0.241
Mof_N 	N 	0.9697	0.785	0.0764	-0.092
Mof_C 	C 	0.5954	0.3973	0.4762	-0.393
Mof_H 	H 	0.6036	0.2906	0.4349	0.125
Mof_H 	H 	0.6414	0.3756	0.5435	0.131
Mof_H 	H 	0.6527	0.4932	0.4431	0.1
Mof_C 	C 	0.4317	0.4451	0.4863	0.126
Mof_N 	N 	0.3021	0.4829	0.4944	-0.15
Mof_C 	C 	0.5304	0.2119	0.038	-0.103
Mof_H 	H 	0.5274	0.318	0.9959	0.042
Mof_H 	H 	0.6235	0.1419	0.0206	0.044
Mof_H 	H 	0.5361	0.2453	0.1097	0.041
Mof_C 	C 	0.3897	0.11	0.0199	-0.101
Mof_N 	N 	0.2783	0.029	0.0055	-0.032
Mof_C 	C 	0.69018	0.00869	0.66041	-0.139
Mof_C 	C 	0.60914	0.1235	0.7233	0.063
Mof_H 	H 	0.6659	0.1971	0.7691	-0.009
Mof_C 	C 	0.44512	0.1307	0.7194	-0.098
Mof_H 	H 	0.3897	0.2092	0.7624	0.034
Mof_C 	C 	0.36211	0.023	0.65251	-0.074
Mof_H 	H 	0.25	0.0278	0.6498	-0.61
Mof_C 	C 	0.44315	0.0919	0.5896	0.032
Mof_H 	H 	0.3864	0.1655	0.5439	-0.011
Mof_C 	C 	0.60718	0.901	0.5935	0.169
Mof_H 	H 	0.6626	0.8225	0.5505	-0.051
Mof_C 	C 	0.66549	0.48663	0.18011	-0.153
Mof_C 	C 	0.5943	0.3497	0.2324	-0.002
Mof_H 	H 	0.6576	0.2641	0.266	0.005
Mof_C 	C 	0.43053	0.3378	0.2356	-0.078
Mof_H 	H 	0.3819	0.2442	0.2713	0.012
Mof_C 	C 	0.33797	0.463	0.18641	0.048
Mof_H 	H 	0.226	0.4549	0.1886	-0.042
Mof_C 	C 	0.40916	0.4001	0.13412	-0.143
Mof_H 	H 	0.3459	0.3145	0.1005	0.046
Mof_C 	C 	0.57292	0.3882	0.13097	0.113
Mof_H 	H 	0.6216	0.2946	0.0952	-0.03
Mof_C 	C 	0.5612	0.12	0.9693	0.08
Mof_H 	H 	0.6241	0.0197	0.947	-0.028
Mof_H 	H 	0.6104	0.1728	0.0297	-0.107
Mof_H 	H 	0.5563	0.2081	0.9149	-0.014
Mof_C 	C 	0.4038	0.063	0.9932	-0.103
Mof_N 	N 	0.2792	0.017	0.0121	-0.039
Mof_C 	C 	0.563	0.974	0.0835	-0.344
Mof_H 	H 	0.6044	0.0911	0.0986	0.242
Mof_H 	H 	0.6308	0.9161	0.0336	-0.291
Mof_H 	H 	0.5615	0.9037	0.146	-0.088
Mof_C 	C 	0.4049	0.988	0.0432	0.146
Mof_C 	C 	0.5728	0.051	0.9696	-0.009
Mof_H 	H 	0.6235	0.065	0.9671	-0.026
Mof_H 	H 	0.5809	0.1074	0.9031	0.009
Mof_H 	H 	0.6257	0.1235	0.0209	0.079
Mof_C 	C 	0.4089	0.97	0.9954	0.023
Mof_N 	N 	0.2791	0.986	0.0158	-0.052
Mof_C 	C 	0.9479	0.1713	0.61187	-0.228
Mof_N 	N 	0.9992	0.2915	0.57218	-0.094
Mof_C 	C 	0.9237	0.3385	0.11554	-0.239
Mof_N 	N 	0.9697	0.215	0.0764	-0.097
Mof_C 	C 	0.5954	0.6027	0.4762	-0.362
Mof_H 	H 	0.6036	0.7094	0.4349	0.122
Mof_H 	H 	0.6414	0.6244	0.5435	0.126
Mof_H 	H 	0.6527	0.5068	0.4431	0.104
Mof_C 	C 	0.4317	0.5549	0.4863	0.066
Mof_N 	N 	0.3021	0.5171	0.4944	-0.159
Mof_C 	C 	0.5304	0.7881	0.038	-0.582
Mof_H 	H 	0.5274	0.682	0.9959	0.175
Mof_H 	H 	0.6235	0.8581	0.0206	0.209
Mof_H 	H 	0.5361	0.7547	0.1097	0.192
Mof_C 	C 	0.3897	0.89	0.0199	-0.016
Mof_N 	N 	0.2783	0.971	0.0055	-0.023
Mof_C 	C 	0.69018	0.99131	0.66041	-0.177
Mof_C 	C 	0.60914	0.8765	0.7233	0.063
Mof_H 	H 	0.6659	0.8029	0.7691	-0.01
Mof_C 	C 	0.44512	0.8693	0.7194	-0.141
Mof_H 	H 	0.3897	0.7908	0.7624	0.024
Mof_C 	C 	0.36211	0.977	0.65251	0.163
Mof_H 	H 	0.25	0.9722	0.6498	0.538
Mof_C 	C 	0.44315	0.9081	0.5896	-0.24
Mof_H 	H 	0.3864	0.8345	0.5439	0.057
Mof_C 	C 	0.60718	0.099	0.5935	-0.024
Mof_H 	H 	0.6626	0.1775	0.5505	0.011
Mof_C 	C 	0.66549	0.51337	0.18011	-0.159
Mof_C 	C 	0.5943	0.6503	0.2324	0.027
Mof_H 	H 	0.6576	0.7359	0.266	-0.002
Mof_C 	C 	0.43053	0.6622	0.2356	-0.113
Mof_H 	H 	0.3819	0.7558	0.2713	0.028
Mof_C 	C 	0.33797	0.537	0.18641	0.059
Mof_H 	H 	0.226	0.5451	0.1886	-0.046
Mof_C 	C 	0.40916	0.5999	0.13412	-0.105
Mof_H 	H 	0.3459	0.6855	0.1005	0.037
Mof_C 	C 	0.57292	0.6118	0.13097	0.046
Mof_H 	H 	0.6216	0.7054	0.0952	-0.036
Mof_C 	C 	0.5612	0.88	0.9693	-0.039
Mof_H 	H 	0.6241	0.9803	0.947	0.018
Mof_H 	H 	0.6104	0.8272	0.0297	0.078
Mof_H 	H 	0.5563	0.7919	0.9149	0.01
Mof_C 	C 	0.4038	0.937	0.9932	0.03
Mof_N 	N 	0.2792	0.983	0.0121	-0.059
Mof_C 	C 	0.563	0.026	0.0835	-0.225
Mof_H 	H 	0.6044	0.9089	0.0986	0.417
Mof_H 	H 	0.6308	0.0839	0.0336	0.015
Mof_H 	H 	0.5615	0.0963	0.146	-0.015
Mof_C 	C 	0.4049	0.012	0.0432	0.215
Mof_C 	C 	0.5728	0.949	0.9696	-0.066
Mof_H 	H 	0.6235	0.935	0.9671	0.096
Mof_H 	H 	0.5809	0.8926	0.9031	0.009
Mof_H 	H 	0.6257	0.8765	0.0209	0.111
Mof_C 	C 	0.4089	0.03	0.9954	-0.03
Mof_N 	N 	0.2791	0.014	0.0158	-0.025
Mof_Cu	Cu	0.08048	0.5	0.50338	0.737
Mof_C 	C 	0.9391	0.5	0.28544	-0.233
Mof_N 	N 	0.9906	0.5	0.36566	-0.096
Mof_B 	B 	0.8625	0.5	0.17665	0.908
Mof_Cu	Cu	0.04892	0	0.00538	0.723
Mof_C 	C 	0.9365	0	0.7799	-0.241
Mof_N 	N 	0.9798	0	0.86258	-0.104
Mof_B 	B 	0.88789	0	0.66513	0.893
Mof_N 	N 	0.2798	2.32295e-34	0.0112	-0.039
_end
