data_functionalizedCrystal
_audit_creation_method	'EQeq! by Chris Wilmer'
_symmetry_space_group_name_H-M	'P1'
_symmetry_Int_Tables_number	1
_symmetry_cell_setting	triclinic
loop_
_symmetry_equiv_pos_as_xyz
  x,y,z
_cell_length_a	15.7886
_cell_length_b	15.9425
_cell_length_c	16.3286
_cell_angle_alpha	90
_cell_angle_beta	90
_cell_angle_gamma	90
loop_
_atom_site_label
_atom_site_type_symbol
_atom_site_fract_x
_atom_site_fract_y
_atom_site_fract_z
_atom_site_charge
Mof_Zn	Zn	0.29782	0.18239	0.16349	1.131
Mof_Zn	Zn	0.35625	0.84386	0.32429	1.134
Mof_N 	N 	0.3569	0.9508	0.2637	-0.32
Mof_N 	N 	0.3386	0.0749	0.2141	-0.321
Mof_N 	N 	0.2017	0.1419	0.9312	-0.323
Mof_C 	C 	0.3018	0.014	0.2491	0.276
Mof_N 	N 	0.5995	0.7531	0.3524	-0.321
Mof_N 	N 	0.4758	0.8101	0.3499	-0.316
Mof_N 	N 	0.2529	0.1508	0.0537	-0.314
Mof_C 	C 	0.5338	0.772	0.3057	0.29
Mof_C 	C 	0.2218	0.1929	0.9903	0.277
Mof_N 	N 	0.4236	0.0537	0.2066	-0.096
Mof_N 	N 	0.4347	0.9814	0.238	-0.104
Mof_N 	N 	0.5036	0.8125	0.4284	-0.098
Mof_N 	N 	0.5791	0.7769	0.4306	-0.103
Mof_C 	C 	0.2099	0.0072	0.2611	-0.757
Mof_H 	H 	0.1972	0.9557	0.289	0.187
Mof_H 	H 	0.1904	0.0537	0.2933	0.183
Mof_H 	H 	0.1821	0.0077	0.2088	0.191
Mof_C 	C 	0.53	0.7588	0.2191	-0.797
Mof_H 	H 	0.5799	0.7296	0.2014	0.192
Mof_H 	H 	0.4808	0.726	0.206	0.194
Mof_H 	H 	0.5267	0.812	0.1917	0.207
Mof_N 	N 	0.2222	0.0623	0.9591	-0.101
Mof_C 	C 	0.2093	0.2833	0.9893	-0.766
Mof_H 	H 	0.2292	0.3068	0.0399	0.181
Mof_H 	H 	0.2404	0.3072	0.9445	0.189
Mof_H 	H 	0.1501	0.2955	0.9828	0.197
Mof_N 	N 	0.2502	0.0698	0.0341	-0.097
Mof_Zn	Zn	0.20218	0.81761	0.66349	1.132
Mof_Zn	Zn	0.14375	0.15614	0.82429	1.135
Mof_N 	N 	0.1431	0.0492	0.7637	-0.319
Mof_N 	N 	0.1614	0.9251	0.7141	-0.32
Mof_N 	N 	0.2983	0.8581	0.4312	-0.323
Mof_C 	C 	0.1982	0.986	0.7491	0.276
Mof_N 	N 	0.9005	0.2469	0.8524	-0.321
Mof_N 	N 	0.0242	0.1899	0.8499	-0.316
Mof_N 	N 	0.2471	0.8492	0.5537	-0.314
Mof_C 	C 	0.9662	0.228	0.8057	0.29
Mof_C 	C 	0.2782	0.8071	0.4903	0.278
Mof_N 	N 	0.0764	0.9463	0.7066	-0.096
Mof_N 	N 	0.0653	0.0186	0.738	-0.105
Mof_N 	N 	0.9964	0.1875	0.9284	-0.098
Mof_N 	N 	0.9209	0.2231	0.9306	-0.103
Mof_C 	C 	0.2901	0.9928	0.7611	-0.753
Mof_H 	H 	0.3028	0.0443	0.789	0.185
Mof_H 	H 	0.3096	0.9463	0.7933	0.182
Mof_H 	H 	0.3179	0.9923	0.7088	0.19
Mof_C 	C 	0.97	0.2412	0.7191	-0.796
Mof_H 	H 	0.9201	0.2704	0.7014	0.192
Mof_H 	H 	0.0192	0.274	0.706	0.194
Mof_H 	H 	0.9733	0.188	0.6917	0.207
Mof_N 	N 	0.2778	0.9377	0.4591	-0.101
Mof_C 	C 	0.2907	0.7167	0.4893	-0.766
Mof_H 	H 	0.2708	0.6932	0.5399	0.181
Mof_H 	H 	0.2596	0.6928	0.4445	0.189
Mof_H 	H 	0.3499	0.7045	0.4828	0.198
Mof_N 	N 	0.2498	0.9302	0.5341	-0.097
Mof_Zn	Zn	0.70218	0.68239	0.33651	1.132
Mof_Zn	Zn	0.64375	0.34386	0.17571	1.135
Mof_N 	N 	0.6431	0.4508	0.2363	-0.319
Mof_N 	N 	0.6614	0.5749	0.2859	-0.32
Mof_N 	N 	0.7983	0.6419	0.5688	-0.323
Mof_C 	C 	0.6982	0.514	0.2509	0.276
Mof_N 	N 	0.4005	0.2531	0.1476	-0.321
Mof_N 	N 	0.5242	0.3101	0.1501	-0.316
Mof_N 	N 	0.7471	0.6508	0.4463	-0.314
Mof_C 	C 	0.4662	0.272	0.1943	0.291
Mof_C 	C 	0.7782	0.6929	0.5097	0.278
Mof_N 	N 	0.5764	0.5537	0.2934	-0.096
Mof_N 	N 	0.5653	0.4814	0.262	-0.104
Mof_N 	N 	0.4964	0.3125	0.0716	-0.098
Mof_N 	N 	0.4209	0.2769	0.0694	-0.103
Mof_C 	C 	0.7901	0.5072	0.2389	-0.756
Mof_H 	H 	0.8028	0.4557	0.211	0.186
Mof_H 	H 	0.8096	0.5537	0.2067	0.183
Mof_H 	H 	0.8179	0.5077	0.2912	0.191
Mof_C 	C 	0.47	0.2588	0.2809	-0.798
Mof_H 	H 	0.4201	0.2296	0.2986	0.192
Mof_H 	H 	0.5192	0.226	0.294	0.195
Mof_H 	H 	0.4733	0.312	0.3083	0.207
Mof_N 	N 	0.7778	0.5623	0.5409	-0.101
Mof_C 	C 	0.7907	0.7833	0.5107	-0.766
Mof_H 	H 	0.7708	0.8068	0.4601	0.181
Mof_H 	H 	0.7596	0.8072	0.5555	0.189
Mof_H 	H 	0.8499	0.7955	0.5172	0.198
Mof_N 	N 	0.7498	0.5698	0.4659	-0.097
Mof_Zn	Zn	0.79782	0.31761	0.83651	1.132
Mof_Zn	Zn	0.85625	0.65614	0.67571	1.135
Mof_N 	N 	0.8569	0.5492	0.7363	-0.319
Mof_N 	N 	0.8386	0.4251	0.7859	-0.32
Mof_N 	N 	0.7017	0.3581	0.0688	-0.323
Mof_C 	C 	0.8018	0.486	0.7509	0.276
Mof_N 	N 	0.0995	0.7469	0.6476	-0.321
Mof_N 	N 	0.9758	0.6899	0.6501	-0.316
Mof_N 	N 	0.7529	0.3492	0.9463	-0.314
Mof_C 	C 	0.0338	0.728	0.6943	0.29
Mof_C 	C 	0.7218	0.3071	0.0097	0.277
Mof_N 	N 	0.9236	0.4463	0.7934	-0.096
Mof_N 	N 	0.9347	0.5186	0.762	-0.104
Mof_N 	N 	0.0036	0.6875	0.5716	-0.098
Mof_N 	N 	0.0791	0.7231	0.5694	-0.103
Mof_C 	C 	0.7099	0.4928	0.7389	-0.756
Mof_H 	H 	0.6972	0.5443	0.711	0.186
Mof_H 	H 	0.6904	0.4463	0.7067	0.183
Mof_H 	H 	0.6821	0.4923	0.7912	0.191
Mof_C 	C 	0.03	0.7412	0.7809	-0.795
Mof_H 	H 	0.0799	0.7704	0.7986	0.192
Mof_H 	H 	0.9808	0.774	0.794	0.193
Mof_H 	H 	0.0267	0.688	0.8083	0.206
Mof_N 	N 	0.7222	0.4377	0.0409	-0.1
Mof_C 	C 	0.7093	0.2167	0.0107	-0.763
Mof_H 	H 	0.7292	0.1932	0.9601	0.18
Mof_H 	H 	0.7404	0.1928	0.0555	0.189
Mof_H 	H 	0.6501	0.2045	0.0172	0.197
Mof_N 	N 	0.7502	0.4302	0.9659	-0.097
_end
