data_functionalizedCrystal
_audit_creation_method	'EQeq! by Chris Wilmer'
_symmetry_space_group_name_H-M	'P1'
_symmetry_Int_Tables_number	1
_symmetry_cell_setting	triclinic
loop_
_symmetry_equiv_pos_as_xyz
  x,y,z
_cell_length_a	27.3195
_cell_length_b	27.3195
_cell_length_c	27.3195
_cell_angle_alpha	90
_cell_angle_beta	90
_cell_angle_gamma	90
loop_
_atom_site_label
_atom_site_type_symbol
_atom_site_fract_x
_atom_site_fract_y
_atom_site_fract_z
_atom_site_charge
Mof_Ce	Ce	0.40251	4.95213e-33	0.5	3.029
Mof_Ce	Ce	0.90251	0	-0	2.635
Mof_Ce	Ce	0.90251	0.5	0.5	3.533
Mof_Ce	Ce	0.59749	4.95213e-33	0.5	3.039
Mof_Ce	Ce	0.09749	0	-0	2.598
Mof_Ce	Ce	0.09749	0.5	0.5	3.503
Mof_Ce	Ce	0.59749	0.5	-0	3.039
Mof_Ce	Ce	0.40251	0.5	-0	3.029
Mof_Ce	Ce	0.5	0.40251	-0	3.029
Mof_Ce	Ce	0.5	0.90251	0.5	3.533
Mof_Ce	Ce	0.5	0.59749	-0	3.038
Mof_Ce	Ce	0.5	0.09749	0.5	3.502
Mof_Ce	Ce	1.23803e-33	0.09749	-0	2.597
Mof_Ce	Ce	9.90426e-33	0.90251	-0	2.634
Mof_Ce	Ce	6.4613e-33	0.5	0.40251	3.028
Mof_Ce	Ce	1.32881e-32	9.90426e-33	0.90251	2.634
Mof_Ce	Ce	0.5	0.5	0.90251	3.532
Mof_Ce	Ce	-7.66403e-33	0.5	0.59749	3.038
Mof_Ce	Ce	1.60356e-33	1.23803e-33	0.09749	2.597
Mof_Ce	Ce	0.5	0.5	0.09749	3.502
Mof_Ce	Ce	0.5	0	0.59749	3.038
Mof_Ce	Ce	0.5	0	0.40251	3.028
Mof_Ce	Ce	6.82683e-33	0.40251	0.5	3.028
Mof_Ce	Ce	-8.02956e-33	0.59749	0.5	3.038
Mof_O 	O 	0.36342	4.95213e-33	0.42183	-0.676
Mof_C 	C 	0.2915	4.95213e-33	0.35484	0.056
Mof_C 	C 	0.25548	-2.47607e-33	0.31806	-0.062
Mof_N 	N 	0.31806	0	0.25548	-0.136
Mof_O 	O 	0.36342	0.5	0.92183	-0.583
Mof_C 	C 	0.2915	0.5	0.85484	0.121
Mof_C 	C 	0.25548	0.5	0.81806	-0.022
Mof_N 	N 	0.31806	0.5	0.75548	-0.123
Mof_O 	O 	0.86342	0	0.92183	-0.548
Mof_C 	C 	0.7915	9.90426e-33	0.85484	0.102
Mof_C 	C 	0.75548	9.90426e-33	0.81806	-0.032
Mof_N 	N 	0.81806	0	0.75548	-0.121
Mof_O 	O 	0.86342	0.5	0.42183	-0.689
Mof_C 	C 	0.7915	0.5	0.35484	0.093
Mof_C 	C 	0.75548	0.5	0.31806	-0.036
Mof_N 	N 	0.81806	0.5	0.25548	-0.117
Mof_O 	O 	0.63658	4.95213e-33	0.42183	-0.673
Mof_C 	C 	0.7085	4.95213e-33	0.35484	0.066
Mof_C 	C 	0.74452	-2.47607e-33	0.31806	-0.04
Mof_N 	N 	0.68194	0	0.25548	-0.134
Mof_O 	O 	0.63658	0.5	0.92183	-0.58
Mof_C 	C 	0.7085	0.5	0.85484	0.131
Mof_C 	C 	0.74452	0.5	0.81806	-0
Mof_N 	N 	0.68194	0.5	0.75548	-0.121
Mof_O 	O 	0.13658	0	0.92183	-0.551
Mof_C 	C 	0.2085	9.90426e-33	0.85484	0.093
Mof_C 	C 	0.24452	9.90426e-33	0.81806	-0.035
Mof_N 	N 	0.18194	0	0.75548	-0.133
Mof_O 	O 	0.13658	0.5	0.42183	-0.694
Mof_C 	C 	0.2085	0.5	0.35484	0.084
Mof_C 	C 	0.24452	0.5	0.31806	-0.039
Mof_N 	N 	0.18194	0.5	0.25548	-0.129
Mof_O 	O 	0.63658	0	0.57817	-0.673
Mof_C 	C 	0.7085	0	0.64516	0.07
Mof_C 	C 	0.74452	4.95213e-33	0.68194	-0.038
Mof_N 	N 	0.68194	0	0.74452	-0.124
Mof_O 	O 	0.63658	0.5	0.07817	-0.651
Mof_C 	C 	0.7085	0.5	0.14516	0.088
Mof_C 	C 	0.74452	0.5	0.18194	-0.025
Mof_N 	N 	0.68194	0.5	0.24452	-0.123
Mof_O 	O 	0.13658	6.19016e-34	0.07817	-0.622
Mof_C 	C 	0.2085	1.23803e-33	0.14516	0.05
Mof_C 	C 	0.24452	0	0.18194	-0.06
Mof_N 	N 	0.18194	2.47607e-33	0.24452	-0.135
Mof_O 	O 	0.13658	0.5	0.57817	-0.694
Mof_C 	C 	0.2085	0.5	0.64516	0.088
Mof_C 	C 	0.24452	0.5	0.68194	-0.037
Mof_N 	N 	0.18194	0.5	0.74452	-0.119
Mof_O 	O 	0.36342	0	0.57817	-0.676
Mof_C 	C 	0.2915	0	0.64516	0.06
Mof_C 	C 	0.25548	4.95213e-33	0.68194	-0.06
Mof_N 	N 	0.31806	0	0.74452	-0.127
Mof_O 	O 	0.36342	0.5	0.07817	-0.654
Mof_C 	C 	0.2915	0.5	0.14516	0.078
Mof_C 	C 	0.25548	0.5	0.18194	-0.048
Mof_N 	N 	0.31806	0.5	0.24452	-0.125
Mof_O 	O 	0.86342	6.19016e-34	0.07817	-0.618
Mof_C 	C 	0.7915	1.23803e-33	0.14516	0.059
Mof_C 	C 	0.75548	0	0.18194	-0.058
Mof_N 	N 	0.81806	2.47607e-33	0.24452	-0.124
Mof_O 	O 	0.86342	0.5	0.57817	-0.689
Mof_C 	C 	0.7915	0.5	0.64516	0.098
Mof_C 	C 	0.75548	0.5	0.68194	-0.034
Mof_N 	N 	0.81806	0.5	0.74452	-0.108
Mof_O 	O 	0.42183	0.36342	-0	-0.676
Mof_C 	C 	0.35484	0.2915	-0	0.056
Mof_C 	C 	0.31806	0.25548	-0	-0.062
Mof_N 	N 	0.25548	0.31806	-0	-0.136
Mof_O 	O 	0.42183	0.86342	0.5	-0.689
Mof_C 	C 	0.35484	0.7915	0.5	0.093
Mof_C 	C 	0.31806	0.75548	0.5	-0.036
Mof_N 	N 	0.25548	0.81806	0.5	-0.117
Mof_O 	O 	0.92183	0.36342	0.5	-0.583
Mof_C 	C 	0.85484	0.2915	0.5	0.121
Mof_C 	C 	0.81806	0.25548	0.5	-0.022
Mof_N 	N 	0.75548	0.31806	0.5	-0.123
Mof_O 	O 	0.92183	0.86342	-0	-0.548
Mof_C 	C 	0.85484	0.7915	-0	0.102
Mof_C 	C 	0.81806	0.75548	-0	-0.032
Mof_N 	N 	0.75548	0.81806	-0	-0.121
Mof_O 	O 	0.42183	0.63658	-0	-0.673
Mof_C 	C 	0.35484	0.7085	-0	0.066
Mof_C 	C 	0.31806	0.74452	-0	-0.04
Mof_N 	N 	0.25548	0.68194	-0	-0.134
Mof_O 	O 	0.42183	0.13658	0.5	-0.694
Mof_C 	C 	0.35484	0.2085	0.5	0.084
Mof_C 	C 	0.31806	0.24452	0.5	-0.039
Mof_N 	N 	0.25548	0.18194	0.5	-0.129
Mof_O 	O 	0.92183	0.63658	0.5	-0.58
Mof_C 	C 	0.85484	0.7085	0.5	0.131
Mof_C 	C 	0.81806	0.74452	0.5	-0
Mof_N 	N 	0.75548	0.68194	0.5	-0.121
Mof_O 	O 	0.92183	0.13658	-0	-0.551
Mof_C 	C 	0.85484	0.2085	-0	0.093
Mof_C 	C 	0.81806	0.24452	-0	-0.035
Mof_N 	N 	0.75548	0.18194	-0	-0.133
Mof_O 	O 	0.57817	0.63658	-0	-0.673
Mof_C 	C 	0.64516	0.7085	-0	0.07
Mof_C 	C 	0.68194	0.74452	-0	-0.038
Mof_N 	N 	0.74452	0.68194	-0	-0.124
Mof_O 	O 	0.57817	0.13658	0.5	-0.694
Mof_C 	C 	0.64516	0.2085	0.5	0.088
Mof_C 	C 	0.68194	0.24452	0.5	-0.037
Mof_N 	N 	0.74452	0.18194	0.5	-0.119
Mof_O 	O 	0.07817	0.63658	0.5	-0.651
Mof_C 	C 	0.14516	0.7085	0.5	0.088
Mof_C 	C 	0.18194	0.74452	0.5	-0.025
Mof_N 	N 	0.24452	0.68194	0.5	-0.123
Mof_O 	O 	0.07817	0.13658	-0	-0.622
Mof_C 	C 	0.14516	0.2085	-0	0.05
Mof_C 	C 	0.18194	0.24452	-0	-0.06
Mof_N 	N 	0.24452	0.18194	-0	-0.135
Mof_O 	O 	0.57817	0.36342	-0	-0.676
Mof_C 	C 	0.64516	0.2915	-0	0.06
Mof_C 	C 	0.68194	0.25548	-0	-0.06
Mof_N 	N 	0.74452	0.31806	-0	-0.127
Mof_O 	O 	0.57817	0.86342	0.5	-0.689
Mof_C 	C 	0.64516	0.7915	0.5	0.098
Mof_C 	C 	0.68194	0.75548	0.5	-0.034
Mof_N 	N 	0.74452	0.81806	0.5	-0.108
Mof_O 	O 	0.07817	0.36342	0.5	-0.654
Mof_C 	C 	0.14516	0.2915	0.5	0.078
Mof_C 	C 	0.18194	0.25548	0.5	-0.048
Mof_N 	N 	0.24452	0.31806	0.5	-0.125
Mof_O 	O 	0.07817	0.86342	-0	-0.618
Mof_C 	C 	0.14516	0.7915	-0	0.059
Mof_C 	C 	0.18194	0.75548	-0	-0.058
Mof_N 	N 	0.24452	0.81806	-0	-0.124
Mof_O 	O 	3.83867e-33	0.42183	0.36342	-0.676
Mof_C 	C 	3.56902e-33	0.35484	0.2915	0.056
Mof_C 	C 	5.91003e-33	0.31806	0.25548	-0.062
Mof_N 	N 	3.6686e-33	0.25548	0.31806	-0.136
Mof_O 	O 	3.23731e-33	0.92183	0.86342	-0.548
Mof_C 	C 	2.27762e-32	0.85484	0.7915	0.102
Mof_C 	C 	1.27369e-32	0.81806	0.75548	-0.032
Mof_N 	N 	1.29715e-32	0.75548	0.81806	-0.121
Mof_O 	O 	0.5	0.42183	0.86342	-0.689
Mof_C 	C 	0.5	0.35484	0.7915	0.093
Mof_C 	C 	0.5	0.31806	0.75548	-0.036
Mof_N 	N 	0.5	0.25548	0.81806	-0.117
Mof_O 	O 	0.5	0.92183	0.36342	-0.583
Mof_C 	C 	0.5	0.85484	0.2915	0.121
Mof_C 	C 	0.5	0.81806	0.25548	-0.022
Mof_N 	N 	0.5	0.75548	0.31806	-0.123
Mof_O 	O 	1.22911e-32	0.42183	0.63658	-0.673
Mof_C 	C 	-2.29568e-33	0.35484	0.7085	0.066
Mof_C 	C 	2.7915e-33	0.31806	0.74452	-0.04
Mof_N 	N 	1.24611e-32	0.25548	0.68194	-0.134
Mof_O 	O 	9.17832e-33	0.92183	0.13658	-0.551
Mof_C 	C 	1.56381e-32	0.85484	0.2085	0.093
Mof_C 	C 	1.32971e-32	0.81806	0.24452	-0.035
Mof_N 	N 	8.11036e-33	0.75548	0.18194	-0.133
Mof_O 	O 	0.5	0.42183	0.13658	-0.694
Mof_C 	C 	0.5	0.35484	0.2085	0.084
Mof_C 	C 	0.5	0.31806	0.24452	-0.039
Mof_N 	N 	0.5	0.25548	0.18194	-0.129
Mof_O 	O 	0.5	0.92183	0.63658	-0.58
Mof_C 	C 	0.5	0.85484	0.7085	0.131
Mof_C 	C 	0.5	0.81806	0.74452	-0
Mof_N 	N 	0.5	0.75548	0.68194	-0.121
Mof_O 	O 	-2.56534e-33	0.57817	0.63658	-0.673
Mof_C 	C 	7.60858e-33	0.64516	0.7085	0.07
Mof_C 	C 	2.26e-32	0.68194	0.74452	-0.038
Mof_N 	N 	1.74133e-32	0.74452	0.68194	-0.124
Mof_O 	O 	1.75013e-33	0.07817	0.13658	-0.622
Mof_C 	C 	5.73388e-33	0.14516	0.2085	0.05
Mof_C 	C 	5.86893e-33	0.18194	0.24452	-0.06
Mof_N 	N 	5.6343e-33	0.24452	0.18194	-0.135
Mof_O 	O 	0.5	0.57817	0.13658	-0.694
Mof_C 	C 	0.5	0.64516	0.2085	0.088
Mof_C 	C 	0.5	0.68194	0.24452	-0.037
Mof_N 	N 	0.5	0.74452	0.18194	-0.119
Mof_O 	O 	0.5	0.07817	0.63658	-0.651
Mof_C 	C 	0.5	0.14516	0.7085	0.088
Mof_C 	C 	0.5	0.18194	0.74452	-0.025
Mof_N 	N 	0.5	0.24452	0.68194	-0.123
Mof_O 	O 	8.7908e-33	0.57817	0.36342	-0.676
Mof_C 	C 	6.04508e-33	0.64516	0.2915	0.06
Mof_C 	C 	1.33382e-32	0.68194	0.25548	-0.06
Mof_N 	N 	8.62073e-33	0.74452	0.31806	-0.127
Mof_O 	O 	1.31416e-32	0.07817	0.86342	-0.618
Mof_C 	C 	2.96765e-33	0.14516	0.7915	0.059
Mof_C 	C 	2.8326e-33	0.18194	0.75548	-0.058
Mof_N 	N 	1.29715e-32	0.24452	0.81806	-0.124
Mof_O 	O 	0.5	0.57817	0.86342	-0.689
Mof_C 	C 	0.5	0.64516	0.7915	0.098
Mof_C 	C 	0.5	0.68194	0.75548	-0.034
Mof_N 	N 	0.5	0.74452	0.81806	-0.108
Mof_O 	O 	0.5	0.07817	0.36342	-0.654
Mof_C 	C 	0.5	0.14516	0.2915	0.078
Mof_C 	C 	0.5	0.18194	0.25548	-0.048
Mof_N 	N 	0.5	0.24452	0.31806	-0.125
Mof_O 	O 	7.11992e-33	0.36342	0.57817	-0.676
Mof_C 	C 	2.41896e-33	0.2915	0.64516	0.09
Mof_O 	O 	1.32924e-32	0.86342	0.07817	-0.618
Mof_C 	C 	3.02033e-33	0.7915	0.14516	0.09
Mof_O 	O 	0.5	0.36342	0.07817	-0.655
Mof_C 	C 	0.5	0.2915	0.14516	0.112
Mof_O 	O 	0.5	0.86342	0.57817	-0.69
Mof_C 	C 	0.5	0.7915	0.64516	0.133
Mof_O 	O 	-2.78434e-33	0.63658	0.57817	-0.673
Mof_C 	C 	7.37109e-33	0.7085	0.64516	0.107
Mof_O 	O 	2.15014e-33	0.13658	0.07817	-0.622
Mof_C 	C 	5.49639e-33	0.2085	0.14516	0.081
Mof_O 	O 	0.5	0.63658	0.07817	-0.652
Mof_C 	C 	0.5	0.7085	0.14516	0.128
Mof_O 	O 	0.5	0.13658	0.57817	-0.695
Mof_C 	C 	0.5	0.2085	0.64516	0.124
Mof_O 	O 	1.14859e-32	0.63658	0.42183	-0.674
Mof_C 	C 	3.8065e-33	0.7085	0.35484	0.103
Mof_O 	O 	1.33606e-32	0.13658	0.92183	-0.553
Mof_C 	C 	1.31094e-32	0.2085	0.85484	0.132
Mof_O 	O 	0.5	0.63658	0.92183	-0.582
Mof_C 	C 	0.5	0.7085	0.85484	0.178
Mof_O 	O 	0.5	0.13658	0.42183	-0.695
Mof_C 	C 	0.5	0.2085	0.35484	0.121
Mof_O 	O 	6.53374e-33	0.36342	0.42183	-0.677
Mof_C 	C 	1.33044e-33	0.2915	0.35484	0.087
Mof_O 	O 	3.45631e-33	0.86342	0.92183	-0.549
Mof_C 	C 	2.30137e-32	0.7915	0.85484	0.14
Mof_O 	O 	0.5	0.36342	0.92183	-0.584
Mof_C 	C 	0.5	0.2915	0.85484	0.162
Mof_O 	O 	0.5	0.86342	0.42183	-0.69
Mof_C 	C 	0.5	0.7915	0.35484	0.13
Mof_O 	O 	0.36342	0.42183	-0	-0.677
Mof_C 	C 	0.2915	0.35484	-0	0.087
Mof_O 	O 	0.36342	0.92183	0.5	-0.584
Mof_C 	C 	0.2915	0.85484	0.5	0.162
Mof_O 	O 	0.86342	0.42183	0.5	-0.69
Mof_C 	C 	0.7915	0.35484	0.5	0.13
Mof_O 	O 	0.86342	0.92183	-0	-0.549
Mof_C 	C 	0.7915	0.85484	-0	0.14
Mof_O 	O 	0.63658	0.42183	-0	-0.674
Mof_C 	C 	0.7085	0.35484	-0	0.103
Mof_O 	O 	0.63658	0.92183	0.5	-0.582
Mof_C 	C 	0.7085	0.85484	0.5	0.178
Mof_O 	O 	0.13658	0.42183	0.5	-0.695
Mof_C 	C 	0.2085	0.35484	0.5	0.121
Mof_O 	O 	0.13658	0.92183	-0	-0.553
Mof_C 	C 	0.2085	0.85484	-0	0.132
Mof_O 	O 	0.63658	0.57817	-0	-0.673
Mof_C 	C 	0.7085	0.64516	-0	0.107
Mof_O 	O 	0.63658	0.07817	0.5	-0.652
Mof_C 	C 	0.7085	0.14516	0.5	0.128
Mof_O 	O 	0.13658	0.57817	0.5	-0.695
Mof_C 	C 	0.2085	0.64516	0.5	0.124
Mof_O 	O 	0.13658	0.07817	-0	-0.622
Mof_C 	C 	0.2085	0.14516	-0	0.081
Mof_O 	O 	0.36342	0.57817	-0	-0.676
Mof_C 	C 	0.2915	0.64516	-0	0.09
Mof_O 	O 	0.36342	0.07817	0.5	-0.655
Mof_C 	C 	0.2915	0.14516	0.5	0.112
Mof_O 	O 	0.86342	0.57817	0.5	-0.69
Mof_C 	C 	0.7915	0.64516	0.5	0.133
Mof_O 	O 	0.86342	0.07817	-0	-0.618
Mof_C 	C 	0.7915	0.14516	-0	0.09
Mof_O 	O 	0.42183	4.95213e-33	0.63658	-0.674
Mof_C 	C 	0.35484	4.95213e-33	0.7085	0.103
Mof_O 	O 	0.42183	0.5	0.13658	-0.695
Mof_C 	C 	0.35484	0.5	0.2085	0.121
Mof_O 	O 	0.92183	0	0.13658	-0.553
Mof_C 	C 	0.85484	2.47607e-33	0.2085	0.132
Mof_O 	O 	0.92183	0.5	0.63658	-0.582
Mof_C 	C 	0.85484	0.5	0.7085	0.178
Mof_O 	O 	0.42183	4.95213e-33	0.36342	-0.677
Mof_C 	C 	0.35484	2.47607e-33	0.2915	0.087
Mof_O 	O 	0.42183	0.5	0.86342	-0.69
Mof_C 	C 	0.35484	0.5	0.7915	0.13
Mof_O 	O 	0.92183	0	0.86342	-0.549
Mof_C 	C 	0.85484	9.90426e-33	0.7915	0.14
Mof_O 	O 	0.92183	0.5	0.36342	-0.584
Mof_C 	C 	0.85484	0.5	0.2915	0.162
Mof_O 	O 	0.57817	4.95213e-33	0.36342	-0.676
Mof_C 	C 	0.64516	2.47607e-33	0.2915	0.09
Mof_O 	O 	0.57817	0.5	0.86342	-0.69
Mof_C 	C 	0.64516	0.5	0.7915	0.133
Mof_O 	O 	0.07817	0	0.86342	-0.618
Mof_C 	C 	0.14516	9.90426e-33	0.7915	0.09
Mof_O 	O 	0.07817	0.5	0.36342	-0.655
Mof_C 	C 	0.14516	0.5	0.2915	0.112
Mof_O 	O 	0.57817	4.95213e-33	0.63658	-0.673
Mof_C 	C 	0.64516	4.95213e-33	0.7085	0.107
Mof_O 	O 	0.57817	0.5	0.13658	-0.695
Mof_C 	C 	0.64516	0.5	0.2085	0.124
Mof_O 	O 	0.07817	0	0.13658	-0.622
Mof_C 	C 	0.14516	2.47607e-33	0.2085	0.081
Mof_O 	O 	0.07817	0.5	0.63658	-0.652
Mof_C 	C 	0.14516	0.5	0.7085	0.128
Mof_O 	O 	0.45088	0.04912	0.54912	-1.187
Mof_O 	O 	0.54912	0.95088	0.54912	-1.097
Mof_O 	O 	0.54912	0.04912	0.45088	-1.187
Mof_O 	O 	0.45088	0.95088	0.45088	-1.096
Mof_O 	O 	0.54912	0.45088	0.04912	-1.187
Mof_O 	O 	0.54912	0.54912	0.95088	-1.097
Mof_O 	O 	0.45088	0.54912	0.04912	-1.187
Mof_O 	O 	0.45088	0.45088	0.95088	-1.096
Mof_O 	O 	0.04912	0.54912	0.45088	-1.187
Mof_O 	O 	0.04912	0.04912	0.95088	-0.943
Mof_O 	O 	0.95088	0.54912	0.54912	-1.097
Mof_O 	O 	0.95088	0.04912	0.04912	-0.943
Mof_O 	O 	0.04912	0.45088	0.54912	-1.187
Mof_O 	O 	0.04912	0.95088	0.04912	-0.943
Mof_O 	O 	0.95088	0.45088	0.45088	-1.096
Mof_O 	O 	0.95088	0.95088	0.95088	-0.771
Mof_O 	O 	0.04912	0.45088	0.45088	-1.187
Mof_O 	O 	0.04912	0.95088	0.95088	-0.856
Mof_O 	O 	0.95088	0.54912	0.45088	-1.096
Mof_O 	O 	0.95088	0.04912	0.95088	-0.856
Mof_O 	O 	0.04912	0.54912	0.54912	-1.188
Mof_O 	O 	0.04912	0.04912	0.04912	-1.033
Mof_O 	O 	0.95088	0.45088	0.54912	-1.096
Mof_O 	O 	0.95088	0.95088	0.04912	-0.856
Mof_O 	O 	0.45088	0.54912	0.95088	-1.096
Mof_O 	O 	0.54912	0.54912	0.04912	-1.188
Mof_O 	O 	0.54912	0.45088	0.95088	-1.096
Mof_O 	O 	0.45088	0.45088	0.04912	-1.187
Mof_O 	O 	0.54912	0.04912	0.54912	-1.188
Mof_O 	O 	0.54912	0.95088	0.45088	-1.096
Mof_O 	O 	0.45088	0.04912	0.45088	-1.187
Mof_O 	O 	0.45088	0.95088	0.54912	-1.096
Mof_C 	C 	0.37854	0	0.37854	0.579
Mof_C 	C 	0.33963	0	0.33963	-0.209
Mof_C 	C 	0.26993	2.47607e-33	0.26993	0.05
Mof_C 	C 	0.37854	0.5	0.87854	0.607
Mof_C 	C 	0.33963	0.5	0.83963	-0.208
Mof_C 	C 	0.26993	0.5	0.76993	0.065
Mof_C 	C 	0.87854	0	0.87854	0.543
Mof_C 	C 	0.83963	0	0.83963	-0.189
Mof_C 	C 	0.76993	9.90426e-33	0.76993	0.063
Mof_C 	C 	0.87854	0.5	0.37854	0.608
Mof_C 	C 	0.83963	0.5	0.33963	-0.209
Mof_C 	C 	0.76993	0.5	0.26993	0.07
Mof_C 	C 	0.62146	0	0.37854	0.581
Mof_C 	C 	0.66037	0	0.33963	-0.209
Mof_C 	C 	0.73007	2.47607e-33	0.26993	0.051
Mof_C 	C 	0.62146	0.5	0.87854	0.609
Mof_C 	C 	0.66037	0.5	0.83963	-0.208
Mof_C 	C 	0.73007	0.5	0.76993	0.066
Mof_C 	C 	0.12146	0	0.87854	0.544
Mof_C 	C 	0.16037	0	0.83963	-0.19
Mof_C 	C 	0.23007	9.90426e-33	0.76993	0.052
Mof_C 	C 	0.12146	0.5	0.37854	0.608
Mof_C 	C 	0.16037	0.5	0.33963	-0.211
Mof_C 	C 	0.23007	0.5	0.26993	0.06
Mof_C 	C 	0.62146	0	0.62146	0.584
Mof_C 	C 	0.66037	0	0.66037	-0.212
Mof_C 	C 	0.73007	0	0.73007	0.06
Mof_C 	C 	0.62146	0.5	0.12146	0.611
Mof_C 	C 	0.66037	0.5	0.16037	-0.212
Mof_C 	C 	0.73007	0.5	0.23007	0.064
Mof_C 	C 	0.12146	1.23803e-33	0.12146	0.545
Mof_C 	C 	0.16037	2.47607e-33	0.16037	-0.195
Mof_C 	C 	0.23007	0	0.23007	0.05
Mof_C 	C 	0.12146	0.5	0.62146	0.611
Mof_C 	C 	0.16037	0.5	0.66037	-0.214
Mof_C 	C 	0.23007	0.5	0.73007	0.068
Mof_C 	C 	0.37854	0	0.62146	0.582
Mof_C 	C 	0.33963	0	0.66037	-0.212
Mof_C 	C 	0.26993	0	0.73007	0.059
Mof_C 	C 	0.37854	0.5	0.12146	0.609
Mof_C 	C 	0.33963	0.5	0.16037	-0.212
Mof_C 	C 	0.26993	0.5	0.23007	0.063
Mof_C 	C 	0.87854	1.23803e-33	0.12146	0.544
Mof_C 	C 	0.83963	2.47607e-33	0.16037	-0.193
Mof_C 	C 	0.76993	0	0.23007	0.06
Mof_C 	C 	0.87854	0.5	0.62146	0.611
Mof_C 	C 	0.83963	0.5	0.66037	-0.212
Mof_C 	C 	0.76993	0.5	0.73007	0.078
Mof_C 	C 	0.37854	0.37854	-0	0.579
Mof_C 	C 	0.33963	0.33963	-0	-0.209
Mof_C 	C 	0.26993	0.26993	-0	0.05
Mof_C 	C 	0.37854	0.87854	0.5	0.608
Mof_C 	C 	0.33963	0.83963	0.5	-0.209
Mof_C 	C 	0.26993	0.76993	0.5	0.07
Mof_C 	C 	0.87854	0.37854	0.5	0.607
Mof_C 	C 	0.83963	0.33963	0.5	-0.208
Mof_C 	C 	0.76993	0.26993	0.5	0.065
Mof_C 	C 	0.87854	0.87854	-0	0.543
Mof_C 	C 	0.83963	0.83963	-0	-0.189
Mof_C 	C 	0.76993	0.76993	-0	0.063
Mof_C 	C 	0.37854	0.62146	-0	0.581
Mof_C 	C 	0.33963	0.66037	-0	-0.209
Mof_C 	C 	0.26993	0.73007	-0	0.051
Mof_C 	C 	0.37854	0.12146	0.5	0.608
Mof_C 	C 	0.33963	0.16037	0.5	-0.211
Mof_C 	C 	0.26993	0.23007	0.5	0.06
Mof_C 	C 	0.87854	0.62146	0.5	0.609
Mof_C 	C 	0.83963	0.66037	0.5	-0.208
Mof_C 	C 	0.76993	0.73007	0.5	0.066
Mof_C 	C 	0.87854	0.12146	-0	0.544
Mof_C 	C 	0.83963	0.16037	-0	-0.19
Mof_C 	C 	0.76993	0.23007	-0	0.052
Mof_C 	C 	0.62146	0.62146	-0	0.584
Mof_C 	C 	0.66037	0.66037	-0	-0.212
Mof_C 	C 	0.73007	0.73007	-0	0.06
Mof_C 	C 	0.62146	0.12146	0.5	0.611
Mof_C 	C 	0.66037	0.16037	0.5	-0.214
Mof_C 	C 	0.73007	0.23007	0.5	0.068
Mof_C 	C 	0.12146	0.62146	0.5	0.611
Mof_C 	C 	0.16037	0.66037	0.5	-0.212
Mof_C 	C 	0.23007	0.73007	0.5	0.064
Mof_C 	C 	0.12146	0.12146	-0	0.545
Mof_C 	C 	0.16037	0.16037	-0	-0.195
Mof_C 	C 	0.23007	0.23007	-0	0.05
Mof_C 	C 	0.62146	0.37854	-0	0.582
Mof_C 	C 	0.66037	0.33963	-0	-0.212
Mof_C 	C 	0.73007	0.26993	-0	0.059
Mof_C 	C 	0.62146	0.87854	0.5	0.611
Mof_C 	C 	0.66037	0.83963	0.5	-0.212
Mof_C 	C 	0.73007	0.76993	0.5	0.078
Mof_C 	C 	0.12146	0.37854	0.5	0.609
Mof_C 	C 	0.16037	0.33963	0.5	-0.212
Mof_C 	C 	0.23007	0.26993	0.5	0.063
Mof_C 	C 	0.12146	0.87854	-0	0.544
Mof_C 	C 	0.16037	0.83963	-0	-0.193
Mof_C 	C 	0.23007	0.76993	-0	0.06
Mof_C 	C 	1.13236e-32	0.37854	0.37854	0.579
Mof_C 	C 	6.22554e-33	0.33963	0.33963	-0.209
Mof_C 	C 	8.44027e-33	0.26993	0.26993	0.05
Mof_C 	C 	3.294e-33	0.87854	0.87854	0.543
Mof_C 	C 	2.29566e-32	0.83963	0.83963	-0.189
Mof_C 	C 	2.88678e-33	0.76993	0.76993	0.063
Mof_C 	C 	0.5	0.37854	0.87854	0.608
Mof_C 	C 	0.5	0.33963	0.83963	-0.209
Mof_C 	C 	0.5	0.26993	0.76993	0.07
Mof_C 	C 	0.5	0.87854	0.37854	0.607
Mof_C 	C 	0.5	0.83963	0.33963	-0.208
Mof_C 	C 	0.5	0.76993	0.26993	0.065
Mof_C 	C 	2.3301e-33	0.37854	0.62146	0.581
Mof_C 	C 	-2.47614e-33	0.33963	0.66037	-0.209
Mof_C 	C 	2.73732e-33	0.26993	0.73007	0.051
Mof_C 	C 	5.40753e-33	0.87854	0.12146	0.544
Mof_C 	C 	4.31539e-33	0.83963	0.16037	-0.19
Mof_C 	C 	5.81476e-33	0.76993	0.23007	0.052
Mof_C 	C 	0.5	0.37854	0.12146	0.608
Mof_C 	C 	0.5	0.33963	0.16037	-0.211
Mof_C 	C 	0.5	0.26993	0.23007	0.06
Mof_C 	C 	0.5	0.87854	0.62146	0.609
Mof_C 	C 	0.5	0.83963	0.66037	-0.208
Mof_C 	C 	0.5	0.76993	0.73007	0.066
Mof_C 	C 	1.22344e-32	0.62146	0.62146	0.584
Mof_C 	C 	2.47599e-33	0.66037	0.66037	-0.212
Mof_C 	C 	2.73732e-33	0.73007	0.73007	0.06
Mof_C 	C 	5.40753e-33	0.12146	0.12146	0.545
Mof_C 	C 	5.55342e-33	0.16037	0.16037	-0.195
Mof_C 	C 	5.81476e-33	0.23007	0.23007	0.05
Mof_C 	C 	0.5	0.62146	0.12146	0.611
Mof_C 	C 	0.5	0.66037	0.16037	-0.214
Mof_C 	C 	0.5	0.73007	0.23007	0.068
Mof_C 	C 	0.5	0.12146	0.62146	0.611
Mof_C 	C 	0.5	0.16037	0.66037	-0.212
Mof_C 	C 	0.5	0.23007	0.73007	0.064
Mof_C 	C 	6.37143e-33	0.62146	0.37854	0.582
Mof_C 	C 	-1.20266e-33	0.66037	0.33963	-0.212
Mof_C 	C 	3.48814e-33	0.73007	0.26993	0.059
Mof_C 	C 	3.294e-33	0.12146	0.87854	0.544
Mof_C 	C 	3.14811e-33	0.16037	0.83963	-0.193
Mof_C 	C 	2.88678e-33	0.23007	0.76993	0.06
Mof_C 	C 	0.5	0.62146	0.87854	0.611
Mof_C 	C 	0.5	0.66037	0.83963	-0.212
Mof_C 	C 	0.5	0.73007	0.76993	0.078
Mof_C 	C 	0.5	0.12146	0.37854	0.609
Mof_C 	C 	0.5	0.16037	0.33963	-0.212
Mof_C 	C 	0.5	0.23007	0.26993	0.063
_end
