data_functionalizedCrystal
_audit_creation_method	'EQeq! by Chris Wilmer'
_symmetry_space_group_name_H-M	'P1'
_symmetry_Int_Tables_number	1
_symmetry_cell_setting	triclinic
loop_
_symmetry_equiv_pos_as_xyz
  x,y,z
_cell_length_a	35.2284
_cell_length_b	35.2284
_cell_length_c	21.4996
_cell_angle_alpha	90
_cell_angle_beta	90
_cell_angle_gamma	120
loop_
_atom_site_label
_atom_site_type_symbol
_atom_site_fract_x
_atom_site_fract_y
_atom_site_fract_z
_atom_site_charge
Mof_O 	O 	0.30318	0.19081	0.23589	-0.41
Mof_O 	O 	0.27784	0.17818	0.13781	-0.414
Mof_C 	C 	0.27846	0.19018	0.19222	0.368
Mof_C 	C 	0.2471	0.20582	0.20999	-0.125
Mof_C 	C 	0.21962	0.20799	0.16447	0.058
Mof_H 	H 	0.2201	0.199	0.123	0.024
Mof_C 	C 	0.1918	0.22345	0.18092	-0.142
Mof_H 	H 	0.1732	0.2248	0.1501	0.09
Mof_C 	C 	0.19032	0.23678	0.24019	0.104
Mof_C 	C 	0.21755	0.23439	0.28608	-0.14
Mof_H 	H 	0.2168	0.2431	0.3277	0.078
Mof_C 	C 	0.24586	0.21879	0.26901	0.059
Mof_H 	H 	0.2646	0.2173	0.2996	0.026
Mof_C 	C 	0.16272	0.25622	0.25801	-0.069
Mof_C 	C 	0.18024	0.29338	0.29449	-0.042
Mof_H 	H 	0.21	0.306	0.307	0.043
Mof_H 	H 	0.0561	0.1577	0.2673	-0.018
Mof_H 	H 	0.0839	0.1229	0.1693	0.066
Mof_H 	H 	0.0841	0.1222	0.1705	0.067
Mof_O 	O 	0.96985	0.52414	0.56922	-0.409
Mof_O 	O 	0.94451	0.51151	0.47114	-0.413
Mof_C 	C 	0.94513	0.52351	0.52555	0.369
Mof_C 	C 	0.91377	0.53915	0.54332	-0.124
Mof_C 	C 	0.88629	0.54132	0.4978	0.059
Mof_H 	H 	0.88677	0.53233	0.45633	0.025
Mof_C 	C 	0.85847	0.55678	0.51425	-0.141
Mof_H 	H 	0.83987	0.55813	0.48343	0.091
Mof_C 	C 	0.85699	0.57011	0.57352	0.105
Mof_C 	C 	0.88422	0.56772	0.61941	-0.139
Mof_H 	H 	0.88347	0.57643	0.66103	0.079
Mof_C 	C 	0.91253	0.55212	0.60234	0.06
Mof_H 	H 	0.93127	0.55063	0.63293	0.027
Mof_C 	C 	0.82939	0.58955	0.59134	-0.068
Mof_C 	C 	0.84691	0.62671	0.62782	-0.041
Mof_H 	H 	0.87667	0.63933	0.64033	0.044
Mof_H 	H 	0.72277	0.49103	0.60063	-0.017
Mof_H 	H 	0.75057	0.45623	0.50263	0.066
Mof_H 	H 	0.75077	0.45553	0.50383	0.067
Mof_O 	O 	0.63651	0.85748	0.90256	-0.409
Mof_O 	O 	0.61117	0.84485	0.80448	-0.413
Mof_C 	C 	0.61179	0.85685	0.85889	0.369
Mof_C 	C 	0.58043	0.87249	0.87666	-0.124
Mof_C 	C 	0.55295	0.87466	0.83114	0.059
Mof_H 	H 	0.55343	0.86567	0.78967	0.025
Mof_C 	C 	0.52513	0.89012	0.84759	-0.141
Mof_H 	H 	0.50653	0.89147	0.81677	0.091
Mof_C 	C 	0.52365	0.90345	0.90686	0.105
Mof_C 	C 	0.55088	0.90106	0.95275	-0.139
Mof_H 	H 	0.55013	0.90977	0.99437	0.079
Mof_C 	C 	0.57919	0.88546	0.93568	0.06
Mof_H 	H 	0.59793	0.88397	0.96627	0.027
Mof_C 	C 	0.49605	0.92289	0.92468	-0.068
Mof_C 	C 	0.51357	0.96005	0.96116	-0.041
Mof_H 	H 	0.54333	0.97267	0.97367	0.044
Mof_H 	H 	0.38943	0.82437	0.93397	-0.017
Mof_H 	H 	0.41723	0.78957	0.83597	0.066
Mof_H 	H 	0.41743	0.78887	0.83717	0.067
Mof_O 	O 	0.80919	0.11237	0.23589	-0.409
Mof_O 	O 	0.82182	0.09966	0.13781	-0.413
Mof_C 	C 	0.80982	0.08828	0.19222	0.369
Mof_C 	C 	0.79418	0.04128	0.20999	-0.124
Mof_C 	C 	0.79201	0.01163	0.16447	0.059
Mof_H 	H 	0.801	0.0211	0.123	0.025
Mof_C 	C 	0.77655	0.96835	0.18092	-0.141
Mof_H 	H 	0.7752	0.9484	0.1501	0.091
Mof_C 	C 	0.76322	0.95354	0.24019	0.105
Mof_C 	C 	0.76561	0.98316	0.28608	-0.138
Mof_H 	H 	0.7569	0.9737	0.3277	0.079
Mof_C 	C 	0.78121	0.02707	0.26901	0.06
Mof_H 	H 	0.7827	0.0473	0.2996	0.027
Mof_C 	C 	0.74378	0.9065	0.25801	-0.068
Mof_C 	C 	0.70662	0.88686	0.29449	-0.041
Mof_H 	H 	0.694	0.904	0.307	0.044
Mof_H 	H 	0.8423	0.8984	0.2673	-0.017
Mof_H 	H 	0.8771	0.961	0.1693	0.066
Mof_H 	H 	0.8778	0.9619	0.1705	0.067
Mof_O 	O 	0.47586	0.4457	0.56922	-0.409
Mof_O 	O 	0.48849	0.43299	0.47114	-0.413
Mof_C 	C 	0.47649	0.42161	0.52555	0.369
Mof_C 	C 	0.46085	0.37461	0.54332	-0.124
Mof_C 	C 	0.45868	0.34496	0.4978	0.06
Mof_H 	H 	0.46767	0.35443	0.45633	0.025
Mof_C 	C 	0.44322	0.30168	0.51425	-0.141
Mof_H 	H 	0.44187	0.28173	0.48343	0.091
Mof_C 	C 	0.42989	0.28687	0.57352	0.105
Mof_C 	C 	0.43228	0.31649	0.61941	-0.139
Mof_H 	H 	0.42357	0.30703	0.66103	0.079
Mof_C 	C 	0.44788	0.3604	0.60234	0.06
Mof_H 	H 	0.44937	0.38063	0.63293	0.027
Mof_C 	C 	0.41045	0.23983	0.59134	-0.068
Mof_C 	C 	0.37329	0.22019	0.62782	-0.041
Mof_H 	H 	0.36067	0.23733	0.64033	0.044
Mof_H 	H 	0.50897	0.23173	0.60063	-0.017
Mof_H 	H 	0.54377	0.29433	0.50263	0.066
Mof_H 	H 	0.54447	0.29523	0.50383	0.067
Mof_O 	O 	0.14252	0.77904	0.90256	-0.409
Mof_O 	O 	0.15515	0.76633	0.80448	-0.413
Mof_C 	C 	0.14315	0.75495	0.85889	0.369
Mof_C 	C 	0.12751	0.70795	0.87666	-0.124
Mof_C 	C 	0.12534	0.6783	0.83114	0.059
Mof_H 	H 	0.13433	0.68777	0.78967	0.025
Mof_C 	C 	0.10988	0.63502	0.84759	-0.141
Mof_H 	H 	0.10853	0.61507	0.81677	0.091
Mof_C 	C 	0.09655	0.62021	0.90686	0.105
Mof_C 	C 	0.09894	0.64983	0.95275	-0.139
Mof_H 	H 	0.09023	0.64037	0.99437	0.079
Mof_C 	C 	0.11454	0.69374	0.93568	0.06
Mof_H 	H 	0.11603	0.71397	0.96627	0.027
Mof_C 	C 	0.07711	0.57317	0.92468	-0.068
Mof_C 	C 	0.03995	0.55353	0.96116	-0.041
Mof_H 	H 	0.02733	0.57067	0.97367	0.044
Mof_H 	H 	0.17563	0.56507	0.93397	-0.017
Mof_H 	H 	0.21043	0.62767	0.83597	0.066
Mof_H 	H 	0.21113	0.62857	0.83717	0.067
Mof_O 	O 	0.88763	0.69682	0.23589	-0.409
Mof_O 	O 	0.90034	0.72216	0.13781	-0.413
Mof_C 	C 	0.91172	0.72154	0.19222	0.369
Mof_C 	C 	0.95872	0.7529	0.20999	-0.124
Mof_C 	C 	0.98837	0.78038	0.16447	0.059
Mof_H 	H 	0.9789	0.7799	0.123	0.025
Mof_C 	C 	0.03165	0.8082	0.18092	-0.141
Mof_H 	H 	0.0516	0.8268	0.1501	0.091
Mof_C 	C 	0.04646	0.80968	0.24019	0.105
Mof_C 	C 	0.01684	0.78245	0.28608	-0.138
Mof_H 	H 	0.0263	0.7832	0.3277	0.079
Mof_C 	C 	0.97293	0.75414	0.26901	0.06
Mof_H 	H 	0.9527	0.7354	0.2996	0.027
Mof_C 	C 	0.0935	0.83728	0.25801	-0.068
Mof_C 	C 	0.11314	0.81976	0.29449	-0.041
Mof_H 	H 	0.096	0.79	0.307	0.044
Mof_H 	H 	0.1016	0.9439	0.2673	-0.017
Mof_H 	H 	0.039	0.9161	0.1693	0.066
Mof_H 	H 	0.0381	0.9159	0.1705	0.067
Mof_O 	O 	0.5543	0.03015	0.56922	-0.409
Mof_O 	O 	0.56701	0.05549	0.47114	-0.413
Mof_C 	C 	0.57839	0.05487	0.52555	0.369
Mof_C 	C 	0.62539	0.08623	0.54332	-0.124
Mof_C 	C 	0.65504	0.11371	0.4978	0.059
Mof_H 	H 	0.64557	0.11323	0.45633	0.025
Mof_C 	C 	0.69832	0.14153	0.51425	-0.141
Mof_H 	H 	0.71827	0.16013	0.48343	0.091
Mof_C 	C 	0.71313	0.14301	0.57352	0.105
Mof_C 	C 	0.68351	0.11578	0.61941	-0.139
Mof_H 	H 	0.69297	0.11653	0.66103	0.079
Mof_C 	C 	0.6396	0.08747	0.60234	0.06
Mof_H 	H 	0.61937	0.06873	0.63293	0.027
Mof_C 	C 	0.76017	0.17061	0.59134	-0.068
Mof_C 	C 	0.77981	0.15309	0.62782	-0.041
Mof_H 	H 	0.76267	0.12333	0.64033	0.044
Mof_H 	H 	0.76827	0.27723	0.60063	-0.017
Mof_H 	H 	0.70567	0.24943	0.50263	0.066
Mof_H 	H 	0.70477	0.24923	0.50383	0.067
Mof_O 	O 	0.22096	0.36349	0.90256	-0.409
Mof_O 	O 	0.23367	0.38883	0.80448	-0.413
Mof_C 	C 	0.24505	0.38821	0.85889	0.369
Mof_C 	C 	0.29205	0.41957	0.87666	-0.124
Mof_C 	C 	0.3217	0.44705	0.83114	0.06
Mof_H 	H 	0.31223	0.44657	0.78967	0.025
Mof_C 	C 	0.36498	0.47487	0.84759	-0.141
Mof_H 	H 	0.38493	0.49347	0.81677	0.091
Mof_C 	C 	0.37979	0.47635	0.90686	0.105
Mof_C 	C 	0.35017	0.44912	0.95275	-0.139
Mof_H 	H 	0.35963	0.44987	0.99437	0.079
Mof_C 	C 	0.30626	0.42081	0.93568	0.06
Mof_H 	H 	0.28603	0.40207	0.96627	0.027
Mof_C 	C 	0.42683	0.50395	0.92468	-0.068
Mof_C 	C 	0.44647	0.48643	0.96116	-0.04
Mof_H 	H 	0.42933	0.45667	0.97367	0.044
Mof_H 	H 	0.43493	0.61057	0.93397	-0.017
Mof_H 	H 	0.37233	0.58277	0.83597	0.066
Mof_H 	H 	0.37143	0.58257	0.83717	0.067
Mof_O 	O 	0.19081	0.30318	0.76411	-0.409
Mof_O 	O 	0.17818	0.27784	0.86219	-0.413
Mof_C 	C 	0.19018	0.27846	0.80778	0.369
Mof_C 	C 	0.20582	0.2471	0.79001	-0.124
Mof_C 	C 	0.20799	0.21962	0.83553	0.059
Mof_H 	H 	0.199	0.2201	0.877	0.025
Mof_C 	C 	0.22345	0.1918	0.81908	-0.141
Mof_H 	H 	0.2248	0.1732	0.8499	0.091
Mof_C 	C 	0.23678	0.19032	0.75981	0.105
Mof_C 	C 	0.23439	0.21755	0.71392	-0.139
Mof_H 	H 	0.2431	0.2168	0.6723	0.079
Mof_C 	C 	0.21879	0.24586	0.73099	0.06
Mof_H 	H 	0.2173	0.2646	0.7004	0.027
Mof_C 	C 	0.25622	0.16272	0.74199	-0.068
Mof_C 	C 	0.29338	0.18024	0.70551	-0.041
Mof_H 	H 	0.306	0.21	0.693	0.044
Mof_H 	H 	0.1577	0.0561	0.7327	-0.017
Mof_H 	H 	0.1229	0.0839	0.8307	0.066
Mof_H 	H 	0.1222	0.0841	0.8295	0.067
Mof_O 	O 	0.85748	0.63651	0.09744	-0.409
Mof_O 	O 	0.84485	0.61117	0.19552	-0.413
Mof_C 	C 	0.85685	0.61179	0.14111	0.369
Mof_C 	C 	0.87249	0.58043	0.12334	-0.124
Mof_C 	C 	0.87466	0.55295	0.16886	0.059
Mof_H 	H 	0.86567	0.55343	0.21033	0.025
Mof_C 	C 	0.89012	0.52513	0.15241	-0.141
Mof_H 	H 	0.89147	0.50653	0.18323	0.091
Mof_C 	C 	0.90345	0.52365	0.09314	0.105
Mof_C 	C 	0.90106	0.55088	0.04725	-0.139
Mof_H 	H 	0.90977	0.55013	0.00563	0.079
Mof_C 	C 	0.88546	0.57919	0.06432	0.06
Mof_H 	H 	0.88397	0.59793	0.03373	0.027
Mof_C 	C 	0.92289	0.49605	0.07532	-0.068
Mof_C 	C 	0.96005	0.51357	0.03884	-0.041
Mof_H 	H 	0.97267	0.54333	0.02633	0.044
Mof_H 	H 	0.82437	0.38943	0.06603	-0.017
Mof_H 	H 	0.78957	0.41723	0.16403	0.066
Mof_H 	H 	0.78887	0.41743	0.16283	0.067
Mof_O 	O 	0.52414	0.96985	0.43078	-0.409
Mof_O 	O 	0.51151	0.94451	0.52886	-0.413
Mof_C 	C 	0.52351	0.94513	0.47445	0.369
Mof_C 	C 	0.53915	0.91377	0.45668	-0.124
Mof_C 	C 	0.54132	0.88629	0.5022	0.059
Mof_H 	H 	0.53233	0.88677	0.54367	0.025
Mof_C 	C 	0.55678	0.85847	0.48575	-0.141
Mof_H 	H 	0.55813	0.83987	0.51657	0.091
Mof_C 	C 	0.57011	0.85699	0.42648	0.105
Mof_C 	C 	0.56772	0.88422	0.38059	-0.139
Mof_H 	H 	0.57643	0.88347	0.33897	0.079
Mof_C 	C 	0.55212	0.91253	0.39766	0.06
Mof_H 	H 	0.55063	0.93127	0.36707	0.027
Mof_C 	C 	0.58955	0.82939	0.40866	-0.068
Mof_C 	C 	0.62671	0.84691	0.37218	-0.041
Mof_H 	H 	0.63933	0.87667	0.35967	0.044
Mof_H 	H 	0.49103	0.72277	0.39937	-0.017
Mof_H 	H 	0.45623	0.75057	0.49737	0.066
Mof_H 	H 	0.45553	0.75077	0.49617	0.067
Mof_O 	O 	0.11237	0.80919	0.76411	-0.409
Mof_O 	O 	0.09966	0.82182	0.86219	-0.413
Mof_C 	C 	0.08828	0.80982	0.80778	0.369
Mof_C 	C 	0.04128	0.79418	0.79001	-0.124
Mof_C 	C 	0.01163	0.79201	0.83553	0.059
Mof_H 	H 	0.0211	0.801	0.877	0.025
Mof_C 	C 	0.96835	0.77655	0.81908	-0.141
Mof_H 	H 	0.9484	0.7752	0.8499	0.091
Mof_C 	C 	0.95354	0.76322	0.75981	0.105
Mof_C 	C 	0.98316	0.76561	0.71392	-0.138
Mof_H 	H 	0.9737	0.7569	0.6723	0.079
Mof_C 	C 	0.02707	0.78121	0.73099	0.06
Mof_H 	H 	0.0473	0.7827	0.7004	0.027
Mof_C 	C 	0.9065	0.74378	0.74199	-0.068
Mof_C 	C 	0.88686	0.70662	0.70551	-0.041
Mof_H 	H 	0.904	0.694	0.693	0.044
Mof_H 	H 	0.8984	0.8423	0.7327	-0.017
Mof_H 	H 	0.961	0.8771	0.8307	0.066
Mof_H 	H 	0.9619	0.8778	0.8295	0.067
Mof_O 	O 	0.77904	0.14252	0.09744	-0.409
Mof_O 	O 	0.76633	0.15515	0.19552	-0.413
Mof_C 	C 	0.75495	0.14315	0.14111	0.369
Mof_C 	C 	0.70795	0.12751	0.12334	-0.124
Mof_C 	C 	0.6783	0.12534	0.16886	0.06
Mof_H 	H 	0.68777	0.13433	0.21033	0.025
Mof_C 	C 	0.63502	0.10988	0.15241	-0.141
Mof_H 	H 	0.61507	0.10853	0.18323	0.091
Mof_C 	C 	0.62021	0.09655	0.09314	0.105
Mof_C 	C 	0.64983	0.09894	0.04725	-0.139
Mof_H 	H 	0.64037	0.09023	0.00563	0.079
Mof_C 	C 	0.69374	0.11454	0.06432	0.06
Mof_H 	H 	0.71397	0.11603	0.03373	0.027
Mof_C 	C 	0.57317	0.07711	0.07532	-0.068
Mof_C 	C 	0.55353	0.03995	0.03884	-0.041
Mof_H 	H 	0.57067	0.02733	0.02633	0.044
Mof_H 	H 	0.56507	0.17563	0.06603	-0.017
Mof_H 	H 	0.62767	0.21043	0.16403	0.066
Mof_H 	H 	0.62857	0.21113	0.16283	0.067
Mof_O 	O 	0.4457	0.47586	0.43078	-0.409
Mof_O 	O 	0.43299	0.48849	0.52886	-0.413
Mof_C 	C 	0.42161	0.47649	0.47445	0.369
Mof_C 	C 	0.37461	0.46085	0.45668	-0.124
Mof_C 	C 	0.34496	0.45868	0.5022	0.06
Mof_H 	H 	0.35443	0.46767	0.54367	0.025
Mof_C 	C 	0.30168	0.44322	0.48575	-0.141
Mof_H 	H 	0.28173	0.44187	0.51657	0.091
Mof_C 	C 	0.28687	0.42989	0.42648	0.105
Mof_C 	C 	0.31649	0.43228	0.38059	-0.139
Mof_H 	H 	0.30703	0.42357	0.33897	0.079
Mof_C 	C 	0.3604	0.44788	0.39766	0.06
Mof_H 	H 	0.38063	0.44937	0.36707	0.027
Mof_C 	C 	0.23983	0.41045	0.40866	-0.068
Mof_C 	C 	0.22019	0.37329	0.37218	-0.041
Mof_H 	H 	0.23733	0.36067	0.35967	0.044
Mof_H 	H 	0.23173	0.50897	0.39937	-0.017
Mof_H 	H 	0.29433	0.54377	0.49737	0.066
Mof_H 	H 	0.29523	0.54447	0.49617	0.067
Mof_O 	O 	0.69682	0.88763	0.76411	-0.409
Mof_O 	O 	0.72216	0.90034	0.86219	-0.413
Mof_C 	C 	0.72154	0.91172	0.80778	0.369
Mof_C 	C 	0.7529	0.95872	0.79001	-0.124
Mof_C 	C 	0.78038	0.98837	0.83553	0.059
Mof_H 	H 	0.7799	0.9789	0.877	0.025
Mof_C 	C 	0.8082	0.03165	0.81908	-0.141
Mof_H 	H 	0.8268	0.0516	0.8499	0.091
Mof_C 	C 	0.80968	0.04646	0.75981	0.105
Mof_C 	C 	0.78245	0.01684	0.71392	-0.138
Mof_H 	H 	0.7832	0.0263	0.6723	0.079
Mof_C 	C 	0.75414	0.97293	0.73099	0.06
Mof_H 	H 	0.7354	0.9527	0.7004	0.027
Mof_C 	C 	0.83728	0.0935	0.74199	-0.068
Mof_C 	C 	0.81976	0.11314	0.70551	-0.041
Mof_H 	H 	0.79	0.096	0.693	0.044
Mof_H 	H 	0.9439	0.1016	0.7327	-0.017
Mof_H 	H 	0.9161	0.039	0.8307	0.066
Mof_H 	H 	0.9159	0.0381	0.8295	0.067
Mof_O 	O 	0.36349	0.22096	0.09744	-0.409
Mof_O 	O 	0.38883	0.23367	0.19552	-0.413
Mof_C 	C 	0.38821	0.24505	0.14111	0.369
Mof_C 	C 	0.41957	0.29205	0.12334	-0.124
Mof_C 	C 	0.44705	0.3217	0.16886	0.06
Mof_H 	H 	0.44657	0.31223	0.21033	0.025
Mof_C 	C 	0.47487	0.36498	0.15241	-0.141
Mof_H 	H 	0.49347	0.38493	0.18323	0.091
Mof_C 	C 	0.47635	0.37979	0.09314	0.105
Mof_C 	C 	0.44912	0.35017	0.04725	-0.139
Mof_H 	H 	0.44987	0.35963	0.00563	0.079
Mof_C 	C 	0.42081	0.30626	0.06432	0.06
Mof_H 	H 	0.40207	0.28603	0.03373	0.027
Mof_C 	C 	0.50395	0.42683	0.07532	-0.068
Mof_C 	C 	0.48643	0.44647	0.03884	-0.04
Mof_H 	H 	0.45667	0.42933	0.02633	0.044
Mof_H 	H 	0.61057	0.43493	0.06603	-0.017
Mof_H 	H 	0.58277	0.37233	0.16403	0.066
Mof_H 	H 	0.58257	0.37143	0.16283	0.067
Mof_O 	O 	0.03015	0.5543	0.43078	-0.409
Mof_O 	O 	0.05549	0.56701	0.52886	-0.413
Mof_C 	C 	0.05487	0.57839	0.47445	0.369
Mof_C 	C 	0.08623	0.62539	0.45668	-0.124
Mof_C 	C 	0.11371	0.65504	0.5022	0.059
Mof_H 	H 	0.11323	0.64557	0.54367	0.025
Mof_C 	C 	0.14153	0.69832	0.48575	-0.141
Mof_H 	H 	0.16013	0.71827	0.51657	0.091
Mof_C 	C 	0.14301	0.71313	0.42648	0.105
Mof_C 	C 	0.11578	0.68351	0.38059	-0.139
Mof_H 	H 	0.11653	0.69297	0.33897	0.079
Mof_C 	C 	0.08747	0.6396	0.39766	0.06
Mof_H 	H 	0.06873	0.61937	0.36707	0.027
Mof_C 	C 	0.17061	0.76017	0.40866	-0.068
Mof_C 	C 	0.15309	0.77981	0.37218	-0.041
Mof_H 	H 	0.12333	0.76267	0.35967	0.044
Mof_H 	H 	0.27723	0.76827	0.39937	-0.017
Mof_H 	H 	0.24943	0.70567	0.49737	0.066
Mof_H 	H 	0.24923	0.70477	0.49617	0.067
Mof_O 	O 	0.69682	0.80919	0.76411	-0.409
Mof_O 	O 	0.72216	0.82182	0.86219	-0.413
Mof_C 	C 	0.72154	0.80982	0.80778	0.369
Mof_C 	C 	0.7529	0.79418	0.79001	-0.124
Mof_C 	C 	0.78038	0.79201	0.83553	0.06
Mof_H 	H 	0.7799	0.801	0.877	0.025
Mof_C 	C 	0.8082	0.77655	0.81908	-0.141
Mof_H 	H 	0.8268	0.7752	0.8499	0.091
Mof_C 	C 	0.80968	0.76322	0.75981	0.105
Mof_C 	C 	0.78245	0.76561	0.71392	-0.139
Mof_H 	H 	0.7832	0.7569	0.6723	0.079
Mof_C 	C 	0.75414	0.78121	0.73099	0.06
Mof_H 	H 	0.7354	0.7827	0.7004	0.027
Mof_C 	C 	0.83728	0.74378	0.74199	-0.068
Mof_C 	C 	0.81976	0.70662	0.70551	-0.041
Mof_H 	H 	0.79	0.694	0.693	0.044
Mof_H 	H 	0.9439	0.8423	0.7327	-0.017
Mof_H 	H 	0.9161	0.8771	0.8307	0.066
Mof_H 	H 	0.9159	0.8778	0.8295	0.067
Mof_O 	O 	0.36349	0.14252	0.09744	-0.409
Mof_O 	O 	0.38883	0.15515	0.19552	-0.413
Mof_C 	C 	0.38821	0.14315	0.14111	0.369
Mof_C 	C 	0.41957	0.12751	0.12334	-0.124
Mof_C 	C 	0.44705	0.12534	0.16886	0.059
Mof_H 	H 	0.44657	0.13433	0.21033	0.025
Mof_C 	C 	0.47487	0.10988	0.15241	-0.141
Mof_H 	H 	0.49347	0.10853	0.18323	0.091
Mof_C 	C 	0.47635	0.09655	0.09314	0.105
Mof_C 	C 	0.44912	0.09894	0.04725	-0.139
Mof_H 	H 	0.44987	0.09023	0.00563	0.079
Mof_C 	C 	0.42081	0.11454	0.06432	0.06
Mof_H 	H 	0.40207	0.11603	0.03373	0.027
Mof_C 	C 	0.50395	0.07711	0.07532	-0.068
Mof_C 	C 	0.48643	0.03995	0.03884	-0.041
Mof_H 	H 	0.45667	0.02733	0.02633	0.044
Mof_H 	H 	0.61057	0.17563	0.06603	-0.017
Mof_H 	H 	0.58277	0.21043	0.16403	0.066
Mof_H 	H 	0.58257	0.21113	0.16283	0.067
Mof_O 	O 	0.03015	0.47586	0.43078	-0.409
Mof_O 	O 	0.05549	0.48849	0.52886	-0.413
Mof_C 	C 	0.05487	0.47649	0.47445	0.369
Mof_C 	C 	0.08623	0.46085	0.45668	-0.124
Mof_C 	C 	0.11371	0.45868	0.5022	0.059
Mof_H 	H 	0.11323	0.46767	0.54367	0.025
Mof_C 	C 	0.14153	0.44322	0.48575	-0.141
Mof_H 	H 	0.16013	0.44187	0.51657	0.091
Mof_C 	C 	0.14301	0.42989	0.42648	0.105
Mof_C 	C 	0.11578	0.43228	0.38059	-0.139
Mof_H 	H 	0.11653	0.42357	0.33897	0.079
Mof_C 	C 	0.08747	0.44788	0.39766	0.06
Mof_H 	H 	0.06873	0.44937	0.36707	0.027
Mof_C 	C 	0.17061	0.41045	0.40866	-0.068
Mof_C 	C 	0.15309	0.37329	0.37218	-0.041
Mof_H 	H 	0.12333	0.36067	0.35967	0.044
Mof_H 	H 	0.27723	0.50897	0.39937	-0.017
Mof_H 	H 	0.24943	0.54377	0.49737	0.066
Mof_H 	H 	0.24923	0.54447	0.49617	0.067
Mof_O 	O 	0.19081	0.88763	0.76411	-0.409
Mof_O 	O 	0.17818	0.90034	0.86219	-0.413
Mof_C 	C 	0.19018	0.91172	0.80778	0.369
Mof_C 	C 	0.20582	0.95872	0.79001	-0.124
Mof_C 	C 	0.20799	0.98837	0.83553	0.059
Mof_H 	H 	0.199	0.9789	0.877	0.025
Mof_C 	C 	0.22345	0.03165	0.81908	-0.141
Mof_H 	H 	0.2248	0.0516	0.8499	0.091
Mof_C 	C 	0.23678	0.04646	0.75981	0.105
Mof_C 	C 	0.23439	0.01684	0.71392	-0.138
Mof_H 	H 	0.2431	0.0263	0.6723	0.079
Mof_C 	C 	0.21879	0.97293	0.73099	0.06
Mof_H 	H 	0.2173	0.9527	0.7004	0.027
Mof_C 	C 	0.25622	0.0935	0.74199	-0.068
Mof_C 	C 	0.29338	0.11314	0.70551	-0.041
Mof_H 	H 	0.306	0.096	0.693	0.044
Mof_H 	H 	0.1577	0.1016	0.7327	-0.017
Mof_H 	H 	0.1229	0.039	0.8307	0.066
Mof_H 	H 	0.1222	0.0381	0.8295	0.067
Mof_O 	O 	0.85748	0.22096	0.09744	-0.409
Mof_O 	O 	0.84485	0.23367	0.19552	-0.413
Mof_C 	C 	0.85685	0.24505	0.14111	0.369
Mof_C 	C 	0.87249	0.29205	0.12334	-0.124
Mof_C 	C 	0.87466	0.3217	0.16886	0.06
Mof_H 	H 	0.86567	0.31223	0.21033	0.025
Mof_C 	C 	0.89012	0.36498	0.15241	-0.141
Mof_H 	H 	0.89147	0.38493	0.18323	0.091
Mof_C 	C 	0.90345	0.37979	0.09314	0.105
Mof_C 	C 	0.90106	0.35017	0.04725	-0.139
Mof_H 	H 	0.90977	0.35963	0.00563	0.079
Mof_C 	C 	0.88546	0.30626	0.06432	0.06
Mof_H 	H 	0.88397	0.28603	0.03373	0.027
Mof_C 	C 	0.92289	0.42683	0.07532	-0.068
Mof_C 	C 	0.96005	0.44647	0.03884	-0.041
Mof_H 	H 	0.97267	0.42933	0.02633	0.044
Mof_H 	H 	0.82437	0.43493	0.06603	-0.017
Mof_H 	H 	0.78957	0.37233	0.16403	0.066
Mof_H 	H 	0.78887	0.37143	0.16283	0.067
Mof_O 	O 	0.52414	0.5543	0.43078	-0.409
Mof_O 	O 	0.51151	0.56701	0.52886	-0.413
Mof_C 	C 	0.52351	0.57839	0.47445	0.369
Mof_C 	C 	0.53915	0.62539	0.45668	-0.124
Mof_C 	C 	0.54132	0.65504	0.5022	0.06
Mof_H 	H 	0.53233	0.64557	0.54367	0.025
Mof_C 	C 	0.55678	0.69832	0.48575	-0.141
Mof_H 	H 	0.55813	0.71827	0.51657	0.091
Mof_C 	C 	0.57011	0.71313	0.42648	0.105
Mof_C 	C 	0.56772	0.68351	0.38059	-0.139
Mof_H 	H 	0.57643	0.69297	0.33897	0.079
Mof_C 	C 	0.55212	0.6396	0.39766	0.06
Mof_H 	H 	0.55063	0.61937	0.36707	0.027
Mof_C 	C 	0.58955	0.76017	0.40866	-0.068
Mof_C 	C 	0.62671	0.77981	0.37218	-0.041
Mof_H 	H 	0.63933	0.76267	0.35967	0.044
Mof_H 	H 	0.49103	0.76827	0.39937	-0.017
Mof_H 	H 	0.45623	0.70567	0.49737	0.066
Mof_H 	H 	0.45553	0.70477	0.49617	0.067
Mof_O 	O 	0.11237	0.30318	0.76411	-0.409
Mof_O 	O 	0.09966	0.27784	0.86219	-0.413
Mof_C 	C 	0.08828	0.27846	0.80778	0.369
Mof_C 	C 	0.04128	0.2471	0.79001	-0.124
Mof_C 	C 	0.01163	0.21962	0.83553	0.059
Mof_H 	H 	0.0211	0.2201	0.877	0.025
Mof_C 	C 	0.96835	0.1918	0.81908	-0.141
Mof_H 	H 	0.9484	0.1732	0.8499	0.091
Mof_C 	C 	0.95354	0.19032	0.75981	0.105
Mof_C 	C 	0.98316	0.21755	0.71392	-0.138
Mof_H 	H 	0.9737	0.2168	0.6723	0.079
Mof_C 	C 	0.02707	0.24586	0.73099	0.06
Mof_H 	H 	0.0473	0.2646	0.7004	0.027
Mof_C 	C 	0.9065	0.16272	0.74199	-0.068
Mof_C 	C 	0.88686	0.18024	0.70551	-0.041
Mof_H 	H 	0.904	0.21	0.693	0.044
Mof_H 	H 	0.8984	0.0561	0.7327	-0.017
Mof_H 	H 	0.961	0.0839	0.8307	0.066
Mof_H 	H 	0.9619	0.0841	0.8295	0.067
Mof_O 	O 	0.77904	0.63651	0.09744	-0.409
Mof_O 	O 	0.76633	0.61117	0.19552	-0.413
Mof_C 	C 	0.75495	0.61179	0.14111	0.369
Mof_C 	C 	0.70795	0.58043	0.12334	-0.124
Mof_C 	C 	0.6783	0.55295	0.16886	0.06
Mof_H 	H 	0.68777	0.55343	0.21033	0.025
Mof_C 	C 	0.63502	0.52513	0.15241	-0.141
Mof_H 	H 	0.61507	0.50653	0.18323	0.091
Mof_C 	C 	0.62021	0.52365	0.09314	0.105
Mof_C 	C 	0.64983	0.55088	0.04725	-0.139
Mof_H 	H 	0.64037	0.55013	0.00563	0.079
Mof_C 	C 	0.69374	0.57919	0.06432	0.06
Mof_H 	H 	0.71397	0.59793	0.03373	0.027
Mof_C 	C 	0.57317	0.49605	0.07532	-0.068
Mof_C 	C 	0.55353	0.51357	0.03884	-0.04
Mof_H 	H 	0.57067	0.54333	0.02633	0.044
Mof_H 	H 	0.56507	0.38943	0.06603	-0.017
Mof_H 	H 	0.62767	0.41723	0.16403	0.066
Mof_H 	H 	0.62857	0.41743	0.16283	0.067
Mof_O 	O 	0.4457	0.96985	0.43078	-0.409
Mof_O 	O 	0.43299	0.94451	0.52886	-0.413
Mof_C 	C 	0.42161	0.94513	0.47445	0.369
Mof_C 	C 	0.37461	0.91377	0.45668	-0.124
Mof_C 	C 	0.34496	0.88629	0.5022	0.059
Mof_H 	H 	0.35443	0.88677	0.54367	0.025
Mof_C 	C 	0.30168	0.85847	0.48575	-0.141
Mof_H 	H 	0.28173	0.83987	0.51657	0.091
Mof_C 	C 	0.28687	0.85699	0.42648	0.105
Mof_C 	C 	0.31649	0.88422	0.38059	-0.139
Mof_H 	H 	0.30703	0.88347	0.33897	0.079
Mof_C 	C 	0.3604	0.91253	0.39766	0.06
Mof_H 	H 	0.38063	0.93127	0.36707	0.027
Mof_C 	C 	0.23983	0.82939	0.40866	-0.068
Mof_C 	C 	0.22019	0.84691	0.37218	-0.041
Mof_H 	H 	0.23733	0.87667	0.35967	0.044
Mof_H 	H 	0.23173	0.72277	0.39937	-0.017
Mof_H 	H 	0.29433	0.75057	0.49737	0.066
Mof_H 	H 	0.29523	0.75077	0.49617	0.067
Mof_O 	O 	0.80919	0.69682	0.23589	-0.409
Mof_O 	O 	0.82182	0.72216	0.13781	-0.413
Mof_C 	C 	0.80982	0.72154	0.19222	0.369
Mof_C 	C 	0.79418	0.7529	0.20999	-0.124
Mof_C 	C 	0.79201	0.78038	0.16447	0.06
Mof_H 	H 	0.801	0.7799	0.123	0.025
Mof_C 	C 	0.77655	0.8082	0.18092	-0.141
Mof_H 	H 	0.7752	0.8268	0.1501	0.091
Mof_C 	C 	0.76322	0.80968	0.24019	0.105
Mof_C 	C 	0.76561	0.78245	0.28608	-0.139
Mof_H 	H 	0.7569	0.7832	0.3277	0.079
Mof_C 	C 	0.78121	0.75414	0.26901	0.06
Mof_H 	H 	0.7827	0.7354	0.2996	0.027
Mof_C 	C 	0.74378	0.83728	0.25801	-0.068
Mof_C 	C 	0.70662	0.81976	0.29449	-0.041
Mof_H 	H 	0.694	0.79	0.307	0.044
Mof_H 	H 	0.8423	0.9439	0.2673	-0.017
Mof_H 	H 	0.8771	0.9161	0.1693	0.066
Mof_H 	H 	0.8778	0.9159	0.1705	0.067
Mof_O 	O 	0.47586	0.03015	0.56922	-0.409
Mof_O 	O 	0.48849	0.05549	0.47114	-0.413
Mof_C 	C 	0.47649	0.05487	0.52555	0.369
Mof_C 	C 	0.46085	0.08623	0.54332	-0.124
Mof_C 	C 	0.45868	0.11371	0.4978	0.059
Mof_H 	H 	0.46767	0.11323	0.45633	0.025
Mof_C 	C 	0.44322	0.14153	0.51425	-0.141
Mof_H 	H 	0.44187	0.16013	0.48343	0.091
Mof_C 	C 	0.42989	0.14301	0.57352	0.105
Mof_C 	C 	0.43228	0.11578	0.61941	-0.139
Mof_H 	H 	0.42357	0.11653	0.66103	0.079
Mof_C 	C 	0.44788	0.08747	0.60234	0.06
Mof_H 	H 	0.44937	0.06873	0.63293	0.027
Mof_C 	C 	0.41045	0.17061	0.59134	-0.068
Mof_C 	C 	0.37329	0.15309	0.62782	-0.041
Mof_H 	H 	0.36067	0.12333	0.64033	0.044
Mof_H 	H 	0.50897	0.27723	0.60063	-0.017
Mof_H 	H 	0.54377	0.24943	0.50263	0.066
Mof_H 	H 	0.54447	0.24923	0.50383	0.067
Mof_O 	O 	0.14252	0.36349	0.90256	-0.409
Mof_O 	O 	0.15515	0.38883	0.80448	-0.413
Mof_C 	C 	0.14315	0.38821	0.85889	0.369
Mof_C 	C 	0.12751	0.41957	0.87666	-0.124
Mof_C 	C 	0.12534	0.44705	0.83114	0.059
Mof_H 	H 	0.13433	0.44657	0.78967	0.025
Mof_C 	C 	0.10988	0.47487	0.84759	-0.141
Mof_H 	H 	0.10853	0.49347	0.81677	0.091
Mof_C 	C 	0.09655	0.47635	0.90686	0.105
Mof_C 	C 	0.09894	0.44912	0.95275	-0.139
Mof_H 	H 	0.09023	0.44987	0.99437	0.079
Mof_C 	C 	0.11454	0.42081	0.93568	0.06
Mof_H 	H 	0.11603	0.40207	0.96627	0.027
Mof_C 	C 	0.07711	0.50395	0.92468	-0.068
Mof_C 	C 	0.03995	0.48643	0.96116	-0.041
Mof_H 	H 	0.02733	0.45667	0.97367	0.044
Mof_H 	H 	0.17563	0.61057	0.93397	-0.017
Mof_H 	H 	0.21043	0.58277	0.83597	0.066
Mof_H 	H 	0.21113	0.58257	0.83717	0.067
Mof_O 	O 	0.88763	0.19081	0.23589	-0.409
Mof_O 	O 	0.90034	0.17818	0.13781	-0.413
Mof_C 	C 	0.91172	0.19018	0.19222	0.369
Mof_C 	C 	0.95872	0.20582	0.20999	-0.124
Mof_C 	C 	0.98837	0.20799	0.16447	0.059
Mof_H 	H 	0.9789	0.199	0.123	0.025
Mof_C 	C 	0.03165	0.22345	0.18092	-0.141
Mof_H 	H 	0.0516	0.2248	0.1501	0.091
Mof_C 	C 	0.04646	0.23678	0.24019	0.105
Mof_C 	C 	0.01684	0.23439	0.28608	-0.138
Mof_H 	H 	0.0263	0.2431	0.3277	0.079
Mof_C 	C 	0.97293	0.21879	0.26901	0.06
Mof_H 	H 	0.9527	0.2173	0.2996	0.027
Mof_C 	C 	0.0935	0.25622	0.25801	-0.068
Mof_C 	C 	0.11314	0.29338	0.29449	-0.041
Mof_H 	H 	0.096	0.306	0.307	0.044
Mof_H 	H 	0.1016	0.1577	0.2673	-0.017
Mof_H 	H 	0.039	0.1229	0.1693	0.066
Mof_H 	H 	0.0381	0.1222	0.1705	0.067
Mof_O 	O 	0.5543	0.52414	0.56922	-0.409
Mof_O 	O 	0.56701	0.51151	0.47114	-0.413
Mof_C 	C 	0.57839	0.52351	0.52555	0.369
Mof_C 	C 	0.62539	0.53915	0.54332	-0.124
Mof_C 	C 	0.65504	0.54132	0.4978	0.06
Mof_H 	H 	0.64557	0.53233	0.45633	0.025
Mof_C 	C 	0.69832	0.55678	0.51425	-0.141
Mof_H 	H 	0.71827	0.55813	0.48343	0.091
Mof_C 	C 	0.71313	0.57011	0.57352	0.105
Mof_C 	C 	0.68351	0.56772	0.61941	-0.139
Mof_H 	H 	0.69297	0.57643	0.66103	0.079
Mof_C 	C 	0.6396	0.55212	0.60234	0.06
Mof_H 	H 	0.61937	0.55063	0.63293	0.027
Mof_C 	C 	0.76017	0.58955	0.59134	-0.068
Mof_C 	C 	0.77981	0.62671	0.62782	-0.041
Mof_H 	H 	0.76267	0.63933	0.64033	0.044
Mof_H 	H 	0.76827	0.49103	0.60063	-0.017
Mof_H 	H 	0.70567	0.45623	0.50263	0.066
Mof_H 	H 	0.70477	0.45553	0.50383	0.067
Mof_O 	O 	0.22096	0.85748	0.90256	-0.409
Mof_O 	O 	0.23367	0.84485	0.80448	-0.413
Mof_C 	C 	0.24505	0.85685	0.85889	0.369
Mof_C 	C 	0.29205	0.87249	0.87666	-0.124
Mof_C 	C 	0.3217	0.87466	0.83114	0.06
Mof_H 	H 	0.31223	0.86567	0.78967	0.025
Mof_C 	C 	0.36498	0.89012	0.84759	-0.141
Mof_H 	H 	0.38493	0.89147	0.81677	0.091
Mof_C 	C 	0.37979	0.90345	0.90686	0.105
Mof_C 	C 	0.35017	0.90106	0.95275	-0.139
Mof_H 	H 	0.35963	0.90977	0.99437	0.079
Mof_C 	C 	0.30626	0.88546	0.93568	0.06
Mof_H 	H 	0.28603	0.88397	0.96627	0.027
Mof_C 	C 	0.42683	0.92289	0.92468	-0.068
Mof_C 	C 	0.44647	0.96005	0.96116	-0.041
Mof_H 	H 	0.42933	0.97267	0.97367	0.044
Mof_H 	H 	0.43493	0.82437	0.93397	-0.017
Mof_H 	H 	0.37233	0.78957	0.83597	0.066
Mof_H 	H 	0.37143	0.78887	0.83717	0.067
Mof_O 	O 	0.30318	0.11237	0.23589	-0.409
Mof_O 	O 	0.27784	0.09966	0.13781	-0.413
Mof_C 	C 	0.27846	0.08828	0.19222	0.369
Mof_C 	C 	0.2471	0.04128	0.20999	-0.124
Mof_C 	C 	0.21962	0.01163	0.16447	0.059
Mof_H 	H 	0.2201	0.0211	0.123	0.025
Mof_C 	C 	0.1918	0.96835	0.18092	-0.141
Mof_H 	H 	0.1732	0.9484	0.1501	0.091
Mof_C 	C 	0.19032	0.95354	0.24019	0.105
Mof_C 	C 	0.21755	0.98316	0.28608	-0.138
Mof_H 	H 	0.2168	0.9737	0.3277	0.079
Mof_C 	C 	0.24586	0.02707	0.26901	0.06
Mof_H 	H 	0.2646	0.0473	0.2996	0.027
Mof_C 	C 	0.16272	0.9065	0.25801	-0.068
Mof_C 	C 	0.18024	0.88686	0.29449	-0.041
Mof_H 	H 	0.21	0.904	0.307	0.044
Mof_H 	H 	0.0561	0.8984	0.2673	-0.017
Mof_H 	H 	0.0839	0.961	0.1693	0.066
Mof_H 	H 	0.0841	0.9619	0.1705	0.067
Mof_O 	O 	0.96985	0.4457	0.56922	-0.409
Mof_O 	O 	0.94451	0.43299	0.47114	-0.413
Mof_C 	C 	0.94513	0.42161	0.52555	0.369
Mof_C 	C 	0.91377	0.37461	0.54332	-0.124
Mof_C 	C 	0.88629	0.34496	0.4978	0.059
Mof_H 	H 	0.88677	0.35443	0.45633	0.025
Mof_C 	C 	0.85847	0.30168	0.51425	-0.141
Mof_H 	H 	0.83987	0.28173	0.48343	0.091
Mof_C 	C 	0.85699	0.28687	0.57352	0.105
Mof_C 	C 	0.88422	0.31649	0.61941	-0.139
Mof_H 	H 	0.88347	0.30703	0.66103	0.079
Mof_C 	C 	0.91253	0.3604	0.60234	0.06
Mof_H 	H 	0.93127	0.38063	0.63293	0.027
Mof_C 	C 	0.82939	0.23983	0.59134	-0.068
Mof_C 	C 	0.84691	0.22019	0.62782	-0.041
Mof_H 	H 	0.87667	0.23733	0.64033	0.044
Mof_H 	H 	0.72277	0.23173	0.60063	-0.017
Mof_H 	H 	0.75057	0.29433	0.50263	0.066
Mof_H 	H 	0.75077	0.29523	0.50383	0.067
Mof_O 	O 	0.63651	0.77904	0.90256	-0.409
Mof_O 	O 	0.61117	0.76633	0.80448	-0.413
Mof_C 	C 	0.61179	0.75495	0.85889	0.369
Mof_C 	C 	0.58043	0.70795	0.87666	-0.124
Mof_C 	C 	0.55295	0.6783	0.83114	0.06
Mof_H 	H 	0.55343	0.68777	0.78967	0.025
Mof_C 	C 	0.52513	0.63502	0.84759	-0.141
Mof_H 	H 	0.50653	0.61507	0.81677	0.091
Mof_C 	C 	0.52365	0.62021	0.90686	0.105
Mof_C 	C 	0.55088	0.64983	0.95275	-0.139
Mof_H 	H 	0.55013	0.64037	0.99437	0.079
Mof_C 	C 	0.57919	0.69374	0.93568	0.06
Mof_H 	H 	0.59793	0.71397	0.96627	0.027
Mof_C 	C 	0.49605	0.57317	0.92468	-0.068
Mof_C 	C 	0.51357	0.55353	0.96116	-0.04
Mof_H 	H 	0.54333	0.57067	0.97367	0.044
Mof_H 	H 	0.38943	0.56507	0.93397	-0.017
Mof_H 	H 	0.41723	0.62767	0.83597	0.066
Mof_H 	H 	0.41743	0.62857	0.83717	0.067
Mof_Cu	Cu	0.31879	0.1594	0.10893	0.903
Mof_Cu	Cu	0.98546	0.49273	0.44226	0.903
Mof_Cu	Cu	0.65212	0.82606	0.7756	0.903
Mof_Cu	Cu	0.8406	0.1594	0.10893	0.903
Mof_Cu	Cu	0.50727	0.49273	0.44226	0.903
Mof_Cu	Cu	0.17394	0.82606	0.7756	0.903
Mof_Cu	Cu	0.8406	0.68121	0.10893	0.903
Mof_Cu	Cu	0.50727	0.01454	0.44226	0.903
Mof_Cu	Cu	0.17394	0.34788	0.7756	0.903
Mof_Cu	Cu	0.15939	0.31879	0.89107	0.903
Mof_Cu	Cu	0.82606	0.65212	0.2244	0.903
Mof_Cu	Cu	0.49273	0.98546	0.55774	0.903
Mof_Cu	Cu	0.1594	0.84061	0.89107	0.903
Mof_Cu	Cu	0.82606	0.17394	0.2244	0.903
Mof_Cu	Cu	0.49273	0.50727	0.55774	0.903
Mof_Cu	Cu	0.68121	0.8406	0.89107	0.903
Mof_Cu	Cu	0.34788	0.17394	0.2244	0.903
Mof_Cu	Cu	0.01454	0.50727	0.55774	0.903
Mof_O 	O 	0.10007	0.20013	0.20327	-0.242
Mof_C 	C 	0.15672	0.31345	0.314	0.005
Mof_C 	C 	0.11847	0.23695	0.2401	0.14
Mof_C 	C 	0.07946	0.15893	0.2404	0.181
Mof_C 	C 	0.0606	0.1212	0.1962	-0.409
Mof_H 	H 	0.0468	0.0936	0.2196	0.142
Mof_O 	O 	0.76673	0.53346	0.5366	-0.242
Mof_C 	C 	0.82339	0.64678	0.64733	0.005
Mof_C 	C 	0.78514	0.57028	0.57343	0.14
Mof_C 	C 	0.74613	0.49226	0.57373	0.181
Mof_C 	C 	0.72727	0.45453	0.52953	-0.409
Mof_H 	H 	0.71347	0.42693	0.55293	0.141
Mof_O 	O 	0.4334	0.8668	0.86994	-0.242
Mof_C 	C 	0.49006	0.98012	0.98067	0.005
Mof_C 	C 	0.45181	0.90362	0.90677	0.14
Mof_C 	C 	0.4128	0.8256	0.90707	0.181
Mof_C 	C 	0.39393	0.78787	0.86287	-0.409
Mof_H 	H 	0.38013	0.76027	0.88627	0.142
Mof_O 	O 	0.79987	0.89993	0.20327	-0.242
Mof_C 	C 	0.68655	0.84328	0.314	0.005
Mof_C 	C 	0.76305	0.88152	0.2401	0.14
Mof_C 	C 	0.84107	0.92053	0.2404	0.181
Mof_C 	C 	0.8788	0.9394	0.1962	-0.409
Mof_H 	H 	0.9064	0.9532	0.2196	0.142
Mof_O 	O 	0.46654	0.23327	0.5366	-0.242
Mof_C 	C 	0.35322	0.17661	0.64733	0.005
Mof_C 	C 	0.42972	0.21486	0.57343	0.14
Mof_C 	C 	0.50774	0.25387	0.57373	0.181
Mof_C 	C 	0.54547	0.27273	0.52953	-0.409
Mof_H 	H 	0.57307	0.28653	0.55293	0.141
Mof_O 	O 	0.1332	0.5666	0.86994	-0.242
Mof_C 	C 	0.01988	0.50994	0.98067	0.005
Mof_C 	C 	0.09638	0.54819	0.90677	0.14
Mof_C 	C 	0.1744	0.5872	0.90707	0.181
Mof_C 	C 	0.21213	0.60607	0.86287	-0.409
Mof_H 	H 	0.23973	0.61987	0.88627	0.142
Mof_O 	O 	0.10007	0.89994	0.20327	-0.242
Mof_C 	C 	0.15673	0.84328	0.314	0.005
Mof_C 	C 	0.11848	0.88153	0.2401	0.139
Mof_C 	C 	0.07947	0.92054	0.2404	0.181
Mof_C 	C 	0.0606	0.9394	0.1962	-0.409
Mof_H 	H 	0.0468	0.9532	0.2196	0.142
Mof_O 	O 	0.76673	0.23327	0.5366	-0.242
Mof_C 	C 	0.82339	0.17661	0.64733	0.005
Mof_C 	C 	0.78514	0.21486	0.57343	0.139
Mof_C 	C 	0.74613	0.25387	0.57373	0.182
Mof_C 	C 	0.72727	0.27273	0.52953	-0.41
Mof_H 	H 	0.71347	0.28653	0.55293	0.142
Mof_O 	O 	0.4334	0.5666	0.86994	-0.242
Mof_C 	C 	0.49006	0.50994	0.98067	0.005
Mof_C 	C 	0.45181	0.54819	0.90677	0.14
Mof_C 	C 	0.4128	0.5872	0.90707	0.181
Mof_C 	C 	0.39393	0.60607	0.86287	-0.409
Mof_H 	H 	0.38013	0.61987	0.88627	0.141
Mof_O 	O 	0.20013	0.10007	0.79673	-0.242
Mof_C 	C 	0.31345	0.15672	0.686	0.005
Mof_C 	C 	0.23695	0.11847	0.7599	0.14
Mof_C 	C 	0.15893	0.07947	0.7596	0.181
Mof_C 	C 	0.1212	0.0606	0.8038	-0.409
Mof_H 	H 	0.0936	0.0468	0.7804	0.142
Mof_O 	O 	0.8668	0.4334	0.13006	-0.242
Mof_C 	C 	0.98012	0.49006	0.01933	0.005
Mof_C 	C 	0.90362	0.45181	0.09323	0.14
Mof_C 	C 	0.8256	0.4128	0.09293	0.181
Mof_C 	C 	0.78787	0.39393	0.13713	-0.409
Mof_H 	H 	0.76027	0.38013	0.11373	0.142
Mof_O 	O 	0.53346	0.76673	0.4634	-0.242
Mof_C 	C 	0.64678	0.82339	0.35267	0.005
Mof_C 	C 	0.57028	0.78514	0.42657	0.14
Mof_C 	C 	0.49226	0.74613	0.42627	0.181
Mof_C 	C 	0.45453	0.72727	0.47047	-0.409
Mof_H 	H 	0.42693	0.71347	0.44707	0.141
Mof_O 	O 	0.89993	0.79987	0.79673	-0.242
Mof_C 	C 	0.84327	0.68655	0.686	0.005
Mof_C 	C 	0.88152	0.76305	0.7599	0.14
Mof_C 	C 	0.92053	0.84107	0.7596	0.181
Mof_C 	C 	0.9394	0.8788	0.8038	-0.409
Mof_H 	H 	0.9532	0.9064	0.7804	0.142
Mof_O 	O 	0.5666	0.1332	0.13006	-0.242
Mof_C 	C 	0.50994	0.01988	0.01933	0.005
Mof_C 	C 	0.54819	0.09638	0.09323	0.14
Mof_C 	C 	0.5872	0.1744	0.09293	0.181
Mof_C 	C 	0.60607	0.21213	0.13713	-0.409
Mof_H 	H 	0.61987	0.23973	0.11373	0.142
Mof_O 	O 	0.23327	0.46654	0.4634	-0.242
Mof_C 	C 	0.17661	0.35322	0.35267	0.005
Mof_C 	C 	0.21486	0.42972	0.42657	0.14
Mof_C 	C 	0.25387	0.50774	0.42627	0.181
Mof_C 	C 	0.27273	0.54547	0.47047	-0.409
Mof_H 	H 	0.28653	0.57307	0.44707	0.141
Mof_O 	O 	0.89993	0.10007	0.79673	-0.242
Mof_C 	C 	0.84327	0.15673	0.686	0.005
Mof_C 	C 	0.88152	0.11848	0.7599	0.14
Mof_C 	C 	0.92053	0.07947	0.7596	0.181
Mof_C 	C 	0.9394	0.0606	0.8038	-0.409
Mof_H 	H 	0.9532	0.0468	0.7804	0.142
Mof_O 	O 	0.5666	0.4334	0.13006	-0.242
Mof_C 	C 	0.50994	0.49006	0.01933	0.005
Mof_C 	C 	0.54819	0.45181	0.09323	0.14
Mof_C 	C 	0.5872	0.4128	0.09293	0.181
Mof_C 	C 	0.60607	0.39393	0.13713	-0.409
Mof_H 	H 	0.61987	0.38013	0.11373	0.141
Mof_O 	O 	0.23327	0.76673	0.4634	-0.242
Mof_C 	C 	0.17661	0.82339	0.35267	0.005
Mof_C 	C 	0.21486	0.78514	0.42657	0.14
Mof_C 	C 	0.25387	0.74613	0.42627	0.182
Mof_C 	C 	0.27273	0.72727	0.47047	-0.41
Mof_H 	H 	0.28653	0.71347	0.44707	0.142
_end
