data_functionalizedCrystal
_audit_creation_method	'EQeq! by Chris Wilmer'
_symmetry_space_group_name_H-M	'P1'
_symmetry_Int_Tables_number	1
_symmetry_cell_setting	triclinic
loop_
_symmetry_equiv_pos_as_xyz
  x,y,z
_cell_length_a	7.6396
_cell_length_b	10.1725
_cell_length_c	12.1168
_cell_angle_alpha	114.82
_cell_angle_beta	96.9017
_cell_angle_gamma	90
loop_
_atom_site_label
_atom_site_type_symbol
_atom_site_fract_x
_atom_site_fract_y
_atom_site_fract_z
_atom_site_charge
Mof_Cd	Cd	-3.6084e-18	0	0.5	0.315
Mof_Cd	Cd	0.5	0.5	0.5	0.358
Mof_H 	H 	0.9785	0.8162	0.6578	0.011
Mof_H 	H 	0.8999	0.8227	0.8354	0.103
Mof_H 	H 	0.7058	0.213	0.9054	0.092
Mof_H 	H 	0.79	0.1945	0.7244	0
Mof_H 	H 	0.5215	0.1584	0.3422	-0.009
Mof_H 	H 	0.6001	0.9873	0.1646	0.134
Mof_H 	H 	0.7942	0.3076	0.0946	0.12
Mof_H 	H 	0.71	0.4701	0.2756	-0.004
Mof_H 	H 	0.0215	0.1838	0.3422	-0.006
Mof_H 	H 	0.1001	0.1773	0.1646	0.112
Mof_H 	H 	0.2942	0.787	0.0946	0.113
Mof_H 	H 	0.21	0.8055	0.2756	-0.006
Mof_H 	H 	0.4785	0.8416	0.6578	0.014
Mof_H 	H 	0.3999	0.0127	0.8354	0.075
Mof_H 	H 	0.2058	0.6924	0.9054	0.085
Mof_H 	H 	0.29	0.5299	0.7244	-0.005
Mof_H 	H 	0.75	0.9318	-0	0.151
Mof_H 	H 	0.25	0.0682	-0	0.125
Mof_C 	C 	0.1272	0.64668	0.41616	0.078
Mof_C 	C 	0.7981	0.02117	0.89514	0.161
Mof_C 	C 	0.9251	0.89752	0.70884	0.119
Mof_C 	C 	0.8782	0.9008	0.8158	-0.189
Mof_C 	C 	0.763	0.13209	0.85758	-0.204
Mof_C 	C 	0.8144	0.1199	0.7482	0.105
Mof_C 	C 	0.3728	0.23052	0.58384	0.082
Mof_C 	C 	0.7019	0.12603	0.10486	0.223
Mof_C 	C 	0.5749	0.18868	0.29116	0.14
Mof_C 	C 	0.6218	0.085	0.1842	-0.257
Mof_C 	C 	0.737	0.27451	0.14242	-0.232
Mof_C 	C 	0.6856	0.3717	0.2518	0.128
Mof_C 	C 	0.8728	0.35332	0.58384	0.089
Mof_C 	C 	0.2019	0.97883	0.10486	0.218
Mof_C 	C 	0.0749	0.10248	0.29116	0.107
Mof_C 	C 	0.1218	0.0992	0.1842	-0.242
Mof_C 	C 	0.237	0.86791	0.14242	-0.231
Mof_C 	C 	0.1856	0.8801	0.2518	0.122
Mof_C 	C 	0.6272	0.76948	0.41616	0.087
Mof_C 	C 	0.2981	0.87397	0.89514	0.154
Mof_C 	C 	0.4251	0.81132	0.70884	0.088
Mof_C 	C 	0.3782	0.915	0.8158	-0.164
Mof_C 	C 	0.263	0.72549	0.85758	-0.202
Mof_C 	C 	0.3144	0.6283	0.7482	0.099
Mof_S 	S 	0.17687	0.47472	0.36066	-0.085
Mof_S 	S 	0.32313	0.11406	0.63934	-0.092
Mof_S 	S 	0.82313	0.52528	0.63934	-0.066
Mof_S 	S 	0.67687	0.88594	0.36066	-0.05
Mof_N 	N 	0.0907	0.76647	0.45454	-0.155
Mof_N 	N 	0.8975	0.00661	0.67422	-0.165
Mof_N 	N 	0.4093	0.31193	0.54546	-0.156
Mof_N 	N 	0.6025	0.33239	0.32578	-0.175
Mof_N 	N 	0.9093	0.23353	0.54546	-0.144
Mof_N 	N 	0.1025	0.99339	0.32578	-0.163
Mof_N 	N 	0.5907	0.68807	0.45454	-0.153
Mof_N 	N 	0.3975	0.66761	0.67422	-0.164
Mof_N 	N 	0.75	0.0166	-0	-0.254
Mof_N 	N 	0.25	0.9834	-0	-0.235
_end
