data_functionalizedCrystal
_audit_creation_method	'EQeq! by Chris Wilmer'
_symmetry_space_group_name_H-M	'P1'
_symmetry_Int_Tables_number	1
_symmetry_cell_setting	triclinic
loop_
_symmetry_equiv_pos_as_xyz
  x,y,z
_cell_length_a	18.567
_cell_length_b	9.934
_cell_length_c	30.764
_cell_angle_alpha	90
_cell_angle_beta	90
_cell_angle_gamma	90
loop_
_atom_site_label
_atom_site_type_symbol
_atom_site_fract_x
_atom_site_fract_y
_atom_site_fract_z
_atom_site_charge
Mof_N 	N 	0.921	0.6749	0.20413	-0.222
Mof_O 	O 	0.7278	0.5423	0.09917	-0.246
Mof_N 	N 	0.763	0.8536	0.9164	-0.167
Mof_N 	N 	0.7356	0.7653	0.08641	-0.224
Mof_H 	H 	0.753	0.8414	0.0946	0.151
Mof_O 	O 	0.7737	0.6649	0.8989	-0.139
Mof_C 	C 	0.6893	0.7966	0.8576	0.221
Mof_C 	C 	0.6882	0.7076	0.8223	-0.105
Mof_H 	H 	0.7205	0.6376	0.8175	0.054
Mof_C 	C 	0.637	0.889	0.8615	-0.432
Mof_H 	H 	0.6367	0.9387	0.887	0.106
Mof_C 	C 	0.7443	0.7732	0.8932	0.084
Mof_O 	O 	0.7418	0.0385	0.9079	-0.171
Mof_C 	C 	0.6807	0.8945	0.8625	0.081
Mof_C 	C 	0.687	0.7824	0.8334	-0.195
Mof_H 	H 	0.7275	0.7284	0.8367	0.087
Mof_C 	C 	0.6202	0.9714	0.8576	0.25
Mof_H 	H 	0.6111	0.0493	0.8734	-0.062
Mof_C 	C 	0.7324	0.923	0.8976	0.159
Mof_N 	N 	0.5786	0.8291	0.79684	-0.233
Mof_C 	C 	0.6328	0.7408	0.7966	0.144
Mof_H 	H 	0.6317	0.6875	0.7718	-0.042
Mof_C 	C 	0.576	0.9224	0.8276	0.033
Mof_H 	H 	0.544	0.9944	0.8289	-0.012
Mof_C 	C 	0.812	0.6662	0.14186	0.016
Mof_C 	C 	0.8606	0.7692	0.14353	-0.116
Mof_H 	H 	0.8572	0.8398	0.1238	0.081
Mof_C 	C 	0.9145	0.7694	0.17392	0.078
Mof_H 	H 	0.948	0.839	0.1734	-0.003
Mof_C 	C 	0.8712	0.5738	0.2032	0.064
Mof_H 	H 	0.8737	0.5071	0.2244	-0.007
Mof_C 	C 	0.8182	0.5661	0.17296	-0.107
Mof_H 	H 	0.7862	0.4941	0.1731	0.076
Mof_C 	C 	0.7542	0.6539	0.10748	0.198
Mof_C 	C 	0.8126	0.8585	0.953	-0.009
Mof_H 	H 	0.8218	0.9516	0.9607	0.053
Mof_H 	H 	0.8581	0.8178	0.9446	0.052
Mof_C 	C 	0.7818	0.7834	0.9929	-0.104
Mof_H 	H 	0.7696	0.6922	0.9844	0.081
Mof_H 	H 	0.8189	0.778	0.0151	0.069
Mof_C 	C 	0.7155	0.85	0.0123	-0.123
Mof_H 	H 	0.679	0.8612	0.9901	0.074
Mof_H 	H 	0.7279	0.9382	0.0235	0.079
Mof_C 	C 	0.686	0.7604	0.0495	-0.002
Mof_H 	H 	0.6389	0.7923	0.0583	0.035
Mof_H 	H 	0.6811	0.6684	0.0394	0.046
Mof_N 	N 	0.579	0.8251	0.70413	-0.235
Mof_O 	O 	0.7722	0.9577	0.59917	-0.244
Mof_N 	N 	0.737	0.6464	0.4164	-0.167
Mof_N 	N 	0.7644	0.7347	0.58641	-0.223
Mof_H 	H 	0.747	0.6586	0.5946	0.151
Mof_O 	O 	0.7263	0.8351	0.3989	-0.141
Mof_C 	C 	0.8107	0.7034	0.3576	0.215
Mof_C 	C 	0.8118	0.7924	0.3223	-0.103
Mof_H 	H 	0.7795	0.8624	0.3175	0.054
Mof_C 	C 	0.863	0.611	0.3615	-0.452
Mof_H 	H 	0.8633	0.5613	0.387	0.112
Mof_C 	C 	0.7557	0.7268	0.3932	0.087
Mof_O 	O 	0.7582	0.4615	0.4079	-0.171
Mof_C 	C 	0.8193	0.6055	0.3625	0.098
Mof_C 	C 	0.813	0.7176	0.3334	-0.19
Mof_H 	H 	0.7725	0.7716	0.3367	0.084
Mof_C 	C 	0.8798	0.5286	0.3576	0.26
Mof_H 	H 	0.8889	0.4507	0.3734	-0.06
Mof_C 	C 	0.7676	0.577	0.3976	0.153
Mof_N 	N 	0.9214	0.6709	0.29684	-0.222
Mof_C 	C 	0.8672	0.7592	0.2966	0.146
Mof_H 	H 	0.8683	0.8125	0.2718	-0.037
Mof_C 	C 	0.924	0.5776	0.3276	0.041
Mof_H 	H 	0.956	0.5056	0.3289	-0.001
Mof_C 	C 	0.688	0.8338	0.64186	0.017
Mof_C 	C 	0.6394	0.7308	0.64353	-0.121
Mof_H 	H 	0.6428	0.6602	0.6238	0.078
Mof_C 	C 	0.5855	0.7306	0.67392	0.076
Mof_H 	H 	0.552	0.661	0.6734	-0.016
Mof_C 	C 	0.6288	0.9262	0.7032	0.061
Mof_H 	H 	0.6263	0.9929	0.7244	-0.013
Mof_C 	C 	0.6818	0.9339	0.67296	-0.11
Mof_H 	H 	0.7138	0.0059	0.6731	0.076
Mof_C 	C 	0.7458	0.8461	0.60748	0.197
Mof_C 	C 	0.6874	0.6415	0.453	-0.005
Mof_H 	H 	0.6782	0.5484	0.4607	0.049
Mof_H 	H 	0.6419	0.6822	0.4446	0.044
Mof_C 	C 	0.7182	0.7166	0.4929	-0.104
Mof_H 	H 	0.7304	0.8078	0.4844	0.081
Mof_H 	H 	0.6811	0.722	0.5151	0.064
Mof_C 	C 	0.7845	0.65	0.5123	-0.123
Mof_H 	H 	0.821	0.6388	0.4901	0.078
Mof_H 	H 	0.7721	0.5618	0.5235	0.08
Mof_C 	C 	0.814	0.7396	0.5495	-0.006
Mof_H 	H 	0.8611	0.7077	0.5583	0.044
Mof_H 	H 	0.8189	0.8316	0.5394	0.05
Mof_N 	N 	0.079	0.6749	0.29587	-0.241
Mof_O 	O 	0.2722	0.5423	0.40083	-0.247
Mof_N 	N 	0.237	0.8536	0.5836	-0.169
Mof_N 	N 	0.2644	0.7653	0.41359	-0.224
Mof_H 	H 	0.247	0.8414	0.4054	0.149
Mof_O 	O 	0.2263	0.6649	0.6011	-0.141
Mof_C 	C 	0.3107	0.7966	0.6424	0.22
Mof_C 	C 	0.3118	0.7076	0.6777	-0.108
Mof_H 	H 	0.2795	0.6376	0.6825	0.054
Mof_C 	C 	0.363	0.889	0.6385	-0.436
Mof_H 	H 	0.3633	0.9387	0.613	0.107
Mof_C 	C 	0.2557	0.7732	0.6068	0.083
Mof_O 	O 	0.2582	0.0385	0.5921	-0.175
Mof_C 	C 	0.3193	0.8945	0.6375	0.081
Mof_C 	C 	0.313	0.7824	0.6666	-0.192
Mof_H 	H 	0.2725	0.7284	0.6633	0.085
Mof_C 	C 	0.3798	0.9714	0.6424	0.255
Mof_H 	H 	0.3889	0.0493	0.6266	-0.064
Mof_C 	C 	0.2676	0.923	0.6024	0.159
Mof_N 	N 	0.4214	0.8291	0.70316	-0.233
Mof_C 	C 	0.3672	0.7408	0.7034	0.144
Mof_H 	H 	0.3683	0.6875	0.7282	-0.043
Mof_C 	C 	0.424	0.9224	0.6724	0.031
Mof_H 	H 	0.456	0.9944	0.6711	-0.012
Mof_C 	C 	0.188	0.6662	0.35814	0.014
Mof_C 	C 	0.1394	0.7692	0.35647	-0.124
Mof_H 	H 	0.1428	0.8398	0.3762	0.075
Mof_C 	C 	0.0855	0.7694	0.32608	0.072
Mof_H 	H 	0.052	0.839	0.3266	-0.027
Mof_C 	C 	0.1288	0.5738	0.2968	0.058
Mof_H 	H 	0.1263	0.5071	0.2756	-0.016
Mof_C 	C 	0.1818	0.5661	0.32704	-0.111
Mof_H 	H 	0.2138	0.4941	0.3269	0.074
Mof_C 	C 	0.2458	0.6539	0.39252	0.195
Mof_C 	C 	0.1874	0.8585	0.547	-0.002
Mof_H 	H 	0.1782	0.9516	0.5393	0.044
Mof_H 	H 	0.1419	0.8178	0.5554	0.036
Mof_C 	C 	0.2182	0.7834	0.5071	-0.105
Mof_H 	H 	0.2304	0.6922	0.5156	0.079
Mof_H 	H 	0.1811	0.778	0.4849	0.061
Mof_C 	C 	0.2845	0.85	0.4877	-0.123
Mof_H 	H 	0.321	0.8612	0.5099	0.074
Mof_H 	H 	0.2721	0.9382	0.4765	0.078
Mof_C 	C 	0.314	0.7604	0.4505	-0.003
Mof_H 	H 	0.3611	0.7923	0.4417	0.036
Mof_H 	H 	0.3189	0.6684	0.4606	0.046
Mof_N 	N 	0.421	0.8251	0.79587	-0.235
Mof_O 	O 	0.2278	0.9577	0.90083	-0.249
Mof_N 	N 	0.263	0.6464	0.0836	-0.17
Mof_N 	N 	0.2356	0.7347	0.91359	-0.225
Mof_H 	H 	0.253	0.6586	0.9054	0.149
Mof_O 	O 	0.2737	0.8351	0.1011	-0.14
Mof_C 	C 	0.1893	0.7034	0.1424	0.227
Mof_C 	C 	0.1882	0.7924	0.1777	-0.111
Mof_H 	H 	0.2205	0.8624	0.1825	0.053
Mof_C 	C 	0.137	0.611	0.1385	-0.415
Mof_H 	H 	0.1367	0.5613	0.113	0.101
Mof_C 	C 	0.2443	0.7268	0.1068	0.08
Mof_O 	O 	0.2418	0.4615	0.0921	-0.176
Mof_C 	C 	0.1807	0.6055	0.1375	0.062
Mof_C 	C 	0.187	0.7176	0.1666	-0.196
Mof_H 	H 	0.2275	0.7716	0.1633	0.087
Mof_C 	C 	0.1202	0.5286	0.1424	0.246
Mof_H 	H 	0.1111	0.4507	0.1266	-0.066
Mof_C 	C 	0.2324	0.577	0.1024	0.166
Mof_N 	N 	0.0786	0.6709	0.20316	-0.239
Mof_C 	C 	0.1328	0.7592	0.2034	0.143
Mof_H 	H 	0.1317	0.8125	0.2282	-0.046
Mof_C 	C 	0.076	0.5776	0.1724	0.022
Mof_H 	H 	0.044	0.5056	0.1711	-0.021
Mof_C 	C 	0.312	0.8338	0.85814	0.015
Mof_C 	C 	0.3606	0.7308	0.85647	-0.12
Mof_H 	H 	0.3572	0.6602	0.8762	0.078
Mof_C 	C 	0.4145	0.7306	0.82608	0.075
Mof_H 	H 	0.448	0.661	0.8266	-0.016
Mof_C 	C 	0.3712	0.9262	0.7968	0.061
Mof_H 	H 	0.3737	0.9929	0.7756	-0.013
Mof_C 	C 	0.3182	0.9339	0.82704	-0.11
Mof_H 	H 	0.2862	0.0059	0.8269	0.075
Mof_C 	C 	0.2542	0.8461	0.89252	0.196
Mof_C 	C 	0.3126	0.6415	0.047	-0.005
Mof_H 	H 	0.3218	0.5484	0.0393	0.048
Mof_H 	H 	0.3581	0.6822	0.0554	0.044
Mof_C 	C 	0.2818	0.7166	0.0071	-0.104
Mof_H 	H 	0.2696	0.8078	0.0156	0.079
Mof_H 	H 	0.3189	0.722	0.9849	0.064
Mof_C 	C 	0.2155	0.65	0.9877	-0.124
Mof_H 	H 	0.179	0.6388	0.0099	0.07
Mof_H 	H 	0.2279	0.5618	0.9765	0.077
Mof_C 	C 	0.186	0.7396	0.9505	0.001
Mof_H 	H 	0.1389	0.7077	0.9417	0.027
Mof_H 	H 	0.1811	0.8316	0.9606	0.041
Mof_N 	N 	0.079	0.3251	0.79587	-0.241
Mof_O 	O 	0.2722	0.4577	0.90083	-0.247
Mof_N 	N 	0.237	0.1464	0.0836	-0.169
Mof_N 	N 	0.2644	0.2347	0.91359	-0.224
Mof_H 	H 	0.247	0.1586	0.9054	0.149
Mof_O 	O 	0.2263	0.3351	0.1011	-0.141
Mof_C 	C 	0.3107	0.2034	0.1424	0.22
Mof_C 	C 	0.3118	0.2924	0.1777	-0.108
Mof_H 	H 	0.2795	0.3624	0.1825	0.054
Mof_C 	C 	0.363	0.111	0.1385	-0.437
Mof_H 	H 	0.3633	0.0613	0.113	0.107
Mof_C 	C 	0.2557	0.2268	0.1068	0.083
Mof_O 	O 	0.2582	0.9615	0.0921	-0.175
Mof_C 	C 	0.3193	0.1055	0.1375	0.081
Mof_C 	C 	0.313	0.2176	0.1666	-0.192
Mof_H 	H 	0.2725	0.2716	0.1633	0.085
Mof_C 	C 	0.3798	0.0286	0.1424	0.255
Mof_H 	H 	0.3889	0.9507	0.1266	-0.064
Mof_C 	C 	0.2676	0.077	0.1024	0.159
Mof_N 	N 	0.4214	0.1709	0.20316	-0.233
Mof_C 	C 	0.3672	0.2592	0.2034	0.144
Mof_H 	H 	0.3683	0.3125	0.2282	-0.043
Mof_C 	C 	0.424	0.0776	0.1724	0.031
Mof_H 	H 	0.456	0.0056	0.1711	-0.012
Mof_C 	C 	0.188	0.3338	0.85814	0.014
Mof_C 	C 	0.1394	0.2308	0.85647	-0.124
Mof_H 	H 	0.1428	0.1602	0.8762	0.075
Mof_C 	C 	0.0855	0.2306	0.82608	0.072
Mof_H 	H 	0.052	0.161	0.8266	-0.027
Mof_C 	C 	0.1288	0.4262	0.7968	0.058
Mof_H 	H 	0.1263	0.4929	0.7756	-0.016
Mof_C 	C 	0.1818	0.4339	0.82704	-0.111
Mof_H 	H 	0.2138	0.5059	0.8269	0.074
Mof_C 	C 	0.2458	0.3461	0.89252	0.195
Mof_C 	C 	0.1874	0.1415	0.047	-0.002
Mof_H 	H 	0.1782	0.0484	0.0393	0.044
Mof_H 	H 	0.1419	0.1822	0.0554	0.036
Mof_C 	C 	0.2182	0.2166	0.0071	-0.105
Mof_H 	H 	0.2304	0.3078	0.0156	0.079
Mof_H 	H 	0.1811	0.222	0.9849	0.061
Mof_C 	C 	0.2845	0.15	0.9877	-0.123
Mof_H 	H 	0.321	0.1388	0.0099	0.074
Mof_H 	H 	0.2721	0.0618	0.9765	0.078
Mof_C 	C 	0.314	0.2396	0.9505	-0.003
Mof_H 	H 	0.3611	0.2077	0.9417	0.036
Mof_H 	H 	0.3189	0.3316	0.9606	0.046
Mof_N 	N 	0.421	0.1749	0.29587	-0.235
Mof_O 	O 	0.2278	0.0423	0.40083	-0.249
Mof_N 	N 	0.263	0.3536	0.5836	-0.17
Mof_N 	N 	0.2356	0.2653	0.41359	-0.225
Mof_H 	H 	0.253	0.3414	0.4054	0.149
Mof_O 	O 	0.2737	0.1649	0.6011	-0.14
Mof_C 	C 	0.1893	0.2966	0.6424	0.227
Mof_C 	C 	0.1882	0.2076	0.6777	-0.111
Mof_H 	H 	0.2205	0.1376	0.6825	0.053
Mof_C 	C 	0.137	0.389	0.6385	-0.415
Mof_H 	H 	0.1367	0.4387	0.613	0.101
Mof_C 	C 	0.2443	0.2732	0.6068	0.08
Mof_O 	O 	0.2418	0.5385	0.5921	-0.176
Mof_C 	C 	0.1807	0.3945	0.6375	0.062
Mof_C 	C 	0.187	0.2824	0.6666	-0.196
Mof_H 	H 	0.2275	0.2284	0.6633	0.087
Mof_C 	C 	0.1202	0.4714	0.6424	0.246
Mof_H 	H 	0.1111	0.5493	0.6266	-0.066
Mof_C 	C 	0.2324	0.423	0.6024	0.166
Mof_N 	N 	0.0786	0.3291	0.70316	-0.239
Mof_C 	C 	0.1328	0.2408	0.7034	0.143
Mof_H 	H 	0.1317	0.1875	0.7282	-0.046
Mof_C 	C 	0.076	0.4224	0.6724	0.022
Mof_H 	H 	0.044	0.4944	0.6711	-0.021
Mof_C 	C 	0.312	0.1662	0.35814	0.015
Mof_C 	C 	0.3606	0.2692	0.35647	-0.12
Mof_H 	H 	0.3572	0.3398	0.3762	0.078
Mof_C 	C 	0.4145	0.2694	0.32608	0.075
Mof_H 	H 	0.448	0.339	0.3266	-0.016
Mof_C 	C 	0.3712	0.0738	0.2968	0.061
Mof_H 	H 	0.3737	0.0071	0.2756	-0.013
Mof_C 	C 	0.3182	0.0661	0.32704	-0.11
Mof_H 	H 	0.2862	0.9941	0.3269	0.075
Mof_C 	C 	0.2542	0.1539	0.39252	0.196
Mof_C 	C 	0.3126	0.3585	0.547	-0.005
Mof_H 	H 	0.3218	0.4516	0.5393	0.048
Mof_H 	H 	0.3581	0.3178	0.5554	0.044
Mof_C 	C 	0.2818	0.2834	0.5071	-0.104
Mof_H 	H 	0.2696	0.1922	0.5156	0.079
Mof_H 	H 	0.3189	0.278	0.4849	0.065
Mof_C 	C 	0.2155	0.35	0.4877	-0.124
Mof_H 	H 	0.179	0.3612	0.5099	0.07
Mof_H 	H 	0.2279	0.4382	0.4765	0.077
Mof_C 	C 	0.186	0.2604	0.4505	0.001
Mof_H 	H 	0.1389	0.2923	0.4417	0.027
Mof_H 	H 	0.1811	0.1684	0.4606	0.041
Mof_N 	N 	0.921	0.3251	0.70413	-0.223
Mof_O 	O 	0.7278	0.4577	0.59917	-0.246
Mof_N 	N 	0.763	0.1464	0.4164	-0.167
Mof_N 	N 	0.7356	0.2347	0.58641	-0.224
Mof_H 	H 	0.753	0.1586	0.5946	0.151
Mof_O 	O 	0.7737	0.3351	0.3989	-0.139
Mof_C 	C 	0.6893	0.2034	0.3576	0.221
Mof_C 	C 	0.6882	0.2924	0.3223	-0.105
Mof_H 	H 	0.7205	0.3624	0.3175	0.054
Mof_C 	C 	0.637	0.111	0.3615	-0.432
Mof_H 	H 	0.6367	0.0613	0.387	0.106
Mof_C 	C 	0.7443	0.2268	0.3932	0.084
Mof_O 	O 	0.7418	0.9615	0.4079	-0.171
Mof_C 	C 	0.6807	0.1055	0.3625	0.081
Mof_C 	C 	0.687	0.2176	0.3334	-0.195
Mof_H 	H 	0.7275	0.2716	0.3367	0.087
Mof_C 	C 	0.6202	0.0286	0.3576	0.25
Mof_H 	H 	0.6111	0.9507	0.3734	-0.062
Mof_C 	C 	0.7324	0.077	0.3976	0.159
Mof_N 	N 	0.5786	0.1709	0.29684	-0.233
Mof_C 	C 	0.6328	0.2592	0.2966	0.145
Mof_H 	H 	0.6317	0.3125	0.2718	-0.042
Mof_C 	C 	0.576	0.0776	0.3276	0.033
Mof_H 	H 	0.544	0.0056	0.3289	-0.012
Mof_C 	C 	0.812	0.3338	0.64186	0.016
Mof_C 	C 	0.8606	0.2308	0.64353	-0.116
Mof_H 	H 	0.8572	0.1602	0.6238	0.081
Mof_C 	C 	0.9145	0.2306	0.67392	0.078
Mof_H 	H 	0.948	0.161	0.6734	-0.003
Mof_C 	C 	0.8712	0.4262	0.7032	0.064
Mof_H 	H 	0.8737	0.4929	0.7244	-0.007
Mof_C 	C 	0.8182	0.4339	0.67296	-0.107
Mof_H 	H 	0.7862	0.5059	0.6731	0.076
Mof_C 	C 	0.7542	0.3461	0.60748	0.198
Mof_C 	C 	0.8126	0.1415	0.453	-0.009
Mof_H 	H 	0.8218	0.0484	0.4607	0.053
Mof_H 	H 	0.8581	0.1822	0.4446	0.052
Mof_C 	C 	0.7818	0.2166	0.4929	-0.103
Mof_H 	H 	0.7696	0.3078	0.4844	0.081
Mof_H 	H 	0.8189	0.222	0.5151	0.068
Mof_C 	C 	0.7155	0.15	0.5123	-0.124
Mof_H 	H 	0.679	0.1388	0.4901	0.074
Mof_H 	H 	0.7279	0.0618	0.5235	0.079
Mof_C 	C 	0.686	0.2396	0.5495	-0.002
Mof_H 	H 	0.6389	0.2077	0.5583	0.035
Mof_H 	H 	0.6811	0.3316	0.5394	0.046
Mof_N 	N 	0.579	0.1749	0.20413	-0.235
Mof_O 	O 	0.7722	0.0423	0.09917	-0.244
Mof_N 	N 	0.737	0.3536	0.9164	-0.167
Mof_N 	N 	0.7644	0.2653	0.08641	-0.223
Mof_H 	H 	0.747	0.3414	0.0946	0.151
Mof_O 	O 	0.7263	0.1649	0.8989	-0.141
Mof_C 	C 	0.8107	0.2966	0.8576	0.215
Mof_C 	C 	0.8118	0.2076	0.8223	-0.103
Mof_H 	H 	0.7795	0.1376	0.8175	0.054
Mof_C 	C 	0.863	0.389	0.8615	-0.452
Mof_H 	H 	0.8633	0.4387	0.887	0.112
Mof_C 	C 	0.7557	0.2732	0.8932	0.087
Mof_O 	O 	0.7582	0.5385	0.9079	-0.171
Mof_C 	C 	0.8193	0.3945	0.8625	0.098
Mof_C 	C 	0.813	0.2824	0.8334	-0.19
Mof_H 	H 	0.7725	0.2284	0.8367	0.084
Mof_C 	C 	0.8798	0.4714	0.8576	0.26
Mof_H 	H 	0.8889	0.5493	0.8734	-0.06
Mof_C 	C 	0.7676	0.423	0.8976	0.153
Mof_N 	N 	0.9214	0.3291	0.79684	-0.222
Mof_C 	C 	0.8672	0.2408	0.7966	0.146
Mof_H 	H 	0.8683	0.1875	0.7718	-0.037
Mof_C 	C 	0.924	0.4224	0.8276	0.041
Mof_H 	H 	0.956	0.4944	0.8289	-0.001
Mof_C 	C 	0.688	0.1662	0.14186	0.017
Mof_C 	C 	0.6394	0.2692	0.14353	-0.121
Mof_H 	H 	0.6428	0.3398	0.1238	0.078
Mof_C 	C 	0.5855	0.2694	0.17392	0.076
Mof_H 	H 	0.552	0.339	0.1734	-0.016
Mof_C 	C 	0.6288	0.0738	0.2032	0.062
Mof_H 	H 	0.6263	0.0071	0.2244	-0.013
Mof_C 	C 	0.6818	0.0661	0.17296	-0.11
Mof_H 	H 	0.7138	0.9941	0.1731	0.076
Mof_C 	C 	0.7458	0.1539	0.10748	0.197
Mof_C 	C 	0.6874	0.3585	0.953	-0.005
Mof_H 	H 	0.6782	0.4516	0.9607	0.049
Mof_H 	H 	0.6419	0.3178	0.9446	0.044
Mof_C 	C 	0.7182	0.2834	0.9929	-0.104
Mof_H 	H 	0.7304	0.1922	0.9844	0.081
Mof_H 	H 	0.6811	0.278	0.0151	0.064
Mof_C 	C 	0.7845	0.35	0.0123	-0.123
Mof_H 	H 	0.821	0.3612	0.9901	0.078
Mof_H 	H 	0.7721	0.4382	0.0235	0.08
Mof_C 	C 	0.814	0.2604	0.0495	-0.006
Mof_H 	H 	0.8611	0.2923	0.0583	0.044
Mof_H 	H 	0.8189	0.1684	0.0394	0.05
Mof_Cu	Cu	-2.89568e-33	0.67876	0.25	0.829
Mof_Cu	Cu	0.5	0.82124	0.75	0.848
Mof_Cu	Cu	-1.31358e-32	0.32124	0.75	0.829
Mof_Cu	Cu	0.5	0.17876	0.25	0.848
_end
