data_functionalizedCrystal
_audit_creation_method	'EQeq! by Chris Wilmer'
_symmetry_space_group_name_H-M	'P1'
_symmetry_Int_Tables_number	1
_symmetry_cell_setting	triclinic
loop_
_symmetry_equiv_pos_as_xyz
  x,y,z
_cell_length_a	14.1245
_cell_length_b	14.1245
_cell_length_c	19.9049
_cell_angle_alpha	90
_cell_angle_beta	90
_cell_angle_gamma	90
loop_
_atom_site_label
_atom_site_type_symbol
_atom_site_fract_x
_atom_site_fract_y
_atom_site_fract_z
_atom_site_charge
Mof_N 	N 	0.1711	0.8956	0.9301	-0.119
Mof_C 	C 	0.2219	0.8866	0.8755	-0.104
Mof_H 	H 	0.2685	0.9289	0.8617	0.115
Mof_C 	C 	0.2774	0.8398	0.811	0.352
Mof_H 	H 	0.3121	0.8864	0.833	-0.115
Mof_O 	O 	0.202	0.9099	0.9273	-0.275
Mof_N 	N 	0.6711	0.3956	0.4301	-0.172
Mof_C 	C 	0.7219	0.3866	0.3755	-0.121
Mof_H 	H 	0.7685	0.4289	0.3617	0.108
Mof_C 	C 	0.7774	0.3398	0.311	0.38
Mof_H 	H 	0.8121	0.3864	0.333	-0.134
Mof_O 	O 	0.702	0.4099	0.4273	-0.284
Mof_N 	N 	0.8289	0.1044	0.9301	-0.17
Mof_C 	C 	0.7781	0.1134	0.8755	-0.119
Mof_H 	H 	0.7315	0.0711	0.8617	0.099
Mof_C 	C 	0.7226	0.1602	0.811	0.355
Mof_H 	H 	0.6879	0.1136	0.833	-0.124
Mof_O 	O 	0.798	0.0901	0.9273	-0.234
Mof_N 	N 	0.3289	0.6044	0.4301	-0.182
Mof_C 	C 	0.2781	0.6134	0.3755	-0.126
Mof_H 	H 	0.2315	0.5711	0.3617	0.105
Mof_C 	C 	0.2226	0.6602	0.311	0.382
Mof_H 	H 	0.1879	0.6136	0.333	-0.142
Mof_O 	O 	0.298	0.5901	0.4273	-0.275
Mof_N 	N 	0.1044	0.1711	0.9301	-0.151
Mof_C 	C 	0.1134	0.2219	0.8755	-0.119
Mof_H 	H 	0.0711	0.2685	0.8617	0.1
Mof_C 	C 	0.1602	0.2774	0.811	0.357
Mof_H 	H 	0.1136	0.3121	0.833	-0.126
Mof_O 	O 	0.0901	0.202	0.9273	-0.262
Mof_N 	N 	0.6044	0.6711	0.4301	-0.173
Mof_C 	C 	0.6134	0.7219	0.3755	-0.117
Mof_H 	H 	0.5711	0.7685	0.3617	0.106
Mof_C 	C 	0.6602	0.7774	0.311	0.382
Mof_H 	H 	0.6136	0.8121	0.333	-0.133
Mof_O 	O 	0.5901	0.702	0.4273	-0.281
Mof_N 	N 	0.8956	0.8289	0.9301	-0.137
Mof_C 	C 	0.8866	0.7781	0.8755	-0.102
Mof_H 	H 	0.9289	0.7315	0.8617	0.116
Mof_C 	C 	0.8398	0.7226	0.811	0.35
Mof_H 	H 	0.8864	0.6879	0.833	-0.114
Mof_O 	O 	0.9099	0.798	0.9273	-0.246
Mof_N 	N 	0.3956	0.3289	0.4301	-0.182
Mof_C 	C 	0.3866	0.2781	0.3755	-0.129
Mof_H 	H 	0.4289	0.2315	0.3617	0.107
Mof_C 	C 	0.3398	0.2226	0.311	0.38
Mof_H 	H 	0.3864	0.1879	0.333	-0.143
Mof_O 	O 	0.4099	0.298	0.4273	-0.278
Mof_N 	N 	0.8289	0.8956	0.0699	-0.185
Mof_C 	C 	0.7781	0.8866	0.1245	-0.135
Mof_H 	H 	0.7315	0.9289	0.1383	0.12
Mof_C 	C 	0.7226	0.8398	0.189	0.381
Mof_H 	H 	0.6879	0.8864	0.167	-0.139
Mof_O 	O 	0.798	0.9099	0.0727	-0.263
Mof_N 	N 	0.3289	0.3956	0.5699	-0.182
Mof_C 	C 	0.2781	0.3866	0.6245	-0.134
Mof_H 	H 	0.2315	0.4289	0.6383	0.109
Mof_C 	C 	0.2226	0.3398	0.689	0.361
Mof_H 	H 	0.1879	0.3864	0.667	-0.135
Mof_O 	O 	0.298	0.4099	0.5727	-0.273
Mof_N 	N 	0.1711	0.1044	0.0699	-0.202
Mof_C 	C 	0.2219	0.1134	0.1245	-0.153
Mof_H 	H 	0.2685	0.0711	0.1383	0.103
Mof_C 	C 	0.2774	0.1602	0.189	0.389
Mof_H 	H 	0.3121	0.1136	0.167	-0.153
Mof_O 	O 	0.202	0.0901	0.0727	-0.281
Mof_N 	N 	0.6711	0.6044	0.5699	-0.173
Mof_C 	C 	0.7219	0.6134	0.6245	-0.121
Mof_H 	H 	0.7685	0.5711	0.6383	0.108
Mof_C 	C 	0.7774	0.6602	0.689	0.363
Mof_H 	H 	0.8121	0.6136	0.667	-0.125
Mof_O 	O 	0.702	0.5901	0.5727	-0.277
Mof_N 	N 	0.8956	0.1711	0.0699	-0.167
Mof_C 	C 	0.8866	0.2219	0.1245	-0.136
Mof_H 	H 	0.9289	0.2685	0.1383	0.12
Mof_C 	C 	0.8398	0.2774	0.189	0.384
Mof_H 	H 	0.8864	0.3121	0.167	-0.141
Mof_O 	O 	0.9099	0.202	0.0727	-0.294
Mof_N 	N 	0.3956	0.6711	0.5699	-0.173
Mof_C 	C 	0.3866	0.7219	0.6245	-0.125
Mof_H 	H 	0.4289	0.7685	0.6383	0.11
Mof_C 	C 	0.3398	0.7774	0.689	0.361
Mof_H 	H 	0.3864	0.8121	0.667	-0.126
Mof_O 	O 	0.4099	0.702	0.5727	-0.279
Mof_N 	N 	0.1044	0.8289	0.0699	-0.221
Mof_C 	C 	0.1134	0.7781	0.1245	-0.153
Mof_H 	H 	0.0711	0.7315	0.1383	0.102
Mof_C 	C 	0.1602	0.7226	0.189	0.386
Mof_H 	H 	0.1136	0.6879	0.167	-0.151
Mof_O 	O 	0.0901	0.798	0.0727	-0.251
Mof_N 	N 	0.6044	0.3289	0.5699	-0.183
Mof_C 	C 	0.6134	0.2781	0.6245	-0.13
Mof_H 	H 	0.5711	0.2315	0.6383	0.108
Mof_C 	C 	0.6602	0.2226	0.689	0.363
Mof_H 	H 	0.6136	0.1879	0.667	-0.134
Mof_O 	O 	0.5901	0.298	0.5727	-0.27
Mof_N 	N 	0.8289	0.1044	0.0699	-0.221
Mof_C 	C 	0.7781	0.1134	0.1245	-0.153
Mof_H 	H 	0.7315	0.0711	0.1383	0.102
Mof_C 	C 	0.7226	0.1602	0.189	0.386
Mof_H 	H 	0.6879	0.1136	0.167	-0.151
Mof_O 	O 	0.798	0.0901	0.0727	-0.251
Mof_N 	N 	0.3289	0.6044	0.5699	-0.183
Mof_C 	C 	0.2781	0.6134	0.6245	-0.13
Mof_H 	H 	0.2315	0.5711	0.6383	0.108
Mof_C 	C 	0.2226	0.6602	0.689	0.363
Mof_H 	H 	0.1879	0.6136	0.667	-0.134
Mof_O 	O 	0.298	0.5901	0.5727	-0.27
Mof_N 	N 	0.1711	0.8956	0.0699	-0.167
Mof_C 	C 	0.2219	0.8866	0.1245	-0.136
Mof_H 	H 	0.2685	0.9289	0.1383	0.12
Mof_C 	C 	0.2774	0.8398	0.189	0.384
Mof_H 	H 	0.3121	0.8864	0.167	-0.141
Mof_O 	O 	0.202	0.9099	0.0727	-0.294
Mof_N 	N 	0.6711	0.3956	0.5699	-0.173
Mof_C 	C 	0.7219	0.3866	0.6245	-0.125
Mof_H 	H 	0.7685	0.4289	0.6383	0.11
Mof_C 	C 	0.7774	0.3398	0.689	0.361
Mof_H 	H 	0.8121	0.3864	0.667	-0.126
Mof_O 	O 	0.702	0.4099	0.5727	-0.279
Mof_N 	N 	0.8956	0.8289	0.0699	-0.185
Mof_C 	C 	0.8866	0.7781	0.1245	-0.135
Mof_H 	H 	0.9289	0.7315	0.1383	0.12
Mof_C 	C 	0.8398	0.7226	0.189	0.381
Mof_H 	H 	0.8864	0.6879	0.167	-0.139
Mof_O 	O 	0.9099	0.798	0.0727	-0.263
Mof_N 	N 	0.3956	0.3289	0.5699	-0.182
Mof_C 	C 	0.3866	0.2781	0.6245	-0.134
Mof_H 	H 	0.4289	0.2315	0.6383	0.109
Mof_C 	C 	0.3398	0.2226	0.689	0.361
Mof_H 	H 	0.3864	0.1879	0.667	-0.135
Mof_O 	O 	0.4099	0.298	0.5727	-0.273
Mof_N 	N 	0.1044	0.1711	0.0699	-0.202
Mof_C 	C 	0.1134	0.2219	0.1245	-0.153
Mof_H 	H 	0.0711	0.2685	0.1383	0.103
Mof_C 	C 	0.1602	0.2774	0.189	0.389
Mof_H 	H 	0.1136	0.3121	0.167	-0.153
Mof_O 	O 	0.0901	0.202	0.0727	-0.281
Mof_N 	N 	0.6044	0.6711	0.5699	-0.173
Mof_C 	C 	0.6134	0.7219	0.6245	-0.121
Mof_H 	H 	0.5711	0.7685	0.6383	0.108
Mof_C 	C 	0.6602	0.7774	0.689	0.363
Mof_H 	H 	0.6136	0.8121	0.667	-0.125
Mof_O 	O 	0.5901	0.702	0.5727	-0.277
Mof_N 	N 	0.1711	0.1044	0.9301	-0.151
Mof_C 	C 	0.2219	0.1134	0.8755	-0.119
Mof_H 	H 	0.2685	0.0711	0.8617	0.1
Mof_C 	C 	0.2774	0.1602	0.811	0.357
Mof_H 	H 	0.3121	0.1136	0.833	-0.126
Mof_O 	O 	0.202	0.0901	0.9273	-0.262
Mof_N 	N 	0.6711	0.6044	0.4301	-0.173
Mof_C 	C 	0.7219	0.6134	0.3755	-0.117
Mof_H 	H 	0.7685	0.5711	0.3617	0.106
Mof_C 	C 	0.7774	0.6602	0.311	0.382
Mof_H 	H 	0.8121	0.6136	0.333	-0.133
Mof_O 	O 	0.702	0.5901	0.4273	-0.281
Mof_N 	N 	0.8289	0.8956	0.9301	-0.137
Mof_C 	C 	0.7781	0.8866	0.8755	-0.102
Mof_H 	H 	0.7315	0.9289	0.8617	0.116
Mof_C 	C 	0.7226	0.8398	0.811	0.35
Mof_H 	H 	0.6879	0.8864	0.833	-0.114
Mof_O 	O 	0.798	0.9099	0.9273	-0.246
Mof_N 	N 	0.3289	0.3956	0.4301	-0.182
Mof_C 	C 	0.2781	0.3866	0.3755	-0.129
Mof_H 	H 	0.2315	0.4289	0.3617	0.107
Mof_C 	C 	0.2226	0.3398	0.311	0.38
Mof_H 	H 	0.1879	0.3864	0.333	-0.143
Mof_O 	O 	0.298	0.4099	0.4273	-0.278
Mof_N 	N 	0.1044	0.8289	0.9301	-0.17
Mof_C 	C 	0.1134	0.7781	0.8755	-0.119
Mof_H 	H 	0.0711	0.7315	0.8617	0.099
Mof_C 	C 	0.1602	0.7226	0.811	0.355
Mof_H 	H 	0.1136	0.6879	0.833	-0.124
Mof_O 	O 	0.0901	0.798	0.9273	-0.234
Mof_N 	N 	0.6044	0.3289	0.4301	-0.182
Mof_C 	C 	0.6134	0.2781	0.3755	-0.126
Mof_H 	H 	0.5711	0.2315	0.3617	0.105
Mof_C 	C 	0.6602	0.2226	0.311	0.382
Mof_H 	H 	0.6136	0.1879	0.333	-0.142
Mof_O 	O 	0.5901	0.298	0.4273	-0.275
Mof_N 	N 	0.8956	0.1711	0.9301	-0.118
Mof_C 	C 	0.8866	0.2219	0.8755	-0.103
Mof_H 	H 	0.9289	0.2685	0.8617	0.116
Mof_C 	C 	0.8398	0.2774	0.811	0.353
Mof_H 	H 	0.8864	0.3121	0.833	-0.115
Mof_O 	O 	0.9099	0.202	0.9273	-0.275
Mof_N 	N 	0.3956	0.6711	0.4301	-0.172
Mof_C 	C 	0.3866	0.7219	0.3755	-0.121
Mof_H 	H 	0.4289	0.7685	0.3617	0.108
Mof_C 	C 	0.3398	0.7774	0.311	0.38
Mof_H 	H 	0.3864	0.8121	0.333	-0.134
Mof_O 	O 	0.4099	0.702	0.4273	-0.284
Mof_Cu	Cu	0.17954	0	-0	0.889
Mof_Cu	Cu	0.67954	0.5	0.5	0.947
Mof_Cu	Cu	0.82046	0	-0	0.892
Mof_Cu	Cu	0.32046	0.5	0.5	0.943
Mof_Cu	Cu	-3.17844e-33	0.17954	-0	0.889
Mof_Cu	Cu	0.5	0.67954	0.5	0.947
Mof_Cu	Cu	-6.35688e-33	0.82046	-0	0.892
Mof_Cu	Cu	0.5	0.32046	0.5	0.943
Mof_Cl	Cl	-0	0	-0	-0.776
Mof_Cl	Cl	0.5	0.5	0.5	-0.649
Mof_C 	C 	0.1959	0.8041	0.8405	-0.51
Mof_C 	C 	0.2271	0.7729	0.7775	0.357
Mof_C 	C 	0.1618	0.8382	0.9033	0.728
Mof_C 	C 	0.6959	0.3041	0.3405	-0.554
Mof_C 	C 	0.7271	0.2729	0.2775	0.371
Mof_C 	C 	0.6618	0.3382	0.4033	0.778
Mof_C 	C 	0.8041	0.1959	0.8405	-0.51
Mof_C 	C 	0.7729	0.2271	0.7775	0.357
Mof_C 	C 	0.8382	0.1618	0.9033	0.728
Mof_C 	C 	0.3041	0.6959	0.3405	-0.554
Mof_C 	C 	0.2729	0.7271	0.2775	0.371
Mof_C 	C 	0.3382	0.6618	0.4033	0.778
Mof_C 	C 	0.1959	0.1959	0.8405	-0.517
Mof_C 	C 	0.2271	0.2271	0.7775	0.35
Mof_C 	C 	0.1618	0.1618	0.9033	0.741
Mof_C 	C 	0.6959	0.6959	0.3405	-0.551
Mof_C 	C 	0.7271	0.7271	0.2775	0.37
Mof_C 	C 	0.6618	0.6618	0.4033	0.771
Mof_C 	C 	0.8041	0.8041	0.8405	-0.502
Mof_C 	C 	0.7729	0.7729	0.7775	0.364
Mof_C 	C 	0.8382	0.8382	0.9033	0.715
Mof_C 	C 	0.3041	0.3041	0.3405	-0.557
Mof_C 	C 	0.2729	0.2729	0.2775	0.372
Mof_C 	C 	0.3382	0.3382	0.4033	0.785
Mof_C 	C 	0.8041	0.8041	0.1595	-0.546
Mof_C 	C 	0.7729	0.7729	0.2225	0.375
Mof_C 	C 	0.8382	0.8382	0.0967	0.786
Mof_C 	C 	0.3041	0.3041	0.6595	-0.531
Mof_C 	C 	0.2729	0.2729	0.7225	0.358
Mof_C 	C 	0.3382	0.3382	0.5967	0.78
Mof_C 	C 	0.1959	0.1959	0.1595	-0.564
Mof_C 	C 	0.2271	0.2271	0.2225	0.361
Mof_C 	C 	0.1618	0.1618	0.0967	0.817
Mof_C 	C 	0.6959	0.6959	0.6595	-0.526
Mof_C 	C 	0.7271	0.7271	0.7225	0.356
Mof_C 	C 	0.6618	0.6618	0.5967	0.766
Mof_C 	C 	0.8041	0.1959	0.1595	-0.555
Mof_C 	C 	0.7729	0.2271	0.2225	0.368
Mof_C 	C 	0.8382	0.1618	0.0967	0.802
Mof_C 	C 	0.3041	0.6959	0.6595	-0.529
Mof_C 	C 	0.2729	0.7271	0.7225	0.357
Mof_C 	C 	0.3382	0.6618	0.5967	0.773
Mof_C 	C 	0.1959	0.8041	0.1595	-0.555
Mof_C 	C 	0.2271	0.7729	0.2225	0.368
Mof_C 	C 	0.1618	0.8382	0.0967	0.802
Mof_C 	C 	0.6959	0.3041	0.6595	-0.529
Mof_C 	C 	0.7271	0.2729	0.7225	0.357
Mof_C 	C 	0.6618	0.3382	0.5967	0.773
Mof_C 	C 	0.3071	0.8071	0.75	-0.77
Mof_H 	H 	0.3536	0.8536	0.75	0.277
Mof_C 	C 	0.6929	0.1929	0.75	-0.773
Mof_H 	H 	0.6464	0.1464	0.75	0.266
Mof_C 	C 	0.1929	0.3071	0.75	-0.774
Mof_H 	H 	0.1464	0.3536	0.75	0.266
Mof_C 	C 	0.8071	0.6929	0.75	-0.768
Mof_H 	H 	0.8536	0.6464	0.75	0.278
Mof_C 	C 	0.3071	0.1929	0.25	-0.818
Mof_H 	H 	0.3536	0.1464	0.25	0.273
Mof_C 	C 	0.6929	0.8071	0.25	-0.811
Mof_H 	H 	0.6464	0.8536	0.25	0.285
Mof_C 	C 	0.8071	0.3071	0.25	-0.813
Mof_H 	H 	0.8536	0.3536	0.25	0.284
Mof_C 	C 	0.1929	0.6929	0.25	-0.816
Mof_H 	H 	0.1464	0.6464	0.25	0.273
Mof_C 	C 	0.6929	0.1929	0.25	-0.816
Mof_H 	H 	0.6464	0.1464	0.25	0.273
Mof_C 	C 	0.3071	0.8071	0.25	-0.813
Mof_H 	H 	0.3536	0.8536	0.25	0.284
Mof_C 	C 	0.8071	0.6929	0.25	-0.811
Mof_H 	H 	0.8536	0.6464	0.25	0.285
Mof_C 	C 	0.1929	0.3071	0.25	-0.818
Mof_H 	H 	0.1464	0.3536	0.25	0.273
Mof_C 	C 	0.3071	0.1929	0.75	-0.774
Mof_H 	H 	0.3536	0.1464	0.75	0.266
Mof_C 	C 	0.6929	0.8071	0.75	-0.768
Mof_H 	H 	0.6464	0.8536	0.75	0.278
Mof_C 	C 	0.1929	0.6929	0.75	-0.773
Mof_H 	H 	0.1464	0.6464	0.75	0.266
Mof_C 	C 	0.8071	0.3071	0.75	-0.77
Mof_H 	H 	0.8536	0.3536	0.75	0.277
_end
