data_functionalizedCrystal
_audit_creation_method	'EQeq! by Chris Wilmer'
_symmetry_space_group_name_H-M	'P1'
_symmetry_Int_Tables_number	1
_symmetry_cell_setting	triclinic
loop_
_symmetry_equiv_pos_as_xyz
  x,y,z
_cell_length_a	18.416
_cell_length_b	18.416
_cell_length_c	54.0709
_cell_angle_alpha	90
_cell_angle_beta	90
_cell_angle_gamma	120
loop_
_atom_site_label
_atom_site_type_symbol
_atom_site_fract_x
_atom_site_fract_y
_atom_site_fract_z
_atom_site_charge
Mof_C 	C 	0.52587	0.39852	0.30292	1.089
Mof_C 	C 	0.50062	0.3778	0.3293	0.147
Mof_C 	C 	0.55964	0.44406	0.34431	0.565
Mof_C 	C 	0.57322	0.42792	0.36856	-0.283
Mof_C 	C 	0.53098	0.34413	0.37756	-0.119
Mof_C 	C 	0.47296	0.27887	0.36289	0.783
Mof_C 	C 	0.46005	0.29645	0.33807	0.473
Mof_C 	C 	0.59065	0.3334	0.39317	-0.078
Mof_C 	C 	0.66762	0.41049	0.39373	0.129
Mof_C 	C 	0.65654	0.47494	0.38088	-0.416
Mof_C 	C 	0.7034	0.56874	0.38584	0.169
Mof_O 	O 	0.6493	0.6449	0.36333	-1.88
Mof_C 	C 	0.6532	0.6122	0.38179	1.263
Mof_O 	O 	0.6119	0.6063	0.40206	-0.892
Mof_C 	C 	0.5588	0.6443	0.40186	1.745
Mof_H 	H 	0.5136	0.6164	0.3897	-1.679
Mof_H 	H 	0.5918	0.704	0.3977	-0.647
Mof_C 	C 	0.5244	0.6331	0.42701	-1.71
Mof_H 	H 	0.5695	0.6696	0.4384	0.647
Mof_H 	H 	0.5035	0.575	0.4322	0.46
Mof_C 	C 	0.4537	0.6528	0.429	0.966
Mof_O 	O 	0.4353	0.6796	0.41089	-1.231
Mof_O 	O 	0.4201	0.641	0.45	-0.668
Mof_O 	O 	0.7743	0.5646	0.4231	-0.086
Mof_C 	C 	0.7621	0.6033	0.40771	0.989
Mof_O 	O 	0.807	0.6849	0.4052	2.795
Mof_C 	C 	0.8589	0.7371	0.4257	0.164
Mof_H 	H 	0.9098	0.7855	0.4192	0.569
Mof_H 	H 	0.8755	0.7047	0.4362	1.807
Mof_C 	C 	0.8108	0.7661	0.4402	-0.186
Mof_H 	H 	0.765	0.7184	0.4489	0.073
Mof_H 	H 	0.7861	0.79	0.4291	0.569
Mof_C 	C 	0.869	0.8344	0.4597	0.296
Mof_O 	O 	0.9376	0.8414	0.4644	0.009
Mof_O 	O 	0.838	0.8757	0.469	-0.333
Mof_O 	O 	0.3469	0.5842	0.3685	7.657
Mof_Zn	Zn	0.91122	0.88806	0.51049	1.127
Mof_C 	C 	0.3215	0.5132	0.3749	32.293
Mof_H 	H 	0.2904	0.4938	0.3896	-11.536
Mof_N 	N 	0.3366	0.4616	0.3615	-4.005
Mof_C 	C 	0.3424	0.4777	0.3352	-51.176
Mof_H 	H 	0.3195	0.422	0.3277	13.042
Mof_H 	H 	0.3004	0.4945	0.3321	6.521
Mof_C 	C 	0.4114	0.5318	0.3191	87.095
Mof_H 	H 	0.3913	0.526	0.3022	5.286
Mof_H 	H 	0.4348	0.5895	0.3244	-51.493
Mof_H 	H 	0.4543	0.5159	0.3199	-59.13
Mof_C 	C 	0.3559	0.4029	0.375	0.532
Mof_H 	H 	0.4059	0.4065	0.3673	-0.874
Mof_H 	H 	0.3711	0.4235	0.3919	-0.818
Mof_C 	C 	0.2925	0.3151	0.3762	-2.629
Mof_H 	H 	0.314	0.2849	0.3855	2.22
Mof_H 	H 	0.243	0.3094	0.3844	1.354
Mof_H 	H 	0.278	0.2923	0.3596	1.579
Mof_O 	O 	0.751	0.564	0.4261	-0.098
Mof_O 	O 	0.802	0.685	0.406	2.096
Mof_C 	C 	0.861	0.735	0.4255	0.182
Mof_H 	H 	0.8999	0.7914	0.4194	1.097
Mof_H 	H 	0.8944	0.7088	0.4305	-1.072
Mof_C 	C 	0.814	0.739	0.4467	-0.191
Mof_H 	H 	0.7971	0.6896	0.4573	0.244
Mof_H 	H 	0.7627	0.7369	0.4407	0.248
Mof_C 	C 	0.866	0.8203	0.4622	0.28
Mof_O 	O 	0.9213	0.8848	0.4526	0.064
Mof_O 	O 	0.838	0.813	0.4836	-0.261
Mof_O 	O 	0.796	0.57	0.4173	-0.02
Mof_O 	O 	0.7799	0.6793	0.413	-4.205
Mof_C 	C 	0.84	0.7156	0.4336	0.153
Mof_H 	H 	0.842	0.6709	0.4428	-0.651
Mof_H 	H 	0.8961	0.7537	0.4271	-0.56
Mof_C 	C 	0.814	0.761	0.4499	0.014
Mof_H 	H 	0.7592	0.7225	0.4572	0.012
Mof_H 	H 	0.808	0.8035	0.4404	0.056
Mof_C 	C 	0.8809	0.8053	0.4709	-0.2
Mof_O 	O 	0.9552	0.8391	0.4662	-0.227
Mof_O 	O 	0.8439	0.799	0.4909	-0.079
Mof_C 	C 	0.2986	0.5256	0.3605	-45.022
Mof_H 	H 	0.2432	0.5097	0.3648	13.973
Mof_N 	N 	0.3072	0.4739	0.3454	32.661
Mof_C 	C 	0.3898	0.4882	0.3392	-33.402
Mof_H 	H 	0.4167	0.49	0.355	10.598
Mof_H 	H 	0.3804	0.4369	0.3308	13.149
Mof_C 	C 	0.4534	0.5567	0.3247	105.081
Mof_H 	H 	0.5026	0.5506	0.3234	-7.437
Mof_H 	H 	0.4317	0.5558	0.3083	-57.4
Mof_H 	H 	0.4684	0.6095	0.3327	-5.353
Mof_C 	C 	0.2361	0.4066	0.3318	-3.361
Mof_H 	H 	0.251	0.4092	0.3143	-0.055
Mof_H 	H 	0.1875	0.4146	0.333	-3.574
Mof_C 	C 	0.214	0.3234	0.3419	-6.08
Mof_H 	H 	0.1672	0.2801	0.3327	5.422
Mof_H 	H 	0.2619	0.3151	0.3405	0.728
Mof_H 	H 	0.1986	0.3206	0.3592	2.039
Mof_C 	C 	0.19254	0.73185	0.63625	1.544
Mof_C 	C 	0.16729	0.71113	0.66263	0.503
Mof_C 	C 	0.22631	0.77739	0.67764	0.775
Mof_C 	C 	0.23989	0.76125	0.70189	-0.494
Mof_C 	C 	0.19765	0.67746	0.71089	-0.016
Mof_C 	C 	0.13963	0.6122	0.69622	0.546
Mof_C 	C 	0.12672	0.62978	0.6714	0.139
Mof_C 	C 	0.25732	0.66673	0.7265	-0.059
Mof_C 	C 	0.33429	0.74382	0.72706	0.081
Mof_C 	C 	0.32321	0.80827	0.71421	-0.247
Mof_C 	C 	0.37007	0.90207	0.71917	-0.064
Mof_O 	O 	0.31597	0.97823	0.69666	-1.682
Mof_C 	C 	0.31987	0.94553	0.71512	1.232
Mof_O 	O 	0.27857	0.93963	0.73539	-1.097
Mof_C 	C 	0.22547	0.97763	0.73519	2.893
Mof_H 	H 	0.18027	0.94973	0.72303	-2.523
Mof_H 	H 	0.25847	0.03733	0.73103	-1.277
Mof_C 	C 	0.19107	0.96643	0.76034	-1.928
Mof_H 	H 	0.23617	0.00293	0.77173	0.456
Mof_H 	H 	0.17017	0.90833	0.76553	0.506
Mof_C 	C 	0.12037	0.98613	0.76233	1.527
Mof_O 	O 	0.10197	0.01293	0.74422	-1.95
Mof_O 	O 	0.08677	0.97433	0.78333	-0.607
Mof_O 	O 	0.44097	0.89793	0.75643	-0.132
Mof_C 	C 	0.42877	0.93663	0.74104	1.287
Mof_O 	O 	0.47367	0.01823	0.73853	2.055
Mof_C 	C 	0.52557	0.07043	0.75903	0.301
Mof_H 	H 	0.57647	0.11883	0.75253	0.339
Mof_H 	H 	0.54217	0.03803	0.76953	1.133
Mof_C 	C 	0.47747	0.09943	0.77353	-0.083
Mof_H 	H 	0.43167	0.05173	0.78223	-0.148
Mof_H 	H 	0.45277	0.12333	0.76243	0.386
Mof_C 	C 	0.53567	0.16773	0.79303	0.584
Mof_O 	O 	0.60427	0.17473	0.79773	-0.133
Mof_O 	O 	0.50467	0.20903	0.80233	-0.475
Mof_O 	O 	0.01357	0.91753	0.70183	12.426
Mof_Zn	Zn	0.57789	0.22139	0.84382	1.108
Mof_C 	C 	0.98817	0.84653	0.70823	49.271
Mof_H 	H 	0.95707	0.82713	0.72293	-17.679
Mof_N 	N 	0.00327	0.79493	0.69483	-6.061
Mof_C 	C 	0.00907	0.81103	0.66853	-76.865
Mof_H 	H 	0.98617	0.75533	0.66103	19.696
Mof_H 	H 	0.96707	0.82783	0.66543	9.85
Mof_C 	C 	0.07807	0.86513	0.65243	130.299
Mof_H 	H 	0.05797	0.85933	0.63553	7.942
Mof_H 	H 	0.10147	0.92283	0.65773	-77.056
Mof_H 	H 	0.12097	0.84923	0.65323	-88.538
Mof_C 	C 	0.02257	0.73623	0.70833	1.564
Mof_H 	H 	0.07257	0.73983	0.70063	-1.554
Mof_H 	H 	0.03777	0.75683	0.72523	-1.425
Mof_C 	C 	0.95917	0.64843	0.70953	-4.457
Mof_H 	H 	0.98067	0.61823	0.71883	2.264
Mof_H 	H 	0.90967	0.64273	0.71773	1.718
Mof_H 	H 	0.94467	0.62563	0.69293	1.978
Mof_O 	O 	0.41767	0.89733	0.75943	-0.049
Mof_O 	O 	0.46867	0.01833	0.73933	1.424
Mof_C 	C 	0.52767	0.06833	0.75883	0.303
Mof_H 	H 	0.56657	0.12473	0.75273	0.85
Mof_H 	H 	0.56107	0.04213	0.76383	-0.694
Mof_C 	C 	0.48067	0.07233	0.78003	-0.355
Mof_H 	H 	0.46377	0.02293	0.79063	0.207
Mof_H 	H 	0.42937	0.07023	0.77403	0.324
Mof_C 	C 	0.53267	0.15363	0.79553	0.472
Mof_O 	O 	0.58797	0.21813	0.78593	-0.263
Mof_O 	O 	0.50467	0.14633	0.81693	-0.3
Mof_O 	O 	0.46267	0.90333	0.75063	-0.068
Mof_O 	O 	0.44657	0.01263	0.74633	-3.472
Mof_C 	C 	0.50667	0.04893	0.76693	0.16
Mof_H 	H 	0.50867	0.00423	0.77613	-0.52
Mof_H 	H 	0.56277	0.08703	0.76043	-0.639
Mof_C 	C 	0.48067	0.09433	0.78323	-0.03
Mof_H 	H 	0.42587	0.05583	0.79053	0.142
Mof_H 	H 	0.47467	0.13683	0.77373	-0.02
Mof_C 	C 	0.54757	0.13863	0.80423	-0.575
Mof_O 	O 	0.62187	0.17243	0.79953	-0.075
Mof_O 	O 	0.51057	0.13233	0.82423	-0.029
Mof_C 	C 	0.96527	0.85893	0.69383	-69.547
Mof_H 	H 	0.90987	0.84303	0.69813	21.548
Mof_N 	N 	0.97387	0.80723	0.67873	49.655
Mof_C 	C 	0.05647	0.82153	0.67253	-49.603
Mof_H 	H 	0.08337	0.82333	0.68833	15.727
Mof_H 	H 	0.04707	0.77023	0.66413	19.605
Mof_C 	C 	0.12007	0.89003	0.65803	157.267
Mof_H 	H 	0.16927	0.88393	0.65673	-11.086
Mof_H 	H 	0.09837	0.88913	0.64163	-85.873
Mof_H 	H 	0.13507	0.94283	0.66603	-7.969
Mof_C 	C 	0.90277	0.73993	0.66513	-9.014
Mof_H 	H 	0.91767	0.74253	0.64763	1.033
Mof_H 	H 	0.85417	0.74793	0.66633	-1.583
Mof_C 	C 	0.88067	0.65673	0.67523	-3.181
Mof_H 	H 	0.83387	0.61343	0.66603	5.121
Mof_H 	H 	0.92857	0.64843	0.67383	-0.653
Mof_H 	H 	0.86527	0.65393	0.69253	0.927
Mof_C 	C 	0.8592	0.06519	0.96959	0.913
Mof_C 	C 	0.83395	0.04447	0.99597	0.164
Mof_C 	C 	0.89297	0.11073	0.01098	0.543
Mof_C 	C 	0.90655	0.09459	0.03523	-0.376
Mof_C 	C 	0.86431	0.0108	0.04423	-0.078
Mof_C 	C 	0.80629	0.94554	0.02956	0.449
Mof_C 	C 	0.79338	0.96312	0.00474	0.267
Mof_C 	C 	0.92398	7e-05	0.05984	0.364
Mof_C 	C 	0.00095	0.07716	0.0604	-0.419
Mof_C 	C 	0.98987	0.14161	0.04755	0.165
Mof_C 	C 	0.03673	0.23541	0.05251	-0.254
Mof_O 	O 	0.98263	0.31157	0.03	-1.516
Mof_C 	C 	0.98653	0.27887	0.04846	1.21
Mof_O 	O 	0.94523	0.27297	0.06873	-0.802
Mof_C 	C 	0.89213	0.31097	0.06853	1.627
Mof_H 	H 	0.84693	0.28307	0.05637	-1.536
Mof_H 	H 	0.92513	0.37067	0.06437	-0.571
Mof_C 	C 	0.85773	0.29977	0.09368	-1.641
Mof_H 	H 	0.90283	0.33627	0.10507	0.661
Mof_H 	H 	0.83683	0.24167	0.09887	0.476
Mof_C 	C 	0.78703	0.31947	0.09567	0.951
Mof_O 	O 	0.76863	0.34627	0.07756	-1.17
Mof_O 	O 	0.75343	0.30767	0.11667	-0.633
Mof_O 	O 	0.10763	0.23127	0.08977	-0.176
Mof_C 	C 	0.09543	0.26997	0.07438	0.881
Mof_O 	O 	0.14033	0.35157	0.07187	1.926
Mof_C 	C 	0.19223	0.40377	0.09237	0.192
Mof_H 	H 	0.24313	0.45217	0.08587	0.346
Mof_H 	H 	0.20883	0.37137	0.10287	1.244
Mof_C 	C 	0.14413	0.43277	0.10687	-0.115
Mof_H 	H 	0.09833	0.38507	0.11557	-0.147
Mof_H 	H 	0.11943	0.45667	0.09577	0.353
Mof_C 	C 	0.20233	0.50107	0.12637	0.514
Mof_O 	O 	0.27093	0.50807	0.13107	-0.124
Mof_O 	O 	0.17133	0.54237	0.13567	-0.49
Mof_O 	O 	0.68023	0.25087	0.03517	6.947
Mof_Zn	Zn	0.24455	0.55473	0.17716	1.109
Mof_C 	C 	0.65483	0.17987	0.04157	29.602
Mof_H 	H 	0.62373	0.16047	0.05627	-10.553
Mof_N 	N 	0.66993	0.12827	0.02817	-3.728
Mof_C 	C 	0.67573	0.14437	0.00187	-46.247
Mof_H 	H 	0.65283	0.08867	0.99437	11.897
Mof_H 	H 	0.63373	0.16117	0.99877	5.943
Mof_C 	C 	0.74473	0.19847	0.98577	78.775
Mof_H 	H 	0.72463	0.19267	0.96887	4.762
Mof_H 	H 	0.76813	0.25617	0.99107	-46.556
Mof_H 	H 	0.78763	0.18257	0.98657	-53.468
Mof_C 	C 	0.68923	0.06957	0.04167	0.66
Mof_H 	H 	0.73923	0.07317	0.03397	-0.85
Mof_H 	H 	0.70443	0.09017	0.05857	-0.779
Mof_C 	C 	0.62583	0.98177	0.04287	-2.541
Mof_H 	H 	0.64733	0.95157	0.05217	1.658
Mof_H 	H 	0.57633	0.97607	0.05107	1.12
Mof_H 	H 	0.61133	0.95897	0.02627	1.313
Mof_O 	O 	0.08433	0.23067	0.09277	-0.098
Mof_O 	O 	0.13533	0.35167	0.07267	1.405
Mof_C 	C 	0.19433	0.40167	0.09217	0.204
Mof_H 	H 	0.23323	0.45807	0.08607	0.759
Mof_H 	H 	0.22773	0.37547	0.09717	-0.751
Mof_C 	C 	0.14733	0.40567	0.11337	-0.318
Mof_H 	H 	0.13043	0.35627	0.12397	0.232
Mof_H 	H 	0.09603	0.40357	0.10737	0.313
Mof_C 	C 	0.19933	0.48697	0.12887	0.45
Mof_O 	O 	0.25463	0.55147	0.11927	-0.268
Mof_O 	O 	0.17133	0.47967	0.15027	-0.269
Mof_O 	O 	0.12933	0.23667	0.08397	-0.015
Mof_O 	O 	0.11323	0.34597	0.07967	-3.036
Mof_C 	C 	0.17333	0.38227	0.10027	0.092
Mof_H 	H 	0.17533	0.33757	0.10947	-0.443
Mof_H 	H 	0.22943	0.42037	0.09377	-0.452
Mof_C 	C 	0.14733	0.42767	0.11657	0.04
Mof_H 	H 	0.09253	0.38917	0.12387	0.121
Mof_H 	H 	0.14133	0.47017	0.10707	-0.024
Mof_C 	C 	0.21423	0.47197	0.13757	-0.506
Mof_O 	O 	0.28853	0.50577	0.13287	-0.086
Mof_O 	O 	0.17723	0.46567	0.15757	-0.063
Mof_C 	C 	0.63193	0.19227	0.02717	-41.172
Mof_H 	H 	0.57653	0.17637	0.03147	12.785
Mof_N 	N 	0.64053	0.14057	0.01207	29.762
Mof_C 	C 	0.72313	0.15487	0.00587	-30.33
Mof_H 	H 	0.75003	0.15667	0.02167	9.631
Mof_H 	H 	0.71373	0.10357	0.99747	11.894
Mof_C 	C 	0.78673	0.22337	0.99137	95.021
Mof_H 	H 	0.83593	0.21727	0.99007	-6.722
Mof_H 	H 	0.76503	0.22247	0.97497	-51.907
Mof_H 	H 	0.80173	0.27617	0.99937	-4.847
Mof_C 	C 	0.56943	0.07327	0.99847	-4.651
Mof_H 	H 	0.58433	0.07587	0.98097	0.397
Mof_H 	H 	0.52083	0.08127	0.99967	-1.637
Mof_C 	C 	0.54733	0.99007	0.00857	-3.274
Mof_H 	H 	0.50053	0.94677	0.99937	3.85
Mof_H 	H 	0.59523	0.98177	0.00717	0.045
Mof_H 	H 	0.53193	0.98727	0.02587	1.069
Mof_C 	C 	0.60148	0.12735	0.30292	1.103
Mof_C 	C 	0.6222	0.12282	0.3293	0.154
Mof_C 	C 	0.55594	0.11558	0.34431	0.603
Mof_C 	C 	0.57208	0.1453	0.36856	-0.239
Mof_C 	C 	0.65587	0.18685	0.37756	-0.119
Mof_C 	C 	0.72113	0.19409	0.36289	0.841
Mof_C 	C 	0.70355	0.1636	0.33807	0.539
Mof_C 	C 	0.6666	0.25725	0.39317	-0.083
Mof_C 	C 	0.58951	0.25713	0.39373	0.143
Mof_C 	C 	0.52506	0.1816	0.38088	-0.474
Mof_C 	C 	0.43126	0.13466	0.38584	0.236
Mof_O 	O 	0.3551	0.0044	0.36333	-1.868
Mof_C 	C 	0.3878	0.041	0.38179	1.296
Mof_O 	O 	0.3937	0.0056	0.40206	-0.775
Mof_C 	C 	0.3557	0.9145	0.40186	1.536
Mof_H 	H 	0.3836	0.8972	0.3897	-1.625
Mof_H 	H 	0.296	0.8878	0.3977	-0.631
Mof_C 	C 	0.3669	0.8913	0.42701	-1.587
Mof_H 	H 	0.3304	0.8999	0.4384	0.593
Mof_H 	H 	0.425	0.9285	0.4322	0.41
Mof_C 	C 	0.3472	0.8009	0.429	0.924
Mof_O 	O 	0.3204	0.7557	0.41089	-1.212
Mof_O 	O 	0.359	0.7791	0.45	-0.657
Mof_O 	O 	0.4354	0.2097	0.4231	-0.08
Mof_C 	C 	0.3967	0.1588	0.40771	1.056
Mof_O 	O 	0.3151	0.1221	0.4052	3.075
Mof_C 	C 	0.2629	0.1218	0.4257	0.212
Mof_H 	H 	0.2145	0.1243	0.4192	0.581
Mof_H 	H 	0.2953	0.1708	0.4362	1.972
Mof_C 	C 	0.2339	0.0447	0.4402	-0.259
Mof_H 	H 	0.2816	0.0466	0.4489	0.143
Mof_H 	H 	0.21	0.9961	0.4291	0.417
Mof_C 	C 	0.1656	0.0346	0.4597	0.373
Mof_O 	O 	0.1586	0.0962	0.4644	-0.027
Mof_O 	O 	0.1243	0.9623	0.469	-0.406
Mof_O 	O 	0.4158	0.7627	0.3685	7.496
Mof_Zn	Zn	0.11194	0.02316	0.51049	1.097
Mof_C 	C 	0.4868	0.8083	0.3749	31.638
Mof_H 	H 	0.5062	0.7966	0.3896	-11.3
Mof_N 	N 	0.5384	0.875	0.3615	-4.035
Mof_C 	C 	0.5223	0.8647	0.3352	-50.105
Mof_H 	H 	0.578	0.8975	0.3277	12.794
Mof_H 	H 	0.5055	0.8059	0.3321	6.399
Mof_C 	C 	0.4682	0.8796	0.3191	85.384
Mof_H 	H 	0.474	0.8653	0.3022	5.164
Mof_H 	H 	0.4105	0.8453	0.3244	-50.435
Mof_H 	H 	0.4841	0.9384	0.3199	-57.953
Mof_C 	C 	0.5971	0.953	0.375	1.348
Mof_H 	H 	0.5935	0.9994	0.3673	-1.16
Mof_H 	H 	0.5765	0.9476	0.3919	-1.073
Mof_C 	C 	0.6849	0.9774	0.3762	-4.098
Mof_H 	H 	0.7151	0.0291	0.3855	2.848
Mof_H 	H 	0.6906	0.9336	0.3844	1.816
Mof_H 	H 	0.7077	0.9857	0.3596	2.046
Mof_O 	O 	0.436	0.187	0.4261	-0.105
Mof_O 	O 	0.315	0.117	0.406	2.312
Mof_C 	C 	0.265	0.126	0.4255	0.229
Mof_H 	H 	0.2086	0.1085	0.4194	1.189
Mof_H 	H 	0.2912	0.1856	0.4305	-1.193
Mof_C 	C 	0.261	0.075	0.4467	-0.263
Mof_H 	H 	0.3104	0.1075	0.4573	0.275
Mof_H 	H 	0.2631	0.0258	0.4407	0.316
Mof_C 	C 	0.1797	0.0457	0.4622	0.325
Mof_O 	O 	0.1152	0.0365	0.4526	-0.006
Mof_O 	O 	0.187	0.025	0.4836	-0.308
Mof_O 	O 	0.43	0.226	0.4173	-0.024
Mof_O 	O 	0.3207	0.1006	0.413	-4.614
Mof_C 	C 	0.2844	0.1244	0.4336	0.193
Mof_H 	H 	0.3291	0.1711	0.4428	-0.731
Mof_H 	H 	0.2463	0.1424	0.4271	-0.642
Mof_C 	C 	0.239	0.053	0.4499	0.003
Mof_H 	H 	0.2775	0.0367	0.4572	-0.045
Mof_H 	H 	0.1965	0.0045	0.4404	0.192
Mof_C 	C 	0.1947	0.0756	0.4709	-0.267
Mof_O 	O 	0.1609	0.1161	0.4662	-0.207
Mof_O 	O 	0.201	0.0449	0.4909	-0.047
Mof_C 	C 	0.4744	0.773	0.3605	-44.08
Mof_H 	H 	0.4903	0.7335	0.3648	13.691
Mof_N 	N 	0.5261	0.8333	0.3454	32.047
Mof_C 	C 	0.5118	0.9016	0.3392	-32.75
Mof_H 	H 	0.51	0.9267	0.355	10.363
Mof_H 	H 	0.5631	0.9435	0.3308	12.832
Mof_C 	C 	0.4433	0.8967	0.3247	102.919
Mof_H 	H 	0.4494	0.952	0.3234	-7.342
Mof_H 	H 	0.4442	0.8759	0.3083	-56.255
Mof_H 	H 	0.3905	0.8589	0.3327	-5.244
Mof_C 	C 	0.5934	0.8295	0.3318	-3.749
Mof_H 	H 	0.5908	0.8418	0.3143	0.067
Mof_H 	H 	0.5854	0.7729	0.333	-2.601
Mof_C 	C 	0.6766	0.8906	0.3419	-5.728
Mof_H 	H 	0.7199	0.8871	0.3327	5.569
Mof_H 	H 	0.6849	0.9468	0.3405	0.531
Mof_H 	H 	0.6794	0.878	0.3592	1.945
Mof_C 	C 	0.26815	0.46068	0.63625	1.376
Mof_C 	C 	0.28887	0.45615	0.66263	0.402
Mof_C 	C 	0.22261	0.44891	0.67764	0.684
Mof_C 	C 	0.23875	0.47863	0.70189	-0.439
Mof_C 	C 	0.32254	0.52018	0.71089	-0.042
Mof_C 	C 	0.3878	0.52742	0.69622	0.524
Mof_C 	C 	0.37022	0.49693	0.6714	0.157
Mof_C 	C 	0.33327	0.59058	0.7265	-0.06
Mof_C 	C 	0.25618	0.59046	0.72706	0.08
Mof_C 	C 	0.19173	0.51493	0.71421	-0.26
Mof_C 	C 	0.09793	0.46799	0.71917	-0.038
Mof_O 	O 	0.02177	0.33773	0.69666	-1.698
Mof_C 	C 	0.05447	0.37433	0.71512	1.211
Mof_O 	O 	0.06037	0.33893	0.73539	-1.053
Mof_C 	C 	0.02237	0.24783	0.73519	2.637
Mof_H 	H 	0.05027	0.23053	0.72303	-2.351
Mof_H 	H 	0.96267	0.22113	0.73103	-1.182
Mof_C 	C 	0.03357	0.22463	0.76034	-1.903
Mof_H 	H 	0.99707	0.23323	0.77173	0.495
Mof_H 	H 	0.09167	0.26183	0.76553	0.478
Mof_C 	C 	0.01387	0.13423	0.76233	1.449
Mof_O 	O 	0.98707	0.08903	0.74422	-1.913
Mof_O 	O 	0.02567	0.11243	0.78333	-0.811
Mof_O 	O 	0.10207	0.54303	0.75643	-0.131
Mof_C 	C 	0.06337	0.49213	0.74104	1.176
Mof_O 	O 	0.98177	0.45543	0.73853	2.077
Mof_C 	C 	0.92957	0.45513	0.75903	0.268
Mof_H 	H 	0.88117	0.45763	0.75253	0.354
Mof_H 	H 	0.96197	0.50413	0.76953	1.202
Mof_C 	C 	0.90057	0.37803	0.77353	-0.101
Mof_H 	H 	0.94827	0.37993	0.78223	-0.133
Mof_H 	H 	0.87667	0.32943	0.76243	0.387
Mof_C 	C 	0.83227	0.36793	0.79303	0.56
Mof_O 	O 	0.82527	0.42953	0.79773	-0.119
Mof_O 	O 	0.79097	0.29563	0.80233	-0.487
Mof_O 	O 	0.08247	0.09603	0.70183	10.251
Mof_Zn	Zn	0.77861	0.35649	0.84382	1.108
Mof_C 	C 	0.15347	0.14163	0.70823	41.974
Mof_H 	H 	0.17287	0.12993	0.72293	-15.019
Mof_N 	N 	0.20507	0.20833	0.69483	-5.158
Mof_C 	C 	0.18897	0.19803	0.66853	-67.438
Mof_H 	H 	0.24467	0.23083	0.66103	17.404
Mof_H 	H 	0.17217	0.13923	0.66543	8.81
Mof_C 	C 	0.13487	0.21293	0.65243	114.823
Mof_H 	H 	0.14067	0.19863	0.63553	7.014
Mof_H 	H 	0.07717	0.17863	0.65773	-67.767
Mof_H 	H 	0.15077	0.27173	0.65323	-77.958
Mof_C 	C 	0.26377	0.28633	0.70833	0.606
Mof_H 	H 	0.26017	0.33273	0.70063	-1.173
Mof_H 	H 	0.24317	0.28093	0.72523	-1.078
Mof_C 	C 	0.35157	0.31073	0.70953	-2.981
Mof_H 	H 	0.38177	0.36243	0.71883	1.911
Mof_H 	H 	0.35727	0.26693	0.71773	1.313
Mof_H 	H 	0.37437	0.31903	0.69293	1.55
Mof_O 	O 	0.10267	0.52033	0.75943	-0.059
Mof_O 	O 	0.98167	0.45033	0.73933	1.466
Mof_C 	C 	0.93167	0.45933	0.75883	0.273
Mof_H 	H 	0.87527	0.44183	0.75273	0.847
Mof_H 	H 	0.95787	0.51893	0.76383	-0.731
Mof_C 	C 	0.92767	0.40833	0.78003	-0.338
Mof_H 	H 	0.97707	0.44083	0.79063	0.218
Mof_H 	H 	0.92977	0.35913	0.77403	0.32
Mof_C 	C 	0.84637	0.37903	0.79553	0.463
Mof_O 	O 	0.78187	0.36983	0.78593	-0.255
Mof_O 	O 	0.85367	0.35833	0.81693	-0.282
Mof_O 	O 	0.09667	0.55933	0.75063	-0.054
Mof_O 	O 	0.98737	0.43393	0.74633	-3.425
Mof_C 	C 	0.95107	0.45773	0.76693	0.144
Mof_H 	H 	0.99577	0.50443	0.77613	-0.511
Mof_H 	H 	0.91297	0.47573	0.76043	-0.59
Mof_C 	C 	0.90567	0.38633	0.78323	-0.009
Mof_H 	H 	0.94417	0.37003	0.79053	0.127
Mof_H 	H 	0.86317	0.33783	0.77373	-0.02
Mof_C 	C 	0.86137	0.40893	0.80423	-0.553
Mof_O 	O 	0.82757	0.44943	0.79953	-0.083
Mof_O 	O 	0.86767	0.37823	0.82423	-0.045
Mof_C 	C 	0.14107	0.10633	0.69383	-58.825
Mof_H 	H 	0.15697	0.06683	0.69813	18.233
Mof_N 	N 	0.19277	0.16663	0.67873	43.244
Mof_C 	C 	0.17847	0.23493	0.67253	-44.148
Mof_H 	H 	0.17667	0.26003	0.68833	13.994
Mof_H 	H 	0.22977	0.27683	0.66413	17.303
Mof_C 	C 	0.10997	0.23003	0.65803	138.521
Mof_H 	H 	0.11607	0.28533	0.65673	-9.782
Mof_H 	H 	0.11087	0.20923	0.64163	-75.665
Mof_H 	H 	0.05717	0.19223	0.66603	-7.071
Mof_C 	C 	0.26007	0.16283	0.66513	-7.488
Mof_H 	H 	0.25747	0.17513	0.64763	0.844
Mof_H 	H 	0.25207	0.10623	0.66633	-2.013
Mof_C 	C 	0.34327	0.22393	0.67523	-3.172
Mof_H 	H 	0.38657	0.22043	0.66603	4.501
Mof_H 	H 	0.35157	0.28013	0.67383	-0.385
Mof_H 	H 	0.34607	0.21133	0.69253	0.975
Mof_C 	C 	0.93481	0.79402	0.96959	0.911
Mof_C 	C 	0.95553	0.78949	0.99597	0.278
Mof_C 	C 	0.88927	0.78225	0.01098	0.494
Mof_C 	C 	0.90541	0.81197	0.03523	-0.3
Mof_C 	C 	0.9892	0.85352	0.04423	-0.012
Mof_C 	C 	0.05446	0.86076	0.02956	0.392
Mof_C 	C 	0.03688	0.83027	0.00474	0.176
Mof_C 	C 	0.99993	0.92392	0.05984	0.287
Mof_C 	C 	0.92284	0.9238	0.0604	-0.182
Mof_C 	C 	0.85839	0.84827	0.04755	-0.171
Mof_C 	C 	0.76459	0.80133	0.05251	0.002
Mof_O 	O 	0.68843	0.67107	0.03	-1.495
Mof_C 	C 	0.72113	0.70767	0.04846	1.023
Mof_O 	O 	0.72703	0.67227	0.06873	-0.813
Mof_C 	C 	0.68903	0.58117	0.06853	1.591
Mof_H 	H 	0.71693	0.56387	0.05637	-1.521
Mof_H 	H 	0.62933	0.55447	0.06437	-0.59
Mof_C 	C 	0.70023	0.55797	0.09368	-1.596
Mof_H 	H 	0.66373	0.56657	0.10507	0.59
Mof_H 	H 	0.75833	0.59517	0.09887	0.443
Mof_C 	C 	0.68053	0.46757	0.09567	0.925
Mof_O 	O 	0.65373	0.42237	0.07756	-1.168
Mof_O 	O 	0.69233	0.44577	0.11667	-0.646
Mof_O 	O 	0.76873	0.87637	0.08977	-0.143
Mof_C 	C 	0.73003	0.82547	0.07438	0.816
Mof_O 	O 	0.64843	0.78877	0.07187	1.883
Mof_C 	C 	0.59623	0.78847	0.09237	0.191
Mof_H 	H 	0.54783	0.79097	0.08587	0.35
Mof_H 	H 	0.62863	0.83747	0.10287	1.231
Mof_C 	C 	0.56723	0.71137	0.10687	-0.14
Mof_H 	H 	0.61493	0.71327	0.11557	-0.024
Mof_H 	H 	0.54333	0.66277	0.09577	0.385
Mof_C 	C 	0.49893	0.70127	0.12637	0.548
Mof_O 	O 	0.49193	0.76287	0.13107	-0.132
Mof_O 	O 	0.45763	0.62897	0.13567	-0.479
Mof_O 	O 	0.74913	0.42937	0.03517	6.919
Mof_Zn	Zn	0.44527	0.68983	0.17716	1.113
Mof_C 	C 	0.82013	0.47497	0.04157	29.488
Mof_H 	H 	0.83953	0.46327	0.05627	-10.506
Mof_N 	N 	0.87173	0.54167	0.02817	-3.736
Mof_C 	C 	0.85563	0.53137	0.00187	-46.134
Mof_H 	H 	0.91133	0.56417	0.99437	11.873
Mof_H 	H 	0.83883	0.47257	0.99877	5.925
Mof_C 	C 	0.80153	0.54627	0.98577	78.587
Mof_H 	H 	0.80733	0.53197	0.96887	4.76
Mof_H 	H 	0.74383	0.51197	0.99107	-46.441
Mof_H 	H 	0.81743	0.60507	0.98657	-53.337
Mof_C 	C 	0.93043	0.61967	0.04167	0.926
Mof_H 	H 	0.92683	0.66607	0.03397	-0.911
Mof_H 	H 	0.90983	0.61427	0.05857	-0.845
Mof_C 	C 	0.01823	0.64407	0.04287	-2.913
Mof_H 	H 	0.04843	0.69577	0.05217	1.747
Mof_H 	H 	0.02393	0.60027	0.05107	1.205
Mof_H 	H 	0.04103	0.65237	0.02627	1.417
Mof_O 	O 	0.76933	0.85367	0.09277	-0.051
Mof_O 	O 	0.64833	0.78367	0.07267	1.384
Mof_C 	C 	0.59833	0.79267	0.09217	0.203
Mof_H 	H 	0.54193	0.77517	0.08607	0.755
Mof_H 	H 	0.62453	0.85227	0.09717	-0.749
Mof_C 	C 	0.59433	0.74167	0.11337	-0.313
Mof_H 	H 	0.64373	0.77417	0.12397	0.242
Mof_H 	H 	0.59643	0.69247	0.10737	0.279
Mof_C 	C 	0.51303	0.71237	0.12887	0.462
Mof_O 	O 	0.44853	0.70317	0.11927	-0.281
Mof_O 	O 	0.52033	0.69167	0.15027	-0.204
Mof_O 	O 	0.76333	0.89267	0.08397	-0.061
Mof_O 	O 	0.65403	0.76727	0.07967	-2.929
Mof_C 	C 	0.61773	0.79107	0.10027	0.106
Mof_H 	H 	0.66243	0.83777	0.10947	-0.444
Mof_H 	H 	0.57963	0.80907	0.09377	-0.455
Mof_C 	C 	0.57233	0.71967	0.11657	-0.009
Mof_H 	H 	0.61083	0.70337	0.12387	0.083
Mof_H 	H 	0.52983	0.67117	0.10707	0.003
Mof_C 	C 	0.52803	0.74227	0.13757	-0.545
Mof_O 	O 	0.49423	0.78277	0.13287	-0.075
Mof_O 	O 	0.53433	0.71157	0.15757	-0.088
Mof_C 	C 	0.80773	0.43967	0.02717	-41.007
Mof_H 	H 	0.82363	0.40017	0.03147	12.739
Mof_N 	N 	0.85943	0.49997	0.01207	29.675
Mof_C 	C 	0.84513	0.56827	0.00587	-30.257
Mof_H 	H 	0.84333	0.59337	0.02167	9.604
Mof_H 	H 	0.89643	0.61017	0.99747	11.879
Mof_C 	C 	0.77663	0.56337	0.99137	94.792
Mof_H 	H 	0.78273	0.61867	0.99007	-6.705
Mof_H 	H 	0.77753	0.54257	0.97497	-51.784
Mof_H 	H 	0.72383	0.52557	0.99937	-4.836
Mof_C 	C 	0.92673	0.49617	0.99847	-4.499
Mof_H 	H 	0.92413	0.50847	0.98097	0.376
Mof_H 	H 	0.91873	0.43957	0.99967	-1.752
Mof_C 	C 	0.00993	0.55727	0.00857	-3.352
Mof_H 	H 	0.05323	0.55377	0.99937	3.775
Mof_H 	H 	0.01823	0.61347	0.00717	0.029
Mof_H 	H 	0.01273	0.54467	0.02587	1.061
Mof_C 	C 	0.87265	0.47413	0.30292	1.105
Mof_C 	C 	0.87718	0.49938	0.3293	0.214
Mof_C 	C 	0.88442	0.44036	0.34431	0.611
Mof_C 	C 	0.8547	0.42678	0.36856	-0.226
Mof_C 	C 	0.81315	0.46902	0.37756	-0.085
Mof_C 	C 	0.80591	0.52704	0.36289	0.717
Mof_C 	C 	0.8364	0.53995	0.33807	0.433
Mof_C 	C 	0.74275	0.40935	0.39317	-0.083
Mof_C 	C 	0.74287	0.33238	0.39373	0.155
Mof_C 	C 	0.8184	0.34346	0.38088	-0.51
Mof_C 	C 	0.86534	0.2966	0.38584	0.285
Mof_O 	O 	0.9956	0.3507	0.36333	-1.874
Mof_C 	C 	0.959	0.3468	0.38179	1.318
Mof_O 	O 	0.9944	0.3881	0.40206	-0.681
Mof_C 	C 	0.0855	0.4412	0.40186	1.378
Mof_H 	H 	0.1028	0.4864	0.3897	-1.6
Mof_H 	H 	0.1122	0.4082	0.3977	-0.594
Mof_C 	C 	0.1087	0.4756	0.42701	-1.488
Mof_H 	H 	0.1001	0.4305	0.4384	0.553
Mof_H 	H 	0.0715	0.4965	0.4322	0.356
Mof_C 	C 	0.1991	0.5463	0.429	0.895
Mof_O 	O 	0.2443	0.5647	0.41089	-1.203
Mof_O 	O 	0.2209	0.5799	0.45	-0.655
Mof_O 	O 	0.7903	0.2257	0.4231	-0.065
Mof_C 	C 	0.8412	0.2379	0.40771	1.087
Mof_O 	O 	0.8779	0.193	0.4052	3.247
Mof_C 	C 	0.8782	0.1411	0.4257	0.245
Mof_H 	H 	0.8757	0.0902	0.4192	0.62
Mof_H 	H 	0.8292	0.1245	0.4362	2.137
Mof_C 	C 	0.9553	0.1892	0.4402	-0.316
Mof_H 	H 	0.9534	0.235	0.4489	0.274
Mof_H 	H 	0.0039	0.2139	0.4291	0.316
Mof_C 	C 	0.9654	0.131	0.4597	0.553
Mof_O 	O 	0.9038	0.0624	0.4644	0.009
Mof_O 	O 	0.0377	0.162	0.469	-0.491
Mof_O 	O 	0.2373	0.6531	0.3685	7.481
Mof_Zn	Zn	0.97684	0.08878	0.51049	1.116
Mof_C 	C 	0.1917	0.6785	0.3749	31.621
Mof_H 	H 	0.2034	0.7096	0.3896	-11.305
Mof_N 	N 	0.125	0.6634	0.3615	-4.066
Mof_C 	C 	0.1353	0.6576	0.3352	-50.072
Mof_H 	H 	0.1025	0.6805	0.3277	12.762
Mof_H 	H 	0.1941	0.6996	0.3321	6.392
Mof_C 	C 	0.1204	0.5886	0.3191	85.382
Mof_H 	H 	0.1347	0.6087	0.3022	5.148
Mof_H 	H 	0.1547	0.5652	0.3244	-50.42
Mof_H 	H 	0.0616	0.5457	0.3199	-57.948
Mof_C 	C 	0.047	0.6441	0.375	1.624
Mof_H 	H 	0.0006	0.5941	0.3673	-1.284
Mof_H 	H 	0.0524	0.6289	0.3919	-1.182
Mof_C 	C 	0.0226	0.7075	0.3762	-4.579
Mof_H 	H 	0.9709	0.686	0.3855	2.852
Mof_H 	H 	0.0664	0.757	0.3844	1.845
Mof_H 	H 	0.0143	0.722	0.3596	2.043
Mof_O 	O 	0.813	0.249	0.4261	-0.11
Mof_O 	O 	0.883	0.198	0.406	2.447
Mof_C 	C 	0.874	0.139	0.4255	0.266
Mof_H 	H 	0.8915	0.1001	0.4194	1.279
Mof_H 	H 	0.8144	0.1056	0.4305	-1.301
Mof_C 	C 	0.925	0.186	0.4467	-0.347
Mof_H 	H 	0.8925	0.2029	0.4573	0.316
Mof_H 	H 	0.9742	0.2373	0.4407	0.347
Mof_C 	C 	0.9543	0.134	0.4622	0.406
Mof_O 	O 	0.9635	0.0787	0.4526	0.018
Mof_O 	O 	0.975	0.162	0.4836	-0.369
Mof_O 	O 	0.774	0.204	0.4173	-0.021
Mof_O 	O 	0.8994	0.2201	0.413	-4.845
Mof_C 	C 	0.8756	0.16	0.4336	0.232
Mof_H 	H 	0.8289	0.158	0.4428	-0.803
Mof_H 	H 	0.8576	0.1039	0.4271	-0.717
Mof_C 	C 	0.947	0.186	0.4499	-0.033
Mof_H 	H 	0.9633	0.2408	0.4572	-0.11
Mof_H 	H 	0.9955	0.192	0.4404	0.35
Mof_C 	C 	0.9244	0.1191	0.4709	-0.493
Mof_O 	O 	0.8839	0.0448	0.4662	-0.184
Mof_O 	O 	0.9551	0.1561	0.4909	0.109
Mof_C 	C 	0.227	0.7014	0.3605	-44.037
Mof_H 	H 	0.2665	0.7568	0.3648	13.676
Mof_N 	N 	0.1667	0.6928	0.3454	32.021
Mof_C 	C 	0.0984	0.6102	0.3392	-32.741
Mof_H 	H 	0.0733	0.5833	0.355	10.345
Mof_H 	H 	0.0565	0.6196	0.3308	12.812
Mof_C 	C 	0.1033	0.5466	0.3247	102.877
Mof_H 	H 	0.048	0.4974	0.3234	-7.363
Mof_H 	H 	0.1241	0.5683	0.3083	-56.244
Mof_H 	H 	0.1411	0.5316	0.3327	-5.244
Mof_C 	C 	0.1705	0.7639	0.3318	-3.556
Mof_H 	H 	0.1582	0.749	0.3143	0.01
Mof_H 	H 	0.2271	0.8125	0.333	-3.281
Mof_C 	C 	0.1094	0.786	0.3419	-5.547
Mof_H 	H 	0.1129	0.8328	0.3327	5.186
Mof_H 	H 	0.0532	0.7381	0.3405	0.444
Mof_H 	H 	0.122	0.8014	0.3592	1.82
Mof_C 	C 	0.53932	0.80746	0.63625	1.585
Mof_C 	C 	0.54385	0.83271	0.66263	0.529
Mof_C 	C 	0.55109	0.77369	0.67764	0.799
Mof_C 	C 	0.52137	0.76011	0.70189	-0.504
Mof_C 	C 	0.47982	0.80235	0.71089	-0.01
Mof_C 	C 	0.47258	0.86037	0.69622	0.548
Mof_C 	C 	0.50307	0.87328	0.6714	0.13
Mof_C 	C 	0.40942	0.74268	0.7265	-0.062
Mof_C 	C 	0.40954	0.66571	0.72706	0.083
Mof_C 	C 	0.48507	0.67679	0.71421	-0.257
Mof_C 	C 	0.53201	0.62993	0.71917	-0.002
Mof_O 	O 	0.66227	0.68403	0.69666	-1.895
Mof_C 	C 	0.62567	0.68013	0.71512	1.159
Mof_O 	O 	0.66107	0.72143	0.73539	-1.114
Mof_C 	C 	0.75217	0.77453	0.73519	2.445
Mof_H 	H 	0.76947	0.81973	0.72303	-2.576
Mof_H 	H 	0.77887	0.74153	0.73103	-0.974
Mof_C 	C 	0.77537	0.80893	0.76034	-2.302
Mof_H 	H 	0.76677	0.76383	0.77173	0.812
Mof_H 	H 	0.73817	0.82983	0.76553	0.575
Mof_C 	C 	0.86577	0.87963	0.76233	1.176
Mof_O 	O 	0.91097	0.89803	0.74422	-1.657
Mof_O 	O 	0.88757	0.91323	0.78333	-0.721
Mof_O 	O 	0.45697	0.55903	0.75643	-0.131
Mof_C 	C 	0.50787	0.57123	0.74104	0.872
Mof_O 	O 	0.54457	0.52633	0.73853	2.085
Mof_C 	C 	0.54487	0.47443	0.75903	0.184
Mof_H 	H 	0.54237	0.42353	0.75253	0.392
Mof_H 	H 	0.49587	0.45783	0.76953	1.358
Mof_C 	C 	0.62197	0.52253	0.77353	-0.153
Mof_H 	H 	0.62007	0.56833	0.78223	-0.015
Mof_H 	H 	0.67057	0.54723	0.76243	0.419
Mof_C 	C 	0.63207	0.46433	0.79303	0.507
Mof_O 	O 	0.57047	0.39573	0.79773	-0.107
Mof_O 	O 	0.70437	0.49533	0.80233	-0.464
Mof_O 	O 	0.90397	0.98643	0.70183	12.879
Mof_Zn	Zn	0.64351	0.42211	0.84382	1.113
Mof_C 	C 	0.85837	0.01183	0.70823	51.994
Mof_H 	H 	0.87007	0.04293	0.72293	-18.681
Mof_N 	N 	0.79167	0.99673	0.69483	-6.455
Mof_C 	C 	0.80197	0.99093	0.66853	-79.155
Mof_H 	H 	0.76917	0.01383	0.66103	20.217
Mof_H 	H 	0.86077	0.03293	0.66543	9.894
Mof_C 	C 	0.78707	0.92193	0.65243	134.008
Mof_H 	H 	0.80137	0.94203	0.63553	8.103
Mof_H 	H 	0.82137	0.89853	0.65773	-79.241
Mof_H 	H 	0.72827	0.87903	0.65323	-91.04
Mof_C 	C 	0.71367	0.97743	0.70833	1.963
Mof_H 	H 	0.66727	0.92743	0.70063	-1.694
Mof_H 	H 	0.71907	0.96223	0.72523	-1.577
Mof_C 	C 	0.68927	0.04083	0.70953	-4.997
Mof_H 	H 	0.63757	0.01933	0.71883	2.383
Mof_H 	H 	0.73307	0.09033	0.71773	1.851
Mof_H 	H 	0.68097	0.05533	0.69293	2.122
Mof_O 	O 	0.47967	0.58233	0.75943	-0.066
Mof_O 	O 	0.54967	0.53133	0.73933	1.542
Mof_C 	C 	0.54067	0.47233	0.75883	0.198
Mof_H 	H 	0.55817	0.43343	0.75273	0.825
Mof_H 	H 	0.48107	0.43893	0.76383	-0.822
Mof_C 	C 	0.59167	0.51933	0.78003	-0.291
Mof_H 	H 	0.55917	0.53623	0.79063	0.246
Mof_H 	H 	0.64087	0.57063	0.77403	0.28
Mof_C 	C 	0.62097	0.46733	0.79553	0.435
Mof_O 	O 	0.63017	0.41203	0.78593	-0.228
Mof_O 	O 	0.64167	0.49533	0.81693	-0.214
Mof_O 	O 	0.44067	0.53733	0.75063	-0.045
Mof_O 	O 	0.56607	0.55343	0.74633	-3.211
Mof_C 	C 	0.54227	0.49333	0.76693	0.116
Mof_H 	H 	0.49557	0.49133	0.77613	-0.486
Mof_H 	H 	0.52427	0.43723	0.76043	-0.474
Mof_C 	C 	0.61367	0.51933	0.78323	0.003
Mof_H 	H 	0.62997	0.57413	0.79053	0.069
Mof_H 	H 	0.66217	0.52533	0.77373	0.007
Mof_C 	C 	0.59107	0.45243	0.80423	-0.49
Mof_O 	O 	0.55057	0.37813	0.79953	-0.1
Mof_O 	O 	0.62177	0.48943	0.82423	-0.088
Mof_C 	C 	0.89367	0.03473	0.69383	-73.264
Mof_H 	H 	0.93317	0.09013	0.69813	22.59
Mof_N 	N 	0.83337	0.02613	0.67873	51.442
Mof_C 	C 	0.76507	0.94353	0.67253	-50.861
Mof_H 	H 	0.73997	0.91663	0.68833	16.109
Mof_H 	H 	0.72317	0.95293	0.66413	20.164
Mof_C 	C 	0.76997	0.87993	0.65803	161.678
Mof_H 	H 	0.71467	0.83073	0.65673	-11.422
Mof_H 	H 	0.79077	0.90163	0.64163	-88.316
Mof_H 	H 	0.80777	0.86493	0.66603	-8.304
Mof_C 	C 	0.83717	0.09723	0.66513	-9.399
Mof_H 	H 	0.82487	0.08233	0.64763	0.992
Mof_H 	H 	0.89377	0.14583	0.66633	-1.327
Mof_C 	C 	0.77607	0.11933	0.67523	-3.34
Mof_H 	H 	0.77957	0.16613	0.66603	5.444
Mof_H 	H 	0.71987	0.07143	0.67383	-0.684
Mof_H 	H 	0.78867	0.13473	0.69253	0.954
Mof_C 	C 	0.20598	0.1408	0.96959	0.968
Mof_C 	C 	0.21051	0.16605	0.99597	0.221
Mof_C 	C 	0.21775	0.10703	0.01098	0.498
Mof_C 	C 	0.18803	0.09345	0.03523	-0.315
Mof_C 	C 	0.14648	0.13569	0.04423	-0.151
Mof_C 	C 	0.13924	0.19371	0.02956	0.522
Mof_C 	C 	0.16973	0.20662	0.00474	0.202
Mof_C 	C 	0.07608	0.07602	0.05984	0.268
Mof_C 	C 	0.0762	0.99905	0.0604	-0.369
Mof_C 	C 	0.15173	0.01013	0.04755	-0.04
Mof_C 	C 	0.19867	0.96327	0.05251	-0.119
Mof_O 	O 	0.32893	0.01737	0.03	-1.519
Mof_C 	C 	0.29233	0.01347	0.04846	1.104
Mof_O 	O 	0.32773	0.05477	0.06873	-0.809
Mof_C 	C 	0.41883	0.10787	0.06853	1.6
Mof_H 	H 	0.43613	0.15307	0.05637	-1.528
Mof_H 	H 	0.44553	0.07487	0.06437	-0.577
Mof_C 	C 	0.44203	0.14227	0.09368	-1.606
Mof_H 	H 	0.43343	0.09717	0.10507	0.623
Mof_H 	H 	0.40483	0.16317	0.09887	0.437
Mof_C 	C 	0.53243	0.21297	0.09567	0.933
Mof_O 	O 	0.57763	0.23137	0.07756	-1.167
Mof_O 	O 	0.55423	0.24657	0.11667	-0.65
Mof_O 	O 	0.12363	0.89237	0.08977	-0.204
Mof_C 	C 	0.17453	0.90457	0.07438	0.853
Mof_O 	O 	0.21123	0.85967	0.07187	1.9
Mof_C 	C 	0.21153	0.80777	0.09237	0.224
Mof_H 	H 	0.20903	0.75687	0.08587	0.336
Mof_H 	H 	0.16253	0.79117	0.10287	1.178
Mof_C 	C 	0.28863	0.85587	0.10687	-0.1
Mof_H 	H 	0.28673	0.90167	0.11557	-0.15
Mof_H 	H 	0.33723	0.88057	0.09577	0.364
Mof_C 	C 	0.29873	0.79767	0.12637	0.568
Mof_O 	O 	0.23713	0.72907	0.13107	-0.148
Mof_O 	O 	0.37103	0.82867	0.13567	-0.493
Mof_O 	O 	0.57063	0.31977	0.03517	6.917
Mof_Zn	Zn	0.31017	0.75545	0.17716	1.109
Mof_C 	C 	0.52503	0.34517	0.04157	29.439
Mof_H 	H 	0.53673	0.37627	0.05627	-10.505
Mof_N 	N 	0.45833	0.33007	0.02817	-3.693
Mof_C 	C 	0.46863	0.32427	0.00187	-46.12
Mof_H 	H 	0.43583	0.34717	0.99437	11.871
Mof_H 	H 	0.52743	0.36627	0.99877	5.933
Mof_C 	C 	0.45373	0.25527	0.98577	78.532
Mof_H 	H 	0.46803	0.27537	0.96887	4.76
Mof_H 	H 	0.48803	0.23187	0.99107	-46.409
Mof_H 	H 	0.39493	0.21237	0.98657	-53.301
Mof_C 	C 	0.38033	0.31077	0.04167	0.556
Mof_H 	H 	0.33393	0.26077	0.03397	-0.824
Mof_H 	H 	0.38573	0.29557	0.05857	-0.77
Mof_C 	C 	0.35593	0.37417	0.04287	-2.39
Mof_H 	H 	0.30423	0.35267	0.05217	1.627
Mof_H 	H 	0.39973	0.42367	0.05107	1.093
Mof_H 	H 	0.34763	0.38867	0.02627	1.266
Mof_O 	O 	0.14633	0.91567	0.09277	-0.079
Mof_O 	O 	0.21633	0.86467	0.07267	1.386
Mof_C 	C 	0.20733	0.80567	0.09217	0.23
Mof_H 	H 	0.22483	0.76677	0.08607	0.763
Mof_H 	H 	0.14773	0.77227	0.09717	-0.715
Mof_C 	C 	0.25833	0.85267	0.11337	-0.343
Mof_H 	H 	0.22583	0.86957	0.12397	0.226
Mof_H 	H 	0.30753	0.90397	0.10737	0.323
Mof_C 	C 	0.28763	0.80067	0.12887	0.475
Mof_O 	O 	0.29683	0.74537	0.11927	-0.29
Mof_O 	O 	0.30833	0.82867	0.15027	-0.283
Mof_O 	O 	0.10733	0.87067	0.08397	-0.056
Mof_O 	O 	0.23273	0.88677	0.07967	-2.99
Mof_C 	C 	0.20893	0.82667	0.10027	0.097
Mof_H 	H 	0.16223	0.82467	0.10947	-0.444
Mof_H 	H 	0.19093	0.77057	0.09377	-0.495
Mof_C 	C 	0.28033	0.85267	0.11657	0.021
Mof_H 	H 	0.29663	0.90747	0.12387	0.134
Mof_H 	H 	0.32883	0.85867	0.10707	-0.034
Mof_C 	C 	0.25773	0.78577	0.13757	-0.572
Mof_O 	O 	0.21723	0.71147	0.13287	-0.065
Mof_O 	O 	0.28843	0.82277	0.15757	-0.042
Mof_C 	C 	0.56033	0.36807	0.02717	-40.965
Mof_H 	H 	0.59983	0.42347	0.03147	12.721
Mof_N 	N 	0.50003	0.35947	0.01207	29.647
Mof_C 	C 	0.43173	0.27687	0.00587	-30.23
Mof_H 	H 	0.40663	0.24997	0.02167	9.599
Mof_H 	H 	0.38983	0.28627	0.99747	11.865
Mof_C 	C 	0.43663	0.21327	0.99137	94.735
Mof_H 	H 	0.38133	0.16407	0.99007	-6.707
Mof_H 	H 	0.45743	0.23497	0.97497	-51.754
Mof_H 	H 	0.47443	0.19827	0.99937	-4.838
Mof_C 	C 	0.50383	0.43057	0.99847	-4.574
Mof_H 	H 	0.49153	0.41567	0.98097	0.398
Mof_H 	H 	0.56043	0.47917	0.99967	-1.685
Mof_C 	C 	0.44273	0.45267	0.00857	-3.328
Mof_H 	H 	0.44623	0.49947	0.99937	3.805
Mof_H 	H 	0.38653	0.40477	0.00717	0.06
Mof_H 	H 	0.45533	0.46807	0.02587	1.092
Mof_C 	C 	0.47413	0.60148	0.69708	1.09
Mof_C 	C 	0.49938	0.6222	0.6707	0.133
Mof_C 	C 	0.44036	0.55594	0.65569	0.568
Mof_C 	C 	0.42678	0.57208	0.63144	-0.281
Mof_C 	C 	0.46902	0.65587	0.62244	-0.127
Mof_C 	C 	0.52704	0.72113	0.63711	0.823
Mof_C 	C 	0.53995	0.70355	0.66193	0.509
Mof_C 	C 	0.40935	0.6666	0.60683	-0.078
Mof_C 	C 	0.33238	0.58951	0.60627	0.127
Mof_C 	C 	0.34346	0.52506	0.61912	-0.412
Mof_C 	C 	0.2966	0.43126	0.61416	0.163
Mof_O 	O 	0.3507	0.3551	0.63667	-1.873
Mof_C 	C 	0.3468	0.3878	0.61821	1.257
Mof_O 	O 	0.3881	0.3937	0.59794	-0.892
Mof_C 	C 	0.4412	0.3557	0.59814	1.743
Mof_H 	H 	0.4864	0.3836	0.6103	-1.675
Mof_H 	H 	0.4082	0.296	0.6023	-0.652
Mof_C 	C 	0.4756	0.3669	0.57299	-1.708
Mof_H 	H 	0.4305	0.3304	0.5616	0.641
Mof_H 	H 	0.4965	0.425	0.5678	0.46
Mof_C 	C 	0.5463	0.3472	0.571	0.963
Mof_O 	O 	0.5647	0.3204	0.58911	-1.231
Mof_O 	O 	0.5799	0.359	0.55	-0.669
Mof_O 	O 	0.2257	0.4354	0.5769	-0.092
Mof_C 	C 	0.2379	0.3967	0.59229	0.992
Mof_O 	O 	0.193	0.3151	0.5948	2.774
Mof_C 	C 	0.1411	0.2629	0.5743	0.183
Mof_H 	H 	0.0902	0.2145	0.5808	0.55
Mof_H 	H 	0.1245	0.2953	0.5638	1.782
Mof_C 	C 	0.1892	0.2339	0.5598	-0.189
Mof_H 	H 	0.235	0.2816	0.5511	0.045
Mof_H 	H 	0.2139	0.21	0.5709	0.557
Mof_C 	C 	0.131	0.1656	0.5403	0.386
Mof_O 	O 	0.0624	0.1586	0.5356	-0.048
Mof_O 	O 	0.162	0.1243	0.531	-0.388
Mof_O 	O 	0.6531	0.4158	0.6315	7.647
Mof_Zn	Zn	0.08878	0.11194	0.48951	1.114
Mof_C 	C 	0.6785	0.4868	0.6251	32.247
Mof_H 	H 	0.7096	0.5062	0.6104	-11.516
Mof_N 	N 	0.6634	0.5384	0.6385	-4.007
Mof_C 	C 	0.6576	0.5223	0.6648	-51.081
Mof_H 	H 	0.6805	0.578	0.6723	13.026
Mof_H 	H 	0.6996	0.5055	0.6679	6.51
Mof_C 	C 	0.5886	0.4682	0.6809	86.934
Mof_H 	H 	0.6087	0.474	0.6978	5.279
Mof_H 	H 	0.5652	0.4105	0.6756	-51.396
Mof_H 	H 	0.5457	0.4841	0.6801	-59.02
Mof_C 	C 	0.6441	0.5971	0.625	0.584
Mof_H 	H 	0.5941	0.5935	0.6327	-0.884
Mof_H 	H 	0.6289	0.5765	0.6081	-0.829
Mof_C 	C 	0.7075	0.6849	0.6238	-2.729
Mof_H 	H 	0.686	0.7151	0.6145	2.315
Mof_H 	H 	0.757	0.6906	0.6156	1.418
Mof_H 	H 	0.722	0.7077	0.6404	1.651
Mof_O 	O 	0.249	0.436	0.5739	-0.096
Mof_O 	O 	0.198	0.315	0.594	2.078
Mof_C 	C 	0.139	0.265	0.5745	0.199
Mof_H 	H 	0.1001	0.2086	0.5806	1.088
Mof_H 	H 	0.1056	0.2912	0.5695	-1.064
Mof_C 	C 	0.186	0.261	0.5533	-0.226
Mof_H 	H 	0.2029	0.3104	0.5427	0.253
Mof_H 	H 	0.2373	0.2631	0.5593	0.272
Mof_C 	C 	0.134	0.1797	0.5378	0.341
Mof_O 	O 	0.0787	0.1152	0.5474	-0.02
Mof_O 	O 	0.162	0.187	0.5164	-0.241
Mof_O 	O 	0.204	0.43	0.5827	-0.025
Mof_O 	O 	0.2201	0.3207	0.587	-4.186
Mof_C 	C 	0.16	0.2844	0.5664	0.155
Mof_H 	H 	0.158	0.3291	0.5572	-0.648
Mof_H 	H 	0.1039	0.2463	0.5729	-0.577
Mof_C 	C 	0.186	0.239	0.5501	0.017
Mof_H 	H 	0.2408	0.2775	0.5428	0.028
Mof_H 	H 	0.192	0.1965	0.5596	0.036
Mof_C 	C 	0.1191	0.1947	0.5291	-0.326
Mof_O 	O 	0.0448	0.1609	0.5338	-0.18
Mof_O 	O 	0.1561	0.201	0.5091	-0.084
Mof_C 	C 	0.7014	0.4744	0.6395	-44.956
Mof_H 	H 	0.7568	0.4903	0.6352	13.955
Mof_N 	N 	0.6928	0.5261	0.6546	32.614
Mof_C 	C 	0.6102	0.5118	0.6608	-33.345
Mof_H 	H 	0.5833	0.51	0.645	10.58
Mof_H 	H 	0.6196	0.5631	0.6692	13.125
Mof_C 	C 	0.5466	0.4433	0.6753	104.887
Mof_H 	H 	0.4974	0.4494	0.6766	-7.423
Mof_H 	H 	0.5683	0.4442	0.6917	-57.294
Mof_H 	H 	0.5316	0.3905	0.6673	-5.343
Mof_C 	C 	0.7639	0.5934	0.6682	-3.452
Mof_H 	H 	0.749	0.5908	0.6857	-0.028
Mof_H 	H 	0.8125	0.5854	0.667	-3.292
Mof_C 	C 	0.786	0.6766	0.6581	-6.098
Mof_H 	H 	0.8328	0.7199	0.6673	5.548
Mof_H 	H 	0.7381	0.6849	0.6595	0.729
Mof_H 	H 	0.8014	0.6794	0.6408	2.065
Mof_C 	C 	0.1408	0.93481	0.03041	0.946
Mof_C 	C 	0.16605	0.95553	0.00403	0.249
Mof_C 	C 	0.10703	0.88927	0.98902	0.528
Mof_C 	C 	0.09345	0.90541	0.96477	-0.345
Mof_C 	C 	0.13569	0.9892	0.95577	0.007
Mof_C 	C 	0.19371	0.05446	0.97044	0.374
Mof_C 	C 	0.20662	0.03688	0.99526	0.197
Mof_C 	C 	0.07602	0.99993	0.94016	0.34
Mof_C 	C 	0.99905	0.92284	0.9396	-0.251
Mof_C 	C 	0.01013	0.85839	0.95245	-0.034
Mof_C 	C 	0.96327	0.76459	0.94749	-0.089
Mof_O 	O 	0.01737	0.68843	0.97	-1.515
Mof_C 	C 	0.01347	0.72113	0.95154	1.097
Mof_O 	O 	0.05477	0.72703	0.93127	-0.796
Mof_C 	C 	0.10787	0.68903	0.93147	1.615
Mof_H 	H 	0.15307	0.71693	0.94363	-1.529
Mof_H 	H 	0.07487	0.62933	0.93563	-0.582
Mof_C 	C 	0.14227	0.70023	0.90632	-1.63
Mof_H 	H 	0.09717	0.66373	0.89493	0.64
Mof_H 	H 	0.16317	0.75833	0.90113	0.473
Mof_C 	C 	0.21297	0.68053	0.90433	0.945
Mof_O 	O 	0.23137	0.65373	0.92244	-1.169
Mof_O 	O 	0.24657	0.69233	0.88333	-0.633
Mof_O 	O 	0.89237	0.76873	0.91023	-0.148
Mof_C 	C 	0.90457	0.73003	0.92562	0.832
Mof_O 	O 	0.85967	0.64843	0.92813	1.905
Mof_C 	C 	0.80777	0.59623	0.90763	0.183
Mof_H 	H 	0.75687	0.54783	0.91413	0.351
Mof_H 	H 	0.79117	0.62863	0.89713	1.25
Mof_C 	C 	0.85587	0.56723	0.89313	-0.127
Mof_H 	H 	0.90167	0.61493	0.88443	-0.096
Mof_H 	H 	0.88057	0.54333	0.90423	0.368
Mof_C 	C 	0.79767	0.49893	0.87363	0.516
Mof_O 	O 	0.72907	0.49193	0.86893	-0.121
Mof_O 	O 	0.82867	0.45763	0.86433	-0.485
Mof_O 	O 	0.31977	0.74913	0.96483	6.92
Mof_Zn	Zn	0.75545	0.44527	0.82284	1.111
Mof_C 	C 	0.34517	0.82013	0.95843	29.496
Mof_H 	H 	0.37627	0.83953	0.94373	-10.508
Mof_N 	N 	0.33007	0.87173	0.97183	-3.739
Mof_C 	C 	0.32427	0.85563	0.99813	-46.124
Mof_H 	H 	0.34717	0.91133	0.00563	11.87
Mof_H 	H 	0.36627	0.83883	0.00123	5.922
Mof_C 	C 	0.25527	0.80153	0.01423	78.573
Mof_H 	H 	0.27537	0.80733	0.03113	4.758
Mof_H 	H 	0.23187	0.74383	0.00893	-46.432
Mof_H 	H 	0.21237	0.81743	0.01343	-53.327
Mof_C 	C 	0.31077	0.93043	0.95833	0.931
Mof_H 	H 	0.26077	0.92683	0.96603	-0.91
Mof_H 	H 	0.29557	0.90983	0.94143	-0.842
Mof_C 	C 	0.37417	0.01823	0.95713	-2.925
Mof_H 	H 	0.35267	0.04843	0.94783	1.754
Mof_H 	H 	0.42367	0.02393	0.94893	1.209
Mof_H 	H 	0.38867	0.04103	0.97373	1.42
Mof_O 	O 	0.91567	0.76933	0.90723	-0.078
Mof_O 	O 	0.86467	0.64833	0.92733	1.397
Mof_C 	C 	0.80567	0.59833	0.90783	0.195
Mof_H 	H 	0.76677	0.54193	0.91393	0.754
Mof_H 	H 	0.77227	0.62453	0.90283	-0.755
Mof_C 	C 	0.85267	0.59433	0.88663	-0.31
Mof_H 	H 	0.86957	0.64373	0.87603	0.237
Mof_H 	H 	0.90397	0.59643	0.89263	0.297
Mof_C 	C 	0.80067	0.51303	0.87113	0.449
Mof_O 	O 	0.74537	0.44853	0.88073	-0.269
Mof_O 	O 	0.82867	0.52033	0.84973	-0.241
Mof_O 	O 	0.87067	0.76333	0.91603	-0.027
Mof_O 	O 	0.88677	0.65403	0.92033	-2.975
Mof_C 	C 	0.82667	0.61773	0.89973	0.095
Mof_H 	H 	0.82467	0.66243	0.89053	-0.44
Mof_H 	H 	0.77057	0.57963	0.90623	-0.441
Mof_C 	C 	0.85267	0.57233	0.88343	0.025
Mof_H 	H 	0.90747	0.61083	0.87613	0.102
Mof_H 	H 	0.85867	0.52983	0.89293	-0.013
Mof_C 	C 	0.78577	0.52803	0.86243	-0.507
Mof_O 	O 	0.71147	0.49423	0.86713	-0.087
Mof_O 	O 	0.82277	0.53433	0.84243	-0.077
Mof_C 	C 	0.36807	0.80773	0.97283	-41.015
Mof_H 	H 	0.42347	0.82363	0.96853	12.741
Mof_N 	N 	0.35947	0.85943	0.98793	29.673
Mof_C 	C 	0.27687	0.84513	0.99413	-30.253
Mof_H 	H 	0.24997	0.84333	0.97833	9.603
Mof_H 	H 	0.28627	0.89643	0.00253	11.877
Mof_C 	C 	0.21327	0.77663	0.00863	94.776
Mof_H 	H 	0.16407	0.78273	0.00993	-6.709
Mof_H 	H 	0.23497	0.77753	0.02503	-51.779
Mof_H 	H 	0.19827	0.72383	0.00063	-4.839
Mof_C 	C 	0.43057	0.92673	0.00153	-4.502
Mof_H 	H 	0.41567	0.92413	0.01903	0.376
Mof_H 	H 	0.47917	0.91873	0.00033	-1.751
Mof_C 	C 	0.45267	0.00993	0.99143	-3.351
Mof_H 	H 	0.49947	0.05323	0.00063	3.775
Mof_H 	H 	0.40477	0.01823	0.99283	0.028
Mof_H 	H 	0.46807	0.01273	0.97413	1.06
Mof_C 	C 	0.80746	0.26815	0.36375	1.6
Mof_C 	C 	0.83271	0.28887	0.33737	0.538
Mof_C 	C 	0.77369	0.22261	0.32236	0.807
Mof_C 	C 	0.76011	0.23875	0.29811	-0.512
Mof_C 	C 	0.80235	0.32254	0.28911	-0.008
Mof_C 	C 	0.86037	0.3878	0.30378	0.552
Mof_C 	C 	0.87328	0.37022	0.3286	0.131
Mof_C 	C 	0.74268	0.33327	0.2735	-0.06
Mof_C 	C 	0.66571	0.25618	0.27294	0.081
Mof_C 	C 	0.67679	0.19173	0.28579	-0.246
Mof_C 	C 	0.62993	0.09793	0.28083	-0.052
Mof_O 	O 	0.68403	0.02177	0.30334	-1.754
Mof_C 	C 	0.68013	0.05447	0.28488	1.217
Mof_O 	O 	0.72143	0.06037	0.26461	-1.116
Mof_C 	C 	0.77453	0.02237	0.26481	2.819
Mof_H 	H 	0.81973	0.05027	0.27697	-2.592
Mof_H 	H 	0.74153	0.96267	0.26897	-1.206
Mof_C 	C 	0.80893	0.03357	0.23966	-2.06
Mof_H 	H 	0.76383	0.99707	0.22827	0.562
Mof_H 	H 	0.82983	0.09167	0.23447	0.535
Mof_C 	C 	0.87963	0.01387	0.23767	1.438
Mof_O 	O 	0.89803	0.98707	0.25578	-1.873
Mof_O 	O 	0.91323	0.02567	0.21667	-0.596
Mof_O 	O 	0.55903	0.10207	0.24357	-0.132
Mof_C 	C 	0.57123	0.06337	0.25896	1.181
Mof_O 	O 	0.52633	0.98177	0.26147	2.061
Mof_C 	C 	0.47443	0.92957	0.24097	0.272
Mof_H 	H 	0.42353	0.88117	0.24747	0.353
Mof_H 	H 	0.45783	0.96197	0.23047	1.188
Mof_C 	C 	0.52253	0.90057	0.22647	-0.102
Mof_H 	H 	0.56833	0.94827	0.21777	-0.106
Mof_H 	H 	0.54723	0.87667	0.23757	0.396
Mof_C 	C 	0.46433	0.83227	0.20697	0.562
Mof_O 	O 	0.39573	0.82527	0.20227	-0.128
Mof_O 	O 	0.49533	0.79097	0.19767	-0.469
Mof_O 	O 	0.98643	0.08247	0.29817	13.144
Mof_Zn	Zn	0.42211	0.77861	0.15618	1.11
Mof_C 	C 	0.01183	0.15347	0.29177	52.167
Mof_H 	H 	0.04293	0.17287	0.27707	-18.734
Mof_N 	N 	0.99673	0.20507	0.30517	-6.444
Mof_C 	C 	0.99093	0.18897	0.33147	-80.084
Mof_H 	H 	0.01383	0.24467	0.33897	20.462
Mof_H 	H 	0.03293	0.17217	0.33457	10.126
Mof_C 	C 	0.92193	0.13487	0.34757	135.56
Mof_H 	H 	0.94203	0.14067	0.36447	8.239
Mof_H 	H 	0.89853	0.07717	0.34227	-80.199
Mof_H 	H 	0.87903	0.15077	0.34677	-92.123
Mof_C 	C 	0.97743	0.26377	0.29167	1.944
Mof_H 	H 	0.92743	0.26017	0.29937	-1.699
Mof_H 	H 	0.96223	0.24317	0.27477	-1.568
Mof_C 	C 	0.04083	0.35157	0.29047	-5.013
Mof_H 	H 	0.01933	0.38177	0.28117	2.396
Mof_H 	H 	0.09033	0.35727	0.28227	1.866
Mof_H 	H 	0.05533	0.37437	0.30707	2.135
Mof_O 	O 	0.58233	0.10267	0.24057	-0.052
Mof_O 	O 	0.53133	0.98167	0.26067	1.453
Mof_C 	C 	0.47233	0.93167	0.24117	0.276
Mof_H 	H 	0.43343	0.87527	0.24727	0.843
Mof_H 	H 	0.43893	0.95787	0.23617	-0.726
Mof_C 	C 	0.51933	0.92767	0.21997	-0.337
Mof_H 	H 	0.53623	0.97707	0.20937	0.217
Mof_H 	H 	0.57063	0.92977	0.22597	0.309
Mof_C 	C 	0.46733	0.84637	0.20447	0.461
Mof_O 	O 	0.41203	0.78187	0.21407	-0.253
Mof_O 	O 	0.49533	0.85367	0.18307	-0.272
Mof_O 	O 	0.53733	0.09667	0.24937	-0.064
Mof_O 	O 	0.55343	0.98737	0.25367	-3.403
Mof_C 	C 	0.49333	0.95107	0.23307	0.15
Mof_H 	H 	0.49133	0.99577	0.22387	-0.512
Mof_H 	H 	0.43723	0.91297	0.23957	-0.598
Mof_C 	C 	0.51933	0.90567	0.21677	-0.025
Mof_H 	H 	0.57413	0.94417	0.20947	0.121
Mof_H 	H 	0.52533	0.86317	0.22627	-0.01
Mof_C 	C 	0.45243	0.86137	0.19577	-0.55
Mof_O 	O 	0.37813	0.82757	0.20047	-0.082
Mof_O 	O 	0.48943	0.86767	0.17577	-0.048
Mof_C 	C 	0.03473	0.14107	0.30617	-73.667
Mof_H 	H 	0.09013	0.15697	0.30187	22.783
Mof_N 	N 	0.02613	0.19277	0.32127	51.939
Mof_C 	C 	0.94353	0.17847	0.32747	-51.434
Mof_H 	H 	0.91663	0.17667	0.31167	16.302
Mof_H 	H 	0.95293	0.22977	0.33587	20.391
Mof_C 	C 	0.87993	0.10997	0.34197	163.612
Mof_H 	H 	0.83073	0.11607	0.34327	-11.538
Mof_H 	H 	0.90163	0.11087	0.35837	-89.344
Mof_H 	H 	0.86493	0.05717	0.33397	-8.319
Mof_C 	C 	0.09723	0.26007	0.33487	-9.539
Mof_H 	H 	0.08233	0.25747	0.35237	1.062
Mof_H 	H 	0.14583	0.25207	0.33367	-1.383
Mof_C 	C 	0.11933	0.34327	0.32477	-3.241
Mof_H 	H 	0.16613	0.38657	0.33397	5.394
Mof_H 	H 	0.07143	0.35157	0.32617	-0.733
Mof_H 	H 	0.13473	0.34607	0.30747	0.925
Mof_C 	C 	0.39852	0.87265	0.69708	1.106
Mof_C 	C 	0.3778	0.87718	0.6707	0.179
Mof_C 	C 	0.44406	0.88442	0.65569	0.618
Mof_C 	C 	0.42792	0.8547	0.63144	-0.22
Mof_C 	C 	0.34413	0.81315	0.62244	-0.105
Mof_C 	C 	0.27887	0.80591	0.63711	0.811
Mof_C 	C 	0.29645	0.8364	0.66193	0.518
Mof_C 	C 	0.3334	0.74275	0.60683	-0.083
Mof_C 	C 	0.41049	0.74287	0.60627	0.152
Mof_C 	C 	0.47494	0.8184	0.61912	-0.504
Mof_C 	C 	0.56874	0.86534	0.61416	0.277
Mof_O 	O 	0.6449	0.9956	0.63667	-1.862
Mof_C 	C 	0.6122	0.959	0.61821	1.307
Mof_O 	O 	0.6063	0.9944	0.59794	-0.68
Mof_C 	C 	0.6443	0.0855	0.59814	1.374
Mof_H 	H 	0.6164	0.1028	0.6103	-1.59
Mof_H 	H 	0.704	0.1122	0.6023	-0.601
Mof_C 	C 	0.6331	0.1087	0.57299	-1.485
Mof_H 	H 	0.6696	0.1001	0.5616	0.547
Mof_H 	H 	0.575	0.0715	0.5678	0.357
Mof_C 	C 	0.6528	0.1991	0.571	0.891
Mof_O 	O 	0.6796	0.2443	0.58911	-1.201
Mof_O 	O 	0.641	0.2209	0.55	-0.654
Mof_O 	O 	0.5646	0.7903	0.5769	-0.069
Mof_C 	C 	0.6033	0.8412	0.59229	1.084
Mof_O 	O 	0.6849	0.8779	0.5948	3.21
Mof_C 	C 	0.7371	0.8782	0.5743	0.249
Mof_H 	H 	0.7855	0.8757	0.5808	0.598
Mof_H 	H 	0.7047	0.8292	0.5638	2.109
Mof_C 	C 	0.7661	0.9553	0.5598	-0.324
Mof_H 	H 	0.7184	0.9534	0.5511	0.272
Mof_H 	H 	0.79	0.0039	0.5709	0.287
Mof_C 	C 	0.8344	0.9654	0.5403	0.589
Mof_O 	O 	0.8414	0.9038	0.5356	0.006
Mof_O 	O 	0.8757	0.0377	0.531	-0.53
Mof_O 	O 	0.5842	0.2373	0.6315	7.452
Mof_Zn	Zn	0.88806	0.97684	0.48951	1.126
Mof_C 	C 	0.5132	0.1917	0.6251	31.493
Mof_H 	H 	0.4938	0.2034	0.6104	-11.254
Mof_N 	N 	0.4616	0.125	0.6385	-4.069
Mof_C 	C 	0.4777	0.1353	0.6648	-49.834
Mof_H 	H 	0.422	0.1025	0.6723	12.724
Mof_H 	H 	0.4945	0.1941	0.6679	6.366
Mof_C 	C 	0.5318	0.1204	0.6809	84.978
Mof_H 	H 	0.526	0.1347	0.6978	5.129
Mof_H 	H 	0.5895	0.1547	0.6756	-50.178
Mof_H 	H 	0.5159	0.0616	0.6801	-57.671
Mof_C 	C 	0.4029	0.047	0.625	1.737
Mof_H 	H 	0.4065	0.0006	0.6327	-1.306
Mof_H 	H 	0.4235	0.0524	0.6081	-1.209
Mof_C 	C 	0.3151	0.0226	0.6238	-4.796
Mof_H 	H 	0.2849	0.9709	0.6145	3.065
Mof_H 	H 	0.3094	0.0664	0.6156	1.982
Mof_H 	H 	0.2923	0.0143	0.6404	2.207
Mof_O 	O 	0.564	0.813	0.5739	-0.107
Mof_O 	O 	0.685	0.883	0.594	2.417
Mof_C 	C 	0.735	0.874	0.5745	0.269
Mof_H 	H 	0.7914	0.8915	0.5806	1.257
Mof_H 	H 	0.7088	0.8144	0.5695	-1.288
Mof_C 	C 	0.739	0.925	0.5533	-0.359
Mof_H 	H 	0.6896	0.8925	0.5427	0.321
Mof_H 	H 	0.7369	0.9742	0.5593	0.353
Mof_C 	C 	0.8203	0.9543	0.5378	0.436
Mof_O 	O 	0.8848	0.9635	0.5474	-0.038
Mof_O 	O 	0.813	0.975	0.5164	-0.328
Mof_O 	O 	0.57	0.774	0.5827	-0.025
Mof_O 	O 	0.6793	0.8994	0.587	-4.8
Mof_C 	C 	0.7156	0.8756	0.5664	0.23
Mof_H 	H 	0.6709	0.8289	0.5572	-0.791
Mof_H 	H 	0.7537	0.8576	0.5729	-0.709
Mof_C 	C 	0.761	0.947	0.5501	-0.03
Mof_H 	H 	0.7225	0.9633	0.5428	-0.112
Mof_H 	H 	0.8035	0.9955	0.5596	0.344
Mof_C 	C 	0.8053	0.9244	0.5291	-0.555
Mof_O 	O 	0.8391	0.8839	0.5338	-0.16
Mof_O 	O 	0.799	0.9551	0.5091	0.091
Mof_C 	C 	0.5256	0.227	0.6395	-43.856
Mof_H 	H 	0.5097	0.2665	0.6352	13.623
Mof_N 	N 	0.4739	0.1667	0.6546	31.898
Mof_C 	C 	0.4882	0.0984	0.6608	-32.596
Mof_H 	H 	0.49	0.0733	0.645	10.299
Mof_H 	H 	0.4369	0.0565	0.6692	12.75
Mof_C 	C 	0.5567	0.1033	0.6753	102.388
Mof_H 	H 	0.5506	0.048	0.6766	-7.329
Mof_H 	H 	0.5558	0.1241	0.6917	-55.979
Mof_H 	H 	0.6095	0.1411	0.6673	-5.218
Mof_C 	C 	0.4066	0.1705	0.6682	-3.791
Mof_H 	H 	0.4092	0.1582	0.6857	0.081
Mof_H 	H 	0.4146	0.2271	0.667	-2.585
Mof_C 	C 	0.3234	0.1094	0.6581	-5.564
Mof_H 	H 	0.2801	0.1129	0.6673	5.476
Mof_H 	H 	0.3151	0.0532	0.6595	0.44
Mof_H 	H 	0.3206	0.122	0.6408	1.87
Mof_C 	C 	0.06519	0.20598	0.03041	0.891
Mof_C 	C 	0.04447	0.21051	0.00403	0.19
Mof_C 	C 	0.11073	0.21775	0.98902	0.503
Mof_C 	C 	0.09459	0.18803	0.96477	-0.296
Mof_C 	C 	0.0108	0.14648	0.95577	-0.115
Mof_C 	C 	0.94554	0.13924	0.97044	0.472
Mof_C 	C 	0.96312	0.16973	0.99526	0.239
Mof_C 	C 	7e-05	0.07608	0.94016	0.265
Mof_C 	C 	0.07716	0.0762	0.9396	-0.249
Mof_C 	C 	0.14161	0.15173	0.95245	-0.169
Mof_C 	C 	0.23541	0.19867	0.94749	-0.012
Mof_O 	O 	0.31157	0.32893	0.97	-1.497
Mof_C 	C 	0.27887	0.29233	0.95154	1.027
Mof_O 	O 	0.27297	0.32773	0.93127	-0.819
Mof_C 	C 	0.31097	0.41883	0.93147	1.589
Mof_H 	H 	0.28307	0.43613	0.94363	-1.525
Mof_H 	H 	0.37067	0.44553	0.93563	-0.59
Mof_C 	C 	0.29977	0.44203	0.90632	-1.59
Mof_H 	H 	0.33627	0.43343	0.89493	0.585
Mof_H 	H 	0.24167	0.40483	0.90113	0.431
Mof_C 	C 	0.31947	0.53243	0.90433	0.922
Mof_O 	O 	0.34627	0.57763	0.92244	-1.17
Mof_O 	O 	0.30767	0.55423	0.88333	-0.652
Mof_O 	O 	0.23127	0.12363	0.91023	-0.166
Mof_C 	C 	0.26997	0.17453	0.92562	0.823
Mof_O 	O 	0.35157	0.21123	0.92813	1.879
Mof_C 	C 	0.40377	0.21153	0.90763	0.206
Mof_H 	H 	0.45217	0.20903	0.91413	0.344
Mof_H 	H 	0.37137	0.16253	0.89713	1.201
Mof_C 	C 	0.43277	0.28863	0.89313	-0.131
Mof_H 	H 	0.38507	0.28673	0.88443	-0.041
Mof_H 	H 	0.45667	0.33723	0.90423	0.383
Mof_C 	C 	0.50107	0.29873	0.87363	0.564
Mof_O 	O 	0.50807	0.23713	0.86893	-0.141
Mof_O 	O 	0.54237	0.37103	0.86433	-0.482
Mof_O 	O 	0.25087	0.57063	0.96483	6.943
Mof_Zn	Zn	0.55473	0.31017	0.82284	1.113
Mof_C 	C 	0.17987	0.52503	0.95843	29.583
Mof_H 	H 	0.16047	0.53673	0.94373	-10.547
Mof_N 	N 	0.12827	0.45833	0.97183	-3.725
Mof_C 	C 	0.14437	0.46863	0.99813	-46.237
Mof_H 	H 	0.08867	0.43583	0.00563	11.894
Mof_H 	H 	0.16117	0.52743	0.00123	5.943
Mof_C 	C 	0.19847	0.45373	0.01423	78.753
Mof_H 	H 	0.19267	0.46803	0.03113	4.762
Mof_H 	H 	0.25617	0.48803	0.00893	-46.542
Mof_H 	H 	0.18257	0.39493	0.01343	-53.453
Mof_C 	C 	0.06957	0.38033	0.95833	0.658
Mof_H 	H 	0.07317	0.33393	0.96603	-0.852
Mof_H 	H 	0.09017	0.38573	0.94143	-0.785
Mof_C 	C 	0.98177	0.35593	0.95713	-2.531
Mof_H 	H 	0.95157	0.30423	0.94783	1.652
Mof_H 	H 	0.97607	0.39973	0.94893	1.116
Mof_H 	H 	0.95897	0.34763	0.97373	1.311
Mof_O 	O 	0.23067	0.14633	0.90723	-0.046
Mof_O 	O 	0.35167	0.21633	0.92733	1.379
Mof_C 	C 	0.40167	0.20733	0.90783	0.216
Mof_H 	H 	0.45807	0.22483	0.91393	0.757
Mof_H 	H 	0.37547	0.14773	0.90283	-0.733
Mof_C 	C 	0.40567	0.25833	0.88663	-0.324
Mof_H 	H 	0.35627	0.22583	0.87603	0.239
Mof_H 	H 	0.40357	0.30753	0.89263	0.287
Mof_C 	C 	0.48697	0.28763	0.87113	0.47
Mof_O 	O 	0.55147	0.29683	0.88073	-0.288
Mof_O 	O 	0.47967	0.30833	0.84973	-0.216
Mof_O 	O 	0.23667	0.10733	0.91603	-0.077
Mof_O 	O 	0.34597	0.23273	0.92033	-2.931
Mof_C 	C 	0.38227	0.20893	0.89973	0.108
Mof_H 	H 	0.33757	0.16223	0.89053	-0.443
Mof_H 	H 	0.42037	0.19093	0.90623	-0.476
Mof_C 	C 	0.42767	0.28033	0.88343	-0.012
Mof_H 	H 	0.38917	0.29663	0.87613	0.093
Mof_H 	H 	0.47017	0.32883	0.89293	-0.003
Mof_C 	C 	0.47197	0.25773	0.86243	-0.564
Mof_O 	O 	0.50577	0.21723	0.86713	-0.068
Mof_O 	O 	0.46567	0.28843	0.84243	-0.079
Mof_C 	C 	0.19227	0.56033	0.97283	-41.148
Mof_H 	H 	0.17637	0.59983	0.96853	12.778
Mof_N 	N 	0.14057	0.50003	0.98793	29.75
Mof_C 	C 	0.15487	0.43173	0.99413	-30.321
Mof_H 	H 	0.15667	0.40663	0.97833	9.627
Mof_H 	H 	0.10357	0.38983	0.00253	11.892
Mof_C 	C 	0.22337	0.43663	0.00863	94.995
Mof_H 	H 	0.21727	0.38133	0.00993	-6.719
Mof_H 	H 	0.22247	0.45743	0.02503	-51.892
Mof_H 	H 	0.27617	0.47443	0.00063	-4.847
Mof_C 	C 	0.07327	0.50383	0.00153	-4.642
Mof_H 	H 	0.07587	0.49153	0.01903	0.395
Mof_H 	H 	0.08127	0.56043	0.00033	-1.638
Mof_C 	C 	0.99007	0.44273	0.99143	-3.282
Mof_H 	H 	0.94677	0.44623	0.00063	3.853
Mof_H 	H 	0.98177	0.38653	0.99283	0.048
Mof_H 	H 	0.98727	0.45533	0.97413	1.073
Mof_C 	C 	0.73185	0.53932	0.36375	1.385
Mof_C 	C 	0.71113	0.54385	0.33737	0.407
Mof_C 	C 	0.77739	0.55109	0.32236	0.688
Mof_C 	C 	0.76125	0.52137	0.29811	-0.443
Mof_C 	C 	0.67746	0.47982	0.28911	-0.041
Mof_C 	C 	0.6122	0.47258	0.30378	0.526
Mof_C 	C 	0.62978	0.50307	0.3286	0.157
Mof_C 	C 	0.66673	0.40942	0.2735	-0.06
Mof_C 	C 	0.74382	0.40954	0.27294	0.08
Mof_C 	C 	0.80827	0.48507	0.28579	-0.257
Mof_C 	C 	0.90207	0.53201	0.28083	-0.053
Mof_O 	O 	0.97823	0.66227	0.30334	-1.642
Mof_C 	C 	0.94553	0.62567	0.28488	1.228
Mof_O 	O 	0.93963	0.66107	0.26461	-1.053
Mof_C 	C 	0.97763	0.75217	0.26481	2.766
Mof_H 	H 	0.94973	0.76947	0.27697	-2.355
Mof_H 	H 	0.03733	0.77887	0.26897	-1.261
Mof_C 	C 	0.96643	0.77537	0.23966	-1.821
Mof_H 	H 	0.00293	0.76677	0.22827	0.409
Mof_H 	H 	0.90833	0.73817	0.23447	0.465
Mof_C 	C 	0.98613	0.86577	0.23767	1.535
Mof_O 	O 	0.01293	0.91097	0.25578	-1.986
Mof_O 	O 	0.97433	0.88757	0.21667	-0.766
Mof_O 	O 	0.89793	0.45697	0.24357	-0.131
Mof_C 	C 	0.93663	0.50787	0.25896	1.282
Mof_O 	O 	0.01823	0.54457	0.26147	2.066
Mof_C 	C 	0.07043	0.54487	0.24097	0.298
Mof_H 	H 	0.11883	0.54237	0.24747	0.34
Mof_H 	H 	0.03803	0.49587	0.23047	1.144
Mof_C 	C 	0.09943	0.62197	0.22647	-0.083
Mof_H 	H 	0.05173	0.62007	0.21777	-0.167
Mof_H 	H 	0.12333	0.67057	0.23757	0.379
Mof_C 	C 	0.16773	0.63207	0.20697	0.582
Mof_O 	O 	0.17473	0.57047	0.20227	-0.127
Mof_O 	O 	0.20903	0.70437	0.19767	-0.488
Mof_O 	O 	0.91753	0.90397	0.29817	10.376
Mof_Zn	Zn	0.22139	0.64351	0.15618	1.107
Mof_C 	C 	0.84653	0.85837	0.29177	42.154
Mof_H 	H 	0.82713	0.87007	0.27707	-15.081
Mof_N 	N 	0.79493	0.79167	0.30517	-5.168
Mof_C 	C 	0.81103	0.80197	0.33147	-67.956
Mof_H 	H 	0.75533	0.76917	0.33897	17.54
Mof_H 	H 	0.82783	0.86077	0.33457	8.92
Mof_C 	C 	0.86513	0.78707	0.34757	115.697
Mof_H 	H 	0.85933	0.80137	0.36447	7.085
Mof_H 	H 	0.92283	0.82137	0.34227	-68.3
Mof_H 	H 	0.84923	0.72827	0.34677	-78.562
Mof_C 	C 	0.73623	0.71367	0.29167	0.6
Mof_H 	H 	0.73983	0.66727	0.29937	-1.179
Mof_H 	H 	0.75683	0.71907	0.27477	-1.078
Mof_C 	C 	0.64843	0.68927	0.29047	-2.993
Mof_H 	H 	0.61823	0.63757	0.28117	1.917
Mof_H 	H 	0.64273	0.73307	0.28227	1.321
Mof_H 	H 	0.62563	0.68097	0.30707	1.557
Mof_O 	O 	0.89733	0.47967	0.24057	-0.054
Mof_O 	O 	0.01833	0.54967	0.26067	1.433
Mof_C 	C 	0.06833	0.54067	0.24117	0.3
Mof_H 	H 	0.12473	0.55817	0.24727	0.853
Mof_H 	H 	0.04213	0.48107	0.23617	-0.698
Mof_C 	C 	0.07233	0.59167	0.21997	-0.355
Mof_H 	H 	0.02293	0.55917	0.20937	0.208
Mof_H 	H 	0.07023	0.64087	0.22597	0.332
Mof_C 	C 	0.15363	0.62097	0.20447	0.473
Mof_O 	O 	0.21813	0.63017	0.21407	-0.265
Mof_O 	O 	0.14633	0.64167	0.18307	-0.308
Mof_O 	O 	0.90333	0.44067	0.24937	-0.06
Mof_O 	O 	0.01263	0.56607	0.25367	-3.487
Mof_C 	C 	0.04893	0.54227	0.23307	0.155
Mof_H 	H 	0.00423	0.49557	0.22387	-0.519
Mof_H 	H 	0.08703	0.52427	0.23957	-0.633
Mof_C 	C 	0.09433	0.61367	0.21677	-0.018
Mof_H 	H 	0.05583	0.62997	0.20947	0.146
Mof_H 	H 	0.13683	0.66217	0.22627	-0.027
Mof_C 	C 	0.13863	0.59107	0.19577	-0.577
Mof_O 	O 	0.17243	0.55057	0.20047	-0.076
Mof_O 	O 	0.13233	0.62177	0.17577	-0.027
Mof_C 	C 	0.85893	0.89367	0.30617	-59.136
Mof_H 	H 	0.84303	0.93317	0.30187	18.354
Mof_N 	N 	0.80723	0.83337	0.32127	43.543
Mof_C 	C 	0.82153	0.76507	0.32747	-44.477
Mof_H 	H 	0.82333	0.73997	0.31167	14.103
Mof_H 	H 	0.77023	0.72317	0.33587	17.433
Mof_C 	C 	0.89003	0.76997	0.34197	139.597
Mof_H 	H 	0.88393	0.71467	0.34327	-9.849
Mof_H 	H 	0.88913	0.79077	0.35837	-76.241
Mof_H 	H 	0.94283	0.80777	0.33397	-7.091
Mof_C 	C 	0.73993	0.83717	0.33487	-7.577
Mof_H 	H 	0.74253	0.82487	0.35237	0.88
Mof_H 	H 	0.74793	0.89377	0.33367	-2.01
Mof_C 	C 	0.65673	0.77607	0.32477	-3.133
Mof_H 	H 	0.61343	0.77957	0.33397	4.497
Mof_H 	H 	0.64843	0.71987	0.32617	-0.407
Mof_H 	H 	0.65393	0.78867	0.30747	0.963
Mof_C 	C 	0.12735	0.52587	0.69708	1.101
Mof_C 	C 	0.12282	0.50062	0.6707	0.203
Mof_C 	C 	0.11558	0.55964	0.65569	0.594
Mof_C 	C 	0.1453	0.57322	0.63144	-0.248
Mof_C 	C 	0.18685	0.53098	0.62244	-0.091
Mof_C 	C 	0.19409	0.47296	0.63711	0.707
Mof_C 	C 	0.1636	0.46005	0.66193	0.418
Mof_C 	C 	0.25725	0.59065	0.60683	-0.082
Mof_C 	C 	0.25713	0.66762	0.60627	0.147
Mof_C 	C 	0.1816	0.65654	0.61912	-0.485
Mof_C 	C 	0.13466	0.7034	0.61416	0.251
Mof_O 	O 	0.0044	0.6493	0.63667	-1.889
Mof_C 	C 	0.041	0.6532	0.61821	1.313
Mof_O 	O 	0.0056	0.6119	0.59794	-0.776
Mof_C 	C 	0.9145	0.5588	0.59814	1.542
Mof_H 	H 	0.8972	0.5136	0.6103	-1.638
Mof_H 	H 	0.8878	0.5918	0.6023	-0.619
Mof_C 	C 	0.8913	0.5244	0.57299	-1.592
Mof_H 	H 	0.8999	0.5695	0.5616	0.605
Mof_H 	H 	0.9285	0.5035	0.5678	0.408
Mof_C 	C 	0.8009	0.4537	0.571	0.931
Mof_O 	O 	0.7557	0.4353	0.58911	-1.215
Mof_O 	O 	0.7791	0.4201	0.55	-0.657
Mof_O 	O 	0.2097	0.7743	0.5769	-0.07
Mof_C 	C 	0.1588	0.7621	0.59229	1.057
Mof_O 	O 	0.1221	0.807	0.5948	3.134
Mof_C 	C 	0.1218	0.8589	0.5743	0.188
Mof_H 	H 	0.1243	0.9098	0.5808	0.622
Mof_H 	H 	0.1708	0.8755	0.5638	2.025
Mof_C 	C 	0.0447	0.8108	0.5598	-0.248
Mof_H 	H 	0.0466	0.765	0.5511	0.171
Mof_H 	H 	0.9961	0.7861	0.5709	0.459
Mof_C 	C 	0.0346	0.869	0.5403	0.244
Mof_O 	O 	0.0962	0.9376	0.5356	0.033
Mof_O 	O 	0.9623	0.838	0.531	-0.31
Mof_O 	O 	0.7627	0.3469	0.6315	7.536
Mof_Zn	Zn	0.02316	0.91122	0.48951	1.099
Mof_C 	C 	0.8083	0.3215	0.6251	31.815
Mof_H 	H 	0.7966	0.2904	0.6104	-11.372
Mof_N 	N 	0.875	0.3366	0.6385	-4.029
Mof_C 	C 	0.8647	0.3424	0.6648	-50.442
Mof_H 	H 	0.8975	0.3195	0.6723	12.849
Mof_H 	H 	0.8059	0.3004	0.6679	6.437
Mof_C 	C 	0.8796	0.4114	0.6809	85.955
Mof_H 	H 	0.8653	0.3913	0.6978	5.191
Mof_H 	H 	0.8453	0.4348	0.6756	-50.778
Mof_H 	H 	0.9384	0.4543	0.6801	-58.345
Mof_C 	C 	0.953	0.3559	0.625	1.181
Mof_H 	H 	0.9994	0.4059	0.6327	-1.127
Mof_H 	H 	0.9476	0.3711	0.6081	-1.034
Mof_C 	C 	0.9774	0.2925	0.6238	-3.779
Mof_H 	H 	0.0291	0.314	0.6145	2.54
Mof_H 	H 	0.9336	0.243	0.6156	1.616
Mof_H 	H 	0.9857	0.278	0.6404	1.808
Mof_O 	O 	0.187	0.751	0.5739	-0.11
Mof_O 	O 	0.117	0.802	0.594	2.36
Mof_C 	C 	0.126	0.861	0.5745	0.209
Mof_H 	H 	0.1085	0.8999	0.5806	1.219
Mof_H 	H 	0.1856	0.8944	0.5695	-1.213
Mof_C 	C 	0.075	0.814	0.5533	-0.216
Mof_H 	H 	0.1075	0.7971	0.5427	0.26
Mof_H 	H 	0.0258	0.7627	0.5593	0.285
Mof_C 	C 	0.0457	0.866	0.5378	0.233
Mof_O 	O 	0.0365	0.9213	0.5474	0.136
Mof_O 	O 	0.025	0.838	0.5164	-0.37
Mof_O 	O 	0.226	0.796	0.5827	-0.015
Mof_O 	O 	0.1006	0.7799	0.587	-4.679
Mof_C 	C 	0.1244	0.84	0.5664	0.193
Mof_H 	H 	0.1711	0.842	0.5572	-0.745
Mof_H 	H 	0.1424	0.8961	0.5729	-0.633
Mof_C 	C 	0.053	0.814	0.5501	-0.002
Mof_H 	H 	0.0367	0.7592	0.5428	-0.06
Mof_H 	H 	0.0045	0.808	0.5596	0.217
Mof_C 	C 	0.0756	0.8809	0.5291	-0.075
Mof_O 	O 	0.1161	0.9552	0.5338	-0.28
Mof_O 	O 	0.0449	0.8439	0.5091	-0.024
Mof_C 	C 	0.773	0.2986	0.6395	-44.331
Mof_H 	H 	0.7335	0.2432	0.6352	13.764
Mof_N 	N 	0.8333	0.3072	0.6546	32.22
Mof_C 	C 	0.9016	0.3898	0.6608	-32.955
Mof_H 	H 	0.9267	0.4167	0.645	10.427
Mof_H 	H 	0.9435	0.3804	0.6692	12.92
Mof_C 	C 	0.8967	0.4534	0.6753	103.61
Mof_H 	H 	0.952	0.5026	0.6766	-7.391
Mof_H 	H 	0.8759	0.4317	0.6917	-56.63
Mof_H 	H 	0.8589	0.4684	0.6673	-5.28
Mof_C 	C 	0.8295	0.2361	0.6682	-3.423
Mof_H 	H 	0.8418	0.251	0.6857	-0.031
Mof_H 	H 	0.7729	0.1875	0.667	-3.58
Mof_C 	C 	0.8906	0.214	0.6581	-5.693
Mof_H 	H 	0.8871	0.1672	0.6673	5.153
Mof_H 	H 	0.9468	0.2619	0.6595	0.534
Mof_H 	H 	0.878	0.1986	0.6408	1.87
Mof_C 	C 	0.79402	0.8592	0.03041	0.955
Mof_C 	C 	0.78949	0.83395	0.00403	0.226
Mof_C 	C 	0.78225	0.89297	0.98902	0.504
Mof_C 	C 	0.81197	0.90655	0.96477	-0.35
Mof_C 	C 	0.85352	0.86431	0.95577	-0.133
Mof_C 	C 	0.86076	0.80629	0.97044	0.517
Mof_C 	C 	0.83027	0.79338	0.99526	0.209
Mof_C 	C 	0.92392	0.92398	0.94016	0.32
Mof_C 	C 	0.9238	0.00095	0.9396	-0.478
Mof_C 	C 	0.84827	0.98987	0.95245	0.16
Mof_C 	C 	0.80133	0.03673	0.94749	-0.272
Mof_O 	O 	0.67107	0.98263	0.97	-1.518
Mof_C 	C 	0.70767	0.98653	0.95154	1.214
Mof_O 	O 	0.67227	0.94523	0.93127	-0.809
Mof_C 	C 	0.58117	0.89213	0.93147	1.615
Mof_H 	H 	0.56387	0.84693	0.94363	-1.531
Mof_H 	H 	0.55447	0.92513	0.93563	-0.567
Mof_C 	C 	0.55797	0.85773	0.90632	-1.623
Mof_H 	H 	0.56657	0.90283	0.89493	0.649
Mof_H 	H 	0.59517	0.83683	0.90113	0.452
Mof_C 	C 	0.46757	0.78703	0.90433	0.942
Mof_O 	O 	0.42237	0.76863	0.92244	-1.166
Mof_O 	O 	0.44577	0.75343	0.88333	-0.644
Mof_O 	O 	0.87637	0.10763	0.91023	-0.209
Mof_C 	C 	0.82547	0.09543	0.92562	0.895
Mof_O 	O 	0.78877	0.14033	0.92813	1.926
Mof_C 	C 	0.78847	0.19223	0.90763	0.219
Mof_H 	H 	0.79097	0.24313	0.91413	0.336
Mof_H 	H 	0.83747	0.20883	0.89713	1.202
Mof_C 	C 	0.71137	0.14413	0.89313	-0.097
Mof_H 	H 	0.71327	0.09833	0.88443	-0.185
Mof_H 	H 	0.66277	0.11943	0.90423	0.351
Mof_C 	C 	0.70127	0.20233	0.87363	0.55
Mof_O 	O 	0.76287	0.27093	0.86893	-0.141
Mof_O 	O 	0.62897	0.17133	0.86433	-0.495
Mof_O 	O 	0.42937	0.68023	0.96483	6.919
Mof_Zn	Zn	0.68983	0.24455	0.82284	1.108
Mof_C 	C 	0.47497	0.65483	0.95843	29.447
Mof_H 	H 	0.46327	0.62373	0.94373	-10.507
Mof_N 	N 	0.54167	0.66993	0.97183	-3.693
Mof_C 	C 	0.53137	0.67573	0.99813	-46.136
Mof_H 	H 	0.56417	0.65283	0.00563	11.875
Mof_H 	H 	0.47257	0.63373	0.00123	5.936
Mof_C 	C 	0.54627	0.74473	0.01423	78.56
Mof_H 	H 	0.53197	0.72463	0.03113	4.762
Mof_H 	H 	0.51197	0.76813	0.00893	-46.427
Mof_H 	H 	0.60507	0.78763	0.01343	-53.322
Mof_C 	C 	0.61967	0.68923	0.95833	0.555
Mof_H 	H 	0.66607	0.73923	0.96603	-0.824
Mof_H 	H 	0.61427	0.70443	0.94143	-0.767
Mof_C 	C 	0.64407	0.62583	0.95713	-2.39
Mof_H 	H 	0.69577	0.64733	0.94783	1.627
Mof_H 	H 	0.60027	0.57633	0.94893	1.093
Mof_H 	H 	0.65237	0.61133	0.97373	1.265
Mof_O 	O 	0.85367	0.08433	0.90723	-0.105
Mof_O 	O 	0.78367	0.13533	0.92733	1.4
Mof_C 	C 	0.79267	0.19433	0.90783	0.226
Mof_H 	H 	0.77517	0.23323	0.91393	0.766
Mof_H 	H 	0.85227	0.22773	0.90283	-0.728
Mof_C 	C 	0.74167	0.14733	0.88663	-0.34
Mof_H 	H 	0.77417	0.13043	0.87603	0.224
Mof_H 	H 	0.69247	0.09603	0.89263	0.331
Mof_C 	C 	0.71237	0.19933	0.87113	0.467
Mof_O 	O 	0.70317	0.25463	0.88073	-0.283
Mof_O 	O 	0.69167	0.17133	0.84973	-0.301
Mof_O 	O 	0.89267	0.12933	0.91603	-0.028
Mof_O 	O 	0.76727	0.11323	0.92033	-3.049
Mof_C 	C 	0.79107	0.17333	0.89973	0.092
Mof_H 	H 	0.83777	0.17533	0.89053	-0.447
Mof_H 	H 	0.80907	0.22943	0.90623	-0.486
Mof_C 	C 	0.71967	0.14733	0.88343	0.04
Mof_H 	H 	0.70337	0.09253	0.87613	0.143
Mof_H 	H 	0.67117	0.14133	0.89293	-0.04
Mof_C 	C 	0.74227	0.21423	0.86243	-0.552
Mof_O 	O 	0.78277	0.28853	0.86713	-0.071
Mof_O 	O 	0.71157	0.17723	0.84243	-0.037
Mof_C 	C 	0.43967	0.63193	0.97283	-40.976
Mof_H 	H 	0.40017	0.57653	0.96853	12.724
Mof_N 	N 	0.49997	0.64053	0.98793	29.657
Mof_C 	C 	0.56827	0.72313	0.99413	-30.241
Mof_H 	H 	0.59337	0.75003	0.97833	9.603
Mof_H 	H 	0.61017	0.71373	0.00253	11.869
Mof_C 	C 	0.56337	0.78673	0.00863	94.769
Mof_H 	H 	0.61867	0.83593	0.00993	-6.705
Mof_H 	H 	0.54257	0.76503	0.02503	-51.77
Mof_H 	H 	0.52557	0.80173	0.00063	-4.835
Mof_C 	C 	0.49617	0.56943	0.00153	-4.578
Mof_H 	H 	0.50847	0.58433	0.01903	0.399
Mof_H 	H 	0.43957	0.52083	0.00033	-1.686
Mof_C 	C 	0.55727	0.54733	0.99143	-3.322
Mof_H 	H 	0.55377	0.50053	0.00063	3.8
Mof_H 	H 	0.61347	0.59523	0.99283	0.058
Mof_H 	H 	0.54467	0.53193	0.97413	1.089
Mof_C 	C 	0.46068	0.19254	0.36375	1.519
Mof_C 	C 	0.45615	0.16729	0.33737	0.488
Mof_C 	C 	0.44891	0.22631	0.32236	0.764
Mof_C 	C 	0.47863	0.23989	0.29811	-0.482
Mof_C 	C 	0.52018	0.19765	0.28911	-0.019
Mof_C 	C 	0.52742	0.13963	0.30378	0.54
Mof_C 	C 	0.49693	0.12672	0.3286	0.139
Mof_C 	C 	0.59058	0.25732	0.2735	-0.062
Mof_C 	C 	0.59046	0.33429	0.27294	0.083
Mof_C 	C 	0.51493	0.32321	0.28579	-0.261
Mof_C 	C 	0.46799	0.37007	0.28083	0.002
Mof_O 	O 	0.33773	0.31597	0.30334	-1.879
Mof_C 	C 	0.37433	0.31987	0.28488	1.157
Mof_O 	O 	0.33893	0.27857	0.26461	-1.095
Mof_C 	C 	0.24783	0.22547	0.26481	2.388
Mof_H 	H 	0.23053	0.18027	0.27697	-2.502
Mof_H 	H 	0.22113	0.25847	0.26897	-0.965
Mof_C 	C 	0.22463	0.19107	0.23966	-2.253
Mof_H 	H 	0.23323	0.23617	0.22827	0.791
Mof_H 	H 	0.26183	0.17017	0.23447	0.559
Mof_C 	C 	0.13423	0.12037	0.23767	1.178
Mof_O 	O 	0.08903	0.10197	0.25578	-1.661
Mof_O 	O 	0.11243	0.08677	0.21667	-0.777
Mof_O 	O 	0.54303	0.44097	0.24357	-0.131
Mof_C 	C 	0.49213	0.42877	0.25896	0.871
Mof_O 	O 	0.45543	0.47367	0.26147	2.089
Mof_C 	C 	0.45513	0.52557	0.24097	0.184
Mof_H 	H 	0.45763	0.57647	0.24747	0.393
Mof_H 	H 	0.50413	0.54217	0.23047	1.361
Mof_C 	C 	0.37803	0.47747	0.22647	-0.153
Mof_H 	H 	0.37993	0.43167	0.21777	-0.023
Mof_H 	H 	0.32943	0.45277	0.23757	0.416
Mof_C 	C 	0.36793	0.53567	0.20697	0.506
Mof_O 	O 	0.42953	0.60427	0.20227	-0.105
Mof_O 	O 	0.29563	0.50467	0.19767	-0.469
Mof_O 	O 	0.09603	0.01357	0.29817	12.033
Mof_Zn	Zn	0.35649	0.57789	0.15618	1.112
Mof_C 	C 	0.14163	0.98817	0.29177	48.913
Mof_H 	H 	0.12993	0.95707	0.27707	-17.562
Mof_N 	N 	0.20833	0.00327	0.30517	-6.061
Mof_C 	C 	0.19803	0.00907	0.33147	-75.403
Mof_H 	H 	0.23083	0.98617	0.33897	19.311
Mof_H 	H 	0.13923	0.96707	0.33457	9.507
Mof_C 	C 	0.21293	0.07807	0.34757	127.849
Mof_H 	H 	0.19863	0.05797	0.36447	7.734
Mof_H 	H 	0.17863	0.10147	0.34227	-75.552
Mof_H 	H 	0.27173	0.12097	0.34677	-86.834
Mof_C 	C 	0.28633	0.02257	0.29167	1.591
Mof_H 	H 	0.33273	0.07257	0.29937	-1.543
Mof_H 	H 	0.28093	0.03777	0.27477	-1.433
Mof_C 	C 	0.31073	0.95917	0.29047	-4.43
Mof_H 	H 	0.36243	0.98067	0.28117	2.245
Mof_H 	H 	0.26693	0.90967	0.28227	1.696
Mof_H 	H 	0.31903	0.94467	0.30707	1.958
Mof_O 	O 	0.52033	0.41767	0.24057	-0.068
Mof_O 	O 	0.45033	0.46867	0.26067	1.545
Mof_C 	C 	0.45933	0.52767	0.24117	0.197
Mof_H 	H 	0.44183	0.56657	0.24727	0.826
Mof_H 	H 	0.51893	0.56107	0.23617	-0.823
Mof_C 	C 	0.40833	0.48067	0.21997	-0.291
Mof_H 	H 	0.44083	0.46377	0.20937	0.246
Mof_H 	H 	0.35913	0.42937	0.22597	0.283
Mof_C 	C 	0.37903	0.53267	0.20447	0.436
Mof_O 	O 	0.36983	0.58797	0.21407	-0.229
Mof_O 	O 	0.35833	0.50467	0.18307	-0.218
Mof_O 	O 	0.55933	0.46267	0.24937	-0.043
Mof_O 	O 	0.43393	0.44657	0.25367	-3.218
Mof_C 	C 	0.45773	0.50667	0.23307	0.114
Mof_H 	H 	0.50443	0.50867	0.22387	-0.485
Mof_H 	H 	0.47573	0.56277	0.23957	-0.473
Mof_C 	C 	0.38633	0.48067	0.21677	0.007
Mof_H 	H 	0.37003	0.42587	0.20947	0.071
Mof_H 	H 	0.33783	0.47467	0.22627	0.004
Mof_C 	C 	0.40893	0.54757	0.19577	-0.491
Mof_O 	O 	0.44943	0.62187	0.20047	-0.1
Mof_O 	O 	0.37823	0.51057	0.17577	-0.087
Mof_C 	C 	0.10633	0.96527	0.30617	-68.823
Mof_H 	H 	0.06683	0.90987	0.30187	21.23
Mof_N 	N 	0.16663	0.97387	0.32127	48.85
Mof_C 	C 	0.23493	0.05647	0.32747	-48.691
Mof_H 	H 	0.26003	0.08337	0.31167	15.421
Mof_H 	H 	0.27683	0.04707	0.33587	19.244
Mof_C 	C 	0.23003	0.12007	0.34197	154.228
Mof_H 	H 	0.28533	0.16927	0.34327	-10.9
Mof_H 	H 	0.20923	0.09837	0.35837	-84.252
Mof_H 	H 	0.19223	0.13507	0.33397	-7.933
Mof_C 	C 	0.16283	0.90277	0.33487	-8.784
Mof_H 	H 	0.17513	0.91767	0.35237	0.927
Mof_H 	H 	0.10623	0.85417	0.33367	-1.529
Mof_C 	C 	0.22393	0.88067	0.32477	-3.318
Mof_H 	H 	0.22043	0.83387	0.33397	5.174
Mof_H 	H 	0.28013	0.92857	0.32617	-0.583
Mof_H 	H 	0.21133	0.86527	0.30747	0.967
Mof_Zn	Zn	0.33333	0.66667	0.45621	1.226
Mof_Zn	Zn	0.33333	0.66667	0.39076	0.523
Mof_Zn	Zn	-5.08646e-32	-5.08646e-32	0.78954	1.172
Mof_Zn	Zn	-0	-5.08646e-32	0.72409	0.117
Mof_Zn	Zn	0.66667	0.33333	0.12288	1.232
Mof_Zn	Zn	0.66667	0.33333	0.05743	0.579
Mof_Zn	Zn	0.66667	0.33333	0.54379	1.226
Mof_Zn	Zn	0.66667	0.33333	0.60924	0.523
Mof_Zn	Zn	0.33333	0.66667	0.87712	1.232
Mof_Zn	Zn	0.33333	0.66667	0.94257	0.579
Mof_Zn	Zn	-6.35807e-33	-1.27161e-32	0.21046	1.172
Mof_Zn	Zn	6.35807e-33	1.27161e-32	0.27591	0.117
Mof_O 	O 	-2.54323e-32	0	0.5	-1.586
Mof_O 	O 	0.66667	0.33333	0.83333	-1.518
Mof_O 	O 	0.33333	0.66667	0.16667	-1.518
Mof_Zn	Zn	-0	0	0.46201	1.259
Mof_Zn	Zn	0.66667	0.33333	0.79534	1.252
Mof_Zn	Zn	0.33333	0.66667	0.12868	1.243
Mof_Zn	Zn	-2.54323e-32	0	0.53799	1.259
Mof_Zn	Zn	0.66667	0.33333	0.87132	1.243
Mof_Zn	Zn	0.33333	0.66667	0.20466	1.252
_end
