data_functionalizedCrystal
_audit_creation_method	'EQeq! by Chris Wilmer'
_symmetry_space_group_name_H-M	'P1'
_symmetry_Int_Tables_number	1
_symmetry_cell_setting	triclinic
loop_
_symmetry_equiv_pos_as_xyz
  x,y,z
_cell_length_a	43.611
_cell_length_b	8.549
_cell_length_c	34.589
_cell_angle_alpha	90
_cell_angle_beta	103.59
_cell_angle_gamma	90
loop_
_atom_site_label
_atom_site_type_symbol
_atom_site_fract_x
_atom_site_fract_y
_atom_site_fract_z
_atom_site_charge
Mof_Ba	Ba	0.71164	0.90442	0.6954	1.814
Mof_C 	C 	0.4277	0.457	0.6128	0.081
Mof_C 	C 	0.41532	0.4207	0.5736	-0.136
Mof_H 	H 	0.4288	0.3901	0.5571	0.07
Mof_C 	C 	0.38326	0.4286	0.5583	0.071
Mof_C 	C 	0.3636	0.4725	0.5818	-0.121
Mof_H 	H 	0.3415	0.4777	0.5711	0.069
Mof_C 	C 	0.3758	0.5091	0.6212	0.057
Mof_N 	N 	0.4081	0.5047	0.6369	-0.132
Mof_C 	C 	0.3154	0.6077	0.6986	-0.158
Mof_C 	C 	0.35487	0.5419	0.6481	0.078
Mof_C 	C 	0.3069	0.4912	0.6689	0.029
Mof_H 	H 	0.2879	0.4341	0.6662	0.016
Mof_C 	C 	0.3429	0.687	0.7022	-0.009
Mof_H 	H 	0.3486	0.7653	0.7221	-0.044
Mof_C 	C 	0.363	0.6558	0.6772	-0.047
Mof_H 	H 	0.3822	0.7122	0.6801	0.036
Mof_C 	C 	0.3264	0.462	0.6441	-0.073
Mof_H 	H 	0.3204	0.3858	0.6237	0.059
Mof_C 	C 	0.6868	0.1015	0.5641	-0.11
Mof_C 	C 	0.6938	0.9843	0.5394	0.017
Mof_H 	H 	0.7118	0.9193	0.5484	0.034
Mof_C 	C 	0.6745	0.9629	0.5014	-0.089
Mof_H 	H 	0.6792	0.8833	0.4845	0.068
Mof_C 	C 	0.6483	0.0577	0.4882	0.034
Mof_C 	C 	0.6408	0.1736	0.5118	-0.106
Mof_H 	H 	0.6228	0.238	0.5026	0.052
Mof_C 	C 	0.6609	0.1958	0.5512	0.014
Mof_H 	H 	0.6561	0.2754	0.568	-0.047
Mof_C 	C 	0.6262	0.0289	0.448	0.068
Mof_N 	N 	0.6384	0.9822	0.4167	-0.124
Mof_C 	C 	0.6181	0.9591	0.3805	0.075
Mof_C 	C 	0.5865	0.9874	0.3754	-0.112
Mof_H 	H 	0.5726	0.973	0.3501	0.055
Mof_C 	C 	0.575	0.0368	0.4072	0.035
Mof_C 	C 	0.5947	0.0579	0.4437	-0.117
Mof_H 	H 	0.5868	0.0919	0.4657	0.062
Mof_C 	C 	0.631	0.913	0.3452	0.03
Mof_C 	C 	0.6597	0.9712	0.3413	-0.08
Mof_H 	H 	0.6722	0.0331	0.3619	0.058
Mof_C 	C 	0.6703	0.9398	0.3074	0.017
Mof_H 	H 	0.6901	0.9799	0.3049	0.026
Mof_C 	C 	0.6525	0.8513	0.2775	-0.104
Mof_C 	C 	0.6242	0.7935	0.2817	0.025
Mof_H 	H 	0.6118	0.731	0.2613	0.022
Mof_C 	C 	0.6138	0.825	0.3154	-0.1
Mof_H 	H 	0.594	0.7843	0.3177	0.063
Mof_O 	O 	0.26804	0.5057	0.7292	-0.544
Mof_O 	O 	0.27299	0.798	0.7218	-0.5
Mof_O 	O 	0.31137	0.6518	0.7743	-0.649
Mof_O 	O 	0.6896	0.1559	0.64171	-0.606
Mof_O 	O 	0.729	0.2869	0.6127	-0.284
Mof_O 	O 	0.7313	0.9914	0.6237	-0.369
Mof_O 	O 	0.69926	0.8373	0.2382	-0.498
Mof_O 	O 	0.65115	0.9846	0.2061	-0.525
Mof_O 	O 	0.6506	0.6928	0.2093	-0.5
Mof_O 	O 	0.5834	0.354	0.6515	-0.335
Mof_O 	O 	0.5673	0.163	0.697	-0.108
Mof_O 	O 	0.5775	0.438	0.7178	0.071
Mof_O 	O 	0.75494	0.662	0.69517	-0.379
Mof_P 	P 	0.28996	0.6448	0.73209	0.463
Mof_P 	P 	0.71054	0.13	0.61292	0.415
Mof_P 	P 	0.66398	0.8395	0.23086	0.432
Mof_P 	P 	0.56607	0.3385	0.6828	-0.262
Mof_C 	C 	0.5039	0.383	0.6861	0.026
Mof_H 	H 	0.511	0.3602	0.7137	0.023
Mof_C 	C 	0.4615	0.446	0.6304	-0.001
Mof_C 	C 	0.5252	0.387	0.6628	-0.034
Mof_C 	C 	0.4724	0.412	0.6705	-0.107
Mof_H 	H 	0.458	0.4094	0.6872	0.065
Mof_C 	C 	0.4832	0.45	0.6072	-0.021
Mof_H 	H 	0.4763	0.4737	0.5797	0.032
Mof_C 	C 	0.5144	0.421	0.6232	-0.008
Mof_H 	H 	0.5288	0.4247	0.6065	0.056
Mof_Ba	Ba	0.37468	0.2601	0.30031	0.395
Mof_Ba	Ba	0.62161	0.0656	0.63214	0.052
Mof_Ba	Ba	0.7096	0.4144	0.6909	0.788
Mof_C 	C 	0.5219	0.114	0.3676	0.471
Mof_C 	C 	0.5405	0.057	0.403	-0.014
Mof_C 	C 	0.5265	0.011	0.4335	0.248
Mof_H 	H 	0.5392	0.9718	0.4577	-0.055
Mof_C 	C 	0.494	0.022	0.4284	-0.498
Mof_H 	H 	0.4845	0.991	0.4492	0.197
Mof_C 	C 	0.4755	0.08	0.393	0.764
Mof_C 	C 	0.4894	0.126	0.3626	-0.219
Mof_H 	H 	0.4767	0.1647	0.3383	0.112
Mof_O 	O 	0.4299	0.2665	0.3994	0.345
Mof_O 	O 	0.4218	0.9887	0.4164	-0.312
Mof_O 	O 	0.4172	0.06	0.3457	-0.352
Mof_P 	P 	0.43417	0.0964	0.3881	0.855
Mof_C 	C 	0.3761	0.2758	0.4528	0.037
Mof_H 	H 	0.3882	0.2151	0.4388	0.023
Mof_C 	C 	0.38688	0.2984	0.4936	-0.065
Mof_H 	H 	0.4063	0.2532	0.5074	0.052
Mof_C 	C 	0.3692	0.3872	0.51415	-0.018
Mof_C 	C 	0.3409	0.4534	0.494	-0.016
Mof_H 	H 	0.3288	0.5141	0.508	0.032
Mof_C 	C 	0.3301	0.4308	0.4532	0.016
Mof_H 	H 	0.3107	0.476	0.4395	0.031
Mof_C 	C 	0.3478	0.342	0.43266	-0.06
Mof_O 	O 	0.3002	0.3412	0.3671	-0.297
Mof_O 	O 	0.3486	0.1903	0.3643	-0.294
Mof_O 	O 	0.3483	0.4804	0.3625	-0.334
Mof_P 	P 	0.33575	0.3346	0.37949	-0.149
Mof_C 	C 	0.3642	0.506	0.6884	-0.127
Mof_H 	H 	0.3843	0.4602	0.6988	0.071
Mof_C 	C 	0.3445	0.537	0.7132	0.097
Mof_H 	H 	0.3508	0.51	0.7406	-0.11
Mof_C 	C 	0.3085	0.667	0.6596	0.039
Mof_H 	H 	0.2912	0.7358	0.6509	0.015
Mof_C 	C 	0.3268	0.624	0.6341	-0.096
Mof_H 	H 	0.3203	0.6497	0.6067	0.064
Mof_O 	O 	0.5781	0.2528	0.6827	-0.067
Mof_O 	O 	0.5843	0.493	0.6457	-0.303
Mof_O 	O 	0.5795	0.514	0.7152	-0.503
Mof_P 	P 	0.5695	0.4264	0.6781	0.694
Mof_C 	C 	0.4796	0.339	0.6115	-0.046
Mof_H 	H 	0.4695	0.2727	0.5902	0.046
Mof_C 	C 	0.5118	0.332	0.6253	-0.031
Mof_H 	H 	0.5238	0.2612	0.6136	0.034
Mof_C 	C 	0.4618	0.44	0.6281	-0.003
Mof_C 	C 	0.5095	0.531	0.6739	-0.082
Mof_H 	H 	0.5197	0.5967	0.6952	0.054
Mof_C 	C 	0.5265	0.428	0.6564	0.016
Mof_C 	C 	0.4772	0.535	0.6592	0.034
Mof_H 	H 	0.4651	0.6058	0.6707	0.009
Mof_Ba	Ba	0.37015	0.361	0.30243	0.829
Mof_Ba	Ba	0.37467	0.4233	0.3076	0.391
Mof_Ba	Ba	0.6305	0.1547	0.63422	0.894
Mof_Ba	Ba	0.6258	0.237	0.63119	0.62
Mof_Ba	Ba	0.71713	0.4005	0.69358	0.712
Mof_C 	C 	0.5417	0.088	0.3998	0.061
Mof_C 	C 	0.5325	0.202	0.4236	-0.381
Mof_H 	H 	0.548	0.2546	0.4432	0.152
Mof_C 	C 	0.5008	0.239	0.4186	0.451
Mof_H 	H 	0.4946	0.3165	0.4348	-0.099
Mof_C 	C 	0.4782	0.162	0.3898	-0.778
Mof_C 	C 	0.4873	0.048	0.3661	0.208
Mof_H 	H 	0.4718	0.9958	0.3464	-0.041
Mof_C 	C 	0.519	0.011	0.3711	-0.68
Mof_H 	H 	0.5253	0.9338	0.3548	0.245
Mof_P 	P 	0.4367	0.1965	0.3892	-0.654
Mof_O 	O 	0.4274	0.1	0.4216	-0.244
Mof_O 	O 	0.4352	0.3678	0.4025	-0.232
Mof_O 	O 	0.4176	0.192	0.3463	-0.174
Mof_C 	C 	0.3484	0.384	0.4343	-0.017
Mof_C 	C 	0.3804	0.41	0.4497	-0.072
Mof_H 	H 	0.3943	0.419	0.4323	0.046
Mof_C 	C 	0.3921	0.424	0.4906	-0.016
Mof_H 	H 	0.414	0.4422	0.5011	0.025
Mof_C 	C 	0.3719	0.411	0.516	0.019
Mof_C 	C 	0.3399	0.385	0.5005	-0.042
Mof_H 	H 	0.326	0.3758	0.5179	0.035
Mof_C 	C 	0.3282	0.371	0.4597	-0.058
Mof_H 	H 	0.3063	0.3526	0.4491	0.049
Mof_P 	P 	0.3312	0.415	0.3835	0.626
Mof_O 	O 	0.3487	0.546	0.3677	-0.273
Mof_O 	O 	0.2967	0.463	0.3782	-0.287
Mof_O 	O 	0.3366	0.261	0.3641	-0.134
Mof_Ba	Ba	0.21164	0.40442	0.6954	1.859
Mof_C 	C 	0.9277	0.957	0.6128	0.078
Mof_C 	C 	0.91532	0.9207	0.5736	-0.14
Mof_H 	H 	0.9288	0.8901	0.5571	0.07
Mof_C 	C 	0.88326	0.9286	0.5583	0.074
Mof_C 	C 	0.8636	0.9725	0.5818	-0.133
Mof_H 	H 	0.8415	0.9777	0.5711	0.07
Mof_C 	C 	0.8758	0.0091	0.6212	0.066
Mof_N 	N 	0.9081	0.0047	0.6369	-0.129
Mof_C 	C 	0.8154	0.1077	0.6986	-0.146
Mof_C 	C 	0.85487	0.0419	0.6481	0.074
Mof_C 	C 	0.8069	0.9912	0.6689	0.006
Mof_H 	H 	0.7879	0.9341	0.6662	0.022
Mof_C 	C 	0.8429	0.187	0.7022	-0.039
Mof_H 	H 	0.8486	0.2653	0.7221	-0.014
Mof_C 	C 	0.863	0.1558	0.6772	-0.034
Mof_H 	H 	0.8822	0.2122	0.6801	0.038
Mof_C 	C 	0.8264	0.962	0.6441	-0.072
Mof_H 	H 	0.8204	0.8858	0.6237	0.057
Mof_C 	C 	0.1868	0.6015	0.5641	-0.113
Mof_C 	C 	0.1938	0.4843	0.5394	0.022
Mof_H 	H 	0.2118	0.4193	0.5484	0.033
Mof_C 	C 	0.1745	0.4629	0.5014	-0.092
Mof_H 	H 	0.1792	0.3833	0.4845	0.068
Mof_C 	C 	0.1483	0.5577	0.4882	0.033
Mof_C 	C 	0.1408	0.6736	0.5118	-0.107
Mof_H 	H 	0.1228	0.738	0.5026	0.051
Mof_C 	C 	0.1609	0.6958	0.5512	0.016
Mof_H 	H 	0.1561	0.7754	0.568	-0.048
Mof_C 	C 	0.1262	0.5289	0.448	0.075
Mof_N 	N 	0.1384	0.4822	0.4167	-0.128
Mof_C 	C 	0.1181	0.4591	0.3805	0.073
Mof_C 	C 	0.0865	0.4874	0.3754	-0.123
Mof_H 	H 	0.0726	0.473	0.3501	0.058
Mof_C 	C 	0.075	0.5368	0.4072	0.049
Mof_C 	C 	0.0947	0.5579	0.4437	-0.124
Mof_H 	H 	0.0868	0.5919	0.4657	0.065
Mof_C 	C 	0.131	0.413	0.3452	0.042
Mof_C 	C 	0.1597	0.4712	0.3413	-0.106
Mof_H 	H 	0.1722	0.5331	0.3619	0.073
Mof_C 	C 	0.1703	0.4398	0.3074	0.033
Mof_H 	H 	0.1901	0.4799	0.3049	0.018
Mof_C 	C 	0.1525	0.3513	0.2775	-0.113
Mof_C 	C 	0.1242	0.2935	0.2817	0.039
Mof_H 	H 	0.1118	0.231	0.2613	0.014
Mof_C 	C 	0.1138	0.325	0.3154	-0.111
Mof_H 	H 	0.094	0.2843	0.3177	0.067
Mof_O 	O 	0.76804	0.0057	0.7292	-0.534
Mof_O 	O 	0.77299	0.298	0.7218	-0.5
Mof_O 	O 	0.81137	0.1518	0.7743	-0.649
Mof_O 	O 	0.1896	0.6559	0.64171	-0.608
Mof_O 	O 	0.229	0.7869	0.6127	-0.285
Mof_O 	O 	0.2313	0.4914	0.6237	-0.365
Mof_O 	O 	0.19926	0.3373	0.2382	-0.502
Mof_O 	O 	0.15115	0.4846	0.2061	-0.49
Mof_O 	O 	0.1506	0.1928	0.2093	-0.54
Mof_O 	O 	0.0834	0.854	0.6515	-0.352
Mof_O 	O 	0.0673	0.663	0.697	-0.107
Mof_O 	O 	0.0775	0.938	0.7178	0.058
Mof_O 	O 	0.25494	0.162	0.69517	-0.377
Mof_P 	P 	0.78996	0.1448	0.73209	0.463
Mof_P 	P 	0.21054	0.63	0.61292	0.412
Mof_P 	P 	0.16398	0.3395	0.23086	0.435
Mof_P 	P 	0.06607	0.8385	0.6828	-0.318
Mof_C 	C 	0.0039	0.883	0.6861	0.035
Mof_H 	H 	0.011	0.8602	0.7137	0.021
Mof_C 	C 	0.9615	0.946	0.6304	-0.002
Mof_C 	C 	0.0252	0.887	0.6628	-0.033
Mof_C 	C 	0.9724	0.912	0.6705	-0.136
Mof_H 	H 	0.958	0.9094	0.6872	0.073
Mof_C 	C 	0.9832	0.95	0.6072	-0.03
Mof_H 	H 	0.9763	0.9737	0.5797	0.034
Mof_C 	C 	0.0144	0.921	0.6232	-0.017
Mof_H 	H 	0.0288	0.9247	0.6065	0.058
Mof_Ba	Ba	0.87468	0.7601	0.30031	-0.097
Mof_Ba	Ba	0.12161	0.5656	0.63214	-0.115
Mof_Ba	Ba	0.2096	0.9144	0.6909	0.781
Mof_C 	C 	0.0219	0.614	0.3676	0.456
Mof_C 	C 	0.0405	0.557	0.403	-0.014
Mof_C 	C 	0.0265	0.511	0.4335	0.249
Mof_H 	H 	0.0392	0.4718	0.4577	-0.057
Mof_C 	C 	0.994	0.522	0.4284	-0.492
Mof_H 	H 	0.9845	0.491	0.4492	0.193
Mof_C 	C 	0.9755	0.58	0.393	0.761
Mof_C 	C 	0.9894	0.626	0.3626	-0.219
Mof_H 	H 	0.9767	0.6647	0.3383	0.116
Mof_O 	O 	0.9299	0.7665	0.3994	0.332
Mof_O 	O 	0.9218	0.4887	0.4164	-0.304
Mof_O 	O 	0.9172	0.56	0.3457	-0.321
Mof_P 	P 	0.93417	0.5964	0.3881	0.844
Mof_C 	C 	0.8761	0.7758	0.4528	0.018
Mof_H 	H 	0.8882	0.7151	0.4388	0.032
Mof_C 	C 	0.88688	0.7984	0.4936	-0.047
Mof_H 	H 	0.9063	0.7532	0.5074	0.046
Mof_C 	C 	0.8692	0.8872	0.51415	-0.017
Mof_C 	C 	0.8409	0.9534	0.494	-0.019
Mof_H 	H 	0.8288	0.0141	0.508	0.032
Mof_C 	C 	0.8301	0.9308	0.4532	0.014
Mof_H 	H 	0.8107	0.976	0.4395	0.034
Mof_C 	C 	0.8478	0.842	0.43266	-0.061
Mof_O 	O 	0.8002	0.8412	0.3671	-0.294
Mof_O 	O 	0.8486	0.6903	0.3643	-0.249
Mof_O 	O 	0.8483	0.9804	0.3625	-0.162
Mof_P 	P 	0.83575	0.8346	0.37949	-0.164
Mof_C 	C 	0.8642	0.006	0.6884	-0.122
Mof_H 	H 	0.8843	0.9602	0.6988	0.064
Mof_C 	C 	0.8445	0.037	0.7132	0.123
Mof_H 	H 	0.8508	0.01	0.7406	-0.133
Mof_C 	C 	0.8085	0.167	0.6596	0.05
Mof_H 	H 	0.7912	0.2358	0.6509	0.013
Mof_C 	C 	0.8268	0.124	0.6341	-0.094
Mof_H 	H 	0.8203	0.1497	0.6067	0.064
Mof_O 	O 	0.0781	0.7528	0.6827	-0.043
Mof_O 	O 	0.0843	0.993	0.6457	-0.354
Mof_O 	O 	0.0795	0.014	0.7152	-0.508
Mof_P 	P 	0.0695	0.9264	0.6781	0.73
Mof_C 	C 	0.9796	0.839	0.6115	-0.036
Mof_H 	H 	0.9695	0.7727	0.5902	0.041
Mof_C 	C 	0.0118	0.832	0.6253	-0.025
Mof_H 	H 	0.0238	0.7612	0.6136	0.031
Mof_C 	C 	0.9618	0.94	0.6281	-0.006
Mof_C 	C 	0.0095	0.031	0.6739	-0.09
Mof_H 	H 	0.0197	0.0967	0.6952	0.062
Mof_C 	C 	0.0265	0.928	0.6564	0.019
Mof_C 	C 	0.9772	0.035	0.6592	0.068
Mof_H 	H 	0.9651	0.1058	0.6707	0.002
Mof_Ba	Ba	0.87015	0.861	0.30243	0.913
Mof_Ba	Ba	0.87467	0.9233	0.3076	0.79
Mof_Ba	Ba	0.1305	0.6547	0.63422	0.914
Mof_Ba	Ba	0.1258	0.737	0.63119	0.774
Mof_Ba	Ba	0.21713	0.9005	0.69358	0.679
Mof_C 	C 	0.0417	0.588	0.3998	0.054
Mof_C 	C 	0.0325	0.702	0.4236	-0.374
Mof_H 	H 	0.048	0.7546	0.4432	0.15
Mof_C 	C 	0.0008	0.739	0.4186	0.448
Mof_H 	H 	0.9946	0.8165	0.4348	-0.097
Mof_C 	C 	0.9782	0.662	0.3898	-0.775
Mof_C 	C 	0.9873	0.548	0.3661	0.208
Mof_H 	H 	0.9718	0.4958	0.3464	-0.046
Mof_C 	C 	0.019	0.511	0.3711	-0.647
Mof_H 	H 	0.0253	0.4338	0.3548	0.231
Mof_P 	P 	0.9367	0.6965	0.3892	-0.641
Mof_O 	O 	0.9274	0.6	0.4216	-0.239
Mof_O 	O 	0.9352	0.8678	0.4025	-0.224
Mof_O 	O 	0.9176	0.692	0.3463	-0.138
Mof_C 	C 	0.8484	0.884	0.4343	-0.009
Mof_C 	C 	0.8804	0.91	0.4497	-0.055
Mof_H 	H 	0.8943	0.919	0.4323	0.04
Mof_C 	C 	0.8921	0.924	0.4906	-0.032
Mof_H 	H 	0.914	0.9422	0.5011	0.03
Mof_C 	C 	0.8719	0.911	0.516	0.014
Mof_C 	C 	0.8399	0.885	0.5005	-0.036
Mof_H 	H 	0.826	0.8758	0.5179	0.033
Mof_C 	C 	0.8282	0.871	0.4597	-0.059
Mof_H 	H 	0.8063	0.8526	0.4491	0.05
Mof_P 	P 	0.8312	0.915	0.3835	0.619
Mof_O 	O 	0.8487	0.046	0.3677	-0.478
Mof_O 	O 	0.7967	0.963	0.3782	-0.279
Mof_O 	O 	0.8366	0.761	0.3641	-0.162
Mof_Ba	Ba	0.28836	0.90442	0.8046	1.813
Mof_C 	C 	0.5723	0.457	0.8872	0.08
Mof_C 	C 	0.58468	0.4207	0.9264	-0.137
Mof_H 	H 	0.5712	0.3901	0.9429	0.069
Mof_C 	C 	0.61674	0.4286	0.9417	0.07
Mof_C 	C 	0.6364	0.4725	0.9182	-0.122
Mof_H 	H 	0.6585	0.4777	0.9289	0.068
Mof_C 	C 	0.6242	0.5091	0.8788	0.056
Mof_N 	N 	0.5919	0.5047	0.8631	-0.132
Mof_C 	C 	0.6846	0.6077	0.8014	-0.158
Mof_C 	C 	0.64513	0.5419	0.8519	0.078
Mof_C 	C 	0.6931	0.4912	0.8311	0.029
Mof_H 	H 	0.7121	0.4341	0.8338	0.016
Mof_C 	C 	0.6571	0.687	0.7978	-0.009
Mof_H 	H 	0.6514	0.7653	0.7779	-0.043
Mof_C 	C 	0.637	0.6558	0.8228	-0.047
Mof_H 	H 	0.6178	0.7122	0.8199	0.036
Mof_C 	C 	0.6736	0.462	0.8559	-0.073
Mof_H 	H 	0.6796	0.3858	0.8763	0.059
Mof_C 	C 	0.3132	0.1015	0.9359	-0.11
Mof_C 	C 	0.3062	0.9843	0.9606	0.016
Mof_H 	H 	0.2882	0.9193	0.9516	0.034
Mof_C 	C 	0.3255	0.9629	0.9986	-0.09
Mof_H 	H 	0.3208	0.8833	0.0155	0.069
Mof_C 	C 	0.3517	0.0577	0.0118	0.034
Mof_C 	C 	0.3592	0.1736	0.9882	-0.106
Mof_H 	H 	0.3772	0.238	0.9974	0.052
Mof_C 	C 	0.3391	0.1958	0.9488	0.014
Mof_H 	H 	0.3439	0.2754	0.932	-0.047
Mof_C 	C 	0.3738	0.0289	0.052	0.068
Mof_N 	N 	0.3616	0.9822	0.0833	-0.124
Mof_C 	C 	0.3819	0.9591	0.1195	0.075
Mof_C 	C 	0.4135	0.9874	0.1246	-0.112
Mof_H 	H 	0.4274	0.973	0.1499	0.055
Mof_C 	C 	0.425	0.0368	0.0928	0.034
Mof_C 	C 	0.4053	0.0579	0.0563	-0.116
Mof_H 	H 	0.4132	0.0919	0.0343	0.062
Mof_C 	C 	0.369	0.913	0.1548	0.03
Mof_C 	C 	0.3403	0.9712	0.1587	-0.079
Mof_H 	H 	0.3278	0.0331	0.1381	0.058
Mof_C 	C 	0.3297	0.9398	0.1926	0.017
Mof_H 	H 	0.3099	0.9799	0.1951	0.026
Mof_C 	C 	0.3475	0.8513	0.2225	-0.104
Mof_C 	C 	0.3758	0.7935	0.2183	0.025
Mof_H 	H 	0.3882	0.731	0.2387	0.022
Mof_C 	C 	0.3862	0.825	0.1846	-0.1
Mof_H 	H 	0.406	0.7843	0.1823	0.063
Mof_O 	O 	0.73196	0.5057	0.7708	-0.544
Mof_O 	O 	0.72701	0.798	0.7782	-0.5
Mof_O 	O 	0.68863	0.6518	0.7257	-0.649
Mof_O 	O 	0.3104	0.1559	0.85829	-0.606
Mof_O 	O 	0.271	0.2869	0.8873	-0.284
Mof_O 	O 	0.2687	0.9914	0.8763	-0.369
Mof_O 	O 	0.30074	0.8373	0.2618	-0.498
Mof_O 	O 	0.34885	0.9846	0.2939	-0.525
Mof_O 	O 	0.3494	0.6928	0.2907	-0.5
Mof_O 	O 	0.4166	0.354	0.8485	-0.335
Mof_O 	O 	0.4327	0.163	0.803	-0.108
Mof_O 	O 	0.4225	0.438	0.7822	0.07
Mof_O 	O 	0.24506	0.662	0.80483	-0.379
Mof_P 	P 	0.71004	0.6448	0.76791	0.463
Mof_P 	P 	0.28946	0.13	0.88708	0.415
Mof_P 	P 	0.33602	0.8395	0.26914	0.432
Mof_P 	P 	0.43393	0.3385	0.8172	-0.262
Mof_C 	C 	0.4961	0.383	0.8139	0.026
Mof_H 	H 	0.489	0.3602	0.7863	0.023
Mof_C 	C 	0.5385	0.446	0.8696	-0.001
Mof_C 	C 	0.4748	0.387	0.8372	-0.034
Mof_C 	C 	0.5276	0.412	0.8295	-0.107
Mof_H 	H 	0.542	0.4094	0.8128	0.065
Mof_C 	C 	0.5168	0.45	0.8928	-0.021
Mof_H 	H 	0.5237	0.4737	0.9203	0.032
Mof_C 	C 	0.4856	0.421	0.8768	-0.008
Mof_H 	H 	0.4712	0.4247	0.8935	0.056
Mof_Ba	Ba	0.62532	0.2601	0.19969	0.396
Mof_Ba	Ba	0.37839	0.0656	0.86786	0.053
Mof_Ba	Ba	0.2904	0.4144	0.8091	0.788
Mof_C 	C 	0.4781	0.114	0.1324	0.471
Mof_C 	C 	0.4595	0.057	0.097	-0.014
Mof_C 	C 	0.4735	0.011	0.0665	0.248
Mof_H 	H 	0.4608	0.9718	0.0423	-0.055
Mof_C 	C 	0.506	0.022	0.0716	-0.498
Mof_H 	H 	0.5155	0.991	0.0508	0.198
Mof_C 	C 	0.5245	0.08	0.107	0.763
Mof_C 	C 	0.5106	0.126	0.1374	-0.219
Mof_H 	H 	0.5233	0.1647	0.1617	0.112
Mof_O 	O 	0.5701	0.2665	0.1006	0.345
Mof_O 	O 	0.5782	0.9887	0.0836	-0.312
Mof_O 	O 	0.5828	0.06	0.1543	-0.353
Mof_P 	P 	0.56583	0.0964	0.1119	0.855
Mof_C 	C 	0.6239	0.2758	0.0472	0.038
Mof_H 	H 	0.6118	0.2151	0.0612	0.022
Mof_C 	C 	0.61312	0.2984	0.0064	-0.066
Mof_H 	H 	0.5937	0.2532	0.9926	0.053
Mof_C 	C 	0.6308	0.3872	0.98585	-0.018
Mof_C 	C 	0.6591	0.4534	0.006	-0.015
Mof_H 	H 	0.6712	0.5141	0.992	0.032
Mof_C 	C 	0.6699	0.4308	0.0468	0.016
Mof_H 	H 	0.6893	0.476	0.0605	0.031
Mof_C 	C 	0.6522	0.342	0.06734	-0.06
Mof_O 	O 	0.6998	0.3412	0.1329	-0.297
Mof_O 	O 	0.6514	0.1903	0.1357	-0.294
Mof_O 	O 	0.6517	0.4804	0.1375	-0.334
Mof_P 	P 	0.66425	0.3346	0.12051	-0.148
Mof_C 	C 	0.6358	0.506	0.8116	-0.127
Mof_H 	H 	0.6157	0.4602	0.8012	0.071
Mof_C 	C 	0.6555	0.537	0.7868	0.097
Mof_H 	H 	0.6492	0.51	0.7594	-0.11
Mof_C 	C 	0.6915	0.667	0.8404	0.039
Mof_H 	H 	0.7088	0.7358	0.8491	0.015
Mof_C 	C 	0.6732	0.624	0.8659	-0.096
Mof_H 	H 	0.6797	0.6497	0.8933	0.064
Mof_O 	O 	0.4219	0.2528	0.8173	-0.067
Mof_O 	O 	0.4157	0.493	0.8543	-0.302
Mof_O 	O 	0.4205	0.514	0.7848	-0.502
Mof_P 	P 	0.4305	0.4264	0.8219	0.694
Mof_C 	C 	0.5204	0.339	0.8885	-0.046
Mof_H 	H 	0.5305	0.2727	0.9098	0.046
Mof_C 	C 	0.4882	0.332	0.8747	-0.031
Mof_H 	H 	0.4762	0.2612	0.8864	0.034
Mof_C 	C 	0.5382	0.44	0.8719	-0.003
Mof_C 	C 	0.4905	0.531	0.8261	-0.082
Mof_H 	H 	0.4803	0.5967	0.8048	0.054
Mof_C 	C 	0.4735	0.428	0.8436	0.016
Mof_C 	C 	0.5228	0.535	0.8408	0.034
Mof_H 	H 	0.5349	0.6058	0.8293	0.009
Mof_Ba	Ba	0.62985	0.361	0.19757	0.829
Mof_Ba	Ba	0.62533	0.4233	0.1924	0.389
Mof_Ba	Ba	0.3695	0.1547	0.86578	0.894
Mof_Ba	Ba	0.3742	0.237	0.86881	0.619
Mof_Ba	Ba	0.28287	0.4005	0.80642	0.712
Mof_C 	C 	0.4583	0.088	0.1002	0.061
Mof_C 	C 	0.4675	0.202	0.0764	-0.381
Mof_H 	H 	0.452	0.2546	0.0568	0.152
Mof_C 	C 	0.4992	0.239	0.0814	0.451
Mof_H 	H 	0.5054	0.3165	0.0652	-0.099
Mof_C 	C 	0.5218	0.162	0.1102	-0.777
Mof_C 	C 	0.5127	0.048	0.1339	0.208
Mof_H 	H 	0.5282	0.9958	0.1536	-0.041
Mof_C 	C 	0.481	0.011	0.1289	-0.681
Mof_H 	H 	0.4747	0.9338	0.1452	0.245
Mof_P 	P 	0.5633	0.1965	0.1108	-0.654
Mof_O 	O 	0.5726	0.1	0.0784	-0.244
Mof_O 	O 	0.5648	0.3678	0.0975	-0.232
Mof_O 	O 	0.5824	0.192	0.1537	-0.174
Mof_C 	C 	0.6516	0.384	0.0657	-0.017
Mof_C 	C 	0.6196	0.41	0.0503	-0.072
Mof_H 	H 	0.6057	0.419	0.0677	0.046
Mof_C 	C 	0.6079	0.424	0.0094	-0.015
Mof_H 	H 	0.586	0.4422	0.9989	0.025
Mof_C 	C 	0.6281	0.411	0.984	0.019
Mof_C 	C 	0.6601	0.385	0.9995	-0.042
Mof_H 	H 	0.674	0.3758	0.9821	0.035
Mof_C 	C 	0.6718	0.371	0.0403	-0.058
Mof_H 	H 	0.6937	0.3526	0.0509	0.049
Mof_P 	P 	0.6688	0.415	0.1165	0.626
Mof_O 	O 	0.6513	0.546	0.1323	-0.273
Mof_O 	O 	0.7033	0.463	0.1218	-0.287
Mof_O 	O 	0.6634	0.261	0.1359	-0.134
Mof_Ba	Ba	0.78836	0.40442	0.8046	1.859
Mof_C 	C 	0.0723	0.957	0.8872	0.078
Mof_C 	C 	0.08468	0.9207	0.9264	-0.14
Mof_H 	H 	0.0712	0.8901	0.9429	0.07
Mof_C 	C 	0.11674	0.9286	0.9417	0.075
Mof_C 	C 	0.1364	0.9725	0.9182	-0.134
Mof_H 	H 	0.1585	0.9777	0.9289	0.07
Mof_C 	C 	0.1242	0.0091	0.8788	0.066
Mof_N 	N 	0.0919	0.0047	0.8631	-0.129
Mof_C 	C 	0.1846	0.1077	0.8014	-0.146
Mof_C 	C 	0.14513	0.0419	0.8519	0.074
Mof_C 	C 	0.1931	0.9912	0.8311	0.006
Mof_H 	H 	0.2121	0.9341	0.8338	0.022
Mof_C 	C 	0.1571	0.187	0.7978	-0.038
Mof_H 	H 	0.1514	0.2653	0.7779	-0.014
Mof_C 	C 	0.137	0.1558	0.8228	-0.035
Mof_H 	H 	0.1178	0.2122	0.8199	0.038
Mof_C 	C 	0.1736	0.962	0.8559	-0.072
Mof_H 	H 	0.1796	0.8858	0.8763	0.057
Mof_C 	C 	0.8132	0.6015	0.9359	-0.113
Mof_C 	C 	0.8062	0.4843	0.9606	0.022
Mof_H 	H 	0.7882	0.4193	0.9516	0.033
Mof_C 	C 	0.8255	0.4629	0.9986	-0.092
Mof_H 	H 	0.8208	0.3833	0.0155	0.068
Mof_C 	C 	0.8517	0.5577	0.0118	0.033
Mof_C 	C 	0.8592	0.6736	0.9882	-0.107
Mof_H 	H 	0.8772	0.738	0.9974	0.051
Mof_C 	C 	0.8391	0.6958	0.9488	0.015
Mof_H 	H 	0.8439	0.7754	0.932	-0.048
Mof_C 	C 	0.8738	0.5289	0.052	0.075
Mof_N 	N 	0.8616	0.4822	0.0833	-0.128
Mof_C 	C 	0.8819	0.4591	0.1195	0.073
Mof_C 	C 	0.9135	0.4874	0.1246	-0.123
Mof_H 	H 	0.9274	0.473	0.1499	0.058
Mof_C 	C 	0.925	0.5368	0.0928	0.049
Mof_C 	C 	0.9053	0.5579	0.0563	-0.124
Mof_H 	H 	0.9132	0.5919	0.0343	0.065
Mof_C 	C 	0.869	0.413	0.1548	0.042
Mof_C 	C 	0.8403	0.4712	0.1587	-0.106
Mof_H 	H 	0.8278	0.5331	0.1381	0.073
Mof_C 	C 	0.8297	0.4398	0.1926	0.033
Mof_H 	H 	0.8099	0.4799	0.1951	0.018
Mof_C 	C 	0.8475	0.3513	0.2225	-0.113
Mof_C 	C 	0.8758	0.2935	0.2183	0.039
Mof_H 	H 	0.8882	0.231	0.2387	0.014
Mof_C 	C 	0.8862	0.325	0.1846	-0.111
Mof_H 	H 	0.906	0.2843	0.1823	0.067
Mof_O 	O 	0.23196	0.0057	0.7708	-0.534
Mof_O 	O 	0.22701	0.298	0.7782	-0.5
Mof_O 	O 	0.18863	0.1518	0.7257	-0.649
Mof_O 	O 	0.8104	0.6559	0.85829	-0.608
Mof_O 	O 	0.771	0.7869	0.8873	-0.285
Mof_O 	O 	0.7687	0.4914	0.8763	-0.365
Mof_O 	O 	0.80074	0.3373	0.2618	-0.502
Mof_O 	O 	0.84885	0.4846	0.2939	-0.49
Mof_O 	O 	0.8494	0.1928	0.2907	-0.54
Mof_O 	O 	0.9166	0.854	0.8485	-0.352
Mof_O 	O 	0.9327	0.663	0.803	-0.107
Mof_O 	O 	0.9225	0.938	0.7822	0.058
Mof_O 	O 	0.74506	0.162	0.80483	-0.377
Mof_P 	P 	0.21004	0.1448	0.76791	0.463
Mof_P 	P 	0.78946	0.63	0.88708	0.412
Mof_P 	P 	0.83602	0.3395	0.26914	0.435
Mof_P 	P 	0.93393	0.8385	0.8172	-0.318
Mof_C 	C 	0.9961	0.883	0.8139	0.035
Mof_H 	H 	0.989	0.8602	0.7863	0.02
Mof_C 	C 	0.0385	0.946	0.8696	-0.002
Mof_C 	C 	0.9748	0.887	0.8372	-0.033
Mof_C 	C 	0.0276	0.912	0.8295	-0.136
Mof_H 	H 	0.042	0.9094	0.8128	0.073
Mof_C 	C 	0.0168	0.95	0.8928	-0.031
Mof_H 	H 	0.0237	0.9737	0.9203	0.034
Mof_C 	C 	0.9856	0.921	0.8768	-0.017
Mof_H 	H 	0.9712	0.9247	0.8935	0.058
Mof_Ba	Ba	0.12532	0.7601	0.19969	-0.102
Mof_Ba	Ba	0.87839	0.5656	0.86786	-0.117
Mof_Ba	Ba	0.7904	0.9144	0.8091	0.781
Mof_C 	C 	0.9781	0.614	0.1324	0.457
Mof_C 	C 	0.9595	0.557	0.097	-0.014
Mof_C 	C 	0.9735	0.511	0.0665	0.249
Mof_H 	H 	0.9608	0.4718	0.0423	-0.057
Mof_C 	C 	0.006	0.522	0.0716	-0.493
Mof_H 	H 	0.0155	0.491	0.0508	0.193
Mof_C 	C 	0.0245	0.58	0.107	0.763
Mof_C 	C 	0.0106	0.626	0.1374	-0.219
Mof_H 	H 	0.0233	0.6647	0.1617	0.117
Mof_O 	O 	0.0701	0.7665	0.1006	0.332
Mof_O 	O 	0.0782	0.4887	0.0836	-0.304
Mof_O 	O 	0.0828	0.56	0.1543	-0.321
Mof_P 	P 	0.06583	0.5964	0.1119	0.845
Mof_C 	C 	0.1239	0.7758	0.0472	0.019
Mof_H 	H 	0.1118	0.7151	0.0612	0.032
Mof_C 	C 	0.11312	0.7984	0.0064	-0.048
Mof_H 	H 	0.0937	0.7532	0.9926	0.046
Mof_C 	C 	0.1308	0.8872	0.98585	-0.017
Mof_C 	C 	0.1591	0.9534	0.006	-0.02
Mof_H 	H 	0.1712	0.0141	0.992	0.033
Mof_C 	C 	0.1699	0.9308	0.0468	0.014
Mof_H 	H 	0.1893	0.976	0.0605	0.034
Mof_C 	C 	0.1522	0.842	0.06734	-0.06
Mof_O 	O 	0.1998	0.8412	0.1329	-0.294
Mof_O 	O 	0.1514	0.6903	0.1357	-0.248
Mof_O 	O 	0.1517	0.9804	0.1375	-0.16
Mof_P 	P 	0.16425	0.8346	0.12051	-0.164
Mof_C 	C 	0.1358	0.006	0.8116	-0.121
Mof_H 	H 	0.1157	0.9602	0.8012	0.064
Mof_C 	C 	0.1555	0.037	0.7868	0.122
Mof_H 	H 	0.1492	0.01	0.7594	-0.132
Mof_C 	C 	0.1915	0.167	0.8404	0.05
Mof_H 	H 	0.2088	0.2358	0.8491	0.013
Mof_C 	C 	0.1732	0.124	0.8659	-0.094
Mof_H 	H 	0.1797	0.1497	0.8933	0.064
Mof_O 	O 	0.9219	0.7528	0.8173	-0.043
Mof_O 	O 	0.9157	0.993	0.8543	-0.354
Mof_O 	O 	0.9205	0.014	0.7848	-0.509
Mof_P 	P 	0.9305	0.9264	0.8219	0.73
Mof_C 	C 	0.0204	0.839	0.8885	-0.036
Mof_H 	H 	0.0305	0.7727	0.9098	0.041
Mof_C 	C 	0.9882	0.832	0.8747	-0.025
Mof_H 	H 	0.9762	0.7612	0.8864	0.031
Mof_C 	C 	0.0382	0.94	0.8719	-0.006
Mof_C 	C 	0.9905	0.031	0.8261	-0.09
Mof_H 	H 	0.9803	0.0967	0.8048	0.062
Mof_C 	C 	0.9735	0.928	0.8436	0.018
Mof_C 	C 	0.0228	0.035	0.8408	0.069
Mof_H 	H 	0.0349	0.1058	0.8293	0.002
Mof_Ba	Ba	0.12985	0.861	0.19757	0.914
Mof_Ba	Ba	0.12533	0.9233	0.1924	0.794
Mof_Ba	Ba	0.8695	0.6547	0.86578	0.915
Mof_Ba	Ba	0.8742	0.737	0.86881	0.776
Mof_Ba	Ba	0.78287	0.9005	0.80642	0.679
Mof_C 	C 	0.9583	0.588	0.1002	0.054
Mof_C 	C 	0.9675	0.702	0.0764	-0.375
Mof_H 	H 	0.952	0.7546	0.0568	0.15
Mof_C 	C 	0.9992	0.739	0.0814	0.448
Mof_H 	H 	0.0054	0.8165	0.0652	-0.097
Mof_C 	C 	0.0218	0.662	0.1102	-0.777
Mof_C 	C 	0.0127	0.548	0.1339	0.209
Mof_H 	H 	0.0282	0.4958	0.1536	-0.046
Mof_C 	C 	0.981	0.511	0.1289	-0.648
Mof_H 	H 	0.9747	0.4338	0.1452	0.231
Mof_P 	P 	0.0633	0.6965	0.1108	-0.642
Mof_O 	O 	0.0726	0.6	0.0784	-0.239
Mof_O 	O 	0.0648	0.8678	0.0975	-0.224
Mof_O 	O 	0.0824	0.692	0.1537	-0.138
Mof_C 	C 	0.1516	0.884	0.0657	-0.009
Mof_C 	C 	0.1196	0.91	0.0503	-0.057
Mof_H 	H 	0.1057	0.919	0.0677	0.04
Mof_C 	C 	0.1079	0.924	0.0094	-0.03
Mof_H 	H 	0.086	0.9422	0.9989	0.029
Mof_C 	C 	0.1281	0.911	0.984	0.014
Mof_C 	C 	0.1601	0.885	0.9995	-0.034
Mof_H 	H 	0.174	0.8758	0.9821	0.033
Mof_C 	C 	0.1718	0.871	0.0403	-0.058
Mof_H 	H 	0.1937	0.8526	0.0509	0.05
Mof_P 	P 	0.1688	0.915	0.1165	0.619
Mof_O 	O 	0.1513	0.046	0.1323	-0.48
Mof_O 	O 	0.2033	0.963	0.1218	-0.278
Mof_O 	O 	0.1634	0.761	0.1359	-0.162
Mof_Ba	Ba	0.28836	0.09558	0.3046	1.813
Mof_C 	C 	0.5723	0.543	0.3872	0.08
Mof_C 	C 	0.58468	0.5793	0.4264	-0.137
Mof_H 	H 	0.5712	0.6099	0.4429	0.069
Mof_C 	C 	0.61674	0.5714	0.4417	0.07
Mof_C 	C 	0.6364	0.5275	0.4182	-0.122
Mof_H 	H 	0.6585	0.5223	0.4289	0.068
Mof_C 	C 	0.6242	0.4909	0.3788	0.056
Mof_N 	N 	0.5919	0.4953	0.3631	-0.132
Mof_C 	C 	0.6846	0.3923	0.3014	-0.158
Mof_C 	C 	0.64513	0.4581	0.3519	0.078
Mof_C 	C 	0.6931	0.5088	0.3311	0.029
Mof_H 	H 	0.7121	0.5659	0.3338	0.016
Mof_C 	C 	0.6571	0.313	0.2978	-0.009
Mof_H 	H 	0.6514	0.2347	0.2779	-0.044
Mof_C 	C 	0.637	0.3442	0.3228	-0.047
Mof_H 	H 	0.6178	0.2878	0.3199	0.036
Mof_C 	C 	0.6736	0.538	0.3559	-0.073
Mof_H 	H 	0.6796	0.6142	0.3763	0.059
Mof_C 	C 	0.3132	0.8985	0.4359	-0.11
Mof_C 	C 	0.3062	0.0157	0.4606	0.017
Mof_H 	H 	0.2882	0.0807	0.4516	0.034
Mof_C 	C 	0.3255	0.0371	0.4986	-0.089
Mof_H 	H 	0.3208	0.1167	0.5155	0.068
Mof_C 	C 	0.3517	0.9423	0.5118	0.034
Mof_C 	C 	0.3592	0.8264	0.4882	-0.106
Mof_H 	H 	0.3772	0.762	0.4974	0.052
Mof_C 	C 	0.3391	0.8042	0.4488	0.014
Mof_H 	H 	0.3439	0.7246	0.432	-0.047
Mof_C 	C 	0.3738	0.9711	0.552	0.068
Mof_N 	N 	0.3616	0.0178	0.5833	-0.124
Mof_C 	C 	0.3819	0.0409	0.6195	0.075
Mof_C 	C 	0.4135	0.0126	0.6246	-0.112
Mof_H 	H 	0.4274	0.027	0.6499	0.055
Mof_C 	C 	0.425	0.9632	0.5928	0.035
Mof_C 	C 	0.4053	0.9421	0.5563	-0.117
Mof_H 	H 	0.4132	0.9081	0.5343	0.062
Mof_C 	C 	0.369	0.087	0.6548	0.03
Mof_C 	C 	0.3403	0.0288	0.6587	-0.08
Mof_H 	H 	0.3278	0.9669	0.6381	0.058
Mof_C 	C 	0.3297	0.0602	0.6926	0.017
Mof_H 	H 	0.3099	0.0201	0.6951	0.026
Mof_C 	C 	0.3475	0.1487	0.7225	-0.104
Mof_C 	C 	0.3758	0.2065	0.7183	0.025
Mof_H 	H 	0.3882	0.269	0.7387	0.022
Mof_C 	C 	0.3862	0.175	0.6846	-0.1
Mof_H 	H 	0.406	0.2157	0.6823	0.063
Mof_O 	O 	0.73196	0.4943	0.2708	-0.544
Mof_O 	O 	0.72701	0.202	0.2782	-0.5
Mof_O 	O 	0.68863	0.3482	0.2257	-0.649
Mof_O 	O 	0.3104	0.8441	0.35829	-0.606
Mof_O 	O 	0.271	0.7131	0.3873	-0.284
Mof_O 	O 	0.2687	0.0086	0.3763	-0.369
Mof_O 	O 	0.30074	0.1627	0.7618	-0.498
Mof_O 	O 	0.34885	0.0154	0.7939	-0.525
Mof_O 	O 	0.3494	0.3072	0.7907	-0.5
Mof_O 	O 	0.4166	0.646	0.3485	-0.335
Mof_O 	O 	0.4327	0.837	0.303	-0.108
Mof_O 	O 	0.4225	0.562	0.2822	0.071
Mof_O 	O 	0.24506	0.338	0.30483	-0.379
Mof_P 	P 	0.71004	0.3552	0.26791	0.463
Mof_P 	P 	0.28946	0.87	0.38708	0.415
Mof_P 	P 	0.33602	0.1605	0.76914	0.432
Mof_P 	P 	0.43393	0.6615	0.3172	-0.262
Mof_C 	C 	0.4961	0.617	0.3139	0.026
Mof_H 	H 	0.489	0.6398	0.2863	0.023
Mof_C 	C 	0.5385	0.554	0.3696	-0.001
Mof_C 	C 	0.4748	0.613	0.3372	-0.034
Mof_C 	C 	0.5276	0.588	0.3295	-0.107
Mof_H 	H 	0.542	0.5906	0.3128	0.065
Mof_C 	C 	0.5168	0.55	0.3928	-0.021
Mof_H 	H 	0.5237	0.5263	0.4203	0.032
Mof_C 	C 	0.4856	0.579	0.3768	-0.008
Mof_H 	H 	0.4712	0.5753	0.3935	0.056
Mof_Ba	Ba	0.62532	0.7399	0.69969	0.395
Mof_Ba	Ba	0.37839	0.9344	0.36786	0.052
Mof_Ba	Ba	0.2904	0.5856	0.3091	0.788
Mof_C 	C 	0.4781	0.886	0.6324	0.471
Mof_C 	C 	0.4595	0.943	0.597	-0.014
Mof_C 	C 	0.4735	0.989	0.5665	0.248
Mof_H 	H 	0.4608	0.0282	0.5423	-0.055
Mof_C 	C 	0.506	0.978	0.5716	-0.498
Mof_H 	H 	0.5155	0.009	0.5508	0.197
Mof_C 	C 	0.5245	0.92	0.607	0.764
Mof_C 	C 	0.5106	0.874	0.6374	-0.219
Mof_H 	H 	0.5233	0.8353	0.6617	0.112
Mof_O 	O 	0.5701	0.7335	0.6006	0.345
Mof_O 	O 	0.5782	0.0113	0.5836	-0.312
Mof_O 	O 	0.5828	0.94	0.6543	-0.352
Mof_P 	P 	0.56583	0.9036	0.6119	0.855
Mof_C 	C 	0.6239	0.7242	0.5472	0.037
Mof_H 	H 	0.6118	0.7849	0.5612	0.023
Mof_C 	C 	0.61312	0.7016	0.5064	-0.065
Mof_H 	H 	0.5937	0.7468	0.4926	0.052
Mof_C 	C 	0.6308	0.6128	0.48585	-0.018
Mof_C 	C 	0.6591	0.5466	0.506	-0.016
Mof_H 	H 	0.6712	0.4859	0.492	0.032
Mof_C 	C 	0.6699	0.5692	0.5468	0.016
Mof_H 	H 	0.6893	0.524	0.5605	0.031
Mof_C 	C 	0.6522	0.658	0.56734	-0.06
Mof_O 	O 	0.6998	0.6588	0.6329	-0.297
Mof_O 	O 	0.6514	0.8097	0.6357	-0.294
Mof_O 	O 	0.6517	0.5196	0.6375	-0.334
Mof_P 	P 	0.66425	0.6654	0.62051	-0.149
Mof_C 	C 	0.6358	0.494	0.3116	-0.127
Mof_H 	H 	0.6157	0.5398	0.3012	0.071
Mof_C 	C 	0.6555	0.463	0.2868	0.097
Mof_H 	H 	0.6492	0.49	0.2594	-0.11
Mof_C 	C 	0.6915	0.333	0.3404	0.039
Mof_H 	H 	0.7088	0.2642	0.3491	0.015
Mof_C 	C 	0.6732	0.376	0.3659	-0.096
Mof_H 	H 	0.6797	0.3503	0.3933	0.064
Mof_O 	O 	0.4219	0.7472	0.3173	-0.067
Mof_O 	O 	0.4157	0.507	0.3543	-0.303
Mof_O 	O 	0.4205	0.486	0.2848	-0.503
Mof_P 	P 	0.4305	0.5736	0.3219	0.694
Mof_C 	C 	0.5204	0.661	0.3885	-0.046
Mof_H 	H 	0.5305	0.7273	0.4098	0.046
Mof_C 	C 	0.4882	0.668	0.3747	-0.031
Mof_H 	H 	0.4762	0.7388	0.3864	0.034
Mof_C 	C 	0.5382	0.56	0.3719	-0.003
Mof_C 	C 	0.4905	0.469	0.3261	-0.082
Mof_H 	H 	0.4803	0.4033	0.3048	0.054
Mof_C 	C 	0.4735	0.572	0.3436	0.016
Mof_C 	C 	0.5228	0.465	0.3408	0.034
Mof_H 	H 	0.5349	0.3942	0.3293	0.009
Mof_Ba	Ba	0.62985	0.639	0.69757	0.829
Mof_Ba	Ba	0.62533	0.5767	0.6924	0.391
Mof_Ba	Ba	0.3695	0.8453	0.36578	0.894
Mof_Ba	Ba	0.3742	0.763	0.36881	0.62
Mof_Ba	Ba	0.28287	0.5995	0.30642	0.712
Mof_C 	C 	0.4583	0.912	0.6002	0.061
Mof_C 	C 	0.4675	0.798	0.5764	-0.381
Mof_H 	H 	0.452	0.7454	0.5568	0.152
Mof_C 	C 	0.4992	0.761	0.5814	0.451
Mof_H 	H 	0.5054	0.6835	0.5652	-0.099
Mof_C 	C 	0.5218	0.838	0.6102	-0.778
Mof_C 	C 	0.5127	0.952	0.6339	0.208
Mof_H 	H 	0.5282	0.0042	0.6536	-0.041
Mof_C 	C 	0.481	0.989	0.6289	-0.68
Mof_H 	H 	0.4747	0.0662	0.6452	0.245
Mof_P 	P 	0.5633	0.8035	0.6108	-0.654
Mof_O 	O 	0.5726	0.9	0.5784	-0.244
Mof_O 	O 	0.5648	0.6322	0.5975	-0.232
Mof_O 	O 	0.5824	0.808	0.6537	-0.174
Mof_C 	C 	0.6516	0.616	0.5657	-0.017
Mof_C 	C 	0.6196	0.59	0.5503	-0.072
Mof_H 	H 	0.6057	0.581	0.5677	0.046
Mof_C 	C 	0.6079	0.576	0.5094	-0.016
Mof_H 	H 	0.586	0.5578	0.4989	0.025
Mof_C 	C 	0.6281	0.589	0.484	0.019
Mof_C 	C 	0.6601	0.615	0.4995	-0.042
Mof_H 	H 	0.674	0.6242	0.4821	0.035
Mof_C 	C 	0.6718	0.629	0.5403	-0.058
Mof_H 	H 	0.6937	0.6474	0.5509	0.049
Mof_P 	P 	0.6688	0.585	0.6165	0.626
Mof_O 	O 	0.6513	0.454	0.6323	-0.273
Mof_O 	O 	0.7033	0.537	0.6218	-0.287
Mof_O 	O 	0.6634	0.739	0.6359	-0.134
Mof_Ba	Ba	0.78836	0.59558	0.3046	1.859
Mof_C 	C 	0.0723	0.043	0.3872	0.078
Mof_C 	C 	0.08468	0.0793	0.4264	-0.14
Mof_H 	H 	0.0712	0.1099	0.4429	0.07
Mof_C 	C 	0.11674	0.0714	0.4417	0.074
Mof_C 	C 	0.1364	0.0275	0.4182	-0.133
Mof_H 	H 	0.1585	0.0223	0.4289	0.07
Mof_C 	C 	0.1242	0.9909	0.3788	0.066
Mof_N 	N 	0.0919	0.9953	0.3631	-0.129
Mof_C 	C 	0.1846	0.8923	0.3014	-0.146
Mof_C 	C 	0.14513	0.9581	0.3519	0.074
Mof_C 	C 	0.1931	0.0088	0.3311	0.006
Mof_H 	H 	0.2121	0.0659	0.3338	0.022
Mof_C 	C 	0.1571	0.813	0.2978	-0.039
Mof_H 	H 	0.1514	0.7347	0.2779	-0.014
Mof_C 	C 	0.137	0.8442	0.3228	-0.034
Mof_H 	H 	0.1178	0.7878	0.3199	0.038
Mof_C 	C 	0.1736	0.038	0.3559	-0.072
Mof_H 	H 	0.1796	0.1142	0.3763	0.057
Mof_C 	C 	0.8132	0.3985	0.4359	-0.113
Mof_C 	C 	0.8062	0.5157	0.4606	0.022
Mof_H 	H 	0.7882	0.5807	0.4516	0.033
Mof_C 	C 	0.8255	0.5371	0.4986	-0.092
Mof_H 	H 	0.8208	0.6167	0.5155	0.068
Mof_C 	C 	0.8517	0.4423	0.5118	0.033
Mof_C 	C 	0.8592	0.3264	0.4882	-0.107
Mof_H 	H 	0.8772	0.262	0.4974	0.051
Mof_C 	C 	0.8391	0.3042	0.4488	0.016
Mof_H 	H 	0.8439	0.2246	0.432	-0.048
Mof_C 	C 	0.8738	0.4711	0.552	0.075
Mof_N 	N 	0.8616	0.5178	0.5833	-0.128
Mof_C 	C 	0.8819	0.5409	0.6195	0.073
Mof_C 	C 	0.9135	0.5126	0.6246	-0.123
Mof_H 	H 	0.9274	0.527	0.6499	0.058
Mof_C 	C 	0.925	0.4632	0.5928	0.049
Mof_C 	C 	0.9053	0.4421	0.5563	-0.124
Mof_H 	H 	0.9132	0.4081	0.5343	0.065
Mof_C 	C 	0.869	0.587	0.6548	0.042
Mof_C 	C 	0.8403	0.5288	0.6587	-0.106
Mof_H 	H 	0.8278	0.4669	0.6381	0.073
Mof_C 	C 	0.8297	0.5602	0.6926	0.033
Mof_H 	H 	0.8099	0.5201	0.6951	0.018
Mof_C 	C 	0.8475	0.6487	0.7225	-0.113
Mof_C 	C 	0.8758	0.7065	0.7183	0.039
Mof_H 	H 	0.8882	0.769	0.7387	0.014
Mof_C 	C 	0.8862	0.675	0.6846	-0.111
Mof_H 	H 	0.906	0.7157	0.6823	0.067
Mof_O 	O 	0.23196	0.9943	0.2708	-0.534
Mof_O 	O 	0.22701	0.702	0.2782	-0.5
Mof_O 	O 	0.18863	0.8482	0.2257	-0.649
Mof_O 	O 	0.8104	0.3441	0.35829	-0.608
Mof_O 	O 	0.771	0.2131	0.3873	-0.285
Mof_O 	O 	0.7687	0.5086	0.3763	-0.365
Mof_O 	O 	0.80074	0.6627	0.7618	-0.502
Mof_O 	O 	0.84885	0.5154	0.7939	-0.49
Mof_O 	O 	0.8494	0.8072	0.7907	-0.54
Mof_O 	O 	0.9166	0.146	0.3485	-0.352
Mof_O 	O 	0.9327	0.337	0.303	-0.107
Mof_O 	O 	0.9225	0.062	0.2822	0.058
Mof_O 	O 	0.74506	0.838	0.30483	-0.377
Mof_P 	P 	0.21004	0.8552	0.26791	0.463
Mof_P 	P 	0.78946	0.37	0.38708	0.412
Mof_P 	P 	0.83602	0.6605	0.76914	0.435
Mof_P 	P 	0.93393	0.1615	0.3172	-0.318
Mof_C 	C 	0.9961	0.117	0.3139	0.035
Mof_H 	H 	0.989	0.1398	0.2863	0.021
Mof_C 	C 	0.0385	0.054	0.3696	-0.002
Mof_C 	C 	0.9748	0.113	0.3372	-0.033
Mof_C 	C 	0.0276	0.088	0.3295	-0.136
Mof_H 	H 	0.042	0.0906	0.3128	0.073
Mof_C 	C 	0.0168	0.05	0.3928	-0.03
Mof_H 	H 	0.0237	0.0263	0.4203	0.034
Mof_C 	C 	0.9856	0.079	0.3768	-0.017
Mof_H 	H 	0.9712	0.0753	0.3935	0.058
Mof_Ba	Ba	0.12532	0.2399	0.69969	-0.097
Mof_Ba	Ba	0.87839	0.4344	0.36786	-0.115
Mof_Ba	Ba	0.7904	0.0856	0.3091	0.781
Mof_C 	C 	0.9781	0.386	0.6324	0.456
Mof_C 	C 	0.9595	0.443	0.597	-0.014
Mof_C 	C 	0.9735	0.489	0.5665	0.249
Mof_H 	H 	0.9608	0.5282	0.5423	-0.057
Mof_C 	C 	0.006	0.478	0.5716	-0.492
Mof_H 	H 	0.0155	0.509	0.5508	0.193
Mof_C 	C 	0.0245	0.42	0.607	0.761
Mof_C 	C 	0.0106	0.374	0.6374	-0.219
Mof_H 	H 	0.0233	0.3353	0.6617	0.116
Mof_O 	O 	0.0701	0.2335	0.6006	0.332
Mof_O 	O 	0.0782	0.5113	0.5836	-0.304
Mof_O 	O 	0.0828	0.44	0.6543	-0.321
Mof_P 	P 	0.06583	0.4036	0.6119	0.844
Mof_C 	C 	0.1239	0.2242	0.5472	0.018
Mof_H 	H 	0.1118	0.2849	0.5612	0.032
Mof_C 	C 	0.11312	0.2016	0.5064	-0.047
Mof_H 	H 	0.0937	0.2468	0.4926	0.046
Mof_C 	C 	0.1308	0.1128	0.48585	-0.017
Mof_C 	C 	0.1591	0.0466	0.506	-0.019
Mof_H 	H 	0.1712	0.9859	0.492	0.032
Mof_C 	C 	0.1699	0.0692	0.5468	0.014
Mof_H 	H 	0.1893	0.024	0.5605	0.034
Mof_C 	C 	0.1522	0.158	0.56734	-0.061
Mof_O 	O 	0.1998	0.1588	0.6329	-0.294
Mof_O 	O 	0.1514	0.3097	0.6357	-0.249
Mof_O 	O 	0.1517	0.0196	0.6375	-0.162
Mof_P 	P 	0.16425	0.1654	0.62051	-0.164
Mof_C 	C 	0.1358	0.994	0.3116	-0.122
Mof_H 	H 	0.1157	0.0398	0.3012	0.064
Mof_C 	C 	0.1555	0.963	0.2868	0.123
Mof_H 	H 	0.1492	0.99	0.2594	-0.133
Mof_C 	C 	0.1915	0.833	0.3404	0.05
Mof_H 	H 	0.2088	0.7642	0.3491	0.013
Mof_C 	C 	0.1732	0.876	0.3659	-0.094
Mof_H 	H 	0.1797	0.8503	0.3933	0.064
Mof_O 	O 	0.9219	0.2472	0.3173	-0.043
Mof_O 	O 	0.9157	0.007	0.3543	-0.354
Mof_O 	O 	0.9205	0.986	0.2848	-0.508
Mof_P 	P 	0.9305	0.0736	0.3219	0.73
Mof_C 	C 	0.0204	0.161	0.3885	-0.036
Mof_H 	H 	0.0305	0.2273	0.4098	0.041
Mof_C 	C 	0.9882	0.168	0.3747	-0.025
Mof_H 	H 	0.9762	0.2388	0.3864	0.031
Mof_C 	C 	0.0382	0.06	0.3719	-0.006
Mof_C 	C 	0.9905	0.969	0.3261	-0.09
Mof_H 	H 	0.9803	0.9033	0.3048	0.062
Mof_C 	C 	0.9735	0.072	0.3436	0.019
Mof_C 	C 	0.0228	0.965	0.3408	0.068
Mof_H 	H 	0.0349	0.8942	0.3293	0.002
Mof_Ba	Ba	0.12985	0.139	0.69757	0.913
Mof_Ba	Ba	0.12533	0.0767	0.6924	0.79
Mof_Ba	Ba	0.8695	0.3453	0.36578	0.914
Mof_Ba	Ba	0.8742	0.263	0.36881	0.774
Mof_Ba	Ba	0.78287	0.0995	0.30642	0.679
Mof_C 	C 	0.9583	0.412	0.6002	0.054
Mof_C 	C 	0.9675	0.298	0.5764	-0.374
Mof_H 	H 	0.952	0.2454	0.5568	0.15
Mof_C 	C 	0.9992	0.261	0.5814	0.448
Mof_H 	H 	0.0054	0.1835	0.5652	-0.097
Mof_C 	C 	0.0218	0.338	0.6102	-0.775
Mof_C 	C 	0.0127	0.452	0.6339	0.208
Mof_H 	H 	0.0282	0.5042	0.6536	-0.046
Mof_C 	C 	0.981	0.489	0.6289	-0.647
Mof_H 	H 	0.9747	0.5662	0.6452	0.231
Mof_P 	P 	0.0633	0.3035	0.6108	-0.641
Mof_O 	O 	0.0726	0.4	0.5784	-0.239
Mof_O 	O 	0.0648	0.1322	0.5975	-0.224
Mof_O 	O 	0.0824	0.308	0.6537	-0.138
Mof_C 	C 	0.1516	0.116	0.5657	-0.009
Mof_C 	C 	0.1196	0.09	0.5503	-0.055
Mof_H 	H 	0.1057	0.081	0.5677	0.04
Mof_C 	C 	0.1079	0.076	0.5094	-0.032
Mof_H 	H 	0.086	0.0578	0.4989	0.03
Mof_C 	C 	0.1281	0.089	0.484	0.014
Mof_C 	C 	0.1601	0.115	0.4995	-0.036
Mof_H 	H 	0.174	0.1242	0.4821	0.033
Mof_C 	C 	0.1718	0.129	0.5403	-0.059
Mof_H 	H 	0.1937	0.1474	0.5509	0.05
Mof_P 	P 	0.1688	0.085	0.6165	0.619
Mof_O 	O 	0.1513	0.954	0.6323	-0.478
Mof_O 	O 	0.2033	0.037	0.6218	-0.279
Mof_O 	O 	0.1634	0.239	0.6359	-0.162
Mof_Ba	Ba	0.71164	0.09558	0.1954	1.813
Mof_C 	C 	0.4277	0.543	0.1128	0.08
Mof_C 	C 	0.41532	0.5793	0.0736	-0.137
Mof_H 	H 	0.4288	0.6099	0.0571	0.069
Mof_C 	C 	0.38326	0.5714	0.0583	0.07
Mof_C 	C 	0.3636	0.5275	0.0818	-0.122
Mof_H 	H 	0.3415	0.5223	0.0711	0.068
Mof_C 	C 	0.3758	0.4909	0.1212	0.056
Mof_N 	N 	0.4081	0.4953	0.1369	-0.132
Mof_C 	C 	0.3154	0.3923	0.1986	-0.158
Mof_C 	C 	0.35487	0.4581	0.1481	0.078
Mof_C 	C 	0.3069	0.5088	0.1689	0.029
Mof_H 	H 	0.2879	0.5659	0.1662	0.016
Mof_C 	C 	0.3429	0.313	0.2022	-0.009
Mof_H 	H 	0.3486	0.2347	0.2221	-0.043
Mof_C 	C 	0.363	0.3442	0.1772	-0.047
Mof_H 	H 	0.3822	0.2878	0.1801	0.036
Mof_C 	C 	0.3264	0.538	0.1441	-0.073
Mof_H 	H 	0.3204	0.6142	0.1237	0.059
Mof_C 	C 	0.6868	0.8985	0.0641	-0.11
Mof_C 	C 	0.6938	0.0157	0.0394	0.016
Mof_H 	H 	0.7118	0.0807	0.0484	0.034
Mof_C 	C 	0.6745	0.0371	0.0014	-0.09
Mof_H 	H 	0.6792	0.1167	0.9845	0.069
Mof_C 	C 	0.6483	0.9423	0.9882	0.034
Mof_C 	C 	0.6408	0.8264	0.0118	-0.106
Mof_H 	H 	0.6228	0.762	0.0026	0.052
Mof_C 	C 	0.6609	0.8042	0.0512	0.014
Mof_H 	H 	0.6561	0.7246	0.068	-0.047
Mof_C 	C 	0.6262	0.9711	0.948	0.068
Mof_N 	N 	0.6384	0.0178	0.9167	-0.124
Mof_C 	C 	0.6181	0.0409	0.8805	0.075
Mof_C 	C 	0.5865	0.0126	0.8754	-0.112
Mof_H 	H 	0.5726	0.027	0.8501	0.055
Mof_C 	C 	0.575	0.9632	0.9072	0.034
Mof_C 	C 	0.5947	0.9421	0.9437	-0.116
Mof_H 	H 	0.5868	0.9081	0.9657	0.062
Mof_C 	C 	0.631	0.087	0.8452	0.03
Mof_C 	C 	0.6597	0.0288	0.8413	-0.079
Mof_H 	H 	0.6722	0.9669	0.8619	0.058
Mof_C 	C 	0.6703	0.0602	0.8074	0.017
Mof_H 	H 	0.6901	0.0201	0.8049	0.026
Mof_C 	C 	0.6525	0.1487	0.7775	-0.104
Mof_C 	C 	0.6242	0.2065	0.7817	0.025
Mof_H 	H 	0.6118	0.269	0.7613	0.022
Mof_C 	C 	0.6138	0.175	0.8154	-0.1
Mof_H 	H 	0.594	0.2157	0.8177	0.063
Mof_O 	O 	0.26804	0.4943	0.2292	-0.544
Mof_O 	O 	0.27299	0.202	0.2218	-0.5
Mof_O 	O 	0.31137	0.3482	0.2743	-0.649
Mof_O 	O 	0.6896	0.8441	0.14171	-0.606
Mof_O 	O 	0.729	0.7131	0.1127	-0.284
Mof_O 	O 	0.7313	0.0086	0.1237	-0.369
Mof_O 	O 	0.69926	0.1627	0.7382	-0.498
Mof_O 	O 	0.65115	0.0154	0.7061	-0.525
Mof_O 	O 	0.6506	0.3072	0.7093	-0.5
Mof_O 	O 	0.5834	0.646	0.1515	-0.335
Mof_O 	O 	0.5673	0.837	0.197	-0.108
Mof_O 	O 	0.5775	0.562	0.2178	0.07
Mof_O 	O 	0.75494	0.338	0.19517	-0.379
Mof_P 	P 	0.28996	0.3552	0.23209	0.463
Mof_P 	P 	0.71054	0.87	0.11292	0.415
Mof_P 	P 	0.66398	0.1605	0.73086	0.432
Mof_P 	P 	0.56607	0.6615	0.1828	-0.262
Mof_C 	C 	0.5039	0.617	0.1861	0.026
Mof_H 	H 	0.511	0.6398	0.2137	0.023
Mof_C 	C 	0.4615	0.554	0.1304	-0.001
Mof_C 	C 	0.5252	0.613	0.1628	-0.034
Mof_C 	C 	0.4724	0.588	0.1705	-0.107
Mof_H 	H 	0.458	0.5906	0.1872	0.065
Mof_C 	C 	0.4832	0.55	0.1072	-0.021
Mof_H 	H 	0.4763	0.5263	0.0797	0.032
Mof_C 	C 	0.5144	0.579	0.1232	-0.008
Mof_H 	H 	0.5288	0.5753	0.1065	0.056
Mof_Ba	Ba	0.37468	0.7399	0.80031	0.396
Mof_Ba	Ba	0.62161	0.9344	0.13214	0.053
Mof_Ba	Ba	0.7096	0.5856	0.1909	0.788
Mof_C 	C 	0.5219	0.886	0.8676	0.471
Mof_C 	C 	0.5405	0.943	0.903	-0.014
Mof_C 	C 	0.5265	0.989	0.9335	0.248
Mof_H 	H 	0.5392	0.0282	0.9577	-0.055
Mof_C 	C 	0.494	0.978	0.9284	-0.498
Mof_H 	H 	0.4845	0.009	0.9492	0.198
Mof_C 	C 	0.4755	0.92	0.893	0.763
Mof_C 	C 	0.4894	0.874	0.8626	-0.219
Mof_H 	H 	0.4767	0.8353	0.8383	0.112
Mof_O 	O 	0.4299	0.7335	0.8994	0.345
Mof_O 	O 	0.4218	0.0113	0.9164	-0.312
Mof_O 	O 	0.4172	0.94	0.8457	-0.353
Mof_P 	P 	0.43417	0.9036	0.8881	0.855
Mof_C 	C 	0.3761	0.7242	0.9528	0.038
Mof_H 	H 	0.3882	0.7849	0.9388	0.022
Mof_C 	C 	0.38688	0.7016	0.9936	-0.066
Mof_H 	H 	0.4063	0.7468	0.0074	0.053
Mof_C 	C 	0.3692	0.6128	0.01415	-0.018
Mof_C 	C 	0.3409	0.5466	0.994	-0.015
Mof_H 	H 	0.3288	0.4859	0.008	0.032
Mof_C 	C 	0.3301	0.5692	0.9532	0.016
Mof_H 	H 	0.3107	0.524	0.9395	0.031
Mof_C 	C 	0.3478	0.658	0.93266	-0.06
Mof_O 	O 	0.3002	0.6588	0.8671	-0.297
Mof_O 	O 	0.3486	0.8097	0.8643	-0.294
Mof_O 	O 	0.3483	0.5196	0.8625	-0.334
Mof_P 	P 	0.33575	0.6654	0.87949	-0.148
Mof_C 	C 	0.3642	0.494	0.1884	-0.127
Mof_H 	H 	0.3843	0.5398	0.1988	0.071
Mof_C 	C 	0.3445	0.463	0.2132	0.097
Mof_H 	H 	0.3508	0.49	0.2406	-0.11
Mof_C 	C 	0.3085	0.333	0.1596	0.039
Mof_H 	H 	0.2912	0.2642	0.1509	0.015
Mof_C 	C 	0.3268	0.376	0.1341	-0.096
Mof_H 	H 	0.3203	0.3503	0.1067	0.064
Mof_O 	O 	0.5781	0.7472	0.1827	-0.067
Mof_O 	O 	0.5843	0.507	0.1457	-0.302
Mof_O 	O 	0.5795	0.486	0.2152	-0.502
Mof_P 	P 	0.5695	0.5736	0.1781	0.694
Mof_C 	C 	0.4796	0.661	0.1115	-0.046
Mof_H 	H 	0.4695	0.7273	0.0902	0.046
Mof_C 	C 	0.5118	0.668	0.1253	-0.031
Mof_H 	H 	0.5238	0.7388	0.1136	0.034
Mof_C 	C 	0.4618	0.56	0.1281	-0.003
Mof_C 	C 	0.5095	0.469	0.1739	-0.082
Mof_H 	H 	0.5197	0.4033	0.1952	0.054
Mof_C 	C 	0.5265	0.572	0.1564	0.016
Mof_C 	C 	0.4772	0.465	0.1592	0.034
Mof_H 	H 	0.4651	0.3942	0.1707	0.009
Mof_Ba	Ba	0.37015	0.639	0.80243	0.829
Mof_Ba	Ba	0.37467	0.5767	0.8076	0.389
Mof_Ba	Ba	0.6305	0.8453	0.13422	0.894
Mof_Ba	Ba	0.6258	0.763	0.13119	0.619
Mof_Ba	Ba	0.71713	0.5995	0.19358	0.712
Mof_C 	C 	0.5417	0.912	0.8998	0.061
Mof_C 	C 	0.5325	0.798	0.9236	-0.381
Mof_H 	H 	0.548	0.7454	0.9432	0.152
Mof_C 	C 	0.5008	0.761	0.9186	0.451
Mof_H 	H 	0.4946	0.6835	0.9348	-0.099
Mof_C 	C 	0.4782	0.838	0.8898	-0.777
Mof_C 	C 	0.4873	0.952	0.8661	0.208
Mof_H 	H 	0.4718	0.0042	0.8464	-0.041
Mof_C 	C 	0.519	0.989	0.8711	-0.681
Mof_H 	H 	0.5253	0.0662	0.8548	0.245
Mof_P 	P 	0.4367	0.8035	0.8892	-0.654
Mof_O 	O 	0.4274	0.9	0.9216	-0.244
Mof_O 	O 	0.4352	0.6322	0.9025	-0.232
Mof_O 	O 	0.4176	0.808	0.8463	-0.174
Mof_C 	C 	0.3484	0.616	0.9343	-0.017
Mof_C 	C 	0.3804	0.59	0.9497	-0.072
Mof_H 	H 	0.3943	0.581	0.9323	0.046
Mof_C 	C 	0.3921	0.576	0.9906	-0.015
Mof_H 	H 	0.414	0.5578	0.0011	0.025
Mof_C 	C 	0.3719	0.589	0.016	0.019
Mof_C 	C 	0.3399	0.615	0.0005	-0.042
Mof_H 	H 	0.326	0.6242	0.0179	0.035
Mof_C 	C 	0.3282	0.629	0.9597	-0.058
Mof_H 	H 	0.3063	0.6474	0.9491	0.049
Mof_P 	P 	0.3312	0.585	0.8835	0.626
Mof_O 	O 	0.3487	0.454	0.8677	-0.273
Mof_O 	O 	0.2967	0.537	0.8782	-0.287
Mof_O 	O 	0.3366	0.739	0.8641	-0.134
Mof_Ba	Ba	0.21164	0.59558	0.1954	1.859
Mof_C 	C 	0.9277	0.043	0.1128	0.078
Mof_C 	C 	0.91532	0.0793	0.0736	-0.14
Mof_H 	H 	0.9288	0.1099	0.0571	0.07
Mof_C 	C 	0.88326	0.0714	0.0583	0.075
Mof_C 	C 	0.8636	0.0275	0.0818	-0.134
Mof_H 	H 	0.8415	0.0223	0.0711	0.07
Mof_C 	C 	0.8758	0.9909	0.1212	0.066
Mof_N 	N 	0.9081	0.9953	0.1369	-0.129
Mof_C 	C 	0.8154	0.8923	0.1986	-0.146
Mof_C 	C 	0.85487	0.9581	0.1481	0.074
Mof_C 	C 	0.8069	0.0088	0.1689	0.006
Mof_H 	H 	0.7879	0.0659	0.1662	0.022
Mof_C 	C 	0.8429	0.813	0.2022	-0.038
Mof_H 	H 	0.8486	0.7347	0.2221	-0.014
Mof_C 	C 	0.863	0.8442	0.1772	-0.035
Mof_H 	H 	0.8822	0.7878	0.1801	0.038
Mof_C 	C 	0.8264	0.038	0.1441	-0.072
Mof_H 	H 	0.8204	0.1142	0.1237	0.057
Mof_C 	C 	0.1868	0.3985	0.0641	-0.113
Mof_C 	C 	0.1938	0.5157	0.0394	0.022
Mof_H 	H 	0.2118	0.5807	0.0484	0.033
Mof_C 	C 	0.1745	0.5371	0.0014	-0.092
Mof_H 	H 	0.1792	0.6167	0.9845	0.068
Mof_C 	C 	0.1483	0.4423	0.9882	0.033
Mof_C 	C 	0.1408	0.3264	0.0118	-0.107
Mof_H 	H 	0.1228	0.262	0.0026	0.051
Mof_C 	C 	0.1609	0.3042	0.0512	0.015
Mof_H 	H 	0.1561	0.2246	0.068	-0.048
Mof_C 	C 	0.1262	0.4711	0.948	0.075
Mof_N 	N 	0.1384	0.5178	0.9167	-0.128
Mof_C 	C 	0.1181	0.5409	0.8805	0.073
Mof_C 	C 	0.0865	0.5126	0.8754	-0.123
Mof_H 	H 	0.0726	0.527	0.8501	0.058
Mof_C 	C 	0.075	0.4632	0.9072	0.049
Mof_C 	C 	0.0947	0.4421	0.9437	-0.124
Mof_H 	H 	0.0868	0.4081	0.9657	0.065
Mof_C 	C 	0.131	0.587	0.8452	0.042
Mof_C 	C 	0.1597	0.5288	0.8413	-0.106
Mof_H 	H 	0.1722	0.4669	0.8619	0.073
Mof_C 	C 	0.1703	0.5602	0.8074	0.033
Mof_H 	H 	0.1901	0.5201	0.8049	0.018
Mof_C 	C 	0.1525	0.6487	0.7775	-0.113
Mof_C 	C 	0.1242	0.7065	0.7817	0.039
Mof_H 	H 	0.1118	0.769	0.7613	0.014
Mof_C 	C 	0.1138	0.675	0.8154	-0.111
Mof_H 	H 	0.094	0.7157	0.8177	0.067
Mof_O 	O 	0.76804	0.9943	0.2292	-0.534
Mof_O 	O 	0.77299	0.702	0.2218	-0.5
Mof_O 	O 	0.81137	0.8482	0.2743	-0.649
Mof_O 	O 	0.1896	0.3441	0.14171	-0.608
Mof_O 	O 	0.229	0.2131	0.1127	-0.285
Mof_O 	O 	0.2313	0.5086	0.1237	-0.365
Mof_O 	O 	0.19926	0.6627	0.7382	-0.502
Mof_O 	O 	0.15115	0.5154	0.7061	-0.49
Mof_O 	O 	0.1506	0.8072	0.7093	-0.54
Mof_O 	O 	0.0834	0.146	0.1515	-0.352
Mof_O 	O 	0.0673	0.337	0.197	-0.107
Mof_O 	O 	0.0775	0.062	0.2178	0.058
Mof_O 	O 	0.25494	0.838	0.19517	-0.377
Mof_P 	P 	0.78996	0.8552	0.23209	0.463
Mof_P 	P 	0.21054	0.37	0.11292	0.412
Mof_P 	P 	0.16398	0.6605	0.73086	0.435
Mof_P 	P 	0.06607	0.1615	0.1828	-0.318
Mof_C 	C 	0.0039	0.117	0.1861	0.035
Mof_H 	H 	0.011	0.1398	0.2137	0.02
Mof_C 	C 	0.9615	0.054	0.1304	-0.002
Mof_C 	C 	0.0252	0.113	0.1628	-0.033
Mof_C 	C 	0.9724	0.088	0.1705	-0.136
Mof_H 	H 	0.958	0.0906	0.1872	0.073
Mof_C 	C 	0.9832	0.05	0.1072	-0.031
Mof_H 	H 	0.9763	0.0263	0.0797	0.034
Mof_C 	C 	0.0144	0.079	0.1232	-0.017
Mof_H 	H 	0.0288	0.0753	0.1065	0.058
Mof_Ba	Ba	0.87468	0.2399	0.80031	-0.102
Mof_Ba	Ba	0.12161	0.4344	0.13214	-0.117
Mof_Ba	Ba	0.2096	0.0856	0.1909	0.781
Mof_C 	C 	0.0219	0.386	0.8676	0.457
Mof_C 	C 	0.0405	0.443	0.903	-0.014
Mof_C 	C 	0.0265	0.489	0.9335	0.249
Mof_H 	H 	0.0392	0.5282	0.9577	-0.057
Mof_C 	C 	0.994	0.478	0.9284	-0.493
Mof_H 	H 	0.9845	0.509	0.9492	0.193
Mof_C 	C 	0.9755	0.42	0.893	0.763
Mof_C 	C 	0.9894	0.374	0.8626	-0.219
Mof_H 	H 	0.9767	0.3353	0.8383	0.117
Mof_O 	O 	0.9299	0.2335	0.8994	0.332
Mof_O 	O 	0.9218	0.5113	0.9164	-0.304
Mof_O 	O 	0.9172	0.44	0.8457	-0.321
Mof_P 	P 	0.93417	0.4036	0.8881	0.845
Mof_C 	C 	0.8761	0.2242	0.9528	0.019
Mof_H 	H 	0.8882	0.2849	0.9388	0.032
Mof_C 	C 	0.88688	0.2016	0.9936	-0.048
Mof_H 	H 	0.9063	0.2468	0.0074	0.046
Mof_C 	C 	0.8692	0.1128	0.01415	-0.017
Mof_C 	C 	0.8409	0.0466	0.994	-0.02
Mof_H 	H 	0.8288	0.9859	0.008	0.033
Mof_C 	C 	0.8301	0.0692	0.9532	0.014
Mof_H 	H 	0.8107	0.024	0.9395	0.034
Mof_C 	C 	0.8478	0.158	0.93266	-0.06
Mof_O 	O 	0.8002	0.1588	0.8671	-0.294
Mof_O 	O 	0.8486	0.3097	0.8643	-0.248
Mof_O 	O 	0.8483	0.0196	0.8625	-0.16
Mof_P 	P 	0.83575	0.1654	0.87949	-0.164
Mof_C 	C 	0.8642	0.994	0.1884	-0.121
Mof_H 	H 	0.8843	0.0398	0.1988	0.064
Mof_C 	C 	0.8445	0.963	0.2132	0.122
Mof_H 	H 	0.8508	0.99	0.2406	-0.132
Mof_C 	C 	0.8085	0.833	0.1596	0.05
Mof_H 	H 	0.7912	0.7642	0.1509	0.013
Mof_C 	C 	0.8268	0.876	0.1341	-0.094
Mof_H 	H 	0.8203	0.8503	0.1067	0.064
Mof_O 	O 	0.0781	0.2472	0.1827	-0.043
Mof_O 	O 	0.0843	0.007	0.1457	-0.354
Mof_O 	O 	0.0795	0.986	0.2152	-0.509
Mof_P 	P 	0.0695	0.0736	0.1781	0.73
Mof_C 	C 	0.9796	0.161	0.1115	-0.036
Mof_H 	H 	0.9695	0.2273	0.0902	0.041
Mof_C 	C 	0.0118	0.168	0.1253	-0.025
Mof_H 	H 	0.0238	0.2388	0.1136	0.031
Mof_C 	C 	0.9618	0.06	0.1281	-0.006
Mof_C 	C 	0.0095	0.969	0.1739	-0.09
Mof_H 	H 	0.0197	0.9033	0.1952	0.062
Mof_C 	C 	0.0265	0.072	0.1564	0.018
Mof_C 	C 	0.9772	0.965	0.1592	0.069
Mof_H 	H 	0.9651	0.8942	0.1707	0.002
Mof_Ba	Ba	0.87015	0.139	0.80243	0.914
Mof_Ba	Ba	0.87467	0.0767	0.8076	0.794
Mof_Ba	Ba	0.1305	0.3453	0.13422	0.915
Mof_Ba	Ba	0.1258	0.263	0.13119	0.776
Mof_Ba	Ba	0.21713	0.0995	0.19358	0.679
Mof_C 	C 	0.0417	0.412	0.8998	0.054
Mof_C 	C 	0.0325	0.298	0.9236	-0.375
Mof_H 	H 	0.048	0.2454	0.9432	0.15
Mof_C 	C 	0.0008	0.261	0.9186	0.448
Mof_H 	H 	0.9946	0.1835	0.9348	-0.097
Mof_C 	C 	0.9782	0.338	0.8898	-0.777
Mof_C 	C 	0.9873	0.452	0.8661	0.209
Mof_H 	H 	0.9718	0.5042	0.8464	-0.046
Mof_C 	C 	0.019	0.489	0.8711	-0.648
Mof_H 	H 	0.0253	0.5662	0.8548	0.231
Mof_P 	P 	0.9367	0.3035	0.8892	-0.642
Mof_O 	O 	0.9274	0.4	0.9216	-0.239
Mof_O 	O 	0.9352	0.1322	0.9025	-0.224
Mof_O 	O 	0.9176	0.308	0.8463	-0.138
Mof_C 	C 	0.8484	0.116	0.9343	-0.009
Mof_C 	C 	0.8804	0.09	0.9497	-0.057
Mof_H 	H 	0.8943	0.081	0.9323	0.04
Mof_C 	C 	0.8921	0.076	0.9906	-0.03
Mof_H 	H 	0.914	0.0578	0.0011	0.029
Mof_C 	C 	0.8719	0.089	0.016	0.014
Mof_C 	C 	0.8399	0.115	0.0005	-0.034
Mof_H 	H 	0.826	0.1242	0.0179	0.033
Mof_C 	C 	0.8282	0.129	0.9597	-0.058
Mof_H 	H 	0.8063	0.1474	0.9491	0.05
Mof_P 	P 	0.8312	0.085	0.8835	0.619
Mof_O 	O 	0.8487	0.954	0.8677	-0.48
Mof_O 	O 	0.7967	0.037	0.8782	-0.278
Mof_O 	O 	0.8366	0.239	0.8641	-0.162
_end
