data_functionalizedCrystal
_audit_creation_method	'EQeq! by Chris Wilmer'
_symmetry_space_group_name_H-M	'P1'
_symmetry_Int_Tables_number	1
_symmetry_cell_setting	triclinic
loop_
_symmetry_equiv_pos_as_xyz
  x,y,z
_cell_length_a	15.1262
_cell_length_b	15.1262
_cell_length_c	15.1262
_cell_angle_alpha	103.594
_cell_angle_beta	103.594
_cell_angle_gamma	103.594
loop_
_atom_site_label
_atom_site_type_symbol
_atom_site_fract_x
_atom_site_fract_y
_atom_site_fract_z
_atom_site_charge
Mof_Cu	Cu	0.57499	0.97998	0.97998	0.91
Mof_Cu	Cu	0.97998	0.57499	0.97998	0.91
Mof_Cu	Cu	0.97998	0.97998	0.57499	0.91
Mof_Cu	Cu	0.02002	0.42501	0.02002	0.904
Mof_Cu	Cu	0.42501	0.02002	0.02002	0.904
Mof_Cu	Cu	0.02002	0.02002	0.42501	0.904
Mof_H 	H 	0.5081	0.6957	0.9817	0.057
Mof_H 	H 	0.9817	0.5081	0.6957	0.057
Mof_H 	H 	0.6957	0.9817	0.5081	0.057
Mof_H 	H 	0.3043	0.4919	0.0183	0.056
Mof_H 	H 	0.4919	0.0183	0.3043	0.056
Mof_H 	H 	0.0183	0.3043	0.4919	0.056
Mof_H 	H 	0.4919	0.3043	0.0183	0.056
Mof_H 	H 	0.0183	0.4919	0.3043	0.056
Mof_H 	H 	0.3043	0.0183	0.4919	0.056
Mof_H 	H 	0.6957	0.5081	0.9817	0.057
Mof_H 	H 	0.5081	0.9817	0.6957	0.057
Mof_H 	H 	0.9817	0.6957	0.5081	0.057
Mof_H 	H 	0.25975	0.74025	-0	0.051
Mof_H 	H 	2.74029e-17	0.25975	0.74025	0.051
Mof_H 	H 	0.74025	0	0.25975	0.051
Mof_H 	H 	0.74025	0.25975	-0	0.051
Mof_H 	H 	1.82686e-17	0.74025	0.25975	0.051
Mof_H 	H 	0.25975	3.65371e-17	0.74025	0.051
Mof_C 	C 	0.425	0.83	0.9845	0.377
Mof_C 	C 	0.3889	0.732	0.9893	-0.087
Mof_C 	C 	0.4468	0.6742	0.9892	-0.009
Mof_C 	C 	0.9845	0.425	0.83	0.377
Mof_C 	C 	0.9893	0.3889	0.732	-0.087
Mof_C 	C 	0.9892	0.4468	0.6742	-0.009
Mof_C 	C 	0.83	0.9845	0.425	0.377
Mof_C 	C 	0.732	0.9893	0.3889	-0.087
Mof_C 	C 	0.6742	0.9892	0.4468	-0.009
Mof_C 	C 	0.17	0.575	0.0155	0.365
Mof_C 	C 	0.268	0.6111	0.0107	-0.089
Mof_C 	C 	0.3258	0.5532	0.0108	-0.015
Mof_C 	C 	0.575	0.0155	0.17	0.365
Mof_C 	C 	0.6111	0.0107	0.268	-0.089
Mof_C 	C 	0.5532	0.0108	0.3258	-0.015
Mof_C 	C 	0.0155	0.17	0.575	0.365
Mof_C 	C 	0.0107	0.268	0.6111	-0.089
Mof_C 	C 	0.0108	0.3258	0.5532	-0.015
Mof_C 	C 	0.575	0.17	0.0155	0.365
Mof_C 	C 	0.6111	0.268	0.0107	-0.089
Mof_C 	C 	0.5532	0.3258	0.0108	-0.015
Mof_C 	C 	0.0155	0.575	0.17	0.365
Mof_C 	C 	0.0107	0.6111	0.268	-0.089
Mof_C 	C 	0.0108	0.5532	0.3258	-0.015
Mof_C 	C 	0.17	0.0155	0.575	0.365
Mof_C 	C 	0.268	0.0107	0.6111	-0.089
Mof_C 	C 	0.3258	0.0108	0.5532	-0.015
Mof_C 	C 	0.83	0.425	0.9845	0.377
Mof_C 	C 	0.732	0.3889	0.9893	-0.087
Mof_C 	C 	0.6742	0.4468	0.9892	-0.009
Mof_C 	C 	0.425	0.9845	0.83	0.377
Mof_C 	C 	0.3889	0.9893	0.732	-0.087
Mof_C 	C 	0.4468	0.9892	0.6742	-0.009
Mof_C 	C 	0.9845	0.83	0.425	0.377
Mof_C 	C 	0.9893	0.732	0.3889	-0.087
Mof_C 	C 	0.9892	0.6742	0.4468	-0.009
Mof_C 	C 	0.29975	0.70025	-0	0.032
Mof_C 	C 	0.41565	0.58435	-0	0.007
Mof_C 	C 	0.47525	0.52475	-0	-0.009
Mof_C 	C 	-9.13429e-18	0.29975	0.70025	0.032
Mof_C 	C 	-1.82686e-17	0.41565	0.58435	0.007
Mof_C 	C 	3.65371e-17	0.47525	0.52475	-0.009
Mof_C 	C 	0.70025	0	0.29975	0.032
Mof_C 	C 	0.58435	0	0.41565	0.007
Mof_C 	C 	0.52475	1.82686e-17	0.47525	-0.009
Mof_C 	C 	0.70025	0.29975	-0	0.032
Mof_C 	C 	0.58435	0.41565	-0	0.007
Mof_C 	C 	0.52475	0.47525	-0	-0.009
Mof_C 	C 	9.13429e-18	0.70025	0.29975	0.032
Mof_C 	C 	-0	0.58435	0.41565	0.007
Mof_C 	C 	2.28357e-17	0.52475	0.47525	-0.009
Mof_C 	C 	0.29975	3.65371e-17	0.70025	0.032
Mof_C 	C 	0.41565	-3.65371e-17	0.58435	0.007
Mof_C 	C 	0.47525	0	0.52475	-0.009
Mof_O 	O 	0.50253	0.84977	0.9673	-0.413
Mof_O 	O 	0.3758	0.884	0.0001	-0.411
Mof_O 	O 	0.9673	0.50253	0.84977	-0.413
Mof_O 	O 	0.0001	0.3758	0.884	-0.411
Mof_O 	O 	0.84977	0.9673	0.50253	-0.413
Mof_O 	O 	0.884	0.0001	0.3758	-0.411
Mof_O 	O 	0.15023	0.49747	0.0327	-0.415
Mof_O 	O 	0.116	0.6242	0.9999	-0.404
Mof_O 	O 	0.49747	0.0327	0.15023	-0.415
Mof_O 	O 	0.6242	0.9999	0.116	-0.404
Mof_O 	O 	0.0327	0.15023	0.49747	-0.415
Mof_O 	O 	0.9999	0.116	0.6242	-0.404
Mof_O 	O 	0.49747	0.15023	0.0327	-0.415
Mof_O 	O 	0.6242	0.116	0.9999	-0.404
Mof_O 	O 	0.0327	0.49747	0.15023	-0.415
Mof_O 	O 	0.9999	0.6242	0.116	-0.404
Mof_O 	O 	0.15023	0.0327	0.49747	-0.415
Mof_O 	O 	0.116	0.9999	0.6242	-0.404
Mof_O 	O 	0.84977	0.50253	0.9673	-0.413
Mof_O 	O 	0.884	0.3758	0.0001	-0.411
Mof_O 	O 	0.50253	0.9673	0.84977	-0.413
Mof_O 	O 	0.3758	0.0001	0.884	-0.411
Mof_O 	O 	0.9673	0.84977	0.50253	-0.413
Mof_O 	O 	0.0001	0.884	0.3758	-0.411
_end
