data_functionalizedCrystal
_audit_creation_method	'EQeq! by Chris Wilmer'
_symmetry_space_group_name_H-M	'P1'
_symmetry_Int_Tables_number	1
_symmetry_cell_setting	triclinic
loop_
_symmetry_equiv_pos_as_xyz
  x,y,z
_cell_length_a	26.69
_cell_length_b	26.69
_cell_length_c	26.38
_cell_angle_alpha	90
_cell_angle_beta	90
_cell_angle_gamma	90
loop_
_atom_site_label
_atom_site_type_symbol
_atom_site_fract_x
_atom_site_fract_y
_atom_site_fract_z
_atom_site_charge
Mof_N 	N 	0.71329	0.88605	0.19129	-0.212
Mof_O 	O 	0.93249	0.97246	0.22647	-0.395
Mof_O 	O 	0.93	0.97682	0.14201	-0.396
Mof_O 	O 	0.56517	0.01214	0.05223	-0.434
Mof_O 	O 	0.52587	0.93712	0.05185	-0.418
Mof_C 	C 	0.91126	0.96717	0.18445	0.382
Mof_C 	C 	0.85886	0.94677	0.18544	-0.163
Mof_C 	C 	0.83226	0.93929	0.14161	0.114
Mof_H 	H 	0.8466	0.9474	0.1106	0.004
Mof_C 	C 	0.78413	0.91968	0.14318	-0.215
Mof_H 	H 	0.7664	0.9145	0.1133	0.109
Mof_C 	C 	0.76258	0.90791	0.1894	0.182
Mof_C 	C 	0.78867	0.91557	0.23337	-0.212
Mof_H 	H 	0.774	0.9081	0.2644	0.11
Mof_C 	C 	0.83729	0.93455	0.23158	0.108
Mof_H 	H 	0.8553	0.939	0.2614	0.013
Mof_C 	C 	0.67474	0.90635	0.16201	0.216
Mof_C 	C 	0.67243	0.95683	0.15168	-0.273
Mof_H 	H 	0.6965	0.978	0.1655	0.133
Mof_C 	C 	0.63577	0.97662	0.1217	0.199
Mof_H 	H 	0.6351	0.0109	0.1154	-0.042
Mof_C 	C 	0.59952	0.94569	0.10046	-0.206
Mof_C 	C 	0.60062	0.89511	0.11109	0.148
Mof_H 	H 	0.576	0.8743	0.0978	-0.01
Mof_C 	C 	0.63785	0.87508	0.14113	-0.244
Mof_H 	H 	0.6385	0.8408	0.1476	0.117
Mof_C 	C 	0.56018	0.96659	0.0652	0.408
Mof_C 	C 	0.70695	0.8422	0.22073	0.23
Mof_C 	C 	0.74352	0.8058	0.2212	-0.276
Mof_H 	H 	0.7725	0.8099	0.2021	0.131
Mof_C 	C 	0.9686	0.9585	0.0288	0.059
Mof_H 	H 	0.9345	0.9622	0.041	-0.031
Mof_H 	H 	0.9814	0.9267	0.041	0.041
Mof_H 	H 	0.5138	0.1581	0.0296	0.025
Mof_H 	H 	0.5521	0.2259	0.0297	0.066
Mof_H 	H 	0.6285	0.0887	0.0297	0.03
Mof_H 	H 	0.6676	0.1542	0.9704	0.07
Mof_C 	C 	0.5753	0.1301	0.0516	-0.13
Mof_H 	H 	0.5943	0.1046	0.0693	0.07
Mof_H 	H 	0.5445	0.1363	0.07	0.069
Mof_C 	C 	0.6054	0.1776	0.0469	0.051
Mof_H 	H 	0.5878	0.2027	0.0666	0.01
Mof_H 	H 	0.6368	0.1714	0.0643	0.007
Mof_C 	C 	0.0461	0.001	0.4737	0.015
Mof_H 	H 	0.0736	0.9814	0.4832	-0.012
Mof_C 	C 	0.032	0.034	0.4737	-0.001
Mof_H 	H 	0.0364	0.067	0.4831	-0.007
Mof_N 	N 	0.0071	0.0142	0.3139	-0.088
Mof_C 	C 	0.9998	0.9875	0.3599	-0.128
Mof_H 	H 	0.9881	0.9548	0.3629	0.373
Mof_N 	N 	0.0134	0.0196	0.4006	-0.062
Mof_C 	C 	0.0291	0.0661	0.3798	-0.391
Mof_H 	H 	0.04	0.0938	0.398	0.184
Mof_C 	C 	0.0252	0.0627	0.3262	-0.094
Mof_H 	H 	0.0332	0.0879	0.3032	0.081
Mof_C 	C 	0.949	0.9936	0.029	0.118
Mof_H 	H 	0.9279	0.0206	0.0413	0.015
Mof_N 	N 	0.28671	0.11395	0.19129	-0.202
Mof_O 	O 	0.06751	0.02754	0.22647	-0.418
Mof_O 	O 	0.07	0.02318	0.14201	-0.421
Mof_O 	O 	0.43483	0.98786	0.05223	-0.388
Mof_O 	O 	0.47413	0.06288	0.05185	-0.403
Mof_C 	C 	0.08874	0.03283	0.18445	0.385
Mof_C 	C 	0.14114	0.05323	0.18544	-0.174
Mof_C 	C 	0.16774	0.06071	0.14161	0.116
Mof_H 	H 	0.1534	0.0526	0.1106	-0.004
Mof_C 	C 	0.21587	0.08032	0.14318	-0.219
Mof_H 	H 	0.2336	0.0855	0.1133	0.106
Mof_C 	C 	0.23742	0.09209	0.1894	0.181
Mof_C 	C 	0.21133	0.08443	0.23337	-0.216
Mof_H 	H 	0.226	0.0919	0.2644	0.106
Mof_C 	C 	0.16271	0.06545	0.23158	0.109
Mof_H 	H 	0.1447	0.061	0.2614	0.005
Mof_C 	C 	0.32526	0.09365	0.16201	0.163
Mof_C 	C 	0.32757	0.04317	0.15168	-0.176
Mof_H 	H 	0.3035	0.022	0.1655	0.09
Mof_C 	C 	0.36423	0.02338	0.1217	0.042
Mof_H 	H 	0.3649	0.9891	0.1154	0.04
Mof_C 	C 	0.40048	0.05431	0.10046	-0.125
Mof_C 	C 	0.39938	0.10489	0.11109	0.08
Mof_H 	H 	0.424	0.1257	0.0978	0.013
Mof_C 	C 	0.36215	0.12492	0.14113	-0.188
Mof_H 	H 	0.3615	0.1592	0.1476	0.097
Mof_C 	C 	0.43982	0.03341	0.0652	0.331
Mof_C 	C 	0.29305	0.1578	0.22073	0.226
Mof_C 	C 	0.25648	0.1942	0.2212	-0.274
Mof_H 	H 	0.2275	0.1901	0.2021	0.128
Mof_C 	C 	0.0314	0.0415	0.0288	-0.046
Mof_H 	H 	0.0655	0.0378	0.041	0.122
Mof_H 	H 	0.0186	0.0733	0.041	-0.007
Mof_H 	H 	0.4862	0.8419	0.0296	0.027
Mof_H 	H 	0.4479	0.7741	0.0297	0.066
Mof_H 	H 	0.3715	0.9113	0.0297	0.033
Mof_H 	H 	0.3324	0.8458	0.9704	0.072
Mof_C 	C 	0.4247	0.8699	0.0516	-0.13
Mof_H 	H 	0.4057	0.8954	0.0693	0.071
Mof_H 	H 	0.4555	0.8637	0.07	0.07
Mof_C 	C 	0.3946	0.8224	0.0469	0.05
Mof_H 	H 	0.4122	0.7973	0.0666	0.011
Mof_H 	H 	0.3632	0.8286	0.0643	0.009
Mof_C 	C 	0.9539	0.999	0.4737	-0.054
Mof_H 	H 	0.9264	0.0186	0.4832	0.057
Mof_C 	C 	0.968	0.966	0.4737	-0.033
Mof_H 	H 	0.9636	0.933	0.4831	0.046
Mof_N 	N 	0.9929	0.9858	0.3139	0.014
Mof_C 	C 	0.0002	0.0125	0.3599	0.003
Mof_H 	H 	0.0119	0.0452	0.3629	0.296
Mof_N 	N 	0.9866	0.9804	0.4006	-0.005
Mof_C 	C 	0.9709	0.9339	0.3798	-0.46
Mof_H 	H 	0.96	0.9062	0.398	0.22
Mof_C 	C 	0.9748	0.9373	0.3262	-0.107
Mof_H 	H 	0.9668	0.9121	0.3032	0.099
Mof_C 	C 	0.051	0.0064	0.029	-0.236
Mof_H 	H 	0.0721	0.9794	0.0413	0.026
Mof_N 	N 	0.11395	0.71329	0.19129	-0.202
Mof_O 	O 	0.02754	0.93249	0.22647	-0.409
Mof_O 	O 	0.02318	0.93	0.14201	-0.409
Mof_O 	O 	0.98786	0.56517	0.05223	-0.388
Mof_O 	O 	0.06288	0.52587	0.05185	-0.403
Mof_C 	C 	0.03283	0.91126	0.18445	0.385
Mof_C 	C 	0.05323	0.85886	0.18544	-0.17
Mof_C 	C 	0.06071	0.83226	0.14161	0.114
Mof_H 	H 	0.0526	0.8466	0.1106	-0
Mof_C 	C 	0.08032	0.78413	0.14318	-0.216
Mof_H 	H 	0.0855	0.7664	0.1133	0.107
Mof_C 	C 	0.09209	0.76258	0.1894	0.18
Mof_C 	C 	0.08443	0.78867	0.23337	-0.214
Mof_H 	H 	0.0919	0.774	0.2644	0.107
Mof_C 	C 	0.06545	0.83729	0.23158	0.109
Mof_H 	H 	0.061	0.8553	0.2614	0.007
Mof_C 	C 	0.09365	0.67474	0.16201	0.164
Mof_C 	C 	0.04317	0.67243	0.15168	-0.178
Mof_H 	H 	0.022	0.6965	0.1655	0.091
Mof_C 	C 	0.02338	0.63577	0.1217	0.044
Mof_H 	H 	0.9891	0.6351	0.1154	0.039
Mof_C 	C 	0.05431	0.59952	0.10046	-0.126
Mof_C 	C 	0.10489	0.60062	0.11109	0.081
Mof_H 	H 	0.1257	0.576	0.0978	0.012
Mof_C 	C 	0.12492	0.63785	0.14113	-0.189
Mof_H 	H 	0.1592	0.6385	0.1476	0.098
Mof_C 	C 	0.03341	0.56018	0.0652	0.332
Mof_C 	C 	0.1578	0.70695	0.22073	0.226
Mof_C 	C 	0.1942	0.74352	0.2212	-0.274
Mof_H 	H 	0.1901	0.7725	0.2021	0.13
Mof_C 	C 	0.0415	0.9686	0.0288	0.26
Mof_H 	H 	0.0378	0.9345	0.041	0.026
Mof_H 	H 	0.0733	0.9814	0.041	-0.007
Mof_H 	H 	0.8419	0.5138	0.0296	0.027
Mof_H 	H 	0.7741	0.5521	0.0297	0.066
Mof_H 	H 	0.9113	0.6285	0.0297	0.033
Mof_H 	H 	0.8458	0.6676	0.9704	0.072
Mof_C 	C 	0.8699	0.5753	0.0516	-0.13
Mof_H 	H 	0.8954	0.5943	0.0693	0.071
Mof_H 	H 	0.8637	0.5445	0.07	0.07
Mof_C 	C 	0.8224	0.6054	0.0469	0.05
Mof_H 	H 	0.7973	0.5878	0.0666	0.011
Mof_H 	H 	0.8286	0.6368	0.0643	0.009
Mof_C 	C 	0.999	0.0461	0.4737	-0.09
Mof_H 	H 	0.0186	0.0736	0.4832	0.052
Mof_C 	C 	0.966	0.032	0.4737	0.088
Mof_H 	H 	0.933	0.0364	0.4831	-0.042
Mof_N 	N 	0.9858	0.0071	0.3139	-0.051
Mof_C 	C 	0.0125	0.9998	0.3599	-0.086
Mof_H 	H 	0.0452	0.9881	0.3629	0.361
Mof_N 	N 	0.9804	0.0134	0.4006	-0.034
Mof_C 	C 	0.9339	0.0291	0.3798	-0.407
Mof_H 	H 	0.9062	0.04	0.398	0.193
Mof_C 	C 	0.9373	0.0252	0.3262	-0.096
Mof_H 	H 	0.9121	0.0332	0.3032	0.084
Mof_C 	C 	0.0064	0.949	0.029	-0.266
Mof_H 	H 	0.9794	0.9279	0.0413	0.059
Mof_N 	N 	0.88605	0.28671	0.19129	-0.211
Mof_O 	O 	0.97246	0.06751	0.22647	-0.401
Mof_O 	O 	0.97682	0.07	0.14201	-0.405
Mof_O 	O 	0.01214	0.43483	0.05223	-0.434
Mof_O 	O 	0.93712	0.47413	0.05185	-0.417
Mof_C 	C 	0.96717	0.08874	0.18445	0.383
Mof_C 	C 	0.94677	0.14114	0.18544	-0.166
Mof_C 	C 	0.93929	0.16774	0.14161	0.115
Mof_H 	H 	0.9474	0.1534	0.1106	0.002
Mof_C 	C 	0.91968	0.21587	0.14318	-0.217
Mof_H 	H 	0.9145	0.2336	0.1133	0.108
Mof_C 	C 	0.90791	0.23742	0.1894	0.183
Mof_C 	C 	0.91557	0.21133	0.23337	-0.213
Mof_H 	H 	0.9081	0.226	0.2644	0.109
Mof_C 	C 	0.93455	0.16271	0.23158	0.109
Mof_H 	H 	0.939	0.1447	0.2614	0.011
Mof_C 	C 	0.90635	0.32526	0.16201	0.217
Mof_C 	C 	0.95683	0.32757	0.15168	-0.275
Mof_H 	H 	0.978	0.3035	0.1655	0.134
Mof_C 	C 	0.97662	0.36423	0.1217	0.201
Mof_H 	H 	0.0109	0.3649	0.1154	-0.043
Mof_C 	C 	0.94569	0.40048	0.10046	-0.207
Mof_C 	C 	0.89511	0.39938	0.11109	0.149
Mof_H 	H 	0.8743	0.424	0.0978	-0.01
Mof_C 	C 	0.87508	0.36215	0.14113	-0.245
Mof_H 	H 	0.8408	0.3615	0.1476	0.117
Mof_C 	C 	0.96659	0.43982	0.0652	0.409
Mof_C 	C 	0.8422	0.29305	0.22073	0.23
Mof_C 	C 	0.8058	0.25648	0.2212	-0.276
Mof_H 	H 	0.8099	0.2275	0.2021	0.129
Mof_C 	C 	0.9585	0.0314	0.0288	-0.244
Mof_H 	H 	0.9622	0.0655	0.041	0.063
Mof_H 	H 	0.9267	0.0186	0.041	0.043
Mof_H 	H 	0.1581	0.4862	0.0296	0.025
Mof_H 	H 	0.2259	0.4479	0.0297	0.066
Mof_H 	H 	0.0887	0.3715	0.0297	0.03
Mof_H 	H 	0.1542	0.3324	0.9704	0.069
Mof_C 	C 	0.1301	0.4247	0.0516	-0.13
Mof_H 	H 	0.1046	0.4057	0.0693	0.07
Mof_H 	H 	0.1363	0.4555	0.07	0.069
Mof_C 	C 	0.1776	0.3946	0.0469	0.051
Mof_H 	H 	0.2027	0.4122	0.0666	0.01
Mof_H 	H 	0.1714	0.3632	0.0643	0.007
Mof_C 	C 	0.001	0.9539	0.4737	0.063
Mof_H 	H 	0.9814	0.9264	0.4832	-0.019
Mof_C 	C 	0.034	0.968	0.4737	-0.115
Mof_H 	H 	0.067	0.9636	0.4831	0.072
Mof_N 	N 	0.0142	0.9929	0.3139	-0.039
Mof_C 	C 	0.9875	0.0002	0.3599	-0.049
Mof_H 	H 	0.9548	0.0119	0.3629	0.313
Mof_N 	N 	0.0196	0.9866	0.4006	-0.019
Mof_C 	C 	0.0661	0.9709	0.3798	-0.456
Mof_H 	H 	0.0938	0.96	0.398	0.216
Mof_C 	C 	0.0627	0.9748	0.3262	-0.096
Mof_H 	H 	0.0879	0.9668	0.3032	0.094
Mof_C 	C 	0.9936	0.051	0.029	0.157
Mof_H 	H 	0.0206	0.0721	0.0413	-0.02
Mof_N 	N 	0.78671	0.38605	0.30871	-0.206
Mof_O 	O 	0.56751	0.47246	0.27353	-0.41
Mof_O 	O 	0.57	0.47682	0.35799	-0.412
Mof_O 	O 	0.93483	0.51214	0.44777	-0.405
Mof_O 	O 	0.97413	0.43712	0.44815	-0.396
Mof_C 	C 	0.58874	0.46717	0.31555	0.386
Mof_C 	C 	0.64114	0.44677	0.31456	-0.169
Mof_C 	C 	0.66774	0.43929	0.35839	0.116
Mof_H 	H 	0.6534	0.4474	0.3894	0.001
Mof_C 	C 	0.71587	0.41968	0.35682	-0.217
Mof_H 	H 	0.7336	0.4145	0.3867	0.109
Mof_C 	C 	0.73742	0.40791	0.3106	0.182
Mof_C 	C 	0.71133	0.41557	0.26663	-0.214
Mof_H 	H 	0.726	0.4081	0.2356	0.108
Mof_C 	C 	0.66271	0.43455	0.26842	0.11
Mof_H 	H 	0.6447	0.439	0.2386	0.009
Mof_C 	C 	0.82526	0.40635	0.33799	0.189
Mof_C 	C 	0.82757	0.45683	0.34832	-0.223
Mof_H 	H 	0.8035	0.478	0.3345	0.112
Mof_C 	C 	0.86423	0.47662	0.3783	0.12
Mof_H 	H 	0.8649	0.5109	0.3846	0.001
Mof_C 	C 	0.90048	0.44569	0.39954	-0.16
Mof_C 	C 	0.89938	0.39511	0.38891	0.113
Mof_H 	H 	0.924	0.3743	0.4022	0.007
Mof_C 	C 	0.86215	0.37508	0.35887	-0.212
Mof_H 	H 	0.8615	0.3408	0.3524	0.108
Mof_C 	C 	0.93982	0.46659	0.4348	0.369
Mof_C 	C 	0.79305	0.3422	0.27927	0.229
Mof_C 	C 	0.75648	0.3058	0.2788	-0.276
Mof_H 	H 	0.7275	0.3099	0.2979	0.13
Mof_C 	C 	0.5314	0.4585	0.4712	0.005
Mof_H 	H 	0.5655	0.4622	0.459	0.046
Mof_H 	H 	0.5186	0.4267	0.459	0.018
Mof_H 	H 	0.9862	0.6581	0.4704	0.03
Mof_H 	H 	0.9479	0.7259	0.4703	0.062
Mof_H 	H 	0.8715	0.5887	0.4703	0.03
Mof_H 	H 	0.8324	0.6542	0.5296	0.055
Mof_C 	C 	0.9247	0.6301	0.4484	-0.13
Mof_H 	H 	0.9057	0.6046	0.4307	0.072
Mof_H 	H 	0.9555	0.6363	0.43	0.074
Mof_C 	C 	0.8946	0.6776	0.4531	0.034
Mof_H 	H 	0.9122	0.7027	0.4334	0.018
Mof_H 	H 	0.8632	0.6714	0.4357	0.015
Mof_C 	C 	0.4539	0.501	0.0263	-0.033
Mof_H 	H 	0.4264	0.4814	0.0168	0.019
Mof_C 	C 	0.468	0.534	0.0263	-0.032
Mof_H 	H 	0.4636	0.567	0.0169	0.019
Mof_N 	N 	0.4929	0.5142	0.1861	-0.042
Mof_C 	C 	0.5002	0.4875	0.1401	-0.061
Mof_H 	H 	0.5119	0.4548	0.1371	0.331
Mof_N 	N 	0.4866	0.5196	0.0994	-0.039
Mof_C 	C 	0.4709	0.5661	0.1202	-0.42
Mof_H 	H 	0.46	0.5938	0.102	0.199
Mof_C 	C 	0.4748	0.5627	0.1738	-0.1
Mof_H 	H 	0.4668	0.5879	0.1968	0.09
Mof_C 	C 	0.551	0.4936	0.471	-0.053
Mof_H 	H 	0.5721	0.5206	0.4587	0.021
Mof_N 	N 	0.21329	0.61395	0.30871	-0.207
Mof_O 	O 	0.43249	0.52754	0.27353	-0.41
Mof_O 	O 	0.43	0.52318	0.35799	-0.412
Mof_O 	O 	0.06517	0.48786	0.44777	-0.413
Mof_O 	O 	0.02587	0.56288	0.44815	-0.419
Mof_C 	C 	0.41126	0.53283	0.31555	0.386
Mof_C 	C 	0.35886	0.55323	0.31456	-0.169
Mof_C 	C 	0.33226	0.56071	0.35839	0.116
Mof_H 	H 	0.3466	0.5526	0.3894	0.001
Mof_C 	C 	0.28413	0.58032	0.35682	-0.217
Mof_H 	H 	0.2664	0.5855	0.3867	0.109
Mof_C 	C 	0.26258	0.59209	0.3106	0.182
Mof_C 	C 	0.28867	0.58443	0.26663	-0.214
Mof_H 	H 	0.274	0.5919	0.2356	0.108
Mof_C 	C 	0.33729	0.56545	0.26842	0.109
Mof_H 	H 	0.3553	0.561	0.2386	0.009
Mof_C 	C 	0.17474	0.59365	0.33799	0.191
Mof_C 	C 	0.17243	0.54317	0.34832	-0.227
Mof_H 	H 	0.1965	0.522	0.3345	0.112
Mof_C 	C 	0.13577	0.52338	0.3783	0.123
Mof_H 	H 	0.1351	0.4891	0.3846	-0.003
Mof_C 	C 	0.09952	0.55431	0.39954	-0.169
Mof_C 	C 	0.10062	0.60489	0.38891	0.117
Mof_H 	H 	0.076	0.6257	0.4022	-0.002
Mof_C 	C 	0.13785	0.62492	0.35887	-0.218
Mof_H 	H 	0.1385	0.6592	0.3524	0.107
Mof_C 	C 	0.06018	0.53341	0.4348	0.372
Mof_C 	C 	0.20695	0.6578	0.27927	0.227
Mof_C 	C 	0.24352	0.6942	0.2788	-0.274
Mof_H 	H 	0.2725	0.6901	0.2979	0.13
Mof_C 	C 	0.4686	0.5415	0.4712	0.005
Mof_H 	H 	0.4345	0.5378	0.459	0.046
Mof_H 	H 	0.4814	0.5733	0.459	0.018
Mof_H 	H 	0.0138	0.3419	0.4704	0.018
Mof_H 	H 	0.0521	0.2741	0.4703	0.057
Mof_H 	H 	0.1285	0.4113	0.4703	0.03
Mof_H 	H 	0.1676	0.3458	0.5296	0.053
Mof_C 	C 	0.0753	0.3699	0.4484	-0.126
Mof_H 	H 	0.0943	0.3954	0.4307	0.068
Mof_H 	H 	0.0445	0.3637	0.43	0.065
Mof_C 	C 	0.1054	0.3224	0.4531	0.034
Mof_H 	H 	0.0878	0.2973	0.4334	0.014
Mof_H 	H 	0.1368	0.3286	0.4357	0.013
Mof_C 	C 	0.5461	0.499	0.0263	-0.033
Mof_H 	H 	0.5736	0.5186	0.0168	0.019
Mof_C 	C 	0.532	0.466	0.0263	-0.032
Mof_H 	H 	0.5364	0.433	0.0169	0.019
Mof_N 	N 	0.5071	0.4858	0.1861	-0.042
Mof_C 	C 	0.4998	0.5125	0.1401	-0.061
Mof_H 	H 	0.4881	0.5452	0.1371	0.331
Mof_N 	N 	0.5134	0.4804	0.0994	-0.039
Mof_C 	C 	0.5291	0.4339	0.1202	-0.42
Mof_H 	H 	0.54	0.4062	0.102	0.199
Mof_C 	C 	0.5252	0.4373	0.1738	-0.1
Mof_H 	H 	0.5332	0.4121	0.1968	0.089
Mof_C 	C 	0.449	0.5064	0.471	-0.053
Mof_H 	H 	0.4279	0.4794	0.4587	0.021
Mof_N 	N 	0.38605	0.21329	0.30871	-0.207
Mof_O 	O 	0.47246	0.43249	0.27353	-0.41
Mof_O 	O 	0.47682	0.43	0.35799	-0.412
Mof_O 	O 	0.51214	0.06517	0.44777	-0.413
Mof_O 	O 	0.43712	0.02587	0.44815	-0.419
Mof_C 	C 	0.46717	0.41126	0.31555	0.386
Mof_C 	C 	0.44677	0.35886	0.31456	-0.169
Mof_C 	C 	0.43929	0.33226	0.35839	0.116
Mof_H 	H 	0.4474	0.3466	0.3894	0.001
Mof_C 	C 	0.41968	0.28413	0.35682	-0.217
Mof_H 	H 	0.4145	0.2664	0.3867	0.109
Mof_C 	C 	0.40791	0.26258	0.3106	0.182
Mof_C 	C 	0.41557	0.28867	0.26663	-0.214
Mof_H 	H 	0.4081	0.274	0.2356	0.108
Mof_C 	C 	0.43455	0.33729	0.26842	0.109
Mof_H 	H 	0.439	0.3553	0.2386	0.009
Mof_C 	C 	0.40635	0.17474	0.33799	0.191
Mof_C 	C 	0.45683	0.17243	0.34832	-0.227
Mof_H 	H 	0.478	0.1965	0.3345	0.112
Mof_C 	C 	0.47662	0.13577	0.3783	0.123
Mof_H 	H 	0.5109	0.1351	0.3846	-0.003
Mof_C 	C 	0.44569	0.09952	0.39954	-0.169
Mof_C 	C 	0.39511	0.10062	0.38891	0.117
Mof_H 	H 	0.3743	0.076	0.4022	-0.002
Mof_C 	C 	0.37508	0.13785	0.35887	-0.218
Mof_H 	H 	0.3408	0.1385	0.3524	0.107
Mof_C 	C 	0.46659	0.06018	0.4348	0.372
Mof_C 	C 	0.3422	0.20695	0.27927	0.227
Mof_C 	C 	0.3058	0.24352	0.2788	-0.274
Mof_H 	H 	0.3099	0.2725	0.2979	0.129
Mof_C 	C 	0.4585	0.4686	0.4712	0.005
Mof_H 	H 	0.4622	0.4345	0.459	0.046
Mof_H 	H 	0.4267	0.4814	0.459	0.018
Mof_H 	H 	0.6581	0.0138	0.4704	0.018
Mof_H 	H 	0.7259	0.0521	0.4703	0.058
Mof_H 	H 	0.5887	0.1285	0.4703	0.03
Mof_H 	H 	0.6542	0.1676	0.5296	0.054
Mof_C 	C 	0.6301	0.0753	0.4484	-0.126
Mof_H 	H 	0.6046	0.0943	0.4307	0.068
Mof_H 	H 	0.6363	0.0445	0.43	0.065
Mof_C 	C 	0.6776	0.1054	0.4531	0.033
Mof_H 	H 	0.7027	0.0878	0.4334	0.015
Mof_H 	H 	0.6714	0.1368	0.4357	0.014
Mof_C 	C 	0.501	0.5461	0.0263	-0.033
Mof_H 	H 	0.4814	0.5736	0.0168	0.019
Mof_C 	C 	0.534	0.532	0.0263	-0.032
Mof_H 	H 	0.567	0.5364	0.0169	0.02
Mof_N 	N 	0.5142	0.5071	0.1861	-0.042
Mof_C 	C 	0.4875	0.4998	0.1401	-0.061
Mof_H 	H 	0.4548	0.4881	0.1371	0.331
Mof_N 	N 	0.5196	0.5134	0.0994	-0.039
Mof_C 	C 	0.5661	0.5291	0.1202	-0.42
Mof_H 	H 	0.5938	0.54	0.102	0.199
Mof_C 	C 	0.5627	0.5252	0.1738	-0.1
Mof_H 	H 	0.5879	0.5332	0.1968	0.09
Mof_C 	C 	0.4936	0.449	0.471	-0.053
Mof_H 	H 	0.5206	0.4279	0.4587	0.021
Mof_N 	N 	0.61395	0.78671	0.30871	-0.206
Mof_O 	O 	0.52754	0.56751	0.27353	-0.41
Mof_O 	O 	0.52318	0.57	0.35799	-0.412
Mof_O 	O 	0.48786	0.93483	0.44777	-0.405
Mof_O 	O 	0.56288	0.97413	0.44815	-0.396
Mof_C 	C 	0.53283	0.58874	0.31555	0.386
Mof_C 	C 	0.55323	0.64114	0.31456	-0.169
Mof_C 	C 	0.56071	0.66774	0.35839	0.116
Mof_H 	H 	0.5526	0.6534	0.3894	0.002
Mof_C 	C 	0.58032	0.71587	0.35682	-0.217
Mof_H 	H 	0.5855	0.7336	0.3867	0.109
Mof_C 	C 	0.59209	0.73742	0.3106	0.182
Mof_C 	C 	0.58443	0.71133	0.26663	-0.214
Mof_H 	H 	0.5919	0.726	0.2356	0.108
Mof_C 	C 	0.56545	0.66271	0.26842	0.11
Mof_H 	H 	0.561	0.6447	0.2386	0.009
Mof_C 	C 	0.59365	0.82526	0.33799	0.189
Mof_C 	C 	0.54317	0.82757	0.34832	-0.223
Mof_H 	H 	0.522	0.8035	0.3345	0.112
Mof_C 	C 	0.52338	0.86423	0.3783	0.12
Mof_H 	H 	0.4891	0.8649	0.3846	0.001
Mof_C 	C 	0.55431	0.90048	0.39954	-0.16
Mof_C 	C 	0.60489	0.89938	0.38891	0.113
Mof_H 	H 	0.6257	0.924	0.4022	0.007
Mof_C 	C 	0.62492	0.86215	0.35887	-0.213
Mof_H 	H 	0.6592	0.8615	0.3524	0.108
Mof_C 	C 	0.53341	0.93982	0.4348	0.369
Mof_C 	C 	0.6578	0.79305	0.27927	0.229
Mof_C 	C 	0.6942	0.75648	0.2788	-0.276
Mof_H 	H 	0.6901	0.7275	0.2979	0.13
Mof_C 	C 	0.5415	0.5314	0.4712	0.005
Mof_H 	H 	0.5378	0.5655	0.459	0.046
Mof_H 	H 	0.5733	0.5186	0.459	0.018
Mof_H 	H 	0.3419	0.9862	0.4704	0.03
Mof_H 	H 	0.2741	0.9479	0.4703	0.062
Mof_H 	H 	0.4113	0.8715	0.4703	0.03
Mof_H 	H 	0.3458	0.8324	0.5296	0.054
Mof_C 	C 	0.3699	0.9247	0.4484	-0.13
Mof_H 	H 	0.3954	0.9057	0.4307	0.072
Mof_H 	H 	0.3637	0.9555	0.43	0.074
Mof_C 	C 	0.3224	0.8946	0.4531	0.034
Mof_H 	H 	0.2973	0.9122	0.4334	0.017
Mof_H 	H 	0.3286	0.8632	0.4357	0.014
Mof_C 	C 	0.499	0.4539	0.0263	-0.033
Mof_H 	H 	0.5186	0.4264	0.0168	0.019
Mof_C 	C 	0.466	0.468	0.0263	-0.032
Mof_H 	H 	0.433	0.4636	0.0169	0.019
Mof_N 	N 	0.4858	0.4929	0.1861	-0.042
Mof_C 	C 	0.5125	0.5002	0.1401	-0.061
Mof_H 	H 	0.5452	0.5119	0.1371	0.331
Mof_N 	N 	0.4804	0.4866	0.0994	-0.039
Mof_C 	C 	0.4339	0.4709	0.1202	-0.42
Mof_H 	H 	0.4062	0.46	0.102	0.199
Mof_C 	C 	0.4373	0.4748	0.1738	-0.1
Mof_H 	H 	0.4121	0.4668	0.1968	0.089
Mof_C 	C 	0.5064	0.551	0.471	-0.053
Mof_H 	H 	0.4794	0.5721	0.4587	0.021
Mof_N 	N 	0.28671	0.11395	0.80871	-0.202
Mof_O 	O 	0.06751	0.02754	0.77353	-0.418
Mof_O 	O 	0.07	0.02318	0.85799	-0.42
Mof_O 	O 	0.43483	0.98786	0.94777	-0.381
Mof_O 	O 	0.47413	0.06288	0.94815	-0.396
Mof_C 	C 	0.08874	0.03283	0.81555	0.385
Mof_C 	C 	0.14114	0.05323	0.81456	-0.173
Mof_C 	C 	0.16774	0.06071	0.85839	0.116
Mof_H 	H 	0.1534	0.0526	0.8894	-0.001
Mof_C 	C 	0.21587	0.08032	0.85682	-0.218
Mof_H 	H 	0.2336	0.0855	0.8867	0.109
Mof_C 	C 	0.23742	0.09209	0.8106	0.181
Mof_C 	C 	0.21133	0.08443	0.76663	-0.216
Mof_H 	H 	0.226	0.0919	0.7356	0.106
Mof_C 	C 	0.16271	0.06545	0.76842	0.11
Mof_H 	H 	0.1447	0.061	0.7386	0.005
Mof_C 	C 	0.32526	0.09365	0.83799	0.163
Mof_C 	C 	0.32757	0.04317	0.84832	-0.175
Mof_H 	H 	0.3035	0.022	0.8345	0.09
Mof_C 	C 	0.36423	0.02338	0.8783	0.042
Mof_H 	H 	0.3649	0.9891	0.8846	0.041
Mof_C 	C 	0.40048	0.05431	0.89954	-0.122
Mof_C 	C 	0.39938	0.10489	0.88891	0.08
Mof_H 	H 	0.424	0.1257	0.9022	0.015
Mof_C 	C 	0.36215	0.12492	0.85887	-0.186
Mof_H 	H 	0.3615	0.1592	0.8524	0.098
Mof_C 	C 	0.43982	0.03341	0.9348	0.331
Mof_C 	C 	0.29305	0.1578	0.77927	0.226
Mof_C 	C 	0.25648	0.1942	0.7788	-0.274
Mof_H 	H 	0.2275	0.1901	0.7979	0.129
Mof_C 	C 	0.0314	0.0415	0.9712	-0.036
Mof_H 	H 	0.0655	0.0378	0.959	0.121
Mof_H 	H 	0.0186	0.0733	0.959	-0.008
Mof_H 	H 	0.4862	0.8419	0.9704	0.035
Mof_H 	H 	0.4479	0.7741	0.9703	0.075
Mof_H 	H 	0.3715	0.9113	0.9703	0.041
Mof_H 	H 	0.3324	0.8458	0.0296	0.063
Mof_C 	C 	0.4247	0.8699	0.9484	-0.123
Mof_H 	H 	0.4057	0.8954	0.9307	0.07
Mof_H 	H 	0.4555	0.8637	0.93	0.069
Mof_C 	C 	0.3946	0.8224	0.9531	0.061
Mof_H 	H 	0.4122	0.7973	0.9334	0.01
Mof_H 	H 	0.3632	0.8286	0.9357	0.007
Mof_C 	C 	0.9539	0.999	0.5263	-0.054
Mof_H 	H 	0.9264	0.0186	0.5168	0.057
Mof_C 	C 	0.968	0.966	0.5263	-0.033
Mof_H 	H 	0.9636	0.933	0.5169	0.046
Mof_N 	N 	0.9929	0.9858	0.6861	0.014
Mof_C 	C 	0.0002	0.0125	0.6401	0.003
Mof_H 	H 	0.0119	0.0452	0.6371	0.296
Mof_N 	N 	0.9866	0.9804	0.5994	-0.005
Mof_C 	C 	0.9709	0.9339	0.6202	-0.46
Mof_H 	H 	0.96	0.9062	0.602	0.22
Mof_C 	C 	0.9748	0.9373	0.6738	-0.107
Mof_H 	H 	0.9668	0.9121	0.6968	0.099
Mof_C 	C 	0.051	0.0064	0.971	-0.225
Mof_H 	H 	0.0721	0.9794	0.9587	0.026
Mof_N 	N 	0.71329	0.88605	0.80871	-0.211
Mof_O 	O 	0.93249	0.97246	0.77353	-0.394
Mof_O 	O 	0.93	0.97682	0.85799	-0.394
Mof_O 	O 	0.56517	0.01214	0.94777	-0.427
Mof_O 	O 	0.52587	0.93712	0.94815	-0.41
Mof_C 	C 	0.91126	0.96717	0.81555	0.383
Mof_C 	C 	0.85886	0.94677	0.81456	-0.162
Mof_C 	C 	0.83226	0.93929	0.85839	0.115
Mof_H 	H 	0.8466	0.9474	0.8894	0.007
Mof_C 	C 	0.78413	0.91968	0.85682	-0.214
Mof_H 	H 	0.7664	0.9145	0.8867	0.112
Mof_C 	C 	0.76258	0.90791	0.8106	0.183
Mof_C 	C 	0.78867	0.91557	0.76663	-0.212
Mof_H 	H 	0.774	0.9081	0.7356	0.11
Mof_C 	C 	0.83729	0.93455	0.76842	0.109
Mof_H 	H 	0.8553	0.939	0.7386	0.013
Mof_C 	C 	0.67474	0.90635	0.83799	0.217
Mof_C 	C 	0.67243	0.95683	0.84832	-0.272
Mof_H 	H 	0.6965	0.978	0.8345	0.134
Mof_C 	C 	0.63577	0.97662	0.8783	0.199
Mof_H 	H 	0.6351	0.0109	0.8846	-0.041
Mof_C 	C 	0.59952	0.94569	0.89954	-0.203
Mof_C 	C 	0.60062	0.89511	0.88891	0.148
Mof_H 	H 	0.576	0.8743	0.9022	-0.007
Mof_C 	C 	0.63785	0.87508	0.85887	-0.242
Mof_H 	H 	0.6385	0.8408	0.8524	0.118
Mof_C 	C 	0.56018	0.96659	0.9348	0.408
Mof_C 	C 	0.70695	0.8422	0.77927	0.231
Mof_C 	C 	0.74352	0.8058	0.7788	-0.276
Mof_H 	H 	0.7725	0.8099	0.7979	0.132
Mof_C 	C 	0.9686	0.9585	0.9712	0.069
Mof_H 	H 	0.9345	0.9622	0.959	-0.032
Mof_H 	H 	0.9814	0.9267	0.959	0.04
Mof_H 	H 	0.5138	0.1581	0.9704	0.034
Mof_H 	H 	0.5521	0.2259	0.9703	0.075
Mof_H 	H 	0.6285	0.0887	0.9703	0.039
Mof_H 	H 	0.6676	0.1542	0.0296	0.06
Mof_C 	C 	0.5753	0.1301	0.9484	-0.123
Mof_H 	H 	0.5943	0.1046	0.9307	0.069
Mof_H 	H 	0.5445	0.1363	0.93	0.068
Mof_C 	C 	0.6054	0.1776	0.9531	0.062
Mof_H 	H 	0.5878	0.2027	0.9334	0.009
Mof_H 	H 	0.6368	0.1714	0.9357	0.006
Mof_C 	C 	0.0461	0.001	0.5263	0.015
Mof_H 	H 	0.0736	0.9814	0.5168	-0.012
Mof_C 	C 	0.032	0.034	0.5263	-0.001
Mof_H 	H 	0.0364	0.067	0.5169	-0.007
Mof_N 	N 	0.0071	0.0142	0.6861	-0.088
Mof_C 	C 	0.9998	0.9875	0.6401	-0.128
Mof_H 	H 	0.9881	0.9548	0.6371	0.373
Mof_N 	N 	0.0134	0.0196	0.5994	-0.062
Mof_C 	C 	0.0291	0.0661	0.6202	-0.391
Mof_H 	H 	0.04	0.0938	0.602	0.184
Mof_C 	C 	0.0252	0.0627	0.6738	-0.094
Mof_H 	H 	0.0332	0.0879	0.6968	0.081
Mof_C 	C 	0.949	0.9936	0.971	0.13
Mof_H 	H 	0.9279	0.0206	0.9587	0.015
Mof_N 	N 	0.88605	0.28671	0.80871	-0.211
Mof_O 	O 	0.97246	0.06751	0.77353	-0.401
Mof_O 	O 	0.97682	0.07	0.85799	-0.404
Mof_O 	O 	0.01214	0.43483	0.94777	-0.427
Mof_O 	O 	0.93712	0.47413	0.94815	-0.41
Mof_C 	C 	0.96717	0.08874	0.81555	0.384
Mof_C 	C 	0.94677	0.14114	0.81456	-0.166
Mof_C 	C 	0.93929	0.16774	0.85839	0.116
Mof_H 	H 	0.9474	0.1534	0.8894	0.004
Mof_C 	C 	0.91968	0.21587	0.85682	-0.216
Mof_H 	H 	0.9145	0.2336	0.8867	0.111
Mof_C 	C 	0.90791	0.23742	0.8106	0.183
Mof_C 	C 	0.91557	0.21133	0.76663	-0.213
Mof_H 	H 	0.9081	0.226	0.7356	0.11
Mof_C 	C 	0.93455	0.16271	0.76842	0.109
Mof_H 	H 	0.939	0.1447	0.7386	0.012
Mof_C 	C 	0.90635	0.32526	0.83799	0.217
Mof_C 	C 	0.95683	0.32757	0.84832	-0.273
Mof_H 	H 	0.978	0.3035	0.8345	0.134
Mof_C 	C 	0.97662	0.36423	0.8783	0.201
Mof_H 	H 	0.0109	0.3649	0.8846	-0.042
Mof_C 	C 	0.94569	0.40048	0.89954	-0.204
Mof_C 	C 	0.89511	0.39938	0.88891	0.149
Mof_H 	H 	0.8743	0.424	0.9022	-0.008
Mof_C 	C 	0.87508	0.36215	0.85887	-0.243
Mof_H 	H 	0.8408	0.3615	0.8524	0.118
Mof_C 	C 	0.96659	0.43982	0.9348	0.409
Mof_C 	C 	0.8422	0.29305	0.77927	0.23
Mof_C 	C 	0.8058	0.25648	0.7788	-0.276
Mof_H 	H 	0.8099	0.2275	0.7979	0.13
Mof_C 	C 	0.9585	0.0314	0.9712	-0.234
Mof_H 	H 	0.9622	0.0655	0.959	0.061
Mof_H 	H 	0.9267	0.0186	0.959	0.042
Mof_H 	H 	0.1581	0.4862	0.9704	0.034
Mof_H 	H 	0.2259	0.4479	0.9703	0.075
Mof_H 	H 	0.0887	0.3715	0.9703	0.038
Mof_H 	H 	0.1542	0.3324	0.0296	0.06
Mof_C 	C 	0.1301	0.4247	0.9484	-0.123
Mof_H 	H 	0.1046	0.4057	0.9307	0.068
Mof_H 	H 	0.1363	0.4555	0.93	0.068
Mof_C 	C 	0.1776	0.3946	0.9531	0.062
Mof_H 	H 	0.2027	0.4122	0.9334	0.009
Mof_H 	H 	0.1714	0.3632	0.9357	0.006
Mof_C 	C 	0.001	0.9539	0.5263	0.063
Mof_H 	H 	0.9814	0.9264	0.5168	-0.019
Mof_C 	C 	0.034	0.968	0.5263	-0.115
Mof_H 	H 	0.067	0.9636	0.5169	0.072
Mof_N 	N 	0.0142	0.9929	0.6861	-0.039
Mof_C 	C 	0.9875	0.0002	0.6401	-0.049
Mof_H 	H 	0.9548	0.0119	0.6371	0.313
Mof_N 	N 	0.0196	0.9866	0.5994	-0.019
Mof_C 	C 	0.0661	0.9709	0.6202	-0.456
Mof_H 	H 	0.0938	0.96	0.602	0.216
Mof_C 	C 	0.0627	0.9748	0.6738	-0.096
Mof_H 	H 	0.0879	0.9668	0.6968	0.094
Mof_C 	C 	0.9936	0.051	0.971	0.168
Mof_H 	H 	0.0206	0.0721	0.9587	-0.02
Mof_N 	N 	0.11395	0.71329	0.80871	-0.202
Mof_O 	O 	0.02754	0.93249	0.77353	-0.409
Mof_O 	O 	0.02318	0.93	0.85799	-0.408
Mof_O 	O 	0.98786	0.56517	0.94777	-0.381
Mof_O 	O 	0.06288	0.52587	0.94815	-0.396
Mof_C 	C 	0.03283	0.91126	0.81555	0.385
Mof_C 	C 	0.05323	0.85886	0.81456	-0.169
Mof_C 	C 	0.06071	0.83226	0.85839	0.115
Mof_H 	H 	0.0526	0.8466	0.8894	0.002
Mof_C 	C 	0.08032	0.78413	0.85682	-0.216
Mof_H 	H 	0.0855	0.7664	0.8867	0.11
Mof_C 	C 	0.09209	0.76258	0.8106	0.181
Mof_C 	C 	0.08443	0.78867	0.76663	-0.214
Mof_H 	H 	0.0919	0.774	0.7356	0.107
Mof_C 	C 	0.06545	0.83729	0.76842	0.109
Mof_H 	H 	0.061	0.8553	0.7386	0.007
Mof_C 	C 	0.09365	0.67474	0.83799	0.164
Mof_C 	C 	0.04317	0.67243	0.84832	-0.176
Mof_H 	H 	0.022	0.6965	0.8345	0.091
Mof_C 	C 	0.02338	0.63577	0.8783	0.044
Mof_H 	H 	0.9891	0.6351	0.8846	0.04
Mof_C 	C 	0.05431	0.59952	0.89954	-0.123
Mof_C 	C 	0.10489	0.60062	0.88891	0.081
Mof_H 	H 	0.1257	0.576	0.9022	0.015
Mof_C 	C 	0.12492	0.63785	0.85887	-0.187
Mof_H 	H 	0.1592	0.6385	0.8524	0.099
Mof_C 	C 	0.03341	0.56018	0.9348	0.332
Mof_C 	C 	0.1578	0.70695	0.77927	0.227
Mof_C 	C 	0.1942	0.74352	0.7788	-0.273
Mof_H 	H 	0.1901	0.7725	0.7979	0.131
Mof_C 	C 	0.0415	0.9686	0.9712	0.27
Mof_H 	H 	0.0378	0.9345	0.959	0.024
Mof_H 	H 	0.0733	0.9814	0.959	-0.008
Mof_H 	H 	0.8419	0.5138	0.9704	0.035
Mof_H 	H 	0.7741	0.5521	0.9703	0.075
Mof_H 	H 	0.9113	0.6285	0.9703	0.041
Mof_H 	H 	0.8458	0.6676	0.0296	0.063
Mof_C 	C 	0.8699	0.5753	0.9484	-0.123
Mof_H 	H 	0.8954	0.5943	0.9307	0.07
Mof_H 	H 	0.8637	0.5445	0.93	0.069
Mof_C 	C 	0.8224	0.6054	0.9531	0.061
Mof_H 	H 	0.7973	0.5878	0.9334	0.009
Mof_H 	H 	0.8286	0.6368	0.9357	0.007
Mof_C 	C 	0.999	0.0461	0.5263	-0.09
Mof_H 	H 	0.0186	0.0736	0.5168	0.052
Mof_C 	C 	0.966	0.032	0.5263	0.088
Mof_H 	H 	0.933	0.0364	0.5169	-0.042
Mof_N 	N 	0.9858	0.0071	0.6861	-0.051
Mof_C 	C 	0.0125	0.9998	0.6401	-0.086
Mof_H 	H 	0.0452	0.9881	0.6371	0.361
Mof_N 	N 	0.9804	0.0134	0.5994	-0.034
Mof_C 	C 	0.9339	0.0291	0.6202	-0.407
Mof_H 	H 	0.9062	0.04	0.602	0.193
Mof_C 	C 	0.9373	0.0252	0.6738	-0.096
Mof_H 	H 	0.9121	0.0332	0.6968	0.085
Mof_C 	C 	0.0064	0.949	0.971	-0.254
Mof_H 	H 	0.9794	0.9279	0.9587	0.059
Mof_N 	N 	0.21329	0.61395	0.69129	-0.207
Mof_O 	O 	0.43249	0.52754	0.72647	-0.41
Mof_O 	O 	0.43	0.52318	0.64201	-0.412
Mof_O 	O 	0.06517	0.48786	0.55223	-0.413
Mof_O 	O 	0.02587	0.56288	0.55185	-0.419
Mof_C 	C 	0.41126	0.53283	0.68445	0.386
Mof_C 	C 	0.35886	0.55323	0.68544	-0.169
Mof_C 	C 	0.33226	0.56071	0.64161	0.116
Mof_H 	H 	0.3466	0.5526	0.6106	0.001
Mof_C 	C 	0.28413	0.58032	0.64318	-0.217
Mof_H 	H 	0.2664	0.5855	0.6133	0.109
Mof_C 	C 	0.26258	0.59209	0.6894	0.182
Mof_C 	C 	0.28867	0.58443	0.73337	-0.214
Mof_H 	H 	0.274	0.5919	0.7644	0.109
Mof_C 	C 	0.33729	0.56545	0.73158	0.11
Mof_H 	H 	0.3553	0.561	0.7614	0.009
Mof_C 	C 	0.17474	0.59365	0.66201	0.191
Mof_C 	C 	0.17243	0.54317	0.65168	-0.227
Mof_H 	H 	0.1965	0.522	0.6655	0.113
Mof_C 	C 	0.13577	0.52338	0.6217	0.123
Mof_H 	H 	0.1351	0.4891	0.6154	-0.003
Mof_C 	C 	0.09952	0.55431	0.60046	-0.169
Mof_C 	C 	0.10062	0.60489	0.61109	0.117
Mof_H 	H 	0.076	0.6257	0.5978	-0.002
Mof_C 	C 	0.13785	0.62492	0.64113	-0.218
Mof_H 	H 	0.1385	0.6592	0.6476	0.107
Mof_C 	C 	0.06018	0.53341	0.5652	0.372
Mof_C 	C 	0.20695	0.6578	0.72073	0.227
Mof_C 	C 	0.24352	0.6942	0.7212	-0.274
Mof_H 	H 	0.2725	0.6901	0.7021	0.13
Mof_C 	C 	0.4686	0.5415	0.5288	0.005
Mof_H 	H 	0.4345	0.5378	0.541	0.046
Mof_H 	H 	0.4814	0.5733	0.541	0.018
Mof_H 	H 	0.0138	0.3419	0.5296	0.018
Mof_H 	H 	0.0521	0.2741	0.5297	0.057
Mof_H 	H 	0.1285	0.4113	0.5297	0.03
Mof_H 	H 	0.1676	0.3458	0.4704	0.053
Mof_C 	C 	0.0753	0.3699	0.5516	-0.126
Mof_H 	H 	0.0943	0.3954	0.5693	0.068
Mof_H 	H 	0.0445	0.3637	0.57	0.065
Mof_C 	C 	0.1054	0.3224	0.5469	0.034
Mof_H 	H 	0.0878	0.2973	0.5666	0.014
Mof_H 	H 	0.1368	0.3286	0.5643	0.013
Mof_C 	C 	0.5461	0.499	0.9737	-0.024
Mof_H 	H 	0.5736	0.5186	0.9832	0.026
Mof_C 	C 	0.532	0.466	0.9737	-0.024
Mof_H 	H 	0.5364	0.433	0.9831	0.024
Mof_N 	N 	0.5071	0.4858	0.8139	-0.042
Mof_C 	C 	0.4998	0.5125	0.8599	-0.062
Mof_H 	H 	0.4881	0.5452	0.8629	0.332
Mof_N 	N 	0.5134	0.4804	0.9006	-0.038
Mof_C 	C 	0.5291	0.4339	0.8798	-0.421
Mof_H 	H 	0.54	0.4062	0.898	0.201
Mof_C 	C 	0.5252	0.4373	0.8262	-0.099
Mof_H 	H 	0.5332	0.4121	0.8032	0.09
Mof_C 	C 	0.449	0.5064	0.529	-0.053
Mof_H 	H 	0.4279	0.4794	0.5413	0.021
Mof_N 	N 	0.78671	0.38605	0.69129	-0.206
Mof_O 	O 	0.56751	0.47246	0.72647	-0.41
Mof_O 	O 	0.57	0.47682	0.64201	-0.412
Mof_O 	O 	0.93483	0.51214	0.55223	-0.405
Mof_O 	O 	0.97413	0.43712	0.55185	-0.396
Mof_C 	C 	0.58874	0.46717	0.68445	0.386
Mof_C 	C 	0.64114	0.44677	0.68544	-0.169
Mof_C 	C 	0.66774	0.43929	0.64161	0.116
Mof_H 	H 	0.6534	0.4474	0.6106	0.001
Mof_C 	C 	0.71587	0.41968	0.64318	-0.217
Mof_H 	H 	0.7336	0.4145	0.6133	0.109
Mof_C 	C 	0.73742	0.40791	0.6894	0.182
Mof_C 	C 	0.71133	0.41557	0.73337	-0.214
Mof_H 	H 	0.726	0.4081	0.7644	0.109
Mof_C 	C 	0.66271	0.43455	0.73158	0.11
Mof_H 	H 	0.6447	0.439	0.7614	0.009
Mof_C 	C 	0.82526	0.40635	0.66201	0.189
Mof_C 	C 	0.82757	0.45683	0.65168	-0.223
Mof_H 	H 	0.8035	0.478	0.6655	0.112
Mof_C 	C 	0.86423	0.47662	0.6217	0.12
Mof_H 	H 	0.8649	0.5109	0.6154	0.001
Mof_C 	C 	0.90048	0.44569	0.60046	-0.16
Mof_C 	C 	0.89938	0.39511	0.61109	0.113
Mof_H 	H 	0.924	0.3743	0.5978	0.007
Mof_C 	C 	0.86215	0.37508	0.64113	-0.212
Mof_H 	H 	0.8615	0.3408	0.6476	0.108
Mof_C 	C 	0.93982	0.46659	0.5652	0.369
Mof_C 	C 	0.79305	0.3422	0.72073	0.229
Mof_C 	C 	0.75648	0.3058	0.7212	-0.276
Mof_H 	H 	0.7275	0.3099	0.7021	0.13
Mof_C 	C 	0.5314	0.4585	0.5288	0.005
Mof_H 	H 	0.5655	0.4622	0.541	0.046
Mof_H 	H 	0.5186	0.4267	0.541	0.018
Mof_H 	H 	0.9862	0.6581	0.5296	0.03
Mof_H 	H 	0.9479	0.7259	0.5297	0.062
Mof_H 	H 	0.8715	0.5887	0.5297	0.03
Mof_H 	H 	0.8324	0.6542	0.4704	0.055
Mof_C 	C 	0.9247	0.6301	0.5516	-0.13
Mof_H 	H 	0.9057	0.6046	0.5693	0.072
Mof_H 	H 	0.9555	0.6363	0.57	0.074
Mof_C 	C 	0.8946	0.6776	0.5469	0.034
Mof_H 	H 	0.9122	0.7027	0.5666	0.018
Mof_H 	H 	0.8632	0.6714	0.5643	0.015
Mof_C 	C 	0.4539	0.501	0.9737	-0.024
Mof_H 	H 	0.4264	0.4814	0.9832	0.026
Mof_C 	C 	0.468	0.534	0.9737	-0.024
Mof_H 	H 	0.4636	0.567	0.9831	0.024
Mof_N 	N 	0.4929	0.5142	0.8139	-0.042
Mof_C 	C 	0.5002	0.4875	0.8599	-0.062
Mof_H 	H 	0.5119	0.4548	0.8629	0.332
Mof_N 	N 	0.4866	0.5196	0.9006	-0.038
Mof_C 	C 	0.4709	0.5661	0.8798	-0.421
Mof_H 	H 	0.46	0.5938	0.898	0.202
Mof_C 	C 	0.4748	0.5627	0.8262	-0.099
Mof_H 	H 	0.4668	0.5879	0.8032	0.09
Mof_C 	C 	0.551	0.4936	0.529	-0.053
Mof_H 	H 	0.5721	0.5206	0.5413	0.021
Mof_N 	N 	0.61395	0.78671	0.69129	-0.206
Mof_O 	O 	0.52754	0.56751	0.72647	-0.41
Mof_O 	O 	0.52318	0.57	0.64201	-0.412
Mof_O 	O 	0.48786	0.93483	0.55223	-0.405
Mof_O 	O 	0.56288	0.97413	0.55185	-0.396
Mof_C 	C 	0.53283	0.58874	0.68445	0.386
Mof_C 	C 	0.55323	0.64114	0.68544	-0.169
Mof_C 	C 	0.56071	0.66774	0.64161	0.116
Mof_H 	H 	0.5526	0.6534	0.6106	0.001
Mof_C 	C 	0.58032	0.71587	0.64318	-0.217
Mof_H 	H 	0.5855	0.7336	0.6133	0.109
Mof_C 	C 	0.59209	0.73742	0.6894	0.182
Mof_C 	C 	0.58443	0.71133	0.73337	-0.214
Mof_H 	H 	0.5919	0.726	0.7644	0.109
Mof_C 	C 	0.56545	0.66271	0.73158	0.11
Mof_H 	H 	0.561	0.6447	0.7614	0.009
Mof_C 	C 	0.59365	0.82526	0.66201	0.189
Mof_C 	C 	0.54317	0.82757	0.65168	-0.223
Mof_H 	H 	0.522	0.8035	0.6655	0.112
Mof_C 	C 	0.52338	0.86423	0.6217	0.12
Mof_H 	H 	0.4891	0.8649	0.6154	0.001
Mof_C 	C 	0.55431	0.90048	0.60046	-0.16
Mof_C 	C 	0.60489	0.89938	0.61109	0.113
Mof_H 	H 	0.6257	0.924	0.5978	0.007
Mof_C 	C 	0.62492	0.86215	0.64113	-0.213
Mof_H 	H 	0.6592	0.8615	0.6476	0.108
Mof_C 	C 	0.53341	0.93982	0.5652	0.369
Mof_C 	C 	0.6578	0.79305	0.72073	0.23
Mof_C 	C 	0.6942	0.75648	0.7212	-0.276
Mof_H 	H 	0.6901	0.7275	0.7021	0.131
Mof_C 	C 	0.5415	0.5314	0.5288	0.005
Mof_H 	H 	0.5378	0.5655	0.541	0.046
Mof_H 	H 	0.5733	0.5186	0.541	0.018
Mof_H 	H 	0.3419	0.9862	0.5296	0.03
Mof_H 	H 	0.2741	0.9479	0.5297	0.062
Mof_H 	H 	0.4113	0.8715	0.5297	0.03
Mof_H 	H 	0.3458	0.8324	0.4704	0.054
Mof_C 	C 	0.3699	0.9247	0.5516	-0.13
Mof_H 	H 	0.3954	0.9057	0.5693	0.072
Mof_H 	H 	0.3637	0.9555	0.57	0.074
Mof_C 	C 	0.3224	0.8946	0.5469	0.034
Mof_H 	H 	0.2973	0.9122	0.5666	0.018
Mof_H 	H 	0.3286	0.8632	0.5643	0.014
Mof_C 	C 	0.499	0.4539	0.9737	-0.024
Mof_H 	H 	0.5186	0.4264	0.9832	0.026
Mof_C 	C 	0.466	0.468	0.9737	-0.024
Mof_H 	H 	0.433	0.4636	0.9831	0.024
Mof_N 	N 	0.4858	0.4929	0.8139	-0.042
Mof_C 	C 	0.5125	0.5002	0.8599	-0.062
Mof_H 	H 	0.5452	0.5119	0.8629	0.332
Mof_N 	N 	0.4804	0.4866	0.9006	-0.038
Mof_C 	C 	0.4339	0.4709	0.8798	-0.421
Mof_H 	H 	0.4062	0.46	0.898	0.201
Mof_C 	C 	0.4373	0.4748	0.8262	-0.099
Mof_H 	H 	0.4121	0.4668	0.8032	0.09
Mof_C 	C 	0.5064	0.551	0.529	-0.053
Mof_H 	H 	0.4794	0.5721	0.5413	0.021
Mof_N 	N 	0.38605	0.21329	0.69129	-0.207
Mof_O 	O 	0.47246	0.43249	0.72647	-0.41
Mof_O 	O 	0.47682	0.43	0.64201	-0.412
Mof_O 	O 	0.51214	0.06517	0.55223	-0.413
Mof_O 	O 	0.43712	0.02587	0.55185	-0.419
Mof_C 	C 	0.46717	0.41126	0.68445	0.386
Mof_C 	C 	0.44677	0.35886	0.68544	-0.169
Mof_C 	C 	0.43929	0.33226	0.64161	0.116
Mof_H 	H 	0.4474	0.3466	0.6106	0.001
Mof_C 	C 	0.41968	0.28413	0.64318	-0.217
Mof_H 	H 	0.4145	0.2664	0.6133	0.109
Mof_C 	C 	0.40791	0.26258	0.6894	0.182
Mof_C 	C 	0.41557	0.28867	0.73337	-0.214
Mof_H 	H 	0.4081	0.274	0.7644	0.108
Mof_C 	C 	0.43455	0.33729	0.73158	0.11
Mof_H 	H 	0.439	0.3553	0.7614	0.009
Mof_C 	C 	0.40635	0.17474	0.66201	0.191
Mof_C 	C 	0.45683	0.17243	0.65168	-0.227
Mof_H 	H 	0.478	0.1965	0.6655	0.113
Mof_C 	C 	0.47662	0.13577	0.6217	0.123
Mof_H 	H 	0.5109	0.1351	0.6154	-0.003
Mof_C 	C 	0.44569	0.09952	0.60046	-0.169
Mof_C 	C 	0.39511	0.10062	0.61109	0.117
Mof_H 	H 	0.3743	0.076	0.5978	-0.002
Mof_C 	C 	0.37508	0.13785	0.64113	-0.218
Mof_H 	H 	0.3408	0.1385	0.6476	0.107
Mof_C 	C 	0.46659	0.06018	0.5652	0.372
Mof_C 	C 	0.3422	0.20695	0.72073	0.227
Mof_C 	C 	0.3058	0.24352	0.7212	-0.274
Mof_H 	H 	0.3099	0.2725	0.7021	0.129
Mof_C 	C 	0.4585	0.4686	0.5288	0.005
Mof_H 	H 	0.4622	0.4345	0.541	0.046
Mof_H 	H 	0.4267	0.4814	0.541	0.018
Mof_H 	H 	0.6581	0.0138	0.5296	0.018
Mof_H 	H 	0.7259	0.0521	0.5297	0.058
Mof_H 	H 	0.5887	0.1285	0.5297	0.03
Mof_H 	H 	0.6542	0.1676	0.4704	0.054
Mof_C 	C 	0.6301	0.0753	0.5516	-0.126
Mof_H 	H 	0.6046	0.0943	0.5693	0.068
Mof_H 	H 	0.6363	0.0445	0.57	0.065
Mof_C 	C 	0.6776	0.1054	0.5469	0.033
Mof_H 	H 	0.7027	0.0878	0.5666	0.015
Mof_H 	H 	0.6714	0.1368	0.5643	0.014
Mof_C 	C 	0.501	0.5461	0.9737	-0.024
Mof_H 	H 	0.4814	0.5736	0.9832	0.026
Mof_C 	C 	0.534	0.532	0.9737	-0.024
Mof_H 	H 	0.567	0.5364	0.9831	0.024
Mof_N 	N 	0.5142	0.5071	0.8139	-0.042
Mof_C 	C 	0.4875	0.4998	0.8599	-0.062
Mof_H 	H 	0.4548	0.4881	0.8629	0.332
Mof_N 	N 	0.5196	0.5134	0.9006	-0.038
Mof_C 	C 	0.5661	0.5291	0.8798	-0.421
Mof_H 	H 	0.5938	0.54	0.898	0.202
Mof_C 	C 	0.5627	0.5252	0.8262	-0.099
Mof_H 	H 	0.5879	0.5332	0.8032	0.09
Mof_C 	C 	0.4936	0.449	0.529	-0.053
Mof_H 	H 	0.5206	0.4279	0.5413	0.021
Mof_Cu	Cu	4.93768e-34	0	0.13324	0.896
Mof_Cu	Cu	8.69986e-34	0	0.23476	0.908
Mof_N 	N 	-1.53983e-34	0	0.04907	-0.158
Mof_C 	C 	1.6706e-33	0	0.4508	0.066
Mof_Cu	Cu	0.5	0.5	0.36676	0.912
Mof_Cu	Cu	0.5	0.5	0.26524	0.925
Mof_N 	N 	0.5	0.5	0.45093	-0.137
Mof_C 	C 	0.5	0.5	0.0492	0.164
Mof_Cu	Cu	3.21208e-33	0	0.86676	0.896
Mof_Cu	Cu	-2.5374e-33	0	0.76524	0.908
Mof_N 	N 	3.524e-33	0	0.95093	-0.166
Mof_C 	C 	2.03525e-33	0	0.5492	0.066
Mof_Cu	Cu	0.5	0.5	0.63324	0.912
Mof_Cu	Cu	0.5	0.5	0.73476	0.925
Mof_N 	N 	0.5	0.5	0.54907	-0.137
Mof_C 	C 	0.5	0.5	0.9508	0.144
Mof_Cu	Cu	0.52359	0.04379	-0	0.907
Mof_N 	N 	0.5645	0.1142	-0	-0.137
Mof_N 	N 	0.618	0.2007	-0	-0.104
Mof_C 	C 	0.5354	0.1588	-0	-0.003
Mof_C 	C 	0.562	0.2069	-0	-0.137
Mof_C 	C 	0.6189	0.1079	-0	-0.019
Mof_C 	C 	0.646	0.1541	-0	-0.122
Mof_Cu	Cu	0.47641	0.95621	-0	0.911
Mof_N 	N 	0.4355	0.8858	-0	-0.137
Mof_N 	N 	0.382	0.7993	-0	-0.103
Mof_C 	C 	0.4646	0.8412	-0	-0.005
Mof_C 	C 	0.438	0.7931	-0	-0.136
Mof_C 	C 	0.3811	0.8921	-0	-0.02
Mof_C 	C 	0.354	0.8459	-0	-0.123
Mof_Cu	Cu	0.95621	0.52359	-0	0.911
Mof_N 	N 	0.8858	0.5645	-0	-0.137
Mof_N 	N 	0.7993	0.618	-0	-0.103
Mof_C 	C 	0.8412	0.5354	-0	-0.005
Mof_C 	C 	0.7931	0.562	-0	-0.136
Mof_C 	C 	0.8921	0.6189	-0	-0.02
Mof_C 	C 	0.8459	0.646	-0	-0.123
Mof_Cu	Cu	0.04379	0.47641	-0	0.907
Mof_N 	N 	0.1142	0.4355	-0	-0.137
Mof_N 	N 	0.2007	0.382	-0	-0.104
Mof_C 	C 	0.1588	0.4646	-0	-0.003
Mof_C 	C 	0.2069	0.438	-0	-0.137
Mof_C 	C 	0.1079	0.3811	-0	-0.019
Mof_C 	C 	0.1541	0.354	-0	-0.122
Mof_Cu	Cu	0.97641	0.54379	0.5	0.921
Mof_N 	N 	0.9355	0.6142	0.5	-0.133
Mof_N 	N 	0.882	0.7007	0.5	-0.099
Mof_C 	C 	0.9646	0.6588	0.5	0.006
Mof_C 	C 	0.938	0.7069	0.5	-0.11
Mof_C 	C 	0.8811	0.6079	0.5	-0.008
Mof_C 	C 	0.854	0.6541	0.5	-0.092
Mof_Cu	Cu	0.02359	0.45621	0.5	0.906
Mof_N 	N 	0.0645	0.3858	0.5	-0.138
Mof_N 	N 	0.118	0.2993	0.5	-0.1
Mof_C 	C 	0.0354	0.3412	0.5	0.014
Mof_C 	C 	0.062	0.2931	0.5	-0.109
Mof_C 	C 	0.1189	0.3921	0.5	-0.008
Mof_C 	C 	0.146	0.3459	0.5	-0.091
Mof_Cu	Cu	0.54379	0.02359	0.5	0.906
Mof_N 	N 	0.6142	0.0645	0.5	-0.138
Mof_N 	N 	0.7007	0.118	0.5	-0.099
Mof_C 	C 	0.6588	0.0354	0.5	0.014
Mof_C 	C 	0.7069	0.062	0.5	-0.11
Mof_C 	C 	0.6079	0.1189	0.5	-0.008
Mof_C 	C 	0.6541	0.146	0.5	-0.091
Mof_Cu	Cu	0.45621	0.97641	0.5	0.921
Mof_N 	N 	0.3858	0.9355	0.5	-0.133
Mof_N 	N 	0.2993	0.882	0.5	-0.1
Mof_C 	C 	0.3412	0.9646	0.5	0.006
Mof_C 	C 	0.2931	0.938	0.5	-0.109
Mof_C 	C 	0.3921	0.8811	0.5	-0.008
Mof_C 	C 	0.3459	0.854	0.5	-0.092
Mof_C 	C 	0.66412	0.83588	0.25	-0.294
Mof_H 	H 	0.6395	0.8605	0.25	0.14
Mof_C 	C 	0.7369	0.7631	0.25	0.184
Mof_H 	H 	0.7615	0.7385	0.25	-0.036
Mof_C 	C 	0.33588	0.16412	0.25	-0.291
Mof_H 	H 	0.3605	0.1395	0.25	0.137
Mof_C 	C 	0.2631	0.2369	0.25	0.181
Mof_H 	H 	0.2385	0.2615	0.25	-0.037
Mof_C 	C 	0.16412	0.66412	0.25	-0.291
Mof_H 	H 	0.1395	0.6395	0.25	0.137
Mof_C 	C 	0.2369	0.7369	0.25	0.182
Mof_H 	H 	0.2615	0.7615	0.25	-0.035
Mof_C 	C 	0.83588	0.33588	0.25	-0.294
Mof_H 	H 	0.8605	0.3605	0.25	0.14
Mof_C 	C 	0.7631	0.2631	0.25	0.184
Mof_H 	H 	0.7385	0.2385	0.25	-0.038
Mof_C 	C 	0.33588	0.16412	0.75	-0.291
Mof_H 	H 	0.3605	0.1395	0.75	0.137
Mof_C 	C 	0.2631	0.2369	0.75	0.182
Mof_H 	H 	0.2385	0.2615	0.75	-0.037
Mof_C 	C 	0.66412	0.83588	0.75	-0.294
Mof_H 	H 	0.6395	0.8605	0.75	0.14
Mof_C 	C 	0.7369	0.7631	0.75	0.185
Mof_H 	H 	0.7615	0.7385	0.75	-0.035
Mof_C 	C 	0.83588	0.33588	0.75	-0.294
Mof_H 	H 	0.8605	0.3605	0.75	0.14
Mof_C 	C 	0.7631	0.2631	0.75	0.184
Mof_H 	H 	0.7385	0.2385	0.75	-0.037
Mof_C 	C 	0.16412	0.66412	0.75	-0.291
Mof_H 	H 	0.1395	0.6395	0.75	0.138
Mof_C 	C 	0.2369	0.7369	0.75	0.182
Mof_H 	H 	0.2615	0.7615	0.75	-0.035
_end
