data_functionalizedCrystal
_audit_creation_method	'EQeq! by Chris Wilmer'
_symmetry_space_group_name_H-M	'P1'
_symmetry_Int_Tables_number	1
_symmetry_cell_setting	triclinic
loop_
_symmetry_equiv_pos_as_xyz
  x,y,z
_cell_length_a	13.532
_cell_length_b	13.532
_cell_length_c	8.7172
_cell_angle_alpha	90
_cell_angle_beta	90
_cell_angle_gamma	120
loop_
_atom_site_label
_atom_site_type_symbol
_atom_site_fract_x
_atom_site_fract_y
_atom_site_fract_z
_atom_site_charge
Mof_W 	W 	0.66667	0.33333	0.56159	0.272
Mof_W 	W 	0.33333	0.66667	0.06159	0.278
Mof_Cu	Cu	0.88116	0.44058	0.69251	0.828
Mof_N 	N 	0.9757	0.48785	0.4916	-0.189
Mof_C 	C 	0.0269	0.51345	0.3764	-0.205
Mof_Cu	Cu	0.55942	0.44058	0.69251	0.827
Mof_N 	N 	0.51215	0.48785	0.4916	-0.19
Mof_C 	C 	0.48655	0.51345	0.3764	-0.203
Mof_Cu	Cu	0.55942	0.11884	0.69251	0.827
Mof_N 	N 	0.51215	0.0243	0.4916	-0.189
Mof_C 	C 	0.48655	0.9731	0.3764	-0.205
Mof_Cu	Cu	0.11884	0.55942	0.19251	0.829
Mof_N 	N 	0.0243	0.51215	0.9916	-0.193
Mof_C 	C 	0.9731	0.48655	0.8764	-0.21
Mof_Cu	Cu	0.44058	0.55942	0.19251	0.83
Mof_N 	N 	0.48785	0.51215	0.9916	-0.196
Mof_C 	C 	0.51345	0.48655	0.8764	-0.207
Mof_Cu	Cu	0.44058	0.88116	0.19251	0.829
Mof_N 	N 	0.48785	0.9757	0.9916	-0.193
Mof_C 	C 	0.51345	0.0269	0.8764	-0.21
Mof_S 	S 	0.75669	0.51337	0.6526	-0.486
Mof_S 	S 	0.48663	0.24332	0.6526	-0.486
Mof_S 	S 	0.75669	0.24332	0.6526	-0.486
Mof_S 	S 	0.24332	0.48663	0.1526	-0.48
Mof_S 	S 	0.51337	0.75668	0.1526	-0.48
Mof_S 	S 	0.24332	0.75669	0.1526	-0.482
Mof_H 	H 	0.4935	0.8062	0.6377	0.082
Mof_C 	C 	0.7111	0.7653	0.598	-0.284
Mof_H 	H 	0.7159	0.7639	0.4861	0.099
Mof_H 	H 	0.6687	0.687	0.6371	0.084
Mof_H 	H 	0.7882	0.8038	0.6417	0.098
Mof_H 	H 	0.6166	0.7481	0.8463	0.033
Mof_H 	H 	0.6124	0.8643	0.8463	0.034
Mof_H 	H 	0.4935	0.6873	0.6377	0.082
Mof_C 	C 	0.7111	0.9458	0.598	-0.284
Mof_H 	H 	0.7159	0.952	0.4861	0.099
Mof_H 	H 	0.6687	0.9817	0.6371	0.084
Mof_H 	H 	0.7882	0.9844	0.6417	0.098
Mof_H 	H 	0.6166	0.8685	0.8463	0.034
Mof_H 	H 	0.6124	0.7481	0.8463	0.033
Mof_N 	N 	0.6528	0.8264	0.642	0.007
Mof_C 	C 	0.5305	0.76525	0.5974	-0.272
Mof_H 	H 	0.5241	0.76205	0.4854	0.076
Mof_C 	C 	0.6537	0.82685	0.8084	-0.221
Mof_H 	H 	0.7327	0.86635	0.8452	0.079
Mof_H 	H 	0.1938	0.6873	0.6377	0.082
Mof_C 	C 	0.2347	0.9458	0.598	-0.284
Mof_H 	H 	0.2361	0.952	0.4861	0.099
Mof_H 	H 	0.313	0.9817	0.6371	0.084
Mof_H 	H 	0.1962	0.9844	0.6417	0.098
Mof_H 	H 	0.2519	0.8685	0.8463	0.034
Mof_H 	H 	0.1357	0.7481	0.8463	0.034
Mof_H 	H 	0.3127	0.8062	0.6377	0.082
Mof_C 	C 	0.0542	0.7653	0.598	-0.284
Mof_H 	H 	0.048	0.7639	0.4861	0.099
Mof_H 	H 	0.0183	0.687	0.6371	0.084
Mof_H 	H 	0.0156	0.8038	0.6417	0.098
Mof_H 	H 	0.1315	0.7481	0.8463	0.034
Mof_H 	H 	0.2519	0.8643	0.8463	0.034
Mof_N 	N 	0.1736	0.8264	0.642	0.007
Mof_C 	C 	0.23475	0.76525	0.5974	-0.272
Mof_H 	H 	0.23795	0.76205	0.4854	0.076
Mof_C 	C 	0.17315	0.82685	0.8084	-0.222
Mof_H 	H 	0.13365	0.86635	0.8452	0.08
Mof_H 	H 	0.3127	0.5065	0.6377	0.082
Mof_C 	C 	0.0542	0.2889	0.598	-0.284
Mof_H 	H 	0.048	0.2841	0.4861	0.099
Mof_H 	H 	0.0183	0.3313	0.6371	0.084
Mof_H 	H 	0.0156	0.2118	0.6417	0.098
Mof_H 	H 	0.1315	0.3834	0.8463	0.034
Mof_H 	H 	0.2519	0.3876	0.8463	0.033
Mof_H 	H 	0.1938	0.5065	0.6377	0.082
Mof_C 	C 	0.2347	0.2889	0.598	-0.284
Mof_H 	H 	0.2361	0.2841	0.4861	0.099
Mof_H 	H 	0.313	0.3313	0.6371	0.084
Mof_H 	H 	0.1962	0.2118	0.6417	0.098
Mof_H 	H 	0.2519	0.3834	0.8463	0.033
Mof_H 	H 	0.1357	0.3876	0.8463	0.034
Mof_N 	N 	0.1736	0.3472	0.642	0.007
Mof_C 	C 	0.23475	0.4695	0.5974	-0.272
Mof_H 	H 	0.23795	0.4759	0.4854	0.076
Mof_C 	C 	0.17315	0.3463	0.8084	-0.221
Mof_H 	H 	0.13365	0.2673	0.8452	0.079
Mof_H 	H 	0.5065	0.1938	0.1377	0.072
Mof_C 	C 	0.2889	0.2347	0.098	-0.231
Mof_H 	H 	0.2841	0.2361	0.9861	0.075
Mof_H 	H 	0.3313	0.313	0.1371	0.071
Mof_H 	H 	0.2118	0.1962	0.1417	0.085
Mof_H 	H 	0.3834	0.2519	0.3463	0.034
Mof_H 	H 	0.3876	0.1357	0.3463	0.034
Mof_H 	H 	0.5065	0.3127	0.1377	0.071
Mof_C 	C 	0.2889	0.0542	0.098	-0.229
Mof_H 	H 	0.2841	0.048	0.9861	0.073
Mof_H 	H 	0.3313	0.0183	0.1371	0.072
Mof_H 	H 	0.2118	0.0156	0.1417	0.085
Mof_H 	H 	0.3834	0.1315	0.3463	0.034
Mof_H 	H 	0.3876	0.2519	0.3463	0.034
Mof_N 	N 	0.3472	0.1736	0.142	-0.01
Mof_C 	C 	0.4695	0.23475	0.0974	-0.219
Mof_H 	H 	0.4759	0.23795	0.9854	0.051
Mof_C 	C 	0.3463	0.17315	0.3084	-0.22
Mof_H 	H 	0.2673	0.13365	0.3452	0.079
Mof_H 	H 	0.8062	0.3127	0.1377	0.07
Mof_C 	C 	0.7653	0.0542	0.098	-0.218
Mof_H 	H 	0.7639	0.048	0.9861	0.068
Mof_H 	H 	0.687	0.0183	0.1371	0.069
Mof_H 	H 	0.8038	0.0156	0.1417	0.083
Mof_H 	H 	0.7481	0.1315	0.3463	0.034
Mof_H 	H 	0.8643	0.2519	0.3463	0.034
Mof_H 	H 	0.6873	0.1938	0.1377	0.07
Mof_C 	C 	0.9458	0.2347	0.098	-0.218
Mof_H 	H 	0.952	0.2361	0.9861	0.068
Mof_H 	H 	0.9817	0.313	0.1371	0.069
Mof_H 	H 	0.9844	0.1962	0.1417	0.083
Mof_H 	H 	0.8685	0.2519	0.3463	0.034
Mof_H 	H 	0.7481	0.1357	0.3463	0.034
Mof_N 	N 	0.8264	0.1736	0.142	-0.014
Mof_C 	C 	0.76525	0.23475	0.0974	-0.212
Mof_H 	H 	0.76205	0.23795	0.9854	0.048
Mof_C 	C 	0.82685	0.17315	0.3084	-0.219
Mof_H 	H 	0.86635	0.13365	0.3452	0.08
Mof_H 	H 	0.6873	0.4935	0.1377	0.071
Mof_C 	C 	0.9458	0.7111	0.098	-0.229
Mof_H 	H 	0.952	0.7159	0.9861	0.073
Mof_H 	H 	0.9817	0.6687	0.1371	0.072
Mof_H 	H 	0.9844	0.7882	0.1417	0.085
Mof_H 	H 	0.8685	0.6166	0.3463	0.034
Mof_H 	H 	0.7481	0.6124	0.3463	0.034
Mof_H 	H 	0.8062	0.4935	0.1377	0.072
Mof_C 	C 	0.7653	0.7111	0.098	-0.231
Mof_H 	H 	0.7639	0.7159	0.9861	0.075
Mof_H 	H 	0.687	0.6687	0.1371	0.071
Mof_H 	H 	0.8038	0.7882	0.1417	0.085
Mof_H 	H 	0.7481	0.6166	0.3463	0.034
Mof_H 	H 	0.8643	0.6124	0.3463	0.034
Mof_N 	N 	0.8264	0.6528	0.142	-0.01
Mof_C 	C 	0.76525	0.5305	0.0974	-0.219
Mof_H 	H 	0.76205	0.5241	0.9854	0.051
Mof_C 	C 	0.82685	0.6537	0.3084	-0.22
Mof_H 	H 	0.86635	0.7327	0.3452	0.079
_end
