data_functionalizedCrystal
_audit_creation_method	'EQeq! by Chris Wilmer'
_symmetry_space_group_name_H-M	'P1'
_symmetry_Int_Tables_number	1
_symmetry_cell_setting	triclinic
loop_
_symmetry_equiv_pos_as_xyz
  x,y,z
_cell_length_a	10.0245
_cell_length_b	10.8912
_cell_length_c	20.7145
_cell_angle_alpha	90
_cell_angle_beta	90
_cell_angle_gamma	90
loop_
_atom_site_label
_atom_site_type_symbol
_atom_site_fract_x
_atom_site_fract_y
_atom_site_fract_z
_atom_site_charge
Mof_N 	N 	0.121	0.9687	0.2642	0.003
Mof_H 	H 	0.1167	0.0551	0.2528	0.079
Mof_O 	O 	0.3196	0.888	0.1891	-0.533
Mof_C 	C 	0.3476	0.9087	0.2472	0.623
Mof_O 	O 	0.4658	0.9013	0.2673	-0.154
Mof_C 	C 	0.2434	0.9332	0.2967	-3.359
Mof_H 	H 	0.2253	0.8538	0.3194	0.848
Mof_C 	C 	0.2926	0.0244	0.3475	1.515
Mof_H 	H 	0.2248	0.0321	0.3821	-0.338
Mof_H 	H 	0.3759	0.9931	0.3672	-0.067
Mof_O 	O 	0.3178	0.1688	0.2604	-0.122
Mof_C 	C 	0.3183	0.1488	0.3184	-0.498
Mof_O 	O 	0.3603	0.2327	0.357	-0.445
Mof_O 	O 	0.9085	0.9082	0.19	-0.104
Mof_C 	C 	0.8794	0.9236	0.249	-0.104
Mof_O 	O 	0.7574	0.9256	0.2699	1.409
Mof_C 	C 	0.9871	0.9383	0.2986	-1.17
Mof_H 	H 	0.9987	0.8566	0.3198	0.247
Mof_C 	C 	0.9528	0.0301	0.3518	0.715
Mof_H 	H 	0.875	0.9994	0.3765	-0.17
Mof_H 	H 	0.0291	0.0366	0.382	-0.086
Mof_O 	O 	0.9353	0.1801	0.2677	0.046
Mof_C 	C 	0.9208	0.1561	0.3253	-0.801
Mof_O 	O 	0.8948	0.2402	0.3659	1.195
Mof_Zn	Zn	0.11579	0.89327	0.17239	0.885
Mof_N 	N 	0.1168	0.0319	0.1049	0.87
Mof_C 	C 	0.0397	0.0244	0.0527	-0.685
Mof_H 	H 	0.9935	0.9496	0.0451	0.211
Mof_C 	C 	0.0228	0.1199	0.0084	0.898
Mof_H 	H 	0.9524	0.1191	0.9777	-0.366
Mof_C 	C 	0.1123	0.2146	0.0114	-0.641
Mof_C 	C 	0.1969	0.221	0.0624	1.399
Mof_H 	H 	0.2541	0.2901	0.0669	-0.513
Mof_C 	C 	0.2009	0.1276	0.1082	-0.673
Mof_H 	H 	0.2641	0.1317	0.1423	0.269
Mof_N 	N 	0.1178	0.4894	0.8608	1.868
Mof_C 	C 	0.1688	0.5101	0.9199	8.38
Mof_H 	H 	0.2047	0.5891	0.9287	-3.036
Mof_C 	C 	0.1721	0.4225	0.9689	-3.909
Mof_H 	H 	0.2133	0.4396	0.0092	1.321
Mof_C 	C 	0.1141	0.3109	0.9571	-0.013
Mof_C 	C 	0.064	0.2871	0.898	-0.378
Mof_H 	H 	0.0301	0.2077	0.8885	0.156
Mof_C 	C 	0.0614	0.3774	0.8509	0.48
Mof_H 	H 	0.0192	0.3607	0.8108	-0.16
Mof_Zn	Zn	0.62237	0.87934	0.20751	0.811
Mof_C 	C 	0.529	0.124	0.0151	0.986
Mof_C 	C 	0.628	0.2112	0.0149	1.935
Mof_C 	C 	0.718	0.217	0.0631	-0.47
Mof_C 	C 	0.7057	0.1355	0.114	1.793
Mof_C 	C 	0.6775	0.5061	0.921	-0.702
Mof_C 	C 	0.6823	0.4219	0.971	0.973
Mof_C 	C 	0.6226	0.3104	0.9608	-1.969
Mof_C 	C 	0.5686	0.2865	0.9017	0.361
Mof_C 	C 	0.5682	0.3769	0.8545	0.006
Mof_C 	C 	0.8657	0.918	0.2516	-0.007
Mof_C 	C 	0.7571	0.9363	0.3003	-2.164
Mof_C 	C 	0.5019	0.9392	0.2973	0.645
Mof_C 	C 	0.3962	0.921	0.2466	-1.247
Mof_C 	C 	0.795	0.0236	0.3552	0.592
Mof_C 	C 	0.806	0.152	0.3281	0.84
Mof_C 	C 	0.456	0.0367	0.3467	-0.574
Mof_C 	C 	0.4205	0.1567	0.3138	0.659
Mof_C 	C 	0.539	0.028	0.0594	0.35
Mof_H 	H 	0.4794	0.1012	0.9825	-0.412
Mof_H 	H 	0.7714	0.2878	0.0678	0.115
Mof_H 	H 	0.7579	0.1473	0.1518	-0.775
Mof_H 	H 	0.7124	0.5856	0.9296	0.271
Mof_H 	H 	0.7252	0.4407	0.0107	-0.31
Mof_H 	H 	0.5313	0.2081	0.8929	-0.136
Mof_H 	H 	0.5232	0.3606	0.8151	-0.013
Mof_H 	H 	0.6334	0.0553	0.2524	0.032
Mof_H 	H 	0.7397	0.8543	0.3204	0.531
Mof_H 	H 	0.5125	0.8597	0.321	-0.162
Mof_H 	H 	0.7268	0.0211	0.3895	-0.165
Mof_H 	H 	0.8819	0.9982	0.3742	-0.14
Mof_H 	H 	0.3779	0.0056	0.3707	-0.141
Mof_H 	H 	0.529	0.0514	0.3782	0.229
Mof_H 	H 	0.5127	0.9566	0.0565	-0.572
Mof_N 	N 	0.638	0.9698	0.2654	-0.461
Mof_N 	N 	0.63	0.0323	0.1074	-8.608
Mof_N 	N 	0.6288	0.487	0.8617	-0.695
Mof_O 	O 	0.8399	0.893	0.1935	-0.55
Mof_O 	O 	0.9822	0.913	0.2756	0.67
Mof_O 	O 	0.4306	0.8998	0.1891	-0.047
Mof_O 	O 	0.2756	0.916	0.2678	2.03
Mof_O 	O 	0.8189	0.1754	0.27	-0.484
Mof_O 	O 	0.8367	0.2306	0.3713	-1.605
Mof_O 	O 	0.464	0.176	0.2586	-0.401
Mof_O 	O 	0.378	0.242	0.3498	0.029
Mof_Zn	Zn	0.6407	0.8927	0.17263	0.586
Mof_Zn	Zn	0.1333	0.881	0.20929	0.839
Mof_N 	N 	0.379	0.0313	0.7642	-0.004
Mof_H 	H 	0.3833	0.9449	0.7528	0.07
Mof_O 	O 	0.1804	0.112	0.6891	-0.51
Mof_C 	C 	0.1524	0.0913	0.7472	0.553
Mof_O 	O 	0.0342	0.0987	0.7673	-0.043
Mof_C 	C 	0.2566	0.0668	0.7967	-3.229
Mof_H 	H 	0.2747	0.1462	0.8194	0.816
Mof_C 	C 	0.2074	0.9756	0.8475	1.439
Mof_H 	H 	0.2752	0.9679	0.8821	-0.316
Mof_H 	H 	0.1241	0.0069	0.8672	-0.073
Mof_O 	O 	0.1822	0.8312	0.7604	-0.134
Mof_C 	C 	0.1817	0.8512	0.8184	-0.461
Mof_O 	O 	0.1397	0.7673	0.857	-0.437
Mof_O 	O 	0.5915	0.0918	0.69	-0.114
Mof_C 	C 	0.6206	0.0764	0.749	-0.086
Mof_O 	O 	0.7426	0.0744	0.7699	1.308
Mof_C 	C 	0.5129	0.0617	0.7986	-1.093
Mof_H 	H 	0.5013	0.1434	0.8198	0.236
Mof_C 	C 	0.5472	0.9699	0.8518	0.765
Mof_H 	H 	0.625	0.0006	0.8765	-0.195
Mof_H 	H 	0.4709	0.9634	0.882	-0.107
Mof_O 	O 	0.5647	0.8199	0.7677	0.046
Mof_C 	C 	0.5792	0.8439	0.8253	-0.783
Mof_O 	O 	0.6052	0.7598	0.8659	1.142
Mof_Zn	Zn	0.38421	0.10673	0.67239	0.887
Mof_N 	N 	0.3832	0.9681	0.6049	0.743
Mof_C 	C 	0.4603	0.9756	0.5527	-0.697
Mof_H 	H 	0.5065	0.0504	0.5451	0.213
Mof_C 	C 	0.4772	0.8801	0.5084	0.894
Mof_H 	H 	0.5476	0.8809	0.4777	-0.34
Mof_C 	C 	0.3877	0.7854	0.5114	-0.604
Mof_C 	C 	0.3031	0.779	0.5624	1.557
Mof_H 	H 	0.2459	0.7099	0.5669	-0.575
Mof_C 	C 	0.2991	0.8724	0.6082	-0.751
Mof_H 	H 	0.2359	0.8683	0.6423	0.285
Mof_N 	N 	0.3822	0.5106	0.3608	2.069
Mof_C 	C 	0.3312	0.4899	0.4199	9.158
Mof_H 	H 	0.2953	0.4109	0.4287	-3.315
Mof_C 	C 	0.3279	0.5775	0.4689	-4.219
Mof_H 	H 	0.2867	0.5604	0.5092	1.412
Mof_C 	C 	0.3859	0.6891	0.4571	-0.07
Mof_C 	C 	0.436	0.7129	0.398	-0.387
Mof_H 	H 	0.4699	0.7923	0.3885	0.155
Mof_C 	C 	0.4386	0.6226	0.3509	0.534
Mof_H 	H 	0.4808	0.6393	0.3108	-0.189
Mof_Zn	Zn	0.87763	0.12066	0.70751	0.81
Mof_C 	C 	0.971	0.876	0.5151	0.83
Mof_C 	C 	0.872	0.7888	0.5149	2.03
Mof_C 	C 	0.782	0.783	0.5631	-0.543
Mof_C 	C 	0.7943	0.8645	0.614	1.848
Mof_C 	C 	0.8225	0.4939	0.421	-0.732
Mof_C 	C 	0.8177	0.5781	0.471	1.032
Mof_C 	C 	0.8774	0.6896	0.4608	-2
Mof_C 	C 	0.9314	0.7135	0.4017	0.368
Mof_C 	C 	0.9318	0.6231	0.3545	0.006
Mof_C 	C 	0.6343	0.082	0.7516	0.007
Mof_C 	C 	0.7429	0.0637	0.8003	-2.06
Mof_C 	C 	0.9981	0.0608	0.7973	0.467
Mof_C 	C 	0.1038	0.079	0.7466	-1.198
Mof_C 	C 	0.705	0.9764	0.8552	0.614
Mof_C 	C 	0.694	0.848	0.8281	0.808
Mof_C 	C 	0.044	0.9633	0.8467	-0.504
Mof_C 	C 	0.0795	0.8433	0.8138	0.622
Mof_C 	C 	0.961	0.972	0.5594	0.487
Mof_H 	H 	0.0206	0.8988	0.4825	-0.341
Mof_H 	H 	0.7286	0.7122	0.5678	0.138
Mof_H 	H 	0.7421	0.8527	0.6518	-0.79
Mof_H 	H 	0.7876	0.4144	0.4296	0.283
Mof_H 	H 	0.7748	0.5593	0.5107	-0.342
Mof_H 	H 	0.9687	0.7919	0.3929	-0.136
Mof_H 	H 	0.9768	0.6394	0.3151	-0.014
Mof_H 	H 	0.8666	0.9447	0.7524	0.043
Mof_H 	H 	0.7603	0.1457	0.8204	0.506
Mof_H 	H 	0.9875	0.1403	0.821	-0.13
Mof_H 	H 	0.7732	0.9789	0.8895	-0.158
Mof_H 	H 	0.6181	0.0018	0.8742	-0.16
Mof_H 	H 	0.1221	0.9944	0.8707	-0.131
Mof_H 	H 	0.971	0.9486	0.8782	0.22
Mof_H 	H 	0.9873	0.0434	0.5565	-0.64
Mof_N 	N 	0.862	0.0302	0.7654	-0.455
Mof_N 	N 	0.87	0.9677	0.6074	-8.619
Mof_N 	N 	0.8712	0.513	0.3617	-0.709
Mof_O 	O 	0.6601	0.107	0.6935	-0.544
Mof_O 	O 	0.5178	0.087	0.7756	0.581
Mof_O 	O 	0.0694	0.1002	0.6891	-0.062
Mof_O 	O 	0.2244	0.084	0.7678	1.968
Mof_O 	O 	0.6811	0.8246	0.77	-0.473
Mof_O 	O 	0.6633	0.7694	0.8713	-1.545
Mof_O 	O 	0.036	0.824	0.7586	-0.392
Mof_O 	O 	0.122	0.758	0.8498	0.018
Mof_Zn	Zn	0.8593	0.1073	0.67263	0.584
Mof_Zn	Zn	0.3667	0.119	0.70929	0.843
Mof_N 	N 	0.879	0.4687	0.2358	0.017
Mof_H 	H 	0.8833	0.5551	0.2472	0.064
Mof_O 	O 	0.6804	0.388	0.3109	-0.533
Mof_C 	C 	0.6524	0.4087	0.2528	0.612
Mof_O 	O 	0.5342	0.4013	0.2327	-0.137
Mof_C 	C 	0.7566	0.4332	0.2033	-3.362
Mof_H 	H 	0.7747	0.3538	0.1806	0.846
Mof_C 	C 	0.7074	0.5244	0.1525	1.497
Mof_H 	H 	0.7752	0.5321	0.1179	-0.334
Mof_H 	H 	0.6241	0.4931	0.1328	-0.073
Mof_O 	O 	0.6822	0.6688	0.2396	-0.133
Mof_C 	C 	0.6817	0.6488	0.1816	-0.482
Mof_O 	O 	0.6397	0.7327	0.143	-0.45
Mof_O 	O 	0.0915	0.4082	0.31	-0.115
Mof_C 	C 	0.1206	0.4236	0.251	-0.097
Mof_O 	O 	0.2426	0.4256	0.2301	1.363
Mof_C 	C 	0.0129	0.4383	0.2014	-1.137
Mof_H 	H 	0.0013	0.3566	0.1802	0.242
Mof_C 	C 	0.0472	0.5301	0.1482	0.732
Mof_H 	H 	0.125	0.4994	0.1235	-0.176
Mof_H 	H 	0.9709	0.5366	0.118	-0.101
Mof_O 	O 	0.0647	0.6801	0.2323	0.038
Mof_C 	C 	0.0792	0.6561	0.1747	-0.764
Mof_O 	O 	0.1052	0.7402	0.1341	1.127
Mof_Zn	Zn	0.88421	0.39327	0.32761	0.89
Mof_N 	N 	0.8832	0.5319	0.3951	0.883
Mof_C 	C 	0.9603	0.5244	0.4473	-0.925
Mof_H 	H 	0.0065	0.4496	0.4549	0.3
Mof_C 	C 	0.9772	0.6199	0.4916	1.252
Mof_H 	H 	0.0476	0.6191	0.5223	-0.471
Mof_C 	C 	0.8877	0.7146	0.4886	-0.849
Mof_C 	C 	0.8031	0.721	0.4376	2.136
Mof_H 	H 	0.7459	0.7901	0.4331	-0.796
Mof_C 	C 	0.7991	0.6276	0.3918	-1.042
Mof_H 	H 	0.7359	0.6317	0.3577	0.383
Mof_N 	N 	0.8822	0.9894	0.6392	2.935
Mof_C 	C 	0.8312	0.0101	0.5801	12.148
Mof_H 	H 	0.7953	0.0891	0.5713	-4.392
Mof_C 	C 	0.8279	0.9225	0.5311	-5.623
Mof_H 	H 	0.7867	0.9396	0.4908	1.875
Mof_C 	C 	0.8859	0.8109	0.5429	0.004
Mof_C 	C 	0.936	0.7871	0.602	-0.53
Mof_H 	H 	0.9699	0.7077	0.6115	0.199
Mof_C 	C 	0.9386	0.8774	0.6491	0.699
Mof_H 	H 	0.9808	0.8607	0.6892	-0.266
Mof_Zn	Zn	0.37763	0.37934	0.29249	0.821
Mof_C 	C 	0.471	0.624	0.4849	0.687
Mof_C 	C 	0.372	0.7112	0.4851	1.544
Mof_C 	C 	0.282	0.717	0.4369	-0.378
Mof_C 	C 	0.2943	0.6355	0.386	1.348
Mof_C 	C 	0.3225	0.0061	0.579	-0.675
Mof_C 	C 	0.3177	0.9219	0.529	0.824
Mof_C 	C 	0.3774	0.8104	0.5392	-1.525
Mof_C 	C 	0.4314	0.7865	0.5983	0.274
Mof_C 	C 	0.4318	0.8769	0.6455	-0.033
Mof_C 	C 	0.1343	0.418	0.2484	0.001
Mof_C 	C 	0.2429	0.4363	0.1997	-2.102
Mof_C 	C 	0.4981	0.4392	0.2027	0.639
Mof_C 	C 	0.6038	0.421	0.2534	-1.255
Mof_C 	C 	0.205	0.5236	0.1448	0.584
Mof_C 	C 	0.194	0.652	0.1719	0.804
Mof_C 	C 	0.544	0.5367	0.1533	-0.578
Mof_C 	C 	0.5795	0.6567	0.1862	0.65
Mof_C 	C 	0.461	0.528	0.4406	0.227
Mof_H 	H 	0.5206	0.6012	0.5175	-0.269
Mof_H 	H 	0.2286	0.7878	0.4322	0.096
Mof_H 	H 	0.2421	0.6473	0.3482	-0.583
Mof_H 	H 	0.2876	0.0856	0.5704	0.263
Mof_H 	H 	0.2748	0.9407	0.4893	-0.261
Mof_H 	H 	0.4687	0.7081	0.6071	-0.1
Mof_H 	H 	0.4768	0.8606	0.6849	-0.001
Mof_H 	H 	0.3666	0.5553	0.2476	0.051
Mof_H 	H 	0.2603	0.3543	0.1796	0.519
Mof_H 	H 	0.4875	0.3597	0.179	-0.165
Mof_H 	H 	0.2732	0.5211	0.1105	-0.145
Mof_H 	H 	0.1181	0.4982	0.1258	-0.14
Mof_H 	H 	0.6221	0.5056	0.1293	-0.13
Mof_H 	H 	0.471	0.5514	0.1218	0.231
Mof_H 	H 	0.4873	0.4566	0.4435	-0.401
Mof_N 	N 	0.362	0.4698	0.2346	-0.447
Mof_N 	N 	0.37	0.5323	0.3926	-6.429
Mof_N 	N 	0.3712	0.987	0.6383	-0.654
Mof_O 	O 	0.1601	0.393	0.3065	-0.514
Mof_O 	O 	0.0178	0.413	0.2244	0.632
Mof_O 	O 	0.5694	0.3998	0.3109	-0.012
Mof_O 	O 	0.7244	0.416	0.2322	2.044
Mof_O 	O 	0.1811	0.6754	0.23	-0.473
Mof_O 	O 	0.1633	0.7306	0.1287	-1.539
Mof_O 	O 	0.536	0.676	0.2414	-0.405
Mof_O 	O 	0.622	0.742	0.1502	0.042
Mof_Zn	Zn	0.3593	0.3927	0.32737	0.661
Mof_Zn	Zn	0.8667	0.381	0.29071	0.841
Mof_N 	N 	0.621	0.5313	0.7358	0.02
Mof_H 	H 	0.6167	0.4449	0.7472	0.063
Mof_O 	O 	0.8196	0.612	0.8109	-0.54
Mof_C 	C 	0.8476	0.5913	0.7528	0.624
Mof_O 	O 	0.9658	0.5987	0.7327	-0.161
Mof_C 	C 	0.7434	0.5668	0.7033	-3.383
Mof_H 	H 	0.7253	0.6462	0.6806	0.853
Mof_C 	C 	0.7926	0.4756	0.6525	1.51
Mof_H 	H 	0.7248	0.4679	0.6179	-0.337
Mof_H 	H 	0.8759	0.5069	0.6328	-0.07
Mof_O 	O 	0.8178	0.3312	0.7396	-0.129
Mof_C 	C 	0.8183	0.3512	0.6816	-0.492
Mof_O 	O 	0.8603	0.2673	0.643	-0.454
Mof_O 	O 	0.4085	0.5918	0.81	-0.118
Mof_C 	C 	0.3794	0.5764	0.751	-0.097
Mof_O 	O 	0.2574	0.5744	0.7301	1.356
Mof_C 	C 	0.4871	0.5617	0.7014	-1.139
Mof_H 	H 	0.4987	0.6434	0.6802	0.241
Mof_C 	C 	0.4528	0.4699	0.6482	0.735
Mof_H 	H 	0.375	0.5006	0.6235	-0.176
Mof_H 	H 	0.5291	0.4634	0.618	-0.101
Mof_O 	O 	0.4353	0.3199	0.7323	0.042
Mof_C 	C 	0.4208	0.3439	0.6747	-0.758
Mof_O 	O 	0.3948	0.2598	0.6341	1.119
Mof_Zn	Zn	0.61579	0.60673	0.82761	0.891
Mof_N 	N 	0.6168	0.4681	0.8951	0.847
Mof_C 	C 	0.5397	0.4756	0.9473	-0.861
Mof_H 	H 	0.4935	0.5504	0.9549	0.275
Mof_C 	C 	0.5228	0.3801	0.9916	1.167
Mof_H 	H 	0.4524	0.3809	0.0223	-0.43
Mof_C 	C 	0.6123	0.2854	0.9886	-0.792
Mof_C 	C 	0.6969	0.279	0.9376	2.085
Mof_H 	H 	0.7541	0.2099	0.9331	-0.782
Mof_C 	C 	0.7009	0.3724	0.8918	-1.009
Mof_H 	H 	0.7641	0.3683	0.8577	0.37
Mof_N 	N 	0.6178	0.0106	0.1392	2.919
Mof_C 	C 	0.6688	0.9899	0.0801	12.191
Mof_H 	H 	0.7047	0.9109	0.0713	-4.406
Mof_C 	C 	0.6721	0.0775	0.0311	-5.574
Mof_H 	H 	0.7133	0.0604	0.9908	1.831
Mof_C 	C 	0.6141	0.1891	0.0429	-0.006
Mof_C 	C 	0.564	0.2129	0.102	-0.533
Mof_H 	H 	0.5301	0.2923	0.1115	0.199
Mof_C 	C 	0.5614	0.1226	0.1491	0.728
Mof_H 	H 	0.5192	0.1393	0.1892	-0.277
Mof_Zn	Zn	0.12237	0.62066	0.79249	0.824
Mof_C 	C 	0.029	0.376	0.9849	0.494
Mof_C 	C 	0.128	0.2888	0.9851	1.494
Mof_C 	C 	0.218	0.283	0.9369	-0.438
Mof_C 	C 	0.2057	0.3645	0.886	1.285
Mof_C 	C 	0.1775	0.9939	0.079	-0.94
Mof_C 	C 	0.1823	0.0781	0.029	0.953
Mof_C 	C 	0.1226	0.1896	0.0392	-1.399
Mof_C 	C 	0.0686	0.2135	0.0983	0.273
Mof_C 	C 	0.0682	0.1231	0.1455	-0.092
Mof_C 	C 	0.3657	0.582	0.7484	0.002
Mof_C 	C 	0.2571	0.5637	0.6997	-2.091
Mof_C 	C 	0.0019	0.5608	0.7027	0.68
Mof_C 	C 	0.8962	0.579	0.7534	-1.261
Mof_C 	C 	0.295	0.4764	0.6448	0.584
Mof_C 	C 	0.306	0.348	0.6719	0.797
Mof_C 	C 	0.956	0.4633	0.6533	-0.611
Mof_C 	C 	0.9205	0.3433	0.6862	0.666
Mof_C 	C 	0.039	0.472	0.9406	0.3
Mof_H 	H 	0.9794	0.3988	0.0175	-0.183
Mof_H 	H 	0.2714	0.2122	0.9322	0.122
Mof_H 	H 	0.2579	0.3527	0.8482	-0.549
Mof_H 	H 	0.2124	0.9144	0.0704	0.351
Mof_H 	H 	0.2252	0.0593	0.9893	-0.317
Mof_H 	H 	0.0313	0.2919	0.1071	-0.096
Mof_H 	H 	0.0232	0.1394	0.1849	0.025
Mof_H 	H 	0.1334	0.4447	0.7476	0.058
Mof_H 	H 	0.2397	0.6457	0.6796	0.515
Mof_H 	H 	0.0125	0.6403	0.679	-0.176
Mof_H 	H 	0.2268	0.4789	0.6105	-0.148
Mof_H 	H 	0.3819	0.5018	0.6258	-0.141
Mof_H 	H 	0.8779	0.4944	0.6293	-0.129
Mof_H 	H 	0.029	0.4486	0.6218	0.242
Mof_H 	H 	0.0127	0.5434	0.9435	-0.407
Mof_N 	N 	0.138	0.5302	0.7346	-0.449
Mof_N 	N 	0.13	0.4677	0.8926	-5.903
Mof_N 	N 	0.1288	0.013	0.1383	-0.676
Mof_O 	O 	0.3399	0.607	0.8065	-0.505
Mof_O 	O 	0.4822	0.587	0.7244	0.633
Mof_O 	O 	0.9306	0.6002	0.8109	-0.001
Mof_O 	O 	0.7756	0.584	0.7322	2.053
Mof_O 	O 	0.3189	0.3246	0.73	-0.469
Mof_O 	O 	0.3367	0.2694	0.6287	-1.525
Mof_O 	O 	0.964	0.324	0.7414	-0.421
Mof_O 	O 	0.878	0.258	0.6502	0.043
Mof_Zn	Zn	0.1407	0.6073	0.82737	0.678
Mof_Zn	Zn	0.6333	0.619	0.79071	0.841
_end
